RR1_Rahimova_2017
     RDKit          3D

  0  0  0  0  0  0  0  0  0  0999 V3000
M  V30 BEGIN CTAB
M  V30 COUNTS 68 71 0 0 1
M  V30 BEGIN ATOM
M  V30 1 O 0.192232 -4.171297 -1.057244 0
M  V30 2 C -0.828495 -4.239909 -0.370705 0
M  V30 3 C -2.098521 -3.476711 -0.776968 0
M  V30 4 S -1.891183 -2.275561 -2.137983 0
M  V30 5 C -1.766418 -0.818991 -1.155885 0
M  V30 6 N -2.778160 -0.044757 -0.855254 0
M  V30 7 C -2.236660 0.907867 -0.103230 0
M  V30 8 C -3.049882 2.024656 0.486816 0
M  V30 9 C -2.457277 3.036145 1.260213 0
M  V30 10 C -3.238739 4.060105 1.797858 0
M  V30 11 C -4.610407 4.049578 1.548000 0
M  V30 12 N -5.215806 3.089316 0.806175 0
M  V30 13 C -4.438063 2.102723 0.291481 0
M  V30 14 N -0.936219 0.803260 0.093520 0
M  V30 15 N -0.630478 -0.307313 -0.584278 0
M  V30 16 C 0.743508 -0.809391 -0.606693 0
M  V30 17 C 1.212237 -1.482309 0.695336 0
M  V30 18 N 2.437051 -2.039451 0.637918 0
M  V30 19 N 2.864990 -2.789544 1.723608 0
M  V30 20 C 3.664720 -3.850676 1.480963 0
M  V30 21 C 4.013775 -4.698698 2.687063 0
M  V30 22 C 3.282135 -4.622461 3.883463 0
M  V30 23 C 3.600609 -5.426685 4.991439 0
M  V30 24 O 2.898152 -5.402320 6.183990 0
M  V30 25 C 1.773029 -4.541212 6.320324 0
M  V30 26 C 4.675769 -6.322025 4.905667 0
M  V30 27 O 4.942585 -7.094947 6.022376 0
M  V30 28 C 5.995715 -8.051244 5.976928 0
M  V30 29 C 5.408910 -6.401394 3.711416 0
M  V30 30 C 5.079336 -5.603517 2.619681 0
M  V30 31 O 4.121718 -4.132842 0.367752 0
M  V30 32 O 0.491085 -1.488098 1.699416 0
M  V30 33 N -0.942177 -4.956102 0.768314 0
M  V30 34 C -0.008912 -5.816056 1.377850 0
M  V30 35 C -0.260650 -6.151747 2.709277 0
M  V30 36 C 0.580404 -7.031439 3.384574 0
M  V30 37 C 1.687612 -7.593640 2.731504 0
M  V30 38 O 2.571334 -8.478657 3.318536 0
M  V30 39 C 2.320553 -8.934118 4.644030 0
M  V30 40 C 1.937198 -7.254017 1.402036 0
M  V30 41 C 1.098113 -6.375739 0.722249 0
M  V30 42 H -2.830826 -4.217803 -1.099185 0
M  V30 43 H -2.533383 -2.972725 0.087911 0
M  V30 44 H -1.393591 3.035523 1.449163 0
M  V30 45 H -2.790803 4.841707 2.393654 0
M  V30 46 H -5.248679 4.824150 1.947111 0
M  V30 47 H -4.961833 1.359439 -0.291887 0
M  V30 48 H 0.838369 -1.512275 -1.435144 0
M  V30 49 H 1.404018 0.028746 -0.835152 0
M  V30 50 H 2.946620 -2.228483 -0.213549 0
M  V30 51 H 2.166572 -2.816142 2.452595 0
M  V30 52 H 2.446579 -3.942705 3.947736 0
M  V30 53 H 1.344338 -4.665489 7.314480 0
M  V30 54 H 0.994972 -4.780619 5.593852 0
M  V30 55 H 2.055865 -3.493152 6.212181 0
M  V30 56 H 6.051126 -8.569931 6.933843 0
M  V30 57 H 6.961880 -7.575105 5.803263 0
M  V30 58 H 5.820211 -8.801458 5.204492 0
M  V30 59 H 6.239418 -7.082521 3.607632 0
M  V30 60 H 5.667122 -5.699451 1.717661 0
M  V30 61 H -1.802509 -4.842188 1.284194 0
M  V30 62 H -1.112195 -5.736638 3.229496 0
M  V30 63 H 0.356345 -7.266663 4.413806 0
M  V30 64 H 3.110931 -9.622675 4.942322 0
M  V30 65 H 1.372101 -9.469312 4.708342 0
M  V30 66 H 2.314133 -8.112394 5.360861 0
M  V30 67 H 2.787052 -7.679864 0.888717 0
M  V30 68 H 1.320681 -6.164151 -0.311575 0
M  V30 END ATOM
M  V30 BEGIN BOND
M  V30 1 2 2 1
M  V30 2 1 3 2
M  V30 3 1 4 3
M  V30 4 1 5 4
M  V30 5 2 6 5
M  V30 6 1 7 6
M  V30 7 1 8 7
M  V30 8 2 9 8
M  V30 9 1 10 9
M  V30 10 2 11 10
M  V30 11 1 12 11
M  V30 12 2 13 12
M  V30 13 1 13 8
M  V30 14 2 14 7
M  V30 15 1 15 14
M  V30 16 1 15 5
M  V30 17 1 16 15
M  V30 18 1 17 16
M  V30 19 1 18 17
M  V30 20 1 19 18
M  V30 21 1 20 19
M  V30 22 1 21 20
M  V30 23 2 22 21
M  V30 24 1 23 22
M  V30 25 1 24 23
M  V30 26 1 25 24
M  V30 27 2 26 23
M  V30 28 1 27 26
M  V30 29 1 28 27
M  V30 30 1 29 26
M  V30 31 2 30 29
M  V30 32 1 30 21
M  V30 33 2 31 20
M  V30 34 2 32 17
M  V30 35 1 33 2
M  V30 36 1 34 33
M  V30 37 2 35 34
M  V30 38 1 36 35
M  V30 39 2 37 36
M  V30 40 1 38 37
M  V30 41 1 39 38
M  V30 42 1 40 37
M  V30 43 2 41 40
M  V30 44 1 41 34
M  V30 45 1 42 3
M  V30 46 1 43 3
M  V30 47 1 44 9
M  V30 48 1 45 10
M  V30 49 1 46 11
M  V30 50 1 47 13
M  V30 51 1 48 16
M  V30 52 1 49 16
M  V30 53 1 50 18
M  V30 54 1 51 19
M  V30 55 1 52 22
M  V30 56 1 53 25
M  V30 57 1 54 25
M  V30 58 1 55 25
M  V30 59 1 56 28
M  V30 60 1 57 28
M  V30 61 1 58 28
M  V30 62 1 59 29
M  V30 63 1 60 30
M  V30 64 1 61 33
M  V30 65 1 62 35
M  V30 66 1 63 36
M  V30 67 1 64 39
M  V30 68 1 65 39
M  V30 69 1 66 39
M  V30 70 1 67 40
M  V30 71 1 68 41
M  V30 END BOND
M  V30 END CTAB
M  END
>  <i_epik_Tot_Q>  (1) 
0

>  <i_epik_Tot_abs_Q>  (1) 
0

>  <i_f3d_flags>  (1) 
0

>  <i_lp_mmshare_version>  (1) 
71160

>  <i_lp_orig_ion_str>  (1) 
1

>  <i_m_source_file_index>  (1) 
1

>  <b_lp_Chiralities_Consistent>  (1) 
1

>  <r_epik_Charging_Adjusted_Penalty>  (1) 
0

>  <r_epik_Ionization_Penalty>  (1) 
0.0010106575262305768

>  <r_epik_Ionization_Penalty_Charging>  (1) 
0

>  <r_epik_Ionization_Penalty_Neutral>  (1) 
0.0010106575262305768

>  <r_epik_State_Penalty>  (1) 
-0

>  <r_lp_Energy>  (1) 
52.592962999999997

>  <r_lp_tautomer_probability>  (1) 
1

>  <s_epik_cmdline>  (1) 
J2VwaWtfcHl0aG9uJywgJy1waHQnLCAnMC4yJywgJy1waCcsICc3LjQnLCAnLXJldGFpbl9pX2xhYicsICctcmV0YWluX3RfbGFiJywgJy10bicsICcxJywgJy1tYScsICc1MDAnLCAnLWltYWUnLCAnPGluZmlsZS5tYWU+JywgJy1vbWFlJywgJzxvdXRmaWxlLm1hZT4n

>  <s_epik_input>  (1) 
W0NIM11PYyhbY0hdW2NIXTEpW2NIXVtjSF1jMVtOSF1DKD1PKVtDSDJdU2MybmMoLWMzW2NIXVtjSF1bY0hdbltjSF0zKW5uMltDSDJdQyg9TylbTkhdW05IXUMoPU8pYzRbY0hdYyhPW0NIM10pYyhPW0NIM10pW2NIXVtjSF00

>  <s_lp_Force_Field>  (1) 
S-OPLS

>  <s_lp_Variant>  (1) 
RR1_Rahimova_2017-1

>  <s_lp_label>  (1) 
1

>  <s_m_source_file>  (1) 
montpellier_ligands.smi

$$$$
RR2_Rahimova_2017
     RDKit          3D

  0  0  0  0  0  0  0  0  0  0999 V3000
M  V30 BEGIN CTAB
M  V30 COUNTS 76 80 0 0 1
M  V30 BEGIN ATOM
M  V30 1 C -4.448398 2.323573 -7.768918 0
M  V30 2 C -4.982795 2.094884 -6.366623 0
M  V30 3 C -4.823945 0.848939 -5.755960 0
M  V30 4 C -5.301660 0.641358 -4.464640 0
M  V30 5 C -5.934263 1.683964 -3.783678 0
M  V30 6 S -6.540347 1.448843 -2.115086 0
M  V30 7 N -5.479883 2.443158 -1.090573 0
M  V30 8 C -4.223948 2.039859 -0.613253 0
M  V30 9 C -3.465318 1.042294 -1.234871 0
M  V30 10 C -2.219821 0.689805 -0.722861 0
M  V30 11 C -1.712780 1.342388 0.403637 0
M  V30 12 C -0.371206 0.961956 0.940736 0
M  V30 13 N 0.007602 -0.280603 1.121865 0
M  V30 14 N 1.293299 -0.252986 1.645198 0
M  V30 15 C 1.654856 1.002279 1.732598 0
M  V30 16 S 3.259599 1.506159 2.273787 0
M  V30 17 C 3.981372 2.087082 0.694508 0
M  V30 18 C 3.699319 1.188583 -0.516672 0
M  V30 19 N 4.492269 0.104555 -0.633671 0
M  V30 20 N 4.142449 -0.869180 -1.562926 0
M  V30 21 C 5.014581 -1.143528 -2.559603 0
M  V30 22 C 4.628341 -2.283594 -3.481518 0
M  V30 23 C 5.583050 -2.827790 -4.351566 0
M  V30 24 C 5.253492 -3.878951 -5.202921 0
M  V30 25 C 3.954899 -4.408347 -5.204321 0
M  V30 26 O 3.537823 -5.450756 -6.009638 0
M  V30 27 C 4.469193 -6.055222 -6.900655 0
M  V30 28 C 3.000996 -3.865102 -4.345663 0
M  V30 29 C 3.328516 -2.814693 -3.493387 0
M  V30 30 O 6.076946 -0.535608 -2.732983 0
M  V30 31 O 2.782348 1.479140 -1.290852 0
M  V30 32 N 0.637566 1.837314 1.307564 0
M  V30 33 C 0.649850 3.244885 1.226540 0
M  V30 34 C 0.925267 4.005867 2.364031 0
M  V30 35 C 0.939888 5.394575 2.275685 0
M  V30 36 C 0.680684 6.033093 1.061674 0
M  V30 37 O 0.716987 7.414170 1.073876 0
M  V30 38 C 0.456092 8.126761 -0.130620 0
M  V30 39 C 0.405131 5.258868 -0.077377 0
M  V30 40 C 0.391245 3.869552 0.004667 0
M  V30 41 C -2.469843 2.340626 1.022629 0
M  V30 42 C -3.718119 2.688020 0.514354 0
M  V30 43 O -7.864865 2.076661 -2.053926 0
M  V30 44 O -6.354840 0.043750 -1.732628 0
M  V30 45 C -6.089102 2.931262 -4.390765 0
M  V30 46 C -5.612056 3.136915 -5.682215 0
M  V30 47 H -4.188704 3.371300 -7.926312 0
M  V30 48 H -5.187137 2.027307 -8.514017 0
M  V30 49 H -3.537113 1.747921 -7.935442 0
M  V30 50 H -4.332696 0.041131 -6.279092 0
M  V30 51 H -5.175138 -0.325826 -4.000823 0
M  V30 52 H -5.817571 3.353019 -0.813403 0
M  V30 53 H -3.823998 0.532612 -2.114704 0
M  V30 54 H -1.644602 -0.083395 -1.211773 0
M  V30 55 H 3.529655 3.060543 0.497627 0
M  V30 56 H 5.050599 2.269778 0.808084 0
M  V30 57 H 5.065934 -0.248719 0.118622 0
M  V30 58 H 3.568399 -1.589990 -1.149583 0
M  V30 59 H 6.594247 -2.446037 -4.374181 0
M  V30 60 H 6.020620 -4.270091 -5.853758 0
M  V30 61 H 3.973240 -6.854286 -7.451428 0
M  V30 62 H 5.308438 -6.497810 -6.362045 0
M  V30 63 H 4.849322 -5.338292 -7.630043 0
M  V30 64 H 1.996148 -4.261893 -4.338518 0
M  V30 65 H 2.554426 -2.423981 -2.848718 0
M  V30 66 H 1.125749 3.528748 3.312726 0
M  V30 67 H 1.154036 5.980597 3.157587 0
M  V30 68 H 0.527219 9.197221 0.062213 0
M  V30 69 H -0.548670 7.924953 -0.504684 0
M  V30 70 H 1.183280 7.882217 -0.906581 0
M  V30 71 H 0.201595 5.716920 -1.033248 0
M  V30 72 H 0.183113 3.284570 -0.880226 0
M  V30 73 H -2.095716 2.848494 1.899744 0
M  V30 74 H -4.290031 3.463516 1.003369 0
M  V30 75 H -6.573917 3.740064 -3.863187 0
M  V30 76 H -5.732796 4.104477 -6.147676 0
M  V30 END ATOM
M  V30 BEGIN BOND
M  V30 1 1 2 1
M  V30 2 2 3 2
M  V30 3 1 4 3
M  V30 4 2 5 4
M  V30 5 1 6 5
M  V30 6 1 7 6
M  V30 7 1 8 7
M  V30 8 2 9 8
M  V30 9 1 10 9
M  V30 10 2 11 10
M  V30 11 1 12 11
M  V30 12 2 13 12
M  V30 13 1 14 13
M  V30 14 2 15 14
M  V30 15 1 16 15
M  V30 16 1 17 16
M  V30 17 1 18 17
M  V30 18 1 19 18
M  V30 19 1 20 19
M  V30 20 1 21 20
M  V30 21 1 22 21
M  V30 22 2 23 22
M  V30 23 1 24 23
M  V30 24 2 25 24
M  V30 25 1 26 25
M  V30 26 1 27 26
M  V30 27 1 28 25
M  V30 28 2 29 28
M  V30 29 1 29 22
M  V30 30 2 30 21
M  V30 31 2 31 18
M  V30 32 1 32 15
M  V30 33 1 32 12
M  V30 34 1 33 32
M  V30 35 2 34 33
M  V30 36 1 35 34
M  V30 37 2 36 35
M  V30 38 1 37 36
M  V30 39 1 38 37
M  V30 40 1 39 36
M  V30 41 2 40 39
M  V30 42 1 40 33
M  V30 43 1 41 11
M  V30 44 2 42 41
M  V30 45 1 42 8
M  V30 46 2 43 6
M  V30 47 2 44 6
M  V30 48 1 45 5
M  V30 49 2 46 45
M  V30 50 1 46 2
M  V30 51 1 47 1
M  V30 52 1 48 1
M  V30 53 1 49 1
M  V30 54 1 50 3
M  V30 55 1 51 4
M  V30 56 1 52 7
M  V30 57 1 53 9
M  V30 58 1 54 10
M  V30 59 1 55 17
M  V30 60 1 56 17
M  V30 61 1 57 19
M  V30 62 1 58 20
M  V30 63 1 59 23
M  V30 64 1 60 24
M  V30 65 1 61 27
M  V30 66 1 62 27
M  V30 67 1 63 27
M  V30 68 1 64 28
M  V30 69 1 65 29
M  V30 70 1 66 34
M  V30 71 1 67 35
M  V30 72 1 68 38
M  V30 73 1 69 38
M  V30 74 1 70 38
M  V30 75 1 71 39
M  V30 76 1 72 40
M  V30 77 1 73 41
M  V30 78 1 74 42
M  V30 79 1 75 45
M  V30 80 1 76 46
M  V30 END BOND
M  V30 END CTAB
M  END
>  <i_epik_Tot_Q>  (2) 
0

>  <i_epik_Tot_abs_Q>  (2) 
0

>  <i_f3d_flags>  (2) 
0

>  <i_lp_mmshare_version>  (2) 
71160

>  <i_lp_orig_ion_str>  (2) 
1

>  <i_m_source_file_index>  (2) 
2

>  <b_lp_Chiralities_Consistent>  (2) 
1

>  <r_epik_Charging_Adjusted_Penalty>  (2) 
0.021948702152110481

>  <r_epik_Ionization_Penalty>  (2) 
0.022921030473029833

>  <r_epik_Ionization_Penalty_Charging>  (2) 
0

>  <r_epik_Ionization_Penalty_Neutral>  (2) 
0.022921030473029833

>  <r_epik_State_Penalty>  (2) 
0.021948702152110481

>  <r_lp_Energy>  (2) 
58.477117

>  <r_lp_tautomer_probability>  (2) 
1

>  <s_epik_cmdline>  (2) 
J2VwaWtfcHl0aG9uJywgJy1waHQnLCAnMC4yJywgJy1waCcsICc3LjQnLCAnLXJldGFpbl9pX2xhYicsICctcmV0YWluX3RfbGFiJywgJy10bicsICcxJywgJy1tYScsICc1MDAnLCAnLWltYWUnLCAnPGluZmlsZS5tYWU+JywgJy1vbWFlJywgJzxvdXRmaWxlLm1hZT4n

>  <s_epik_input>  (2) 
W0NIM11jMVtjSF1bY0hdYyhbY0hdW2NIXTEpUyg9TykoPU8pW05IXWMyW2NIXVtjSF1jKFtjSF1bY0hdMiktYzNubmMobjMtYzRbY0hdW2NIXWMoT1tDSDNdKVtjSF1bY0hdNClTW0NIMl1DKD1PKVtOSF1bTkhdQyg9TyljNVtjSF1bY0hdYyhPW0NIM10pW2NIXVtjSF01

>  <s_lp_Force_Field>  (2) 
S-OPLS

>  <s_lp_Variant>  (2) 
RR2_Rahimova_2017-1

>  <s_lp_label>  (2) 
2

>  <s_m_source_file>  (2) 
montpellier_ligands.smi

$$$$
RR3_Rahimova_2017
     RDKit          3D

  0  0  0  0  0  0  0  0  0  0999 V3000
M  V30 BEGIN CTAB
M  V30 COUNTS 63 69 0 0 1
M  V30 BEGIN ATOM
M  V30 1 C -4.275517 -0.111429 -0.120801 0
M  V30 2 C -2.780180 -0.066501 -0.084579 0
M  V30 3 C -2.029569 -1.231692 0.124774 0
M  V30 4 C -0.638743 -1.189865 0.162129 0
M  V30 5 C 0.034952 0.023139 -0.003481 0
M  V30 6 C 1.529943 0.076433 0.041010 0
M  V30 7 C 2.360055 1.070187 0.586848 0
M  V30 8 C 2.098123 2.326666 1.349702 0
M  V30 9 C 1.031349 2.391705 2.247328 0
M  V30 10 C 0.776203 3.565348 2.949880 0
M  V30 11 C 1.582690 4.698540 2.776518 0
M  V30 12 C 1.294373 5.965029 3.519816 0
M  V30 13 C 2.332825 6.826002 3.906232 0
M  V30 14 C 2.063263 8.006506 4.594039 0
M  V30 15 C 0.748331 8.340242 4.902808 0
M  V30 16 C -0.297244 7.502042 4.529413 0
M  V30 17 C -0.023788 6.322120 3.842928 0
M  V30 18 C 2.662340 4.615498 1.885935 0
M  V30 19 C 2.919989 3.442861 1.180857 0
M  V30 20 N 3.623932 0.627855 0.292395 0
M  V30 21 C 3.505667 -0.570918 -0.355365 0
M  V30 22 C 4.643502 -1.366123 -0.808812 0
M  V30 23 C 5.978751 -1.049265 -0.623539 0
M  V30 24 N 6.775528 -2.020874 -1.169622 0
M  V30 25 C 5.994844 -3.005517 -1.732882 0
M  V30 26 C 4.632714 -2.621211 -1.523574 0
M  V30 27 C 3.620936 -3.467912 -2.011452 0
M  V30 28 C 3.974544 -4.641031 -2.675287 0
M  V30 29 C 5.309342 -4.987994 -2.862313 0
M  V30 30 C 6.350001 -4.183958 -2.398501 0
M  V30 31 N 2.246486 -0.902743 -0.500989 0
M  V30 32 C -0.703338 1.187466 -0.225687 0
M  V30 33 C -2.093747 1.142487 -0.261711 0
M  V30 34 C -5.038056 0.976957 0.329690 0
M  V30 35 C -6.429421 0.937856 0.296487 0
M  V30 36 C -7.075358 -0.194132 -0.189974 0
M  V30 37 C -6.340203 -1.285361 -0.641881 0
M  V30 38 C -4.949007 -1.242450 -0.606225 0
M  V30 39 H -2.518569 -2.182681 0.275116 0
M  V30 40 H -0.087832 -2.103764 0.331738 0
M  V30 41 H 0.395944 1.532884 2.408656 0
M  V30 42 H -0.053585 3.580126 3.640955 0
M  V30 43 H 3.361601 6.582063 3.685603 0
M  V30 44 H 2.871556 8.660033 4.887825 0
M  V30 45 H 0.537643 9.256229 5.435004 0
M  V30 46 H -1.316844 7.766773 4.767992 0
M  V30 47 H -0.852207 5.693165 3.552110 0
M  V30 48 H 3.303626 5.467977 1.717446 0
M  V30 49 H 3.752012 3.412615 0.492460 0
M  V30 50 H 4.487972 1.090578 0.534618 0
M  V30 51 H 6.438296 -0.200742 -0.138031 0
M  V30 52 H 7.783910 -1.977319 -1.138026 0
M  V30 53 H 2.578407 -3.219933 -1.878036 0
M  V30 54 H 3.199309 -5.292676 -3.051206 0
M  V30 55 H 5.544705 -5.905740 -3.381323 0
M  V30 56 H 7.381339 -4.466632 -2.550864 0
M  V30 57 H -0.203592 2.133319 -0.376175 0
M  V30 58 H -2.632762 2.060535 -0.442867 0
M  V30 59 H -4.558000 1.861270 0.721825 0
M  V30 60 H -7.004610 1.781542 0.648535 0
M  V30 61 H -8.154520 -0.225945 -0.216811 0
M  V30 62 H -6.846091 -2.161026 -1.020769 0
M  V30 63 H -4.398075 -2.095972 -0.972769 0
M  V30 END ATOM
M  V30 BEGIN BOND
M  V30 1 1 2 1
M  V30 2 2 3 2
M  V30 3 1 4 3
M  V30 4 2 5 4
M  V30 5 1 6 5
M  V30 6 2 7 6
M  V30 7 1 8 7
M  V30 8 2 9 8
M  V30 9 1 10 9
M  V30 10 2 11 10
M  V30 11 1 12 11
M  V30 12 2 13 12
M  V30 13 1 14 13
M  V30 14 2 15 14
M  V30 15 1 16 15
M  V30 16 2 17 16
M  V30 17 1 17 12
M  V30 18 1 18 11
M  V30 19 2 19 18
M  V30 20 1 19 8
M  V30 21 1 20 7
M  V30 22 1 21 20
M  V30 23 1 22 21
M  V30 24 2 23 22
M  V30 25 1 24 23
M  V30 26 1 25 24
M  V30 27 2 26 25
M  V30 28 1 26 22
M  V30 29 1 27 26
M  V30 30 2 28 27
M  V30 31 1 29 28
M  V30 32 2 30 29
M  V30 33 1 30 25
M  V30 34 2 31 21
M  V30 35 1 31 6
M  V30 36 1 32 5
M  V30 37 2 33 32
M  V30 38 1 33 2
M  V30 39 2 34 1
M  V30 40 1 35 34
M  V30 41 2 36 35
M  V30 42 1 37 36
M  V30 43 2 38 37
M  V30 44 1 38 1
M  V30 45 1 39 3
M  V30 46 1 40 4
M  V30 47 1 41 9
M  V30 48 1 42 10
M  V30 49 1 43 13
M  V30 50 1 44 14
M  V30 51 1 45 15
M  V30 52 1 46 16
M  V30 53 1 47 17
M  V30 54 1 48 18
M  V30 55 1 49 19
M  V30 56 1 50 20
M  V30 57 1 51 23
M  V30 58 1 52 24
M  V30 59 1 53 27
M  V30 60 1 54 28
M  V30 61 1 55 29
M  V30 62 1 56 30
M  V30 63 1 57 32
M  V30 64 1 58 33
M  V30 65 1 59 34
M  V30 66 1 60 35
M  V30 67 1 61 36
M  V30 68 1 62 37
M  V30 69 1 63 38
M  V30 END BOND
M  V30 END CTAB
M  END
>  <i_epik_Tot_Q>  (3) 
0

>  <i_epik_Tot_abs_Q>  (3) 
0

>  <i_f3d_flags>  (3) 
0

>  <i_lp_mmshare_version>  (3) 
71160

>  <i_lp_orig_ion_str>  (3) 
1

>  <i_m_source_file_index>  (3) 
3

>  <b_lp_Chiralities_Consistent>  (3) 
1

>  <r_epik_Charging_Adjusted_Penalty>  (3) 
0.0033332525343233357

>  <r_epik_Ionization_Penalty>  (3) 
0.0033415237491289636

>  <r_epik_Ionization_Penalty_Charging>  (3) 
0.0033332525343233357

>  <r_epik_Ionization_Penalty_Neutral>  (3) 
8.2712148056278826e-06

>  <r_epik_State_Penalty>  (3) 
-0

>  <r_lp_Energy>  (3) 
64.09049499999999

>  <r_lp_tautomer_probability>  (3) 
1

>  <s_epik_cmdline>  (3) 
J2VwaWtfcHl0aG9uJywgJy1waHQnLCAnMC4yJywgJy1waCcsICc3LjQnLCAnLXJldGFpbl9pX2xhYicsICctcmV0YWluX3RfbGFiJywgJy10bicsICcxJywgJy1tYScsICc1MDAnLCAnLWltYWUnLCAnPGluZmlsZS5tYWU+JywgJy1vbWFlJywgJzxvdXRmaWxlLm1hZT4n

>  <s_epik_input>  (3) 
W2NIXTFbY0hdW2NIXVtjSF1bY0hdYzEtYzJbY0hdW2NIXWMoW2NIXVtjSF0yKS1jM2MoW25IXWMobjMpLWMoW2NIXVtuSF00KWMoYzQ1KVtjSF1bY0hdW2NIXVtjSF01KS1jNltjSF1bY0hdYyhbY0hdW2NIXTYpLWM3W2NIXVtjSF1bY0hdW2NIXVtjSF03

>  <s_lp_Force_Field>  (3) 
S-OPLS

>  <s_lp_Variant>  (3) 
RR3_Rahimova_2017-1

>  <s_lp_label>  (3) 
3

>  <s_m_source_file>  (3) 
montpellier_ligands.smi

$$$$
RR4_Rahimova_2017
     RDKit          3D

  0  0  0  0  0  0  0  0  0  0999 V3000
M  V30 BEGIN CTAB
M  V30 COUNTS 66 70 0 0 1
M  V30 BEGIN ATOM
M  V30 1 C -5.301807 -6.739729 -0.162387 0
M  V30 2 O -5.241934 -5.688266 0.795587 0
M  V30 3 C -4.425660 -4.600340 0.552281 0
M  V30 4 C -4.409267 -3.603640 1.527514 0
M  V30 5 C -3.617408 -2.470262 1.367906 0
M  V30 6 C -2.821123 -2.315260 0.229283 0
M  V30 7 C -1.984188 -1.089109 0.060450 0
M  V30 8 C -2.641477 0.147852 0.036756 0
M  V30 9 C -1.922113 1.334110 -0.144047 0
M  V30 10 C -2.577147 2.684713 -0.181466 0
M  V30 11 C -3.939221 2.817761 -0.488555 0
M  V30 12 C -4.549154 4.068442 -0.523399 0
M  V30 13 C -3.817838 5.223096 -0.254258 0
M  V30 14 O -4.506143 6.419780 -0.312273 0
M  V30 15 C -3.809584 7.633965 -0.053033 0
M  V30 16 C -2.455142 5.107072 0.051532 0
M  V30 17 C -1.848069 3.854818 0.084991 0
M  V30 18 N -0.570848 1.310305 -0.275594 0
M  V30 19 C 0.091861 0.130513 -0.224505 0
M  V30 20 S 1.856096 0.299231 -0.395412 0
M  V30 21 C 2.634984 -0.559821 1.012927 0
M  V30 22 C 3.759475 0.228779 1.698405 0
M  V30 23 N 4.054284 -0.180314 2.953599 0
M  V30 24 C 5.014428 0.331125 3.831403 0
M  V30 25 C 5.244939 -0.106713 5.144025 0
M  V30 26 C 4.486301 -1.176304 5.786363 0
M  V30 27 N 3.884581 -2.023696 6.294786 0
M  V30 28 C 6.299429 0.591828 5.780725 0
M  V30 29 C 6.778595 0.375821 7.221066 0
M  V30 30 C 7.592704 1.593630 7.712815 0
M  V30 31 C 8.621501 2.064175 6.669712 0
M  V30 32 C 7.946682 2.565747 5.375632 0
M  V30 33 C 6.856764 1.585687 4.961969 0
M  V30 34 S 6.091288 1.634303 3.403901 0
M  V30 35 O 4.329904 1.148367 1.105675 0
M  V30 36 C -0.574311 -1.106698 -0.074603 0
M  V30 37 C 0.163445 -2.373557 -0.058643 0
M  V30 38 N 0.745193 -3.373925 -0.045830 0
M  V30 39 C -2.841962 -3.310999 -0.752820 0
M  V30 40 C -3.633000 -4.445740 -0.595107 0
M  V30 41 H -5.992068 -7.507020 0.187989 0
M  V30 42 H -4.327428 -7.210871 -0.300753 0
M  V30 43 H -5.667640 -6.382863 -1.126313 0
M  V30 44 H -5.015432 -3.708439 2.415435 0
M  V30 45 H -3.620803 -1.711035 2.136699 0
M  V30 46 H -3.714160 0.171990 0.157347 0
M  V30 47 H -4.545332 1.954968 -0.718819 0
M  V30 48 H -5.599505 4.141353 -0.765354 0
M  V30 49 H -4.500033 8.471962 -0.146398 0
M  V30 50 H -3.000764 7.791912 -0.768197 0
M  V30 51 H -3.402035 7.653424 0.959021 0
M  V30 52 H -1.850614 5.975055 0.266471 0
M  V30 53 H -0.796830 3.805140 0.329421 0
M  V30 54 H 1.850483 -0.767351 1.742138 0
M  V30 55 H 3.031887 -1.520175 0.683008 0
M  V30 56 H 3.507666 -0.946122 3.320248 0
M  V30 57 H 5.942084 0.200523 7.898704 0
M  V30 58 H 7.396172 -0.521989 7.267202 0
M  V30 59 H 6.916139 2.416433 7.950879 0
M  V30 60 H 8.097634 1.341281 8.646080 0
M  V30 61 H 9.242229 2.857511 7.088302 0
M  V30 62 H 9.301542 1.242712 6.436774 0
M  V30 63 H 7.507609 3.547533 5.558489 0
M  V30 64 H 8.692220 2.692656 4.589578 0
M  V30 65 H -2.243164 -3.206118 -1.646233 0
M  V30 66 H -3.619454 -5.192382 -1.374543 0
M  V30 END ATOM
M  V30 BEGIN BOND
M  V30 1 1 2 1
M  V30 2 1 3 2
M  V30 3 2 4 3
M  V30 4 1 5 4
M  V30 5 2 6 5
M  V30 6 1 7 6
M  V30 7 2 8 7
M  V30 8 1 9 8
M  V30 9 1 10 9
M  V30 10 2 11 10
M  V30 11 1 12 11
M  V30 12 2 13 12
M  V30 13 1 14 13
M  V30 14 1 15 14
M  V30 15 1 16 13
M  V30 16 2 17 16
M  V30 17 1 17 10
M  V30 18 2 18 9
M  V30 19 1 19 18
M  V30 20 1 20 19
M  V30 21 1 21 20
M  V30 22 1 22 21
M  V30 23 1 23 22
M  V30 24 1 24 23
M  V30 25 2 25 24
M  V30 26 1 26 25
M  V30 27 3 27 26
M  V30 28 1 28 25
M  V30 29 1 29 28
M  V30 30 1 30 29
M  V30 31 1 31 30
M  V30 32 1 32 31
M  V30 33 2 33 28
M  V30 34 1 33 32
M  V30 35 1 34 33
M  V30 36 1 34 24
M  V30 37 2 35 22
M  V30 38 2 36 19
M  V30 39 1 36 7
M  V30 40 1 37 36
M  V30 41 3 38 37
M  V30 42 1 39 6
M  V30 43 2 40 39
M  V30 44 1 40 3
M  V30 45 1 41 1
M  V30 46 1 42 1
M  V30 47 1 43 1
M  V30 48 1 44 4
M  V30 49 1 45 5
M  V30 50 1 46 8
M  V30 51 1 47 11
M  V30 52 1 48 12
M  V30 53 1 49 15
M  V30 54 1 50 15
M  V30 55 1 51 15
M  V30 56 1 52 16
M  V30 57 1 53 17
M  V30 58 1 54 21
M  V30 59 1 55 21
M  V30 60 1 56 23
M  V30 61 1 57 29
M  V30 62 1 58 29
M  V30 63 1 59 30
M  V30 64 1 60 30
M  V30 65 1 61 31
M  V30 66 1 62 31
M  V30 67 1 63 32
M  V30 68 1 64 32
M  V30 69 1 65 39
M  V30 70 1 66 40
M  V30 END BOND
M  V30 END CTAB
M  END
>  <i_epik_Tot_Q>  (4) 
0

>  <i_epik_Tot_abs_Q>  (4) 
0

>  <i_f3d_flags>  (4) 
0

>  <i_lp_mmshare_version>  (4) 
71160

>  <i_lp_orig_ion_str>  (4) 
1

>  <i_m_source_file_index>  (4) 
4

>  <b_lp_Chiralities_Consistent>  (4) 
1

>  <r_epik_Charging_Adjusted_Penalty>  (4) 
0

>  <r_epik_Ionization_Penalty>  (4) 
1.938674305681563e-06

>  <r_epik_Ionization_Penalty_Charging>  (4) 
0

>  <r_epik_Ionization_Penalty_Neutral>  (4) 
1.938674305681563e-06

>  <r_epik_State_Penalty>  (4) 
-0

>  <r_lp_Energy>  (4) 
63.557617999999998

>  <r_lp_tautomer_probability>  (4) 
1

>  <s_epik_cmdline>  (4) 
J2VwaWtfcHl0aG9uJywgJy1waHQnLCAnMC4yJywgJy1waCcsICc3LjQnLCAnLXJldGFpbl9pX2xhYicsICctcmV0YWluX3RfbGFiJywgJy10bicsICcxJywgJy1tYScsICc1MDAnLCAnLWltYWUnLCAnPGluZmlsZS5tYWU+JywgJy1vbWFlJywgJzxvdXRmaWxlLm1hZT4n

>  <s_epik_input>  (4) 
W0NIM11PYzFbY0hdW2NIXWMoW2NIXVtjSF0xKS1jMltjSF1jKC1jM1tjSF1bY0hdYyhPW0NIM10pW2NIXVtjSF0zKW5jKGMyQyNOKVNbQ0gyXUMoPU8pW05IXWMoYzRDI04pc2MoYzQ1KVtDSDJdW0NIMl1bQ0gyXVtDSDJdNQ==

>  <s_lp_Force_Field>  (4) 
S-OPLS

>  <s_lp_Variant>  (4) 
RR4_Rahimova_2017-1

>  <s_lp_label>  (4) 
4

>  <s_m_source_file>  (4) 
montpellier_ligands.smi

$$$$
RR5_Rahimova_2017
     RDKit          3D

  0  0  0  0  0  0  0  0  0  0999 V3000
M  V30 BEGIN CTAB
M  V30 COUNTS 77 82 0 0 1
M  V30 BEGIN ATOM
M  V30 1 O -0.402701 1.491798 -1.802675 0
M  V30 2 C 0.189384 0.643540 -1.136758 0
M  V30 3 C 1.727918 0.582785 -1.172995 0
M  V30 4 C 2.432446 1.767317 -0.418571 0 CFG=2
M  V30 5 N 1.833429 2.120365 0.883760 0
M  V30 6 C 1.819516 1.224581 1.945054 0
M  V30 7 O 1.151114 1.787970 2.965907 0
M  V30 8 C 0.962943 1.101247 4.199881 0
M  V30 9 C 0.445427 2.063930 5.290826 0
M  V30 10 C 1.295393 3.310988 5.456201 0
M  V30 11 C 2.653705 3.426909 5.762602 0
M  V30 12 C 3.242924 4.689780 5.844375 0
M  V30 13 C 2.477774 5.835918 5.620998 0
M  V30 14 C 1.120278 5.723253 5.316877 0
M  V30 15 C 0.533158 4.458814 5.236685 0
M  V30 16 C -0.851247 4.050628 4.947993 0
M  V30 17 C -0.918195 2.657937 4.990770 0
M  V30 18 C -2.138784 2.015742 4.772405 0
M  V30 19 C -3.284122 2.766431 4.503494 0
M  V30 20 C -3.211493 4.159658 4.453613 0
M  V30 21 C -1.994144 4.805570 4.675196 0
M  V30 22 O 2.318698 0.096832 1.963090 0
M  V30 23 C 2.504222 3.025562 -1.317677 0
M  V30 24 O 3.341358 2.790582 -2.370786 0
M  V30 25 O 1.914961 4.066182 -1.100789 0
M  V30 26 N -0.409502 -0.252846 -0.321590 0
M  V30 27 C -1.835581 -0.542527 0.015249 0
M  V30 28 C -1.703619 -1.274809 1.392548 0
M  V30 29 C -2.507986 -0.922909 2.490065 0
M  V30 30 C -2.383316 -1.582006 3.709992 0
M  V30 31 C -1.444144 -2.596749 3.856640 0
M  V30 32 C -0.636132 -2.967167 2.787863 0
M  V30 33 C -0.768825 -2.314898 1.566134 0
M  V30 34 C -2.576703 0.831132 0.132012 0
M  V30 35 C -3.762074 1.093363 -0.573981 0
M  V30 36 C -4.394381 2.329534 -0.470199 0
M  V30 37 C -3.848220 3.320888 0.339152 0
M  V30 38 C -2.677392 3.083842 1.050971 0
M  V30 39 C -2.052396 1.845441 0.953274 0
M  V30 40 C -2.369887 -1.477846 -1.122334 0
M  V30 41 C -2.927106 -2.735161 -0.824096 0
M  V30 42 C -3.395517 -3.573937 -1.831252 0
M  V30 43 C -3.321664 -3.167200 -3.158424 0
M  V30 44 C -2.790210 -1.924528 -3.483015 0
M  V30 45 C -2.322273 -1.088832 -2.473464 0
M  V30 46 H 2.060398 -0.354399 -0.722481 0
M  V30 47 H 2.047152 0.512489 -2.214179 0
M  V30 48 H 3.465675 1.469542 -0.224292 0
M  V30 49 H 1.275621 2.960228 0.941992 0
M  V30 50 H 0.263686 0.275879 4.057185 0
M  V30 51 H 1.908638 0.666629 4.528724 0
M  V30 52 H 0.404276 1.516233 6.232951 0
M  V30 53 H 3.258872 2.548291 5.931448 0
M  V30 54 H 4.293328 4.780105 6.078425 0
M  V30 55 H 2.936853 6.811538 5.683980 0
M  V30 56 H 0.538283 6.617208 5.147696 0
M  V30 57 H -2.207935 0.940650 4.811434 0
M  V30 58 H -4.226652 2.268320 4.330666 0
M  V30 59 H -4.098601 4.738269 4.242587 0
M  V30 60 H -1.951200 5.884094 4.638085 0
M  V30 61 H 3.415198 3.550193 -2.952619 0
M  V30 62 H 0.219917 -0.937204 0.071131 0
M  V30 63 H -3.254738 -0.147318 2.411894 0
M  V30 64 H -3.014486 -1.305600 4.541396 0
M  V30 65 H -1.345906 -3.104759 4.804700 0
M  V30 66 H 0.087830 -3.760097 2.903906 0
M  V30 67 H -0.139521 -2.627389 0.745714 0
M  V30 68 H -4.217082 0.344959 -1.204122 0
M  V30 69 H -5.305890 2.518473 -1.017673 0
M  V30 70 H -4.337219 4.280798 0.417234 0
M  V30 71 H -2.255299 3.854683 1.678352 0
M  V30 72 H -1.147626 1.674289 1.516513 0
M  V30 73 H -3.017710 -3.084634 0.192635 0
M  V30 74 H -3.818201 -4.536056 -1.582067 0
M  V30 75 H -3.686356 -3.816381 -3.940744 0
M  V30 76 H -2.745319 -1.606020 -4.513985 0
M  V30 77 H -1.941909 -0.124298 -2.762329 0
M  V30 END ATOM
M  V30 BEGIN BOND
M  V30 1 2 2 1
M  V30 2 1 3 2
M  V30 3 1 4 3
M  V30 4 1 5 4
M  V30 5 1 6 5
M  V30 6 1 7 6
M  V30 7 1 8 7
M  V30 8 1 9 8
M  V30 9 1 10 9
M  V30 10 1 11 10
M  V30 11 2 12 11
M  V30 12 1 13 12
M  V30 13 2 14 13
M  V30 14 2 15 10
M  V30 15 1 15 14
M  V30 16 1 16 15
M  V30 17 2 17 16
M  V30 18 1 17 9
M  V30 19 1 18 17
M  V30 20 2 19 18
M  V30 21 1 20 19
M  V30 22 2 21 20
M  V30 23 1 21 16
M  V30 24 2 22 6
M  V30 25 1 23 4
M  V30 26 1 24 23
M  V30 27 2 25 23
M  V30 28 1 26 2
M  V30 29 1 27 26
M  V30 30 1 28 27
M  V30 31 2 29 28
M  V30 32 1 30 29
M  V30 33 2 31 30
M  V30 34 1 32 31
M  V30 35 2 33 32
M  V30 36 1 33 28
M  V30 37 1 34 27
M  V30 38 2 35 34
M  V30 39 1 36 35
M  V30 40 2 37 36
M  V30 41 1 38 37
M  V30 42 2 39 38
M  V30 43 1 39 34
M  V30 44 1 40 27
M  V30 45 2 41 40
M  V30 46 1 42 41
M  V30 47 2 43 42
M  V30 48 1 44 43
M  V30 49 2 45 44
M  V30 50 1 45 40
M  V30 51 1 46 3
M  V30 52 1 47 3
M  V30 53 1 4 48 CFG=1
M  V30 54 1 49 5
M  V30 55 1 50 8
M  V30 56 1 51 8
M  V30 57 1 52 9
M  V30 58 1 53 11
M  V30 59 1 54 12
M  V30 60 1 55 13
M  V30 61 1 56 14
M  V30 62 1 57 18
M  V30 63 1 58 19
M  V30 64 1 59 20
M  V30 65 1 60 21
M  V30 66 1 61 24
M  V30 67 1 62 26
M  V30 68 1 63 29
M  V30 69 1 64 30
M  V30 70 1 65 31
M  V30 71 1 66 32
M  V30 72 1 67 33
M  V30 73 1 68 35
M  V30 74 1 69 36
M  V30 75 1 70 37
M  V30 76 1 71 38
M  V30 77 1 72 39
M  V30 78 1 73 41
M  V30 79 1 74 42
M  V30 80 1 75 43
M  V30 81 1 76 44
M  V30 82 1 77 45
M  V30 END BOND
M  V30 END CTAB
M  END
>  <i_epik_Tot_Q>  (5) 
0

>  <i_epik_Tot_abs_Q>  (5) 
0

>  <i_f3d_flags>  (5) 
0

>  <i_lp_mmshare_version>  (5) 
71160

>  <i_lp_orig_ion_str>  (5) 
1

>  <i_m_source_file_index>  (5) 
5

>  <b_lp_Chiralities_Consistent>  (5) 
1

>  <r_epik_Charging_Adjusted_Penalty>  (5) 
4.9736112968401001

>  <r_epik_Ionization_Penalty>  (5) 
4.9736231918123091

>  <r_epik_Ionization_Penalty_Charging>  (5) 
0

>  <r_epik_Ionization_Penalty_Neutral>  (5) 
4.9736231918123091

>  <r_epik_State_Penalty>  (5) 
4.9736112968401001

>  <r_lp_Energy>  (5) 
55.950593999999995

>  <s_epik_Chemistry_Notes>  (5) 
This compound has an ester and may undergo hydrolysis at high or low pH.

>  <s_epik_cmdline>  (5) 
J2VwaWtfcHl0aG9uJywgJy1waHQnLCAnMC4yJywgJy1waCcsICc3LjQnLCAnLXJldGFpbl9pX2xhYicsICctcmV0YWluX3RfbGFiJywgJy10bicsICcxJywgJy1tYScsICc1MDAnLCAnLWltYWUnLCAnPGluZmlsZS5tYWU+JywgJy1vbWFlJywgJzxvdXRmaWxlLm1hZT4n

>  <s_epik_input>  (5) 
W2NIXTFbY0hdW2NIXVtjSF1bY0hdYzFDKGMyW2NIXVtjSF1bY0hdW2NIXVtjSF0yKShjM1tjSF1bY0hdW2NIXVtjSF1bY0hdMylbTkhdQyg9TylbQ0gyXVtDQEBIXShDKD1PKVtPSF0pW05IXUMoPU8pT1tDSDJdW0NIXTRjKFtjSF1bY0hdW2NIXVtjSF01KWM1YyhjNDYpW2NIXVtjSF1bY0hdW2NIXTY=

>  <s_lp_Force_Field>  (5) 
S-OPLS

>  <s_lp_Variant>  (5) 
RR5_Rahimova_2017-1

>  <s_lp_label>  (5) 
5

>  <s_m_source_file>  (5) 
montpellier_ligands.smi

$$$$
RR5_Rahimova_2017
     RDKit          3D

  0  0  0  0  0  0  0  0  0  0999 V3000
M  V30 BEGIN CTAB
M  V30 COUNTS 76 81 0 0 1
M  V30 BEGIN ATOM
M  V30 1 O -0.785896 1.103460 1.224839 0
M  V30 2 C -0.175250 0.458287 0.373015 0
M  V30 3 C 1.277522 0.856479 0.039675 0
M  V30 4 C 1.854886 0.335275 -1.317205 0 CFG=2
M  V30 5 N 3.329226 0.442328 -1.288581 0
M  V30 6 C 4.132034 -0.307305 -2.142130 0
M  V30 7 O 5.419677 0.013776 -1.915500 0
M  V30 8 C 6.464638 -0.562662 -2.690462 0
M  V30 9 C 7.835828 -0.166963 -2.109168 0
M  V30 10 C 8.185275 -0.900373 -0.826315 0
M  V30 11 C 7.513024 -0.923369 0.399083 0
M  V30 12 C 8.013334 -1.688523 1.453955 0
M  V30 13 C 9.185538 -2.428324 1.288581 0
M  V30 14 C 9.862670 -2.403425 0.068520 0
M  V30 15 C 9.359621 -1.636934 -0.984947 0
M  V30 16 C 9.863779 -1.420613 -2.350353 0
M  V30 17 C 8.990398 -0.556632 -3.011297 0
M  V30 18 C 9.254900 -0.176956 -4.329948 0
M  V30 19 C 10.387622 -0.667946 -4.981589 0
M  V30 20 C 11.256627 -1.535959 -4.318191 0
M  V30 21 C 10.996956 -1.914537 -3.000065 0
M  V30 22 O 3.747592 -1.132690 -2.974802 0
M  V30 23 C 1.232754 1.095011 -2.557411 0
M  V30 24 O 1.769888 2.181480 -2.883312 0 CHG=-1
M  V30 25 O 0.231312 0.533300 -3.057852 0
M  V30 26 N -0.673310 -0.660067 -0.196611 0
M  V30 27 C -2.013506 -1.280942 -0.048117 0
M  V30 28 C -2.065863 -2.636918 -0.820889 0
M  V30 29 C -3.288033 -3.161304 -1.278536 0
M  V30 30 C -3.335747 -4.362852 -1.979266 0
M  V30 31 C -2.158911 -5.058125 -2.236356 0
M  V30 32 C -0.936265 -4.560234 -1.798301 0
M  V30 33 C -0.890500 -3.358500 -1.097353 0
M  V30 34 C -2.406843 -1.675095 1.412265 0
M  V30 35 C -3.748971 -1.908279 1.760465 0
M  V30 36 C -4.102563 -2.258440 3.060092 0
M  V30 37 C -3.115718 -2.386400 4.031659 0
M  V30 38 C -1.779482 -2.171389 3.711163 0
M  V30 39 C -1.428740 -1.821052 2.410471 0
M  V30 40 C -2.993159 -0.240077 -0.693262 0
M  V30 41 C -3.718035 0.675882 0.089357 0
M  V30 42 C -4.568964 1.606440 -0.499984 0
M  V30 43 C -4.698040 1.644043 -1.884318 0
M  V30 44 C -3.974794 0.764816 -2.683281 0
M  V30 45 C -3.125343 -0.164902 -2.091081 0
M  V30 46 H 1.400671 1.936290 0.143060 0
M  V30 47 H 1.872049 0.420450 0.844402 0
M  V30 48 H 1.625479 -0.731415 -1.402914 0
M  V30 49 H 3.752886 1.125536 -0.678214 0
M  V30 50 H 6.370001 -1.649989 -2.721293 0
M  V30 51 H 6.375282 -0.200788 -3.716091 0
M  V30 52 H 7.853537 0.911751 -1.946458 0
M  V30 53 H 6.603887 -0.358109 0.542130 0
M  V30 54 H 7.491719 -1.708783 2.399384 0
M  V30 55 H 9.570385 -3.019620 2.106438 0
M  V30 56 H 10.770929 -2.976675 -0.046119 0
M  V30 57 H 8.590219 0.492673 -4.855809 0
M  V30 58 H 10.591774 -0.376150 -6.001237 0
M  V30 59 H 12.132395 -1.913437 -4.825161 0
M  V30 60 H 11.678592 -2.583591 -2.495702 0
M  V30 61 H -0.111135 -1.070565 -0.927793 0
M  V30 62 H -4.214216 -2.638391 -1.092852 0
M  V30 63 H -4.282510 -4.752837 -2.322546 0
M  V30 64 H -2.194550 -5.990601 -2.780165 0
M  V30 65 H -0.025323 -5.104253 -2.000353 0
M  V30 66 H 0.073492 -3.003402 -0.764478 0
M  V30 67 H -4.531632 -1.817880 1.022308 0
M  V30 68 H -5.138482 -2.430391 3.312445 0
M  V30 69 H -3.388441 -2.658408 5.040628 0
M  V30 70 H -1.016308 -2.278955 4.467631 0
M  V30 71 H -0.382496 -1.676057 2.188157 0
M  V30 72 H -3.614540 0.689964 1.163822 0
M  V30 73 H -5.119259 2.303000 0.115001 0
M  V30 74 H -5.354626 2.369008 -2.342167 0
M  V30 75 H -4.064464 0.808389 -3.758690 0
M  V30 76 H -2.556661 -0.823447 -2.731341 0
M  V30 END ATOM
M  V30 BEGIN BOND
M  V30 1 2 2 1
M  V30 2 1 3 2
M  V30 3 1 4 3
M  V30 4 1 5 4
M  V30 5 1 6 5
M  V30 6 1 7 6
M  V30 7 1 8 7
M  V30 8 1 9 8
M  V30 9 1 10 9
M  V30 10 1 11 10
M  V30 11 2 12 11
M  V30 12 1 13 12
M  V30 13 2 14 13
M  V30 14 2 15 10
M  V30 15 1 15 14
M  V30 16 1 16 15
M  V30 17 2 17 16
M  V30 18 1 17 9
M  V30 19 1 18 17
M  V30 20 2 19 18
M  V30 21 1 20 19
M  V30 22 2 21 20
M  V30 23 1 21 16
M  V30 24 2 22 6
M  V30 25 1 23 4
M  V30 26 1 24 23
M  V30 27 2 25 23
M  V30 28 1 26 2
M  V30 29 1 27 26
M  V30 30 1 28 27
M  V30 31 2 29 28
M  V30 32 1 30 29
M  V30 33 2 31 30
M  V30 34 1 32 31
M  V30 35 2 33 32
M  V30 36 1 33 28
M  V30 37 1 34 27
M  V30 38 2 35 34
M  V30 39 1 36 35
M  V30 40 2 37 36
M  V30 41 1 38 37
M  V30 42 2 39 38
M  V30 43 1 39 34
M  V30 44 1 40 27
M  V30 45 2 41 40
M  V30 46 1 42 41
M  V30 47 2 43 42
M  V30 48 1 44 43
M  V30 49 2 45 44
M  V30 50 1 45 40
M  V30 51 1 46 3
M  V30 52 1 47 3
M  V30 53 1 4 48 CFG=3
M  V30 54 1 49 5
M  V30 55 1 50 8
M  V30 56 1 51 8
M  V30 57 1 52 9
M  V30 58 1 53 11
M  V30 59 1 54 12
M  V30 60 1 55 13
M  V30 61 1 56 14
M  V30 62 1 57 18
M  V30 63 1 58 19
M  V30 64 1 59 20
M  V30 65 1 60 21
M  V30 66 1 61 26
M  V30 67 1 62 29
M  V30 68 1 63 30
M  V30 69 1 64 31
M  V30 70 1 65 32
M  V30 71 1 66 33
M  V30 72 1 67 35
M  V30 73 1 68 36
M  V30 74 1 69 37
M  V30 75 1 70 38
M  V30 76 1 71 39
M  V30 77 1 72 41
M  V30 78 1 73 42
M  V30 79 1 74 43
M  V30 80 1 75 44
M  V30 81 1 76 45
M  V30 END BOND
M  V30 END CTAB
M  END
>  <i_epik_Tot_Q>  (6) 
-1

>  <i_epik_Tot_abs_Q>  (6) 
1

>  <i_f3d_flags>  (6) 
0

>  <i_lp_mmshare_version>  (6) 
71160

>  <i_lp_orig_ion_str>  (6) 
1

>  <i_m_source_file_index>  (6) 
5

>  <b_lp_Chiralities_Consistent>  (6) 
1

>  <r_epik_Charging_Adjusted_Penalty>  (6) 
0.00026796598638606126

>  <r_epik_Ionization_Penalty>  (6) 
0.00013547921453758234

>  <r_epik_Ionization_Penalty_Charging>  (6) 
0.00013398299319302727

>  <r_epik_Ionization_Penalty_Neutral>  (6) 
1.4962213445550654e-06

>  <r_epik_State_Penalty>  (6) 
0.00013398299319303402

>  <r_lp_Energy>  (6) 
78.308544999999995

>  <s_epik_Chemistry_Notes>  (6) 
This compound has an ester and may undergo hydrolysis at high or low pH.

>  <s_epik_cmdline>  (6) 
J2VwaWtfcHl0aG9uJywgJy1waHQnLCAnMC4yJywgJy1waCcsICc3LjQnLCAnLXJldGFpbl9pX2xhYicsICctcmV0YWluX3RfbGFiJywgJy10bicsICcxJywgJy1tYScsICc1MDAnLCAnLWltYWUnLCAnPGluZmlsZS5tYWU+JywgJy1vbWFlJywgJzxvdXRmaWxlLm1hZT4n

>  <s_epik_input>  (6) 
W2NIXTFbY0hdW2NIXVtjSF1bY0hdYzFDKGMyW2NIXVtjSF1bY0hdW2NIXVtjSF0yKShjM1tjSF1bY0hdW2NIXVtjSF1bY0hdMylbTkhdQyg9TylbQ0gyXVtDQEBIXShDKD1PKVtPSF0pW05IXUMoPU8pT1tDSDJdW0NIXTRjKFtjSF1bY0hdW2NIXVtjSF01KWM1YyhjNDYpW2NIXVtjSF1bY0hdW2NIXTY=

>  <s_lp_Force_Field>  (6) 
S-OPLS

>  <s_lp_Variant>  (6) 
RR5_Rahimova_2017-2

>  <s_lp_label>  (6) 
5

>  <s_m_source_file>  (6) 
montpellier_ligands.smi

$$$$
RR6_Rahimova_2017
     RDKit          3D

  0  0  0  0  0  0  0  0  0  0999 V3000
M  V30 BEGIN CTAB
M  V30 COUNTS 63 66 0 0 1
M  V30 BEGIN ATOM
M  V30 1 C -4.361924 6.361919 -0.153873 0
M  V30 2 C -3.716139 4.990837 -0.074057 0
M  V30 3 C -4.443088 3.909397 0.421233 0
M  V30 4 C -3.856896 2.647795 0.487584 0
M  V30 5 C -2.403506 4.807427 -0.504041 0
M  V30 6 C -1.823018 3.545160 -0.433810 0
M  V30 7 C -2.537319 2.440767 0.058364 0
M  V30 8 C -1.910456 1.079207 0.117009 0
M  V30 9 C -2.659237 -0.102388 0.095775 0
M  V30 10 C -2.021608 -1.350998 0.099432 0
M  V30 11 C -2.882470 -2.571337 0.057366 0
M  V30 12 C -3.836257 -2.793302 1.055343 0
M  V30 13 C -4.652656 -3.919810 1.015043 0
M  V30 14 C -4.536574 -4.842420 -0.024083 0
M  V30 15 O -5.390006 -5.928156 0.016676 0
M  V30 16 C -5.322828 -6.901949 -1.019371 0
M  V30 17 C -3.584749 -4.620822 -1.030868 0
M  V30 18 C -2.769675 -3.493309 -0.988369 0
M  V30 19 C -0.606014 -1.384265 0.131895 0
M  V30 20 C 0.123189 -2.655952 0.165683 0
M  V30 21 N 0.698394 -3.659715 0.191451 0
M  V30 22 C 0.084404 -0.154644 0.148040 0
M  V30 23 S 1.860570 -0.036976 0.151507 0
M  V30 24 C 2.374132 0.235147 -1.576825 0
M  V30 25 C 1.620859 1.374705 -2.270538 0
M  V30 26 N 1.974738 2.622634 -1.893038 0
M  V30 27 C 1.434545 3.861172 -2.287993 0
M  V30 28 C 0.593151 4.050381 -3.394253 0
M  V30 29 C 0.089021 5.316533 -3.679716 0
M  V30 30 C 0.417989 6.416400 -2.872541 0
M  V30 31 C -0.114365 7.793256 -3.147987 0
M  V30 32 O -0.929941 7.847003 -4.232128 0
M  V30 33 C -1.518170 9.073287 -4.643909 0
M  V30 34 O 0.163427 8.777625 -2.456335 0
M  V30 35 C 1.271319 6.219887 -1.778927 0
M  V30 36 C 1.777562 4.955402 -1.493344 0
M  V30 37 O 0.728890 1.098313 -3.072795 0
M  V30 38 N -0.554133 1.039502 0.148791 0
M  V30 39 H -3.767826 7.060684 -0.744480 0
M  V30 40 H -4.505228 6.772614 0.845840 0
M  V30 41 H -5.342915 6.288215 -0.624468 0
M  V30 42 H -5.460971 4.044230 0.757176 0
M  V30 43 H -4.443502 1.834142 0.886672 0
M  V30 44 H -1.830489 5.636932 -0.892971 0
M  V30 45 H -0.806871 3.431008 -0.777160 0
M  V30 46 H -3.737599 -0.063045 0.047473 0
M  V30 47 H -3.945370 -2.091596 1.869713 0
M  V30 48 H -5.382585 -4.076835 1.795835 0
M  V30 49 H -6.061395 -7.680645 -0.829892 0
M  V30 50 H -4.342271 -7.378810 -1.057433 0
M  V30 51 H -5.546921 -6.464692 -1.993611 0
M  V30 52 H -3.464914 -5.308709 -1.853941 0
M  V30 53 H -2.047695 -3.335601 -1.776685 0
M  V30 54 H 3.448103 0.420222 -1.617877 0
M  V30 55 H 2.201732 -0.698454 -2.114305 0
M  V30 56 H 2.667751 2.686026 -1.161813 0
M  V30 57 H 0.316828 3.240998 -4.050634 0
M  V30 58 H -0.559484 5.422570 -4.537374 0
M  V30 59 H -2.124337 8.912020 -5.535223 0
M  V30 60 H -0.753099 9.813214 -4.883755 0
M  V30 61 H -2.162563 9.480975 -3.863739 0
M  V30 62 H 1.549640 7.042125 -1.134635 0
M  V30 63 H 2.426345 4.832027 -0.637719 0
M  V30 END ATOM
M  V30 BEGIN BOND
M  V30 1 1 2 1
M  V30 2 1 3 2
M  V30 3 2 4 3
M  V30 4 2 5 2
M  V30 5 1 6 5
M  V30 6 2 7 6
M  V30 7 1 7 4
M  V30 8 1 8 7
M  V30 9 2 9 8
M  V30 10 1 10 9
M  V30 11 1 11 10
M  V30 12 2 12 11
M  V30 13 1 13 12
M  V30 14 2 14 13
M  V30 15 1 15 14
M  V30 16 1 16 15
M  V30 17 1 17 14
M  V30 18 2 18 17
M  V30 19 1 18 11
M  V30 20 2 19 10
M  V30 21 1 20 19
M  V30 22 3 21 20
M  V30 23 1 22 19
M  V30 24 1 23 22
M  V30 25 1 24 23
M  V30 26 1 25 24
M  V30 27 1 26 25
M  V30 28 1 27 26
M  V30 29 2 28 27
M  V30 30 1 29 28
M  V30 31 2 30 29
M  V30 32 1 31 30
M  V30 33 1 32 31
M  V30 34 1 33 32
M  V30 35 2 34 31
M  V30 36 1 35 30
M  V30 37 2 36 35
M  V30 38 1 36 27
M  V30 39 2 37 25
M  V30 40 2 38 22
M  V30 41 1 38 8
M  V30 42 1 39 1
M  V30 43 1 40 1
M  V30 44 1 41 1
M  V30 45 1 42 3
M  V30 46 1 43 4
M  V30 47 1 44 5
M  V30 48 1 45 6
M  V30 49 1 46 9
M  V30 50 1 47 12
M  V30 51 1 48 13
M  V30 52 1 49 16
M  V30 53 1 50 16
M  V30 54 1 51 16
M  V30 55 1 52 17
M  V30 56 1 53 18
M  V30 57 1 54 24
M  V30 58 1 55 24
M  V30 59 1 56 26
M  V30 60 1 57 28
M  V30 61 1 58 29
M  V30 62 1 59 33
M  V30 63 1 60 33
M  V30 64 1 61 33
M  V30 65 1 62 35
M  V30 66 1 63 36
M  V30 END BOND
M  V30 END CTAB
M  END
>  <i_epik_Tot_Q>  (7) 
0

>  <i_epik_Tot_abs_Q>  (7) 
0

>  <i_f3d_flags>  (7) 
0

>  <i_lp_mmshare_version>  (7) 
71160

>  <i_lp_orig_ion_str>  (7) 
1

>  <i_m_source_file_index>  (7) 
6

>  <b_lp_Chiralities_Consistent>  (7) 
1

>  <r_epik_Charging_Adjusted_Penalty>  (7) 
0

>  <r_epik_Ionization_Penalty>  (7) 
9.5415531197454582e-07

>  <r_epik_Ionization_Penalty_Charging>  (7) 
0

>  <r_epik_Ionization_Penalty_Neutral>  (7) 
9.5415531197454582e-07

>  <r_epik_State_Penalty>  (7) 
-0

>  <r_lp_Energy>  (7) 
53.955535999999995

>  <r_lp_tautomer_probability>  (7) 
1

>  <s_epik_Chemistry_Notes>  (7) 
This compound has an ester and may undergo hydrolysis at high or low pH.

>  <s_epik_cmdline>  (7) 
J2VwaWtfcHl0aG9uJywgJy1waHQnLCAnMC4yJywgJy1waCcsICc3LjQnLCAnLXJldGFpbl9pX2xhYicsICctcmV0YWluX3RfbGFiJywgJy10bicsICcxJywgJy1tYScsICc1MDAnLCAnLWltYWUnLCAnPGluZmlsZS5tYWU+JywgJy1vbWFlJywgJzxvdXRmaWxlLm1hZT4n

>  <s_epik_input>  (7) 
W0NIM11jMVtjSF1bY0hdYyhbY0hdW2NIXTEpLWMyW2NIXWMoLWMzW2NIXVtjSF1jKE9bQ0gzXSlbY0hdW2NIXTMpYyhDI04pYyhuMilTW0NIMl1DKD1PKVtOSF1jNFtjSF1bY0hdYyhbY0hdW2NIXTQpQyg9TylPW0NIM10=

>  <s_lp_Force_Field>  (7) 
S-OPLS

>  <s_lp_Variant>  (7) 
RR6_Rahimova_2017-1

>  <s_lp_label>  (7) 
6

>  <s_m_source_file>  (7) 
montpellier_ligands.smi

$$$$
RR7_Rahimova_2017
     RDKit          3D

  0  0  0  0  0  0  0  0  0  0999 V3000
M  V30 BEGIN CTAB
M  V30 COUNTS 80 86 0 0 1
M  V30 BEGIN ATOM
M  V30 1 O -0.429572 3.231840 0.776029 0
M  V30 2 C -0.495568 1.877293 1.186885 0 CFG=1
M  V30 3 C -1.678299 1.617359 2.104528 0
M  V30 4 C -2.771716 1.365351 1.073736 0 CFG=2
M  V30 5 N -3.903155 0.595944 1.557368 0
M  V30 6 C -4.630055 0.808894 2.717901 0
M  V30 7 N -4.443095 1.715007 3.687251 0
M  V30 8 C -5.350469 1.611714 4.695026 0
M  V30 9 N -6.374243 0.725506 4.805767 0
M  V30 10 C -6.544342 -0.181655 3.798123 0
M  V30 11 N -7.577898 -1.137296 3.818141 0
M  V30 12 C -8.522990 -1.350199 4.763824 0
M  V30 13 C -9.493942 -2.476410 4.478340 0
M  V30 14 C -10.179550 -3.087145 5.539007 0
M  V30 15 C -11.081360 -4.120051 5.298047 0
M  V30 16 C -11.307835 -4.548416 3.993507 0
M  V30 17 C -10.640943 -3.951948 2.927415 0
M  V30 18 C -9.738071 -2.919499 3.167274 0
M  V30 19 O -8.609250 -0.712124 5.815761 0
M  V30 20 C -5.662180 -0.163943 2.699524 0
M  V30 21 N -5.598654 -0.922832 1.562964 0
M  V30 22 C -4.575331 -0.427980 0.913048 0
M  V30 23 O -2.141048 0.686939 0.026196 0
M  V30 24 C -0.734725 0.919310 0.010657 0 CFG=2
M  V30 25 C -0.055695 -0.454035 0.142524 0
M  V30 26 O 1.364426 -0.276569 0.109136 0
M  V30 27 C 2.234490 -1.424669 -0.011231 0
M  V30 28 C 3.686404 -0.915616 0.191511 0
M  V30 29 C 4.709516 -1.814129 0.533567 0
M  V30 30 C 6.012477 -1.366863 0.732061 0
M  V30 31 C 6.305401 -0.013894 0.591204 0
M  V30 32 C 5.306206 0.893797 0.253281 0
M  V30 33 C 4.003125 0.445735 0.055735 0
M  V30 34 C 1.795093 -2.426585 1.102121 0
M  V30 35 C 0.979246 -3.532622 0.821774 0
M  V30 36 C 0.576995 -4.395428 1.836759 0
M  V30 37 C 0.966885 -4.171429 3.155788 0
M  V30 38 O 0.515225 -5.077353 4.096286 0
M  V30 39 C 0.858825 -4.886400 5.464551 0
M  V30 40 C 1.769859 -3.060001 3.448701 0
M  V30 41 C 2.172630 -2.198447 2.432812 0
M  V30 42 C 2.181334 -1.965699 -1.468071 0
M  V30 43 C 2.688941 -3.238880 -1.771867 0
M  V30 44 C 2.654523 -3.728007 -3.074463 0
M  V30 45 C 2.118890 -2.943497 -4.091051 0
M  V30 46 C 1.622477 -1.673278 -3.815350 0
M  V30 47 C 1.656963 -1.186227 -2.511747 0
M  V30 48 H 0.218765 3.306807 0.071777 0
M  V30 49 H 0.434213 1.641929 1.707251 0
M  V30 50 H -1.525780 0.717956 2.704517 0
M  V30 51 H -1.927594 2.453583 2.759340 0
M  V30 52 H -3.184162 2.293553 0.672606 0
M  V30 53 H -5.243463 2.316685 5.506162 0
M  V30 54 H -7.604133 -1.741588 3.010048 0
M  V30 55 H -10.017509 -2.769970 6.559668 0
M  V30 56 H -11.603113 -4.586730 6.120611 0
M  V30 57 H -12.008073 -5.349117 3.806877 0
M  V30 58 H -10.824945 -4.287503 1.917332 0
M  V30 59 H -9.239850 -2.468631 2.320743 0
M  V30 60 H -4.229194 -0.767700 -0.052256 0
M  V30 61 H -0.447061 1.374682 -0.938743 0
M  V30 62 H -0.353173 -0.917161 1.084288 0
M  V30 63 H -0.388574 -1.109181 -0.663468 0
M  V30 64 H 4.497737 -2.866875 0.648853 0
M  V30 65 H 6.792243 -2.066324 0.995049 0
M  V30 66 H 7.316195 0.334293 0.744948 0
M  V30 67 H 5.540877 1.942302 0.144321 0
M  V30 68 H 3.247558 1.169777 -0.210577 0
M  V30 69 H 0.628495 -3.726506 -0.180434 0
M  V30 70 H -0.051854 -5.240570 1.597586 0
M  V30 71 H 0.420600 -5.686728 6.060448 0
M  V30 72 H 0.469666 -3.940764 5.845408 0
M  V30 73 H 1.938999 -4.916170 5.615277 0
M  V30 74 H 2.086479 -2.845145 4.457923 0
M  V30 75 H 2.776227 -1.340339 2.690594 0
M  V30 76 H 3.114957 -3.857474 -0.995971 0
M  V30 77 H 3.044471 -4.710726 -3.295262 0
M  V30 78 H 2.093777 -3.320964 -5.102790 0
M  V30 79 H 1.216152 -1.065492 -4.610291 0
M  V30 80 H 1.279864 -0.191496 -2.327047 0
M  V30 END ATOM
M  V30 BEGIN BOND
M  V30 1 1 2 1
M  V30 2 1 3 2
M  V30 3 1 4 3
M  V30 4 1 5 4
M  V30 5 1 6 5
M  V30 6 1 7 6
M  V30 7 2 8 7
M  V30 8 1 9 8
M  V30 9 2 10 9
M  V30 10 1 11 10
M  V30 11 1 12 11
M  V30 12 1 13 12
M  V30 13 2 14 13
M  V30 14 1 15 14
M  V30 15 2 16 15
M  V30 16 1 17 16
M  V30 17 2 18 17
M  V30 18 1 18 13
M  V30 19 2 19 12
M  V30 20 2 20 6
M  V30 21 1 20 10
M  V30 22 1 21 20
M  V30 23 2 22 21
M  V30 24 1 22 5
M  V30 25 1 23 4
M  V30 26 1 24 2
M  V30 27 1 24 23
M  V30 28 1 25 24
M  V30 29 1 26 25
M  V30 30 1 27 26
M  V30 31 1 28 27
M  V30 32 2 29 28
M  V30 33 1 30 29
M  V30 34 2 31 30
M  V30 35 1 32 31
M  V30 36 2 33 32
M  V30 37 1 33 28
M  V30 38 1 34 27
M  V30 39 2 35 34
M  V30 40 1 36 35
M  V30 41 2 37 36
M  V30 42 1 38 37
M  V30 43 1 39 38
M  V30 44 1 40 37
M  V30 45 2 41 40
M  V30 46 1 41 34
M  V30 47 1 42 27
M  V30 48 2 43 42
M  V30 49 1 44 43
M  V30 50 2 45 44
M  V30 51 1 46 45
M  V30 52 2 47 46
M  V30 53 1 47 42
M  V30 54 1 48 1
M  V30 55 1 2 49 CFG=1
M  V30 56 1 50 3
M  V30 57 1 51 3
M  V30 58 1 4 52 CFG=3
M  V30 59 1 53 8
M  V30 60 1 54 11
M  V30 61 1 55 14
M  V30 62 1 56 15
M  V30 63 1 57 16
M  V30 64 1 58 17
M  V30 65 1 59 18
M  V30 66 1 60 22
M  V30 67 1 24 61 CFG=3
M  V30 68 1 62 25
M  V30 69 1 63 25
M  V30 70 1 64 29
M  V30 71 1 65 30
M  V30 72 1 66 31
M  V30 73 1 67 32
M  V30 74 1 68 33
M  V30 75 1 69 35
M  V30 76 1 70 36
M  V30 77 1 71 39
M  V30 78 1 72 39
M  V30 79 1 73 39
M  V30 80 1 74 40
M  V30 81 1 75 41
M  V30 82 1 76 43
M  V30 83 1 77 44
M  V30 84 1 78 45
M  V30 85 1 79 46
M  V30 86 1 80 47
M  V30 END BOND
M  V30 END CTAB
M  END
>  <i_epik_Tot_Q>  (8) 
0

>  <i_epik_Tot_abs_Q>  (8) 
0

>  <i_f3d_flags>  (8) 
0

>  <i_lp_mmshare_version>  (8) 
71160

>  <i_lp_orig_ion_str>  (8) 
1

>  <i_m_source_file_index>  (8) 
7

>  <b_lp_Chiralities_Consistent>  (8) 
1

>  <r_epik_Charging_Adjusted_Penalty>  (8) 
0

>  <r_epik_Ionization_Penalty>  (8) 
0.0037261312914217935

>  <r_epik_Ionization_Penalty_Charging>  (8) 
0

>  <r_epik_Ionization_Penalty_Neutral>  (8) 
0.0037261312914217935

>  <r_epik_State_Penalty>  (8) 
-0

>  <r_lp_Energy>  (8) 
77.276619999999994

>  <r_lp_tautomer_probability>  (8) 
1

>  <s_epik_Chemistry_Notes>  (8) 
This compound contains an acetal/aminal-like group ( X-CH(R)-Y where X, Y are N, S, or O) that may be acid/base labile, releasing an aldehyde.

>  <s_epik_cmdline>  (8) 
J2VwaWtfcHl0aG9uJywgJy1waHQnLCAnMC4yJywgJy1waCcsICc3LjQnLCAnLXJldGFpbl9pX2xhYicsICctcmV0YWluX3RfbGFiJywgJy10bicsICcxJywgJy1tYScsICc1MDAnLCAnLWltYWUnLCAnPGluZmlsZS5tYWU+JywgJy1vbWFlJywgJzxvdXRmaWxlLm1hZT4n

>  <s_epik_input>  (8) 
W2NIXTFbY0hdW2NIXVtjSF1bY0hdYzFDKGMyW2NIXVtjSF1jKE9bQ0gzXSlbY0hdW2NIXTIpKGMzW2NIXVtjSF1bY0hdW2NIXVtjSF0zKU9bQ0gyXVtDQEhdNE9bQ0BIXShbQ0gyXVtDQEBIXTRbT0hdKW41W2NIXW5jKGM1NiljKG5bY0hdbjYpW05IXUMoPU8pYzdbY0hdW2NIXVtjSF1bY0hdW2NIXTc=

>  <s_lp_Force_Field>  (8) 
S-OPLS

>  <s_lp_Variant>  (8) 
RR7_Rahimova_2017-1

>  <s_lp_label>  (8) 
7

>  <s_m_source_file>  (8) 
montpellier_ligands.smi

$$$$
RR8_A_Rahimova_2017
     RDKit          3D

  0  0  0  0  0  0  0  0  0  0999 V3000
M  V30 BEGIN CTAB
M  V30 COUNTS 73 77 0 0 1
M  V30 BEGIN ATOM
M  V30 1 O -0.728622 3.310948 0.355758 0
M  V30 2 C -1.870750 2.839961 0.393130 0
M  V30 3 O -2.214805 1.606511 -0.093342 0
M  V30 4 C -1.205392 0.839919 -0.688026 0 CFG=2
M  V30 5 C -1.843270 -0.348897 -1.392580 0 CFG=2
M  V30 6 C -0.644206 -1.278241 -1.444902 0 CFG=1
M  V30 7 C 0.041670 -1.046282 -0.092115 0 CFG=1
M  V30 8 C 1.578958 -1.106651 -0.109747 0
M  V30 9 O 2.063814 -0.831537 1.196799 0
M  V30 10 C 3.481913 -0.811841 1.294777 0
M  V30 11 C 3.895734 -0.442501 2.712473 0
M  V30 12 C 4.932474 -1.139850 3.339423 0
M  V30 13 C 5.317114 -0.799990 4.633973 0
M  V30 14 C 4.667201 0.238851 5.297158 0
M  V30 15 C 3.637484 0.942999 4.676897 0
M  V30 16 C 3.252620 0.603653 3.382475 0
M  V30 17 O -0.355864 0.274455 0.267950 0
M  V30 18 O -1.142256 -2.604501 -1.601300 0
M  V30 19 C -0.163380 -3.605141 -1.857761 0
M  V30 20 C -0.841051 -4.893199 -2.304324 0
M  V30 21 C -0.347884 -6.124525 -1.862767 0
M  V30 22 C -0.957493 -7.307226 -2.273743 0
M  V30 23 C -2.056538 -7.256489 -3.128829 0
M  V30 24 C -2.549797 -6.033836 -3.579340 0
M  V30 25 C -1.940281 -4.851025 -3.169037 0
M  V30 26 O -2.306527 -0.054327 -2.708334 0
M  V30 27 C -3.496175 0.724830 -2.781857 0
M  V30 28 C -4.041092 0.705046 -4.202473 0
M  V30 29 C -4.083196 -0.493091 -4.923215 0
M  V30 30 C -4.591873 -0.508472 -6.219263 0
M  V30 31 C -5.060705 0.672678 -6.790376 0
M  V30 32 C -5.027736 1.868750 -6.076528 0
M  V30 33 C -4.519277 1.884783 -4.780252 0
M  V30 34 C -3.036412 3.569794 0.996016 0
M  V30 35 C -4.335788 3.040993 0.972298 0
M  V30 36 C -5.395587 3.743272 1.538656 0
M  V30 37 C -5.185519 4.989734 2.141870 0
M  V30 38 N -6.316179 5.736080 2.746674 0 CHG=1
M  V30 39 O -7.449338 5.274549 2.640877 0 CHG=-1
M  V30 40 O -6.079684 6.789225 3.332138 0
M  V30 41 C -3.888503 5.518424 2.163292 0
M  V30 42 C -2.827616 4.817826 1.596854 0
M  V30 43 H -0.630373 1.431700 -1.404979 0
M  V30 44 H -2.650232 -0.773507 -0.788466 0
M  V30 45 H 0.001377 -1.023495 -2.289632 0
M  V30 46 H -0.354199 -1.733298 0.658025 0
M  V30 47 H 1.914686 -2.095984 -0.421655 0
M  V30 48 H 1.973791 -0.387854 -0.830551 0
M  V30 49 H 3.881832 -1.792011 1.027010 0
M  V30 50 H 3.907625 -0.076617 0.609407 0
M  V30 51 H 5.439844 -1.945147 2.828266 0
M  V30 52 H 6.116058 -1.338987 5.121549 0
M  V30 53 H 4.965354 0.501903 6.301361 0
M  V30 54 H 3.140185 1.748558 5.196956 0
M  V30 55 H 2.455378 1.152959 2.902433 0
M  V30 56 H 0.525741 -3.292264 -2.644218 0
M  V30 57 H 0.416709 -3.783719 -0.951166 0
M  V30 58 H 0.505937 -6.168017 -1.201867 0
M  V30 59 H -0.579208 -8.259533 -1.931852 0
M  V30 60 H -2.529236 -8.173810 -3.447636 0
M  V30 61 H -3.400517 -6.003234 -4.244229 0
M  V30 62 H -2.323626 -3.904832 -3.523523 0
M  V30 63 H -4.267085 0.332466 -2.116045 0
M  V30 64 H -3.281696 1.750418 -2.477927 0
M  V30 65 H -3.723067 -1.411240 -4.481252 0
M  V30 66 H -4.623259 -1.431956 -6.778599 0
M  V30 67 H -5.454982 0.660647 -7.795805 0
M  V30 68 H -5.395073 2.779539 -6.526140 0
M  V30 69 H -4.497397 2.814259 -4.229442 0
M  V30 70 H -4.547190 2.083786 0.517303 0
M  V30 71 H -6.383219 3.306805 1.504471 0
M  V30 72 H -3.691615 6.478205 2.618582 0
M  V30 73 H -1.841735 5.260078 1.633876 0
M  V30 END ATOM
M  V30 BEGIN BOND
M  V30 1 2 2 1
M  V30 2 1 3 2
M  V30 3 1 4 3
M  V30 4 1 5 4
M  V30 5 1 6 5
M  V30 6 1 7 6
M  V30 7 1 8 7
M  V30 8 1 9 8
M  V30 9 1 10 9
M  V30 10 1 11 10
M  V30 11 2 12 11
M  V30 12 1 13 12
M  V30 13 2 14 13
M  V30 14 1 15 14
M  V30 15 2 16 15
M  V30 16 1 16 11
M  V30 17 1 17 7
M  V30 18 1 17 4
M  V30 19 1 18 6
M  V30 20 1 19 18
M  V30 21 1 20 19
M  V30 22 2 21 20
M  V30 23 1 22 21
M  V30 24 2 23 22
M  V30 25 1 24 23
M  V30 26 2 25 24
M  V30 27 1 25 20
M  V30 28 1 26 5
M  V30 29 1 27 26
M  V30 30 1 28 27
M  V30 31 2 29 28
M  V30 32 1 30 29
M  V30 33 2 31 30
M  V30 34 1 32 31
M  V30 35 2 33 32
M  V30 36 1 33 28
M  V30 37 1 34 2
M  V30 38 2 35 34
M  V30 39 1 36 35
M  V30 40 2 37 36
M  V30 41 1 38 37
M  V30 42 1 39 38
M  V30 43 2 40 38
M  V30 44 1 41 37
M  V30 45 2 42 41
M  V30 46 1 42 34
M  V30 47 1 4 43 CFG=3
M  V30 48 1 5 44 CFG=1
M  V30 49 1 6 45 CFG=3
M  V30 50 1 7 46 CFG=1
M  V30 51 1 47 8
M  V30 52 1 48 8
M  V30 53 1 49 10
M  V30 54 1 50 10
M  V30 55 1 51 12
M  V30 56 1 52 13
M  V30 57 1 53 14
M  V30 58 1 54 15
M  V30 59 1 55 16
M  V30 60 1 56 19
M  V30 61 1 57 19
M  V30 62 1 58 21
M  V30 63 1 59 22
M  V30 64 1 60 23
M  V30 65 1 61 24
M  V30 66 1 62 25
M  V30 67 1 63 27
M  V30 68 1 64 27
M  V30 69 1 65 29
M  V30 70 1 66 30
M  V30 71 1 67 31
M  V30 72 1 68 32
M  V30 73 1 69 33
M  V30 74 1 70 35
M  V30 75 1 71 36
M  V30 76 1 72 41
M  V30 77 1 73 42
M  V30 END BOND
M  V30 END CTAB
M  END
>  <i_epik_Tot_Q>  (9) 
0

>  <i_epik_Tot_abs_Q>  (9) 
2

>  <i_f3d_flags>  (9) 
0

>  <i_lp_mmshare_version>  (9) 
71160

>  <i_lp_orig_ion_str>  (9) 
1

>  <i_m_source_file_index>  (9) 
8

>  <b_lp_Chiralities_Consistent>  (9) 
1

>  <r_epik_Charging_Adjusted_Penalty>  (9) 
0

>  <r_epik_Ionization_Penalty>  (9) 
1.7115730675686392e-13

>  <r_epik_Ionization_Penalty_Charging>  (9) 
0

>  <r_epik_Ionization_Penalty_Neutral>  (9) 
1.7115730675686392e-13

>  <r_epik_State_Penalty>  (9) 
-0

>  <r_lp_Energy>  (9) 
44.346762999999996

>  <r_lp_tautomer_probability>  (9) 
1

>  <s_epik_Chemistry_Notes>  (9) 
This compound has an ester and may undergo hydrolysis at high or low pH. This compound contains an acetal/aminal-like group ( X-CH(R)-Y where X, Y are N, S, or O) that may be acid/base labile, releasing an aldehyde.

>  <s_epik_cmdline>  (9) 
J2VwaWtfcHl0aG9uJywgJy1waHQnLCAnMC4yJywgJy1waCcsICc3LjQnLCAnLXJldGFpbl9pX2xhYicsICctcmV0YWluX3RfbGFiJywgJy10bicsICcxJywgJy1tYScsICc1MDAnLCAnLWltYWUnLCAnPGluZmlsZS5tYWU+JywgJy1vbWFlJywgJzxvdXRmaWxlLm1hZT4n

>  <s_epik_input>  (9) 
W08tXVtOK10oPU8pYyhbY0hdW2NIXTEpW2NIXVtjSF1jMUMoPU8pT1tDQEBIXTJbQ0BASF0oT1tDSDJdYzNbY0hdW2NIXVtjSF1bY0hdW2NIXTMpW0NASF0oT1tDSDJdYzRbY0hdW2NIXVtjSF1bY0hdW2NIXTQpW0NASF0oTzIpW0NIMl1PW0NIMl1jNVtjSF1bY0hdW2NIXVtjSF1bY0hdNQ==

>  <s_lp_Force_Field>  (9) 
S-OPLS

>  <s_lp_Variant>  (9) 
RR8_A_Rahimova_2017-1

>  <s_lp_label>  (9) 
8

>  <s_m_source_file>  (9) 
montpellier_ligands.smi

$$$$
RR8_B_Rahimova_2017
     RDKit          3D

  0  0  0  0  0  0  0  0  0  0999 V3000
M  V30 BEGIN CTAB
M  V30 COUNTS 73 77 0 0 1
M  V30 BEGIN ATOM
M  V30 1 O -2.215039 3.635460 0.152334 0
M  V30 2 C -1.550185 3.184157 -0.786367 0
M  V30 3 O -1.423608 1.853401 -1.074027 0
M  V30 4 C -2.054965 0.927073 -0.224487 0 CFG=1
M  V30 5 C -1.849888 -0.485888 -0.767982 0 CFG=2
M  V30 6 C -0.440679 -0.748050 -0.248026 0 CFG=1
M  V30 7 C -0.435427 -0.073928 1.129286 0 CFG=1
M  V30 8 C 0.886344 0.609206 1.526039 0
M  V30 9 O 1.266448 1.521695 0.503795 0
M  V30 10 C 2.498570 2.190376 0.726964 0
M  V30 11 C 3.003759 2.762300 -0.589050 0
M  V30 12 C 3.051471 1.949864 -1.726203 0
M  V30 13 C 3.535180 2.460307 -2.927507 0
M  V30 14 C 3.969249 3.782737 -2.989218 0
M  V30 15 C 3.919212 4.600219 -1.861823 0
M  V30 16 C 3.437717 4.088957 -0.658977 0
M  V30 17 O -1.470579 0.903809 1.047883 0
M  V30 18 O -0.137037 -2.139100 -0.108778 0
M  V30 19 C 0.005006 -2.897162 -1.313421 0
M  V30 20 C 1.125401 -2.364710 -2.202189 0
M  V30 21 C 0.840001 -1.914043 -3.494420 0
M  V30 22 C 1.859027 -1.399022 -4.291066 0
M  V30 23 C 3.159937 -1.340912 -3.795252 0
M  V30 24 C 3.451554 -1.792673 -2.509735 0
M  V30 25 C 2.432373 -2.304890 -1.711222 0
M  V30 26 O -1.876640 -0.563879 -2.190558 0
M  V30 27 C -3.151882 -0.394747 -2.791382 0
M  V30 28 C -2.971900 -0.397792 -4.299463 0
M  V30 29 C -3.483546 -1.445739 -5.069302 0
M  V30 30 C -3.296018 -1.448363 -6.449277 0
M  V30 31 C -2.597642 -0.404614 -7.053377 0
M  V30 32 C -2.086280 0.643572 -6.290786 0
M  V30 33 C -2.274358 0.647124 -4.911502 0
M  V30 34 C -0.755035 4.049551 -1.719595 0
M  V30 35 C -0.091170 3.518702 -2.835553 0
M  V30 36 C 0.644588 4.344350 -3.679007 0
M  V30 37 C 0.746203 5.717413 -3.424193 0
M  V30 38 N 1.554457 6.590638 -4.309665 0 CHG=1
M  V30 39 O 2.221517 6.069830 -5.199614 0 CHG=-1
M  V30 40 O 1.531159 7.803634 -4.119669 0
M  V30 41 C 0.078363 6.248480 -2.313477 0
M  V30 42 C -0.665117 5.425151 -1.472673 0
M  V30 43 H -3.118747 1.166651 -0.170017 0
M  V30 44 H -2.579396 -1.171365 -0.331048 0
M  V30 45 H 0.301622 -0.282965 -0.899707 0
M  V30 46 H -0.729353 -0.787523 1.900821 0
M  V30 47 H 0.772032 1.130234 2.478185 0
M  V30 48 H 1.659360 -0.150673 1.653819 0
M  V30 49 H 2.353057 2.975986 1.470432 0
M  V30 50 H 3.261085 1.509828 1.110568 0
M  V30 51 H 2.714403 0.924506 -1.678681 0
M  V30 52 H 3.570168 1.834257 -3.806667 0
M  V30 53 H 4.340585 4.180885 -3.921995 0
M  V30 54 H 4.252171 5.626060 -1.920654 0
M  V30 55 H 3.404252 4.723960 0.214315 0
M  V30 56 H 0.238968 -3.927315 -1.043037 0
M  V30 57 H -0.944832 -2.943643 -1.847936 0
M  V30 58 H -0.169021 -1.950386 -3.879364 0
M  V30 59 H 1.640798 -1.044059 -5.287366 0
M  V30 60 H 3.950040 -0.939082 -4.412181 0
M  V30 61 H 4.461852 -1.739594 -2.131785 0
M  V30 62 H 2.655606 -2.645731 -0.710649 0
M  V30 63 H -3.823424 -1.196875 -2.479657 0
M  V30 64 H -3.610209 0.550672 -2.496344 0
M  V30 65 H -4.019681 -2.259371 -4.602624 0
M  V30 66 H -3.687953 -2.257289 -7.048142 0
M  V30 67 H -2.450739 -0.408246 -8.123464 0
M  V30 68 H -1.545117 1.448436 -6.766286 0
M  V30 69 H -1.875936 1.457415 -4.318589 0
M  V30 70 H -0.125734 2.463095 -3.064026 0
M  V30 71 H 1.147695 3.901450 -4.526352 0
M  V30 72 H 0.135136 7.303590 -2.088486 0
M  V30 73 H -1.161791 5.871685 -0.622575 0
M  V30 END ATOM
M  V30 BEGIN BOND
M  V30 1 2 2 1
M  V30 2 1 3 2
M  V30 3 1 4 3
M  V30 4 1 5 4
M  V30 5 1 6 5
M  V30 6 1 7 6
M  V30 7 1 8 7
M  V30 8 1 9 8
M  V30 9 1 10 9
M  V30 10 1 11 10
M  V30 11 2 12 11
M  V30 12 1 13 12
M  V30 13 2 14 13
M  V30 14 1 15 14
M  V30 15 2 16 15
M  V30 16 1 16 11
M  V30 17 1 17 7
M  V30 18 1 17 4
M  V30 19 1 18 6
M  V30 20 1 19 18
M  V30 21 1 20 19
M  V30 22 2 21 20
M  V30 23 1 22 21
M  V30 24 2 23 22
M  V30 25 1 24 23
M  V30 26 2 25 24
M  V30 27 1 25 20
M  V30 28 1 26 5
M  V30 29 1 27 26
M  V30 30 1 28 27
M  V30 31 2 29 28
M  V30 32 1 30 29
M  V30 33 2 31 30
M  V30 34 1 32 31
M  V30 35 2 33 32
M  V30 36 1 33 28
M  V30 37 1 34 2
M  V30 38 2 35 34
M  V30 39 1 36 35
M  V30 40 2 37 36
M  V30 41 1 38 37
M  V30 42 1 39 38
M  V30 43 2 40 38
M  V30 44 1 41 37
M  V30 45 2 42 41
M  V30 46 1 42 34
M  V30 47 1 4 43 CFG=1
M  V30 48 1 5 44 CFG=1
M  V30 49 1 6 45 CFG=3
M  V30 50 1 7 46 CFG=1
M  V30 51 1 47 8
M  V30 52 1 48 8
M  V30 53 1 49 10
M  V30 54 1 50 10
M  V30 55 1 51 12
M  V30 56 1 52 13
M  V30 57 1 53 14
M  V30 58 1 54 15
M  V30 59 1 55 16
M  V30 60 1 56 19
M  V30 61 1 57 19
M  V30 62 1 58 21
M  V30 63 1 59 22
M  V30 64 1 60 23
M  V30 65 1 61 24
M  V30 66 1 62 25
M  V30 67 1 63 27
M  V30 68 1 64 27
M  V30 69 1 65 29
M  V30 70 1 66 30
M  V30 71 1 67 31
M  V30 72 1 68 32
M  V30 73 1 69 33
M  V30 74 1 70 35
M  V30 75 1 71 36
M  V30 76 1 72 41
M  V30 77 1 73 42
M  V30 END BOND
M  V30 END CTAB
M  END
>  <i_epik_Tot_Q>  (10) 
0

>  <i_epik_Tot_abs_Q>  (10) 
2

>  <i_f3d_flags>  (10) 
0

>  <i_lp_mmshare_version>  (10) 
71160

>  <i_lp_orig_ion_str>  (10) 
1

>  <i_m_source_file_index>  (10) 
9

>  <b_lp_Chiralities_Consistent>  (10) 
1

>  <r_epik_Charging_Adjusted_Penalty>  (10) 
0

>  <r_epik_Ionization_Penalty>  (10) 
1.7115730675686392e-13

>  <r_epik_Ionization_Penalty_Charging>  (10) 
0

>  <r_epik_Ionization_Penalty_Neutral>  (10) 
1.7115730675686392e-13

>  <r_epik_State_Penalty>  (10) 
-0

>  <r_lp_Energy>  (10) 
37.378209999999996

>  <r_lp_tautomer_probability>  (10) 
1

>  <s_epik_Chemistry_Notes>  (10) 
This compound has an ester and may undergo hydrolysis at high or low pH. This compound contains an acetal/aminal-like group ( X-CH(R)-Y where X, Y are N, S, or O) that may be acid/base labile, releasing an aldehyde.

>  <s_epik_cmdline>  (10) 
J2VwaWtfcHl0aG9uJywgJy1waHQnLCAnMC4yJywgJy1waCcsICc3LjQnLCAnLXJldGFpbl9pX2xhYicsICctcmV0YWluX3RfbGFiJywgJy10bicsICcxJywgJy1tYScsICc1MDAnLCAnLWltYWUnLCAnPGluZmlsZS5tYWU+JywgJy1vbWFlJywgJzxvdXRmaWxlLm1hZT4n

>  <s_epik_input>  (10) 
W08tXVtOK10oPU8pYyhbY0hdW2NIXTEpW2NIXVtjSF1jMUMoPU8pT1tDQEhdMltDQEBIXShPW0NIMl1jM1tjSF1bY0hdW2NIXVtjSF1bY0hdMylbQ0BIXShPW0NIMl1jNFtjSF1bY0hdW2NIXVtjSF1bY0hdNClbQ0BIXShPMilbQ0gyXU9bQ0gyXWM1W2NIXVtjSF1bY0hdW2NIXVtjSF01

>  <s_lp_Force_Field>  (10) 
S-OPLS

>  <s_lp_Variant>  (10) 
RR8_B_Rahimova_2017-1

>  <s_lp_label>  (10) 
9

>  <s_m_source_file>  (10) 
montpellier_ligands.smi

$$$$
RR9_Rahimova_2017
     RDKit          3D

  0  0  0  0  0  0  0  0  0  0999 V3000
M  V30 BEGIN CTAB
M  V30 COUNTS 64 68 0 0 1
M  V30 BEGIN ATOM
M  V30 1 C 4.390347 6.168852 1.117493 0
M  V30 2 C 3.115301 5.353494 1.001705 0
M  V30 3 C 2.055886 5.821972 0.222729 0
M  V30 4 C 0.893301 5.065098 0.104235 0
M  V30 5 C 3.013041 4.125429 1.657022 0
M  V30 6 C 1.849481 3.370582 1.539047 0
M  V30 7 C 0.785533 3.834588 0.760357 0
M  V30 8 C -0.453010 3.013563 0.619759 0
M  V30 9 N -1.632082 3.569279 0.791112 0
M  V30 10 N -2.561273 2.605259 0.692206 0
M  V30 11 C -1.987548 1.384440 0.425310 0
M  V30 12 C -0.593248 1.605551 0.332440 0
M  V30 13 C 0.227869 0.496229 0.013704 0
M  V30 14 C 1.711333 0.565888 -0.229824 0
M  V30 15 N 2.444203 -0.415376 0.333270 0
M  V30 16 C 3.880241 -0.636645 0.133956 0
M  V30 17 C 4.184371 -1.719174 -0.927714 0
M  V30 18 C 3.457155 -1.530693 -2.255404 0
M  V30 19 C 2.310031 -2.278590 -2.538678 0
M  V30 20 C 1.629110 -2.080077 -3.736769 0
M  V30 21 C 2.099061 -1.137574 -4.649057 0
M  V30 22 C 3.244056 -0.392170 -4.374690 0
M  V30 23 C 3.925013 -0.589579 -3.176269 0
M  V30 24 O 2.186490 1.465246 -0.924286 0
M  V30 25 C -0.427350 -0.738769 -0.139883 0
M  V30 26 C -1.820740 -0.848425 -0.017203 0
M  V30 27 C -2.525562 -2.160001 -0.194202 0
M  V30 28 C -3.737034 -2.428882 0.460524 0
M  V30 29 C -4.389334 -3.646418 0.290185 0
M  V30 30 C -3.852259 -4.628505 -0.539187 0
M  V30 31 O -4.570405 -5.803839 -0.649774 0
M  V30 32 C -4.078457 -6.847793 -1.485191 0
M  V30 33 C -5.069574 -8.014895 -1.449512 0
M  V30 34 C -2.642906 -4.372615 -1.200488 0
M  V30 35 C -1.993146 -3.153461 -1.028468 0
M  V30 36 N -2.617317 0.220222 0.270389 0
M  V30 37 H 5.260724 5.517425 1.206600 0
M  V30 38 H 4.351803 6.819710 1.991417 0
M  V30 39 H 4.548069 6.780458 0.228140 0
M  V30 40 H 2.130828 6.768867 -0.292080 0
M  V30 41 H 0.080205 5.433393 -0.504632 0
M  V30 42 H 3.831054 3.754642 2.257379 0
M  V30 43 H 1.777997 2.423917 2.054505 0
M  V30 44 H -3.540935 2.821415 0.806525 0
M  V30 45 H 1.979006 -1.059496 0.956089 0
M  V30 46 H 4.335861 0.306857 -0.174760 0
M  V30 47 H 4.304563 -0.922371 1.096802 0
M  V30 48 H 5.258288 -1.755900 -1.115907 0
M  V30 49 H 3.937408 -2.701963 -0.523152 0
M  V30 50 H 1.938422 -3.003101 -1.828652 0
M  V30 51 H 0.739213 -2.651440 -3.955744 0
M  V30 52 H 1.569461 -0.981562 -5.577390 0
M  V30 53 H 3.599141 0.339087 -5.085854 0
M  V30 54 H 4.806072 -0.003370 -2.959055 0
M  V30 55 H 0.153361 -1.618888 -0.375917 0
M  V30 56 H -4.183056 -1.694323 1.115202 0
M  V30 57 H -5.320398 -3.827837 0.807189 0
M  V30 58 H -3.968201 -6.495879 -2.512417 0
M  V30 59 H -3.101386 -7.185720 -1.135677 0
M  V30 60 H -4.725015 -8.838436 -2.075144 0
M  V30 61 H -6.050794 -7.708347 -1.813155 0
M  V30 62 H -5.192534 -8.395787 -0.435271 0
M  V30 63 H -2.193471 -5.104294 -1.854419 0
M  V30 64 H -1.072089 -2.987601 -1.567251 0
M  V30 END ATOM
M  V30 BEGIN BOND
M  V30 1 1 2 1
M  V30 2 1 3 2
M  V30 3 2 4 3
M  V30 4 2 5 2
M  V30 5 1 6 5
M  V30 6 2 7 6
M  V30 7 1 7 4
M  V30 8 1 8 7
M  V30 9 2 9 8
M  V30 10 1 10 9
M  V30 11 1 11 10
M  V30 12 2 12 11
M  V30 13 1 12 8
M  V30 14 1 13 12
M  V30 15 1 14 13
M  V30 16 1 15 14
M  V30 17 1 16 15
M  V30 18 1 17 16
M  V30 19 1 18 17
M  V30 20 2 19 18
M  V30 21 1 20 19
M  V30 22 2 21 20
M  V30 23 1 22 21
M  V30 24 2 23 22
M  V30 25 1 23 18
M  V30 26 2 24 14
M  V30 27 2 25 13
M  V30 28 1 26 25
M  V30 29 1 27 26
M  V30 30 2 28 27
M  V30 31 1 29 28
M  V30 32 2 30 29
M  V30 33 1 31 30
M  V30 34 1 32 31
M  V30 35 1 33 32
M  V30 36 1 34 30
M  V30 37 2 35 34
M  V30 38 1 35 27
M  V30 39 2 36 26
M  V30 40 1 36 11
M  V30 41 1 37 1
M  V30 42 1 38 1
M  V30 43 1 39 1
M  V30 44 1 40 3
M  V30 45 1 41 4
M  V30 46 1 42 5
M  V30 47 1 43 6
M  V30 48 1 44 10
M  V30 49 1 45 15
M  V30 50 1 46 16
M  V30 51 1 47 16
M  V30 52 1 48 17
M  V30 53 1 49 17
M  V30 54 1 50 19
M  V30 55 1 51 20
M  V30 56 1 52 21
M  V30 57 1 53 22
M  V30 58 1 54 23
M  V30 59 1 55 25
M  V30 60 1 56 28
M  V30 61 1 57 29
M  V30 62 1 58 32
M  V30 63 1 59 32
M  V30 64 1 60 33
M  V30 65 1 61 33
M  V30 66 1 62 33
M  V30 67 1 63 34
M  V30 68 1 64 35
M  V30 END BOND
M  V30 END CTAB
M  END
>  <i_epik_Tot_Q>  (11) 
0

>  <i_epik_Tot_abs_Q>  (11) 
0

>  <i_f3d_flags>  (11) 
0

>  <i_lp_mmshare_version>  (11) 
71160

>  <i_lp_orig_ion_str>  (11) 
1

>  <i_m_source_file_index>  (11) 
10

>  <b_lp_Chiralities_Consistent>  (11) 
1

>  <r_epik_Charging_Adjusted_Penalty>  (11) 
0

>  <r_epik_Ionization_Penalty>  (11) 
1.8827076626852217e-05

>  <r_epik_Ionization_Penalty_Charging>  (11) 
0

>  <r_epik_Ionization_Penalty_Neutral>  (11) 
1.8827076626852217e-05

>  <r_epik_State_Penalty>  (11) 
-0

>  <r_lp_Energy>  (11) 
49.157357999999995

>  <r_lp_tautomer_probability>  (11) 
1

>  <s_epik_cmdline>  (11) 
J2VwaWtfcHl0aG9uJywgJy1waHQnLCAnMC4yJywgJy1waCcsICc3LjQnLCAnLXJldGFpbl9pX2xhYicsICctcmV0YWluX3RfbGFiJywgJy10bicsICcxJywgJy1tYScsICc1MDAnLCAnLWltYWUnLCAnPGluZmlsZS5tYWU+JywgJy1vbWFlJywgJzxvdXRmaWxlLm1hZT4n

>  <s_epik_input>  (11) 
W0NIM11bQ0gyXU9jKFtjSF1bY0hdMSlbY0hdW2NIXWMxLWMobjIpW2NIXWMoYyhjMjMpYyhuW25IXTMpLWMoW2NIXVtjSF00KVtjSF1bY0hdYzRbQ0gzXSlDKD1PKVtOSF1bQ0gyXVtDSDJdYzVbY0hdW2NIXVtjSF1bY0hdW2NIXTU=

>  <s_lp_Force_Field>  (11) 
S-OPLS

>  <s_lp_Variant>  (11) 
RR9_Rahimova_2017-1

>  <s_lp_label>  (11) 
10

>  <s_m_source_file>  (11) 
montpellier_ligands.smi

$$$$
RR10_Rahimova_2017
     RDKit          3D

  0  0  0  0  0  0  0  0  0  0999 V3000
M  V30 BEGIN CTAB
M  V30 COUNTS 66 70 0 0 1
M  V30 BEGIN ATOM
M  V30 1 O -0.404683 -0.774590 0.519797 0
M  V30 2 S 0.023333 -0.087984 -0.705239 0
M  V30 3 C -0.290539 1.659246 -0.452324 0
M  V30 4 C -0.667786 2.461793 -1.534825 0
M  V30 5 C -0.910399 3.822533 -1.299899 0
M  V30 6 C -0.761849 4.345773 0.006899 0
M  V30 7 N -1.078375 5.675915 -0.137513 0
M  V30 8 C -1.393065 5.896425 -1.462560 0
M  V30 9 C -1.800991 7.233992 -2.008737 0
M  V30 10 C -2.090805 7.386074 -3.371945 0
M  V30 11 C -2.472597 8.625465 -3.878702 0
M  V30 12 C -2.566478 9.720949 -3.024918 0
M  V30 13 C -2.281670 9.587092 -1.668838 0
M  V30 14 C -1.900132 8.347177 -1.162617 0
M  V30 15 N -1.294564 4.799222 -2.180708 0
M  V30 16 C -0.374549 3.555523 1.092177 0
M  V30 17 C -0.142825 2.203290 0.827955 0
M  V30 18 N 1.785466 -0.225580 -0.827031 0
M  V30 19 C 2.321318 -1.573019 -0.505697 0
M  V30 20 C 3.850390 -1.458522 -0.288669 0 CFG=1
M  V30 21 C 4.420781 -2.851884 0.049066 0
M  V30 22 N 5.098857 -2.964097 1.206403 0
M  V30 23 C 5.752620 -4.184569 1.695204 0 CFG=1
M  V30 24 C 7.091955 -4.476855 0.964541 0
M  V30 25 C 8.169450 -3.416415 1.283935 0
M  V30 26 C 8.432333 -3.335849 2.805678 0 CFG=1
M  V30 27 C 9.530003 -2.312978 3.144805 0
M  V30 28 C 7.109261 -3.028141 3.544963 0
M  V30 29 C 6.031743 -4.087496 3.217021 0
M  V30 30 O 4.257529 -3.795788 -0.727594 0
M  V30 31 C 4.540734 -0.915556 -1.566612 0
M  V30 32 C 3.906011 0.438696 -1.962005 0
M  V30 33 C 2.364790 0.363566 -2.064420 0
M  V30 34 O -0.550037 -0.466493 -2.002591 0
M  V30 35 H -0.775600 2.046503 -2.526234 0
M  V30 36 H -1.097104 6.400758 0.564927 0
M  V30 37 H -2.022857 6.545404 -4.047313 0
M  V30 38 H -2.695068 8.736096 -4.929836 0
M  V30 39 H -2.862604 10.682623 -3.417630 0
M  V30 40 H -2.356632 10.441371 -1.012017 0
M  V30 41 H -1.684050 8.262425 -0.107864 0
M  V30 42 H -0.260819 3.960163 2.086979 0
M  V30 43 H 0.158232 1.562990 1.644577 0
M  V30 44 H 1.839756 -1.937286 0.402708 0
M  V30 45 H 2.160806 -2.194151 -1.389493 0
M  V30 46 H 4.059958 -0.805214 0.561778 0
M  V30 47 H 5.279845 -2.123716 1.735852 0
M  V30 48 H 5.062921 -5.016186 1.533211 0
M  V30 49 H 7.455130 -5.465526 1.249583 0
M  V30 50 H 6.931211 -4.526162 -0.113284 0
M  V30 51 H 9.096359 -3.648368 0.757639 0
M  V30 52 H 7.868835 -2.439146 0.902270 0
M  V30 53 H 8.767424 -4.322632 3.131798 0
M  V30 54 H 9.243014 -1.304622 2.843782 0
M  V30 55 H 10.465202 -2.556498 2.639345 0
M  V30 56 H 9.733987 -2.294284 4.215974 0
M  V30 57 H 7.285243 -2.986911 4.620726 0
M  V30 58 H 6.757127 -2.029223 3.282053 0
M  V30 59 H 6.351159 -5.060810 3.593318 0
M  V30 60 H 5.109928 -3.854061 3.752008 0
M  V30 61 H 5.604238 -0.732820 -1.402403 0
M  V30 62 H 4.378665 -1.577082 -2.420557 0
M  V30 63 H 4.180181 1.200414 -1.230313 0
M  V30 64 H 4.320387 0.778613 -2.912005 0
M  V30 65 H 1.966588 1.365766 -2.223867 0
M  V30 66 H 2.163249 -0.308869 -2.899851 0
M  V30 END ATOM
M  V30 BEGIN BOND
M  V30 1 2 2 1
M  V30 2 1 3 2
M  V30 3 2 4 3
M  V30 4 1 5 4
M  V30 5 2 6 5
M  V30 6 1 7 6
M  V30 7 1 8 7
M  V30 8 1 9 8
M  V30 9 2 10 9
M  V30 10 1 11 10
M  V30 11 2 12 11
M  V30 12 1 13 12
M  V30 13 2 14 13
M  V30 14 1 14 9
M  V30 15 2 15 8
M  V30 16 1 15 5
M  V30 17 1 16 6
M  V30 18 2 17 16
M  V30 19 1 17 3
M  V30 20 1 18 2
M  V30 21 1 19 18
M  V30 22 1 20 19
M  V30 23 1 21 20
M  V30 24 1 22 21
M  V30 25 1 23 22
M  V30 26 1 24 23
M  V30 27 1 25 24
M  V30 28 1 26 25
M  V30 29 1 27 26
M  V30 30 1 28 26
M  V30 31 1 29 28
M  V30 32 1 29 23
M  V30 33 2 30 21
M  V30 34 1 31 20
M  V30 35 1 32 31
M  V30 36 1 33 32
M  V30 37 1 33 18
M  V30 38 2 34 2
M  V30 39 1 35 4
M  V30 40 1 36 7
M  V30 41 1 37 10
M  V30 42 1 38 11
M  V30 43 1 39 12
M  V30 44 1 40 13
M  V30 45 1 41 14
M  V30 46 1 42 16
M  V30 47 1 43 17
M  V30 48 1 44 19
M  V30 49 1 45 19
M  V30 50 1 20 46 CFG=1
M  V30 51 1 47 22
M  V30 52 1 23 48 CFG=1
M  V30 53 1 49 24
M  V30 54 1 50 24
M  V30 55 1 51 25
M  V30 56 1 52 25
M  V30 57 1 26 53 CFG=1
M  V30 58 1 54 27
M  V30 59 1 55 27
M  V30 60 1 56 27
M  V30 61 1 57 28
M  V30 62 1 58 28
M  V30 63 1 59 29
M  V30 64 1 60 29
M  V30 65 1 61 31
M  V30 66 1 62 31
M  V30 67 1 63 32
M  V30 68 1 64 32
M  V30 69 1 65 33
M  V30 70 1 66 33
M  V30 END BOND
M  V30 END CTAB
M  END
>  <i_epik_Tot_Q>  (12) 
0

>  <i_epik_Tot_abs_Q>  (12) 
0

>  <i_f3d_flags>  (12) 
0

>  <i_lp_mmshare_version>  (12) 
71160

>  <i_lp_orig_ion_str>  (12) 
1

>  <i_m_source_file_index>  (12) 
11

>  <b_lp_Chiralities_Consistent>  (12) 
1

>  <r_epik_Charging_Adjusted_Penalty>  (12) 
0

>  <r_epik_Ionization_Penalty>  (12) 
0.02091758959765927

>  <r_epik_Ionization_Penalty_Charging>  (12) 
0

>  <r_epik_Ionization_Penalty_Neutral>  (12) 
0.02091758959765927

>  <r_epik_State_Penalty>  (12) 
-0

>  <r_lp_Energy>  (12) 
53.632598999999999

>  <r_lp_tautomer_probability>  (12) 
1

>  <s_epik_cmdline>  (12) 
J2VwaWtfcHl0aG9uJywgJy1waHQnLCAnMC4yJywgJy1waCcsICc3LjQnLCAnLXJldGFpbl9pX2xhYicsICctcmV0YWluX3RfbGFiJywgJy10bicsICcxJywgJy1tYScsICc1MDAnLCAnLWltYWUnLCAnPGluZmlsZS5tYWU+JywgJy1vbWFlJywgJzxvdXRmaWxlLm1hZT4n

>  <s_epik_input>  (12) 
W0NIMl0xW0NIMl1bQ0BIXShbQ0gzXSlbQ0gyXVtDSDJdW0NAQEhdMVtOSF1DKD1PKVtDQEBIXShbQ0gyXVtDSDJdW0NIMl0yKVtDSDJdTjJTKD1PKSg9TyljKFtjSF0zKVtjSF1bY0hdYyhjMzQpW25IXWMobjQpLWM1W2NIXVtjSF1bY0hdW2NIXVtjSF01

>  <s_lp_Force_Field>  (12) 
S-OPLS

>  <s_lp_Variant>  (12) 
RR10_Rahimova_2017-1

>  <s_lp_label>  (12) 
11

>  <s_m_source_file>  (12) 
montpellier_ligands.smi

$$$$
RR11_Rahimova_2017
     RDKit          3D

  0  0  0  0  0  0  0  0  0  0999 V3000
M  V30 BEGIN CTAB
M  V30 COUNTS 55 60 0 0 1
M  V30 BEGIN ATOM
M  V30 1 N -9.261052 4.346063 0.008251 0
M  V30 2 C -8.046449 3.662092 0.031477 0
M  V30 3 C -8.035242 2.268575 0.042204 0
M  V30 4 C -6.821237 1.586625 0.059940 0
M  V30 5 C -6.849589 4.375482 0.042221 0
M  V30 6 C -5.636638 3.691804 0.059998 0
M  V30 7 C -5.609672 2.290829 0.066675 0
M  V30 8 C -4.301289 1.554697 0.075342 0
M  V30 9 N -3.073649 2.180175 0.006499 0
M  V30 10 N -4.183865 0.246327 0.138684 0
M  V30 11 C -2.835962 0.001356 0.103933 0
M  V30 12 C -2.101819 1.208039 0.019409 0
M  V30 13 C -0.705871 1.236278 -0.033985 0
M  V30 14 C -2.154509 -1.223029 0.139225 0
M  V30 15 C -0.760212 -1.201717 0.080666 0
M  V30 16 C -0.047833 -0.000513 -0.015512 0
M  V30 17 C 1.473265 -0.033500 -0.066498 0
M  V30 18 C 2.020024 -0.055767 -1.486977 0
M  V30 19 C 2.244203 1.150868 -2.159540 0
M  V30 20 C 2.752833 1.102373 -3.464996 0
M  V30 21 C 3.039219 -0.149700 -4.059231 0
M  V30 22 C 2.836344 -1.360545 -3.392689 0
M  V30 23 C 2.323209 -1.279299 -2.095674 0
M  V30 24 N 3.506199 0.182545 -5.308785 0
M  V30 25 C 3.480690 1.557594 -5.419748 0
M  V30 26 C 3.907252 2.299896 -6.652446 0
M  V30 27 C 3.911371 3.701131 -6.671678 0
M  V30 28 C 4.301357 4.391237 -7.816392 0
M  V30 29 C 4.690890 3.683805 -8.951885 0
M  V30 30 N 5.079352 4.373728 -10.099293 0
M  V30 31 C 4.693042 2.290365 -8.946771 0
M  V30 32 C 4.302525 1.601825 -7.801146 0
M  V30 33 N 3.036991 2.131834 -4.323142 0
M  V30 34 H -9.263398 5.355550 -0.018397 0
M  V30 35 H -10.124658 3.823450 -0.017899 0
M  V30 36 H -8.960452 1.710158 0.034884 0
M  V30 37 H -6.830717 0.506432 0.065296 0
M  V30 38 H -6.852634 5.455963 0.035068 0
M  V30 39 H -4.719778 4.262775 0.066580 0
M  V30 40 H -2.963588 3.181965 -0.050189 0
M  V30 41 H -0.158001 2.165014 -0.099102 0
M  V30 42 H -2.689161 -2.159221 0.205723 0
M  V30 43 H -0.224498 -2.139828 0.102387 0
M  V30 44 H 1.874821 0.831734 0.464322 0
M  V30 45 H 1.841667 -0.900797 0.484585 0
M  V30 46 H 2.019645 2.097024 -1.688623 0
M  V30 47 H 3.058351 -2.313525 -3.849971 0
M  V30 48 H 2.150387 -2.197330 -1.552492 0
M  V30 49 H 3.818360 -0.428385 -6.049359 0
M  V30 50 H 3.611821 4.265302 -5.800312 0
M  V30 51 H 4.298135 5.471729 -7.814563 0
M  V30 52 H 5.341465 3.856294 -10.925887 0
M  V30 53 H 5.055450 5.383251 -10.103390 0
M  V30 54 H 4.994462 1.737168 -9.824713 0
M  V30 55 H 4.309275 0.521889 -7.817631 0
M  V30 END ATOM
M  V30 BEGIN BOND
M  V30 1 1 2 1
M  V30 2 1 3 2
M  V30 3 2 4 3
M  V30 4 2 5 2
M  V30 5 1 6 5
M  V30 6 2 7 6
M  V30 7 1 7 4
M  V30 8 1 8 7
M  V30 9 1 9 8
M  V30 10 2 10 8
M  V30 11 1 11 10
M  V30 12 1 12 11
M  V30 13 1 12 9
M  V30 14 2 13 12
M  V30 15 2 14 11
M  V30 16 1 15 14
M  V30 17 2 16 15
M  V30 18 1 16 13
M  V30 19 1 17 16
M  V30 20 1 18 17
M  V30 21 2 19 18
M  V30 22 1 20 19
M  V30 23 2 21 20
M  V30 24 1 22 21
M  V30 25 2 23 22
M  V30 26 1 23 18
M  V30 27 1 24 21
M  V30 28 1 25 24
M  V30 29 1 26 25
M  V30 30 2 27 26
M  V30 31 1 28 27
M  V30 32 2 29 28
M  V30 33 1 30 29
M  V30 34 1 31 29
M  V30 35 2 32 31
M  V30 36 1 32 26
M  V30 37 2 33 25
M  V30 38 1 33 20
M  V30 39 1 34 1
M  V30 40 1 35 1
M  V30 41 1 36 3
M  V30 42 1 37 4
M  V30 43 1 38 5
M  V30 44 1 39 6
M  V30 45 1 40 9
M  V30 46 1 41 13
M  V30 47 1 42 14
M  V30 48 1 43 15
M  V30 49 1 44 17
M  V30 50 1 45 17
M  V30 51 1 46 19
M  V30 52 1 47 22
M  V30 53 1 48 23
M  V30 54 1 49 24
M  V30 55 1 50 27
M  V30 56 1 51 28
M  V30 57 1 52 30
M  V30 58 1 53 30
M  V30 59 1 54 31
M  V30 60 1 55 32
M  V30 END BOND
M  V30 END CTAB
M  END
>  <i_epik_Tot_Q>  (13) 
0

>  <i_epik_Tot_abs_Q>  (13) 
0

>  <i_f3d_flags>  (13) 
0

>  <i_lp_mmshare_version>  (13) 
71160

>  <i_lp_orig_ion_str>  (13) 
1

>  <i_m_source_file_index>  (13) 
12

>  <b_lp_Chiralities_Consistent>  (13) 
1

>  <r_epik_Charging_Adjusted_Penalty>  (13) 
0.65279264090842704

>  <r_epik_Ionization_Penalty>  (13) 
0.43879678410482925

>  <r_epik_Ionization_Penalty_Charging>  (13) 
0

>  <r_epik_Ionization_Penalty_Neutral>  (13) 
0.43879678410482925

>  <r_epik_State_Penalty>  (13) 
0.65279264090842704

>  <r_lp_Energy>  (13) 
36.804344

>  <s_epik_cmdline>  (13) 
J2VwaWtfcHl0aG9uJywgJy1waHQnLCAnMC4yJywgJy1waCcsICc3LjQnLCAnLXJldGFpbl9pX2xhYicsICctcmV0YWluX3RfbGFiJywgJy10bicsICcxJywgJy1tYScsICc1MDAnLCAnLWltYWUnLCAnPGluZmlsZS5tYWU+JywgJy1vbWFlJywgJzxvdXRmaWxlLm1hZT4n

>  <s_epik_input>  (13) 
W05IMl1jMVtjSF1bY0hdYyhbY0hdW2NIXTEpLWMobjIpW25IXWMoYzIzKVtjSF1jKFtjSF1bY0hdMylbQ0gyXWMoW2NIXTQpW2NIXVtjSF1jKGM0NSlbbkhdYyhuNSktYzZbY0hdW2NIXWMoW05IMl0pW2NIXVtjSF02

>  <s_lp_Force_Field>  (13) 
S-OPLS

>  <s_lp_Variant>  (13) 
RR11_Rahimova_2017-1

>  <s_lp_label>  (13) 
12

>  <s_m_source_file>  (13) 
montpellier_ligands.smi

$$$$
RR11_Rahimova_2017
     RDKit          3D

  0  0  0  0  0  0  0  0  0  0999 V3000
M  V30 BEGIN CTAB
M  V30 COUNTS 56 61 0 0 1
M  V30 BEGIN ATOM
M  V30 1 N -9.248593 4.340719 0.006924 0
M  V30 2 C -8.034522 3.655969 -0.016652 0
M  V30 3 C -8.023909 2.262508 -0.026327 0
M  V30 4 C -6.810137 1.580487 -0.046692 0
M  V30 5 C -6.837574 4.369350 -0.029625 0
M  V30 6 C -5.624902 3.685327 -0.050154 0
M  V30 7 C -5.598540 2.284457 -0.057733 0
M  V30 8 C -4.291105 1.547372 -0.071770 0
M  V30 9 N -3.061503 2.172305 -0.044538 0
M  V30 10 N -4.176795 0.237792 -0.101902 0
M  V30 11 C -2.829196 -0.008868 -0.083188 0
M  V30 12 C -2.091491 1.197975 -0.044436 0
M  V30 13 C -0.694731 1.224062 -0.012167 0
M  V30 14 C -2.150851 -1.235289 -0.095233 0
M  V30 15 C -0.756117 -1.216246 -0.055325 0
M  V30 16 C -0.040021 -0.014749 -0.000830 0
M  V30 17 C 1.481011 -0.052380 0.045625 0
M  V30 18 C 2.024464 -0.052298 1.467755 0
M  V30 19 C 2.265279 1.169514 2.108550 0
M  V30 20 C 2.755602 1.112732 3.415802 0
M  V30 21 C 3.012956 -0.112193 4.053617 0
M  V30 22 C 2.793373 -1.331810 3.407932 0
M  V30 23 C 2.296222 -1.269424 2.103893 0
M  V30 24 N 3.477547 0.190795 5.327067 0
M  V30 25 C 3.514660 1.554844 5.504176 0
M  V30 26 C 3.936876 2.290460 6.734731 0
M  V30 27 C 3.935367 3.690352 6.752038 0
M  V30 28 C 4.319419 4.380023 7.898773 0
M  V30 29 C 4.707529 3.672376 9.034958 0
M  V30 30 N 5.088327 4.363586 10.184142 0
M  V30 31 C 4.715495 2.278356 9.028227 0
M  V30 32 C 4.330935 1.589329 7.880518 0
M  V30 33 N 3.076240 2.111186 4.325159 0 CHG=1
M  V30 34 H -9.249083 5.350169 0.034923 0
M  V30 35 H -10.112813 3.819127 0.037139 0
M  V30 36 H -8.948975 1.703897 -0.017308 0
M  V30 37 H -6.819792 0.500111 -0.051935 0
M  V30 38 H -6.840821 5.450004 -0.023180 0
M  V30 39 H -4.708064 4.256021 -0.058706 0
M  V30 40 H -2.950000 3.175384 -0.020268 0
M  V30 41 H -0.144200 2.152990 0.018456 0
M  V30 42 H -2.688779 -2.171399 -0.128771 0
M  V30 43 H -0.223500 -2.156327 -0.057208 0
M  V30 44 H 1.844853 -0.931320 -0.490054 0
M  V30 45 H 1.885082 0.801607 -0.501552 0
M  V30 46 H 2.063534 2.110237 1.617091 0
M  V30 47 H 2.988334 -2.279985 3.887304 0
M  V30 48 H 2.107358 -2.194967 1.578825 0
M  V30 49 H 3.752521 -0.456868 6.051126 0
M  V30 50 H 3.635822 4.254146 5.880546 0
M  V30 51 H 4.312062 5.460680 7.898801 0
M  V30 52 H 5.354472 3.848027 11.010731 0
M  V30 53 H 5.065677 5.373316 10.187464 0
M  V30 54 H 5.016282 1.725782 9.906973 0
M  V30 55 H 4.340399 0.509175 7.891918 0
M  V30 56 H 3.007811 3.109447 4.191588 0
M  V30 END ATOM
M  V30 BEGIN BOND
M  V30 1 1 2 1
M  V30 2 1 3 2
M  V30 3 2 4 3
M  V30 4 2 5 2
M  V30 5 1 6 5
M  V30 6 2 7 6
M  V30 7 1 7 4
M  V30 8 1 8 7
M  V30 9 1 9 8
M  V30 10 2 10 8
M  V30 11 1 11 10
M  V30 12 1 12 11
M  V30 13 1 12 9
M  V30 14 2 13 12
M  V30 15 2 14 11
M  V30 16 1 15 14
M  V30 17 2 16 15
M  V30 18 1 16 13
M  V30 19 1 17 16
M  V30 20 1 18 17
M  V30 21 2 19 18
M  V30 22 1 20 19
M  V30 23 2 21 20
M  V30 24 1 22 21
M  V30 25 2 23 22
M  V30 26 1 23 18
M  V30 27 1 24 21
M  V30 28 1 25 24
M  V30 29 1 26 25
M  V30 30 2 27 26
M  V30 31 1 28 27
M  V30 32 2 29 28
M  V30 33 1 30 29
M  V30 34 1 31 29
M  V30 35 2 32 31
M  V30 36 1 32 26
M  V30 37 2 33 25
M  V30 38 1 33 20
M  V30 39 1 34 1
M  V30 40 1 35 1
M  V30 41 1 36 3
M  V30 42 1 37 4
M  V30 43 1 38 5
M  V30 44 1 39 6
M  V30 45 1 40 9
M  V30 46 1 41 13
M  V30 47 1 42 14
M  V30 48 1 43 15
M  V30 49 1 44 17
M  V30 50 1 45 17
M  V30 51 1 46 19
M  V30 52 1 47 22
M  V30 53 1 48 23
M  V30 54 1 49 24
M  V30 55 1 50 27
M  V30 56 1 51 28
M  V30 57 1 52 30
M  V30 58 1 53 30
M  V30 59 1 54 31
M  V30 60 1 55 32
M  V30 61 1 56 33
M  V30 END BOND
M  V30 END CTAB
M  END
>  <i_epik_Tot_Q>  (14) 
1

>  <i_epik_Tot_abs_Q>  (14) 
1

>  <i_f3d_flags>  (14) 
0

>  <i_lp_mmshare_version>  (14) 
71160

>  <i_lp_orig_ion_str>  (14) 
1

>  <i_m_source_file_index>  (14) 
12

>  <b_lp_Chiralities_Consistent>  (14) 
1

>  <r_epik_Charging_Adjusted_Penalty>  (14) 
2.2144408982477692

>  <r_epik_Ionization_Penalty>  (14) 
1.2469779654325173

>  <r_epik_Ionization_Penalty_Charging>  (14) 
1.1367604217918319

>  <r_epik_Ionization_Penalty_Neutral>  (14) 
0.11021754364068544

>  <r_epik_State_Penalty>  (14) 
1.0776804764559376

>  <r_lp_Energy>  (14) 
39.285998999999997

>  <s_epik_cmdline>  (14) 
J2VwaWtfcHl0aG9uJywgJy1waHQnLCAnMC4yJywgJy1waCcsICc3LjQnLCAnLXJldGFpbl9pX2xhYicsICctcmV0YWluX3RfbGFiJywgJy10bicsICcxJywgJy1tYScsICc1MDAnLCAnLWltYWUnLCAnPGluZmlsZS5tYWU+JywgJy1vbWFlJywgJzxvdXRmaWxlLm1hZT4n

>  <s_epik_input>  (14) 
W05IMl1jMVtjSF1bY0hdYyhbY0hdW2NIXTEpLWMobjIpW25IXWMoYzIzKVtjSF1jKFtjSF1bY0hdMylbQ0gyXWMoW2NIXTQpW2NIXVtjSF1jKGM0NSlbbkhdYyhuNSktYzZbY0hdW2NIXWMoW05IMl0pW2NIXVtjSF02

>  <s_lp_Force_Field>  (14) 
S-OPLS

>  <s_lp_Variant>  (14) 
RR11_Rahimova_2017-2

>  <s_lp_label>  (14) 
12

>  <s_m_source_file>  (14) 
montpellier_ligands.smi

$$$$
RR11_Rahimova_2017
     RDKit          3D

  0  0  0  0  0  0  0  0  0  0999 V3000
M  V30 BEGIN CTAB
M  V30 COUNTS 57 62 0 0 1
M  V30 BEGIN ATOM
M  V30 1 N -9.318011 4.354343 0.002577 0
M  V30 2 C -8.101816 3.673405 -0.022273 0
M  V30 3 C -8.087324 2.279595 -0.031321 0
M  V30 4 C -6.871825 1.600225 -0.050247 0
M  V30 5 C -6.906569 4.390361 -0.036102 0
M  V30 6 C -5.691785 3.710104 -0.055243 0
M  V30 7 C -5.665384 2.310413 -0.060482 0
M  V30 8 C -4.360733 1.581454 -0.069814 0
M  V30 9 N -3.104440 2.140801 -0.036085 0
M  V30 10 N -4.177909 0.218348 -0.103478 0 CHG=1
M  V30 11 C -2.822301 -0.081994 -0.082973 0
M  V30 12 C -2.137694 1.143964 -0.038233 0
M  V30 13 C -0.741570 1.201966 -0.002315 0
M  V30 14 C -2.138703 -1.300561 -0.097048 0
M  V30 15 C -0.744025 -1.236973 -0.054488 0
M  V30 16 C -0.055525 -0.019361 0.004497 0
M  V30 17 C 1.466307 -0.019706 0.048164 0
M  V30 18 C 2.014841 -0.020553 1.468440 0
M  V30 19 C 2.250047 1.200244 2.113780 0
M  V30 20 C 2.749224 1.141268 3.418048 0
M  V30 21 C 3.019313 -0.085135 4.047868 0
M  V30 22 C 2.804627 -1.303182 3.397693 0
M  V30 23 C 2.299703 -1.238537 2.097046 0
M  V30 24 N 3.490485 0.214356 5.319338 0
M  V30 25 C 3.519894 1.577268 5.503783 0
M  V30 26 C 3.946079 2.305660 6.737247 0
M  V30 27 C 3.950103 3.705310 6.764296 0
M  V30 28 C 4.337018 4.385177 7.916225 0
M  V30 29 C 4.722279 3.667854 9.047476 0
M  V30 30 N 5.104304 4.348432 10.202696 0
M  V30 31 C 4.725817 2.273986 9.030369 0
M  V30 32 C 4.338467 1.595049 7.877864 0
M  V30 33 N 3.069577 2.137481 4.330837 0 CHG=1
M  V30 34 H -9.321873 5.363480 0.043858 0
M  V30 35 H -10.180544 3.830746 0.046633 0
M  V30 36 H -9.011547 1.719521 -0.022009 0
M  V30 37 H -6.877758 0.520011 -0.054061 0
M  V30 38 H -6.912915 5.471043 -0.030525 0
M  V30 39 H -4.774599 4.280670 -0.063689 0
M  V30 40 H -2.958300 3.139417 -0.007187 0
M  V30 41 H -0.212383 2.143244 0.032830 0
M  V30 42 H -2.654253 -2.249053 -0.134058 0
M  V30 43 H -0.185878 -2.162321 -0.058576 0
M  V30 44 H 1.850508 -0.884745 -0.495908 0
M  V30 45 H 1.849161 0.848088 -0.492539 0
M  V30 46 H 2.040717 2.141936 1.627226 0
M  V30 47 H 3.011167 -2.252107 3.870875 0
M  V30 48 H 2.117462 -2.163647 1.568744 0
M  V30 49 H 3.775344 -0.434928 6.038124 0
M  V30 50 H 3.652431 4.276185 5.896939 0
M  V30 51 H 4.333979 5.465865 7.924359 0
M  V30 52 H 5.350256 3.824550 11.030363 0
M  V30 53 H 5.066876 5.357495 10.220280 0
M  V30 54 H 5.025041 1.713693 9.904730 0
M  V30 55 H 4.343931 0.514830 7.881881 0
M  V30 56 H -4.950968 -0.430428 -0.132493 0
M  V30 57 H 2.993849 3.136176 4.203281 0
M  V30 END ATOM
M  V30 BEGIN BOND
M  V30 1 1 2 1
M  V30 2 1 3 2
M  V30 3 2 4 3
M  V30 4 2 5 2
M  V30 5 1 6 5
M  V30 6 2 7 6
M  V30 7 1 7 4
M  V30 8 1 8 7
M  V30 9 1 9 8
M  V30 10 2 10 8
M  V30 11 1 11 10
M  V30 12 1 12 11
M  V30 13 1 12 9
M  V30 14 2 13 12
M  V30 15 2 14 11
M  V30 16 1 15 14
M  V30 17 2 16 15
M  V30 18 1 16 13
M  V30 19 1 17 16
M  V30 20 1 18 17
M  V30 21 2 19 18
M  V30 22 1 20 19
M  V30 23 2 21 20
M  V30 24 1 22 21
M  V30 25 2 23 22
M  V30 26 1 23 18
M  V30 27 1 24 21
M  V30 28 1 25 24
M  V30 29 1 26 25
M  V30 30 2 27 26
M  V30 31 1 28 27
M  V30 32 2 29 28
M  V30 33 1 30 29
M  V30 34 1 31 29
M  V30 35 2 32 31
M  V30 36 1 32 26
M  V30 37 2 33 25
M  V30 38 1 33 20
M  V30 39 1 34 1
M  V30 40 1 35 1
M  V30 41 1 36 3
M  V30 42 1 37 4
M  V30 43 1 38 5
M  V30 44 1 39 6
M  V30 45 1 40 9
M  V30 46 1 41 13
M  V30 47 1 42 14
M  V30 48 1 43 15
M  V30 49 1 44 17
M  V30 50 1 45 17
M  V30 51 1 46 19
M  V30 52 1 47 22
M  V30 53 1 48 23
M  V30 54 1 49 24
M  V30 55 1 50 27
M  V30 56 1 51 28
M  V30 57 1 52 30
M  V30 58 1 53 30
M  V30 59 1 54 31
M  V30 60 1 55 32
M  V30 61 1 56 10
M  V30 62 1 57 33
M  V30 END BOND
M  V30 END CTAB
M  END
>  <i_epik_Tot_Q>  (15) 
2

>  <i_epik_Tot_abs_Q>  (15) 
2

>  <i_f3d_flags>  (15) 
0

>  <i_lp_mmshare_version>  (15) 
71160

>  <i_lp_orig_ion_str>  (15) 
1

>  <i_m_source_file_index>  (15) 
12

>  <b_lp_Chiralities_Consistent>  (15) 
1

>  <r_epik_Charging_Adjusted_Penalty>  (15) 
4.0441563683390225

>  <r_epik_Ionization_Penalty>  (15) 
2.0204789390879387

>  <r_epik_Ionization_Penalty_Charging>  (15) 
2.0203546069002996

>  <r_epik_Ionization_Penalty_Neutral>  (15) 
0.00012433218763919596

>  <r_epik_State_Penalty>  (15) 
2.0238017614387234

>  <r_lp_Energy>  (15) 
42.569320999999995

>  <s_epik_cmdline>  (15) 
J2VwaWtfcHl0aG9uJywgJy1waHQnLCAnMC4yJywgJy1waCcsICc3LjQnLCAnLXJldGFpbl9pX2xhYicsICctcmV0YWluX3RfbGFiJywgJy10bicsICcxJywgJy1tYScsICc1MDAnLCAnLWltYWUnLCAnPGluZmlsZS5tYWU+JywgJy1vbWFlJywgJzxvdXRmaWxlLm1hZT4n

>  <s_epik_input>  (15) 
W05IMl1jMVtjSF1bY0hdYyhbY0hdW2NIXTEpLWMobjIpW25IXWMoYzIzKVtjSF1jKFtjSF1bY0hdMylbQ0gyXWMoW2NIXTQpW2NIXVtjSF1jKGM0NSlbbkhdYyhuNSktYzZbY0hdW2NIXWMoW05IMl0pW2NIXVtjSF02

>  <s_lp_Force_Field>  (15) 
S-OPLS

>  <s_lp_Variant>  (15) 
RR11_Rahimova_2017-3

>  <s_lp_label>  (15) 
12

>  <s_m_source_file>  (15) 
montpellier_ligands.smi

$$$$
RR12_Rahimova_2017
     RDKit          3D

  0  0  0  0  0  0  0  0  0  0999 V3000
M  V30 BEGIN CTAB
M  V30 COUNTS 51 53 0 0 1
M  V30 BEGIN ATOM
M  V30 1 O -0.784663 1.489699 -1.382656 0
M  V30 2 C -0.978556 1.869889 -0.225752 0
M  V30 3 C -1.653022 3.217374 0.064183 0
M  V30 4 O -1.979380 3.862217 -1.167567 0
M  V30 5 C -2.661073 5.063801 -1.143436 0
M  V30 6 C -2.965653 5.630048 -2.382763 0
M  V30 7 C -3.654423 6.837518 -2.458944 0
M  V30 8 C -4.041043 7.484878 -1.288641 0
M  V30 9 C -3.742911 6.935528 -0.044432 0
M  V30 10 C -3.054070 5.727544 0.030717 0
M  V30 11 N -0.627608 1.150041 0.855156 0
M  V30 12 C 0.016781 -0.161664 0.816243 0
M  V30 13 C 1.518861 -0.107131 0.477981 0
M  V30 14 C 2.168967 -1.502385 0.427267 0
M  V30 15 C 3.642859 -1.440916 0.065512 0
M  V30 16 N 4.593717 -1.454608 0.967080 0
M  V30 17 C 5.757469 -1.393748 0.251379 0
M  V30 18 C 7.080744 -1.391785 0.715891 0
M  V30 19 C 8.108357 -1.329285 -0.225776 0
M  V30 20 C 7.835346 -1.270399 -1.592735 0
M  V30 21 C 6.528557 -1.269391 -2.086963 0
M  V30 22 C 5.498000 -1.330515 -1.140928 0
M  V30 23 N 4.118481 -1.346943 -1.232567 0
M  V30 24 C 3.336062 -1.334456 -2.466674 0
M  V30 25 C 3.238231 -2.748978 -3.066352 0
M  V30 26 C 2.433203 -2.781855 -4.371882 0
M  V30 27 H -2.557861 3.034752 0.646888 0
M  V30 28 H -0.967378 3.841796 0.640070 0
M  V30 29 H -2.667511 5.128613 -3.291985 0
M  V30 30 H -3.888556 7.268675 -3.421111 0
M  V30 31 H -4.576525 8.421075 -1.346196 0
M  V30 32 H -4.046195 7.443685 0.858888 0
M  V30 33 H -2.834996 5.322713 1.006966 0
M  V30 34 H -0.821813 1.526296 1.771765 0
M  V30 35 H -0.117333 -0.642646 1.785898 0
M  V30 36 H -0.502978 -0.818848 0.115724 0
M  V30 37 H 1.656343 0.393955 -0.480830 0
M  V30 38 H 2.034144 0.505673 1.219475 0
M  V30 39 H 2.040885 -1.984669 1.397770 0
M  V30 40 H 1.629814 -2.139673 -0.274867 0
M  V30 41 H 7.302616 -1.439215 1.771965 0
M  V30 42 H 9.135376 -1.327768 0.109110 0
M  V30 43 H 8.659554 -1.223973 -2.289404 0
M  V30 44 H 6.332289 -1.222930 -3.148080 0
M  V30 45 H 2.344099 -0.928751 -2.268383 0
M  V30 46 H 3.807498 -0.645005 -3.168720 0
M  V30 47 H 4.238006 -3.142680 -3.256050 0
M  V30 48 H 2.773319 -3.423557 -2.345712 0
M  V30 49 H 2.380540 -3.795053 -4.771115 0
M  V30 50 H 2.889422 -2.149329 -5.134103 0
M  V30 51 H 1.411461 -2.434068 -4.215477 0
M  V30 END ATOM
M  V30 BEGIN BOND
M  V30 1 2 2 1
M  V30 2 1 3 2
M  V30 3 1 4 3
M  V30 4 1 5 4
M  V30 5 2 6 5
M  V30 6 1 7 6
M  V30 7 2 8 7
M  V30 8 1 9 8
M  V30 9 2 10 9
M  V30 10 1 10 5
M  V30 11 1 11 2
M  V30 12 1 12 11
M  V30 13 1 13 12
M  V30 14 1 14 13
M  V30 15 1 15 14
M  V30 16 2 16 15
M  V30 17 1 17 16
M  V30 18 2 18 17
M  V30 19 1 19 18
M  V30 20 2 20 19
M  V30 21 1 21 20
M  V30 22 2 22 21
M  V30 23 1 22 17
M  V30 24 1 23 22
M  V30 25 1 23 15
M  V30 26 1 24 23
M  V30 27 1 25 24
M  V30 28 1 26 25
M  V30 29 1 27 3
M  V30 30 1 28 3
M  V30 31 1 29 6
M  V30 32 1 30 7
M  V30 33 1 31 8
M  V30 34 1 32 9
M  V30 35 1 33 10
M  V30 36 1 34 11
M  V30 37 1 35 12
M  V30 38 1 36 12
M  V30 39 1 37 13
M  V30 40 1 38 13
M  V30 41 1 39 14
M  V30 42 1 40 14
M  V30 43 1 41 18
M  V30 44 1 42 19
M  V30 45 1 43 20
M  V30 46 1 44 21
M  V30 47 1 45 24
M  V30 48 1 46 24
M  V30 49 1 47 25
M  V30 50 1 48 25
M  V30 51 1 49 26
M  V30 52 1 50 26
M  V30 53 1 51 26
M  V30 END BOND
M  V30 END CTAB
M  END
>  <i_epik_Tot_Q>  (16) 
0

>  <i_epik_Tot_abs_Q>  (16) 
0

>  <i_f3d_flags>  (16) 
0

>  <i_lp_mmshare_version>  (16) 
71160

>  <i_lp_orig_ion_str>  (16) 
1

>  <i_m_source_file_index>  (16) 
13

>  <b_lp_Chiralities_Consistent>  (16) 
1

>  <r_epik_Charging_Adjusted_Penalty>  (16) 
0.062738585589314513

>  <r_epik_Ionization_Penalty>  (16) 
0.062738894474537205

>  <r_epik_Ionization_Penalty_Charging>  (16) 
0

>  <r_epik_Ionization_Penalty_Neutral>  (16) 
0.062738894474537205

>  <r_epik_State_Penalty>  (16) 
0.062738585589314513

>  <r_lp_Energy>  (16) 
27.441120999999999

>  <r_lp_tautomer_probability>  (16) 
1

>  <s_epik_cmdline>  (16) 
J2VwaWtfcHl0aG9uJywgJy1waHQnLCAnMC4yJywgJy1waCcsICc3LjQnLCAnLXJldGFpbl9pX2xhYicsICctcmV0YWluX3RfbGFiJywgJy10bicsICcxJywgJy1tYScsICc1MDAnLCAnLWltYWUnLCAnPGluZmlsZS5tYWU+JywgJy1vbWFlJywgJzxvdXRmaWxlLm1hZT4n

>  <s_epik_input>  (16) 
W2NIXTFbY0hdW2NIXVtjSF1bY0hdYzFPW0NIMl1DKD1PKVtOSF1bQ0gyXVtDSDJdW0NIMl1jKG4yKW4oW0NIMl1bQ0gyXVtDSDNdKWMoYzIzKVtjSF1bY0hdW2NIXVtjSF0z

>  <s_lp_Force_Field>  (16) 
S-OPLS

>  <s_lp_Variant>  (16) 
RR12_Rahimova_2017-1

>  <s_lp_label>  (16) 
13

>  <s_m_source_file>  (16) 
montpellier_ligands.smi

$$$$
RR13_Rahimova_2017
     RDKit          3D

  0  0  0  0  0  0  0  0  0  0999 V3000
M  V30 BEGIN CTAB
M  V30 COUNTS 84 90 0 0 1
M  V30 BEGIN ATOM
M  V30 1 Cl -1.354597 1.085410 -1.956065 0
M  V30 2 C -1.058400 -0.611153 -2.135958 0
M  V30 3 C -1.487410 -1.224642 -3.314820 0
M  V30 4 C -1.297103 -2.590477 -3.510761 0
M  V30 5 C -0.677457 -3.352668 -2.524517 0
M  V30 6 C -0.245570 -2.747781 -1.345760 0
M  V30 7 C -0.418387 -1.370237 -1.135058 0
M  V30 8 C 0.046063 -0.727772 0.191072 0 CFG=2
M  V30 9 N 1.477342 -0.340395 0.190323 0
M  V30 10 C 1.763220 0.583529 1.302981 0
M  V30 11 C 3.276906 0.887563 1.389498 0
M  V30 12 N 3.748343 1.533272 0.151971 0
M  V30 13 C 5.177035 1.916948 0.222185 0 CFG=2
M  V30 14 C 5.486911 2.872935 1.375985 0
M  V30 15 N 5.182671 4.150455 1.409833 0
M  V30 16 N 5.631967 4.617252 2.640773 0
M  V30 17 N 6.202145 3.585512 3.359202 0
M  V30 18 N 6.081662 2.513546 2.567459 0
M  V30 19 C 6.604960 1.222806 3.001486 0
M  V30 20 C 8.088843 1.086948 2.613747 0
M  V30 21 C 8.664392 -0.263967 3.009718 0
M  V30 22 C 9.232021 -0.437044 4.275164 0
M  V30 23 C 9.752039 -1.676458 4.639570 0
M  V30 24 C 9.702532 -2.737578 3.737812 0
M  V30 25 C 9.136713 -2.571443 2.475279 0
M  V30 26 C 8.615801 -1.332670 2.110330 0
M  V30 27 C 5.787121 2.455267 -1.091177 0
M  V30 28 C 7.082466 2.029264 -1.417240 0
M  V30 29 C 7.704671 2.449673 -2.590988 0
M  V30 30 C 7.041317 3.312691 -3.458092 0
M  V30 31 C 5.760665 3.760786 -3.144755 0
M  V30 32 C 5.129477 3.347673 -1.968959 0
M  V30 33 Cl 3.566174 4.015384 -1.635872 0
M  V30 34 C 3.464776 0.604196 -0.957205 0
M  V30 35 C 1.948848 0.311529 -1.043902 0
M  V30 36 C -0.319003 -1.614854 1.390949 0
M  V30 37 N 0.487376 -2.422199 2.045159 0
M  V30 38 N -0.293233 -3.028249 3.024542 0
M  V30 39 N -1.596891 -2.581790 2.936440 0
M  V30 40 N -1.592861 -1.729964 1.904886 0
M  V30 41 C -2.810040 -1.019849 1.529519 0
M  V30 42 C -2.886975 0.332178 2.263647 0
M  V30 43 C -4.096976 1.148787 1.837838 0
M  V30 44 C -5.328025 0.953730 2.469953 0
M  V30 45 C -6.437105 1.696923 2.074209 0
M  V30 46 C -6.311184 2.631702 1.048384 0
M  V30 47 C -5.086504 2.829960 0.413958 0
M  V30 48 C -3.977165 2.087046 0.808870 0
M  V30 49 H -1.975283 -0.641075 -4.081954 0
M  V30 50 H -1.632633 -3.057871 -4.424882 0
M  V30 51 H -0.531239 -4.412562 -2.672897 0
M  V30 52 H 0.238043 -3.359311 -0.598387 0
M  V30 53 H -0.537221 0.183222 0.321463 0
M  V30 54 H 1.199615 1.511300 1.183454 0
M  V30 55 H 1.444457 0.151185 2.251411 0
M  V30 56 H 3.441089 1.543271 2.244436 0
M  V30 57 H 3.836605 -0.029438 1.584008 0
M  V30 58 H 5.675283 0.960069 0.389625 0
M  V30 59 H 6.482388 1.149768 4.084043 0
M  V30 60 H 5.999919 0.434448 2.553650 0
M  V30 61 H 8.219114 1.225410 1.539336 0
M  V30 62 H 8.679180 1.874794 3.085606 0
M  V30 63 H 9.267965 0.384352 4.976207 0
M  V30 64 H 10.191139 -1.815005 5.616650 0
M  V30 65 H 10.105812 -3.698915 4.020815 0
M  V30 66 H 9.101094 -3.400526 1.784095 0
M  V30 67 H 8.173759 -1.206023 1.132547 0
M  V30 68 H 7.613404 1.354390 -0.762262 0
M  V30 69 H 8.700645 2.105550 -2.828150 0
M  V30 70 H 7.521665 3.640889 -4.368055 0
M  V30 71 H 5.259682 4.443714 -3.815390 0
M  V30 72 H 3.780282 1.026560 -1.910025 0
M  V30 73 H 4.025795 -0.324247 -0.831607 0
M  V30 74 H 1.395197 1.233205 -1.230764 0
M  V30 75 H 1.784601 -0.338593 -1.902915 0
M  V30 76 H -2.808930 -0.888643 0.446670 0
M  V30 77 H -3.668861 -1.645089 1.781955 0
M  V30 78 H -2.929736 0.175482 3.343072 0
M  V30 79 H -1.983932 0.919797 2.088128 0
M  V30 80 H -5.426602 0.227084 3.263622 0
M  V30 81 H -7.390565 1.548880 2.559537 0
M  V30 82 H -7.171673 3.207966 0.741510 0
M  V30 83 H -4.998163 3.556210 -0.380554 0
M  V30 84 H -3.028490 2.240541 0.315163 0
M  V30 END ATOM
M  V30 BEGIN BOND
M  V30 1 1 2 1
M  V30 2 2 3 2
M  V30 3 1 4 3
M  V30 4 2 5 4
M  V30 5 1 6 5
M  V30 6 2 7 6
M  V30 7 1 7 2
M  V30 8 1 8 7
M  V30 9 1 9 8
M  V30 10 1 10 9
M  V30 11 1 11 10
M  V30 12 1 12 11
M  V30 13 1 13 12
M  V30 14 1 14 13
M  V30 15 2 15 14
M  V30 16 1 16 15
M  V30 17 2 17 16
M  V30 18 1 18 17
M  V30 19 1 18 14
M  V30 20 1 19 18
M  V30 21 1 20 19
M  V30 22 1 21 20
M  V30 23 2 22 21
M  V30 24 1 23 22
M  V30 25 2 24 23
M  V30 26 1 25 24
M  V30 27 2 26 25
M  V30 28 1 26 21
M  V30 29 1 27 13
M  V30 30 2 28 27
M  V30 31 1 29 28
M  V30 32 2 30 29
M  V30 33 1 31 30
M  V30 34 2 32 31
M  V30 35 1 32 27
M  V30 36 1 33 32
M  V30 37 1 34 12
M  V30 38 1 35 34
M  V30 39 1 35 9
M  V30 40 1 36 8
M  V30 41 2 37 36
M  V30 42 1 38 37
M  V30 43 2 39 38
M  V30 44 1 40 39
M  V30 45 1 40 36
M  V30 46 1 41 40
M  V30 47 1 42 41
M  V30 48 1 43 42
M  V30 49 2 44 43
M  V30 50 1 45 44
M  V30 51 2 46 45
M  V30 52 1 47 46
M  V30 53 2 48 47
M  V30 54 1 48 43
M  V30 55 1 49 3
M  V30 56 1 50 4
M  V30 57 1 51 5
M  V30 58 1 52 6
M  V30 59 1 8 53 CFG=1
M  V30 60 1 54 10
M  V30 61 1 55 10
M  V30 62 1 56 11
M  V30 63 1 57 11
M  V30 64 1 13 58 CFG=1
M  V30 65 1 59 19
M  V30 66 1 60 19
M  V30 67 1 61 20
M  V30 68 1 62 20
M  V30 69 1 63 22
M  V30 70 1 64 23
M  V30 71 1 65 24
M  V30 72 1 66 25
M  V30 73 1 67 26
M  V30 74 1 68 28
M  V30 75 1 69 29
M  V30 76 1 70 30
M  V30 77 1 71 31
M  V30 78 1 72 34
M  V30 79 1 73 34
M  V30 80 1 74 35
M  V30 81 1 75 35
M  V30 82 1 76 41
M  V30 83 1 77 41
M  V30 84 1 78 42
M  V30 85 1 79 42
M  V30 86 1 80 44
M  V30 87 1 81 45
M  V30 88 1 82 46
M  V30 89 1 83 47
M  V30 90 1 84 48
M  V30 END BOND
M  V30 END CTAB
M  END
>  <i_epik_Tot_Q>  (17) 
0

>  <i_epik_Tot_abs_Q>  (17) 
0

>  <i_f3d_flags>  (17) 
0

>  <i_lp_mmshare_version>  (17) 
71160

>  <i_lp_orig_ion_str>  (17) 
1

>  <i_m_source_file_index>  (17) 
14

>  <b_lp_Chiralities_Consistent>  (17) 
1

>  <r_epik_Charging_Adjusted_Penalty>  (17) 
0

>  <r_epik_Ionization_Penalty>  (17) 
0.001144116480222212

>  <r_epik_Ionization_Penalty_Charging>  (17) 
0

>  <r_epik_Ionization_Penalty_Neutral>  (17) 
0.001144116480222212

>  <r_epik_State_Penalty>  (17) 
-0

>  <r_lp_Energy>  (17) 
79.506700999999993

>  <r_lp_tautomer_probability>  (17) 
1

>  <s_epik_cmdline>  (17) 
J2VwaWtfcHl0aG9uJywgJy1waHQnLCAnMC4yJywgJy1waCcsICc3LjQnLCAnLXJldGFpbl9pX2xhYicsICctcmV0YWluX3RfbGFiJywgJy10bicsICcxJywgJy1tYScsICc1MDAnLCAnLWltYWUnLCAnPGluZmlsZS5tYWU+JywgJy1vbWFlJywgJzxvdXRmaWxlLm1hZT4n

>  <s_epik_input>  (17) 
W2NIXTFbY0hdW2NIXVtjSF1bY0hdYzFbQ0gyXVtDSDJdbjJubm5jMltDQEhdKGMzW2NIXVtjSF1bY0hdW2NIXWMzQ2wpTjRbQ0gyXVtDSDJdTihbQ0gyXVtDSDJdNClbQ0BASF0oYzVbY0hdW2NIXVtjSF1bY0hdYzVDbCljNm5ubm42W0NIMl1bQ0gyXWM3W2NIXVtjSF1bY0hdW2NIXVtjSF03

>  <s_lp_Force_Field>  (17) 
S-OPLS

>  <s_lp_Variant>  (17) 
RR13_Rahimova_2017-1

>  <s_lp_label>  (17) 
14

>  <s_m_source_file>  (17) 
montpellier_ligands.smi

$$$$
RR14_Rahimova_2017
     RDKit          3D

  0  0  0  0  0  0  0  0  0  0999 V3000
M  V30 BEGIN CTAB
M  V30 COUNTS 76 80 0 0 1
M  V30 BEGIN ATOM
M  V30 1 C -3.932453 4.272720 -3.591551 0
M  V30 2 C -3.021119 3.237322 -4.238015 0
M  V30 3 C -2.031272 2.570212 -3.500099 0
M  V30 4 N -1.839092 2.836686 -2.128281 0
M  V30 5 C -0.927126 2.267387 -1.300690 0
M  V30 6 C -0.076733 1.258712 -1.943194 0
M  V30 7 C 1.002633 0.603894 -1.084634 0
M  V30 8 N 0.717306 -0.759907 -0.616869 0
M  V30 9 C 1.964950 -1.430050 -0.216089 0
M  V30 10 C 2.822683 -1.824643 -1.409796 0
M  V30 11 N 2.446622 -2.625851 -2.378645 0
M  V30 12 N 3.523100 -2.684506 -3.258715 0
M  V30 13 N 4.560329 -1.899720 -2.793948 0
M  V30 14 N 4.108028 -1.384514 -1.644558 0
M  V30 15 C 4.938845 -0.464342 -0.870158 0
M  V30 16 C 4.488227 0.987809 -0.974140 0
M  V30 17 C 4.452554 1.623587 -2.217261 0
M  V30 18 C 3.983707 2.930123 -2.317087 0
M  V30 19 C 3.551493 3.617790 -1.182515 0
M  V30 20 O 3.078752 4.900524 -1.382661 0
M  V30 21 C 2.561523 5.629645 -0.274864 0
M  V30 22 C 3.615384 2.984402 0.068909 0
M  V30 23 C 4.084542 1.677656 0.170672 0
M  V30 24 C -0.267488 -0.734066 0.473270 0
M  V30 25 C -0.820962 -2.129651 0.831566 0
M  V30 26 C -2.118311 -2.086129 1.667173 0
M  V30 27 N -2.840531 -3.362033 1.683861 0
M  V30 28 C -4.156006 -3.195360 2.315881 0
M  V30 29 C -4.923310 -4.532199 2.397223 0
M  V30 30 O -4.128417 -5.512791 3.054702 0
M  V30 31 C -2.900832 -5.755763 2.376792 0
M  V30 32 C -2.071588 -4.456083 2.296675 0
M  V30 33 C -0.193980 0.969491 -3.262001 0
M  V30 34 O -0.857918 2.607009 -0.120276 0
M  V30 35 C -1.204437 1.617860 -4.123494 0
M  V30 36 C -1.365667 1.327125 -5.487632 0
M  V30 37 C -0.492993 0.298491 -6.193875 0
M  V30 38 C -2.354806 1.997362 -6.213135 0
M  V30 39 C -3.173230 2.942107 -5.595758 0
M  V30 40 H -4.651111 4.691812 -4.297333 0
M  V30 41 H -3.340712 5.091197 -3.179759 0
M  V30 42 H -4.487991 3.823510 -2.767604 0
M  V30 43 H -2.428260 3.528063 -1.689547 0
M  V30 44 H 1.877087 0.575066 -1.733710 0
M  V30 45 H 1.304927 1.246442 -0.255756 0
M  V30 46 H 2.509431 -0.803380 0.491853 0
M  V30 47 H 1.735915 -2.345538 0.327728 0
M  V30 48 H 4.934765 -0.806009 0.166002 0
M  V30 49 H 5.974679 -0.539905 -1.207982 0
M  V30 50 H 4.766420 1.099966 -3.108688 0
M  V30 51 H 3.943604 3.408315 -3.285005 0
M  V30 52 H 2.213817 6.604483 -0.616312 0
M  V30 53 H 3.326107 5.799996 0.484329 0
M  V30 54 H 1.712219 5.116593 0.179524 0
M  V30 55 H 3.294713 3.484940 0.969752 0
M  V30 56 H 4.109694 1.197592 1.138251 0
M  V30 57 H 0.183611 -0.277338 1.356576 0
M  V30 58 H -1.109699 -0.091662 0.217147 0
M  V30 59 H -0.837001 -2.836698 -0.000031 0
M  V30 60 H -0.084140 -2.549979 1.517036 0
M  V30 61 H -1.881287 -1.794742 2.692504 0
M  V30 62 H -2.763027 -1.294221 1.281856 0
M  V30 63 H -4.033728 -2.777928 3.317140 0
M  V30 64 H -4.738987 -2.464464 1.753587 0
M  V30 65 H -5.846273 -4.396590 2.961096 0
M  V30 66 H -5.214404 -4.878434 1.403628 0
M  V30 67 H -2.345276 -6.518447 2.922630 0
M  V30 68 H -3.088293 -6.162025 1.380900 0
M  V30 69 H -1.749818 -4.160338 3.296828 0
M  V30 70 H -1.159489 -4.636914 1.727536 0
M  V30 71 H 0.478272 0.236880 -3.685476 0
M  V30 72 H -0.783621 0.153467 -7.235048 0
M  V30 73 H -0.563423 -0.666315 -5.690383 0
M  V30 74 H 0.552464 0.607397 -6.168237 0
M  V30 75 H -2.495244 1.788094 -7.263771 0
M  V30 76 H -3.929599 3.444462 -6.181506 0
M  V30 END ATOM
M  V30 BEGIN BOND
M  V30 1 1 2 1
M  V30 2 2 3 2
M  V30 3 1 4 3
M  V30 4 1 5 4
M  V30 5 1 6 5
M  V30 6 1 7 6
M  V30 7 1 8 7
M  V30 8 1 9 8
M  V30 9 1 10 9
M  V30 10 2 11 10
M  V30 11 1 12 11
M  V30 12 2 13 12
M  V30 13 1 14 13
M  V30 14 1 14 10
M  V30 15 1 15 14
M  V30 16 1 16 15
M  V30 17 2 17 16
M  V30 18 1 18 17
M  V30 19 2 19 18
M  V30 20 1 20 19
M  V30 21 1 21 20
M  V30 22 1 22 19
M  V30 23 2 23 22
M  V30 24 1 23 16
M  V30 25 1 24 8
M  V30 26 1 25 24
M  V30 27 1 26 25
M  V30 28 1 27 26
M  V30 29 1 28 27
M  V30 30 1 29 28
M  V30 31 1 30 29
M  V30 32 1 31 30
M  V30 33 1 32 31
M  V30 34 1 32 27
M  V30 35 2 33 6
M  V30 36 2 34 5
M  V30 37 1 35 3
M  V30 38 1 35 33
M  V30 39 2 36 35
M  V30 40 1 37 36
M  V30 41 1 38 36
M  V30 42 2 39 38
M  V30 43 1 39 2
M  V30 44 1 40 1
M  V30 45 1 41 1
M  V30 46 1 42 1
M  V30 47 1 43 4
M  V30 48 1 44 7
M  V30 49 1 45 7
M  V30 50 1 46 9
M  V30 51 1 47 9
M  V30 52 1 48 15
M  V30 53 1 49 15
M  V30 54 1 50 17
M  V30 55 1 51 18
M  V30 56 1 52 21
M  V30 57 1 53 21
M  V30 58 1 54 21
M  V30 59 1 55 22
M  V30 60 1 56 23
M  V30 61 1 57 24
M  V30 62 1 58 24
M  V30 63 1 59 25
M  V30 64 1 60 25
M  V30 65 1 61 26
M  V30 66 1 62 26
M  V30 67 1 63 28
M  V30 68 1 64 28
M  V30 69 1 65 29
M  V30 70 1 66 29
M  V30 71 1 67 31
M  V30 72 1 68 31
M  V30 73 1 69 32
M  V30 74 1 70 32
M  V30 75 1 71 33
M  V30 76 1 72 37
M  V30 77 1 73 37
M  V30 78 1 74 37
M  V30 79 1 75 38
M  V30 80 1 76 39
M  V30 END BOND
M  V30 END CTAB
M  END
>  <i_epik_Tot_Q>  (18) 
0

>  <i_epik_Tot_abs_Q>  (18) 
0

>  <i_f3d_flags>  (18) 
0

>  <i_lp_mmshare_version>  (18) 
71160

>  <i_lp_orig_ion_str>  (18) 
1

>  <i_m_source_file_index>  (18) 
15

>  <b_lp_Chiralities_Consistent>  (18) 
1

>  <r_epik_Charging_Adjusted_Penalty>  (18) 
0.38500358667313128

>  <r_epik_Ionization_Penalty>  (18) 
0.42970271658041304

>  <r_epik_Ionization_Penalty_Charging>  (18) 
3.9787309903080225e-05

>  <r_epik_Ionization_Penalty_Neutral>  (18) 
0.42966292927050997

>  <r_epik_State_Penalty>  (18) 
0.38496379936322822

>  <r_lp_Energy>  (18) 
34.474818999999997

>  <r_lp_tautomer_probability>  (18) 
1

>  <s_epik_cmdline>  (18) 
J2VwaWtfcHl0aG9uJywgJy1waHQnLCAnMC4yJywgJy1waCcsICc3LjQnLCAnLXJldGFpbl9pX2xhYicsICctcmV0YWluX3RfbGFiJywgJy10bicsICcxJywgJy1tYScsICc1MDAnLCAnLWltYWUnLCAnPGluZmlsZS5tYWU+JywgJy1vbWFlJywgJzxvdXRmaWxlLm1hZT4n

>  <s_epik_input>  (18) 
W0NIM11jMVtjSF1bY0hdYyhbQ0gzXSljKGMxMilbY0hdYyhjKD1PKVtuSF0yKVtDSDJdTihbQ0gyXVtDSDJdW0NIMl1OM1tDSDJdW0NIMl1PW0NIMl1bQ0gyXTMpW0NIMl1jNG5ubm40W0NIMl1jNVtjSF1bY0hdYyhPW0NIM10pW2NIXVtjSF01

>  <s_lp_Force_Field>  (18) 
S-OPLS

>  <s_lp_Variant>  (18) 
RR14_Rahimova_2017-1

>  <s_lp_label>  (18) 
15

>  <s_m_source_file>  (18) 
montpellier_ligands.smi

$$$$
RR15_Rahimova_2017
     RDKit          3D

  0  0  0  0  0  0  0  0  0  0999 V3000
M  V30 BEGIN CTAB
M  V30 COUNTS 85 89 0 0 1
M  V30 BEGIN ATOM
M  V30 1 F -2.605052 -3.713808 5.667884 0
M  V30 2 C -2.331909 -3.251780 4.426875 0
M  V30 3 C -2.118702 -4.151296 3.386100 0
M  V30 4 C -1.836821 -3.674864 2.109025 0
M  V30 5 C -1.766659 -2.298914 1.860402 0
M  V30 6 C -1.454535 -1.841146 0.440157 0 CFG=2
M  V30 7 N 0.021870 -1.741656 0.229906 0
M  V30 8 C 0.623583 -2.887772 -0.480057 0
M  V30 9 C 0.748933 -2.674138 -2.004155 0
M  V30 10 C -0.523552 -3.015729 -2.813588 0
M  V30 11 N -0.564342 -2.394369 -4.140650 0
M  V30 12 C 0.564824 -2.775249 -5.002812 0
M  V30 13 C 0.429799 -2.163287 -6.414229 0
M  V30 14 O -0.826131 -2.515046 -6.983919 0
M  V30 15 C -1.923828 -2.056474 -6.202876 0
M  V30 16 C -1.855193 -2.667964 -4.787077 0
M  V30 17 C 0.799478 -0.767504 0.796192 0
M  V30 18 C 2.329797 -0.774166 0.559483 0
M  V30 19 N 2.996204 0.499983 0.823973 0
M  V30 20 N 3.476995 0.824293 2.030339 0
M  V30 21 C 3.817460 2.086892 1.852130 0
M  V30 22 C 4.450770 2.926033 2.926613 0
M  V30 23 C 4.609814 4.307993 2.759641 0
M  V30 24 C 5.203329 5.105210 3.754261 0
M  V30 25 O 5.379446 6.473377 3.637043 0
M  V30 26 C 4.934512 7.140978 2.460901 0
M  V30 27 C 5.650577 4.505189 4.940133 0
M  V30 28 O 6.232595 5.332208 5.885180 0
M  V30 29 C 6.711157 4.775234 7.104761 0
M  V30 30 C 5.490720 3.120711 5.110745 0
M  V30 31 C 4.897945 2.345369 4.118117 0
M  V30 32 N 3.543584 2.552526 0.640577 0
M  V30 33 N 2.968111 1.507136 -0.049680 0
M  V30 34 O 0.317616 0.143209 1.473893 0
M  V30 35 C -2.259875 -0.625240 -0.116246 0
M  V30 36 N -1.845430 -0.146411 -1.302055 0
M  V30 37 C -2.375185 1.040091 -1.965157 0
M  V30 38 C -2.196298 0.950893 -3.492004 0 CFG=1
M  V30 39 O -3.017868 1.985353 -4.050978 0
M  V30 40 C -2.314235 2.711854 -5.051746 0
M  V30 41 C -0.887270 2.687858 -4.532436 0
M  V30 42 C -0.783508 1.275185 -4.010626 0
M  V30 43 O -3.187148 -0.130148 0.525423 0
M  V30 44 C -1.984343 -1.404884 2.920507 0
M  V30 45 C -2.265009 -1.880057 4.198725 0
M  V30 46 H -2.172008 -5.214632 3.567891 0
M  V30 47 H -1.674410 -4.382284 1.308932 0
M  V30 48 H -1.808183 -2.644314 -0.205719 0
M  V30 49 H 1.606768 -3.122365 -0.070701 0
M  V30 50 H 0.030397 -3.785320 -0.300466 0
M  V30 51 H 1.166853 -1.701163 -2.267902 0
M  V30 52 H 1.501443 -3.394998 -2.326509 0
M  V30 53 H -0.591883 -4.099465 -2.927122 0
M  V30 54 H -1.410209 -2.727930 -2.251763 0
M  V30 55 H 1.504674 -2.454807 -4.553069 0
M  V30 56 H 0.619629 -3.863011 -5.073707 0
M  V30 57 H 0.544600 -1.078127 -6.384027 0
M  V30 58 H 1.222876 -2.540764 -7.060035 0
M  V30 59 H -1.936323 -0.965839 -6.162498 0
M  V30 60 H -2.849736 -2.358236 -6.692835 0
M  V30 61 H -2.663999 -2.273587 -4.170769 0
M  V30 62 H -2.019881 -3.745808 -4.840769 0
M  V30 63 H 2.776160 -1.528484 1.209305 0
M  V30 64 H 2.559215 -1.045230 -0.471126 0
M  V30 65 H 4.262785 4.760105 1.843041 0
M  V30 66 H 5.147591 8.206045 2.550064 0
M  V30 67 H 3.857901 7.031311 2.321327 0
M  V30 68 H 5.451449 6.774565 1.572613 0
M  V30 69 H 7.137538 5.568268 7.718944 0
M  V30 70 H 7.495582 4.037952 6.927171 0
M  V30 71 H 5.905361 4.312486 7.676391 0
M  V30 72 H 5.821961 2.624652 6.010299 0
M  V30 73 H 4.793515 1.282891 4.284223 0
M  V30 74 H -1.057988 -0.591487 -1.751568 0
M  V30 75 H -3.428104 1.198356 -1.720971 0
M  V30 76 H -1.829385 1.901097 -1.575556 0
M  V30 77 H -2.609786 0.033315 -3.910286 0
M  V30 78 H -2.428151 2.219943 -6.019548 0
M  V30 79 H -2.713026 3.721314 -5.155821 0
M  V30 80 H -0.152579 2.909170 -5.307253 0
M  V30 81 H -0.760156 3.409995 -3.724065 0
M  V30 82 H -0.543779 0.620698 -4.850111 0
M  V30 83 H -0.002553 1.155615 -3.258374 0
M  V30 84 H -1.929447 -0.337810 2.764902 0
M  V30 85 H -2.429149 -1.186084 5.009889 0
M  V30 END ATOM
M  V30 BEGIN BOND
M  V30 1 1 2 1
M  V30 2 2 3 2
M  V30 3 1 4 3
M  V30 4 2 5 4
M  V30 5 1 6 5
M  V30 6 1 7 6
M  V30 7 1 8 7
M  V30 8 1 9 8
M  V30 9 1 10 9
M  V30 10 1 11 10
M  V30 11 1 12 11
M  V30 12 1 13 12
M  V30 13 1 14 13
M  V30 14 1 15 14
M  V30 15 1 16 15
M  V30 16 1 16 11
M  V30 17 1 17 7
M  V30 18 1 18 17
M  V30 19 1 19 18
M  V30 20 1 20 19
M  V30 21 2 21 20
M  V30 22 1 22 21
M  V30 23 2 23 22
M  V30 24 1 24 23
M  V30 25 1 25 24
M  V30 26 1 26 25
M  V30 27 2 27 24
M  V30 28 1 28 27
M  V30 29 1 29 28
M  V30 30 1 30 27
M  V30 31 2 31 30
M  V30 32 1 31 22
M  V30 33 1 32 21
M  V30 34 2 33 32
M  V30 35 1 33 19
M  V30 36 2 34 17
M  V30 37 1 35 6
M  V30 38 1 36 35
M  V30 39 1 37 36
M  V30 40 1 38 37
M  V30 41 1 39 38
M  V30 42 1 40 39
M  V30 43 1 41 40
M  V30 44 1 42 41
M  V30 45 1 42 38
M  V30 46 2 43 35
M  V30 47 1 44 5
M  V30 48 2 45 44
M  V30 49 1 45 2
M  V30 50 1 46 3
M  V30 51 1 47 4
M  V30 52 1 6 48 CFG=3
M  V30 53 1 49 8
M  V30 54 1 50 8
M  V30 55 1 51 9
M  V30 56 1 52 9
M  V30 57 1 53 10
M  V30 58 1 54 10
M  V30 59 1 55 12
M  V30 60 1 56 12
M  V30 61 1 57 13
M  V30 62 1 58 13
M  V30 63 1 59 15
M  V30 64 1 60 15
M  V30 65 1 61 16
M  V30 66 1 62 16
M  V30 67 1 63 18
M  V30 68 1 64 18
M  V30 69 1 65 23
M  V30 70 1 66 26
M  V30 71 1 67 26
M  V30 72 1 68 26
M  V30 73 1 69 29
M  V30 74 1 70 29
M  V30 75 1 71 29
M  V30 76 1 72 30
M  V30 77 1 73 31
M  V30 78 1 74 36
M  V30 79 1 75 37
M  V30 80 1 76 37
M  V30 81 1 38 77 CFG=3
M  V30 82 1 78 40
M  V30 83 1 79 40
M  V30 84 1 80 41
M  V30 85 1 81 41
M  V30 86 1 82 42
M  V30 87 1 83 42
M  V30 88 1 84 44
M  V30 89 1 85 45
M  V30 END BOND
M  V30 END CTAB
M  END
>  <i_epik_Tot_Q>  (19) 
0

>  <i_epik_Tot_abs_Q>  (19) 
0

>  <i_f3d_flags>  (19) 
0

>  <i_lp_mmshare_version>  (19) 
71160

>  <i_lp_orig_ion_str>  (19) 
1

>  <i_m_source_file_index>  (19) 
16

>  <b_lp_Chiralities_Consistent>  (19) 
1

>  <r_epik_Charging_Adjusted_Penalty>  (19) 
0.19939164078032337

>  <r_epik_Ionization_Penalty>  (19) 
0.19939204034424418

>  <r_epik_Ionization_Penalty_Charging>  (19) 
0

>  <r_epik_Ionization_Penalty_Neutral>  (19) 
0.19939204034424418

>  <r_epik_State_Penalty>  (19) 
0.19939164078032337

>  <r_lp_Energy>  (19) 
52.259155

>  <r_lp_tautomer_probability>  (19) 
1

>  <s_epik_cmdline>  (19) 
J2VwaWtfcHl0aG9uJywgJy1waHQnLCAnMC4yJywgJy1waCcsICc3LjQnLCAnLXJldGFpbl9pX2xhYicsICctcmV0YWluX3RfbGFiJywgJy10bicsICcxJywgJy1tYScsICc1MDAnLCAnLWltYWUnLCAnPGluZmlsZS5tYWU+JywgJy1vbWFlJywgJzxvdXRmaWxlLm1hZT4n

>  <s_epik_input>  (19) 
W0NIMl0xW0NIMl1PW0NIMl1bQ0gyXU4xW0NIMl1bQ0gyXVtDSDJdTihbQ0BASF0oYyhbY0hdW2NIXTIpW2NIXVtjSF1jMkYpQyg9TylbTkhdW0NIMl1bQ0BIXTNPW0NIMl1bQ0gyXVtDSDJdMylDKD1PKVtDSDJdbjRuYyhubjQpLWM1W2NIXWMoT1tDSDNdKWMoT1tDSDNdKVtjSF1bY0hdNQ==

>  <s_lp_Force_Field>  (19) 
S-OPLS

>  <s_lp_Variant>  (19) 
RR15_Rahimova_2017-1

>  <s_lp_label>  (19) 
16

>  <s_m_source_file>  (19) 
montpellier_ligands.smi

$$$$
RR16_Rahimova_2017
     RDKit          3D

  0  0  0  0  0  0  0  0  0  0999 V3000
M  V30 BEGIN CTAB
M  V30 COUNTS 80 85 0 0 1
M  V30 BEGIN ATOM
M  V30 1 Cl -3.156063 1.126388 -5.036218 0
M  V30 2 C -4.828135 0.859555 -4.701656 0
M  V30 3 C -5.803345 1.587339 -5.385117 0
M  V30 4 C -7.153996 1.375673 -5.107282 0
M  V30 5 C -7.530691 0.437405 -4.145768 0
M  V30 6 C -6.557924 -0.296868 -3.459162 0
M  V30 7 C -6.970875 -1.302796 -2.394038 0
M  V30 8 N -7.246834 -0.678105 -1.107088 0
M  V30 9 N -8.514663 -0.400560 -0.745988 0
M  V30 10 N -8.489358 0.260956 0.461508 0
M  V30 11 C -7.180168 0.424127 0.813134 0
M  V30 12 C -6.357734 -0.162606 -0.178056 0
M  V30 13 C -4.961982 -0.137703 -0.095089 0
M  V30 14 C -4.394303 0.502333 1.016050 0
M  V30 15 C -2.870429 0.567258 1.146049 0
M  V30 16 C -2.233264 -0.824959 1.381606 0
M  V30 17 C -0.695158 -0.743924 1.462722 0
M  V30 18 N -0.146685 -0.049571 0.269101 0
M  V30 19 S 1.610298 -0.201499 0.072673 0
M  V30 20 C 2.286200 0.758871 1.426184 0
M  V30 21 C 2.588831 2.109195 1.237451 0
M  V30 22 C 3.010217 2.880619 2.315873 0
M  V30 23 C 3.124535 2.298198 3.580163 0
M  V30 24 S 3.512027 3.304771 5.006598 0
M  V30 25 N 1.983386 3.438654 5.877801 0
M  V30 26 C 0.839472 4.180951 5.297704 0
M  V30 27 C -0.073589 3.190389 4.530045 0
M  V30 28 C -1.403051 3.738092 3.975019 0
M  V30 29 C -2.453003 4.043969 5.056760 0
M  V30 30 C -2.337413 5.423164 5.733268 0
M  V30 31 C -0.918087 5.984864 5.948595 0
M  V30 32 C 0.153806 4.986311 6.426649 0
M  V30 33 O 4.429555 2.523328 5.842998 0
M  V30 34 O 3.883310 4.641989 4.528929 0
M  V30 35 C 2.859195 0.939714 3.760870 0
M  V30 36 C 2.441823 0.167801 2.681528 0
M  V30 37 O 1.980142 -1.603531 0.301798 0
M  V30 38 O 1.990261 0.470861 -1.175719 0
M  V30 39 C -0.661560 1.333240 0.094398 0
M  V30 40 C -2.198954 1.329510 -0.026193 0
M  V30 41 C -5.202186 1.079426 2.005521 0
M  V30 42 C -6.594996 1.049556 1.924437 0
M  V30 43 O -7.369168 1.622925 2.900016 0
M  V30 44 C -5.204789 -0.082506 -3.743415 0
M  V30 45 H -5.516089 2.317075 -6.128158 0
M  V30 46 H -7.908449 1.941590 -5.633730 0
M  V30 47 H -8.578754 0.285519 -3.931122 0
M  V30 48 H -7.847498 -1.864601 -2.723165 0
M  V30 49 H -6.181555 -2.042074 -2.247700 0
M  V30 50 H -4.343842 -0.590551 -0.855704 0
M  V30 51 H -2.678202 1.152524 2.047025 0
M  V30 52 H -2.590371 -1.241742 2.324330 0
M  V30 53 H -2.508173 -1.519295 0.586016 0
M  V30 54 H -0.481217 -0.141433 2.347089 0
M  V30 55 H -0.284739 -1.751602 1.534685 0
M  V30 56 H 2.465083 2.572293 0.269411 0
M  V30 57 H 3.206431 3.932700 2.170103 0
M  V30 58 H 1.755176 2.688985 6.536147 0
M  V30 59 H 1.259185 4.884373 4.577219 0
M  V30 60 H 0.472131 2.851452 3.650697 0
M  V30 61 H -0.260540 2.296600 5.128236 0
M  V30 62 H -1.226585 4.615270 3.350713 0
M  V30 63 H -1.819087 2.985393 3.304709 0
M  V30 64 H -3.448823 3.963325 4.618409 0
M  V30 65 H -2.417373 3.263564 5.818598 0
M  V30 66 H -2.900381 6.151125 5.146890 0
M  V30 67 H -2.850546 5.374802 6.694827 0
M  V30 68 H -0.574023 6.463382 5.030457 0
M  V30 69 H -0.989581 6.795122 6.675536 0
M  V30 70 H 0.917435 5.549610 6.966180 0
M  V30 71 H -0.294127 4.308095 7.154960 0
M  V30 72 H 2.941309 0.490731 4.739940 0
M  V30 73 H 2.204146 -0.875275 2.831808 0
M  V30 74 H -0.442511 1.904542 0.998102 0
M  V30 75 H -0.230258 1.784706 -0.799432 0
M  V30 76 H -2.530229 2.368994 -0.030568 0
M  V30 77 H -2.471415 0.890520 -0.987263 0
M  V30 78 H -4.742815 1.564446 2.854876 0
M  V30 79 H -6.854877 2.017855 3.607662 0
M  V30 80 H -4.443538 -0.640773 -3.218006 0
M  V30 END ATOM
M  V30 BEGIN BOND
M  V30 1 1 2 1
M  V30 2 2 3 2
M  V30 3 1 4 3
M  V30 4 2 5 4
M  V30 5 1 6 5
M  V30 6 1 7 6
M  V30 7 1 8 7
M  V30 8 1 9 8
M  V30 9 2 10 9
M  V30 10 1 11 10
M  V30 11 2 12 11
M  V30 12 1 12 8
M  V30 13 1 13 12
M  V30 14 2 14 13
M  V30 15 1 15 14
M  V30 16 1 16 15
M  V30 17 1 17 16
M  V30 18 1 18 17
M  V30 19 1 19 18
M  V30 20 1 20 19
M  V30 21 2 21 20
M  V30 22 1 22 21
M  V30 23 2 23 22
M  V30 24 1 24 23
M  V30 25 1 25 24
M  V30 26 1 26 25
M  V30 27 1 27 26
M  V30 28 1 28 27
M  V30 29 1 29 28
M  V30 30 1 30 29
M  V30 31 1 31 30
M  V30 32 1 32 31
M  V30 33 1 32 26
M  V30 34 2 33 24
M  V30 35 2 34 24
M  V30 36 1 35 23
M  V30 37 2 36 35
M  V30 38 1 36 20
M  V30 39 2 37 19
M  V30 40 2 38 19
M  V30 41 1 39 18
M  V30 42 1 40 39
M  V30 43 1 40 15
M  V30 44 1 41 14
M  V30 45 2 42 41
M  V30 46 1 42 11
M  V30 47 1 43 42
M  V30 48 2 44 6
M  V30 49 1 44 2
M  V30 50 1 45 3
M  V30 51 1 46 4
M  V30 52 1 47 5
M  V30 53 1 48 7
M  V30 54 1 49 7
M  V30 55 1 50 13
M  V30 56 1 51 15
M  V30 57 1 52 16
M  V30 58 1 53 16
M  V30 59 1 54 17
M  V30 60 1 55 17
M  V30 61 1 56 21
M  V30 62 1 57 22
M  V30 63 1 58 25
M  V30 64 1 59 26
M  V30 65 1 60 27
M  V30 66 1 61 27
M  V30 67 1 62 28
M  V30 68 1 63 28
M  V30 69 1 64 29
M  V30 70 1 65 29
M  V30 71 1 66 30
M  V30 72 1 67 30
M  V30 73 1 68 31
M  V30 74 1 69 31
M  V30 75 1 70 32
M  V30 76 1 71 32
M  V30 77 1 72 35
M  V30 78 1 73 36
M  V30 79 1 74 39
M  V30 80 1 75 39
M  V30 81 1 76 40
M  V30 82 1 77 40
M  V30 83 1 78 41
M  V30 84 1 79 43
M  V30 85 1 80 44
M  V30 END BOND
M  V30 END CTAB
M  END
>  <i_epik_Tot_Q>  (20) 
0

>  <i_epik_Tot_abs_Q>  (20) 
0

>  <i_f3d_flags>  (20) 
0

>  <i_lp_mmshare_version>  (20) 
71160

>  <i_lp_orig_ion_str>  (20) 
1

>  <i_m_source_file_index>  (20) 
17

>  <b_lp_Chiralities_Consistent>  (20) 
1

>  <r_epik_Charging_Adjusted_Penalty>  (20) 
0.28110849279702793

>  <r_epik_Ionization_Penalty>  (20) 
0.28141757501285514

>  <r_epik_Ionization_Penalty_Charging>  (20) 
0

>  <r_epik_Ionization_Penalty_Neutral>  (20) 
0.28141757501285514

>  <r_epik_State_Penalty>  (20) 
0.28110849279702793

>  <r_lp_Energy>  (20) 
40.470272999999999

>  <s_epik_cmdline>  (20) 
J2VwaWtfcHl0aG9uJywgJy1waHQnLCAnMC4yJywgJy1waCcsICc3LjQnLCAnLXJldGFpbl9pX2xhYicsICctcmV0YWluX3RfbGFiJywgJy10bicsICcxJywgJy1tYScsICc1MDAnLCAnLWltYWUnLCAnPGluZmlsZS5tYWU+JywgJy1vbWFlJywgJzxvdXRmaWxlLm1hZT4n

>  <s_epik_input>  (20) 
Q2xjMVtjSF1bY0hdW2NIXWMoW2NIXTEpW0NIMl1uKG5uMiljKGMyMylbY0hdYyhbY0hdYzNbT0hdKVtDSF00W0NIMl1bQ0gyXU4oW0NIMl1bQ0gyXTQpUyg9TykoPU8pYzVbY0hdW2NIXWMoW2NIXVtjSF01KVMoPU8pKD1PKVtOSF1bQ0hdNltDSDJdW0NIMl1bQ0gyXVtDSDJdW0NIMl1bQ0gyXTY=

>  <s_lp_Force_Field>  (20) 
S-OPLS

>  <s_lp_Variant>  (20) 
RR16_Rahimova_2017-1

>  <s_lp_label>  (20) 
17

>  <s_m_source_file>  (20) 
montpellier_ligands.smi

$$$$
RR17_Rahimova_2017
     RDKit          3D

  0  0  0  0  0  0  0  0  0  0999 V3000
M  V30 BEGIN CTAB
M  V30 COUNTS 63 66 0 0 1
M  V30 BEGIN ATOM
M  V30 1 C 1.561290 7.368867 0.297645 0
M  V30 2 O 1.289382 6.363078 -0.672220 0
M  V30 3 C 0.844848 5.124031 -0.252472 0
M  V30 4 C 0.615590 4.778779 1.090262 0
M  V30 5 C 0.167860 3.502756 1.420323 0
M  V30 6 C 0.617438 4.175504 -1.251918 0
M  V30 7 C 0.170107 2.897819 -0.928622 0
M  V30 8 C -0.051992 2.569182 0.407956 0
M  V30 9 N -0.506962 1.283746 0.739722 0
M  V30 10 C 0.233220 0.211299 1.193801 0
M  V30 11 S 1.985684 0.236490 1.444295 0
M  V30 12 C 2.244488 -1.476062 2.032843 0
M  V30 13 C 3.721818 -1.752775 2.387961 0
M  V30 14 C 4.057223 -3.129195 2.886467 0
M  V30 15 C 5.372519 -3.418603 3.273858 0
M  V30 16 C 5.710645 -4.686175 3.738401 0
M  V30 17 C 4.748880 -5.691173 3.825163 0
M  V30 18 O 5.177733 -6.916643 4.298510 0
M  V30 19 C 4.244348 -7.986747 4.414189 0
M  V30 20 C 4.966769 -9.212124 4.982212 0
M  V30 21 C 3.431093 -5.408768 3.436877 0
M  V30 22 C 3.089854 -4.140945 2.973394 0
M  V30 23 O 4.572615 -0.866133 2.273345 0
M  V30 24 N -0.550838 -0.819392 1.410472 0
M  V30 25 N -1.851453 -0.436108 1.103835 0
M  V30 26 C -1.803618 0.814109 0.717608 0
M  V30 27 C -3.014867 1.634742 0.300042 0
M  V30 28 N -3.306301 2.753777 1.192984 0
M  V30 29 C -3.745890 2.599594 2.519544 0
M  V30 30 C -3.903435 3.757471 3.282576 0
M  V30 31 C -4.330246 3.676192 4.605167 0
M  V30 32 C -4.610077 2.433127 5.179879 0
M  V30 33 C -5.071691 2.360742 6.634893 0
M  V30 34 F -5.001892 1.122155 7.126991 0
M  V30 35 F -4.319122 3.150999 7.402198 0
M  V30 36 F -6.337543 2.770700 6.712333 0
M  V30 37 C -4.461308 1.272173 4.414315 0
M  V30 38 C -4.034507 1.354481 3.091820 0
M  V30 39 H 1.906409 8.271076 -0.207108 0
M  V30 40 H 2.345998 7.056688 0.988526 0
M  V30 41 H 0.666811 7.630121 0.865093 0
M  V30 42 H 0.779069 5.485987 1.889052 0
M  V30 43 H -0.008224 3.244847 2.455012 0
M  V30 44 H 0.790847 4.431850 -2.287009 0
M  V30 45 H -0.000555 2.173001 -1.711775 0
M  V30 46 H 1.624087 -1.649228 2.912550 0
M  V30 47 H 1.924941 -2.167764 1.253024 0
M  V30 48 H 6.147628 -2.666837 3.221859 0
M  V30 49 H 6.729631 -4.889292 4.034207 0
M  V30 50 H 3.424196 -7.708369 5.078411 0
M  V30 51 H 3.822631 -8.230137 3.437467 0
M  V30 52 H 4.282297 -10.054117 5.088310 0
M  V30 53 H 5.387037 -8.998931 5.965545 0
M  V30 54 H 5.782327 -9.526139 4.330043 0
M  V30 55 H 2.657263 -6.159259 3.487595 0
M  V30 56 H 2.062966 -3.970166 2.685958 0
M  V30 57 H -2.833845 2.053135 -0.690434 0
M  V30 58 H -3.908476 1.016214 0.203615 0
M  V30 59 H -3.392340 3.669410 0.775722 0
M  V30 60 H -3.689892 4.727888 2.857390 0
M  V30 61 H -4.443403 4.582802 5.182014 0
M  V30 62 H -4.678979 0.301055 4.834362 0
M  V30 63 H -3.943267 0.441409 2.524859 0
M  V30 END ATOM
M  V30 BEGIN BOND
M  V30 1 1 2 1
M  V30 2 1 3 2
M  V30 3 1 4 3
M  V30 4 2 5 4
M  V30 5 2 6 3
M  V30 6 1 7 6
M  V30 7 2 8 7
M  V30 8 1 8 5
M  V30 9 1 9 8
M  V30 10 1 10 9
M  V30 11 1 11 10
M  V30 12 1 12 11
M  V30 13 1 13 12
M  V30 14 1 14 13
M  V30 15 2 15 14
M  V30 16 1 16 15
M  V30 17 2 17 16
M  V30 18 1 18 17
M  V30 19 1 19 18
M  V30 20 1 20 19
M  V30 21 1 21 17
M  V30 22 2 22 21
M  V30 23 1 22 14
M  V30 24 2 23 13
M  V30 25 2 24 10
M  V30 26 1 25 24
M  V30 27 2 26 25
M  V30 28 1 26 9
M  V30 29 1 27 26
M  V30 30 1 28 27
M  V30 31 1 29 28
M  V30 32 2 30 29
M  V30 33 1 31 30
M  V30 34 2 32 31
M  V30 35 1 33 32
M  V30 36 1 34 33
M  V30 37 1 35 33
M  V30 38 1 36 33
M  V30 39 1 37 32
M  V30 40 2 38 37
M  V30 41 1 38 29
M  V30 42 1 39 1
M  V30 43 1 40 1
M  V30 44 1 41 1
M  V30 45 1 42 4
M  V30 46 1 43 5
M  V30 47 1 44 6
M  V30 48 1 45 7
M  V30 49 1 46 12
M  V30 50 1 47 12
M  V30 51 1 48 15
M  V30 52 1 49 16
M  V30 53 1 50 19
M  V30 54 1 51 19
M  V30 55 1 52 20
M  V30 56 1 53 20
M  V30 57 1 54 20
M  V30 58 1 55 21
M  V30 59 1 56 22
M  V30 60 1 57 27
M  V30 61 1 58 27
M  V30 62 1 59 28
M  V30 63 1 60 30
M  V30 64 1 61 31
M  V30 65 1 62 37
M  V30 66 1 63 38
M  V30 END BOND
M  V30 END CTAB
M  END
>  <i_epik_Tot_Q>  (21) 
0

>  <i_epik_Tot_abs_Q>  (21) 
0

>  <i_f3d_flags>  (21) 
0

>  <i_lp_mmshare_version>  (21) 
71160

>  <i_lp_orig_ion_str>  (21) 
1

>  <i_m_source_file_index>  (21) 
18

>  <b_lp_Chiralities_Consistent>  (21) 
1

>  <r_epik_Charging_Adjusted_Penalty>  (21) 
0

>  <r_epik_Ionization_Penalty>  (21) 
5.5037026365214483e-07

>  <r_epik_Ionization_Penalty_Charging>  (21) 
0

>  <r_epik_Ionization_Penalty_Neutral>  (21) 
5.5037026365214483e-07

>  <r_epik_State_Penalty>  (21) 
-0

>  <r_lp_Energy>  (21) 
51.394689999999997

>  <r_lp_tautomer_probability>  (21) 
1

>  <s_epik_cmdline>  (21) 
J2VwaWtfcHl0aG9uJywgJy1waHQnLCAnMC4yJywgJy1waCcsICc3LjQnLCAnLXJldGFpbl9pX2xhYicsICctcmV0YWluX3RfbGFiJywgJy10bicsICcxJywgJy1tYScsICc1MDAnLCAnLWltYWUnLCAnPGluZmlsZS5tYWU+JywgJy1vbWFlJywgJzxvdXRmaWxlLm1hZT4n

>  <s_epik_input>  (21) 
W0NIM11bQ0gyXU9jKFtjSF1bY0hdMSlbY0hdW2NIXWMxQyg9TylbQ0gyXVNjKG4yLWMoW2NIXVtjSF0zKVtjSF1bY0hdYzNPW0NIM10pbm5jMltDSDJdW05IXWM0W2NIXVtjSF1jKEMoRikoRilGKVtjSF1bY0hdNA==

>  <s_lp_Force_Field>  (21) 
S-OPLS

>  <s_lp_Variant>  (21) 
RR17_Rahimova_2017-1

>  <s_lp_label>  (21) 
18

>  <s_m_source_file>  (21) 
montpellier_ligands.smi

$$$$
RR18_Rahimova_2017
     RDKit          3D

  0  0  0  0  0  0  0  0  0  0999 V3000
M  V30 BEGIN CTAB
M  V30 COUNTS 56 61 0 0 1
M  V30 BEGIN ATOM
M  V30 1 C -0.523650 -1.551046 -5.235413 0
M  V30 2 C -0.296409 -2.141254 -3.865977 0
M  V30 3 C 0.197524 -3.351375 -3.405548 0
M  V30 4 C 0.160032 -3.298499 -2.012629 0
M  V30 5 C -0.355173 -2.057608 -1.671841 0
M  V30 6 O -0.631083 -1.360170 -2.806423 0
M  V30 7 C -0.648610 -1.363480 -0.345388 0 CFG=1
M  V30 8 C 0.138029 -0.025381 -0.214045 0
M  V30 9 C 1.595979 -0.028790 -0.146415 0
M  V30 10 N 2.132790 -1.229578 0.170811 0
M  V30 11 C 3.482749 -1.619354 0.306808 0
M  V30 12 C 3.747814 -2.840379 0.959725 0
M  V30 13 C 2.625462 -3.714483 1.511385 0
M  V30 14 C 5.069489 -3.272887 1.114478 0
M  V30 15 C 6.127216 -2.510925 0.624220 0
M  V30 16 C 5.872193 -1.309966 -0.031167 0
M  V30 17 C 4.561098 -0.866344 -0.193308 0
M  V30 18 O 2.259348 0.990334 -0.348802 0
M  V30 19 C -0.555930 1.141614 -0.268804 0
M  V30 20 N -1.913772 1.237302 -0.311653 0
M  V30 21 C -2.623648 0.173878 -0.216757 0
M  V30 22 S -4.368091 0.151602 -0.106071 0
M  V30 23 C -4.389725 -1.634588 0.021079 0
M  V30 24 C -5.495598 -2.447426 0.151356 0
M  V30 25 C -6.837293 -1.858726 0.282920 0
M  V30 26 N -7.700434 -2.867190 0.445707 0
M  V30 27 C -7.101582 -4.090055 0.406380 0
M  V30 28 C -5.743186 -3.923143 0.203520 0
M  V30 29 C -4.963745 -5.088753 0.081482 0
M  V30 30 C -5.546045 -6.354165 0.197853 0
M  V30 31 C -6.914978 -6.481539 0.426416 0
M  V30 32 C -7.706427 -5.340525 0.526638 0
M  V30 33 O -7.188976 -0.679553 0.274918 0
M  V30 34 N -2.120676 -1.087401 -0.185248 0
M  V30 35 C -3.005807 -2.107920 -0.021531 0
M  V30 36 O -2.628277 -3.269993 0.090946 0
M  V30 37 H -0.220550 -2.236414 -6.027043 0
M  V30 38 H 0.042189 -0.629522 -5.373161 0
M  V30 39 H -1.574785 -1.313475 -5.399507 0
M  V30 40 H 0.544927 -4.176098 -4.009951 0
M  V30 41 H 0.472129 -4.074618 -1.330023 0
M  V30 42 H -0.369335 -2.013558 0.485730 0
M  V30 43 H 1.473502 -1.959830 0.394820 0
M  V30 44 H 2.998893 -4.627757 1.976601 0
M  V30 45 H 1.940585 -3.998591 0.712051 0
M  V30 46 H 2.048805 -3.164578 2.256018 0
M  V30 47 H 5.283288 -4.205139 1.616882 0
M  V30 48 H 7.143956 -2.853431 0.747994 0
M  V30 49 H 6.691485 -0.722465 -0.418909 0
M  V30 50 H 4.415556 0.059220 -0.726298 0
M  V30 51 H -0.037702 2.090332 -0.234356 0
M  V30 52 H -8.693306 -2.729050 0.564342 0
M  V30 53 H -3.912272 -5.094759 -0.126057 0
M  V30 54 H -4.933591 -7.238755 0.102898 0
M  V30 55 H -7.361634 -7.461143 0.513664 0
M  V30 56 H -8.770143 -5.438362 0.688104 0
M  V30 END ATOM
M  V30 BEGIN BOND
M  V30 1 1 2 1
M  V30 2 2 3 2
M  V30 3 1 4 3
M  V30 4 2 5 4
M  V30 5 1 6 5
M  V30 6 1 6 2
M  V30 7 1 7 5
M  V30 8 1 8 7
M  V30 9 1 9 8
M  V30 10 1 10 9
M  V30 11 1 11 10
M  V30 12 2 12 11
M  V30 13 1 13 12
M  V30 14 1 14 12
M  V30 15 2 15 14
M  V30 16 1 16 15
M  V30 17 2 17 16
M  V30 18 1 17 11
M  V30 19 2 18 9
M  V30 20 2 19 8
M  V30 21 1 20 19
M  V30 22 2 21 20
M  V30 23 1 22 21
M  V30 24 1 23 22
M  V30 25 2 24 23
M  V30 26 1 25 24
M  V30 27 1 26 25
M  V30 28 1 27 26
M  V30 29 2 28 27
M  V30 30 1 28 24
M  V30 31 1 29 28
M  V30 32 2 30 29
M  V30 33 1 31 30
M  V30 34 2 32 31
M  V30 35 1 32 27
M  V30 36 2 33 25
M  V30 37 1 34 21
M  V30 38 1 34 7
M  V30 39 1 35 34
M  V30 40 1 35 23
M  V30 41 2 36 35
M  V30 42 1 37 1
M  V30 43 1 38 1
M  V30 44 1 39 1
M  V30 45 1 40 3
M  V30 46 1 41 4
M  V30 47 1 7 42 CFG=1
M  V30 48 1 43 10
M  V30 49 1 44 13
M  V30 50 1 45 13
M  V30 51 1 46 13
M  V30 52 1 47 14
M  V30 53 1 48 15
M  V30 54 1 49 16
M  V30 55 1 50 17
M  V30 56 1 51 19
M  V30 57 1 52 26
M  V30 58 1 53 29
M  V30 59 1 54 30
M  V30 60 1 55 31
M  V30 61 1 56 32
M  V30 END BOND
M  V30 END CTAB
M  END
>  <i_epik_Tot_Q>  (22) 
0

>  <i_epik_Tot_abs_Q>  (22) 
0

>  <i_f3d_flags>  (22) 
0

>  <i_lp_mmshare_version>  (22) 
71160

>  <i_lp_orig_ion_str>  (22) 
1

>  <i_m_source_file_index>  (22) 
19

>  <b_lp_Chiralities_Consistent>  (22) 
1

>  <r_epik_Charging_Adjusted_Penalty>  (22) 
0

>  <r_epik_Ionization_Penalty>  (22) 
0.00032471912278725433

>  <r_epik_Ionization_Penalty_Charging>  (22) 
0

>  <r_epik_Ionization_Penalty_Neutral>  (22) 
0.00032471912278725433

>  <r_epik_State_Penalty>  (22) 
-0

>  <r_lp_Energy>  (22) 
62.521637999999996

>  <r_lp_tautomer_probability>  (22) 
1

>  <s_epik_Chemistry_Notes>  (22) 
This compound has an imine and may undergo hydrolysis.

>  <s_epik_cmdline>  (22) 
J2VwaWtfcHl0aG9uJywgJy1waHQnLCAnMC4yJywgJy1waCcsICc3LjQnLCAnLXJldGFpbl9pX2xhYicsICctcmV0YWluX3RfbGFiJywgJy10bicsICcxJywgJy1tYScsICc1MDAnLCAnLWltYWUnLCAnPGluZmlsZS5tYWU+JywgJy1vbWFlJywgJzxvdXRmaWxlLm1hZT4n

>  <s_epik_input>  (22) 
W2NIXTFbY0hdW2NIXVtjSF1jKGMxMilDKFxDKD1PKVtOSF0yKT1jKFxzMyljKD1PKW4oYzM0KVtDQEBIXShjKG81KVtjSF1bY0hdYzVbQ0gzXSlDKD1bQ0hdTj00KUMoPU8pW05IXWM2YyhbQ0gzXSlbY0hdW2NIXVtjSF1bY0hdNg==

>  <s_lp_Force_Field>  (22) 
S-OPLS

>  <s_lp_Variant>  (22) 
RR18_Rahimova_2017-1

>  <s_lp_label>  (22) 
19

>  <s_m_source_file>  (22) 
montpellier_ligands.smi

$$$$
RR19_Rahimova_2017
     RDKit          3D

  0  0  0  0  0  0  0  0  0  0999 V3000
M  V30 BEGIN CTAB
M  V30 COUNTS 72 77 0 0 1
M  V30 BEGIN ATOM
M  V30 1 S -2.993721 0.763630 -0.512882 0
M  V30 2 C -1.567556 1.658281 -0.331168 0
M  V30 3 N -0.293382 1.153337 -0.401696 0
M  V30 4 C 0.205844 -0.047351 -0.794159 0
M  V30 5 C 1.701494 -0.268052 -0.441117 0 CFG=2
M  V30 6 C 2.255881 -1.651599 -0.885968 0
M  V30 7 C 3.769333 -1.757722 -0.824308 0
M  V30 8 C 4.561386 -1.188044 -1.843880 0
M  V30 9 C 5.945835 -1.196509 -1.734403 0
M  V30 10 C 6.555998 -1.739955 -0.610647 0
M  V30 11 C 5.787953 -2.269231 0.418937 0
M  V30 12 C 4.402456 -2.270815 0.328318 0
M  V30 13 N 2.018554 0.014249 0.987516 0
M  V30 14 C 1.553383 -0.711489 2.047576 0
M  V30 15 C 2.107151 -0.046133 3.252314 0
M  V30 16 C 1.972960 -0.350191 4.607908 0
M  V30 17 C 2.615881 0.467640 5.543612 0
M  V30 18 C 3.373643 1.566776 5.118740 0
M  V30 19 C 3.493825 1.856288 3.754995 0
M  V30 20 C 2.846833 1.027476 2.837081 0
M  V30 21 C 2.786778 1.078206 1.354958 0
M  V30 22 O 3.318300 1.906458 0.614288 0
M  V30 23 O 0.827442 -1.705268 2.011615 0
M  V30 24 O -0.414979 -0.928574 -1.394190 0
M  V30 25 N -1.492898 3.006951 -0.086884 0
M  V30 26 C -2.426913 3.946085 0.209249 0
M  V30 27 C -1.904759 5.401903 0.118335 0 CFG=2
M  V30 28 C -2.737007 6.445473 0.919092 0
M  V30 29 C -2.782227 6.221351 2.422036 0
M  V30 30 C -3.899974 5.609654 3.029840 0
M  V30 31 C -3.890417 5.342214 4.392436 0
M  V30 32 C -2.775490 5.655789 5.159668 0
M  V30 33 C -1.656153 6.230377 4.570370 0
M  V30 34 C -1.645213 6.504055 3.208953 0
M  V30 35 N -1.719056 5.822017 -1.297981 0
M  V30 36 C -2.727351 6.083865 -2.183225 0
M  V30 37 C -2.051782 6.413457 -3.462701 0
M  V30 38 C -2.574097 6.766164 -4.708100 0
M  V30 39 C -1.685694 7.017163 -5.759619 0
M  V30 40 C -0.303424 6.911978 -5.556935 0
M  V30 41 C 0.200373 6.554931 -4.301245 0
M  V30 42 C -0.702082 6.310125 -3.264891 0
M  V30 43 C -0.476905 5.914049 -1.852680 0
M  V30 44 O 0.604668 5.707984 -1.299950 0
M  V30 45 O -3.939567 6.046761 -1.971197 0
M  V30 46 O -3.603875 3.737280 0.512495 0
M  V30 47 H 0.403474 1.759787 0.005728 0
M  V30 48 H 2.221830 0.459232 -1.066807 0
M  V30 49 H 1.824446 -2.456741 -0.290733 0
M  V30 50 H 1.957023 -1.855331 -1.915277 0
M  V30 51 H 4.094717 -0.744350 -2.711255 0
M  V30 52 H 6.550257 -0.770809 -2.521931 0
M  V30 53 H 7.633206 -1.739997 -0.531691 0
M  V30 54 H 6.269778 -2.673642 1.296914 0
M  V30 55 H 3.812952 -2.666418 1.142701 0
M  V30 56 H 1.388579 -1.195306 4.941878 0
M  V30 57 H 2.526827 0.250729 6.598013 0
M  V30 58 H 3.866925 2.193640 5.847013 0
M  V30 59 H 4.078515 2.706123 3.433355 0
M  V30 60 H -0.575629 3.395886 -0.250363 0
M  V30 61 H -0.930095 5.390425 0.609963 0
M  V30 62 H -2.296452 7.430682 0.760656 0
M  V30 63 H -3.758328 6.514851 0.544547 0
M  V30 64 H -4.766428 5.348784 2.439590 0
M  V30 65 H -4.751069 4.883123 4.856134 0
M  V30 66 H -2.775538 5.443271 6.218701 0
M  V30 67 H -0.789159 6.459521 5.172366 0
M  V30 68 H -0.764741 6.935976 2.755616 0
M  V30 69 H -3.639129 6.846835 -4.871393 0
M  V30 70 H -2.067564 7.291767 -6.731906 0
M  V30 71 H 0.376245 7.105889 -6.373611 0
M  V30 72 H 1.267277 6.473323 -4.151573 0
M  V30 END ATOM
M  V30 BEGIN BOND
M  V30 1 2 2 1
M  V30 2 1 3 2
M  V30 3 1 4 3
M  V30 4 1 5 4
M  V30 5 1 6 5
M  V30 6 1 7 6
M  V30 7 2 8 7
M  V30 8 1 9 8
M  V30 9 2 10 9
M  V30 10 1 11 10
M  V30 11 2 12 11
M  V30 12 1 12 7
M  V30 13 1 13 5
M  V30 14 1 14 13
M  V30 15 1 15 14
M  V30 16 1 16 15
M  V30 17 2 17 16
M  V30 18 1 18 17
M  V30 19 2 19 18
M  V30 20 2 20 15
M  V30 21 1 20 19
M  V30 22 1 21 20
M  V30 23 1 21 13
M  V30 24 2 22 21
M  V30 25 2 23 14
M  V30 26 2 24 4
M  V30 27 1 25 2
M  V30 28 1 26 25
M  V30 29 1 27 26
M  V30 30 1 28 27
M  V30 31 1 29 28
M  V30 32 2 30 29
M  V30 33 1 31 30
M  V30 34 2 32 31
M  V30 35 1 33 32
M  V30 36 2 34 33
M  V30 37 1 34 29
M  V30 38 1 35 27
M  V30 39 1 36 35
M  V30 40 1 37 36
M  V30 41 1 38 37
M  V30 42 2 39 38
M  V30 43 1 40 39
M  V30 44 2 41 40
M  V30 45 2 42 37
M  V30 46 1 42 41
M  V30 47 1 43 42
M  V30 48 1 43 35
M  V30 49 2 44 43
M  V30 50 2 45 36
M  V30 51 2 46 26
M  V30 52 1 47 3
M  V30 53 1 5 48 CFG=3
M  V30 54 1 49 6
M  V30 55 1 50 6
M  V30 56 1 51 8
M  V30 57 1 52 9
M  V30 58 1 53 10
M  V30 59 1 54 11
M  V30 60 1 55 12
M  V30 61 1 56 16
M  V30 62 1 57 17
M  V30 63 1 58 18
M  V30 64 1 59 19
M  V30 65 1 60 25
M  V30 66 1 27 61 CFG=1
M  V30 67 1 62 28
M  V30 68 1 63 28
M  V30 69 1 64 30
M  V30 70 1 65 31
M  V30 71 1 66 32
M  V30 72 1 67 33
M  V30 73 1 68 34
M  V30 74 1 69 38
M  V30 75 1 70 39
M  V30 76 1 71 40
M  V30 77 1 72 41
M  V30 END BOND
M  V30 END CTAB
M  END
>  <i_epik_Tot_Q>  (23) 
0

>  <i_epik_Tot_abs_Q>  (23) 
0

>  <i_f3d_flags>  (23) 
0

>  <i_lp_mmshare_version>  (23) 
71160

>  <i_lp_orig_ion_str>  (23) 
1

>  <i_m_source_file_index>  (23) 
20

>  <b_lp_Chiralities_Consistent>  (23) 
1

>  <r_epik_Charging_Adjusted_Penalty>  (23) 
3.5046332387046735

>  <r_epik_Ionization_Penalty>  (23) 
3.5046332390327319

>  <r_epik_Ionization_Penalty_Charging>  (23) 
0

>  <r_epik_Ionization_Penalty_Neutral>  (23) 
3.5046332390327319

>  <r_epik_State_Penalty>  (23) 
3.5046332387046735

>  <r_lp_Energy>  (23) 
66.462600999999992

>  <s_epik_cmdline>  (23) 
J2VwaWtfcHl0aG9uJywgJy1waHQnLCAnMC4yJywgJy1waCcsICc3LjQnLCAnLXJldGFpbl9pX2xhYicsICctcmV0YWluX3RfbGFiJywgJy10bicsICcxJywgJy1tYScsICc1MDAnLCAnLWltYWUnLCAnPGluZmlsZS5tYWU+JywgJy1vbWFlJywgJzxvdXRmaWxlLm1hZT4n

>  <s_epik_input>  (23) 
W2NIXTFbY0hdW2NIXVtjSF1bY0hdYzFbQ0gyXVtDQEhdKE4oQzI9TylDKD1PKWMoYzIzKVtjSF1bY0hdW2NIXVtjSF0zKUMoPU8pW05IXUMoPVMpW05IXUMoPU8pW0NASF0oW0NIMl1jNFtjSF1bY0hdW2NIXVtjSF1bY0hdNClOKEM1PU8pQyg9TyljKGM1NilbY0hdW2NIXVtjSF1bY0hdNg==

>  <s_lp_Force_Field>  (23) 
S-OPLS

>  <s_lp_Variant>  (23) 
RR19_Rahimova_2017-1

>  <s_lp_label>  (23) 
20

>  <s_m_source_file>  (23) 
montpellier_ligands.smi

$$$$
RR19_Rahimova_2017
     RDKit          3D

  0  0  0  0  0  0  0  0  0  0999 V3000
M  V30 BEGIN CTAB
M  V30 COUNTS 71 76 0 0 1
M  V30 BEGIN ATOM
M  V30 1 S -1.567668 2.071809 -0.479902 0
M  V30 2 C -0.590513 0.718106 -0.288756 0
M  V30 3 N 0.751783 0.796185 0.034742 0
M  V30 4 C 1.759581 1.084526 -0.721951 0
M  V30 5 C 3.166591 0.942220 -0.050124 0 CFG=2
M  V30 6 C 3.893439 -0.362598 -0.517984 0
M  V30 7 C 5.242627 -0.612021 0.149897 0
M  V30 8 C 6.286135 0.301157 -0.025201 0
M  V30 9 C 7.512876 0.082774 0.596212 0
M  V30 10 C 7.693602 -1.049507 1.387890 0
M  V30 11 C 6.659415 -1.966564 1.562971 0
M  V30 12 C 5.433136 -1.748759 0.941379 0
M  V30 13 N 3.145863 1.145509 1.436382 0
M  V30 14 C 2.771494 0.203235 2.354317 0
M  V30 15 C 2.898078 0.865948 3.674290 0
M  V30 16 C 2.654780 0.388544 4.962785 0
M  V30 17 C 2.861434 1.250981 6.044926 0
M  V30 18 C 3.301691 2.563352 5.828213 0
M  V30 19 C 3.538069 3.022968 4.527844 0
M  V30 20 C 3.327376 2.147283 3.461653 0
M  V30 21 C 3.487776 2.339551 1.998396 0
M  V30 22 O 3.854940 3.362013 1.417425 0
M  V30 23 O 2.404517 -0.951199 2.135897 0
M  V30 24 O 1.796954 1.450334 -1.914484 0 CHG=-1
M  V30 25 N -0.907032 -0.610716 -0.329018 0
M  V30 26 C -2.082606 -1.274089 -0.438210 0
M  V30 27 C -1.977101 -2.815895 -0.246661 0 CFG=2
M  V30 28 C -3.335696 -3.501940 0.073744 0
M  V30 29 C -3.304000 -5.016167 -0.035283 0
M  V30 30 C -3.350335 -5.635394 -1.302312 0
M  V30 31 C -3.221253 -7.014185 -1.406972 0
M  V30 32 C -3.019475 -7.786660 -0.269915 0
M  V30 33 C -2.933668 -7.187215 0.980448 0
M  V30 34 C -3.060272 -5.810118 1.106105 0
M  V30 35 N -0.898334 -3.239877 0.696441 0
M  V30 36 C -0.915477 -3.029103 2.046461 0
M  V30 37 C 0.402561 -3.503066 2.535625 0
M  V30 38 C 0.947129 -3.525352 3.820585 0
M  V30 39 C 2.248931 -4.010448 3.987362 0
M  V30 40 C 2.980814 -4.463973 2.882195 0
M  V30 41 C 2.416062 -4.435790 1.602290 0
M  V30 42 C 1.117339 -3.945906 1.456377 0
M  V30 43 C 0.273111 -3.774974 0.248417 0
M  V30 44 O 0.571810 -4.051019 -0.914200 0
M  V30 45 O -1.825128 -2.538140 2.715356 0
M  V30 46 O -3.180794 -0.762101 -0.669523 0
M  V30 47 H 3.796115 1.745391 -0.441332 0
M  V30 48 H 3.246813 -1.228948 -0.362776 0
M  V30 49 H 4.065522 -0.328700 -1.595131 0
M  V30 50 H 6.145462 1.181416 -0.635733 0
M  V30 51 H 8.319845 0.788766 0.466015 0
M  V30 52 H 8.645024 -1.218000 1.870535 0
M  V30 53 H 6.806985 -2.841460 2.178755 0
M  V30 54 H 4.631118 -2.458472 1.083169 0
M  V30 55 H 2.314165 -0.622315 5.134455 0
M  V30 56 H 2.680392 0.903581 7.051454 0
M  V30 57 H 3.458821 3.223607 6.668273 0
M  V30 58 H 3.876357 4.036241 4.366655 0
M  V30 59 H -0.115118 -1.212488 -0.158633 0
M  V30 60 H -1.710858 -3.169866 -1.243987 0
M  V30 61 H -3.688072 -3.228667 1.068190 0
M  V30 62 H -4.103057 -3.145273 -0.614578 0
M  V30 63 H -3.484606 -5.039224 -2.193147 0
M  V30 64 H -3.268298 -7.486855 -2.377060 0
M  V30 65 H -2.916354 -8.858101 -0.360197 0
M  V30 66 H -2.759631 -7.793231 1.857321 0
M  V30 67 H -2.972740 -5.350968 2.079894 0
M  V30 68 H 0.390221 -3.169539 4.675247 0
M  V30 69 H 2.692872 -4.031276 4.971649 0
M  V30 70 H 3.986770 -4.833087 3.017648 0
M  V30 71 H 2.988032 -4.779596 0.752695 0
M  V30 END ATOM
M  V30 BEGIN BOND
M  V30 1 2 2 1
M  V30 2 1 3 2
M  V30 3 2 4 3
M  V30 4 1 5 4
M  V30 5 1 6 5
M  V30 6 1 7 6
M  V30 7 2 8 7
M  V30 8 1 9 8
M  V30 9 2 10 9
M  V30 10 1 11 10
M  V30 11 2 12 11
M  V30 12 1 12 7
M  V30 13 1 13 5
M  V30 14 1 14 13
M  V30 15 1 15 14
M  V30 16 1 16 15
M  V30 17 2 17 16
M  V30 18 1 18 17
M  V30 19 2 19 18
M  V30 20 2 20 15
M  V30 21 1 20 19
M  V30 22 1 21 20
M  V30 23 1 21 13
M  V30 24 2 22 21
M  V30 25 2 23 14
M  V30 26 1 24 4
M  V30 27 1 25 2
M  V30 28 1 26 25
M  V30 29 1 27 26
M  V30 30 1 28 27
M  V30 31 1 29 28
M  V30 32 2 30 29
M  V30 33 1 31 30
M  V30 34 2 32 31
M  V30 35 1 33 32
M  V30 36 2 34 33
M  V30 37 1 34 29
M  V30 38 1 35 27
M  V30 39 1 36 35
M  V30 40 1 37 36
M  V30 41 1 38 37
M  V30 42 2 39 38
M  V30 43 1 40 39
M  V30 44 2 41 40
M  V30 45 2 42 37
M  V30 46 1 42 41
M  V30 47 1 43 42
M  V30 48 1 43 35
M  V30 49 2 44 43
M  V30 50 2 45 36
M  V30 51 2 46 26
M  V30 52 1 5 47 CFG=3
M  V30 53 1 48 6
M  V30 54 1 49 6
M  V30 55 1 50 8
M  V30 56 1 51 9
M  V30 57 1 52 10
M  V30 58 1 53 11
M  V30 59 1 54 12
M  V30 60 1 55 16
M  V30 61 1 56 17
M  V30 62 1 57 18
M  V30 63 1 58 19
M  V30 64 1 59 25
M  V30 65 1 27 60 CFG=3
M  V30 66 1 61 28
M  V30 67 1 62 28
M  V30 68 1 63 30
M  V30 69 1 64 31
M  V30 70 1 65 32
M  V30 71 1 66 33
M  V30 72 1 67 34
M  V30 73 1 68 38
M  V30 74 1 69 39
M  V30 75 1 70 40
M  V30 76 1 71 41
M  V30 END BOND
M  V30 END CTAB
M  END
>  <i_epik_Tot_Q>  (24) 
-1

>  <i_epik_Tot_abs_Q>  (24) 
1

>  <i_f3d_flags>  (24) 
0

>  <i_lp_mmshare_version>  (24) 
71160

>  <i_lp_orig_ion_str>  (24) 
1

>  <i_m_source_file_index>  (24) 
20

>  <b_lp_Chiralities_Consistent>  (24) 
1

>  <r_epik_Charging_Adjusted_Penalty>  (24) 
0.0032017252275730497

>  <r_epik_Ionization_Penalty>  (24) 
0.0016009453991774991

>  <r_epik_Ionization_Penalty_Charging>  (24) 
0.0016008626137864973

>  <r_epik_Ionization_Penalty_Neutral>  (24) 
8.2785391001827022e-08

>  <r_epik_State_Penalty>  (24) 
0.0016008626137865522

>  <r_lp_Energy>  (24) 
53.735493999999996

>  <s_epik_cmdline>  (24) 
J2VwaWtfcHl0aG9uJywgJy1waHQnLCAnMC4yJywgJy1waCcsICc3LjQnLCAnLXJldGFpbl9pX2xhYicsICctcmV0YWluX3RfbGFiJywgJy10bicsICcxJywgJy1tYScsICc1MDAnLCAnLWltYWUnLCAnPGluZmlsZS5tYWU+JywgJy1vbWFlJywgJzxvdXRmaWxlLm1hZT4n

>  <s_epik_input>  (24) 
W2NIXTFbY0hdW2NIXVtjSF1bY0hdYzFbQ0gyXVtDQEhdKE4oQzI9TylDKD1PKWMoYzIzKVtjSF1bY0hdW2NIXVtjSF0zKUMoPU8pW05IXUMoPVMpW05IXUMoPU8pW0NASF0oW0NIMl1jNFtjSF1bY0hdW2NIXVtjSF1bY0hdNClOKEM1PU8pQyg9TyljKGM1NilbY0hdW2NIXVtjSF1bY0hdNg==

>  <s_lp_Force_Field>  (24) 
S-OPLS

>  <s_lp_Variant>  (24) 
RR19_Rahimova_2017-2

>  <s_lp_label>  (24) 
20

>  <s_m_source_file>  (24) 
montpellier_ligands.smi

$$$$
RR20_Rahimova_2017
     RDKit          3D

  0  0  0  0  0  0  0  0  0  0999 V3000
M  V30 BEGIN CTAB
M  V30 COUNTS 68 73 0 0 1
M  V30 BEGIN ATOM
M  V30 1 O -0.421239 3.413162 0.215131 0
M  V30 2 C -0.941561 2.357281 0.579494 0
M  V30 3 N -0.244447 1.252939 0.940726 0
M  V30 4 C 1.134832 1.118069 0.990769 0
M  V30 5 N 2.043520 2.011056 0.692111 0
M  V30 6 C 3.281303 1.564455 0.840583 0
M  V30 7 C 4.418567 2.487787 0.507798 0
M  V30 8 C 4.293670 3.874550 0.681533 0
M  V30 9 C 5.343901 4.735837 0.363662 0
M  V30 10 C 6.561989 4.214158 -0.090724 0
M  V30 11 N 7.726835 4.875615 -0.540856 0
M  V30 12 C 8.102411 6.153179 -0.236508 0
M  V30 13 C 9.429707 6.675438 -0.738818 0
M  V30 14 C 10.286000 7.343637 0.144362 0
M  V30 15 C 11.503694 7.847993 -0.303950 0
M  V30 16 C 11.869538 7.698747 -1.642126 0
M  V30 17 C 13.194023 8.258150 -2.129648 0
M  V30 18 C 11.008779 7.059922 -2.535567 0
M  V30 19 C 9.791265 6.554764 -2.087221 0
M  V30 20 O 7.400261 6.920954 0.424615 0
M  V30 21 C 8.710788 3.858477 -0.943744 0
M  V30 22 C 7.952368 2.545609 -1.046892 0
M  V30 23 C 6.671154 2.843671 -0.328649 0
M  V30 24 C 5.612167 1.986721 -0.027953 0
M  V30 25 C 3.384536 0.237878 1.312800 0
M  V30 26 C 4.588260 -0.610876 1.660656 0
M  V30 27 S 1.767681 -0.394827 1.509578 0
M  V30 28 C -2.487109 2.279387 0.599181 0
M  V30 29 N -3.000095 1.254025 1.527212 0
M  V30 30 C -2.914218 1.675798 2.932602 0
M  V30 31 C -3.208386 0.479589 3.867452 0
M  V30 32 C -4.434638 -0.325334 3.437841 0
M  V30 33 C -5.013085 -1.268929 4.293959 0
M  V30 34 C -6.107032 -2.030021 3.888688 0
M  V30 35 C -6.639863 -1.852021 2.615922 0
M  V30 36 C -6.079811 -0.909407 1.756962 0
M  V30 37 C -4.980423 -0.138537 2.150703 0
M  V30 38 C -4.401982 0.935663 1.230220 0
M  V30 39 H -0.779009 0.440330 1.212334 0
M  V30 40 H 3.374010 4.296881 1.059969 0
M  V30 41 H 5.189735 5.796341 0.491212 0
M  V30 42 H 10.017560 7.468871 1.184109 0
M  V30 43 H 12.159809 8.353596 0.389756 0
M  V30 44 H 13.169477 8.468683 -3.199587 0
M  V30 45 H 14.004019 7.558210 -1.923111 0
M  V30 46 H 13.419888 9.200788 -1.629424 0
M  V30 47 H 11.278540 6.955941 -3.576564 0
M  V30 48 H 9.130414 6.076505 -2.796263 0
M  V30 49 H 9.385997 4.073469 -1.770292 0
M  V30 50 H 9.367189 3.759536 -0.076772 0
M  V30 51 H 7.752096 2.330866 -2.097366 0
M  V30 52 H 8.534794 1.708335 -0.661198 0
M  V30 53 H 5.704168 0.933776 -0.247532 0
M  V30 54 H 5.442967 -0.007330 1.965557 0
M  V30 55 H 4.904821 -1.221018 0.814735 0
M  V30 56 H 4.382515 -1.291633 2.487024 0
M  V30 57 H -2.908496 3.257580 0.841905 0
M  V30 58 H -2.793770 2.048004 -0.422558 0
M  V30 59 H -1.896613 2.002646 3.150416 0
M  V30 60 H -3.544032 2.542494 3.142770 0
M  V30 61 H -2.344502 -0.186902 3.867709 0
M  V30 62 H -3.317470 0.828629 4.894999 0
M  V30 63 H -4.602268 -1.421471 5.281363 0
M  V30 64 H -6.538055 -2.758370 4.559484 0
M  V30 65 H -7.488744 -2.438683 2.296984 0
M  V30 66 H -6.510707 -0.769102 0.776295 0
M  V30 67 H -4.447002 0.575798 0.200990 0
M  V30 68 H -5.025882 1.830281 1.276990 0
M  V30 END ATOM
M  V30 BEGIN BOND
M  V30 1 2 2 1
M  V30 2 1 3 2
M  V30 3 1 4 3
M  V30 4 2 5 4
M  V30 5 1 6 5
M  V30 6 1 7 6
M  V30 7 2 8 7
M  V30 8 1 9 8
M  V30 9 2 10 9
M  V30 10 1 11 10
M  V30 11 1 12 11
M  V30 12 1 13 12
M  V30 13 2 14 13
M  V30 14 1 15 14
M  V30 15 2 16 15
M  V30 16 1 17 16
M  V30 17 1 18 16
M  V30 18 2 19 18
M  V30 19 1 19 13
M  V30 20 2 20 12
M  V30 21 1 21 11
M  V30 22 1 22 21
M  V30 23 1 23 10
M  V30 24 1 23 22
M  V30 25 2 24 23
M  V30 26 1 24 7
M  V30 27 2 25 6
M  V30 28 1 26 25
M  V30 29 1 27 25
M  V30 30 1 27 4
M  V30 31 1 28 2
M  V30 32 1 29 28
M  V30 33 1 30 29
M  V30 34 1 31 30
M  V30 35 1 32 31
M  V30 36 2 33 32
M  V30 37 1 34 33
M  V30 38 2 35 34
M  V30 39 1 36 35
M  V30 40 2 37 36
M  V30 41 1 37 32
M  V30 42 1 38 37
M  V30 43 1 38 29
M  V30 44 1 39 3
M  V30 45 1 40 8
M  V30 46 1 41 9
M  V30 47 1 42 14
M  V30 48 1 43 15
M  V30 49 1 44 17
M  V30 50 1 45 17
M  V30 51 1 46 17
M  V30 52 1 47 18
M  V30 53 1 48 19
M  V30 54 1 49 21
M  V30 55 1 50 21
M  V30 56 1 51 22
M  V30 57 1 52 22
M  V30 58 1 53 24
M  V30 59 1 54 26
M  V30 60 1 55 26
M  V30 61 1 56 26
M  V30 62 1 57 28
M  V30 63 1 58 28
M  V30 64 1 59 30
M  V30 65 1 60 30
M  V30 66 1 61 31
M  V30 67 1 62 31
M  V30 68 1 63 33
M  V30 69 1 64 34
M  V30 70 1 65 35
M  V30 71 1 66 36
M  V30 72 1 67 38
M  V30 73 1 68 38
M  V30 END BOND
M  V30 END CTAB
M  END
>  <i_epik_Tot_Q>  (25) 
0

>  <i_epik_Tot_abs_Q>  (25) 
0

>  <i_f3d_flags>  (25) 
0

>  <i_lp_mmshare_version>  (25) 
71160

>  <i_lp_orig_ion_str>  (25) 
1

>  <i_m_source_file_index>  (25) 
21

>  <b_lp_Chiralities_Consistent>  (25) 
1

>  <r_epik_Charging_Adjusted_Penalty>  (25) 
1.0080568547647388

>  <r_epik_Ionization_Penalty>  (25) 
0.52894671821206263

>  <r_epik_Ionization_Penalty_Charging>  (25) 
0

>  <r_epik_Ionization_Penalty_Neutral>  (25) 
0.52894671821206263

>  <r_epik_State_Penalty>  (25) 
1.0080568547647388

>  <r_lp_Energy>  (25) 
68.876735999999994

>  <s_epik_cmdline>  (25) 
J2VwaWtfcHl0aG9uJywgJy1waHQnLCAnMC4yJywgJy1waCcsICc3LjQnLCAnLXJldGFpbl9pX2xhYicsICctcmV0YWluX3RfbGFiJywgJy10bicsICcxJywgJy1tYScsICc1MDAnLCAnLWltYWUnLCAnPGluZmlsZS5tYWU+JywgJy1vbWFlJywgJzxvdXRmaWxlLm1hZT4n

>  <s_epik_input>  (25) 
W2NIXTFbY0hdW2NIXVtjSF1jKGMxMilbQ0gyXU4oW0NIMl1bQ0gyXTIpW0NIMl1DKD1PKVtOSF1jM25jKGMoczMpW0NIM10pLWMoW2NIXVtjSF00KVtjSF1jKGM0NSlbQ0gyXVtDSDJdTjVDKD1PKWM2W2NIXVtjSF1jKFtDSDNdKVtjSF1bY0hdNg==

>  <s_lp_Force_Field>  (25) 
S-OPLS

>  <s_lp_Variant>  (25) 
RR20_Rahimova_2017-1

>  <s_lp_label>  (25) 
21

>  <s_m_source_file>  (25) 
montpellier_ligands.smi

$$$$
RR20_Rahimova_2017
     RDKit          3D

  0  0  0  0  0  0  0  0  0  0999 V3000
M  V30 BEGIN CTAB
M  V30 COUNTS 68 73 0 0 1
M  V30 BEGIN ATOM
M  V30 1 O -0.373285 2.515584 -0.975576 0 CHG=-1
M  V30 2 C -0.592436 1.547508 -0.223239 0
M  V30 3 N 0.186844 0.626697 0.235795 0
M  V30 4 C 1.540523 0.571424 0.035416 0
M  V30 5 N 2.408751 1.551915 -0.014757 0
M  V30 6 C 3.661562 1.156866 -0.179245 0
M  V30 7 C 4.735133 2.206477 -0.239447 0
M  V30 8 C 6.016154 1.953518 0.269315 0
M  V30 9 C 7.008552 2.933659 0.236942 0
M  V30 10 C 6.745703 4.175771 -0.355080 0
M  V30 11 N 7.546659 5.337162 -0.433144 0
M  V30 12 C 8.907817 5.393434 -0.338737 0
M  V30 13 C 9.603675 6.727923 -0.487412 0
M  V30 14 C 10.730754 6.831803 -1.311212 0
M  V30 15 C 11.392784 8.049350 -1.445945 0
M  V30 16 C 10.939881 9.169943 -0.748562 0
M  V30 17 C 11.667592 10.494579 -0.890835 0
M  V30 18 C 9.835786 9.067471 0.098494 0
M  V30 19 C 9.173611 7.850373 0.232853 0
M  V30 20 O 9.607504 4.403959 -0.112464 0
M  V30 21 C 6.781937 6.381796 -1.132811 0
M  V30 22 C 5.338295 5.908589 -1.162543 0
M  V30 23 C 5.456578 4.457190 -0.807747 0
M  V30 24 C 4.461354 3.481391 -0.757525 0
M  V30 25 C 3.834916 -0.238406 -0.279192 0
M  V30 26 C 5.067507 -1.083568 -0.517555 0
M  V30 27 S 2.266572 -0.986620 -0.100107 0
M  V30 28 C -2.057751 1.413844 0.237677 0
M  V30 29 N -2.118577 1.313693 1.790374 0 CFG=2 CHG=1
M  V30 30 C -3.307779 0.463135 2.282274 0
M  V30 31 C -4.635341 1.156544 1.923788 0
M  V30 32 C -4.668869 2.629915 2.320462 0
M  V30 33 C -5.899147 3.285356 2.453128 0
M  V30 34 C -5.967008 4.639780 2.766410 0
M  V30 35 C -4.794802 5.362127 2.953787 0
M  V30 36 C -3.564092 4.722152 2.837615 0
M  V30 37 C -3.474902 3.358515 2.531602 0
M  V30 38 C -2.089599 2.703247 2.472365 0
M  V30 39 H 6.246112 1.003295 0.726819 0
M  V30 40 H 7.968901 2.702294 0.671467 0
M  V30 41 H 11.094480 5.973622 -1.858930 0
M  V30 42 H 12.255475 8.118786 -2.092755 0
M  V30 43 H 11.542805 11.113062 -0.001039 0
M  V30 44 H 11.298365 11.042788 -1.757996 0
M  V30 45 H 12.739592 10.335271 -1.013475 0
M  V30 46 H 9.490353 9.926784 0.654867 0
M  V30 47 H 8.329085 7.785864 0.904432 0
M  V30 48 H 6.926102 7.423498 -0.851217 0
M  V30 49 H 7.136951 6.330192 -2.164149 0
M  V30 50 H 4.774655 6.438307 -0.393557 0
M  V30 51 H 4.856355 6.132591 -2.114835 0
M  V30 52 H 3.465345 3.718911 -1.103047 0
M  V30 53 H 5.847184 -0.537341 -1.048075 0
M  V30 54 H 4.845982 -1.964389 -1.120816 0
M  V30 55 H 5.496792 -1.437292 0.419873 0
M  V30 56 H -2.723634 2.235058 -0.044323 0
M  V30 57 H -2.483724 0.483821 -0.142726 0
M  V30 58 H -3.209566 -0.525929 1.832462 0
M  V30 59 H -3.175649 0.358385 3.360301 0
M  V30 60 H -4.805948 1.080361 0.849148 0
M  V30 61 H -5.461864 0.619090 2.390795 0
M  V30 62 H -6.817982 2.738893 2.296732 0
M  V30 63 H -6.926125 5.128126 2.857285 0
M  V30 64 H -4.838420 6.414298 3.194161 0
M  V30 65 H -2.661823 5.294231 2.999865 0
M  V30 66 H -1.361217 3.308654 1.930403 0
M  V30 67 H -1.707176 2.513379 3.475945 0
M  V30 68 H -1.280250 0.822037 2.070224 0
M  V30 END ATOM
M  V30 BEGIN BOND
M  V30 1 1 2 1
M  V30 2 2 3 2
M  V30 3 1 4 3
M  V30 4 2 5 4
M  V30 5 1 6 5
M  V30 6 1 7 6
M  V30 7 2 8 7
M  V30 8 1 9 8
M  V30 9 2 10 9
M  V30 10 1 11 10
M  V30 11 1 12 11
M  V30 12 1 13 12
M  V30 13 2 14 13
M  V30 14 1 15 14
M  V30 15 2 16 15
M  V30 16 1 17 16
M  V30 17 1 18 16
M  V30 18 2 19 18
M  V30 19 1 19 13
M  V30 20 2 20 12
M  V30 21 1 21 11
M  V30 22 1 22 21
M  V30 23 1 23 10
M  V30 24 1 23 22
M  V30 25 2 24 23
M  V30 26 1 24 7
M  V30 27 2 25 6
M  V30 28 1 26 25
M  V30 29 1 27 25
M  V30 30 1 27 4
M  V30 31 1 28 2
M  V30 32 1 29 28
M  V30 33 1 30 29
M  V30 34 1 31 30
M  V30 35 1 32 31
M  V30 36 2 33 32
M  V30 37 1 34 33
M  V30 38 2 35 34
M  V30 39 1 36 35
M  V30 40 2 37 36
M  V30 41 1 37 32
M  V30 42 1 38 37
M  V30 43 1 38 29
M  V30 44 1 39 8
M  V30 45 1 40 9
M  V30 46 1 41 14
M  V30 47 1 42 15
M  V30 48 1 43 17
M  V30 49 1 44 17
M  V30 50 1 45 17
M  V30 51 1 46 18
M  V30 52 1 47 19
M  V30 53 1 48 21
M  V30 54 1 49 21
M  V30 55 1 50 22
M  V30 56 1 51 22
M  V30 57 1 52 24
M  V30 58 1 53 26
M  V30 59 1 54 26
M  V30 60 1 55 26
M  V30 61 1 56 28
M  V30 62 1 57 28
M  V30 63 1 58 30
M  V30 64 1 59 30
M  V30 65 1 60 31
M  V30 66 1 61 31
M  V30 67 1 62 33
M  V30 68 1 63 34
M  V30 69 1 64 35
M  V30 70 1 65 36
M  V30 71 1 66 38
M  V30 72 1 67 38
M  V30 73 1 29 68 CFG=1
M  V30 END BOND
M  V30 END CTAB
M  END
>  <i_epik_Tot_Q>  (26) 
0

>  <i_epik_Tot_abs_Q>  (26) 
2

>  <i_f3d_flags>  (26) 
0

>  <i_lp_mmshare_version>  (26) 
71160

>  <i_lp_orig_ion_str>  (26) 
1

>  <i_m_source_file_index>  (26) 
21

>  <b_lp_Chiralities_Consistent>  (26) 
1

>  <r_epik_Charging_Adjusted_Penalty>  (26) 
0.58711837875281347

>  <r_epik_Ionization_Penalty>  (26) 
0.24141442957205242

>  <r_epik_Ionization_Penalty_Charging>  (26) 
0.24008227667313872

>  <r_epik_Ionization_Penalty_Neutral>  (26) 
0.0013321528989136985

>  <r_epik_State_Penalty>  (26) 
0.34703610207967472

>  <r_lp_Energy>  (26) 
74.760936999999998

>  <s_epik_cmdline>  (26) 
J2VwaWtfcHl0aG9uJywgJy1waHQnLCAnMC4yJywgJy1waCcsICc3LjQnLCAnLXJldGFpbl9pX2xhYicsICctcmV0YWluX3RfbGFiJywgJy10bicsICcxJywgJy1tYScsICc1MDAnLCAnLWltYWUnLCAnPGluZmlsZS5tYWU+JywgJy1vbWFlJywgJzxvdXRmaWxlLm1hZT4n

>  <s_epik_input>  (26) 
W2NIXTFbY0hdW2NIXVtjSF1jKGMxMilbQ0gyXU4oW0NIMl1bQ0gyXTIpW0NIMl1DKD1PKVtOSF1jM25jKGMoczMpW0NIM10pLWMoW2NIXVtjSF00KVtjSF1jKGM0NSlbQ0gyXVtDSDJdTjVDKD1PKWM2W2NIXVtjSF1jKFtDSDNdKVtjSF1bY0hdNg==

>  <s_lp_Force_Field>  (26) 
S-OPLS

>  <s_lp_Variant>  (26) 
RR20_Rahimova_2017-2

>  <s_lp_label>  (26) 
21

>  <s_m_source_file>  (26) 
montpellier_ligands.smi

$$$$
RR21_Rahimova_2017
     RDKit          3D

  0  0  0  0  0  0  0  0  0  0999 V3000
M  V30 BEGIN CTAB
M  V30 COUNTS 62 67 0 0 1
M  V30 BEGIN ATOM
M  V30 1 C 0.522543 7.290622 -0.286646 0
M  V30 2 O 1.143688 6.163366 0.322063 0
M  V30 3 C 0.574679 4.912652 0.166991 0
M  V30 4 C 1.226179 3.833229 0.773187 0
M  V30 5 F 2.362261 4.037135 1.480090 0
M  V30 6 C 0.717371 2.539161 0.659908 0
M  V30 7 C -0.605155 4.666039 -0.554788 0
M  V30 8 C -1.111886 3.371902 -0.665706 0
M  V30 9 C -0.453759 2.292554 -0.064454 0
M  V30 10 C -0.997823 0.902915 -0.188691 0
M  V30 11 N -2.300561 0.702558 -0.150544 0
M  V30 12 N -2.491721 -0.617733 -0.285675 0
M  V30 13 C -1.287283 -1.259148 -0.428392 0
M  V30 14 C -0.282610 -0.305180 -0.355997 0
M  V30 15 C 1.152307 -0.497834 -0.499244 0
M  V30 16 C 1.897094 -1.558671 -0.112243 0
M  V30 17 S 1.346760 -3.041136 0.700734 0
M  V30 18 C 2.996014 -3.648794 0.678364 0
M  V30 19 N 3.856795 -2.747993 0.109073 0
M  V30 20 C 3.334777 -1.580701 -0.342168 0
M  V30 21 O 3.987728 -0.676369 -0.874699 0
M  V30 22 N 3.429662 -4.788972 1.118977 0
M  V30 23 C 4.798387 -5.165515 1.027880 0
M  V30 24 C 5.676278 -4.120357 0.396803 0
M  V30 25 C 7.177171 -4.406751 0.263175 0
M  V30 26 C 7.942795 -4.380947 1.583867 0
M  V30 27 C 8.413456 -5.571784 2.144318 0
M  V30 28 C 9.125982 -5.545774 3.340102 0
M  V30 29 C 9.372928 -4.328620 3.977587 0
M  V30 30 C 10.160644 -4.304580 5.274952 0
M  V30 31 C 8.913865 -3.136240 3.414200 0
M  V30 32 C 8.201015 -3.162311 2.218704 0
M  V30 33 N 5.229528 -2.985330 -0.032555 0
M  V30 34 O 5.283894 -6.232656 1.401540 0
M  V30 35 C -3.794879 -1.180121 -0.307706 0
M  V30 36 C -4.911338 -0.392038 -0.629355 0
M  V30 37 C -6.183755 -0.956481 -0.651985 0
M  V30 38 C -6.346036 -2.306766 -0.353939 0
M  V30 39 C -5.247231 -3.098893 -0.031347 0
M  V30 40 C -3.973209 -2.538031 -0.007211 0
M  V30 41 H 1.104161 8.185357 -0.064995 0
M  V30 42 H -0.485830 7.449292 0.098698 0
M  V30 43 H 0.479719 7.186195 -1.372029 0
M  V30 44 H 1.238598 1.728315 1.147398 0
M  V30 45 H -1.143951 5.466516 -1.038640 0
M  V30 46 H -2.019537 3.211569 -1.229902 0
M  V30 47 H -1.241353 -2.326520 -0.584081 0
M  V30 48 H 1.634402 0.349038 -0.969485 0
M  V30 49 H 7.328996 -5.364891 -0.237347 0
M  V30 50 H 7.646577 -3.673715 -0.396467 0
M  V30 51 H 8.224902 -6.517953 1.657711 0
M  V30 52 H 9.484362 -6.470548 3.768619 0
M  V30 53 H 10.571133 -3.315060 5.480322 0
M  V30 54 H 11.004590 -4.993363 5.219140 0
M  V30 55 H 9.530540 -4.611252 6.110177 0
M  V30 56 H 9.107708 -2.190248 3.898721 0
M  V30 57 H 7.848444 -2.236710 1.786769 0
M  V30 58 H -4.804361 0.656358 -0.868048 0
M  V30 59 H -7.041526 -0.348896 -0.900696 0
M  V30 60 H -7.333730 -2.743502 -0.372028 0
M  V30 61 H -5.382907 -4.144799 0.201492 0
M  V30 62 H -3.136343 -3.168580 0.254619 0
M  V30 END ATOM
M  V30 BEGIN BOND
M  V30 1 1 2 1
M  V30 2 1 3 2
M  V30 3 1 4 3
M  V30 4 1 5 4
M  V30 5 2 6 4
M  V30 6 2 7 3
M  V30 7 1 8 7
M  V30 8 2 9 8
M  V30 9 1 9 6
M  V30 10 1 10 9
M  V30 11 2 11 10
M  V30 12 1 12 11
M  V30 13 1 13 12
M  V30 14 2 14 13
M  V30 15 1 14 10
M  V30 16 1 15 14
M  V30 17 2 16 15
M  V30 18 1 17 16
M  V30 19 1 18 17
M  V30 20 1 19 18
M  V30 21 1 20 19
M  V30 22 1 20 16
M  V30 23 2 21 20
M  V30 24 2 22 18
M  V30 25 1 23 22
M  V30 26 1 24 23
M  V30 27 1 25 24
M  V30 28 1 26 25
M  V30 29 2 27 26
M  V30 30 1 28 27
M  V30 31 2 29 28
M  V30 32 1 30 29
M  V30 33 1 31 29
M  V30 34 2 32 31
M  V30 35 1 32 26
M  V30 36 2 33 24
M  V30 37 1 33 19
M  V30 38 2 34 23
M  V30 39 1 35 12
M  V30 40 2 36 35
M  V30 41 1 37 36
M  V30 42 2 38 37
M  V30 43 1 39 38
M  V30 44 2 40 39
M  V30 45 1 40 35
M  V30 46 1 41 1
M  V30 47 1 42 1
M  V30 48 1 43 1
M  V30 49 1 44 6
M  V30 50 1 45 7
M  V30 51 1 46 8
M  V30 52 1 47 13
M  V30 53 1 48 15
M  V30 54 1 49 25
M  V30 55 1 50 25
M  V30 56 1 51 27
M  V30 57 1 52 28
M  V30 58 1 53 30
M  V30 59 1 54 30
M  V30 60 1 55 30
M  V30 61 1 56 31
M  V30 62 1 57 32
M  V30 63 1 58 36
M  V30 64 1 59 37
M  V30 65 1 60 38
M  V30 66 1 61 39
M  V30 67 1 62 40
M  V30 END BOND
M  V30 END CTAB
M  END
>  <i_epik_Tot_Q>  (27) 
0

>  <i_epik_Tot_abs_Q>  (27) 
0

>  <i_f3d_flags>  (27) 
0

>  <i_lp_mmshare_version>  (27) 
71160

>  <i_lp_orig_ion_str>  (27) 
1

>  <i_m_source_file_index>  (27) 
22

>  <b_lp_Chiralities_Consistent>  (27) 
1

>  <r_epik_Charging_Adjusted_Penalty>  (27) 
0

>  <r_epik_Ionization_Penalty>  (27) 
1.4851555866089127e-08

>  <r_epik_Ionization_Penalty_Charging>  (27) 
0

>  <r_epik_Ionization_Penalty_Neutral>  (27) 
1.4851555866089127e-08

>  <r_epik_State_Penalty>  (27) 
-0

>  <r_lp_Energy>  (27) 
77.503833

>  <r_lp_tautomer_probability>  (27) 
1

>  <s_epik_cmdline>  (27) 
J2VwaWtfcHl0aG9uJywgJy1waHQnLCAnMC4yJywgJy1waCcsICc3LjQnLCAnLXJldGFpbl9pX2xhYicsICctcmV0YWluX3RfbGFiJywgJy10bicsICcxJywgJy1tYScsICc1MDAnLCAnLWltYWUnLCAnPGluZmlsZS5tYWU+JywgJy1vbWFlJywgJzxvdXRmaWxlLm1hZT4n

>  <s_epik_input>  (27) 
W0NIM11PYzFjKEYpW2NIXWMoW2NIXVtjSF0xKS1jMm5uKC1jM1tjSF1bY0hdW2NIXVtjSF1bY0hdMylbY0hdYzIvW0NIXT1jKFxzNCljKD1PKW4oYzQ1KW5jKGMobjUpPU8pW0NIMl1jNltjSF1bY0hdYyhbQ0gzXSlbY0hdW2NIXTY=

>  <s_lp_Force_Field>  (27) 
S-OPLS

>  <s_lp_Variant>  (27) 
RR21_Rahimova_2017-1

>  <s_lp_label>  (27) 
22

>  <s_m_source_file>  (27) 
montpellier_ligands.smi

$$$$
RR22_Rahimova_2017
     RDKit          3D

  0  0  0  0  0  0  0  0  0  0999 V3000
M  V30 BEGIN CTAB
M  V30 COUNTS 49 54 0 0 1
M  V30 BEGIN ATOM
M  V30 1 O -2.751520 5.077947 -0.868715 0
M  V30 2 C -2.823874 4.061373 -0.182827 0
M  V30 3 N -3.172983 2.787408 -0.595685 0
M  V30 4 S -2.479205 3.986945 1.601480 0
M  V30 5 C -2.972639 2.290591 1.711350 0
M  V30 6 C -3.149107 1.690791 0.323509 0 CFG=2
M  V30 7 N -2.063869 0.768323 -0.040628 0
M  V30 8 C -2.199688 -0.589918 0.392160 0 CFG=1
M  V30 9 C -3.531919 -1.120109 -0.089340 0
M  V30 10 C -3.777469 -2.454066 -0.429225 0
M  V30 11 C -5.053084 -2.860322 -0.823593 0
M  V30 12 C -6.099580 -1.938709 -0.865709 0
M  V30 13 C -5.875674 -0.610099 -0.506081 0
M  V30 14 C -4.600841 -0.203869 -0.111770 0
M  V30 15 O -4.463978 1.129870 0.273013 0
M  V30 16 C -0.878486 -1.159984 -0.081154 0
M  V30 17 C -0.001690 0.091700 0.020084 0
M  V30 18 C 1.472784 0.033939 0.048052 0
M  V30 19 C 2.142559 -1.181716 -0.153012 0
M  V30 20 C 3.534024 -1.230619 -0.127034 0
M  V30 21 C 4.263042 -0.066666 0.100066 0
M  V30 22 C 3.612795 1.147617 0.300658 0
M  V30 23 C 2.221681 1.198968 0.274146 0
M  V30 24 N -0.715677 1.154248 0.048833 0
M  V30 25 C -3.242501 1.609003 2.848809 0
M  V30 26 C -3.099195 2.058757 4.246937 0
M  V30 27 C -2.036417 2.859463 4.689675 0
M  V30 28 C -1.964764 3.246168 6.029208 0
M  V30 29 C -2.965004 2.813920 6.900120 0
M  V30 30 N -4.000427 2.032583 6.502292 0
M  V30 31 C -4.051507 1.667531 5.195386 0
M  V30 32 H -3.490767 2.617956 -1.538228 0
M  V30 33 H -2.210980 -0.613482 1.483458 0
M  V30 34 H -2.976518 -3.177876 -0.392660 0
M  V30 35 H -5.231659 -3.891290 -1.091547 0
M  V30 36 H -7.086693 -2.256413 -1.167312 0
M  V30 37 H -6.691254 0.098205 -0.523326 0
M  V30 38 H -0.567529 -1.986035 0.559098 0
M  V30 39 H -0.906968 -1.503751 -1.116756 0
M  V30 40 H 1.602675 -2.099352 -0.336028 0
M  V30 41 H 4.045698 -2.168726 -0.284083 0
M  V30 42 H 5.342280 -0.105731 0.120268 0
M  V30 43 H 4.184756 2.046891 0.476262 0
M  V30 44 H 1.736905 2.151987 0.433734 0
M  V30 45 H -3.586971 0.590183 2.746239 0
M  V30 46 H -1.258270 3.172794 4.009770 0
M  V30 47 H -1.151464 3.862266 6.383318 0
M  V30 48 H -2.943662 3.090868 7.943992 0
M  V30 49 H -4.889367 1.046110 4.913778 0
M  V30 END ATOM
M  V30 BEGIN BOND
M  V30 1 2 2 1
M  V30 2 1 3 2
M  V30 3 1 4 2
M  V30 4 1 5 4
M  V30 5 1 6 5
M  V30 6 1 6 3
M  V30 7 1 7 6
M  V30 8 1 8 7
M  V30 9 1 9 8
M  V30 10 2 10 9
M  V30 11 1 11 10
M  V30 12 2 12 11
M  V30 13 1 13 12
M  V30 14 2 14 13
M  V30 15 1 14 9
M  V30 16 1 15 14
M  V30 17 1 6 15 CFG=1
M  V30 18 1 16 8
M  V30 19 1 17 16
M  V30 20 1 18 17
M  V30 21 2 19 18
M  V30 22 1 20 19
M  V30 23 2 21 20
M  V30 24 1 22 21
M  V30 25 2 23 22
M  V30 26 1 23 18
M  V30 27 2 24 17
M  V30 28 1 24 7
M  V30 29 2 25 5
M  V30 30 1 26 25
M  V30 31 2 27 26
M  V30 32 1 28 27
M  V30 33 2 29 28
M  V30 34 1 30 29
M  V30 35 2 31 30
M  V30 36 1 31 26
M  V30 37 1 32 3
M  V30 38 1 8 33 CFG=1
M  V30 39 1 34 10
M  V30 40 1 35 11
M  V30 41 1 36 12
M  V30 42 1 37 13
M  V30 43 1 38 16
M  V30 44 1 39 16
M  V30 45 1 40 19
M  V30 46 1 41 20
M  V30 47 1 42 21
M  V30 48 1 43 22
M  V30 49 1 44 23
M  V30 50 1 45 25
M  V30 51 1 46 27
M  V30 52 1 47 28
M  V30 53 1 48 29
M  V30 54 1 49 31
M  V30 END BOND
M  V30 END CTAB
M  END
>  <i_epik_Tot_Q>  (28) 
0

>  <i_epik_Tot_abs_Q>  (28) 
0

>  <i_f3d_flags>  (28) 
0

>  <i_lp_mmshare_version>  (28) 
71160

>  <i_lp_orig_ion_str>  (28) 
1

>  <i_m_source_file_index>  (28) 
23

>  <b_lp_Chiralities_Consistent>  (28) 
1

>  <r_epik_Charging_Adjusted_Penalty>  (28) 
0

>  <r_epik_Ionization_Penalty>  (28) 
0.00086733481442619097

>  <r_epik_Ionization_Penalty_Charging>  (28) 
0

>  <r_epik_Ionization_Penalty_Neutral>  (28) 
0.00086733481442619097

>  <r_epik_State_Penalty>  (28) 
-0

>  <r_lp_Energy>  (28) 
38.026496000000002

>  <r_lp_tautomer_probability>  (28) 
1

>  <s_epik_Chemistry_Notes>  (28) 
This compound has an imine and may undergo hydrolysis.

>  <s_epik_cmdline>  (28) 
J2VwaWtfcHl0aG9uJywgJy1waHQnLCAnMC4yJywgJy1waCcsICc3LjQnLCAnLXJldGFpbl9pX2xhYicsICctcmV0YWluX3RfbGFiJywgJy10bicsICcxJywgJy1tYScsICc1MDAnLCAnLWltYWUnLCAnPGluZmlsZS5tYWU+JywgJy1vbWFlJywgJzxvdXRmaWxlLm1hZT4n

>  <s_epik_input>  (28) 
W2NIXTFuW2NIXVtjSF1bY0hdYzEvW0NIXT1DMlxTQyg9TylbTkhdW0NAQF0yM040W0NAQEhdKGM1YyhPMylbY0hdW2NIXVtjSF1bY0hdNSlbQ0gyXUMoPU40KWM2W2NIXVtjSF1bY0hdW2NIXVtjSF02

>  <s_lp_Force_Field>  (28) 
S-OPLS

>  <s_lp_Variant>  (28) 
RR22_Rahimova_2017-1

>  <s_lp_label>  (28) 
23

>  <s_m_source_file>  (28) 
montpellier_ligands.smi

$$$$
RR23_Rahimova_2017
     RDKit          3D

  0  0  0  0  0  0  0  0  0  0999 V3000
M  V30 BEGIN CTAB
M  V30 COUNTS 65 70 0 0 1
M  V30 BEGIN ATOM
M  V30 1 O -2.447921 2.181465 0.303950 0
M  V30 2 C -2.991142 1.600898 -0.640617 0
M  V30 3 N -3.115750 0.232988 -0.739500 0
M  V30 4 C -2.584163 -0.612678 0.352294 0
M  V30 5 C -1.152767 -1.050541 -0.002059 0
M  V30 6 N -0.167764 -0.221443 0.417772 0
M  V30 7 C 1.171507 -0.325596 0.208551 0
M  V30 8 N 1.811378 -1.294478 -0.314065 0
M  V30 9 C 3.229908 -1.021871 -0.394985 0 CFG=1
M  V30 10 C 3.879235 -1.688055 -1.618248 0
M  V30 11 C 5.225384 -2.066189 -1.552393 0
M  V30 12 C 5.856468 -2.656328 -2.647695 0
M  V30 13 C 5.127025 -2.925179 -3.813897 0
M  V30 14 N 5.553258 -3.440287 -5.059343 0
M  V30 15 C 6.673833 -4.187123 -5.287818 0
M  V30 16 C 6.929781 -4.735277 -6.673655 0
M  V30 17 C 7.281186 -6.081473 -6.828350 0
M  V30 18 C 7.538877 -6.599426 -8.094692 0
M  V30 19 C 7.459107 -5.771962 -9.215520 0
M  V30 20 C 7.750455 -6.333005 -10.595606 0
M  V30 21 C 7.138045 -4.422116 -9.066928 0
M  V30 22 C 6.879278 -3.904291 -7.800660 0
M  V30 23 O 7.508851 -4.431056 -4.414294 0
M  V30 24 C 4.389956 -3.500852 -5.958508 0
M  V30 25 C 3.301906 -2.661711 -5.309040 0
M  V30 26 C 3.801908 -2.496484 -3.905814 0
M  V30 27 C 3.178192 -1.886883 -2.817307 0
M  V30 28 C 3.500842 0.495626 -0.277742 0 CFG=1
M  V30 29 C 3.541043 1.295768 -1.597038 0
M  V30 30 S 2.130017 1.091067 0.728085 0
M  V30 31 O -0.987731 -2.098364 -0.632283 0
M  V30 32 N -3.709704 -0.453860 -1.791095 0
M  V30 33 N -4.213496 0.169986 -2.808282 0
M  V30 34 C -4.165478 1.564610 -2.860329 0
M  V30 35 C -4.715458 2.207109 -3.971631 0
M  V30 36 C -4.682339 3.600460 -4.053118 0
M  V30 37 C -4.101040 4.349820 -3.028132 0
M  V30 38 C -3.550199 3.710057 -1.915998 0
M  V30 39 C -3.584634 2.312532 -1.833596 0
M  V30 40 H -2.584364 -0.102002 1.318579 0
M  V30 41 H -3.213895 -1.486285 0.531752 0
M  V30 42 H -0.474855 0.604528 0.910359 0
M  V30 43 H 3.665675 -1.517451 0.477010 0
M  V30 44 H 5.794178 -1.888362 -0.651254 0
M  V30 45 H 6.903043 -2.904489 -2.559831 0
M  V30 46 H 7.348819 -6.735953 -5.970520 0
M  V30 47 H 7.799520 -7.642566 -8.200977 0
M  V30 48 H 8.262096 -5.593367 -11.212858 0
M  V30 49 H 6.825092 -6.618851 -11.096254 0
M  V30 50 H 8.407070 -7.202264 -10.540030 0
M  V30 51 H 7.091297 -3.772711 -9.929093 0
M  V30 52 H 6.647193 -2.853123 -7.702590 0
M  V30 53 H 4.535421 -3.331375 -7.024032 0
M  V30 54 H 4.051531 -4.536901 -5.893057 0
M  V30 55 H 3.254469 -1.692499 -5.806964 0
M  V30 56 H 2.317424 -3.118356 -5.416777 0
M  V30 57 H 2.158310 -1.542671 -2.908896 0
M  V30 58 H 4.424775 0.669966 0.275293 0
M  V30 59 H 4.390876 0.999812 -2.212642 0
M  V30 60 H 3.639157 2.365170 -1.407353 0
M  V30 61 H 2.636131 1.144863 -2.187326 0
M  V30 62 H -5.166267 1.635133 -4.770152 0
M  V30 63 H -5.106588 4.099878 -4.911572 0
M  V30 64 H -4.076774 5.427550 -3.096078 0
M  V30 65 H -3.102753 4.305288 -1.132447 0
M  V30 END ATOM
M  V30 BEGIN BOND
M  V30 1 2 2 1
M  V30 2 1 3 2
M  V30 3 1 4 3
M  V30 4 1 5 4
M  V30 5 1 6 5
M  V30 6 1 7 6
M  V30 7 2 8 7
M  V30 8 1 9 8
M  V30 9 1 10 9
M  V30 10 2 11 10
M  V30 11 1 12 11
M  V30 12 2 13 12
M  V30 13 1 14 13
M  V30 14 1 15 14
M  V30 15 1 16 15
M  V30 16 2 17 16
M  V30 17 1 18 17
M  V30 18 2 19 18
M  V30 19 1 20 19
M  V30 20 1 21 19
M  V30 21 2 22 21
M  V30 22 1 22 16
M  V30 23 2 23 15
M  V30 24 1 24 14
M  V30 25 1 25 24
M  V30 26 1 26 13
M  V30 27 1 26 25
M  V30 28 2 27 26
M  V30 29 1 27 10
M  V30 30 1 28 9
M  V30 31 1 29 28
M  V30 32 1 30 28
M  V30 33 1 30 7
M  V30 34 2 31 5
M  V30 35 1 32 3
M  V30 36 2 33 32
M  V30 37 1 34 33
M  V30 38 2 35 34
M  V30 39 1 36 35
M  V30 40 2 37 36
M  V30 41 1 38 37
M  V30 42 2 39 38
M  V30 43 1 39 2
M  V30 44 1 39 34
M  V30 45 1 40 4
M  V30 46 1 41 4
M  V30 47 1 42 6
M  V30 48 1 9 43 CFG=1
M  V30 49 1 44 11
M  V30 50 1 45 12
M  V30 51 1 46 17
M  V30 52 1 47 18
M  V30 53 1 48 20
M  V30 54 1 49 20
M  V30 55 1 50 20
M  V30 56 1 51 21
M  V30 57 1 52 22
M  V30 58 1 53 24
M  V30 59 1 54 24
M  V30 60 1 55 25
M  V30 61 1 56 25
M  V30 62 1 57 27
M  V30 63 1 28 58 CFG=1
M  V30 64 1 59 29
M  V30 65 1 60 29
M  V30 66 1 61 29
M  V30 67 1 62 35
M  V30 68 1 63 36
M  V30 69 1 64 37
M  V30 70 1 65 38
M  V30 END BOND
M  V30 END CTAB
M  END
>  <i_epik_Tot_Q>  (29) 
0

>  <i_epik_Tot_abs_Q>  (29) 
0

>  <i_f3d_flags>  (29) 
0

>  <i_lp_mmshare_version>  (29) 
71160

>  <i_lp_orig_ion_str>  (29) 
1

>  <i_m_source_file_index>  (29) 
24

>  <b_lp_Chiralities_Consistent>  (29) 
1

>  <r_epik_Charging_Adjusted_Penalty>  (29) 
2.7133892789029148e-12

>  <r_epik_Ionization_Penalty>  (29) 
0.0047158526429336772

>  <r_epik_Ionization_Penalty_Charging>  (29) 
2.7133892789029148e-12

>  <r_epik_Ionization_Penalty_Neutral>  (29) 
0.0047158526402202878

>  <r_epik_State_Penalty>  (29) 
-0

>  <r_lp_Energy>  (29) 
53.174602999999998

>  <r_lp_tautomer_probability>  (29) 
1

>  <s_epik_Chemistry_Notes>  (29) 
This compound has an imine and may undergo hydrolysis.

>  <s_epik_cmdline>  (29) 
J2VwaWtfcHl0aG9uJywgJy1waHQnLCAnMC4yJywgJy1waCcsICc3LjQnLCAnLXJldGFpbl9pX2xhYicsICctcmV0YWluX3RfbGFiJywgJy10bicsICcxJywgJy1tYScsICc1MDAnLCAnLWltYWUnLCAnPGluZmlsZS5tYWU+JywgJy1vbWFlJywgJzxvdXRmaWxlLm1hZT4n

>  <s_epik_input>  (29) 
W2NIXTFbY0hdW2NIXVtjSF1jKGMxMiljKD1PKW4obm4yKVtDSDJdQyg9TylbTkhdQzM9TltDQEhdKFtDQEhdKFMzKVtDSDNdKWMoW2NIXVtjSF00KVtjSF1jKGM0NSlbQ0gyXVtDSDJdTjVDKD1PKWM2W2NIXVtjSF1jKFtDSDNdKVtjSF1bY0hdNg==

>  <s_lp_Force_Field>  (29) 
S-OPLS

>  <s_lp_Variant>  (29) 
RR23_Rahimova_2017-1

>  <s_lp_label>  (29) 
24

>  <s_m_source_file>  (29) 
montpellier_ligands.smi

$$$$
RR24_Rahimova_2017
     RDKit          3D

  0  0  0  0  0  0  0  0  0  0999 V3000
M  V30 BEGIN CTAB
M  V30 COUNTS 65 71 0 0 1
M  V30 BEGIN ATOM
M  V30 1 O -6.123679 2.927706 -4.665764 0
M  V30 2 C -5.888983 2.147040 -3.742003 0
M  V30 3 N -5.061254 1.036541 -3.799862 0
M  V30 4 C -4.629569 0.612366 -5.148162 0
M  V30 5 C -4.498550 0.346433 -2.739728 0
M  V30 6 O -3.724475 -0.606786 -2.866992 0
M  V30 7 N -6.327035 2.447981 -2.489085 0
M  V30 8 C -5.831907 1.838963 -1.381444 0
M  V30 9 C -4.924403 0.829024 -1.421958 0
M  V30 10 C -4.401222 0.147899 -0.121853 0 CFG=1
M  V30 11 C -2.874338 0.086539 0.001135 0
M  V30 12 C -2.125012 1.267172 -0.023012 0
M  V30 13 C -0.740439 1.218535 0.106435 0
M  V30 14 C -0.099134 -0.010605 0.267912 0
M  V30 15 O 1.271764 -0.046808 0.384593 0
M  V30 16 C 1.840435 -0.184059 1.618542 0
M  V30 17 C 3.395645 -0.196526 1.560977 0 CFG=2
M  V30 18 N 4.015558 -0.092604 2.915059 0
M  V30 19 C 3.890427 0.977796 3.756981 0
M  V30 20 C 4.683397 0.625594 4.960603 0
M  V30 21 C 4.915904 1.331970 6.141807 0
M  V30 22 C 5.721891 0.746161 7.124241 0
M  V30 23 C 6.279279 -0.522273 6.916717 0
M  V30 24 C 6.035064 -1.213853 5.725162 0
M  V30 25 C 5.228182 -0.612992 4.757583 0
M  V30 26 C 4.798652 -1.088309 3.418555 0
M  V30 27 O 5.090036 -2.157018 2.879464 0
M  V30 28 O 3.257805 2.015679 3.557600 0
M  V30 29 C 3.974436 0.834078 0.581386 0
M  V30 30 O 1.221604 -0.311045 2.681033 0
M  V30 31 C -0.842407 -1.194268 0.272339 0
M  V30 32 C -2.227424 -1.144789 0.144737 0
M  V30 33 C -5.054068 0.814090 1.111651 0
M  V30 34 C -4.857672 0.495110 2.522363 0
M  V30 35 O -4.116595 -0.384231 2.959037 0
M  V30 36 C -5.941928 1.820452 1.011564 0
M  V30 37 N -6.334284 2.333235 -0.200441 0
M  V30 38 C -6.387713 2.249040 2.327180 0
M  V30 39 C -5.728026 1.444657 3.246975 0
M  V30 40 C -5.946136 1.609842 4.616338 0
M  V30 41 C -6.836013 2.595794 5.051350 0
M  V30 42 C -7.499350 3.405793 4.124337 0
M  V30 43 C -7.278186 3.235411 2.755193 0
M  V30 44 H -3.560747 0.393177 -5.173727 0
M  V30 45 H -4.794042 1.365201 -5.920608 0
M  V30 46 H -5.162827 -0.291636 -5.444585 0
M  V30 47 H -7.026268 3.171826 -2.413294 0
M  V30 48 H -4.757715 -0.883680 -0.154109 0
M  V30 49 H -2.617145 2.222115 -0.137182 0
M  V30 50 H -0.166773 2.133691 0.089673 0
M  V30 51 H 3.625648 -1.186865 1.164803 0
M  V30 52 H 4.489105 2.310611 6.307440 0
M  V30 53 H 5.914750 1.274400 8.046378 0
M  V30 54 H 6.900407 -0.968624 7.679381 0
M  V30 55 H 6.468384 -2.191494 5.570689 0
M  V30 56 H 3.646383 0.624534 -0.437548 0
M  V30 57 H 5.063959 0.786013 0.596503 0
M  V30 58 H 3.665999 1.845940 0.848677 0
M  V30 59 H -0.347202 -2.147860 0.384299 0
M  V30 60 H -2.794325 -2.064065 0.161140 0
M  V30 61 H -7.005683 3.086742 -0.228694 0
M  V30 62 H -5.440292 0.990419 5.342978 0
M  V30 63 H -7.012614 2.732341 6.108137 0
M  V30 64 H -8.185289 4.166167 4.467901 0
M  V30 65 H -7.794865 3.866127 2.046917 0
M  V30 END ATOM
M  V30 BEGIN BOND
M  V30 1 2 2 1
M  V30 2 1 3 2
M  V30 3 1 4 3
M  V30 4 1 5 3
M  V30 5 2 6 5
M  V30 6 1 7 2
M  V30 7 1 8 7
M  V30 8 2 9 8
M  V30 9 1 9 5
M  V30 10 1 10 9
M  V30 11 1 11 10
M  V30 12 2 12 11
M  V30 13 1 13 12
M  V30 14 2 14 13
M  V30 15 1 15 14
M  V30 16 1 16 15
M  V30 17 1 17 16
M  V30 18 1 18 17
M  V30 19 1 19 18
M  V30 20 1 20 19
M  V30 21 1 21 20
M  V30 22 2 22 21
M  V30 23 1 23 22
M  V30 24 2 24 23
M  V30 25 2 25 20
M  V30 26 1 25 24
M  V30 27 1 26 25
M  V30 28 1 26 18
M  V30 29 2 27 26
M  V30 30 2 28 19
M  V30 31 1 29 17
M  V30 32 2 30 16
M  V30 33 1 31 14
M  V30 34 2 32 31
M  V30 35 1 32 11
M  V30 36 1 33 10
M  V30 37 1 34 33
M  V30 38 2 35 34
M  V30 39 2 36 33
M  V30 40 1 37 36
M  V30 41 1 37 8
M  V30 42 1 38 36
M  V30 43 2 39 38
M  V30 44 1 39 34
M  V30 45 1 40 39
M  V30 46 2 41 40
M  V30 47 1 42 41
M  V30 48 2 43 42
M  V30 49 1 43 38
M  V30 50 1 44 4
M  V30 51 1 45 4
M  V30 52 1 46 4
M  V30 53 1 47 7
M  V30 54 1 10 48 CFG=3
M  V30 55 1 49 12
M  V30 56 1 50 13
M  V30 57 1 17 51 CFG=3
M  V30 58 1 52 21
M  V30 59 1 53 22
M  V30 60 1 54 23
M  V30 61 1 55 24
M  V30 62 1 56 29
M  V30 63 1 57 29
M  V30 64 1 58 29
M  V30 65 1 59 31
M  V30 66 1 60 32
M  V30 67 1 61 37
M  V30 68 1 62 40
M  V30 69 1 63 41
M  V30 70 1 64 42
M  V30 71 1 65 43
M  V30 END BOND
M  V30 END CTAB
M  END
>  <i_epik_Tot_Q>  (30) 
0

>  <i_epik_Tot_abs_Q>  (30) 
0

>  <i_f3d_flags>  (30) 
0

>  <i_lp_mmshare_version>  (30) 
71160

>  <i_lp_orig_ion_str>  (30) 
1

>  <i_m_source_file_index>  (30) 
25

>  <b_lp_Chiralities_Consistent>  (30) 
1

>  <r_epik_Charging_Adjusted_Penalty>  (30) 
31.078898365329522

>  <r_epik_Ionization_Penalty>  (30) 
16.094849350855533

>  <r_epik_Ionization_Penalty_Charging>  (30) 
16.094849350794938

>  <r_epik_Ionization_Penalty_Neutral>  (30) 
6.059389645341738e-11

>  <r_epik_State_Penalty>  (30) 
14.984049014534582

>  <r_lp_Energy>  (30) 
52.160803999999999

>  <r_lp_tautomer_probability>  (30) 
0.99999999999884315

>  <s_epik_Chemistry_Notes>  (30) 
This compound has an imine and may undergo hydrolysis.

>  <s_epik_cmdline>  (30) 
J2VwaWtfcHl0aG9uJywgJy1waHQnLCAnMC4yJywgJy1waCcsICc3LjQnLCAnLXJldGFpbl9pX2xhYicsICctcmV0YWluX3RfbGFiJywgJy10bicsICcxJywgJy1tYScsICc1MDAnLCAnLWltYWUnLCAnPGluZmlsZS5tYWU+JywgJy1vbWFlJywgJzxvdXRmaWxlLm1hZT4n

>  <s_epik_input>  (30) 
W2NIXTFbY0hdW2NIXVtjSF1jKEMyPU8pYzFDKFtOSF0zKT1DMltDQEBIXShjKGMzNCljKD1PKW4oW0NIM10pYyg9TylbbkhdNCljNVtjSF1bY0hdYyhbY0hdW2NIXTUpT0MoPU8pW0NAQEhdKFtDSDNdKU4oQzY9TylDKD1PKWMoYzY3KVtjSF1bY0hdW2NIXVtjSF03

>  <s_lp_Force_Field>  (30) 
S-OPLS

>  <s_lp_Variant>  (30) 
RR24_Rahimova_2017-1

>  <s_lp_label>  (30) 
25

>  <s_m_source_file>  (30) 
montpellier_ligands.smi

$$$$
RR24_Rahimova_2017
     RDKit          3D

  0  0  0  0  0  0  0  0  0  0999 V3000
M  V30 BEGIN CTAB
M  V30 COUNTS 63 69 0 0 1
M  V30 BEGIN ATOM
M  V30 1 O -6.180151 2.905884 -4.498372 0 CHG=-1
M  V30 2 C -5.745961 2.199118 -3.573285 0
M  V30 3 N -4.995561 1.040418 -3.766765 0
M  V30 4 C -4.622783 0.518089 -5.103364 0
M  V30 5 C -4.540400 0.270877 -2.713756 0
M  V30 6 O -3.894043 -0.773989 -2.842208 0
M  V30 7 N -6.055082 2.631363 -2.401939 0
M  V30 8 C -5.631010 1.942577 -1.301561 0
M  V30 9 C -4.894484 0.792270 -1.389623 0
M  V30 10 C -4.427560 0.050540 -0.115191 0 CFG=1
M  V30 11 C -2.899316 0.043009 0.022502 0
M  V30 12 C -2.187884 1.246487 0.087341 0
M  V30 13 C -0.801840 1.234393 0.211655 0
M  V30 14 C -0.120122 0.018243 0.281627 0
M  V30 15 O 1.252354 0.015037 0.386156 0
M  V30 16 C 1.835767 -0.167153 1.607199 0
M  V30 17 C 3.390904 -0.149597 1.537011 0 CFG=2
M  V30 18 N 4.017705 -0.052953 2.888301 0
M  V30 19 C 3.874052 1.001604 3.747289 0
M  V30 20 C 4.675659 0.645318 4.943970 0
M  V30 21 C 4.894502 1.336105 6.136846 0
M  V30 22 C 5.712759 0.750032 7.108798 0
M  V30 23 C 6.296426 -0.502708 6.879171 0
M  V30 24 C 6.065715 -1.178768 5.675987 0
M  V30 25 C 5.245516 -0.578289 4.719363 0
M  V30 26 C 4.822829 -1.040190 3.373464 0
M  V30 27 O 5.134732 -2.093853 2.816279 0
M  V30 28 O 3.221474 2.030377 3.565760 0
M  V30 29 C 3.945414 0.903491 0.567568 0
M  V30 30 O 1.230247 -0.352176 2.668674 0
M  V30 31 C -0.824968 -1.186074 0.204320 0
M  V30 32 C -2.211213 -1.172563 0.080812 0
M  V30 33 C -5.101454 0.691665 1.121356 0
M  V30 34 C -5.142479 0.331279 2.423238 0
M  V30 35 O -4.605494 -0.734655 2.910924 0 CHG=-1
M  V30 36 C -5.828553 1.944197 0.998270 0
M  V30 37 N -6.013268 2.522694 -0.129486 0
M  V30 38 C -6.265269 2.330664 2.327528 0
M  V30 39 C -5.858568 1.336788 3.206371 0
M  V30 40 C -6.157576 1.434966 4.570770 0
M  V30 41 C -6.868448 2.539836 5.042968 0
M  V30 42 C -7.278401 3.539376 4.158182 0
M  V30 43 C -6.979311 3.436397 2.797871 0
M  V30 44 H -3.537789 0.452422 -5.201437 0
M  V30 45 H -4.978764 1.139223 -5.925604 0
M  V30 46 H -5.037024 -0.480186 -5.254537 0
M  V30 47 H -4.775919 -0.982283 -0.182498 0
M  V30 48 H -2.711414 2.190224 0.039431 0
M  V30 49 H -0.258961 2.167191 0.258336 0
M  V30 50 H 3.634275 -1.130650 1.126260 0
M  V30 51 H 4.447507 2.302604 6.319453 0
M  V30 52 H 5.895167 1.265941 8.040076 0
M  V30 53 H 6.927303 -0.948687 7.633915 0
M  V30 54 H 6.519058 -2.144277 5.504596 0
M  V30 55 H 3.616607 0.699644 -0.452290 0
M  V30 56 H 5.035713 0.876410 0.577580 0
M  V30 57 H 3.617880 1.905314 0.849098 0
M  V30 58 H -0.299330 -2.128822 0.245601 0
M  V30 59 H -2.749216 -2.107641 0.028979 0
M  V30 60 H -5.845774 0.668361 5.264915 0
M  V30 61 H -7.101857 2.621216 6.094230 0
M  V30 62 H -7.829481 4.392205 4.526385 0
M  V30 63 H -7.305897 4.213612 2.122297 0
M  V30 END ATOM
M  V30 BEGIN BOND
M  V30 1 1 2 1
M  V30 2 1 3 2
M  V30 3 1 4 3
M  V30 4 1 5 3
M  V30 5 2 6 5
M  V30 6 2 7 2
M  V30 7 1 8 7
M  V30 8 2 9 8
M  V30 9 1 9 5
M  V30 10 1 10 9
M  V30 11 1 11 10
M  V30 12 2 12 11
M  V30 13 1 13 12
M  V30 14 2 14 13
M  V30 15 1 15 14
M  V30 16 1 16 15
M  V30 17 1 17 16
M  V30 18 1 18 17
M  V30 19 1 19 18
M  V30 20 1 20 19
M  V30 21 1 21 20
M  V30 22 2 22 21
M  V30 23 1 23 22
M  V30 24 2 24 23
M  V30 25 2 25 20
M  V30 26 1 25 24
M  V30 27 1 26 25
M  V30 28 1 26 18
M  V30 29 2 27 26
M  V30 30 2 28 19
M  V30 31 1 29 17
M  V30 32 2 30 16
M  V30 33 1 31 14
M  V30 34 2 32 31
M  V30 35 1 32 11
M  V30 36 1 33 10
M  V30 37 2 34 33
M  V30 38 1 35 34
M  V30 39 1 36 33
M  V30 40 2 37 36
M  V30 41 1 37 8
M  V30 42 1 38 36
M  V30 43 2 39 38
M  V30 44 1 39 34
M  V30 45 1 40 39
M  V30 46 2 41 40
M  V30 47 1 42 41
M  V30 48 2 43 42
M  V30 49 1 43 38
M  V30 50 1 44 4
M  V30 51 1 45 4
M  V30 52 1 46 4
M  V30 53 1 10 47 CFG=3
M  V30 54 1 48 12
M  V30 55 1 49 13
M  V30 56 1 17 50 CFG=3
M  V30 57 1 51 21
M  V30 58 1 52 22
M  V30 59 1 53 23
M  V30 60 1 54 24
M  V30 61 1 55 29
M  V30 62 1 56 29
M  V30 63 1 57 29
M  V30 64 1 58 31
M  V30 65 1 59 32
M  V30 66 1 60 40
M  V30 67 1 61 41
M  V30 68 1 62 42
M  V30 69 1 63 43
M  V30 END BOND
M  V30 END CTAB
M  END
>  <i_epik_Tot_Q>  (31) 
-2

>  <i_epik_Tot_abs_Q>  (31) 
2

>  <i_f3d_flags>  (31) 
0

>  <i_lp_mmshare_version>  (31) 
71160

>  <i_lp_orig_ion_str>  (31) 
1

>  <i_m_source_file_index>  (31) 
25

>  <b_lp_Chiralities_Consistent>  (31) 
1

>  <r_epik_Charging_Adjusted_Penalty>  (31) 
4.5002085918915022e-05

>  <r_epik_Ionization_Penalty>  (31) 
4.7057073578309483

>  <r_epik_Ionization_Penalty_Charging>  (31) 
4.5002079762843208e-05

>  <r_epik_Ionization_Penalty_Neutral>  (31) 
4.7056623557511852

>  <r_epik_State_Penalty>  (31) 
6.1560718168869765e-12

>  <r_lp_Energy>  (31) 
44.491490999999996

>  <s_epik_Chemistry_Notes>  (31) 
This compound has an imine and may undergo hydrolysis.

>  <s_epik_cmdline>  (31) 
J2VwaWtfcHl0aG9uJywgJy1waHQnLCAnMC4yJywgJy1waCcsICc3LjQnLCAnLXJldGFpbl9pX2xhYicsICctcmV0YWluX3RfbGFiJywgJy10bicsICcxJywgJy1tYScsICc1MDAnLCAnLWltYWUnLCAnPGluZmlsZS5tYWU+JywgJy1vbWFlJywgJzxvdXRmaWxlLm1hZT4n

>  <s_epik_input>  (31) 
W2NIXTFbY0hdW2NIXVtjSF1jKEMyPU8pYzFDKFtOSF0zKT1DMltDQEBIXShjKGMzNCljKD1PKW4oW0NIM10pYyg9TylbbkhdNCljNVtjSF1bY0hdYyhbY0hdW2NIXTUpT0MoPU8pW0NAQEhdKFtDSDNdKU4oQzY9TylDKD1PKWMoYzY3KVtjSF1bY0hdW2NIXVtjSF03

>  <s_lp_Force_Field>  (31) 
S-OPLS

>  <s_lp_Variant>  (31) 
RR24_Rahimova_2017-2

>  <s_lp_label>  (31) 
25

>  <s_m_source_file>  (31) 
montpellier_ligands.smi

$$$$
RR25_Rahimova_2017
     RDKit          3D

  0  0  0  0  0  0  0  0  0  0999 V3000
M  V30 BEGIN CTAB
M  V30 COUNTS 63 68 0 0 1
M  V30 BEGIN ATOM
M  V30 1 O -7.305354 8.207125 1.532054 0 CHG=-1
M  V30 2 N -7.196197 6.999525 1.337968 0 CHG=1
M  V30 3 C -5.929202 6.484877 0.763429 0
M  V30 4 C -4.870055 7.356339 0.467186 0
M  V30 5 C -3.682086 6.875672 -0.079713 0
M  V30 6 C -3.541462 5.514219 -0.342199 0
M  V30 7 O -2.332977 5.105002 -0.876839 0
M  V30 8 C -2.235659 3.968611 -1.642470 0
M  V30 9 C -3.460743 3.009085 -1.615509 0 CFG=1
M  V30 10 C -3.126874 1.516921 -1.907098 0
M  V30 11 N -2.136240 0.850082 -1.242420 0
M  V30 12 C -1.613102 1.291968 0.068260 0
M  V30 13 C -0.095415 1.020462 0.120137 0
M  V30 14 N 0.207040 -0.384561 -0.167825 0
M  V30 15 C 1.635931 -0.676031 0.011184 0
M  V30 16 C 1.961493 -1.260128 1.411792 0
M  V30 17 N 1.517009 -0.446220 2.581194 0
M  V30 18 C 0.339482 -0.840044 3.182388 0
M  V30 19 C -0.115826 0.050936 4.321817 0
M  V30 20 C -1.315830 -0.239255 4.983612 0
M  V30 21 C -1.768617 0.561860 6.030345 0
M  V30 22 C -1.040106 1.674299 6.447922 0
M  V30 23 C 0.178164 2.006444 5.808611 0
M  V30 24 C 0.966109 3.121590 6.180417 0
M  V30 25 C 2.155609 3.393270 5.506518 0
M  V30 26 C 2.589092 2.579546 4.461227 0
M  V30 27 C 1.841892 1.465229 4.058841 0
M  V30 28 C 2.340885 0.609428 2.910573 0
M  V30 29 O 3.395696 0.855531 2.315237 0
M  V30 30 C 0.630561 1.182173 4.741475 0
M  V30 31 O -0.311728 -1.826130 2.821182 0
M  V30 32 C -0.248895 -0.724766 -1.516589 0
M  V30 33 C -1.774659 -0.520200 -1.673161 0
M  V30 34 O -3.728640 1.001204 -2.853412 0
M  V30 35 C -4.349468 3.147117 -0.347367 0
M  V30 36 O -1.181350 3.816991 -2.259005 0
M  V30 37 C -4.573847 4.615969 -0.037829 0
M  V30 38 C -5.762197 5.115135 0.503238 0
M  V30 39 O -8.091177 6.200431 1.598750 0
M  V30 40 H -4.959493 8.415979 0.657590 0
M  V30 41 H -2.877773 7.561881 -0.302537 0
M  V30 42 H -4.056643 3.329570 -2.473012 0
M  V30 43 H -1.758967 2.348480 0.274554 0
M  V30 44 H -2.085329 0.714524 0.864226 0
M  V30 45 H 0.408136 1.640923 -0.624369 0
M  V30 46 H 0.288079 1.316860 1.094200 0
M  V30 47 H 1.960023 -1.423503 -0.715059 0
M  V30 48 H 2.250765 0.201273 -0.198052 0
M  V30 49 H 1.548112 -2.268924 1.456846 0
M  V30 50 H 3.036856 -1.436112 1.476603 0
M  V30 51 H -1.915439 -1.090675 4.693674 0
M  V30 52 H -2.697663 0.317071 6.523991 0
M  V30 53 H -1.402317 2.288386 7.259885 0
M  V30 54 H 0.639724 3.760988 6.988112 0
M  V30 55 H 2.749503 4.247380 5.797063 0
M  V30 56 H 3.516875 2.831177 3.966704 0
M  V30 57 H 0.280508 -0.084587 -2.225580 0
M  V30 58 H 0.004680 -1.760317 -1.747862 0
M  V30 59 H -2.033721 -0.723128 -2.713438 0
M  V30 60 H -2.278970 -1.243611 -1.031239 0
M  V30 61 H -5.307026 2.643976 -0.495376 0
M  V30 62 H -3.892177 2.680616 0.524913 0
M  V30 63 H -6.560895 4.421195 0.723353 0
M  V30 END ATOM
M  V30 BEGIN BOND
M  V30 1 1 2 1
M  V30 2 1 3 2
M  V30 3 2 4 3
M  V30 4 1 5 4
M  V30 5 2 6 5
M  V30 6 1 7 6
M  V30 7 1 8 7
M  V30 8 1 9 8
M  V30 9 1 10 9
M  V30 10 1 11 10
M  V30 11 1 12 11
M  V30 12 1 13 12
M  V30 13 1 14 13
M  V30 14 1 15 14
M  V30 15 1 16 15
M  V30 16 1 17 16
M  V30 17 1 18 17
M  V30 18 1 19 18
M  V30 19 2 20 19
M  V30 20 1 21 20
M  V30 21 2 22 21
M  V30 22 1 23 22
M  V30 23 2 24 23
M  V30 24 1 25 24
M  V30 25 2 26 25
M  V30 26 1 27 26
M  V30 27 1 28 27
M  V30 28 1 28 17
M  V30 29 2 29 28
M  V30 30 2 30 27
M  V30 31 1 30 19
M  V30 32 1 30 23
M  V30 33 2 31 18
M  V30 34 1 32 14
M  V30 35 1 33 32
M  V30 36 1 33 11
M  V30 37 2 34 10
M  V30 38 1 35 9
M  V30 39 2 36 8
M  V30 40 1 37 6
M  V30 41 1 37 35
M  V30 42 2 38 37
M  V30 43 1 38 3
M  V30 44 2 39 2
M  V30 45 1 40 4
M  V30 46 1 41 5
M  V30 47 1 9 42 CFG=3
M  V30 48 1 43 12
M  V30 49 1 44 12
M  V30 50 1 45 13
M  V30 51 1 46 13
M  V30 52 1 47 15
M  V30 53 1 48 15
M  V30 54 1 49 16
M  V30 55 1 50 16
M  V30 56 1 51 20
M  V30 57 1 52 21
M  V30 58 1 53 22
M  V30 59 1 54 24
M  V30 60 1 55 25
M  V30 61 1 56 26
M  V30 62 1 57 32
M  V30 63 1 58 32
M  V30 64 1 59 33
M  V30 65 1 60 33
M  V30 66 1 61 35
M  V30 67 1 62 35
M  V30 68 1 63 38
M  V30 END BOND
M  V30 END CTAB
M  END
>  <i_epik_Tot_Q>  (32) 
0

>  <i_epik_Tot_abs_Q>  (32) 
2

>  <i_f3d_flags>  (32) 
0

>  <i_lp_mmshare_version>  (32) 
71160

>  <i_lp_orig_ion_str>  (32) 
1

>  <i_m_source_file_index>  (32) 
26

>  <b_lp_Chiralities_Consistent>  (32) 
1

>  <r_epik_Charging_Adjusted_Penalty>  (32) 
0.022714083739736407

>  <r_epik_Ionization_Penalty>  (32) 
0.035901933628975868

>  <r_epik_Ionization_Penalty_Charging>  (32) 
0

>  <r_epik_Ionization_Penalty_Neutral>  (32) 
0.035901933628975868

>  <r_epik_State_Penalty>  (32) 
0.022714083739736407

>  <r_lp_Energy>  (32) 
81.663710999999992

>  <s_epik_cmdline>  (32) 
J2VwaWtfcHl0aG9uJywgJy1waHQnLCAnMC4yJywgJy1waCcsICc3LjQnLCAnLXJldGFpbl9pX2xhYicsICctcmV0YWluX3RfbGFiJywgJy10bicsICcxJywgJy1tYScsICc1MDAnLCAnLWltYWUnLCAnPGluZmlsZS5tYWU+JywgJy1vbWFlJywgJzxvdXRmaWxlLm1hZT4n

>  <s_epik_input>  (32) 
W08tXVtOK10oPU8pYyhbY0hdW2NIXTEpW2NIXWMoYzEyKVtDSDJdW0NAQEhdKEMoTzIpPU8pQyg9TylOM1tDSDJdW0NIMl1OKFtDSDJdW0NIMl0zKVtDSDJdW0NIMl1OKEM0PU8pQyg9TyljNVtjSF1bY0hdW2NIXWMoYzVjNDYpW2NIXVtjSF1bY0hdNg==

>  <s_lp_Force_Field>  (32) 
S-OPLS

>  <s_lp_Variant>  (32) 
RR25_Rahimova_2017-1

>  <s_lp_label>  (32) 
26

>  <s_m_source_file>  (32) 
montpellier_ligands.smi

$$$$
RR26_Rahimova_2017
     RDKit          3D

  0  0  0  0  0  0  0  0  0  0999 V3000
M  V30 BEGIN CTAB
M  V30 COUNTS 59 65 0 0 1
M  V30 BEGIN ATOM
M  V30 1 O -2.473985 0.655511 1.524702 0
M  V30 2 C -1.821613 1.541515 0.969804 0
M  V30 3 C -0.407637 1.555124 0.607184 0
M  V30 4 S 0.078013 3.091782 -0.202085 0
M  V30 5 C 0.366848 0.481146 0.877275 0
M  V30 6 C 1.780579 0.300644 0.589589 0
M  V30 7 C 2.470884 -0.892429 0.276174 0
M  V30 8 C 1.908595 -2.269911 0.107861 0
M  V30 9 C 0.672125 -2.460130 -0.526601 0
M  V30 10 C 0.138408 -3.740033 -0.685489 0
M  V30 11 C 0.839847 -4.844254 -0.206368 0
M  V30 12 O 0.299383 -6.095187 -0.425788 0
M  V30 13 C 0.860360 -7.125766 0.393908 0
M  V30 14 C 2.402623 -7.008107 0.435116 0
M  V30 15 O 2.796139 -5.728822 0.942608 0
M  V30 16 C 2.086401 -4.669499 0.413616 0
M  V30 17 C 2.613533 -3.388801 0.575707 0
M  V30 18 N 3.764964 -0.687503 0.127470 0
M  V30 19 C 2.790293 1.251015 0.625156 0
M  V30 20 N 3.971918 0.622765 0.323940 0
M  V30 21 C 5.270557 1.188460 0.245698 0
M  V30 22 C 6.412065 0.393649 0.434433 0
M  V30 23 C 7.680704 0.962170 0.357587 0
M  V30 24 C 7.813592 2.322272 0.090505 0
M  V30 25 C 6.688921 3.120795 -0.100631 0
M  V30 26 C 5.418507 2.556613 -0.022819 0
M  V30 27 N -2.352904 2.774882 0.560657 0
M  V30 28 C -1.540963 3.663809 -0.039483 0
M  V30 29 N -2.184843 4.755357 -0.355450 0
M  V30 30 C -3.415268 4.482432 0.072212 0
M  V30 31 C -4.546186 5.460554 -0.059247 0
M  V30 32 C -5.391856 5.627622 1.047660 0
M  V30 33 C -6.454530 6.528008 1.009053 0
M  V30 34 C -6.690645 7.274626 -0.141328 0
M  V30 35 C -5.866511 7.116355 -1.253023 0
M  V30 36 C -4.795520 6.215641 -1.225693 0
M  V30 37 C -3.958002 6.053834 -2.488152 0
M  V30 38 N -3.578525 3.299175 0.644146 0
M  V30 39 H -0.070958 -0.387188 1.352096 0
M  V30 40 H 0.119490 -1.615508 -0.911132 0
M  V30 41 H -0.811382 -3.871722 -1.182979 0
M  V30 42 H 0.465492 -7.034704 1.407369 0
M  V30 43 H 0.558976 -8.099055 0.006032 0
M  V30 44 H 2.831133 -7.791591 1.060582 0
M  V30 45 H 2.800463 -7.132931 -0.573521 0
M  V30 46 H 3.564943 -3.265792 1.073231 0
M  V30 47 H 2.763700 2.306743 0.849171 0
M  V30 48 H 6.327610 -0.662775 0.645677 0
M  V30 49 H 8.558764 0.350501 0.504855 0
M  V30 50 H 8.798355 2.761683 0.029732 0
M  V30 51 H 6.801646 4.174373 -0.310511 0
M  V30 52 H 4.559522 3.191789 -0.182601 0
M  V30 53 H -5.223897 5.062530 1.953469 0
M  V30 54 H -7.093339 6.647198 1.871817 0
M  V30 55 H -7.514529 7.972305 -0.173887 0
M  V30 56 H -6.068394 7.696283 -2.142060 0
M  V30 57 H -4.465938 6.450952 -3.367796 0
M  V30 58 H -3.768981 4.999092 -2.689391 0
M  V30 59 H -2.997021 6.556896 -2.379350 0
M  V30 END ATOM
M  V30 BEGIN BOND
M  V30 1 2 2 1
M  V30 2 1 3 2
M  V30 3 1 4 3
M  V30 4 2 5 3
M  V30 5 1 6 5
M  V30 6 1 7 6
M  V30 7 1 8 7
M  V30 8 2 9 8
M  V30 9 1 10 9
M  V30 10 2 11 10
M  V30 11 1 12 11
M  V30 12 1 13 12
M  V30 13 1 14 13
M  V30 14 1 15 14
M  V30 15 1 16 11
M  V30 16 1 16 15
M  V30 17 2 17 16
M  V30 18 1 17 8
M  V30 19 2 18 7
M  V30 20 2 19 6
M  V30 21 1 20 19
M  V30 22 1 20 18
M  V30 23 1 21 20
M  V30 24 2 22 21
M  V30 25 1 23 22
M  V30 26 2 24 23
M  V30 27 1 25 24
M  V30 28 2 26 25
M  V30 29 1 26 21
M  V30 30 1 27 2
M  V30 31 1 28 27
M  V30 32 1 28 4
M  V30 33 2 29 28
M  V30 34 1 30 29
M  V30 35 1 31 30
M  V30 36 2 32 31
M  V30 37 1 33 32
M  V30 38 2 34 33
M  V30 39 1 35 34
M  V30 40 2 36 35
M  V30 41 1 36 31
M  V30 42 1 37 36
M  V30 43 2 38 30
M  V30 44 1 38 27
M  V30 45 1 39 5
M  V30 46 1 40 9
M  V30 47 1 41 10
M  V30 48 1 42 13
M  V30 49 1 43 13
M  V30 50 1 44 14
M  V30 51 1 45 14
M  V30 52 1 46 17
M  V30 53 1 47 19
M  V30 54 1 48 22
M  V30 55 1 49 23
M  V30 56 1 50 24
M  V30 57 1 51 25
M  V30 58 1 52 26
M  V30 59 1 53 32
M  V30 60 1 54 33
M  V30 61 1 55 34
M  V30 62 1 56 35
M  V30 63 1 57 37
M  V30 64 1 58 37
M  V30 65 1 59 37
M  V30 END BOND
M  V30 END CTAB
M  END
>  <i_epik_Tot_Q>  (33) 
0

>  <i_epik_Tot_abs_Q>  (33) 
0

>  <i_f3d_flags>  (33) 
0

>  <i_lp_mmshare_version>  (33) 
71160

>  <i_lp_orig_ion_str>  (33) 
1

>  <i_m_source_file_index>  (33) 
27

>  <b_lp_Chiralities_Consistent>  (33) 
1

>  <r_epik_Charging_Adjusted_Penalty>  (33) 
0

>  <r_epik_Ionization_Penalty>  (33) 
1.2599890495396854e-09

>  <r_epik_Ionization_Penalty_Charging>  (33) 
0

>  <r_epik_Ionization_Penalty_Neutral>  (33) 
1.2599890495396854e-09

>  <r_epik_State_Penalty>  (33) 
-0

>  <r_lp_Energy>  (33) 
52.063438999999995

>  <r_lp_tautomer_probability>  (33) 
1

>  <s_epik_cmdline>  (33) 
J2VwaWtfcHl0aG9uJywgJy1waHQnLCAnMC4yJywgJy1waCcsICc3LjQnLCAnLXJldGFpbl9pX2xhYicsICctcmV0YWluX3RfbGFiJywgJy10bicsICcxJywgJy1tYScsICc1MDAnLCAnLWltYWUnLCAnPGluZmlsZS5tYWU+JywgJy1vbWFlJywgJzxvdXRmaWxlLm1hZT4n

>  <s_epik_input>  (33) 
W0NIM11jMVtjSF1bY0hdW2NIXVtjSF1jMS1jKG4yKW5jKG4yMylzYyhcYzM9Tyk9W0NIXS9jNGMoLWMoW2NIXVtjSF01KVtjSF1jKGM1NilPW0NIMl1bQ0gyXU82KW5uKFtjSF00KS1jN1tjSF1bY0hdW2NIXVtjSF1bY0hdNw==

>  <s_lp_Force_Field>  (33) 
S-OPLS

>  <s_lp_Variant>  (33) 
RR26_Rahimova_2017-1

>  <s_lp_label>  (33) 
27

>  <s_m_source_file>  (33) 
montpellier_ligands.smi

$$$$
RR27_Rahimova_2017
     RDKit          3D

  0  0  0  0  0  0  0  0  0  0999 V3000
M  V30 BEGIN CTAB
M  V30 COUNTS 66 71 0 0 1
M  V30 BEGIN ATOM
M  V30 1 O -2.851833 2.477950 0.375839 0
M  V30 2 C -2.124415 1.331821 0.192858 0
M  V30 3 N -0.765374 1.270737 0.257442 0
M  V30 4 C -0.151224 0.069337 0.051778 0
M  V30 5 C 1.387805 0.068289 0.105999 0
M  V30 6 C 2.057271 -1.279863 -0.311623 0
M  V30 7 C 3.598666 -1.194440 -0.351457 0
M  V30 8 N 3.940630 -0.076236 -1.242922 0
M  V30 9 C 4.081115 -0.207105 -2.592961 0
M  V30 10 C 4.330601 -1.615394 -3.208500 0
M  V30 11 C 5.768142 -2.124373 -2.989424 0
M  V30 12 C 6.883710 -1.293062 -3.172408 0
M  V30 13 C 8.169006 -1.784906 -2.963210 0
M  V30 14 C 8.345390 -3.109428 -2.571388 0
M  V30 15 C 7.247754 -3.946492 -2.388141 0
M  V30 16 C 5.962515 -3.454320 -2.597375 0
M  V30 17 C 3.825757 -1.701578 -4.660686 0
M  V30 18 C 4.679672 -1.491551 -5.752355 0
M  V30 19 C 4.187963 -1.566959 -7.052725 0
M  V30 20 C 2.840796 -1.846086 -7.267197 0
M  V30 21 C 1.979048 -2.046125 -6.192112 0
M  V30 22 C 2.471169 -1.970281 -4.892555 0
M  V30 23 O 4.152019 0.777314 -3.335178 0
M  V30 24 C 3.580618 1.225949 -0.659827 0
M  V30 25 C 2.033175 1.287681 -0.621438 0
M  V30 26 N -0.765388 -1.122920 -0.196942 0
M  V30 27 C -2.096126 -1.034190 -0.261917 0
M  V30 28 C -2.840562 0.150990 -0.080091 0
M  V30 29 N -4.168263 -0.134444 -0.215877 0
M  V30 30 N -4.272949 -1.486737 -0.478183 0
M  V30 31 N -3.033937 -2.021889 -0.511420 0
M  V30 32 C -2.849628 -3.451672 -0.745519 0
M  V30 33 C -1.863849 -3.766688 -1.863154 0
M  V30 34 C -0.536494 -4.092198 -1.561862 0
M  V30 35 C 0.372276 -4.361894 -2.585908 0
M  V30 36 Cl 2.013502 -4.738217 -2.206092 0
M  V30 37 C -0.045712 -4.319414 -3.916536 0
M  V30 38 C -1.367033 -3.994068 -4.223129 0
M  V30 39 C -2.273763 -3.715937 -3.199493 0
M  V30 40 H -3.797345 2.333558 0.294221 0
M  V30 41 H 1.581347 0.194912 1.172907 0
M  V30 42 H 1.807200 -2.054572 0.414373 0
M  V30 43 H 1.690969 -1.615457 -1.283697 0
M  V30 44 H 3.988725 -0.944987 0.636335 0
M  V30 45 H 4.121170 -2.119921 -0.592419 0
M  V30 46 H 3.681521 -2.306547 -2.671537 0
M  V30 47 H 6.759058 -0.265257 -3.481061 0
M  V30 48 H 9.025028 -1.141832 -3.105409 0
M  V30 49 H 9.342659 -3.491206 -2.409554 0
M  V30 50 H 7.392467 -4.973241 -2.085860 0
M  V30 51 H 5.117261 -4.112043 -2.454886 0
M  V30 52 H 5.724591 -1.266126 -5.605287 0
M  V30 53 H 4.848869 -1.406540 -7.891716 0
M  V30 54 H 2.460159 -1.902717 -8.276284 0
M  V30 55 H 0.933583 -2.255751 -6.364536 0
M  V30 56 H 1.795932 -2.114754 -4.061834 0
M  V30 57 H 3.992131 1.254873 0.350034 0
M  V30 58 H 4.067471 2.062355 -1.163813 0
M  V30 59 H 1.778857 2.208735 -0.095629 0
M  V30 60 H 1.646770 1.378810 -1.638085 0
M  V30 61 H -2.525773 -3.904847 0.192755 0
M  V30 62 H -3.813130 -3.909755 -0.980293 0
M  V30 63 H -0.205940 -4.121557 -0.533380 0
M  V30 64 H 0.654161 -4.528888 -4.712359 0
M  V30 65 H -1.687299 -3.954310 -5.253888 0
M  V30 66 H -3.293970 -3.459041 -3.446170 0
M  V30 END ATOM
M  V30 BEGIN BOND
M  V30 1 1 2 1
M  V30 2 2 3 2
M  V30 3 1 4 3
M  V30 4 1 5 4
M  V30 5 1 6 5
M  V30 6 1 7 6
M  V30 7 1 8 7
M  V30 8 1 9 8
M  V30 9 1 10 9
M  V30 10 1 11 10
M  V30 11 2 12 11
M  V30 12 1 13 12
M  V30 13 2 14 13
M  V30 14 1 15 14
M  V30 15 2 16 15
M  V30 16 1 16 11
M  V30 17 1 17 10
M  V30 18 2 18 17
M  V30 19 1 19 18
M  V30 20 2 20 19
M  V30 21 1 21 20
M  V30 22 2 22 21
M  V30 23 1 22 17
M  V30 24 2 23 9
M  V30 25 1 24 8
M  V30 26 1 25 24
M  V30 27 1 25 5
M  V30 28 2 26 4
M  V30 29 1 27 26
M  V30 30 2 28 27
M  V30 31 1 28 2
M  V30 32 1 29 28
M  V30 33 2 30 29
M  V30 34 1 31 30
M  V30 35 1 31 27
M  V30 36 1 32 31
M  V30 37 1 33 32
M  V30 38 2 34 33
M  V30 39 1 35 34
M  V30 40 1 36 35
M  V30 41 2 37 35
M  V30 42 1 38 37
M  V30 43 2 39 38
M  V30 44 1 39 33
M  V30 45 1 40 1
M  V30 46 1 41 5
M  V30 47 1 42 6
M  V30 48 1 43 6
M  V30 49 1 44 7
M  V30 50 1 45 7
M  V30 51 1 46 10
M  V30 52 1 47 12
M  V30 53 1 48 13
M  V30 54 1 49 14
M  V30 55 1 50 15
M  V30 56 1 51 16
M  V30 57 1 52 18
M  V30 58 1 53 19
M  V30 59 1 54 20
M  V30 60 1 55 21
M  V30 61 1 56 22
M  V30 62 1 57 24
M  V30 63 1 58 24
M  V30 64 1 59 25
M  V30 65 1 60 25
M  V30 66 1 61 32
M  V30 67 1 62 32
M  V30 68 1 63 34
M  V30 69 1 64 37
M  V30 70 1 65 38
M  V30 71 1 66 39
M  V30 END BOND
M  V30 END CTAB
M  END
>  <i_epik_Tot_Q>  (34) 
0

>  <i_epik_Tot_abs_Q>  (34) 
0

>  <i_f3d_flags>  (34) 
0

>  <i_lp_mmshare_version>  (34) 
71160

>  <i_lp_orig_ion_str>  (34) 
1

>  <i_m_source_file_index>  (34) 
28

>  <b_lp_Chiralities_Consistent>  (34) 
1

>  <r_epik_Charging_Adjusted_Penalty>  (34) 
18.716770777497782

>  <r_epik_Ionization_Penalty>  (34) 
14.883268343547496

>  <r_epik_Ionization_Penalty_Charging>  (34) 
0

>  <r_epik_Ionization_Penalty_Neutral>  (34) 
14.883268343547496

>  <r_epik_State_Penalty>  (34) 
18.716770777497782

>  <r_lp_Energy>  (34) 
48.494886999999999

>  <s_epik_cmdline>  (34) 
J2VwaWtfcHl0aG9uJywgJy1waHQnLCAnMC4yJywgJy1waCcsICc3LjQnLCAnLXJldGFpbl9pX2xhYicsICctcmV0YWluX3RfbGFiJywgJy10bicsICcxJywgJy1tYScsICc1MDAnLCAnLWltYWUnLCAnPGluZmlsZS5tYWU+JywgJy1vbWFlJywgJzxvdXRmaWxlLm1hZT4n

>  <s_epik_input>  (34) 
W2NIXTFbY0hdW2NIXWMoQ2wpW2NIXWMxW0NIMl1uMm5uYyhjMjMpYyhbT0hdKW5jKG4zKVtDSF00W0NIMl1bQ0gyXU4oW0NIMl1bQ0gyXTQpQyg9TylbQ0hdKGM1W2NIXVtjSF1bY0hdW2NIXVtjSF01KWM2W2NIXVtjSF1bY0hdW2NIXVtjSF02

>  <s_lp_Force_Field>  (34) 
S-OPLS

>  <s_lp_Variant>  (34) 
RR27_Rahimova_2017-1

>  <s_lp_label>  (34) 
28

>  <s_m_source_file>  (34) 
montpellier_ligands.smi

$$$$
RR27_Rahimova_2017
     RDKit          3D

  0  0  0  0  0  0  0  0  0  0999 V3000
M  V30 BEGIN CTAB
M  V30 COUNTS 66 71 0 0 1
M  V30 BEGIN ATOM
M  V30 1 O -3.271470 1.895385 -1.502725 0
M  V30 2 C -2.539670 1.096417 -0.922250 0
M  V30 3 N -1.180680 1.302081 -0.811631 0
M  V30 4 C -0.238345 0.487148 -0.193183 0
M  V30 5 C 1.227546 0.930953 -0.216332 0
M  V30 6 C 1.889597 0.969438 1.200785 0
M  V30 7 C 3.426800 0.800229 1.227980 0
M  V30 8 N 3.773042 -0.292251 0.308333 0
M  V30 9 C 3.761165 -1.611338 0.658585 0
M  V30 10 C 3.860385 -2.021915 2.158941 0
M  V30 11 C 5.313301 -2.040608 2.671019 0
M  V30 12 C 6.351305 -2.644865 1.945079 0
M  V30 13 C 7.652428 -2.640477 2.439977 0
M  V30 14 C 7.923409 -2.032544 3.662613 0
M  V30 15 C 6.904588 -1.428780 4.394428 0
M  V30 16 C 5.603624 -1.433357 3.898936 0
M  V30 17 C 3.081874 -3.318458 2.455630 0
M  V30 18 C 3.575589 -4.572906 2.069927 0
M  V30 19 C 2.844885 -5.728523 2.331404 0
M  V30 20 C 1.617799 -5.636693 2.982168 0
M  V30 21 C 1.113571 -4.398549 3.370314 0
M  V30 22 C 1.841093 -3.242274 3.102018 0
M  V30 23 O 3.822110 -2.501353 -0.194511 0
M  V30 24 C 3.572492 0.095199 -1.096415 0
M  V30 25 C 2.046381 0.212335 -1.335445 0
M  V30 26 N -0.582872 -0.617627 0.390197 0
M  V30 27 C -1.910759 -0.916141 0.342930 0
M  V30 28 C -2.902135 -0.158626 -0.263019 0
M  V30 29 N -4.077504 -0.746939 -0.128100 0
M  V30 30 N -3.876080 -1.923988 0.586395 0
M  V30 31 N -2.565020 -1.997101 0.873694 0
M  V30 32 C -2.020964 -3.134608 1.604121 0
M  V30 33 C -1.462142 -4.222021 0.697704 0
M  V30 34 C -0.176319 -4.102039 0.157790 0
M  V30 35 C 0.337320 -5.105975 -0.664252 0
M  V30 36 Cl 1.927396 -4.958164 -1.317463 0
M  V30 37 C -0.433538 -6.232283 -0.954048 0
M  V30 38 C -1.718063 -6.353606 -0.424161 0
M  V30 39 C -2.231687 -5.350988 0.398789 0
M  V30 40 H 1.292984 1.977125 -0.521085 0
M  V30 41 H 1.487032 1.756510 1.839377 0
M  V30 42 H 1.581036 0.062956 1.724948 0
M  V30 43 H 3.906979 1.701596 0.844928 0
M  V30 44 H 3.878256 0.691124 2.213857 0
M  V30 45 H 3.344697 -1.257652 2.737625 0
M  V30 46 H 6.157279 -3.119656 0.994814 0
M  V30 47 H 8.447937 -3.106572 1.877382 0
M  V30 48 H 8.932932 -2.029379 4.046814 0
M  V30 49 H 7.122436 -0.959781 5.342625 0
M  V30 50 H 4.820400 -0.963993 4.476364 0
M  V30 51 H 4.519929 -4.659434 1.554956 0
M  V30 52 H 3.226624 -6.691678 2.026449 0
M  V30 53 H 1.049778 -6.533148 3.182138 0
M  V30 54 H 0.157696 -4.334954 3.868750 0
M  V30 55 H 1.433225 -2.286490 3.397255 0
M  V30 56 H 4.057823 1.060730 -1.243569 0
M  V30 57 H 4.098959 -0.566655 -1.786153 0
M  V30 58 H 1.746893 0.505256 -2.342477 0
M  V30 59 H 1.755107 -0.840624 -1.303401 0
M  V30 60 H -1.240710 -2.767762 2.272769 0
M  V30 61 H -2.795397 -3.543632 2.256338 0
M  V30 62 H 0.429477 -3.235612 0.381850 0
M  V30 63 H -0.038135 -7.012208 -1.588206 0
M  V30 64 H -2.314522 -7.225334 -0.649107 0
M  V30 65 H -3.227372 -5.455014 0.805211 0
M  V30 66 H -0.846230 2.150109 -1.244768 0
M  V30 END ATOM
M  V30 BEGIN BOND
M  V30 1 2 2 1
M  V30 2 1 3 2
M  V30 3 1 4 3
M  V30 4 1 5 4
M  V30 5 1 6 5
M  V30 6 1 7 6
M  V30 7 1 8 7
M  V30 8 1 9 8
M  V30 9 1 10 9
M  V30 10 1 11 10
M  V30 11 2 12 11
M  V30 12 1 13 12
M  V30 13 2 14 13
M  V30 14 1 15 14
M  V30 15 2 16 15
M  V30 16 1 16 11
M  V30 17 1 17 10
M  V30 18 2 18 17
M  V30 19 1 19 18
M  V30 20 2 20 19
M  V30 21 1 21 20
M  V30 22 2 22 21
M  V30 23 1 22 17
M  V30 24 2 23 9
M  V30 25 1 24 8
M  V30 26 1 25 24
M  V30 27 1 25 5
M  V30 28 2 26 4
M  V30 29 1 27 26
M  V30 30 2 28 27
M  V30 31 1 28 2
M  V30 32 1 29 28
M  V30 33 2 30 29
M  V30 34 1 31 30
M  V30 35 1 31 27
M  V30 36 1 32 31
M  V30 37 1 33 32
M  V30 38 2 34 33
M  V30 39 1 35 34
M  V30 40 1 36 35
M  V30 41 2 37 35
M  V30 42 1 38 37
M  V30 43 2 39 38
M  V30 44 1 39 33
M  V30 45 1 40 5
M  V30 46 1 41 6
M  V30 47 1 42 6
M  V30 48 1 43 7
M  V30 49 1 44 7
M  V30 50 1 45 10
M  V30 51 1 46 12
M  V30 52 1 47 13
M  V30 53 1 48 14
M  V30 54 1 49 15
M  V30 55 1 50 16
M  V30 56 1 51 18
M  V30 57 1 52 19
M  V30 58 1 53 20
M  V30 59 1 54 21
M  V30 60 1 55 22
M  V30 61 1 56 24
M  V30 62 1 57 24
M  V30 63 1 58 25
M  V30 64 1 59 25
M  V30 65 1 60 32
M  V30 66 1 61 32
M  V30 67 1 62 34
M  V30 68 1 63 37
M  V30 69 1 64 38
M  V30 70 1 65 39
M  V30 71 1 66 3
M  V30 END BOND
M  V30 END CTAB
M  END
>  <i_epik_Tot_Q>  (35) 
0

>  <i_epik_Tot_abs_Q>  (35) 
0

>  <i_f3d_flags>  (35) 
0

>  <i_lp_mmshare_version>  (35) 
71160

>  <i_lp_orig_ion_str>  (35) 
1

>  <i_m_source_file_index>  (35) 
28

>  <b_lp_Chiralities_Consistent>  (35) 
1

>  <r_epik_Charging_Adjusted_Penalty>  (35) 
0.00091699905550932798

>  <r_epik_Ionization_Penalty>  (35) 
0.00091700123392729949

>  <r_epik_Ionization_Penalty_Charging>  (35) 
0.000916999055498014

>  <r_epik_Ionization_Penalty_Neutral>  (35) 
2.178429285519155e-09

>  <r_epik_State_Penalty>  (35) 
1.1314011053875745e-14

>  <r_lp_Energy>  (35) 
64.573026999999996

>  <s_epik_cmdline>  (35) 
J2VwaWtfcHl0aG9uJywgJy1waHQnLCAnMC4yJywgJy1waCcsICc3LjQnLCAnLXJldGFpbl9pX2xhYicsICctcmV0YWluX3RfbGFiJywgJy10bicsICcxJywgJy1tYScsICc1MDAnLCAnLWltYWUnLCAnPGluZmlsZS5tYWU+JywgJy1vbWFlJywgJzxvdXRmaWxlLm1hZT4n

>  <s_epik_input>  (35) 
W2NIXTFbY0hdW2NIXWMoQ2wpW2NIXWMxW0NIMl1uMm5uYyhjMjMpYyhbT0hdKW5jKG4zKVtDSF00W0NIMl1bQ0gyXU4oW0NIMl1bQ0gyXTQpQyg9TylbQ0hdKGM1W2NIXVtjSF1bY0hdW2NIXVtjSF01KWM2W2NIXVtjSF1bY0hdW2NIXVtjSF02

>  <s_lp_Force_Field>  (35) 
S-OPLS

>  <s_lp_Variant>  (35) 
RR27_Rahimova_2017-2

>  <s_lp_label>  (35) 
28

>  <s_m_source_file>  (35) 
montpellier_ligands.smi

$$$$
RR28_Rahimova_2017
     RDKit          3D

  0  0  0  0  0  0  0  0  0  0999 V3000
M  V30 BEGIN CTAB
M  V30 COUNTS 82 85 0 0 1
M  V30 BEGIN ATOM
M  V30 1 O 0.611429 0.986336 -0.628091 0
M  V30 2 C -0.344888 0.218884 -0.491957 0
M  V30 3 N -1.630553 0.630813 -0.661871 0
M  V30 4 C -1.939182 2.061964 -0.816730 0
M  V30 5 C -2.275981 2.593515 0.598500 0
M  V30 6 C -3.482469 1.847357 1.272833 0
M  V30 7 C -3.708771 2.240210 2.761347 0
M  V30 8 C -4.746717 1.631403 3.483070 0
M  V30 9 C -4.981971 1.960692 4.814018 0
M  V30 10 C -4.183996 2.910076 5.455115 0
M  V30 11 C -4.459527 3.263183 6.916094 0
M  V30 12 F -3.794025 4.351140 7.309316 0
M  V30 13 F -5.761472 3.487520 7.100397 0
M  V30 14 F -4.087263 2.244192 7.690898 0
M  V30 15 C -3.147988 3.525243 4.746702 0
M  V30 16 C -2.913624 3.194406 3.414887 0
M  V30 17 N -4.735366 2.107776 0.529216 0
M  V30 18 C -5.389010 3.277508 0.381057 0
M  V30 19 C -6.662262 3.238825 -0.457268 0
M  V30 20 O -5.018648 4.342397 0.873932 0
M  V30 21 C -3.161984 0.318240 1.197535 0
M  V30 22 C -2.784267 -0.168686 -0.224657 0
M  V30 23 C -0.063745 -1.288736 -0.283988 0
M  V30 24 C 1.426242 -1.680959 -0.086956 0
M  V30 25 C 2.041097 -1.261537 1.269422 0
M  V30 26 N 3.389595 -1.098799 1.378374 0
M  V30 27 C 4.266576 -0.840325 0.230284 0
M  V30 28 C 4.244267 0.686484 -0.007105 0
M  V30 29 C 4.665705 1.548959 1.232879 0
M  V30 30 C 6.228448 1.550301 1.293349 0
M  V30 31 C 6.949923 0.959965 2.343937 0
M  V30 32 C 8.341895 0.981850 2.358679 0
M  V30 33 C 9.049446 1.598302 1.323853 0
M  V30 34 C 10.577434 1.626647 1.324084 0
M  V30 35 F 11.051863 1.368926 0.103977 0
M  V30 36 F 10.991026 2.838235 1.695463 0
M  V30 37 F 11.097492 0.730574 2.165110 0
M  V30 38 C 8.345980 2.196473 0.277114 0
M  V30 39 C 6.955306 2.172307 0.264568 0
M  V30 40 N 4.226795 2.945220 1.024467 0
M  V30 41 C 4.418859 4.006928 1.832354 0
M  V30 42 C 3.830332 5.331607 1.358488 0
M  V30 43 O 5.026462 3.958553 2.901288 0
M  V30 44 C 3.995028 0.949139 2.528566 0
M  V30 45 C 3.972613 -0.599937 2.630148 0
M  V30 46 O 1.295023 -1.209441 2.250896 0
M  V30 47 H -1.157244 2.611982 -1.342775 0
M  V30 48 H -2.806195 2.141550 -1.474098 0
M  V30 49 H -1.375114 2.503770 1.208160 0
M  V30 50 H -2.478907 3.662053 0.522454 0
M  V30 51 H -5.384628 0.899747 3.009646 0
M  V30 52 H -5.788169 1.476224 5.345631 0
M  V30 53 H -2.517910 4.264097 5.219789 0
M  V30 54 H -2.109120 3.704584 2.909294 0
M  V30 55 H -5.123232 1.302923 0.059707 0
M  V30 56 H -6.858291 2.238379 -0.845158 0
M  V30 57 H -6.576229 3.922089 -1.302482 0
M  V30 58 H -7.517519 3.545295 0.145535 0
M  V30 59 H -2.354183 0.062329 1.886451 0
M  V30 60 H -4.023073 -0.266393 1.523520 0
M  V30 61 H -2.643803 -1.244135 -0.331107 0
M  V30 62 H -3.595326 0.045826 -0.921763 0
M  V30 63 H -0.676881 -1.738231 0.498283 0
M  V30 64 H -0.393234 -1.776320 -1.202532 0
M  V30 65 H 1.469488 -2.770678 -0.087936 0
M  V30 66 H 1.998494 -1.396358 -0.968490 0
M  V30 67 H 5.270087 -1.163194 0.511608 0
M  V30 68 H 4.050931 -1.463638 -0.636525 0
M  V30 69 H 4.879806 0.898956 -0.866804 0
M  V30 70 H 3.245802 0.973307 -0.339264 0
M  V30 71 H 6.459332 0.477405 3.172788 0
M  V30 72 H 8.863457 0.519076 3.183645 0
M  V30 73 H 8.874398 2.684171 -0.529068 0
M  V30 74 H 6.438528 2.646327 -0.557102 0
M  V30 75 H 3.685799 3.097662 0.185944 0
M  V30 76 H 3.323220 5.225606 0.398564 0
M  V30 77 H 4.619843 6.074993 1.247447 0
M  V30 78 H 3.108452 5.703277 2.085913 0
M  V30 79 H 4.459448 1.352541 3.428251 0
M  V30 80 H 2.962538 1.298523 2.591241 0
M  V30 81 H 4.979515 -1.011045 2.697009 0
M  V30 82 H 3.470300 -0.996890 3.513718 0
M  V30 END ATOM
M  V30 BEGIN BOND
M  V30 1 2 2 1
M  V30 2 1 3 2
M  V30 3 1 4 3
M  V30 4 1 5 4
M  V30 5 1 6 5
M  V30 6 1 7 6
M  V30 7 2 8 7
M  V30 8 1 9 8
M  V30 9 2 10 9
M  V30 10 1 11 10
M  V30 11 1 12 11
M  V30 12 1 13 11
M  V30 13 1 14 11
M  V30 14 1 15 10
M  V30 15 2 16 15
M  V30 16 1 16 7
M  V30 17 1 17 6
M  V30 18 1 18 17
M  V30 19 1 19 18
M  V30 20 2 20 18
M  V30 21 1 21 6
M  V30 22 1 22 21
M  V30 23 1 22 3
M  V30 24 1 23 2
M  V30 25 1 24 23
M  V30 26 1 25 24
M  V30 27 1 26 25
M  V30 28 1 27 26
M  V30 29 1 28 27
M  V30 30 1 29 28
M  V30 31 1 30 29
M  V30 32 2 31 30
M  V30 33 1 32 31
M  V30 34 2 33 32
M  V30 35 1 34 33
M  V30 36 1 35 34
M  V30 37 1 36 34
M  V30 38 1 37 34
M  V30 39 1 38 33
M  V30 40 2 39 38
M  V30 41 1 39 30
M  V30 42 1 40 29
M  V30 43 1 41 40
M  V30 44 1 42 41
M  V30 45 2 43 41
M  V30 46 1 44 29
M  V30 47 1 45 44
M  V30 48 1 45 26
M  V30 49 2 46 25
M  V30 50 1 47 4
M  V30 51 1 48 4
M  V30 52 1 49 5
M  V30 53 1 50 5
M  V30 54 1 51 8
M  V30 55 1 52 9
M  V30 56 1 53 15
M  V30 57 1 54 16
M  V30 58 1 55 17
M  V30 59 1 56 19
M  V30 60 1 57 19
M  V30 61 1 58 19
M  V30 62 1 59 21
M  V30 63 1 60 21
M  V30 64 1 61 22
M  V30 65 1 62 22
M  V30 66 1 63 23
M  V30 67 1 64 23
M  V30 68 1 65 24
M  V30 69 1 66 24
M  V30 70 1 67 27
M  V30 71 1 68 27
M  V30 72 1 69 28
M  V30 73 1 70 28
M  V30 74 1 71 31
M  V30 75 1 72 32
M  V30 76 1 73 38
M  V30 77 1 74 39
M  V30 78 1 75 40
M  V30 79 1 76 42
M  V30 80 1 77 42
M  V30 81 1 78 42
M  V30 82 1 79 44
M  V30 83 1 80 44
M  V30 84 1 81 45
M  V30 85 1 82 45
M  V30 END BOND
M  V30 END CTAB
M  END
>  <i_epik_Tot_Q>  (36) 
0

>  <i_epik_Tot_abs_Q>  (36) 
0

>  <i_f3d_flags>  (36) 
0

>  <i_lp_mmshare_version>  (36) 
71160

>  <i_lp_orig_ion_str>  (36) 
1

>  <i_m_source_file_index>  (36) 
29

>  <b_lp_Chiralities_Consistent>  (36) 
1

>  <r_epik_Charging_Adjusted_Penalty>  (36) 
0

>  <r_epik_Ionization_Penalty>  (36) 
2.7290389376190704e-07

>  <r_epik_Ionization_Penalty_Charging>  (36) 
0

>  <r_epik_Ionization_Penalty_Neutral>  (36) 
2.7290389376190704e-07

>  <r_epik_State_Penalty>  (36) 
-0

>  <r_lp_Energy>  (36) 
32.685542999999996

>  <r_lp_tautomer_probability>  (36) 
1

>  <s_epik_cmdline>  (36) 
J2VwaWtfcHl0aG9uJywgJy1waHQnLCAnMC4yJywgJy1waCcsICc3LjQnLCAnLXJldGFpbl9pX2xhYicsICctcmV0YWluX3RfbGFiJywgJy10bicsICcxJywgJy1tYScsICc1MDAnLCAnLWltYWUnLCAnPGluZmlsZS5tYWU+JywgJy1vbWFlJywgJzxvdXRmaWxlLm1hZT4n

>  <s_epik_input>  (36) 
RkMoRikoRiljKFtjSF1bY0hdMSlbY0hdW2NIXWMxQzIoW05IXUMoPU8pW0NIM10pW0NIMl1bQ0gyXU4oW0NIMl1bQ0gyXTIpQyg9TylbQ0gyXVtDSDJdQyg9TylOKFtDSDJdW0NIMl0zKVtDSDJdW0NIMl1DMyhbTkhdQyg9TylbQ0gzXSljNFtjSF1bY0hdYyhDKEYpKEYpRilbY0hdW2NIXTQ=

>  <s_lp_Force_Field>  (36) 
S-OPLS

>  <s_lp_Variant>  (36) 
RR28_Rahimova_2017-1

>  <s_lp_label>  (36) 
29

>  <s_m_source_file>  (36) 
montpellier_ligands.smi

$$$$
RR29_Rahimova_2017
     RDKit          3D

  0  0  0  0  0  0  0  0  0  0999 V3000
M  V30 BEGIN CTAB
M  V30 COUNTS 35 36 0 0 1
M  V30 BEGIN ATOM
M  V30 1 C -0.800825 -1.051535 -1.310850 0
M  V30 2 C -0.017287 0.155405 -0.817404 0
M  V30 3 C 1.510861 -0.015468 -0.969056 0
M  V30 4 C 2.114700 -0.818479 0.202190 0
M  V30 5 C 3.627074 -0.944140 0.095983 0
M  V30 6 C 4.192995 -2.003692 -0.633627 0
M  V30 7 C 5.580479 -2.070219 -0.709350 0
M  V30 8 O 6.355645 -3.002430 -1.322533 0
M  V30 9 C 7.667511 -2.510655 -1.248893 0
M  V30 10 O 7.683673 -1.476672 -0.300879 0
M  V30 11 C 6.381259 -1.150481 -0.093028 0
M  V30 12 C 5.853880 -0.095023 0.643185 0
M  V30 13 C 4.458138 0.002692 0.727357 0
M  V30 14 N -0.662812 1.151240 -0.333638 0
M  V30 15 N 0.047160 2.207645 0.191774 0
M  V30 16 C -0.517849 3.268638 0.791028 0
M  V30 17 N -1.829186 3.432963 0.973095 0
M  V30 18 N 0.284026 4.225193 1.235981 0 CHG=1
M  V30 19 H -0.529393 -1.949738 -0.755863 0
M  V30 20 H -0.603333 -1.239147 -2.366665 0
M  V30 21 H -1.878539 -0.917385 -1.201833 0
M  V30 22 H 1.733622 -0.509162 -1.916479 0
M  V30 23 H 2.012458 0.950326 -1.040990 0
M  V30 24 H 1.870407 -0.350126 1.157982 0
M  V30 25 H 1.687298 -1.821990 0.248302 0
M  V30 26 H 3.567879 -2.740171 -1.117315 0
M  V30 27 H 8.357747 -3.304752 -0.961585 0
M  V30 28 H 7.955438 -2.108611 -2.222369 0
M  V30 29 H 6.486916 0.627249 1.137310 0
M  V30 30 H 4.021372 0.815422 1.289474 0
M  V30 31 H 1.051024 2.176896 0.085758 0
M  V30 32 H -2.168097 4.065890 1.682755 0
M  V30 33 H -2.479436 2.910579 0.403276 0
M  V30 34 H 1.216092 4.318831 0.858750 0
M  V30 35 H -0.041264 4.863094 1.947900 0
M  V30 END ATOM
M  V30 BEGIN BOND
M  V30 1 1 2 1
M  V30 2 1 3 2
M  V30 3 1 4 3
M  V30 4 1 5 4
M  V30 5 2 6 5
M  V30 6 1 7 6
M  V30 7 1 8 7
M  V30 8 1 9 8
M  V30 9 1 10 9
M  V30 10 2 11 7
M  V30 11 1 11 10
M  V30 12 1 12 11
M  V30 13 2 13 12
M  V30 14 1 13 5
M  V30 15 2 14 2
M  V30 16 1 15 14
M  V30 17 1 16 15
M  V30 18 1 17 16
M  V30 19 2 18 16
M  V30 20 1 19 1
M  V30 21 1 20 1
M  V30 22 1 21 1
M  V30 23 1 22 3
M  V30 24 1 23 3
M  V30 25 1 24 4
M  V30 26 1 25 4
M  V30 27 1 26 6
M  V30 28 1 27 9
M  V30 29 1 28 9
M  V30 30 1 29 12
M  V30 31 1 30 13
M  V30 32 1 31 15
M  V30 33 1 32 17
M  V30 34 1 33 17
M  V30 35 1 34 18
M  V30 36 1 35 18
M  V30 END BOND
M  V30 END CTAB
M  END
>  <i_epik_Tot_Q>  (1) 
1

>  <i_epik_Tot_abs_Q>  (1) 
1

>  <i_f3d_flags>  (1) 
0

>  <i_lp_mmshare_version>  (1) 
71160

>  <i_lp_orig_ion_str>  (1) 
1

>  <i_m_source_file_index>  (1) 
30

>  <b_lp_Chiralities_Consistent>  (1) 
1

>  <r_epik_Charging_Adjusted_Penalty>  (1) 
1.6402327843656745

>  <r_epik_Ionization_Penalty>  (1) 
0.8205698181761415

>  <r_epik_Ionization_Penalty_Charging>  (1) 
0.82056981802914797

>  <r_epik_Ionization_Penalty_Neutral>  (1) 
1.4699347340947096e-10

>  <r_epik_State_Penalty>  (1) 
0.81966296633652658

>  <r_lp_Energy>  (1) 
28.078106999999999

>  <r_lp_tautomer_probability>  (1) 
1

>  <s_epik_Chemistry_Notes>  (1) 
This compound has an imine and may undergo hydrolysis. This compound contains an acetal/aminal-like group ( X-CH(R)-Y where X, Y are N, S, or O) that may be acid/base labile, releasing an aldehyde.

>  <s_epik_cmdline>  (1) 
J2VwaWtfcHl0aG9uJywgJy1waHQnLCAnMC4yJywgJy1waCcsICc3LjQnLCAnLXJldGFpbl9pX2xhYicsICctcmV0YWluX3RfbGFiJywgJy10bicsICcxJywgJy1tYScsICc1MDAnLCAnLWltYWUnLCAnPGluZmlsZS5tYWU+JywgJy1vbWFlJywgJzxvdXRmaWxlLm1hZT4n

>  <s_epik_input>  (1) 
W05IMl1DKD1bTkgyK10pW05IXVxOPUMoXFtDSDNdKVtDSDJdW0NIMl1jKFtjSF0xKVtjSF1bY0hdYyhjMTIpT1tDSDJdTzI=

>  <s_lp_Force_Field>  (1) 
S-OPLS

>  <s_lp_Variant>  (1) 
RR29_Rahimova_2017-1

>  <s_lp_label>  (1) 
30

>  <s_m_source_file>  (1) 
montpellier_ligands.smi

$$$$
RR29_Rahimova_2017
     RDKit          3D

  0  0  0  0  0  0  0  0  0  0999 V3000
M  V30 BEGIN CTAB
M  V30 COUNTS 34 35 0 0 1
M  V30 BEGIN ATOM
M  V30 1 C -0.776858 -1.281657 -0.196157 0
M  V30 2 C -0.065304 0.034511 -0.465491 0
M  V30 3 C 1.466111 -0.053048 -0.313845 0
M  V30 4 C 1.898432 0.086250 1.160529 0
M  V30 5 C 3.410974 0.083840 1.321497 0
M  V30 6 C 4.095648 -1.129407 1.506054 0
M  V30 7 C 5.479495 -1.078888 1.639213 0
M  V30 8 O 6.352041 -2.098461 1.851923 0
M  V30 9 C 7.630255 -1.532779 1.731840 0
M  V30 10 O 7.488236 -0.138587 1.793706 0
M  V30 11 C 6.164686 0.102856 1.603729 0
M  V30 12 C 5.517018 1.321311 1.430256 0
M  V30 13 C 4.123256 1.299105 1.282779 0
M  V30 14 N -0.759739 1.075078 -0.765338 0
M  V30 15 N -0.118209 2.182377 -0.958094 0
M  V30 16 C -0.344472 3.145394 -0.140666 0
M  V30 17 N -1.228612 3.159516 0.972527 0
M  V30 18 N 0.315282 4.385640 -0.271802 0
M  V30 19 H -0.438088 -2.055118 -0.885893 0
M  V30 20 H -1.858733 -1.195116 -0.310241 0
M  V30 21 H -0.584360 -1.631277 0.818166 0
M  V30 22 H 1.826252 -0.996163 -0.727358 0
M  V30 23 H 1.960816 0.717221 -0.907390 0
M  V30 24 H 1.506165 1.010146 1.590834 0
M  V30 25 H 1.482296 -0.720970 1.766108 0
M  V30 26 H 3.561098 -2.067324 1.542366 0
M  V30 27 H 8.282177 -1.887039 2.531049 0
M  V30 28 H 8.054033 -1.806607 0.763684 0
M  V30 29 H 6.057605 2.255939 1.408807 0
M  V30 30 H 3.593477 2.230067 1.140416 0
M  V30 31 H -1.792736 2.359429 1.219787 0
M  V30 32 H -1.346143 3.970276 1.561802 0
M  V30 33 H 0.979929 4.565450 -1.010115 0
M  V30 34 H 0.148670 5.157312 0.356935 0
M  V30 END ATOM
M  V30 BEGIN BOND
M  V30 1 1 2 1
M  V30 2 1 3 2
M  V30 3 1 4 3
M  V30 4 1 5 4
M  V30 5 2 6 5
M  V30 6 1 7 6
M  V30 7 1 8 7
M  V30 8 1 9 8
M  V30 9 1 10 9
M  V30 10 2 11 7
M  V30 11 1 11 10
M  V30 12 1 12 11
M  V30 13 2 13 12
M  V30 14 1 13 5
M  V30 15 2 14 2
M  V30 16 1 15 14
M  V30 17 2 16 15
M  V30 18 1 17 16
M  V30 19 1 18 16
M  V30 20 1 19 1
M  V30 21 1 20 1
M  V30 22 1 21 1
M  V30 23 1 22 3
M  V30 24 1 23 3
M  V30 25 1 24 4
M  V30 26 1 25 4
M  V30 27 1 26 6
M  V30 28 1 27 9
M  V30 29 1 28 9
M  V30 30 1 29 12
M  V30 31 1 30 13
M  V30 32 1 31 17
M  V30 33 1 32 17
M  V30 34 1 33 18
M  V30 35 1 34 18
M  V30 END BOND
M  V30 END CTAB
M  END
>  <i_epik_Tot_Q>  (2) 
0

>  <i_epik_Tot_abs_Q>  (2) 
0

>  <i_f3d_flags>  (2) 
0

>  <i_lp_mmshare_version>  (2) 
71160

>  <i_lp_orig_ion_str>  (2) 
1

>  <i_m_source_file_index>  (2) 
30

>  <b_lp_Chiralities_Consistent>  (2) 
1

>  <r_epik_Charging_Adjusted_Penalty>  (2) 
0.17101418536252377

>  <r_epik_Ionization_Penalty>  (2) 
0.17126342468851993

>  <r_epik_Ionization_Penalty_Charging>  (2) 
0

>  <r_epik_Ionization_Penalty_Neutral>  (2) 
0.17126342468851993

>  <r_epik_State_Penalty>  (2) 
0.17101418536252377

>  <r_lp_Energy>  (2) 
26.662056999999997

>  <r_lp_tautomer_probability>  (2) 
1

>  <s_epik_Chemistry_Notes>  (2) 
This compound has an imine and may undergo hydrolysis. This compound contains an acetal/aminal-like group ( X-CH(R)-Y where X, Y are N, S, or O) that may be acid/base labile, releasing an aldehyde.

>  <s_epik_cmdline>  (2) 
J2VwaWtfcHl0aG9uJywgJy1waHQnLCAnMC4yJywgJy1waCcsICc3LjQnLCAnLXJldGFpbl9pX2xhYicsICctcmV0YWluX3RfbGFiJywgJy10bicsICcxJywgJy1tYScsICc1MDAnLCAnLWltYWUnLCAnPGluZmlsZS5tYWU+JywgJy1vbWFlJywgJzxvdXRmaWxlLm1hZT4n

>  <s_epik_input>  (2) 
W05IMl1DKD1bTkgyK10pW05IXVxOPUMoXFtDSDNdKVtDSDJdW0NIMl1jKFtjSF0xKVtjSF1bY0hdYyhjMTIpT1tDSDJdTzI=

>  <s_lp_Force_Field>  (2) 
S-OPLS

>  <s_lp_Variant>  (2) 
RR29_Rahimova_2017-2

>  <s_lp_label>  (2) 
30

>  <s_m_source_file>  (2) 
montpellier_ligands.smi

$$$$
RR30_Rahimova_2017
     RDKit          3D

  0  0  0  0  0  0  0  0  0  0999 V3000
M  V30 BEGIN CTAB
M  V30 COUNTS 29 30 0 0 1
M  V30 BEGIN ATOM
M  V30 1 O -1.045883 1.587786 0.480740 0
M  V30 2 C -0.243779 1.367970 -0.429118 0
M  V30 3 N 0.108120 2.260773 -1.380898 0
M  V30 4 C -0.336367 3.571015 -1.486058 0
M  V30 5 N -1.101467 4.239994 -0.652509 0
M  V30 6 N -1.343062 5.537691 -1.085146 0
M  V30 7 C -0.760896 5.824037 -2.226932 0
M  V30 8 C -0.878750 7.170587 -2.901886 0
M  V30 9 S 0.154301 4.489568 -2.875051 0
M  V30 10 C 0.391713 -0.020028 -0.545978 0
M  V30 11 S 1.403937 -0.437547 0.908639 0
M  V30 12 C 1.815292 -2.108695 0.522028 0
M  V30 13 N 2.441498 -2.973419 1.280192 0
M  V30 14 N 2.537547 -4.143100 0.531250 0
M  V30 15 C 1.969788 -3.881308 -0.619833 0
M  V30 16 C 1.789602 -4.802989 -1.806126 0
M  V30 17 C 0.310107 -5.031423 -2.146491 0
M  V30 18 O 1.491274 -2.614148 -0.695592 0
M  V30 19 H 0.752685 1.954536 -2.094911 0
M  V30 20 H -1.479352 7.875546 -2.325139 0
M  V30 21 H -1.344448 7.085698 -3.883894 0
M  V30 22 H 0.098336 7.631279 -3.048181 0
M  V30 23 H -0.415059 -0.749094 -0.632013 0
M  V30 24 H 0.997027 -0.106806 -1.449999 0
M  V30 25 H 2.299778 -4.392001 -2.677749 0
M  V30 26 H 2.261761 -5.767731 -1.615343 0
M  V30 27 H 0.204499 -5.703333 -2.998832 0
M  V30 28 H -0.188995 -4.094974 -2.398880 0
M  V30 29 H -0.224727 -5.475267 -1.305799 0
M  V30 END ATOM
M  V30 BEGIN BOND
M  V30 1 2 2 1
M  V30 2 1 3 2
M  V30 3 1 4 3
M  V30 4 2 5 4
M  V30 5 1 6 5
M  V30 6 2 7 6
M  V30 7 1 8 7
M  V30 8 1 9 7
M  V30 9 1 9 4
M  V30 10 1 10 2
M  V30 11 1 11 10
M  V30 12 1 12 11
M  V30 13 2 13 12
M  V30 14 1 14 13
M  V30 15 2 15 14
M  V30 16 1 16 15
M  V30 17 1 17 16
M  V30 18 1 18 15
M  V30 19 1 18 12
M  V30 20 1 19 3
M  V30 21 1 20 8
M  V30 22 1 21 8
M  V30 23 1 22 8
M  V30 24 1 23 10
M  V30 25 1 24 10
M  V30 26 1 25 16
M  V30 27 1 26 16
M  V30 28 1 27 17
M  V30 29 1 28 17
M  V30 30 1 29 17
M  V30 END BOND
M  V30 END CTAB
M  END
>  <i_epik_Tot_Q>  (3) 
0

>  <i_epik_Tot_abs_Q>  (3) 
0

>  <i_f3d_flags>  (3) 
0

>  <i_lp_mmshare_version>  (3) 
71160

>  <i_lp_orig_ion_str>  (3) 
1

>  <i_m_source_file_index>  (3) 
31

>  <b_lp_Chiralities_Consistent>  (3) 
1

>  <r_epik_Charging_Adjusted_Penalty>  (3) 
0.34423876473838994

>  <r_epik_Ionization_Penalty>  (3) 
0.34423883197386373

>  <r_epik_Ionization_Penalty_Charging>  (3) 
0

>  <r_epik_Ionization_Penalty_Neutral>  (3) 
0.34423883197386373

>  <r_epik_State_Penalty>  (3) 
0.34423876473838994

>  <r_lp_Energy>  (3) 
12.114708

>  <r_lp_tautomer_probability>  (3) 
1

>  <s_epik_cmdline>  (3) 
J2VwaWtfcHl0aG9uJywgJy1waHQnLCAnMC4yJywgJy1waCcsICc3LjQnLCAnLXJldGFpbl9pX2xhYicsICctcmV0YWluX3RfbGFiJywgJy10bicsICcxJywgJy1tYScsICc1MDAnLCAnLWltYWUnLCAnPGluZmlsZS5tYWU+JywgJy1vbWFlJywgJzxvdXRmaWxlLm1hZT4n

>  <s_epik_input>  (3) 
W0NIM11jKHMxKW5uYzFbTkhdQyg9TylbQ0gyXVNjMm5uYyhvMilbQ0gyXVtDSDNd

>  <s_lp_Force_Field>  (3) 
S-OPLS

>  <s_lp_Variant>  (3) 
RR30_Rahimova_2017-1

>  <s_lp_label>  (3) 
31

>  <s_m_source_file>  (3) 
montpellier_ligands.smi

$$$$
RR31_Rahimova_2017
     RDKit          3D

  0  0  0  0  0  0  0  0  0  0999 V3000
M  V30 BEGIN CTAB
M  V30 COUNTS 44 45 0 0 1
M  V30 BEGIN ATOM
M  V30 1 C -6.554836 1.438985 -3.788504 0
M  V30 2 C -6.053747 1.137433 -2.382267 0
M  V30 3 C -6.938113 1.053985 -1.295417 0
M  V30 4 C -8.438033 1.247177 -1.474111 0
M  V30 5 C -6.433012 0.786962 -0.021511 0
M  V30 6 C -5.065879 0.602298 0.174159 0
M  V30 7 C -4.163036 0.670098 -0.898815 0
M  V30 8 N -2.789325 0.496706 -0.717254 0
M  V30 9 C -2.175672 0.465093 0.624795 0
M  V30 10 C -0.644451 0.679542 0.624278 0
M  V30 11 N 0.020900 -0.297052 -0.241515 0
M  V30 12 C 1.478867 -0.140706 -0.236316 0
M  V30 13 C 2.119281 -0.511472 1.117414 0
M  V30 14 C 3.642255 -0.689981 1.012469 0
M  V30 15 N 4.222111 -1.059145 2.382004 0 CHG=1
M  V30 16 C -0.490415 -0.098974 -1.597614 0
M  V30 17 C -2.015168 -0.344996 -1.651478 0
M  V30 18 C -4.683396 0.948295 -2.172451 0
M  V30 19 H -5.742415 1.508647 -4.513047 0
M  V30 20 H -7.097626 2.384570 -3.802178 0
M  V30 21 H -7.242167 0.660851 -4.121351 0
M  V30 22 H -8.989848 1.079495 -0.548156 0
M  V30 23 H -8.823708 0.551999 -2.220386 0
M  V30 24 H -8.651567 2.257693 -1.824043 0
M  V30 25 H -7.099153 0.719908 0.826541 0
M  V30 26 H -4.724619 0.391720 1.176672 0
M  V30 27 H -2.625137 1.234511 1.253392 0
M  V30 28 H -2.383520 -0.504309 1.081191 0
M  V30 29 H -0.405945 1.698939 0.313577 0
M  V30 30 H -0.286288 0.573913 1.648208 0
M  V30 31 H 1.925539 -0.759632 -1.016758 0
M  V30 32 H 1.741692 0.886899 -0.495860 0
M  V30 33 H 1.948826 0.314013 1.810321 0
M  V30 34 H 1.631110 -1.383937 1.556525 0
M  V30 35 H 3.930541 -1.511344 0.355384 0
M  V30 36 H 4.161605 0.223314 0.720229 0
M  V30 37 H 5.221734 -1.187146 2.313241 0
M  V30 38 H 3.807011 -1.917479 2.716013 0
M  V30 39 H 4.033575 -0.325426 3.050378 0
M  V30 40 H -0.258649 0.905397 -1.958836 0
M  V30 41 H 0.001680 -0.796095 -2.277670 0
M  V30 42 H -2.345280 -0.210126 -2.680232 0
M  V30 43 H -2.197840 -1.390227 -1.395771 0
M  V30 44 H -4.018201 1.038266 -3.018499 0
M  V30 END ATOM
M  V30 BEGIN BOND
M  V30 1 1 2 1
M  V30 2 2 3 2
M  V30 3 1 4 3
M  V30 4 1 5 3
M  V30 5 2 6 5
M  V30 6 1 7 6
M  V30 7 1 8 7
M  V30 8 1 9 8
M  V30 9 1 10 9
M  V30 10 1 11 10
M  V30 11 1 12 11
M  V30 12 1 13 12
M  V30 13 1 14 13
M  V30 14 1 15 14
M  V30 15 1 16 11
M  V30 16 1 17 16
M  V30 17 1 17 8
M  V30 18 2 18 7
M  V30 19 1 18 2
M  V30 20 1 19 1
M  V30 21 1 20 1
M  V30 22 1 21 1
M  V30 23 1 22 4
M  V30 24 1 23 4
M  V30 25 1 24 4
M  V30 26 1 25 5
M  V30 27 1 26 6
M  V30 28 1 27 9
M  V30 29 1 28 9
M  V30 30 1 29 10
M  V30 31 1 30 10
M  V30 32 1 31 12
M  V30 33 1 32 12
M  V30 34 1 33 13
M  V30 35 1 34 13
M  V30 36 1 35 14
M  V30 37 1 36 14
M  V30 38 1 37 15
M  V30 39 1 38 15
M  V30 40 1 39 15
M  V30 41 1 40 16
M  V30 42 1 41 16
M  V30 43 1 42 17
M  V30 44 1 43 17
M  V30 45 1 44 18
M  V30 END BOND
M  V30 END CTAB
M  END
>  <i_epik_Tot_Q>  (4) 
1

>  <i_epik_Tot_abs_Q>  (4) 
1

>  <i_f3d_flags>  (4) 
0

>  <i_lp_mmshare_version>  (4) 
71160

>  <i_lp_orig_ion_str>  (4) 
1

>  <i_m_source_file_index>  (4) 
32

>  <b_lp_Chiralities_Consistent>  (4) 
1

>  <r_epik_Charging_Adjusted_Penalty>  (4) 
0.17190814473515634

>  <r_epik_Ionization_Penalty>  (4) 
0.1751811685985471

>  <r_epik_Ionization_Penalty_Charging>  (4) 
0.00087769674024335475

>  <r_epik_Ionization_Penalty_Neutral>  (4) 
0.17430347185830375

>  <r_epik_State_Penalty>  (4) 
0.17103044799491299

>  <r_lp_Energy>  (4) 
34.695606999999995

>  <s_epik_cmdline>  (4) 
J2VwaWtfcHl0aG9uJywgJy1waHQnLCAnMC4yJywgJy1waCcsICc3LjQnLCAnLXJldGFpbl9pX2xhYicsICctcmV0YWluX3RfbGFiJywgJy10bicsICcxJywgJy1tYScsICc1MDAnLCAnLWltYWUnLCAnPGluZmlsZS5tYWU+JywgJy1vbWFlJywgJzxvdXRmaWxlLm1hZT4n

>  <s_epik_input>  (4) 
W0NIM11jMWMoW0NIM10pW2NIXVtjSF1jKFtjSF0xKU4yW0NIMl1bQ0gyXU4oW0NIMl1bQ0gyXTIpW0NIMl1bQ0gyXVtDSDJdW05IMytd

>  <s_lp_Force_Field>  (4) 
S-OPLS

>  <s_lp_Variant>  (4) 
RR31_Rahimova_2017-1

>  <s_lp_label>  (4) 
32

>  <s_m_source_file>  (4) 
montpellier_ligands.smi

$$$$
RR32_Rahimova_2017
     RDKit          3D

  0  0  0  0  0  0  0  0  0  0999 V3000
M  V30 BEGIN CTAB
M  V30 COUNTS 37 39 0 0 1
M  V30 BEGIN ATOM
M  V30 1 C -2.704755 -2.516037 0.006701 0
M  V30 2 C -2.064243 -1.131965 0.003123 0
M  V30 3 C -0.671437 -1.049718 0.002626 0
M  V30 4 C -0.050711 0.196043 -0.003701 0
M  V30 5 N 1.331490 0.272960 -0.003570 0
M  V30 6 C 1.975127 0.858136 -1.194240 0
M  V30 7 C 3.516687 0.734378 -1.177197 0
M  V30 8 N 4.062773 1.381736 0.014516 0
M  V30 9 C 5.519132 1.293150 0.015207 0
M  V30 10 C 3.513976 0.704879 1.188451 0
M  V30 11 C 1.971882 0.824971 1.204604 0
M  V30 12 N -0.748976 1.360645 -0.007616 0
M  V30 13 C -2.108818 1.314114 -0.004987 0
M  V30 14 C -2.810739 2.543861 -0.006936 0
M  V30 15 C -4.201376 2.557159 -0.004422 0
M  V30 16 C -4.917133 1.366411 -0.000450 0
M  V30 17 C -4.258049 0.139862 0.001575 0
M  V30 18 C -2.833925 0.078280 -0.000079 0
M  V30 19 H -3.791179 -2.521563 0.009369 0
M  V30 20 H -2.375276 -3.071378 0.885515 0
M  V30 21 H -2.379525 -3.073564 -0.872356 0
M  V30 22 H -0.075590 -1.951895 0.005750 0
M  V30 23 H 1.602057 0.353708 -2.086754 0
M  V30 24 H 1.716438 1.916430 -1.268187 0
M  V30 25 H 3.812138 -0.316126 -1.221575 0
M  V30 26 H 3.924413 1.213150 -2.068769 0
M  V30 27 H 5.931860 1.777002 0.901333 0
M  V30 28 H 5.934080 1.799791 -0.857189 0
M  V30 29 H 5.863288 0.257305 0.002166 0
M  V30 30 H 3.811499 -0.345674 1.209062 0
M  V30 31 H 3.917951 1.163492 2.092256 0
M  V30 32 H 1.597391 0.296029 2.082152 0
M  V30 33 H 1.711406 1.880391 1.306754 0
M  V30 34 H -2.260646 3.474437 -0.010066 0
M  V30 35 H -4.728997 3.499592 -0.005628 0
M  V30 36 H -5.996918 1.393431 0.001292 0
M  V30 37 H -4.856054 -0.756392 0.004909 0
M  V30 END ATOM
M  V30 BEGIN BOND
M  V30 1 1 2 1
M  V30 2 2 3 2
M  V30 3 1 4 3
M  V30 4 1 5 4
M  V30 5 1 6 5
M  V30 6 1 7 6
M  V30 7 1 8 7
M  V30 8 1 9 8
M  V30 9 1 10 8
M  V30 10 1 11 10
M  V30 11 1 11 5
M  V30 12 2 12 4
M  V30 13 1 13 12
M  V30 14 2 14 13
M  V30 15 1 15 14
M  V30 16 2 16 15
M  V30 17 1 17 16
M  V30 18 2 18 17
M  V30 19 1 18 2
M  V30 20 1 18 13
M  V30 21 1 19 1
M  V30 22 1 20 1
M  V30 23 1 21 1
M  V30 24 1 22 3
M  V30 25 1 23 6
M  V30 26 1 24 6
M  V30 27 1 25 7
M  V30 28 1 26 7
M  V30 29 1 27 9
M  V30 30 1 28 9
M  V30 31 1 29 9
M  V30 32 1 30 10
M  V30 33 1 31 10
M  V30 34 1 32 11
M  V30 35 1 33 11
M  V30 36 1 34 14
M  V30 37 1 35 15
M  V30 38 1 36 16
M  V30 39 1 37 17
M  V30 END BOND
M  V30 END CTAB
M  END
>  <i_epik_Tot_Q>  (5) 
0

>  <i_epik_Tot_abs_Q>  (5) 
0

>  <i_f3d_flags>  (5) 
0

>  <i_lp_mmshare_version>  (5) 
71160

>  <i_lp_orig_ion_str>  (5) 
1

>  <i_m_source_file_index>  (5) 
33

>  <b_lp_Chiralities_Consistent>  (5) 
1

>  <r_epik_Charging_Adjusted_Penalty>  (5) 
1.4094422500719432

>  <r_epik_Ionization_Penalty>  (5) 
1.7109402964880422

>  <r_epik_Ionization_Penalty_Charging>  (5) 
0

>  <r_epik_Ionization_Penalty_Neutral>  (5) 
1.7109402964880422

>  <r_epik_State_Penalty>  (5) 
1.4094422500719432

>  <r_lp_Energy>  (5) 
51.988437999999995

>  <s_epik_cmdline>  (5) 
J2VwaWtfcHl0aG9uJywgJy1waHQnLCAnMC4yJywgJy1waCcsICc3LjQnLCAnLXJldGFpbl9pX2xhYicsICctcmV0YWluX3RfbGFiJywgJy10bicsICcxJywgJy1tYScsICc1MDAnLCAnLWltYWUnLCAnPGluZmlsZS5tYWU+JywgJy1vbWFlJywgJzxvdXRmaWxlLm1hZT4n

>  <s_epik_input>  (5) 
W2NIXTFbY0hdW2NIXVtjSF1jKGMxMiljKFtDSDNdKVtjSF1jKG4yKU4zW0NIMl1bQ0gyXU4oW0NIM10pW0NIMl1bQ0gyXTM=

>  <s_lp_Force_Field>  (5) 
S-OPLS

>  <s_lp_Variant>  (5) 
RR32_Rahimova_2017-1

>  <s_lp_label>  (5) 
33

>  <s_m_source_file>  (5) 
montpellier_ligands.smi

$$$$
RR32_Rahimova_2017
     RDKit          3D

  0  0  0  0  0  0  0  0  0  0999 V3000
M  V30 BEGIN CTAB
M  V30 COUNTS 38 40 0 0 1
M  V30 BEGIN ATOM
M  V30 1 C -2.648991 -2.203301 -1.221217 0
M  V30 2 C -2.156319 -0.977787 -0.463645 0
M  V30 3 C -0.792680 -0.798712 -0.227456 0
M  V30 4 C -0.341745 0.330325 0.465289 0
M  V30 5 N 1.018718 0.525294 0.723072 0
M  V30 6 C 2.021683 0.274123 -0.331461 0
M  V30 7 C 2.244659 1.502735 -1.243776 0
M  V30 8 N 2.759570 2.670444 -0.378837 0 CHG=1
M  V30 9 C 2.984430 3.930006 -1.237217 0
M  V30 10 C 1.734217 2.946785 0.739126 0
M  V30 11 C 1.521814 1.645266 1.547427 0
M  V30 12 N -1.211578 1.260832 0.945024 0
M  V30 13 C -2.546566 1.114913 0.727255 0
M  V30 14 C -3.421476 2.110096 1.226666 0
M  V30 15 C -4.794271 2.001509 1.023633 0
M  V30 16 C -5.322844 0.917666 0.331239 0
M  V30 17 C -4.489358 -0.078426 -0.171398 0
M  V30 18 C -3.080868 -0.002498 0.014853 0
M  V30 19 H -3.345292 -2.776425 -0.608063 0
M  V30 20 H -1.829496 -2.866582 -1.501453 0
M  V30 21 H -3.164466 -1.903910 -2.134514 0
M  V30 22 H -0.097403 -1.548468 -0.574523 0
M  V30 23 H 2.965389 -0.005739 0.140537 0
M  V30 24 H 1.751656 -0.585442 -0.943141 0
M  V30 25 H 3.013547 1.313737 -1.994162 0
M  V30 26 H 1.328175 1.832690 -1.737520 0
M  V30 27 H 2.030064 4.212958 -1.684700 0
M  V30 28 H 3.724283 3.673144 -1.996399 0
M  V30 29 H 3.362680 4.707758 -0.572526 0
M  V30 30 H 2.160228 3.738335 1.356911 0
M  V30 31 H 0.816377 3.307178 0.269704 0
M  V30 32 H 2.464416 1.345945 2.009178 0
M  V30 33 H 0.846250 1.829585 2.383939 0
M  V30 34 H -3.019060 2.956031 1.765918 0
M  V30 35 H -5.454708 2.765305 1.407359 0
M  V30 36 H -6.390577 0.848258 0.182742 0
M  V30 37 H -4.922457 -0.911203 -0.705565 0
M  V30 38 H 3.631974 2.391694 0.048114 0
M  V30 END ATOM
M  V30 BEGIN BOND
M  V30 1 1 2 1
M  V30 2 2 3 2
M  V30 3 1 4 3
M  V30 4 1 5 4
M  V30 5 1 6 5
M  V30 6 1 7 6
M  V30 7 1 8 7
M  V30 8 1 9 8
M  V30 9 1 10 8
M  V30 10 1 11 10
M  V30 11 1 11 5
M  V30 12 2 12 4
M  V30 13 1 13 12
M  V30 14 2 14 13
M  V30 15 1 15 14
M  V30 16 2 16 15
M  V30 17 1 17 16
M  V30 18 2 18 17
M  V30 19 1 18 2
M  V30 20 1 18 13
M  V30 21 1 19 1
M  V30 22 1 20 1
M  V30 23 1 21 1
M  V30 24 1 22 3
M  V30 25 1 23 6
M  V30 26 1 24 6
M  V30 27 1 25 7
M  V30 28 1 26 7
M  V30 29 1 27 9
M  V30 30 1 28 9
M  V30 31 1 29 9
M  V30 32 1 30 10
M  V30 33 1 31 10
M  V30 34 1 32 11
M  V30 35 1 33 11
M  V30 36 1 34 14
M  V30 37 1 35 15
M  V30 38 1 36 16
M  V30 39 1 37 17
M  V30 40 1 38 8
M  V30 END BOND
M  V30 END CTAB
M  END
>  <i_epik_Tot_Q>  (6) 
1

>  <i_epik_Tot_abs_Q>  (6) 
1

>  <i_f3d_flags>  (6) 
0

>  <i_lp_mmshare_version>  (6) 
71160

>  <i_lp_orig_ion_str>  (6) 
1

>  <i_m_source_file_index>  (6) 
33

>  <b_lp_Chiralities_Consistent>  (6) 
1

>  <r_epik_Charging_Adjusted_Penalty>  (6) 
0.33375963506652573

>  <r_epik_Ionization_Penalty>  (6) 
0.17861558751922746

>  <r_epik_Ionization_Penalty_Charging>  (6) 
0.16992682395169845

>  <r_epik_Ionization_Penalty_Neutral>  (6) 
0.0086887635675290103

>  <r_epik_State_Penalty>  (6) 
0.16383281111482731

>  <r_lp_Energy>  (6) 
44.679890999999998

>  <s_epik_cmdline>  (6) 
J2VwaWtfcHl0aG9uJywgJy1waHQnLCAnMC4yJywgJy1waCcsICc3LjQnLCAnLXJldGFpbl9pX2xhYicsICctcmV0YWluX3RfbGFiJywgJy10bicsICcxJywgJy1tYScsICc1MDAnLCAnLWltYWUnLCAnPGluZmlsZS5tYWU+JywgJy1vbWFlJywgJzxvdXRmaWxlLm1hZT4n

>  <s_epik_input>  (6) 
W2NIXTFbY0hdW2NIXVtjSF1jKGMxMiljKFtDSDNdKVtjSF1jKG4yKU4zW0NIMl1bQ0gyXU4oW0NIM10pW0NIMl1bQ0gyXTM=

>  <s_lp_Force_Field>  (6) 
S-OPLS

>  <s_lp_Variant>  (6) 
RR32_Rahimova_2017-2

>  <s_lp_label>  (6) 
33

>  <s_m_source_file>  (6) 
montpellier_ligands.smi

$$$$
RR32_Rahimova_2017
     RDKit          3D

  0  0  0  0  0  0  0  0  0  0999 V3000
M  V30 BEGIN CTAB
M  V30 COUNTS 39 41 0 0 1
M  V30 BEGIN ATOM
M  V30 1 C -3.359228 -2.250935 -0.618267 0
M  V30 2 C -2.465450 -1.054016 -0.322368 0
M  V30 3 C -1.083175 -1.224153 -0.195853 0
M  V30 4 C -0.245412 -0.135875 0.082039 0
M  V30 5 N 1.185926 -0.254786 0.206718 0
M  V30 6 C 1.957721 0.690428 1.057048 0
M  V30 7 C 1.968635 0.215591 2.535138 0
M  V30 8 N 2.608492 -1.191065 2.620709 0 CHG=1
M  V30 9 C 2.585163 -1.720303 4.067913 0
M  V30 10 C 1.882900 -2.165984 1.662772 0
M  V30 11 C 1.879951 -1.568481 0.230859 0
M  V30 12 N -0.813493 1.079907 0.215157 0 CHG=1
M  V30 13 C -2.158917 1.343438 0.106529 0
M  V30 14 C -2.651009 2.657548 0.265506 0
M  V30 15 C -4.019148 2.888091 0.146149 0
M  V30 16 C -4.894078 1.839129 -0.125996 0
M  V30 17 C -4.422110 0.535974 -0.284608 0
M  V30 18 C -3.032041 0.249506 -0.172279 0
M  V30 19 H -3.897841 -2.102696 -1.554920 0
M  V30 20 H -4.091604 -2.386176 0.178398 0
M  V30 21 H -2.788468 -3.176241 -0.706181 0
M  V30 22 H -0.681556 -2.219387 -0.313601 0
M  V30 23 H 2.971103 0.754595 0.656213 0
M  V30 24 H 1.532559 1.690740 0.976886 0
M  V30 25 H 2.580429 0.866966 3.161073 0
M  V30 26 H 0.966593 0.140952 2.964724 0
M  V30 27 H 1.544426 -1.798548 4.386675 0
M  V30 28 H 3.140114 -1.007579 4.679443 0
M  V30 29 H 3.078279 -2.693270 4.062659 0
M  V30 30 H 2.439339 -3.103517 1.704673 0
M  V30 31 H 0.878159 -2.325340 2.061493 0
M  V30 32 H 2.899755 -1.412555 -0.125648 0
M  V30 33 H 1.416715 -2.245450 -0.485492 0
M  V30 34 H -1.971229 3.471066 0.475789 0
M  V30 35 H -4.406656 3.889881 0.264784 0
M  V30 36 H -5.952165 2.038800 -0.215832 0
M  V30 37 H -5.124133 -0.257068 -0.496107 0
M  V30 38 H -0.199949 1.859434 0.402997 0
M  V30 39 H 3.568009 -1.112729 2.312119 0
M  V30 END ATOM
M  V30 BEGIN BOND
M  V30 1 1 2 1
M  V30 2 2 3 2
M  V30 3 1 4 3
M  V30 4 1 5 4
M  V30 5 1 6 5
M  V30 6 1 7 6
M  V30 7 1 8 7
M  V30 8 1 9 8
M  V30 9 1 10 8
M  V30 10 1 11 10
M  V30 11 1 11 5
M  V30 12 2 12 4
M  V30 13 1 13 12
M  V30 14 2 14 13
M  V30 15 1 15 14
M  V30 16 2 16 15
M  V30 17 1 17 16
M  V30 18 2 18 17
M  V30 19 1 18 2
M  V30 20 1 18 13
M  V30 21 1 19 1
M  V30 22 1 20 1
M  V30 23 1 21 1
M  V30 24 1 22 3
M  V30 25 1 23 6
M  V30 26 1 24 6
M  V30 27 1 25 7
M  V30 28 1 26 7
M  V30 29 1 27 9
M  V30 30 1 28 9
M  V30 31 1 29 9
M  V30 32 1 30 10
M  V30 33 1 31 10
M  V30 34 1 32 11
M  V30 35 1 33 11
M  V30 36 1 34 14
M  V30 37 1 35 15
M  V30 38 1 36 16
M  V30 39 1 37 17
M  V30 40 1 38 12
M  V30 41 1 39 8
M  V30 END BOND
M  V30 END CTAB
M  END
>  <i_epik_Tot_Q>  (7) 
2

>  <i_epik_Tot_abs_Q>  (7) 
2

>  <i_f3d_flags>  (7) 
0

>  <i_lp_mmshare_version>  (7) 
71160

>  <i_lp_orig_ion_str>  (7) 
1

>  <i_m_source_file_index>  (7) 
33

>  <b_lp_Chiralities_Consistent>  (7) 
1

>  <r_epik_Charging_Adjusted_Penalty>  (7) 
5.1008671115146793

>  <r_epik_Ionization_Penalty>  (7) 
3.0322640820151507

>  <r_epik_Ionization_Penalty_Charging>  (7) 
3.0322640820151507

>  <r_epik_Ionization_Penalty_Neutral>  (7) 
0

>  <r_epik_State_Penalty>  (7) 
2.068603029499529

>  <r_lp_Energy>  (7) 
51.922031999999994

>  <s_epik_cmdline>  (7) 
J2VwaWtfcHl0aG9uJywgJy1waHQnLCAnMC4yJywgJy1waCcsICc3LjQnLCAnLXJldGFpbl9pX2xhYicsICctcmV0YWluX3RfbGFiJywgJy10bicsICcxJywgJy1tYScsICc1MDAnLCAnLWltYWUnLCAnPGluZmlsZS5tYWU+JywgJy1vbWFlJywgJzxvdXRmaWxlLm1hZT4n

>  <s_epik_input>  (7) 
W2NIXTFbY0hdW2NIXVtjSF1jKGMxMiljKFtDSDNdKVtjSF1jKG4yKU4zW0NIMl1bQ0gyXU4oW0NIM10pW0NIMl1bQ0gyXTM=

>  <s_lp_Force_Field>  (7) 
S-OPLS

>  <s_lp_Variant>  (7) 
RR32_Rahimova_2017-3

>  <s_lp_label>  (7) 
33

>  <s_m_source_file>  (7) 
montpellier_ligands.smi

$$$$
RR33_Rahimova_2017
     RDKit          3D

  0  0  0  0  0  0  0  0  0  0999 V3000
M  V30 BEGIN CTAB
M  V30 COUNTS 36 37 0 0 1
M  V30 BEGIN ATOM
M  V30 1 C -6.367021 -0.804055 0.010288 0
M  V30 2 C -4.890062 -1.209102 0.015661 0
M  V30 3 O -4.092190 -0.029392 0.052066 0
M  V30 4 C -2.714990 -0.141458 0.037192 0
M  V30 5 C -1.993718 1.052012 0.061516 0
M  V30 6 C -0.602017 1.039277 0.045724 0
M  V30 7 C 0.091720 -0.174184 0.005500 0
M  V30 8 C 1.587200 -0.187465 -0.013092 0
M  V30 9 N 2.399199 0.846155 0.019692 0
M  V30 10 C 3.619324 0.332682 -0.014307 0
M  V30 11 C 4.839759 1.226607 0.020750 0
M  V30 12 N 5.130270 1.646870 1.384455 0
M  V30 13 C 6.264452 2.556109 1.410425 0
M  V30 14 C 3.541082 -1.052919 -0.069795 0
M  V30 15 C 4.539570 -2.183487 -0.121583 0
M  V30 16 O 2.228827 -1.382880 -0.069517 0
M  V30 17 C -0.627461 -1.373179 -0.016488 0
M  V30 18 C -2.019591 -1.359731 -0.000538 0
M  V30 19 H -7.012265 -1.682358 -0.019249 0
M  V30 20 H -6.602185 -0.188480 -0.858518 0
M  V30 21 H -6.621436 -0.233388 0.903796 0
M  V30 22 H -4.684620 -1.834159 0.886386 0
M  V30 23 H -4.669789 -1.792202 -0.880389 0
M  V30 24 H -2.516344 1.997031 0.091805 0
M  V30 25 H -0.067872 1.978347 0.064068 0
M  V30 26 H 5.709687 0.712451 -0.390973 0
M  V30 27 H 4.678228 2.107916 -0.603077 0
M  V30 28 H 5.348996 0.834176 1.943361 0
M  V30 29 H 6.472785 2.852394 2.438667 0
M  V30 30 H 6.060068 3.459282 0.833686 0
M  V30 31 H 7.161417 2.077898 1.014386 0
M  V30 32 H 5.566663 -1.818748 -0.109505 0
M  V30 33 H 4.421308 -2.780926 -1.025652 0
M  V30 34 H 4.427188 -2.856229 0.728672 0
M  V30 35 H -0.114416 -2.323410 -0.045878 0
M  V30 36 H -2.540577 -2.304742 -0.017865 0
M  V30 END ATOM
M  V30 BEGIN BOND
M  V30 1 1 2 1
M  V30 2 1 3 2
M  V30 3 1 4 3
M  V30 4 2 5 4
M  V30 5 1 6 5
M  V30 6 2 7 6
M  V30 7 1 8 7
M  V30 8 2 9 8
M  V30 9 1 10 9
M  V30 10 1 11 10
M  V30 11 1 12 11
M  V30 12 1 13 12
M  V30 13 2 14 10
M  V30 14 1 15 14
M  V30 15 1 16 14
M  V30 16 1 16 8
M  V30 17 1 17 7
M  V30 18 2 18 17
M  V30 19 1 18 4
M  V30 20 1 19 1
M  V30 21 1 20 1
M  V30 22 1 21 1
M  V30 23 1 22 2
M  V30 24 1 23 2
M  V30 25 1 24 5
M  V30 26 1 25 6
M  V30 27 1 26 11
M  V30 28 1 27 11
M  V30 29 1 28 12
M  V30 30 1 29 13
M  V30 31 1 30 13
M  V30 32 1 31 13
M  V30 33 1 32 15
M  V30 34 1 33 15
M  V30 35 1 34 15
M  V30 36 1 35 17
M  V30 37 1 36 18
M  V30 END BOND
M  V30 END CTAB
M  END
>  <i_epik_Tot_Q>  (8) 
0

>  <i_epik_Tot_abs_Q>  (8) 
0

>  <i_f3d_flags>  (8) 
0

>  <i_lp_mmshare_version>  (8) 
71160

>  <i_lp_orig_ion_str>  (8) 
1

>  <i_m_source_file_index>  (8) 
34

>  <b_lp_Chiralities_Consistent>  (8) 
1

>  <r_epik_Charging_Adjusted_Penalty>  (8) 
2.869610368011223

>  <r_epik_Ionization_Penalty>  (8) 
2.8696104113234098

>  <r_epik_Ionization_Penalty_Charging>  (8) 
0

>  <r_epik_Ionization_Penalty_Neutral>  (8) 
2.8696104113234098

>  <r_epik_State_Penalty>  (8) 
2.869610368011223

>  <r_lp_Energy>  (8) 
21.148591

>  <r_lp_tautomer_probability>  (8) 
1

>  <s_epik_cmdline>  (8) 
J2VwaWtfcHl0aG9uJywgJy1waHQnLCAnMC4yJywgJy1waCcsICc3LjQnLCAnLXJldGFpbl9pX2xhYicsICctcmV0YWluX3RfbGFiJywgJy10bicsICcxJywgJy1tYScsICc1MDAnLCAnLWltYWUnLCAnPGluZmlsZS5tYWU+JywgJy1vbWFlJywgJzxvdXRmaWxlLm1hZT4n

>  <s_epik_input>  (8) 
W0NIM11bQ0gyXU9jMVtjSF1bY0hdYyhbY0hdW2NIXTEpLWMybmMoYyhvMilbQ0gzXSlbQ0gyXVtOSF1bQ0gzXQ==

>  <s_lp_Force_Field>  (8) 
S-OPLS

>  <s_lp_Variant>  (8) 
RR33_Rahimova_2017-1

>  <s_lp_label>  (8) 
34

>  <s_m_source_file>  (8) 
montpellier_ligands.smi

$$$$
RR33_Rahimova_2017
     RDKit          3D

  0  0  0  0  0  0  0  0  0  0999 V3000
M  V30 BEGIN CTAB
M  V30 COUNTS 37 38 0 0 1
M  V30 BEGIN ATOM
M  V30 1 C -6.280850 -1.097588 0.081326 0
M  V30 2 C -4.774839 -1.375855 0.086950 0
M  V30 3 O -4.078512 -0.133522 0.052533 0
M  V30 4 C -2.696910 -0.130844 0.028888 0
M  V30 5 C -2.078154 1.118156 -0.017841 0
M  V30 6 C -0.690332 1.221501 -0.044344 0
M  V30 7 C 0.102565 0.069933 -0.024838 0
M  V30 8 C 1.594162 0.176511 -0.051768 0
M  V30 9 N 2.469876 -0.802405 0.008181 0
M  V30 10 C 3.656983 -0.217109 -0.051716 0
M  V30 11 C 4.936012 -1.029960 0.001928 0
M  V30 12 N 5.017036 -1.751454 1.357737 0 CHG=1
M  V30 13 C 6.264272 -2.632712 1.510846 0
M  V30 14 C 3.490648 1.159544 -0.143466 0
M  V30 15 C 4.414449 2.349876 -0.233969 0
M  V30 16 O 2.160143 1.406776 -0.144974 0
M  V30 17 C -0.513818 -1.184712 0.021558 0
M  V30 18 C -1.901980 -1.287081 0.048838 0
M  V30 19 H -6.848994 -2.027826 0.097068 0
M  V30 20 H -6.574548 -0.543417 -0.810723 0
M  V30 21 H -6.576628 -0.512003 0.952260 0
M  V30 22 H -4.509038 -1.936731 0.984872 0
M  V30 23 H -4.514485 -1.982818 -0.781983 0
M  V30 24 H -2.678948 2.015933 -0.033829 0
M  V30 25 H -0.239887 2.202958 -0.079243 0
M  V30 26 H 4.981214 -1.815487 -0.754270 0
M  V30 27 H 5.841843 -0.424340 -0.051582 0
M  V30 28 H 5.010167 -1.061164 2.095472 0
M  V30 29 H 6.202206 -3.079377 2.503470 0
M  V30 30 H 7.135330 -1.983391 1.415086 0
M  V30 31 H 6.225665 -3.389893 0.726665 0
M  V30 32 H 5.463561 2.055370 -0.210473 0
M  V30 33 H 4.256910 3.042808 0.592749 0
M  V30 34 H 4.257891 2.907939 -1.157348 0
M  V30 35 H 0.078200 -2.088581 0.035626 0
M  V30 36 H -2.341895 -2.271976 0.085461 0
M  V30 37 H 4.194285 -2.328370 1.464974 0
M  V30 END ATOM
M  V30 BEGIN BOND
M  V30 1 1 2 1
M  V30 2 1 3 2
M  V30 3 1 4 3
M  V30 4 2 5 4
M  V30 5 1 6 5
M  V30 6 2 7 6
M  V30 7 1 8 7
M  V30 8 2 9 8
M  V30 9 1 10 9
M  V30 10 1 11 10
M  V30 11 1 12 11
M  V30 12 1 13 12
M  V30 13 2 14 10
M  V30 14 1 15 14
M  V30 15 1 16 14
M  V30 16 1 16 8
M  V30 17 1 17 7
M  V30 18 2 18 17
M  V30 19 1 18 4
M  V30 20 1 19 1
M  V30 21 1 20 1
M  V30 22 1 21 1
M  V30 23 1 22 2
M  V30 24 1 23 2
M  V30 25 1 24 5
M  V30 26 1 25 6
M  V30 27 1 26 11
M  V30 28 1 27 11
M  V30 29 1 28 12
M  V30 30 1 29 13
M  V30 31 1 30 13
M  V30 32 1 31 13
M  V30 33 1 32 15
M  V30 34 1 33 15
M  V30 35 1 34 15
M  V30 36 1 35 17
M  V30 37 1 36 18
M  V30 38 1 37 12
M  V30 END BOND
M  V30 END CTAB
M  END
>  <i_epik_Tot_Q>  (9) 
1

>  <i_epik_Tot_abs_Q>  (9) 
1

>  <i_f3d_flags>  (9) 
0

>  <i_lp_mmshare_version>  (9) 
71160

>  <i_lp_orig_ion_str>  (9) 
1

>  <i_m_source_file_index>  (9) 
34

>  <b_lp_Chiralities_Consistent>  (9) 
1

>  <r_epik_Charging_Adjusted_Penalty>  (9) 
0.0093753769364623638

>  <r_epik_Ionization_Penalty>  (9) 
0.0046876884943061478

>  <r_epik_Ionization_Penalty_Charging>  (9) 
0.0046876884682311671

>  <r_epik_Ionization_Penalty_Neutral>  (9) 
2.6074980288854807e-11

>  <r_epik_State_Penalty>  (9) 
0.0046876884682311958

>  <r_lp_Energy>  (9) 
18.956012999999999

>  <r_lp_tautomer_probability>  (9) 
1

>  <s_epik_cmdline>  (9) 
J2VwaWtfcHl0aG9uJywgJy1waHQnLCAnMC4yJywgJy1waCcsICc3LjQnLCAnLXJldGFpbl9pX2xhYicsICctcmV0YWluX3RfbGFiJywgJy10bicsICcxJywgJy1tYScsICc1MDAnLCAnLWltYWUnLCAnPGluZmlsZS5tYWU+JywgJy1vbWFlJywgJzxvdXRmaWxlLm1hZT4n

>  <s_epik_input>  (9) 
W0NIM11bQ0gyXU9jMVtjSF1bY0hdYyhbY0hdW2NIXTEpLWMybmMoYyhvMilbQ0gzXSlbQ0gyXVtOSF1bQ0gzXQ==

>  <s_lp_Force_Field>  (9) 
S-OPLS

>  <s_lp_Variant>  (9) 
RR33_Rahimova_2017-2

>  <s_lp_label>  (9) 
34

>  <s_m_source_file>  (9) 
montpellier_ligands.smi

$$$$
1a_Ghoteimi_2023
     RDKit          3D

  0  0  0  0  0  0  0  0  0  0999 V3000
M  V30 BEGIN CTAB
M  V30 COUNTS 67 70 0 0 1
M  V30 BEGIN ATOM
M  V30 1 C -6.295430 -6.245880 -0.808213 0
M  V30 2 O -5.301202 -5.947373 0.165934 0
M  V30 3 C -4.583508 -4.771646 0.058322 0
M  V30 4 C -3.622544 -4.536668 1.041131 0
M  V30 5 C -2.852151 -3.377995 1.014617 0
M  V30 6 C -4.764988 -3.822958 -0.959586 0
M  V30 7 C -3.991959 -2.665364 -0.985075 0
M  V30 8 C -3.024495 -2.433578 -0.002521 0
M  V30 9 C -2.211775 -1.180204 -0.029629 0
M  V30 10 C -0.798781 -1.157063 -0.115619 0
M  V30 11 C -0.029185 -2.402079 -0.202583 0
M  V30 12 N 0.578087 -3.384653 -0.271560 0
M  V30 13 C -0.156545 0.100328 -0.122318 0
M  V30 14 S 1.606803 0.300440 -0.223084 0
M  V30 15 C 2.077619 -0.204001 -1.903510 0
M  V30 16 C 3.592867 -0.165199 -2.103259 0
M  V30 17 N 4.075957 0.964846 -2.664001 0
M  V30 18 C 5.400361 1.314732 -2.990806 0
M  V30 19 C 6.500862 0.447558 -2.920544 0
M  V30 20 C 7.769622 0.898757 -3.274360 0
M  V30 21 C 7.965143 2.219140 -3.707221 0
M  V30 22 C 9.320132 2.735144 -4.097830 0
M  V30 23 O 10.298422 1.798342 -4.001537 0
M  V30 24 C 11.645797 2.106159 -4.335965 0
M  V30 25 C 12.516493 0.862310 -4.131774 0
M  V30 26 O 9.522418 3.894035 -4.472796 0
M  V30 27 C 6.859661 3.076745 -3.777672 0
M  V30 28 C 5.590446 2.627072 -3.425456 0
M  V30 29 O 4.266388 -1.131816 -1.747009 0
M  V30 30 N -0.838335 1.266903 -0.032561 0
M  V30 31 C -2.194620 1.252596 0.044716 0
M  V30 32 C -2.878365 2.588277 0.120240 0
M  V30 33 C -2.226169 3.764700 -0.282871 0
M  V30 34 C -2.861829 5.000805 -0.212614 0
M  V30 35 C -4.167271 5.100850 0.262862 0
M  V30 36 O -4.719904 6.366862 0.294740 0
M  V30 37 C -6.056253 6.529414 0.757628 0
M  V30 38 C -4.830257 3.936357 0.673324 0
M  V30 39 C -4.191013 2.701647 0.602243 0
M  V30 40 C -2.895660 0.041033 0.036135 0
M  V30 41 H -6.751567 -7.207600 -0.573475 0
M  V30 42 H -5.866130 -6.319875 -1.808614 0
M  V30 43 H -7.088589 -5.496663 -0.812485 0
M  V30 44 H -3.473409 -5.256380 1.832917 0
M  V30 45 H -2.119194 -3.214839 1.791726 0
M  V30 46 H -5.499770 -3.965340 -1.737181 0
M  V30 47 H -4.145456 -1.946311 -1.776989 0
M  V30 48 H 1.742259 -1.229674 -2.053401 0
M  V30 49 H 1.557687 0.398256 -2.650024 0
M  V30 50 H 3.399794 1.689793 -2.854076 0
M  V30 51 H 6.408434 -0.578911 -2.605351 0
M  V30 52 H 8.592125 0.201117 -3.206803 0
M  V30 53 H 11.706187 2.436061 -5.374435 0
M  V30 54 H 12.008747 2.922151 -3.708922 0
M  V30 55 H 13.556227 1.071885 -4.383164 0
M  V30 56 H 12.181397 0.038696 -4.763210 0
M  V30 57 H 12.486309 0.525100 -3.095170 0
M  V30 58 H 6.968908 4.100592 -4.107117 0
M  V30 59 H 4.756054 3.311257 -3.490590 0
M  V30 60 H -1.215643 3.733008 -0.663395 0
M  V30 61 H -2.335554 5.888510 -0.532293 0
M  V30 62 H -6.326790 7.584243 0.713137 0
M  V30 63 H -6.163560 6.204820 1.793727 0
M  V30 64 H -6.764762 5.980796 0.134987 0
M  V30 65 H -5.839895 3.969213 1.053378 0
M  V30 66 H -4.735901 1.835045 0.943570 0
M  V30 67 H -3.974303 0.031503 0.083317 0
M  V30 END ATOM
M  V30 BEGIN BOND
M  V30 1 1 2 1
M  V30 2 1 3 2
M  V30 3 1 4 3
M  V30 4 2 5 4
M  V30 5 2 6 3
M  V30 6 1 7 6
M  V30 7 2 8 7
M  V30 8 1 8 5
M  V30 9 1 9 8
M  V30 10 2 10 9
M  V30 11 1 11 10
M  V30 12 3 12 11
M  V30 13 1 13 10
M  V30 14 1 14 13
M  V30 15 1 15 14
M  V30 16 1 16 15
M  V30 17 1 17 16
M  V30 18 1 18 17
M  V30 19 2 19 18
M  V30 20 1 20 19
M  V30 21 2 21 20
M  V30 22 1 22 21
M  V30 23 1 23 22
M  V30 24 1 24 23
M  V30 25 1 25 24
M  V30 26 2 26 22
M  V30 27 1 27 21
M  V30 28 2 28 27
M  V30 29 1 28 18
M  V30 30 2 29 16
M  V30 31 2 30 13
M  V30 32 1 31 30
M  V30 33 1 32 31
M  V30 34 2 33 32
M  V30 35 1 34 33
M  V30 36 2 35 34
M  V30 37 1 36 35
M  V30 38 1 37 36
M  V30 39 1 38 35
M  V30 40 2 39 38
M  V30 41 1 39 32
M  V30 42 2 40 31
M  V30 43 1 40 9
M  V30 44 1 41 1
M  V30 45 1 42 1
M  V30 46 1 43 1
M  V30 47 1 44 4
M  V30 48 1 45 5
M  V30 49 1 46 6
M  V30 50 1 47 7
M  V30 51 1 48 15
M  V30 52 1 49 15
M  V30 53 1 50 17
M  V30 54 1 51 19
M  V30 55 1 52 20
M  V30 56 1 53 24
M  V30 57 1 54 24
M  V30 58 1 55 25
M  V30 59 1 56 25
M  V30 60 1 57 25
M  V30 61 1 58 27
M  V30 62 1 59 28
M  V30 63 1 60 33
M  V30 64 1 61 34
M  V30 65 1 62 37
M  V30 66 1 63 37
M  V30 67 1 64 37
M  V30 68 1 65 38
M  V30 69 1 66 39
M  V30 70 1 67 40
M  V30 END BOND
M  V30 END CTAB
M  END
>  <i_epik_Tot_Q>  (10) 
0

>  <i_epik_Tot_abs_Q>  (10) 
0

>  <i_f3d_flags>  (10) 
0

>  <i_lp_mmshare_version>  (10) 
71160

>  <i_lp_orig_ion_str>  (10) 
1

>  <i_m_source_file_index>  (10) 
35

>  <b_lp_Chiralities_Consistent>  (10) 
1

>  <r_epik_Charging_Adjusted_Penalty>  (10) 
0

>  <r_epik_Ionization_Penalty>  (10) 
6.9216807072285328e-07

>  <r_epik_Ionization_Penalty_Charging>  (10) 
0

>  <r_epik_Ionization_Penalty_Neutral>  (10) 
6.9216807072285328e-07

>  <r_epik_State_Penalty>  (10) 
-0

>  <r_lp_Energy>  (10) 
64.512637999999995

>  <r_lp_tautomer_probability>  (10) 
1

>  <s_epik_Chemistry_Notes>  (10) 
This compound has an ester and may undergo hydrolysis at high or low pH.

>  <s_epik_cmdline>  (10) 
J2VwaWtfcHl0aG9uJywgJy1waHQnLCAnMC4yJywgJy1waCcsICc3LjQnLCAnLXJldGFpbl9pX2xhYicsICctcmV0YWluX3RfbGFiJywgJy10bicsICcxJywgJy1tYScsICc1MDAnLCAnLWltYWUnLCAnPGluZmlsZS5tYWU+JywgJy1vbWFlJywgJzxvdXRmaWxlLm1hZT4n

>  <s_epik_input>  (10) 
W0NIM11PYzFbY0hdW2NIXWMoW2NIXVtjSF0xKS1jMmMoQyNOKWMobmMoW2NIXTIpLWMzW2NIXVtjSF1jKE9bQ0gzXSlbY0hdW2NIXTMpU1tDSDJdQyg9TylbTkhdYzRbY0hdW2NIXWMoW2NIXVtjSF00KUMoPU8pT1tDSDJdW0NIM10=

>  <s_lp_Force_Field>  (10) 
S-OPLS

>  <s_lp_Variant>  (10) 
1a_Ghoteimi_2023-1

>  <s_lp_label>  (10) 
35

>  <s_m_source_file>  (10) 
montpellier_ligands.smi

$$$$
1b_Ghoteimi_2023
     RDKit          3D

  0  0  0  0  0  0  0  0  0  0999 V3000
M  V30 BEGIN CTAB
M  V30 COUNTS 54 57 0 0 1
M  V30 BEGIN ATOM
M  V30 1 C -5.087247 -6.837621 1.172041 0
M  V30 2 O -5.153663 -5.896966 0.105537 0
M  V30 3 C -4.366413 -4.762686 0.157566 0
M  V30 4 C -4.475628 -3.878298 -0.915242 0
M  V30 5 C -3.721253 -2.708998 -0.948474 0
M  V30 6 C -3.485928 -4.457901 1.206513 0
M  V30 7 C -2.732589 -3.287958 1.171225 0
M  V30 8 C -2.837413 -2.405260 0.091388 0
M  V30 9 C -2.035587 -1.144890 0.055077 0
M  V30 10 C -0.620059 -1.111168 0.080387 0
M  V30 11 C 0.155496 -2.355186 0.056134 0
M  V30 12 N 0.766388 -3.338035 0.037407 0
M  V30 13 C 0.012615 0.152256 0.065607 0
M  V30 14 S 1.777605 0.387062 0.100951 0
M  V30 15 C 2.445633 -0.582387 1.495352 0
M  V30 16 C 3.528783 0.128240 2.319899 0
M  V30 17 N 3.908194 -0.530664 3.437947 0
M  V30 18 C 4.859087 -0.130474 4.368526 0
M  V30 19 N 5.599637 0.963802 4.300996 0
M  V30 20 O 6.413236 0.970684 5.435456 0
M  V30 21 C 6.132118 -0.137181 6.162166 0
M  V30 22 C 5.154397 -0.860823 5.519176 0
M  V30 23 O 3.990845 1.211384 1.953741 0
M  V30 24 N -0.684039 1.310710 -0.016481 0
M  V30 25 C -2.041527 1.286325 -0.046576 0
M  V30 26 C -2.736107 2.616517 -0.125884 0
M  V30 27 C -4.087874 2.748383 0.225476 0
M  V30 28 C -4.733401 3.979498 0.155036 0
M  V30 29 C -4.048451 5.117559 -0.264125 0
M  V30 30 O -4.769390 6.295654 -0.301013 0
M  V30 31 C -4.118446 7.495285 -0.704997 0
M  V30 32 C -2.696480 5.004356 -0.614778 0
M  V30 33 C -2.054696 3.771066 -0.544788 0
M  V30 34 C -2.731368 0.069087 -0.014770 0
M  V30 35 H -5.772860 -7.660343 0.969765 0
M  V30 36 H -5.382850 -6.388237 2.121366 0
M  V30 37 H -4.085805 -7.259176 1.272052 0
M  V30 38 H -5.150542 -4.099581 -1.729282 0
M  V30 39 H -3.822095 -2.039512 -1.790590 0
M  V30 40 H -3.373399 -5.114388 2.055924 0
M  V30 41 H -2.063518 -3.067113 1.990308 0
M  V30 42 H 1.617794 -0.853261 2.152123 0
M  V30 43 H 2.867376 -1.508375 1.103434 0
M  V30 44 H 3.448485 -1.406784 3.637137 0
M  V30 45 H 6.687377 -0.271833 7.078875 0
M  V30 46 H 4.712988 -1.792726 5.840175 0
M  V30 47 H -4.659762 1.901941 0.573151 0
M  V30 48 H -5.774751 4.050452 0.433782 0
M  V30 49 H -4.832850 8.318055 -0.681269 0
M  V30 50 H -3.735386 7.420905 -1.723767 0
M  V30 51 H -3.298642 7.750258 -0.031845 0
M  V30 52 H -2.127125 5.859984 -0.944277 0
M  V30 53 H -1.013155 3.724184 -0.828028 0
M  V30 54 H -3.810094 0.048803 -0.051885 0
M  V30 END ATOM
M  V30 BEGIN BOND
M  V30 1 1 2 1
M  V30 2 1 3 2
M  V30 3 1 4 3
M  V30 4 2 5 4
M  V30 5 2 6 3
M  V30 6 1 7 6
M  V30 7 2 8 7
M  V30 8 1 8 5
M  V30 9 1 9 8
M  V30 10 2 10 9
M  V30 11 1 11 10
M  V30 12 3 12 11
M  V30 13 1 13 10
M  V30 14 1 14 13
M  V30 15 1 15 14
M  V30 16 1 16 15
M  V30 17 1 17 16
M  V30 18 1 18 17
M  V30 19 2 19 18
M  V30 20 1 20 19
M  V30 21 1 21 20
M  V30 22 2 22 21
M  V30 23 1 22 18
M  V30 24 2 23 16
M  V30 25 2 24 13
M  V30 26 1 25 24
M  V30 27 1 26 25
M  V30 28 2 27 26
M  V30 29 1 28 27
M  V30 30 2 29 28
M  V30 31 1 30 29
M  V30 32 1 31 30
M  V30 33 1 32 29
M  V30 34 2 33 32
M  V30 35 1 33 26
M  V30 36 2 34 25
M  V30 37 1 34 9
M  V30 38 1 35 1
M  V30 39 1 36 1
M  V30 40 1 37 1
M  V30 41 1 38 4
M  V30 42 1 39 5
M  V30 43 1 40 6
M  V30 44 1 41 7
M  V30 45 1 42 15
M  V30 46 1 43 15
M  V30 47 1 44 17
M  V30 48 1 45 21
M  V30 49 1 46 22
M  V30 50 1 47 27
M  V30 51 1 48 28
M  V30 52 1 49 31
M  V30 53 1 50 31
M  V30 54 1 51 31
M  V30 55 1 52 32
M  V30 56 1 53 33
M  V30 57 1 54 34
M  V30 END BOND
M  V30 END CTAB
M  END
>  <i_epik_Tot_Q>  (11) 
0

>  <i_epik_Tot_abs_Q>  (11) 
0

>  <i_f3d_flags>  (11) 
0

>  <i_lp_mmshare_version>  (11) 
71160

>  <i_lp_orig_ion_str>  (11) 
1

>  <i_m_source_file_index>  (11) 
36

>  <b_lp_Chiralities_Consistent>  (11) 
1

>  <r_epik_Charging_Adjusted_Penalty>  (11) 
0

>  <r_epik_Ionization_Penalty>  (11) 
0.001032472773681511

>  <r_epik_Ionization_Penalty_Charging>  (11) 
0

>  <r_epik_Ionization_Penalty_Neutral>  (11) 
0.001032472773681511

>  <r_epik_State_Penalty>  (11) 
-0

>  <r_lp_Energy>  (11) 
55.740080999999996

>  <r_lp_tautomer_probability>  (11) 
1

>  <s_epik_cmdline>  (11) 
J2VwaWtfcHl0aG9uJywgJy1waHQnLCAnMC4yJywgJy1waCcsICc3LjQnLCAnLXJldGFpbl9pX2xhYicsICctcmV0YWluX3RfbGFiJywgJy10bicsICcxJywgJy1tYScsICc1MDAnLCAnLWltYWUnLCAnPGluZmlsZS5tYWU+JywgJy1vbWFlJywgJzxvdXRmaWxlLm1hZT4n

>  <s_epik_input>  (11) 
W0NIM11PYzFbY0hdW2NIXWMoW2NIXVtjSF0xKS1jMmMoQyNOKWMobmMoW2NIXTIpLWMzW2NIXVtjSF1jKE9bQ0gzXSlbY0hdW2NIXTMpU1tDSDJdQyg9TylbTkhdYzRub1tjSF1bY0hdNA==

>  <s_lp_Force_Field>  (11) 
S-OPLS

>  <s_lp_Variant>  (11) 
1b_Ghoteimi_2023-1

>  <s_lp_label>  (11) 
36

>  <s_m_source_file>  (11) 
montpellier_ligands.smi

$$$$
1c_Ghoteimi_2023
     RDKit          3D

  0  0  0  0  0  0  0  0  0  0999 V3000
M  V30 BEGIN CTAB
M  V30 COUNTS 54 57 0 0 1
M  V30 BEGIN ATOM
M  V30 1 C -5.184743 -6.912108 1.009725 0
M  V30 2 O -4.117127 -6.592848 0.123650 0
M  V30 3 C -3.485951 -5.369387 0.242404 0
M  V30 4 C -2.447079 -5.115317 -0.652721 0
M  V30 5 C -1.754825 -3.909219 -0.608345 0
M  V30 6 C -3.826613 -4.391187 1.189355 0
M  V30 7 C -3.132702 -3.185020 1.231913 0
M  V30 8 C -2.087128 -2.934938 0.338452 0
M  V30 9 C -1.360753 -1.631479 0.373304 0
M  V30 10 C 0.033111 -1.512461 0.584330 0
M  V30 11 C 0.860539 -2.692329 0.856265 0
M  V30 12 N 1.513159 -3.623633 1.069526 0
M  V30 13 C 0.605299 -0.225076 0.511127 0
M  V30 14 S 2.361133 0.052761 0.586961 0
M  V30 15 C 2.863529 0.332819 -1.141859 0
M  V30 16 C 2.405947 -0.799192 -2.067863 0
M  V30 17 N 1.174187 -0.644297 -2.601394 0
M  V30 18 C 0.467362 -1.580486 -3.339414 0
M  V30 19 N 0.887342 -2.746944 -3.778425 0
M  V30 20 C -0.068624 -3.397048 -4.412543 0
M  V30 21 C -1.300193 -2.753645 -4.496422 0
M  V30 22 S -1.188920 -1.213237 -3.698712 0
M  V30 23 O 3.137381 -1.775073 -2.243189 0
M  V30 24 N -0.129103 0.887625 0.271302 0
M  V30 25 C -1.473815 0.784236 0.108043 0
M  V30 26 C -2.220297 2.060076 -0.155960 0
M  V30 27 C -1.560679 3.207258 -0.625355 0
M  V30 28 C -2.256779 4.386645 -0.872933 0
M  V30 29 C -3.631445 4.456942 -0.658602 0
M  V30 30 O -4.240562 5.666337 -0.933609 0
M  V30 31 C -5.645116 5.796630 -0.739584 0
M  V30 32 C -4.303068 3.321425 -0.185655 0
M  V30 33 C -3.603458 2.143719 0.061874 0
M  V30 34 C -2.103461 -0.465028 0.149881 0
M  V30 35 H -5.561202 -7.907681 0.775195 0
M  V30 36 H -6.015163 -6.212274 0.904221 0
M  V30 37 H -4.853335 -6.921167 2.049291 0
M  V30 38 H -2.175244 -5.857286 -1.389443 0
M  V30 39 H -0.958618 -3.731024 -1.317111 0
M  V30 40 H -4.625884 -4.547864 1.897646 0
M  V30 41 H -3.409074 -2.442197 1.966314 0
M  V30 42 H 2.529972 1.308706 -1.497432 0
M  V30 43 H 3.953862 0.358841 -1.144299 0
M  V30 44 H 0.678754 0.208340 -2.385133 0
M  V30 45 H 0.147834 -4.372488 -4.822943 0
M  V30 46 H -2.215871 -3.089647 -4.960574 0
M  V30 47 H -0.496404 3.195364 -0.811089 0
M  V30 48 H -1.723541 5.253270 -1.235902 0
M  V30 49 H -5.953186 6.807584 -1.005818 0
M  V30 50 H -5.922450 5.631190 0.302670 0
M  V30 51 H -6.202599 5.104936 -1.372843 0
M  V30 52 H -5.366484 3.334063 -0.001062 0
M  V30 53 H -4.159325 1.299309 0.439450 0
M  V30 54 H -3.165687 -0.549167 -0.025294 0
M  V30 END ATOM
M  V30 BEGIN BOND
M  V30 1 1 2 1
M  V30 2 1 3 2
M  V30 3 1 4 3
M  V30 4 2 5 4
M  V30 5 2 6 3
M  V30 6 1 7 6
M  V30 7 2 8 7
M  V30 8 1 8 5
M  V30 9 1 9 8
M  V30 10 2 10 9
M  V30 11 1 11 10
M  V30 12 3 12 11
M  V30 13 1 13 10
M  V30 14 1 14 13
M  V30 15 1 15 14
M  V30 16 1 16 15
M  V30 17 1 17 16
M  V30 18 1 18 17
M  V30 19 2 19 18
M  V30 20 1 20 19
M  V30 21 2 21 20
M  V30 22 1 22 21
M  V30 23 1 22 18
M  V30 24 2 23 16
M  V30 25 2 24 13
M  V30 26 1 25 24
M  V30 27 1 26 25
M  V30 28 2 27 26
M  V30 29 1 28 27
M  V30 30 2 29 28
M  V30 31 1 30 29
M  V30 32 1 31 30
M  V30 33 1 32 29
M  V30 34 2 33 32
M  V30 35 1 33 26
M  V30 36 2 34 25
M  V30 37 1 34 9
M  V30 38 1 35 1
M  V30 39 1 36 1
M  V30 40 1 37 1
M  V30 41 1 38 4
M  V30 42 1 39 5
M  V30 43 1 40 6
M  V30 44 1 41 7
M  V30 45 1 42 15
M  V30 46 1 43 15
M  V30 47 1 44 17
M  V30 48 1 45 20
M  V30 49 1 46 21
M  V30 50 1 47 27
M  V30 51 1 48 28
M  V30 52 1 49 31
M  V30 53 1 50 31
M  V30 54 1 51 31
M  V30 55 1 52 32
M  V30 56 1 53 33
M  V30 57 1 54 34
M  V30 END BOND
M  V30 END CTAB
M  END
>  <i_epik_Tot_Q>  (12) 
0

>  <i_epik_Tot_abs_Q>  (12) 
0

>  <i_f3d_flags>  (12) 
0

>  <i_lp_mmshare_version>  (12) 
71160

>  <i_lp_orig_ion_str>  (12) 
1

>  <i_m_source_file_index>  (12) 
37

>  <b_lp_Chiralities_Consistent>  (12) 
1

>  <r_epik_Charging_Adjusted_Penalty>  (12) 
0

>  <r_epik_Ionization_Penalty>  (12) 
0.0076629266291508222

>  <r_epik_Ionization_Penalty_Charging>  (12) 
0

>  <r_epik_Ionization_Penalty_Neutral>  (12) 
0.0076629266291508222

>  <r_epik_State_Penalty>  (12) 
-0

>  <r_lp_Energy>  (12) 
56.369087

>  <r_lp_tautomer_probability>  (12) 
1

>  <s_epik_cmdline>  (12) 
J2VwaWtfcHl0aG9uJywgJy1waHQnLCAnMC4yJywgJy1waCcsICc3LjQnLCAnLXJldGFpbl9pX2xhYicsICctcmV0YWluX3RfbGFiJywgJy10bicsICcxJywgJy1tYScsICc1MDAnLCAnLWltYWUnLCAnPGluZmlsZS5tYWU+JywgJy1vbWFlJywgJzxvdXRmaWxlLm1hZT4n

>  <s_epik_input>  (12) 
W0NIM11PYzFbY0hdW2NIXWMoW2NIXVtjSF0xKS1jMmMoQyNOKWMoU1tDSDJdQyg9TylbTkhdYzNuW2NIXVtjSF1zMyluYyhbY0hdMiktYzRbY0hdW2NIXWMoT1tDSDNdKVtjSF1bY0hdNA==

>  <s_lp_Force_Field>  (12) 
S-OPLS

>  <s_lp_Variant>  (12) 
1c_Ghoteimi_2023-1

>  <s_lp_label>  (12) 
37

>  <s_m_source_file>  (12) 
montpellier_ligands.smi

$$$$
1d_Ghoteimi_2023
     RDKit          3D

  0  0  0  0  0  0  0  0  0  0999 V3000
M  V30 BEGIN CTAB
M  V30 COUNTS 50 52 0 0 1
M  V30 BEGIN ATOM
M  V30 1 C -5.294554 -6.829799 -0.970310 0
M  V30 2 O -5.307177 -5.851746 0.063979 0
M  V30 3 C -4.522653 -4.722031 -0.067272 0
M  V30 4 C -4.561605 -3.810093 0.987073 0
M  V30 5 C -3.799082 -2.646375 0.945151 0
M  V30 6 C -3.708817 -4.448177 -1.176787 0
M  V30 7 C -2.947744 -3.283307 -1.216949 0
M  V30 8 C -2.977444 -2.375042 -0.153361 0
M  V30 9 C -2.160665 -1.123465 -0.191141 0
M  V30 10 C -0.751484 -1.106501 -0.331146 0
M  V30 11 C 0.012772 -2.357578 -0.354244 0
M  V30 12 N 0.615080 -3.345698 -0.372271 0
M  V30 13 C -0.105466 0.148608 -0.385083 0
M  V30 14 S 1.651561 0.352113 -0.579884 0
M  V30 15 C 2.113628 -0.473908 -2.132435 0
M  V30 16 C 3.598549 -0.211253 -2.367527 0
M  V30 17 O 4.366910 -1.266923 -2.028003 0
M  V30 18 C 5.778358 -1.207247 -2.169074 0
M  V30 19 O 3.996673 0.865382 -2.817293 0
M  V30 20 N -0.777602 1.317002 -0.254465 0
M  V30 21 C -2.126190 1.307880 -0.093799 0
M  V30 22 C -2.796237 2.645419 0.038024 0
M  V30 23 C -2.171514 3.820343 -0.409849 0
M  V30 24 C -2.792019 5.059391 -0.281400 0
M  V30 25 C -4.053076 5.163652 0.300559 0
M  V30 26 O -4.590165 6.433516 0.390927 0
M  V30 27 C -5.872300 6.604265 0.985698 0
M  V30 28 C -4.689358 3.999905 0.753753 0
M  V30 29 C -4.066117 2.761742 0.622440 0
M  V30 30 C -2.833058 0.100157 -0.072566 0
M  V30 31 H -5.952862 -7.653583 -0.695066 0
M  V30 32 H -4.295547 -7.242207 -1.119684 0
M  V30 33 H -5.657161 -6.418837 -1.913734 0
M  V30 34 H -5.185360 -4.007009 1.846830 0
M  V30 35 H -3.842254 -1.956691 1.775879 0
M  V30 36 H -3.653668 -5.125668 -2.015194 0
M  V30 37 H -2.328990 -3.088424 -2.081021 0
M  V30 38 H 1.931416 -1.545283 -2.065242 0
M  V30 39 H 1.525049 -0.083467 -2.962662 0
M  V30 40 H 6.220241 -2.152728 -1.854395 0
M  V30 41 H 6.200341 -0.412959 -1.551491 0
M  V30 42 H 6.062365 -1.028666 -3.207139 0
M  V30 43 H -1.194639 3.785021 -0.869754 0
M  V30 44 H -2.287478 5.946169 -0.636204 0
M  V30 45 H -6.134644 7.662057 0.978113 0
M  V30 46 H -5.879510 6.270420 2.024475 0
M  V30 47 H -6.644684 6.068761 0.431583 0
M  V30 48 H -5.664979 4.036322 1.213917 0
M  V30 49 H -4.585682 1.894307 0.999668 0
M  V30 50 H -3.908351 0.097718 0.025022 0
M  V30 END ATOM
M  V30 BEGIN BOND
M  V30 1 1 2 1
M  V30 2 1 3 2
M  V30 3 1 4 3
M  V30 4 2 5 4
M  V30 5 2 6 3
M  V30 6 1 7 6
M  V30 7 2 8 7
M  V30 8 1 8 5
M  V30 9 1 9 8
M  V30 10 2 10 9
M  V30 11 1 11 10
M  V30 12 3 12 11
M  V30 13 1 13 10
M  V30 14 1 14 13
M  V30 15 1 15 14
M  V30 16 1 16 15
M  V30 17 1 17 16
M  V30 18 1 18 17
M  V30 19 2 19 16
M  V30 20 2 20 13
M  V30 21 1 21 20
M  V30 22 1 22 21
M  V30 23 2 23 22
M  V30 24 1 24 23
M  V30 25 2 25 24
M  V30 26 1 26 25
M  V30 27 1 27 26
M  V30 28 1 28 25
M  V30 29 2 29 28
M  V30 30 1 29 22
M  V30 31 2 30 21
M  V30 32 1 30 9
M  V30 33 1 31 1
M  V30 34 1 32 1
M  V30 35 1 33 1
M  V30 36 1 34 4
M  V30 37 1 35 5
M  V30 38 1 36 6
M  V30 39 1 37 7
M  V30 40 1 38 15
M  V30 41 1 39 15
M  V30 42 1 40 18
M  V30 43 1 41 18
M  V30 44 1 42 18
M  V30 45 1 43 23
M  V30 46 1 44 24
M  V30 47 1 45 27
M  V30 48 1 46 27
M  V30 49 1 47 27
M  V30 50 1 48 28
M  V30 51 1 49 29
M  V30 52 1 50 30
M  V30 END BOND
M  V30 END CTAB
M  END
>  <i_epik_Tot_Q>  (13) 
0

>  <i_epik_Tot_abs_Q>  (13) 
0

>  <i_f3d_flags>  (13) 
0

>  <i_lp_mmshare_version>  (13) 
71160

>  <i_lp_orig_ion_str>  (13) 
1

>  <i_m_source_file_index>  (13) 
38

>  <b_lp_Chiralities_Consistent>  (13) 
1

>  <r_epik_Charging_Adjusted_Penalty>  (13) 
0

>  <r_epik_Ionization_Penalty>  (13) 
8.9127321217941304e-09

>  <r_epik_Ionization_Penalty_Charging>  (13) 
0

>  <r_epik_Ionization_Penalty_Neutral>  (13) 
8.9127321217941304e-09

>  <r_epik_State_Penalty>  (13) 
-0

>  <r_lp_Energy>  (13) 
55.528307999999996

>  <r_lp_tautomer_probability>  (13) 
1

>  <s_epik_Chemistry_Notes>  (13) 
This compound has an ester and may undergo hydrolysis at high or low pH.

>  <s_epik_cmdline>  (13) 
J2VwaWtfcHl0aG9uJywgJy1waHQnLCAnMC4yJywgJy1waCcsICc3LjQnLCAnLXJldGFpbl9pX2xhYicsICctcmV0YWluX3RfbGFiJywgJy10bicsICcxJywgJy1tYScsICc1MDAnLCAnLWltYWUnLCAnPGluZmlsZS5tYWU+JywgJy1vbWFlJywgJzxvdXRmaWxlLm1hZT4n

>  <s_epik_input>  (13) 
W0NIM11PYzFbY0hdW2NIXWMoW2NIXVtjSF0xKS1jMmMoQyNOKWMoU1tDSDJdQyg9TylPW0NIM10pbmMoW2NIXTIpLWMzW2NIXVtjSF1jKE9bQ0gzXSlbY0hdW2NIXTM=

>  <s_lp_Force_Field>  (13) 
S-OPLS

>  <s_lp_Variant>  (13) 
1d_Ghoteimi_2023-1

>  <s_lp_label>  (13) 
38

>  <s_m_source_file>  (13) 
montpellier_ligands.smi

$$$$
1aa_Ghoteimi_2023
     RDKit          3D

  0  0  0  0  0  0  0  0  0  0999 V3000
M  V30 BEGIN CTAB
M  V30 COUNTS 67 70 0 0 1
M  V30 BEGIN ATOM
M  V30 1 C -4.623014 6.964119 1.144348 0
M  V30 2 O -4.675766 6.023904 0.076791 0
M  V30 3 C -3.977638 4.836814 0.188933 0
M  V30 4 C -4.065368 3.957869 -0.890166 0
M  V30 5 C -3.395345 2.738080 -0.866010 0
M  V30 6 C -2.618467 2.376169 0.238772 0
M  V30 7 C -1.910908 1.060572 0.260594 0
M  V30 8 C -0.513206 0.921905 0.424501 0
M  V30 9 C 0.038698 -0.370186 0.447082 0
M  V30 10 O 1.406775 -0.535076 0.611270 0
M  V30 11 C 1.981589 -1.848276 0.628096 0
M  V30 12 C 3.508452 -1.765109 0.792185 0
M  V30 13 N 4.054657 -0.530724 0.885962 0
M  V30 14 C 5.398321 -0.137613 1.034626 0
M  V30 15 C 6.494302 -1.012110 1.081121 0
M  V30 16 C 7.783645 -0.508235 1.230558 0
M  V30 17 C 8.004885 0.873595 1.334620 0
M  V30 18 C 6.904346 1.739000 1.284911 0
M  V30 19 C 5.615006 1.237018 1.136274 0
M  V30 20 C 9.382537 1.448276 1.497950 0
M  V30 21 O 10.357783 0.503632 1.528425 0
M  V30 22 C 11.724701 0.865007 1.682899 0
M  V30 23 C 12.591128 -0.398083 1.667151 0
M  V30 24 O 9.605298 2.658726 1.595299 0
M  V30 25 O 4.141308 -2.819748 0.830394 0
M  V30 26 N -0.729303 -1.485773 0.308557 0
M  V30 27 C -2.071058 -1.365116 0.132358 0
M  V30 28 C -2.846679 -2.643304 -0.010080 0
M  V30 29 C -4.119938 -2.653141 -0.598563 0
M  V30 30 C -4.841856 -3.835876 -0.730301 0
M  V30 31 C -4.314600 -5.043808 -0.279331 0
M  V30 32 C -3.041996 -5.051364 0.307478 0
M  V30 33 C -2.322085 -3.867034 0.436354 0
M  V30 34 O -5.102911 -6.165740 -0.449643 0
M  V30 35 C -4.617588 -7.428660 -0.006599 0
M  V30 36 C -2.677027 -0.103094 0.109871 0
M  V30 37 C 0.373445 2.081134 0.545794 0
M  V30 38 N 1.075088 2.996208 0.641998 0
M  V30 39 C -2.536160 3.254004 1.324844 0
M  V30 40 C -3.205599 4.474491 1.303069 0
M  V30 41 H -5.223643 7.836183 0.886049 0
M  V30 42 H -3.603347 7.307580 1.324938 0
M  V30 43 H -5.028941 6.545743 2.066509 0
M  V30 44 H -4.657582 4.222593 -1.753927 0
M  V30 45 H -3.478313 2.074161 -1.714531 0
M  V30 46 H 1.571348 -2.424739 1.459341 0
M  V30 47 H 1.761401 -2.366465 -0.307194 0
M  V30 48 H 3.403101 0.239860 0.849660 0
M  V30 49 H 6.385482 -2.081193 1.003088 0
M  V30 50 H 8.602369 -1.212882 1.262811 0
M  V30 51 H 7.033078 2.809584 1.360155 0
M  V30 52 H 4.784367 1.928271 1.101408 0
M  V30 53 H 12.028075 1.533186 0.875213 0
M  V30 54 H 11.863986 1.400403 2.623407 0
M  V30 55 H 13.644153 -0.145739 1.791973 0
M  V30 56 H 12.487329 -0.935102 0.723869 0
M  V30 57 H 12.313967 -1.077922 2.473583 0
M  V30 58 H -4.566569 -1.745740 -0.975510 0
M  V30 59 H -5.819792 -3.813872 -1.188907 0
M  V30 60 H -2.595307 -5.964422 0.670482 0
M  V30 61 H -1.346851 -3.912391 0.898886 0
M  V30 62 H -5.363976 -8.194594 -0.216719 0
M  V30 63 H -4.435155 -7.432456 1.069168 0
M  V30 64 H -3.700692 -7.710093 -0.526674 0
M  V30 65 H -3.747126 -0.011989 -0.002154 0
M  V30 66 H -1.951564 2.990046 2.194396 0
M  V30 67 H -3.114776 5.124182 2.160183 0
M  V30 END ATOM
M  V30 BEGIN BOND
M  V30 1 1 2 1
M  V30 2 1 3 2
M  V30 3 2 4 3
M  V30 4 1 5 4
M  V30 5 2 6 5
M  V30 6 1 7 6
M  V30 7 2 8 7
M  V30 8 1 9 8
M  V30 9 1 10 9
M  V30 10 1 11 10
M  V30 11 1 12 11
M  V30 12 1 13 12
M  V30 13 1 14 13
M  V30 14 2 15 14
M  V30 15 1 16 15
M  V30 16 2 17 16
M  V30 17 1 18 17
M  V30 18 2 19 18
M  V30 19 1 19 14
M  V30 20 1 20 17
M  V30 21 1 21 20
M  V30 22 1 22 21
M  V30 23 1 23 22
M  V30 24 2 24 20
M  V30 25 2 25 12
M  V30 26 2 26 9
M  V30 27 1 27 26
M  V30 28 1 28 27
M  V30 29 2 29 28
M  V30 30 1 30 29
M  V30 31 2 31 30
M  V30 32 1 32 31
M  V30 33 2 33 32
M  V30 34 1 33 28
M  V30 35 1 34 31
M  V30 36 1 35 34
M  V30 37 2 36 27
M  V30 38 1 36 7
M  V30 39 1 37 8
M  V30 40 3 38 37
M  V30 41 1 39 6
M  V30 42 2 40 39
M  V30 43 1 40 3
M  V30 44 1 41 1
M  V30 45 1 42 1
M  V30 46 1 43 1
M  V30 47 1 44 4
M  V30 48 1 45 5
M  V30 49 1 46 11
M  V30 50 1 47 11
M  V30 51 1 48 13
M  V30 52 1 49 15
M  V30 53 1 50 16
M  V30 54 1 51 18
M  V30 55 1 52 19
M  V30 56 1 53 22
M  V30 57 1 54 22
M  V30 58 1 55 23
M  V30 59 1 56 23
M  V30 60 1 57 23
M  V30 61 1 58 29
M  V30 62 1 59 30
M  V30 63 1 60 32
M  V30 64 1 61 33
M  V30 65 1 62 35
M  V30 66 1 63 35
M  V30 67 1 64 35
M  V30 68 1 65 36
M  V30 69 1 66 39
M  V30 70 1 67 40
M  V30 END BOND
M  V30 END CTAB
M  END
>  <i_epik_Tot_Q>  (14) 
0

>  <i_epik_Tot_abs_Q>  (14) 
0

>  <i_f3d_flags>  (14) 
0

>  <i_lp_mmshare_version>  (14) 
71160

>  <i_lp_orig_ion_str>  (14) 
1

>  <i_m_source_file_index>  (14) 
39

>  <b_lp_Chiralities_Consistent>  (14) 
1

>  <r_epik_Charging_Adjusted_Penalty>  (14) 
0

>  <r_epik_Ionization_Penalty>  (14) 
8.1084922599295119e-07

>  <r_epik_Ionization_Penalty_Charging>  (14) 
0

>  <r_epik_Ionization_Penalty_Neutral>  (14) 
8.1084922599295119e-07

>  <r_epik_State_Penalty>  (14) 
-0

>  <r_lp_Energy>  (14) 
60.275790000000001

>  <r_lp_tautomer_probability>  (14) 
1

>  <s_epik_Chemistry_Notes>  (14) 
This compound has an ester and may undergo hydrolysis at high or low pH.

>  <s_epik_cmdline>  (14) 
J2VwaWtfcHl0aG9uJywgJy1waHQnLCAnMC4yJywgJy1waCcsICc3LjQnLCAnLXJldGFpbl9pX2xhYicsICctcmV0YWluX3RfbGFiJywgJy10bicsICcxJywgJy1tYScsICc1MDAnLCAnLWltYWUnLCAnPGluZmlsZS5tYWU+JywgJy1vbWFlJywgJzxvdXRmaWxlLm1hZT4n

>  <s_epik_input>  (14) 
W0NIM11PYzFbY0hdW2NIXWMoW2NIXVtjSF0xKS1jMmMoQyNOKWMobmMoW2NIXTIpLWMzW2NIXVtjSF1jKFtjSF1bY0hdMylPW0NIM10pT1tDSDJdQyg9TylbTkhdYzRbY0hdW2NIXWMoW2NIXVtjSF00KUMoPU8pT1tDSDJdW0NIM10=

>  <s_lp_Force_Field>  (14) 
S-OPLS

>  <s_lp_Variant>  (14) 
1aa_Ghoteimi_2023-1

>  <s_lp_label>  (14) 
39

>  <s_m_source_file>  (14) 
montpellier_ligands.smi

$$$$
2a_Ghoteimi_2023
     RDKit          3D

  0  0  0  0  0  0  0  0  0  0999 V3000
M  V30 BEGIN CTAB
M  V30 COUNTS 85 90 0 0 1
M  V30 BEGIN ATOM
M  V30 1 N 0.850416 -3.238639 0.069931 0
M  V30 2 C 0.202232 -2.279980 0.060419 0
M  V30 3 C -0.621649 -1.067146 0.048728 0
M  V30 4 C -0.033649 0.215734 0.111477 0
M  V30 5 S 1.715888 0.486422 0.269359 0
M  V30 6 C 2.099362 0.212269 2.029344 0
M  V30 7 C 2.753443 -1.141974 2.332855 0
M  V30 8 N 2.448295 -1.668937 3.538838 0
M  V30 9 C 2.852765 -2.886221 4.120254 0
M  V30 10 C 2.482704 -3.073780 5.452677 0
M  V30 11 C 2.827750 -4.243427 6.123698 0
M  V30 12 C 3.549454 -5.253368 5.469870 0
M  V30 13 C 3.912854 -5.063730 4.129981 0
M  V30 14 C 3.567349 -3.894960 3.456911 0
M  V30 15 C 3.940451 -6.526742 6.163026 0
M  V30 16 O 3.497968 -6.596516 7.444911 0
M  V30 17 C 3.771678 -7.732154 8.255726 0
M  V30 18 C 3.135345 -7.536790 9.635291 0
M  V30 19 O 4.593083 -7.422502 5.618957 0
M  V30 20 O 3.519476 -1.647871 1.512430 0
M  V30 21 N -0.761343 1.356130 0.051464 0
M  V30 22 C -2.111225 1.280961 -0.061216 0
M  V30 23 C -2.848556 2.580267 -0.111802 0
M  V30 24 C -2.279650 3.714856 -0.702905 0
M  V30 25 C -2.966513 4.924903 -0.737074 0
M  V30 26 C -4.251672 5.044618 -0.188618 0
M  V30 27 C -4.813189 3.907153 0.412764 0
M  V30 28 C -4.126500 2.696803 0.444654 0
M  V30 29 N -4.918058 6.275228 -0.204076 0
M  V30 30 C -6.205953 6.462441 0.494119 0
M  V30 31 C -6.606347 7.941194 0.678438 0
M  V30 32 O -6.606850 8.603567 -0.575767 0
M  V30 33 C -5.322995 8.575466 -1.178243 0
M  V30 34 C -4.882147 7.115865 -1.419046 0
M  V30 35 C -2.762969 0.046622 -0.128811 0
M  V30 36 C -2.031391 -1.147199 -0.068992 0
M  V30 37 C -2.792474 -2.431443 -0.140858 0
M  V30 38 C -3.617958 -2.698011 -1.235759 0
M  V30 39 C -4.346403 -3.881994 -1.303357 0
M  V30 40 C -4.267645 -4.837497 -0.277982 0
M  V30 41 C -3.446390 -4.555840 0.823122 0
M  V30 42 C -2.719321 -3.370715 0.891093 0
M  V30 43 N -5.004971 -6.024009 -0.317241 0
M  V30 44 C -4.335294 -7.301737 -0.002718 0
M  V30 45 C -5.322317 -8.449608 0.298368 0
M  V30 46 O -6.227956 -8.608144 -0.782886 0
M  V30 47 C -6.984248 -7.429095 -1.010798 0
M  V30 48 C -6.041999 -6.252580 -1.342377 0
M  V30 49 H 2.716596 1.022770 2.417337 0
M  V30 50 H 1.146062 0.268109 2.557755 0
M  V30 51 H 1.860503 -1.104088 4.133946 0
M  V30 52 H 1.926081 -2.312683 5.981324 0
M  V30 53 H 2.524393 -4.346211 7.155766 0
M  V30 54 H 4.464742 -5.821064 3.591148 0
M  V30 55 H 3.860684 -3.810955 2.423246 0
M  V30 56 H 3.371104 -8.632170 7.786389 0
M  V30 57 H 4.849805 -7.865608 8.357990 0
M  V30 58 H 3.332467 -8.395675 10.276861 0
M  V30 59 H 2.053776 -7.420790 9.558031 0
M  V30 60 H 3.534186 -6.651918 10.132344 0
M  V30 61 H -1.292343 3.667293 -1.139472 0
M  V30 62 H -2.466611 5.771166 -1.182542 0
M  V30 63 H -5.795746 3.935369 0.859040 0
M  V30 64 H -4.596810 1.849582 0.921921 0
M  V30 65 H -6.990313 5.916794 -0.032936 0
M  V30 66 H -6.133263 6.025412 1.490695 0
M  V30 67 H -7.607402 8.004471 1.105586 0
M  V30 68 H -5.938106 8.444895 1.379883 0
M  V30 69 H -5.373511 9.109797 -2.127150 0
M  V30 70 H -4.596219 9.107967 -0.561409 0
M  V30 71 H -5.503786 6.654586 -2.187771 0
M  V30 72 H -3.875331 7.156993 -1.830292 0
M  V30 73 H -3.838420 0.008954 -0.227988 0
M  V30 74 H -3.696089 -1.984838 -2.043794 0
M  V30 75 H -4.964675 -4.043884 -2.173416 0
M  V30 76 H -3.375192 -5.243520 1.652433 0
M  V30 77 H -2.102186 -3.180717 1.757356 0
M  V30 78 H -3.677435 -7.573226 -0.829812 0
M  V30 79 H -3.693411 -7.193576 0.870421 0
M  V30 80 H -4.776298 -9.383585 0.433678 0
M  V30 81 H -5.862481 -8.268269 1.229773 0
M  V30 82 H -7.661983 -7.607816 -1.845813 0
M  V30 83 H -7.610258 -7.199352 -0.146118 0
M  V30 84 H -5.570897 -6.402689 -2.315280 0
M  V30 85 H -6.657968 -5.356135 -1.425825 0
M  V30 END ATOM
M  V30 BEGIN BOND
M  V30 1 3 2 1
M  V30 2 1 3 2
M  V30 3 1 4 3
M  V30 4 1 5 4
M  V30 5 1 6 5
M  V30 6 1 7 6
M  V30 7 1 8 7
M  V30 8 1 9 8
M  V30 9 2 10 9
M  V30 10 1 11 10
M  V30 11 2 12 11
M  V30 12 1 13 12
M  V30 13 2 14 13
M  V30 14 1 14 9
M  V30 15 1 15 12
M  V30 16 1 16 15
M  V30 17 1 17 16
M  V30 18 1 18 17
M  V30 19 2 19 15
M  V30 20 2 20 7
M  V30 21 2 21 4
M  V30 22 1 22 21
M  V30 23 1 23 22
M  V30 24 2 24 23
M  V30 25 1 25 24
M  V30 26 2 26 25
M  V30 27 1 27 26
M  V30 28 2 28 27
M  V30 29 1 28 23
M  V30 30 1 29 26
M  V30 31 1 30 29
M  V30 32 1 31 30
M  V30 33 1 32 31
M  V30 34 1 33 32
M  V30 35 1 34 33
M  V30 36 1 34 29
M  V30 37 2 35 22
M  V30 38 2 36 3
M  V30 39 1 36 35
M  V30 40 1 37 36
M  V30 41 2 38 37
M  V30 42 1 39 38
M  V30 43 2 40 39
M  V30 44 1 41 40
M  V30 45 2 42 41
M  V30 46 1 42 37
M  V30 47 1 43 40
M  V30 48 1 44 43
M  V30 49 1 45 44
M  V30 50 1 46 45
M  V30 51 1 47 46
M  V30 52 1 48 47
M  V30 53 1 48 43
M  V30 54 1 49 6
M  V30 55 1 50 6
M  V30 56 1 51 8
M  V30 57 1 52 10
M  V30 58 1 53 11
M  V30 59 1 54 13
M  V30 60 1 55 14
M  V30 61 1 56 17
M  V30 62 1 57 17
M  V30 63 1 58 18
M  V30 64 1 59 18
M  V30 65 1 60 18
M  V30 66 1 61 24
M  V30 67 1 62 25
M  V30 68 1 63 27
M  V30 69 1 64 28
M  V30 70 1 65 30
M  V30 71 1 66 30
M  V30 72 1 67 31
M  V30 73 1 68 31
M  V30 74 1 69 33
M  V30 75 1 70 33
M  V30 76 1 71 34
M  V30 77 1 72 34
M  V30 78 1 73 35
M  V30 79 1 74 38
M  V30 80 1 75 39
M  V30 81 1 76 41
M  V30 82 1 77 42
M  V30 83 1 78 44
M  V30 84 1 79 44
M  V30 85 1 80 45
M  V30 86 1 81 45
M  V30 87 1 82 47
M  V30 88 1 83 47
M  V30 89 1 84 48
M  V30 90 1 85 48
M  V30 END BOND
M  V30 END CTAB
M  END
>  <i_epik_Tot_Q>  (15) 
0

>  <i_epik_Tot_abs_Q>  (15) 
0

>  <i_f3d_flags>  (15) 
0

>  <i_lp_mmshare_version>  (15) 
71160

>  <i_lp_orig_ion_str>  (15) 
1

>  <i_m_source_file_index>  (15) 
40

>  <b_lp_Chiralities_Consistent>  (15) 
1

>  <r_epik_Charging_Adjusted_Penalty>  (15) 
0

>  <r_epik_Ionization_Penalty>  (15) 
3.0505140601574461e-06

>  <r_epik_Ionization_Penalty_Charging>  (15) 
0

>  <r_epik_Ionization_Penalty_Neutral>  (15) 
3.0505140601574461e-06

>  <r_epik_State_Penalty>  (15) 
-0

>  <r_lp_Energy>  (15) 
77.355982999999995

>  <r_lp_tautomer_probability>  (15) 
1

>  <s_epik_Chemistry_Notes>  (15) 
This compound has an ester and may undergo hydrolysis at high or low pH.

>  <s_epik_cmdline>  (15) 
J2VwaWtfcHl0aG9uJywgJy1waHQnLCAnMC4yJywgJy1waCcsICc3LjQnLCAnLXJldGFpbl9pX2xhYicsICctcmV0YWluX3RfbGFiJywgJy10bicsICcxJywgJy1tYScsICc1MDAnLCAnLWltYWUnLCAnPGluZmlsZS5tYWU+JywgJy1vbWFlJywgJzxvdXRmaWxlLm1hZT4n

>  <s_epik_input>  (15) 
W0NIM11bQ0gyXU9DKD1PKWMoW2NIXVtjSF0xKVtjSF1bY0hdYzFbTkhdQyg9TylbQ0gyXVNjKGMyQyNOKW5jKC1jM1tjSF1bY0hdYyhbY0hdW2NIXTMpTjRbQ0gyXVtDSDJdT1tDSDJdW0NIMl00KVtjSF1jMi1jNVtjSF1bY0hdYyhbY0hdW2NIXTUpTjZbQ0gyXVtDSDJdT1tDSDJdW0NIMl02

>  <s_lp_Force_Field>  (15) 
S-OPLS

>  <s_lp_Variant>  (15) 
2a_Ghoteimi_2023-1

>  <s_lp_label>  (15) 
40

>  <s_m_source_file>  (15) 
montpellier_ligands.smi

$$$$
2b_Ghoteimi_2023
     RDKit          3D

  0  0  0  0  0  0  0  0  0  0999 V3000
M  V30 BEGIN CTAB
M  V30 COUNTS 72 77 0 0 1
M  V30 BEGIN ATOM
M  V30 1 N 0.933414 -2.866013 -1.011105 0
M  V30 2 C 0.264808 -1.930424 -0.880966 0
M  V30 3 C -0.586391 -0.748291 -0.715484 0
M  V30 4 C -0.046711 0.557956 -0.732495 0
M  V30 5 S 1.681979 0.915762 -0.955126 0
M  V30 6 C 2.174580 0.254109 -2.575016 0
M  V30 7 C 3.569699 -0.371932 -2.539942 0
M  V30 8 N 3.600624 -1.718172 -2.432031 0
M  V30 9 C 4.722859 -2.532039 -2.368478 0
M  V30 10 N 5.980282 -2.129401 -2.448856 0
M  V30 11 O 6.775341 -3.271549 -2.337177 0
M  V30 12 C 5.958145 -4.342114 -2.192925 0
M  V30 13 C 4.650664 -3.914807 -2.207523 0
M  V30 14 O 4.560842 0.356698 -2.614717 0
M  V30 15 N -0.808865 1.661500 -0.542629 0
M  V30 16 C -2.147610 1.529342 -0.363556 0
M  V30 17 C -2.922348 2.794078 -0.167842 0
M  V30 18 C -4.072071 2.810896 0.629406 0
M  V30 19 C -4.788478 3.987705 0.828794 0
M  V30 20 C -4.388251 5.191553 0.228089 0
M  V30 21 C -3.231381 5.171820 -0.563945 0
M  V30 22 C -2.514359 3.995311 -0.761159 0
M  V30 23 N -5.079532 6.388895 0.443934 0
M  V30 24 C -5.308987 7.320466 -0.680114 0
M  V30 25 C -5.722411 8.738680 -0.232957 0
M  V30 26 O -6.860702 8.670285 0.610763 0
M  V30 27 C -6.597084 7.910036 1.778856 0
M  V30 28 C -6.207464 6.467440 1.393951 0
M  V30 29 C -2.754936 0.270483 -0.368132 0
M  V30 30 C -1.983518 -0.887708 -0.527337 0
M  V30 31 C -2.688118 -2.203597 -0.480528 0
M  V30 32 C -3.670772 -2.510362 -1.424115 0
M  V30 33 C -4.331371 -3.735221 -1.384785 0
M  V30 34 C -4.037849 -4.680870 -0.389822 0
M  V30 35 C -3.051771 -4.362911 0.554081 0
M  V30 36 C -2.389181 -3.139990 0.512583 0
M  V30 37 N -4.677261 -5.921445 -0.338366 0
M  V30 38 C -5.241177 -6.385621 0.944685 0
M  V30 39 C -5.568730 -7.894220 0.958255 0
M  V30 40 O -6.428125 -8.216588 -0.124553 0
M  V30 41 C -5.834410 -7.906968 -1.375872 0
M  V30 42 C -5.522962 -6.397505 -1.449772 0
M  V30 43 H 1.427867 -0.414578 -3.004133 0
M  V30 44 H 2.220262 1.114882 -3.243229 0
M  V30 45 H 2.714530 -2.197341 -2.363971 0
M  V30 46 H 6.432803 -5.307357 -2.094361 0
M  V30 47 H 3.761689 -4.520991 -2.113029 0
M  V30 48 H -4.415878 1.910720 1.117202 0
M  V30 49 H -5.666273 3.937794 1.455083 0
M  V30 50 H -2.852811 6.071639 -1.023897 0
M  V30 51 H -1.628562 4.028128 -1.378956 0
M  V30 52 H -4.408171 7.431053 -1.280678 0
M  V30 53 H -6.064148 6.896644 -1.343721 0
M  V30 54 H -4.898195 9.246104 0.272449 0
M  V30 55 H -5.971205 9.345468 -1.103756 0
M  V30 56 H -5.814590 8.381180 2.377142 0
M  V30 57 H -7.494981 7.899664 2.397234 0
M  V30 58 H -5.927955 5.956203 2.315978 0
M  V30 59 H -7.067289 5.933839 0.985757 0
M  V30 60 H -3.823587 0.183611 -0.233417 0
M  V30 61 H -3.921060 -1.799822 -2.198851 0
M  V30 62 H -5.082174 -3.928986 -2.136104 0
M  V30 63 H -2.774265 -5.067081 1.324458 0
M  V30 64 H -1.635264 -2.923140 1.255701 0
M  V30 65 H -4.540425 -6.200314 1.757498 0
M  V30 66 H -6.132974 -5.800998 1.175576 0
M  V30 67 H -4.657611 -8.494579 0.917976 0
M  V30 68 H -6.070817 -8.156348 1.889771 0
M  V30 69 H -4.932700 -8.502495 -1.532233 0
M  V30 70 H -6.529933 -8.182239 -2.168892 0
M  V30 71 H -5.002491 -6.214905 -2.390662 0
M  V30 72 H -6.446859 -5.818089 -1.483443 0
M  V30 END ATOM
M  V30 BEGIN BOND
M  V30 1 3 2 1
M  V30 2 1 3 2
M  V30 3 1 4 3
M  V30 4 1 5 4
M  V30 5 1 6 5
M  V30 6 1 7 6
M  V30 7 1 8 7
M  V30 8 1 9 8
M  V30 9 2 10 9
M  V30 10 1 11 10
M  V30 11 1 12 11
M  V30 12 2 13 12
M  V30 13 1 13 9
M  V30 14 2 14 7
M  V30 15 2 15 4
M  V30 16 1 16 15
M  V30 17 1 17 16
M  V30 18 2 18 17
M  V30 19 1 19 18
M  V30 20 2 20 19
M  V30 21 1 21 20
M  V30 22 2 22 21
M  V30 23 1 22 17
M  V30 24 1 23 20
M  V30 25 1 24 23
M  V30 26 1 25 24
M  V30 27 1 26 25
M  V30 28 1 27 26
M  V30 29 1 28 27
M  V30 30 1 28 23
M  V30 31 2 29 16
M  V30 32 2 30 3
M  V30 33 1 30 29
M  V30 34 1 31 30
M  V30 35 2 32 31
M  V30 36 1 33 32
M  V30 37 2 34 33
M  V30 38 1 35 34
M  V30 39 2 36 35
M  V30 40 1 36 31
M  V30 41 1 37 34
M  V30 42 1 38 37
M  V30 43 1 39 38
M  V30 44 1 40 39
M  V30 45 1 41 40
M  V30 46 1 42 41
M  V30 47 1 42 37
M  V30 48 1 43 6
M  V30 49 1 44 6
M  V30 50 1 45 8
M  V30 51 1 46 12
M  V30 52 1 47 13
M  V30 53 1 48 18
M  V30 54 1 49 19
M  V30 55 1 50 21
M  V30 56 1 51 22
M  V30 57 1 52 24
M  V30 58 1 53 24
M  V30 59 1 54 25
M  V30 60 1 55 25
M  V30 61 1 56 27
M  V30 62 1 57 27
M  V30 63 1 58 28
M  V30 64 1 59 28
M  V30 65 1 60 29
M  V30 66 1 61 32
M  V30 67 1 62 33
M  V30 68 1 63 35
M  V30 69 1 64 36
M  V30 70 1 65 38
M  V30 71 1 66 38
M  V30 72 1 67 39
M  V30 73 1 68 39
M  V30 74 1 69 41
M  V30 75 1 70 41
M  V30 76 1 71 42
M  V30 77 1 72 42
M  V30 END BOND
M  V30 END CTAB
M  END
>  <i_epik_Tot_Q>  (16) 
0

>  <i_epik_Tot_abs_Q>  (16) 
0

>  <i_f3d_flags>  (16) 
0

>  <i_lp_mmshare_version>  (16) 
71160

>  <i_lp_orig_ion_str>  (16) 
1

>  <i_m_source_file_index>  (16) 
41

>  <b_lp_Chiralities_Consistent>  (16) 
1

>  <r_epik_Charging_Adjusted_Penalty>  (16) 
0

>  <r_epik_Ionization_Penalty>  (16) 
0.0010348321561315557

>  <r_epik_Ionization_Penalty_Charging>  (16) 
0

>  <r_epik_Ionization_Penalty_Neutral>  (16) 
0.0010348321561315557

>  <r_epik_State_Penalty>  (16) 
-0

>  <r_lp_Energy>  (16) 
66.627113999999992

>  <r_lp_tautomer_probability>  (16) 
1

>  <s_epik_cmdline>  (16) 
J2VwaWtfcHl0aG9uJywgJy1waHQnLCAnMC4yJywgJy1waCcsICc3LjQnLCAnLXJldGFpbl9pX2xhYicsICctcmV0YWluX3RfbGFiJywgJy10bicsICcxJywgJy1tYScsICc1MDAnLCAnLWltYWUnLCAnPGluZmlsZS5tYWU+JywgJy1vbWFlJywgJzxvdXRmaWxlLm1hZT4n

>  <s_epik_input>  (16) 
W2NIXTFbY0hdb25jMVtOSF1DKD1PKVtDSDJdU2MoYzJDI04pbmMoLWMzW2NIXVtjSF1jKFtjSF1bY0hdMylONFtDSDJdW0NIMl1PW0NIMl1bQ0gyXTQpW2NIXWMyLWM1W2NIXVtjSF1jKFtjSF1bY0hdNSlONltDSDJdW0NIMl1PW0NIMl1bQ0gyXTY=

>  <s_lp_Force_Field>  (16) 
S-OPLS

>  <s_lp_Variant>  (16) 
2b_Ghoteimi_2023-1

>  <s_lp_label>  (16) 
41

>  <s_m_source_file>  (16) 
montpellier_ligands.smi

$$$$
2c_Ghoteimi_2023
     RDKit          3D

  0  0  0  0  0  0  0  0  0  0999 V3000
M  V30 BEGIN CTAB
M  V30 COUNTS 72 77 0 0 1
M  V30 BEGIN ATOM
M  V30 1 N 0.929286 -2.826418 -1.031129 0
M  V30 2 C 0.258561 -1.894253 -0.888656 0
M  V30 3 C -0.595089 -0.716207 -0.707260 0
M  V30 4 C -0.060461 0.591930 -0.733978 0
M  V30 5 S 1.662223 0.955913 -0.989261 0
M  V30 6 C 2.121870 0.301834 -2.622174 0
M  V30 7 C 3.521838 -0.313952 -2.619623 0
M  V30 8 N 3.566438 -1.660209 -2.521712 0
M  V30 9 C 4.704302 -2.452322 -2.481565 0
M  V30 10 N 5.959377 -2.067651 -2.568945 0
M  V30 11 C 6.786362 -3.091448 -2.486862 0
M  V30 12 C 6.201443 -4.344406 -2.330112 0
M  V30 13 S 4.473377 -4.160406 -2.288188 0
M  V30 14 O 4.506253 0.422256 -2.709108 0
M  V30 15 N -0.823294 1.693136 -0.534459 0
M  V30 16 C -2.158553 1.556528 -0.334750 0
M  V30 17 C -2.936130 2.819066 -0.139474 0
M  V30 18 C -4.070419 2.840075 0.679075 0
M  V30 19 C -4.794521 4.013598 0.869923 0
M  V30 20 C -4.417616 5.209706 0.239062 0
M  V30 21 C -3.272851 5.186695 -0.570453 0
M  V30 22 C -2.548472 4.013348 -0.759298 0
M  V30 23 N -5.119972 6.403251 0.440375 0
M  V30 24 C -5.375503 7.307376 -0.700327 0
M  V30 25 C -5.802531 8.729361 -0.279043 0
M  V30 26 O -6.932047 8.663547 0.576485 0
M  V30 27 C -6.647964 7.930603 1.757158 0
M  V30 28 C -6.240575 6.486027 1.398524 0
M  V30 29 C -2.761190 0.295298 -0.325396 0
M  V30 30 C -1.988762 -0.860749 -0.496878 0
M  V30 31 C -2.689537 -2.179267 -0.447047 0
M  V30 32 C -3.698206 -2.474242 -1.366912 0
M  V30 33 C -4.353309 -3.701919 -1.330075 0
M  V30 34 C -4.027778 -4.664911 -0.361797 0
M  V30 35 C -3.016782 -4.358161 0.559828 0
M  V30 36 C -2.360816 -3.131238 0.521403 0
M  V30 37 N -4.658227 -5.910993 -0.319030 0
M  V30 38 C -5.159109 -6.423306 0.972029 0
M  V30 39 C -5.469121 -7.935347 0.949092 0
M  V30 40 O -6.379061 -8.229382 -0.099677 0
M  V30 41 C -5.850862 -7.872290 -1.367522 0
M  V30 42 C -5.550185 -6.359209 -1.406178 0
M  V30 43 H 1.370164 -0.371524 -3.034993 0
M  V30 44 H 2.145937 1.164149 -3.289543 0
M  V30 45 H 2.687475 -2.151597 -2.445172 0
M  V30 46 H 7.849415 -2.909268 -2.544197 0
M  V30 47 H 6.673846 -5.311683 -2.241635 0
M  V30 48 H -4.397449 1.945270 1.188001 0
M  V30 49 H -5.661123 3.966595 1.511820 0
M  V30 50 H -2.911172 6.080961 -1.054163 0
M  V30 51 H -1.674663 4.042317 -1.394149 0
M  V30 52 H -4.483814 7.416827 -1.314614 0
M  V30 53 H -6.133571 6.859342 -1.344704 0
M  V30 54 H -4.980432 9.257447 0.208254 0
M  V30 55 H -6.066929 9.314448 -1.159997 0
M  V30 56 H -5.867776 8.425173 2.339178 0
M  V30 57 H -7.540924 7.919845 2.382562 0
M  V30 58 H -5.946759 5.997442 2.328264 0
M  V30 59 H -7.096041 5.932733 1.008193 0
M  V30 60 H -3.827580 0.205911 -0.175379 0
M  V30 61 H -3.972895 -1.752290 -2.122365 0
M  V30 62 H -5.124593 -3.884284 -2.063226 0
M  V30 63 H -2.712888 -5.074315 1.308679 0
M  V30 64 H -1.586800 -2.924513 1.246493 0
M  V30 65 H -4.426603 -6.257053 1.760741 0
M  V30 66 H -6.046503 -5.857571 1.259988 0
M  V30 67 H -4.554971 -8.522047 0.840021 0
M  V30 68 H -5.919769 -8.237281 1.894722 0
M  V30 69 H -4.956033 -8.456691 -1.591060 0
M  V30 70 H -6.584931 -8.124278 -2.132898 0
M  V30 71 H -5.072900 -6.145402 -2.363456 0
M  V30 72 H -6.477503 -5.784758 -1.380976 0
M  V30 END ATOM
M  V30 BEGIN BOND
M  V30 1 3 2 1
M  V30 2 1 3 2
M  V30 3 1 4 3
M  V30 4 1 5 4
M  V30 5 1 6 5
M  V30 6 1 7 6
M  V30 7 1 8 7
M  V30 8 1 9 8
M  V30 9 2 10 9
M  V30 10 1 11 10
M  V30 11 2 12 11
M  V30 12 1 13 12
M  V30 13 1 13 9
M  V30 14 2 14 7
M  V30 15 2 15 4
M  V30 16 1 16 15
M  V30 17 1 17 16
M  V30 18 2 18 17
M  V30 19 1 19 18
M  V30 20 2 20 19
M  V30 21 1 21 20
M  V30 22 2 22 21
M  V30 23 1 22 17
M  V30 24 1 23 20
M  V30 25 1 24 23
M  V30 26 1 25 24
M  V30 27 1 26 25
M  V30 28 1 27 26
M  V30 29 1 28 27
M  V30 30 1 28 23
M  V30 31 2 29 16
M  V30 32 2 30 3
M  V30 33 1 30 29
M  V30 34 1 31 30
M  V30 35 2 32 31
M  V30 36 1 33 32
M  V30 37 2 34 33
M  V30 38 1 35 34
M  V30 39 2 36 35
M  V30 40 1 36 31
M  V30 41 1 37 34
M  V30 42 1 38 37
M  V30 43 1 39 38
M  V30 44 1 40 39
M  V30 45 1 41 40
M  V30 46 1 42 41
M  V30 47 1 42 37
M  V30 48 1 43 6
M  V30 49 1 44 6
M  V30 50 1 45 8
M  V30 51 1 46 11
M  V30 52 1 47 12
M  V30 53 1 48 18
M  V30 54 1 49 19
M  V30 55 1 50 21
M  V30 56 1 51 22
M  V30 57 1 52 24
M  V30 58 1 53 24
M  V30 59 1 54 25
M  V30 60 1 55 25
M  V30 61 1 56 27
M  V30 62 1 57 27
M  V30 63 1 58 28
M  V30 64 1 59 28
M  V30 65 1 60 29
M  V30 66 1 61 32
M  V30 67 1 62 33
M  V30 68 1 63 35
M  V30 69 1 64 36
M  V30 70 1 65 38
M  V30 71 1 66 38
M  V30 72 1 67 39
M  V30 73 1 68 39
M  V30 74 1 69 41
M  V30 75 1 70 41
M  V30 76 1 71 42
M  V30 77 1 72 42
M  V30 END BOND
M  V30 END CTAB
M  END
>  <i_epik_Tot_Q>  (17) 
0

>  <i_epik_Tot_abs_Q>  (17) 
0

>  <i_f3d_flags>  (17) 
0

>  <i_lp_mmshare_version>  (17) 
71160

>  <i_lp_orig_ion_str>  (17) 
1

>  <i_m_source_file_index>  (17) 
42

>  <b_lp_Chiralities_Consistent>  (17) 
1

>  <r_epik_Charging_Adjusted_Penalty>  (17) 
0

>  <r_epik_Ionization_Penalty>  (17) 
0.0076652864576145672

>  <r_epik_Ionization_Penalty_Charging>  (17) 
0

>  <r_epik_Ionization_Penalty_Neutral>  (17) 
0.0076652864576145672

>  <r_epik_State_Penalty>  (17) 
-0

>  <r_lp_Energy>  (17) 
71.042129000000003

>  <r_lp_tautomer_probability>  (17) 
1

>  <s_epik_cmdline>  (17) 
J2VwaWtfcHl0aG9uJywgJy1waHQnLCAnMC4yJywgJy1waCcsICc3LjQnLCAnLXJldGFpbl9pX2xhYicsICctcmV0YWluX3RfbGFiJywgJy10bicsICcxJywgJy1tYScsICc1MDAnLCAnLWltYWUnLCAnPGluZmlsZS5tYWU+JywgJy1vbWFlJywgJzxvdXRmaWxlLm1hZT4n

>  <s_epik_input>  (17) 
czFbY0hdW2NIXW5jMVtOSF1DKD1PKVtDSDJdU2MoYzJDI04pbmMoLWMzW2NIXVtjSF1jKFtjSF1bY0hdMylONFtDSDJdW0NIMl1PW0NIMl1bQ0gyXTQpW2NIXWMyLWM1W2NIXVtjSF1jKFtjSF1bY0hdNSlONltDSDJdW0NIMl1PW0NIMl1bQ0gyXTY=

>  <s_lp_Force_Field>  (17) 
S-OPLS

>  <s_lp_Variant>  (17) 
2c_Ghoteimi_2023-1

>  <s_lp_label>  (17) 
42

>  <s_m_source_file>  (17) 
montpellier_ligands.smi

$$$$
2d_Ghoteimi_2023
     RDKit          3D

  0  0  0  0  0  0  0  0  0  0999 V3000
M  V30 BEGIN CTAB
M  V30 COUNTS 68 72 0 0 1
M  V30 BEGIN ATOM
M  V30 1 N 0.685937 -3.200582 1.031189 0
M  V30 2 C 0.063548 -2.235423 0.887188 0
M  V30 3 C -0.728101 -1.015287 0.703982 0
M  V30 4 C -0.130180 0.266389 0.731712 0
M  V30 5 S 1.605930 0.559258 1.001780 0
M  V30 6 C 2.097883 -0.287437 2.543252 0
M  V30 7 C 3.292242 -1.223926 2.306027 0
M  V30 8 O 3.441812 -2.093702 3.325560 0
M  V30 9 C 4.480410 -3.062204 3.301812 0
M  V30 10 O 4.004310 -1.170566 1.299063 0
M  V30 11 N -0.837165 1.401793 0.514988 0
M  V30 12 C -2.174855 1.328588 0.301123 0
M  V30 13 C -2.890143 2.623885 0.087135 0
M  V30 14 C -3.999992 2.693497 -0.761846 0
M  V30 15 C -4.670682 3.895848 -0.966452 0
M  V30 16 C -4.262191 5.072441 -0.319265 0
M  V30 17 C -3.140993 5.001298 0.519568 0
M  V30 18 C -2.469192 3.799007 0.721505 0
M  V30 19 N -4.914054 6.292563 -0.526731 0
M  V30 20 C -5.986706 6.433803 -1.531490 0
M  V30 21 C -6.319487 7.900012 -1.878868 0
M  V30 22 O -6.636241 8.617990 -0.697224 0
M  V30 23 C -5.550689 8.623764 0.216047 0
M  V30 24 C -5.191140 7.178725 0.622495 0
M  V30 25 C -2.838416 0.099385 0.296085 0
M  V30 26 C -2.126063 -1.091841 0.483913 0
M  V30 27 C -2.895769 -2.371498 0.437656 0
M  V30 28 C -3.932483 -2.599824 1.345169 0
M  V30 29 C -4.663704 -3.783479 1.302608 0
M  V30 30 C -4.377348 -4.774988 0.350848 0
M  V30 31 C -3.346708 -4.528788 -0.567423 0
M  V30 32 C -2.615930 -3.344924 -0.524630 0
M  V30 33 N -5.107154 -5.964762 0.281848 0
M  V30 34 C -6.334257 -6.162049 1.078008 0
M  V30 35 C -7.184864 -7.361849 0.610018 0
M  V30 36 O -6.395110 -8.540972 0.594955 0
M  V30 37 C -5.286152 -8.417750 -0.282076 0
M  V30 38 C -4.384881 -7.247457 0.166030 0
M  V30 39 H 2.391188 0.471110 3.268547 0
M  V30 40 H 1.258930 -0.835160 2.971922 0
M  V30 41 H 4.420949 -3.691461 4.189665 0
M  V30 42 H 5.460650 -2.583785 3.289119 0
M  V30 43 H 4.397290 -3.705478 2.424472 0
M  V30 44 H -4.349353 1.813707 -1.281835 0
M  V30 45 H -5.522077 3.887706 -1.630168 0
M  V30 46 H -2.758601 5.879840 1.016438 0
M  V30 47 H -1.612088 3.788853 1.379244 0
M  V30 48 H -5.670941 5.948566 -2.455792 0
M  V30 49 H -6.880053 5.908938 -1.189850 0
M  V30 50 H -5.491572 8.375704 -2.408554 0
M  V30 51 H -7.178427 7.937728 -2.549060 0
M  V30 52 H -4.688104 9.136790 -0.214113 0
M  V30 53 H -5.842406 9.195153 1.097433 0
M  V30 54 H -4.324886 7.241558 1.278657 0
M  V30 55 H -5.992434 6.742987 1.221209 0
M  V30 56 H -3.906519 0.062622 0.136312 0
M  V30 57 H -4.173121 -1.858028 2.093184 0
M  V30 58 H -5.449055 -3.916831 2.031420 0
M  V30 59 H -3.108620 -5.244779 -1.339719 0
M  V30 60 H -1.831600 -3.182972 -1.250077 0
M  V30 61 H -6.074796 -6.266538 2.132874 0
M  V30 62 H -6.955334 -5.269367 0.993871 0
M  V30 63 H -8.020577 -7.512368 1.293499 0
M  V30 64 H -7.618443 -7.176413 -0.374802 0
M  V30 65 H -4.721802 -9.350219 -0.261601 0
M  V30 66 H -5.622907 -8.281472 -1.311748 0
M  V30 67 H -3.910163 -7.477250 1.121064 0
M  V30 68 H -3.577596 -7.168061 -0.560602 0
M  V30 END ATOM
M  V30 BEGIN BOND
M  V30 1 3 2 1
M  V30 2 1 3 2
M  V30 3 1 4 3
M  V30 4 1 5 4
M  V30 5 1 6 5
M  V30 6 1 7 6
M  V30 7 1 8 7
M  V30 8 1 9 8
M  V30 9 2 10 7
M  V30 10 2 11 4
M  V30 11 1 12 11
M  V30 12 1 13 12
M  V30 13 2 14 13
M  V30 14 1 15 14
M  V30 15 2 16 15
M  V30 16 1 17 16
M  V30 17 2 18 17
M  V30 18 1 18 13
M  V30 19 1 19 16
M  V30 20 1 20 19
M  V30 21 1 21 20
M  V30 22 1 22 21
M  V30 23 1 23 22
M  V30 24 1 24 23
M  V30 25 1 24 19
M  V30 26 2 25 12
M  V30 27 2 26 3
M  V30 28 1 26 25
M  V30 29 1 27 26
M  V30 30 2 28 27
M  V30 31 1 29 28
M  V30 32 2 30 29
M  V30 33 1 31 30
M  V30 34 2 32 31
M  V30 35 1 32 27
M  V30 36 1 33 30
M  V30 37 1 34 33
M  V30 38 1 35 34
M  V30 39 1 36 35
M  V30 40 1 37 36
M  V30 41 1 38 37
M  V30 42 1 38 33
M  V30 43 1 39 6
M  V30 44 1 40 6
M  V30 45 1 41 9
M  V30 46 1 42 9
M  V30 47 1 43 9
M  V30 48 1 44 14
M  V30 49 1 45 15
M  V30 50 1 46 17
M  V30 51 1 47 18
M  V30 52 1 48 20
M  V30 53 1 49 20
M  V30 54 1 50 21
M  V30 55 1 51 21
M  V30 56 1 52 23
M  V30 57 1 53 23
M  V30 58 1 54 24
M  V30 59 1 55 24
M  V30 60 1 56 25
M  V30 61 1 57 28
M  V30 62 1 58 29
M  V30 63 1 59 31
M  V30 64 1 60 32
M  V30 65 1 61 34
M  V30 66 1 62 34
M  V30 67 1 63 35
M  V30 68 1 64 35
M  V30 69 1 65 37
M  V30 70 1 66 37
M  V30 71 1 67 38
M  V30 72 1 68 38
M  V30 END BOND
M  V30 END CTAB
M  END
>  <i_epik_Tot_Q>  (18) 
0

>  <i_epik_Tot_abs_Q>  (18) 
0

>  <i_f3d_flags>  (18) 
0

>  <i_lp_mmshare_version>  (18) 
71160

>  <i_lp_orig_ion_str>  (18) 
1

>  <i_m_source_file_index>  (18) 
43

>  <b_lp_Chiralities_Consistent>  (18) 
1

>  <r_epik_Charging_Adjusted_Penalty>  (18) 
0

>  <r_epik_Ionization_Penalty>  (18) 
2.3682054075956652e-06

>  <r_epik_Ionization_Penalty_Charging>  (18) 
0

>  <r_epik_Ionization_Penalty_Neutral>  (18) 
2.3682054075956652e-06

>  <r_epik_State_Penalty>  (18) 
-0

>  <r_lp_Energy>  (18) 
67.633921999999998

>  <r_lp_tautomer_probability>  (18) 
1

>  <s_epik_Chemistry_Notes>  (18) 
This compound has an ester and may undergo hydrolysis at high or low pH.

>  <s_epik_cmdline>  (18) 
J2VwaWtfcHl0aG9uJywgJy1waHQnLCAnMC4yJywgJy1waCcsICc3LjQnLCAnLXJldGFpbl9pX2xhYicsICctcmV0YWluX3RfbGFiJywgJy10bicsICcxJywgJy1tYScsICc1MDAnLCAnLWltYWUnLCAnPGluZmlsZS5tYWU+JywgJy1vbWFlJywgJzxvdXRmaWxlLm1hZT4n

>  <s_epik_input>  (18) 
W0NIMl0xW0NIMl1PW0NIMl1bQ0gyXU4xYyhbY0hdW2NIXTIpW2NIXVtjSF1jMi1jKG5jKGMzQyNOKVNbQ0gyXUMoPU8pT1tDSDNdKVtjSF1jMy1jNFtjSF1bY0hdYyhbY0hdW2NIXTQpTjVbQ0gyXVtDSDJdT1tDSDJdW0NIMl01

>  <s_lp_Force_Field>  (18) 
S-OPLS

>  <s_lp_Variant>  (18) 
2d_Ghoteimi_2023-1

>  <s_lp_label>  (18) 
43

>  <s_m_source_file>  (18) 
montpellier_ligands.smi

$$$$
2aa_Ghoteimi_2023
     RDKit          3D

  0  0  0  0  0  0  0  0  0  0999 V3000
M  V30 BEGIN CTAB
M  V30 COUNTS 85 90 0 0 1
M  V30 BEGIN ATOM
M  V30 1 N 0.231020 4.238050 0.015881 0
M  V30 2 C -0.280706 3.200253 0.010117 0
M  V30 3 C -0.929517 1.887477 0.002835 0
M  V30 4 C -0.149809 0.734424 -0.197158 0
M  V30 5 O 1.215321 0.850224 -0.423212 0
M  V30 6 C 2.000281 -0.316096 -0.694653 0
M  V30 7 C 3.445399 0.096314 -1.005949 0
M  V30 8 N 4.229433 -0.905063 -1.460740 0
M  V30 9 C 5.588758 -0.890408 -1.828166 0
M  V30 10 C 6.057824 -2.041592 -2.462091 0
M  V30 11 C 7.386964 -2.134482 -2.864032 0
M  V30 12 C 8.277246 -1.075430 -2.631390 0
M  V30 13 C 7.804296 0.074418 -1.985239 0
M  V30 14 C 6.474090 0.170378 -1.585147 0
M  V30 15 C 9.718231 -1.143725 -3.048239 0
M  V30 16 O 10.027644 -2.282751 -3.720119 0
M  V30 17 C 11.346769 -2.521238 -4.194491 0
M  V30 18 C 11.382854 -3.856272 -4.944775 0
M  V30 19 O 10.535500 -0.248456 -2.813671 0
M  V30 20 O 3.804662 1.264709 -0.853733 0
M  V30 21 N -0.691890 -0.515506 -0.178458 0
M  V30 22 C -2.022457 -0.665096 0.044394 0
M  V30 23 C -2.546612 -2.065781 0.046074 0
M  V30 24 C -3.632033 -2.421164 0.854028 0
M  V30 25 C -4.129277 -3.721515 0.854525 0
M  V30 26 C -3.566597 -4.713911 0.036492 0
M  V30 27 C -2.465744 -4.357837 -0.755881 0
M  V30 28 C -1.967821 -3.058139 -0.754356 0
M  V30 29 N -4.046369 -6.028616 0.034215 0
M  V30 30 C -5.114102 -6.460729 0.958552 0
M  V30 31 C -5.263238 -7.992999 1.066026 0
M  V30 32 O -5.450686 -8.553768 -0.223281 0
M  V30 33 C -4.347388 -8.283933 -1.072779 0
M  V30 34 C -4.171061 -6.760229 -1.243923 0
M  V30 35 C -2.851368 0.443798 0.237652 0
M  V30 36 C -2.321207 1.740435 0.212264 0
M  V30 37 C -3.261127 2.886585 0.399947 0
M  V30 38 C -4.058591 2.964981 1.544353 0
M  V30 39 C -4.950772 4.019856 1.716224 0
M  V30 40 C -5.081003 5.021184 0.740896 0
M  V30 41 C -4.271124 4.938456 -0.400444 0
M  V30 42 C -3.379400 3.883845 -0.571725 0
M  V30 43 N -5.966639 6.091266 0.893827 0
M  V30 44 C -6.667164 6.333306 2.170040 0
M  V30 45 C -7.311322 7.732917 2.261721 0
M  V30 46 O -8.181596 7.938855 1.159740 0
M  V30 47 C -7.489953 7.854464 -0.076475 0
M  V30 48 C -6.851562 6.457754 -0.230198 0
M  V30 49 H 2.001168 -0.970190 0.179074 0
M  V30 50 H 1.589915 -0.858424 -1.549185 0
M  V30 51 H 3.775349 -1.795685 -1.599774 0
M  V30 52 H 5.394341 -2.873361 -2.652946 0
M  V30 53 H 7.707296 -3.042392 -3.354577 0
M  V30 54 H 8.462129 0.908135 -1.782666 0
M  V30 55 H 6.168007 1.072740 -1.081439 0
M  V30 56 H 11.657047 -1.714041 -4.859870 0
M  V30 57 H 12.045050 -2.544960 -3.356303 0
M  V30 58 H 12.386996 -4.065432 -5.313741 0
M  V30 59 H 10.709683 -3.844272 -5.802635 0
M  V30 60 H 11.087483 -4.682651 -4.297379 0
M  V30 61 H -4.098460 -1.690740 1.498769 0
M  V30 62 H -4.971229 -3.933803 1.495706 0
M  V30 63 H -1.965078 -5.084279 -1.377373 0
M  V30 64 H -1.123102 -2.827406 -1.387155 0
M  V30 65 H -4.886412 -6.090729 1.958839 0
M  V30 66 H -6.059977 -6.005169 0.661584 0
M  V30 67 H -4.396323 -8.438919 1.557853 0
M  V30 68 H -6.128980 -8.240132 1.680801 0
M  V30 69 H -3.437603 -8.742272 -0.680169 0
M  V30 70 H -4.534063 -8.747476 -2.041610 0
M  V30 71 H -3.286096 -6.614962 -1.860369 0
M  V30 72 H -5.005246 -6.343994 -1.810560 0
M  V30 73 H -3.912373 0.305073 0.387861 0
M  V30 74 H -3.987230 2.205250 2.309287 0
M  V30 75 H -5.547535 4.033710 2.615923 0
M  V30 76 H -4.312734 5.697430 -1.167105 0
M  V30 77 H -2.777039 3.844769 -1.467949 0
M  V30 78 H -7.417444 5.557220 2.329632 0
M  V30 79 H -5.948942 6.249048 2.986597 0
M  V30 80 H -7.891100 7.815599 3.181240 0
M  V30 81 H -6.550128 8.514609 2.302674 0
M  V30 82 H -8.200269 8.029077 -0.884896 0
M  V30 83 H -6.736306 8.641035 -0.149643 0
M  V30 84 H -7.625483 5.696117 -0.338025 0
M  V30 85 H -6.298221 6.459940 -1.168087 0
M  V30 END ATOM
M  V30 BEGIN BOND
M  V30 1 3 2 1
M  V30 2 1 3 2
M  V30 3 1 4 3
M  V30 4 1 5 4
M  V30 5 1 6 5
M  V30 6 1 7 6
M  V30 7 1 8 7
M  V30 8 1 9 8
M  V30 9 2 10 9
M  V30 10 1 11 10
M  V30 11 2 12 11
M  V30 12 1 13 12
M  V30 13 2 14 13
M  V30 14 1 14 9
M  V30 15 1 15 12
M  V30 16 1 16 15
M  V30 17 1 17 16
M  V30 18 1 18 17
M  V30 19 2 19 15
M  V30 20 2 20 7
M  V30 21 2 21 4
M  V30 22 1 22 21
M  V30 23 1 23 22
M  V30 24 2 24 23
M  V30 25 1 25 24
M  V30 26 2 26 25
M  V30 27 1 27 26
M  V30 28 2 28 27
M  V30 29 1 28 23
M  V30 30 1 29 26
M  V30 31 1 30 29
M  V30 32 1 31 30
M  V30 33 1 32 31
M  V30 34 1 33 32
M  V30 35 1 34 33
M  V30 36 1 34 29
M  V30 37 2 35 22
M  V30 38 2 36 3
M  V30 39 1 36 35
M  V30 40 1 37 36
M  V30 41 2 38 37
M  V30 42 1 39 38
M  V30 43 2 40 39
M  V30 44 1 41 40
M  V30 45 2 42 41
M  V30 46 1 42 37
M  V30 47 1 43 40
M  V30 48 1 44 43
M  V30 49 1 45 44
M  V30 50 1 46 45
M  V30 51 1 47 46
M  V30 52 1 48 47
M  V30 53 1 48 43
M  V30 54 1 49 6
M  V30 55 1 50 6
M  V30 56 1 51 8
M  V30 57 1 52 10
M  V30 58 1 53 11
M  V30 59 1 54 13
M  V30 60 1 55 14
M  V30 61 1 56 17
M  V30 62 1 57 17
M  V30 63 1 58 18
M  V30 64 1 59 18
M  V30 65 1 60 18
M  V30 66 1 61 24
M  V30 67 1 62 25
M  V30 68 1 63 27
M  V30 69 1 64 28
M  V30 70 1 65 30
M  V30 71 1 66 30
M  V30 72 1 67 31
M  V30 73 1 68 31
M  V30 74 1 69 33
M  V30 75 1 70 33
M  V30 76 1 71 34
M  V30 77 1 72 34
M  V30 78 1 73 35
M  V30 79 1 74 38
M  V30 80 1 75 39
M  V30 81 1 76 41
M  V30 82 1 77 42
M  V30 83 1 78 44
M  V30 84 1 79 44
M  V30 85 1 80 45
M  V30 86 1 81 45
M  V30 87 1 82 47
M  V30 88 1 83 47
M  V30 89 1 84 48
M  V30 90 1 85 48
M  V30 END BOND
M  V30 END CTAB
M  END
>  <i_epik_Tot_Q>  (19) 
0

>  <i_epik_Tot_abs_Q>  (19) 
0

>  <i_f3d_flags>  (19) 
0

>  <i_lp_mmshare_version>  (19) 
71160

>  <i_lp_orig_ion_str>  (19) 
1

>  <i_m_source_file_index>  (19) 
44

>  <b_lp_Chiralities_Consistent>  (19) 
1

>  <r_epik_Charging_Adjusted_Penalty>  (19) 
0

>  <r_epik_Ionization_Penalty>  (19) 
3.1731918120141979e-06

>  <r_epik_Ionization_Penalty_Charging>  (19) 
0

>  <r_epik_Ionization_Penalty_Neutral>  (19) 
3.1731918120141979e-06

>  <r_epik_State_Penalty>  (19) 
-0

>  <r_lp_Energy>  (19) 
74.871552999999992

>  <r_lp_tautomer_probability>  (19) 
1

>  <s_epik_Chemistry_Notes>  (19) 
This compound has an ester and may undergo hydrolysis at high or low pH.

>  <s_epik_cmdline>  (19) 
J2VwaWtfcHl0aG9uJywgJy1waHQnLCAnMC4yJywgJy1waCcsICc3LjQnLCAnLXJldGFpbl9pX2xhYicsICctcmV0YWluX3RfbGFiJywgJy10bicsICcxJywgJy1tYScsICc1MDAnLCAnLWltYWUnLCAnPGluZmlsZS5tYWU+JywgJy1vbWFlJywgJzxvdXRmaWxlLm1hZT4n

>  <s_epik_input>  (19) 
W0NIM11bQ0gyXU9DKD1PKWMoW2NIXVtjSF0xKVtjSF1bY0hdYzFbTkhdQyg9TylbQ0gyXU9jKGMyQyNOKW5jKC1jM1tjSF1bY0hdYyhbY0hdW2NIXTMpTjRbQ0gyXVtDSDJdT1tDSDJdW0NIMl00KVtjSF1jMi1jNVtjSF1bY0hdYyhbY0hdW2NIXTUpTjZbQ0gyXVtDSDJdT1tDSDJdW0NIMl02

>  <s_lp_Force_Field>  (19) 
S-OPLS

>  <s_lp_Variant>  (19) 
2aa_Ghoteimi_2023-1

>  <s_lp_label>  (19) 
44

>  <s_m_source_file>  (19) 
montpellier_ligands.smi

$$$$
8a_Ghoteimi_2023
     RDKit          3D

  0  0  0  0  0  0  0  0  0  0999 V3000
M  V30 BEGIN CTAB
M  V30 COUNTS 67 71 0 0 1
M  V30 BEGIN ATOM
M  V30 1 C -3.131658 -8.150336 -1.106389 0
M  V30 2 O -3.604666 -7.367722 -0.015609 0
M  V30 3 C -3.516852 -5.990593 -0.085753 0
M  V30 4 C -4.000656 -5.279164 1.012086 0
M  V30 5 C -3.954398 -3.888255 1.030354 0
M  V30 6 C -2.983440 -5.285528 -1.175601 0
M  V30 7 C -2.938568 -3.894162 -1.155553 0
M  V30 8 C -3.415697 -3.184905 -0.049874 0
M  V30 9 C -3.387832 -1.699960 -0.035631 0
M  V30 10 C -2.186517 -0.936150 -0.046794 0
M  V30 11 C -2.337268 0.482028 -0.067039 0
M  V30 12 S -0.804386 1.322197 -0.100280 0
M  V30 13 C 0.085162 -0.200423 -0.054872 0
M  V30 14 C 1.551015 -0.201748 -0.049681 0
M  V30 15 N 2.130464 1.023573 -0.071828 0
M  V30 16 C 3.491035 1.389311 -0.065728 0
M  V30 17 C 3.745700 2.761158 -0.039458 0
M  V30 18 C 5.053644 3.236756 -0.025899 0
M  V30 19 C 6.135928 2.347569 -0.041112 0
M  V30 20 C 7.534382 2.894544 -0.025194 0
M  V30 21 O 8.488527 1.928230 -0.016083 0
M  V30 22 C 9.870770 2.262201 0.002425 0
M  V30 23 C 10.704855 0.977605 0.017625 0
M  V30 24 O 7.789668 4.102567 -0.016376 0
M  V30 25 C 5.877007 0.968771 -0.072531 0
M  V30 26 C 4.568931 0.491277 -0.085591 0
M  V30 27 O 2.174495 -1.263073 -0.022396 0
M  V30 28 C -0.790977 -1.297313 -0.022049 0
M  V30 29 N -0.368197 -2.600503 0.045964 0
M  V30 30 N -3.496126 1.140064 -0.059001 0
M  V30 31 C -4.629898 0.391422 -0.027059 0
M  V30 32 C -5.917509 1.150082 0.002347 0
M  V30 33 C -6.027192 2.363553 0.695322 0
M  V30 34 C -7.231842 3.059904 0.727841 0
M  V30 35 C -8.355345 2.564242 0.068708 0
M  V30 36 O -9.508144 3.320579 0.158052 0
M  V30 37 C -10.690368 2.862435 -0.489410 0
M  V30 38 C -8.254512 1.353605 -0.631900 0
M  V30 39 C -7.048757 0.658345 -0.661300 0
M  V30 40 C -4.602032 -1.004947 -0.010527 0
M  V30 41 H -3.279871 -9.206723 -0.882967 0
M  V30 42 H -2.065309 -7.995535 -1.277054 0
M  V30 43 H -3.677711 -7.928060 -2.024342 0
M  V30 44 H -4.417558 -5.808241 1.856710 0
M  V30 45 H -4.336916 -3.356362 1.889766 0
M  V30 46 H -2.602545 -5.798321 -2.045658 0
M  V30 47 H -2.530097 -3.364754 -2.004543 0
M  V30 48 H 1.495435 1.808031 -0.084370 0
M  V30 49 H 2.930921 3.471493 -0.026283 0
M  V30 50 H 5.211711 4.305945 -0.002225 0
M  V30 51 H 10.122421 2.859072 -0.875690 0
M  V30 52 H 10.097668 2.862483 0.884875 0
M  V30 53 H 11.770046 1.208257 0.032281 0
M  V30 54 H 10.508489 0.369290 -0.865950 0
M  V30 55 H 10.483103 0.373700 0.898210 0
M  V30 56 H 6.680345 0.246008 -0.088010 0
M  V30 57 H 4.432535 -0.577149 -0.112837 0
M  V30 58 H 0.614817 -2.834789 0.064158 0
M  V30 59 H -1.021414 -3.370437 0.084852 0
M  V30 60 H -5.177105 2.772202 1.222254 0
M  V30 61 H -7.292896 3.991253 1.271806 0
M  V30 62 H -11.498073 3.571657 -0.308619 0
M  V30 63 H -11.009202 1.893667 -0.101652 0
M  V30 64 H -10.551685 2.788088 -1.569041 0
M  V30 65 H -9.098962 0.937228 -1.159468 0
M  V30 66 H -6.999839 -0.267808 -1.215050 0
M  V30 67 H -5.528052 -1.561680 0.018541 0
M  V30 END ATOM
M  V30 BEGIN BOND
M  V30 1 1 2 1
M  V30 2 1 3 2
M  V30 3 1 4 3
M  V30 4 2 5 4
M  V30 5 2 6 3
M  V30 6 1 7 6
M  V30 7 2 8 7
M  V30 8 1 8 5
M  V30 9 1 9 8
M  V30 10 2 10 9
M  V30 11 1 11 10
M  V30 12 1 12 11
M  V30 13 1 13 12
M  V30 14 1 14 13
M  V30 15 1 15 14
M  V30 16 1 16 15
M  V30 17 2 17 16
M  V30 18 1 18 17
M  V30 19 2 19 18
M  V30 20 1 20 19
M  V30 21 1 21 20
M  V30 22 1 22 21
M  V30 23 1 23 22
M  V30 24 2 24 20
M  V30 25 1 25 19
M  V30 26 2 26 25
M  V30 27 1 26 16
M  V30 28 2 27 14
M  V30 29 2 28 13
M  V30 30 1 28 10
M  V30 31 1 29 28
M  V30 32 2 30 11
M  V30 33 1 31 30
M  V30 34 1 32 31
M  V30 35 2 33 32
M  V30 36 1 34 33
M  V30 37 2 35 34
M  V30 38 1 36 35
M  V30 39 1 37 36
M  V30 40 1 38 35
M  V30 41 2 39 38
M  V30 42 1 39 32
M  V30 43 2 40 31
M  V30 44 1 40 9
M  V30 45 1 41 1
M  V30 46 1 42 1
M  V30 47 1 43 1
M  V30 48 1 44 4
M  V30 49 1 45 5
M  V30 50 1 46 6
M  V30 51 1 47 7
M  V30 52 1 48 15
M  V30 53 1 49 17
M  V30 54 1 50 18
M  V30 55 1 51 22
M  V30 56 1 52 22
M  V30 57 1 53 23
M  V30 58 1 54 23
M  V30 59 1 55 23
M  V30 60 1 56 25
M  V30 61 1 57 26
M  V30 62 1 58 29
M  V30 63 1 59 29
M  V30 64 1 60 33
M  V30 65 1 61 34
M  V30 66 1 62 37
M  V30 67 1 63 37
M  V30 68 1 64 37
M  V30 69 1 65 38
M  V30 70 1 66 39
M  V30 71 1 67 40
M  V30 END BOND
M  V30 END CTAB
M  END
>  <i_epik_Tot_Q>  (20) 
0

>  <i_epik_Tot_abs_Q>  (20) 
0

>  <i_f3d_flags>  (20) 
0

>  <i_lp_mmshare_version>  (20) 
71160

>  <i_lp_orig_ion_str>  (20) 
1

>  <i_m_source_file_index>  (20) 
45

>  <b_lp_Chiralities_Consistent>  (20) 
1

>  <r_epik_Charging_Adjusted_Penalty>  (20) 
0

>  <r_epik_Ionization_Penalty>  (20) 
0.00017180403723213213

>  <r_epik_Ionization_Penalty_Charging>  (20) 
0

>  <r_epik_Ionization_Penalty_Neutral>  (20) 
0.00017180403723213213

>  <r_epik_State_Penalty>  (20) 
-0

>  <r_lp_Energy>  (20) 
65.465745999999996

>  <r_lp_tautomer_probability>  (20) 
1

>  <s_epik_Chemistry_Notes>  (20) 
This compound has an ester and may undergo hydrolysis at high or low pH.

>  <s_epik_cmdline>  (20) 
J2VwaWtfcHl0aG9uJywgJy1waHQnLCAnMC4yJywgJy1waCcsICc3LjQnLCAnLXJldGFpbl9pX2xhYicsICctcmV0YWluX3RfbGFiJywgJy10bicsICcxJywgJy1tYScsICc1MDAnLCAnLWltYWUnLCAnPGluZmlsZS5tYWU+JywgJy1vbWFlJywgJzxvdXRmaWxlLm1hZT4n

>  <s_epik_input>  (20) 
W0NIM11PYzFbY0hdW2NIXWMoW2NIXVtjSF0xKS1jMltjSF1jKC1jM1tjSF1bY0hdYyhPW0NIM10pW2NIXVtjSF0zKW5jKGMyNClzYyhjNFtOSDJdKUMoPU8pW05IXWM1W2NIXVtjSF1jKFtjSF1bY0hdNSlDKD1PKU9bQ0gyXVtDSDNd

>  <s_lp_Force_Field>  (20) 
S-OPLS

>  <s_lp_Variant>  (20) 
8a_Ghoteimi_2023-1

>  <s_lp_label>  (20) 
45

>  <s_m_source_file>  (20) 
montpellier_ligands.smi

$$$$
8b_Ghoteimi_2023
     RDKit          3D

  0  0  0  0  0  0  0  0  0  0999 V3000
M  V30 BEGIN CTAB
M  V30 COUNTS 54 58 0 0 1
M  V30 BEGIN ATOM
M  V30 1 C -5.008918 1.166805 -0.052288 0
M  V30 2 O -4.239744 -0.031160 -0.063212 0
M  V30 3 C -2.860649 0.053032 -0.040985 0
M  V30 4 C -2.162180 -1.154866 -0.051833 0
M  V30 5 C -0.770436 -1.168253 -0.029819 0
M  V30 6 C -2.142089 1.258332 -0.008730 0
M  V30 7 C -0.750275 1.243901 0.014054 0
M  V30 8 C -0.057692 0.031566 0.006360 0
M  V30 9 C 1.422850 0.019834 0.040226 0
M  V30 10 C 2.160959 0.013505 1.253659 0
M  V30 11 C 3.580422 0.006652 1.132234 0
M  V30 12 S 4.385159 -0.001018 2.684316 0
M  V30 13 C 2.840943 0.003483 3.538263 0
M  V30 14 C 2.804827 -0.006908 5.002190 0
M  V30 15 N 4.015569 0.007220 5.613731 0
M  V30 16 C 4.273580 -0.001714 6.978328 0
M  V30 17 N 3.366186 -0.011415 7.940771 0
M  V30 18 O 4.062594 -0.021769 9.150655 0
M  V30 19 C 5.388461 -0.016731 8.873938 0
M  V30 20 C 5.562717 -0.002126 7.509373 0
M  V30 21 O 1.729486 -0.025433 5.604972 0
M  V30 22 C 1.764469 0.009589 2.637717 0
M  V30 23 N 0.447886 0.010778 3.023885 0
M  V30 24 N 4.259975 0.005787 -0.014148 0
M  V30 25 C 3.533514 0.014178 -1.164057 0
M  V30 26 C 4.321023 0.008760 -2.436420 0
M  V30 27 C 5.554645 -0.652176 -2.522917 0
M  V30 28 C 6.282337 -0.654914 -3.709296 0
M  V30 29 C 5.798132 0.001081 -4.839303 0
M  V30 30 O 6.586586 -0.056071 -5.972355 0
M  V30 31 C 6.143097 0.591401 -7.159918 0
M  V30 32 C 4.566304 0.666855 -4.763751 0
M  V30 33 C 3.840976 0.668623 -3.575318 0
M  V30 34 C 2.135439 0.015723 -1.162899 0
M  V30 35 H -6.068878 0.913779 -0.066187 0
M  V30 36 H -4.804644 1.780972 -0.930625 0
M  V30 37 H -4.822019 1.754873 0.847564 0
M  V30 38 H -2.702331 -2.089955 -0.076341 0
M  V30 39 H -0.246198 -2.113166 -0.035312 0
M  V30 40 H -2.645291 2.213150 0.000883 0
M  V30 41 H -0.209777 2.179081 0.042620 0
M  V30 42 H 4.830027 0.021537 5.018131 0
M  V30 43 H 6.062370 -0.024669 9.718014 0
M  V30 44 H 6.497857 0.004881 6.969206 0
M  V30 45 H 0.186055 0.004089 4.000105 0
M  V30 46 H -0.304318 0.015964 2.349493 0
M  V30 47 H 5.957797 -1.175904 -1.668277 0
M  V30 48 H 7.229307 -1.173194 -3.751246 0
M  V30 49 H 6.878728 0.437793 -7.949088 0
M  V30 50 H 6.036803 1.667270 -7.013196 0
M  V30 51 H 5.194250 0.181466 -7.509225 0
M  V30 52 H 4.156177 1.188474 -5.614994 0
M  V30 53 H 2.900418 1.199209 -3.547228 0
M  V30 54 H 1.591313 0.007930 -2.096602 0
M  V30 END ATOM
M  V30 BEGIN BOND
M  V30 1 1 2 1
M  V30 2 1 3 2
M  V30 3 1 4 3
M  V30 4 2 5 4
M  V30 5 2 6 3
M  V30 6 1 7 6
M  V30 7 2 8 7
M  V30 8 1 8 5
M  V30 9 1 9 8
M  V30 10 2 10 9
M  V30 11 1 11 10
M  V30 12 1 12 11
M  V30 13 1 13 12
M  V30 14 1 14 13
M  V30 15 1 15 14
M  V30 16 1 16 15
M  V30 17 2 17 16
M  V30 18 1 18 17
M  V30 19 1 19 18
M  V30 20 2 20 19
M  V30 21 1 20 16
M  V30 22 2 21 14
M  V30 23 2 22 13
M  V30 24 1 22 10
M  V30 25 1 23 22
M  V30 26 2 24 11
M  V30 27 1 25 24
M  V30 28 1 26 25
M  V30 29 2 27 26
M  V30 30 1 28 27
M  V30 31 2 29 28
M  V30 32 1 30 29
M  V30 33 1 31 30
M  V30 34 1 32 29
M  V30 35 2 33 32
M  V30 36 1 33 26
M  V30 37 2 34 25
M  V30 38 1 34 9
M  V30 39 1 35 1
M  V30 40 1 36 1
M  V30 41 1 37 1
M  V30 42 1 38 4
M  V30 43 1 39 5
M  V30 44 1 40 6
M  V30 45 1 41 7
M  V30 46 1 42 15
M  V30 47 1 43 19
M  V30 48 1 44 20
M  V30 49 1 45 23
M  V30 50 1 46 23
M  V30 51 1 47 27
M  V30 52 1 48 28
M  V30 53 1 49 31
M  V30 54 1 50 31
M  V30 55 1 51 31
M  V30 56 1 52 32
M  V30 57 1 53 33
M  V30 58 1 54 34
M  V30 END BOND
M  V30 END CTAB
M  END
>  <i_epik_Tot_Q>  (21) 
0

>  <i_epik_Tot_abs_Q>  (21) 
0

>  <i_f3d_flags>  (21) 
0

>  <i_lp_mmshare_version>  (21) 
71160

>  <i_lp_orig_ion_str>  (21) 
1

>  <i_m_source_file_index>  (21) 
46

>  <b_lp_Chiralities_Consistent>  (21) 
1

>  <r_epik_Charging_Adjusted_Penalty>  (21) 
0

>  <r_epik_Ionization_Penalty>  (21) 
0.0027687813949335846

>  <r_epik_Ionization_Penalty_Charging>  (21) 
0

>  <r_epik_Ionization_Penalty_Neutral>  (21) 
0.0027687813949335846

>  <r_epik_State_Penalty>  (21) 
-0

>  <r_lp_Energy>  (21) 
58.224241999999997

>  <r_lp_tautomer_probability>  (21) 
1

>  <s_epik_cmdline>  (21) 
J2VwaWtfcHl0aG9uJywgJy1waHQnLCAnMC4yJywgJy1waCcsICc3LjQnLCAnLXJldGFpbl9pX2xhYicsICctcmV0YWluX3RfbGFiJywgJy10bicsICcxJywgJy1tYScsICc1MDAnLCAnLWltYWUnLCAnPGluZmlsZS5tYWU+JywgJy1vbWFlJywgJzxvdXRmaWxlLm1hZT4n

>  <s_epik_input>  (21) 
W0NIM11PYzFbY0hdW2NIXWMoW2NIXVtjSF0xKS1jMltjSF1jKC1jM1tjSF1bY0hdYyhPW0NIM10pW2NIXVtjSF0zKW5jKGMyNClzYyhjNFtOSDJdKUMoPU8pW05IXWM1bm9bY0hdW2NIXTU=

>  <s_lp_Force_Field>  (21) 
S-OPLS

>  <s_lp_Variant>  (21) 
8b_Ghoteimi_2023-1

>  <s_lp_label>  (21) 
46

>  <s_m_source_file>  (21) 
montpellier_ligands.smi

$$$$
8c_Ghoteimi_2023
     RDKit          3D

  0  0  0  0  0  0  0  0  0  0999 V3000
M  V30 BEGIN CTAB
M  V30 COUNTS 54 58 0 0 1
M  V30 BEGIN ATOM
M  V30 1 C -5.010218 1.165279 -0.055314 0
M  V30 2 O -4.240908 -0.032490 -0.070221 0
M  V30 3 C -2.861984 0.052082 -0.047690 0
M  V30 4 C -2.163309 -1.155523 -0.056913 0
M  V30 5 C -0.771595 -1.168513 -0.033741 0
M  V30 6 C -2.143761 1.257678 -0.015857 0
M  V30 7 C -0.751945 1.243711 0.007918 0
M  V30 8 C -0.059096 0.031542 0.001817 0
M  V30 9 C 1.421426 0.020472 0.036742 0
M  V30 10 C 2.158438 0.013036 1.250827 0
M  V30 11 C 3.577863 0.005335 1.130747 0
M  V30 12 S 4.381057 -0.004368 2.683519 0
M  V30 13 C 2.836029 0.003157 3.535815 0
M  V30 14 C 2.799306 -0.006005 4.999558 0
M  V30 15 N 4.009216 0.007791 5.611706 0
M  V30 16 C 4.253054 0.001057 6.977790 0
M  V30 17 N 3.372679 -0.002233 7.955603 0
M  V30 18 C 3.959834 -0.011789 9.136164 0
M  V30 19 C 5.351437 -0.015949 9.131624 0
M  V30 20 S 5.911390 -0.005144 7.485881 0
M  V30 21 O 1.724284 -0.022766 5.603052 0
M  V30 22 C 1.760341 0.009921 2.634488 0
M  V30 23 N 0.443369 0.012944 3.019764 0
M  V30 24 N 4.258642 0.004742 -0.015042 0
M  V30 25 C 3.533321 0.015304 -1.165652 0
M  V30 26 C 4.321843 0.009754 -2.437481 0
M  V30 27 C 5.555020 -0.652150 -2.523654 0
M  V30 28 C 6.282629 -0.656263 -3.710015 0
M  V30 29 C 5.799038 -0.000247 -4.840307 0
M  V30 30 O 6.587244 -0.059135 -5.973567 0
M  V30 31 C 6.146370 0.591770 -7.160266 0
M  V30 32 C 4.567986 0.666975 -4.765066 0
M  V30 33 C 3.842606 0.669775 -3.576590 0
M  V30 34 C 2.135166 0.017740 -1.165687 0
M  V30 35 H -6.070191 0.911972 -0.064894 0
M  V30 36 H -4.809595 1.780411 -0.933880 0
M  V30 37 H -4.819684 1.752399 0.844412 0
M  V30 38 H -2.703512 -2.090602 -0.080633 0
M  V30 39 H -0.247542 -2.113475 -0.037703 0
M  V30 40 H -2.647088 2.212431 -0.007334 0
M  V30 41 H -0.211549 2.179053 0.036003 0
M  V30 42 H 4.826725 0.019628 5.019707 0
M  V30 43 H 3.345379 -0.016628 10.024567 0
M  V30 44 H 6.036157 -0.024796 9.966925 0
M  V30 45 H 0.180297 0.009293 3.995725 0
M  V30 46 H -0.308237 0.017261 2.344594 0
M  V30 47 H 5.957684 -1.175700 -1.668781 0
M  V30 48 H 7.229184 -1.175150 -3.751884 0
M  V30 49 H 6.881784 0.437018 -7.949564 0
M  V30 50 H 6.043823 1.667758 -7.011508 0
M  V30 51 H 5.196193 0.185907 -7.510910 0
M  V30 52 H 4.158468 1.188942 -5.616463 0
M  V30 53 H 2.902596 1.201079 -3.548820 0
M  V30 54 H 1.591857 0.011826 -2.100020 0
M  V30 END ATOM
M  V30 BEGIN BOND
M  V30 1 1 2 1
M  V30 2 1 3 2
M  V30 3 1 4 3
M  V30 4 2 5 4
M  V30 5 2 6 3
M  V30 6 1 7 6
M  V30 7 2 8 7
M  V30 8 1 8 5
M  V30 9 1 9 8
M  V30 10 2 10 9
M  V30 11 1 11 10
M  V30 12 1 12 11
M  V30 13 1 13 12
M  V30 14 1 14 13
M  V30 15 1 15 14
M  V30 16 1 16 15
M  V30 17 2 17 16
M  V30 18 1 18 17
M  V30 19 2 19 18
M  V30 20 1 20 19
M  V30 21 1 20 16
M  V30 22 2 21 14
M  V30 23 2 22 13
M  V30 24 1 22 10
M  V30 25 1 23 22
M  V30 26 2 24 11
M  V30 27 1 25 24
M  V30 28 1 26 25
M  V30 29 2 27 26
M  V30 30 1 28 27
M  V30 31 2 29 28
M  V30 32 1 30 29
M  V30 33 1 31 30
M  V30 34 1 32 29
M  V30 35 2 33 32
M  V30 36 1 33 26
M  V30 37 2 34 25
M  V30 38 1 34 9
M  V30 39 1 35 1
M  V30 40 1 36 1
M  V30 41 1 37 1
M  V30 42 1 38 4
M  V30 43 1 39 5
M  V30 44 1 40 6
M  V30 45 1 41 7
M  V30 46 1 42 15
M  V30 47 1 43 18
M  V30 48 1 44 19
M  V30 49 1 45 23
M  V30 50 1 46 23
M  V30 51 1 47 27
M  V30 52 1 48 28
M  V30 53 1 49 31
M  V30 54 1 50 31
M  V30 55 1 51 31
M  V30 56 1 52 32
M  V30 57 1 53 33
M  V30 58 1 54 34
M  V30 END BOND
M  V30 END CTAB
M  END
>  <i_epik_Tot_Q>  (22) 
0

>  <i_epik_Tot_abs_Q>  (22) 
0

>  <i_f3d_flags>  (22) 
0

>  <i_lp_mmshare_version>  (22) 
71160

>  <i_lp_orig_ion_str>  (22) 
1

>  <i_m_source_file_index>  (22) 
47

>  <b_lp_Chiralities_Consistent>  (22) 
1

>  <r_epik_Charging_Adjusted_Penalty>  (22) 
0

>  <r_epik_Ionization_Penalty>  (22) 
0.0066293731876574894

>  <r_epik_Ionization_Penalty_Charging>  (22) 
0

>  <r_epik_Ionization_Penalty_Neutral>  (22) 
0.0066293731876574894

>  <r_epik_State_Penalty>  (22) 
-0

>  <r_lp_Energy>  (22) 
62.191623

>  <r_lp_tautomer_probability>  (22) 
1

>  <s_epik_cmdline>  (22) 
J2VwaWtfcHl0aG9uJywgJy1waHQnLCAnMC4yJywgJy1waCcsICc3LjQnLCAnLXJldGFpbl9pX2xhYicsICctcmV0YWluX3RfbGFiJywgJy10bicsICcxJywgJy1tYScsICc1MDAnLCAnLWltYWUnLCAnPGluZmlsZS5tYWU+JywgJy1vbWFlJywgJzxvdXRmaWxlLm1hZT4n

>  <s_epik_input>  (22) 
W0NIM11PYzFbY0hdW2NIXWMoW2NIXVtjSF0xKS1jMltjSF1jKC1jM1tjSF1bY0hdYyhPW0NIM10pW2NIXVtjSF0zKW5jKGMyNClzYyhjNFtOSDJdKUMoPU8pW05IXWM1bltjSF1bY0hdczU=

>  <s_lp_Force_Field>  (22) 
S-OPLS

>  <s_lp_Variant>  (22) 
8c_Ghoteimi_2023-1

>  <s_lp_label>  (22) 
47

>  <s_m_source_file>  (22) 
montpellier_ligands.smi

$$$$
8d_Ghoteimi_2023
     RDKit          3D

  0  0  0  0  0  0  0  0  0  0999 V3000
M  V30 BEGIN CTAB
M  V30 COUNTS 50 53 0 0 1
M  V30 BEGIN ATOM
M  V30 1 C -5.021446 1.162336 0.070957 0
M  V30 2 O -4.250306 -0.034270 0.080098 0
M  V30 3 C -2.871536 0.052320 0.057303 0
M  V30 4 C -2.171706 -1.154522 0.072372 0
M  V30 5 C -0.780065 -1.165823 0.049539 0
M  V30 6 C -2.154456 1.258570 0.019450 0
M  V30 7 C -0.762465 1.245950 -0.004299 0
M  V30 8 C -0.068546 0.034521 0.007972 0
M  V30 9 C 1.411930 0.023490 -0.025026 0
M  V30 10 C 2.150485 0.018338 -1.237779 0
M  V30 11 C 3.569457 0.009321 -1.118657 0
M  V30 12 S 4.376250 0.002333 -2.669585 0
M  V30 13 C 2.829234 0.010136 -3.519267 0
M  V30 14 C 2.799349 0.006354 -4.998161 0
M  V30 15 O 4.039375 -0.010768 -5.552237 0
M  V30 16 C 4.206420 -0.025817 -6.962896 0
M  V30 17 O 1.751982 0.016504 -5.649769 0
M  V30 18 C 1.755903 0.017680 -2.620401 0
M  V30 19 N 0.441675 0.020468 -3.013980 0
M  V30 20 N 4.248859 0.006217 0.027922 0
M  V30 21 C 3.522821 0.014375 1.178132 0
M  V30 22 C 4.310498 0.006214 2.449949 0
M  V30 23 C 5.542368 -0.658185 2.535920 0
M  V30 24 C 6.269713 -0.663297 3.722446 0
M  V30 25 C 5.787439 -0.005723 4.852547 0
M  V30 26 O 6.576211 -0.063096 5.985411 0
M  V30 27 C 6.140928 0.597890 7.168567 0
M  V30 28 C 4.556999 0.662542 4.777590 0
M  V30 29 C 3.831861 0.666324 3.589161 0
M  V30 30 C 2.124713 0.017003 1.177925 0
M  V30 31 H -6.081075 0.907792 0.088186 0
M  V30 32 H -4.838685 1.750414 -0.829703 0
M  V30 33 H -4.815743 1.777337 0.948387 0
M  V30 34 H -2.711076 -2.090049 0.100137 0
M  V30 35 H -0.255167 -2.110211 0.058814 0
M  V30 36 H -2.658307 2.212969 0.006432 0
M  V30 37 H -0.222087 2.181269 -0.036480 0
M  V30 38 H 5.267993 -0.023657 -7.210178 0
M  V30 39 H 3.748939 0.851964 -7.421422 0
M  V30 40 H 3.757353 -0.918956 -7.399531 0
M  V30 41 H 0.183721 0.015527 -3.991052 0
M  V30 42 H -0.313485 0.019836 -2.342651 0
M  V30 43 H 5.944189 -1.182299 1.680700 0
M  V30 44 H 7.215684 -1.183156 3.764276 0
M  V30 45 H 6.882757 0.454309 7.954186 0
M  V30 46 H 5.194749 0.191518 7.529104 0
M  V30 47 H 6.031957 1.671736 7.009221 0
M  V30 48 H 4.148109 1.185341 5.628863 0
M  V30 49 H 2.892350 1.198447 3.560980 0
M  V30 50 H 1.581107 0.008377 2.112023 0
M  V30 END ATOM
M  V30 BEGIN BOND
M  V30 1 1 2 1
M  V30 2 1 3 2
M  V30 3 1 4 3
M  V30 4 2 5 4
M  V30 5 2 6 3
M  V30 6 1 7 6
M  V30 7 2 8 7
M  V30 8 1 8 5
M  V30 9 1 9 8
M  V30 10 2 10 9
M  V30 11 1 11 10
M  V30 12 1 12 11
M  V30 13 1 13 12
M  V30 14 1 14 13
M  V30 15 1 15 14
M  V30 16 1 16 15
M  V30 17 2 17 14
M  V30 18 2 18 13
M  V30 19 1 18 10
M  V30 20 1 19 18
M  V30 21 2 20 11
M  V30 22 1 21 20
M  V30 23 1 22 21
M  V30 24 2 23 22
M  V30 25 1 24 23
M  V30 26 2 25 24
M  V30 27 1 26 25
M  V30 28 1 27 26
M  V30 29 1 28 25
M  V30 30 2 29 28
M  V30 31 1 29 22
M  V30 32 2 30 21
M  V30 33 1 30 9
M  V30 34 1 31 1
M  V30 35 1 32 1
M  V30 36 1 33 1
M  V30 37 1 34 4
M  V30 38 1 35 5
M  V30 39 1 36 6
M  V30 40 1 37 7
M  V30 41 1 38 16
M  V30 42 1 39 16
M  V30 43 1 40 16
M  V30 44 1 41 19
M  V30 45 1 42 19
M  V30 46 1 43 23
M  V30 47 1 44 24
M  V30 48 1 45 27
M  V30 49 1 46 27
M  V30 50 1 47 27
M  V30 51 1 48 28
M  V30 52 1 49 29
M  V30 53 1 50 30
M  V30 END BOND
M  V30 END CTAB
M  END
>  <i_epik_Tot_Q>  (23) 
0

>  <i_epik_Tot_abs_Q>  (23) 
0

>  <i_f3d_flags>  (23) 
0

>  <i_lp_mmshare_version>  (23) 
71160

>  <i_lp_orig_ion_str>  (23) 
1

>  <i_m_source_file_index>  (23) 
48

>  <b_lp_Chiralities_Consistent>  (23) 
1

>  <r_epik_Charging_Adjusted_Penalty>  (23) 
0

>  <r_epik_Ionization_Penalty>  (23) 
0.0005028502652878866

>  <r_epik_Ionization_Penalty_Charging>  (23) 
0

>  <r_epik_Ionization_Penalty_Neutral>  (23) 
0.0005028502652878866

>  <r_epik_State_Penalty>  (23) 
-0

>  <r_lp_Energy>  (23) 
53.576349999999998

>  <r_lp_tautomer_probability>  (23) 
1

>  <s_epik_Chemistry_Notes>  (23) 
This compound has an ester and may undergo hydrolysis at high or low pH.

>  <s_epik_cmdline>  (23) 
J2VwaWtfcHl0aG9uJywgJy1waHQnLCAnMC4yJywgJy1waCcsICc3LjQnLCAnLXJldGFpbl9pX2xhYicsICctcmV0YWluX3RfbGFiJywgJy10bicsICcxJywgJy1tYScsICc1MDAnLCAnLWltYWUnLCAnPGluZmlsZS5tYWU+JywgJy1vbWFlJywgJzxvdXRmaWxlLm1hZT4n

>  <s_epik_input>  (23) 
W0NIM11PYzFbY0hdW2NIXWMoW2NIXVtjSF0xKS1jMltjSF1jKC1jM1tjSF1bY0hdYyhPW0NIM10pW2NIXVtjSF0zKW5jKGMyNClzYyhjNFtOSDJdKUMoPU8pT1tDSDNd

>  <s_lp_Force_Field>  (23) 
S-OPLS

>  <s_lp_Variant>  (23) 
8d_Ghoteimi_2023-1

>  <s_lp_label>  (23) 
48

>  <s_m_source_file>  (23) 
montpellier_ligands.smi

$$$$
9a_Ghoteimi_2023
     RDKit          3D

  0  0  0  0  0  0  0  0  0  0999 V3000
M  V30 BEGIN CTAB
M  V30 COUNTS 85 91 0 0 1
M  V30 BEGIN ATOM
M  V30 1 N -0.224989 -2.606207 -0.044554 0
M  V30 2 C -0.695474 -1.317943 -0.016724 0
M  V30 3 C 0.140483 -0.189649 -0.012697 0
M  V30 4 C 1.605335 -0.138779 -0.010662 0
M  V30 5 N 2.140578 1.106566 0.001931 0
M  V30 6 C 3.487261 1.520658 0.012282 0
M  V30 7 C 3.692469 2.900260 0.055892 0
M  V30 8 C 4.982457 3.422354 0.070370 0
M  V30 9 C 6.096085 2.572885 0.041599 0
M  V30 10 C 7.474133 3.169310 0.059620 0
M  V30 11 O 8.462203 2.237580 0.060808 0
M  V30 12 C 9.831650 2.620630 0.074890 0
M  V30 13 C 10.711934 1.367434 0.107437 0
M  V30 14 O 7.686312 4.385574 0.078015 0
M  V30 15 C 5.886769 1.186098 -0.005318 0
M  V30 16 C 4.596618 0.662119 -0.019766 0
M  V30 17 O 2.266611 -1.177185 -0.015448 0
M  V30 18 S -0.802859 1.300704 -0.023703 0
M  V30 19 C -2.304147 0.405396 -0.034592 0
M  V30 20 N -3.485294 1.021371 -0.067995 0
M  V30 21 C -4.591749 0.232385 -0.085859 0
M  V30 22 C -5.905417 0.943957 -0.134385 0
M  V30 23 C -6.983003 0.401423 -0.842391 0
M  V30 24 C -8.210031 1.056779 -0.891421 0
M  V30 25 C -8.408962 2.274648 -0.222332 0
M  V30 26 N -9.630415 2.955163 -0.277932 0
M  V30 27 C -10.742985 2.474510 -1.121744 0
M  V30 28 C -11.855415 3.521639 -1.341488 0
M  V30 29 O -12.331058 3.995133 -0.091780 0
M  V30 30 C -11.296464 4.609226 0.659547 0
M  V30 31 C -10.172666 3.589917 0.941471 0
M  V30 32 C -7.321240 2.821821 0.473604 0
M  V30 33 C -6.093630 2.167210 0.519826 0
M  V30 34 C -4.515012 -1.161558 -0.043455 0
M  V30 35 C -3.277211 -1.812112 0.011743 0
M  V30 36 C -3.252853 -3.295365 0.093437 0
M  V30 37 C -2.724321 -3.937537 1.214840 0
M  V30 38 C -2.715373 -5.327066 1.294678 0
M  V30 39 C -3.252404 -6.111958 0.261911 0
M  V30 40 N -3.243954 -7.507967 0.315355 0
M  V30 41 C -4.483763 -8.247015 0.004308 0
M  V30 42 C -4.247502 -9.747136 -0.272473 0
M  V30 43 O -3.565263 -10.341496 0.820945 0
M  V30 44 C -2.302023 -9.733623 1.043122 0
M  V30 45 C -2.485828 -8.232924 1.353642 0
M  V30 46 C -3.782622 -5.456325 -0.858456 0
M  V30 47 C -3.788102 -4.066752 -0.939576 0
M  V30 48 C -2.103252 -1.006396 -0.005015 0
M  V30 49 H -0.848655 -3.401017 -0.056203 0
M  V30 50 H 0.766095 -2.804462 -0.054973 0
M  V30 51 H 1.477655 1.867658 0.009184 0
M  V30 52 H 2.852773 3.580534 0.080172 0
M  V30 53 H 5.101859 4.496227 0.105140 0
M  V30 54 H 10.060574 3.212919 -0.812357 0
M  V30 55 H 10.037398 3.241712 0.948104 0
M  V30 56 H 11.768102 1.636979 0.113741 0
M  V30 57 H 10.534848 0.737923 -0.765172 0
M  V30 58 H 10.515448 0.770676 0.998682 0
M  V30 59 H 6.715585 0.493175 -0.032194 0
M  V30 60 H 4.498426 -0.410119 -0.057781 0
M  V30 61 H -6.875648 -0.533823 -1.372059 0
M  V30 62 H -9.004732 0.587538 -1.451435 0
M  V30 63 H -10.352033 2.212633 -2.105496 0
M  V30 64 H -11.157533 1.560387 -0.693907 0
M  V30 65 H -11.498903 4.349815 -1.957232 0
M  V30 66 H -12.688160 3.071133 -1.881728 0
M  V30 67 H -10.908906 5.485844 0.136671 0
M  V30 68 H -11.715938 4.969831 1.598938 0
M  V30 69 H -9.391813 4.123480 1.480121 0
M  V30 70 H -10.528303 2.811373 1.618137 0
M  V30 71 H -7.401052 3.772513 0.978064 0
M  V30 72 H -5.284738 2.621679 1.073281 0
M  V30 73 H -5.421524 -1.750105 -0.031110 0
M  V30 74 H -2.313696 -3.357925 2.029186 0
M  V30 75 H -2.295357 -5.778647 2.180831 0
M  V30 76 H -5.190975 -8.118697 0.825358 0
M  V30 77 H -4.966713 -7.829075 -0.877880 0
M  V30 78 H -5.202610 -10.255960 -0.403964 0
M  V30 79 H -3.689130 -9.891960 -1.199614 0
M  V30 80 H -1.820462 -10.230745 1.885294 0
M  V30 81 H -1.647897 -9.879555 0.181000 0
M  V30 82 H -2.969888 -8.099797 2.322593 0
M  V30 83 H -1.491714 -7.790894 1.435601 0
M  V30 84 H -4.184140 -6.015923 -1.689996 0
M  V30 85 H -4.203459 -3.589414 -1.815537 0
M  V30 END ATOM
M  V30 BEGIN BOND
M  V30 1 1 2 1
M  V30 2 2 3 2
M  V30 3 1 4 3
M  V30 4 1 5 4
M  V30 5 1 6 5
M  V30 6 2 7 6
M  V30 7 1 8 7
M  V30 8 2 9 8
M  V30 9 1 10 9
M  V30 10 1 11 10
M  V30 11 1 12 11
M  V30 12 1 13 12
M  V30 13 2 14 10
M  V30 14 1 15 9
M  V30 15 2 16 15
M  V30 16 1 16 6
M  V30 17 2 17 4
M  V30 18 1 18 3
M  V30 19 1 19 18
M  V30 20 2 20 19
M  V30 21 1 21 20
M  V30 22 1 22 21
M  V30 23 2 23 22
M  V30 24 1 24 23
M  V30 25 2 25 24
M  V30 26 1 26 25
M  V30 27 1 27 26
M  V30 28 1 28 27
M  V30 29 1 29 28
M  V30 30 1 30 29
M  V30 31 1 31 30
M  V30 32 1 31 26
M  V30 33 1 32 25
M  V30 34 2 33 32
M  V30 35 1 33 22
M  V30 36 2 34 21
M  V30 37 1 35 34
M  V30 38 1 36 35
M  V30 39 2 37 36
M  V30 40 1 38 37
M  V30 41 2 39 38
M  V30 42 1 40 39
M  V30 43 1 41 40
M  V30 44 1 42 41
M  V30 45 1 43 42
M  V30 46 1 44 43
M  V30 47 1 45 44
M  V30 48 1 45 40
M  V30 49 1 46 39
M  V30 50 2 47 46
M  V30 51 1 47 36
M  V30 52 2 48 35
M  V30 53 1 48 2
M  V30 54 1 48 19
M  V30 55 1 49 1
M  V30 56 1 50 1
M  V30 57 1 51 5
M  V30 58 1 52 7
M  V30 59 1 53 8
M  V30 60 1 54 12
M  V30 61 1 55 12
M  V30 62 1 56 13
M  V30 63 1 57 13
M  V30 64 1 58 13
M  V30 65 1 59 15
M  V30 66 1 60 16
M  V30 67 1 61 23
M  V30 68 1 62 24
M  V30 69 1 63 27
M  V30 70 1 64 27
M  V30 71 1 65 28
M  V30 72 1 66 28
M  V30 73 1 67 30
M  V30 74 1 68 30
M  V30 75 1 69 31
M  V30 76 1 70 31
M  V30 77 1 71 32
M  V30 78 1 72 33
M  V30 79 1 73 34
M  V30 80 1 74 37
M  V30 81 1 75 38
M  V30 82 1 76 41
M  V30 83 1 77 41
M  V30 84 1 78 42
M  V30 85 1 79 42
M  V30 86 1 80 44
M  V30 87 1 81 44
M  V30 88 1 82 45
M  V30 89 1 83 45
M  V30 90 1 84 46
M  V30 91 1 85 47
M  V30 END BOND
M  V30 END CTAB
M  END
>  <i_epik_Tot_Q>  (24) 
0

>  <i_epik_Tot_abs_Q>  (24) 
0

>  <i_f3d_flags>  (24) 
0

>  <i_lp_mmshare_version>  (24) 
71160

>  <i_lp_orig_ion_str>  (24) 
1

>  <i_m_source_file_index>  (24) 
49

>  <b_lp_Chiralities_Consistent>  (24) 
1

>  <r_epik_Charging_Adjusted_Penalty>  (24) 
0

>  <r_epik_Ionization_Penalty>  (24) 
0.00020307846802500171

>  <r_epik_Ionization_Penalty_Charging>  (24) 
0

>  <r_epik_Ionization_Penalty_Neutral>  (24) 
0.00020307846802500171

>  <r_epik_State_Penalty>  (24) 
-0

>  <r_lp_Energy>  (24) 
79.239530999999999

>  <r_lp_tautomer_probability>  (24) 
1

>  <s_epik_Chemistry_Notes>  (24) 
This compound has an ester and may undergo hydrolysis at high or low pH.

>  <s_epik_cmdline>  (24) 
J2VwaWtfcHl0aG9uJywgJy1waHQnLCAnMC4yJywgJy1waCcsICc3LjQnLCAnLXJldGFpbl9pX2xhYicsICctcmV0YWluX3RfbGFiJywgJy10bicsICcxJywgJy1tYScsICc1MDAnLCAnLWltYWUnLCAnPGluZmlsZS5tYWU+JywgJy1vbWFlJywgJzxvdXRmaWxlLm1hZT4n

>  <s_epik_input>  (24) 
W0NIM11bQ0gyXU9DKD1PKWMoW2NIXVtjSF0xKVtjSF1bY0hdYzFbTkhdQyg9TyljKHMyKWMoW05IMl0pYyhjMjMpYygtYzRbY0hdW2NIXWMoW2NIXVtjSF00KU41W0NIMl1bQ0gyXU9bQ0gyXVtDSDJdNSlbY0hdYyhuMyktYzZbY0hdW2NIXWMoW2NIXVtjSF02KU43W0NIMl1bQ0gyXU9bQ0gyXVtDSDJdNw==

>  <s_lp_Force_Field>  (24) 
S-OPLS

>  <s_lp_Variant>  (24) 
9a_Ghoteimi_2023-1

>  <s_lp_label>  (24) 
49

>  <s_m_source_file>  (24) 
montpellier_ligands.smi

$$$$
9b_Ghoteimi_2023
     RDKit          3D

  0  0  0  0  0  0  0  0  0  0999 V3000
M  V30 BEGIN CTAB
M  V30 COUNTS 72 78 0 0 1
M  V30 BEGIN ATOM
M  V30 1 N -0.193260 -2.328196 0.268841 0
M  V30 2 C -0.653177 -1.052381 0.063237 0
M  V30 3 C 0.190182 0.063258 -0.062817 0
M  V30 4 C 1.654170 0.109743 -0.031403 0
M  V30 5 N 2.199743 1.347172 -0.140309 0
M  V30 6 C 3.547665 1.681564 -0.128425 0
M  V30 7 N 4.556561 0.837524 0.010948 0
M  V30 8 O 5.726254 1.598441 -0.031066 0
M  V30 9 C 5.378951 2.897102 -0.196555 0
M  V30 10 C 4.008134 2.990660 -0.262949 0
M  V30 11 O 2.314234 -0.923976 0.092963 0
M  V30 12 S -0.740872 1.543781 -0.285745 0
M  V30 13 C -2.248114 0.664507 -0.190562 0
M  V30 14 N -3.424310 1.284675 -0.270137 0
M  V30 15 C -4.537004 0.511670 -0.166901 0
M  V30 16 C -5.842570 1.235323 -0.237548 0
M  V30 17 C -6.008287 2.351589 -1.065790 0
M  V30 18 C -7.222157 3.030286 -1.117031 0
M  V30 19 C -8.312201 2.625436 -0.330829 0
M  V30 20 N -9.540035 3.294757 -0.373558 0
M  V30 21 C -9.785938 4.388826 -1.334520 0
M  V30 22 C -11.274377 4.768661 -1.479413 0
M  V30 23 O -11.821416 5.078018 -0.208108 0
M  V30 24 C -11.742780 3.970583 0.674931 0
M  V30 25 C -10.269317 3.561349 0.883869 0
M  V30 26 C -8.147344 1.493657 0.480797 0
M  V30 27 C -6.933855 0.813079 0.528839 0
M  V30 28 C -4.471308 -0.875099 -0.013329 0
M  V30 29 C -3.237255 -1.532576 0.050058 0
M  V30 30 C -3.220732 -3.011629 0.183592 0
M  V30 31 C -3.748383 -3.621668 1.322647 0
M  V30 32 C -3.752078 -5.008373 1.443475 0
M  V30 33 C -3.227775 -5.822804 0.426968 0
M  V30 34 N -3.236434 -7.217098 0.520034 0
M  V30 35 C -2.010663 -7.970439 0.187822 0
M  V30 36 C -2.268329 -9.472968 -0.054049 0
M  V30 37 O -2.916746 -10.041778 1.073296 0
M  V30 38 C -4.165651 -9.418260 1.330946 0
M  V30 39 C -3.958588 -7.913071 1.603065 0
M  V30 40 C -2.717577 -5.198825 -0.720805 0
M  V30 41 C -2.713553 -3.812151 -0.841330 0
M  V30 42 C -2.057795 -0.738607 -0.020619 0
M  V30 43 H -0.823187 -3.111683 0.368421 0
M  V30 44 H 0.795885 -2.527781 0.328510 0
M  V30 45 H 1.562229 2.122283 -0.245512 0
M  V30 46 H 6.184987 3.614300 -0.247799 0
M  V30 47 H 3.418637 3.886400 -0.390894 0
M  V30 48 H -5.192071 2.702120 -1.680893 0
M  V30 49 H -7.287832 3.888266 -1.768636 0
M  V30 50 H -9.195220 5.262212 -1.053318 0
M  V30 51 H -9.436655 4.076346 -2.319400 0
M  V30 52 H -11.373975 5.643099 -2.122535 0
M  V30 53 H -11.839780 3.966039 -1.957424 0
M  V30 54 H -12.187440 4.255847 1.628556 0
M  V30 55 H -12.332828 3.133436 0.296892 0
M  V30 56 H -9.738866 4.331984 1.445224 0
M  V30 57 H -10.275469 2.677296 1.518546 0
M  V30 58 H -8.960015 1.113670 1.080823 0
M  V30 59 H -6.847594 -0.045399 1.178875 0
M  V30 60 H -5.382362 -1.454354 0.039763 0
M  V30 61 H -4.155287 -3.019762 2.122396 0
M  V30 62 H -4.162085 -5.434037 2.346957 0
M  V30 63 H -1.548524 -7.574211 -0.715143 0
M  V30 64 H -1.279830 -7.833139 0.986416 0
M  V30 65 H -2.861202 -9.628730 -0.957613 0
M  V30 66 H -1.322761 -9.992410 -0.210203 0
M  V30 67 H -4.854028 -9.575648 0.498165 0
M  V30 68 H -4.618019 -9.894356 2.200913 0
M  V30 69 H -4.945863 -7.463142 1.714845 0
M  V30 70 H -3.435411 -7.763467 2.548972 0
M  V30 71 H -2.333482 -5.780899 -1.545143 0
M  V30 72 H -2.318286 -3.359218 -1.739300 0
M  V30 END ATOM
M  V30 BEGIN BOND
M  V30 1 1 2 1
M  V30 2 2 3 2
M  V30 3 1 4 3
M  V30 4 1 5 4
M  V30 5 1 6 5
M  V30 6 2 7 6
M  V30 7 1 8 7
M  V30 8 1 9 8
M  V30 9 2 10 9
M  V30 10 1 10 6
M  V30 11 2 11 4
M  V30 12 1 12 3
M  V30 13 1 13 12
M  V30 14 2 14 13
M  V30 15 1 15 14
M  V30 16 1 16 15
M  V30 17 2 17 16
M  V30 18 1 18 17
M  V30 19 2 19 18
M  V30 20 1 20 19
M  V30 21 1 21 20
M  V30 22 1 22 21
M  V30 23 1 23 22
M  V30 24 1 24 23
M  V30 25 1 25 24
M  V30 26 1 25 20
M  V30 27 1 26 19
M  V30 28 2 27 26
M  V30 29 1 27 16
M  V30 30 2 28 15
M  V30 31 1 29 28
M  V30 32 1 30 29
M  V30 33 2 31 30
M  V30 34 1 32 31
M  V30 35 2 33 32
M  V30 36 1 34 33
M  V30 37 1 35 34
M  V30 38 1 36 35
M  V30 39 1 37 36
M  V30 40 1 38 37
M  V30 41 1 39 38
M  V30 42 1 39 34
M  V30 43 1 40 33
M  V30 44 2 41 40
M  V30 45 1 41 30
M  V30 46 2 42 29
M  V30 47 1 42 2
M  V30 48 1 42 13
M  V30 49 1 43 1
M  V30 50 1 44 1
M  V30 51 1 45 5
M  V30 52 1 46 9
M  V30 53 1 47 10
M  V30 54 1 48 17
M  V30 55 1 49 18
M  V30 56 1 50 21
M  V30 57 1 51 21
M  V30 58 1 52 22
M  V30 59 1 53 22
M  V30 60 1 54 24
M  V30 61 1 55 24
M  V30 62 1 56 25
M  V30 63 1 57 25
M  V30 64 1 58 26
M  V30 65 1 59 27
M  V30 66 1 60 28
M  V30 67 1 61 31
M  V30 68 1 62 32
M  V30 69 1 63 35
M  V30 70 1 64 35
M  V30 71 1 65 36
M  V30 72 1 66 36
M  V30 73 1 67 38
M  V30 74 1 68 38
M  V30 75 1 69 39
M  V30 76 1 70 39
M  V30 77 1 71 40
M  V30 78 1 72 41
M  V30 END BOND
M  V30 END CTAB
M  END
>  <i_epik_Tot_Q>  (25) 
0

>  <i_epik_Tot_abs_Q>  (25) 
0

>  <i_f3d_flags>  (25) 
0

>  <i_lp_mmshare_version>  (25) 
71160

>  <i_lp_orig_ion_str>  (25) 
1

>  <i_m_source_file_index>  (25) 
50

>  <b_lp_Chiralities_Consistent>  (25) 
1

>  <r_epik_Charging_Adjusted_Penalty>  (25) 
0

>  <r_epik_Ionization_Penalty>  (25) 
0.0030699182916150295

>  <r_epik_Ionization_Penalty_Charging>  (25) 
0

>  <r_epik_Ionization_Penalty_Neutral>  (25) 
0.0030699182916150295

>  <r_epik_State_Penalty>  (25) 
-0

>  <r_lp_Energy>  (25) 
72.218927999999991

>  <r_lp_tautomer_probability>  (25) 
1

>  <s_epik_cmdline>  (25) 
J2VwaWtfcHl0aG9uJywgJy1waHQnLCAnMC4yJywgJy1waCcsICc3LjQnLCAnLXJldGFpbl9pX2xhYicsICctcmV0YWluX3RfbGFiJywgJy10bicsICcxJywgJy1tYScsICc1MDAnLCAnLWltYWUnLCAnPGluZmlsZS5tYWU+JywgJy1vbWFlJywgJzxvdXRmaWxlLm1hZT4n

>  <s_epik_input>  (25) 
W2NIXTFbY0hdb25jMVtOSF1DKD1PKWMoczIpYyhbTkgyXSljKGMyMyljKC1jNFtjSF1bY0hdYyhbY0hdW2NIXTQpTjVbQ0gyXVtDSDJdT1tDSDJdW0NIMl01KVtjSF1jKG4zKS1jNltjSF1bY0hdYyhbY0hdW2NIXTYpTjdbQ0gyXVtDSDJdT1tDSDJdW0NIMl03

>  <s_lp_Force_Field>  (25) 
S-OPLS

>  <s_lp_Variant>  (25) 
9b_Ghoteimi_2023-1

>  <s_lp_label>  (25) 
50

>  <s_m_source_file>  (25) 
montpellier_ligands.smi

$$$$
9c_Ghoteimi_2023
     RDKit          3D

  0  0  0  0  0  0  0  0  0  0999 V3000
M  V30 BEGIN CTAB
M  V30 COUNTS 72 78 0 0 1
M  V30 BEGIN ATOM
M  V30 1 N -0.200394 -2.336282 0.253499 0
M  V30 2 C -0.658285 -1.059375 0.049699 0
M  V30 3 C 0.187453 0.053996 -0.079921 0
M  V30 4 C 1.651601 0.097299 -0.050573 0
M  V30 5 N 2.200227 1.331316 -0.173709 0
M  V30 6 C 3.551071 1.649385 -0.163440 0
M  V30 7 N 4.572112 0.834443 -0.007985 0
M  V30 8 C 5.719714 1.482961 -0.045605 0
M  V30 9 C 5.643166 2.859535 -0.235138 0
M  V30 10 S 3.972244 3.319350 -0.370215 0
M  V30 11 O 2.310583 -0.936232 0.083088 0
M  V30 12 S -0.740531 1.537113 -0.299964 0
M  V30 13 C -2.249640 0.661861 -0.198456 0
M  V30 14 N -3.424637 1.285066 -0.273515 0
M  V30 15 C -4.538940 0.514993 -0.165614 0
M  V30 16 C -5.843081 1.241604 -0.233218 0
M  V30 17 C -6.009651 2.355766 -1.064330 0
M  V30 18 C -7.223436 3.034730 -1.115705 0
M  V30 19 C -8.312802 2.632481 -0.326965 0
M  V30 20 N -9.541953 3.299622 -0.373300 0
M  V30 21 C -9.785052 4.397615 -1.330765 0
M  V30 22 C -11.273501 4.773784 -1.483627 0
M  V30 23 O -11.828848 5.077268 -0.214323 0
M  V30 24 C -11.752652 3.965994 0.664206 0
M  V30 25 C -10.279326 3.560211 0.880794 0
M  V30 26 C -8.146400 1.503712 0.488889 0
M  V30 27 C -6.932909 0.823045 0.537187 0
M  V30 28 C -4.476254 -0.871894 -0.011897 0
M  V30 29 C -3.243663 -1.532541 0.046115 0
M  V30 30 C -3.230039 -3.011481 0.179154 0
M  V30 31 C -3.754378 -3.621139 1.320043 0
M  V30 32 C -3.757925 -5.007924 1.441215 0
M  V30 33 C -3.235678 -5.822485 0.423596 0
M  V30 34 N -3.239765 -7.216632 0.518894 0
M  V30 35 C -2.012201 -7.965249 0.182569 0
M  V30 36 C -2.261223 -9.470881 -0.049168 0
M  V30 37 O -2.899913 -10.037505 1.084611 0
M  V30 38 C -4.151248 -9.420556 1.344909 0
M  V30 39 C -3.953253 -7.912451 1.607525 0
M  V30 40 C -2.730525 -5.198964 -0.726695 0
M  V30 41 C -2.727346 -3.812434 -0.847672 0
M  V30 42 C -2.062420 -0.741646 -0.029063 0
M  V30 43 H -0.831399 -3.118843 0.354525 0
M  V30 44 H 0.788474 -2.538296 0.308889 0
M  V30 45 H 1.567706 2.109655 -0.288168 0
M  V30 46 H 6.638010 0.926365 0.070261 0
M  V30 47 H 6.440679 3.585122 -0.298062 0
M  V30 48 H -5.194648 2.703796 -1.682479 0
M  V30 49 H -7.289574 3.890380 -1.770448 0
M  V30 50 H -9.199035 5.270965 -1.040389 0
M  V30 51 H -9.428560 4.092498 -2.315373 0
M  V30 52 H -11.371312 5.650249 -2.124372 0
M  V30 53 H -11.834090 3.971569 -1.967886 0
M  V30 54 H -12.204403 4.245695 1.616157 0
M  V30 55 H -12.337622 3.128538 0.278166 0
M  V30 56 H -9.754239 4.330848 1.447042 0
M  V30 57 H -10.287317 2.674651 1.513649 0
M  V30 58 H -8.957569 1.125256 1.091834 0
M  V30 59 H -6.845975 -0.033548 1.189681 0
M  V30 60 H -5.388591 -1.448871 0.044628 0
M  V30 61 H -4.157863 -3.018834 2.121389 0
M  V30 62 H -4.164265 -5.433729 2.346389 0
M  V30 63 H -1.559382 -7.571708 -0.726214 0
M  V30 64 H -1.276684 -7.818195 0.975016 0
M  V30 65 H -2.857095 -9.636092 -0.949054 0
M  V30 66 H -1.312505 -9.984579 -0.206577 0
M  V30 67 H -4.842620 -9.587658 0.516585 0
M  V30 68 H -4.595512 -9.894637 2.220283 0
M  V30 69 H -4.942961 -7.468044 1.720698 0
M  V30 70 H -3.427433 -7.754609 2.550439 0
M  V30 71 H -2.348665 -5.781134 -1.551912 0
M  V30 72 H -2.334539 -3.359697 -1.746852 0
M  V30 END ATOM
M  V30 BEGIN BOND
M  V30 1 1 2 1
M  V30 2 2 3 2
M  V30 3 1 4 3
M  V30 4 1 5 4
M  V30 5 1 6 5
M  V30 6 2 7 6
M  V30 7 1 8 7
M  V30 8 2 9 8
M  V30 9 1 10 9
M  V30 10 1 10 6
M  V30 11 2 11 4
M  V30 12 1 12 3
M  V30 13 1 13 12
M  V30 14 2 14 13
M  V30 15 1 15 14
M  V30 16 1 16 15
M  V30 17 2 17 16
M  V30 18 1 18 17
M  V30 19 2 19 18
M  V30 20 1 20 19
M  V30 21 1 21 20
M  V30 22 1 22 21
M  V30 23 1 23 22
M  V30 24 1 24 23
M  V30 25 1 25 24
M  V30 26 1 25 20
M  V30 27 1 26 19
M  V30 28 2 27 26
M  V30 29 1 27 16
M  V30 30 2 28 15
M  V30 31 1 29 28
M  V30 32 1 30 29
M  V30 33 2 31 30
M  V30 34 1 32 31
M  V30 35 2 33 32
M  V30 36 1 34 33
M  V30 37 1 35 34
M  V30 38 1 36 35
M  V30 39 1 37 36
M  V30 40 1 38 37
M  V30 41 1 39 38
M  V30 42 1 39 34
M  V30 43 1 40 33
M  V30 44 2 41 40
M  V30 45 1 41 30
M  V30 46 2 42 29
M  V30 47 1 42 2
M  V30 48 1 42 13
M  V30 49 1 43 1
M  V30 50 1 44 1
M  V30 51 1 45 5
M  V30 52 1 46 8
M  V30 53 1 47 9
M  V30 54 1 48 17
M  V30 55 1 49 18
M  V30 56 1 50 21
M  V30 57 1 51 21
M  V30 58 1 52 22
M  V30 59 1 53 22
M  V30 60 1 54 24
M  V30 61 1 55 24
M  V30 62 1 56 25
M  V30 63 1 57 25
M  V30 64 1 58 26
M  V30 65 1 59 27
M  V30 66 1 60 28
M  V30 67 1 61 31
M  V30 68 1 62 32
M  V30 69 1 63 35
M  V30 70 1 64 35
M  V30 71 1 65 36
M  V30 72 1 66 36
M  V30 73 1 67 38
M  V30 74 1 68 38
M  V30 75 1 69 39
M  V30 76 1 70 39
M  V30 77 1 71 40
M  V30 78 1 72 41
M  V30 END BOND
M  V30 END CTAB
M  END
>  <i_epik_Tot_Q>  (26) 
0

>  <i_epik_Tot_abs_Q>  (26) 
0

>  <i_f3d_flags>  (26) 
0

>  <i_lp_mmshare_version>  (26) 
71160

>  <i_lp_orig_ion_str>  (26) 
1

>  <i_m_source_file_index>  (26) 
51

>  <b_lp_Chiralities_Consistent>  (26) 
1

>  <r_epik_Charging_Adjusted_Penalty>  (26) 
0

>  <r_epik_Ionization_Penalty>  (26) 
0.010286318395970688

>  <r_epik_Ionization_Penalty_Charging>  (26) 
0

>  <r_epik_Ionization_Penalty_Neutral>  (26) 
0.010286318395970688

>  <r_epik_State_Penalty>  (26) 
-0

>  <r_lp_Energy>  (26) 
76.46050799999999

>  <r_lp_tautomer_probability>  (26) 
1

>  <s_epik_cmdline>  (26) 
J2VwaWtfcHl0aG9uJywgJy1waHQnLCAnMC4yJywgJy1waCcsICc3LjQnLCAnLXJldGFpbl9pX2xhYicsICctcmV0YWluX3RfbGFiJywgJy10bicsICcxJywgJy1tYScsICc1MDAnLCAnLWltYWUnLCAnPGluZmlsZS5tYWU+JywgJy1vbWFlJywgJzxvdXRmaWxlLm1hZT4n

>  <s_epik_input>  (26) 
czFbY0hdW2NIXW5jMVtOSF1DKD1PKWMoczIpYyhbTkgyXSljKGMyMyljKC1jNFtjSF1bY0hdYyhbY0hdW2NIXTQpTjVbQ0gyXVtDSDJdT1tDSDJdW0NIMl01KVtjSF1jKG4zKS1jNltjSF1bY0hdYyhbY0hdW2NIXTYpTjdbQ0gyXVtDSDJdT1tDSDJdW0NIMl03

>  <s_lp_Force_Field>  (26) 
S-OPLS

>  <s_lp_Variant>  (26) 
9c_Ghoteimi_2023-1

>  <s_lp_label>  (26) 
51

>  <s_m_source_file>  (26) 
montpellier_ligands.smi

$$$$
9d_Ghoteimi_2023
     RDKit          3D

  0  0  0  0  0  0  0  0  0  0999 V3000
M  V30 BEGIN CTAB
M  V30 COUNTS 68 73 0 0 1
M  V30 BEGIN ATOM
M  V30 1 N -0.162724 -2.280435 0.071337 0
M  V30 2 C -0.701632 -1.020155 0.113883 0
M  V30 3 C 0.079041 0.141997 0.142292 0
M  V30 4 C 1.553455 0.268942 0.152953 0
M  V30 5 O 1.973163 1.560667 0.160821 0
M  V30 6 C 3.358118 1.876321 0.157783 0
M  V30 7 O 2.312861 -0.703354 0.151178 0
M  V30 8 S -0.927171 1.590287 0.152169 0
M  V30 9 C -2.383611 0.625650 0.100549 0
M  V30 10 N -3.591006 1.187893 0.054330 0
M  V30 11 C -4.659982 0.350584 -0.000780 0
M  V30 12 C -6.002538 1.003628 -0.079023 0
M  V30 13 C -7.034226 0.419742 -0.821585 0
M  V30 14 C -8.286889 1.020927 -0.902602 0
M  V30 15 C -8.558656 2.223858 -0.232302 0
M  V30 16 N -9.807763 2.848606 -0.317808 0
M  V30 17 C -10.869127 2.327149 -1.202734 0
M  V30 18 C -12.030208 3.316124 -1.436434 0
M  V30 19 O -12.566111 3.737268 -0.192673 0
M  V30 20 C -11.589622 4.396394 0.597451 0
M  V30 21 C -10.413230 3.441833 0.892838 0
M  V30 22 C -7.517032 2.813130 0.498811 0
M  V30 23 C -6.263328 2.212830 0.576844 0
M  V30 24 C -4.520930 -1.039047 0.024774 0
M  V30 25 C -3.256099 -1.634412 0.093856 0
M  V30 26 C -3.165514 -3.116758 0.147068 0
M  V30 27 C -2.621075 -3.759231 1.260966 0
M  V30 28 C -2.555872 -5.148993 1.313558 0
M  V30 29 C -3.050002 -5.933813 0.259825 0
M  V30 30 N -2.987676 -7.328939 0.285175 0
M  V30 31 C -4.197925 -8.107353 -0.045230 0
M  V30 32 C -3.901799 -9.589230 -0.359626 0
M  V30 33 O -3.194637 -10.183639 0.718284 0
M  V30 34 C -1.958392 -9.529260 0.959427 0
M  V30 35 C -2.207762 -8.047331 1.311373 0
M  V30 36 C -3.593960 -5.278191 -0.853670 0
M  V30 37 C -3.656513 -3.888880 -0.907132 0
M  V30 38 C -2.120822 -0.775762 0.110028 0
M  V30 39 H -0.743365 -3.106465 0.036448 0
M  V30 40 H 0.837335 -2.425583 0.068306 0
M  V30 41 H 3.490571 2.958220 0.160219 0
M  V30 42 H 3.848315 1.476311 -0.730979 0
M  V30 43 H 3.854562 1.470696 1.040421 0
M  V30 44 H -6.870585 -0.505698 -1.354167 0
M  V30 45 H -9.043664 0.521174 -1.488208 0
M  V30 46 H -10.436280 2.105295 -2.178939 0
M  V30 47 H -11.245717 1.383852 -0.803878 0
M  V30 48 H -11.702816 4.174841 -2.026014 0
M  V30 49 H -12.821241 2.831305 -2.008806 0
M  V30 50 H -11.242879 5.305721 0.102123 0
M  V30 51 H -12.054719 4.711452 1.531606 0
M  V30 52 H -9.675614 4.016744 1.449916 0
M  V30 53 H -10.734900 2.638778 1.557588 0
M  V30 54 H -7.654064 3.755686 1.006044 0
M  V30 55 H -5.490812 2.698772 1.155155 0
M  V30 56 H -5.400085 -1.667788 0.007777 0
M  V30 57 H -2.244473 -3.179524 2.091529 0
M  V30 58 H -2.128228 -5.602012 2.195390 0
M  V30 59 H -4.910115 -8.027368 0.777738 0
M  V30 60 H -4.696531 -7.686747 -0.917430 0
M  V30 61 H -4.835866 -10.132383 -0.503676 0
M  V30 62 H -3.339084 -9.687560 -1.289975 0
M  V30 63 H -1.456459 -10.028915 1.788131 0
M  V30 64 H -1.298980 -9.621982 0.094229 0
M  V30 65 H -2.705530 -7.962772 2.278870 0
M  V30 66 H -1.234437 -7.566118 1.415304 0
M  V30 67 H -3.963312 -5.837302 -1.700358 0
M  V30 68 H -4.083843 -3.411629 -1.777284 0
M  V30 END ATOM
M  V30 BEGIN BOND
M  V30 1 1 2 1
M  V30 2 2 3 2
M  V30 3 1 4 3
M  V30 4 1 5 4
M  V30 5 1 6 5
M  V30 6 2 7 4
M  V30 7 1 8 3
M  V30 8 1 9 8
M  V30 9 2 10 9
M  V30 10 1 11 10
M  V30 11 1 12 11
M  V30 12 2 13 12
M  V30 13 1 14 13
M  V30 14 2 15 14
M  V30 15 1 16 15
M  V30 16 1 17 16
M  V30 17 1 18 17
M  V30 18 1 19 18
M  V30 19 1 20 19
M  V30 20 1 21 20
M  V30 21 1 21 16
M  V30 22 1 22 15
M  V30 23 2 23 22
M  V30 24 1 23 12
M  V30 25 2 24 11
M  V30 26 1 25 24
M  V30 27 1 26 25
M  V30 28 2 27 26
M  V30 29 1 28 27
M  V30 30 2 29 28
M  V30 31 1 30 29
M  V30 32 1 31 30
M  V30 33 1 32 31
M  V30 34 1 33 32
M  V30 35 1 34 33
M  V30 36 1 35 34
M  V30 37 1 35 30
M  V30 38 1 36 29
M  V30 39 2 37 36
M  V30 40 1 37 26
M  V30 41 2 38 25
M  V30 42 1 38 2
M  V30 43 1 38 9
M  V30 44 1 39 1
M  V30 45 1 40 1
M  V30 46 1 41 6
M  V30 47 1 42 6
M  V30 48 1 43 6
M  V30 49 1 44 13
M  V30 50 1 45 14
M  V30 51 1 46 17
M  V30 52 1 47 17
M  V30 53 1 48 18
M  V30 54 1 49 18
M  V30 55 1 50 20
M  V30 56 1 51 20
M  V30 57 1 52 21
M  V30 58 1 53 21
M  V30 59 1 54 22
M  V30 60 1 55 23
M  V30 61 1 56 24
M  V30 62 1 57 27
M  V30 63 1 58 28
M  V30 64 1 59 31
M  V30 65 1 60 31
M  V30 66 1 61 32
M  V30 67 1 62 32
M  V30 68 1 63 34
M  V30 69 1 64 34
M  V30 70 1 65 35
M  V30 71 1 66 35
M  V30 72 1 67 36
M  V30 73 1 68 37
M  V30 END BOND
M  V30 END CTAB
M  END
>  <i_epik_Tot_Q>  (27) 
0

>  <i_epik_Tot_abs_Q>  (27) 
0

>  <i_f3d_flags>  (27) 
0

>  <i_lp_mmshare_version>  (27) 
71160

>  <i_lp_orig_ion_str>  (27) 
1

>  <i_m_source_file_index>  (27) 
52

>  <b_lp_Chiralities_Consistent>  (27) 
1

>  <r_epik_Charging_Adjusted_Penalty>  (27) 
0

>  <r_epik_Ionization_Penalty>  (27) 
0.00065703291312069981

>  <r_epik_Ionization_Penalty_Charging>  (27) 
0

>  <r_epik_Ionization_Penalty_Neutral>  (27) 
0.00065703291312069981

>  <r_epik_State_Penalty>  (27) 
-0

>  <r_lp_Energy>  (27) 
67.392282999999992

>  <r_lp_tautomer_probability>  (27) 
1

>  <s_epik_Chemistry_Notes>  (27) 
This compound has an ester and may undergo hydrolysis at high or low pH.

>  <s_epik_cmdline>  (27) 
J2VwaWtfcHl0aG9uJywgJy1waHQnLCAnMC4yJywgJy1waCcsICc3LjQnLCAnLXJldGFpbl9pX2xhYicsICctcmV0YWluX3RfbGFiJywgJy10bicsICcxJywgJy1tYScsICc1MDAnLCAnLWltYWUnLCAnPGluZmlsZS5tYWU+JywgJy1vbWFlJywgJzxvdXRmaWxlLm1hZT4n

>  <s_epik_input>  (27) 
W0NIMl0xW0NIMl1PW0NIMl1bQ0gyXU4xYyhbY0hdW2NIXTIpW2NIXVtjSF1jMi1jKGMoYzM0KWMoW05IMl0pYyhzMylDKD1PKU9bQ0gzXSlbY0hdYyhuNCktYzVbY0hdW2NIXWMoW2NIXVtjSF01KU42W0NIMl1bQ0gyXU9bQ0gyXVtDSDJdNg==

>  <s_lp_Force_Field>  (27) 
S-OPLS

>  <s_lp_Variant>  (27) 
9d_Ghoteimi_2023-1

>  <s_lp_label>  (27) 
52

>  <s_m_source_file>  (27) 
montpellier_ligands.smi

$$$$
1a_Grossjean_2025
     RDKit          3D

  0  0  0  0  0  0  0  0  0  0999 V3000
M  V30 BEGIN CTAB
M  V30 COUNTS 45 46 0 0 1
M  V30 BEGIN ATOM
M  V30 1 C -0.654515 3.398319 2.769968 0
M  V30 2 C -0.367115 3.200536 1.282742 0
M  V30 3 C 0.251085 2.035003 0.775007 0
M  V30 4 C 0.606661 0.936445 1.676629 0
M  V30 5 N 0.887005 0.070298 2.390893 0
M  V30 6 C 0.478367 1.963050 -0.619520 0
M  V30 7 S 1.248190 0.576051 -1.425460 0
M  V30 8 C 2.906403 0.378570 -0.705953 0
M  V30 9 C 3.304032 -1.092239 -0.568161 0
M  V30 10 N 3.131020 -1.625475 0.660310 0
M  V30 11 C 3.393452 -2.927882 1.127088 0
M  V30 12 C 2.995026 -3.191574 2.438177 0
M  V30 13 C 3.203241 -4.447822 2.999775 0
M  V30 14 C 3.817108 -5.466914 2.259992 0
M  V30 15 C 4.021800 -6.812306 2.894523 0
M  V30 16 O 4.575988 -7.723646 2.053646 0
M  V30 17 C 4.824321 -9.057882 2.479106 0
M  V30 18 C 5.444189 -9.854157 1.326521 0
M  V30 19 O 3.706112 -7.066966 4.060659 0
M  V30 20 C 4.223368 -5.196231 0.944453 0
M  V30 21 C 4.016039 -3.939873 0.381189 0
M  V30 22 O 3.744699 -1.687709 -1.551277 0
M  V30 23 N 0.093315 2.946065 -1.471933 0
M  V30 24 C -0.500135 4.051916 -0.964279 0
M  V30 25 C -0.890948 5.113801 -1.974806 0
M  V30 26 C -0.741089 4.217608 0.398095 0
M  V30 27 H -1.160103 4.342875 2.975397 0
M  V30 28 H 0.275013 3.378950 3.339923 0
M  V30 29 H -1.286255 2.592340 3.144992 0
M  V30 30 H 3.591649 0.835956 -1.420853 0
M  V30 31 H 3.036241 0.934744 0.222707 0
M  V30 32 H 2.723542 -1.015727 1.354494 0
M  V30 33 H 2.515930 -2.425830 3.032011 0
M  V30 34 H 2.877489 -4.616334 4.016649 0
M  V30 35 H 5.499422 -9.057830 3.336522 0
M  V30 36 H 3.891018 -9.527281 2.794421 0
M  V30 37 H 5.629457 -10.885871 1.625603 0
M  V30 38 H 6.395692 -9.422211 1.014929 0
M  V30 39 H 4.783044 -9.872767 0.459474 0
M  V30 40 H 4.704836 -5.950099 0.338317 0
M  V30 41 H 4.353952 -3.787523 -0.630575 0
M  V30 42 H -1.351524 5.978141 -1.494647 0
M  V30 43 H -1.603374 4.709926 -2.695324 0
M  V30 44 H -0.013164 5.461615 -2.520610 0
M  V30 45 H -1.216918 5.117690 0.760701 0
M  V30 END ATOM
M  V30 BEGIN BOND
M  V30 1 1 2 1
M  V30 2 2 3 2
M  V30 3 1 4 3
M  V30 4 3 5 4
M  V30 5 1 6 3
M  V30 6 1 7 6
M  V30 7 1 8 7
M  V30 8 1 9 8
M  V30 9 1 10 9
M  V30 10 1 11 10
M  V30 11 2 12 11
M  V30 12 1 13 12
M  V30 13 2 14 13
M  V30 14 1 15 14
M  V30 15 1 16 15
M  V30 16 1 17 16
M  V30 17 1 18 17
M  V30 18 2 19 15
M  V30 19 1 20 14
M  V30 20 2 21 20
M  V30 21 1 21 11
M  V30 22 2 22 9
M  V30 23 2 23 6
M  V30 24 1 24 23
M  V30 25 1 25 24
M  V30 26 2 26 24
M  V30 27 1 26 2
M  V30 28 1 27 1
M  V30 29 1 28 1
M  V30 30 1 29 1
M  V30 31 1 30 8
M  V30 32 1 31 8
M  V30 33 1 32 10
M  V30 34 1 33 12
M  V30 35 1 34 13
M  V30 36 1 35 17
M  V30 37 1 36 17
M  V30 38 1 37 18
M  V30 39 1 38 18
M  V30 40 1 39 18
M  V30 41 1 40 20
M  V30 42 1 41 21
M  V30 43 1 42 25
M  V30 44 1 43 25
M  V30 45 1 44 25
M  V30 46 1 45 26
M  V30 END BOND
M  V30 END CTAB
M  END
>  <i_epik_Tot_Q>  (28) 
0

>  <i_epik_Tot_abs_Q>  (28) 
0

>  <i_f3d_flags>  (28) 
0

>  <i_lp_mmshare_version>  (28) 
71160

>  <i_lp_orig_ion_str>  (28) 
1

>  <i_m_source_file_index>  (28) 
53

>  <b_lp_Chiralities_Consistent>  (28) 
1

>  <r_epik_Charging_Adjusted_Penalty>  (28) 
0

>  <r_epik_Ionization_Penalty>  (28) 
1.0564402985081029e-06

>  <r_epik_Ionization_Penalty_Charging>  (28) 
0

>  <r_epik_Ionization_Penalty_Neutral>  (28) 
1.0564402985081029e-06

>  <r_epik_State_Penalty>  (28) 
-0

>  <r_lp_Energy>  (28) 
26.886997999999998

>  <r_lp_tautomer_probability>  (28) 
1

>  <s_epik_Chemistry_Notes>  (28) 
This compound has an ester and may undergo hydrolysis at high or low pH.

>  <s_epik_cmdline>  (28) 
J2VwaWtfcHl0aG9uJywgJy1waHQnLCAnMC4yJywgJy1waCcsICc3LjQnLCAnLXJldGFpbl9pX2xhYicsICctcmV0YWluX3RfbGFiJywgJy10bicsICcxJywgJy1tYScsICc1MDAnLCAnLWltYWUnLCAnPGluZmlsZS5tYWU+JywgJy1vbWFlJywgJzxvdXRmaWxlLm1hZT4n

>  <s_epik_input>  (28) 
W0NIM11jMWMoQyNOKWMobmMoW0NIM10pW2NIXTEpU1tDSDJdQyg9TylbTkhdYzJbY0hdW2NIXWMoW2NIXVtjSF0yKUMoPU8pT1tDSDJdW0NIM10=

>  <s_lp_Force_Field>  (28) 
S-OPLS

>  <s_lp_Variant>  (28) 
1a_Grossjean_2025-1

>  <s_lp_label>  (28) 
53

>  <s_m_source_file>  (28) 
montpellier_ligands.smi

$$$$
1b_Grossjean_2025
     RDKit          3D

  0  0  0  0  0  0  0  0  0  0999 V3000
M  V30 BEGIN CTAB
M  V30 COUNTS 42 43 0 0 1
M  V30 BEGIN ATOM
M  V30 1 C -0.476770 3.400372 -2.807098 0
M  V30 2 C -0.238644 3.187369 -1.313305 0
M  V30 3 C 0.294612 1.986980 -0.790791 0
M  V30 4 C 0.608557 0.869136 -1.684096 0
M  V30 5 N 0.856157 -0.012336 -2.391837 0
M  V30 6 C 0.478972 1.901519 0.609458 0
M  V30 7 S 1.135698 0.468287 1.433748 0
M  V30 8 C 2.803636 0.177884 0.771329 0
M  V30 9 C 3.111139 -1.312377 0.612792 0
M  V30 10 N 3.002428 -1.794629 -0.643732 0
M  V30 11 C 3.212478 -3.096725 -1.136758 0
M  V30 12 C 2.992749 -3.266679 -2.504212 0
M  V30 13 C 3.172077 -4.512028 -3.099234 0
M  V30 14 C 3.576451 -5.615766 -2.333440 0
M  V30 15 C 3.780322 -6.973667 -2.941600 0
M  V30 16 O 3.564063 -6.999354 -4.281983 0
M  V30 17 C 3.714434 -8.201934 -5.023800 0
M  V30 18 O 4.116577 -7.965712 -2.287703 0
M  V30 19 C 3.794171 -5.440763 -0.960442 0
M  V30 20 C 3.615825 -4.195613 -0.363640 0
M  V30 21 O 3.438380 -1.964468 1.604017 0
M  V30 22 N 0.133711 2.907135 1.452358 0
M  V30 23 C -0.376087 4.047365 0.930196 0
M  V30 24 C -0.724784 5.132743 1.930871 0
M  V30 25 C -0.571467 4.226456 -0.437747 0
M  V30 26 H -0.899822 4.381491 -3.026743 0
M  V30 27 H -1.161407 2.644396 -3.193364 0
M  V30 28 H 0.460427 3.305640 -3.356522 0
M  V30 29 H 3.001628 0.744846 -0.138606 0
M  V30 30 H 3.490498 0.573952 1.520484 0
M  V30 31 H 2.713963 -1.131617 -1.348649 0
M  V30 32 H 2.680297 -2.433327 -3.117848 0
M  V30 33 H 2.990730 -4.598924 -4.160952 0
M  V30 34 H 3.502999 -8.015982 -6.076747 0
M  V30 35 H 3.024799 -8.969464 -4.669237 0
M  V30 36 H 4.732402 -8.586584 -4.944591 0
M  V30 37 H 4.105909 -6.267399 -0.337405 0
M  V30 38 H 3.799584 -4.121805 0.695433 0
M  V30 39 H -1.162128 6.005055 1.443788 0
M  V30 40 H 0.168652 5.457807 2.465317 0
M  V30 41 H -1.443631 4.761032 2.662015 0
M  V30 42 H -0.980968 5.153893 -0.811916 0
M  V30 END ATOM
M  V30 BEGIN BOND
M  V30 1 1 2 1
M  V30 2 2 3 2
M  V30 3 1 4 3
M  V30 4 3 5 4
M  V30 5 1 6 3
M  V30 6 1 7 6
M  V30 7 1 8 7
M  V30 8 1 9 8
M  V30 9 1 10 9
M  V30 10 1 11 10
M  V30 11 2 12 11
M  V30 12 1 13 12
M  V30 13 2 14 13
M  V30 14 1 15 14
M  V30 15 1 16 15
M  V30 16 1 17 16
M  V30 17 2 18 15
M  V30 18 1 19 14
M  V30 19 2 20 19
M  V30 20 1 20 11
M  V30 21 2 21 9
M  V30 22 2 22 6
M  V30 23 1 23 22
M  V30 24 1 24 23
M  V30 25 2 25 23
M  V30 26 1 25 2
M  V30 27 1 26 1
M  V30 28 1 27 1
M  V30 29 1 28 1
M  V30 30 1 29 8
M  V30 31 1 30 8
M  V30 32 1 31 10
M  V30 33 1 32 12
M  V30 34 1 33 13
M  V30 35 1 34 17
M  V30 36 1 35 17
M  V30 37 1 36 17
M  V30 38 1 37 19
M  V30 39 1 38 20
M  V30 40 1 39 24
M  V30 41 1 40 24
M  V30 42 1 41 24
M  V30 43 1 42 25
M  V30 END BOND
M  V30 END CTAB
M  END
>  <i_epik_Tot_Q>  (29) 
0

>  <i_epik_Tot_abs_Q>  (29) 
0

>  <i_f3d_flags>  (29) 
0

>  <i_lp_mmshare_version>  (29) 
71160

>  <i_lp_orig_ion_str>  (29) 
1

>  <i_m_source_file_index>  (29) 
54

>  <b_lp_Chiralities_Consistent>  (29) 
1

>  <r_epik_Charging_Adjusted_Penalty>  (29) 
0

>  <r_epik_Ionization_Penalty>  (29) 
1.2542973369361184e-06

>  <r_epik_Ionization_Penalty_Charging>  (29) 
0

>  <r_epik_Ionization_Penalty_Neutral>  (29) 
1.2542973369361184e-06

>  <r_epik_State_Penalty>  (29) 
-0

>  <r_lp_Energy>  (29) 
26.904816999999998

>  <r_lp_tautomer_probability>  (29) 
1

>  <s_epik_Chemistry_Notes>  (29) 
This compound has an ester and may undergo hydrolysis at high or low pH.

>  <s_epik_cmdline>  (29) 
J2VwaWtfcHl0aG9uJywgJy1waHQnLCAnMC4yJywgJy1waCcsICc3LjQnLCAnLXJldGFpbl9pX2xhYicsICctcmV0YWluX3RfbGFiJywgJy10bicsICcxJywgJy1tYScsICc1MDAnLCAnLWltYWUnLCAnPGluZmlsZS5tYWU+JywgJy1vbWFlJywgJzxvdXRmaWxlLm1hZT4n

>  <s_epik_input>  (29) 
W0NIM11jMWMoQyNOKWMobmMoW0NIM10pW2NIXTEpU1tDSDJdQyg9TylbTkhdYzJbY0hdW2NIXWMoW2NIXVtjSF0yKUMoPU8pT1tDSDNd

>  <s_lp_Force_Field>  (29) 
S-OPLS

>  <s_lp_Variant>  (29) 
1b_Grossjean_2025-1

>  <s_lp_label>  (29) 
54

>  <s_m_source_file>  (29) 
montpellier_ligands.smi

$$$$
1c_Grossjean_2025
     RDKit          3D

  0  0  0  0  0  0  0  0  0  0999 V3000
M  V30 BEGIN CTAB
M  V30 COUNTS 40 41 0 0 1
M  V30 BEGIN ATOM
M  V30 1 C 1.232464 5.077956 -1.484968 0
M  V30 2 C 0.565406 3.984580 -0.652109 0
M  V30 3 C 0.423714 2.655274 -1.112451 0
M  V30 4 C 0.882724 2.290564 -2.454567 0
M  V30 5 N 1.246311 2.003914 -3.515064 0
M  V30 6 C -0.202070 1.721610 -0.251767 0
M  V30 7 S -0.470335 0.008943 -0.660021 0
M  V30 8 C 1.097143 -0.690459 -1.258884 0
M  V30 9 C 1.327046 -2.107673 -0.732412 0
M  V30 10 N 2.175006 -2.206428 0.314317 0
M  V30 11 C 2.604426 -3.350811 1.013130 0
M  V30 12 C 2.445753 -4.668954 0.558828 0
M  V30 13 C 2.917590 -5.730289 1.326226 0
M  V30 14 C 3.555800 -5.500925 2.544878 0
M  V30 15 O 3.988380 -6.617652 3.233993 0
M  V30 16 C 4.645765 -6.449982 4.485410 0
M  V30 17 C 3.722600 -4.181355 2.991274 0
M  V30 18 C 3.252200 -3.117019 2.227327 0
M  V30 19 O 0.742100 -3.049343 -1.268076 0
M  V30 20 N -0.696292 2.070916 0.962687 0
M  V30 21 C -0.552485 3.349783 1.382039 0
M  V30 22 C -1.119909 3.662257 2.753695 0
M  V30 23 C 0.073696 4.327331 0.611753 0
M  V30 24 H 1.273700 6.034365 -0.962014 0
M  V30 25 H 0.691188 5.225502 -2.420116 0
M  V30 26 H 2.253306 4.790288 -1.738647 0
M  V30 27 H 1.014616 -0.751705 -2.344661 0
M  V30 28 H 1.943978 -0.036265 -1.046020 0
M  V30 29 H 2.522439 -1.336177 0.689483 0
M  V30 30 H 1.975135 -4.900586 -0.382903 0
M  V30 31 H 2.788926 -6.741502 0.968925 0
M  V30 32 H 4.912435 -7.428135 4.885456 0
M  V30 33 H 3.998834 -5.960619 5.215060 0
M  V30 34 H 5.566661 -5.874328 4.380015 0
M  V30 35 H 4.213912 -3.962329 3.926895 0
M  V30 36 H 3.392251 -2.108639 2.590483 0
M  V30 37 H -0.941759 4.700428 3.036797 0
M  V30 38 H -0.662269 3.024344 3.510648 0
M  V30 39 H -2.196692 3.489812 2.767605 0
M  V30 40 H 0.166950 5.337153 0.984984 0
M  V30 END ATOM
M  V30 BEGIN BOND
M  V30 1 1 2 1
M  V30 2 2 3 2
M  V30 3 1 4 3
M  V30 4 3 5 4
M  V30 5 1 6 3
M  V30 6 1 7 6
M  V30 7 1 8 7
M  V30 8 1 9 8
M  V30 9 1 10 9
M  V30 10 1 11 10
M  V30 11 2 12 11
M  V30 12 1 13 12
M  V30 13 2 14 13
M  V30 14 1 15 14
M  V30 15 1 16 15
M  V30 16 1 17 14
M  V30 17 2 18 17
M  V30 18 1 18 11
M  V30 19 2 19 9
M  V30 20 2 20 6
M  V30 21 1 21 20
M  V30 22 1 22 21
M  V30 23 2 23 21
M  V30 24 1 23 2
M  V30 25 1 24 1
M  V30 26 1 25 1
M  V30 27 1 26 1
M  V30 28 1 27 8
M  V30 29 1 28 8
M  V30 30 1 29 10
M  V30 31 1 30 12
M  V30 32 1 31 13
M  V30 33 1 32 16
M  V30 34 1 33 16
M  V30 35 1 34 16
M  V30 36 1 35 17
M  V30 37 1 36 18
M  V30 38 1 37 22
M  V30 39 1 38 22
M  V30 40 1 39 22
M  V30 41 1 40 23
M  V30 END BOND
M  V30 END CTAB
M  END
>  <i_epik_Tot_Q>  (30) 
0

>  <i_epik_Tot_abs_Q>  (30) 
0

>  <i_f3d_flags>  (30) 
0

>  <i_lp_mmshare_version>  (30) 
71160

>  <i_lp_orig_ion_str>  (30) 
1

>  <i_m_source_file_index>  (30) 
55

>  <b_lp_Chiralities_Consistent>  (30) 
1

>  <r_epik_Charging_Adjusted_Penalty>  (30) 
0

>  <r_epik_Ionization_Penalty>  (30) 
1.1361815015393945e-06

>  <r_epik_Ionization_Penalty_Charging>  (30) 
0

>  <r_epik_Ionization_Penalty_Neutral>  (30) 
1.1361815015393945e-06

>  <r_epik_State_Penalty>  (30) 
-0

>  <r_lp_Energy>  (30) 
32.341294999999995

>  <r_lp_tautomer_probability>  (30) 
1

>  <s_epik_cmdline>  (30) 
J2VwaWtfcHl0aG9uJywgJy1waHQnLCAnMC4yJywgJy1waCcsICc3LjQnLCAnLXJldGFpbl9pX2xhYicsICctcmV0YWluX3RfbGFiJywgJy10bicsICcxJywgJy1tYScsICc1MDAnLCAnLWltYWUnLCAnPGluZmlsZS5tYWU+JywgJy1vbWFlJywgJzxvdXRmaWxlLm1hZT4n

>  <s_epik_input>  (30) 
W0NIM11jMWMoQyNOKWMobmMoW0NIM10pW2NIXTEpU1tDSDJdQyg9TylbTkhdYzJbY0hdW2NIXWMoT1tDSDNdKVtjSF1bY0hdMg==

>  <s_lp_Force_Field>  (30) 
S-OPLS

>  <s_lp_Variant>  (30) 
1c_Grossjean_2025-1

>  <s_lp_label>  (30) 
55

>  <s_m_source_file>  (30) 
montpellier_ligands.smi

$$$$
1d_Grossjean_2025
     RDKit          3D

  0  0  0  0  0  0  0  0  0  0999 V3000
M  V30 BEGIN CTAB
M  V30 COUNTS 36 37 0 0 1
M  V30 BEGIN ATOM
M  V30 1 C -2.069754 -2.679060 0.018373 0
M  V30 2 C -1.657687 -1.208918 0.069693 0
M  V30 3 C -0.352276 -0.795700 0.421176 0
M  V30 4 C 0.682168 -1.791105 0.712894 0
M  V30 5 N 1.497292 -2.579606 0.942896 0
M  V30 6 C -0.084073 0.593403 0.445661 0
M  V30 7 S 1.499439 1.287583 0.865476 0
M  V30 8 C 1.900274 0.746368 2.554161 0
M  V30 9 C 3.386432 0.422755 2.718457 0
M  V30 10 N 3.700162 -0.889757 2.677990 0
M  V30 11 C 4.954463 -1.520719 2.776687 0
M  V30 12 C 4.923884 -2.913077 2.898241 0
M  V30 13 C 6.109460 -3.636071 2.996965 0
M  V30 14 C 7.330009 -2.966861 2.968456 0
M  V30 15 C 7.375249 -1.581193 2.839226 0
M  V30 16 C 6.191224 -0.854728 2.740650 0
M  V30 17 O 4.185037 1.343024 2.894323 0
M  V30 18 N -1.016670 1.521116 0.112958 0
M  V30 19 C -2.259568 1.102840 -0.223070 0
M  V30 20 C -3.252366 2.196135 -0.570073 0
M  V30 21 C -2.618134 -0.243441 -0.250333 0
M  V30 22 H -3.125457 -2.808290 -0.223982 0
M  V30 23 H -1.888581 -3.156809 0.981868 0
M  V30 24 H -1.480321 -3.212353 -0.728258 0
M  V30 25 H 1.679304 1.599616 3.196673 0
M  V30 26 H 1.255760 -0.060558 2.904161 0
M  V30 27 H 2.925052 -1.528769 2.574545 0
M  V30 28 H 3.981769 -3.442989 2.919737 0
M  V30 29 H 6.082394 -4.711468 3.094293 0
M  V30 30 H 8.249898 -3.528042 3.043881 0
M  V30 31 H 8.326586 -1.070559 2.812060 0
M  V30 32 H 6.268068 0.214441 2.627008 0
M  V30 33 H -4.212885 1.784170 -0.881872 0
M  V30 34 H -2.871718 2.813009 -1.385103 0
M  V30 35 H -3.425623 2.839624 0.293211 0
M  V30 36 H -3.622844 -0.533046 -0.523500 0
M  V30 END ATOM
M  V30 BEGIN BOND
M  V30 1 1 2 1
M  V30 2 2 3 2
M  V30 3 1 4 3
M  V30 4 3 5 4
M  V30 5 1 6 3
M  V30 6 1 7 6
M  V30 7 1 8 7
M  V30 8 1 9 8
M  V30 9 1 10 9
M  V30 10 1 11 10
M  V30 11 2 12 11
M  V30 12 1 13 12
M  V30 13 2 14 13
M  V30 14 1 15 14
M  V30 15 2 16 15
M  V30 16 1 16 11
M  V30 17 2 17 9
M  V30 18 2 18 6
M  V30 19 1 19 18
M  V30 20 1 20 19
M  V30 21 2 21 19
M  V30 22 1 21 2
M  V30 23 1 22 1
M  V30 24 1 23 1
M  V30 25 1 24 1
M  V30 26 1 25 8
M  V30 27 1 26 8
M  V30 28 1 27 10
M  V30 29 1 28 12
M  V30 30 1 29 13
M  V30 31 1 30 14
M  V30 32 1 31 15
M  V30 33 1 32 16
M  V30 34 1 33 20
M  V30 35 1 34 20
M  V30 36 1 35 20
M  V30 37 1 36 21
M  V30 END BOND
M  V30 END CTAB
M  END
>  <i_epik_Tot_Q>  (31) 
0

>  <i_epik_Tot_abs_Q>  (31) 
0

>  <i_f3d_flags>  (31) 
0

>  <i_lp_mmshare_version>  (31) 
71160

>  <i_lp_orig_ion_str>  (31) 
1

>  <i_m_source_file_index>  (31) 
56

>  <b_lp_Chiralities_Consistent>  (31) 
1

>  <r_epik_Charging_Adjusted_Penalty>  (31) 
0

>  <r_epik_Ionization_Penalty>  (31) 
8.4726838783908568e-07

>  <r_epik_Ionization_Penalty_Charging>  (31) 
0

>  <r_epik_Ionization_Penalty_Neutral>  (31) 
8.4726838783908568e-07

>  <r_epik_State_Penalty>  (31) 
-0

>  <r_lp_Energy>  (31) 
28.378038

>  <r_lp_tautomer_probability>  (31) 
1

>  <s_epik_cmdline>  (31) 
J2VwaWtfcHl0aG9uJywgJy1waHQnLCAnMC4yJywgJy1waCcsICc3LjQnLCAnLXJldGFpbl9pX2xhYicsICctcmV0YWluX3RfbGFiJywgJy10bicsICcxJywgJy1tYScsICc1MDAnLCAnLWltYWUnLCAnPGluZmlsZS5tYWU+JywgJy1vbWFlJywgJzxvdXRmaWxlLm1hZT4n

>  <s_epik_input>  (31) 
W0NIM11jMWMoQyNOKWMobmMoW0NIM10pW2NIXTEpU1tDSDJdQyg9TylbTkhdYzJbY0hdW2NIXVtjSF1bY0hdW2NIXTI=

>  <s_lp_Force_Field>  (31) 
S-OPLS

>  <s_lp_Variant>  (31) 
1d_Grossjean_2025-1

>  <s_lp_label>  (31) 
56

>  <s_m_source_file>  (31) 
montpellier_ligands.smi

$$$$
1e_Grossjean_2025
     RDKit          3D

  0  0  0  0  0  0  0  0  0  0999 V3000
M  V30 BEGIN CTAB
M  V30 COUNTS 38 39 0 0 1
M  V30 BEGIN ATOM
M  V30 1 C -3.402791 -1.582428 -1.071920 0
M  V30 2 C -2.283472 -0.733348 -0.471778 0
M  V30 3 C -0.932270 -1.149487 -0.463131 0
M  V30 4 C -0.566944 -2.462347 -0.999845 0
M  V30 5 N -0.280542 -3.500081 -1.424702 0
M  V30 6 C 0.023963 -0.276951 0.110576 0
M  V30 7 S 1.766711 -0.630858 0.217618 0
M  V30 8 C 2.349395 -1.188090 -1.412119 0
M  V30 9 C 3.755916 -0.674467 -1.723578 0
M  V30 10 N 3.829630 0.317770 -2.638367 0
M  V30 11 C 4.974426 0.972033 -3.129079 0
M  V30 12 N 6.198732 0.821936 -2.543880 0
M  V30 13 C 7.256400 1.494817 -3.065454 0
M  V30 14 C 8.585057 1.279019 -2.366393 0
M  V30 15 C 7.141385 2.338506 -4.172937 0
M  V30 16 C 5.886055 2.491500 -4.762694 0
M  V30 17 C 4.788426 1.805865 -4.237667 0
M  V30 18 O 4.723234 -1.189863 -1.160539 0
M  V30 19 N -0.321866 0.905541 0.679578 0
M  V30 20 C -1.621756 1.282525 0.662877 0
M  V30 21 C -1.930506 2.619259 1.310191 0
M  V30 22 C -2.624039 0.499041 0.095264 0
M  V30 23 H -4.375146 -1.091661 -1.014515 0
M  V30 24 H -3.473856 -2.538856 -0.552641 0
M  V30 25 H -3.195758 -1.793519 -2.121615 0
M  V30 26 H 2.403440 -2.276529 -1.371745 0
M  V30 27 H 1.638365 -0.938658 -2.201251 0
M  V30 28 H 2.963195 0.601468 -3.071035 0
M  V30 29 H 9.401849 1.773280 -2.893612 0
M  V30 30 H 8.819204 0.215251 -2.307923 0
M  V30 31 H 8.547913 1.676827 -1.351721 0
M  V30 32 H 7.999109 2.863582 -4.567447 0
M  V30 33 H 5.763770 3.137701 -5.619342 0
M  V30 34 H 3.814392 1.924552 -4.690650 0
M  V30 35 H -2.961424 2.925723 1.128497 0
M  V30 36 H -1.276610 3.398394 0.916259 0
M  V30 37 H -1.780274 2.560396 2.388639 0
M  V30 38 H -3.650286 0.837709 0.104903 0
M  V30 END ATOM
M  V30 BEGIN BOND
M  V30 1 1 2 1
M  V30 2 2 3 2
M  V30 3 1 4 3
M  V30 4 3 5 4
M  V30 5 1 6 3
M  V30 6 1 7 6
M  V30 7 1 8 7
M  V30 8 1 9 8
M  V30 9 1 10 9
M  V30 10 1 11 10
M  V30 11 2 12 11
M  V30 12 1 13 12
M  V30 13 1 14 13
M  V30 14 2 15 13
M  V30 15 1 16 15
M  V30 16 2 17 16
M  V30 17 1 17 11
M  V30 18 2 18 9
M  V30 19 2 19 6
M  V30 20 1 20 19
M  V30 21 1 21 20
M  V30 22 2 22 20
M  V30 23 1 22 2
M  V30 24 1 23 1
M  V30 25 1 24 1
M  V30 26 1 25 1
M  V30 27 1 26 8
M  V30 28 1 27 8
M  V30 29 1 28 10
M  V30 30 1 29 14
M  V30 31 1 30 14
M  V30 32 1 31 14
M  V30 33 1 32 15
M  V30 34 1 33 16
M  V30 35 1 34 17
M  V30 36 1 35 21
M  V30 37 1 36 21
M  V30 38 1 37 21
M  V30 39 1 38 22
M  V30 END BOND
M  V30 END CTAB
M  END
>  <i_epik_Tot_Q>  (32) 
0

>  <i_epik_Tot_abs_Q>  (32) 
0

>  <i_f3d_flags>  (32) 
0

>  <i_lp_mmshare_version>  (32) 
71160

>  <i_lp_orig_ion_str>  (32) 
1

>  <i_m_source_file_index>  (32) 
57

>  <b_lp_Chiralities_Consistent>  (32) 
1

>  <r_epik_Charging_Adjusted_Penalty>  (32) 
0

>  <r_epik_Ionization_Penalty>  (32) 
0.0019071234481711588

>  <r_epik_Ionization_Penalty_Charging>  (32) 
0

>  <r_epik_Ionization_Penalty_Neutral>  (32) 
0.0019071234481711588

>  <r_epik_State_Penalty>  (32) 
-0

>  <r_lp_Energy>  (32) 
30.088742

>  <r_lp_tautomer_probability>  (32) 
1

>  <s_epik_cmdline>  (32) 
J2VwaWtfcHl0aG9uJywgJy1waHQnLCAnMC4yJywgJy1waCcsICc3LjQnLCAnLXJldGFpbl9pX2xhYicsICctcmV0YWluX3RfbGFiJywgJy10bicsICcxJywgJy1tYScsICc1MDAnLCAnLWltYWUnLCAnPGluZmlsZS5tYWU+JywgJy1vbWFlJywgJzxvdXRmaWxlLm1hZT4n

>  <s_epik_input>  (32) 
W0NIM11jMWMoQyNOKWMobmMoW0NIM10pW2NIXTEpU1tDSDJdQyg9TylbTkhdYzJuYyhbQ0gzXSlbY0hdW2NIXVtjSF0y

>  <s_lp_Force_Field>  (32) 
S-OPLS

>  <s_lp_Variant>  (32) 
1e_Grossjean_2025-1

>  <s_lp_label>  (32) 
57

>  <s_m_source_file>  (32) 
montpellier_ligands.smi

$$$$
1f_Grossjean_2025
     RDKit          3D

  0  0  0  0  0  0  0  0  0  0999 V3000
M  V30 BEGIN CTAB
M  V30 COUNTS 35 36 0 0 1
M  V30 BEGIN ATOM
M  V30 1 C -3.282459 -2.177197 -0.438430 0
M  V30 2 C -2.352090 -0.991470 -0.188588 0
M  V30 3 C -0.945078 -1.093429 -0.283489 0
M  V30 4 C -0.321445 -2.383969 -0.585265 0
M  V30 5 N 0.169888 -3.404244 -0.824037 0
M  V30 6 C -0.180572 0.073418 -0.041789 0
M  V30 7 S 1.598072 0.136695 -0.114389 0
M  V30 8 C 2.139170 -0.624651 -1.681883 0
M  V30 9 C 3.299668 0.095233 -2.383826 0
M  V30 10 N 3.894224 -0.620251 -3.363086 0
M  V30 11 C 4.977261 -0.277665 -4.194981 0
M  V30 12 C 5.301156 -1.182978 -5.212067 0
M  V30 13 N 6.319599 -0.990222 -6.088776 0
M  V30 14 C 7.057762 0.140760 -5.961602 0
M  V30 15 C 6.813742 1.097758 -4.976637 0
M  V30 16 C 5.762486 0.884935 -4.082499 0
M  V30 17 O 3.610685 1.241979 -2.059596 0
M  V30 18 N -0.748917 1.253273 0.313446 0
M  V30 19 C -2.097540 1.327430 0.400814 0
M  V30 20 C -2.659847 2.681746 0.788658 0
M  V30 21 C -2.927986 0.236658 0.152845 0
M  V30 22 H -4.335760 -1.905444 -0.357233 0
M  V30 23 H -3.080465 -2.975200 0.276984 0
M  V30 24 H -3.118520 -2.582883 -1.437495 0
M  V30 25 H 2.472588 -1.632511 -1.431117 0
M  V30 26 H 1.299161 -0.721456 -2.370380 0
M  V30 27 H 3.503490 -1.532795 -3.546317 0
M  V30 28 H 4.736686 -2.094780 -5.346695 0
M  V30 29 H 7.862599 0.272474 -6.669869 0
M  V30 30 H 7.426518 1.984305 -4.905027 0
M  V30 31 H 5.591296 1.628578 -3.321209 0
M  V30 32 H -3.749357 2.666857 0.838953 0
M  V30 33 H -2.367138 3.438383 0.059626 0
M  V30 34 H -2.282349 2.985045 1.766048 0
M  V30 35 H -4.000603 0.340639 0.233504 0
M  V30 END ATOM
M  V30 BEGIN BOND
M  V30 1 1 2 1
M  V30 2 2 3 2
M  V30 3 1 4 3
M  V30 4 3 5 4
M  V30 5 1 6 3
M  V30 6 1 7 6
M  V30 7 1 8 7
M  V30 8 1 9 8
M  V30 9 1 10 9
M  V30 10 1 11 10
M  V30 11 2 12 11
M  V30 12 1 13 12
M  V30 13 2 14 13
M  V30 14 1 15 14
M  V30 15 2 16 15
M  V30 16 1 16 11
M  V30 17 2 17 9
M  V30 18 2 18 6
M  V30 19 1 19 18
M  V30 20 1 20 19
M  V30 21 2 21 19
M  V30 22 1 21 2
M  V30 23 1 22 1
M  V30 24 1 23 1
M  V30 25 1 24 1
M  V30 26 1 25 8
M  V30 27 1 26 8
M  V30 28 1 27 10
M  V30 29 1 28 12
M  V30 30 1 29 14
M  V30 31 1 30 15
M  V30 32 1 31 16
M  V30 33 1 32 20
M  V30 34 1 33 20
M  V30 35 1 34 20
M  V30 36 1 35 21
M  V30 END BOND
M  V30 END CTAB
M  END
>  <i_epik_Tot_Q>  (33) 
0

>  <i_epik_Tot_abs_Q>  (33) 
0

>  <i_f3d_flags>  (33) 
0

>  <i_lp_mmshare_version>  (33) 
71160

>  <i_lp_orig_ion_str>  (33) 
1

>  <i_m_source_file_index>  (33) 
58

>  <b_lp_Chiralities_Consistent>  (33) 
1

>  <r_epik_Charging_Adjusted_Penalty>  (33) 
0

>  <r_epik_Ionization_Penalty>  (33) 
0.00066035870851335757

>  <r_epik_Ionization_Penalty_Charging>  (33) 
0

>  <r_epik_Ionization_Penalty_Neutral>  (33) 
0.00066035870851335757

>  <r_epik_State_Penalty>  (33) 
-0

>  <r_lp_Energy>  (33) 
30.081871999999997

>  <r_lp_tautomer_probability>  (33) 
1

>  <s_epik_cmdline>  (33) 
J2VwaWtfcHl0aG9uJywgJy1waHQnLCAnMC4yJywgJy1waCcsICc3LjQnLCAnLXJldGFpbl9pX2xhYicsICctcmV0YWluX3RfbGFiJywgJy10bicsICcxJywgJy1tYScsICc1MDAnLCAnLWltYWUnLCAnPGluZmlsZS5tYWU+JywgJy1vbWFlJywgJzxvdXRmaWxlLm1hZT4n

>  <s_epik_input>  (33) 
W0NIM11jMWMoQyNOKWMobmMoW0NIM10pW2NIXTEpU1tDSDJdQyg9TylbTkhdYzJbY0hdbltjSF1bY0hdW2NIXTI=

>  <s_lp_Force_Field>  (33) 
S-OPLS

>  <s_lp_Variant>  (33) 
1f_Grossjean_2025-1

>  <s_lp_label>  (33) 
58

>  <s_m_source_file>  (33) 
montpellier_ligands.smi

$$$$
1g_Grossjean_2025
     RDKit          3D

  0  0  0  0  0  0  0  0  0  0999 V3000
M  V30 BEGIN CTAB
M  V30 COUNTS 39 40 0 0 1
M  V30 BEGIN ATOM
M  V30 1 C -1.975230 -2.602538 0.444522 0
M  V30 2 C -1.619297 -1.138274 0.193578 0
M  V30 3 C -0.312793 -0.719807 -0.147175 0
M  V30 4 C 0.776746 -1.695962 -0.227975 0
M  V30 5 N 1.635505 -2.469258 -0.290487 0
M  V30 6 C -0.099237 0.661208 -0.368180 0
M  V30 7 S 1.475876 1.357919 -0.812918 0
M  V30 8 C 1.977217 0.599244 -2.387316 0
M  V30 9 C 3.473561 0.288145 -2.422060 0
M  V30 10 N 3.820584 -0.993154 -2.209139 0
M  V30 11 C 5.190784 -1.501016 -2.140995 0
M  V30 12 C 5.993557 -0.983534 -0.951286 0
M  V30 13 C 5.571314 -1.266222 0.351587 0
M  V30 14 C 6.304227 -0.795129 1.437579 0
M  V30 15 C 7.459703 -0.048133 1.218228 0
M  V30 16 C 7.889208 0.232335 -0.077135 0
M  V30 17 C 7.156025 -0.237029 -1.163793 0
M  V30 18 O 4.285761 1.187829 -2.641654 0
M  V30 19 N -1.084949 1.582783 -0.226347 0
M  V30 20 C -2.327675 1.160163 0.104260 0
M  V30 21 C -3.379968 2.244610 0.236665 0
M  V30 22 C -2.633962 -0.182768 0.315218 0
M  V30 23 H -3.028990 -2.739317 0.690286 0
M  V30 24 H -1.381923 -3.001444 1.267985 0
M  V30 25 H -1.754971 -3.201763 -0.439582 0
M  V30 26 H 1.366480 -0.264291 -2.652290 0
M  V30 27 H 1.782616 1.349871 -3.154055 0
M  V30 28 H 3.089853 -1.662819 -2.015784 0
M  V30 29 H 5.123851 -2.585748 -2.050689 0
M  V30 30 H 5.707872 -1.308398 -3.083120 0
M  V30 31 H 4.674088 -1.843771 0.522070 0
M  V30 32 H 5.978290 -1.007652 2.445143 0
M  V30 33 H 8.027973 0.317647 2.060675 0
M  V30 34 H 8.786142 0.812339 -0.237854 0
M  V30 35 H 7.489543 -0.015227 -2.167013 0
M  V30 36 H -4.375488 1.824054 0.383716 0
M  V30 37 H -3.408232 2.864260 -0.660601 0
M  V30 38 H -3.155294 2.887375 1.088470 0
M  V30 39 H -3.640432 -0.476213 0.577445 0
M  V30 END ATOM
M  V30 BEGIN BOND
M  V30 1 1 2 1
M  V30 2 2 3 2
M  V30 3 1 4 3
M  V30 4 3 5 4
M  V30 5 1 6 3
M  V30 6 1 7 6
M  V30 7 1 8 7
M  V30 8 1 9 8
M  V30 9 1 10 9
M  V30 10 1 11 10
M  V30 11 1 12 11
M  V30 12 2 13 12
M  V30 13 1 14 13
M  V30 14 2 15 14
M  V30 15 1 16 15
M  V30 16 2 17 16
M  V30 17 1 17 12
M  V30 18 2 18 9
M  V30 19 2 19 6
M  V30 20 1 20 19
M  V30 21 1 21 20
M  V30 22 2 22 20
M  V30 23 1 22 2
M  V30 24 1 23 1
M  V30 25 1 24 1
M  V30 26 1 25 1
M  V30 27 1 26 8
M  V30 28 1 27 8
M  V30 29 1 28 10
M  V30 30 1 29 11
M  V30 31 1 30 11
M  V30 32 1 31 13
M  V30 33 1 32 14
M  V30 34 1 33 15
M  V30 35 1 34 16
M  V30 36 1 35 17
M  V30 37 1 36 21
M  V30 38 1 37 21
M  V30 39 1 38 21
M  V30 40 1 39 22
M  V30 END BOND
M  V30 END CTAB
M  END
>  <i_epik_Tot_Q>  (1) 
0

>  <i_epik_Tot_abs_Q>  (1) 
0

>  <i_f3d_flags>  (1) 
0

>  <i_lp_mmshare_version>  (1) 
71160

>  <i_lp_orig_ion_str>  (1) 
1

>  <i_m_source_file_index>  (1) 
59

>  <b_lp_Chiralities_Consistent>  (1) 
1

>  <r_epik_Charging_Adjusted_Penalty>  (1) 
0

>  <r_epik_Ionization_Penalty>  (1) 
1.0538541615239119e-06

>  <r_epik_Ionization_Penalty_Charging>  (1) 
0

>  <r_epik_Ionization_Penalty_Neutral>  (1) 
1.0538541615239119e-06

>  <r_epik_State_Penalty>  (1) 
-0

>  <r_lp_Energy>  (1) 
23.797518999999998

>  <r_lp_tautomer_probability>  (1) 
1

>  <s_epik_cmdline>  (1) 
J2VwaWtfcHl0aG9uJywgJy1waHQnLCAnMC4yJywgJy1waCcsICc3LjQnLCAnLXJldGFpbl9pX2xhYicsICctcmV0YWluX3RfbGFiJywgJy10bicsICcxJywgJy1tYScsICc1MDAnLCAnLWltYWUnLCAnPGluZmlsZS5tYWU+JywgJy1vbWFlJywgJzxvdXRmaWxlLm1hZT4n

>  <s_epik_input>  (1) 
W0NIM11jMWMoQyNOKWMobmMoW0NIM10pW2NIXTEpU1tDSDJdQyg9TylbTkhdW0NIMl1jMltjSF1bY0hdW2NIXVtjSF1bY0hdMg==

>  <s_lp_Force_Field>  (1) 
S-OPLS

>  <s_lp_Variant>  (1) 
1g_Grossjean_2025-1

>  <s_lp_label>  (1) 
59

>  <s_m_source_file>  (1) 
montpellier_ligands.smi

$$$$
1h_Grossjean_2025
     RDKit          3D

  0  0  0  0  0  0  0  0  0  0999 V3000
M  V30 BEGIN CTAB
M  V30 COUNTS 51 52 0 0 1
M  V30 BEGIN ATOM
M  V30 1 C -8.141157 0.168919 -3.041900 0
M  V30 2 C -7.089686 0.015273 -1.944711 0
M  V30 3 C -5.724166 0.315141 -2.152190 0
M  V30 4 C -5.258794 0.790428 -3.458376 0
M  V30 5 N -4.892214 1.165322 -4.490000 0
M  V30 6 C -4.833561 0.140709 -1.067490 0
M  V30 7 S -3.089058 0.492143 -1.207585 0
M  V30 8 C -2.306071 0.108970 0.388084 0
M  V30 9 C -0.820448 0.467513 0.396926 0
M  V30 10 N 0.041882 -0.541323 0.176355 0
M  V30 11 C 1.500406 -0.423042 0.179271 0
M  V30 12 C 2.098443 -0.156313 1.556550 0
M  V30 13 C 2.532878 1.124779 1.899406 0
M  V30 14 C 3.103851 1.378509 3.156419 0
M  V30 15 O 3.543553 2.624287 3.567314 0
M  V30 16 C 3.406953 3.737243 2.690509 0
M  V30 17 C 3.243746 0.317956 4.062647 0
M  V30 18 O 3.812358 0.551277 5.292083 0
M  V30 19 C 2.874931 0.870543 6.311489 0
M  V30 20 C 2.838944 -0.981144 3.723716 0
M  V30 21 O 3.033557 -1.971223 4.670125 0
M  V30 22 C 2.639190 -3.306728 4.375937 0
M  V30 23 C 2.266458 -1.205242 2.461582 0
M  V30 24 O -0.471663 1.630350 0.605129 0
M  V30 25 N -5.249678 -0.302815 0.147578 0
M  V30 26 C -6.561820 -0.584386 0.325114 0
M  V30 27 C -6.950300 -1.070128 1.708650 0
M  V30 28 C -7.506170 -0.439137 -0.689150 0
M  V30 29 H -9.142683 -0.095447 -2.699673 0
M  V30 30 H -7.895114 -0.466674 -3.893425 0
M  V30 31 H -8.168507 1.199123 -3.398639 0
M  V30 32 H -2.807409 0.715770 1.143351 0
M  V30 33 H -2.469507 -0.932822 0.667808 0
M  V30 34 H -0.329472 -1.467976 0.026682 0
M  V30 35 H 1.910525 -1.359732 -0.200791 0
M  V30 36 H 1.814532 0.344216 -0.531779 0
M  V30 37 H 2.409638 1.918865 1.178336 0
M  V30 38 H 3.792511 4.630823 3.181033 0
M  V30 39 H 2.361519 3.923941 2.440023 0
M  V30 40 H 3.976418 3.594177 1.770900 0
M  V30 41 H 3.403745 1.049384 7.247506 0
M  V30 42 H 2.170912 0.053591 6.478739 0
M  V30 43 H 2.311389 1.773506 6.070064 0
M  V30 44 H 2.869705 -3.945060 5.228865 0
M  V30 45 H 3.176964 -3.702313 3.513057 0
M  V30 46 H 1.565788 -3.375329 4.192854 0
M  V30 47 H 1.942211 -2.192498 2.168483 0
M  V30 48 H -8.012218 -1.311998 1.767631 0
M  V30 49 H -6.738398 -0.302341 2.453804 0
M  V30 50 H -6.386494 -1.965992 1.971701 0
M  V30 51 H -8.544394 -0.674873 -0.503903 0
M  V30 END ATOM
M  V30 BEGIN BOND
M  V30 1 1 2 1
M  V30 2 2 3 2
M  V30 3 1 4 3
M  V30 4 3 5 4
M  V30 5 1 6 3
M  V30 6 1 7 6
M  V30 7 1 8 7
M  V30 8 1 9 8
M  V30 9 1 10 9
M  V30 10 1 11 10
M  V30 11 1 12 11
M  V30 12 2 13 12
M  V30 13 1 14 13
M  V30 14 1 15 14
M  V30 15 1 16 15
M  V30 16 2 17 14
M  V30 17 1 18 17
M  V30 18 1 19 18
M  V30 19 1 20 17
M  V30 20 1 21 20
M  V30 21 1 22 21
M  V30 22 2 23 20
M  V30 23 1 23 12
M  V30 24 2 24 9
M  V30 25 2 25 6
M  V30 26 1 26 25
M  V30 27 1 27 26
M  V30 28 2 28 26
M  V30 29 1 28 2
M  V30 30 1 29 1
M  V30 31 1 30 1
M  V30 32 1 31 1
M  V30 33 1 32 8
M  V30 34 1 33 8
M  V30 35 1 34 10
M  V30 36 1 35 11
M  V30 37 1 36 11
M  V30 38 1 37 13
M  V30 39 1 38 16
M  V30 40 1 39 16
M  V30 41 1 40 16
M  V30 42 1 41 19
M  V30 43 1 42 19
M  V30 44 1 43 19
M  V30 45 1 44 22
M  V30 46 1 45 22
M  V30 47 1 46 22
M  V30 48 1 47 23
M  V30 49 1 48 27
M  V30 50 1 49 27
M  V30 51 1 50 27
M  V30 52 1 51 28
M  V30 END BOND
M  V30 END CTAB
M  END
>  <i_epik_Tot_Q>  (2) 
0

>  <i_epik_Tot_abs_Q>  (2) 
0

>  <i_f3d_flags>  (2) 
0

>  <i_lp_mmshare_version>  (2) 
71160

>  <i_lp_orig_ion_str>  (2) 
1

>  <i_m_source_file_index>  (2) 
60

>  <b_lp_Chiralities_Consistent>  (2) 
1

>  <r_epik_Charging_Adjusted_Penalty>  (2) 
0

>  <r_epik_Ionization_Penalty>  (2) 
1.0501692461906863e-06

>  <r_epik_Ionization_Penalty_Charging>  (2) 
0

>  <r_epik_Ionization_Penalty_Neutral>  (2) 
1.0501692461906863e-06

>  <r_epik_State_Penalty>  (2) 
-0

>  <r_lp_Energy>  (2) 
32.208445999999995

>  <r_lp_tautomer_probability>  (2) 
1

>  <s_epik_cmdline>  (2) 
J2VwaWtfcHl0aG9uJywgJy1waHQnLCAnMC4yJywgJy1waCcsICc3LjQnLCAnLXJldGFpbl9pX2xhYicsICctcmV0YWluX3RfbGFiJywgJy10bicsICcxJywgJy1tYScsICc1MDAnLCAnLWltYWUnLCAnPGluZmlsZS5tYWU+JywgJy1vbWFlJywgJzxvdXRmaWxlLm1hZT4n

>  <s_epik_input>  (2) 
W0NIM11jMWMoQyNOKWMobmMoW0NIM10pW2NIXTEpU1tDSDJdQyg9TylbTkhdW0NIMl1jMltjSF1jKE9bQ0gzXSljKE9bQ0gzXSljKFtjSF0yKU9bQ0gzXQ==

>  <s_lp_Force_Field>  (2) 
S-OPLS

>  <s_lp_Variant>  (2) 
1h_Grossjean_2025-1

>  <s_lp_label>  (2) 
60

>  <s_m_source_file>  (2) 
montpellier_ligands.smi

$$$$
1i_Grossjean_2025
     RDKit          3D

  0  0  0  0  0  0  0  0  0  0999 V3000
M  V30 BEGIN CTAB
M  V30 COUNTS 32 33 0 0 1
M  V30 BEGIN ATOM
M  V30 1 C -2.260671 -2.614932 0.086613 0
M  V30 2 C -1.753693 -1.173992 0.106590 0
M  V30 3 C -0.419496 -0.840154 0.433500 0
M  V30 4 C 0.552230 -1.895739 0.729676 0
M  V30 5 N 1.317686 -2.731646 0.963387 0
M  V30 6 C -0.061827 0.528994 0.428439 0
M  V30 7 S 1.569024 1.127499 0.813391 0
M  V30 8 C 1.973434 0.576596 2.498053 0
M  V30 9 C 3.442769 0.173799 2.635002 0
M  V30 10 N 3.694943 -1.150207 2.540746 0
M  V30 11 C 4.929479 -1.779045 2.623813 0
M  V30 12 N 6.084067 -1.191706 2.891810 0
M  V30 13 O 7.057135 -2.192645 2.876002 0
M  V30 14 C 6.447041 -3.369433 2.596996 0
M  V30 15 C 5.099252 -3.149218 2.431629 0
M  V30 16 O 4.293258 1.046025 2.821466 0
M  V30 17 N -0.936846 1.508853 0.088679 0
M  V30 18 C -2.208524 1.166021 -0.223836 0
M  V30 19 C -3.132758 2.314608 -0.581078 0
M  V30 20 C -2.653631 -0.154235 -0.220539 0
M  V30 21 H -3.312229 -2.683214 -0.195596 0
M  V30 22 H -2.144737 -3.070176 1.070787 0
M  V30 23 H -1.683278 -3.211091 -0.620767 0
M  V30 24 H 1.812864 1.446424 3.136257 0
M  V30 25 H 1.294418 -0.190903 2.870070 0
M  V30 26 H 2.910427 -1.758657 2.357401 0
M  V30 27 H 7.076792 -4.245664 2.550260 0
M  V30 28 H 4.338957 -3.880872 2.200171 0
M  V30 29 H -4.126196 1.960742 -0.859524 0
M  V30 30 H -2.730460 2.881199 -1.421719 0
M  V30 31 H -3.241925 2.992248 0.266296 0
M  V30 32 H -3.678465 -0.383016 -0.475793 0
M  V30 END ATOM
M  V30 BEGIN BOND
M  V30 1 1 2 1
M  V30 2 2 3 2
M  V30 3 1 4 3
M  V30 4 3 5 4
M  V30 5 1 6 3
M  V30 6 1 7 6
M  V30 7 1 8 7
M  V30 8 1 9 8
M  V30 9 1 10 9
M  V30 10 1 11 10
M  V30 11 2 12 11
M  V30 12 1 13 12
M  V30 13 1 14 13
M  V30 14 2 15 14
M  V30 15 1 15 11
M  V30 16 2 16 9
M  V30 17 2 17 6
M  V30 18 1 18 17
M  V30 19 1 19 18
M  V30 20 2 20 18
M  V30 21 1 20 2
M  V30 22 1 21 1
M  V30 23 1 22 1
M  V30 24 1 23 1
M  V30 25 1 24 8
M  V30 26 1 25 8
M  V30 27 1 26 10
M  V30 28 1 27 14
M  V30 29 1 28 15
M  V30 30 1 29 19
M  V30 31 1 30 19
M  V30 32 1 31 19
M  V30 33 1 32 20
M  V30 END BOND
M  V30 END CTAB
M  END
>  <i_epik_Tot_Q>  (3) 
0

>  <i_epik_Tot_abs_Q>  (3) 
0

>  <i_f3d_flags>  (3) 
0

>  <i_lp_mmshare_version>  (3) 
71160

>  <i_lp_orig_ion_str>  (3) 
1

>  <i_m_source_file_index>  (3) 
61

>  <b_lp_Chiralities_Consistent>  (3) 
1

>  <r_epik_Charging_Adjusted_Penalty>  (3) 
0

>  <r_epik_Ionization_Penalty>  (3) 
0.0010327754946764247

>  <r_epik_Ionization_Penalty_Charging>  (3) 
0

>  <r_epik_Ionization_Penalty_Neutral>  (3) 
0.0010327754946764247

>  <r_epik_State_Penalty>  (3) 
-0

>  <r_lp_Energy>  (3) 
19.315729999999999

>  <r_lp_tautomer_probability>  (3) 
1

>  <s_epik_cmdline>  (3) 
J2VwaWtfcHl0aG9uJywgJy1waHQnLCAnMC4yJywgJy1waCcsICc3LjQnLCAnLXJldGFpbl9pX2xhYicsICctcmV0YWluX3RfbGFiJywgJy10bicsICcxJywgJy1tYScsICc1MDAnLCAnLWltYWUnLCAnPGluZmlsZS5tYWU+JywgJy1vbWFlJywgJzxvdXRmaWxlLm1hZT4n

>  <s_epik_input>  (3) 
W0NIM11jMWMoQyNOKWMobmMoW0NIM10pW2NIXTEpU1tDSDJdQyg9TylbTkhdYzJub1tjSF1bY0hdMg==

>  <s_lp_Force_Field>  (3) 
S-OPLS

>  <s_lp_Variant>  (3) 
1i_Grossjean_2025-1

>  <s_lp_label>  (3) 
61

>  <s_m_source_file>  (3) 
montpellier_ligands.smi

$$$$
1j_Grossjean_2025
     RDKit          3D

  0  0  0  0  0  0  0  0  0  0999 V3000
M  V30 BEGIN CTAB
M  V30 COUNTS 32 33 0 0 1
M  V30 BEGIN ATOM
M  V30 1 C -2.249728 -2.612948 0.006437 0
M  V30 2 C -1.761146 -1.166483 0.061660 0
M  V30 3 C -0.438541 -0.822498 0.423341 0
M  V30 4 C 0.540226 -1.871383 0.719531 0
M  V30 5 N 1.311443 -2.701819 0.953326 0
M  V30 6 C -0.098041 0.550607 0.451109 0
M  V30 7 S 1.515897 1.162588 0.883625 0
M  V30 8 C 1.898084 0.575769 2.561375 0
M  V30 9 C 3.373573 0.204676 2.717265 0
M  V30 10 N 3.663479 -1.106927 2.575434 0
M  V30 11 C 4.917840 -1.692906 2.663485 0
M  V30 12 N 6.056704 -1.117069 2.983772 0
M  V30 13 C 7.055451 -1.977869 2.968593 0
M  V30 14 C 6.733307 -3.289042 2.630922 0
M  V30 15 S 5.026039 -3.389404 2.318498 0
M  V30 16 O 4.197161 1.089479 2.958225 0
M  V30 17 N -0.977348 1.525761 0.109070 0
M  V30 18 C -2.237328 1.173414 -0.238174 0
M  V30 19 C -3.166961 2.316811 -0.597958 0
M  V30 20 C -2.666347 -0.151945 -0.267386 0
M  V30 21 H -3.300205 -2.687692 -0.278138 0
M  V30 22 H -2.130382 -3.089958 0.979913 0
M  V30 23 H -1.662718 -3.184910 -0.713092 0
M  V30 24 H 1.704043 1.424522 3.218241 0
M  V30 25 H 1.230878 -0.216900 2.900060 0
M  V30 26 H 2.902065 -1.731968 2.353038 0
M  V30 27 H 8.047944 -1.629585 3.213446 0
M  V30 28 H 7.378392 -4.152066 2.554478 0
M  V30 29 H -4.153160 1.956756 -0.893211 0
M  V30 30 H -2.757907 2.894001 -1.428228 0
M  V30 31 H -3.294015 2.986196 0.253509 0
M  V30 32 H -3.682406 -0.388513 -0.549856 0
M  V30 END ATOM
M  V30 BEGIN BOND
M  V30 1 1 2 1
M  V30 2 2 3 2
M  V30 3 1 4 3
M  V30 4 3 5 4
M  V30 5 1 6 3
M  V30 6 1 7 6
M  V30 7 1 8 7
M  V30 8 1 9 8
M  V30 9 1 10 9
M  V30 10 1 11 10
M  V30 11 2 12 11
M  V30 12 1 13 12
M  V30 13 2 14 13
M  V30 14 1 15 14
M  V30 15 1 15 11
M  V30 16 2 16 9
M  V30 17 2 17 6
M  V30 18 1 18 17
M  V30 19 1 19 18
M  V30 20 2 20 18
M  V30 21 1 20 2
M  V30 22 1 21 1
M  V30 23 1 22 1
M  V30 24 1 23 1
M  V30 25 1 24 8
M  V30 26 1 25 8
M  V30 27 1 26 10
M  V30 28 1 27 13
M  V30 29 1 28 14
M  V30 30 1 29 19
M  V30 31 1 30 19
M  V30 32 1 31 19
M  V30 33 1 32 20
M  V30 END BOND
M  V30 END CTAB
M  END
>  <i_epik_Tot_Q>  (4) 
0

>  <i_epik_Tot_abs_Q>  (4) 
0

>  <i_f3d_flags>  (4) 
0

>  <i_lp_mmshare_version>  (4) 
71160

>  <i_lp_orig_ion_str>  (4) 
1

>  <i_m_source_file_index>  (4) 
62

>  <b_lp_Chiralities_Consistent>  (4) 
1

>  <r_epik_Charging_Adjusted_Penalty>  (4) 
0

>  <r_epik_Ionization_Penalty>  (4) 
0.0076632028631813979

>  <r_epik_Ionization_Penalty_Charging>  (4) 
0

>  <r_epik_Ionization_Penalty_Neutral>  (4) 
0.0076632028631813979

>  <r_epik_State_Penalty>  (4) 
-0

>  <r_lp_Energy>  (4) 
23.219981000000001

>  <r_lp_tautomer_probability>  (4) 
1

>  <s_epik_cmdline>  (4) 
J2VwaWtfcHl0aG9uJywgJy1waHQnLCAnMC4yJywgJy1waCcsICc3LjQnLCAnLXJldGFpbl9pX2xhYicsICctcmV0YWluX3RfbGFiJywgJy10bicsICcxJywgJy1tYScsICc1MDAnLCAnLWltYWUnLCAnPGluZmlsZS5tYWU+JywgJy1vbWFlJywgJzxvdXRmaWxlLm1hZT4n

>  <s_epik_input>  (4) 
W0NIM11jMWMoQyNOKWMobmMoW0NIM10pW2NIXTEpU1tDSDJdQyg9TylbTkhdYzJuW2NIXVtjSF1zMg==

>  <s_lp_Force_Field>  (4) 
S-OPLS

>  <s_lp_Variant>  (4) 
1j_Grossjean_2025-1

>  <s_lp_label>  (4) 
62

>  <s_m_source_file>  (4) 
montpellier_ligands.smi

$$$$
1k_Grossjean_2025
     RDKit          3D

  0  0  0  0  0  0  0  0  0  0999 V3000
M  V30 BEGIN CTAB
M  V30 COUNTS 50 50 0 0 1
M  V30 BEGIN ATOM
M  V30 1 C -4.493456 7.294057 -4.639199 0
M  V30 2 C -4.144646 6.329759 -3.507327 0
M  V30 3 C -3.213782 6.651381 -2.493720 0
M  V30 4 C -2.534618 7.950199 -2.495055 0
M  V30 5 N -1.998953 8.976053 -2.497087 0
M  V30 6 C -2.960943 5.685266 -1.492686 0
M  V30 7 S -1.798969 5.977570 -0.166923 0
M  V30 8 C -1.560731 4.430518 0.775236 0
M  V30 9 C -0.868879 3.288834 0.014136 0
M  V30 10 N -0.755375 2.129782 0.685924 0
M  V30 11 C -0.124905 0.913816 0.169851 0
M  V30 12 C 1.411258 0.990279 0.089085 0
M  V30 13 O 1.946340 1.218951 1.386458 0
M  V30 14 C 3.360739 1.359445 1.403768 0
M  V30 15 C 3.835482 1.578826 2.845775 0
M  V30 16 O 3.486931 0.449432 3.635333 0
M  V30 17 C 3.879948 0.559847 4.996838 0
M  V30 18 C 3.496747 -0.723584 5.744875 0
M  V30 19 O 4.168785 -1.831724 5.160538 0
M  V30 20 C 3.868958 -3.069400 5.787028 0
M  V30 21 O -0.448740 3.445393 -1.134219 0
M  V30 22 N -3.585515 4.478762 -1.477840 0
M  V30 23 C -4.471081 4.188944 -2.459263 0
M  V30 24 C -5.120435 2.820763 -2.377596 0
M  V30 25 C -4.776212 5.081920 -3.484152 0
M  V30 26 H -5.233949 6.881284 -5.325541 0
M  V30 27 H -3.600230 7.541297 -5.213990 0
M  V30 28 H -4.890857 8.225383 -4.234264 0
M  V30 29 H -0.987756 4.662528 1.673347 0
M  V30 30 H -2.541261 4.088028 1.108221 0
M  V30 31 H -1.121935 2.077576 1.625207 0
M  V30 32 H -0.403354 0.102210 0.843009 0
M  V30 33 H -0.544375 0.656360 -0.804577 0
M  V30 34 H 1.804046 0.057738 -0.319721 0
M  V30 35 H 1.709775 1.793710 -0.587076 0
M  V30 36 H 3.834935 0.466123 0.992710 0
M  V30 37 H 3.662376 2.207209 0.786213 0
M  V30 38 H 4.916808 1.727089 2.856086 0
M  V30 39 H 3.374515 2.481403 3.251652 0
M  V30 40 H 4.957773 0.717681 5.069320 0
M  V30 41 H 3.389207 1.416948 5.461322 0
M  V30 42 H 3.770454 -0.628657 6.797283 0
M  V30 43 H 2.415639 -0.868188 5.696692 0
M  V30 44 H 4.416111 -3.870595 5.289732 0
M  V30 45 H 2.804743 -3.301698 5.721819 0
M  V30 46 H 4.163546 -3.066185 6.837626 0
M  V30 47 H -5.764382 2.628402 -3.236833 0
M  V30 48 H -5.728369 2.742610 -1.475541 0
M  V30 49 H -4.360453 2.038809 -2.346304 0
M  V30 50 H -5.490564 4.810509 -4.248225 0
M  V30 END ATOM
M  V30 BEGIN BOND
M  V30 1 1 2 1
M  V30 2 2 3 2
M  V30 3 1 4 3
M  V30 4 3 5 4
M  V30 5 1 6 3
M  V30 6 1 7 6
M  V30 7 1 8 7
M  V30 8 1 9 8
M  V30 9 1 10 9
M  V30 10 1 11 10
M  V30 11 1 12 11
M  V30 12 1 13 12
M  V30 13 1 14 13
M  V30 14 1 15 14
M  V30 15 1 16 15
M  V30 16 1 17 16
M  V30 17 1 18 17
M  V30 18 1 19 18
M  V30 19 1 20 19
M  V30 20 2 21 9
M  V30 21 2 22 6
M  V30 22 1 23 22
M  V30 23 1 24 23
M  V30 24 2 25 23
M  V30 25 1 25 2
M  V30 26 1 26 1
M  V30 27 1 27 1
M  V30 28 1 28 1
M  V30 29 1 29 8
M  V30 30 1 30 8
M  V30 31 1 31 10
M  V30 32 1 32 11
M  V30 33 1 33 11
M  V30 34 1 34 12
M  V30 35 1 35 12
M  V30 36 1 36 14
M  V30 37 1 37 14
M  V30 38 1 38 15
M  V30 39 1 39 15
M  V30 40 1 40 17
M  V30 41 1 41 17
M  V30 42 1 42 18
M  V30 43 1 43 18
M  V30 44 1 44 20
M  V30 45 1 45 20
M  V30 46 1 46 20
M  V30 47 1 47 24
M  V30 48 1 48 24
M  V30 49 1 49 24
M  V30 50 1 50 25
M  V30 END BOND
M  V30 END CTAB
M  END
>  <i_epik_Tot_Q>  (5) 
0

>  <i_epik_Tot_abs_Q>  (5) 
0

>  <i_f3d_flags>  (5) 
0

>  <i_lp_mmshare_version>  (5) 
71160

>  <i_lp_orig_ion_str>  (5) 
1

>  <i_m_source_file_index>  (5) 
63

>  <b_lp_Chiralities_Consistent>  (5) 
1

>  <r_epik_Charging_Adjusted_Penalty>  (5) 
0

>  <r_epik_Ionization_Penalty>  (5) 
9.8277719544123588e-07

>  <r_epik_Ionization_Penalty_Charging>  (5) 
0

>  <r_epik_Ionization_Penalty_Neutral>  (5) 
9.8277719544123588e-07

>  <r_epik_State_Penalty>  (5) 
-0

>  <r_lp_Energy>  (5) 
13.804827

>  <r_lp_tautomer_probability>  (5) 
1

>  <s_epik_cmdline>  (5) 
J2VwaWtfcHl0aG9uJywgJy1waHQnLCAnMC4yJywgJy1waCcsICc3LjQnLCAnLXJldGFpbl9pX2xhYicsICctcmV0YWluX3RfbGFiJywgJy10bicsICcxJywgJy1tYScsICc1MDAnLCAnLWltYWUnLCAnPGluZmlsZS5tYWU+JywgJy1vbWFlJywgJzxvdXRmaWxlLm1hZT4n

>  <s_epik_input>  (5) 
W0NIM11jMWMoQyNOKWMobmMoW0NIM10pW2NIXTEpU1tDSDJdQyg9TylbTkhdW0NIMl1bQ0gyXU9bQ0gyXVtDSDJdT1tDSDJdW0NIMl1PW0NIM10=

>  <s_lp_Force_Field>  (5) 
S-OPLS

>  <s_lp_Variant>  (5) 
1k_Grossjean_2025-1

>  <s_lp_label>  (5) 
63

>  <s_m_source_file>  (5) 
montpellier_ligands.smi

$$$$
1l_Grossjean_2025
     RDKit          3D

  0  0  0  0  0  0  0  0  0  0999 V3000
M  V30 BEGIN CTAB
M  V30 COUNTS 30 30 0 0 1
M  V30 BEGIN ATOM
M  V30 1 C -3.019654 -2.509979 0.976752 0
M  V30 2 C -2.243327 -1.359987 0.338257 0
M  V30 3 C -0.924741 -1.509454 -0.147867 0
M  V30 4 C -0.241477 -2.802825 -0.053585 0
M  V30 5 N 0.296787 -3.824457 0.021345 0
M  V30 6 C -0.296440 -0.380092 -0.721856 0
M  V30 7 S 1.365733 -0.447354 -1.369296 0
M  V30 8 C 1.801266 1.212623 -1.990638 0
M  V30 9 C 3.245824 1.362022 -2.488205 0
M  V30 10 N 3.550765 2.567136 -3.006111 0
M  V30 11 O 4.745239 2.718424 -3.710452 0
M  V30 12 C 5.685764 3.431246 -2.919807 0
M  V30 13 O 4.052693 0.432834 -2.395879 0
M  V30 14 N -0.917885 0.824473 -0.816936 0
M  V30 15 C -2.180525 0.946464 -0.344324 0
M  V30 16 C -2.807849 2.320228 -0.485957 0
M  V30 17 C -2.872099 -0.114759 0.235846 0
M  V30 18 H -4.020632 -2.212965 1.292478 0
M  V30 19 H -2.487515 -2.886428 1.850993 0
M  V30 20 H -3.119155 -3.336587 0.272430 0
M  V30 21 H 1.121888 1.448131 -2.810881 0
M  V30 22 H 1.618904 1.942754 -1.201171 0
M  V30 23 H 2.861405 3.254826 -3.273287 0
M  V30 24 H 6.613775 3.544685 -3.479982 0
M  V30 25 H 5.921680 2.900079 -1.995569 0
M  V30 26 H 5.325540 4.431000 -2.669562 0
M  V30 27 H -3.796446 2.361236 -0.027169 0
M  V30 28 H -2.913749 2.581735 -1.539316 0
M  V30 29 H -2.184807 3.076634 -0.007105 0
M  V30 30 H -3.879797 0.026514 0.599673 0
M  V30 END ATOM
M  V30 BEGIN BOND
M  V30 1 1 2 1
M  V30 2 2 3 2
M  V30 3 1 4 3
M  V30 4 3 5 4
M  V30 5 1 6 3
M  V30 6 1 7 6
M  V30 7 1 8 7
M  V30 8 1 9 8
M  V30 9 1 10 9
M  V30 10 1 11 10
M  V30 11 1 12 11
M  V30 12 2 13 9
M  V30 13 2 14 6
M  V30 14 1 15 14
M  V30 15 1 16 15
M  V30 16 2 17 15
M  V30 17 1 17 2
M  V30 18 1 18 1
M  V30 19 1 19 1
M  V30 20 1 20 1
M  V30 21 1 21 8
M  V30 22 1 22 8
M  V30 23 1 23 10
M  V30 24 1 24 12
M  V30 25 1 25 12
M  V30 26 1 26 12
M  V30 27 1 27 16
M  V30 28 1 28 16
M  V30 29 1 29 16
M  V30 30 1 30 17
M  V30 END BOND
M  V30 END CTAB
M  END
>  <i_epik_Tot_Q>  (6) 
0

>  <i_epik_Tot_abs_Q>  (6) 
0

>  <i_f3d_flags>  (6) 
0

>  <i_lp_mmshare_version>  (6) 
71160

>  <i_lp_orig_ion_str>  (6) 
1

>  <i_m_source_file_index>  (6) 
64

>  <b_lp_Chiralities_Consistent>  (6) 
1

>  <r_epik_Charging_Adjusted_Penalty>  (6) 
0

>  <r_epik_Ionization_Penalty>  (6) 
2.534435894499579e-05

>  <r_epik_Ionization_Penalty_Charging>  (6) 
0

>  <r_epik_Ionization_Penalty_Neutral>  (6) 
2.534435894499579e-05

>  <r_epik_State_Penalty>  (6) 
-0

>  <r_lp_Energy>  (6) 
16.914804

>  <r_lp_tautomer_probability>  (6) 
1

>  <s_epik_Chemistry_Notes>  (6) 
This compound has a N-S or N-O group and may undergo hydrolysis at high or low pH.

>  <s_epik_cmdline>  (6) 
J2VwaWtfcHl0aG9uJywgJy1waHQnLCAnMC4yJywgJy1waCcsICc3LjQnLCAnLXJldGFpbl9pX2xhYicsICctcmV0YWluX3RfbGFiJywgJy10bicsICcxJywgJy1tYScsICc1MDAnLCAnLWltYWUnLCAnPGluZmlsZS5tYWU+JywgJy1vbWFlJywgJzxvdXRmaWxlLm1hZT4n

>  <s_epik_input>  (6) 
W0NIM11jMWMoQyNOKWMobmMoW0NIM10pW2NIXTEpU1tDSDJdQyg9TylbTkhdT1tDSDNd

>  <s_lp_Force_Field>  (6) 
S-OPLS

>  <s_lp_Variant>  (6) 
1l_Grossjean_2025-1

>  <s_lp_label>  (6) 
64

>  <s_m_source_file>  (6) 
montpellier_ligands.smi

$$$$
1m_Grossjean_2025
     RDKit          3D

  0  0  0  0  0  0  0  0  0  0999 V3000
M  V30 BEGIN CTAB
M  V30 COUNTS 35 35 0 0 1
M  V30 BEGIN ATOM
M  V30 1 C 0.530057 4.991421 -2.068889 0
M  V30 2 C 0.217480 4.008710 -0.941780 0
M  V30 3 C 0.176588 2.609703 -1.140528 0
M  V30 4 C 0.393695 2.049661 -2.476598 0
M  V30 5 N 0.565855 1.608333 -3.532454 0
M  V30 6 C -0.112113 1.792029 -0.021725 0
M  V30 7 S -0.199501 0.014501 -0.083409 0
M  V30 8 C 1.327031 -0.599072 -0.872515 0
M  V30 9 C 1.977113 -1.796334 -0.166852 0
M  V30 10 N 3.227473 -2.097478 -0.566510 0
M  V30 11 C 4.059455 -3.186706 -0.035298 0
M  V30 12 C 4.692556 -2.843978 1.328720 0
M  V30 13 O 5.392975 -3.885189 1.825100 0
M  V30 14 C 6.051657 -3.780479 3.079122 0
M  V30 15 O 4.565175 -1.741706 1.870941 0
M  V30 16 O 1.377948 -2.432873 0.701991 0
M  V30 17 N -0.385400 2.306709 1.203720 0
M  V30 18 C -0.342079 3.649214 1.370885 0
M  V30 19 C -0.639119 4.149365 2.771726 0
M  V30 20 C -0.040444 4.526881 0.331711 0
M  V30 21 H 0.563486 6.025646 -1.723408 0
M  V30 22 H -0.221769 4.917653 -2.855349 0
M  V30 23 H 1.496867 4.758452 -2.516479 0
M  V30 24 H 1.108938 -0.880591 -1.902992 0
M  V30 25 H 2.043912 0.222303 -0.903712 0
M  V30 26 H 3.639885 -1.544470 -1.303933 0
M  V30 27 H 3.477357 -4.106825 0.047881 0
M  V30 28 H 4.853569 -3.397072 -0.752137 0
M  V30 29 H 6.579040 -4.708770 3.298587 0
M  V30 30 H 5.336005 -3.598021 3.882258 0
M  V30 31 H 6.781094 -2.969123 3.073857 0
M  V30 32 H -0.666949 5.238901 2.813108 0
M  V30 33 H 0.127035 3.804631 3.467322 0
M  V30 34 H -1.604790 3.776197 3.115243 0
M  V30 35 H -0.014816 5.592322 0.509709 0
M  V30 END ATOM
M  V30 BEGIN BOND
M  V30 1 1 2 1
M  V30 2 2 3 2
M  V30 3 1 4 3
M  V30 4 3 5 4
M  V30 5 1 6 3
M  V30 6 1 7 6
M  V30 7 1 8 7
M  V30 8 1 9 8
M  V30 9 1 10 9
M  V30 10 1 11 10
M  V30 11 1 12 11
M  V30 12 1 13 12
M  V30 13 1 14 13
M  V30 14 2 15 12
M  V30 15 2 16 9
M  V30 16 2 17 6
M  V30 17 1 18 17
M  V30 18 1 19 18
M  V30 19 2 20 18
M  V30 20 1 20 2
M  V30 21 1 21 1
M  V30 22 1 22 1
M  V30 23 1 23 1
M  V30 24 1 24 8
M  V30 25 1 25 8
M  V30 26 1 26 10
M  V30 27 1 27 11
M  V30 28 1 28 11
M  V30 29 1 29 14
M  V30 30 1 30 14
M  V30 31 1 31 14
M  V30 32 1 32 19
M  V30 33 1 33 19
M  V30 34 1 34 19
M  V30 35 1 35 20
M  V30 END BOND
M  V30 END CTAB
M  END
>  <i_epik_Tot_Q>  (7) 
0

>  <i_epik_Tot_abs_Q>  (7) 
0

>  <i_f3d_flags>  (7) 
0

>  <i_lp_mmshare_version>  (7) 
71160

>  <i_lp_orig_ion_str>  (7) 
1

>  <i_m_source_file_index>  (7) 
65

>  <b_lp_Chiralities_Consistent>  (7) 
1

>  <r_epik_Charging_Adjusted_Penalty>  (7) 
0

>  <r_epik_Ionization_Penalty>  (7) 
1.9726850998654839e-06

>  <r_epik_Ionization_Penalty_Charging>  (7) 
0

>  <r_epik_Ionization_Penalty_Neutral>  (7) 
1.9726850998654839e-06

>  <r_epik_State_Penalty>  (7) 
-0

>  <r_lp_Energy>  (7) 
18.463912999999998

>  <r_lp_tautomer_probability>  (7) 
1

>  <s_epik_Chemistry_Notes>  (7) 
This compound has an ester and may undergo hydrolysis at high or low pH.

>  <s_epik_cmdline>  (7) 
J2VwaWtfcHl0aG9uJywgJy1waHQnLCAnMC4yJywgJy1waCcsICc3LjQnLCAnLXJldGFpbl9pX2xhYicsICctcmV0YWluX3RfbGFiJywgJy10bicsICcxJywgJy1tYScsICc1MDAnLCAnLWltYWUnLCAnPGluZmlsZS5tYWU+JywgJy1vbWFlJywgJzxvdXRmaWxlLm1hZT4n

>  <s_epik_input>  (7) 
W0NIM11jMWMoQyNOKWMobmMoW0NIM10pW2NIXTEpU1tDSDJdQyg9TylbTkhdW0NIMl1DKD1PKU9bQ0gzXQ==

>  <s_lp_Force_Field>  (7) 
S-OPLS

>  <s_lp_Variant>  (7) 
1m_Grossjean_2025-1

>  <s_lp_label>  (7) 
65

>  <s_m_source_file>  (7) 
montpellier_ligands.smi

$$$$
1n_Grossjean_2025
     RDKit          3D

  0  0  0  0  0  0  0  0  0  0999 V3000
M  V30 BEGIN CTAB
M  V30 COUNTS 48 49 0 0 1
M  V30 BEGIN ATOM
M  V30 1 C -2.226740 0.267976 -4.855240 0
M  V30 2 C -1.328753 1.152393 -3.992175 0
M  V30 3 C -1.432934 1.198348 -2.583197 0
M  V30 4 C -2.461306 0.415028 -1.895258 0
M  V30 5 N -3.274888 -0.204490 -1.353441 0
M  V30 6 C -0.540507 2.043914 -1.883037 0
M  V30 7 S -0.512486 2.209464 -0.110751 0
M  V30 8 C -0.149370 0.571214 0.589182 0
M  V30 9 C 1.210541 -0.020666 0.160836 0
M  V30 10 C 1.265264 -1.549593 0.276634 0
M  V30 11 N 2.207477 -2.039002 1.111541 0
M  V30 12 C 2.519357 -3.373912 1.434699 0
M  V30 13 C 3.419172 -3.549092 2.486855 0
M  V30 14 C 3.792481 -4.827479 2.891676 0
M  V30 15 C 3.275495 -5.959256 2.243264 0
M  V30 16 C 3.653423 -7.353051 2.654901 0
M  V30 17 O 4.482041 -7.388175 3.730318 0
M  V30 18 C 4.938252 -8.624189 4.265696 0
M  V30 19 C 5.831002 -8.353179 5.480500 0
M  V30 20 O 3.242116 -8.365189 2.079972 0
M  V30 21 C 2.382648 -5.778203 1.178739 0
M  V30 22 C 2.006006 -4.500248 0.774581 0
M  V30 23 O 0.469493 -2.225833 -0.375171 0
M  V30 24 N 0.370221 2.825324 -2.516186 0
M  V30 25 C 0.449465 2.768674 -3.866183 0
M  V30 26 C 1.497320 3.661413 -4.502997 0
M  V30 27 C -0.372096 1.945920 -4.633912 0
M  V30 28 H -1.978958 0.331431 -5.915571 0
M  V30 29 H -3.272066 0.553400 -4.731892 0
M  V30 30 H -2.133654 -0.775485 -4.552166 0
M  V30 31 H -0.173988 0.664838 1.675327 0
M  V30 32 H -0.973185 -0.095327 0.339637 0
M  V30 33 H 1.413002 0.222062 -0.883039 0
M  V30 34 H 2.012373 0.449552 0.733059 0
M  V30 35 H 2.752080 -1.354854 1.615798 0
M  V30 36 H 3.831976 -2.694783 3.004832 0
M  V30 37 H 4.487032 -4.918156 3.714495 0
M  V30 38 H 4.087515 -9.241171 4.560196 0
M  V30 39 H 5.498010 -9.174433 3.507678 0
M  V30 40 H 6.196702 -9.287049 5.907442 0
M  V30 41 H 5.284657 -7.822359 6.260888 0
M  V30 42 H 6.698004 -7.750816 5.206977 0
M  V30 43 H 1.968545 -6.625561 0.650211 0
M  V30 44 H 1.323767 -4.421266 -0.056131 0
M  V30 45 H 1.504248 3.563829 -5.589294 0
M  V30 46 H 2.491336 3.403242 -4.135946 0
M  V30 47 H 1.304557 4.707120 -4.260557 0
M  V30 48 H -0.273778 1.930199 -5.709964 0
M  V30 END ATOM
M  V30 BEGIN BOND
M  V30 1 1 2 1
M  V30 2 2 3 2
M  V30 3 1 4 3
M  V30 4 3 5 4
M  V30 5 1 6 3
M  V30 6 1 7 6
M  V30 7 1 8 7
M  V30 8 1 9 8
M  V30 9 1 10 9
M  V30 10 1 11 10
M  V30 11 1 12 11
M  V30 12 2 13 12
M  V30 13 1 14 13
M  V30 14 2 15 14
M  V30 15 1 16 15
M  V30 16 1 17 16
M  V30 17 1 18 17
M  V30 18 1 19 18
M  V30 19 2 20 16
M  V30 20 1 21 15
M  V30 21 2 22 21
M  V30 22 1 22 12
M  V30 23 2 23 10
M  V30 24 2 24 6
M  V30 25 1 25 24
M  V30 26 1 26 25
M  V30 27 2 27 25
M  V30 28 1 27 2
M  V30 29 1 28 1
M  V30 30 1 29 1
M  V30 31 1 30 1
M  V30 32 1 31 8
M  V30 33 1 32 8
M  V30 34 1 33 9
M  V30 35 1 34 9
M  V30 36 1 35 11
M  V30 37 1 36 13
M  V30 38 1 37 14
M  V30 39 1 38 18
M  V30 40 1 39 18
M  V30 41 1 40 19
M  V30 42 1 41 19
M  V30 43 1 42 19
M  V30 44 1 43 21
M  V30 45 1 44 22
M  V30 46 1 45 26
M  V30 47 1 46 26
M  V30 48 1 47 26
M  V30 49 1 48 27
M  V30 END BOND
M  V30 END CTAB
M  END
>  <i_epik_Tot_Q>  (8) 
0

>  <i_epik_Tot_abs_Q>  (8) 
0

>  <i_f3d_flags>  (8) 
0

>  <i_lp_mmshare_version>  (8) 
71160

>  <i_lp_orig_ion_str>  (8) 
1

>  <i_m_source_file_index>  (8) 
66

>  <b_lp_Chiralities_Consistent>  (8) 
1

>  <r_epik_Charging_Adjusted_Penalty>  (8) 
0

>  <r_epik_Ionization_Penalty>  (8) 
2.4863843952943391e-06

>  <r_epik_Ionization_Penalty_Charging>  (8) 
0

>  <r_epik_Ionization_Penalty_Neutral>  (8) 
2.4863843952943391e-06

>  <r_epik_State_Penalty>  (8) 
-0

>  <r_lp_Energy>  (8) 
25.727591

>  <r_lp_tautomer_probability>  (8) 
1

>  <s_epik_Chemistry_Notes>  (8) 
This compound has an ester and may undergo hydrolysis at high or low pH.

>  <s_epik_cmdline>  (8) 
J2VwaWtfcHl0aG9uJywgJy1waHQnLCAnMC4yJywgJy1waCcsICc3LjQnLCAnLXJldGFpbl9pX2xhYicsICctcmV0YWluX3RfbGFiJywgJy10bicsICcxJywgJy1tYScsICc1MDAnLCAnLWltYWUnLCAnPGluZmlsZS5tYWU+JywgJy1vbWFlJywgJzxvdXRmaWxlLm1hZT4n

>  <s_epik_input>  (8) 
W0NIM11jMWMoQyNOKWMobmMoW0NIM10pW2NIXTEpU1tDSDJdW0NIMl1DKD1PKVtOSF1jMltjSF1bY0hdYyhbY0hdW2NIXTIpQyg9TylPW0NIMl1bQ0gzXQ==

>  <s_lp_Force_Field>  (8) 
S-OPLS

>  <s_lp_Variant>  (8) 
1n_Grossjean_2025-1

>  <s_lp_label>  (8) 
66

>  <s_m_source_file>  (8) 
montpellier_ligands.smi

$$$$
1o_Grossjean_2025
     RDKit          3D

  0  0  0  0  0  0  0  0  0  0999 V3000
M  V30 BEGIN CTAB
M  V30 COUNTS 45 46 0 0 1
M  V30 BEGIN ATOM
M  V30 1 C 0.276728 4.895257 -2.355762 0
M  V30 2 C -0.097088 4.083162 -1.116860 0
M  V30 3 C 0.113910 2.688017 -1.027991 0
M  V30 4 C 0.663363 1.954993 -2.170928 0
M  V30 5 N 1.097541 1.377601 -3.074978 0
M  V30 6 C -0.257065 2.039655 0.174679 0
M  V30 7 S -0.057163 0.294699 0.473332 0
M  V30 8 C 1.646014 -0.170839 0.042392 0
M  V30 9 C 2.306519 -1.129688 1.052199 0
M  V30 10 C 3.828096 -1.247397 0.874402 0
M  V30 11 N 4.547175 -1.275393 2.017772 0
M  V30 12 C 5.941251 -1.349880 2.205854 0
M  V30 13 C 6.367481 -1.518468 3.523936 0
M  V30 14 C 7.724622 -1.595792 3.823229 0
M  V30 15 C 8.685210 -1.501089 2.805016 0
M  V30 16 C 10.157357 -1.578409 3.091000 0
M  V30 17 O 10.439829 -1.757135 4.407171 0
M  V30 18 C 11.783147 -1.852747 4.860303 0
M  V30 19 O 11.023429 -1.489930 2.215430 0
M  V30 20 C 8.252909 -1.325515 1.483814 0
M  V30 21 C 6.895809 -1.248843 1.182854 0
M  V30 22 O 4.296811 -1.331190 -0.260934 0
M  V30 23 N -0.839587 2.700643 1.206879 0
M  V30 24 C -1.036215 4.035519 1.098035 0
M  V30 25 C -1.678984 4.707746 2.296561 0
M  V30 26 C -0.674688 4.758441 -0.036701 0
M  V30 27 H 0.074703 5.960287 -2.233458 0
M  V30 28 H -0.279424 4.540452 -3.223969 0
M  V30 29 H 1.338259 4.779907 -2.577205 0
M  V30 30 H 1.644759 -0.611603 -0.955362 0
M  V30 31 H 2.229558 0.749275 -0.020798 0
M  V30 32 H 2.078299 -0.797047 2.066698 0
M  V30 33 H 1.870337 -2.124353 0.952777 0
M  V30 34 H 4.015385 -1.264092 2.875552 0
M  V30 35 H 5.649373 -1.593644 4.328541 0
M  V30 36 H 8.010910 -1.728605 4.856733 0
M  V30 37 H 11.799481 -1.999926 5.940195 0
M  V30 38 H 12.338531 -0.941526 4.632860 0
M  V30 39 H 12.294662 -2.696674 4.395110 0
M  V30 40 H 8.962721 -1.242976 0.672437 0
M  V30 41 H 6.623179 -1.100973 0.150746 0
M  V30 42 H -1.794052 5.781496 2.142954 0
M  V30 43 H -1.069774 4.559996 3.188997 0
M  V30 44 H -2.667765 4.287426 2.484552 0
M  V30 45 H -0.848038 5.824110 -0.080984 0
M  V30 END ATOM
M  V30 BEGIN BOND
M  V30 1 1 2 1
M  V30 2 2 3 2
M  V30 3 1 4 3
M  V30 4 3 5 4
M  V30 5 1 6 3
M  V30 6 1 7 6
M  V30 7 1 8 7
M  V30 8 1 9 8
M  V30 9 1 10 9
M  V30 10 1 11 10
M  V30 11 1 12 11
M  V30 12 2 13 12
M  V30 13 1 14 13
M  V30 14 2 15 14
M  V30 15 1 16 15
M  V30 16 1 17 16
M  V30 17 1 18 17
M  V30 18 2 19 16
M  V30 19 1 20 15
M  V30 20 2 21 20
M  V30 21 1 21 12
M  V30 22 2 22 10
M  V30 23 2 23 6
M  V30 24 1 24 23
M  V30 25 1 25 24
M  V30 26 2 26 24
M  V30 27 1 26 2
M  V30 28 1 27 1
M  V30 29 1 28 1
M  V30 30 1 29 1
M  V30 31 1 30 8
M  V30 32 1 31 8
M  V30 33 1 32 9
M  V30 34 1 33 9
M  V30 35 1 34 11
M  V30 36 1 35 13
M  V30 37 1 36 14
M  V30 38 1 37 18
M  V30 39 1 38 18
M  V30 40 1 39 18
M  V30 41 1 40 20
M  V30 42 1 41 21
M  V30 43 1 42 25
M  V30 44 1 43 25
M  V30 45 1 44 25
M  V30 46 1 45 26
M  V30 END BOND
M  V30 END CTAB
M  END
>  <i_epik_Tot_Q>  (9) 
0

>  <i_epik_Tot_abs_Q>  (9) 
0

>  <i_f3d_flags>  (9) 
0

>  <i_lp_mmshare_version>  (9) 
71160

>  <i_lp_orig_ion_str>  (9) 
1

>  <i_m_source_file_index>  (9) 
67

>  <b_lp_Chiralities_Consistent>  (9) 
1

>  <r_epik_Charging_Adjusted_Penalty>  (9) 
0

>  <r_epik_Ionization_Penalty>  (9) 
2.5573228013198236e-06

>  <r_epik_Ionization_Penalty_Charging>  (9) 
0

>  <r_epik_Ionization_Penalty_Neutral>  (9) 
2.5573228013198236e-06

>  <r_epik_State_Penalty>  (9) 
-0

>  <r_lp_Energy>  (9) 
27.286293999999998

>  <r_lp_tautomer_probability>  (9) 
1

>  <s_epik_Chemistry_Notes>  (9) 
This compound has an ester and may undergo hydrolysis at high or low pH.

>  <s_epik_cmdline>  (9) 
J2VwaWtfcHl0aG9uJywgJy1waHQnLCAnMC4yJywgJy1waCcsICc3LjQnLCAnLXJldGFpbl9pX2xhYicsICctcmV0YWluX3RfbGFiJywgJy10bicsICcxJywgJy1tYScsICc1MDAnLCAnLWltYWUnLCAnPGluZmlsZS5tYWU+JywgJy1vbWFlJywgJzxvdXRmaWxlLm1hZT4n

>  <s_epik_input>  (9) 
W0NIM11jMWMoQyNOKWMobmMoW0NIM10pW2NIXTEpU1tDSDJdW0NIMl1DKD1PKVtOSF1jMltjSF1bY0hdYyhbY0hdW2NIXTIpQyg9TylPW0NIM10=

>  <s_lp_Force_Field>  (9) 
S-OPLS

>  <s_lp_Variant>  (9) 
1o_Grossjean_2025-1

>  <s_lp_label>  (9) 
67

>  <s_m_source_file>  (9) 
montpellier_ligands.smi

$$$$
1p_Grossjean_2025
     RDKit          3D

  0  0  0  0  0  0  0  0  0  0999 V3000
M  V30 BEGIN CTAB
M  V30 COUNTS 35 36 0 0 1
M  V30 BEGIN ATOM
M  V30 1 C -3.150393 -2.361732 -0.167819 0
M  V30 2 C -2.295992 -1.106000 -0.005674 0
M  V30 3 C -0.917804 -1.077524 -0.317964 0
M  V30 4 C -0.239756 -2.291418 -0.778471 0
M  V30 5 N 0.295195 -3.251104 -1.141969 0
M  V30 6 C -0.225431 0.142919 -0.138119 0
M  V30 7 S 1.504998 0.353962 -0.491041 0
M  V30 8 C 1.713555 0.089114 -2.276309 0
M  V30 9 C 3.134139 0.397768 -2.787836 0
M  V30 10 C 3.377880 -0.059177 -4.234108 0
M  V30 11 N 4.592802 -0.599178 -4.479366 0
M  V30 12 C 5.067243 -1.087122 -5.690226 0
M  V30 13 N 4.411524 -1.085324 -6.839450 0
M  V30 14 O 5.256658 -1.666787 -7.786370 0
M  V30 15 C 6.413248 -2.004788 -7.167841 0
M  V30 16 C 6.332515 -1.653374 -5.840133 0
M  V30 17 O 2.491834 0.093706 -5.077233 0
M  V30 18 N -0.826784 1.257058 0.349789 0
M  V30 19 C -2.147363 1.206711 0.644034 0
M  V30 20 C -2.755051 2.490892 1.175506 0
M  V30 21 C -2.912006 0.053800 0.476275 0
M  V30 22 H -4.195691 -2.191390 0.093182 0
M  V30 23 H -2.768409 -3.164473 0.463860 0
M  V30 24 H -3.115672 -2.712021 -1.200001 0
M  V30 25 H 1.456291 -0.944815 -2.503639 0
M  V30 26 H 0.984371 0.712313 -2.796273 0
M  V30 27 H 3.317798 1.471390 -2.733329 0
M  V30 28 H 3.864387 -0.070502 -2.124965 0
M  V30 29 H 5.232828 -0.669706 -3.702394 0
M  V30 30 H 7.173535 -2.470122 -7.777814 0
M  V30 31 H 7.087988 -1.789330 -5.080400 0
M  V30 32 H -3.837681 2.410446 1.279906 0
M  V30 33 H -2.544867 3.322581 0.501954 0
M  V30 34 H -2.338182 2.729911 2.154396 0
M  V30 35 H -3.963814 0.057725 0.724507 0
M  V30 END ATOM
M  V30 BEGIN BOND
M  V30 1 1 2 1
M  V30 2 2 3 2
M  V30 3 1 4 3
M  V30 4 3 5 4
M  V30 5 1 6 3
M  V30 6 1 7 6
M  V30 7 1 8 7
M  V30 8 1 9 8
M  V30 9 1 10 9
M  V30 10 1 11 10
M  V30 11 1 12 11
M  V30 12 2 13 12
M  V30 13 1 14 13
M  V30 14 1 15 14
M  V30 15 2 16 15
M  V30 16 1 16 12
M  V30 17 2 17 10
M  V30 18 2 18 6
M  V30 19 1 19 18
M  V30 20 1 20 19
M  V30 21 2 21 19
M  V30 22 1 21 2
M  V30 23 1 22 1
M  V30 24 1 23 1
M  V30 25 1 24 1
M  V30 26 1 25 8
M  V30 27 1 26 8
M  V30 28 1 27 9
M  V30 29 1 28 9
M  V30 30 1 29 11
M  V30 31 1 30 15
M  V30 32 1 31 16
M  V30 33 1 32 20
M  V30 34 1 33 20
M  V30 35 1 34 20
M  V30 36 1 35 21
M  V30 END BOND
M  V30 END CTAB
M  END
>  <i_epik_Tot_Q>  (10) 
0

>  <i_epik_Tot_abs_Q>  (10) 
0

>  <i_f3d_flags>  (10) 
0

>  <i_lp_mmshare_version>  (10) 
71160

>  <i_lp_orig_ion_str>  (10) 
1

>  <i_m_source_file_index>  (10) 
68

>  <b_lp_Chiralities_Consistent>  (10) 
1

>  <r_epik_Charging_Adjusted_Penalty>  (10) 
0

>  <r_epik_Ionization_Penalty>  (10) 
0.00023971406710033969

>  <r_epik_Ionization_Penalty_Charging>  (10) 
0

>  <r_epik_Ionization_Penalty_Neutral>  (10) 
0.00023971406710033969

>  <r_epik_State_Penalty>  (10) 
-0

>  <r_lp_Energy>  (10) 
19.165666999999999

>  <r_lp_tautomer_probability>  (10) 
1

>  <s_epik_cmdline>  (10) 
J2VwaWtfcHl0aG9uJywgJy1waHQnLCAnMC4yJywgJy1waCcsICc3LjQnLCAnLXJldGFpbl9pX2xhYicsICctcmV0YWluX3RfbGFiJywgJy10bicsICcxJywgJy1tYScsICc1MDAnLCAnLWltYWUnLCAnPGluZmlsZS5tYWU+JywgJy1vbWFlJywgJzxvdXRmaWxlLm1hZT4n

>  <s_epik_input>  (10) 
W0NIM11jMWMoQyNOKWMobmMoW0NIM10pW2NIXTEpU1tDSDJdW0NIMl1DKD1PKVtOSF1jMm5vW2NIXVtjSF0y

>  <s_lp_Force_Field>  (10) 
S-OPLS

>  <s_lp_Variant>  (10) 
1p_Grossjean_2025-1

>  <s_lp_label>  (10) 
68

>  <s_m_source_file>  (10) 
montpellier_ligands.smi

$$$$
1q_Grossjean_2025
     RDKit          3D

  0  0  0  0  0  0  0  0  0  0999 V3000
M  V30 BEGIN CTAB
M  V30 COUNTS 38 38 0 0 1
M  V30 BEGIN ATOM
M  V30 1 C 0.486640 4.958714 2.309895 0
M  V30 2 C 0.093135 4.143458 1.079077 0
M  V30 3 C 0.283583 2.744706 0.998613 0
M  V30 4 C 0.833076 2.013190 2.142152 0
M  V30 5 N 1.266752 1.437543 3.047549 0
M  V30 6 C -0.108837 2.092464 -0.195075 0
M  V30 7 S 0.053369 0.341196 -0.480722 0
M  V30 8 C 1.749729 -0.159423 -0.064254 0
M  V30 9 C 2.316138 -1.253730 -0.990335 0
M  V30 10 C 3.722355 -1.738869 -0.607813 0
M  V30 11 N 4.070828 -2.955944 -1.067162 0
M  V30 12 C 5.362118 -3.623565 -0.843482 0
M  V30 13 C 6.509678 -3.011392 -1.673232 0
M  V30 14 O 6.129295 -2.558687 -2.892870 0
M  V30 15 C 7.074509 -1.962945 -3.769169 0
M  V30 16 O 7.658070 -2.984197 -1.226293 0
M  V30 17 O 4.472830 -1.033030 0.068317 0
M  V30 18 N -0.690440 2.754884 -1.226956 0
M  V30 19 C -0.864973 4.093433 -1.127393 0
M  V30 20 C -1.505312 4.766203 -2.326562 0
M  V30 21 C -0.483270 4.819439 -0.001378 0
M  V30 22 H 0.283728 6.023477 2.187525 0
M  V30 23 H 1.550815 4.840752 2.516958 0
M  V30 24 H -0.058642 4.608684 3.187105 0
M  V30 25 H 2.385172 0.726471 -0.110681 0
M  V30 26 H 1.756254 -0.502877 0.970887 0
M  V30 27 H 1.633355 -2.105438 -1.001852 0
M  V30 28 H 2.357737 -0.875810 -2.012806 0
M  V30 29 H 3.386965 -3.480561 -1.592986 0
M  V30 30 H 5.616070 -3.620337 0.218534 0
M  V30 31 H 5.255167 -4.670623 -1.126946 0
M  V30 32 H 6.588247 -1.685801 -4.704582 0
M  V30 33 H 7.886898 -2.653376 -4.000478 0
M  V30 34 H 7.500856 -1.060992 -3.327601 0
M  V30 35 H -1.653392 5.833638 -2.158621 0
M  V30 36 H -2.478481 4.322084 -2.539289 0
M  V30 37 H -0.875749 4.648381 -3.209192 0
M  V30 38 H -0.640491 5.887914 0.035953 0
M  V30 END ATOM
M  V30 BEGIN BOND
M  V30 1 1 2 1
M  V30 2 2 3 2
M  V30 3 1 4 3
M  V30 4 3 5 4
M  V30 5 1 6 3
M  V30 6 1 7 6
M  V30 7 1 8 7
M  V30 8 1 9 8
M  V30 9 1 10 9
M  V30 10 1 11 10
M  V30 11 1 12 11
M  V30 12 1 13 12
M  V30 13 1 14 13
M  V30 14 1 15 14
M  V30 15 2 16 13
M  V30 16 2 17 10
M  V30 17 2 18 6
M  V30 18 1 19 18
M  V30 19 1 20 19
M  V30 20 2 21 19
M  V30 21 1 21 2
M  V30 22 1 22 1
M  V30 23 1 23 1
M  V30 24 1 24 1
M  V30 25 1 25 8
M  V30 26 1 26 8
M  V30 27 1 27 9
M  V30 28 1 28 9
M  V30 29 1 29 11
M  V30 30 1 30 12
M  V30 31 1 31 12
M  V30 32 1 32 15
M  V30 33 1 33 15
M  V30 34 1 34 15
M  V30 35 1 35 20
M  V30 36 1 36 20
M  V30 37 1 37 20
M  V30 38 1 38 21
M  V30 END BOND
M  V30 END CTAB
M  END
>  <i_epik_Tot_Q>  (11) 
0

>  <i_epik_Tot_abs_Q>  (11) 
0

>  <i_f3d_flags>  (11) 
0

>  <i_lp_mmshare_version>  (11) 
71160

>  <i_lp_orig_ion_str>  (11) 
1

>  <i_m_source_file_index>  (11) 
69

>  <b_lp_Chiralities_Consistent>  (11) 
1

>  <r_epik_Charging_Adjusted_Penalty>  (11) 
0

>  <r_epik_Ionization_Penalty>  (11) 
1.5588056694444277e-06

>  <r_epik_Ionization_Penalty_Charging>  (11) 
0

>  <r_epik_Ionization_Penalty_Neutral>  (11) 
1.5588056694444277e-06

>  <r_epik_State_Penalty>  (11) 
-0

>  <r_lp_Energy>  (11) 
21.626773

>  <r_lp_tautomer_probability>  (11) 
1

>  <s_epik_Chemistry_Notes>  (11) 
This compound has an ester and may undergo hydrolysis at high or low pH.

>  <s_epik_cmdline>  (11) 
J2VwaWtfcHl0aG9uJywgJy1waHQnLCAnMC4yJywgJy1waCcsICc3LjQnLCAnLXJldGFpbl9pX2xhYicsICctcmV0YWluX3RfbGFiJywgJy10bicsICcxJywgJy1tYScsICc1MDAnLCAnLWltYWUnLCAnPGluZmlsZS5tYWU+JywgJy1vbWFlJywgJzxvdXRmaWxlLm1hZT4n

>  <s_epik_input>  (11) 
W0NIM11jMWMoQyNOKWMobmMoW0NIM10pW2NIXTEpU1tDSDJdW0NIMl1DKD1PKVtOSF1bQ0gyXUMoPU8pT1tDSDNd

>  <s_lp_Force_Field>  (11) 
S-OPLS

>  <s_lp_Variant>  (11) 
1q_Grossjean_2025-1

>  <s_lp_label>  (11) 
69

>  <s_m_source_file>  (11) 
montpellier_ligands.smi

$$$$
2a_Grossjean_2025
     RDKit          3D

  0  0  0  0  0  0  0  0  0  0999 V3000
M  V30 BEGIN CTAB
M  V30 COUNTS 45 46 0 0 1
M  V30 BEGIN ATOM
M  V30 1 C 1.719596 4.964026 -0.315057 0
M  V30 2 C 0.476312 4.138794 -0.041967 0
M  V30 3 C -0.769252 4.735701 0.133272 0
M  V30 4 C -1.887713 3.931944 0.399765 0
M  V30 5 C -3.258543 4.608333 0.590283 0
M  V30 6 F -4.123060 4.154322 -0.317912 0
M  V30 7 F -3.732094 4.344368 1.808704 0
M  V30 8 F -3.201314 5.935682 0.460827 0
M  V30 9 C -1.707425 2.527773 0.486081 0
M  V30 10 C -2.840852 1.640564 0.766423 0
M  V30 11 N -3.735568 0.940551 0.987247 0
M  V30 12 C -0.405545 2.005845 0.299527 0
M  V30 13 S -0.060618 0.253282 0.397745 0
M  V30 14 C 1.739683 -0.024559 0.323507 0
M  V30 15 C 2.489806 0.531793 1.539319 0
M  V30 16 N 3.308489 1.576575 1.289262 0
M  V30 17 C 4.109477 2.329340 2.168180 0
M  V30 18 C 4.723848 3.452291 1.612834 0
M  V30 19 C 5.527895 4.276145 2.394623 0
M  V30 20 C 5.738193 3.986266 3.751103 0
M  V30 21 C 6.597701 4.853885 4.624542 0
M  V30 22 O 7.054444 5.965025 3.991413 0
M  V30 23 C 7.875572 6.910107 4.665837 0
M  V30 24 C 8.208448 8.063368 3.714227 0
M  V30 25 O 6.848869 4.591551 5.804538 0
M  V30 26 C 5.129247 2.850534 4.301240 0
M  V30 27 C 4.321220 2.027506 3.521442 0
M  V30 28 O 2.312935 0.009894 2.639778 0
M  V30 29 N 0.660863 2.801900 0.033505 0
M  V30 30 H 1.464532 5.962246 -0.671851 0
M  V30 31 H 2.346138 4.490922 -1.072543 0
M  V30 32 H 2.307051 5.069731 0.597365 0
M  V30 33 H -0.855946 5.810442 0.064213 0
M  V30 34 H 1.899991 -1.102464 0.285506 0
M  V30 35 H 2.136355 0.373306 -0.612095 0
M  V30 36 H 3.321590 1.907452 0.335622 0
M  V30 37 H 4.577027 3.700053 0.570884 0
M  V30 38 H 5.980308 5.138314 1.925925 0
M  V30 39 H 7.358562 7.293391 5.547195 0
M  V30 40 H 8.794713 6.429904 5.005111 0
M  V30 41 H 8.834371 8.805509 4.209608 0
M  V30 42 H 7.303505 8.566902 3.372308 0
M  V30 43 H 8.747339 7.706824 2.835875 0
M  V30 44 H 5.271978 2.591780 5.341205 0
M  V30 45 H 3.881651 1.166300 3.997170 0
M  V30 END ATOM
M  V30 BEGIN BOND
M  V30 1 1 2 1
M  V30 2 2 3 2
M  V30 3 1 4 3
M  V30 4 1 5 4
M  V30 5 1 6 5
M  V30 6 1 7 5
M  V30 7 1 8 5
M  V30 8 2 9 4
M  V30 9 1 10 9
M  V30 10 3 11 10
M  V30 11 1 12 9
M  V30 12 1 13 12
M  V30 13 1 14 13
M  V30 14 1 15 14
M  V30 15 1 16 15
M  V30 16 1 17 16
M  V30 17 2 18 17
M  V30 18 1 19 18
M  V30 19 2 20 19
M  V30 20 1 21 20
M  V30 21 1 22 21
M  V30 22 1 23 22
M  V30 23 1 24 23
M  V30 24 2 25 21
M  V30 25 1 26 20
M  V30 26 2 27 26
M  V30 27 1 27 17
M  V30 28 2 28 15
M  V30 29 2 29 12
M  V30 30 1 29 2
M  V30 31 1 30 1
M  V30 32 1 31 1
M  V30 33 1 32 1
M  V30 34 1 33 3
M  V30 35 1 34 14
M  V30 36 1 35 14
M  V30 37 1 36 16
M  V30 38 1 37 18
M  V30 39 1 38 19
M  V30 40 1 39 23
M  V30 41 1 40 23
M  V30 42 1 41 24
M  V30 43 1 42 24
M  V30 44 1 43 24
M  V30 45 1 44 26
M  V30 46 1 45 27
M  V30 END BOND
M  V30 END CTAB
M  END
>  <i_epik_Tot_Q>  (12) 
0

>  <i_epik_Tot_abs_Q>  (12) 
0

>  <i_f3d_flags>  (12) 
0

>  <i_lp_mmshare_version>  (12) 
71160

>  <i_lp_orig_ion_str>  (12) 
1

>  <i_m_source_file_index>  (12) 
70

>  <b_lp_Chiralities_Consistent>  (12) 
1

>  <r_epik_Charging_Adjusted_Penalty>  (12) 
0

>  <r_epik_Ionization_Penalty>  (12) 
6.8189523057742304e-07

>  <r_epik_Ionization_Penalty_Charging>  (12) 
0

>  <r_epik_Ionization_Penalty_Neutral>  (12) 
6.8189523057742304e-07

>  <r_epik_State_Penalty>  (12) 
-0

>  <r_lp_Energy>  (12) 
25.548344

>  <r_lp_tautomer_probability>  (12) 
1

>  <s_epik_Chemistry_Notes>  (12) 
This compound has an ester and may undergo hydrolysis at high or low pH.

>  <s_epik_cmdline>  (12) 
J2VwaWtfcHl0aG9uJywgJy1waHQnLCAnMC4yJywgJy1waCcsICc3LjQnLCAnLXJldGFpbl9pX2xhYicsICctcmV0YWluX3RfbGFiJywgJy10bicsICcxJywgJy1tYScsICc1MDAnLCAnLWltYWUnLCAnPGluZmlsZS5tYWU+JywgJy1vbWFlJywgJzxvdXRmaWxlLm1hZT4n

>  <s_epik_input>  (12) 
W0NIM11jMVtjSF1jKEMoRikoRilGKWMoQyNOKWMobjEpU1tDSDJdQyg9TylbTkhdYzJbY0hdW2NIXWMoW2NIXVtjSF0yKUMoPU8pT1tDSDJdW0NIM10=

>  <s_lp_Force_Field>  (12) 
S-OPLS

>  <s_lp_Variant>  (12) 
2a_Grossjean_2025-1

>  <s_lp_label>  (12) 
70

>  <s_m_source_file>  (12) 
montpellier_ligands.smi

$$$$
2b_Grossjean_2025
     RDKit          3D

  0  0  0  0  0  0  0  0  0  0999 V3000
M  V30 BEGIN CTAB
M  V30 COUNTS 42 43 0 0 1
M  V30 BEGIN ATOM
M  V30 1 C 1.556060 4.790701 -1.135333 0
M  V30 2 C 0.367162 4.057761 -0.543594 0
M  V30 3 C -0.846490 4.699826 -0.311787 0
M  V30 4 C -1.914182 3.977076 0.241134 0
M  V30 5 C -3.251344 4.700933 0.487339 0
M  V30 6 F -4.222802 4.113942 -0.212756 0
M  V30 7 F -3.564630 4.656509 1.782868 0
M  V30 8 F -3.217063 5.985729 0.126903 0
M  V30 9 C -1.715968 2.607260 0.550761 0
M  V30 10 C -2.795191 1.805171 1.135651 0
M  V30 11 N -3.646985 1.172369 1.597407 0
M  V30 12 C -0.449583 2.035465 0.283388 0
M  V30 13 S -0.089530 0.319099 0.632089 0
M  V30 14 C 1.685321 -0.009315 0.375550 0
M  V30 15 C 2.577483 0.640305 1.438520 0
M  V30 16 N 2.672716 -0.038788 2.602043 0
M  V30 17 C 3.408592 0.266099 3.762913 0
M  V30 18 C 3.116813 -0.506421 4.887453 0
M  V30 19 C 3.790748 -0.291085 6.085931 0
M  V30 20 C 4.778214 0.701062 6.179855 0
M  V30 21 C 5.526327 0.959137 7.456281 0
M  V30 22 O 5.131160 0.159783 8.480402 0
M  V30 23 C 5.730372 0.265716 9.764308 0
M  V30 24 O 6.410138 1.814672 7.562832 0
M  V30 25 C 5.074313 1.467889 5.045166 0
M  V30 26 C 4.399644 1.255207 3.845860 0
M  V30 27 O 3.127600 1.713869 1.192675 0
M  V30 28 N 0.566568 2.751599 -0.259301 0
M  V30 29 H 1.334043 5.843925 -1.311287 0
M  V30 30 H 1.843590 4.343190 -2.087404 0
M  V30 31 H 2.411218 4.735208 -0.460544 0
M  V30 32 H -0.949207 5.746017 -0.561122 0
M  V30 33 H 1.868675 -1.082548 0.312088 0
M  V30 34 H 1.950260 0.398237 -0.601086 0
M  V30 35 H 2.099674 -0.866043 2.680885 0
M  V30 36 H 2.360932 -1.277701 4.843244 0
M  V30 37 H 3.530768 -0.909225 6.933294 0
M  V30 38 H 5.271036 -0.449440 10.446645 0
M  V30 39 H 5.594562 1.265551 10.178995 0
M  V30 40 H 6.799025 0.051889 9.716220 0
M  V30 41 H 5.833666 2.236778 5.076538 0
M  V30 42 H 4.678231 1.863529 3.000706 0
M  V30 END ATOM
M  V30 BEGIN BOND
M  V30 1 1 2 1
M  V30 2 2 3 2
M  V30 3 1 4 3
M  V30 4 1 5 4
M  V30 5 1 6 5
M  V30 6 1 7 5
M  V30 7 1 8 5
M  V30 8 2 9 4
M  V30 9 1 10 9
M  V30 10 3 11 10
M  V30 11 1 12 9
M  V30 12 1 13 12
M  V30 13 1 14 13
M  V30 14 1 15 14
M  V30 15 1 16 15
M  V30 16 1 17 16
M  V30 17 2 18 17
M  V30 18 1 19 18
M  V30 19 2 20 19
M  V30 20 1 21 20
M  V30 21 1 22 21
M  V30 22 1 23 22
M  V30 23 2 24 21
M  V30 24 1 25 20
M  V30 25 2 26 25
M  V30 26 1 26 17
M  V30 27 2 27 15
M  V30 28 2 28 12
M  V30 29 1 28 2
M  V30 30 1 29 1
M  V30 31 1 30 1
M  V30 32 1 31 1
M  V30 33 1 32 3
M  V30 34 1 33 14
M  V30 35 1 34 14
M  V30 36 1 35 16
M  V30 37 1 36 18
M  V30 38 1 37 19
M  V30 39 1 38 23
M  V30 40 1 39 23
M  V30 41 1 40 23
M  V30 42 1 41 25
M  V30 43 1 42 26
M  V30 END BOND
M  V30 END CTAB
M  END
>  <i_epik_Tot_Q>  (13) 
0

>  <i_epik_Tot_abs_Q>  (13) 
0

>  <i_f3d_flags>  (13) 
0

>  <i_lp_mmshare_version>  (13) 
71160

>  <i_lp_orig_ion_str>  (13) 
1

>  <i_m_source_file_index>  (13) 
71

>  <b_lp_Chiralities_Consistent>  (13) 
1

>  <r_epik_Charging_Adjusted_Penalty>  (13) 
0

>  <r_epik_Ionization_Penalty>  (13) 
8.7975226900543859e-07

>  <r_epik_Ionization_Penalty_Charging>  (13) 
0

>  <r_epik_Ionization_Penalty_Neutral>  (13) 
8.7975226900543859e-07

>  <r_epik_State_Penalty>  (13) 
-0

>  <r_lp_Energy>  (13) 
27.636461999999998

>  <r_lp_tautomer_probability>  (13) 
1

>  <s_epik_Chemistry_Notes>  (13) 
This compound has an ester and may undergo hydrolysis at high or low pH.

>  <s_epik_cmdline>  (13) 
J2VwaWtfcHl0aG9uJywgJy1waHQnLCAnMC4yJywgJy1waCcsICc3LjQnLCAnLXJldGFpbl9pX2xhYicsICctcmV0YWluX3RfbGFiJywgJy10bicsICcxJywgJy1tYScsICc1MDAnLCAnLWltYWUnLCAnPGluZmlsZS5tYWU+JywgJy1vbWFlJywgJzxvdXRmaWxlLm1hZT4n

>  <s_epik_input>  (13) 
W0NIM11jMVtjSF1jKEMoRikoRilGKWMoQyNOKWMobjEpU1tDSDJdQyg9TylbTkhdYzJbY0hdW2NIXWMoW2NIXVtjSF0yKUMoPU8pT1tDSDNd

>  <s_lp_Force_Field>  (13) 
S-OPLS

>  <s_lp_Variant>  (13) 
2b_Grossjean_2025-1

>  <s_lp_label>  (13) 
71

>  <s_m_source_file>  (13) 
montpellier_ligands.smi

$$$$
2c_Grossjean_2025
     RDKit          3D

  0  0  0  0  0  0  0  0  0  0999 V3000
M  V30 BEGIN CTAB
M  V30 COUNTS 40 41 0 0 1
M  V30 BEGIN ATOM
M  V30 1 C 1.933062 2.690940 2.204323 0
M  V30 2 C 1.024822 2.770406 0.992110 0
M  V30 3 C 0.133990 3.825735 0.814418 0
M  V30 4 C -0.690489 3.848783 -0.320410 0
M  V30 5 C -1.668581 5.024877 -0.503571 0
M  V30 6 F -1.398312 5.671008 -1.638551 0
M  V30 7 F -2.922759 4.573853 -0.550596 0
M  V30 8 F -1.598798 5.913713 0.489947 0
M  V30 9 C -0.588919 2.784553 -1.252424 0
M  V30 10 C -1.427930 2.756028 -2.454722 0
M  V30 11 N -2.090124 2.734065 -3.403540 0
M  V30 12 C 0.341451 1.750928 -0.991679 0
M  V30 13 S 0.549560 0.358351 -2.094497 0
M  V30 14 C 1.724768 -0.829628 -1.355291 0
M  V30 15 C 1.255781 -1.501429 -0.054994 0
M  V30 16 N 2.236823 -2.074214 0.675060 0
M  V30 17 C 2.138404 -2.734846 1.913190 0
M  V30 18 C 1.109826 -2.513272 2.840691 0
M  V30 19 C 1.105735 -3.201662 4.050584 0
M  V30 20 C 2.121189 -4.107121 4.358530 0
M  V30 21 O 2.029963 -4.743325 5.581752 0
M  V30 22 C 3.031801 -5.684965 5.951422 0
M  V30 23 C 3.156815 -4.314435 3.434199 0
M  V30 24 C 3.165471 -3.627635 2.223418 0
M  V30 25 O 0.059858 -1.518063 0.242325 0
M  V30 26 N 1.134810 1.752697 0.109608 0
M  V30 27 H 1.891922 3.604298 2.799060 0
M  V30 28 H 2.968980 2.536920 1.899894 0
M  V30 29 H 1.637905 1.857698 2.842985 0
M  V30 30 H 0.089209 4.612117 1.553802 0
M  V30 31 H 1.984178 -1.592285 -2.089659 0
M  V30 32 H 2.638938 -0.269953 -1.151587 0
M  V30 33 H 3.156986 -2.091127 0.260230 0
M  V30 34 H 0.316736 -1.805920 2.653129 0
M  V30 35 H 0.308070 -3.026733 4.757813 0
M  V30 36 H 2.798880 -6.090758 6.935798 0
M  V30 37 H 4.016564 -5.218974 6.011636 0
M  V30 38 H 3.073174 -6.521224 5.251649 0
M  V30 39 H 3.963103 -5.002284 3.638109 0
M  V30 40 H 3.973312 -3.800641 1.526396 0
M  V30 END ATOM
M  V30 BEGIN BOND
M  V30 1 1 2 1
M  V30 2 2 3 2
M  V30 3 1 4 3
M  V30 4 1 5 4
M  V30 5 1 6 5
M  V30 6 1 7 5
M  V30 7 1 8 5
M  V30 8 2 9 4
M  V30 9 1 10 9
M  V30 10 3 11 10
M  V30 11 1 12 9
M  V30 12 1 13 12
M  V30 13 1 14 13
M  V30 14 1 15 14
M  V30 15 1 16 15
M  V30 16 1 17 16
M  V30 17 2 18 17
M  V30 18 1 19 18
M  V30 19 2 20 19
M  V30 20 1 21 20
M  V30 21 1 22 21
M  V30 22 1 23 20
M  V30 23 2 24 23
M  V30 24 1 24 17
M  V30 25 2 25 15
M  V30 26 2 26 12
M  V30 27 1 26 2
M  V30 28 1 27 1
M  V30 29 1 28 1
M  V30 30 1 29 1
M  V30 31 1 30 3
M  V30 32 1 31 14
M  V30 33 1 32 14
M  V30 34 1 33 16
M  V30 35 1 34 18
M  V30 36 1 35 19
M  V30 37 1 36 22
M  V30 38 1 37 22
M  V30 39 1 38 22
M  V30 40 1 39 23
M  V30 41 1 40 24
M  V30 END BOND
M  V30 END CTAB
M  END
>  <i_epik_Tot_Q>  (14) 
0

>  <i_epik_Tot_abs_Q>  (14) 
0

>  <i_f3d_flags>  (14) 
0

>  <i_lp_mmshare_version>  (14) 
71160

>  <i_lp_orig_ion_str>  (14) 
1

>  <i_m_source_file_index>  (14) 
72

>  <b_lp_Chiralities_Consistent>  (14) 
1

>  <r_epik_Charging_Adjusted_Penalty>  (14) 
0

>  <r_epik_Ionization_Penalty>  (14) 
7.6163643360871468e-07

>  <r_epik_Ionization_Penalty_Charging>  (14) 
0

>  <r_epik_Ionization_Penalty_Neutral>  (14) 
7.6163643360871468e-07

>  <r_epik_State_Penalty>  (14) 
-0

>  <r_lp_Energy>  (14) 
31.430664999999998

>  <r_lp_tautomer_probability>  (14) 
1

>  <s_epik_cmdline>  (14) 
J2VwaWtfcHl0aG9uJywgJy1waHQnLCAnMC4yJywgJy1waCcsICc3LjQnLCAnLXJldGFpbl9pX2xhYicsICctcmV0YWluX3RfbGFiJywgJy10bicsICcxJywgJy1tYScsICc1MDAnLCAnLWltYWUnLCAnPGluZmlsZS5tYWU+JywgJy1vbWFlJywgJzxvdXRmaWxlLm1hZT4n

>  <s_epik_input>  (14) 
W0NIM11jMVtjSF1jKEMoRikoRilGKWMoQyNOKWMobjEpU1tDSDJdQyg9TylbTkhdYzJbY0hdW2NIXWMoT1tDSDNdKVtjSF1bY0hdMg==

>  <s_lp_Force_Field>  (14) 
S-OPLS

>  <s_lp_Variant>  (14) 
2c_Grossjean_2025-1

>  <s_lp_label>  (14) 
72

>  <s_m_source_file>  (14) 
montpellier_ligands.smi

$$$$
2d_Grossjean_2025
     RDKit          3D

  0  0  0  0  0  0  0  0  0  0999 V3000
M  V30 BEGIN CTAB
M  V30 COUNTS 36 37 0 0 1
M  V30 BEGIN ATOM
M  V30 1 C -2.931256 2.061558 -1.853440 0
M  V30 2 C -2.239959 0.937418 -1.105527 0
M  V30 3 C -2.963674 -0.040627 -0.427796 0
M  V30 4 C -2.279313 -1.064360 0.244435 0
M  V30 5 C -3.096575 -2.143219 0.980048 0
M  V30 6 F -2.844580 -3.343094 0.455541 0
M  V30 7 F -2.772482 -2.159903 2.273558 0
M  V30 8 F -4.413164 -1.938077 0.899723 0
M  V30 9 C -0.861397 -1.063320 0.216447 0
M  V30 10 C -0.100015 -2.135370 0.862590 0
M  V30 11 N 0.500287 -2.982899 1.372971 0
M  V30 12 C -0.210019 -0.015470 -0.476875 0
M  V30 13 S 1.560945 0.157026 -0.585585 0
M  V30 14 C 2.240850 0.294673 1.100261 0
M  V30 15 C 1.486662 1.305740 1.968865 0
M  V30 16 N 1.923403 2.581255 1.892531 0
M  V30 17 C 1.448020 3.723531 2.563050 0
M  V30 18 C 1.831954 4.954465 2.023771 0
M  V30 19 C 1.416872 6.141922 2.620420 0
M  V30 20 C 0.623407 6.099310 3.763729 0
M  V30 21 C 0.244728 4.879429 4.318477 0
M  V30 22 C 0.657155 3.689691 3.723711 0
M  V30 23 O 0.534931 0.918917 2.647685 0
M  V30 24 N -0.888221 0.953802 -1.138756 0
M  V30 25 H -4.017064 1.968410 -1.808607 0
M  V30 26 H -2.637447 2.058879 -2.903753 0
M  V30 27 H -2.658532 3.026478 -1.424550 0
M  V30 28 H -4.043220 -0.000554 -0.433821 0
M  V30 29 H 2.199400 -0.688832 1.566431 0
M  V30 30 H 3.299743 0.551880 1.052670 0
M  V30 31 H 2.656993 2.764168 1.223656 0
M  V30 32 H 2.448378 4.999223 1.137110 0
M  V30 33 H 1.709484 7.092242 2.198693 0
M  V30 34 H 0.302810 7.020765 4.227276 0
M  V30 35 H -0.363625 4.856113 5.210547 0
M  V30 36 H 0.362871 2.762781 4.189799 0
M  V30 END ATOM
M  V30 BEGIN BOND
M  V30 1 1 2 1
M  V30 2 2 3 2
M  V30 3 1 4 3
M  V30 4 1 5 4
M  V30 5 1 6 5
M  V30 6 1 7 5
M  V30 7 1 8 5
M  V30 8 2 9 4
M  V30 9 1 10 9
M  V30 10 3 11 10
M  V30 11 1 12 9
M  V30 12 1 13 12
M  V30 13 1 14 13
M  V30 14 1 15 14
M  V30 15 1 16 15
M  V30 16 1 17 16
M  V30 17 2 18 17
M  V30 18 1 19 18
M  V30 19 2 20 19
M  V30 20 1 21 20
M  V30 21 2 22 21
M  V30 22 1 22 17
M  V30 23 2 23 15
M  V30 24 2 24 12
M  V30 25 1 24 2
M  V30 26 1 25 1
M  V30 27 1 26 1
M  V30 28 1 27 1
M  V30 29 1 28 3
M  V30 30 1 29 14
M  V30 31 1 30 14
M  V30 32 1 31 16
M  V30 33 1 32 18
M  V30 34 1 33 19
M  V30 35 1 34 20
M  V30 36 1 35 21
M  V30 37 1 36 22
M  V30 END BOND
M  V30 END CTAB
M  END
>  <i_epik_Tot_Q>  (15) 
0

>  <i_epik_Tot_abs_Q>  (15) 
0

>  <i_f3d_flags>  (15) 
0

>  <i_lp_mmshare_version>  (15) 
71160

>  <i_lp_orig_ion_str>  (15) 
1

>  <i_m_source_file_index>  (15) 
73

>  <b_lp_Chiralities_Consistent>  (15) 
1

>  <r_epik_Charging_Adjusted_Penalty>  (15) 
0

>  <r_epik_Ionization_Penalty>  (15) 
4.7272331990840603e-07

>  <r_epik_Ionization_Penalty_Charging>  (15) 
0

>  <r_epik_Ionization_Penalty_Neutral>  (15) 
4.7272331990840603e-07

>  <r_epik_State_Penalty>  (15) 
-0

>  <r_lp_Energy>  (15) 
30.896414999999998

>  <r_lp_tautomer_probability>  (15) 
1

>  <s_epik_cmdline>  (15) 
J2VwaWtfcHl0aG9uJywgJy1waHQnLCAnMC4yJywgJy1waCcsICc3LjQnLCAnLXJldGFpbl9pX2xhYicsICctcmV0YWluX3RfbGFiJywgJy10bicsICcxJywgJy1tYScsICc1MDAnLCAnLWltYWUnLCAnPGluZmlsZS5tYWU+JywgJy1vbWFlJywgJzxvdXRmaWxlLm1hZT4n

>  <s_epik_input>  (15) 
W0NIM11jMVtjSF1jKEMoRikoRilGKWMoQyNOKWMobjEpU1tDSDJdQyg9TylbTkhdYzJbY0hdW2NIXVtjSF1bY0hdW2NIXTI=

>  <s_lp_Force_Field>  (15) 
S-OPLS

>  <s_lp_Variant>  (15) 
2d_Grossjean_2025-1

>  <s_lp_label>  (15) 
73

>  <s_m_source_file>  (15) 
montpellier_ligands.smi

$$$$
2e_Grossjean_2025
     RDKit          3D

  0  0  0  0  0  0  0  0  0  0999 V3000
M  V30 BEGIN CTAB
M  V30 COUNTS 38 39 0 0 1
M  V30 BEGIN ATOM
M  V30 1 C -2.761918 2.578314 -0.056954 0
M  V30 2 C -2.087026 1.219862 -0.072883 0
M  V30 3 C -2.825889 0.038392 -0.069938 0
M  V30 4 C -2.156920 -1.195186 -0.075799 0
M  V30 5 C -2.987210 -2.491856 -0.051185 0
M  V30 6 F -2.712952 -3.231833 -1.126222 0
M  V30 7 F -2.699088 -3.196438 1.044077 0
M  V30 8 F -4.302094 -2.262170 -0.046599 0
M  V30 9 C -0.739711 -1.195165 -0.092678 0
M  V30 10 C 0.017736 -2.450486 -0.070496 0
M  V30 11 N 0.616399 -3.440630 -0.050917 0
M  V30 12 C -0.074435 0.052058 -0.099445 0
M  V30 13 S 1.699456 0.192274 -0.050860 0
M  V30 14 C 2.088069 0.886673 1.586841 0
M  V30 15 C 1.385652 0.125984 2.715730 0
M  V30 16 N 1.880042 -1.100612 2.994368 0
M  V30 17 C 1.367167 -2.061211 3.883408 0
M  V30 18 N 0.083887 -1.995477 4.344586 0
M  V30 19 C -0.362646 -2.980130 5.165742 0
M  V30 20 C -1.797580 -2.844131 5.637634 0
M  V30 21 C 0.435466 -4.059553 5.552316 0
M  V30 22 C 1.743093 -4.124670 5.069112 0
M  V30 23 C 2.216995 -3.120174 4.222425 0
M  V30 24 O 0.413827 0.638858 3.273136 0
M  V30 25 N -0.734611 1.236348 -0.083852 0
M  V30 26 H -3.848940 2.489098 -0.050400 0
M  V30 27 H -2.477599 3.155663 -0.937197 0
M  V30 28 H -2.465697 3.139865 0.830030 0
M  V30 29 H -3.904893 0.087875 -0.056303 0
M  V30 30 H 3.166807 0.883065 1.746713 0
M  V30 31 H 1.772968 1.931242 1.588253 0
M  V30 32 H 2.744895 -1.357883 2.541955 0
M  V30 33 H -2.067678 -3.635073 6.338213 0
M  V30 34 H -2.481245 -2.895867 4.789405 0
M  V30 35 H -1.946598 -1.886935 6.138680 0
M  V30 36 H 0.054371 -4.831430 6.204969 0
M  V30 37 H 2.383171 -4.949701 5.344996 0
M  V30 38 H 3.226010 -3.172157 3.838957 0
M  V30 END ATOM
M  V30 BEGIN BOND
M  V30 1 1 2 1
M  V30 2 2 3 2
M  V30 3 1 4 3
M  V30 4 1 5 4
M  V30 5 1 6 5
M  V30 6 1 7 5
M  V30 7 1 8 5
M  V30 8 2 9 4
M  V30 9 1 10 9
M  V30 10 3 11 10
M  V30 11 1 12 9
M  V30 12 1 13 12
M  V30 13 1 14 13
M  V30 14 1 15 14
M  V30 15 1 16 15
M  V30 16 1 17 16
M  V30 17 2 18 17
M  V30 18 1 19 18
M  V30 19 1 20 19
M  V30 20 2 21 19
M  V30 21 1 22 21
M  V30 22 2 23 22
M  V30 23 1 23 17
M  V30 24 2 24 15
M  V30 25 2 25 12
M  V30 26 1 25 2
M  V30 27 1 26 1
M  V30 28 1 27 1
M  V30 29 1 28 1
M  V30 30 1 29 3
M  V30 31 1 30 14
M  V30 32 1 31 14
M  V30 33 1 32 16
M  V30 34 1 33 20
M  V30 35 1 34 20
M  V30 36 1 35 20
M  V30 37 1 36 21
M  V30 38 1 37 22
M  V30 39 1 38 23
M  V30 END BOND
M  V30 END CTAB
M  END
>  <i_epik_Tot_Q>  (16) 
0

>  <i_epik_Tot_abs_Q>  (16) 
0

>  <i_f3d_flags>  (16) 
0

>  <i_lp_mmshare_version>  (16) 
71160

>  <i_lp_orig_ion_str>  (16) 
1

>  <i_m_source_file_index>  (16) 
74

>  <b_lp_Chiralities_Consistent>  (16) 
1

>  <r_epik_Charging_Adjusted_Penalty>  (16) 
0

>  <r_epik_Ionization_Penalty>  (16) 
0.0019067665515566238

>  <r_epik_Ionization_Penalty_Charging>  (16) 
0

>  <r_epik_Ionization_Penalty_Neutral>  (16) 
0.0019067665515566238

>  <r_epik_State_Penalty>  (16) 
-0

>  <r_lp_Energy>  (16) 
32.223723

>  <r_lp_tautomer_probability>  (16) 
1

>  <s_epik_cmdline>  (16) 
J2VwaWtfcHl0aG9uJywgJy1waHQnLCAnMC4yJywgJy1waCcsICc3LjQnLCAnLXJldGFpbl9pX2xhYicsICctcmV0YWluX3RfbGFiJywgJy10bicsICcxJywgJy1tYScsICc1MDAnLCAnLWltYWUnLCAnPGluZmlsZS5tYWU+JywgJy1vbWFlJywgJzxvdXRmaWxlLm1hZT4n

>  <s_epik_input>  (16) 
W0NIM11jMVtjSF1jKEMoRikoRilGKWMoQyNOKWMobjEpU1tDSDJdQyg9TylbTkhdYzJuYyhbQ0gzXSlbY0hdW2NIXVtjSF0y

>  <s_lp_Force_Field>  (16) 
S-OPLS

>  <s_lp_Variant>  (16) 
2e_Grossjean_2025-1

>  <s_lp_label>  (16) 
74

>  <s_m_source_file>  (16) 
montpellier_ligands.smi

$$$$
2f_Grossjean_2025
     RDKit          3D

  0  0  0  0  0  0  0  0  0  0999 V3000
M  V30 BEGIN CTAB
M  V30 COUNTS 35 36 0 0 1
M  V30 BEGIN ATOM
M  V30 1 C -2.645110 2.653913 0.831860 0
M  V30 2 C -2.063918 1.313872 0.422248 0
M  V30 3 C -2.878774 0.252274 0.036767 0
M  V30 4 C -2.294165 -0.970637 -0.325645 0
M  V30 5 C -3.212697 -2.137106 -0.737267 0
M  V30 6 F -2.905967 -2.550762 -1.967644 0
M  V30 7 F -3.062943 -3.155332 0.110808 0
M  V30 8 F -4.504656 -1.801584 -0.739079 0
M  V30 9 C -0.880328 -1.081986 -0.294563 0
M  V30 10 C -0.225116 -2.354321 -0.610404 0
M  V30 11 N 0.291672 -3.359272 -0.860229 0
M  V30 12 C -0.130678 0.058386 0.083633 0
M  V30 13 S 1.648207 0.101691 0.167278 0
M  V30 14 C 2.303675 -0.508818 -1.423248 0
M  V30 15 C 3.460834 0.313354 -2.009038 0
M  V30 16 N 3.903832 -0.120306 -3.209043 0
M  V30 17 C 4.941838 0.385099 -4.014557 0
M  V30 18 C 5.036442 -0.121896 -5.315637 0
M  V30 19 N 5.986457 0.269566 -6.202900 0
M  V30 20 C 6.889255 1.196576 -5.795215 0
M  V30 21 C 6.880021 1.751553 -4.515416 0
M  V30 22 C 5.895996 1.339137 -3.614565 0
M  V30 23 O 3.905317 1.291250 -1.406057 0
M  V30 24 N -0.715237 1.224463 0.453436 0
M  V30 25 H -3.735450 2.647497 0.801974 0
M  V30 26 H -2.295172 3.440483 0.162249 0
M  V30 27 H -2.338464 2.908556 1.847132 0
M  V30 28 H -3.951257 0.382989 0.029876 0
M  V30 29 H 2.653375 -1.530845 -1.272798 0
M  V30 30 H 1.490633 -0.545929 -2.149223 0
M  V30 31 H 3.405598 -0.899571 -3.613599 0
M  V30 32 H 4.335251 -0.860251 -5.677891 0
M  V30 33 H 7.635327 1.492494 -6.517896 0
M  V30 34 H 7.619841 2.483347 -4.226125 0
M  V30 35 H 5.907591 1.764889 -2.624110 0
M  V30 END ATOM
M  V30 BEGIN BOND
M  V30 1 1 2 1
M  V30 2 2 3 2
M  V30 3 1 4 3
M  V30 4 1 5 4
M  V30 5 1 6 5
M  V30 6 1 7 5
M  V30 7 1 8 5
M  V30 8 2 9 4
M  V30 9 1 10 9
M  V30 10 3 11 10
M  V30 11 1 12 9
M  V30 12 1 13 12
M  V30 13 1 14 13
M  V30 14 1 15 14
M  V30 15 1 16 15
M  V30 16 1 17 16
M  V30 17 2 18 17
M  V30 18 1 19 18
M  V30 19 2 20 19
M  V30 20 1 21 20
M  V30 21 2 22 21
M  V30 22 1 22 17
M  V30 23 2 23 15
M  V30 24 2 24 12
M  V30 25 1 24 2
M  V30 26 1 25 1
M  V30 27 1 26 1
M  V30 28 1 27 1
M  V30 29 1 28 3
M  V30 30 1 29 14
M  V30 31 1 30 14
M  V30 32 1 31 16
M  V30 33 1 32 18
M  V30 34 1 33 20
M  V30 35 1 34 21
M  V30 36 1 35 22
M  V30 END BOND
M  V30 END CTAB
M  END
>  <i_epik_Tot_Q>  (17) 
0

>  <i_epik_Tot_abs_Q>  (17) 
0

>  <i_f3d_flags>  (17) 
0

>  <i_lp_mmshare_version>  (17) 
71160

>  <i_lp_orig_ion_str>  (17) 
1

>  <i_m_source_file_index>  (17) 
75

>  <b_lp_Chiralities_Consistent>  (17) 
1

>  <r_epik_Charging_Adjusted_Penalty>  (17) 
0

>  <r_epik_Ionization_Penalty>  (17) 
0.00066000181189882271

>  <r_epik_Ionization_Penalty_Charging>  (17) 
0

>  <r_epik_Ionization_Penalty_Neutral>  (17) 
0.00066000181189882271

>  <r_epik_State_Penalty>  (17) 
-0

>  <r_lp_Energy>  (17) 
34.779519999999998

>  <r_lp_tautomer_probability>  (17) 
1

>  <s_epik_cmdline>  (17) 
J2VwaWtfcHl0aG9uJywgJy1waHQnLCAnMC4yJywgJy1waCcsICc3LjQnLCAnLXJldGFpbl9pX2xhYicsICctcmV0YWluX3RfbGFiJywgJy10bicsICcxJywgJy1tYScsICc1MDAnLCAnLWltYWUnLCAnPGluZmlsZS5tYWU+JywgJy1vbWFlJywgJzxvdXRmaWxlLm1hZT4n

>  <s_epik_input>  (17) 
W0NIM11jMVtjSF1jKEMoRikoRilGKWMoQyNOKWMobjEpU1tDSDJdQyg9TylbTkhdYzJbY0hdbltjSF1bY0hdW2NIXTI=

>  <s_lp_Force_Field>  (17) 
S-OPLS

>  <s_lp_Variant>  (17) 
2f_Grossjean_2025-1

>  <s_lp_label>  (17) 
75

>  <s_m_source_file>  (17) 
montpellier_ligands.smi

$$$$
2g_Grossjean_2025
     RDKit          3D

  0  0  0  0  0  0  0  0  0  0999 V3000
M  V30 BEGIN CTAB
M  V30 COUNTS 39 40 0 0 1
M  V30 BEGIN ATOM
M  V30 1 C -3.145465 2.497242 0.742878 0
M  V30 2 C -2.382813 1.227478 0.415593 0
M  V30 3 C -3.041516 0.046945 0.080305 0
M  V30 4 C -2.292355 -1.104075 -0.207426 0
M  V30 5 C -3.038548 -2.402862 -0.568056 0
M  V30 6 F -2.637700 -2.850558 -1.758916 0
M  V30 7 F -2.791137 -3.337390 0.350609 0
M  V30 8 F -4.361847 -2.237695 -0.629382 0
M  V30 9 C -0.877327 -1.022533 -0.153084 0
M  V30 10 C -0.049367 -2.209133 -0.388039 0
M  V30 11 N 0.604212 -3.145884 -0.574025 0
M  V30 12 C -0.294404 0.226934 0.168184 0
M  V30 13 S 1.460988 0.511059 0.254664 0
M  V30 14 C 2.180315 -0.008930 -1.339970 0
M  V30 15 C 3.008536 1.069083 -2.052352 0
M  V30 16 N 3.355944 0.787280 -3.321085 0
M  V30 17 C 4.149067 1.650535 -4.197050 0
M  V30 18 C 5.612726 1.783500 -3.791042 0
M  V30 19 C 6.515960 0.762129 -4.099343 0
M  V30 20 C 7.860500 0.897771 -3.763437 0
M  V30 21 C 8.299576 2.058213 -3.129580 0
M  V30 22 C 7.407354 3.086086 -2.831694 0
M  V30 23 C 6.063120 2.951385 -3.168485 0
M  V30 24 O 3.320755 2.117628 -1.484741 0
M  V30 25 N -1.035143 1.322553 0.465382 0
M  V30 26 H -4.221796 2.324285 0.773995 0
M  V30 27 H -2.948107 3.262151 -0.009067 0
M  V30 28 H -2.840992 2.887574 1.714802 0
M  V30 29 H -4.121396 0.031936 0.052777 0
M  V30 30 H 2.802228 -0.890187 -1.180036 0
M  V30 31 H 1.365139 -0.304336 -2.001118 0
M  V30 32 H 3.083214 -0.104939 -3.706716 0
M  V30 33 H 4.108788 1.223915 -5.200070 0
M  V30 34 H 3.681291 2.633996 -4.280755 0
M  V30 35 H 6.176862 -0.135756 -4.595303 0
M  V30 36 H 8.560125 0.108377 -3.995609 0
M  V30 37 H 9.342633 2.163875 -2.870102 0
M  V30 38 H 7.756854 3.984474 -2.344689 0
M  V30 39 H 5.373224 3.751168 -2.940330 0
M  V30 END ATOM
M  V30 BEGIN BOND
M  V30 1 1 2 1
M  V30 2 2 3 2
M  V30 3 1 4 3
M  V30 4 1 5 4
M  V30 5 1 6 5
M  V30 6 1 7 5
M  V30 7 1 8 5
M  V30 8 2 9 4
M  V30 9 1 10 9
M  V30 10 3 11 10
M  V30 11 1 12 9
M  V30 12 1 13 12
M  V30 13 1 14 13
M  V30 14 1 15 14
M  V30 15 1 16 15
M  V30 16 1 17 16
M  V30 17 1 18 17
M  V30 18 2 19 18
M  V30 19 1 20 19
M  V30 20 2 21 20
M  V30 21 1 22 21
M  V30 22 2 23 22
M  V30 23 1 23 18
M  V30 24 2 24 15
M  V30 25 2 25 12
M  V30 26 1 25 2
M  V30 27 1 26 1
M  V30 28 1 27 1
M  V30 29 1 28 1
M  V30 30 1 29 3
M  V30 31 1 30 14
M  V30 32 1 31 14
M  V30 33 1 32 16
M  V30 34 1 33 17
M  V30 35 1 34 17
M  V30 36 1 35 19
M  V30 37 1 36 20
M  V30 38 1 37 21
M  V30 39 1 38 22
M  V30 40 1 39 23
M  V30 END BOND
M  V30 END CTAB
M  END
>  <i_epik_Tot_Q>  (18) 
0

>  <i_epik_Tot_abs_Q>  (18) 
0

>  <i_f3d_flags>  (18) 
0

>  <i_lp_mmshare_version>  (18) 
71160

>  <i_lp_orig_ion_str>  (18) 
1

>  <i_m_source_file_index>  (18) 
76

>  <b_lp_Chiralities_Consistent>  (18) 
1

>  <r_epik_Charging_Adjusted_Penalty>  (18) 
0

>  <r_epik_Ionization_Penalty>  (18) 
4.1123963330532114e-07

>  <r_epik_Ionization_Penalty_Charging>  (18) 
0

>  <r_epik_Ionization_Penalty_Neutral>  (18) 
4.1123963330532114e-07

>  <r_epik_State_Penalty>  (18) 
-0

>  <r_lp_Energy>  (18) 
28.040109999999999

>  <r_lp_tautomer_probability>  (18) 
1

>  <s_epik_cmdline>  (18) 
J2VwaWtfcHl0aG9uJywgJy1waHQnLCAnMC4yJywgJy1waCcsICc3LjQnLCAnLXJldGFpbl9pX2xhYicsICctcmV0YWluX3RfbGFiJywgJy10bicsICcxJywgJy1tYScsICc1MDAnLCAnLWltYWUnLCAnPGluZmlsZS5tYWU+JywgJy1vbWFlJywgJzxvdXRmaWxlLm1hZT4n

>  <s_epik_input>  (18) 
W0NIM11jMVtjSF1jKEMoRikoRilGKWMoQyNOKWMobjEpU1tDSDJdQyg9TylbTkhdW0NIMl1jMltjSF1bY0hdW2NIXVtjSF1bY0hdMg==

>  <s_lp_Force_Field>  (18) 
S-OPLS

>  <s_lp_Variant>  (18) 
2g_Grossjean_2025-1

>  <s_lp_label>  (18) 
76

>  <s_m_source_file>  (18) 
montpellier_ligands.smi

$$$$
2h_Grossjean_2025
     RDKit          3D

  0  0  0  0  0  0  0  0  0  0999 V3000
M  V30 BEGIN CTAB
M  V30 COUNTS 51 52 0 0 1
M  V30 BEGIN ATOM
M  V30 1 C -7.659312 0.419634 0.172256 0
M  V30 2 C -6.302368 0.058675 -0.402179 0
M  V30 3 C -6.062412 -1.186596 -0.978256 0
M  V30 4 C -4.794293 -1.469881 -1.507751 0
M  V30 5 C -4.550113 -2.849516 -2.148871 0
M  V30 6 F -3.562110 -3.478512 -1.511713 0
M  V30 7 F -5.624875 -3.639756 -2.099088 0
M  V30 8 F -4.215853 -2.707318 -3.431963 0
M  V30 9 C -3.790275 -0.471042 -1.432022 0
M  V30 10 C -2.467897 -0.694664 -2.022751 0
M  V30 11 N -1.426235 -0.872634 -2.493277 0
M  V30 12 C -4.116978 0.755113 -0.805137 0
M  V30 13 S -2.966040 2.097401 -0.601161 0
M  V30 14 C -1.641789 1.493086 0.498661 0
M  V30 15 C -0.251464 1.409518 -0.144688 0
M  V30 16 N 0.651956 0.665696 0.518219 0
M  V30 17 C 2.001218 0.362230 0.040329 0
M  V30 18 C 2.029144 -0.609283 -1.139020 0
M  V30 19 C 1.559466 -1.924285 -1.003491 0
M  V30 20 O 1.063383 -2.351112 0.205763 0
M  V30 21 C 1.955978 -3.169534 0.949919 0
M  V30 22 C 1.559765 -2.786629 -2.111676 0
M  V30 23 O 1.082904 -4.069664 -1.986622 0
M  V30 24 C -0.329165 -4.178563 -2.104033 0
M  V30 25 C 2.063125 -2.358320 -3.347375 0
M  V30 26 O 2.040881 -3.268326 -4.388897 0
M  V30 27 C 2.530626 -2.877570 -5.666975 0
M  V30 28 C 2.552221 -1.046963 -3.462031 0
M  V30 29 C 2.533888 -0.184141 -2.369311 0
M  V30 30 O -0.001908 1.988684 -1.203757 0
M  V30 31 N -5.353548 1.018309 -0.315801 0
M  V30 32 H -8.356522 -0.417426 0.117689 0
M  V30 33 H -8.093680 1.255889 -0.376721 0
M  V30 34 H -7.566218 0.710201 1.219464 0
M  V30 35 H -6.858731 -1.915554 -1.016283 0
M  V30 36 H -1.592112 2.124065 1.386366 0
M  V30 37 H -1.929863 0.496456 0.836169 0
M  V30 38 H 0.363269 0.195718 1.363600 0
M  V30 39 H 2.521012 1.290844 -0.205595 0
M  V30 40 H 2.555433 -0.086084 0.865525 0
M  V30 41 H 1.503965 -3.415351 1.910614 0
M  V30 42 H 2.898745 -2.656921 1.148122 0
M  V30 43 H 2.171285 -4.107461 0.436178 0
M  V30 44 H -0.620096 -5.226280 -2.031883 0
M  V30 45 H -0.683739 -3.800203 -3.064538 0
M  V30 46 H -0.839438 -3.637273 -1.305873 0
M  V30 47 H 2.432664 -3.712673 -6.360058 0
M  V30 48 H 3.586312 -2.605521 -5.625121 0
M  V30 49 H 1.960475 -2.041721 -6.075377 0
M  V30 50 H 2.945858 -0.674948 -4.395463 0
M  V30 51 H 2.903915 0.823993 -2.487730 0
M  V30 END ATOM
M  V30 BEGIN BOND
M  V30 1 1 2 1
M  V30 2 2 3 2
M  V30 3 1 4 3
M  V30 4 1 5 4
M  V30 5 1 6 5
M  V30 6 1 7 5
M  V30 7 1 8 5
M  V30 8 2 9 4
M  V30 9 1 10 9
M  V30 10 3 11 10
M  V30 11 1 12 9
M  V30 12 1 13 12
M  V30 13 1 14 13
M  V30 14 1 15 14
M  V30 15 1 16 15
M  V30 16 1 17 16
M  V30 17 1 18 17
M  V30 18 2 19 18
M  V30 19 1 20 19
M  V30 20 1 21 20
M  V30 21 1 22 19
M  V30 22 1 23 22
M  V30 23 1 24 23
M  V30 24 2 25 22
M  V30 25 1 26 25
M  V30 26 1 27 26
M  V30 27 1 28 25
M  V30 28 2 29 28
M  V30 29 1 29 18
M  V30 30 2 30 15
M  V30 31 2 31 12
M  V30 32 1 31 2
M  V30 33 1 32 1
M  V30 34 1 33 1
M  V30 35 1 34 1
M  V30 36 1 35 3
M  V30 37 1 36 14
M  V30 38 1 37 14
M  V30 39 1 38 16
M  V30 40 1 39 17
M  V30 41 1 40 17
M  V30 42 1 41 21
M  V30 43 1 42 21
M  V30 44 1 43 21
M  V30 45 1 44 24
M  V30 46 1 45 24
M  V30 47 1 46 24
M  V30 48 1 47 27
M  V30 49 1 48 27
M  V30 50 1 49 27
M  V30 51 1 50 28
M  V30 52 1 51 29
M  V30 END BOND
M  V30 END CTAB
M  END
>  <i_epik_Tot_Q>  (19) 
0

>  <i_epik_Tot_abs_Q>  (19) 
0

>  <i_f3d_flags>  (19) 
0

>  <i_lp_mmshare_version>  (19) 
71160

>  <i_lp_orig_ion_str>  (19) 
1

>  <i_m_source_file_index>  (19) 
77

>  <b_lp_Chiralities_Consistent>  (19) 
1

>  <r_epik_Charging_Adjusted_Penalty>  (19) 
0

>  <r_epik_Ionization_Penalty>  (19) 
4.112712933287647e-07

>  <r_epik_Ionization_Penalty_Charging>  (19) 
0

>  <r_epik_Ionization_Penalty_Neutral>  (19) 
4.112712933287647e-07

>  <r_epik_State_Penalty>  (19) 
-0

>  <r_lp_Energy>  (19) 
40.199345999999998

>  <r_lp_tautomer_probability>  (19) 
1

>  <s_epik_cmdline>  (19) 
J2VwaWtfcHl0aG9uJywgJy1waHQnLCAnMC4yJywgJy1waCcsICc3LjQnLCAnLXJldGFpbl9pX2xhYicsICctcmV0YWluX3RfbGFiJywgJy10bicsICcxJywgJy1tYScsICc1MDAnLCAnLWltYWUnLCAnPGluZmlsZS5tYWU+JywgJy1vbWFlJywgJzxvdXRmaWxlLm1hZT4n

>  <s_epik_input>  (19) 
W0NIM11jMVtjSF1jKEMoRikoRilGKWMoQyNOKWMobjEpU1tDSDJdQyg9TylbTkhdW0NIMl1jMmMoT1tDSDNdKWMoT1tDSDNdKWMoT1tDSDNdKVtjSF1bY0hdMg==

>  <s_lp_Force_Field>  (19) 
S-OPLS

>  <s_lp_Variant>  (19) 
2h_Grossjean_2025-1

>  <s_lp_label>  (19) 
77

>  <s_m_source_file>  (19) 
montpellier_ligands.smi

$$$$
2i_Grossjean_2025
     RDKit          3D

  0  0  0  0  0  0  0  0  0  0999 V3000
M  V30 BEGIN CTAB
M  V30 COUNTS 32 33 0 0 1
M  V30 BEGIN ATOM
M  V30 1 C -2.781954 2.404691 -0.209304 0
M  V30 2 C -2.150547 1.025224 -0.212844 0
M  V30 3 C -2.868909 -0.106941 0.163130 0
M  V30 4 C -2.241212 -1.361433 0.140422 0
M  V30 5 C -3.050221 -2.603269 0.559885 0
M  V30 6 F -3.112711 -3.469815 -0.451919 0
M  V30 7 F -2.469083 -3.197126 1.603105 0
M  V30 8 F -4.303015 -2.308079 0.913676 0
M  V30 9 C -0.885079 -1.432432 -0.268549 0
M  V30 10 C -0.179672 -2.717295 -0.313009 0
M  V30 11 N 0.376549 -3.731440 -0.348234 0
M  V30 12 C -0.231185 -0.231592 -0.632191 0
M  V30 13 S 1.476331 -0.198264 -1.155271 0
M  V30 14 C 1.931194 1.531350 -1.487107 0
M  V30 15 C 3.408067 1.680793 -1.857298 0
M  V30 16 N 3.660579 2.028951 -3.137104 0
M  V30 17 C 4.905810 2.241376 -3.705663 0
M  V30 18 N 4.969364 2.686062 -4.942345 0
M  V30 19 O 6.324363 2.806541 -5.258024 0
M  V30 20 C 7.047105 2.414049 -4.181508 0
M  V30 21 C 6.188233 2.041241 -3.173924 0
M  V30 22 O 4.263899 1.506479 -0.988211 0
M  V30 23 N -0.857538 0.972385 -0.604368 0
M  V30 24 H -3.793551 2.383985 0.198285 0
M  V30 25 H -2.835513 2.799574 -1.224413 0
M  V30 26 H -2.191650 3.094602 0.394968 0
M  V30 27 H -3.900670 -0.003642 0.466482 0
M  V30 28 H 1.278424 1.950984 -2.254411 0
M  V30 29 H 1.747641 2.103794 -0.576844 0
M  V30 30 H 2.870761 2.183819 -3.746340 0
M  V30 31 H 8.122451 2.449972 -4.277711 0
M  V30 32 H 6.460934 1.677233 -2.194748 0
M  V30 END ATOM
M  V30 BEGIN BOND
M  V30 1 1 2 1
M  V30 2 2 3 2
M  V30 3 1 4 3
M  V30 4 1 5 4
M  V30 5 1 6 5
M  V30 6 1 7 5
M  V30 7 1 8 5
M  V30 8 2 9 4
M  V30 9 1 10 9
M  V30 10 3 11 10
M  V30 11 1 12 9
M  V30 12 1 13 12
M  V30 13 1 14 13
M  V30 14 1 15 14
M  V30 15 1 16 15
M  V30 16 1 17 16
M  V30 17 2 18 17
M  V30 18 1 19 18
M  V30 19 1 20 19
M  V30 20 2 21 20
M  V30 21 1 21 17
M  V30 22 2 22 15
M  V30 23 2 23 12
M  V30 24 1 23 2
M  V30 25 1 24 1
M  V30 26 1 25 1
M  V30 27 1 26 1
M  V30 28 1 27 3
M  V30 29 1 28 14
M  V30 30 1 29 14
M  V30 31 1 30 16
M  V30 32 1 31 20
M  V30 33 1 32 21
M  V30 END BOND
M  V30 END CTAB
M  END
>  <i_epik_Tot_Q>  (20) 
0

>  <i_epik_Tot_abs_Q>  (20) 
0

>  <i_f3d_flags>  (20) 
0

>  <i_lp_mmshare_version>  (20) 
71160

>  <i_lp_orig_ion_str>  (20) 
1

>  <i_m_source_file_index>  (20) 
78

>  <b_lp_Chiralities_Consistent>  (20) 
1

>  <r_epik_Charging_Adjusted_Penalty>  (20) 
0

>  <r_epik_Ionization_Penalty>  (20) 
0.0010324642367399227

>  <r_epik_Ionization_Penalty_Charging>  (20) 
0

>  <r_epik_Ionization_Penalty_Neutral>  (20) 
0.0010324642367399227

>  <r_epik_State_Penalty>  (20) 
-0

>  <r_lp_Energy>  (20) 
19.872458999999999

>  <r_lp_tautomer_probability>  (20) 
1

>  <s_epik_cmdline>  (20) 
J2VwaWtfcHl0aG9uJywgJy1waHQnLCAnMC4yJywgJy1waCcsICc3LjQnLCAnLXJldGFpbl9pX2xhYicsICctcmV0YWluX3RfbGFiJywgJy10bicsICcxJywgJy1tYScsICc1MDAnLCAnLWltYWUnLCAnPGluZmlsZS5tYWU+JywgJy1vbWFlJywgJzxvdXRmaWxlLm1hZT4n

>  <s_epik_input>  (20) 
W0NIM11jMVtjSF1jKEMoRikoRilGKWMoQyNOKWMobjEpU1tDSDJdQyg9TylbTkhdYzJub1tjSF1bY0hdMg==

>  <s_lp_Force_Field>  (20) 
S-OPLS

>  <s_lp_Variant>  (20) 
2i_Grossjean_2025-1

>  <s_lp_label>  (20) 
78

>  <s_m_source_file>  (20) 
montpellier_ligands.smi

$$$$
2j_Grossjean_2025
     RDKit          3D

  0  0  0  0  0  0  0  0  0  0999 V3000
M  V30 BEGIN CTAB
M  V30 COUNTS 32 33 0 0 1
M  V30 BEGIN ATOM
M  V30 1 C -2.713288 2.386701 -0.383213 0
M  V30 2 C -2.128025 0.990121 -0.291167 0
M  V30 3 C -2.874365 -0.082777 0.189937 0
M  V30 4 C -2.290116 -1.356617 0.253274 0
M  V30 5 C -3.129710 -2.532642 0.787138 0
M  V30 6 F -3.243346 -3.475067 -0.149721 0
M  V30 7 F -2.544974 -3.060598 1.863139 0
M  V30 8 F -4.363937 -2.167243 1.140354 0
M  V30 9 C -0.947722 -1.507518 -0.178306 0
M  V30 10 C -0.286882 -2.815978 -0.134399 0
M  V30 11 N 0.234111 -3.848759 -0.099600 0
M  V30 12 C -0.263503 -0.363229 -0.652439 0
M  V30 13 S 1.427749 -0.435654 -1.221542 0
M  V30 14 C 1.942038 1.244854 -1.714319 0
M  V30 15 C 3.427819 1.386329 -2.075489 0
M  V30 16 N 3.755996 2.550168 -2.679187 0
M  V30 17 C 5.018936 2.934307 -3.109719 0
M  V30 18 N 6.140358 2.249993 -3.034202 0
M  V30 19 C 7.153893 2.921008 -3.545319 0
M  V30 20 C 6.863023 4.183943 -4.051923 0
M  V30 21 S 5.166145 4.499426 -3.843107 0
M  V30 22 O 4.228791 0.487571 -1.807173 0
M  V30 23 N -0.847937 0.860748 -0.707237 0
M  V30 24 H -3.706898 2.437517 0.063428 0
M  V30 25 H -2.796007 2.694299 -1.426217 0
M  V30 26 H -2.077058 3.104783 0.135653 0
M  V30 27 H -3.894191 0.080222 0.507063 0
M  V30 28 H 1.344899 1.511437 -2.587558 0
M  V30 29 H 1.692265 1.954814 -0.925229 0
M  V30 30 H 3.015890 3.217913 -2.838439 0
M  V30 31 H 8.133842 2.466828 -3.544193 0
M  V30 32 H 7.524648 4.903284 -4.511839 0
M  V30 END ATOM
M  V30 BEGIN BOND
M  V30 1 1 2 1
M  V30 2 2 3 2
M  V30 3 1 4 3
M  V30 4 1 5 4
M  V30 5 1 6 5
M  V30 6 1 7 5
M  V30 7 1 8 5
M  V30 8 2 9 4
M  V30 9 1 10 9
M  V30 10 3 11 10
M  V30 11 1 12 9
M  V30 12 1 13 12
M  V30 13 1 14 13
M  V30 14 1 15 14
M  V30 15 1 16 15
M  V30 16 1 17 16
M  V30 17 2 18 17
M  V30 18 1 19 18
M  V30 19 2 20 19
M  V30 20 1 21 20
M  V30 21 1 21 17
M  V30 22 2 22 15
M  V30 23 2 23 12
M  V30 24 1 23 2
M  V30 25 1 24 1
M  V30 26 1 25 1
M  V30 27 1 26 1
M  V30 28 1 27 3
M  V30 29 1 28 14
M  V30 30 1 29 14
M  V30 31 1 30 16
M  V30 32 1 31 19
M  V30 33 1 32 20
M  V30 END BOND
M  V30 END CTAB
M  END
>  <i_epik_Tot_Q>  (21) 
0

>  <i_epik_Tot_abs_Q>  (21) 
0

>  <i_f3d_flags>  (21) 
0

>  <i_lp_mmshare_version>  (21) 
71160

>  <i_lp_orig_ion_str>  (21) 
1

>  <i_m_source_file_index>  (21) 
79

>  <b_lp_Chiralities_Consistent>  (21) 
1

>  <r_epik_Charging_Adjusted_Penalty>  (21) 
0

>  <r_epik_Ionization_Penalty>  (21) 
0.0076629188392071997

>  <r_epik_Ionization_Penalty_Charging>  (21) 
0

>  <r_epik_Ionization_Penalty_Neutral>  (21) 
0.0076629188392071997

>  <r_epik_State_Penalty>  (21) 
-0

>  <r_lp_Energy>  (21) 
25.616902

>  <r_lp_tautomer_probability>  (21) 
1

>  <s_epik_cmdline>  (21) 
J2VwaWtfcHl0aG9uJywgJy1waHQnLCAnMC4yJywgJy1waCcsICc3LjQnLCAnLXJldGFpbl9pX2xhYicsICctcmV0YWluX3RfbGFiJywgJy10bicsICcxJywgJy1tYScsICc1MDAnLCAnLWltYWUnLCAnPGluZmlsZS5tYWU+JywgJy1vbWFlJywgJzxvdXRmaWxlLm1hZT4n

>  <s_epik_input>  (21) 
W0NIM11jMVtjSF1jKEMoRikoRilGKWMoQyNOKWMobjEpU1tDSDJdQyg9TylbTkhdYzJuW2NIXVtjSF1zMg==

>  <s_lp_Force_Field>  (21) 
S-OPLS

>  <s_lp_Variant>  (21) 
2j_Grossjean_2025-1

>  <s_lp_label>  (21) 
79

>  <s_m_source_file>  (21) 
montpellier_ligands.smi

$$$$
2k_Grossjean_2025
     RDKit          3D

  0  0  0  0  0  0  0  0  0  0999 V3000
M  V30 BEGIN CTAB
M  V30 COUNTS 50 50 0 0 1
M  V30 BEGIN ATOM
M  V30 1 N -3.098493 6.448694 -4.929823 0
M  V30 2 C -3.439445 5.887288 -3.976948 0
M  V30 3 C -3.872284 5.176180 -2.769638 0
M  V30 4 C -2.944332 4.828335 -1.759656 0
M  V30 5 S -1.207174 5.232084 -1.886074 0
M  V30 6 C -0.313696 4.523393 -0.459077 0
M  V30 7 C -0.260564 2.989276 -0.411629 0
M  V30 8 N 0.029615 2.451361 0.787770 0
M  V30 9 C 0.188360 1.020805 1.064880 0
M  V30 10 C 1.621298 0.514707 0.814931 0
M  V30 11 O 1.942524 0.702493 -0.554730 0
M  V30 12 C 3.319643 0.576693 -0.874440 0
M  V30 13 C 3.507889 1.026219 -2.328660 0
M  V30 14 O 3.014371 2.353521 -2.457130 0
M  V30 15 C 3.048296 2.864117 -3.781549 0
M  V30 16 C 2.396537 4.253386 -3.800043 0
M  V30 17 O 3.110721 5.128585 -2.936725 0
M  V30 18 C 2.574064 6.441636 -2.894072 0
M  V30 19 O -0.458545 2.317151 -1.425745 0
M  V30 20 N -3.315712 4.173612 -0.630189 0
M  V30 21 C -4.613804 3.832996 -0.470014 0
M  V30 22 C -4.946627 3.094531 0.812487 0
M  V30 23 C -5.592050 4.136475 -1.413419 0
M  V30 24 C -5.232498 4.819361 -2.584922 0
M  V30 25 C -6.327648 5.151135 -3.616246 0
M  V30 26 F -7.536409 4.727632 -3.240131 0
M  V30 27 F -6.403388 6.470681 -3.794331 0
M  V30 28 F -6.045808 4.572828 -4.784493 0
M  V30 29 H 0.699049 4.925422 -0.423904 0
M  V30 30 H -0.824091 4.885016 0.434589 0
M  V30 31 H 0.162203 3.072715 1.572302 0
M  V30 32 H -0.080350 0.847687 2.107297 0
M  V30 33 H -0.519865 0.439989 0.470257 0
M  V30 34 H 2.311873 1.067825 1.455101 0
M  V30 35 H 1.707022 -0.542383 1.070352 0
M  V30 36 H 3.928640 1.204430 -0.220995 0
M  V30 37 H 3.645452 -0.456465 -0.744854 0
M  V30 38 H 4.564065 0.987231 -2.600686 0
M  V30 39 H 2.966829 0.350490 -2.993640 0
M  V30 40 H 4.079274 2.927845 -4.133498 0
M  V30 41 H 2.506667 2.201507 -4.459277 0
M  V30 42 H 2.398050 4.644037 -4.819252 0
M  V30 43 H 1.355982 4.172965 -3.479520 0
M  V30 44 H 3.168395 7.055505 -2.217355 0
M  V30 45 H 1.546851 6.441458 -2.527986 0
M  V30 46 H 2.594878 6.913079 -3.877937 0
M  V30 47 H -5.989638 2.776473 0.835413 0
M  V30 48 H -4.770169 3.736323 1.676258 0
M  V30 49 H -4.323083 2.205222 0.915245 0
M  V30 50 H -6.615163 3.842237 -1.229773 0
M  V30 END ATOM
M  V30 BEGIN BOND
M  V30 1 3 2 1
M  V30 2 1 3 2
M  V30 3 1 4 3
M  V30 4 1 5 4
M  V30 5 1 6 5
M  V30 6 1 7 6
M  V30 7 1 8 7
M  V30 8 1 9 8
M  V30 9 1 10 9
M  V30 10 1 11 10
M  V30 11 1 12 11
M  V30 12 1 13 12
M  V30 13 1 14 13
M  V30 14 1 15 14
M  V30 15 1 16 15
M  V30 16 1 17 16
M  V30 17 1 18 17
M  V30 18 2 19 7
M  V30 19 2 20 4
M  V30 20 1 21 20
M  V30 21 1 22 21
M  V30 22 2 23 21
M  V30 23 2 24 3
M  V30 24 1 24 23
M  V30 25 1 25 24
M  V30 26 1 26 25
M  V30 27 1 27 25
M  V30 28 1 28 25
M  V30 29 1 29 6
M  V30 30 1 30 6
M  V30 31 1 31 8
M  V30 32 1 32 9
M  V30 33 1 33 9
M  V30 34 1 34 10
M  V30 35 1 35 10
M  V30 36 1 36 12
M  V30 37 1 37 12
M  V30 38 1 38 13
M  V30 39 1 39 13
M  V30 40 1 40 15
M  V30 41 1 41 15
M  V30 42 1 42 16
M  V30 43 1 43 16
M  V30 44 1 44 18
M  V30 45 1 45 18
M  V30 46 1 46 18
M  V30 47 1 47 22
M  V30 48 1 48 22
M  V30 49 1 49 22
M  V30 50 1 50 23
M  V30 END BOND
M  V30 END CTAB
M  END
>  <i_epik_Tot_Q>  (22) 
0

>  <i_epik_Tot_abs_Q>  (22) 
0

>  <i_f3d_flags>  (22) 
0

>  <i_lp_mmshare_version>  (22) 
71160

>  <i_lp_orig_ion_str>  (22) 
1

>  <i_m_source_file_index>  (22) 
80

>  <b_lp_Chiralities_Consistent>  (22) 
1

>  <r_epik_Charging_Adjusted_Penalty>  (22) 
0

>  <r_epik_Ionization_Penalty>  (22) 
3.3645412564625046e-07

>  <r_epik_Ionization_Penalty_Charging>  (22) 
0

>  <r_epik_Ionization_Penalty_Neutral>  (22) 
3.3645412564625046e-07

>  <r_epik_State_Penalty>  (22) 
-0

>  <r_lp_Energy>  (22) 
19.860274

>  <r_lp_tautomer_probability>  (22) 
1

>  <s_epik_cmdline>  (22) 
J2VwaWtfcHl0aG9uJywgJy1waHQnLCAnMC4yJywgJy1waCcsICc3LjQnLCAnLXJldGFpbl9pX2xhYicsICctcmV0YWluX3RfbGFiJywgJy10bicsICcxJywgJy1tYScsICc1MDAnLCAnLWltYWUnLCAnPGluZmlsZS5tYWU+JywgJy1vbWFlJywgJzxvdXRmaWxlLm1hZT4n

>  <s_epik_input>  (22) 
RkMoRikoRiljMVtjSF1jKFtDSDNdKW5jKGMxQyNOKVNbQ0gyXUMoPU8pW05IXVtDSDJdW0NIMl1PW0NIMl1bQ0gyXU9bQ0gyXVtDSDJdT1tDSDNd

>  <s_lp_Force_Field>  (22) 
S-OPLS

>  <s_lp_Variant>  (22) 
2k_Grossjean_2025-1

>  <s_lp_label>  (22) 
80

>  <s_m_source_file>  (22) 
montpellier_ligands.smi

$$$$
3bc_Grossjean_2025
     RDKit          3D

  0  0  0  0  0  0  0  0  0  0999 V3000
M  V30 BEGIN CTAB
M  V30 COUNTS 47 49 0 0 1
M  V30 BEGIN ATOM
M  V30 1 C -0.123028 3.878599 2.285822 0
M  V30 2 C 0.007502 3.457860 0.822920 0
M  V30 3 C 0.406441 2.159498 0.438677 0
M  V30 4 C 0.669303 1.137588 1.454995 0
M  V30 5 N 0.877024 0.332570 2.259809 0
M  V30 6 C 0.508850 1.887133 -0.943731 0
M  V30 7 S 0.998809 0.312559 -1.612560 0
M  V30 8 C 2.631210 -0.107105 -0.913260 0
M  V30 9 C 2.726521 -1.498476 -0.269721 0
M  V30 10 N 3.978362 -1.879648 0.064379 0
M  V30 11 C 4.412316 -3.081832 0.653947 0
M  V30 12 C 5.676708 -3.056498 1.244312 0
M  V30 13 C 6.194679 -4.201642 1.842120 0
M  V30 14 C 5.464201 -5.389635 1.853202 0
M  V30 15 O 6.059561 -6.473534 2.469554 0
M  V30 16 C 5.362676 -7.713989 2.517835 0
M  V30 17 C 4.198150 -5.419549 1.248396 0
M  V30 18 C 3.676191 -4.276238 0.649205 0
M  V30 19 O 1.711058 -2.165224 -0.063978 0
M  V30 20 N 0.201450 2.808797 -1.888968 0
M  V30 21 C -0.192230 4.055291 -1.516466 0
M  V30 22 C -0.494389 5.021755 -2.622359 0
M  V30 23 C -1.370458 6.098469 -2.413652 0
M  V30 24 C -1.655310 6.999822 -3.436083 0
M  V30 25 C -1.065786 6.835268 -4.685232 0
M  V30 26 C -0.196238 5.775167 -4.918808 0
M  V30 27 C 0.085011 4.875467 -3.894191 0
M  V30 28 C -0.284466 4.404558 -0.164501 0
M  V30 29 H -0.413087 4.924466 2.395363 0
M  V30 30 H 0.824877 3.737768 2.806172 0
M  V30 31 H -0.868970 3.264427 2.791635 0
M  V30 32 H 3.336744 -0.068430 -1.744148 0
M  V30 33 H 2.949938 0.654278 -0.201339 0
M  V30 34 H 4.706609 -1.193620 -0.069839 0
M  V30 35 H 6.264606 -2.149575 1.248936 0
M  V30 36 H 7.172534 -4.166370 2.299958 0
M  V30 37 H 5.975266 -8.451113 3.037247 0
M  V30 38 H 5.161008 -8.099315 1.517038 0
M  V30 39 H 4.422212 -7.623106 3.063651 0
M  V30 40 H 3.606200 -6.321775 1.228750 0
M  V30 41 H 2.708884 -4.349446 0.177664 0
M  V30 42 H -1.852378 6.243445 -1.458390 0
M  V30 43 H -2.333398 7.822066 -3.261186 0
M  V30 44 H -1.285937 7.533753 -5.479037 0
M  V30 45 H 0.259168 5.650730 -5.890189 0
M  V30 46 H 0.766766 4.062585 -4.097936 0
M  V30 47 H -0.577143 5.403054 0.124827 0
M  V30 END ATOM
M  V30 BEGIN BOND
M  V30 1 1 2 1
M  V30 2 2 3 2
M  V30 3 1 4 3
M  V30 4 3 5 4
M  V30 5 1 6 3
M  V30 6 1 7 6
M  V30 7 1 8 7
M  V30 8 1 9 8
M  V30 9 1 10 9
M  V30 10 1 11 10
M  V30 11 2 12 11
M  V30 12 1 13 12
M  V30 13 2 14 13
M  V30 14 1 15 14
M  V30 15 1 16 15
M  V30 16 1 17 14
M  V30 17 2 18 17
M  V30 18 1 18 11
M  V30 19 2 19 9
M  V30 20 2 20 6
M  V30 21 1 21 20
M  V30 22 1 22 21
M  V30 23 2 23 22
M  V30 24 1 24 23
M  V30 25 2 25 24
M  V30 26 1 26 25
M  V30 27 2 27 26
M  V30 28 1 27 22
M  V30 29 2 28 21
M  V30 30 1 28 2
M  V30 31 1 29 1
M  V30 32 1 30 1
M  V30 33 1 31 1
M  V30 34 1 32 8
M  V30 35 1 33 8
M  V30 36 1 34 10
M  V30 37 1 35 12
M  V30 38 1 36 13
M  V30 39 1 37 16
M  V30 40 1 38 16
M  V30 41 1 39 16
M  V30 42 1 40 17
M  V30 43 1 41 18
M  V30 44 1 42 23
M  V30 45 1 43 24
M  V30 46 1 44 25
M  V30 47 1 45 26
M  V30 48 1 46 27
M  V30 49 1 47 28
M  V30 END BOND
M  V30 END CTAB
M  END
>  <i_epik_Tot_Q>  (23) 
0

>  <i_epik_Tot_abs_Q>  (23) 
0

>  <i_f3d_flags>  (23) 
0

>  <i_lp_mmshare_version>  (23) 
71160

>  <i_lp_orig_ion_str>  (23) 
1

>  <i_m_source_file_index>  (23) 
81

>  <b_lp_Chiralities_Consistent>  (23) 
1

>  <r_epik_Charging_Adjusted_Penalty>  (23) 
0

>  <r_epik_Ionization_Penalty>  (23) 
7.8821601686739435e-07

>  <r_epik_Ionization_Penalty_Charging>  (23) 
0

>  <r_epik_Ionization_Penalty_Neutral>  (23) 
7.8821601686739435e-07

>  <r_epik_State_Penalty>  (23) 
-0

>  <r_lp_Energy>  (23) 
45.664240999999997

>  <r_lp_tautomer_probability>  (23) 
1

>  <s_epik_cmdline>  (23) 
J2VwaWtfcHl0aG9uJywgJy1waHQnLCAnMC4yJywgJy1waCcsICc3LjQnLCAnLXJldGFpbl9pX2xhYicsICctcmV0YWluX3RfbGFiJywgJy10bicsICcxJywgJy1tYScsICc1MDAnLCAnLWltYWUnLCAnPGluZmlsZS5tYWU+JywgJy1vbWFlJywgJzxvdXRmaWxlLm1hZT4n

>  <s_epik_input>  (23) 
W2NIXTFbY0hdW2NIXVtjSF1bY0hdYzEtYyhbY0hdMiluYyhjKEMjTiljMltDSDNdKVNbQ0gyXUMoPU8pW05IXWMzW2NIXVtjSF1jKE9bQ0gzXSlbY0hdW2NIXTM=

>  <s_lp_Force_Field>  (23) 
S-OPLS

>  <s_lp_Variant>  (23) 
3bc_Grossjean_2025-1

>  <s_lp_label>  (23) 
81

>  <s_m_source_file>  (23) 
montpellier_ligands.smi

$$$$
3bd_Grossjean_2025
     RDKit          3D

  0  0  0  0  0  0  0  0  0  0999 V3000
M  V30 BEGIN CTAB
M  V30 COUNTS 43 45 0 0 1
M  V30 BEGIN ATOM
M  V30 1 C -3.402587 -2.475192 -1.064310 0
M  V30 2 C -2.448822 -1.398884 -0.548746 0
M  V30 3 C -1.090838 -1.659781 -0.266683 0
M  V30 4 C -0.534495 -3.001757 -0.461501 0
M  V30 5 N -0.096014 -4.061523 -0.615312 0
M  V30 6 C -0.298622 -0.592620 0.208646 0
M  V30 7 S 1.430656 -0.793359 0.601894 0
M  V30 8 C 2.063856 0.807082 1.189496 0
M  V30 9 C 3.570894 0.768048 1.444909 0
M  V30 10 N 3.941731 0.577507 2.729780 0
M  V30 11 C 5.236560 0.522816 3.278776 0
M  V30 12 C 5.345144 -0.067486 4.541008 0
M  V30 13 C 6.584747 -0.159065 5.168415 0
M  V30 14 C 7.717076 0.348735 4.536729 0
M  V30 15 C 7.620228 0.952157 3.285377 0
M  V30 16 C 6.382182 1.044078 2.654559 0
M  V30 17 O 4.343050 0.895296 0.494104 0
M  V30 18 N -0.803830 0.652983 0.395270 0
M  V30 19 C -2.109292 0.906646 0.115163 0
M  V30 20 C -2.584334 2.309859 0.352172 0
M  V30 21 C -3.704104 2.813331 -0.328955 0
M  V30 22 C -4.148901 4.115263 -0.114722 0
M  V30 23 C -3.476563 4.934857 0.785742 0
M  V30 24 C -2.362651 4.461889 1.471221 0
M  V30 25 C -1.921026 3.159648 1.254114 0
M  V30 26 C -2.951783 -0.108480 -0.352416 0
M  V30 27 H -4.401078 -2.086023 -1.268251 0
M  V30 28 H -3.492577 -3.281593 -0.335519 0
M  V30 29 H -3.019241 -2.909478 -1.988477 0
M  V30 30 H 1.869217 1.536210 0.401687 0
M  V30 31 H 1.514485 1.147559 2.068688 0
M  V30 32 H 3.199241 0.396614 3.389367 0
M  V30 33 H 4.472391 -0.464280 5.040224 0
M  V30 34 H 6.667918 -0.621880 6.140907 0
M  V30 35 H 8.678540 0.278647 5.023643 0
M  V30 36 H 8.502073 1.352058 2.806890 0
M  V30 37 H 6.337674 1.535478 1.695328 0
M  V30 38 H -4.238109 2.205902 -1.043979 0
M  V30 39 H -5.010938 4.488561 -0.647809 0
M  V30 40 H -3.820129 5.945189 0.952355 0
M  V30 41 H -1.842626 5.101926 2.168743 0
M  V30 42 H -1.056093 2.814647 1.802074 0
M  V30 43 H -3.993243 0.092314 -0.554458 0
M  V30 END ATOM
M  V30 BEGIN BOND
M  V30 1 1 2 1
M  V30 2 2 3 2
M  V30 3 1 4 3
M  V30 4 3 5 4
M  V30 5 1 6 3
M  V30 6 1 7 6
M  V30 7 1 8 7
M  V30 8 1 9 8
M  V30 9 1 10 9
M  V30 10 1 11 10
M  V30 11 2 12 11
M  V30 12 1 13 12
M  V30 13 2 14 13
M  V30 14 1 15 14
M  V30 15 2 16 15
M  V30 16 1 16 11
M  V30 17 2 17 9
M  V30 18 2 18 6
M  V30 19 1 19 18
M  V30 20 1 20 19
M  V30 21 2 21 20
M  V30 22 1 22 21
M  V30 23 2 23 22
M  V30 24 1 24 23
M  V30 25 2 25 24
M  V30 26 1 25 20
M  V30 27 2 26 19
M  V30 28 1 26 2
M  V30 29 1 27 1
M  V30 30 1 28 1
M  V30 31 1 29 1
M  V30 32 1 30 8
M  V30 33 1 31 8
M  V30 34 1 32 10
M  V30 35 1 33 12
M  V30 36 1 34 13
M  V30 37 1 35 14
M  V30 38 1 36 15
M  V30 39 1 37 16
M  V30 40 1 38 21
M  V30 41 1 39 22
M  V30 42 1 40 23
M  V30 43 1 41 24
M  V30 44 1 42 25
M  V30 45 1 43 26
M  V30 END BOND
M  V30 END CTAB
M  END
>  <i_epik_Tot_Q>  (24) 
0

>  <i_epik_Tot_abs_Q>  (24) 
0

>  <i_f3d_flags>  (24) 
0

>  <i_lp_mmshare_version>  (24) 
71160

>  <i_lp_orig_ion_str>  (24) 
1

>  <i_m_source_file_index>  (24) 
82

>  <b_lp_Chiralities_Consistent>  (24) 
1

>  <r_epik_Charging_Adjusted_Penalty>  (24) 
0

>  <r_epik_Ionization_Penalty>  (24) 
4.9930290316708569e-07

>  <r_epik_Ionization_Penalty_Charging>  (24) 
0

>  <r_epik_Ionization_Penalty_Neutral>  (24) 
4.9930290316708569e-07

>  <r_epik_State_Penalty>  (24) 
-0

>  <r_lp_Energy>  (24) 
39.575688

>  <r_lp_tautomer_probability>  (24) 
1

>  <s_epik_cmdline>  (24) 
J2VwaWtfcHl0aG9uJywgJy1waHQnLCAnMC4yJywgJy1waCcsICc3LjQnLCAnLXJldGFpbl9pX2xhYicsICctcmV0YWluX3RfbGFiJywgJy10bicsICcxJywgJy1tYScsICc1MDAnLCAnLWltYWUnLCAnPGluZmlsZS5tYWU+JywgJy1vbWFlJywgJzxvdXRmaWxlLm1hZT4n

>  <s_epik_input>  (24) 
W2NIXTFbY0hdW2NIXVtjSF1bY0hdYzEtYyhbY0hdMiluYyhjKEMjTiljMltDSDNdKVNbQ0gyXUMoPU8pW05IXWMzW2NIXVtjSF1bY0hdW2NIXVtjSF0z

>  <s_lp_Force_Field>  (24) 
S-OPLS

>  <s_lp_Variant>  (24) 
3bd_Grossjean_2025-1

>  <s_lp_label>  (24) 
82

>  <s_m_source_file>  (24) 
montpellier_ligands.smi

$$$$
3be_Grossjean_2025
     RDKit          3D

  0  0  0  0  0  0  0  0  0  0999 V3000
M  V30 BEGIN CTAB
M  V30 COUNTS 45 47 0 0 1
M  V30 BEGIN ATOM
M  V30 1 C -1.813058 -2.202388 -0.174493 0
M  V30 2 C -1.471088 -0.731292 0.057368 0
M  V30 3 C -0.195179 -0.306051 0.486432 0
M  V30 4 C 0.880489 -1.281833 0.677999 0
M  V30 5 N 1.728075 -2.054974 0.829084 0
M  V30 6 C 0.001609 1.078597 0.686514 0
M  V30 7 S 1.535782 1.798935 1.229932 0
M  V30 8 C 2.015224 0.997028 2.798001 0
M  V30 9 C 3.418548 0.372249 2.809659 0
M  V30 10 N 3.765586 -0.214722 3.976439 0
M  V30 11 C 4.962558 -0.876953 4.306947 0
M  V30 12 N 5.934591 -1.122940 3.380206 0
M  V30 13 C 7.057818 -1.777226 3.772342 0
M  V30 14 C 8.093855 -2.014974 2.690646 0
M  V30 15 C 7.258461 -2.210216 5.085187 0
M  V30 16 C 6.259536 -1.958637 6.026641 0
M  V30 17 C 5.098128 -1.287262 5.638215 0
M  V30 18 O 4.139161 0.423595 1.810755 0
M  V30 19 N -0.969229 1.991568 0.438953 0
M  V30 20 C -2.193110 1.581115 0.013103 0
M  V30 21 C -3.214992 2.652956 -0.224647 0
M  V30 22 C -4.284536 2.440509 -1.108823 0
M  V30 23 C -5.235340 3.431952 -1.336395 0
M  V30 24 C -5.128037 4.654046 -0.680827 0
M  V30 25 C -4.076567 4.891181 0.197940 0
M  V30 26 C -3.127886 3.897409 0.422308 0
M  V30 27 C -2.469354 0.221504 -0.170542 0
M  V30 28 H -2.859301 -2.350877 -0.445118 0
M  V30 29 H -1.618548 -2.783168 0.727784 0
M  V30 30 H -1.191774 -2.614471 -0.970171 0
M  V30 31 H 1.970642 1.757408 3.578435 0
M  V30 32 H 1.276124 0.240093 3.060605 0
M  V30 33 H 3.096186 -0.156074 4.729447 0
M  V30 34 H 8.957171 -2.561407 3.072245 0
M  V30 35 H 8.447334 -1.065432 2.287143 0
M  V30 36 H 7.664195 -2.594477 1.872529 0
M  V30 37 H 8.162196 -2.728612 5.370711 0
M  V30 38 H 6.383768 -2.281842 7.049634 0
M  V30 39 H 4.322153 -1.092708 6.364889 0
M  V30 40 H -4.385474 1.507529 -1.642483 0
M  V30 41 H -6.050894 3.254300 -2.021753 0
M  V30 42 H -5.864337 5.424400 -0.856648 0
M  V30 43 H -3.996410 5.841939 0.703830 0
M  V30 44 H -2.322893 4.103991 1.112604 0
M  V30 45 H -3.449993 -0.100917 -0.487521 0
M  V30 END ATOM
M  V30 BEGIN BOND
M  V30 1 1 2 1
M  V30 2 2 3 2
M  V30 3 1 4 3
M  V30 4 3 5 4
M  V30 5 1 6 3
M  V30 6 1 7 6
M  V30 7 1 8 7
M  V30 8 1 9 8
M  V30 9 1 10 9
M  V30 10 1 11 10
M  V30 11 2 12 11
M  V30 12 1 13 12
M  V30 13 1 14 13
M  V30 14 2 15 13
M  V30 15 1 16 15
M  V30 16 2 17 16
M  V30 17 1 17 11
M  V30 18 2 18 9
M  V30 19 2 19 6
M  V30 20 1 20 19
M  V30 21 1 21 20
M  V30 22 2 22 21
M  V30 23 1 23 22
M  V30 24 2 24 23
M  V30 25 1 25 24
M  V30 26 2 26 25
M  V30 27 1 26 21
M  V30 28 2 27 20
M  V30 29 1 27 2
M  V30 30 1 28 1
M  V30 31 1 29 1
M  V30 32 1 30 1
M  V30 33 1 31 8
M  V30 34 1 32 8
M  V30 35 1 33 10
M  V30 36 1 34 14
M  V30 37 1 35 14
M  V30 38 1 36 14
M  V30 39 1 37 15
M  V30 40 1 38 16
M  V30 41 1 39 17
M  V30 42 1 40 22
M  V30 43 1 41 23
M  V30 44 1 42 24
M  V30 45 1 43 25
M  V30 46 1 44 26
M  V30 47 1 45 27
M  V30 END BOND
M  V30 END CTAB
M  END
>  <i_epik_Tot_Q>  (25) 
0

>  <i_epik_Tot_abs_Q>  (25) 
0

>  <i_f3d_flags>  (25) 
0

>  <i_lp_mmshare_version>  (25) 
71160

>  <i_lp_orig_ion_str>  (25) 
1

>  <i_m_source_file_index>  (25) 
83

>  <b_lp_Chiralities_Consistent>  (25) 
1

>  <r_epik_Charging_Adjusted_Penalty>  (25) 
0

>  <r_epik_Ionization_Penalty>  (25) 
0.0019067918786918074

>  <r_epik_Ionization_Penalty_Charging>  (25) 
0

>  <r_epik_Ionization_Penalty_Neutral>  (25) 
0.0019067918786918074

>  <r_epik_State_Penalty>  (25) 
-0

>  <r_lp_Energy>  (25) 
43.296647

>  <r_lp_tautomer_probability>  (25) 
1

>  <s_epik_cmdline>  (25) 
J2VwaWtfcHl0aG9uJywgJy1waHQnLCAnMC4yJywgJy1waCcsICc3LjQnLCAnLXJldGFpbl9pX2xhYicsICctcmV0YWluX3RfbGFiJywgJy10bicsICcxJywgJy1tYScsICc1MDAnLCAnLWltYWUnLCAnPGluZmlsZS5tYWU+JywgJy1vbWFlJywgJzxvdXRmaWxlLm1hZT4n

>  <s_epik_input>  (25) 
W2NIXTFbY0hdW2NIXVtjSF1bY0hdYzEtYyhbY0hdMiluYyhjKEMjTiljMltDSDNdKVNbQ0gyXUMoPU8pW05IXWMzbmMoW0NIM10pW2NIXVtjSF1bY0hdMw==

>  <s_lp_Force_Field>  (25) 
S-OPLS

>  <s_lp_Variant>  (25) 
3be_Grossjean_2025-1

>  <s_lp_label>  (25) 
83

>  <s_m_source_file>  (25) 
montpellier_ligands.smi

$$$$
3bf_Grossjean_2025
     RDKit          3D

  0  0  0  0  0  0  0  0  0  0999 V3000
M  V30 BEGIN CTAB
M  V30 COUNTS 42 44 0 0 1
M  V30 BEGIN ATOM
M  V30 1 C -2.216616 -2.200488 -0.527476 0
M  V30 2 C -1.744823 -0.749544 -0.446333 0
M  V30 3 C -0.414555 -0.366487 -0.722831 0
M  V30 4 C 0.587384 -1.378562 -1.066092 0
M  V30 5 N 1.376689 -2.180005 -1.337751 0
M  V30 6 C -0.092027 1.005150 -0.618866 0
M  V30 7 S 1.529967 1.672638 -0.921588 0
M  V30 8 C 2.047314 1.166150 -2.597194 0
M  V30 9 C 3.411378 0.463932 -2.674473 0
M  V30 10 N 3.842070 0.206894 -3.928222 0
M  V30 11 C 5.038951 -0.405997 -4.341770 0
M  V30 12 C 6.189496 -0.552425 -3.546169 0
M  V30 13 N 7.329279 -1.139120 -3.993987 0
M  V30 14 C 7.348588 -1.597074 -5.270876 0
M  V30 15 C 6.257750 -1.484243 -6.133079 0
M  V30 16 C 5.093433 -0.877827 -5.658320 0
M  V30 17 O 4.016610 0.152693 -1.647244 0
M  V30 18 N -0.999035 1.935717 -0.232737 0
M  V30 19 C -2.280514 1.564976 0.027418 0
M  V30 20 C -3.223141 2.654693 0.441813 0
M  V30 21 C -4.604271 2.528635 0.224791 0
M  V30 22 C -5.485303 3.536818 0.607203 0
M  V30 23 C -4.994492 4.688506 1.213463 0
M  V30 24 C -3.630088 4.838852 1.438066 0
M  V30 25 C -2.752403 3.829133 1.053020 0
M  V30 26 C -2.674944 0.226381 -0.073781 0
M  V30 27 H -3.279047 -2.307518 -0.304928 0
M  V30 28 H -1.658723 -2.820365 0.175340 0
M  V30 29 H -2.042052 -2.599619 -1.527335 0
M  V30 30 H 1.282172 0.538050 -3.053562 0
M  V30 31 H 2.098114 2.076408 -3.195925 0
M  V30 32 H 3.208707 0.440569 -4.678731 0
M  V30 33 H 6.241784 -0.188865 -2.531925 0
M  V30 34 H 8.266142 -2.060874 -5.601730 0
M  V30 35 H 6.312400 -1.857575 -7.145079 0
M  V30 36 H 4.239985 -0.782090 -6.314515 0
M  V30 37 H -5.011793 1.651602 -0.255301 0
M  V30 38 H -6.545223 3.426697 0.431338 0
M  V30 39 H -5.676658 5.471520 1.510317 0
M  V30 40 H -3.253325 5.734650 1.909506 0
M  V30 41 H -1.697509 3.965829 1.242345 0
M  V30 42 H -3.689972 -0.063789 0.153357 0
M  V30 END ATOM
M  V30 BEGIN BOND
M  V30 1 1 2 1
M  V30 2 2 3 2
M  V30 3 1 4 3
M  V30 4 3 5 4
M  V30 5 1 6 3
M  V30 6 1 7 6
M  V30 7 1 8 7
M  V30 8 1 9 8
M  V30 9 1 10 9
M  V30 10 1 11 10
M  V30 11 2 12 11
M  V30 12 1 13 12
M  V30 13 2 14 13
M  V30 14 1 15 14
M  V30 15 2 16 15
M  V30 16 1 16 11
M  V30 17 2 17 9
M  V30 18 2 18 6
M  V30 19 1 19 18
M  V30 20 1 20 19
M  V30 21 2 21 20
M  V30 22 1 22 21
M  V30 23 2 23 22
M  V30 24 1 24 23
M  V30 25 2 25 24
M  V30 26 1 25 20
M  V30 27 2 26 19
M  V30 28 1 26 2
M  V30 29 1 27 1
M  V30 30 1 28 1
M  V30 31 1 29 1
M  V30 32 1 30 8
M  V30 33 1 31 8
M  V30 34 1 32 10
M  V30 35 1 33 12
M  V30 36 1 34 14
M  V30 37 1 35 15
M  V30 38 1 36 16
M  V30 39 1 37 21
M  V30 40 1 38 22
M  V30 41 1 39 23
M  V30 42 1 40 24
M  V30 43 1 41 25
M  V30 44 1 42 26
M  V30 END BOND
M  V30 END CTAB
M  END
>  <i_epik_Tot_Q>  (26) 
0

>  <i_epik_Tot_abs_Q>  (26) 
0

>  <i_f3d_flags>  (26) 
0

>  <i_lp_mmshare_version>  (26) 
71160

>  <i_lp_orig_ion_str>  (26) 
1

>  <i_m_source_file_index>  (26) 
84

>  <b_lp_Chiralities_Consistent>  (26) 
1

>  <r_epik_Charging_Adjusted_Penalty>  (26) 
0

>  <r_epik_Ionization_Penalty>  (26) 
0.00066002713903400641

>  <r_epik_Ionization_Penalty_Charging>  (26) 
0

>  <r_epik_Ionization_Penalty_Neutral>  (26) 
0.00066002713903400641

>  <r_epik_State_Penalty>  (26) 
-0

>  <r_lp_Energy>  (26) 
45.008201

>  <r_lp_tautomer_probability>  (26) 
1

>  <s_epik_cmdline>  (26) 
J2VwaWtfcHl0aG9uJywgJy1waHQnLCAnMC4yJywgJy1waCcsICc3LjQnLCAnLXJldGFpbl9pX2xhYicsICctcmV0YWluX3RfbGFiJywgJy10bicsICcxJywgJy1tYScsICc1MDAnLCAnLWltYWUnLCAnPGluZmlsZS5tYWU+JywgJy1vbWFlJywgJzxvdXRmaWxlLm1hZT4n

>  <s_epik_input>  (26) 
W2NIXTFbY0hdW2NIXVtjSF1bY0hdYzEtYyhbY0hdMiluYyhjKEMjTiljMltDSDNdKVNbQ0gyXUMoPU8pW05IXWMzW2NIXW5bY0hdW2NIXVtjSF0z

>  <s_lp_Force_Field>  (26) 
S-OPLS

>  <s_lp_Variant>  (26) 
3bf_Grossjean_2025-1

>  <s_lp_label>  (26) 
84

>  <s_m_source_file>  (26) 
montpellier_ligands.smi

$$$$
3bg_Grossjean_2025
     RDKit          3D

  0  0  0  0  0  0  0  0  0  0999 V3000
M  V30 BEGIN CTAB
M  V30 COUNTS 46 48 0 0 1
M  V30 BEGIN ATOM
M  V30 1 C -3.233193 -2.664674 -0.904657 0
M  V30 2 C -2.316850 -1.503881 -0.523090 0
M  V30 3 C -0.939080 -1.675740 -0.274282 0
M  V30 4 C -0.323093 -3.001080 -0.380184 0
M  V30 5 N 0.162071 -4.048264 -0.463787 0
M  V30 6 C -0.190212 -0.539866 0.097250 0
M  V30 7 S 1.550051 -0.633793 0.488895 0
M  V30 8 C 1.936202 0.678509 1.692664 0
M  V30 9 C 1.121198 0.529426 2.980889 0
M  V30 10 N 0.210699 1.487377 3.227951 0
M  V30 11 C -0.792580 1.451048 4.291517 0
M  V30 12 C -2.124821 0.901949 3.795105 0
M  V30 13 C -2.262710 -0.463771 3.526492 0
M  V30 14 C -3.476403 -0.963555 3.062664 0
M  V30 15 C -4.553841 -0.099100 2.881472 0
M  V30 16 C -4.430530 1.259011 3.166238 0
M  V30 17 C -3.216431 1.759197 3.629371 0
M  V30 18 O 1.304229 -0.443935 3.713367 0
M  V30 19 N -0.751068 0.691888 0.202051 0
M  V30 20 C -2.076453 0.862738 -0.051268 0
M  V30 21 C -2.618597 2.256995 0.102130 0
M  V30 22 C -3.865861 2.611719 -0.438873 0
M  V30 23 C -4.380064 3.896290 -0.283722 0
M  V30 24 C -3.650590 4.851937 0.414602 0
M  V30 25 C -2.408507 4.533135 0.951379 0
M  V30 26 C -1.897901 3.248219 0.791930 0
M  V30 27 C -2.878630 -0.228658 -0.407150 0
M  V30 28 H -4.267461 -2.350697 -1.051166 0
M  V30 29 H -3.220360 -3.427396 -0.125299 0
M  V30 30 H -2.887416 -3.132068 -1.827258 0
M  V30 31 H 2.993892 0.595448 1.943881 0
M  V30 32 H 1.801650 1.659959 1.235320 0
M  V30 33 H 0.126983 2.246435 2.567716 0
M  V30 34 H -0.459599 0.832412 5.128039 0
M  V30 35 H -0.919073 2.458829 4.689683 0
M  V30 36 H -1.426731 -1.134889 3.660782 0
M  V30 37 H -3.579755 -2.015260 2.839879 0
M  V30 38 H -5.494220 -0.485838 2.517632 0
M  V30 39 H -5.271121 1.922037 3.023875 0
M  V30 40 H -3.122711 2.814377 3.841339 0
M  V30 41 H -4.456912 1.901857 -0.996108 0
M  V30 42 H -5.341414 4.150071 -0.705743 0
M  V30 43 H -4.049064 5.848457 0.536574 0
M  V30 44 H -1.842831 5.278747 1.490345 0
M  V30 45 H -0.932737 3.030673 1.223488 0
M  V30 46 H -3.936613 -0.105185 -0.579532 0
M  V30 END ATOM
M  V30 BEGIN BOND
M  V30 1 1 2 1
M  V30 2 2 3 2
M  V30 3 1 4 3
M  V30 4 3 5 4
M  V30 5 1 6 3
M  V30 6 1 7 6
M  V30 7 1 8 7
M  V30 8 1 9 8
M  V30 9 1 10 9
M  V30 10 1 11 10
M  V30 11 1 12 11
M  V30 12 2 13 12
M  V30 13 1 14 13
M  V30 14 2 15 14
M  V30 15 1 16 15
M  V30 16 2 17 16
M  V30 17 1 17 12
M  V30 18 2 18 9
M  V30 19 2 19 6
M  V30 20 1 20 19
M  V30 21 1 21 20
M  V30 22 2 22 21
M  V30 23 1 23 22
M  V30 24 2 24 23
M  V30 25 1 25 24
M  V30 26 2 26 25
M  V30 27 1 26 21
M  V30 28 2 27 20
M  V30 29 1 27 2
M  V30 30 1 28 1
M  V30 31 1 29 1
M  V30 32 1 30 1
M  V30 33 1 31 8
M  V30 34 1 32 8
M  V30 35 1 33 10
M  V30 36 1 34 11
M  V30 37 1 35 11
M  V30 38 1 36 13
M  V30 39 1 37 14
M  V30 40 1 38 15
M  V30 41 1 39 16
M  V30 42 1 40 17
M  V30 43 1 41 22
M  V30 44 1 42 23
M  V30 45 1 43 24
M  V30 46 1 44 25
M  V30 47 1 45 26
M  V30 48 1 46 27
M  V30 END BOND
M  V30 END CTAB
M  END
>  <i_epik_Tot_Q>  (27) 
0

>  <i_epik_Tot_abs_Q>  (27) 
0

>  <i_f3d_flags>  (27) 
0

>  <i_lp_mmshare_version>  (27) 
71160

>  <i_lp_orig_ion_str>  (27) 
1

>  <i_m_source_file_index>  (27) 
85

>  <b_lp_Chiralities_Consistent>  (27) 
1

>  <r_epik_Charging_Adjusted_Penalty>  (27) 
0

>  <r_epik_Ionization_Penalty>  (27) 
4.5684313992941559e-07

>  <r_epik_Ionization_Penalty_Charging>  (27) 
0

>  <r_epik_Ionization_Penalty_Neutral>  (27) 
4.5684313992941559e-07

>  <r_epik_State_Penalty>  (27) 
-0

>  <r_lp_Energy>  (27) 
29.602245999999997

>  <r_lp_tautomer_probability>  (27) 
1

>  <s_epik_cmdline>  (27) 
J2VwaWtfcHl0aG9uJywgJy1waHQnLCAnMC4yJywgJy1waCcsICc3LjQnLCAnLXJldGFpbl9pX2xhYicsICctcmV0YWluX3RfbGFiJywgJy10bicsICcxJywgJy1tYScsICc1MDAnLCAnLWltYWUnLCAnPGluZmlsZS5tYWU+JywgJy1vbWFlJywgJzxvdXRmaWxlLm1hZT4n

>  <s_epik_input>  (27) 
W2NIXTFbY0hdW2NIXVtjSF1bY0hdYzEtYyhbY0hdMiluYyhjKEMjTiljMltDSDNdKVNbQ0gyXUMoPU8pW05IXVtDSDJdYzNbY0hdW2NIXVtjSF1bY0hdW2NIXTM=

>  <s_lp_Force_Field>  (27) 
S-OPLS

>  <s_lp_Variant>  (27) 
3bg_Grossjean_2025-1

>  <s_lp_label>  (27) 
85

>  <s_m_source_file>  (27) 
montpellier_ligands.smi

$$$$
3bk_Grossjean_2025
     RDKit          3D

  0  0  0  0  0  0  0  0  0  0999 V3000
M  V30 BEGIN CTAB
M  V30 COUNTS 57 58 0 0 1
M  V30 BEGIN ATOM
M  V30 1 C -2.166234 9.204158 -2.645899 0
M  V30 2 C -2.189306 8.019351 -1.681770 0
M  V30 3 C -2.159076 6.679877 -2.125028 0
M  V30 4 C -2.179638 5.660219 -1.148994 0
M  V30 5 S -2.146001 3.929575 -1.586861 0
M  V30 6 C -2.200619 2.932014 -0.064899 0
M  V30 7 C -1.693190 1.507424 -0.295936 0
M  V30 8 N -0.558677 1.164846 0.338940 0
M  V30 9 C 0.097649 -0.140793 0.262100 0
M  V30 10 C 1.621025 -0.020873 0.106669 0
M  V30 11 O 2.162234 0.635942 1.245848 0
M  V30 12 C 3.578355 0.756116 1.221622 0
M  V30 13 C 4.052318 1.448550 2.505845 0
M  V30 14 O 3.648732 0.678881 3.630619 0
M  V30 15 C 4.056705 1.225653 4.877351 0
M  V30 16 C 3.534360 0.341175 6.017059 0
M  V30 17 O 4.061494 -0.972056 5.881744 0
M  V30 18 C 3.606737 -1.868848 6.883525 0
M  V30 19 O -2.331553 0.737968 -1.015887 0
M  V30 20 N -2.228712 5.934997 0.179036 0
M  V30 21 C -2.260767 7.225173 0.605605 0
M  V30 22 C -2.292783 7.440172 2.089473 0
M  V30 23 C -2.824076 8.620745 2.632494 0
M  V30 24 C -2.851432 8.828374 4.009031 0
M  V30 25 C -2.346989 7.853946 4.863992 0
M  V30 26 C -1.819278 6.673313 4.351801 0
M  V30 27 C -1.794511 6.469211 2.974878 0
M  V30 28 C -2.238314 8.283783 -0.309341 0
M  V30 29 C -2.105242 6.371507 -3.557015 0
M  V30 30 N -2.062563 6.128969 -4.687762 0
M  V30 31 H -2.201712 10.164381 -2.129590 0
M  V30 32 H -3.017841 9.155626 -3.325680 0
M  V30 33 H -1.260806 9.179938 -3.253310 0
M  V30 34 H -1.667413 3.420284 0.751709 0
M  V30 35 H -3.244994 2.867647 0.241314 0
M  V30 36 H -0.130522 1.837975 0.958418 0
M  V30 37 H -0.133702 -0.677101 1.183247 0
M  V30 38 H -0.295488 -0.752078 -0.552926 0
M  V30 39 H 2.055444 -1.016855 0.002634 0
M  V30 40 H 1.861500 0.540804 -0.798321 0
M  V30 41 H 4.041528 -0.229426 1.145233 0
M  V30 42 H 3.892438 1.337066 0.352922 0
M  V30 43 H 5.138976 1.550206 2.486859 0
M  V30 44 H 3.627242 2.452388 2.562827 0
M  V30 45 H 5.145608 1.285659 4.924391 0
M  V30 46 H 3.664889 2.237721 4.993264 0
M  V30 47 H 3.829778 0.768289 6.977175 0
M  V30 48 H 2.443255 0.315774 5.989169 0
M  V30 49 H 4.046087 -2.852222 6.717824 0
M  V30 50 H 2.521667 -1.979571 6.856120 0
M  V30 51 H 3.900226 -1.535555 7.880055 0
M  V30 52 H -3.233582 9.389289 1.994097 0
M  V30 53 H -3.264621 9.741429 4.411860 0
M  V30 54 H -2.366566 8.014580 5.932006 0
M  V30 55 H -1.429460 5.918672 5.018957 0
M  V30 56 H -1.373997 5.546892 2.600843 0
M  V30 57 H -2.244645 9.306986 0.035701 0
M  V30 END ATOM
M  V30 BEGIN BOND
M  V30 1 1 2 1
M  V30 2 2 3 2
M  V30 3 1 4 3
M  V30 4 1 5 4
M  V30 5 1 6 5
M  V30 6 1 7 6
M  V30 7 1 8 7
M  V30 8 1 9 8
M  V30 9 1 10 9
M  V30 10 1 11 10
M  V30 11 1 12 11
M  V30 12 1 13 12
M  V30 13 1 14 13
M  V30 14 1 15 14
M  V30 15 1 16 15
M  V30 16 1 17 16
M  V30 17 1 18 17
M  V30 18 2 19 7
M  V30 19 2 20 4
M  V30 20 1 21 20
M  V30 21 1 22 21
M  V30 22 2 23 22
M  V30 23 1 24 23
M  V30 24 2 25 24
M  V30 25 1 26 25
M  V30 26 2 27 26
M  V30 27 1 27 22
M  V30 28 2 28 21
M  V30 29 1 28 2
M  V30 30 1 29 3
M  V30 31 3 30 29
M  V30 32 1 31 1
M  V30 33 1 32 1
M  V30 34 1 33 1
M  V30 35 1 34 6
M  V30 36 1 35 6
M  V30 37 1 36 8
M  V30 38 1 37 9
M  V30 39 1 38 9
M  V30 40 1 39 10
M  V30 41 1 40 10
M  V30 42 1 41 12
M  V30 43 1 42 12
M  V30 44 1 43 13
M  V30 45 1 44 13
M  V30 46 1 45 15
M  V30 47 1 46 15
M  V30 48 1 47 16
M  V30 49 1 48 16
M  V30 50 1 49 18
M  V30 51 1 50 18
M  V30 52 1 51 18
M  V30 53 1 52 23
M  V30 54 1 53 24
M  V30 55 1 54 25
M  V30 56 1 55 26
M  V30 57 1 56 27
M  V30 58 1 57 28
M  V30 END BOND
M  V30 END CTAB
M  END
>  <i_epik_Tot_Q>  (28) 
0

>  <i_epik_Tot_abs_Q>  (28) 
0

>  <i_f3d_flags>  (28) 
0

>  <i_lp_mmshare_version>  (28) 
71160

>  <i_lp_orig_ion_str>  (28) 
1

>  <i_m_source_file_index>  (28) 
86

>  <b_lp_Chiralities_Consistent>  (28) 
1

>  <r_epik_Charging_Adjusted_Penalty>  (28) 
0

>  <r_epik_Ionization_Penalty>  (28) 
3.8232081417021851e-07

>  <r_epik_Ionization_Penalty_Charging>  (28) 
0

>  <r_epik_Ionization_Penalty_Neutral>  (28) 
3.8232081417021851e-07

>  <r_epik_State_Penalty>  (28) 
-0

>  <r_lp_Energy>  (28) 
32.667926999999999

>  <r_lp_tautomer_probability>  (28) 
1

>  <s_epik_cmdline>  (28) 
J2VwaWtfcHl0aG9uJywgJy1waHQnLCAnMC4yJywgJy1waCcsICc3LjQnLCAnLXJldGFpbl9pX2xhYicsICctcmV0YWluX3RfbGFiJywgJy10bicsICcxJywgJy1tYScsICc1MDAnLCAnLWltYWUnLCAnPGluZmlsZS5tYWU+JywgJy1vbWFlJywgJzxvdXRmaWxlLm1hZT4n

>  <s_epik_input>  (28) 
W2NIXTFbY0hdW2NIXVtjSF1bY0hdYzEtYyhbY0hdMiluYyhjKEMjTiljMltDSDNdKVNbQ0gyXUMoPU8pW05IXVtDSDJdW0NIMl1PW0NIMl1bQ0gyXU9bQ0gyXVtDSDJdT1tDSDNd

>  <s_lp_Force_Field>  (28) 
S-OPLS

>  <s_lp_Variant>  (28) 
3bk_Grossjean_2025-1

>  <s_lp_label>  (28) 
86

>  <s_m_source_file>  (28) 
montpellier_ligands.smi

$$$$
3aa_Grossjean_2025
     RDKit          3D

  0  0  0  0  0  0  0  0  0  0999 V3000
M  V30 BEGIN CTAB
M  V30 COUNTS 52 54 0 0 1
M  V30 BEGIN ATOM
M  V30 1 N 0.013783 1.208288 -3.228620 0
M  V30 2 C -0.006464 1.828979 -2.252017 0
M  V30 3 C -0.032058 2.614583 -1.015145 0
M  V30 4 C -0.291027 4.006842 -1.044585 0
M  V30 5 C -0.500962 4.786171 -2.357261 0
M  V30 6 F -0.680034 6.094177 -2.159535 0
M  V30 7 F 0.561447 4.644638 -3.151099 0
M  V30 8 F -1.579171 4.324105 -2.991664 0
M  V30 9 C -0.359538 4.701293 0.172668 0
M  V30 10 C -0.184517 4.024117 1.384067 0
M  V30 11 C -0.252430 4.716112 2.711933 0
M  V30 12 C -1.018567 5.880998 2.873479 0
M  V30 13 C -1.086938 6.529151 4.103852 0
M  V30 14 C -0.387295 6.018700 5.192296 0
M  V30 15 C 0.377511 4.864560 5.058976 0
M  V30 16 C 0.441561 4.218242 3.827523 0
M  V30 17 N 0.078776 2.692394 1.406842 0
M  V30 18 C 0.166836 2.004691 0.243482 0
M  V30 19 S 0.515309 0.273601 0.461416 0
M  V30 20 C 2.099678 -0.059447 -0.365573 0
M  V30 21 C 2.525812 -1.519457 -0.209775 0
M  V30 22 N 2.198523 -2.334364 -1.236680 0
M  V30 23 C 2.455556 -3.708716 -1.408775 0
M  V30 24 C 1.792024 -4.325181 -2.470662 0
M  V30 25 C 1.974005 -5.681867 -2.725187 0
M  V30 26 C 2.832333 -6.448329 -1.922438 0
M  V30 27 C 3.048933 -7.914635 -2.162533 0
M  V30 28 O 2.293249 -8.410231 -3.176126 0
M  V30 29 C 2.361872 -9.784328 -3.537085 0
M  V30 30 C 1.382703 -10.060793 -4.681962 0
M  V30 31 O 3.827531 -8.602761 -1.495756 0
M  V30 32 C 3.508364 -5.821462 -0.867456 0
M  V30 33 C 3.325821 -4.465585 -0.610239 0
M  V30 34 O 3.115508 -1.862800 0.814796 0
M  V30 35 H -0.544001 5.764923 0.179061 0
M  V30 36 H -1.582173 6.291762 2.049159 0
M  V30 37 H -1.683303 7.423052 4.213284 0
M  V30 38 H -0.439400 6.520444 6.147415 0
M  V30 39 H 0.919319 4.471974 5.906921 0
M  V30 40 H 1.045205 3.325734 3.746849 0
M  V30 41 H 2.099135 0.240658 -1.412637 0
M  V30 42 H 2.841136 0.569630 0.129007 0
M  V30 43 H 1.649227 -1.920186 -1.975594 0
M  V30 44 H 1.123624 -3.759020 -3.103998 0
M  V30 45 H 1.436431 -6.120890 -3.553521 0
M  V30 46 H 3.377545 -10.038271 -3.844856 0
M  V30 47 H 2.112187 -10.408660 -2.677718 0
M  V30 48 H 1.418132 -11.109839 -4.975869 0
M  V30 49 H 1.622223 -9.460760 -5.560409 0
M  V30 50 H 0.357876 -9.832823 -4.387579 0
M  V30 51 H 4.184784 -6.376460 -0.232641 0
M  V30 52 H 3.881050 -4.034188 0.206745 0
M  V30 END ATOM
M  V30 BEGIN BOND
M  V30 1 3 2 1
M  V30 2 1 3 2
M  V30 3 2 4 3
M  V30 4 1 5 4
M  V30 5 1 6 5
M  V30 6 1 7 5
M  V30 7 1 8 5
M  V30 8 1 9 4
M  V30 9 2 10 9
M  V30 10 1 11 10
M  V30 11 2 12 11
M  V30 12 1 13 12
M  V30 13 2 14 13
M  V30 14 1 15 14
M  V30 15 2 16 15
M  V30 16 1 16 11
M  V30 17 1 17 10
M  V30 18 2 18 17
M  V30 19 1 18 3
M  V30 20 1 19 18
M  V30 21 1 20 19
M  V30 22 1 21 20
M  V30 23 1 22 21
M  V30 24 1 23 22
M  V30 25 2 24 23
M  V30 26 1 25 24
M  V30 27 2 26 25
M  V30 28 1 27 26
M  V30 29 1 28 27
M  V30 30 1 29 28
M  V30 31 1 30 29
M  V30 32 2 31 27
M  V30 33 1 32 26
M  V30 34 2 33 32
M  V30 35 1 33 23
M  V30 36 2 34 21
M  V30 37 1 35 9
M  V30 38 1 36 12
M  V30 39 1 37 13
M  V30 40 1 38 14
M  V30 41 1 39 15
M  V30 42 1 40 16
M  V30 43 1 41 20
M  V30 44 1 42 20
M  V30 45 1 43 22
M  V30 46 1 44 24
M  V30 47 1 45 25
M  V30 48 1 46 29
M  V30 49 1 47 29
M  V30 50 1 48 30
M  V30 51 1 49 30
M  V30 52 1 50 30
M  V30 53 1 51 32
M  V30 54 1 52 33
M  V30 END BOND
M  V30 END CTAB
M  END
>  <i_epik_Tot_Q>  (29) 
0

>  <i_epik_Tot_abs_Q>  (29) 
0

>  <i_f3d_flags>  (29) 
0

>  <i_lp_mmshare_version>  (29) 
71160

>  <i_lp_orig_ion_str>  (29) 
1

>  <i_m_source_file_index>  (29) 
87

>  <b_lp_Chiralities_Consistent>  (29) 
1

>  <r_epik_Charging_Adjusted_Penalty>  (29) 
0

>  <r_epik_Ionization_Penalty>  (29) 
6.8164780170702161e-07

>  <r_epik_Ionization_Penalty_Charging>  (29) 
0

>  <r_epik_Ionization_Penalty_Neutral>  (29) 
6.8164780170702161e-07

>  <r_epik_State_Penalty>  (29) 
-0

>  <r_lp_Energy>  (29) 
46.346871

>  <r_lp_tautomer_probability>  (29) 
1

>  <s_epik_Chemistry_Notes>  (29) 
This compound has an ester and may undergo hydrolysis at high or low pH.

>  <s_epik_cmdline>  (29) 
J2VwaWtfcHl0aG9uJywgJy1waHQnLCAnMC4yJywgJy1waCcsICc3LjQnLCAnLXJldGFpbl9pX2xhYicsICctcmV0YWluX3RfbGFiJywgJy10bicsICcxJywgJy1tYScsICc1MDAnLCAnLWltYWUnLCAnPGluZmlsZS5tYWU+JywgJy1vbWFlJywgJzxvdXRmaWxlLm1hZT4n

>  <s_epik_input>  (29) 
W2NIXTFbY0hdW2NIXVtjSF1bY0hdYzEtYyhbY0hdYyhDKEYpKEYpRiljMkMjTiluYzJTW0NIMl1DKD1PKVtOSF1jM1tjSF1bY0hdYyhbY0hdW2NIXTMpQyg9TylPW0NIMl1bQ0gzXQ==

>  <s_lp_Force_Field>  (29) 
S-OPLS

>  <s_lp_Variant>  (29) 
3aa_Grossjean_2025-1

>  <s_lp_label>  (29) 
87

>  <s_m_source_file>  (29) 
montpellier_ligands.smi

$$$$
3ab_Grossjean_2025
     RDKit          3D

  0  0  0  0  0  0  0  0  0  0999 V3000
M  V30 BEGIN CTAB
M  V30 COUNTS 49 51 0 0 1
M  V30 BEGIN ATOM
M  V30 1 N 0.888389 -0.024886 -2.200981 0
M  V30 2 C 0.687717 0.819266 -1.435465 0
M  V30 3 C 0.432547 1.890123 -0.467808 0
M  V30 4 C -0.162526 3.108634 -0.877119 0
M  V30 5 C -0.526094 3.404751 -2.345093 0
M  V30 6 F -1.032942 4.627675 -2.516415 0
M  V30 7 F 0.559487 3.312104 -3.114500 0
M  V30 8 F -1.435669 2.528711 -2.773777 0
M  V30 9 C -0.436536 4.081264 0.096297 0
M  V30 10 C -0.125815 3.845750 1.439884 0
M  V30 11 C -0.413962 4.841834 2.524143 0
M  V30 12 C -0.512714 6.211870 2.233153 0
M  V30 13 C -0.780905 7.140840 3.235035 0
M  V30 14 C -0.952579 6.711174 4.546684 0
M  V30 15 C -0.855835 5.360270 4.862670 0
M  V30 16 C -0.587796 4.434597 3.857937 0
M  V30 17 N 0.442814 2.675080 1.827079 0
M  V30 18 C 0.733870 1.728729 0.903167 0
M  V30 19 S 1.480749 0.267386 1.591615 0
M  V30 20 C 3.089065 0.038821 0.775168 0
M  V30 21 C 3.409240 -1.437793 0.535366 0
M  V30 22 N 3.158155 -1.889389 -0.712190 0
M  V30 23 C 3.347085 -3.170452 -1.264659 0
M  V30 24 C 4.000088 -4.233639 -0.623475 0
M  V30 25 C 4.136349 -5.460150 -1.267883 0
M  V30 26 C 3.627167 -5.649757 -2.561723 0
M  V30 27 C 3.758879 -6.959822 -3.283872 0
M  V30 28 O 4.390303 -7.914170 -2.552903 0
M  V30 29 C 4.604838 -9.215881 -3.079739 0
M  V30 30 O 3.332816 -7.149301 -4.427166 0
M  V30 31 C 2.980679 -4.580726 -3.195830 0
M  V30 32 C 2.844776 -3.353625 -2.553633 0
M  V30 33 O 3.860194 -2.110690 1.462236 0
M  V30 34 H -0.907281 5.010128 -0.187884 0
M  V30 35 H -0.370753 6.577853 1.227449 0
M  V30 36 H -0.852447 8.191563 2.995367 0
M  V30 37 H -1.160425 7.430807 5.324848 0
M  V30 38 H -0.988706 5.030844 5.882658 0
M  V30 39 H -0.522533 3.390483 4.128015 0
M  V30 40 H 3.197911 0.641378 -0.126844 0
M  V30 41 H 3.830553 0.422879 1.476821 0
M  V30 42 H 2.738503 -1.226248 -1.347579 0
M  V30 43 H 4.418980 -4.141830 0.365314 0
M  V30 44 H 4.646440 -6.254545 -0.742148 0
M  V30 45 H 5.111494 -9.835138 -2.339778 0
M  V30 46 H 5.227525 -9.177954 -3.974577 0
M  V30 47 H 3.659512 -9.696899 -3.334537 0
M  V30 48 H 2.576480 -4.686683 -4.193000 0
M  V30 49 H 2.341623 -2.546581 -3.067772 0
M  V30 END ATOM
M  V30 BEGIN BOND
M  V30 1 3 2 1
M  V30 2 1 3 2
M  V30 3 2 4 3
M  V30 4 1 5 4
M  V30 5 1 6 5
M  V30 6 1 7 5
M  V30 7 1 8 5
M  V30 8 1 9 4
M  V30 9 2 10 9
M  V30 10 1 11 10
M  V30 11 2 12 11
M  V30 12 1 13 12
M  V30 13 2 14 13
M  V30 14 1 15 14
M  V30 15 2 16 15
M  V30 16 1 16 11
M  V30 17 1 17 10
M  V30 18 2 18 17
M  V30 19 1 18 3
M  V30 20 1 19 18
M  V30 21 1 20 19
M  V30 22 1 21 20
M  V30 23 1 22 21
M  V30 24 1 23 22
M  V30 25 2 24 23
M  V30 26 1 25 24
M  V30 27 2 26 25
M  V30 28 1 27 26
M  V30 29 1 28 27
M  V30 30 1 29 28
M  V30 31 2 30 27
M  V30 32 1 31 26
M  V30 33 2 32 31
M  V30 34 1 32 23
M  V30 35 2 33 21
M  V30 36 1 34 9
M  V30 37 1 35 12
M  V30 38 1 36 13
M  V30 39 1 37 14
M  V30 40 1 38 15
M  V30 41 1 39 16
M  V30 42 1 40 20
M  V30 43 1 41 20
M  V30 44 1 42 22
M  V30 45 1 43 24
M  V30 46 1 44 25
M  V30 47 1 45 29
M  V30 48 1 46 29
M  V30 49 1 47 29
M  V30 50 1 48 31
M  V30 51 1 49 32
M  V30 END BOND
M  V30 END CTAB
M  END
>  <i_epik_Tot_Q>  (1) 
0

>  <i_epik_Tot_abs_Q>  (1) 
0

>  <i_f3d_flags>  (1) 
0

>  <i_lp_mmshare_version>  (1) 
71160

>  <i_lp_orig_ion_str>  (1) 
1

>  <i_m_source_file_index>  (1) 
88

>  <b_lp_Chiralities_Consistent>  (1) 
1

>  <r_epik_Charging_Adjusted_Penalty>  (1) 
0

>  <r_epik_Ionization_Penalty>  (1) 
8.7950484013503716e-07

>  <r_epik_Ionization_Penalty_Charging>  (1) 
0

>  <r_epik_Ionization_Penalty_Neutral>  (1) 
8.7950484013503716e-07

>  <r_epik_State_Penalty>  (1) 
-0

>  <r_lp_Energy>  (1) 
44.796931999999998

>  <r_lp_tautomer_probability>  (1) 
1

>  <s_epik_Chemistry_Notes>  (1) 
This compound has an ester and may undergo hydrolysis at high or low pH.

>  <s_epik_cmdline>  (1) 
J2VwaWtfcHl0aG9uJywgJy1waHQnLCAnMC4yJywgJy1waCcsICc3LjQnLCAnLXJldGFpbl9pX2xhYicsICctcmV0YWluX3RfbGFiJywgJy10bicsICcxJywgJy1tYScsICc1MDAnLCAnLWltYWUnLCAnPGluZmlsZS5tYWU+JywgJy1vbWFlJywgJzxvdXRmaWxlLm1hZT4n

>  <s_epik_input>  (1) 
W2NIXTFbY0hdW2NIXVtjSF1bY0hdYzEtYyhbY0hdYyhDKEYpKEYpRiljMkMjTiluYzJTW0NIMl1DKD1PKVtOSF1jM1tjSF1bY0hdYyhbY0hdW2NIXTMpQyg9TylPW0NIM10=

>  <s_lp_Force_Field>  (1) 
S-OPLS

>  <s_lp_Variant>  (1) 
3ab_Grossjean_2025-1

>  <s_lp_label>  (1) 
88

>  <s_m_source_file>  (1) 
montpellier_ligands.smi

$$$$
3ac_Grossjean_2025
     RDKit          3D

  0  0  0  0  0  0  0  0  0  0999 V3000
M  V30 BEGIN CTAB
M  V30 COUNTS 47 49 0 0 1
M  V30 BEGIN ATOM
M  V30 1 N 0.504001 1.716139 -3.598230 0
M  V30 2 C 0.404500 2.153541 -2.531431 0
M  V30 3 C 0.278735 2.709321 -1.181514 0
M  V30 4 C 0.512037 4.086764 -0.946058 0
M  V30 5 C 0.973727 5.054690 -2.053112 0
M  V30 6 F 1.214541 6.285621 -1.596905 0
M  V30 7 F 2.100634 4.612194 -2.613159 0
M  V30 8 F 0.032503 5.150036 -2.992639 0
M  V30 9 C 0.307446 4.590319 0.347183 0
M  V30 10 C -0.117277 3.744694 1.377046 0
M  V30 11 C -0.381822 4.236235 2.769323 0
M  V30 12 C 0.259664 5.384896 3.259578 0
M  V30 13 C 0.013778 5.848902 4.549237 0
M  V30 14 C -0.878729 5.166764 5.369409 0
M  V30 15 C -1.524082 4.023757 4.909588 0
M  V30 16 C -1.275343 3.562951 3.619738 0
M  V30 17 N -0.333577 2.424137 1.147714 0
M  V30 18 C -0.122329 1.908814 -0.087008 0
M  V30 19 S -0.452980 0.159933 -0.184443 0
M  V30 20 C 0.917737 -0.644784 -1.068102 0
M  V30 21 C 1.269684 -2.007726 -0.470522 0
M  V30 22 N 2.403348 -2.047241 0.262504 0
M  V30 23 C 3.012151 -3.146332 0.896905 0
M  V30 24 C 3.957244 -2.843860 1.878505 0
M  V30 25 C 4.626138 -3.865200 2.546525 0
M  V30 26 C 4.369557 -5.201444 2.240223 0
M  V30 27 O 5.084603 -6.145307 2.952275 0
M  V30 28 C 4.883541 -7.526536 2.671667 0
M  V30 29 C 3.426474 -5.506529 1.246987 0
M  V30 30 C 2.754100 -4.487949 0.577003 0
M  V30 31 O 0.525454 -2.966041 -0.680796 0
M  V30 32 H 0.456003 5.640752 0.546126 0
M  V30 33 H 0.966641 5.928101 2.650718 0
M  V30 34 H 0.515514 6.733928 4.912136 0
M  V30 35 H -1.070753 5.525713 6.369794 0
M  V30 36 H -2.216452 3.497072 5.549857 0
M  V30 37 H -1.793822 2.676739 3.283468 0
M  V30 38 H 0.573345 -0.818001 -2.088263 0
M  V30 39 H 1.790579 0.005896 -1.139016 0
M  V30 40 H 2.861224 -1.162890 0.427667 0
M  V30 41 H 4.178724 -1.816928 2.132030 0
M  V30 42 H 5.353076 -3.616969 3.306063 0
M  V30 43 H 5.527513 -8.122265 3.318475 0
M  V30 44 H 5.141271 -7.766580 1.638769 0
M  V30 45 H 3.852891 -7.828701 2.863830 0
M  V30 46 H 3.206147 -6.527973 0.976558 0
M  V30 47 H 2.054090 -4.767578 -0.194505 0
M  V30 END ATOM
M  V30 BEGIN BOND
M  V30 1 3 2 1
M  V30 2 1 3 2
M  V30 3 2 4 3
M  V30 4 1 5 4
M  V30 5 1 6 5
M  V30 6 1 7 5
M  V30 7 1 8 5
M  V30 8 1 9 4
M  V30 9 2 10 9
M  V30 10 1 11 10
M  V30 11 2 12 11
M  V30 12 1 13 12
M  V30 13 2 14 13
M  V30 14 1 15 14
M  V30 15 2 16 15
M  V30 16 1 16 11
M  V30 17 1 17 10
M  V30 18 2 18 17
M  V30 19 1 18 3
M  V30 20 1 19 18
M  V30 21 1 20 19
M  V30 22 1 21 20
M  V30 23 1 22 21
M  V30 24 1 23 22
M  V30 25 2 24 23
M  V30 26 1 25 24
M  V30 27 2 26 25
M  V30 28 1 27 26
M  V30 29 1 28 27
M  V30 30 1 29 26
M  V30 31 2 30 29
M  V30 32 1 30 23
M  V30 33 2 31 21
M  V30 34 1 32 9
M  V30 35 1 33 12
M  V30 36 1 34 13
M  V30 37 1 35 14
M  V30 38 1 36 15
M  V30 39 1 37 16
M  V30 40 1 38 20
M  V30 41 1 39 20
M  V30 42 1 40 22
M  V30 43 1 41 24
M  V30 44 1 42 25
M  V30 45 1 43 28
M  V30 46 1 44 28
M  V30 47 1 45 28
M  V30 48 1 46 29
M  V30 49 1 47 30
M  V30 END BOND
M  V30 END CTAB
M  END
>  <i_epik_Tot_Q>  (2) 
0

>  <i_epik_Tot_abs_Q>  (2) 
0

>  <i_f3d_flags>  (2) 
0

>  <i_lp_mmshare_version>  (2) 
71160

>  <i_lp_orig_ion_str>  (2) 
1

>  <i_m_source_file_index>  (2) 
89

>  <b_lp_Chiralities_Consistent>  (2) 
1

>  <r_epik_Charging_Adjusted_Penalty>  (2) 
0

>  <r_epik_Ionization_Penalty>  (2) 
7.6138900473831325e-07

>  <r_epik_Ionization_Penalty_Charging>  (2) 
0

>  <r_epik_Ionization_Penalty_Neutral>  (2) 
7.6138900473831325e-07

>  <r_epik_State_Penalty>  (2) 
-0

>  <r_lp_Energy>  (2) 
50.203005999999995

>  <r_lp_tautomer_probability>  (2) 
1

>  <s_epik_cmdline>  (2) 
J2VwaWtfcHl0aG9uJywgJy1waHQnLCAnMC4yJywgJy1waCcsICc3LjQnLCAnLXJldGFpbl9pX2xhYicsICctcmV0YWluX3RfbGFiJywgJy10bicsICcxJywgJy1tYScsICc1MDAnLCAnLWltYWUnLCAnPGluZmlsZS5tYWU+JywgJy1vbWFlJywgJzxvdXRmaWxlLm1hZT4n

>  <s_epik_input>  (2) 
W2NIXTFbY0hdW2NIXVtjSF1bY0hdYzEtYyhbY0hdYyhDKEYpKEYpRiljMkMjTiluYzJTW0NIMl1DKD1PKVtOSF1jM1tjSF1bY0hdYyhPW0NIM10pW2NIXVtjSF0z

>  <s_lp_Force_Field>  (2) 
S-OPLS

>  <s_lp_Variant>  (2) 
3ac_Grossjean_2025-1

>  <s_lp_label>  (2) 
89

>  <s_m_source_file>  (2) 
montpellier_ligands.smi

$$$$
3ad_Grossjean_2025
     RDKit          3D

  0  0  0  0  0  0  0  0  0  0999 V3000
M  V30 BEGIN CTAB
M  V30 COUNTS 43 45 0 0 1
M  V30 BEGIN ATOM
M  V30 1 N 1.626067 -2.445748 0.780358 0
M  V30 2 C 0.827678 -1.619162 0.644346 0
M  V30 3 C -0.185605 -0.574133 0.471365 0
M  V30 4 C -1.509278 -0.904659 0.090429 0
M  V30 5 C -1.975670 -2.358241 -0.120102 0
M  V30 6 F -3.269150 -2.446120 -0.438272 0
M  V30 7 F -1.279498 -2.921118 -1.108713 0
M  V30 8 F -1.790594 -3.065082 0.995779 0
M  V30 9 C -2.429357 0.135845 -0.108169 0
M  V30 10 C -2.039445 1.467973 0.065829 0
M  V30 11 C -2.976947 2.618633 -0.147384 0
M  V30 12 C -4.362100 2.453786 0.010587 0
M  V30 13 C -5.238023 3.518425 -0.184256 0
M  V30 14 C -4.738210 4.766626 -0.540603 0
M  V30 15 C -3.369792 4.957226 -0.700728 0
M  V30 16 C -2.497333 3.890287 -0.504122 0
M  V30 17 N -0.767928 1.780324 0.425289 0
M  V30 18 C 0.132022 0.791966 0.642167 0
M  V30 19 S 1.741315 1.384236 1.116994 0
M  V30 20 C 2.118135 0.673316 2.747296 0
M  V30 21 C 3.591604 0.284112 2.881391 0
M  V30 22 N 3.856801 -1.033971 2.755780 0
M  V30 23 C 5.084284 -1.718438 2.837743 0
M  V30 24 C 5.055150 -3.062038 2.452848 0
M  V30 25 C 6.213986 -3.832052 2.499941 0
M  V30 26 C 7.405384 -3.259642 2.937229 0
M  V30 27 C 7.447307 -1.924677 3.330492 0
M  V30 28 C 6.289887 -1.151392 3.284828 0
M  V30 29 O 4.426930 1.164515 3.087951 0
M  V30 30 H -3.439851 -0.088128 -0.414745 0
M  V30 31 H -4.777621 1.500242 0.299679 0
M  V30 32 H -6.301022 3.376393 -0.056292 0
M  V30 33 H -5.416599 5.593290 -0.691833 0
M  V30 34 H -2.985696 5.928240 -0.976677 0
M  V30 35 H -1.439141 4.061502 -0.638749 0
M  V30 36 H 1.925397 1.468915 3.467913 0
M  V30 37 H 1.444239 -0.140144 3.018128 0
M  V30 38 H 3.069799 -1.626362 2.533725 0
M  V30 39 H 4.136184 -3.517518 2.111459 0
M  V30 40 H 6.188426 -4.868968 2.198762 0
M  V30 41 H 8.304503 -3.857090 2.974463 0
M  V30 42 H 8.374764 -1.490164 3.673249 0
M  V30 43 H 6.360142 -0.126166 3.610180 0
M  V30 END ATOM
M  V30 BEGIN BOND
M  V30 1 3 2 1
M  V30 2 1 3 2
M  V30 3 2 4 3
M  V30 4 1 5 4
M  V30 5 1 6 5
M  V30 6 1 7 5
M  V30 7 1 8 5
M  V30 8 1 9 4
M  V30 9 2 10 9
M  V30 10 1 11 10
M  V30 11 2 12 11
M  V30 12 1 13 12
M  V30 13 2 14 13
M  V30 14 1 15 14
M  V30 15 2 16 15
M  V30 16 1 16 11
M  V30 17 1 17 10
M  V30 18 2 18 17
M  V30 19 1 18 3
M  V30 20 1 19 18
M  V30 21 1 20 19
M  V30 22 1 21 20
M  V30 23 1 22 21
M  V30 24 1 23 22
M  V30 25 2 24 23
M  V30 26 1 25 24
M  V30 27 2 26 25
M  V30 28 1 27 26
M  V30 29 2 28 27
M  V30 30 1 28 23
M  V30 31 2 29 21
M  V30 32 1 30 9
M  V30 33 1 31 12
M  V30 34 1 32 13
M  V30 35 1 33 14
M  V30 36 1 34 15
M  V30 37 1 35 16
M  V30 38 1 36 20
M  V30 39 1 37 20
M  V30 40 1 38 22
M  V30 41 1 39 24
M  V30 42 1 40 25
M  V30 43 1 41 26
M  V30 44 1 42 27
M  V30 45 1 43 28
M  V30 END BOND
M  V30 END CTAB
M  END
>  <i_epik_Tot_Q>  (3) 
0

>  <i_epik_Tot_abs_Q>  (3) 
0

>  <i_f3d_flags>  (3) 
0

>  <i_lp_mmshare_version>  (3) 
71160

>  <i_lp_orig_ion_str>  (3) 
1

>  <i_m_source_file_index>  (3) 
90

>  <b_lp_Chiralities_Consistent>  (3) 
1

>  <r_epik_Charging_Adjusted_Penalty>  (3) 
0

>  <r_epik_Ionization_Penalty>  (3) 
4.724758910380046e-07

>  <r_epik_Ionization_Penalty_Charging>  (3) 
0

>  <r_epik_Ionization_Penalty_Neutral>  (3) 
4.724758910380046e-07

>  <r_epik_State_Penalty>  (3) 
-0

>  <r_lp_Energy>  (3) 
46.320102999999996

>  <r_lp_tautomer_probability>  (3) 
1

>  <s_epik_cmdline>  (3) 
J2VwaWtfcHl0aG9uJywgJy1waHQnLCAnMC4yJywgJy1waCcsICc3LjQnLCAnLXJldGFpbl9pX2xhYicsICctcmV0YWluX3RfbGFiJywgJy10bicsICcxJywgJy1tYScsICc1MDAnLCAnLWltYWUnLCAnPGluZmlsZS5tYWU+JywgJy1vbWFlJywgJzxvdXRmaWxlLm1hZT4n

>  <s_epik_input>  (3) 
W2NIXTFbY0hdW2NIXVtjSF1bY0hdYzEtYyhbY0hdYyhDKEYpKEYpRiljMkMjTiluYzJTW0NIMl1DKD1PKVtOSF1jM1tjSF1bY0hdW2NIXVtjSF1bY0hdMw==

>  <s_lp_Force_Field>  (3) 
S-OPLS

>  <s_lp_Variant>  (3) 
3ad_Grossjean_2025-1

>  <s_lp_label>  (3) 
90

>  <s_m_source_file>  (3) 
montpellier_ligands.smi

$$$$
3af_Grossjean_2025
     RDKit          3D

  0  0  0  0  0  0  0  0  0  0999 V3000
M  V30 BEGIN CTAB
M  V30 COUNTS 42 44 0 0 1
M  V30 BEGIN ATOM
M  V30 1 N 0.277943 -3.633272 0.226762 0
M  V30 2 C -0.197947 -2.578490 0.221957 0
M  V30 3 C -0.801569 -1.243110 0.216332 0
M  V30 4 C -2.198285 -1.081053 0.388671 0
M  V30 5 C -3.148927 -2.267750 0.640121 0
M  V30 6 F -4.415725 -1.887506 0.819890 0
M  V30 7 F -3.123007 -3.100060 -0.401543 0
M  V30 8 F -2.773573 -2.932082 1.734036 0
M  V30 9 C -2.736818 0.212614 0.320949 0
M  V30 10 C -1.906440 1.313014 0.084552 0
M  V30 11 C -2.430715 2.714254 -0.015709 0
M  V30 12 C -3.616565 3.084814 0.637988 0
M  V30 13 C -4.107940 4.384643 0.549942 0
M  V30 14 C -3.417038 5.334458 -0.195284 0
M  V30 15 C -2.238236 4.993771 -0.850316 0
M  V30 16 C -1.749797 3.693220 -0.759127 0
M  V30 17 N -0.569048 1.152544 -0.084111 0
M  V30 18 C -0.022202 -0.083547 0.000278 0
M  V30 19 S 1.743505 -0.092179 -0.233048 0
M  V30 20 C 2.486551 -1.035646 1.131518 0
M  V30 21 C 3.772336 -0.383666 1.641367 0
M  V30 22 N 3.641483 0.352307 2.766220 0
M  V30 23 C 4.614551 1.067164 3.490077 0
M  V30 24 C 4.171549 1.765146 4.619403 0
M  V30 25 N 4.991957 2.496263 5.416416 0
M  V30 26 C 6.308330 2.545992 5.092708 0
M  V30 27 C 6.841954 1.883557 3.987290 0
M  V30 28 C 5.985003 1.135718 3.177183 0
M  V30 29 O 4.821315 -0.565278 1.023419 0
M  V30 30 H -3.800124 0.361336 0.431882 0
M  V30 31 H -4.166702 2.372424 1.234366 0
M  V30 32 H -5.020441 4.655281 1.060639 0
M  V30 33 H -3.797361 6.343143 -0.264460 0
M  V30 34 H -1.704687 5.734584 -1.427719 0
M  V30 35 H -0.835265 3.451014 -1.280971 0
M  V30 36 H 1.774868 -1.216653 1.938561 0
M  V30 37 H 2.751070 -2.012249 0.724085 0
M  V30 38 H 2.710707 0.412310 3.152280 0
M  V30 39 H 3.130857 1.750415 4.910367 0
M  V30 40 H 6.942061 3.133123 5.740974 0
M  V30 41 H 7.896302 1.947262 3.761954 0
M  V30 42 H 6.412212 0.628461 2.327672 0
M  V30 END ATOM
M  V30 BEGIN BOND
M  V30 1 3 2 1
M  V30 2 1 3 2
M  V30 3 2 4 3
M  V30 4 1 5 4
M  V30 5 1 6 5
M  V30 6 1 7 5
M  V30 7 1 8 5
M  V30 8 1 9 4
M  V30 9 2 10 9
M  V30 10 1 11 10
M  V30 11 2 12 11
M  V30 12 1 13 12
M  V30 13 2 14 13
M  V30 14 1 15 14
M  V30 15 2 16 15
M  V30 16 1 16 11
M  V30 17 1 17 10
M  V30 18 2 18 17
M  V30 19 1 18 3
M  V30 20 1 19 18
M  V30 21 1 20 19
M  V30 22 1 21 20
M  V30 23 1 22 21
M  V30 24 1 23 22
M  V30 25 2 24 23
M  V30 26 1 25 24
M  V30 27 2 26 25
M  V30 28 1 27 26
M  V30 29 2 28 27
M  V30 30 1 28 23
M  V30 31 2 29 21
M  V30 32 1 30 9
M  V30 33 1 31 12
M  V30 34 1 32 13
M  V30 35 1 33 14
M  V30 36 1 34 15
M  V30 37 1 35 16
M  V30 38 1 36 20
M  V30 39 1 37 20
M  V30 40 1 38 22
M  V30 41 1 39 24
M  V30 42 1 40 26
M  V30 43 1 41 27
M  V30 44 1 42 28
M  V30 END BOND
M  V30 END CTAB
M  END
>  <i_epik_Tot_Q>  (4) 
0

>  <i_epik_Tot_abs_Q>  (4) 
0

>  <i_f3d_flags>  (4) 
0

>  <i_lp_mmshare_version>  (4) 
71160

>  <i_lp_orig_ion_str>  (4) 
1

>  <i_m_source_file_index>  (4) 
91

>  <b_lp_Chiralities_Consistent>  (4) 
1

>  <r_epik_Charging_Adjusted_Penalty>  (4) 
0

>  <r_epik_Ionization_Penalty>  (4) 
0.00066000157610299215

>  <r_epik_Ionization_Penalty_Charging>  (4) 
0

>  <r_epik_Ionization_Penalty_Neutral>  (4) 
0.00066000157610299215

>  <r_epik_State_Penalty>  (4) 
-0

>  <r_lp_Energy>  (4) 
48.929774999999999

>  <r_lp_tautomer_probability>  (4) 
1

>  <s_epik_cmdline>  (4) 
J2VwaWtfcHl0aG9uJywgJy1waHQnLCAnMC4yJywgJy1waCcsICc3LjQnLCAnLXJldGFpbl9pX2xhYicsICctcmV0YWluX3RfbGFiJywgJy10bicsICcxJywgJy1tYScsICc1MDAnLCAnLWltYWUnLCAnPGluZmlsZS5tYWU+JywgJy1vbWFlJywgJzxvdXRmaWxlLm1hZT4n

>  <s_epik_input>  (4) 
W2NIXTFbY0hdW2NIXVtjSF1bY0hdYzEtYyhbY0hdYyhDKEYpKEYpRiljMkMjTiluYzJTW0NIMl1DKD1PKVtOSF1jM1tjSF1uW2NIXVtjSF1bY0hdMw==

>  <s_lp_Force_Field>  (4) 
S-OPLS

>  <s_lp_Variant>  (4) 
3af_Grossjean_2025-1

>  <s_lp_label>  (4) 
91

>  <s_m_source_file>  (4) 
montpellier_ligands.smi

$$$$
3ag_Grossjean_2025
     RDKit          3D

  0  0  0  0  0  0  0  0  0  0999 V3000
M  V30 BEGIN CTAB
M  V30 COUNTS 46 48 0 0 1
M  V30 BEGIN ATOM
M  V30 1 N 1.612182 -2.070500 -1.465824 0
M  V30 2 C 0.802042 -1.300964 -1.164435 0
M  V30 3 C -0.226056 -0.327553 -0.784441 0
M  V30 4 C -1.510454 -0.361225 -1.380697 0
M  V30 5 C -1.924075 -1.435692 -2.404971 0
M  V30 6 F -3.191435 -1.309657 -2.804438 0
M  V30 7 F -1.150952 -1.352416 -3.488424 0
M  V30 8 F -1.792717 -2.651514 -1.872787 0
M  V30 9 C -2.441677 0.625380 -1.022725 0
M  V30 10 C -2.097635 1.623115 -0.104669 0
M  V30 11 C -3.052440 2.701461 0.311364 0
M  V30 12 C -4.084306 3.115106 -0.545727 0
M  V30 13 C -4.974252 4.116218 -0.165607 0
M  V30 14 C -4.843234 4.718947 1.081116 0
M  V30 15 C -3.827463 4.329457 1.947787 0
M  V30 16 C -2.938933 3.328910 1.563537 0
M  V30 17 N -0.869929 1.643611 0.474557 0
M  V30 18 C 0.038780 0.690275 0.159344 0
M  V30 19 S 1.588353 0.872805 1.014696 0
M  V30 20 C 1.873954 -0.659271 1.950731 0
M  V30 21 C 3.347605 -1.066572 1.955224 0
M  V30 22 N 3.704063 -2.028742 1.085985 0
M  V30 23 C 5.046328 -2.592738 0.947417 0
M  V30 24 C 5.481598 -3.458756 2.124337 0
M  V30 25 C 5.004005 -4.767462 2.238341 0
M  V30 26 C 5.422930 -5.571067 3.295475 0
M  V30 27 C 6.325904 -5.067178 4.229459 0
M  V30 28 C 6.817725 -3.768743 4.113268 0
M  V30 29 C 6.399795 -2.965097 3.055679 0
M  V30 30 O 4.133637 -0.523458 2.732553 0
M  V30 31 H -3.431912 0.615204 -1.452500 0
M  V30 32 H -4.201618 2.674182 -1.524200 0
M  V30 33 H -5.761601 4.425488 -0.837212 0
M  V30 34 H -5.533126 5.495453 1.377141 0
M  V30 35 H -3.729136 4.800339 2.914706 0
M  V30 36 H -2.161163 3.039584 2.255459 0
M  V30 37 H 1.597778 -0.430508 2.980690 0
M  V30 38 H 1.218201 -1.473999 1.642874 0
M  V30 39 H 2.992057 -2.427024 0.490664 0
M  V30 40 H 5.050407 -3.208913 0.047289 0
M  V30 41 H 5.773039 -1.799105 0.761041 0
M  V30 42 H 4.307443 -5.159679 1.511363 0
M  V30 43 H 5.051775 -6.581194 3.388955 0
M  V30 44 H 6.651220 -5.690730 5.049074 0
M  V30 45 H 7.521362 -3.387526 4.838505 0
M  V30 46 H 6.783582 -1.959096 2.965633 0
M  V30 END ATOM
M  V30 BEGIN BOND
M  V30 1 3 2 1
M  V30 2 1 3 2
M  V30 3 2 4 3
M  V30 4 1 5 4
M  V30 5 1 6 5
M  V30 6 1 7 5
M  V30 7 1 8 5
M  V30 8 1 9 4
M  V30 9 2 10 9
M  V30 10 1 11 10
M  V30 11 2 12 11
M  V30 12 1 13 12
M  V30 13 2 14 13
M  V30 14 1 15 14
M  V30 15 2 16 15
M  V30 16 1 16 11
M  V30 17 1 17 10
M  V30 18 2 18 17
M  V30 19 1 18 3
M  V30 20 1 19 18
M  V30 21 1 20 19
M  V30 22 1 21 20
M  V30 23 1 22 21
M  V30 24 1 23 22
M  V30 25 1 24 23
M  V30 26 2 25 24
M  V30 27 1 26 25
M  V30 28 2 27 26
M  V30 29 1 28 27
M  V30 30 2 29 28
M  V30 31 1 29 24
M  V30 32 2 30 21
M  V30 33 1 31 9
M  V30 34 1 32 12
M  V30 35 1 33 13
M  V30 36 1 34 14
M  V30 37 1 35 15
M  V30 38 1 36 16
M  V30 39 1 37 20
M  V30 40 1 38 20
M  V30 41 1 39 22
M  V30 42 1 40 23
M  V30 43 1 41 23
M  V30 44 1 42 25
M  V30 45 1 43 26
M  V30 46 1 44 27
M  V30 47 1 45 28
M  V30 48 1 46 29
M  V30 END BOND
M  V30 END CTAB
M  END
>  <i_epik_Tot_Q>  (5) 
0

>  <i_epik_Tot_abs_Q>  (5) 
0

>  <i_f3d_flags>  (5) 
0

>  <i_lp_mmshare_version>  (5) 
71160

>  <i_lp_orig_ion_str>  (5) 
1

>  <i_m_source_file_index>  (5) 
92

>  <b_lp_Chiralities_Consistent>  (5) 
1

>  <r_epik_Charging_Adjusted_Penalty>  (5) 
0

>  <r_epik_Ionization_Penalty>  (5) 
4.1081548602872872e-07

>  <r_epik_Ionization_Penalty_Charging>  (5) 
0

>  <r_epik_Ionization_Penalty_Neutral>  (5) 
4.1081548602872872e-07

>  <r_epik_State_Penalty>  (5) 
-0

>  <r_lp_Energy>  (5) 
41.164479999999998

>  <r_lp_tautomer_probability>  (5) 
1

>  <s_epik_cmdline>  (5) 
J2VwaWtfcHl0aG9uJywgJy1waHQnLCAnMC4yJywgJy1waCcsICc3LjQnLCAnLXJldGFpbl9pX2xhYicsICctcmV0YWluX3RfbGFiJywgJy10bicsICcxJywgJy1tYScsICc1MDAnLCAnLWltYWUnLCAnPGluZmlsZS5tYWU+JywgJy1vbWFlJywgJzxvdXRmaWxlLm1hZT4n

>  <s_epik_input>  (5) 
W2NIXTFbY0hdW2NIXVtjSF1bY0hdYzEtYyhbY0hdYyhDKEYpKEYpRiljMkMjTiluYzJTW0NIMl1DKD1PKVtOSF1bQ0gyXWMzW2NIXVtjSF1bY0hdW2NIXVtjSF0z

>  <s_lp_Force_Field>  (5) 
S-OPLS

>  <s_lp_Variant>  (5) 
3ag_Grossjean_2025-1

>  <s_lp_label>  (5) 
92

>  <s_m_source_file>  (5) 
montpellier_ligands.smi

$$$$
3ai_Grossjean_2025
     RDKit          3D

  0  0  0  0  0  0  0  0  0  0999 V3000
M  V30 BEGIN CTAB
M  V30 COUNTS 39 41 0 0 1
M  V30 BEGIN ATOM
M  V30 1 N 0.491037 -3.394551 0.280266 0
M  V30 2 C -0.078164 -2.387649 0.242413 0
M  V30 3 C -0.799660 -1.112813 0.195353 0
M  V30 4 C -2.215829 -1.081878 0.201939 0
M  V30 5 C -3.075292 -2.357009 0.303976 0
M  V30 6 F -4.384406 -2.097862 0.337747 0
M  V30 7 F -2.848212 -3.143721 -0.748666 0
M  V30 8 F -2.772727 -3.026378 1.417366 0
M  V30 9 C -2.859875 0.161014 0.106846 0
M  V30 10 C -2.112586 1.338880 0.004581 0
M  V30 11 C -2.748094 2.692068 -0.109767 0
M  V30 12 C -4.028976 2.929018 0.413533 0
M  V30 13 C -4.622919 4.184446 0.314892 0
M  V30 14 C -3.941078 5.223171 -0.310332 0
M  V30 15 C -2.669874 5.015280 -0.835154 0
M  V30 16 C -2.079169 3.758662 -0.733859 0
M  V30 17 N -0.755688 1.303677 -0.009560 0
M  V30 18 C -0.111184 0.118262 0.105203 0
M  V30 19 S 1.662916 0.271454 0.089070 0
M  V30 20 C 2.315046 -0.622190 1.540897 0
M  V30 21 C 3.392126 0.130563 2.335570 0
M  V30 22 N 3.811908 -0.501385 3.454722 0
M  V30 23 C 4.764164 -0.058103 4.363924 0
M  V30 24 N 5.442729 1.075026 4.287930 0
M  V30 25 O 6.281959 1.118097 5.402781 0
M  V30 26 C 6.079303 -0.008760 6.126268 0
M  V30 27 C 5.126095 -0.779163 5.501129 0
M  V30 28 O 3.813676 1.222666 1.947893 0
M  V30 29 H -3.938067 0.211153 0.094648 0
M  V30 30 H -4.575428 2.145550 0.916889 0
M  V30 31 H -5.607684 4.352531 0.725325 0
M  V30 32 H -4.400467 6.197737 -0.386540 0
M  V30 33 H -2.143532 5.824814 -1.319224 0
M  V30 34 H -1.092730 3.619989 -1.152643 0
M  V30 35 H 1.484959 -0.860504 2.207004 0
M  V30 36 H 2.738798 -1.566550 1.197580 0
M  V30 37 H 3.391716 -1.393926 3.667633 0
M  V30 38 H 6.663618 -0.119818 7.028005 0
M  V30 39 H 4.742950 -1.735650 5.824270 0
M  V30 END ATOM
M  V30 BEGIN BOND
M  V30 1 3 2 1
M  V30 2 1 3 2
M  V30 3 2 4 3
M  V30 4 1 5 4
M  V30 5 1 6 5
M  V30 6 1 7 5
M  V30 7 1 8 5
M  V30 8 1 9 4
M  V30 9 2 10 9
M  V30 10 1 11 10
M  V30 11 2 12 11
M  V30 12 1 13 12
M  V30 13 2 14 13
M  V30 14 1 15 14
M  V30 15 2 16 15
M  V30 16 1 16 11
M  V30 17 1 17 10
M  V30 18 2 18 17
M  V30 19 1 18 3
M  V30 20 1 19 18
M  V30 21 1 20 19
M  V30 22 1 21 20
M  V30 23 1 22 21
M  V30 24 1 23 22
M  V30 25 2 24 23
M  V30 26 1 25 24
M  V30 27 1 26 25
M  V30 28 2 27 26
M  V30 29 1 27 23
M  V30 30 2 28 21
M  V30 31 1 29 9
M  V30 32 1 30 12
M  V30 33 1 31 13
M  V30 34 1 32 14
M  V30 35 1 33 15
M  V30 36 1 34 16
M  V30 37 1 35 20
M  V30 38 1 36 20
M  V30 39 1 37 22
M  V30 40 1 38 26
M  V30 41 1 39 27
M  V30 END BOND
M  V30 END CTAB
M  END
>  <i_epik_Tot_Q>  (6) 
0

>  <i_epik_Tot_abs_Q>  (6) 
0

>  <i_f3d_flags>  (6) 
0

>  <i_lp_mmshare_version>  (6) 
71160

>  <i_lp_orig_ion_str>  (6) 
1

>  <i_m_source_file_index>  (6) 
93

>  <b_lp_Chiralities_Consistent>  (6) 
1

>  <r_epik_Charging_Adjusted_Penalty>  (6) 
0

>  <r_epik_Ionization_Penalty>  (6) 
0.0010324640310296262

>  <r_epik_Ionization_Penalty_Charging>  (6) 
0

>  <r_epik_Ionization_Penalty_Neutral>  (6) 
0.0010324640310296262

>  <r_epik_State_Penalty>  (6) 
-0

>  <r_lp_Energy>  (6) 
37.949968999999996

>  <r_lp_tautomer_probability>  (6) 
1

>  <s_epik_cmdline>  (6) 
J2VwaWtfcHl0aG9uJywgJy1waHQnLCAnMC4yJywgJy1waCcsICc3LjQnLCAnLXJldGFpbl9pX2xhYicsICctcmV0YWluX3RfbGFiJywgJy10bicsICcxJywgJy1tYScsICc1MDAnLCAnLWltYWUnLCAnPGluZmlsZS5tYWU+JywgJy1vbWFlJywgJzxvdXRmaWxlLm1hZT4n

>  <s_epik_input>  (6) 
W2NIXTFbY0hdW2NIXVtjSF1bY0hdYzEtYyhbY0hdYyhDKEYpKEYpRiljMkMjTiluYzJTW0NIMl1DKD1PKVtOSF1jM25vW2NIXVtjSF0z

>  <s_lp_Force_Field>  (6) 
S-OPLS

>  <s_lp_Variant>  (6) 
3ai_Grossjean_2025-1

>  <s_lp_label>  (6) 
93

>  <s_m_source_file>  (6) 
montpellier_ligands.smi

$$$$
3aj_Grossjean_2025
     RDKit          3D

  0  0  0  0  0  0  0  0  0  0999 V3000
M  V30 BEGIN CTAB
M  V30 COUNTS 39 41 0 0 1
M  V30 BEGIN ATOM
M  V30 1 N 0.437375 -3.445360 0.217822 0
M  V30 2 C -0.116491 -2.429442 0.196027 0
M  V30 3 C -0.818561 -1.143130 0.169072 0
M  V30 4 C -2.233937 -1.090729 0.196504 0
M  V30 5 C -3.111061 -2.353507 0.300414 0
M  V30 6 F -4.415690 -2.075147 0.346538 0
M  V30 7 F -2.905373 -3.139795 -0.756960 0
M  V30 8 F -2.808472 -3.031364 1.408499 0
M  V30 9 C -2.859965 0.162659 0.121149 0
M  V30 10 C -2.096041 1.329594 0.016274 0
M  V30 11 C -2.713086 2.692343 -0.078323 0
M  V30 12 C -3.974480 2.947416 0.482088 0
M  V30 13 C -4.552499 4.211599 0.401606 0
M  V30 14 C -3.873445 5.240629 -0.242522 0
M  V30 15 C -2.621457 5.014329 -0.804747 0
M  V30 16 C -2.046590 3.748906 -0.721382 0
M  V30 17 N -0.740192 1.274143 -0.018318 0
M  V30 18 C -0.112460 0.077957 0.078303 0
M  V30 19 S 1.663422 0.203419 0.039159 0
M  V30 20 C 2.319651 -0.715327 1.473377 0
M  V30 21 C 3.441664 -0.002331 2.241965 0
M  V30 22 N 3.880891 -0.659755 3.337996 0
M  V30 23 C 4.874557 -0.242164 4.213256 0
M  V30 24 N 5.611222 0.845810 4.138872 0
M  V30 25 C 6.457812 0.928566 5.146459 0
M  V30 26 C 6.420497 -0.112533 6.068744 0
M  V30 27 S 5.206646 -1.257196 5.580129 0
M  V30 28 O 3.878818 1.084633 1.856646 0
M  V30 29 H -3.937269 0.230478 0.125992 0
M  V30 30 H -4.517320 2.171071 1.000266 0
M  V30 31 H -5.522480 4.393754 0.840430 0
M  V30 32 H -4.320222 6.221956 -0.304678 0
M  V30 33 H -2.097856 5.816687 -1.303342 0
M  V30 34 H -1.075566 3.594866 -1.169435 0
M  V30 35 H 1.498691 -0.929635 2.158919 0
M  V30 36 H 2.704189 -1.671491 1.116528 0
M  V30 37 H 3.443453 -1.542378 3.559325 0
M  V30 38 H 7.119974 1.779885 5.203014 0
M  V30 39 H 7.012511 -0.255033 6.960790 0
M  V30 END ATOM
M  V30 BEGIN BOND
M  V30 1 3 2 1
M  V30 2 1 3 2
M  V30 3 2 4 3
M  V30 4 1 5 4
M  V30 5 1 6 5
M  V30 6 1 7 5
M  V30 7 1 8 5
M  V30 8 1 9 4
M  V30 9 2 10 9
M  V30 10 1 11 10
M  V30 11 2 12 11
M  V30 12 1 13 12
M  V30 13 2 14 13
M  V30 14 1 15 14
M  V30 15 2 16 15
M  V30 16 1 16 11
M  V30 17 1 17 10
M  V30 18 2 18 17
M  V30 19 1 18 3
M  V30 20 1 19 18
M  V30 21 1 20 19
M  V30 22 1 21 20
M  V30 23 1 22 21
M  V30 24 1 23 22
M  V30 25 2 24 23
M  V30 26 1 25 24
M  V30 27 2 26 25
M  V30 28 1 27 26
M  V30 29 1 27 23
M  V30 30 2 28 21
M  V30 31 1 29 9
M  V30 32 1 30 12
M  V30 33 1 31 13
M  V30 34 1 32 14
M  V30 35 1 33 15
M  V30 36 1 34 16
M  V30 37 1 35 20
M  V30 38 1 36 20
M  V30 39 1 37 22
M  V30 40 1 38 25
M  V30 41 1 39 26
M  V30 END BOND
M  V30 END CTAB
M  END
>  <i_epik_Tot_Q>  (7) 
0

>  <i_epik_Tot_abs_Q>  (7) 
0

>  <i_f3d_flags>  (7) 
0

>  <i_lp_mmshare_version>  (7) 
71160

>  <i_lp_orig_ion_str>  (7) 
1

>  <i_m_source_file_index>  (7) 
94

>  <b_lp_Chiralities_Consistent>  (7) 
1

>  <r_epik_Charging_Adjusted_Penalty>  (7) 
0

>  <r_epik_Ionization_Penalty>  (7) 
0.0076629186514500019

>  <r_epik_Ionization_Penalty_Charging>  (7) 
0

>  <r_epik_Ionization_Penalty_Neutral>  (7) 
0.0076629186514500019

>  <r_epik_State_Penalty>  (7) 
-0

>  <r_lp_Energy>  (7) 
42.342241999999999

>  <r_lp_tautomer_probability>  (7) 
1

>  <s_epik_cmdline>  (7) 
J2VwaWtfcHl0aG9uJywgJy1waHQnLCAnMC4yJywgJy1waCcsICc3LjQnLCAnLXJldGFpbl9pX2xhYicsICctcmV0YWluX3RfbGFiJywgJy10bicsICcxJywgJy1tYScsICc1MDAnLCAnLWltYWUnLCAnPGluZmlsZS5tYWU+JywgJy1vbWFlJywgJzxvdXRmaWxlLm1hZT4n

>  <s_epik_input>  (7) 
W2NIXTFbY0hdW2NIXVtjSF1bY0hdYzEtYyhbY0hdYyhDKEYpKEYpRiljMkMjTiluYzJTW0NIMl1DKD1PKVtOSF1jM25bY0hdW2NIXXMz

>  <s_lp_Force_Field>  (7) 
S-OPLS

>  <s_lp_Variant>  (7) 
3aj_Grossjean_2025-1

>  <s_lp_label>  (7) 
94

>  <s_m_source_file>  (7) 
montpellier_ligands.smi

$$$$
3ak_Grossjean_2025
     RDKit          3D

  0  0  0  0  0  0  0  0  0  0999 V3000
M  V30 BEGIN CTAB
M  V30 COUNTS 57 58 0 0 1
M  V30 BEGIN ATOM
M  V30 1 C -3.243698 1.021364 -6.002424 0
M  V30 2 O -2.726787 1.550233 -4.790923 0
M  V30 3 C -2.954708 0.712730 -3.665655 0
M  V30 4 C -2.355236 1.375538 -2.419715 0
M  V30 5 O -2.591096 0.539845 -1.292220 0
M  V30 6 C -2.227205 1.093133 -0.029535 0
M  V30 7 C -0.709064 1.275589 0.151963 0
M  V30 8 O -0.060720 0.027293 -0.045483 0
M  V30 9 C 1.355972 0.092149 0.047021 0
M  V30 10 C 1.963082 -1.315190 -0.099537 0
M  V30 11 N 1.595351 -2.228452 0.984224 0
M  V30 12 C 0.476793 -2.977238 1.040517 0
M  V30 13 C 0.242973 -3.865759 2.273964 0
M  V30 14 S 1.526579 -3.810466 3.578000 0
M  V30 15 C 0.835887 -4.460824 5.091110 0
M  V30 16 N -0.445506 -4.895116 5.010845 0
M  V30 17 C -1.061024 -5.401352 6.109694 0
M  V30 18 C -2.478294 -5.857906 5.930560 0
M  V30 19 C -3.361252 -5.902455 7.021138 0
M  V30 20 C -4.679191 -6.322134 6.860422 0
M  V30 21 C -5.133238 -6.703465 5.602227 0
M  V30 22 C -4.279614 -6.665855 4.504748 0
M  V30 23 C -2.962881 -6.245014 4.669446 0
M  V30 24 C -0.383488 -5.498387 7.329670 0
M  V30 25 C 0.944069 -5.058398 7.440427 0
M  V30 26 C 1.656696 -5.178842 8.801383 0
M  V30 27 F 2.731118 -5.960464 8.685963 0
M  V30 28 F 2.041857 -3.974123 9.224430 0
M  V30 29 F 0.877578 -5.705298 9.748675 0
M  V30 30 C 1.576397 -4.522129 6.292252 0
M  V30 31 C 2.962131 -4.045647 6.347866 0
M  V30 32 N 4.055670 -3.669444 6.391593 0
M  V30 33 O -0.369067 -2.981056 0.145743 0
M  V30 34 H -3.038419 1.714385 -6.818201 0
M  V30 35 H -4.324547 0.881717 -5.947517 0
M  V30 36 H -2.778666 0.065984 -6.250775 0
M  V30 37 H -4.025509 0.556236 -3.521483 0
M  V30 38 H -2.495303 -0.265310 -3.821237 0
M  V30 39 H -1.285336 1.526786 -2.567941 0
M  V30 40 H -2.812131 2.355517 -2.270363 0
M  V30 41 H -2.748947 2.038329 0.129741 0
M  V30 42 H -2.595676 0.413237 0.739339 0
M  V30 43 H -0.328209 2.022581 -0.546055 0
M  V30 44 H -0.505822 1.645267 1.158472 0
M  V30 45 H 1.743180 0.740483 -0.740804 0
M  V30 46 H 1.653268 0.522732 1.005400 0
M  V30 47 H 1.675452 -1.742806 -1.062340 0
M  V30 48 H 3.050432 -1.238014 -0.118192 0
M  V30 49 H 2.251028 -2.295246 1.749118 0
M  V30 50 H -0.726925 -3.610671 2.702208 0
M  V30 51 H 0.168269 -4.897953 1.930253 0
M  V30 52 H -3.041198 -5.599082 8.006629 0
M  V30 53 H -5.347493 -6.348192 7.708423 0
M  V30 54 H -6.155219 -7.029255 5.475918 0
M  V30 55 H -4.636860 -6.961844 3.529301 0
M  V30 56 H -2.317890 -6.227933 3.802722 0
M  V30 57 H -0.883850 -5.924576 8.185900 0
M  V30 END ATOM
M  V30 BEGIN BOND
M  V30 1 1 2 1
M  V30 2 1 3 2
M  V30 3 1 4 3
M  V30 4 1 5 4
M  V30 5 1 6 5
M  V30 6 1 7 6
M  V30 7 1 8 7
M  V30 8 1 9 8
M  V30 9 1 10 9
M  V30 10 1 11 10
M  V30 11 1 12 11
M  V30 12 1 13 12
M  V30 13 1 14 13
M  V30 14 1 15 14
M  V30 15 2 16 15
M  V30 16 1 17 16
M  V30 17 1 18 17
M  V30 18 2 19 18
M  V30 19 1 20 19
M  V30 20 2 21 20
M  V30 21 1 22 21
M  V30 22 2 23 22
M  V30 23 1 23 18
M  V30 24 2 24 17
M  V30 25 1 25 24
M  V30 26 1 26 25
M  V30 27 1 27 26
M  V30 28 1 28 26
M  V30 29 1 29 26
M  V30 30 2 30 25
M  V30 31 1 30 15
M  V30 32 1 31 30
M  V30 33 3 32 31
M  V30 34 2 33 12
M  V30 35 1 34 1
M  V30 36 1 35 1
M  V30 37 1 36 1
M  V30 38 1 37 3
M  V30 39 1 38 3
M  V30 40 1 39 4
M  V30 41 1 40 4
M  V30 42 1 41 6
M  V30 43 1 42 6
M  V30 44 1 43 7
M  V30 45 1 44 7
M  V30 46 1 45 9
M  V30 47 1 46 9
M  V30 48 1 47 10
M  V30 49 1 48 10
M  V30 50 1 49 11
M  V30 51 1 50 13
M  V30 52 1 51 13
M  V30 53 1 52 19
M  V30 54 1 53 20
M  V30 55 1 54 21
M  V30 56 1 55 22
M  V30 57 1 56 23
M  V30 58 1 57 24
M  V30 END BOND
M  V30 END CTAB
M  END
>  <i_epik_Tot_Q>  (8) 
0

>  <i_epik_Tot_abs_Q>  (8) 
0

>  <i_f3d_flags>  (8) 
0

>  <i_lp_mmshare_version>  (8) 
71160

>  <i_lp_orig_ion_str>  (8) 
1

>  <i_m_source_file_index>  (8) 
95

>  <b_lp_Chiralities_Consistent>  (8) 
1

>  <r_epik_Charging_Adjusted_Penalty>  (8) 
0

>  <r_epik_Ionization_Penalty>  (8) 
3.3602753362236457e-07

>  <r_epik_Ionization_Penalty_Charging>  (8) 
0

>  <r_epik_Ionization_Penalty_Neutral>  (8) 
3.3602753362236457e-07

>  <r_epik_State_Penalty>  (8) 
-0

>  <r_lp_Energy>  (8) 
42.166210999999997

>  <r_lp_tautomer_probability>  (8) 
1

>  <s_epik_cmdline>  (8) 
J2VwaWtfcHl0aG9uJywgJy1waHQnLCAnMC4yJywgJy1waCcsICc3LjQnLCAnLXJldGFpbl9pX2xhYicsICctcmV0YWluX3RfbGFiJywgJy10bicsICcxJywgJy1tYScsICc1MDAnLCAnLWltYWUnLCAnPGluZmlsZS5tYWU+JywgJy1vbWFlJywgJzxvdXRmaWxlLm1hZT4n

>  <s_epik_input>  (8) 
W0NIM11PW0NIMl1bQ0gyXU9bQ0gyXVtDSDJdT1tDSDJdW0NIMl1bTkhdQyg9TylbQ0gyXVNjMW5jKFtjSF1jKEMoRikoRilGKWMxQyNOKS1jMltjSF1bY0hdW2NIXVtjSF1bY0hdMg==

>  <s_lp_Force_Field>  (8) 
S-OPLS

>  <s_lp_Variant>  (8) 
3ak_Grossjean_2025-1

>  <s_lp_label>  (8) 
95

>  <s_m_source_file>  (8) 
montpellier_ligands.smi

$$$$
3ca_Grossjean_2025
     RDKit          3D

  0  0  0  0  0  0  0  0  0  0999 V3000
M  V30 BEGIN CTAB
M  V30 COUNTS 52 54 0 0 1
M  V30 BEGIN ATOM
M  V30 1 C 1.698175 4.970454 0.564488 0
M  V30 2 C 0.511601 4.243366 -0.038246 0
M  V30 3 C -0.649864 4.917155 -0.406181 0
M  V30 4 C -1.720906 4.201568 -0.957335 0
M  V30 5 C -2.952073 4.964794 -1.323993 0
M  V30 6 C -2.877914 6.017933 -2.243611 0
M  V30 7 C -4.018248 6.740574 -2.584568 0
M  V30 8 C -5.240180 6.415121 -2.001894 0
M  V30 9 C -5.329631 5.375496 -1.080010 0
M  V30 10 C -4.187310 4.655253 -0.740954 0
M  V30 11 C -1.573636 2.802677 -1.139522 0
M  V30 12 C -2.641280 2.010098 -1.759019 0
M  V30 13 N -3.483731 1.385118 -2.247895 0
M  V30 14 C -0.358683 2.197170 -0.740068 0
M  V30 15 S -0.063491 0.443993 -0.929448 0
M  V30 16 C 1.689773 0.072185 -0.592355 0
M  V30 17 C 2.643294 0.654730 -1.641280 0
M  V30 18 N 2.675203 -0.002912 -2.820477 0
M  V30 19 C 3.432296 0.262834 -3.977426 0
M  V30 20 C 3.078845 -0.463504 -5.115076 0
M  V30 21 C 3.764760 -0.277620 -6.311811 0
M  V30 22 C 4.824392 0.635152 -6.392332 0
M  V30 23 C 5.542918 0.811556 -7.699083 0
M  V30 24 O 6.562387 1.706408 -7.634058 0
M  V30 25 C 7.355846 1.999662 -8.777255 0
M  V30 26 C 8.429213 3.025679 -8.401850 0
M  V30 27 O 5.239095 0.200258 -8.727761 0
M  V30 28 C 5.183247 1.357222 -5.243809 0
M  V30 29 C 4.497071 1.173569 -4.046280 0
M  V30 30 O 3.292145 1.665219 -1.371152 0
M  V30 31 N 0.657751 2.908736 -0.191930 0
M  V30 32 H 1.521014 6.044301 0.632658 0
M  V30 33 H 2.589329 4.814346 -0.044652 0
M  V30 34 H 1.901967 4.597907 1.568882 0
M  V30 35 H -0.724505 5.985338 -0.258355 0
M  V30 36 H -1.933425 6.275385 -2.701043 0
M  V30 37 H -3.954874 7.549305 -3.297784 0
M  V30 38 H -6.125537 6.974665 -2.266024 0
M  V30 39 H -6.279987 5.129897 -0.629124 0
M  V30 40 H -4.263622 3.853197 -0.020819 0
M  V30 41 H 1.930192 0.496028 0.383738 0
M  V30 42 H 1.833107 -1.004798 -0.498739 0
M  V30 43 H 2.029982 -0.773298 -2.915821 0
M  V30 44 H 2.265144 -1.174285 -5.082706 0
M  V30 45 H 3.459812 -0.854209 -7.173837 0
M  V30 46 H 7.826536 1.088093 -9.148904 0
M  V30 47 H 6.726898 2.395093 -9.576401 0
M  V30 48 H 9.052364 3.265977 -9.263177 0
M  V30 49 H 9.081279 2.644604 -7.615485 0
M  V30 50 H 7.980570 3.953728 -8.046423 0
M  V30 51 H 5.997490 2.067636 -5.257590 0
M  V30 52 H 4.823551 1.743842 -3.191883 0
M  V30 END ATOM
M  V30 BEGIN BOND
M  V30 1 1 2 1
M  V30 2 2 3 2
M  V30 3 1 4 3
M  V30 4 1 5 4
M  V30 5 2 6 5
M  V30 6 1 7 6
M  V30 7 2 8 7
M  V30 8 1 9 8
M  V30 9 2 10 9
M  V30 10 1 10 5
M  V30 11 2 11 4
M  V30 12 1 12 11
M  V30 13 3 13 12
M  V30 14 1 14 11
M  V30 15 1 15 14
M  V30 16 1 16 15
M  V30 17 1 17 16
M  V30 18 1 18 17
M  V30 19 1 19 18
M  V30 20 2 20 19
M  V30 21 1 21 20
M  V30 22 2 22 21
M  V30 23 1 23 22
M  V30 24 1 24 23
M  V30 25 1 25 24
M  V30 26 1 26 25
M  V30 27 2 27 23
M  V30 28 1 28 22
M  V30 29 2 29 28
M  V30 30 1 29 19
M  V30 31 2 30 17
M  V30 32 2 31 14
M  V30 33 1 31 2
M  V30 34 1 32 1
M  V30 35 1 33 1
M  V30 36 1 34 1
M  V30 37 1 35 3
M  V30 38 1 36 6
M  V30 39 1 37 7
M  V30 40 1 38 8
M  V30 41 1 39 9
M  V30 42 1 40 10
M  V30 43 1 41 16
M  V30 44 1 42 16
M  V30 45 1 43 18
M  V30 46 1 44 20
M  V30 47 1 45 21
M  V30 48 1 46 25
M  V30 49 1 47 25
M  V30 50 1 48 26
M  V30 51 1 49 26
M  V30 52 1 50 26
M  V30 53 1 51 28
M  V30 54 1 52 29
M  V30 END BOND
M  V30 END CTAB
M  END
>  <i_epik_Tot_Q>  (9) 
0

>  <i_epik_Tot_abs_Q>  (9) 
0

>  <i_f3d_flags>  (9) 
0

>  <i_lp_mmshare_version>  (9) 
71160

>  <i_lp_orig_ion_str>  (9) 
1

>  <i_m_source_file_index>  (9) 
96

>  <b_lp_Chiralities_Consistent>  (9) 
1

>  <r_epik_Charging_Adjusted_Penalty>  (9) 
0

>  <r_epik_Ionization_Penalty>  (9) 
7.431345469944857e-07

>  <r_epik_Ionization_Penalty_Charging>  (9) 
0

>  <r_epik_Ionization_Penalty_Neutral>  (9) 
7.431345469944857e-07

>  <r_epik_State_Penalty>  (9) 
-0

>  <r_lp_Energy>  (9) 
37.222321000000001

>  <r_lp_tautomer_probability>  (9) 
1

>  <s_epik_Chemistry_Notes>  (9) 
This compound has an ester and may undergo hydrolysis at high or low pH.

>  <s_epik_cmdline>  (9) 
J2VwaWtfcHl0aG9uJywgJy1waHQnLCAnMC4yJywgJy1waCcsICc3LjQnLCAnLXJldGFpbl9pX2xhYicsICctcmV0YWluX3RfbGFiJywgJy10bicsICcxJywgJy1tYScsICc1MDAnLCAnLWltYWUnLCAnPGluZmlsZS5tYWU+JywgJy1vbWFlJywgJzxvdXRmaWxlLm1hZT4n

>  <s_epik_input>  (9) 
W2NIXTFbY0hdW2NIXVtjSF1bY0hdYzEtYyhbY0hdYzJbQ0gzXSljKEMjTiljKG4yKVNbQ0gyXUMoPU8pW05IXWMzW2NIXVtjSF1jKFtjSF1bY0hdMylDKD1PKU9bQ0gyXVtDSDNd

>  <s_lp_Force_Field>  (9) 
S-OPLS

>  <s_lp_Variant>  (9) 
3ca_Grossjean_2025-1

>  <s_lp_label>  (9) 
96

>  <s_m_source_file>  (9) 
montpellier_ligands.smi

$$$$
3cb_Grossjean_2025
     RDKit          3D

  0  0  0  0  0  0  0  0  0  0999 V3000
M  V30 BEGIN CTAB
M  V30 COUNTS 49 51 0 0 1
M  V30 BEGIN ATOM
M  V30 1 C -0.481603 4.428171 2.660017 0
M  V30 2 C -0.343698 3.805002 1.284041 0
M  V30 3 C -0.234165 4.586330 0.136758 0
M  V30 4 C -0.113217 3.968691 -1.115475 0
M  V30 5 C -0.003512 4.851303 -2.317423 0
M  V30 6 C -0.995749 5.803213 -2.583604 0
M  V30 7 C -0.897566 6.636520 -3.694755 0
M  V30 8 C 0.198901 6.524255 -4.545270 0
M  V30 9 C 1.198050 5.588613 -4.291384 0
M  V30 10 C 1.097625 4.758209 -3.178334 0
M  V30 11 C -0.110082 2.550701 -1.169585 0
M  V30 12 C -0.080472 1.852716 -2.458522 0
M  V30 13 N -0.056284 1.302279 -3.476235 0
M  V30 14 C -0.197843 1.835852 0.049598 0
M  V30 15 S -0.195951 0.059156 0.164732 0
M  V30 16 C 1.267816 -0.557232 -0.734877 0
M  V30 17 C 2.065119 -1.649025 -0.004918 0
M  V30 18 N 3.138192 -2.108015 -0.685408 0
M  V30 19 C 4.078922 -3.095988 -0.331612 0
M  V30 20 C 5.164111 -3.236758 -1.197792 0
M  V30 21 C 6.151281 -4.185478 -0.946115 0
M  V30 22 C 6.069006 -5.017870 0.180258 0
M  V30 23 C 7.113960 -6.053622 0.482012 0
M  V30 24 O 8.113901 -6.090547 -0.436007 0
M  V30 25 C 9.186280 -7.014413 -0.312709 0
M  V30 26 O 7.066208 -6.797772 1.466132 0
M  V30 27 C 4.975239 -4.876811 1.044543 0
M  V30 28 C 3.987033 -3.928496 0.794167 0
M  V30 29 O 1.723192 -2.031653 1.114693 0
M  V30 30 N -0.330313 2.453668 1.248965 0
M  V30 31 H -0.481686 5.517826 2.611192 0
M  V30 32 H 0.344825 4.120452 3.301836 0
M  V30 33 H -1.414139 4.112347 3.129080 0
M  V30 34 H -0.242339 5.664392 0.216092 0
M  V30 35 H -1.850470 5.896589 -1.929162 0
M  V30 36 H -1.668158 7.366234 -3.895627 0
M  V30 37 H 0.276299 7.169879 -5.407830 0
M  V30 38 H 2.047577 5.508461 -4.953590 0
M  V30 39 H 1.880917 4.039470 -2.985132 0
M  V30 40 H 0.924368 -0.962766 -1.687389 0
M  V30 41 H 1.929686 0.280379 -0.958754 0
M  V30 42 H 3.320767 -1.666228 -1.574522 0
M  V30 43 H 5.253257 -2.609268 -2.073364 0
M  V30 44 H 6.974877 -4.259157 -1.641614 0
M  V30 45 H 9.890427 -6.875726 -1.133228 0
M  V30 46 H 8.822520 -8.042231 -0.347487 0
M  V30 47 H 9.724548 -6.868050 0.624834 0
M  V30 48 H 4.874284 -5.502528 1.920320 0
M  V30 49 H 3.164270 -3.874630 1.487967 0
M  V30 END ATOM
M  V30 BEGIN BOND
M  V30 1 1 2 1
M  V30 2 2 3 2
M  V30 3 1 4 3
M  V30 4 1 5 4
M  V30 5 2 6 5
M  V30 6 1 7 6
M  V30 7 2 8 7
M  V30 8 1 9 8
M  V30 9 2 10 9
M  V30 10 1 10 5
M  V30 11 2 11 4
M  V30 12 1 12 11
M  V30 13 3 13 12
M  V30 14 1 14 11
M  V30 15 1 15 14
M  V30 16 1 16 15
M  V30 17 1 17 16
M  V30 18 1 18 17
M  V30 19 1 19 18
M  V30 20 2 20 19
M  V30 21 1 21 20
M  V30 22 2 22 21
M  V30 23 1 23 22
M  V30 24 1 24 23
M  V30 25 1 25 24
M  V30 26 2 26 23
M  V30 27 1 27 22
M  V30 28 2 28 27
M  V30 29 1 28 19
M  V30 30 2 29 17
M  V30 31 2 30 14
M  V30 32 1 30 2
M  V30 33 1 31 1
M  V30 34 1 32 1
M  V30 35 1 33 1
M  V30 36 1 34 3
M  V30 37 1 35 6
M  V30 38 1 36 7
M  V30 39 1 37 8
M  V30 40 1 38 9
M  V30 41 1 39 10
M  V30 42 1 40 16
M  V30 43 1 41 16
M  V30 44 1 42 18
M  V30 45 1 43 20
M  V30 46 1 44 21
M  V30 47 1 45 25
M  V30 48 1 46 25
M  V30 49 1 47 25
M  V30 50 1 48 27
M  V30 51 1 49 28
M  V30 END BOND
M  V30 END CTAB
M  END
>  <i_epik_Tot_Q>  (10) 
0

>  <i_epik_Tot_abs_Q>  (10) 
0

>  <i_f3d_flags>  (10) 
0

>  <i_lp_mmshare_version>  (10) 
71160

>  <i_lp_orig_ion_str>  (10) 
1

>  <i_m_source_file_index>  (10) 
97

>  <b_lp_Chiralities_Consistent>  (10) 
1

>  <r_epik_Charging_Adjusted_Penalty>  (10) 
0

>  <r_epik_Ionization_Penalty>  (10) 
9.4099158542250124e-07

>  <r_epik_Ionization_Penalty_Charging>  (10) 
0

>  <r_epik_Ionization_Penalty_Neutral>  (10) 
9.4099158542250124e-07

>  <r_epik_State_Penalty>  (10) 
-0

>  <r_lp_Energy>  (10) 
41.794016999999997

>  <r_lp_tautomer_probability>  (10) 
1

>  <s_epik_Chemistry_Notes>  (10) 
This compound has an ester and may undergo hydrolysis at high or low pH.

>  <s_epik_cmdline>  (10) 
J2VwaWtfcHl0aG9uJywgJy1waHQnLCAnMC4yJywgJy1waCcsICc3LjQnLCAnLXJldGFpbl9pX2xhYicsICctcmV0YWluX3RfbGFiJywgJy10bicsICcxJywgJy1tYScsICc1MDAnLCAnLWltYWUnLCAnPGluZmlsZS5tYWU+JywgJy1vbWFlJywgJzxvdXRmaWxlLm1hZT4n

>  <s_epik_input>  (10) 
W2NIXTFbY0hdW2NIXVtjSF1bY0hdYzEtYyhbY0hdYzJbQ0gzXSljKEMjTiljKG4yKVNbQ0gyXUMoPU8pW05IXWMzW2NIXVtjSF1jKFtjSF1bY0hdMylDKD1PKU9bQ0gzXQ==

>  <s_lp_Force_Field>  (10) 
S-OPLS

>  <s_lp_Variant>  (10) 
3cb_Grossjean_2025-1

>  <s_lp_label>  (10) 
97

>  <s_m_source_file>  (10) 
montpellier_ligands.smi

$$$$
3ch_Grossjean_2025
     RDKit          3D

  0  0  0  0  0  0  0  0  0  0999 V3000
M  V30 BEGIN CTAB
M  V30 COUNTS 55 57 0 0 1
M  V30 BEGIN ATOM
M  V30 1 C -6.908259 -2.460392 1.687219 0
M  V30 2 C -6.473796 -1.124997 1.112929 0
M  V30 3 C -7.340875 -0.339610 0.357019 0
M  V30 4 C -6.899002 0.888618 -0.153169 0
M  V30 5 C -7.860663 1.692760 -0.966765 0
M  V30 6 C -9.088321 2.086162 -0.420377 0
M  V30 7 C -9.992949 2.828350 -1.175348 0
M  V30 8 C -9.674446 3.177251 -2.485123 0
M  V30 9 C -8.460892 2.787967 -3.045555 0
M  V30 10 C -7.559026 2.045389 -2.288368 0
M  V30 11 C -5.571472 1.297739 0.132162 0
M  V30 12 C -5.085624 2.613664 -0.295412 0
M  V30 13 N -4.702150 3.651917 -0.633311 0
M  V30 14 C -4.751551 0.425237 0.886188 0
M  V30 15 S -3.058263 0.781656 1.298267 0
M  V30 16 C -2.150425 0.804440 -0.276176 0
M  V30 17 C -0.682770 1.191107 -0.091059 0
M  V30 18 N 0.201728 0.172931 -0.166625 0
M  V30 19 C 1.605991 0.192936 -0.064336 0
M  V30 20 C 2.362003 1.279043 0.401497 0
M  V30 21 C 3.762987 1.206832 0.463244 0
M  V30 22 O 4.572279 2.240479 0.901096 0
M  V30 23 C 3.981031 3.463921 1.325087 0
M  V30 24 C 4.400069 0.023829 0.066239 0
M  V30 25 O 5.771829 -0.052433 0.107717 0
M  V30 26 C 6.287591 -0.536841 1.340046 0
M  V30 27 C 3.662436 -1.074468 -0.394049 0
M  V30 28 O 4.373735 -2.200771 -0.768195 0
M  V30 29 C 3.673230 -3.351555 -1.227451 0
M  V30 30 C 2.263386 -0.976552 -0.449008 0
M  V30 31 O -0.395511 2.376292 0.077634 0
M  V30 32 N -5.199656 -0.756508 1.377479 0
M  V30 33 H -7.933995 -2.704773 1.408245 0
M  V30 34 H -6.851281 -2.442697 2.776115 0
M  V30 35 H -6.262407 -3.261121 1.324806 0
M  V30 36 H -8.347992 -0.680924 0.163510 0
M  V30 37 H -9.341727 1.820822 0.595984 0
M  V30 38 H -10.936990 3.131740 -0.746999 0
M  V30 39 H -10.374921 3.753000 -3.072165 0
M  V30 40 H -8.220638 3.059094 -4.063068 0
M  V30 41 H -6.621751 1.742242 -2.732611 0
M  V30 42 H -2.255197 -0.153154 -0.788600 0
M  V30 43 H -2.609104 1.546558 -0.927825 0
M  V30 44 H -0.184907 -0.737606 -0.367379 0
M  V30 45 H 1.872055 2.180787 0.725934 0
M  V30 46 H 4.765911 4.155039 1.631825 0
M  V30 47 H 3.321600 3.313953 2.181267 0
M  V30 48 H 3.420642 3.938982 0.518547 0
M  V30 49 H 7.376120 -0.561218 1.291940 0
M  V30 50 H 5.940471 -1.550288 1.548523 0
M  V30 51 H 6.005597 0.107377 2.174712 0
M  V30 52 H 4.390630 -4.135597 -1.469284 0
M  V30 53 H 3.101231 -3.138282 -2.131709 0
M  V30 54 H 3.002078 -3.743896 -0.461792 0
M  V30 55 H 1.673292 -1.810538 -0.799548 0
M  V30 END ATOM
M  V30 BEGIN BOND
M  V30 1 1 2 1
M  V30 2 2 3 2
M  V30 3 1 4 3
M  V30 4 1 5 4
M  V30 5 2 6 5
M  V30 6 1 7 6
M  V30 7 2 8 7
M  V30 8 1 9 8
M  V30 9 2 10 9
M  V30 10 1 10 5
M  V30 11 2 11 4
M  V30 12 1 12 11
M  V30 13 3 13 12
M  V30 14 1 14 11
M  V30 15 1 15 14
M  V30 16 1 16 15
M  V30 17 1 17 16
M  V30 18 1 18 17
M  V30 19 1 19 18
M  V30 20 2 20 19
M  V30 21 1 21 20
M  V30 22 1 22 21
M  V30 23 1 23 22
M  V30 24 2 24 21
M  V30 25 1 25 24
M  V30 26 1 26 25
M  V30 27 1 27 24
M  V30 28 1 28 27
M  V30 29 1 29 28
M  V30 30 2 30 27
M  V30 31 1 30 19
M  V30 32 2 31 17
M  V30 33 2 32 14
M  V30 34 1 32 2
M  V30 35 1 33 1
M  V30 36 1 34 1
M  V30 37 1 35 1
M  V30 38 1 36 3
M  V30 39 1 37 6
M  V30 40 1 38 7
M  V30 41 1 39 8
M  V30 42 1 40 9
M  V30 43 1 41 10
M  V30 44 1 42 16
M  V30 45 1 43 16
M  V30 46 1 44 18
M  V30 47 1 45 20
M  V30 48 1 46 23
M  V30 49 1 47 23
M  V30 50 1 48 23
M  V30 51 1 49 26
M  V30 52 1 50 26
M  V30 53 1 51 26
M  V30 54 1 52 29
M  V30 55 1 53 29
M  V30 56 1 54 29
M  V30 57 1 55 30
M  V30 END BOND
M  V30 END CTAB
M  END
>  <i_epik_Tot_Q>  (11) 
0

>  <i_epik_Tot_abs_Q>  (11) 
0

>  <i_f3d_flags>  (11) 
0

>  <i_lp_mmshare_version>  (11) 
71160

>  <i_lp_orig_ion_str>  (11) 
1

>  <i_m_source_file_index>  (11) 
98

>  <b_lp_Chiralities_Consistent>  (11) 
1

>  <r_epik_Charging_Adjusted_Penalty>  (11) 
0

>  <r_epik_Ionization_Penalty>  (11) 
8.8203269973673805e-07

>  <r_epik_Ionization_Penalty_Charging>  (11) 
0

>  <r_epik_Ionization_Penalty_Neutral>  (11) 
8.8203269973673805e-07

>  <r_epik_State_Penalty>  (11) 
-0

>  <r_lp_Energy>  (11) 
55.200910999999998

>  <r_lp_tautomer_probability>  (11) 
1

>  <s_epik_cmdline>  (11) 
J2VwaWtfcHl0aG9uJywgJy1waHQnLCAnMC4yJywgJy1waCcsICc3LjQnLCAnLXJldGFpbl9pX2xhYicsICctcmV0YWluX3RfbGFiJywgJy10bicsICcxJywgJy1tYScsICc1MDAnLCAnLWltYWUnLCAnPGluZmlsZS5tYWU+JywgJy1vbWFlJywgJzxvdXRmaWxlLm1hZT4n

>  <s_epik_input>  (11) 
W2NIXTFbY0hdW2NIXVtjSF1bY0hdYzEtYyhbY0hdYzJbQ0gzXSljKEMjTiljKG4yKVNbQ0gyXUMoPU8pW05IXWMzW2NIXWMoT1tDSDNdKWMoT1tDSDNdKWMoW2NIXTMpT1tDSDNd

>  <s_lp_Force_Field>  (11) 
S-OPLS

>  <s_lp_Variant>  (11) 
3ch_Grossjean_2025-1

>  <s_lp_label>  (11) 
98

>  <s_m_source_file>  (11) 
montpellier_ligands.smi

$$$$
3ce_Grossjean_2025
     RDKit          3D

  0  0  0  0  0  0  0  0  0  0999 V3000
M  V30 BEGIN CTAB
M  V30 COUNTS 45 47 0 0 1
M  V30 BEGIN ATOM
M  V30 1 C -2.946244 2.550881 0.335783 0
M  V30 2 C -2.227614 1.223663 0.184448 0
M  V30 3 C -2.922494 0.016690 0.161319 0
M  V30 4 C -2.217232 -1.187283 0.032933 0
M  V30 5 C -3.003351 -2.457407 0.039455 0
M  V30 6 C -3.988130 -2.678906 -0.930572 0
M  V30 7 C -4.729470 -3.857743 -0.928419 0
M  V30 8 C -4.492805 -4.818809 0.050925 0
M  V30 9 C -3.524043 -4.609032 1.028627 0
M  V30 10 C -2.783707 -3.429987 1.022879 0
M  V30 11 C -0.805732 -1.131790 -0.093305 0
M  V30 12 C -0.016306 -2.358383 -0.244957 0
M  V30 13 N 0.606447 -3.326312 -0.364771 0
M  V30 14 C -0.184187 0.139119 -0.073797 0
M  V30 15 S 1.571826 0.370628 -0.227467 0
M  V30 16 C 1.976574 -0.044795 -1.948761 0
M  V30 17 C 3.483028 -0.010244 -2.206440 0
M  V30 18 N 3.975569 1.170598 -2.641232 0
M  V30 19 C 5.307448 1.493985 -2.955271 0
M  V30 20 N 6.238661 0.529802 -3.214010 0
M  V30 21 C 7.501163 0.915061 -3.532902 0
M  V30 22 C 8.483130 -0.207450 -3.809588 0
M  V30 23 C 7.883489 2.256597 -3.610793 0
M  V30 24 C 6.923593 3.236282 -3.353422 0
M  V30 25 C 5.620316 2.856283 -3.026066 0
M  V30 26 O 4.153161 -1.024200 -2.003711 0
M  V30 27 N -0.881173 1.292300 0.076203 0
M  V30 28 H -4.027045 2.418940 0.399698 0
M  V30 29 H -2.736842 3.197471 -0.517169 0
M  V30 30 H -2.615795 3.061683 1.241024 0
M  V30 31 H -3.999239 0.011095 0.257005 0
M  V30 32 H -4.176626 -1.937614 -1.693931 0
M  V30 33 H -5.484034 -4.026199 -1.682645 0
M  V30 34 H -5.066550 -5.733904 0.053368 0
M  V30 35 H -3.347673 -5.356364 1.788241 0
M  V30 36 H -2.035904 -3.272426 1.786911 0
M  V30 37 H 1.619772 -1.056281 -2.141051 0
M  V30 38 H 1.439067 0.604927 -2.641044 0
M  V30 39 H 3.333105 1.948508 -2.664013 0
M  V30 40 H 9.470780 0.176086 -4.068385 0
M  V30 41 H 8.133329 -0.822131 -4.639973 0
M  V30 42 H 8.588569 -0.847007 -2.932495 0
M  V30 43 H 8.895000 2.535993 -3.867188 0
M  V30 44 H 7.186525 4.282386 -3.409209 0
M  V30 45 H 4.873671 3.612521 -2.829391 0
M  V30 END ATOM
M  V30 BEGIN BOND
M  V30 1 1 2 1
M  V30 2 2 3 2
M  V30 3 1 4 3
M  V30 4 1 5 4
M  V30 5 2 6 5
M  V30 6 1 7 6
M  V30 7 2 8 7
M  V30 8 1 9 8
M  V30 9 2 10 9
M  V30 10 1 10 5
M  V30 11 2 11 4
M  V30 12 1 12 11
M  V30 13 3 13 12
M  V30 14 1 14 11
M  V30 15 1 15 14
M  V30 16 1 16 15
M  V30 17 1 17 16
M  V30 18 1 18 17
M  V30 19 1 19 18
M  V30 20 2 20 19
M  V30 21 1 21 20
M  V30 22 1 22 21
M  V30 23 2 23 21
M  V30 24 1 24 23
M  V30 25 2 25 24
M  V30 26 1 25 19
M  V30 27 2 26 17
M  V30 28 2 27 14
M  V30 29 1 27 2
M  V30 30 1 28 1
M  V30 31 1 29 1
M  V30 32 1 30 1
M  V30 33 1 31 3
M  V30 34 1 32 6
M  V30 35 1 33 7
M  V30 36 1 34 8
M  V30 37 1 35 9
M  V30 38 1 36 10
M  V30 39 1 37 16
M  V30 40 1 38 16
M  V30 41 1 39 18
M  V30 42 1 40 22
M  V30 43 1 41 22
M  V30 44 1 42 22
M  V30 45 1 43 23
M  V30 46 1 44 24
M  V30 47 1 45 25
M  V30 END BOND
M  V30 END CTAB
M  END
>  <i_epik_Tot_Q>  (12) 
0

>  <i_epik_Tot_abs_Q>  (12) 
0

>  <i_f3d_flags>  (12) 
0

>  <i_lp_mmshare_version>  (12) 
71160

>  <i_lp_orig_ion_str>  (12) 
1

>  <i_m_source_file_index>  (12) 
99

>  <b_lp_Chiralities_Consistent>  (12) 
1

>  <r_epik_Charging_Adjusted_Penalty>  (12) 
0

>  <r_epik_Ionization_Penalty>  (12) 
0.001906824905292964

>  <r_epik_Ionization_Penalty_Charging>  (12) 
0

>  <r_epik_Ionization_Penalty_Neutral>  (12) 
0.001906824905292964

>  <r_epik_State_Penalty>  (12) 
-0

>  <r_lp_Energy>  (12) 
45.893822

>  <r_lp_tautomer_probability>  (12) 
1

>  <s_epik_cmdline>  (12) 
J2VwaWtfcHl0aG9uJywgJy1waHQnLCAnMC4yJywgJy1waCcsICc3LjQnLCAnLXJldGFpbl9pX2xhYicsICctcmV0YWluX3RfbGFiJywgJy10bicsICcxJywgJy1tYScsICc1MDAnLCAnLWltYWUnLCAnPGluZmlsZS5tYWU+JywgJy1vbWFlJywgJzxvdXRmaWxlLm1hZT4n

>  <s_epik_input>  (12) 
W2NIXTFbY0hdW2NIXVtjSF1bY0hdYzEtYyhbY0hdYzJbQ0gzXSljKEMjTiljKG4yKVNbQ0gyXUMoPU8pW05IXWMzbmMoW0NIM10pW2NIXVtjSF1bY0hdMw==

>  <s_lp_Force_Field>  (12) 
S-OPLS

>  <s_lp_Variant>  (12) 
3ce_Grossjean_2025-1

>  <s_lp_label>  (12) 
99

>  <s_m_source_file>  (12) 
montpellier_ligands.smi

$$$$
3cj_Grossjean_2025
     RDKit          3D

  0  0  0  0  0  0  0  0  0  0999 V3000
M  V30 BEGIN CTAB
M  V30 COUNTS 39 41 0 0 1
M  V30 BEGIN ATOM
M  V30 1 C -2.279125 1.773497 -1.600572 0
M  V30 2 C -1.622381 0.602615 -0.895101 0
M  V30 3 C -2.288870 -0.606993 -0.714821 0
M  V30 4 C -1.635141 -1.669715 -0.077480 0
M  V30 5 C -2.364469 -2.966889 0.036391 0
M  V30 6 C -1.858915 -4.122206 -0.572714 0
M  V30 7 C -2.546767 -5.328694 -0.478070 0
M  V30 8 C -3.748494 -5.382978 0.223125 0
M  V30 9 C -4.268376 -4.240773 0.826496 0
M  V30 10 C -3.578257 -3.035255 0.729939 0
M  V30 11 C -0.315797 -1.462831 0.397381 0
M  V30 12 C 0.410049 -2.527217 1.097891 0
M  V30 13 N 0.982733 -3.367829 1.649633 0
M  V30 14 C 0.285111 -0.204688 0.167182 0
M  V30 15 S 1.978828 0.142836 0.589708 0
M  V30 16 C 2.832815 0.318180 -1.008556 0
M  V30 17 C 2.692366 -0.939800 -1.872256 0
M  V30 18 N 1.574773 -0.999867 -2.629239 0
M  V30 19 C 1.146523 -2.076977 -3.388443 0
M  V30 20 N 1.815959 -3.167619 -3.691558 0
M  V30 21 C 1.085091 -3.999172 -4.408041 0
M  V30 22 C -0.210850 -3.584638 -4.701214 0
M  V30 23 S -0.476799 -2.018304 -3.995629 0
M  V30 24 O 3.553828 -1.818528 -1.809646 0
M  V30 25 N -0.352554 0.804903 -0.476197 0
M  V30 26 H -3.308662 1.548475 -1.881633 0
M  V30 27 H -1.730011 2.026650 -2.508148 0
M  V30 28 H -2.292320 2.650831 -0.952846 0
M  V30 29 H -3.296407 -0.729804 -1.086535 0
M  V30 30 H -0.929891 -4.085260 -1.124156 0
M  V30 31 H -2.150670 -6.217015 -0.947723 0
M  V30 32 H -4.283320 -6.318407 0.297372 0
M  V30 33 H -5.202466 -4.289704 1.366320 0
M  V30 34 H -3.987081 -2.152206 1.199740 0
M  V30 35 H 2.496957 1.210022 -1.539306 0
M  V30 36 H 3.888672 0.471117 -0.781736 0
M  V30 37 H 0.937375 -0.218520 -2.576920 0
M  V30 38 H 1.519033 -4.937077 -4.722254 0
M  V30 39 H -0.978613 -4.093936 -5.264992 0
M  V30 END ATOM
M  V30 BEGIN BOND
M  V30 1 1 2 1
M  V30 2 2 3 2
M  V30 3 1 4 3
M  V30 4 1 5 4
M  V30 5 2 6 5
M  V30 6 1 7 6
M  V30 7 2 8 7
M  V30 8 1 9 8
M  V30 9 2 10 9
M  V30 10 1 10 5
M  V30 11 2 11 4
M  V30 12 1 12 11
M  V30 13 3 13 12
M  V30 14 1 14 11
M  V30 15 1 15 14
M  V30 16 1 16 15
M  V30 17 1 17 16
M  V30 18 1 18 17
M  V30 19 1 19 18
M  V30 20 2 20 19
M  V30 21 1 21 20
M  V30 22 2 22 21
M  V30 23 1 23 22
M  V30 24 1 23 19
M  V30 25 2 24 17
M  V30 26 2 25 14
M  V30 27 1 25 2
M  V30 28 1 26 1
M  V30 29 1 27 1
M  V30 30 1 28 1
M  V30 31 1 29 3
M  V30 32 1 30 6
M  V30 33 1 31 7
M  V30 34 1 32 8
M  V30 35 1 33 9
M  V30 36 1 34 10
M  V30 37 1 35 16
M  V30 38 1 36 16
M  V30 39 1 37 18
M  V30 40 1 38 21
M  V30 41 1 39 22
M  V30 END BOND
M  V30 END CTAB
M  END
>  <i_epik_Tot_Q>  (13) 
0

>  <i_epik_Tot_abs_Q>  (13) 
0

>  <i_f3d_flags>  (13) 
0

>  <i_lp_mmshare_version>  (13) 
71160

>  <i_lp_orig_ion_str>  (13) 
1

>  <i_m_source_file_index>  (13) 
100

>  <b_lp_Chiralities_Consistent>  (13) 
1

>  <r_epik_Charging_Adjusted_Penalty>  (13) 
0

>  <r_epik_Ionization_Penalty>  (13) 
0.0076629652780283979

>  <r_epik_Ionization_Penalty_Charging>  (13) 
0

>  <r_epik_Ionization_Penalty_Neutral>  (13) 
0.0076629652780283979

>  <r_epik_State_Penalty>  (13) 
-0

>  <r_lp_Energy>  (13) 
35.369678999999998

>  <r_lp_tautomer_probability>  (13) 
1

>  <s_epik_cmdline>  (13) 
J2VwaWtfcHl0aG9uJywgJy1waHQnLCAnMC4yJywgJy1waCcsICc3LjQnLCAnLXJldGFpbl9pX2xhYicsICctcmV0YWluX3RfbGFiJywgJy10bicsICcxJywgJy1tYScsICc1MDAnLCAnLWltYWUnLCAnPGluZmlsZS5tYWU+JywgJy1vbWFlJywgJzxvdXRmaWxlLm1hZT4n

>  <s_epik_input>  (13) 
W2NIXTFbY0hdW2NIXVtjSF1bY0hdYzEtYyhbY0hdYzJbQ0gzXSljKEMjTiljKG4yKVNbQ0gyXUMoPU8pW05IXWMzbltjSF1bY0hdczM=

>  <s_lp_Force_Field>  (13) 
S-OPLS

>  <s_lp_Variant>  (13) 
3cj_Grossjean_2025-1

>  <s_lp_label>  (13) 
100

>  <s_m_source_file>  (13) 
montpellier_ligands.smi

$$$$
3ci_Grossjean_2025
     RDKit          3D

  0  0  0  0  0  0  0  0  0  0999 V3000
M  V30 BEGIN CTAB
M  V30 COUNTS 39 41 0 0 1
M  V30 BEGIN ATOM
M  V30 1 C -1.882740 -0.027427 -2.768373 0
M  V30 2 C -1.518204 -0.828697 -1.533244 0
M  V30 3 C -2.452654 -1.621431 -0.872556 0
M  V30 4 C -2.063700 -2.357025 0.254853 0
M  V30 5 C -3.097171 -3.205310 0.921937 0
M  V30 6 C -2.920536 -4.589703 1.039470 0
M  V30 7 C -3.890638 -5.376605 1.654285 0
M  V30 8 C -5.047460 -4.781550 2.150309 0
M  V30 9 C -5.242132 -3.407868 2.034159 0
M  V30 10 C -4.269820 -2.623717 1.418984 0
M  V30 11 C -0.718714 -2.256540 0.694078 0
M  V30 12 C -0.265263 -2.970228 1.892765 0
M  V30 13 N 0.091791 -3.533566 2.838506 0
M  V30 14 C 0.167616 -1.432183 -0.038564 0
M  V30 15 S 1.888858 -1.249832 0.411990 0
M  V30 16 C 2.764446 -0.321706 -0.890191 0
M  V30 17 C 2.808081 -1.056366 -2.235372 0
M  V30 18 N 2.176944 -0.441194 -3.260373 0
M  V30 19 C 2.044073 -0.900692 -4.563266 0
M  V30 20 N 2.542174 -2.027870 -5.044150 0
M  V30 21 O 2.167516 -2.091962 -6.387324 0
M  V30 22 C 1.443399 -0.984501 -6.676630 0
M  V30 23 C 1.342945 -0.205376 -5.547330 0
M  V30 24 O 3.409026 -2.129092 -2.315898 0
M  V30 25 N -0.233123 -0.728485 -1.127725 0
M  V30 26 H -2.928758 -0.166072 -3.044330 0
M  V30 27 H -1.268101 -0.334555 -3.615482 0
M  V30 28 H -1.718310 1.036547 -2.594440 0
M  V30 29 H -3.468880 -1.676246 -1.236812 0
M  V30 30 H -2.027874 -5.059292 0.651844 0
M  V30 31 H -3.746562 -6.443163 1.744751 0
M  V30 32 H -5.800631 -5.390914 2.627695 0
M  V30 33 H -6.142473 -2.952659 2.419797 0
M  V30 34 H -4.427278 -1.558098 1.333878 0
M  V30 35 H 2.315851 0.668275 -0.988305 0
M  V30 36 H 3.788340 -0.159169 -0.552895 0
M  V30 37 H 1.726710 0.440136 -3.062670 0
M  V30 38 H 1.079064 -0.891789 -7.689255 0
M  V30 39 H 0.830547 0.740007 -5.447955 0
M  V30 END ATOM
M  V30 BEGIN BOND
M  V30 1 1 2 1
M  V30 2 2 3 2
M  V30 3 1 4 3
M  V30 4 1 5 4
M  V30 5 2 6 5
M  V30 6 1 7 6
M  V30 7 2 8 7
M  V30 8 1 9 8
M  V30 9 2 10 9
M  V30 10 1 10 5
M  V30 11 2 11 4
M  V30 12 1 12 11
M  V30 13 3 13 12
M  V30 14 1 14 11
M  V30 15 1 15 14
M  V30 16 1 16 15
M  V30 17 1 17 16
M  V30 18 1 18 17
M  V30 19 1 19 18
M  V30 20 2 20 19
M  V30 21 1 21 20
M  V30 22 1 22 21
M  V30 23 2 23 22
M  V30 24 1 23 19
M  V30 25 2 24 17
M  V30 26 2 25 14
M  V30 27 1 25 2
M  V30 28 1 26 1
M  V30 29 1 27 1
M  V30 30 1 28 1
M  V30 31 1 29 3
M  V30 32 1 30 6
M  V30 33 1 31 7
M  V30 34 1 32 8
M  V30 35 1 33 9
M  V30 36 1 34 10
M  V30 37 1 35 16
M  V30 38 1 36 16
M  V30 39 1 37 18
M  V30 40 1 38 22
M  V30 41 1 39 23
M  V30 END BOND
M  V30 END CTAB
M  END
>  <i_epik_Tot_Q>  (14) 
0

>  <i_epik_Tot_abs_Q>  (14) 
0

>  <i_f3d_flags>  (14) 
0

>  <i_lp_mmshare_version>  (14) 
71160

>  <i_lp_orig_ion_str>  (14) 
1

>  <i_m_source_file_index>  (14) 
101

>  <b_lp_Chiralities_Consistent>  (14) 
1

>  <r_epik_Charging_Adjusted_Penalty>  (14) 
0

>  <r_epik_Ionization_Penalty>  (14) 
0.0010325151284029269

>  <r_epik_Ionization_Penalty_Charging>  (14) 
0

>  <r_epik_Ionization_Penalty_Neutral>  (14) 
0.0010325151284029269

>  <r_epik_State_Penalty>  (14) 
-0

>  <r_lp_Energy>  (14) 
28.668216999999999

>  <r_lp_tautomer_probability>  (14) 
1

>  <s_epik_cmdline>  (14) 
J2VwaWtfcHl0aG9uJywgJy1waHQnLCAnMC4yJywgJy1waCcsICc3LjQnLCAnLXJldGFpbl9pX2xhYicsICctcmV0YWluX3RfbGFiJywgJy10bicsICcxJywgJy1tYScsICc1MDAnLCAnLWltYWUnLCAnPGluZmlsZS5tYWU+JywgJy1vbWFlJywgJzxvdXRmaWxlLm1hZT4n

>  <s_epik_input>  (14) 
W2NIXTFbY0hdW2NIXVtjSF1bY0hdYzEtYyhbY0hdYzJbQ0gzXSljKEMjTiljKG4yKVNbQ0gyXUMoPU8pW05IXWMzbm9bY0hdW2NIXTM=

>  <s_lp_Force_Field>  (14) 
S-OPLS

>  <s_lp_Variant>  (14) 
3ci_Grossjean_2025-1

>  <s_lp_label>  (14) 
101

>  <s_m_source_file>  (14) 
montpellier_ligands.smi

$$$$
3ck_Grossjean_2025
     RDKit          3D

  0  0  0  0  0  0  0  0  0  0999 V3000
M  V30 BEGIN CTAB
M  V30 COUNTS 57 58 0 0 1
M  V30 BEGIN ATOM
M  V30 1 N -0.587275 8.195929 -1.294254 0
M  V30 2 C -1.403392 7.376191 -1.332646 0
M  V30 3 C -2.438003 6.337478 -1.382374 0
M  V30 4 C -3.612556 6.519781 -2.155726 0
M  V30 5 C -3.874991 7.723734 -3.000208 0
M  V30 6 C -5.005623 8.515309 -2.765255 0
M  V30 7 C -5.261693 9.633524 -3.554522 0
M  V30 8 C -4.388541 9.961989 -4.588217 0
M  V30 9 C -3.264287 9.180207 -4.840029 0
M  V30 10 C -3.011026 8.062976 -4.048981 0
M  V30 11 C -4.586706 5.513082 -2.134766 0
M  V30 12 C -4.373310 4.364186 -1.377768 0
M  V30 13 C -5.392333 3.242009 -1.329961 0
M  V30 14 N -3.252904 4.171527 -0.646413 0
M  V30 15 C -2.298864 5.137249 -0.646753 0
M  V30 16 S -0.853188 4.792740 0.344164 0
M  V30 17 C -0.827310 3.017368 0.767668 0
M  V30 18 C -0.608416 2.060497 -0.414845 0
M  V30 19 N -0.306644 0.791130 -0.085290 0
M  V30 20 C -0.030349 -0.294646 -1.029704 0
M  V30 21 C 1.415904 -0.301257 -1.561155 0
M  V30 22 O 1.648663 0.876815 -2.318288 0
M  V30 23 C 2.996512 1.069608 -2.719574 0
M  V30 24 C 3.089315 2.398708 -3.480201 0
M  V30 25 O 2.643137 3.450401 -2.633398 0
M  V30 26 C 2.576573 4.717583 -3.272714 0
M  V30 27 C 2.073597 5.766131 -2.272459 0
M  V30 28 O 2.979928 5.855331 -1.180906 0
M  V30 29 C 2.592159 6.804150 -0.199608 0
M  V30 30 O -0.710932 2.449239 -1.580095 0
M  V30 31 H -5.687408 8.267170 -1.964609 0
M  V30 32 H -6.133097 10.243204 -3.365704 0
M  V30 33 H -4.585903 10.829112 -5.201206 0
M  V30 34 H -2.592318 9.437993 -5.645325 0
M  V30 35 H -2.139678 7.457409 -4.253837 0
M  V30 36 H -5.494783 5.619249 -2.711290 0
M  V30 37 H -6.265527 3.463586 -1.944647 0
M  V30 38 H -5.733475 3.080623 -0.306731 0
M  V30 39 H -4.951743 2.312797 -1.693660 0
M  V30 40 H -0.016002 2.883854 1.484074 0
M  V30 41 H -1.749632 2.750643 1.284204 0
M  V30 42 H -0.258279 0.549842 0.893910 0
M  V30 43 H -0.232922 -1.239257 -0.524582 0
M  V30 44 H -0.731645 -0.243392 -1.865176 0
M  V30 45 H 2.112702 -0.361805 -0.722624 0
M  V30 46 H 1.578661 -1.176560 -2.191771 0
M  V30 47 H 3.653310 1.096471 -1.848224 0
M  V30 48 H 3.322878 0.247601 -3.358771 0
M  V30 49 H 4.119072 2.578900 -3.793451 0
M  V30 50 H 2.474019 2.345552 -4.380550 0
M  V30 51 H 3.560851 5.003962 -3.647416 0
M  V30 52 H 1.897197 4.674423 -4.125835 0
M  V30 53 H 1.983967 6.733682 -2.769747 0
M  V30 54 H 1.080263 5.485284 -1.918865 0
M  V30 55 H 3.334752 6.825861 0.597697 0
M  V30 56 H 1.631644 6.546630 0.247364 0
M  V30 57 H 2.523397 7.808446 -0.620077 0
M  V30 END ATOM
M  V30 BEGIN BOND
M  V30 1 3 2 1
M  V30 2 1 3 2
M  V30 3 2 4 3
M  V30 4 1 5 4
M  V30 5 2 6 5
M  V30 6 1 7 6
M  V30 7 2 8 7
M  V30 8 1 9 8
M  V30 9 2 10 9
M  V30 10 1 10 5
M  V30 11 1 11 4
M  V30 12 2 12 11
M  V30 13 1 13 12
M  V30 14 1 14 12
M  V30 15 2 15 14
M  V30 16 1 15 3
M  V30 17 1 16 15
M  V30 18 1 17 16
M  V30 19 1 18 17
M  V30 20 1 19 18
M  V30 21 1 20 19
M  V30 22 1 21 20
M  V30 23 1 22 21
M  V30 24 1 23 22
M  V30 25 1 24 23
M  V30 26 1 25 24
M  V30 27 1 26 25
M  V30 28 1 27 26
M  V30 29 1 28 27
M  V30 30 1 29 28
M  V30 31 2 30 18
M  V30 32 1 31 6
M  V30 33 1 32 7
M  V30 34 1 33 8
M  V30 35 1 34 9
M  V30 36 1 35 10
M  V30 37 1 36 11
M  V30 38 1 37 13
M  V30 39 1 38 13
M  V30 40 1 39 13
M  V30 41 1 40 17
M  V30 42 1 41 17
M  V30 43 1 42 19
M  V30 44 1 43 20
M  V30 45 1 44 20
M  V30 46 1 45 21
M  V30 47 1 46 21
M  V30 48 1 47 23
M  V30 49 1 48 23
M  V30 50 1 49 24
M  V30 51 1 50 24
M  V30 52 1 51 26
M  V30 53 1 52 26
M  V30 54 1 53 27
M  V30 55 1 54 27
M  V30 56 1 55 29
M  V30 57 1 56 29
M  V30 58 1 57 29
M  V30 END BOND
M  V30 END CTAB
M  END
>  <i_epik_Tot_Q>  (15) 
0

>  <i_epik_Tot_abs_Q>  (15) 
0

>  <i_f3d_flags>  (15) 
0

>  <i_lp_mmshare_version>  (15) 
71160

>  <i_lp_orig_ion_str>  (15) 
1

>  <i_m_source_file_index>  (15) 
102

>  <b_lp_Chiralities_Consistent>  (15) 
1

>  <r_epik_Charging_Adjusted_Penalty>  (15) 
0

>  <r_epik_Ionization_Penalty>  (15) 
4.4213004653285637e-07

>  <r_epik_Ionization_Penalty_Charging>  (15) 
0

>  <r_epik_Ionization_Penalty_Neutral>  (15) 
4.4213004653285637e-07

>  <r_epik_State_Penalty>  (15) 
-0

>  <r_lp_Energy>  (15) 
27.922756999999997

>  <r_lp_tautomer_probability>  (15) 
1

>  <s_epik_cmdline>  (15) 
J2VwaWtfcHl0aG9uJywgJy1waHQnLCAnMC4yJywgJy1waCcsICc3LjQnLCAnLXJldGFpbl9pX2xhYicsICctcmV0YWluX3RfbGFiJywgJy10bicsICcxJywgJy1tYScsICc1MDAnLCAnLWltYWUnLCAnPGluZmlsZS5tYWU+JywgJy1vbWFlJywgJzxvdXRmaWxlLm1hZT4n

>  <s_epik_input>  (15) 
W2NIXTFbY0hdW2NIXVtjSF1bY0hdYzEtYyhjMkMjTilbY0hdYyhbQ0gzXSluYzJTW0NIMl1DKD1PKVtOSF1bQ0gyXVtDSDJdT1tDSDJdW0NIMl1PW0NIMl1bQ0gyXU9bQ0gzXQ==

>  <s_lp_Force_Field>  (15) 
S-OPLS

>  <s_lp_Variant>  (15) 
3ck_Grossjean_2025-1

>  <s_lp_label>  (15) 
102

>  <s_m_source_file>  (15) 
montpellier_ligands.smi

$$$$
4aa_Grossjean_2025
     RDKit          3D

  0  0  0  0  0  0  0  0  0  0999 V3000
M  V30 BEGIN CTAB
M  V30 COUNTS 45 47 0 0 1
M  V30 BEGIN ATOM
M  V30 1 O -0.582394 1.236308 0.191386 0
M  V30 2 C 0.013501 0.165361 0.071551 0
M  V30 3 N -0.597687 -1.038465 -0.047398 0
M  V30 4 C -1.966672 -1.367246 -0.016884 0
M  V30 5 C -2.282053 -2.680693 -0.366408 0
M  V30 6 C -3.604636 -3.113863 -0.362135 0
M  V30 7 C -4.639587 -2.242039 0.000710 0
M  V30 8 C -6.055283 -2.743335 -0.000335 0
M  V30 9 O -6.956859 -1.804272 0.386273 0
M  V30 10 C -8.345362 -2.103834 0.455229 0
M  V30 11 C -9.113795 -0.855692 0.899948 0
M  V30 12 O -6.366396 -3.895592 -0.316737 0
M  V30 13 C -4.318002 -0.924007 0.359626 0
M  V30 14 C -2.995443 -0.488271 0.352895 0
M  V30 15 C 1.476797 0.128884 0.025066 0
M  V30 16 C 2.378208 1.204898 0.020294 0
M  V30 17 N 1.995488 2.522509 0.025819 0
M  V30 18 C 3.760773 0.808507 0.003744 0
M  V30 19 C 4.970584 1.553923 -0.010719 0
M  V30 20 C 5.035587 3.073581 -0.017159 0
M  V30 21 C 6.175954 0.842859 -0.019215 0
M  V30 22 C 6.163041 -0.550453 -0.014188 0
M  V30 23 C 7.457007 -1.343516 -0.018764 0
M  V30 24 N 5.030134 -1.293984 -0.003653 0
M  V30 25 C 3.883168 -0.613378 0.005059 0
M  V30 26 S 2.330086 -1.416565 0.024076 0
M  V30 27 H 0.012576 -1.828811 -0.194450 0
M  V30 28 H -1.504383 -3.376361 -0.648619 0
M  V30 29 H -3.810980 -4.137061 -0.643519 0
M  V30 30 H -8.705940 -2.434297 -0.520073 0
M  V30 31 H -8.516241 -2.917180 1.162355 0
M  V30 32 H -10.181917 -1.062662 0.967098 0
M  V30 33 H -8.977597 -0.036348 0.193336 0
M  V30 34 H -8.778788 -0.514126 1.879784 0
M  V30 35 H -5.082593 -0.218759 0.652682 0
M  V30 36 H -2.804939 0.529695 0.651514 0
M  V30 37 H 2.670251 3.273823 0.017791 0
M  V30 38 H 1.020167 2.786707 0.040582 0
M  V30 39 H 6.059830 3.448607 -0.027111 0
M  V30 40 H 4.538852 3.475413 0.866325 0
M  V30 41 H 4.525087 3.468004 -0.896072 0
M  V30 42 H 7.119153 1.370578 -0.028772 0
M  V30 43 H 8.331427 -0.691657 -0.016850 0
M  V30 44 H 7.513554 -1.977263 -0.904705 0
M  V30 45 H 7.515168 -1.982982 0.862953 0
M  V30 END ATOM
M  V30 BEGIN BOND
M  V30 1 2 2 1
M  V30 2 1 3 2
M  V30 3 1 4 3
M  V30 4 2 5 4
M  V30 5 1 6 5
M  V30 6 2 7 6
M  V30 7 1 8 7
M  V30 8 1 9 8
M  V30 9 1 10 9
M  V30 10 1 11 10
M  V30 11 2 12 8
M  V30 12 1 13 7
M  V30 13 2 14 13
M  V30 14 1 14 4
M  V30 15 1 15 2
M  V30 16 2 16 15
M  V30 17 1 17 16
M  V30 18 1 18 16
M  V30 19 2 19 18
M  V30 20 1 20 19
M  V30 21 1 21 19
M  V30 22 2 22 21
M  V30 23 1 23 22
M  V30 24 1 24 22
M  V30 25 2 25 24
M  V30 26 1 25 18
M  V30 27 1 26 25
M  V30 28 1 26 15
M  V30 29 1 27 3
M  V30 30 1 28 5
M  V30 31 1 29 6
M  V30 32 1 30 10
M  V30 33 1 31 10
M  V30 34 1 32 11
M  V30 35 1 33 11
M  V30 36 1 34 11
M  V30 37 1 35 13
M  V30 38 1 36 14
M  V30 39 1 37 17
M  V30 40 1 38 17
M  V30 41 1 39 20
M  V30 42 1 40 20
M  V30 43 1 41 20
M  V30 44 1 42 21
M  V30 45 1 43 23
M  V30 46 1 44 23
M  V30 47 1 45 23
M  V30 END BOND
M  V30 END CTAB
M  END
>  <i_epik_Tot_Q>  (16) 
0

>  <i_epik_Tot_abs_Q>  (16) 
0

>  <i_f3d_flags>  (16) 
0

>  <i_lp_mmshare_version>  (16) 
71160

>  <i_lp_orig_ion_str>  (16) 
1

>  <i_m_source_file_index>  (16) 
103

>  <b_lp_Chiralities_Consistent>  (16) 
1

>  <r_epik_Charging_Adjusted_Penalty>  (16) 
0

>  <r_epik_Ionization_Penalty>  (16) 
0.00016200362036003252

>  <r_epik_Ionization_Penalty_Charging>  (16) 
0

>  <r_epik_Ionization_Penalty_Neutral>  (16) 
0.00016200362036003252

>  <r_epik_State_Penalty>  (16) 
-0

>  <r_lp_Energy>  (16) 
31.647392

>  <r_lp_tautomer_probability>  (16) 
1

>  <s_epik_Chemistry_Notes>  (16) 
This compound has an ester and may undergo hydrolysis at high or low pH.

>  <s_epik_cmdline>  (16) 
J2VwaWtfcHl0aG9uJywgJy1waHQnLCAnMC4yJywgJy1waCcsICc3LjQnLCAnLXJldGFpbl9pX2xhYicsICctcmV0YWluX3RfbGFiJywgJy10bicsICcxJywgJy1tYScsICc1MDAnLCAnLWltYWUnLCAnPGluZmlsZS5tYWU+JywgJy1vbWFlJywgJzxvdXRmaWxlLm1hZT4n

>  <s_epik_input>  (16) 
W0NIM11jMVtjSF1jKFtDSDNdKW5jKGMxMilzYyhjMltOSDJdKUMoPU8pW05IXWMzW2NIXVtjSF1jKFtjSF1bY0hdMylDKD1PKU9bQ0gyXVtDSDNd

>  <s_lp_Force_Field>  (16) 
S-OPLS

>  <s_lp_Variant>  (16) 
4aa_Grossjean_2025-1

>  <s_lp_label>  (16) 
103

>  <s_m_source_file>  (16) 
montpellier_ligands.smi

$$$$
4ab_Grossjean_2025
     RDKit          3D

  0  0  0  0  0  0  0  0  0  0999 V3000
M  V30 BEGIN CTAB
M  V30 COUNTS 42 44 0 0 1
M  V30 BEGIN ATOM
M  V30 1 O -0.597234 1.229312 0.193244 0
M  V30 2 C 0.000904 0.159473 0.074077 0
M  V30 3 N -0.607827 -1.045653 -0.043641 0
M  V30 4 C -1.976062 -1.377767 -0.015580 0
M  V30 5 C -2.285341 -2.696343 -0.351362 0
M  V30 6 C -3.606561 -3.133519 -0.348727 0
M  V30 7 C -4.645945 -2.260307 -0.002447 0
M  V30 8 C -6.060202 -2.765217 -0.007989 0
M  V30 9 O -6.965312 -1.828877 0.375766 0
M  V30 10 C -8.351458 -2.133865 0.437897 0
M  V30 11 O -6.366883 -3.918575 -0.324598 0
M  V30 12 C -4.330384 -0.937001 0.341920 0
M  V30 13 C -3.009364 -0.497242 0.337543 0
M  V30 14 C 1.464461 0.125737 0.027322 0
M  V30 15 C 2.363964 1.203408 0.025115 0
M  V30 16 N 1.977772 2.519925 0.037042 0
M  V30 17 C 3.747457 0.809802 0.005078 0
M  V30 18 C 4.955980 1.557320 -0.009948 0
M  V30 19 C 5.019651 3.077048 -0.013472 0
M  V30 20 C 6.162594 0.848279 -0.021024 0
M  V30 21 C 6.151985 -0.545064 -0.017421 0
M  V30 22 C 7.447223 -1.336003 -0.022904 0
M  V30 23 N 5.020284 -1.290437 -0.007173 0
M  V30 24 C 3.872224 -0.611916 0.003408 0
M  V30 25 S 2.320436 -1.418113 0.020456 0
M  V30 26 H 0.004217 -1.835197 -0.187606 0
M  V30 27 H -1.503755 -3.392671 -0.620993 0
M  V30 28 H -3.808547 -4.160926 -0.617543 0
M  V30 29 H -8.910387 -1.250264 0.745898 0
M  V30 30 H -8.544969 -2.927766 1.160782 0
M  V30 31 H -8.727479 -2.451496 -0.535741 0
M  V30 32 H -5.098671 -0.230117 0.620525 0
M  V30 33 H -2.824075 0.525053 0.624249 0
M  V30 34 H 2.650025 3.273468 0.030954 0
M  V30 35 H 1.001364 2.780494 0.057701 0
M  V30 36 H 6.043659 3.452657 -0.038467 0
M  V30 37 H 4.536074 3.476205 0.878555 0
M  V30 38 H 4.495823 3.473685 -0.883653 0
M  V30 39 H 7.104936 1.377569 -0.030593 0
M  V30 40 H 8.320770 -0.682756 -0.024324 0
M  V30 41 H 7.502365 -1.971182 -0.907628 0
M  V30 42 H 7.508330 -1.974045 0.859552 0
M  V30 END ATOM
M  V30 BEGIN BOND
M  V30 1 2 2 1
M  V30 2 1 3 2
M  V30 3 1 4 3
M  V30 4 2 5 4
M  V30 5 1 6 5
M  V30 6 2 7 6
M  V30 7 1 8 7
M  V30 8 1 9 8
M  V30 9 1 10 9
M  V30 10 2 11 8
M  V30 11 1 12 7
M  V30 12 2 13 12
M  V30 13 1 13 4
M  V30 14 1 14 2
M  V30 15 2 15 14
M  V30 16 1 16 15
M  V30 17 1 17 15
M  V30 18 2 18 17
M  V30 19 1 19 18
M  V30 20 1 20 18
M  V30 21 2 21 20
M  V30 22 1 22 21
M  V30 23 1 23 21
M  V30 24 2 24 23
M  V30 25 1 24 17
M  V30 26 1 25 24
M  V30 27 1 25 14
M  V30 28 1 26 3
M  V30 29 1 27 5
M  V30 30 1 28 6
M  V30 31 1 29 10
M  V30 32 1 30 10
M  V30 33 1 31 10
M  V30 34 1 32 12
M  V30 35 1 33 13
M  V30 36 1 34 16
M  V30 37 1 35 16
M  V30 38 1 36 19
M  V30 39 1 37 19
M  V30 40 1 38 19
M  V30 41 1 39 20
M  V30 42 1 40 22
M  V30 43 1 41 22
M  V30 44 1 42 22
M  V30 END BOND
M  V30 END CTAB
M  END
>  <i_epik_Tot_Q>  (17) 
0

>  <i_epik_Tot_abs_Q>  (17) 
0

>  <i_f3d_flags>  (17) 
0

>  <i_lp_mmshare_version>  (17) 
71160

>  <i_lp_orig_ion_str>  (17) 
1

>  <i_m_source_file_index>  (17) 
104

>  <b_lp_Chiralities_Consistent>  (17) 
1

>  <r_epik_Charging_Adjusted_Penalty>  (17) 
0

>  <r_epik_Ionization_Penalty>  (17) 
0.00016265866445725865

>  <r_epik_Ionization_Penalty_Charging>  (17) 
0

>  <r_epik_Ionization_Penalty_Neutral>  (17) 
0.00016265866445725865

>  <r_epik_State_Penalty>  (17) 
-0

>  <r_lp_Energy>  (17) 
31.487151999999998

>  <r_lp_tautomer_probability>  (17) 
1

>  <s_epik_Chemistry_Notes>  (17) 
This compound has an ester and may undergo hydrolysis at high or low pH.

>  <s_epik_cmdline>  (17) 
J2VwaWtfcHl0aG9uJywgJy1waHQnLCAnMC4yJywgJy1waCcsICc3LjQnLCAnLXJldGFpbl9pX2xhYicsICctcmV0YWluX3RfbGFiJywgJy10bicsICcxJywgJy1tYScsICc1MDAnLCAnLWltYWUnLCAnPGluZmlsZS5tYWU+JywgJy1vbWFlJywgJzxvdXRmaWxlLm1hZT4n

>  <s_epik_input>  (17) 
W0NIM11jMVtjSF1jKFtDSDNdKW5jKGMxMilzYyhjMltOSDJdKUMoPU8pW05IXWMzW2NIXVtjSF1jKFtjSF1bY0hdMylDKD1PKU9bQ0gzXQ==

>  <s_lp_Force_Field>  (17) 
S-OPLS

>  <s_lp_Variant>  (17) 
4ab_Grossjean_2025-1

>  <s_lp_label>  (17) 
104

>  <s_m_source_file>  (17) 
montpellier_ligands.smi

$$$$
4ac_Grossjean_2025
     RDKit          3D

  0  0  0  0  0  0  0  0  0  0999 V3000
M  V30 BEGIN CTAB
M  V30 COUNTS 40 42 0 0 1
M  V30 BEGIN ATOM
M  V30 1 O -0.604009 1.192524 -0.031303 0
M  V30 2 C 0.008394 0.123366 -0.020003 0
M  V30 3 N -0.590729 -1.092497 -0.017868 0
M  V30 4 C -1.961806 -1.408636 0.010774 0
M  V30 5 C -2.306476 -2.695031 -0.406630 0
M  V30 6 C -3.637648 -3.100882 -0.399655 0
M  V30 7 C -4.642128 -2.234737 0.031659 0
M  V30 8 O -5.933411 -2.725436 0.002876 0
M  V30 9 C -7.004115 -1.888352 0.426628 0
M  V30 10 C -4.294671 -0.945939 0.464893 0
M  V30 11 C -2.964220 -0.535688 0.459123 0
M  V30 12 C 1.472768 0.101443 -0.017061 0
M  V30 13 C 2.362636 1.187055 -0.023688 0
M  V30 14 N 1.964724 2.499857 -0.039231 0
M  V30 15 C 3.749602 0.806143 -0.012188 0
M  V30 16 C 4.951405 1.564643 -0.011458 0
M  V30 17 C 5.000542 3.084795 -0.021982 0
M  V30 18 C 6.164396 0.866717 -0.000389 0
M  V30 19 C 6.166306 -0.526629 0.010464 0
M  V30 20 C 7.468285 -1.306257 0.021954 0
M  V30 21 N 5.041368 -1.282205 0.011637 0
M  V30 22 C 3.887093 -0.614235 0.000766 0
M  V30 23 S 2.342415 -1.434330 0.001573 0
M  V30 24 H 0.022606 -1.892030 -0.077629 0
M  V30 25 H -1.547203 -3.386448 -0.743973 0
M  V30 26 H -3.891449 -4.097171 -0.731394 0
M  V30 27 H -7.943554 -2.434007 0.338716 0
M  V30 28 H -7.082347 -0.994324 -0.193807 0
M  V30 29 H -6.891957 -1.591706 1.470593 0
M  V30 30 H -5.042123 -0.250010 0.814209 0
M  V30 31 H -2.738564 0.454885 0.821310 0
M  V30 32 H 2.630202 3.259318 -0.039830 0
M  V30 33 H 0.985883 2.751146 -0.051610 0
M  V30 34 H 6.020581 3.471026 -0.002269 0
M  V30 35 H 4.474796 3.483982 0.845642 0
M  V30 36 H 4.510432 3.470097 -0.916387 0
M  V30 37 H 7.101786 1.404831 0.000294 0
M  V30 38 H 8.335440 -0.644713 0.031094 0
M  V30 39 H 7.540139 -1.941066 -0.861970 0
M  V30 40 H 7.523676 -1.944056 0.904965 0
M  V30 END ATOM
M  V30 BEGIN BOND
M  V30 1 2 2 1
M  V30 2 1 3 2
M  V30 3 1 4 3
M  V30 4 2 5 4
M  V30 5 1 6 5
M  V30 6 2 7 6
M  V30 7 1 8 7
M  V30 8 1 9 8
M  V30 9 1 10 7
M  V30 10 2 11 10
M  V30 11 1 11 4
M  V30 12 1 12 2
M  V30 13 2 13 12
M  V30 14 1 14 13
M  V30 15 1 15 13
M  V30 16 2 16 15
M  V30 17 1 17 16
M  V30 18 1 18 16
M  V30 19 2 19 18
M  V30 20 1 20 19
M  V30 21 1 21 19
M  V30 22 2 22 21
M  V30 23 1 22 15
M  V30 24 1 23 22
M  V30 25 1 23 12
M  V30 26 1 24 3
M  V30 27 1 25 5
M  V30 28 1 26 6
M  V30 29 1 27 9
M  V30 30 1 28 9
M  V30 31 1 29 9
M  V30 32 1 30 10
M  V30 33 1 31 11
M  V30 34 1 32 14
M  V30 35 1 33 14
M  V30 36 1 34 17
M  V30 37 1 35 17
M  V30 38 1 36 17
M  V30 39 1 37 18
M  V30 40 1 38 20
M  V30 41 1 39 20
M  V30 42 1 40 20
M  V30 END BOND
M  V30 END CTAB
M  END
>  <i_epik_Tot_Q>  (18) 
0

>  <i_epik_Tot_abs_Q>  (18) 
0

>  <i_f3d_flags>  (18) 
0

>  <i_lp_mmshare_version>  (18) 
71160

>  <i_lp_orig_ion_str>  (18) 
1

>  <i_m_source_file_index>  (18) 
105

>  <b_lp_Chiralities_Consistent>  (18) 
1

>  <r_epik_Charging_Adjusted_Penalty>  (18) 
0

>  <r_epik_Ionization_Penalty>  (18) 
0.0001610704334789686

>  <r_epik_Ionization_Penalty_Charging>  (18) 
0

>  <r_epik_Ionization_Penalty_Neutral>  (18) 
0.0001610704334789686

>  <r_epik_State_Penalty>  (18) 
-0

>  <r_lp_Energy>  (18) 
35.581752000000002

>  <r_lp_tautomer_probability>  (18) 
1

>  <s_epik_cmdline>  (18) 
J2VwaWtfcHl0aG9uJywgJy1waHQnLCAnMC4yJywgJy1waCcsICc3LjQnLCAnLXJldGFpbl9pX2xhYicsICctcmV0YWluX3RfbGFiJywgJy10bicsICcxJywgJy1tYScsICc1MDAnLCAnLWltYWUnLCAnPGluZmlsZS5tYWU+JywgJy1vbWFlJywgJzxvdXRmaWxlLm1hZT4n

>  <s_epik_input>  (18) 
W0NIM11PYyhbY0hdW2NIXTEpW2NIXVtjSF1jMVtOSF1DKD1PKWMoYzJbTkgyXSlzYyhjMjMpbmMoW0NIM10pW2NIXWMzW0NIM10=

>  <s_lp_Force_Field>  (18) 
S-OPLS

>  <s_lp_Variant>  (18) 
4ac_Grossjean_2025-1

>  <s_lp_label>  (18) 
105

>  <s_m_source_file>  (18) 
montpellier_ligands.smi

$$$$
4ad_Grossjean_2025
     RDKit          3D

  0  0  0  0  0  0  0  0  0  0999 V3000
M  V30 BEGIN CTAB
M  V30 COUNTS 36 38 0 0 1
M  V30 BEGIN ATOM
M  V30 1 O -0.651555 1.124512 0.020505 0
M  V30 2 C -0.025327 0.064201 -0.008561 0
M  V30 3 N -0.606924 -1.159663 -0.046690 0
M  V30 4 C -1.971538 -1.504323 -0.008142 0
M  V30 5 C -2.285661 -2.805856 -0.409439 0
M  V30 6 C -3.606807 -3.244905 -0.395934 0
M  V30 7 C -4.615920 -2.383954 0.027128 0
M  V30 8 C -4.315151 -1.089198 0.441799 0
M  V30 9 C -2.994733 -0.646658 0.429243 0
M  V30 10 C 1.439447 0.063239 -0.017749 0
M  V30 11 C 2.313900 1.161461 -0.017112 0
M  V30 12 N 1.897672 2.468882 -0.024052 0
M  V30 13 C 3.706140 0.799727 -0.009463 0
M  V30 14 C 4.897253 1.574721 -0.001349 0
M  V30 15 C 4.925322 3.095502 0.003729 0
M  V30 16 C 6.119857 0.893342 0.005046 0
M  V30 17 C 6.141042 -0.499961 0.002993 0
M  V30 18 C 7.453432 -1.262234 0.011623 0
M  V30 19 N 5.026583 -1.270815 -0.004371 0
M  V30 20 C 3.863323 -0.618754 -0.009378 0
M  V30 21 S 2.330357 -1.460434 -0.013693 0
M  V30 22 H 0.019394 -1.946641 -0.132035 0
M  V30 23 H -1.509771 -3.482515 -0.739017 0
M  V30 24 H -3.847957 -4.249173 -0.711841 0
M  V30 25 H -5.640715 -2.725154 0.038878 0
M  V30 26 H -5.103152 -0.431240 0.777708 0
M  V30 27 H -2.794865 0.353973 0.777932 0
M  V30 28 H 2.552497 3.237764 -0.028944 0
M  V30 29 H 0.915245 2.706883 -0.029739 0
M  V30 30 H 5.939966 3.495806 0.015233 0
M  V30 31 H 4.403792 3.478191 0.881404 0
M  V30 32 H 4.419820 3.484262 -0.880656 0
M  V30 33 H 7.049958 1.443927 0.012110 0
M  V30 34 H 8.312472 -0.590035 0.016253 0
M  V30 35 H 7.531213 -1.899288 -0.870287 0
M  V30 36 H 7.519845 -1.896214 0.896765 0
M  V30 END ATOM
M  V30 BEGIN BOND
M  V30 1 2 2 1
M  V30 2 1 3 2
M  V30 3 1 4 3
M  V30 4 2 5 4
M  V30 5 1 6 5
M  V30 6 2 7 6
M  V30 7 1 8 7
M  V30 8 2 9 8
M  V30 9 1 9 4
M  V30 10 1 10 2
M  V30 11 2 11 10
M  V30 12 1 12 11
M  V30 13 1 13 11
M  V30 14 2 14 13
M  V30 15 1 15 14
M  V30 16 1 16 14
M  V30 17 2 17 16
M  V30 18 1 18 17
M  V30 19 1 19 17
M  V30 20 2 20 19
M  V30 21 1 20 13
M  V30 22 1 21 20
M  V30 23 1 21 10
M  V30 24 1 22 3
M  V30 25 1 23 5
M  V30 26 1 24 6
M  V30 27 1 25 7
M  V30 28 1 26 8
M  V30 29 1 27 9
M  V30 30 1 28 12
M  V30 31 1 29 12
M  V30 32 1 30 15
M  V30 33 1 31 15
M  V30 34 1 32 15
M  V30 35 1 33 16
M  V30 36 1 34 18
M  V30 37 1 35 18
M  V30 38 1 36 18
M  V30 END BOND
M  V30 END CTAB
M  END
>  <i_epik_Tot_Q>  (19) 
0

>  <i_epik_Tot_abs_Q>  (19) 
0

>  <i_f3d_flags>  (19) 
0

>  <i_lp_mmshare_version>  (19) 
71160

>  <i_lp_orig_ion_str>  (19) 
1

>  <i_m_source_file_index>  (19) 
106

>  <b_lp_Chiralities_Consistent>  (19) 
1

>  <r_epik_Charging_Adjusted_Penalty>  (19) 
0

>  <r_epik_Ionization_Penalty>  (19) 
0.00016131111565362733

>  <r_epik_Ionization_Penalty_Charging>  (19) 
0

>  <r_epik_Ionization_Penalty_Neutral>  (19) 
0.00016131111565362733

>  <r_epik_State_Penalty>  (19) 
-0

>  <r_lp_Energy>  (19) 
32.585893999999996

>  <r_lp_tautomer_probability>  (19) 
1

>  <s_epik_cmdline>  (19) 
J2VwaWtfcHl0aG9uJywgJy1waHQnLCAnMC4yJywgJy1waCcsICc3LjQnLCAnLXJldGFpbl9pX2xhYicsICctcmV0YWluX3RfbGFiJywgJy10bicsICcxJywgJy1tYScsICc1MDAnLCAnLWltYWUnLCAnPGluZmlsZS5tYWU+JywgJy1vbWFlJywgJzxvdXRmaWxlLm1hZT4n

>  <s_epik_input>  (19) 
W2NIXTFbY0hdW2NIXVtjSF1bY0hdYzFbTkhdQyg9TyljKGMyW05IMl0pc2MoYzIzKW5jKFtDSDNdKVtjSF1jM1tDSDNd

>  <s_lp_Force_Field>  (19) 
S-OPLS

>  <s_lp_Variant>  (19) 
4ad_Grossjean_2025-1

>  <s_lp_label>  (19) 
106

>  <s_m_source_file>  (19) 
montpellier_ligands.smi

$$$$
4ae_Grossjean_2025
     RDKit          3D

  0  0  0  0  0  0  0  0  0  0999 V3000
M  V30 BEGIN CTAB
M  V30 COUNTS 38 40 0 0 1
M  V30 BEGIN ATOM
M  V30 1 O -0.643928 1.108350 0.112312 0
M  V30 2 C -0.011827 0.052539 0.037178 0
M  V30 3 N -0.591898 -1.171868 -0.022066 0
M  V30 4 C -1.959460 -1.498897 -0.003688 0
M  V30 5 N -2.909859 -0.602847 0.392749 0
M  V30 6 C -4.209139 -0.997419 0.406444 0
M  V30 7 C -5.210297 0.048473 0.858488 0
M  V30 8 C -4.611362 -2.283169 0.035592 0
M  V30 9 C -3.632851 -3.195426 -0.361721 0
M  V30 10 C -2.292068 -2.805438 -0.379069 0
M  V30 11 C 1.452056 0.056472 0.001336 0
M  V30 12 C 2.323916 1.156520 -0.003751 0
M  V30 13 N 1.904278 2.462838 -0.003070 0
M  V30 14 C 3.716974 0.797345 -0.008936 0
M  V30 15 C 4.907182 1.574016 -0.009102 0
M  V30 16 C 4.933447 3.094726 -0.003661 0
M  V30 17 C 6.130909 0.894666 -0.009782 0
M  V30 18 C 6.154386 -0.498538 -0.010845 0
M  V30 19 C 7.467942 -1.258563 -0.005798 0
M  V30 20 N 5.041206 -1.271220 -0.013104 0
M  V30 21 C 3.876910 -0.620911 -0.011339 0
M  V30 22 S 2.345669 -1.465299 -0.006372 0
M  V30 23 H 0.028596 -1.958330 -0.144532 0
M  V30 24 H -6.233271 -0.326817 0.812348 0
M  V30 25 H -5.148273 0.934755 0.226020 0
M  V30 26 H -5.007430 0.348465 1.887178 0
M  V30 27 H -5.652426 -2.571577 0.055330 0
M  V30 28 H -3.910472 -4.197828 -0.652677 0
M  V30 29 H -1.531455 -3.510438 -0.683398 0
M  V30 30 H 2.556575 3.233729 -0.008753 0
M  V30 31 H 0.921311 2.698250 0.002517 0
M  V30 32 H 5.947920 3.496080 -0.000122 0
M  V30 33 H 4.418402 3.476352 0.878294 0
M  V30 34 H 4.420668 3.482938 -0.883977 0
M  V30 35 H 7.060145 1.446895 -0.007332 0
M  V30 36 H 8.326177 -0.585427 -0.003341 0
M  V30 37 H 7.543701 -1.895213 -0.888001 0
M  V30 38 H 7.537254 -1.892534 0.879057 0
M  V30 END ATOM
M  V30 BEGIN BOND
M  V30 1 2 2 1
M  V30 2 1 3 2
M  V30 3 1 4 3
M  V30 4 2 5 4
M  V30 5 1 6 5
M  V30 6 1 7 6
M  V30 7 2 8 6
M  V30 8 1 9 8
M  V30 9 2 10 9
M  V30 10 1 10 4
M  V30 11 1 11 2
M  V30 12 2 12 11
M  V30 13 1 13 12
M  V30 14 1 14 12
M  V30 15 2 15 14
M  V30 16 1 16 15
M  V30 17 1 17 15
M  V30 18 2 18 17
M  V30 19 1 19 18
M  V30 20 1 20 18
M  V30 21 2 21 20
M  V30 22 1 21 14
M  V30 23 1 22 21
M  V30 24 1 22 11
M  V30 25 1 23 3
M  V30 26 1 24 7
M  V30 27 1 25 7
M  V30 28 1 26 7
M  V30 29 1 27 8
M  V30 30 1 28 9
M  V30 31 1 29 10
M  V30 32 1 30 13
M  V30 33 1 31 13
M  V30 34 1 32 16
M  V30 35 1 33 16
M  V30 36 1 34 16
M  V30 37 1 35 17
M  V30 38 1 36 19
M  V30 39 1 37 19
M  V30 40 1 38 19
M  V30 END BOND
M  V30 END CTAB
M  END
>  <i_epik_Tot_Q>  (20) 
0

>  <i_epik_Tot_abs_Q>  (20) 
0

>  <i_f3d_flags>  (20) 
0

>  <i_lp_mmshare_version>  (20) 
71160

>  <i_lp_orig_ion_str>  (20) 
1

>  <i_m_source_file_index>  (20) 
107

>  <b_lp_Chiralities_Consistent>  (20) 
1

>  <r_epik_Charging_Adjusted_Penalty>  (20) 
0

>  <r_epik_Ionization_Penalty>  (20) 
0.00054844782213795318

>  <r_epik_Ionization_Penalty_Charging>  (20) 
0

>  <r_epik_Ionization_Penalty_Neutral>  (20) 
0.00054844782213795318

>  <r_epik_State_Penalty>  (20) 
-0

>  <r_lp_Energy>  (20) 
34.156075000000001

>  <r_lp_tautomer_probability>  (20) 
1

>  <s_epik_cmdline>  (20) 
J2VwaWtfcHl0aG9uJywgJy1waHQnLCAnMC4yJywgJy1waCcsICc3LjQnLCAnLXJldGFpbl9pX2xhYicsICctcmV0YWluX3RfbGFiJywgJy10bicsICcxJywgJy1tYScsICc1MDAnLCAnLWltYWUnLCAnPGluZmlsZS5tYWU+JywgJy1vbWFlJywgJzxvdXRmaWxlLm1hZT4n

>  <s_epik_input>  (20) 
W2NIXTFbY0hdW2NIXWMoW0NIM10pbmMxW05IXUMoPU8pYyhjMltOSDJdKXNjKGMyMyluYyhbQ0gzXSlbY0hdYzNbQ0gzXQ==

>  <s_lp_Force_Field>  (20) 
S-OPLS

>  <s_lp_Variant>  (20) 
4ae_Grossjean_2025-1

>  <s_lp_label>  (20) 
107

>  <s_m_source_file>  (20) 
montpellier_ligands.smi

$$$$
4af_Grossjean_2025
     RDKit          3D

  0  0  0  0  0  0  0  0  0  0999 V3000
M  V30 BEGIN CTAB
M  V30 COUNTS 35 37 0 0 1
M  V30 BEGIN ATOM
M  V30 1 O -0.643779 1.117880 0.113902 0
M  V30 2 C -0.018198 0.060602 0.024608 0
M  V30 3 N -0.599259 -1.160347 -0.067016 0
M  V30 4 C -1.962035 -1.509439 -0.020584 0
M  V30 5 C -2.291706 -2.822724 -0.374570 0
M  V30 6 N -3.561466 -3.303218 -0.364130 0
M  V30 7 C -4.553608 -2.459893 0.016498 0
M  V30 8 C -4.320484 -1.137360 0.394260 0
M  V30 9 C -3.009203 -0.657715 0.376588 0
M  V30 10 C 1.446158 0.061597 -0.005389 0
M  V30 11 C 2.319314 1.160824 -0.003678 0
M  V30 12 N 1.901214 2.467536 -0.004330 0
M  V30 13 C 3.712040 0.800869 -0.004080 0
M  V30 14 C 4.902223 1.577538 -0.002019 0
M  V30 15 C 4.928169 3.098456 0.000554 0
M  V30 16 C 6.125752 0.897943 -0.000261 0
M  V30 17 C 6.148869 -0.495363 -0.001127 0
M  V30 18 C 7.462800 -1.255158 0.003846 0
M  V30 19 N 5.035476 -1.267862 -0.003923 0
M  V30 20 C 3.871157 -0.617357 -0.004734 0
M  V30 21 S 2.339021 -1.460888 -0.003129 0
M  V30 22 H 0.027377 -1.941713 -0.193493 0
M  V30 23 H -1.529450 -3.524837 -0.681397 0
M  V30 24 H -5.555023 -2.864708 0.019875 0
M  V30 25 H -5.136304 -0.498510 0.699127 0
M  V30 26 H -2.838160 0.360661 0.686911 0
M  V30 27 H 2.554662 3.237556 -0.009270 0
M  V30 28 H 0.918396 2.703512 -0.003273 0
M  V30 29 H 5.942363 3.500278 0.006609 0
M  V30 30 H 4.409955 3.482237 0.879723 0
M  V30 31 H 4.418309 3.484356 -0.882549 0
M  V30 32 H 7.054907 1.450083 0.003118 0
M  V30 33 H 8.320587 -0.581241 0.006469 0
M  V30 34 H 7.539501 -1.891399 -0.878654 0
M  V30 35 H 7.532657 -1.889546 0.888266 0
M  V30 END ATOM
M  V30 BEGIN BOND
M  V30 1 2 2 1
M  V30 2 1 3 2
M  V30 3 1 4 3
M  V30 4 2 5 4
M  V30 5 1 6 5
M  V30 6 2 7 6
M  V30 7 1 8 7
M  V30 8 2 9 8
M  V30 9 1 9 4
M  V30 10 1 10 2
M  V30 11 2 11 10
M  V30 12 1 12 11
M  V30 13 1 13 11
M  V30 14 2 14 13
M  V30 15 1 15 14
M  V30 16 1 16 14
M  V30 17 2 17 16
M  V30 18 1 18 17
M  V30 19 1 19 17
M  V30 20 2 20 19
M  V30 21 1 20 13
M  V30 22 1 21 20
M  V30 23 1 21 10
M  V30 24 1 22 3
M  V30 25 1 23 5
M  V30 26 1 24 7
M  V30 27 1 25 8
M  V30 28 1 26 9
M  V30 29 1 27 12
M  V30 30 1 28 12
M  V30 31 1 29 15
M  V30 32 1 30 15
M  V30 33 1 31 15
M  V30 34 1 32 16
M  V30 35 1 33 18
M  V30 36 1 34 18
M  V30 37 1 35 18
M  V30 END BOND
M  V30 END CTAB
M  END
>  <i_epik_Tot_Q>  (21) 
0

>  <i_epik_Tot_abs_Q>  (21) 
0

>  <i_f3d_flags>  (21) 
0

>  <i_lp_mmshare_version>  (21) 
71160

>  <i_lp_orig_ion_str>  (21) 
1

>  <i_m_source_file_index>  (21) 
108

>  <b_lp_Chiralities_Consistent>  (21) 
1

>  <r_epik_Charging_Adjusted_Penalty>  (21) 
0

>  <r_epik_Ionization_Penalty>  (21) 
0.00082911420076785421

>  <r_epik_Ionization_Penalty_Charging>  (21) 
0

>  <r_epik_Ionization_Penalty_Neutral>  (21) 
0.00082911420076785421

>  <r_epik_State_Penalty>  (21) 
-0

>  <r_lp_Energy>  (21) 
35.300542999999998

>  <r_lp_tautomer_probability>  (21) 
1

>  <s_epik_cmdline>  (21) 
J2VwaWtfcHl0aG9uJywgJy1waHQnLCAnMC4yJywgJy1waCcsICc3LjQnLCAnLXJldGFpbl9pX2xhYicsICctcmV0YWluX3RfbGFiJywgJy10bicsICcxJywgJy1tYScsICc1MDAnLCAnLWltYWUnLCAnPGluZmlsZS5tYWU+JywgJy1vbWFlJywgJzxvdXRmaWxlLm1hZT4n

>  <s_epik_input>  (21) 
W2NIXTFbY0hdW2NIXW5bY0hdYzFbTkhdQyg9TyljKGMyW05IMl0pc2MoYzIzKW5jKFtDSDNdKVtjSF1jM1tDSDNd

>  <s_lp_Force_Field>  (21) 
S-OPLS

>  <s_lp_Variant>  (21) 
4af_Grossjean_2025-1

>  <s_lp_label>  (21) 
108

>  <s_m_source_file>  (21) 
montpellier_ligands.smi

$$$$
4ag_Grossjean_2025
     RDKit          3D

  0  0  0  0  0  0  0  0  0  0999 V3000
M  V30 BEGIN CTAB
M  V30 COUNTS 39 41 0 0 1
M  V30 BEGIN ATOM
M  V30 1 O -0.603722 0.773607 -0.340795 0
M  V30 2 C 0.086964 -0.225924 -0.133531 0
M  V30 3 N -0.447650 -1.452102 0.046895 0
M  V30 4 C -1.873395 -1.773493 -0.018691 0
M  V30 5 C -2.457990 -1.707370 -1.425358 0
M  V30 6 C -2.224798 -2.751256 -2.325368 0
M  V30 7 C -2.778529 -2.705166 -3.602220 0
M  V30 8 C -3.572755 -1.621299 -3.971204 0
M  V30 9 C -3.821997 -0.584888 -3.073705 0
M  V30 10 C -3.268598 -0.630649 -1.796827 0
M  V30 11 C 1.544676 -0.141047 -0.051494 0
M  V30 12 C 2.358648 0.996417 -0.158197 0
M  V30 13 N 1.874371 2.264891 -0.355071 0
M  V30 14 C 3.765083 0.719961 -0.040427 0
M  V30 15 C 4.912380 1.557109 -0.084336 0
M  V30 16 C 4.861354 3.063800 -0.286459 0
M  V30 17 C 6.166420 0.955102 0.068381 0
M  V30 18 C 6.259834 -0.422527 0.255279 0
M  V30 19 C 7.608868 -1.097854 0.420937 0
M  V30 20 N 5.188841 -1.251710 0.300489 0
M  V30 21 C 3.994913 -0.675031 0.155847 0
M  V30 22 S 2.509090 -1.598107 0.190120 0
M  V30 23 H 0.179957 -2.235448 0.154657 0
M  V30 24 H -1.999137 -2.789089 0.358715 0
M  V30 25 H -2.437662 -1.134625 0.664116 0
M  V30 26 H -1.610859 -3.592833 -2.038741 0
M  V30 27 H -2.593918 -3.505966 -4.303285 0
M  V30 28 H -4.001378 -1.585364 -4.961891 0
M  V30 29 H -4.441811 0.249773 -3.366389 0
M  V30 30 H -3.462615 0.173725 -1.101943 0
M  V30 31 H 2.486643 3.064318 -0.428736 0
M  V30 32 H 0.882319 2.440704 -0.437283 0
M  V30 33 H 5.852039 3.520396 -0.284553 0
M  V30 34 H 4.274920 3.530101 0.505814 0
M  V30 35 H 4.384221 3.298994 -1.238218 0
M  V30 36 H 7.065139 1.554982 0.041395 0
M  V30 37 H 8.419876 -0.371319 0.485579 0
M  V30 38 H 7.811070 -1.753199 -0.426838 0
M  V30 39 H 7.628607 -1.699958 1.330277 0
M  V30 END ATOM
M  V30 BEGIN BOND
M  V30 1 2 2 1
M  V30 2 1 3 2
M  V30 3 1 4 3
M  V30 4 1 5 4
M  V30 5 2 6 5
M  V30 6 1 7 6
M  V30 7 2 8 7
M  V30 8 1 9 8
M  V30 9 2 10 9
M  V30 10 1 10 5
M  V30 11 1 11 2
M  V30 12 2 12 11
M  V30 13 1 13 12
M  V30 14 1 14 12
M  V30 15 2 15 14
M  V30 16 1 16 15
M  V30 17 1 17 15
M  V30 18 2 18 17
M  V30 19 1 19 18
M  V30 20 1 20 18
M  V30 21 2 21 20
M  V30 22 1 21 14
M  V30 23 1 22 21
M  V30 24 1 22 11
M  V30 25 1 23 3
M  V30 26 1 24 4
M  V30 27 1 25 4
M  V30 28 1 26 6
M  V30 29 1 27 7
M  V30 30 1 28 8
M  V30 31 1 29 9
M  V30 32 1 30 10
M  V30 33 1 31 13
M  V30 34 1 32 13
M  V30 35 1 33 16
M  V30 36 1 34 16
M  V30 37 1 35 16
M  V30 38 1 36 17
M  V30 39 1 37 19
M  V30 40 1 38 19
M  V30 41 1 39 19
M  V30 END BOND
M  V30 END CTAB
M  END
>  <i_epik_Tot_Q>  (22) 
0

>  <i_epik_Tot_abs_Q>  (22) 
0

>  <i_f3d_flags>  (22) 
0

>  <i_lp_mmshare_version>  (22) 
71160

>  <i_lp_orig_ion_str>  (22) 
1

>  <i_m_source_file_index>  (22) 
109

>  <b_lp_Chiralities_Consistent>  (22) 
1

>  <r_epik_Charging_Adjusted_Penalty>  (22) 
0

>  <r_epik_Ionization_Penalty>  (22) 
0.00031624299742503411

>  <r_epik_Ionization_Penalty_Charging>  (22) 
0

>  <r_epik_Ionization_Penalty_Neutral>  (22) 
0.00031624299742503411

>  <r_epik_State_Penalty>  (22) 
-0

>  <r_lp_Energy>  (22) 
28.516923999999999

>  <r_lp_tautomer_probability>  (22) 
1

>  <s_epik_cmdline>  (22) 
J2VwaWtfcHl0aG9uJywgJy1waHQnLCAnMC4yJywgJy1waCcsICc3LjQnLCAnLXJldGFpbl9pX2xhYicsICctcmV0YWluX3RfbGFiJywgJy10bicsICcxJywgJy1tYScsICc1MDAnLCAnLWltYWUnLCAnPGluZmlsZS5tYWU+JywgJy1vbWFlJywgJzxvdXRmaWxlLm1hZT4n

>  <s_epik_input>  (22) 
W0NIM11jMVtjSF1jKFtDSDNdKW5jKGMxMilzYyhjMltOSDJdKUMoPU8pW05IXVtDSDJdYzNbY0hdW2NIXVtjSF1bY0hdW2NIXTM=

>  <s_lp_Force_Field>  (22) 
S-OPLS

>  <s_lp_Variant>  (22) 
4ag_Grossjean_2025-1

>  <s_lp_label>  (22) 
109

>  <s_m_source_file>  (22) 
montpellier_ligands.smi

$$$$
4ah_Grossjean_2025
     RDKit          3D

  0  0  0  0  0  0  0  0  0  0999 V3000
M  V30 BEGIN CTAB
M  V30 COUNTS 51 53 0 0 1
M  V30 BEGIN ATOM
M  V30 1 O -0.277968 1.974983 2.103393 0
M  V30 2 C -0.642519 2.275404 0.965020 0
M  V30 3 N -0.574294 1.413504 -0.071588 0
M  V30 4 C -0.030779 0.056710 -0.011759 0
M  V30 5 C 1.492517 0.009692 0.004119 0
M  V30 6 C 2.205194 0.014500 -1.195713 0
M  V30 7 C 3.606405 -0.071322 -1.200609 0
M  V30 8 O 4.375849 -0.070393 -2.350518 0
M  V30 9 C 3.736912 0.020961 -3.619158 0
M  V30 10 C 4.283135 -0.165232 0.023837 0
M  V30 11 O 5.654135 -0.263221 0.033061 0
M  V30 12 C 6.322833 0.988717 0.098561 0
M  V30 13 C 3.581686 -0.191630 1.237590 0
M  V30 14 O 4.327568 -0.297479 2.397957 0
M  V30 15 C 3.663320 -0.301945 3.657185 0
M  V30 16 C 2.180580 -0.110403 1.212177 0
M  V30 17 C -1.220936 3.585567 0.671594 0
M  V30 18 C -1.548203 4.615014 1.566515 0
M  V30 19 N -1.395056 4.519754 2.926523 0
M  V30 20 C -2.074855 5.793383 0.931802 0
M  V30 21 C -2.537560 7.034139 1.447642 0
M  V30 22 C -2.571268 7.383283 2.927659 0
M  V30 23 C -2.991788 7.992329 0.534326 0
M  V30 24 C -2.978595 7.714781 -0.831019 0
M  V30 25 C -3.460565 8.739697 -1.841243 0
M  V30 26 N -2.546561 6.543558 -1.358353 0
M  V30 27 C -2.116540 5.631571 -0.485766 0
M  V30 28 S -1.527510 4.065815 -0.997609 0
M  V30 29 H -0.813972 1.755160 -0.990742 0
M  V30 30 H -0.429585 -0.474812 0.855137 0
M  V30 31 H -0.391768 -0.488839 -0.884797 0
M  V30 32 H 1.652978 0.086943 -2.120509 0
M  V30 33 H 4.493028 0.005500 -4.403951 0
M  V30 34 H 3.176465 0.951759 -3.719012 0
M  V30 35 H 3.066074 -0.822227 -3.791012 0
M  V30 36 H 7.400275 0.824147 0.099053 0
M  V30 37 H 6.068759 1.531978 1.010354 0
M  V30 38 H 6.082621 1.617042 -0.760846 0
M  V30 39 H 4.402837 -0.379706 4.454011 0
M  V30 40 H 2.987898 -1.153619 3.750188 0
M  V30 41 H 3.102356 0.620125 3.816946 0
M  V30 42 H 1.609213 -0.132168 2.127806 0
M  V30 43 H -1.641102 5.278476 3.545824 0
M  V30 44 H -1.023380 3.682934 3.354634 0
M  V30 45 H -2.978362 8.377976 3.114626 0
M  V30 46 H -1.564962 7.346153 3.345488 0
M  V30 47 H -3.185267 6.663448 3.469654 0
M  V30 48 H -3.352352 8.949609 0.883538 0
M  V30 49 H -3.791890 9.659836 -1.358261 0
M  V30 50 H -4.297611 8.343701 -2.417457 0
M  V30 51 H -2.659101 8.995957 -2.535115 0
M  V30 END ATOM
M  V30 BEGIN BOND
M  V30 1 2 2 1
M  V30 2 1 3 2
M  V30 3 1 4 3
M  V30 4 1 5 4
M  V30 5 2 6 5
M  V30 6 1 7 6
M  V30 7 1 8 7
M  V30 8 1 9 8
M  V30 9 2 10 7
M  V30 10 1 11 10
M  V30 11 1 12 11
M  V30 12 1 13 10
M  V30 13 1 14 13
M  V30 14 1 15 14
M  V30 15 2 16 13
M  V30 16 1 16 5
M  V30 17 1 17 2
M  V30 18 2 18 17
M  V30 19 1 19 18
M  V30 20 1 20 18
M  V30 21 2 21 20
M  V30 22 1 22 21
M  V30 23 1 23 21
M  V30 24 2 24 23
M  V30 25 1 25 24
M  V30 26 1 26 24
M  V30 27 2 27 26
M  V30 28 1 27 20
M  V30 29 1 28 27
M  V30 30 1 28 17
M  V30 31 1 29 3
M  V30 32 1 30 4
M  V30 33 1 31 4
M  V30 34 1 32 6
M  V30 35 1 33 9
M  V30 36 1 34 9
M  V30 37 1 35 9
M  V30 38 1 36 12
M  V30 39 1 37 12
M  V30 40 1 38 12
M  V30 41 1 39 15
M  V30 42 1 40 15
M  V30 43 1 41 15
M  V30 44 1 42 16
M  V30 45 1 43 19
M  V30 46 1 44 19
M  V30 47 1 45 22
M  V30 48 1 46 22
M  V30 49 1 47 22
M  V30 50 1 48 23
M  V30 51 1 49 25
M  V30 52 1 50 25
M  V30 53 1 51 25
M  V30 END BOND
M  V30 END CTAB
M  END
>  <i_epik_Tot_Q>  (23) 
0

>  <i_epik_Tot_abs_Q>  (23) 
0

>  <i_f3d_flags>  (23) 
0

>  <i_lp_mmshare_version>  (23) 
71160

>  <i_lp_orig_ion_str>  (23) 
1

>  <i_m_source_file_index>  (23) 
110

>  <b_lp_Chiralities_Consistent>  (23) 
1

>  <r_epik_Charging_Adjusted_Penalty>  (23) 
0

>  <r_epik_Ionization_Penalty>  (23) 
0.00031418902785801606

>  <r_epik_Ionization_Penalty_Charging>  (23) 
0

>  <r_epik_Ionization_Penalty_Neutral>  (23) 
0.00031418902785801606

>  <r_epik_State_Penalty>  (23) 
-0

>  <r_lp_Energy>  (23) 
40.393032999999996

>  <r_lp_tautomer_probability>  (23) 
1

>  <s_epik_cmdline>  (23) 
J2VwaWtfcHl0aG9uJywgJy1waHQnLCAnMC4yJywgJy1waCcsICc3LjQnLCAnLXJldGFpbl9pX2xhYicsICctcmV0YWluX3RfbGFiJywgJy10bicsICcxJywgJy1tYScsICc1MDAnLCAnLWltYWUnLCAnPGluZmlsZS5tYWU+JywgJy1vbWFlJywgJzxvdXRmaWxlLm1hZT4n

>  <s_epik_input>  (23) 
W0NIM11jMVtjSF1jKFtDSDNdKW5jKGMxMilzYyhjMltOSDJdKUMoPU8pW05IXVtDSDJdYzNbY0hdYyhPW0NIM10pYyhPW0NIM10pYyhbY0hdMylPW0NIM10=

>  <s_lp_Force_Field>  (23) 
S-OPLS

>  <s_lp_Variant>  (23) 
4ah_Grossjean_2025-1

>  <s_lp_label>  (23) 
110

>  <s_m_source_file>  (23) 
montpellier_ligands.smi

$$$$
4ai_Grossjean_2025
     RDKit          3D

  0  0  0  0  0  0  0  0  0  0999 V3000
M  V30 BEGIN CTAB
M  V30 COUNTS 32 34 0 0 1
M  V30 BEGIN ATOM
M  V30 1 O -0.670819 1.038325 0.136975 0
M  V30 2 C -0.027740 -0.009333 0.042292 0
M  V30 3 N -0.593252 -1.237649 -0.065827 0
M  V30 4 C -1.947433 -1.545864 -0.083949 0
M  V30 5 N -2.942676 -0.681987 0.030665 0
M  V30 6 O -4.126163 -1.418735 -0.043503 0
M  V30 7 C -3.800809 -2.723974 -0.201744 0
M  V30 8 C -2.430754 -2.845504 -0.230736 0
M  V30 9 C 1.436447 0.011981 0.021115 0
M  V30 10 C 2.293944 1.123065 0.033320 0
M  V30 11 N 1.857421 2.423531 0.051608 0
M  V30 12 C 3.691440 0.783015 0.017384 0
M  V30 13 C 4.870265 1.576593 0.010288 0
M  V30 14 C 4.874549 3.097701 0.016523 0
M  V30 15 C 6.103167 0.914543 -0.007158 0
M  V30 16 C 6.146122 -0.478090 -0.016254 0
M  V30 17 C 7.471142 -1.217969 -0.040679 0
M  V30 18 N 5.044017 -1.266661 -0.007908 0
M  V30 19 C 3.870613 -0.632877 0.006937 0
M  V30 20 S 2.350280 -1.497759 0.014510 0
M  V30 21 H 0.031895 -2.025099 -0.151742 0
M  V30 22 H -4.619730 -3.424251 -0.276370 0
M  V30 23 H -1.856783 -3.753191 -0.344811 0
M  V30 24 H 2.500322 3.202271 0.061347 0
M  V30 25 H 0.871464 2.646177 0.062680 0
M  V30 26 H 5.882733 3.513790 -0.008507 0
M  V30 27 H 4.376459 3.471587 0.911463 0
M  V30 28 H 4.334108 3.479077 -0.850214 0
M  V30 29 H 7.024726 1.479576 -0.015759 0
M  V30 30 H 8.318066 -0.530620 -0.050776 0
M  V30 31 H 7.540073 -1.846820 -0.929235 0
M  V30 32 H 7.568392 -1.856659 0.838066 0
M  V30 END ATOM
M  V30 BEGIN BOND
M  V30 1 2 2 1
M  V30 2 1 3 2
M  V30 3 1 4 3
M  V30 4 2 5 4
M  V30 5 1 6 5
M  V30 6 1 7 6
M  V30 7 2 8 7
M  V30 8 1 8 4
M  V30 9 1 9 2
M  V30 10 2 10 9
M  V30 11 1 11 10
M  V30 12 1 12 10
M  V30 13 2 13 12
M  V30 14 1 14 13
M  V30 15 1 15 13
M  V30 16 2 16 15
M  V30 17 1 17 16
M  V30 18 1 18 16
M  V30 19 2 19 18
M  V30 20 1 19 12
M  V30 21 1 20 19
M  V30 22 1 20 9
M  V30 23 1 21 3
M  V30 24 1 22 7
M  V30 25 1 23 8
M  V30 26 1 24 11
M  V30 27 1 25 11
M  V30 28 1 26 14
M  V30 29 1 27 14
M  V30 30 1 28 14
M  V30 31 1 29 15
M  V30 32 1 30 17
M  V30 33 1 31 17
M  V30 34 1 32 17
M  V30 END BOND
M  V30 END CTAB
M  END
>  <i_epik_Tot_Q>  (24) 
0

>  <i_epik_Tot_abs_Q>  (24) 
0

>  <i_f3d_flags>  (24) 
0

>  <i_lp_mmshare_version>  (24) 
71160

>  <i_lp_orig_ion_str>  (24) 
1

>  <i_m_source_file_index>  (24) 
111

>  <b_lp_Chiralities_Consistent>  (24) 
1

>  <r_epik_Charging_Adjusted_Penalty>  (24) 
0

>  <r_epik_Ionization_Penalty>  (24) 
0.002538933330990607

>  <r_epik_Ionization_Penalty_Charging>  (24) 
0

>  <r_epik_Ionization_Penalty_Neutral>  (24) 
0.002538933330990607

>  <r_epik_State_Penalty>  (24) 
-0

>  <r_lp_Energy>  (24) 
24.243199999999998

>  <r_lp_tautomer_probability>  (24) 
1

>  <s_epik_cmdline>  (24) 
J2VwaWtfcHl0aG9uJywgJy1waHQnLCAnMC4yJywgJy1waCcsICc3LjQnLCAnLXJldGFpbl9pX2xhYicsICctcmV0YWluX3RfbGFiJywgJy10bicsICcxJywgJy1tYScsICc1MDAnLCAnLWltYWUnLCAnPGluZmlsZS5tYWU+JywgJy1vbWFlJywgJzxvdXRmaWxlLm1hZT4n

>  <s_epik_input>  (24) 
W2NIXTFbY0hdb25jMVtOSF1DKD1PKWMoYzJbTkgyXSlzYyhjMjMpbmMoW0NIM10pW2NIXWMzW0NIM10=

>  <s_lp_Force_Field>  (24) 
S-OPLS

>  <s_lp_Variant>  (24) 
4ai_Grossjean_2025-1

>  <s_lp_label>  (24) 
111

>  <s_m_source_file>  (24) 
montpellier_ligands.smi

$$$$
4aj_Grossjean_2025
     RDKit          3D

  0  0  0  0  0  0  0  0  0  0999 V3000
M  V30 BEGIN CTAB
M  V30 COUNTS 32 34 0 0 1
M  V30 BEGIN ATOM
M  V30 1 O -0.668123 1.029005 0.169988 0
M  V30 2 C -0.022862 -0.017976 0.082446 0
M  V30 3 N -0.587246 -1.247967 -0.001958 0
M  V30 4 C -1.943117 -1.544738 -0.003220 0
M  V30 5 N -2.953486 -0.708304 0.101346 0
M  V30 6 C -4.110972 -1.338444 0.058143 0
M  V30 7 C -4.053861 -2.721620 -0.083067 0
M  V30 8 S -2.388456 -3.213380 -0.164202 0
M  V30 9 C 1.440870 0.005850 0.047020 0
M  V30 10 C 2.296241 1.118649 0.046819 0
M  V30 11 N 1.857206 2.418264 0.065506 0
M  V30 12 C 3.694068 0.780888 0.018845 0
M  V30 13 C 4.871467 1.576405 0.001741 0
M  V30 14 C 4.873529 3.097437 0.008204 0
M  V30 15 C 6.105390 0.916489 -0.023001 0
M  V30 16 C 6.150801 -0.476319 -0.029246 0
M  V30 17 C 7.476924 -1.214481 -0.050035 0
M  V30 18 N 5.049967 -1.266509 -0.014921 0
M  V30 19 C 3.875707 -0.634691 0.007928 0
M  V30 20 S 2.357096 -1.502480 0.029101 0
M  V30 21 H 0.035557 -2.038670 -0.077382 0
M  V30 22 H -5.021971 -0.762685 0.132147 0
M  V30 23 H -4.862604 -3.435206 -0.140690 0
M  V30 24 H 2.498429 3.198274 0.061427 0
M  V30 25 H 0.870998 2.638961 0.086683 0
M  V30 26 H 5.881079 3.514755 -0.020523 0
M  V30 27 H 4.379700 3.470313 0.906016 0
M  V30 28 H 4.327911 3.477964 -0.855778 0
M  V30 29 H 7.025777 1.483125 -0.036355 0
M  V30 30 H 8.323301 -0.526539 -0.059575 0
M  V30 31 H 7.548888 -1.846205 -0.936139 0
M  V30 32 H 7.572832 -1.850179 0.830951 0
M  V30 END ATOM
M  V30 BEGIN BOND
M  V30 1 2 2 1
M  V30 2 1 3 2
M  V30 3 1 4 3
M  V30 4 2 5 4
M  V30 5 1 6 5
M  V30 6 2 7 6
M  V30 7 1 8 7
M  V30 8 1 8 4
M  V30 9 1 9 2
M  V30 10 2 10 9
M  V30 11 1 11 10
M  V30 12 1 12 10
M  V30 13 2 13 12
M  V30 14 1 14 13
M  V30 15 1 15 13
M  V30 16 2 16 15
M  V30 17 1 17 16
M  V30 18 1 18 16
M  V30 19 2 19 18
M  V30 20 1 19 12
M  V30 21 1 20 19
M  V30 22 1 20 9
M  V30 23 1 21 3
M  V30 24 1 22 6
M  V30 25 1 23 7
M  V30 26 1 24 11
M  V30 27 1 25 11
M  V30 28 1 26 14
M  V30 29 1 27 14
M  V30 30 1 28 14
M  V30 31 1 29 15
M  V30 32 1 30 17
M  V30 33 1 31 17
M  V30 34 1 32 17
M  V30 END BOND
M  V30 END CTAB
M  END
>  <i_epik_Tot_Q>  (25) 
0

>  <i_epik_Tot_abs_Q>  (25) 
0

>  <i_f3d_flags>  (25) 
0

>  <i_lp_mmshare_version>  (25) 
71160

>  <i_lp_orig_ion_str>  (25) 
1

>  <i_m_source_file_index>  (25) 
112

>  <b_lp_Chiralities_Consistent>  (25) 
1

>  <r_epik_Charging_Adjusted_Penalty>  (25) 
0

>  <r_epik_Ionization_Penalty>  (25) 
0.0049551683283762119

>  <r_epik_Ionization_Penalty_Charging>  (25) 
0

>  <r_epik_Ionization_Penalty_Neutral>  (25) 
0.0049551683283762119

>  <r_epik_State_Penalty>  (25) 
-0

>  <r_lp_Energy>  (25) 
28.389782999999998

>  <r_lp_tautomer_probability>  (25) 
1

>  <s_epik_cmdline>  (25) 
J2VwaWtfcHl0aG9uJywgJy1waHQnLCAnMC4yJywgJy1waCcsICc3LjQnLCAnLXJldGFpbl9pX2xhYicsICctcmV0YWluX3RfbGFiJywgJy10bicsICcxJywgJy1tYScsICc1MDAnLCAnLWltYWUnLCAnPGluZmlsZS5tYWU+JywgJy1vbWFlJywgJzxvdXRmaWxlLm1hZT4n

>  <s_epik_input>  (25) 
czFbY0hdW2NIXW5jMVtOSF1DKD1PKWMoYzJbTkgyXSlzYyhjMjMpbmMoW0NIM10pW2NIXWMzW0NIM10=

>  <s_lp_Force_Field>  (25) 
S-OPLS

>  <s_lp_Variant>  (25) 
4aj_Grossjean_2025-1

>  <s_lp_label>  (25) 
112

>  <s_m_source_file>  (25) 
montpellier_ligands.smi

$$$$
4ak_Grossjean_2025
     RDKit          3D

  0  0  0  0  0  0  0  0  0  0999 V3000
M  V30 BEGIN CTAB
M  V30 COUNTS 50 51 0 0 1
M  V30 BEGIN ATOM
M  V30 1 O -1.467257 2.824612 -1.769158 0
M  V30 2 C -0.296299 3.203217 -1.701771 0
M  V30 3 N 0.437442 3.089396 -0.575675 0
M  V30 4 C -0.026111 2.496735 0.679085 0
M  V30 5 C -0.063730 0.958072 0.657580 0
M  V30 6 O 1.245295 0.458613 0.417376 0
M  V30 7 C 1.316641 -0.959227 0.353982 0
M  V30 8 C 2.770127 -1.381844 0.105763 0
M  V30 9 O 3.584201 -0.916036 1.173858 0
M  V30 10 C 4.962072 -1.231118 1.025051 0
M  V30 11 C 5.738885 -0.699130 2.236294 0
M  V30 12 O 5.250355 -1.314845 3.420923 0
M  V30 13 C 5.901124 -0.868070 4.600301 0
M  V30 14 C 0.375757 3.813255 -2.848492 0
M  V30 15 C -0.149065 4.094031 -4.118827 0
M  V30 16 N -1.444943 3.830372 -4.484395 0
M  V30 17 C 0.797131 4.694034 -5.020512 0
M  V30 18 C 0.689396 5.136398 -6.366582 0
M  V30 19 C -0.585068 5.051569 -7.192741 0
M  V30 20 C 1.827795 5.686972 -6.966080 0
M  V30 21 C 3.015976 5.786767 -6.244916 0
M  V30 22 C 4.263935 6.379332 -6.873681 0
M  V30 23 N 3.156060 5.374743 -4.961469 0
M  V30 24 C 2.069263 4.851492 -4.392520 0
M  V30 25 S 2.075339 4.273373 -2.741606 0
M  V30 26 H 1.389761 3.424518 -0.585753 0
M  V30 27 H 0.664335 2.823155 1.457427 0
M  V30 28 H -1.003593 2.897891 0.953322 0
M  V30 29 H -0.439711 0.586592 1.612427 0
M  V30 30 H -0.746028 0.611290 -0.120947 0
M  V30 31 H 0.959098 -1.398669 1.287059 0
M  V30 32 H 0.682798 -1.333076 -0.452004 0
M  V30 33 H 2.829531 -2.469159 0.032787 0
M  V30 34 H 3.115615 -0.967265 -0.843210 0
M  V30 35 H 5.097696 -2.311495 0.946697 0
M  V30 36 H 5.355285 -0.781554 0.111353 0
M  V30 37 H 6.802095 -0.912064 2.111229 0
M  V30 38 H 5.624590 0.384941 2.297747 0
M  V30 39 H 5.478875 -1.380419 5.464717 0
M  V30 40 H 5.764598 0.204245 4.748594 0
M  V30 41 H 6.970069 -1.085358 4.572416 0
M  V30 42 H -1.794476 4.047264 -5.406826 0
M  V30 43 H -2.095144 3.403759 -3.838893 0
M  V30 44 H -0.459127 5.452401 -8.199471 0
M  V30 45 H -1.385211 5.610792 -6.706678 0
M  V30 46 H -0.908654 4.013868 -7.281525 0
M  V30 47 H 1.789506 6.036710 -7.987998 0
M  V30 48 H 4.073024 6.746857 -7.882818 0
M  V30 49 H 5.052181 5.627862 -6.933107 0
M  V30 50 H 4.633458 7.215281 -6.278288 0
M  V30 END ATOM
M  V30 BEGIN BOND
M  V30 1 2 2 1
M  V30 2 1 3 2
M  V30 3 1 4 3
M  V30 4 1 5 4
M  V30 5 1 6 5
M  V30 6 1 7 6
M  V30 7 1 8 7
M  V30 8 1 9 8
M  V30 9 1 10 9
M  V30 10 1 11 10
M  V30 11 1 12 11
M  V30 12 1 13 12
M  V30 13 1 14 2
M  V30 14 2 15 14
M  V30 15 1 16 15
M  V30 16 1 17 15
M  V30 17 2 18 17
M  V30 18 1 19 18
M  V30 19 1 20 18
M  V30 20 2 21 20
M  V30 21 1 22 21
M  V30 22 1 23 21
M  V30 23 2 24 23
M  V30 24 1 24 17
M  V30 25 1 25 24
M  V30 26 1 25 14
M  V30 27 1 26 3
M  V30 28 1 27 4
M  V30 29 1 28 4
M  V30 30 1 29 5
M  V30 31 1 30 5
M  V30 32 1 31 7
M  V30 33 1 32 7
M  V30 34 1 33 8
M  V30 35 1 34 8
M  V30 36 1 35 10
M  V30 37 1 36 10
M  V30 38 1 37 11
M  V30 39 1 38 11
M  V30 40 1 39 13
M  V30 41 1 40 13
M  V30 42 1 41 13
M  V30 43 1 42 16
M  V30 44 1 43 16
M  V30 45 1 44 19
M  V30 46 1 45 19
M  V30 47 1 46 19
M  V30 48 1 47 20
M  V30 49 1 48 22
M  V30 50 1 49 22
M  V30 51 1 50 22
M  V30 END BOND
M  V30 END CTAB
M  END
>  <i_epik_Tot_Q>  (26) 
0

>  <i_epik_Tot_abs_Q>  (26) 
0

>  <i_f3d_flags>  (26) 
0

>  <i_lp_mmshare_version>  (26) 
71160

>  <i_lp_orig_ion_str>  (26) 
1

>  <i_m_source_file_index>  (26) 
113

>  <b_lp_Chiralities_Consistent>  (26) 
1

>  <r_epik_Charging_Adjusted_Penalty>  (26) 
0

>  <r_epik_Ionization_Penalty>  (26) 
0.00031912551168855466

>  <r_epik_Ionization_Penalty_Charging>  (26) 
0

>  <r_epik_Ionization_Penalty_Neutral>  (26) 
0.00031912551168855466

>  <r_epik_State_Penalty>  (26) 
-0

>  <r_lp_Energy>  (26) 
24.780853

>  <r_lp_tautomer_probability>  (26) 
1

>  <s_epik_cmdline>  (26) 
J2VwaWtfcHl0aG9uJywgJy1waHQnLCAnMC4yJywgJy1waCcsICc3LjQnLCAnLXJldGFpbl9pX2xhYicsICctcmV0YWluX3RfbGFiJywgJy10bicsICcxJywgJy1tYScsICc1MDAnLCAnLWltYWUnLCAnPGluZmlsZS5tYWU+JywgJy1vbWFlJywgJzxvdXRmaWxlLm1hZT4n

>  <s_epik_input>  (26) 
W0NIM11jMVtjSF1jKFtDSDNdKW5jKGMxMilzYyhjMltOSDJdKUMoPU8pW05IXVtDSDJdW0NIMl1PW0NIMl1bQ0gyXU9bQ0gyXVtDSDJdT1tDSDNd

>  <s_lp_Force_Field>  (26) 
S-OPLS

>  <s_lp_Variant>  (26) 
4ak_Grossjean_2025-1

>  <s_lp_label>  (26) 
113

>  <s_m_source_file>  (26) 
montpellier_ligands.smi

$$$$
4al_Grossjean_2025
     RDKit          3D

  0  0  0  0  0  0  0  0  0  0999 V3000
M  V30 BEGIN CTAB
M  V30 COUNTS 28 29 0 0 1
M  V30 BEGIN ATOM
M  V30 1 O -0.707112 1.078325 -0.000008 0
M  V30 2 C -0.024285 0.050824 -0.000004 0
M  V30 3 O -0.540664 -1.205250 -0.000000 0
M  V30 4 C -1.945403 -1.415280 0.000001 0
M  V30 5 C 1.455007 0.064881 -0.000004 0
M  V30 6 C 2.320705 1.165073 -0.000007 0
M  V30 7 N 1.887506 2.466427 -0.000012 0
M  V30 8 C 3.713654 0.813465 -0.000004 0
M  V30 9 C 4.899577 1.595643 -0.000004 0
M  V30 10 C 4.917542 3.116425 -0.000005 0
M  V30 11 C 6.126069 0.921694 -0.000002 0
M  V30 12 C 6.155582 -0.471464 -0.000000 0
M  V30 13 C 7.473233 -1.225108 0.000001 0
M  V30 14 N 5.045238 -1.248685 0.000000 0
M  V30 15 C 3.877598 -0.603702 -0.000001 0
M  V30 16 S 2.350938 -1.456290 -0.000000 0
M  V30 17 H -2.158997 -2.484189 0.000000 0
M  V30 18 H -2.407089 -0.976314 -0.885481 0
M  V30 19 H -2.407085 -0.976317 0.885488 0
M  V30 20 H 2.532370 3.243508 -0.000018 0
M  V30 21 H 0.902350 2.691792 -0.000013 0
M  V30 22 H 5.930202 3.522455 -0.000003 0
M  V30 23 H 4.401678 3.498525 0.881299 0
M  V30 24 H 4.401682 3.498524 -0.881313 0
M  V30 25 H 7.052404 1.478384 -0.000001 0
M  V30 26 H 8.327753 -0.546940 0.000000 0
M  V30 27 H 7.549343 -1.859959 -0.883729 0
M  V30 28 H 7.549342 -1.859957 0.883733 0
M  V30 END ATOM
M  V30 BEGIN BOND
M  V30 1 2 2 1
M  V30 2 1 3 2
M  V30 3 1 4 3
M  V30 4 1 5 2
M  V30 5 2 6 5
M  V30 6 1 7 6
M  V30 7 1 8 6
M  V30 8 2 9 8
M  V30 9 1 10 9
M  V30 10 1 11 9
M  V30 11 2 12 11
M  V30 12 1 13 12
M  V30 13 1 14 12
M  V30 14 2 15 14
M  V30 15 1 15 8
M  V30 16 1 16 15
M  V30 17 1 16 5
M  V30 18 1 17 4
M  V30 19 1 18 4
M  V30 20 1 19 4
M  V30 21 1 20 7
M  V30 22 1 21 7
M  V30 23 1 22 10
M  V30 24 1 23 10
M  V30 25 1 24 10
M  V30 26 1 25 11
M  V30 27 1 26 13
M  V30 28 1 27 13
M  V30 29 1 28 13
M  V30 END BOND
M  V30 END CTAB
M  END
>  <i_epik_Tot_Q>  (27) 
0

>  <i_epik_Tot_abs_Q>  (27) 
0

>  <i_f3d_flags>  (27) 
0

>  <i_lp_mmshare_version>  (27) 
71160

>  <i_lp_orig_ion_str>  (27) 
1

>  <i_m_source_file_index>  (27) 
114

>  <b_lp_Chiralities_Consistent>  (27) 
1

>  <r_epik_Charging_Adjusted_Penalty>  (27) 
0

>  <r_epik_Ionization_Penalty>  (27) 
0.00039128594882334081

>  <r_epik_Ionization_Penalty_Charging>  (27) 
0

>  <r_epik_Ionization_Penalty_Neutral>  (27) 
0.00039128594882334081

>  <r_epik_State_Penalty>  (27) 
-0

>  <r_lp_Energy>  (27) 
19.297055

>  <r_lp_tautomer_probability>  (27) 
1

>  <s_epik_Chemistry_Notes>  (27) 
This compound has an ester and may undergo hydrolysis at high or low pH.

>  <s_epik_cmdline>  (27) 
J2VwaWtfcHl0aG9uJywgJy1waHQnLCAnMC4yJywgJy1waCcsICc3LjQnLCAnLXJldGFpbl9pX2xhYicsICctcmV0YWluX3RfbGFiJywgJy10bicsICcxJywgJy1tYScsICc1MDAnLCAnLWltYWUnLCAnPGluZmlsZS5tYWU+JywgJy1vbWFlJywgJzxvdXRmaWxlLm1hZT4n

>  <s_epik_input>  (27) 
W0NIM11PQyg9TyljKGMxW05IMl0pc2MoYzEyKW5jKFtDSDNdKVtjSF1jMltDSDNd

>  <s_lp_Force_Field>  (27) 
S-OPLS

>  <s_lp_Variant>  (27) 
4al_Grossjean_2025-1

>  <s_lp_label>  (27) 
114

>  <s_m_source_file>  (27) 
montpellier_ligands.smi

$$$$
4ba_Grossjean_2025
     RDKit          3D

  0  0  0  0  0  0  0  0  0  0999 V3000
M  V30 BEGIN CTAB
M  V30 COUNTS 44 46 0 0 1
M  V30 BEGIN ATOM
M  V30 1 O -0.585669 1.243355 0.226025 0
M  V30 2 C 0.010564 0.174308 0.091196 0
M  V30 3 N -0.601378 -1.028701 -0.036575 0
M  V30 4 C -1.970474 -1.357274 -0.002173 0
M  V30 5 C -2.287736 -2.670204 -0.352166 0
M  V30 6 C -3.610838 -3.102136 -0.343143 0
M  V30 7 C -4.644049 -2.228547 0.021222 0
M  V30 8 C -6.061054 -2.724165 0.022820 0
M  V30 9 C -7.168872 -1.725344 0.414981 0
M  V30 10 C -8.599793 -2.295301 0.394049 0
M  V30 11 O -6.364522 -3.881459 -0.277316 0
M  V30 12 C -4.320974 -0.911795 0.378881 0
M  V30 13 C -2.997970 -0.477970 0.370372 0
M  V30 14 C 1.474453 0.140379 0.034377 0
M  V30 15 C 2.376149 1.217307 0.029022 0
M  V30 16 N 1.978770 2.529874 0.045501 0
M  V30 17 C 3.763813 0.824466 0.002206 0
M  V30 18 C 4.982924 1.565669 -0.020479 0
M  V30 19 C 5.061841 3.096343 -0.032860 0
M  V30 20 F 6.315335 3.553862 -0.071209 0
M  V30 21 F 4.430472 3.572731 -1.105781 0
M  V30 22 F 4.491011 3.586059 1.067544 0
M  V30 23 C 6.179840 0.832383 -0.031165 0
M  V30 24 C 6.154164 -0.559756 -0.021568 0
M  V30 25 C 7.439912 -1.366598 -0.024772 0
M  V30 26 N 5.016008 -1.291228 -0.007001 0
M  V30 27 C 3.876955 -0.600321 0.003684 0
M  V30 28 S 2.324910 -1.403244 0.025088 0
M  V30 29 H 0.007358 -1.818013 -0.195647 0
M  V30 30 H -1.511736 -3.366440 -0.637664 0
M  V30 31 H -3.819199 -4.125144 -0.623531 0
M  V30 32 H -6.950916 -1.345354 1.413437 0
M  V30 33 H -7.115296 -0.872154 -0.261759 0
M  V30 34 H -9.321950 -1.529244 0.676546 0
M  V30 35 H -8.711519 -3.124731 1.093872 0
M  V30 36 H -8.874193 -2.652948 -0.599266 0
M  V30 37 H -5.080624 -0.202676 0.672801 0
M  V30 38 H -2.806396 0.539518 0.669340 0
M  V30 39 H 2.644128 3.290156 0.038305 0
M  V30 40 H 1.000659 2.782841 0.075305 0
M  V30 41 H 7.135563 1.336131 -0.045504 0
M  V30 42 H 8.321798 -0.724779 -0.022708 0
M  V30 43 H 7.489126 -2.001321 -0.910370 0
M  V30 44 H 7.490897 -2.006853 0.856923 0
M  V30 END ATOM
M  V30 BEGIN BOND
M  V30 1 2 2 1
M  V30 2 1 3 2
M  V30 3 1 4 3
M  V30 4 2 5 4
M  V30 5 1 6 5
M  V30 6 2 7 6
M  V30 7 1 8 7
M  V30 8 1 9 8
M  V30 9 1 10 9
M  V30 10 2 11 8
M  V30 11 1 12 7
M  V30 12 2 13 12
M  V30 13 1 13 4
M  V30 14 1 14 2
M  V30 15 2 15 14
M  V30 16 1 16 15
M  V30 17 1 17 15
M  V30 18 2 18 17
M  V30 19 1 19 18
M  V30 20 1 20 19
M  V30 21 1 21 19
M  V30 22 1 22 19
M  V30 23 1 23 18
M  V30 24 2 24 23
M  V30 25 1 25 24
M  V30 26 1 26 24
M  V30 27 2 27 26
M  V30 28 1 27 17
M  V30 29 1 28 27
M  V30 30 1 28 14
M  V30 31 1 29 3
M  V30 32 1 30 5
M  V30 33 1 31 6
M  V30 34 1 32 9
M  V30 35 1 33 9
M  V30 36 1 34 10
M  V30 37 1 35 10
M  V30 38 1 36 10
M  V30 39 1 37 12
M  V30 40 1 38 13
M  V30 41 1 39 16
M  V30 42 1 40 16
M  V30 43 1 41 23
M  V30 44 1 42 25
M  V30 45 1 43 25
M  V30 46 1 44 25
M  V30 END BOND
M  V30 END CTAB
M  END
>  <i_epik_Tot_Q>  (28) 
0

>  <i_epik_Tot_abs_Q>  (28) 
0

>  <i_f3d_flags>  (28) 
0

>  <i_lp_mmshare_version>  (28) 
71160

>  <i_lp_orig_ion_str>  (28) 
1

>  <i_m_source_file_index>  (28) 
115

>  <b_lp_Chiralities_Consistent>  (28) 
1

>  <r_epik_Charging_Adjusted_Penalty>  (28) 
0

>  <r_epik_Ionization_Penalty>  (28) 
0.00034313753563153287

>  <r_epik_Ionization_Penalty_Charging>  (28) 
0

>  <r_epik_Ionization_Penalty_Neutral>  (28) 
0.00034313753563153287

>  <r_epik_State_Penalty>  (28) 
-0

>  <r_lp_Energy>  (28) 
34.600302999999997

>  <r_lp_tautomer_probability>  (28) 
1

>  <s_epik_cmdline>  (28) 
J2VwaWtfcHl0aG9uJywgJy1waHQnLCAnMC4yJywgJy1waCcsICc3LjQnLCAnLXJldGFpbl9pX2xhYicsICctcmV0YWluX3RfbGFiJywgJy10bicsICcxJywgJy1tYScsICc1MDAnLCAnLWltYWUnLCAnPGluZmlsZS5tYWU+JywgJy1vbWFlJywgJzxvdXRmaWxlLm1hZT4n

>  <s_epik_input>  (28) 
W0NIM11bQ0gyXUMoPU8pYyhbY0hdW2NIXTEpW2NIXVtjSF1jMVtOSF1DKD1PKWMoYzJbTkgyXSlzYyhjMjMpbmMoW0NIM10pW2NIXWMzQyhGKShGKUY=

>  <s_lp_Force_Field>  (28) 
S-OPLS

>  <s_lp_Variant>  (28) 
4ba_Grossjean_2025-1

>  <s_lp_label>  (28) 
115

>  <s_m_source_file>  (28) 
montpellier_ligands.smi

$$$$
4bb_Grossjean_2025
     RDKit          3D

  0  0  0  0  0  0  0  0  0  0999 V3000
M  V30 BEGIN CTAB
M  V30 COUNTS 41 43 0 0 1
M  V30 BEGIN ATOM
M  V30 1 O -0.606925 1.211258 0.273161 0
M  V30 2 C -0.004683 0.146626 0.131159 0
M  V30 3 N -0.610440 -1.058344 -0.006761 0
M  V30 4 C -1.978921 -1.391307 0.008091 0
M  V30 5 C -2.288687 -2.697588 -0.372783 0
M  V30 6 C -3.610848 -3.131830 -0.391460 0
M  V30 7 C -4.649103 -2.268093 -0.019906 0
M  V30 8 C -6.064296 -2.763257 -0.047972 0
M  V30 9 C -7.175045 -1.808510 0.395686 0
M  V30 10 O -6.381736 -3.899803 -0.400609 0
M  V30 11 C -4.334773 -0.959051 0.371222 0
M  V30 12 C -3.012670 -0.522038 0.387848 0
M  V30 13 C 1.459314 0.121218 0.069699 0
M  V30 14 C 2.354510 1.203353 0.060186 0
M  V30 15 N 1.948946 2.513464 0.072469 0
M  V30 16 C 3.744494 0.819041 0.027653 0
M  V30 17 C 4.958715 1.568104 0.002392 0
M  V30 18 C 5.027898 3.099142 0.002959 0
M  V30 19 F 6.278567 3.565164 -0.020997 0
M  V30 20 F 4.402035 3.579032 -1.071605 0
M  V30 21 F 4.445031 3.577112 1.102160 0
M  V30 22 C 6.160120 0.842798 -0.024789 0
M  V30 23 C 6.143275 -0.549396 -0.026979 0
M  V30 24 C 7.434326 -1.347270 -0.057922 0
M  V30 25 N 5.009988 -1.288388 -0.003076 0
M  V30 26 C 3.866610 -0.604831 0.022876 0
M  V30 27 S 2.319267 -1.417258 0.057310 0
M  V30 28 H 0.002672 -1.844013 -0.166777 0
M  V30 29 H -1.507251 -3.385747 -0.663126 0
M  V30 30 H -3.814753 -4.148351 -0.697661 0
M  V30 31 H -7.191924 -0.924603 -0.241705 0
M  V30 32 H -7.000100 -1.477365 1.419217 0
M  V30 33 H -8.151626 -2.290851 0.349219 0
M  V30 34 H -5.101635 -0.259668 0.670195 0
M  V30 35 H -2.826877 0.489398 0.710517 0
M  V30 36 H 2.609382 3.277690 0.051717 0
M  V30 37 H 0.969275 2.760371 0.102241 0
M  V30 38 H 7.112628 1.352660 -0.044642 0
M  V30 39 H 8.311497 -0.699091 -0.072554 0
M  V30 40 H 7.470936 -1.979195 -0.946127 0
M  V30 41 H 7.507601 -1.989291 0.820811 0
M  V30 END ATOM
M  V30 BEGIN BOND
M  V30 1 2 2 1
M  V30 2 1 3 2
M  V30 3 1 4 3
M  V30 4 2 5 4
M  V30 5 1 6 5
M  V30 6 2 7 6
M  V30 7 1 8 7
M  V30 8 1 9 8
M  V30 9 2 10 8
M  V30 10 1 11 7
M  V30 11 2 12 11
M  V30 12 1 12 4
M  V30 13 1 13 2
M  V30 14 2 14 13
M  V30 15 1 15 14
M  V30 16 1 16 14
M  V30 17 2 17 16
M  V30 18 1 18 17
M  V30 19 1 19 18
M  V30 20 1 20 18
M  V30 21 1 21 18
M  V30 22 1 22 17
M  V30 23 2 23 22
M  V30 24 1 24 23
M  V30 25 1 25 23
M  V30 26 2 26 25
M  V30 27 1 26 16
M  V30 28 1 27 26
M  V30 29 1 27 13
M  V30 30 1 28 3
M  V30 31 1 29 5
M  V30 32 1 30 6
M  V30 33 1 31 9
M  V30 34 1 32 9
M  V30 35 1 33 9
M  V30 36 1 34 11
M  V30 37 1 35 12
M  V30 38 1 36 15
M  V30 39 1 37 15
M  V30 40 1 38 22
M  V30 41 1 39 24
M  V30 42 1 40 24
M  V30 43 1 41 24
M  V30 END BOND
M  V30 END CTAB
M  END
>  <i_epik_Tot_Q>  (29) 
0

>  <i_epik_Tot_abs_Q>  (29) 
0

>  <i_f3d_flags>  (29) 
0

>  <i_lp_mmshare_version>  (29) 
71160

>  <i_lp_orig_ion_str>  (29) 
1

>  <i_m_source_file_index>  (29) 
116

>  <b_lp_Chiralities_Consistent>  (29) 
1

>  <r_epik_Charging_Adjusted_Penalty>  (29) 
0

>  <r_epik_Ionization_Penalty>  (29) 
0.00034311819589390201

>  <r_epik_Ionization_Penalty_Charging>  (29) 
0

>  <r_epik_Ionization_Penalty_Neutral>  (29) 
0.00034311819589390201

>  <r_epik_State_Penalty>  (29) 
-0

>  <r_lp_Energy>  (29) 
33.673724999999997

>  <r_lp_tautomer_probability>  (29) 
1

>  <s_epik_cmdline>  (29) 
J2VwaWtfcHl0aG9uJywgJy1waHQnLCAnMC4yJywgJy1waCcsICc3LjQnLCAnLXJldGFpbl9pX2xhYicsICctcmV0YWluX3RfbGFiJywgJy10bicsICcxJywgJy1tYScsICc1MDAnLCAnLWltYWUnLCAnPGluZmlsZS5tYWU+JywgJy1vbWFlJywgJzxvdXRmaWxlLm1hZT4n

>  <s_epik_input>  (29) 
W0NIM11DKD1PKWMoW2NIXVtjSF0xKVtjSF1bY0hdYzFbTkhdQyg9TyljKGMyW05IMl0pc2MoYzIzKW5jKFtDSDNdKVtjSF1jM0MoRikoRilG

>  <s_lp_Force_Field>  (29) 
S-OPLS

>  <s_lp_Variant>  (29) 
4bb_Grossjean_2025-1

>  <s_lp_label>  (29) 
116

>  <s_m_source_file>  (29) 
montpellier_ligands.smi

$$$$
4bc_Grossjean_2025
     RDKit          3D

  0  0  0  0  0  0  0  0  0  0999 V3000
M  V30 BEGIN CTAB
M  V30 COUNTS 40 42 0 0 1
M  V30 BEGIN ATOM
M  V30 1 O -0.610265 1.194043 -0.033374 0
M  V30 2 C 0.005118 0.126824 -0.021775 0
M  V30 3 N -0.591885 -1.090089 -0.020679 0
M  V30 4 C -1.962471 -1.408926 0.008044 0
M  V30 5 C -2.304298 -2.696597 -0.407813 0
M  V30 6 C -3.634563 -3.105655 -0.399190 0
M  V30 7 C -4.640860 -2.241628 0.032366 0
M  V30 8 O -5.931021 -2.735501 0.006404 0
M  V30 9 C -7.003254 -1.899974 0.429407 0
M  V30 10 C -4.295978 -0.951433 0.463514 0
M  V30 11 C -2.966674 -0.537705 0.455699 0
M  V30 12 C 1.470657 0.108823 -0.017498 0
M  V30 13 C 2.359332 1.196278 -0.024492 0
M  V30 14 N 1.945558 2.503542 -0.043364 0
M  V30 15 C 3.751930 0.820267 -0.010402 0
M  V30 16 C 4.962114 1.576119 -0.008555 0
M  V30 17 C 5.022840 3.107677 -0.017994 0
M  V30 18 F 6.271223 3.580208 -0.005460 0
M  V30 19 F 4.429604 3.575444 -1.116049 0
M  V30 20 F 4.402455 3.591139 1.058097 0
M  V30 21 C 6.167906 0.857645 0.002378 0
M  V30 22 C 6.159010 -0.534538 0.012514 0
M  V30 23 C 7.454804 -1.325363 0.020421 0
M  V30 24 N 5.029677 -1.279867 0.014483 0
M  V30 25 C 3.882208 -0.602927 0.003384 0
M  V30 26 S 2.339491 -1.424443 0.005032 0
M  V30 27 H 0.022421 -1.888894 -0.079640 0
M  V30 28 H -1.543823 -3.386781 -0.744845 0
M  V30 29 H -3.885999 -4.103080 -0.729362 0
M  V30 30 H -7.941648 -2.447782 0.344366 0
M  V30 31 H -7.084498 -1.007842 -0.193491 0
M  V30 32 H -6.890339 -1.600231 1.472422 0
M  V30 33 H -5.044669 -0.257164 0.813395 0
M  V30 34 H -2.743588 0.454037 0.816226 0
M  V30 35 H 2.600892 3.272353 -0.045059 0
M  V30 36 H 0.963630 2.742940 -0.059020 0
M  V30 37 H 7.117687 1.372632 0.002580 0
M  V30 38 H 8.328748 -0.672825 0.028520 0
M  V30 39 H 7.518964 -1.959459 -0.864765 0
M  V30 40 H 7.506466 -1.965061 0.902419 0
M  V30 END ATOM
M  V30 BEGIN BOND
M  V30 1 2 2 1
M  V30 2 1 3 2
M  V30 3 1 4 3
M  V30 4 2 5 4
M  V30 5 1 6 5
M  V30 6 2 7 6
M  V30 7 1 8 7
M  V30 8 1 9 8
M  V30 9 1 10 7
M  V30 10 2 11 10
M  V30 11 1 11 4
M  V30 12 1 12 2
M  V30 13 2 13 12
M  V30 14 1 14 13
M  V30 15 1 15 13
M  V30 16 2 16 15
M  V30 17 1 17 16
M  V30 18 1 18 17
M  V30 19 1 19 17
M  V30 20 1 20 17
M  V30 21 1 21 16
M  V30 22 2 22 21
M  V30 23 1 23 22
M  V30 24 1 24 22
M  V30 25 2 25 24
M  V30 26 1 25 15
M  V30 27 1 26 25
M  V30 28 1 26 12
M  V30 29 1 27 3
M  V30 30 1 28 5
M  V30 31 1 29 6
M  V30 32 1 30 9
M  V30 33 1 31 9
M  V30 34 1 32 9
M  V30 35 1 33 10
M  V30 36 1 34 11
M  V30 37 1 35 14
M  V30 38 1 36 14
M  V30 39 1 37 21
M  V30 40 1 38 23
M  V30 41 1 39 23
M  V30 42 1 40 23
M  V30 END BOND
M  V30 END CTAB
M  END
>  <i_epik_Tot_Q>  (1) 
0

>  <i_epik_Tot_abs_Q>  (1) 
0

>  <i_f3d_flags>  (1) 
0

>  <i_lp_mmshare_version>  (1) 
71160

>  <i_lp_orig_ion_str>  (1) 
1

>  <i_m_source_file_index>  (1) 
117

>  <b_lp_Chiralities_Consistent>  (1) 
1

>  <r_epik_Charging_Adjusted_Penalty>  (1) 
0

>  <r_epik_Ionization_Penalty>  (1) 
0.00034214687297487293

>  <r_epik_Ionization_Penalty_Charging>  (1) 
0

>  <r_epik_Ionization_Penalty_Neutral>  (1) 
0.00034214687297487293

>  <r_epik_State_Penalty>  (1) 
-0

>  <r_lp_Energy>  (1) 
36.889769000000001

>  <r_lp_tautomer_probability>  (1) 
1

>  <s_epik_cmdline>  (1) 
J2VwaWtfcHl0aG9uJywgJy1waHQnLCAnMC4yJywgJy1waCcsICc3LjQnLCAnLXJldGFpbl9pX2xhYicsICctcmV0YWluX3RfbGFiJywgJy10bicsICcxJywgJy1tYScsICc1MDAnLCAnLWltYWUnLCAnPGluZmlsZS5tYWU+JywgJy1vbWFlJywgJzxvdXRmaWxlLm1hZT4n

>  <s_epik_input>  (1) 
W0NIM11PYyhbY0hdW2NIXTEpW2NIXVtjSF1jMVtOSF1DKD1PKWMoYzJbTkgyXSlzYyhjMjMpbmMoW0NIM10pW2NIXWMzQyhGKShGKUY=

>  <s_lp_Force_Field>  (1) 
S-OPLS

>  <s_lp_Variant>  (1) 
4bc_Grossjean_2025-1

>  <s_lp_label>  (1) 
117

>  <s_m_source_file>  (1) 
montpellier_ligands.smi

$$$$
4bd_Grossjean_2025
     RDKit          3D

  0  0  0  0  0  0  0  0  0  0999 V3000
M  V30 BEGIN CTAB
M  V30 COUNTS 36 38 0 0 1
M  V30 BEGIN ATOM
M  V30 1 O -0.658851 1.122847 0.014976 0
M  V30 2 C -0.028772 0.064732 -0.011273 0
M  V30 3 N -0.607525 -1.160662 -0.046013 0
M  V30 4 C -1.971297 -1.508203 -0.006819 0
M  V30 5 C -2.282775 -2.809990 -0.409408 0
M  V30 6 C -3.603033 -3.251911 -0.396338 0
M  V30 7 C -4.613977 -2.393525 0.028013 0
M  V30 8 C -4.315454 -1.098721 0.444459 0
M  V30 9 C -2.996108 -0.653417 0.432080 0
M  V30 10 C 1.436904 0.068368 -0.019974 0
M  V30 11 C 2.310076 1.168648 -0.019577 0
M  V30 12 N 1.878663 2.470423 -0.027171 0
M  V30 13 C 3.707945 0.812692 -0.010748 0
M  V30 14 C 4.906844 1.586184 -0.001235 0
M  V30 15 C 4.944488 3.118354 0.005395 0
M  V30 16 F 6.185466 3.609845 0.022351 0
M  V30 17 F 4.342820 3.589309 -1.086778 0
M  V30 18 F 4.317580 3.580237 1.087192 0
M  V30 19 C 6.123135 0.885421 0.005009 0
M  V30 20 C 6.134796 -0.506818 0.002671 0
M  V30 21 C 7.441794 -1.279154 0.011928 0
M  V30 22 N 5.016328 -1.268480 -0.005756 0
M  V30 23 C 3.859021 -0.608399 -0.011127 0
M  V30 24 S 2.328165 -1.452167 -0.015725 0
M  V30 25 H 0.019703 -1.947051 -0.128934 0
M  V30 26 H -1.505577 -3.484759 -0.739703 0
M  V30 27 H -3.841604 -4.256708 -0.712345 0
M  V30 28 H -5.638126 -2.736684 0.039851 0
M  V30 29 H -5.104352 -0.442538 0.781679 0
M  V30 30 H -2.798320 0.347359 0.781477 0
M  V30 31 H 2.524258 3.247581 -0.031541 0
M  V30 32 H 0.893651 2.697552 -0.033775 0
M  V30 33 H 7.065057 1.414688 0.012921 0
M  V30 34 H 8.306490 -0.614416 0.016875 0
M  V30 35 H 7.515507 -1.917016 -0.869770 0
M  V30 36 H 7.503371 -1.913479 0.897034 0
M  V30 END ATOM
M  V30 BEGIN BOND
M  V30 1 2 2 1
M  V30 2 1 3 2
M  V30 3 1 4 3
M  V30 4 2 5 4
M  V30 5 1 6 5
M  V30 6 2 7 6
M  V30 7 1 8 7
M  V30 8 2 9 8
M  V30 9 1 9 4
M  V30 10 1 10 2
M  V30 11 2 11 10
M  V30 12 1 12 11
M  V30 13 1 13 11
M  V30 14 2 14 13
M  V30 15 1 15 14
M  V30 16 1 16 15
M  V30 17 1 17 15
M  V30 18 1 18 15
M  V30 19 1 19 14
M  V30 20 2 20 19
M  V30 21 1 21 20
M  V30 22 1 22 20
M  V30 23 2 23 22
M  V30 24 1 23 13
M  V30 25 1 24 23
M  V30 26 1 24 10
M  V30 27 1 25 3
M  V30 28 1 26 5
M  V30 29 1 27 6
M  V30 30 1 28 7
M  V30 31 1 29 8
M  V30 32 1 30 9
M  V30 33 1 31 12
M  V30 34 1 32 12
M  V30 35 1 33 19
M  V30 36 1 34 21
M  V30 37 1 35 21
M  V30 38 1 36 21
M  V30 END BOND
M  V30 END CTAB
M  END
>  <i_epik_Tot_Q>  (2) 
0

>  <i_epik_Tot_abs_Q>  (2) 
0

>  <i_f3d_flags>  (2) 
0

>  <i_lp_mmshare_version>  (2) 
71160

>  <i_lp_orig_ion_str>  (2) 
1

>  <i_m_source_file_index>  (2) 
118

>  <b_lp_Chiralities_Consistent>  (2) 
1

>  <r_epik_Charging_Adjusted_Penalty>  (2) 
0

>  <r_epik_Ionization_Penalty>  (2) 
0.00034238755514953164

>  <r_epik_Ionization_Penalty_Charging>  (2) 
0

>  <r_epik_Ionization_Penalty_Neutral>  (2) 
0.00034238755514953164

>  <r_epik_State_Penalty>  (2) 
-0

>  <r_lp_Energy>  (2) 
33.891396999999998

>  <r_lp_tautomer_probability>  (2) 
1

>  <s_epik_cmdline>  (2) 
J2VwaWtfcHl0aG9uJywgJy1waHQnLCAnMC4yJywgJy1waCcsICc3LjQnLCAnLXJldGFpbl9pX2xhYicsICctcmV0YWluX3RfbGFiJywgJy10bicsICcxJywgJy1tYScsICc1MDAnLCAnLWltYWUnLCAnPGluZmlsZS5tYWU+JywgJy1vbWFlJywgJzxvdXRmaWxlLm1hZT4n

>  <s_epik_input>  (2) 
W2NIXTFbY0hdW2NIXVtjSF1bY0hdYzFbTkhdQyg9TyljKGMyW05IMl0pc2MoYzIzKW5jKFtDSDNdKVtjSF1jM0MoRikoRilG

>  <s_lp_Force_Field>  (2) 
S-OPLS

>  <s_lp_Variant>  (2) 
4bd_Grossjean_2025-1

>  <s_lp_label>  (2) 
118

>  <s_m_source_file>  (2) 
montpellier_ligands.smi

$$$$
4be_Grossjean_2025
     RDKit          3D

  0  0  0  0  0  0  0  0  0  0999 V3000
M  V30 BEGIN CTAB
M  V30 COUNTS 38 40 0 0 1
M  V30 BEGIN ATOM
M  V30 1 O -0.640010 1.097917 0.292416 0
M  V30 2 C -0.009025 0.048021 0.155048 0
M  V30 3 N -0.589679 -1.171810 0.036052 0
M  V30 4 C -1.956902 -1.502840 0.033710 0
M  V30 5 N -2.922734 -0.595943 0.362640 0
M  V30 6 C -4.220906 -0.994108 0.346325 0
M  V30 7 C -5.240512 0.064724 0.719344 0
M  V30 8 C -4.607256 -2.293698 0.009691 0
M  V30 9 C -3.613962 -3.216767 -0.319587 0
M  V30 10 C -2.274307 -2.822892 -0.306312 0
M  V30 11 C 1.454517 0.056657 0.087906 0
M  V30 12 C 2.324049 1.159079 0.077661 0
M  V30 13 N 1.888042 2.459033 0.107144 0
M  V30 14 C 3.721870 0.807079 0.026730 0
M  V30 15 C 4.918037 1.583776 -0.012514 0
M  V30 16 C 4.951438 3.116053 -0.017313 0
M  V30 17 F 6.189892 3.610794 -0.073655 0
M  V30 18 F 4.288861 3.578635 -1.077310 0
M  V30 19 F 4.384472 3.583285 1.094703 0
M  V30 20 C 6.135432 0.886352 -0.051104 0
M  V30 21 C 6.150758 -0.505794 -0.051856 0
M  V30 22 C 7.459788 -1.273305 -0.091337 0
M  V30 23 N 5.035158 -1.270792 -0.019063 0
M  V30 24 C 3.876646 -0.613821 0.017692 0
M  V30 25 S 2.348787 -1.461721 0.061258 0
M  V30 26 H 0.031968 -1.952675 -0.112037 0
M  V30 27 H -6.257326 -0.328443 0.690937 0
M  V30 28 H -5.185232 0.906477 0.028105 0
M  V30 29 H -5.051972 0.436510 1.727172 0
M  V30 30 H -5.647880 -2.583733 0.002802 0
M  V30 31 H -3.880106 -4.229664 -0.583535 0
M  V30 32 H -1.502313 -3.535458 -0.560185 0
M  V30 33 H 2.529455 3.239296 0.092912 0
M  V30 34 H 0.902760 2.680926 0.151190 0
M  V30 35 H 7.075804 1.417725 -0.080919 0
M  V30 36 H 8.321572 -0.604605 -0.109173 0
M  V30 37 H 7.505793 -1.902775 -0.980897 0
M  V30 38 H 7.552464 -1.915082 0.785751 0
M  V30 END ATOM
M  V30 BEGIN BOND
M  V30 1 2 2 1
M  V30 2 1 3 2
M  V30 3 1 4 3
M  V30 4 2 5 4
M  V30 5 1 6 5
M  V30 6 1 7 6
M  V30 7 2 8 6
M  V30 8 1 9 8
M  V30 9 2 10 9
M  V30 10 1 10 4
M  V30 11 1 11 2
M  V30 12 2 12 11
M  V30 13 1 13 12
M  V30 14 1 14 12
M  V30 15 2 15 14
M  V30 16 1 16 15
M  V30 17 1 17 16
M  V30 18 1 18 16
M  V30 19 1 19 16
M  V30 20 1 20 15
M  V30 21 2 21 20
M  V30 22 1 22 21
M  V30 23 1 23 21
M  V30 24 2 24 23
M  V30 25 1 24 14
M  V30 26 1 25 24
M  V30 27 1 25 11
M  V30 28 1 26 3
M  V30 29 1 27 7
M  V30 30 1 28 7
M  V30 31 1 29 7
M  V30 32 1 30 8
M  V30 33 1 31 9
M  V30 34 1 32 10
M  V30 35 1 33 13
M  V30 36 1 34 13
M  V30 37 1 35 20
M  V30 38 1 36 22
M  V30 39 1 37 22
M  V30 40 1 38 22
M  V30 END BOND
M  V30 END CTAB
M  END
>  <i_epik_Tot_Q>  (3) 
0

>  <i_epik_Tot_abs_Q>  (3) 
0

>  <i_f3d_flags>  (3) 
0

>  <i_lp_mmshare_version>  (3) 
71160

>  <i_lp_orig_ion_str>  (3) 
1

>  <i_m_source_file_index>  (3) 
119

>  <b_lp_Chiralities_Consistent>  (3) 
1

>  <r_epik_Charging_Adjusted_Penalty>  (3) 
0

>  <r_epik_Ionization_Penalty>  (3) 
0.0016934130815785386

>  <r_epik_Ionization_Penalty_Charging>  (3) 
0

>  <r_epik_Ionization_Penalty_Neutral>  (3) 
0.0016934130815785386

>  <r_epik_State_Penalty>  (3) 
-0

>  <r_lp_Energy>  (3) 
35.444508999999996

>  <r_lp_tautomer_probability>  (3) 
1

>  <s_epik_cmdline>  (3) 
J2VwaWtfcHl0aG9uJywgJy1waHQnLCAnMC4yJywgJy1waCcsICc3LjQnLCAnLXJldGFpbl9pX2xhYicsICctcmV0YWluX3RfbGFiJywgJy10bicsICcxJywgJy1tYScsICc1MDAnLCAnLWltYWUnLCAnPGluZmlsZS5tYWU+JywgJy1vbWFlJywgJzxvdXRmaWxlLm1hZT4n

>  <s_epik_input>  (3) 
W2NIXTFbY0hdW2NIXWMoW0NIM10pbmMxW05IXUMoPU8pYyhjMltOSDJdKXNjKGMyMyluYyhbQ0gzXSlbY0hdYzNDKEYpKEYpRg==

>  <s_lp_Force_Field>  (3) 
S-OPLS

>  <s_lp_Variant>  (3) 
4be_Grossjean_2025-1

>  <s_lp_label>  (3) 
119

>  <s_m_source_file>  (3) 
montpellier_ligands.smi

$$$$
4bf_Grossjean_2025
     RDKit          3D

  0  0  0  0  0  0  0  0  0  0999 V3000
M  V30 BEGIN CTAB
M  V30 COUNTS 35 37 0 0 1
M  V30 BEGIN ATOM
M  V30 1 O -0.651191 1.116671 0.109187 0
M  V30 2 C -0.021772 0.061536 0.021936 0
M  V30 3 N -0.599884 -1.161195 -0.067444 0
M  V30 4 C -1.961501 -1.514258 -0.019372 0
M  V30 5 C -2.288165 -2.827937 -0.374712 0
M  V30 6 N -3.556712 -3.311499 -0.364461 0
M  V30 7 C -4.550731 -2.470924 0.017648 0
M  V30 8 C -4.320570 -1.148464 0.397229 0
M  V30 9 C -3.010395 -0.665834 0.380304 0
M  V30 10 C 1.443696 0.067275 -0.007642 0
M  V30 11 C 2.315511 1.168411 -0.006417 0
M  V30 12 N 1.882676 2.469730 -0.008958 0
M  V30 13 C 3.713758 0.814113 -0.005076 0
M  V30 14 C 4.911708 1.589156 -0.001712 0
M  V30 15 C 4.947482 3.121366 0.002424 0
M  V30 16 F 6.187778 3.614652 0.010234 0
M  V30 17 F 4.338454 3.589616 -1.086795 0
M  V30 18 F 4.327308 3.584371 1.087646 0
M  V30 19 C 6.128884 0.890023 0.000162 0
M  V30 20 C 6.142383 -0.502291 -0.000980 0
M  V30 21 C 7.450830 -1.272251 0.004734 0
M  V30 22 N 5.024977 -1.265556 -0.004542 0
M  V30 23 C 3.866756 -0.606826 -0.005874 0
M  V30 24 S 2.336811 -1.452319 -0.004487 0
M  V30 25 H 0.028289 -1.941119 -0.193961 0
M  V30 26 H -1.524001 -3.527323 -0.683033 0
M  V30 27 H -5.551268 -2.877850 0.020195 0
M  V30 28 H -5.137629 -0.511744 0.702910 0
M  V30 29 H -2.842027 0.352286 0.692590 0
M  V30 30 H 2.527885 3.247253 -0.013965 0
M  V30 31 H 0.897508 2.696001 -0.008480 0
M  V30 32 H 7.070097 1.420584 0.003944 0
M  V30 33 H 8.314571 -0.606041 0.007757 0
M  V30 34 H 7.523100 -1.909251 -0.877648 0
M  V30 35 H 7.515452 -1.906947 0.889410 0
M  V30 END ATOM
M  V30 BEGIN BOND
M  V30 1 2 2 1
M  V30 2 1 3 2
M  V30 3 1 4 3
M  V30 4 2 5 4
M  V30 5 1 6 5
M  V30 6 2 7 6
M  V30 7 1 8 7
M  V30 8 2 9 8
M  V30 9 1 9 4
M  V30 10 1 10 2
M  V30 11 2 11 10
M  V30 12 1 12 11
M  V30 13 1 13 11
M  V30 14 2 14 13
M  V30 15 1 15 14
M  V30 16 1 16 15
M  V30 17 1 17 15
M  V30 18 1 18 15
M  V30 19 1 19 14
M  V30 20 2 20 19
M  V30 21 1 21 20
M  V30 22 1 22 20
M  V30 23 2 23 22
M  V30 24 1 23 13
M  V30 25 1 24 23
M  V30 26 1 24 10
M  V30 27 1 25 3
M  V30 28 1 26 5
M  V30 29 1 27 7
M  V30 30 1 28 8
M  V30 31 1 29 9
M  V30 32 1 30 12
M  V30 33 1 31 12
M  V30 34 1 32 19
M  V30 35 1 33 21
M  V30 36 1 34 21
M  V30 37 1 35 21
M  V30 END BOND
M  V30 END CTAB
M  END
>  <i_epik_Tot_Q>  (4) 
0

>  <i_epik_Tot_abs_Q>  (4) 
0

>  <i_f3d_flags>  (4) 
0

>  <i_lp_mmshare_version>  (4) 
71160

>  <i_lp_orig_ion_str>  (4) 
1

>  <i_m_source_file_index>  (4) 
120

>  <b_lp_Chiralities_Consistent>  (4) 
1

>  <r_epik_Charging_Adjusted_Penalty>  (4) 
0

>  <r_epik_Ionization_Penalty>  (4) 
0.00197407946020844

>  <r_epik_Ionization_Penalty_Charging>  (4) 
0

>  <r_epik_Ionization_Penalty_Neutral>  (4) 
0.00197407946020844

>  <r_epik_State_Penalty>  (4) 
-0

>  <r_lp_Energy>  (4) 
36.756568999999999

>  <r_lp_tautomer_probability>  (4) 
1

>  <s_epik_cmdline>  (4) 
J2VwaWtfcHl0aG9uJywgJy1waHQnLCAnMC4yJywgJy1waCcsICc3LjQnLCAnLXJldGFpbl9pX2xhYicsICctcmV0YWluX3RfbGFiJywgJy10bicsICcxJywgJy1tYScsICc1MDAnLCAnLWltYWUnLCAnPGluZmlsZS5tYWU+JywgJy1vbWFlJywgJzxvdXRmaWxlLm1hZT4n

>  <s_epik_input>  (4) 
W2NIXTFbY0hdW2NIXW5bY0hdYzFbTkhdQyg9TyljKGMyW05IMl0pc2MoYzIzKW5jKFtDSDNdKVtjSF1jM0MoRikoRilG

>  <s_lp_Force_Field>  (4) 
S-OPLS

>  <s_lp_Variant>  (4) 
4bf_Grossjean_2025-1

>  <s_lp_label>  (4) 
120

>  <s_m_source_file>  (4) 
montpellier_ligands.smi

$$$$
4bg_Grossjean_2025
     RDKit          3D

  0  0  0  0  0  0  0  0  0  0999 V3000
M  V30 BEGIN CTAB
M  V30 COUNTS 39 41 0 0 1
M  V30 BEGIN ATOM
M  V30 1 O -0.602387 0.914377 0.368711 0
M  V30 2 C 0.070928 -0.098258 0.168468 0
M  V30 3 N -0.484472 -1.313418 -0.022693 0
M  V30 4 C -1.915279 -1.610864 0.033557 0
M  V30 5 C -2.463270 -1.701638 1.452497 0
M  V30 6 C -3.148736 -0.618596 2.010241 0
M  V30 7 C -3.682103 -0.718878 3.292494 0
M  V30 8 C -3.540771 -1.906111 4.007839 0
M  V30 9 C -2.873587 -2.995365 3.451536 0
M  V30 10 C -2.338759 -2.895008 2.169887 0
M  V30 11 C 1.529800 -0.039932 0.079696 0
M  V30 12 C 2.361759 1.090260 0.076990 0
M  V30 13 N 1.882678 2.374508 0.122646 0
M  V30 14 C 3.769635 0.783245 0.011807 0
M  V30 15 C 4.940318 1.597563 -0.031697 0
M  V30 16 C 4.925301 3.130022 -0.026164 0
M  V30 17 F 6.147422 3.664150 -0.083020 0
M  V30 18 F 4.244317 3.577995 -1.080746 0
M  V30 19 F 4.348033 3.571777 1.090956 0
M  V30 20 C 6.178915 0.939086 -0.084641 0
M  V30 21 C 6.238309 -0.451944 -0.092087 0
M  V30 22 C 7.570304 -1.178274 -0.143389 0
M  V30 23 N 5.147638 -1.251842 -0.055785 0
M  V30 24 C 3.969235 -0.632083 -0.007797 0
M  V30 25 S 2.469750 -1.528852 0.040858 0
M  V30 26 H 0.130570 -2.109768 -0.102960 0
M  V30 27 H -2.483873 -0.877463 -0.542653 0
M  V30 28 H -2.076726 -2.567229 -0.465709 0
M  V30 29 H -3.263914 0.301089 1.454825 0
M  V30 30 H -4.205952 0.118811 3.729014 0
M  V30 31 H -3.956490 -1.984255 5.001622 0
M  V30 32 H -2.774810 -3.914383 4.010319 0
M  V30 33 H -1.826793 -3.742231 1.736940 0
M  V30 34 H 2.498284 3.175474 0.118521 0
M  V30 35 H 0.890868 2.563731 0.171683 0
M  V30 36 H 7.101634 1.499996 -0.119703 0
M  V30 37 H 8.411613 -0.484119 -0.153715 0
M  V30 38 H 7.633739 -1.795074 -1.040652 0
M  V30 39 H 7.684121 -1.828082 0.725164 0
M  V30 END ATOM
M  V30 BEGIN BOND
M  V30 1 2 2 1
M  V30 2 1 3 2
M  V30 3 1 4 3
M  V30 4 1 5 4
M  V30 5 2 6 5
M  V30 6 1 7 6
M  V30 7 2 8 7
M  V30 8 1 9 8
M  V30 9 2 10 9
M  V30 10 1 10 5
M  V30 11 1 11 2
M  V30 12 2 12 11
M  V30 13 1 13 12
M  V30 14 1 14 12
M  V30 15 2 15 14
M  V30 16 1 16 15
M  V30 17 1 17 16
M  V30 18 1 18 16
M  V30 19 1 19 16
M  V30 20 1 20 15
M  V30 21 2 21 20
M  V30 22 1 22 21
M  V30 23 1 23 21
M  V30 24 2 24 23
M  V30 25 1 24 14
M  V30 26 1 25 24
M  V30 27 1 25 11
M  V30 28 1 26 3
M  V30 29 1 27 4
M  V30 30 1 28 4
M  V30 31 1 29 6
M  V30 32 1 30 7
M  V30 33 1 31 8
M  V30 34 1 32 9
M  V30 35 1 33 10
M  V30 36 1 34 13
M  V30 37 1 35 13
M  V30 38 1 36 20
M  V30 39 1 37 22
M  V30 40 1 38 22
M  V30 41 1 39 22
M  V30 END BOND
M  V30 END CTAB
M  END
>  <i_epik_Tot_Q>  (5) 
0

>  <i_epik_Tot_abs_Q>  (5) 
0

>  <i_f3d_flags>  (5) 
0

>  <i_lp_mmshare_version>  (5) 
71160

>  <i_lp_orig_ion_str>  (5) 
1

>  <i_m_source_file_index>  (5) 
121

>  <b_lp_Chiralities_Consistent>  (5) 
1

>  <r_epik_Charging_Adjusted_Penalty>  (5) 
0

>  <r_epik_Ionization_Penalty>  (5) 
0.00016315432272003317

>  <r_epik_Ionization_Penalty_Charging>  (5) 
0

>  <r_epik_Ionization_Penalty_Neutral>  (5) 
0.00016315432272003317

>  <r_epik_State_Penalty>  (5) 
-0

>  <r_lp_Energy>  (5) 
30.120511999999998

>  <r_lp_tautomer_probability>  (5) 
1

>  <s_epik_cmdline>  (5) 
J2VwaWtfcHl0aG9uJywgJy1waHQnLCAnMC4yJywgJy1waCcsICc3LjQnLCAnLXJldGFpbl9pX2xhYicsICctcmV0YWluX3RfbGFiJywgJy10bicsICcxJywgJy1tYScsICc1MDAnLCAnLWltYWUnLCAnPGluZmlsZS5tYWU+JywgJy1vbWFlJywgJzxvdXRmaWxlLm1hZT4n

>  <s_epik_input>  (5) 
W2NIXTFbY0hdW2NIXVtjSF1bY0hdYzFbQ0gyXVtOSF1DKD1PKWMoYzJbTkgyXSlzYyhjMjMpbmMoW0NIM10pW2NIXWMzQyhGKShGKUY=

>  <s_lp_Force_Field>  (5) 
S-OPLS

>  <s_lp_Variant>  (5) 
4bg_Grossjean_2025-1

>  <s_lp_label>  (5) 
121

>  <s_m_source_file>  (5) 
montpellier_ligands.smi

$$$$
4bh_Grossjean_2025
     RDKit          3D

  0  0  0  0  0  0  0  0  0  0999 V3000
M  V30 BEGIN CTAB
M  V30 COUNTS 51 53 0 0 1
M  V30 BEGIN ATOM
M  V30 1 O -0.280834 1.967065 2.106412 0
M  V30 2 C -0.642765 2.272147 0.968437 0
M  V30 3 N -0.573015 1.412613 -0.070221 0
M  V30 4 C -0.030932 0.055104 -0.012100 0
M  V30 5 C 1.492476 0.007788 0.002175 0
M  V30 6 C 2.203785 0.011510 -1.198443 0
M  V30 7 C 3.605152 -0.072665 -1.204646 0
M  V30 8 O 4.373420 -0.072103 -2.355278 0
M  V30 9 C 3.733071 0.017455 -3.623196 0
M  V30 10 C 4.283375 -0.164048 0.019141 0
M  V30 11 O 5.654604 -0.258866 0.026607 0
M  V30 12 C 6.320301 0.994855 0.090172 0
M  V30 13 C 3.583371 -0.190443 1.233609 0
M  V30 14 O 4.330660 -0.295053 2.393223 0
M  V30 15 C 3.668210 -0.298071 3.653210 0
M  V30 16 C 2.182049 -0.111164 1.209609 0
M  V30 17 C -1.219904 3.584603 0.678443 0
M  V30 18 C -1.552556 4.610968 1.575944 0
M  V30 19 N -1.402225 4.497482 2.934330 0
M  V30 20 C -2.077558 5.796912 0.945107 0
M  V30 21 C -2.548286 7.042282 1.458022 0
M  V30 22 C -2.600631 7.395945 2.948432 0
M  V30 23 F -3.090588 8.616176 3.178748 0
M  V30 24 F -3.378821 6.525512 3.591409 0
M  V30 25 F -1.372773 7.354134 3.465266 0
M  V30 26 C -2.990850 7.994103 0.526183 0
M  V30 27 C -2.962071 7.712457 -0.837147 0
M  V30 28 C -3.433618 8.733036 -1.857197 0
M  V30 29 N -2.524904 6.541035 -1.354790 0
M  V30 30 C -2.105137 5.633159 -0.474661 0
M  V30 31 S -1.513903 4.070074 -0.988789 0
M  V30 32 H -0.808935 1.756669 -0.989542 0
M  V30 33 H -0.429057 -0.476813 0.854801 0
M  V30 34 H -0.393329 -0.489903 -0.884785 0
M  V30 35 H 1.650390 0.081618 -2.122721 0
M  V30 36 H 4.487967 0.001696 -4.409170 0
M  V30 37 H 3.172234 0.948028 -3.723301 0
M  V30 38 H 3.062516 -0.826185 -3.793100 0
M  V30 39 H 7.398032 0.833228 0.088460 0
M  V30 40 H 6.066640 1.537571 1.002392 0
M  V30 41 H 6.076768 1.622243 -0.768834 0
M  V30 42 H 4.409364 -0.374089 4.448615 0
M  V30 43 H 2.993410 -1.150083 3.748418 0
M  V30 44 H 3.106829 0.624020 3.812876 0
M  V30 45 H 1.611936 -0.133926 2.126157 0
M  V30 46 H -1.647072 5.248859 3.563656 0
M  V30 47 H -1.030892 3.655707 3.352840 0
M  V30 48 H -3.359057 8.956146 0.852375 0
M  V30 49 H -3.767232 9.657003 -1.383232 0
M  V30 50 H -4.266648 8.335239 -2.438097 0
M  V30 51 H -2.626552 8.983665 -2.546688 0
M  V30 END ATOM
M  V30 BEGIN BOND
M  V30 1 2 2 1
M  V30 2 1 3 2
M  V30 3 1 4 3
M  V30 4 1 5 4
M  V30 5 2 6 5
M  V30 6 1 7 6
M  V30 7 1 8 7
M  V30 8 1 9 8
M  V30 9 2 10 7
M  V30 10 1 11 10
M  V30 11 1 12 11
M  V30 12 1 13 10
M  V30 13 1 14 13
M  V30 14 1 15 14
M  V30 15 2 16 13
M  V30 16 1 16 5
M  V30 17 1 17 2
M  V30 18 2 18 17
M  V30 19 1 19 18
M  V30 20 1 20 18
M  V30 21 2 21 20
M  V30 22 1 22 21
M  V30 23 1 23 22
M  V30 24 1 24 22
M  V30 25 1 25 22
M  V30 26 1 26 21
M  V30 27 2 27 26
M  V30 28 1 28 27
M  V30 29 1 29 27
M  V30 30 2 30 29
M  V30 31 1 30 20
M  V30 32 1 31 30
M  V30 33 1 31 17
M  V30 34 1 32 3
M  V30 35 1 33 4
M  V30 36 1 34 4
M  V30 37 1 35 6
M  V30 38 1 36 9
M  V30 39 1 37 9
M  V30 40 1 38 9
M  V30 41 1 39 12
M  V30 42 1 40 12
M  V30 43 1 41 12
M  V30 44 1 42 15
M  V30 45 1 43 15
M  V30 46 1 44 15
M  V30 47 1 45 16
M  V30 48 1 46 19
M  V30 49 1 47 19
M  V30 50 1 48 26
M  V30 51 1 49 28
M  V30 52 1 50 28
M  V30 53 1 51 28
M  V30 END BOND
M  V30 END CTAB
M  END
>  <i_epik_Tot_Q>  (6) 
0

>  <i_epik_Tot_abs_Q>  (6) 
0

>  <i_f3d_flags>  (6) 
0

>  <i_lp_mmshare_version>  (6) 
71160

>  <i_lp_orig_ion_str>  (6) 
1

>  <i_m_source_file_index>  (6) 
122

>  <b_lp_Chiralities_Consistent>  (6) 
1

>  <r_epik_Charging_Adjusted_Penalty>  (6) 
0

>  <r_epik_Ionization_Penalty>  (6) 
0.00016472014890308518

>  <r_epik_Ionization_Penalty_Charging>  (6) 
0

>  <r_epik_Ionization_Penalty_Neutral>  (6) 
0.00016472014890308518

>  <r_epik_State_Penalty>  (6) 
-0

>  <r_lp_Energy>  (6) 
42.215911999999996

>  <r_lp_tautomer_probability>  (6) 
1

>  <s_epik_cmdline>  (6) 
J2VwaWtfcHl0aG9uJywgJy1waHQnLCAnMC4yJywgJy1waCcsICc3LjQnLCAnLXJldGFpbl9pX2xhYicsICctcmV0YWluX3RfbGFiJywgJy10bicsICcxJywgJy1tYScsICc1MDAnLCAnLWltYWUnLCAnPGluZmlsZS5tYWU+JywgJy1vbWFlJywgJzxvdXRmaWxlLm1hZT4n

>  <s_epik_input>  (6) 
RkMoRikoRiljMVtjSF1jKFtDSDNdKW5jKGMxMilzYyhjMltOSDJdKUMoPU8pW05IXVtDSDJdYzNbY0hdYyhPW0NIM10pYyhPW0NIM10pYyhbY0hdMylPW0NIM10=

>  <s_lp_Force_Field>  (6) 
S-OPLS

>  <s_lp_Variant>  (6) 
4bh_Grossjean_2025-1

>  <s_lp_label>  (6) 
122

>  <s_m_source_file>  (6) 
montpellier_ligands.smi

$$$$
4bi_Grossjean_2025
     RDKit          3D

  0  0  0  0  0  0  0  0  0  0999 V3000
M  V30 BEGIN CTAB
M  V30 COUNTS 32 34 0 0 1
M  V30 BEGIN ATOM
M  V30 1 O -0.677742 1.033196 0.157500 0
M  V30 2 C -0.030590 -0.010963 0.051618 0
M  V30 3 N -0.592554 -1.240303 -0.065267 0
M  V30 4 C -1.945806 -1.552847 -0.082225 0
M  V30 5 N -2.943448 -0.693988 0.048383 0
M  V30 6 O -4.124731 -1.434016 -0.028472 0
M  V30 7 C -3.795719 -2.735968 -0.205410 0
M  V30 8 C -2.425369 -2.852026 -0.244325 0
M  V30 9 C 1.434256 0.016307 0.024589 0
M  V30 10 C 2.289534 1.130056 0.035795 0
M  V30 11 N 1.836461 2.424373 0.055917 0
M  V30 12 C 3.692754 0.796402 0.016696 0
M  V30 13 C 4.879487 1.588567 0.006463 0
M  V30 14 C 4.893271 3.121269 0.005276 0
M  V30 15 F 6.126283 3.632016 -0.023097 0
M  V30 16 F 4.248030 3.578026 -1.067764 0
M  V30 17 F 4.296098 3.578535 1.105645 0
M  V30 18 C 6.106503 0.906902 -0.007566 0
M  V30 19 C 6.139704 -0.484941 -0.014609 0
M  V30 20 C 7.458900 -1.235650 -0.034560 0
M  V30 21 N 5.033534 -1.264245 -0.007211 0
M  V30 22 C 3.866113 -0.622341 0.007524 0
M  V30 23 S 2.348844 -1.489924 0.015606 0
M  V30 24 H 0.034633 -2.025244 -0.159523 0
M  V30 25 H -4.612532 -3.438355 -0.284196 0
M  V30 26 H -1.848662 -3.755905 -0.374165 0
M  V30 27 H 2.468627 3.212325 0.065724 0
M  V30 28 H 0.847786 2.634939 0.066764 0
M  V30 29 H 7.040286 1.450581 -0.014457 0
M  V30 30 H 8.312365 -0.556422 -0.043637 0
M  V30 31 H 7.524515 -1.866709 -0.921749 0
M  V30 32 H 7.548491 -1.874693 0.844734 0
M  V30 END ATOM
M  V30 BEGIN BOND
M  V30 1 2 2 1
M  V30 2 1 3 2
M  V30 3 1 4 3
M  V30 4 2 5 4
M  V30 5 1 6 5
M  V30 6 1 7 6
M  V30 7 2 8 7
M  V30 8 1 8 4
M  V30 9 1 9 2
M  V30 10 2 10 9
M  V30 11 1 11 10
M  V30 12 1 12 10
M  V30 13 2 13 12
M  V30 14 1 14 13
M  V30 15 1 15 14
M  V30 16 1 16 14
M  V30 17 1 17 14
M  V30 18 1 18 13
M  V30 19 2 19 18
M  V30 20 1 20 19
M  V30 21 1 21 19
M  V30 22 2 22 21
M  V30 23 1 22 12
M  V30 24 1 23 22
M  V30 25 1 23 9
M  V30 26 1 24 3
M  V30 27 1 25 7
M  V30 28 1 26 8
M  V30 29 1 27 11
M  V30 30 1 28 11
M  V30 31 1 29 18
M  V30 32 1 30 20
M  V30 33 1 31 20
M  V30 34 1 32 20
M  V30 END BOND
M  V30 END CTAB
M  END
>  <i_epik_Tot_Q>  (7) 
0

>  <i_epik_Tot_abs_Q>  (7) 
0

>  <i_f3d_flags>  (7) 
0

>  <i_lp_mmshare_version>  (7) 
71160

>  <i_lp_orig_ion_str>  (7) 
1

>  <i_m_source_file_index>  (7) 
123

>  <b_lp_Chiralities_Consistent>  (7) 
1

>  <r_epik_Charging_Adjusted_Penalty>  (7) 
0

>  <r_epik_Ionization_Penalty>  (7) 
0.0042060168929664039

>  <r_epik_Ionization_Penalty_Charging>  (7) 
0

>  <r_epik_Ionization_Penalty_Neutral>  (7) 
0.0042060168929664039

>  <r_epik_State_Penalty>  (7) 
-0

>  <r_lp_Energy>  (7) 
25.665945999999998

>  <r_lp_tautomer_probability>  (7) 
1

>  <s_epik_cmdline>  (7) 
J2VwaWtfcHl0aG9uJywgJy1waHQnLCAnMC4yJywgJy1waCcsICc3LjQnLCAnLXJldGFpbl9pX2xhYicsICctcmV0YWluX3RfbGFiJywgJy10bicsICcxJywgJy1tYScsICc1MDAnLCAnLWltYWUnLCAnPGluZmlsZS5tYWU+JywgJy1vbWFlJywgJzxvdXRmaWxlLm1hZT4n

>  <s_epik_input>  (7) 
W2NIXTFbY0hdb25jMVtOSF1DKD1PKWMoYzJbTkgyXSlzYyhjMjMpbmMoW0NIM10pW2NIXWMzQyhGKShGKUY=

>  <s_lp_Force_Field>  (7) 
S-OPLS

>  <s_lp_Variant>  (7) 
4bi_Grossjean_2025-1

>  <s_lp_label>  (7) 
123

>  <s_m_source_file>  (7) 
montpellier_ligands.smi

$$$$
4bj_Grossjean_2025
     RDKit          3D

  0  0  0  0  0  0  0  0  0  0999 V3000
M  V30 BEGIN CTAB
M  V30 COUNTS 32 34 0 0 1
M  V30 BEGIN ATOM
M  V30 1 O -0.674602 1.026478 0.177700 0
M  V30 2 C -0.025419 -0.017730 0.085029 0
M  V30 3 N -0.586427 -1.249028 -0.004085 0
M  V30 4 C -1.941195 -1.550261 -0.003726 0
M  V30 5 N -2.953747 -0.717549 0.104742 0
M  V30 6 C -4.109249 -1.351140 0.060134 0
M  V30 7 C -4.048024 -2.733319 -0.087901 0
M  V30 8 S -2.381122 -3.219671 -0.169427 0
M  V30 9 C 1.438933 0.011203 0.048267 0
M  V30 10 C 2.292387 1.126174 0.048623 0
M  V30 11 N 1.837118 2.419669 0.070367 0
M  V30 12 C 3.695739 0.794256 0.018493 0
M  V30 13 C 4.881107 1.588069 -0.001717 0
M  V30 14 C 4.892838 3.120612 0.001303 0
M  V30 15 F 6.125092 3.633277 -0.028226 0
M  V30 16 F 4.243899 3.579383 -1.068735 0
M  V30 17 F 4.297731 3.573472 1.104608 0
M  V30 18 C 6.108841 0.908166 -0.025620 0
M  V30 19 C 6.143980 -0.483711 -0.027253 0
M  V30 20 C 7.464195 -1.232708 -0.046336 0
M  V30 21 N 5.039017 -1.264611 -0.010480 0
M  V30 22 C 3.870990 -0.624148 0.010373 0
M  V30 23 S 2.355199 -1.494075 0.032039 0
M  V30 24 H 0.038220 -2.037740 -0.085725 0
M  V30 25 H -5.021587 -0.778644 0.138138 0
M  V30 26 H -4.854455 -3.449082 -0.149769 0
M  V30 27 H 2.467200 3.209288 0.065746 0
M  V30 28 H 0.848211 2.627619 0.096170 0
M  V30 29 H 7.041666 1.453074 -0.041294 0
M  V30 30 H 8.316367 -0.551790 -0.055829 0
M  V30 31 H 7.531424 -1.865494 -0.932107 0
M  V30 32 H 7.554544 -1.869286 0.834717 0
M  V30 END ATOM
M  V30 BEGIN BOND
M  V30 1 2 2 1
M  V30 2 1 3 2
M  V30 3 1 4 3
M  V30 4 2 5 4
M  V30 5 1 6 5
M  V30 6 2 7 6
M  V30 7 1 8 7
M  V30 8 1 8 4
M  V30 9 1 9 2
M  V30 10 2 10 9
M  V30 11 1 11 10
M  V30 12 1 12 10
M  V30 13 2 13 12
M  V30 14 1 14 13
M  V30 15 1 15 14
M  V30 16 1 16 14
M  V30 17 1 17 14
M  V30 18 1 18 13
M  V30 19 2 19 18
M  V30 20 1 20 19
M  V30 21 1 21 19
M  V30 22 2 22 21
M  V30 23 1 22 12
M  V30 24 1 23 22
M  V30 25 1 23 9
M  V30 26 1 24 3
M  V30 27 1 25 6
M  V30 28 1 26 7
M  V30 29 1 27 11
M  V30 30 1 28 11
M  V30 31 1 29 18
M  V30 32 1 30 20
M  V30 33 1 31 20
M  V30 34 1 32 20
M  V30 END BOND
M  V30 END CTAB
M  END
>  <i_epik_Tot_Q>  (8) 
0

>  <i_epik_Tot_abs_Q>  (8) 
0

>  <i_f3d_flags>  (8) 
0

>  <i_lp_mmshare_version>  (8) 
71160

>  <i_lp_orig_ion_str>  (8) 
1

>  <i_m_source_file_index>  (8) 
124

>  <b_lp_Chiralities_Consistent>  (8) 
1

>  <r_epik_Charging_Adjusted_Penalty>  (8) 
0.021502288497266014

>  <r_epik_Ionization_Penalty>  (8) 
0.023964449940716365

>  <r_epik_Ionization_Penalty_Charging>  (8) 
0

>  <r_epik_Ionization_Penalty_Neutral>  (8) 
0.023964449940716365

>  <r_epik_State_Penalty>  (8) 
0.021502288497266014

>  <r_lp_Energy>  (8) 
29.785301999999998

>  <r_lp_tautomer_probability>  (8) 
0.99900048839916311

>  <s_epik_cmdline>  (8) 
J2VwaWtfcHl0aG9uJywgJy1waHQnLCAnMC4yJywgJy1waCcsICc3LjQnLCAnLXJldGFpbl9pX2xhYicsICctcmV0YWluX3RfbGFiJywgJy10bicsICcxJywgJy1tYScsICc1MDAnLCAnLWltYWUnLCAnPGluZmlsZS5tYWU+JywgJy1vbWFlJywgJzxvdXRmaWxlLm1hZT4n

>  <s_epik_input>  (8) 
czFbY0hdW2NIXW5jMVtOSF1DKD1PKWMoYzJbTkgyXSlzYyhjMjMpbmMoW0NIM10pW2NIXWMzQyhGKShGKUY=

>  <s_lp_Force_Field>  (8) 
S-OPLS

>  <s_lp_Variant>  (8) 
4bj_Grossjean_2025-1

>  <s_lp_label>  (8) 
124

>  <s_m_source_file>  (8) 
montpellier_ligands.smi

$$$$
4bk_Grossjean_2025
     RDKit          3D

  0  0  0  0  0  0  0  0  0  0999 V3000
M  V30 BEGIN CTAB
M  V30 COUNTS 50 51 0 0 1
M  V30 BEGIN ATOM
M  V30 1 O -1.483090 2.809954 -1.776443 0
M  V30 2 C -0.313798 3.192752 -1.703942 0
M  V30 3 C 0.359008 3.813661 -2.845503 0
M  V30 4 C -0.167482 4.119989 -4.110042 0
M  V30 5 C 0.785222 4.713168 -5.016070 0
M  V30 6 C 0.687307 5.174283 -6.362744 0
M  V30 7 C 1.849152 5.703297 -6.946268 0
M  V30 8 C 3.035975 5.767632 -6.220843 0
M  V30 9 N 3.161174 5.340650 -4.942834 0
M  V30 10 C 2.061706 4.836361 -4.384380 0
M  V30 11 S 2.064635 4.240995 -2.740740 0
M  V30 12 C 4.300593 6.336748 -6.838412 0
M  V30 13 C -0.596205 5.126775 -7.199074 0
M  V30 14 F -0.437269 5.622582 -8.428262 0
M  V30 15 F -1.004997 3.864724 -7.326965 0
M  V30 16 F -1.550188 5.840445 -6.601518 0
M  V30 17 N -1.472418 3.880686 -4.457354 0
M  V30 18 N 0.416591 3.076132 -0.575520 0
M  V30 19 C -0.049398 2.476424 0.675168 0
M  V30 20 C -0.075561 0.937577 0.649537 0
M  V30 21 O 1.238741 0.447452 0.417757 0
M  V30 22 C 1.320080 -0.970122 0.354342 0
M  V30 23 C 2.775506 -1.383614 0.102050 0
M  V30 24 O 3.590573 -0.917664 1.169389 0
M  V30 25 C 4.969704 -1.224131 1.013611 0
M  V30 26 C 5.748967 -0.693390 2.223894 0
M  V30 27 O 5.275839 -1.324029 3.406728 0
M  V30 28 C 5.924063 -0.872395 4.585667 0
M  V30 29 H 1.839557 6.066933 -7.963594 0
M  V30 30 H 4.129328 6.697180 -7.853373 0
M  V30 31 H 5.079290 5.574009 -6.881096 0
M  V30 32 H 4.673363 7.173005 -6.245575 0
M  V30 33 H -1.833284 4.110965 -5.372536 0
M  V30 34 H -2.119891 3.459468 -3.805544 0
M  V30 35 H 1.369478 3.409899 -0.582063 0
M  V30 36 H 0.634367 2.806097 1.458228 0
M  V30 37 H -1.031270 2.869584 0.945219 0
M  V30 38 H -0.456261 0.561230 1.600672 0
M  V30 39 H -0.749564 0.588356 -0.135115 0
M  V30 40 H 0.967482 -1.411942 1.288252 0
M  V30 41 H 0.687091 -1.348744 -0.450118 0
M  V30 42 H 2.840515 -2.470376 0.024940 0
M  V30 43 H 3.116632 -0.964054 -0.846410 0
M  V30 44 H 5.110670 -2.303446 0.930107 0
M  V30 45 H 5.356341 -0.768827 0.100027 0
M  V30 46 H 6.813947 -0.892291 2.090942 0
M  V30 47 H 5.621961 0.388646 2.295109 0
M  V30 48 H 5.521423 -1.403229 5.448311 0
M  V30 49 H 5.761581 0.194777 4.744581 0
M  V30 50 H 6.997951 -1.062021 4.548766 0
M  V30 END ATOM
M  V30 BEGIN BOND
M  V30 1 2 2 1
M  V30 2 1 3 2
M  V30 3 2 4 3
M  V30 4 1 5 4
M  V30 5 2 6 5
M  V30 6 1 7 6
M  V30 7 2 8 7
M  V30 8 1 9 8
M  V30 9 2 10 9
M  V30 10 1 10 5
M  V30 11 1 11 10
M  V30 12 1 11 3
M  V30 13 1 12 8
M  V30 14 1 13 6
M  V30 15 1 14 13
M  V30 16 1 15 13
M  V30 17 1 16 13
M  V30 18 1 17 4
M  V30 19 1 18 2
M  V30 20 1 19 18
M  V30 21 1 20 19
M  V30 22 1 21 20
M  V30 23 1 22 21
M  V30 24 1 23 22
M  V30 25 1 24 23
M  V30 26 1 25 24
M  V30 27 1 26 25
M  V30 28 1 27 26
M  V30 29 1 28 27
M  V30 30 1 29 7
M  V30 31 1 30 12
M  V30 32 1 31 12
M  V30 33 1 32 12
M  V30 34 1 33 17
M  V30 35 1 34 17
M  V30 36 1 35 18
M  V30 37 1 36 19
M  V30 38 1 37 19
M  V30 39 1 38 20
M  V30 40 1 39 20
M  V30 41 1 40 22
M  V30 42 1 41 22
M  V30 43 1 42 23
M  V30 44 1 43 23
M  V30 45 1 44 25
M  V30 46 1 45 25
M  V30 47 1 46 26
M  V30 48 1 47 26
M  V30 49 1 48 28
M  V30 50 1 49 28
M  V30 51 1 50 28
M  V30 END BOND
M  V30 END CTAB
M  END
>  <i_epik_Tot_Q>  (9) 
0

>  <i_epik_Tot_abs_Q>  (9) 
0

>  <i_f3d_flags>  (9) 
0

>  <i_lp_mmshare_version>  (9) 
71160

>  <i_lp_orig_ion_str>  (9) 
1

>  <i_m_source_file_index>  (9) 
125

>  <b_lp_Chiralities_Consistent>  (9) 
1

>  <r_epik_Charging_Adjusted_Penalty>  (9) 
0

>  <r_epik_Ionization_Penalty>  (9) 
0.00016263180729586356

>  <r_epik_Ionization_Penalty_Charging>  (9) 
0

>  <r_epik_Ionization_Penalty_Neutral>  (9) 
0.00016263180729586356

>  <r_epik_State_Penalty>  (9) 
-0

>  <r_lp_Energy>  (9) 
26.453054999999999

>  <r_lp_tautomer_probability>  (9) 
1

>  <s_epik_cmdline>  (9) 
J2VwaWtfcHl0aG9uJywgJy1waHQnLCAnMC4yJywgJy1waCcsICc3LjQnLCAnLXJldGFpbl9pX2xhYicsICctcmV0YWluX3RfbGFiJywgJy10bicsICcxJywgJy1tYScsICc1MDAnLCAnLWltYWUnLCAnPGluZmlsZS5tYWU+JywgJy1vbWFlJywgJzxvdXRmaWxlLm1hZT4n

>  <s_epik_input>  (9) 
RkMoRikoRiljMVtjSF1jKFtDSDNdKW5jKGMxMilzYyhjMltOSDJdKUMoPU8pW05IXVtDSDJdW0NIMl1PW0NIMl1bQ0gyXU9bQ0gyXVtDSDJdT1tDSDNd

>  <s_lp_Force_Field>  (9) 
S-OPLS

>  <s_lp_Variant>  (9) 
4bk_Grossjean_2025-1

>  <s_lp_label>  (9) 
125

>  <s_m_source_file>  (9) 
montpellier_ligands.smi

$$$$
4dd_Grossjean_2025
     RDKit          3D

  0  0  0  0  0  0  0  0  0  0999 V3000
M  V30 BEGIN CTAB
M  V30 COUNTS 43 46 0 0 1
M  V30 BEGIN ATOM
M  V30 1 O -0.656930 1.128374 0.004255 0
M  V30 2 C -0.020403 0.074411 -0.030668 0
M  V30 3 N -0.589558 -1.154832 -0.072771 0
M  V30 4 C -1.949428 -1.515435 -0.025681 0
M  V30 5 C -2.249053 -2.822018 -0.421078 0
M  V30 6 C -3.564077 -3.278891 -0.396066 0
M  V30 7 C -4.581358 -2.430283 0.032322 0
M  V30 8 C -4.294757 -1.130133 0.440181 0
M  V30 9 C -2.980718 -0.669875 0.416164 0
M  V30 10 C 1.444276 0.087325 -0.037588 0
M  V30 11 C 2.308133 1.193481 -0.017301 0
M  V30 12 N 1.879469 2.496832 -0.001429 0
M  V30 13 C 3.703576 0.844371 -0.011530 0
M  V30 14 C 4.886187 1.627762 0.012214 0
M  V30 15 C 4.899423 3.148850 0.033012 0
M  V30 16 C 6.114629 0.957063 0.017540 0
M  V30 17 C 6.170540 -0.441528 0.000259 0
M  V30 18 C 7.473442 -1.187412 -0.000401 0
M  V30 19 C 8.631642 -0.610546 0.545201 0
M  V30 20 C 9.842713 -1.297639 0.550506 0
M  V30 21 C 9.913135 -2.576198 0.007791 0
M  V30 22 C 8.780847 -3.171926 -0.537287 0
M  V30 23 C 7.571437 -2.482248 -0.538529 0
M  V30 24 N 5.044946 -1.205782 -0.036257 0
M  V30 25 C 3.874790 -0.568733 -0.035349 0
M  V30 26 S 2.351153 -1.426801 -0.061036 0
M  V30 27 H 0.044401 -1.934916 -0.163883 0
M  V30 28 H -1.466446 -3.489435 -0.753324 0
M  V30 29 H -3.793499 -4.287843 -0.705340 0
M  V30 30 H -5.601290 -2.785155 0.053882 0
M  V30 31 H -5.088856 -0.481693 0.780040 0
M  V30 32 H -2.792270 0.334663 0.760028 0
M  V30 33 H 2.527091 3.271655 0.013038 0
M  V30 34 H 0.894911 2.725461 -0.007264 0
M  V30 35 H 5.909567 3.560026 0.055199 0
M  V30 36 H 4.367704 3.516999 0.910772 0
M  V30 37 H 4.396109 3.541432 -0.850874 0
M  V30 38 H 7.026792 1.535237 0.024262 0
M  V30 39 H 8.605712 0.374071 0.987059 0
M  V30 40 H 10.723407 -0.841335 0.978014 0
M  V30 41 H 10.851811 -3.110415 0.011664 0
M  V30 42 H 8.839037 -4.165115 -0.957675 0
M  V30 43 H 6.707939 -2.965178 -0.972177 0
M  V30 END ATOM
M  V30 BEGIN BOND
M  V30 1 2 2 1
M  V30 2 1 3 2
M  V30 3 1 4 3
M  V30 4 2 5 4
M  V30 5 1 6 5
M  V30 6 2 7 6
M  V30 7 1 8 7
M  V30 8 2 9 8
M  V30 9 1 9 4
M  V30 10 1 10 2
M  V30 11 2 11 10
M  V30 12 1 12 11
M  V30 13 1 13 11
M  V30 14 2 14 13
M  V30 15 1 15 14
M  V30 16 1 16 14
M  V30 17 2 17 16
M  V30 18 1 18 17
M  V30 19 2 19 18
M  V30 20 1 20 19
M  V30 21 2 21 20
M  V30 22 1 22 21
M  V30 23 2 23 22
M  V30 24 1 23 18
M  V30 25 1 24 17
M  V30 26 2 25 24
M  V30 27 1 25 13
M  V30 28 1 26 25
M  V30 29 1 26 10
M  V30 30 1 27 3
M  V30 31 1 28 5
M  V30 32 1 29 6
M  V30 33 1 30 7
M  V30 34 1 31 8
M  V30 35 1 32 9
M  V30 36 1 33 12
M  V30 37 1 34 12
M  V30 38 1 35 15
M  V30 39 1 36 15
M  V30 40 1 37 15
M  V30 41 1 38 16
M  V30 42 1 39 19
M  V30 43 1 40 20
M  V30 44 1 41 21
M  V30 45 1 42 22
M  V30 46 1 43 23
M  V30 END BOND
M  V30 END CTAB
M  END
>  <i_epik_Tot_Q>  (10) 
0

>  <i_epik_Tot_abs_Q>  (10) 
0

>  <i_f3d_flags>  (10) 
0

>  <i_lp_mmshare_version>  (10) 
71160

>  <i_lp_orig_ion_str>  (10) 
1

>  <i_m_source_file_index>  (10) 
126

>  <b_lp_Chiralities_Consistent>  (10) 
1

>  <r_epik_Charging_Adjusted_Penalty>  (10) 
0

>  <r_epik_Ionization_Penalty>  (10) 
0.00016556658788506007

>  <r_epik_Ionization_Penalty_Charging>  (10) 
0

>  <r_epik_Ionization_Penalty_Neutral>  (10) 
0.00016556658788506007

>  <r_epik_State_Penalty>  (10) 
-0

>  <r_lp_Energy>  (10) 
46.906435999999999

>  <r_lp_tautomer_probability>  (10) 
1

>  <s_epik_cmdline>  (10) 
J2VwaWtfcHl0aG9uJywgJy1waHQnLCAnMC4yJywgJy1waCcsICc3LjQnLCAnLXJldGFpbl9pX2xhYicsICctcmV0YWluX3RfbGFiJywgJy10bicsICcxJywgJy1tYScsICc1MDAnLCAnLWltYWUnLCAnPGluZmlsZS5tYWU+JywgJy1vbWFlJywgJzxvdXRmaWxlLm1hZT4n

>  <s_epik_input>  (10) 
W2NIXTFbY0hdW2NIXVtjSF1bY0hdYzFbTkhdQyg9TyljKGMyW05IMl0pc2MoYzIzKW5jKFtjSF1jM1tDSDNdKS1jNFtjSF1bY0hdW2NIXVtjSF1bY0hdNA==

>  <s_lp_Force_Field>  (10) 
S-OPLS

>  <s_lp_Variant>  (10) 
4dd_Grossjean_2025-1

>  <s_lp_label>  (10) 
126

>  <s_m_source_file>  (10) 
montpellier_ligands.smi

$$$$
4dg_Grossjean_2025
     RDKit          3D

  0  0  0  0  0  0  0  0  0  0999 V3000
M  V30 BEGIN CTAB
M  V30 COUNTS 46 49 0 0 1
M  V30 BEGIN ATOM
M  V30 1 O -0.618416 0.910580 -0.352653 0
M  V30 2 C 0.056231 -0.101976 -0.155988 0
M  V30 3 N -0.496446 -1.316807 0.043808 0
M  V30 4 C -1.927347 -1.614528 -0.004349 0
M  V30 5 C -2.480791 -1.698145 -1.421763 0
M  V30 6 C -2.340864 -2.880714 -2.154009 0
M  V30 7 C -2.873241 -2.971147 -3.437342 0
M  V30 8 C -3.553116 -1.882822 -3.980345 0
M  V30 9 C -3.710776 -0.706993 -3.249589 0
M  V30 10 C -3.179526 -0.616684 -1.965703 0
M  V30 11 C 1.514831 -0.043707 -0.084447 0
M  V30 12 C 2.345352 1.086574 -0.099204 0
M  V30 13 N 1.877782 2.375795 -0.143100 0
M  V30 14 C 3.749253 0.776896 -0.055091 0
M  V30 15 C 4.910031 1.592076 -0.035192 0
M  V30 16 C 4.882428 3.113146 -0.044863 0
M  V30 17 C 6.155848 0.955150 0.001157 0
M  V30 18 C 6.250472 -0.441758 0.011834 0
M  V30 19 C 7.572633 -1.154283 0.051994 0
M  V30 20 C 8.743832 -0.525311 -0.401300 0
M  V30 21 C 9.971509 -1.181612 -0.369734 0
M  V30 22 C 10.046582 -2.482308 0.116602 0
M  V30 23 C 8.902286 -3.130559 0.568634 0
M  V30 24 C 7.676770 -2.470822 0.534537 0
M  V30 25 N 5.144695 -1.235530 0.006557 0
M  V30 26 C 3.958352 -0.631059 -0.027778 0
M  V30 27 S 2.459795 -1.532250 -0.044961 0
M  V30 28 H 0.119836 -2.112516 0.120599 0
M  V30 29 H -2.086245 -2.573622 0.490367 0
M  V30 30 H -2.491879 -0.883986 0.579450 0
M  V30 31 H -1.816448 -3.726115 -1.732627 0
M  V30 32 H -2.760951 -3.880925 -4.008329 0
M  V30 33 H -3.964460 -1.952401 -4.976578 0
M  V30 34 H -4.243356 0.130175 -3.676184 0
M  V30 35 H -3.303840 0.294849 -1.399104 0
M  V30 36 H 2.501285 3.170047 -0.147867 0
M  V30 37 H 0.887135 2.573463 -0.179265 0
M  V30 38 H 5.880108 3.551160 0.007930 0
M  V30 39 H 4.309813 3.484380 0.805591 0
M  V30 40 H 4.402568 3.475255 -0.954313 0
M  V30 41 H 7.049401 1.560452 0.032061 0
M  V30 42 H 8.718176 0.477671 -0.799111 0
M  V30 43 H 10.861461 -0.683529 -0.725174 0
M  V30 44 H 10.998208 -2.992828 0.141234 0
M  V30 45 H 8.963174 -4.141269 0.944819 0
M  V30 46 H 6.804995 -2.996546 0.895726 0
M  V30 END ATOM
M  V30 BEGIN BOND
M  V30 1 2 2 1
M  V30 2 1 3 2
M  V30 3 1 4 3
M  V30 4 1 5 4
M  V30 5 2 6 5
M  V30 6 1 7 6
M  V30 7 2 8 7
M  V30 8 1 9 8
M  V30 9 2 10 9
M  V30 10 1 10 5
M  V30 11 1 11 2
M  V30 12 2 12 11
M  V30 13 1 13 12
M  V30 14 1 14 12
M  V30 15 2 15 14
M  V30 16 1 16 15
M  V30 17 1 17 15
M  V30 18 2 18 17
M  V30 19 1 19 18
M  V30 20 2 20 19
M  V30 21 1 21 20
M  V30 22 2 22 21
M  V30 23 1 23 22
M  V30 24 2 24 23
M  V30 25 1 24 19
M  V30 26 1 25 18
M  V30 27 2 26 25
M  V30 28 1 26 14
M  V30 29 1 27 26
M  V30 30 1 27 11
M  V30 31 1 28 3
M  V30 32 1 29 4
M  V30 33 1 30 4
M  V30 34 1 31 6
M  V30 35 1 32 7
M  V30 36 1 33 8
M  V30 37 1 34 9
M  V30 38 1 35 10
M  V30 39 1 36 13
M  V30 40 1 37 13
M  V30 41 1 38 16
M  V30 42 1 39 16
M  V30 43 1 40 16
M  V30 44 1 41 17
M  V30 45 1 42 20
M  V30 46 1 43 21
M  V30 47 1 44 22
M  V30 48 1 45 23
M  V30 49 1 46 24
M  V30 END BOND
M  V30 END CTAB
M  END
>  <i_epik_Tot_Q>  (11) 
0

>  <i_epik_Tot_abs_Q>  (11) 
0

>  <i_f3d_flags>  (11) 
0

>  <i_lp_mmshare_version>  (11) 
71160

>  <i_lp_orig_ion_str>  (11) 
1

>  <i_m_source_file_index>  (11) 
127

>  <b_lp_Chiralities_Consistent>  (11) 
1

>  <r_epik_Charging_Adjusted_Penalty>  (11) 
0

>  <r_epik_Ionization_Penalty>  (11) 
0.00025105281019584204

>  <r_epik_Ionization_Penalty_Charging>  (11) 
0

>  <r_epik_Ionization_Penalty_Neutral>  (11) 
0.00025105281019584204

>  <r_epik_State_Penalty>  (11) 
-0

>  <r_lp_Energy>  (11) 
43.115434

>  <r_lp_tautomer_probability>  (11) 
1

>  <s_epik_cmdline>  (11) 
J2VwaWtfcHl0aG9uJywgJy1waHQnLCAnMC4yJywgJy1waCcsICc3LjQnLCAnLXJldGFpbl9pX2xhYicsICctcmV0YWluX3RfbGFiJywgJy10bicsICcxJywgJy1tYScsICc1MDAnLCAnLWltYWUnLCAnPGluZmlsZS5tYWU+JywgJy1vbWFlJywgJzxvdXRmaWxlLm1hZT4n

>  <s_epik_input>  (11) 
W2NIXTFbY0hdW2NIXVtjSF1bY0hdYzFbQ0gyXVtOSF1DKD1PKWMoYzJbTkgyXSlzYyhjMjMpbmMoW2NIXWMzW0NIM10pLWM0W2NIXVtjSF1bY0hdW2NIXVtjSF00

>  <s_lp_Force_Field>  (11) 
S-OPLS

>  <s_lp_Variant>  (11) 
4dg_Grossjean_2025-1

>  <s_lp_label>  (11) 
127

>  <s_m_source_file>  (11) 
montpellier_ligands.smi

$$$$
4dj_Grossjean_2025
     RDKit          3D

  0  0  0  0  0  0  0  0  0  0999 V3000
M  V30 BEGIN CTAB
M  V30 COUNTS 39 42 0 0 1
M  V30 BEGIN ATOM
M  V30 1 O -0.675598 1.027817 -0.106203 0
M  V30 2 C -0.021450 -0.015520 -0.043690 0
M  V30 3 N -0.575723 -1.251220 0.024381 0
M  V30 4 C -1.929211 -1.558767 0.030041 0
M  V30 5 N -2.946792 -0.728778 -0.053581 0
M  V30 6 C -4.098768 -1.369514 -0.018193 0
M  V30 7 C -4.029622 -2.754708 0.095943 0
M  V30 8 S -2.359830 -3.233920 0.159817 0
M  V30 9 C 1.442338 0.018816 -0.030124 0
M  V30 10 C 2.289863 1.137270 -0.051487 0
M  V30 11 N 1.841607 2.433662 -0.080045 0
M  V30 12 C 3.690290 0.808593 -0.037501 0
M  V30 13 C 4.861838 1.608614 -0.043723 0
M  V30 14 C 4.853751 3.129630 -0.062849 0
M  V30 15 C 6.099749 0.955714 -0.027173 0
M  V30 16 C 6.176323 -0.442146 -0.011029 0
M  V30 17 C 7.490140 -1.170307 0.012737 0
M  V30 18 C 8.658905 -0.562502 -0.474590 0
M  V30 19 C 9.879514 -1.232325 -0.456104 0
M  V30 20 C 9.949293 -2.525860 0.049804 0
M  V30 21 C 8.807171 -3.153026 0.535843 0
M  V30 22 C 7.588734 -2.479534 0.515775 0
M  V30 23 N 5.060648 -1.221745 0.005567 0
M  V30 24 C 3.881626 -0.601758 -0.010670 0
M  V30 25 S 2.370395 -1.481967 0.000371 0
M  V30 26 H 0.053272 -2.038539 0.081291 0
M  V30 27 H -5.014845 -0.800438 -0.078796 0
M  V30 28 H -4.832065 -3.476166 0.142628 0
M  V30 29 H 2.477365 3.218152 -0.092589 0
M  V30 30 H 0.853642 2.647342 -0.089408 0
M  V30 31 H 5.858183 3.554850 -0.047854 0
M  V30 32 H 4.315295 3.513237 0.804127 0
M  V30 33 H 4.347285 3.491974 -0.957928 0
M  V30 34 H 7.001997 1.548885 -0.014909 0
M  V30 35 H 8.636147 0.434168 -0.888557 0
M  V30 36 H 10.768235 -0.750558 -0.836516 0
M  V30 37 H 10.895444 -3.046808 0.063588 0
M  V30 38 H 8.865190 -4.157725 0.928024 0
M  V30 39 H 6.718422 -2.987642 0.905150 0
M  V30 END ATOM
M  V30 BEGIN BOND
M  V30 1 2 2 1
M  V30 2 1 3 2
M  V30 3 1 4 3
M  V30 4 2 5 4
M  V30 5 1 6 5
M  V30 6 2 7 6
M  V30 7 1 8 7
M  V30 8 1 8 4
M  V30 9 1 9 2
M  V30 10 2 10 9
M  V30 11 1 11 10
M  V30 12 1 12 10
M  V30 13 2 13 12
M  V30 14 1 14 13
M  V30 15 1 15 13
M  V30 16 2 16 15
M  V30 17 1 17 16
M  V30 18 2 18 17
M  V30 19 1 19 18
M  V30 20 2 20 19
M  V30 21 1 21 20
M  V30 22 2 22 21
M  V30 23 1 22 17
M  V30 24 1 23 16
M  V30 25 2 24 23
M  V30 26 1 24 12
M  V30 27 1 25 24
M  V30 28 1 25 9
M  V30 29 1 26 3
M  V30 30 1 27 6
M  V30 31 1 28 7
M  V30 32 1 29 11
M  V30 33 1 30 11
M  V30 34 1 31 14
M  V30 35 1 32 14
M  V30 36 1 33 14
M  V30 37 1 34 15
M  V30 38 1 35 18
M  V30 39 1 36 19
M  V30 40 1 37 20
M  V30 41 1 38 21
M  V30 42 1 39 22
M  V30 END BOND
M  V30 END CTAB
M  END
>  <i_epik_Tot_Q>  (12) 
0

>  <i_epik_Tot_abs_Q>  (12) 
0

>  <i_f3d_flags>  (12) 
0

>  <i_lp_mmshare_version>  (12) 
71160

>  <i_lp_orig_ion_str>  (12) 
1

>  <i_m_source_file_index>  (12) 
128

>  <b_lp_Chiralities_Consistent>  (12) 
1

>  <r_epik_Charging_Adjusted_Penalty>  (12) 
0

>  <r_epik_Ionization_Penalty>  (12) 
0.0067406424517118309

>  <r_epik_Ionization_Penalty_Charging>  (12) 
0

>  <r_epik_Ionization_Penalty_Neutral>  (12) 
0.0067406424517118309

>  <r_epik_State_Penalty>  (12) 
-0

>  <r_lp_Energy>  (12) 
43.097529999999999

>  <r_lp_tautomer_probability>  (12) 
1

>  <s_epik_cmdline>  (12) 
J2VwaWtfcHl0aG9uJywgJy1waHQnLCAnMC4yJywgJy1waCcsICc3LjQnLCAnLXJldGFpbl9pX2xhYicsICctcmV0YWluX3RfbGFiJywgJy10bicsICcxJywgJy1tYScsICc1MDAnLCAnLWltYWUnLCAnPGluZmlsZS5tYWU+JywgJy1vbWFlJywgJzxvdXRmaWxlLm1hZT4n

>  <s_epik_input>  (12) 
czFbY0hdW2NIXW5jMVtOSF1DKD1PKWMoYzJbTkgyXSlzYyhjMjMpbmMoW2NIXWMzW0NIM10pLWM0W2NIXVtjSF1bY0hdW2NIXVtjSF00

>  <s_lp_Force_Field>  (12) 
S-OPLS

>  <s_lp_Variant>  (12) 
4dj_Grossjean_2025-1

>  <s_lp_label>  (12) 
128

>  <s_m_source_file>  (12) 
montpellier_ligands.smi

$$$$
4ea_Grossjean_2025
     RDKit          3D

  0  0  0  0  0  0  0  0  0  0999 V3000
M  V30 BEGIN CTAB
M  V30 COUNTS 52 55 0 0 1
M  V30 BEGIN ATOM
M  V30 1 O -0.645765 1.262953 0.000018 0
M  V30 2 C -0.044070 0.188736 0.000002 0
M  V30 3 N -0.647935 -1.024876 0.000007 0
M  V30 4 C -2.015133 -1.363913 0.000017 0
M  V30 5 C -2.295452 -2.730891 0.000019 0
M  V30 6 C -3.611969 -3.181975 0.000013 0
M  V30 7 C -4.677047 -2.272327 0.000007 0
M  V30 8 C -6.085468 -2.793040 -0.000008 0
M  V30 9 O -7.020820 -1.808716 -0.000002 0
M  V30 10 C -8.409312 -2.115430 -0.000008 0
M  V30 11 C -9.217469 -0.814361 -0.000010 0
M  V30 12 O -6.363949 -3.995935 -0.000024 0
M  V30 13 C -4.392371 -0.898201 0.000013 0
M  V30 14 C -3.075511 -0.445173 0.000018 0
M  V30 15 C 1.420865 0.157081 -0.000019 0
M  V30 16 C 2.318331 1.236747 -0.000036 0
M  V30 17 N 1.928557 2.552473 -0.000060 0
M  V30 18 C 3.703925 0.845834 -0.000021 0
M  V30 19 C 4.914906 1.591533 -0.000005 0
M  V30 20 C 4.941715 3.072460 0.000004 0
M  V30 21 C 4.957674 3.774860 -1.208759 0
M  V30 22 C 4.980903 5.167120 -1.209808 0
M  V30 23 C 4.991810 5.857246 -0.000014 0
M  V30 24 C 4.980899 5.167114 1.209852 0
M  V30 25 C 4.957663 3.774847 1.208744 0
M  V30 26 C 6.121861 0.884966 0.000017 0
M  V30 27 C 6.111528 -0.508144 0.000006 0
M  V30 28 C 7.406738 -1.299084 0.000002 0
M  V30 29 N 4.979633 -1.253546 -0.000011 0
M  V30 30 C 3.830827 -0.575790 -0.000018 0
M  V30 31 S 2.280512 -1.384703 -0.000025 0
M  V30 32 H -0.028956 -1.821985 -0.000003 0
M  V30 33 H -1.494055 -3.456350 0.000022 0
M  V30 34 H -3.790178 -4.248178 0.000011 0
M  V30 35 H -8.660309 -2.709238 -0.880547 0
M  V30 36 H -8.660315 -2.709238 0.880527 0
M  V30 37 H -10.287406 -1.023940 -0.000009 0
M  V30 38 H -8.996275 -0.212628 -0.881972 0
M  V30 39 H -8.996273 -0.212623 0.881947 0
M  V30 40 H -5.181839 -0.160253 0.000010 0
M  V30 41 H -2.918912 0.620888 0.000020 0
M  V30 42 H 2.600855 3.306790 -0.000075 0
M  V30 43 H 0.951879 2.812210 -0.000077 0
M  V30 44 H 4.948286 3.241697 -2.148551 0
M  V30 45 H 4.989810 5.709140 -2.144016 0
M  V30 46 H 5.010058 6.937282 0.000013 0
M  V30 47 H 4.989796 5.709118 2.144019 0
M  V30 48 H 4.948275 3.241681 2.148547 0
M  V30 49 H 7.061072 1.420081 0.000039 0
M  V30 50 H 8.280058 -0.645822 -0.000006 0
M  V30 51 H 7.464466 -1.935839 -0.883720 0
M  V30 52 H 7.464480 -1.935837 0.883726 0
M  V30 END ATOM
M  V30 BEGIN BOND
M  V30 1 2 2 1
M  V30 2 1 3 2
M  V30 3 1 4 3
M  V30 4 2 5 4
M  V30 5 1 6 5
M  V30 6 2 7 6
M  V30 7 1 8 7
M  V30 8 1 9 8
M  V30 9 1 10 9
M  V30 10 1 11 10
M  V30 11 2 12 8
M  V30 12 1 13 7
M  V30 13 2 14 13
M  V30 14 1 14 4
M  V30 15 1 15 2
M  V30 16 2 16 15
M  V30 17 1 17 16
M  V30 18 1 18 16
M  V30 19 2 19 18
M  V30 20 1 20 19
M  V30 21 2 21 20
M  V30 22 1 22 21
M  V30 23 2 23 22
M  V30 24 1 24 23
M  V30 25 2 25 24
M  V30 26 1 25 20
M  V30 27 1 26 19
M  V30 28 2 27 26
M  V30 29 1 28 27
M  V30 30 1 29 27
M  V30 31 2 30 29
M  V30 32 1 30 18
M  V30 33 1 31 30
M  V30 34 1 31 15
M  V30 35 1 32 3
M  V30 36 1 33 5
M  V30 37 1 34 6
M  V30 38 1 35 10
M  V30 39 1 36 10
M  V30 40 1 37 11
M  V30 41 1 38 11
M  V30 42 1 39 11
M  V30 43 1 40 13
M  V30 44 1 41 14
M  V30 45 1 42 17
M  V30 46 1 43 17
M  V30 47 1 44 21
M  V30 48 1 45 22
M  V30 49 1 46 23
M  V30 50 1 47 24
M  V30 51 1 48 25
M  V30 52 1 49 26
M  V30 53 1 50 28
M  V30 54 1 51 28
M  V30 55 1 52 28
M  V30 END BOND
M  V30 END CTAB
M  END
>  <i_epik_Tot_Q>  (13) 
0

>  <i_epik_Tot_abs_Q>  (13) 
0

>  <i_f3d_flags>  (13) 
0

>  <i_lp_mmshare_version>  (13) 
71160

>  <i_lp_orig_ion_str>  (13) 
1

>  <i_m_source_file_index>  (13) 
129

>  <b_lp_Chiralities_Consistent>  (13) 
1

>  <r_epik_Charging_Adjusted_Penalty>  (13) 
0

>  <r_epik_Ionization_Penalty>  (13) 
0.00017683077732857209

>  <r_epik_Ionization_Penalty_Charging>  (13) 
0

>  <r_epik_Ionization_Penalty_Neutral>  (13) 
0.00017683077732857209

>  <r_epik_State_Penalty>  (13) 
-0

>  <r_lp_Energy>  (13) 
49.062369999999994

>  <r_lp_tautomer_probability>  (13) 
1

>  <s_epik_Chemistry_Notes>  (13) 
This compound has an ester and may undergo hydrolysis at high or low pH.

>  <s_epik_cmdline>  (13) 
J2VwaWtfcHl0aG9uJywgJy1waHQnLCAnMC4yJywgJy1waCcsICc3LjQnLCAnLXJldGFpbl9pX2xhYicsICctcmV0YWluX3RfbGFiJywgJy10bicsICcxJywgJy1tYScsICc1MDAnLCAnLWltYWUnLCAnPGluZmlsZS5tYWU+JywgJy1vbWFlJywgJzxvdXRmaWxlLm1hZT4n

>  <s_epik_input>  (13) 
W0NIM11bQ0gyXU9DKD1PKWMoW2NIXVtjSF0xKVtjSF1bY0hdYzFbTkhdQyg9TyljKGMyW05IMl0pc2MoYzIzKW5jKFtDSDNdKVtjSF1jMy1jNFtjSF1bY0hdW2NIXVtjSF1bY0hdNA==

>  <s_lp_Force_Field>  (13) 
S-OPLS

>  <s_lp_Variant>  (13) 
4ea_Grossjean_2025-1

>  <s_lp_label>  (13) 
129

>  <s_m_source_file>  (13) 
montpellier_ligands.smi

$$$$
4eb_Grossjean_2025
     RDKit          3D

  0  0  0  0  0  0  0  0  0  0999 V3000
M  V30 BEGIN CTAB
M  V30 COUNTS 49 52 0 0 1
M  V30 BEGIN ATOM
M  V30 1 O -0.661614 1.241182 -0.000025 0
M  V30 2 C -0.055979 0.169318 -0.000016 0
M  V30 3 N -0.655035 -1.046735 -0.000005 0
M  V30 4 C -2.020932 -1.390941 -0.000000 0
M  V30 5 C -2.297143 -2.758905 0.000000 0
M  V30 6 C -3.612386 -3.213706 0.000003 0
M  V30 7 C -4.680309 -2.307268 0.000006 0
M  V30 8 C -6.087394 -2.831562 0.000005 0
M  V30 9 O -7.025881 -1.850373 0.000004 0
M  V30 10 C -8.411484 -2.164106 -0.000021 0
M  V30 11 O -6.361783 -4.035482 0.000006 0
M  V30 12 C -4.399415 -0.932387 0.000005 0
M  V30 13 C -3.084108 -0.475496 0.000002 0
M  V30 14 C 1.408873 0.143723 -0.000014 0
M  V30 15 C 2.301525 1.227200 -0.000025 0
M  V30 16 N 1.906206 2.541126 -0.000031 0
M  V30 17 C 3.688751 0.842656 -0.000002 0
M  V30 18 C 4.896498 1.593713 -0.000009 0
M  V30 19 C 4.916718 3.074801 0.000052 0
M  V30 20 C 4.929436 3.777278 -1.208814 0
M  V30 21 C 4.947443 5.169547 -1.209908 0
M  V30 22 C 4.955576 5.859639 -0.000078 0
M  V30 23 C 4.947437 5.169492 1.209895 0
M  V30 24 C 4.929426 3.777153 1.208883 0
M  V30 25 C 6.106523 0.892328 0.000007 0
M  V30 26 C 6.102272 -0.500869 -0.000001 0
M  V30 27 C 7.400512 -1.286888 0.000045 0
M  V30 28 N 4.973599 -1.251042 0.000004 0
M  V30 29 C 3.821778 -0.578390 -0.000001 0
M  V30 30 S 2.274897 -1.394091 0.000003 0
M  V30 31 H -0.032681 -1.841373 0.000000 0
M  V30 32 H -1.493813 -3.482252 -0.000001 0
M  V30 33 H -3.787357 -4.280507 0.000003 0
M  V30 34 H -8.998111 -1.245627 -0.000004 0
M  V30 35 H -8.682682 -2.740353 0.885683 0
M  V30 36 H -8.682666 -2.740338 -0.885688 0
M  V30 37 H -5.191124 -0.196851 0.000007 0
M  V30 38 H -2.930674 0.590913 0.000002 0
M  V30 39 H 2.576374 3.297393 -0.000021 0
M  V30 40 H 0.928374 2.796918 -0.000025 0
M  V30 41 H 4.921420 3.244031 -2.148876 0
M  V30 42 H 4.955165 5.711491 -2.144096 0
M  V30 43 H 4.969202 6.939589 0.000003 0
M  V30 44 H 4.955152 5.711536 2.144158 0
M  V30 45 H 4.921411 3.244094 2.148791 0
M  V30 46 H 7.043443 1.431637 0.000003 0
M  V30 47 H 8.272083 -0.630856 -0.000011 0
M  V30 48 H 7.460179 -1.923380 -0.883843 0
M  V30 49 H 7.460186 -1.923349 0.883800 0
M  V30 END ATOM
M  V30 BEGIN BOND
M  V30 1 2 2 1
M  V30 2 1 3 2
M  V30 3 1 4 3
M  V30 4 2 5 4
M  V30 5 1 6 5
M  V30 6 2 7 6
M  V30 7 1 8 7
M  V30 8 1 9 8
M  V30 9 1 10 9
M  V30 10 2 11 8
M  V30 11 1 12 7
M  V30 12 2 13 12
M  V30 13 1 13 4
M  V30 14 1 14 2
M  V30 15 2 15 14
M  V30 16 1 16 15
M  V30 17 1 17 15
M  V30 18 2 18 17
M  V30 19 1 19 18
M  V30 20 2 20 19
M  V30 21 1 21 20
M  V30 22 2 22 21
M  V30 23 1 23 22
M  V30 24 2 24 23
M  V30 25 1 24 19
M  V30 26 1 25 18
M  V30 27 2 26 25
M  V30 28 1 27 26
M  V30 29 1 28 26
M  V30 30 2 29 28
M  V30 31 1 29 17
M  V30 32 1 30 29
M  V30 33 1 30 14
M  V30 34 1 31 3
M  V30 35 1 32 5
M  V30 36 1 33 6
M  V30 37 1 34 10
M  V30 38 1 35 10
M  V30 39 1 36 10
M  V30 40 1 37 12
M  V30 41 1 38 13
M  V30 42 1 39 16
M  V30 43 1 40 16
M  V30 44 1 41 20
M  V30 45 1 42 21
M  V30 46 1 43 22
M  V30 47 1 44 23
M  V30 48 1 45 24
M  V30 49 1 46 25
M  V30 50 1 47 27
M  V30 51 1 48 27
M  V30 52 1 49 27
M  V30 END BOND
M  V30 END CTAB
M  END
>  <i_epik_Tot_Q>  (14) 
0

>  <i_epik_Tot_abs_Q>  (14) 
0

>  <i_f3d_flags>  (14) 
0

>  <i_lp_mmshare_version>  (14) 
71160

>  <i_lp_orig_ion_str>  (14) 
1

>  <i_m_source_file_index>  (14) 
130

>  <b_lp_Chiralities_Consistent>  (14) 
1

>  <r_epik_Charging_Adjusted_Penalty>  (14) 
0

>  <r_epik_Ionization_Penalty>  (14) 
0.00017748582142579822

>  <r_epik_Ionization_Penalty_Charging>  (14) 
0

>  <r_epik_Ionization_Penalty_Neutral>  (14) 
0.00017748582142579822

>  <r_epik_State_Penalty>  (14) 
-0

>  <r_lp_Energy>  (14) 
48.066195999999998

>  <r_lp_tautomer_probability>  (14) 
1

>  <s_epik_Chemistry_Notes>  (14) 
This compound has an ester and may undergo hydrolysis at high or low pH.

>  <s_epik_cmdline>  (14) 
J2VwaWtfcHl0aG9uJywgJy1waHQnLCAnMC4yJywgJy1waCcsICc3LjQnLCAnLXJldGFpbl9pX2xhYicsICctcmV0YWluX3RfbGFiJywgJy10bicsICcxJywgJy1tYScsICc1MDAnLCAnLWltYWUnLCAnPGluZmlsZS5tYWU+JywgJy1vbWFlJywgJzxvdXRmaWxlLm1hZT4n

>  <s_epik_input>  (14) 
W0NIM11PQyg9TyljKFtjSF1bY0hdMSlbY0hdW2NIXWMxW05IXUMoPU8pYyhjMltOSDJdKXNjKGMyMyluYyhbQ0gzXSlbY0hdYzMtYzRbY0hdW2NIXVtjSF1bY0hdW2NIXTQ=

>  <s_lp_Force_Field>  (14) 
S-OPLS

>  <s_lp_Variant>  (14) 
4eb_Grossjean_2025-1

>  <s_lp_label>  (14) 
130

>  <s_m_source_file>  (14) 
montpellier_ligands.smi

$$$$
4ca_Grossjean_2025
     RDKit          3D

  0  0  0  0  0  0  0  0  0  0999 V3000
M  V30 BEGIN CTAB
M  V30 COUNTS 52 55 0 0 1
M  V30 BEGIN ATOM
M  V30 1 O -0.598465 1.275257 -0.160596 0
M  V30 2 C 0.015588 0.214266 -0.045807 0
M  V30 3 N -0.577038 -0.999740 0.067767 0
M  V30 4 C -1.940615 -1.349669 0.031208 0
M  V30 5 C -2.237666 -2.667497 0.380763 0
M  V30 6 C -3.553511 -3.120654 0.369542 0
M  V30 7 C -4.599539 -2.264908 0.000310 0
M  V30 8 C -6.007470 -2.786955 -0.006114 0
M  V30 9 O -6.921845 -1.857859 -0.387146 0
M  V30 10 C -8.305225 -2.177697 -0.465038 0
M  V30 11 C -9.093024 -0.932586 -0.883852 0
M  V30 12 O -6.302528 -3.945561 0.302237 0
M  V30 13 C -4.296024 -0.942638 -0.358526 0
M  V30 14 C -2.980366 -0.486908 -0.345747 0
M  V30 15 C 1.480455 0.201441 -0.005006 0
M  V30 16 C 2.367772 1.290222 -0.016363 0
M  V30 17 N 1.953063 2.597422 -0.036334 0
M  V30 18 C 3.760766 0.915024 -0.002252 0
M  V30 19 C 4.969959 1.668350 -0.003298 0
M  V30 20 C 5.029977 3.200193 -0.011504 0
M  V30 21 F 6.277378 3.675257 -0.005331 0
M  V30 22 F 4.430608 3.669013 -1.105845 0
M  V30 23 F 4.414747 3.681816 1.068425 0
M  V30 24 C 6.175365 0.948564 0.003384 0
M  V30 25 C 6.187496 -0.449989 0.007519 0
M  V30 26 C 7.465222 -1.238293 0.010404 0
M  V30 27 C 8.646173 -0.694164 -0.519848 0
M  V30 28 C 9.833034 -1.422152 -0.526475 0
M  V30 29 C 9.855895 -2.709634 -0.000945 0
M  V30 30 C 8.700062 -3.273762 0.528125 0
M  V30 31 C 7.515168 -2.542778 0.531987 0
M  V30 32 N 5.040150 -1.177435 0.025832 0
M  V30 33 C 3.892290 -0.504442 0.015798 0
M  V30 34 S 2.352474 -1.329936 0.019040 0
M  V30 35 H 0.044648 -1.781315 0.213768 0
M  V30 36 H -1.450980 -3.351123 0.667711 0
M  V30 37 H -3.745902 -4.146832 0.649940 0
M  V30 38 H -8.460686 -2.977833 -1.190505 0
M  V30 39 H -8.662180 -2.534971 0.502270 0
M  V30 40 H -10.157727 -1.155105 -0.955947 0
M  V30 41 H -8.763235 -0.564905 -1.856103 0
M  V30 42 H -8.969697 -0.126082 -0.160222 0
M  V30 43 H -5.069706 -0.249709 -0.656808 0
M  V30 44 H -2.802792 0.532594 -0.647044 0
M  V30 45 H 2.609009 3.365837 -0.042359 0
M  V30 46 H 0.971310 2.837757 -0.047576 0
M  V30 47 H 7.113586 1.481904 0.015913 0
M  V30 48 H 8.657246 0.295918 -0.950256 0
M  V30 49 H 10.731472 -0.990613 -0.942574 0
M  V30 50 H 10.775752 -3.275558 -0.006203 0
M  V30 51 H 8.721339 -4.274527 0.933895 0
M  V30 52 H 6.632626 -3.002074 0.953131 0
M  V30 END ATOM
M  V30 BEGIN BOND
M  V30 1 2 2 1
M  V30 2 1 3 2
M  V30 3 1 4 3
M  V30 4 2 5 4
M  V30 5 1 6 5
M  V30 6 2 7 6
M  V30 7 1 8 7
M  V30 8 1 9 8
M  V30 9 1 10 9
M  V30 10 1 11 10
M  V30 11 2 12 8
M  V30 12 1 13 7
M  V30 13 2 14 13
M  V30 14 1 14 4
M  V30 15 1 15 2
M  V30 16 2 16 15
M  V30 17 1 17 16
M  V30 18 1 18 16
M  V30 19 2 19 18
M  V30 20 1 20 19
M  V30 21 1 21 20
M  V30 22 1 22 20
M  V30 23 1 23 20
M  V30 24 1 24 19
M  V30 25 2 25 24
M  V30 26 1 26 25
M  V30 27 2 27 26
M  V30 28 1 28 27
M  V30 29 2 29 28
M  V30 30 1 30 29
M  V30 31 2 31 30
M  V30 32 1 31 26
M  V30 33 1 32 25
M  V30 34 2 33 32
M  V30 35 1 33 18
M  V30 36 1 34 33
M  V30 37 1 34 15
M  V30 38 1 35 3
M  V30 39 1 36 5
M  V30 40 1 37 6
M  V30 41 1 38 10
M  V30 42 1 39 10
M  V30 43 1 40 11
M  V30 44 1 41 11
M  V30 45 1 42 11
M  V30 46 1 43 13
M  V30 47 1 44 14
M  V30 48 1 45 17
M  V30 49 1 46 17
M  V30 50 1 47 24
M  V30 51 1 48 27
M  V30 52 1 49 28
M  V30 53 1 50 29
M  V30 54 1 51 30
M  V30 55 1 52 31
M  V30 END BOND
M  V30 END CTAB
M  END
>  <i_epik_Tot_Q>  (15) 
0

>  <i_epik_Tot_abs_Q>  (15) 
0

>  <i_f3d_flags>  (15) 
0

>  <i_lp_mmshare_version>  (15) 
71160

>  <i_lp_orig_ion_str>  (15) 
1

>  <i_m_source_file_index>  (15) 
131

>  <b_lp_Chiralities_Consistent>  (15) 
1

>  <r_epik_Charging_Adjusted_Penalty>  (15) 
0

>  <r_epik_Ionization_Penalty>  (15) 
0.00042688408709102519

>  <r_epik_Ionization_Penalty_Charging>  (15) 
0

>  <r_epik_Ionization_Penalty_Neutral>  (15) 
0.00042688408709102519

>  <r_epik_State_Penalty>  (15) 
-0

>  <r_lp_Energy>  (15) 
48.028655999999998

>  <r_lp_tautomer_probability>  (15) 
1

>  <s_epik_Chemistry_Notes>  (15) 
This compound has an ester and may undergo hydrolysis at high or low pH.

>  <s_epik_cmdline>  (15) 
J2VwaWtfcHl0aG9uJywgJy1waHQnLCAnMC4yJywgJy1waCcsICc3LjQnLCAnLXJldGFpbl9pX2xhYicsICctcmV0YWluX3RfbGFiJywgJy10bicsICcxJywgJy1tYScsICc1MDAnLCAnLWltYWUnLCAnPGluZmlsZS5tYWU+JywgJy1vbWFlJywgJzxvdXRmaWxlLm1hZT4n

>  <s_epik_input>  (15) 
W0NIM11bQ0gyXU9DKD1PKWMoW2NIXVtjSF0xKVtjSF1bY0hdYzFbTkhdQyg9TyljKGMyW05IMl0pc2MoYzIzKW5jKFtjSF1jM0MoRikoRilGKS1jNFtjSF1bY0hdW2NIXVtjSF1bY0hdNA==

>  <s_lp_Force_Field>  (15) 
S-OPLS

>  <s_lp_Variant>  (15) 
4ca_Grossjean_2025-1

>  <s_lp_label>  (15) 
131

>  <s_m_source_file>  (15) 
montpellier_ligands.smi

$$$$
4cb_Grossjean_2025
     RDKit          3D

  0  0  0  0  0  0  0  0  0  0999 V3000
M  V30 BEGIN CTAB
M  V30 COUNTS 49 52 0 0 1
M  V30 BEGIN ATOM
M  V30 1 O -0.611659 1.259107 -0.169842 0
M  V30 2 C 0.004053 0.199448 -0.050044 0
M  V30 3 N -0.586135 -1.014658 0.072052 0
M  V30 4 C -1.949040 -1.368070 0.039755 0
M  V30 5 C -2.240163 -2.689149 0.381818 0
M  V30 6 C -3.554074 -3.147975 0.369573 0
M  V30 7 C -4.604298 -2.294380 0.007629 0
M  V30 8 C -6.009638 -2.824014 -0.002729 0
M  V30 9 O -6.929856 -1.896193 -0.371066 0
M  V30 10 C -8.310764 -2.223176 -0.440400 0
M  V30 11 O -6.297493 -3.987772 0.293240 0
M  V30 12 C -4.307353 -0.967722 -0.340183 0
M  V30 13 C -2.993580 -0.506538 -0.326797 0
M  V30 14 C 1.469209 0.189184 -0.010812 0
M  V30 15 C 2.353922 1.279839 -0.023247 0
M  V30 16 N 1.936103 2.585962 -0.045284 0
M  V30 17 C 3.747879 0.908243 -0.008252 0
M  V30 18 C 4.954603 1.665484 -0.006360 0
M  V30 19 C 5.009406 3.197540 -0.009371 0
M  V30 20 F 6.255052 3.677263 0.004011 0
M  V30 21 F 4.413060 3.667401 -1.104968 0
M  V30 22 F 4.387499 3.673559 1.069219 0
M  V30 23 C 6.162276 0.949824 -0.000239 0
M  V30 24 C 6.178934 -0.448818 0.000602 0
M  V30 25 C 7.459743 -1.231975 0.005779 0
M  V30 26 C 8.638303 -0.684427 -0.526332 0
M  V30 27 C 9.829164 -1.406027 -0.527529 0
M  V30 28 C 9.858157 -2.690970 0.004376 0
M  V30 29 C 8.704469 -3.258520 0.534600 0
M  V30 30 C 7.515631 -2.533767 0.533112 0
M  V30 31 N 5.033915 -1.180239 0.015352 0
M  V30 32 C 3.883557 -0.510862 0.006382 0
M  V30 33 S 2.345428 -1.340196 0.008671 0
M  V30 34 H 0.037654 -1.794576 0.217992 0
M  V30 35 H -1.450142 -3.371441 0.662614 0
M  V30 36 H -3.741776 -4.176827 0.643123 0
M  V30 37 H -8.884957 -1.342206 -0.727352 0
M  V30 38 H -8.680702 -2.569349 0.525760 0
M  V30 39 H -8.491531 -3.003203 -1.181370 0
M  V30 40 H -5.084488 -0.275394 -0.630973 0
M  V30 41 H -2.822256 0.516561 -0.619388 0
M  V30 42 H 2.589968 3.356049 -0.049495 0
M  V30 43 H 0.953905 2.823803 -0.062029 0
M  V30 44 H 7.098822 1.486452 0.014687 0
M  V30 45 H 8.644041 0.303671 -0.961460 0
M  V30 46 H 10.726020 -0.971239 -0.943719 0
M  V30 47 H 10.781139 -3.252238 0.002921 0
M  V30 48 H 8.730649 -4.256906 0.946103 0
M  V30 49 H 6.634945 -2.995438 0.955364 0
M  V30 END ATOM
M  V30 BEGIN BOND
M  V30 1 2 2 1
M  V30 2 1 3 2
M  V30 3 1 4 3
M  V30 4 2 5 4
M  V30 5 1 6 5
M  V30 6 2 7 6
M  V30 7 1 8 7
M  V30 8 1 9 8
M  V30 9 1 10 9
M  V30 10 2 11 8
M  V30 11 1 12 7
M  V30 12 2 13 12
M  V30 13 1 13 4
M  V30 14 1 14 2
M  V30 15 2 15 14
M  V30 16 1 16 15
M  V30 17 1 17 15
M  V30 18 2 18 17
M  V30 19 1 19 18
M  V30 20 1 20 19
M  V30 21 1 21 19
M  V30 22 1 22 19
M  V30 23 1 23 18
M  V30 24 2 24 23
M  V30 25 1 25 24
M  V30 26 2 26 25
M  V30 27 1 27 26
M  V30 28 2 28 27
M  V30 29 1 29 28
M  V30 30 2 30 29
M  V30 31 1 30 25
M  V30 32 1 31 24
M  V30 33 2 32 31
M  V30 34 1 32 17
M  V30 35 1 33 32
M  V30 36 1 33 14
M  V30 37 1 34 3
M  V30 38 1 35 5
M  V30 39 1 36 6
M  V30 40 1 37 10
M  V30 41 1 38 10
M  V30 42 1 39 10
M  V30 43 1 40 12
M  V30 44 1 41 13
M  V30 45 1 42 16
M  V30 46 1 43 16
M  V30 47 1 44 23
M  V30 48 1 45 26
M  V30 49 1 46 27
M  V30 50 1 47 28
M  V30 51 1 48 29
M  V30 52 1 49 30
M  V30 END BOND
M  V30 END CTAB
M  END
>  <i_epik_Tot_Q>  (16) 
0

>  <i_epik_Tot_abs_Q>  (16) 
0

>  <i_f3d_flags>  (16) 
0

>  <i_lp_mmshare_version>  (16) 
71160

>  <i_lp_orig_ion_str>  (16) 
1

>  <i_m_source_file_index>  (16) 
132

>  <b_lp_Chiralities_Consistent>  (16) 
1

>  <r_epik_Charging_Adjusted_Penalty>  (16) 
0

>  <r_epik_Ionization_Penalty>  (16) 
0.00042753913118825134

>  <r_epik_Ionization_Penalty_Charging>  (16) 
0

>  <r_epik_Ionization_Penalty_Neutral>  (16) 
0.00042753913118825134

>  <r_epik_State_Penalty>  (16) 
-0

>  <r_lp_Energy>  (16) 
47.694337999999995

>  <r_lp_tautomer_probability>  (16) 
1

>  <s_epik_Chemistry_Notes>  (16) 
This compound has an ester and may undergo hydrolysis at high or low pH.

>  <s_epik_cmdline>  (16) 
J2VwaWtfcHl0aG9uJywgJy1waHQnLCAnMC4yJywgJy1waCcsICc3LjQnLCAnLXJldGFpbl9pX2xhYicsICctcmV0YWluX3RfbGFiJywgJy10bicsICcxJywgJy1tYScsICc1MDAnLCAnLWltYWUnLCAnPGluZmlsZS5tYWU+JywgJy1vbWFlJywgJzxvdXRmaWxlLm1hZT4n

>  <s_epik_input>  (16) 
W0NIM11PQyg9TyljKFtjSF1bY0hdMSlbY0hdW2NIXWMxW05IXUMoPU8pYyhjMltOSDJdKXNjKGMyMyluYyhbY0hdYzNDKEYpKEYpRiktYzRbY0hdW2NIXVtjSF1bY0hdW2NIXTQ=

>  <s_lp_Force_Field>  (16) 
S-OPLS

>  <s_lp_Variant>  (16) 
4cb_Grossjean_2025-1

>  <s_lp_label>  (16) 
132

>  <s_m_source_file>  (16) 
montpellier_ligands.smi

$$$$
4cc_Grossjean_2025
     RDKit          3D

  0  0  0  0  0  0  0  0  0  0999 V3000
M  V30 BEGIN CTAB
M  V30 COUNTS 47 50 0 0 1
M  V30 BEGIN ATOM
M  V30 1 O -0.618441 1.211972 0.047406 0
M  V30 2 C 0.010158 0.152435 0.043538 0
M  V30 3 N -0.571486 -1.071985 0.046934 0
M  V30 4 C -1.937458 -1.409311 0.010144 0
M  V30 5 C -2.264259 -2.701774 0.423468 0
M  V30 6 C -3.588580 -3.129468 0.405741 0
M  V30 7 C -4.604045 -2.279249 -0.031745 0
M  V30 8 O -5.887233 -2.791484 -0.015353 0
M  V30 9 C -6.969270 -1.968680 -0.438722 0
M  V30 10 C -4.274437 -0.983978 -0.459679 0
M  V30 11 C -2.950942 -0.552006 -0.443646 0
M  V30 12 C 1.475762 0.153076 0.038793 0
M  V30 13 C 2.351057 1.251475 0.028627 0
M  V30 14 N 1.921339 2.553985 0.028269 0
M  V30 15 C 3.748138 0.891731 0.016571 0
M  V30 16 C 4.948449 1.658884 -0.000115 0
M  V30 17 C 4.990946 3.191314 -0.009855 0
M  V30 18 F 6.232720 3.680611 -0.033982 0
M  V30 19 F 4.360187 3.653069 -1.089402 0
M  V30 20 F 4.396041 3.665658 1.084437 0
M  V30 21 C 6.161862 0.953416 -0.007104 0
M  V30 22 C 6.190280 -0.444839 -0.003903 0
M  V30 23 C 7.478239 -1.215924 -0.006467 0
M  V30 24 C 8.646964 -0.659646 -0.550908 0
M  V30 25 C 9.844823 -1.369531 -0.558006 0
M  V30 26 C 9.890801 -2.650654 -0.018821 0
M  V30 27 C 8.747166 -3.226735 0.523777 0
M  V30 28 C 7.551099 -2.514088 0.527585 0
M  V30 29 N 5.051877 -1.186223 0.021230 0
M  V30 30 C 3.895805 -0.526448 0.026235 0
M  V30 31 S 2.364644 -1.368829 0.045436 0
M  V30 32 H 0.052934 -1.862311 0.113131 0
M  V30 33 H -1.496615 -3.382001 0.764635 0
M  V30 34 H -3.828140 -4.130769 0.733092 0
M  V30 35 H -7.900808 -2.528946 -0.358307 0
M  V30 36 H -6.857522 -1.663390 -1.480270 0
M  V30 37 H -7.063500 -1.080218 0.187622 0
M  V30 38 H -5.030545 -0.300331 -0.814200 0
M  V30 39 H -2.739626 0.442520 -0.803699 0
M  V30 40 H 2.567606 3.330341 0.018192 0
M  V30 41 H 0.936648 2.782128 0.040235 0
M  V30 42 H 7.093993 1.497604 -0.002866 0
M  V30 43 H 8.639475 0.326476 -0.990458 0
M  V30 44 H 10.733899 -0.928311 -0.984070 0
M  V30 45 H 10.819441 -3.202289 -0.023681 0
M  V30 46 H 8.786552 -4.222195 0.940808 0
M  V30 47 H 6.678620 -2.981609 0.960308 0
M  V30 END ATOM
M  V30 BEGIN BOND
M  V30 1 2 2 1
M  V30 2 1 3 2
M  V30 3 1 4 3
M  V30 4 2 5 4
M  V30 5 1 6 5
M  V30 6 2 7 6
M  V30 7 1 8 7
M  V30 8 1 9 8
M  V30 9 1 10 7
M  V30 10 2 11 10
M  V30 11 1 11 4
M  V30 12 1 12 2
M  V30 13 2 13 12
M  V30 14 1 14 13
M  V30 15 1 15 13
M  V30 16 2 16 15
M  V30 17 1 17 16
M  V30 18 1 18 17
M  V30 19 1 19 17
M  V30 20 1 20 17
M  V30 21 1 21 16
M  V30 22 2 22 21
M  V30 23 1 23 22
M  V30 24 2 24 23
M  V30 25 1 25 24
M  V30 26 2 26 25
M  V30 27 1 27 26
M  V30 28 2 28 27
M  V30 29 1 28 23
M  V30 30 1 29 22
M  V30 31 2 30 29
M  V30 32 1 30 15
M  V30 33 1 31 30
M  V30 34 1 31 12
M  V30 35 1 32 3
M  V30 36 1 33 5
M  V30 37 1 34 6
M  V30 38 1 35 9
M  V30 39 1 36 9
M  V30 40 1 37 9
M  V30 41 1 38 10
M  V30 42 1 39 11
M  V30 43 1 40 14
M  V30 44 1 41 14
M  V30 45 1 42 21
M  V30 46 1 43 24
M  V30 47 1 44 25
M  V30 48 1 45 26
M  V30 49 1 46 27
M  V30 50 1 47 28
M  V30 END BOND
M  V30 END CTAB
M  END
>  <i_epik_Tot_Q>  (17) 
0

>  <i_epik_Tot_abs_Q>  (17) 
0

>  <i_f3d_flags>  (17) 
0

>  <i_lp_mmshare_version>  (17) 
71160

>  <i_lp_orig_ion_str>  (17) 
1

>  <i_m_source_file_index>  (17) 
133

>  <b_lp_Chiralities_Consistent>  (17) 
1

>  <r_epik_Charging_Adjusted_Penalty>  (17) 
0

>  <r_epik_Ionization_Penalty>  (17) 
0.00042595090020996129

>  <r_epik_Ionization_Penalty_Charging>  (17) 
0

>  <r_epik_Ionization_Penalty_Neutral>  (17) 
0.00042595090020996129

>  <r_epik_State_Penalty>  (17) 
-0

>  <r_lp_Energy>  (17) 
51.694452999999996

>  <r_lp_tautomer_probability>  (17) 
1

>  <s_epik_cmdline>  (17) 
J2VwaWtfcHl0aG9uJywgJy1waHQnLCAnMC4yJywgJy1waCcsICc3LjQnLCAnLXJldGFpbl9pX2xhYicsICctcmV0YWluX3RfbGFiJywgJy10bicsICcxJywgJy1tYScsICc1MDAnLCAnLWltYWUnLCAnPGluZmlsZS5tYWU+JywgJy1vbWFlJywgJzxvdXRmaWxlLm1hZT4n

>  <s_epik_input>  (17) 
W0NIM11PYyhbY0hdW2NIXTEpW2NIXVtjSF1jMVtOSF1DKD1PKWMoYzJbTkgyXSlzYyhjMjMpbmMoW2NIXWMzQyhGKShGKUYpLWM0W2NIXVtjSF1bY0hdW2NIXVtjSF00

>  <s_lp_Force_Field>  (17) 
S-OPLS

>  <s_lp_Variant>  (17) 
4cc_Grossjean_2025-1

>  <s_lp_label>  (17) 
133

>  <s_m_source_file>  (17) 
montpellier_ligands.smi

$$$$
4cd_Grossjean_2025
     RDKit          3D

  0  0  0  0  0  0  0  0  0  0999 V3000
M  V30 BEGIN CTAB
M  V30 COUNTS 43 46 0 0 1
M  V30 BEGIN ATOM
M  V30 1 O -0.663208 1.125322 0.001058 0
M  V30 2 C -0.020810 0.074747 -0.031347 0
M  V30 3 N -0.584804 -1.157391 -0.069245 0
M  V30 4 C -1.943399 -1.522942 -0.021681 0
M  V30 5 C -2.238879 -2.830078 -0.418905 0
M  V30 6 C -3.552374 -3.290815 -0.395334 0
M  V30 7 C -4.572350 -2.445937 0.034354 0
M  V30 8 C -4.289915 -1.145707 0.445378 0
M  V30 9 C -2.977263 -0.681242 0.421865 0
M  V30 10 C 1.444854 0.095350 -0.038777 0
M  V30 11 C 2.305126 1.205356 -0.021363 0
M  V30 12 N 1.858215 2.501966 -0.010298 0
M  V30 13 C 3.706978 0.864572 -0.014014 0
M  V30 14 C 4.896479 1.648140 0.008640 0
M  V30 15 C 4.917312 3.180848 0.029229 0
M  V30 16 F 6.151915 3.687799 0.053463 0
M  V30 17 F 4.312349 3.654668 -1.059770 0
M  V30 18 F 4.282921 3.625850 1.113692 0
M  V30 19 C 6.119716 0.959378 0.012860 0
M  V30 20 C 6.167295 -0.438255 -0.000517 0
M  V30 21 C 7.465378 -1.191963 0.001078 0
M  V30 22 C 8.624001 -0.625582 0.556996 0
M  V30 23 C 9.831196 -1.319538 0.562779 0
M  V30 24 C 9.896473 -2.594784 0.011208 0
M  V30 25 C 8.763168 -3.180333 -0.543018 0
M  V30 26 C 7.557795 -2.483618 -0.545440 0
M  V30 27 N 5.039137 -1.194902 -0.034951 0
M  V30 28 C 3.874131 -0.551181 -0.035458 0
M  V30 29 S 2.354670 -1.414180 -0.059859 0
M  V30 30 H 0.051825 -1.935387 -0.157894 0
M  V30 31 H -1.454697 -3.494868 -0.753060 0
M  V30 32 H -3.778569 -4.299520 -0.708119 0
M  V30 33 H -5.591328 -2.803747 0.053524 0
M  V30 34 H -5.086092 -0.500373 0.786603 0
M  V30 35 H -2.791407 0.323438 0.767077 0
M  V30 36 H 2.494857 3.286256 0.001136 0
M  V30 37 H 0.870614 2.717622 -0.016485 0
M  V30 38 H 7.044369 1.516337 0.015099 0
M  V30 39 H 8.601186 0.355841 1.006416 0
M  V30 40 H 10.712893 -0.871045 0.996571 0
M  V30 41 H 10.832428 -3.133919 0.014194 0
M  V30 42 H 8.818388 -4.170648 -0.970679 0
M  V30 43 H 6.693434 -2.958128 -0.987112 0
M  V30 END ATOM
M  V30 BEGIN BOND
M  V30 1 2 2 1
M  V30 2 1 3 2
M  V30 3 1 4 3
M  V30 4 2 5 4
M  V30 5 1 6 5
M  V30 6 2 7 6
M  V30 7 1 8 7
M  V30 8 2 9 8
M  V30 9 1 9 4
M  V30 10 1 10 2
M  V30 11 2 11 10
M  V30 12 1 12 11
M  V30 13 1 13 11
M  V30 14 2 14 13
M  V30 15 1 15 14
M  V30 16 1 16 15
M  V30 17 1 17 15
M  V30 18 1 18 15
M  V30 19 1 19 14
M  V30 20 2 20 19
M  V30 21 1 21 20
M  V30 22 2 22 21
M  V30 23 1 23 22
M  V30 24 2 24 23
M  V30 25 1 25 24
M  V30 26 2 26 25
M  V30 27 1 26 21
M  V30 28 1 27 20
M  V30 29 2 28 27
M  V30 30 1 28 13
M  V30 31 1 29 28
M  V30 32 1 29 10
M  V30 33 1 30 3
M  V30 34 1 31 5
M  V30 35 1 32 6
M  V30 36 1 33 7
M  V30 37 1 34 8
M  V30 38 1 35 9
M  V30 39 1 36 12
M  V30 40 1 37 12
M  V30 41 1 38 19
M  V30 42 1 39 22
M  V30 43 1 40 23
M  V30 44 1 41 24
M  V30 45 1 42 25
M  V30 46 1 43 26
M  V30 END BOND
M  V30 END CTAB
M  END
>  <i_epik_Tot_Q>  (18) 
0

>  <i_epik_Tot_abs_Q>  (18) 
0

>  <i_f3d_flags>  (18) 
0

>  <i_lp_mmshare_version>  (18) 
71160

>  <i_lp_orig_ion_str>  (18) 
1

>  <i_m_source_file_index>  (18) 
134

>  <b_lp_Chiralities_Consistent>  (18) 
1

>  <r_epik_Charging_Adjusted_Penalty>  (18) 
0

>  <r_epik_Ionization_Penalty>  (18) 
0.00042619158238461999

>  <r_epik_Ionization_Penalty_Charging>  (18) 
0

>  <r_epik_Ionization_Penalty_Neutral>  (18) 
0.00042619158238461999

>  <r_epik_State_Penalty>  (18) 
-0

>  <r_lp_Energy>  (18) 
48.714171

>  <r_lp_tautomer_probability>  (18) 
1

>  <s_epik_cmdline>  (18) 
J2VwaWtfcHl0aG9uJywgJy1waHQnLCAnMC4yJywgJy1waCcsICc3LjQnLCAnLXJldGFpbl9pX2xhYicsICctcmV0YWluX3RfbGFiJywgJy10bicsICcxJywgJy1tYScsICc1MDAnLCAnLWltYWUnLCAnPGluZmlsZS5tYWU+JywgJy1vbWFlJywgJzxvdXRmaWxlLm1hZT4n

>  <s_epik_input>  (18) 
W2NIXTFbY0hdW2NIXVtjSF1bY0hdYzFbTkhdQyg9TyljKGMyW05IMl0pc2MoYzIzKW5jKFtjSF1jM0MoRikoRilGKS1jNFtjSF1bY0hdW2NIXVtjSF1bY0hdNA==

>  <s_lp_Force_Field>  (18) 
S-OPLS

>  <s_lp_Variant>  (18) 
4cd_Grossjean_2025-1

>  <s_lp_label>  (18) 
134

>  <s_m_source_file>  (18) 
montpellier_ligands.smi

$$$$
4ce_Grossjean_2025
     RDKit          3D

  0  0  0  0  0  0  0  0  0  0999 V3000
M  V30 BEGIN CTAB
M  V30 COUNTS 45 48 0 0 1
M  V30 BEGIN ATOM
M  V30 1 O -0.651776 1.113487 -0.123057 0
M  V30 2 C -0.006015 0.067750 -0.030476 0
M  V30 3 N -0.570949 -1.162869 0.046510 0
M  V30 4 C -1.933894 -1.508874 0.020100 0
M  V30 5 N -2.896340 -0.622312 -0.368902 0
M  V30 6 C -4.189401 -1.036203 -0.394292 0
M  V30 7 C -5.205112 -0.000940 -0.838501 0
M  V30 8 C -4.573276 -2.332704 -0.042500 0
M  V30 9 C -3.583060 -3.234802 0.348512 0
M  V30 10 C -2.248656 -2.824642 0.378599 0
M  V30 11 C 1.458396 0.092108 0.006034 0
M  V30 12 C 2.316627 1.203701 -0.002083 0
M  V30 13 N 1.866737 2.499190 -0.016551 0
M  V30 14 C 3.718940 0.864975 0.004952 0
M  V30 15 C 4.908105 1.649661 -0.002455 0
M  V30 16 C 4.927636 3.182465 -0.012452 0
M  V30 17 F 6.162091 3.690416 -0.015062 0
M  V30 18 F 4.308311 3.634422 -1.102772 0
M  V30 19 F 4.306691 3.648222 1.071074 0
M  V30 20 C 6.131976 0.961697 -0.000369 0
M  V30 21 C 6.179561 -0.436015 0.007136 0
M  V30 22 C 7.476317 -1.190674 0.009720 0
M  V30 23 C 8.634022 -0.629197 -0.551824 0
M  V30 24 C 9.839258 -1.326556 -0.558794 0
M  V30 25 C 9.903223 -2.599416 -0.001456 0
M  V30 26 C 8.770806 -3.179050 0.560818 0
M  V30 27 C 7.567377 -2.479121 0.563941 0
M  V30 28 N 5.052149 -1.193677 0.029391 0
M  V30 29 C 3.887149 -0.550724 0.022286 0
M  V30 30 S 2.369085 -1.416002 0.029412 0
M  V30 31 H 0.058506 -1.940310 0.180040 0
M  V30 32 H -6.222979 -0.389392 -0.789521 0
M  V30 33 H -5.010391 0.304008 -1.867305 0
M  V30 34 H -5.152179 0.884706 -0.204139 0
M  V30 35 H -5.609328 -2.637110 -0.073031 0
M  V30 36 H -3.846862 -4.245144 0.624076 0
M  V30 37 H -1.479131 -3.522382 0.677334 0
M  V30 38 H 2.500703 3.285643 -0.018454 0
M  V30 39 H 0.878515 2.711759 -0.025326 0
M  V30 40 H 7.056953 1.518359 0.007347 0
M  V30 41 H 8.610637 0.350197 -1.005774 0
M  V30 42 H 10.720081 -0.882773 -0.999012 0
M  V30 43 H 10.837130 -3.142027 -0.007476 0
M  V30 44 H 8.824467 -4.167526 0.992778 0
M  V30 45 H 6.703058 -2.948648 1.010915 0
M  V30 END ATOM
M  V30 BEGIN BOND
M  V30 1 2 2 1
M  V30 2 1 3 2
M  V30 3 1 4 3
M  V30 4 2 5 4
M  V30 5 1 6 5
M  V30 6 1 7 6
M  V30 7 2 8 6
M  V30 8 1 9 8
M  V30 9 2 10 9
M  V30 10 1 10 4
M  V30 11 1 11 2
M  V30 12 2 12 11
M  V30 13 1 13 12
M  V30 14 1 14 12
M  V30 15 2 15 14
M  V30 16 1 16 15
M  V30 17 1 17 16
M  V30 18 1 18 16
M  V30 19 1 19 16
M  V30 20 1 20 15
M  V30 21 2 21 20
M  V30 22 1 22 21
M  V30 23 2 23 22
M  V30 24 1 24 23
M  V30 25 2 25 24
M  V30 26 1 26 25
M  V30 27 2 27 26
M  V30 28 1 27 22
M  V30 29 1 28 21
M  V30 30 2 29 28
M  V30 31 1 29 14
M  V30 32 1 30 29
M  V30 33 1 30 11
M  V30 34 1 31 3
M  V30 35 1 32 7
M  V30 36 1 33 7
M  V30 37 1 34 7
M  V30 38 1 35 8
M  V30 39 1 36 9
M  V30 40 1 37 10
M  V30 41 1 38 13
M  V30 42 1 39 13
M  V30 43 1 40 20
M  V30 44 1 41 23
M  V30 45 1 42 24
M  V30 46 1 43 25
M  V30 47 1 44 26
M  V30 48 1 45 27
M  V30 END BOND
M  V30 END CTAB
M  END
>  <i_epik_Tot_Q>  (19) 
0

>  <i_epik_Tot_abs_Q>  (19) 
0

>  <i_f3d_flags>  (19) 
0

>  <i_lp_mmshare_version>  (19) 
71160

>  <i_lp_orig_ion_str>  (19) 
1

>  <i_m_source_file_index>  (19) 
135

>  <b_lp_Chiralities_Consistent>  (19) 
1

>  <r_epik_Charging_Adjusted_Penalty>  (19) 
0

>  <r_epik_Ionization_Penalty>  (19) 
0.0021269793344390248

>  <r_epik_Ionization_Penalty_Charging>  (19) 
0

>  <r_epik_Ionization_Penalty_Neutral>  (19) 
0.0021269793344390248

>  <r_epik_State_Penalty>  (19) 
-0

>  <r_lp_Energy>  (19) 
50.224454999999999

>  <r_lp_tautomer_probability>  (19) 
1

>  <s_epik_cmdline>  (19) 
J2VwaWtfcHl0aG9uJywgJy1waHQnLCAnMC4yJywgJy1waCcsICc3LjQnLCAnLXJldGFpbl9pX2xhYicsICctcmV0YWluX3RfbGFiJywgJy10bicsICcxJywgJy1tYScsICc1MDAnLCAnLWltYWUnLCAnPGluZmlsZS5tYWU+JywgJy1vbWFlJywgJzxvdXRmaWxlLm1hZT4n

>  <s_epik_input>  (19) 
W2NIXTFbY0hdW2NIXWMoW0NIM10pbmMxW05IXUMoPU8pYyhjMltOSDJdKXNjKGMyMyluYyhbY0hdYzNDKEYpKEYpRiktYzRbY0hdW2NIXVtjSF1bY0hdW2NIXTQ=

>  <s_lp_Force_Field>  (19) 
S-OPLS

>  <s_lp_Variant>  (19) 
4ce_Grossjean_2025-1

>  <s_lp_label>  (19) 
135

>  <s_m_source_file>  (19) 
montpellier_ligands.smi

$$$$
4cf_Grossjean_2025
     RDKit          3D

  0  0  0  0  0  0  0  0  0  0999 V3000
M  V30 BEGIN CTAB
M  V30 COUNTS 42 45 0 0 1
M  V30 BEGIN ATOM
M  V30 1 O -0.653583 1.115127 0.119571 0
M  V30 2 C -0.013120 0.068269 0.016620 0
M  V30 3 N -0.577359 -1.160456 -0.080742 0
M  V30 4 C -1.934384 -1.531569 -0.028910 0
M  V30 5 C -2.241242 -2.855006 -0.365528 0
M  V30 6 N -3.502737 -3.356595 -0.351284 0
M  V30 7 C -4.509864 -2.525239 0.015965 0
M  V30 8 C -4.299926 -1.194180 0.376541 0
M  V30 9 C -2.996873 -0.692455 0.354589 0
M  V30 10 C 1.451872 0.091287 -0.019798 0
M  V30 11 C 2.311041 1.202178 -0.002970 0
M  V30 12 N 1.862969 2.498266 0.017859 0
M  V30 13 C 3.713168 0.863203 -0.008010 0
M  V30 14 C 4.901758 1.648378 0.007199 0
M  V30 15 C 4.921214 3.181223 0.026154 0
M  V30 16 F 6.155387 3.689515 0.036448 0
M  V30 17 F 4.304367 3.653307 -1.056962 0
M  V30 18 F 4.298102 3.626800 1.116936 0
M  V30 19 C 6.125657 0.961131 0.005764 0
M  V30 20 C 6.174901 -0.436417 -0.006408 0
M  V30 21 C 7.473971 -1.188431 -0.005410 0
M  V30 22 C 8.632425 -0.618648 0.547287 0
M  V30 23 C 9.840742 -1.310454 0.553368 0
M  V30 24 C 9.907186 -2.587353 0.006006 0
M  V30 25 C 8.774119 -3.176572 -0.544789 0
M  V30 26 C 7.567639 -2.481582 -0.548175 0
M  V30 27 N 5.047714 -1.194627 -0.037795 0
M  V30 28 C 3.881909 -0.552365 -0.032635 0
M  V30 29 S 2.363057 -1.416959 -0.050864 0
M  V30 30 H 0.059964 -1.931666 -0.215092 0
M  V30 31 H -1.466446 -3.548176 -0.660984 0
M  V30 32 H -5.504568 -2.946445 0.021664 0
M  V30 33 H -5.127520 -0.565407 0.670471 0
M  V30 34 H -2.845734 0.333528 0.649556 0
M  V30 35 H 2.498995 3.283169 0.028964 0
M  V30 36 H 0.875291 2.712813 0.022441 0
M  V30 37 H 7.049285 1.519649 0.003258 0
M  V30 38 H 8.608918 0.363819 0.994507 0
M  V30 39 H 10.722044 -0.858709 0.984621 0
M  V30 40 H 10.843905 -3.125077 0.010094 0
M  V30 41 H 8.830130 -4.168189 -0.969304 0
M  V30 42 H 6.703412 -2.958404 -0.987483 0
M  V30 END ATOM
M  V30 BEGIN BOND
M  V30 1 2 2 1
M  V30 2 1 3 2
M  V30 3 1 4 3
M  V30 4 2 5 4
M  V30 5 1 6 5
M  V30 6 2 7 6
M  V30 7 1 8 7
M  V30 8 2 9 8
M  V30 9 1 9 4
M  V30 10 1 10 2
M  V30 11 2 11 10
M  V30 12 1 12 11
M  V30 13 1 13 11
M  V30 14 2 14 13
M  V30 15 1 15 14
M  V30 16 1 16 15
M  V30 17 1 17 15
M  V30 18 1 18 15
M  V30 19 1 19 14
M  V30 20 2 20 19
M  V30 21 1 21 20
M  V30 22 2 22 21
M  V30 23 1 23 22
M  V30 24 2 24 23
M  V30 25 1 25 24
M  V30 26 2 26 25
M  V30 27 1 26 21
M  V30 28 1 27 20
M  V30 29 2 28 27
M  V30 30 1 28 13
M  V30 31 1 29 28
M  V30 32 1 29 10
M  V30 33 1 30 3
M  V30 34 1 31 5
M  V30 35 1 32 7
M  V30 36 1 33 8
M  V30 37 1 34 9
M  V30 38 1 35 12
M  V30 39 1 36 12
M  V30 40 1 37 19
M  V30 41 1 38 22
M  V30 42 1 39 23
M  V30 43 1 40 24
M  V30 44 1 41 25
M  V30 45 1 42 26
M  V30 END BOND
M  V30 END CTAB
M  END
>  <i_epik_Tot_Q>  (20) 
0

>  <i_epik_Tot_abs_Q>  (20) 
0

>  <i_f3d_flags>  (20) 
0

>  <i_lp_mmshare_version>  (20) 
71160

>  <i_lp_orig_ion_str>  (20) 
1

>  <i_m_source_file_index>  (20) 
136

>  <b_lp_Chiralities_Consistent>  (20) 
1

>  <r_epik_Charging_Adjusted_Penalty>  (20) 
0

>  <r_epik_Ionization_Penalty>  (20) 
0.0024076457130689259

>  <r_epik_Ionization_Penalty_Charging>  (20) 
0

>  <r_epik_Ionization_Penalty_Neutral>  (20) 
0.0024076457130689259

>  <r_epik_State_Penalty>  (20) 
-0

>  <r_lp_Energy>  (20) 
51.653945

>  <r_lp_tautomer_probability>  (20) 
1

>  <s_epik_cmdline>  (20) 
J2VwaWtfcHl0aG9uJywgJy1waHQnLCAnMC4yJywgJy1waCcsICc3LjQnLCAnLXJldGFpbl9pX2xhYicsICctcmV0YWluX3RfbGFiJywgJy10bicsICcxJywgJy1tYScsICc1MDAnLCAnLWltYWUnLCAnPGluZmlsZS5tYWU+JywgJy1vbWFlJywgJzxvdXRmaWxlLm1hZT4n

>  <s_epik_input>  (20) 
W2NIXTFbY0hdW2NIXW5bY0hdYzFbTkhdQyg9TyljKGMyW05IMl0pc2MoYzIzKW5jKFtjSF1jM0MoRikoRilGKS1jNFtjSF1bY0hdW2NIXVtjSF1bY0hdNA==

>  <s_lp_Force_Field>  (20) 
S-OPLS

>  <s_lp_Variant>  (20) 
4cf_Grossjean_2025-1

>  <s_lp_label>  (20) 
136

>  <s_m_source_file>  (20) 
montpellier_ligands.smi

$$$$
4cg_Grossjean_2025
     RDKit          3D

  0  0  0  0  0  0  0  0  0  0999 V3000
M  V30 BEGIN CTAB
M  V30 COUNTS 46 49 0 0 1
M  V30 BEGIN ATOM
M  V30 1 O -0.622028 0.905685 -0.371952 0
M  V30 2 C 0.056820 -0.101883 -0.164849 0
M  V30 3 N -0.491781 -1.317172 0.045155 0
M  V30 4 C -1.921389 -1.621270 -0.004363 0
M  V30 5 C -2.474929 -1.704251 -1.421530 0
M  V30 6 C -2.315109 -2.879244 -2.161934 0
M  V30 7 C -2.846503 -2.970234 -3.445731 0
M  V30 8 C -3.545337 -1.890230 -3.980947 0
M  V30 9 C -3.722274 -0.722017 -3.242351 0
M  V30 10 C -3.192216 -0.631062 -1.957941 0
M  V30 11 C 1.515645 -0.036463 -0.089683 0
M  V30 12 C 2.342477 1.097280 -0.099573 0
M  V30 13 N 1.856856 2.379304 -0.138990 0
M  V30 14 C 3.752283 0.795890 -0.054289 0
M  V30 15 C 4.919540 1.611745 -0.027335 0
M  V30 16 C 4.897838 3.144595 -0.027488 0
M  V30 17 F 6.117119 3.685860 0.018536 0
M  V30 18 F 4.306430 3.586678 -1.137126 0
M  V30 19 F 4.225514 3.586377 1.035295 0
M  V30 20 C 6.160676 0.956687 0.006212 0
M  V30 21 C 6.247334 -0.439523 0.007982 0
M  V30 22 C 7.564845 -1.160106 0.046317 0
M  V30 23 C 8.736584 -0.543982 -0.423006 0
M  V30 24 C 9.960304 -1.207499 -0.391047 0
M  V30 25 C 10.030356 -2.502517 0.111142 0
M  V30 26 C 8.885266 -3.138011 0.578899 0
M  V30 27 C 7.663748 -2.471205 0.544591 0
M  V30 28 N 5.139217 -1.226015 -0.002956 0
M  V30 29 C 3.957565 -0.614925 -0.034627 0
M  V30 30 S 2.463059 -1.520719 -0.058114 0
M  V30 31 H 0.127096 -2.109474 0.135478 0
M  V30 32 H -2.075874 -2.582761 0.487107 0
M  V30 33 H -2.488671 -0.895911 0.583022 0
M  V30 34 H -1.776215 -3.718357 -1.746401 0
M  V30 35 H -2.719466 -3.874359 -4.022744 0
M  V30 36 H -3.957276 -1.960769 -4.976799 0
M  V30 37 H -4.269680 0.108453 -3.663082 0
M  V30 38 H -3.332392 0.274571 -1.385369 0
M  V30 39 H 2.468886 3.183009 -0.140388 0
M  V30 40 H 0.863738 2.563824 -0.176673 0
M  V30 41 H 7.067519 1.540554 0.043653 0
M  V30 42 H 8.714390 0.454169 -0.833314 0
M  V30 43 H 10.851437 -0.720012 -0.758233 0
M  V30 44 H 10.979062 -3.018433 0.135930 0
M  V30 45 H 8.943385 -4.144066 0.967517 0
M  V30 46 H 6.791121 -2.986527 0.918931 0
M  V30 END ATOM
M  V30 BEGIN BOND
M  V30 1 2 2 1
M  V30 2 1 3 2
M  V30 3 1 4 3
M  V30 4 1 5 4
M  V30 5 2 6 5
M  V30 6 1 7 6
M  V30 7 2 8 7
M  V30 8 1 9 8
M  V30 9 2 10 9
M  V30 10 1 10 5
M  V30 11 1 11 2
M  V30 12 2 12 11
M  V30 13 1 13 12
M  V30 14 1 14 12
M  V30 15 2 15 14
M  V30 16 1 16 15
M  V30 17 1 17 16
M  V30 18 1 18 16
M  V30 19 1 19 16
M  V30 20 1 20 15
M  V30 21 2 21 20
M  V30 22 1 22 21
M  V30 23 2 23 22
M  V30 24 1 24 23
M  V30 25 2 25 24
M  V30 26 1 26 25
M  V30 27 2 27 26
M  V30 28 1 27 22
M  V30 29 1 28 21
M  V30 30 2 29 28
M  V30 31 1 29 14
M  V30 32 1 30 29
M  V30 33 1 30 11
M  V30 34 1 31 3
M  V30 35 1 32 4
M  V30 36 1 33 4
M  V30 37 1 34 6
M  V30 38 1 35 7
M  V30 39 1 36 8
M  V30 40 1 37 9
M  V30 41 1 38 10
M  V30 42 1 39 13
M  V30 43 1 40 13
M  V30 44 1 41 20
M  V30 45 1 42 23
M  V30 46 1 43 24
M  V30 47 1 44 25
M  V30 48 1 45 26
M  V30 49 1 46 27
M  V30 END BOND
M  V30 END CTAB
M  END
>  <i_epik_Tot_Q>  (21) 
0

>  <i_epik_Tot_abs_Q>  (21) 
0

>  <i_f3d_flags>  (21) 
0

>  <i_lp_mmshare_version>  (21) 
71160

>  <i_lp_orig_ion_str>  (21) 
1

>  <i_m_source_file_index>  (21) 
137

>  <b_lp_Chiralities_Consistent>  (21) 
1

>  <r_epik_Charging_Adjusted_Penalty>  (21) 
0

>  <r_epik_Ionization_Penalty>  (21) 
0.00018211272272680121

>  <r_epik_Ionization_Penalty_Charging>  (21) 
0

>  <r_epik_Ionization_Penalty_Neutral>  (21) 
0.00018211272272680121

>  <r_epik_State_Penalty>  (21) 
-0

>  <r_lp_Energy>  (21) 
44.72186

>  <r_lp_tautomer_probability>  (21) 
1

>  <s_epik_cmdline>  (21) 
J2VwaWtfcHl0aG9uJywgJy1waHQnLCAnMC4yJywgJy1waCcsICc3LjQnLCAnLXJldGFpbl9pX2xhYicsICctcmV0YWluX3RfbGFiJywgJy10bicsICcxJywgJy1tYScsICc1MDAnLCAnLWltYWUnLCAnPGluZmlsZS5tYWU+JywgJy1vbWFlJywgJzxvdXRmaWxlLm1hZT4n

>  <s_epik_input>  (21) 
W2NIXTFbY0hdW2NIXVtjSF1bY0hdYzFbQ0gyXVtOSF1DKD1PKWMoYzJbTkgyXSlzYyhjMjMpbmMoW2NIXWMzQyhGKShGKUYpLWM0W2NIXVtjSF1bY0hdW2NIXVtjSF00

>  <s_lp_Force_Field>  (21) 
S-OPLS

>  <s_lp_Variant>  (21) 
4cg_Grossjean_2025-1

>  <s_lp_label>  (21) 
137

>  <s_m_source_file>  (21) 
montpellier_ligands.smi

$$$$
4ch_Grossjean_2025
     RDKit          3D

  0  0  0  0  0  0  0  0  0  0999 V3000
M  V30 BEGIN CTAB
M  V30 COUNTS 58 61 0 0 1
M  V30 BEGIN ATOM
M  V30 1 O -0.160053 1.909019 -1.874515 0
M  V30 2 C -0.544545 2.268482 -0.760099 0
M  V30 3 N -0.506465 1.456052 0.317201 0
M  V30 4 C 0.010811 0.087469 0.332236 0
M  V30 5 C 1.522388 -0.013264 0.158234 0
M  V30 6 C 2.374298 0.432364 1.169914 0
M  V30 7 C 3.767544 0.323740 1.037058 0
M  V30 8 O 4.669600 0.745407 1.997454 0
M  V30 9 C 4.186427 1.343011 3.195499 0
M  V30 10 C 4.293547 -0.244010 -0.132054 0
M  V30 11 O 5.655430 -0.370977 -0.268341 0
M  V30 12 C 6.280728 0.742041 -0.892367 0
M  V30 13 C 3.451795 -0.709840 -1.152137 0
M  V30 14 O 4.055446 -1.267274 -2.265183 0
M  V30 15 C 3.245368 -1.740406 -3.335648 0
M  V30 16 C 2.062220 -0.588367 -0.992844 0
M  V30 17 C -1.109389 3.600002 -0.539391 0
M  V30 18 C -1.387273 4.600967 -1.483207 0
M  V30 19 N -1.175398 4.442400 -2.829084 0
M  V30 20 C -1.927302 5.811631 -0.913861 0
M  V30 21 C -2.359847 7.044074 -1.482566 0
M  V30 22 C -2.340488 7.352108 -2.984148 0
M  V30 23 F -2.808063 8.567973 -3.275561 0
M  V30 24 F -1.090561 7.285145 -3.441779 0
M  V30 25 F -3.095465 6.467889 -3.635906 0
M  V30 26 C -2.836334 8.026852 -0.600413 0
M  V30 27 C -2.879440 7.806135 0.780203 0
M  V30 28 C -3.391698 8.841280 1.739945 0
M  V30 29 C -3.345316 10.207042 1.416688 0
M  V30 30 C -3.817897 11.171809 2.302656 0
M  V30 31 C -4.345602 10.783033 3.529274 0
M  V30 32 C -4.400662 9.437488 3.876288 0
M  V30 33 C -3.925280 8.476350 2.988406 0
M  V30 34 N -2.480012 6.630136 1.331331 0
M  V30 35 C -2.026170 5.692114 0.503541 0
M  V30 36 S -1.477832 4.141843 1.095499 0
M  V30 37 H -0.788162 1.834173 1.209775 0
M  V30 38 H -0.248063 -0.350262 1.297037 0
M  V30 39 H -0.509035 -0.514652 -0.415814 0
M  V30 40 H 1.934850 0.862964 2.056865 0
M  V30 41 H 5.031577 1.614982 3.827718 0
M  V30 42 H 3.558959 0.653355 3.761920 0
M  V30 43 H 3.622515 2.253958 2.988963 0
M  V30 44 H 7.353486 0.562793 -0.961430 0
M  V30 45 H 6.132965 1.658494 -0.318612 0
M  V30 46 H 5.903918 0.899438 -1.904392 0
M  V30 47 H 3.885672 -2.139549 -4.121989 0
M  V30 48 H 2.649796 -0.936859 -3.771464 0
M  V30 49 H 2.582086 -2.543396 -3.010795 0
M  V30 50 H 1.386288 -0.934877 -1.759943 0
M  V30 51 H -1.383369 5.174745 -3.493212 0
M  V30 52 H -0.796730 3.583070 -3.203195 0
M  V30 53 H -3.189981 8.967725 -0.993691 0
M  V30 54 H -2.928392 10.541734 0.478832 0
M  V30 55 H -3.772190 12.218374 2.039665 0
M  V30 56 H -4.712871 11.530520 4.217177 0
M  V30 57 H -4.811348 9.139419 4.829725 0
M  V30 58 H -3.984521 7.437945 3.280377 0
M  V30 END ATOM
M  V30 BEGIN BOND
M  V30 1 2 2 1
M  V30 2 1 3 2
M  V30 3 1 4 3
M  V30 4 1 5 4
M  V30 5 2 6 5
M  V30 6 1 7 6
M  V30 7 1 8 7
M  V30 8 1 9 8
M  V30 9 2 10 7
M  V30 10 1 11 10
M  V30 11 1 12 11
M  V30 12 1 13 10
M  V30 13 1 14 13
M  V30 14 1 15 14
M  V30 15 2 16 13
M  V30 16 1 16 5
M  V30 17 1 17 2
M  V30 18 2 18 17
M  V30 19 1 19 18
M  V30 20 1 20 18
M  V30 21 2 21 20
M  V30 22 1 22 21
M  V30 23 1 23 22
M  V30 24 1 24 22
M  V30 25 1 25 22
M  V30 26 1 26 21
M  V30 27 2 27 26
M  V30 28 1 28 27
M  V30 29 2 29 28
M  V30 30 1 30 29
M  V30 31 2 31 30
M  V30 32 1 32 31
M  V30 33 2 33 32
M  V30 34 1 33 28
M  V30 35 1 34 27
M  V30 36 2 35 34
M  V30 37 1 35 20
M  V30 38 1 36 35
M  V30 39 1 36 17
M  V30 40 1 37 3
M  V30 41 1 38 4
M  V30 42 1 39 4
M  V30 43 1 40 6
M  V30 44 1 41 9
M  V30 45 1 42 9
M  V30 46 1 43 9
M  V30 47 1 44 12
M  V30 48 1 45 12
M  V30 49 1 46 12
M  V30 50 1 47 15
M  V30 51 1 48 15
M  V30 52 1 49 15
M  V30 53 1 50 16
M  V30 54 1 51 19
M  V30 55 1 52 19
M  V30 56 1 53 26
M  V30 57 1 54 29
M  V30 58 1 55 30
M  V30 59 1 56 31
M  V30 60 1 57 32
M  V30 61 1 58 33
M  V30 END BOND
M  V30 END CTAB
M  END
>  <i_epik_Tot_Q>  (22) 
0

>  <i_epik_Tot_abs_Q>  (22) 
0

>  <i_f3d_flags>  (22) 
0

>  <i_lp_mmshare_version>  (22) 
71160

>  <i_lp_orig_ion_str>  (22) 
1

>  <i_m_source_file_index>  (22) 
138

>  <b_lp_Chiralities_Consistent>  (22) 
1

>  <r_epik_Charging_Adjusted_Penalty>  (22) 
0

>  <r_epik_Ionization_Penalty>  (22) 
0.00018431466022585409

>  <r_epik_Ionization_Penalty_Charging>  (22) 
0

>  <r_epik_Ionization_Penalty_Neutral>  (22) 
0.00018431466022585409

>  <r_epik_State_Penalty>  (22) 
-0

>  <r_lp_Energy>  (22) 
57.701588999999998

>  <r_lp_tautomer_probability>  (22) 
1

>  <s_epik_cmdline>  (22) 
J2VwaWtfcHl0aG9uJywgJy1waHQnLCAnMC4yJywgJy1waCcsICc3LjQnLCAnLXJldGFpbl9pX2xhYicsICctcmV0YWluX3RfbGFiJywgJy10bicsICcxJywgJy1tYScsICc1MDAnLCAnLWltYWUnLCAnPGluZmlsZS5tYWU+JywgJy1vbWFlJywgJzxvdXRmaWxlLm1hZT4n

>  <s_epik_input>  (22) 
W0NIM11PYyhbY0hdMSljKE9bQ0gzXSljKE9bQ0gzXSlbY0hdYzFbQ0gyXVtOSF1DKD1PKWMoYzJbTkgyXSlzYyhjMjMpbmMoW2NIXWMzQyhGKShGKUYpLWM0W2NIXVtjSF1bY0hdW2NIXVtjSF00

>  <s_lp_Force_Field>  (22) 
S-OPLS

>  <s_lp_Variant>  (22) 
4ch_Grossjean_2025-1

>  <s_lp_label>  (22) 
138

>  <s_m_source_file>  (22) 
montpellier_ligands.smi

$$$$
4ci_Grossjean_2025
     RDKit          3D

  0  0  0  0  0  0  0  0  0  0999 V3000
M  V30 BEGIN CTAB
M  V30 COUNTS 39 42 0 0 1
M  V30 BEGIN ATOM
M  V30 1 O -0.683090 1.027791 -0.088786 0
M  V30 2 C -0.025095 -0.011689 -0.007544 0
M  V30 3 N -0.574584 -1.248216 0.091775 0
M  V30 4 C -1.925030 -1.573535 0.112789 0
M  V30 5 N -2.931426 -0.719736 0.022263 0
M  V30 6 O -4.105394 -1.472487 0.085458 0
M  V30 7 C -3.763335 -2.776733 0.213391 0
M  V30 8 C -2.391664 -2.881782 0.234608 0
M  V30 9 C 1.439787 0.029214 -0.000724 0
M  V30 10 C 2.284440 1.150510 -0.034838 0
M  V30 11 N 1.818997 2.440024 -0.070416 0
M  V30 12 C 3.690872 0.829660 -0.024835 0
M  V30 13 C 4.869428 1.629707 -0.036862 0
M  V30 14 C 4.868627 3.162611 -0.055319 0
M  V30 15 F 6.095942 3.687405 -0.051596 0
M  V30 16 F 4.251543 3.599084 -1.153154 0
M  V30 17 F 4.233349 3.626623 1.020617 0
M  V30 18 C 6.102202 0.958238 -0.026315 0
M  V30 19 C 6.170005 -0.438918 -0.010272 0
M  V30 20 C 7.478974 -1.175452 0.006697 0
M  V30 21 C 8.644708 -0.583155 -0.506162 0
M  V30 22 C 9.861572 -1.259862 -0.491718 0
M  V30 23 C 9.930285 -2.544731 0.036119 0
M  V30 24 C 8.790553 -3.157236 0.545946 0
M  V30 25 C 7.575849 -2.477008 0.529403 0
M  V30 26 N 5.051527 -1.210499 0.014273 0
M  V30 27 C 3.877685 -0.583332 0.004351 0
M  V30 28 S 2.369941 -1.467277 0.028085 0
M  V30 29 H 0.060377 -2.029384 0.161950 0
M  V30 30 H -4.573128 -3.488781 0.275015 0
M  V30 31 H -1.805938 -3.784463 0.326173 0
M  V30 32 H 2.443582 3.233691 -0.095019 0
M  V30 33 H 0.828288 2.640575 -0.078865 0
M  V30 34 H 7.017856 1.529648 -0.016932 0
M  V30 35 H 8.622066 0.406188 -0.937317 0
M  V30 36 H 10.748280 -0.790450 -0.891679 0
M  V30 37 H 10.873629 -3.070812 0.048029 0
M  V30 38 H 8.847881 -4.155756 0.953719 0
M  V30 39 H 6.707478 -2.973454 0.937491 0
M  V30 END ATOM
M  V30 BEGIN BOND
M  V30 1 2 2 1
M  V30 2 1 3 2
M  V30 3 1 4 3
M  V30 4 2 5 4
M  V30 5 1 6 5
M  V30 6 1 7 6
M  V30 7 2 8 7
M  V30 8 1 8 4
M  V30 9 1 9 2
M  V30 10 2 10 9
M  V30 11 1 11 10
M  V30 12 1 12 10
M  V30 13 2 13 12
M  V30 14 1 14 13
M  V30 15 1 15 14
M  V30 16 1 16 14
M  V30 17 1 17 14
M  V30 18 1 18 13
M  V30 19 2 19 18
M  V30 20 1 20 19
M  V30 21 2 21 20
M  V30 22 1 22 21
M  V30 23 2 23 22
M  V30 24 1 24 23
M  V30 25 2 25 24
M  V30 26 1 25 20
M  V30 27 1 26 19
M  V30 28 2 27 26
M  V30 29 1 27 12
M  V30 30 1 28 27
M  V30 31 1 28 9
M  V30 32 1 29 3
M  V30 33 1 30 7
M  V30 34 1 31 8
M  V30 35 1 32 11
M  V30 36 1 33 11
M  V30 37 1 34 18
M  V30 38 1 35 21
M  V30 39 1 36 22
M  V30 40 1 37 23
M  V30 41 1 38 24
M  V30 42 1 39 25
M  V30 END BOND
M  V30 END CTAB
M  END
>  <i_epik_Tot_Q>  (23) 
0

>  <i_epik_Tot_abs_Q>  (23) 
0

>  <i_f3d_flags>  (23) 
0

>  <i_lp_mmshare_version>  (23) 
71160

>  <i_lp_orig_ion_str>  (23) 
1

>  <i_m_source_file_index>  (23) 
139

>  <b_lp_Chiralities_Consistent>  (23) 
1

>  <r_epik_Charging_Adjusted_Penalty>  (23) 
0

>  <r_epik_Ionization_Penalty>  (23) 
0.0048214392862073567

>  <r_epik_Ionization_Penalty_Charging>  (23) 
0

>  <r_epik_Ionization_Penalty_Neutral>  (23) 
0.0048214392862073567

>  <r_epik_State_Penalty>  (23) 
-0

>  <r_lp_Energy>  (23) 
40.681998999999998

>  <r_lp_tautomer_probability>  (23) 
1

>  <s_epik_cmdline>  (23) 
J2VwaWtfcHl0aG9uJywgJy1waHQnLCAnMC4yJywgJy1waCcsICc3LjQnLCAnLXJldGFpbl9pX2xhYicsICctcmV0YWluX3RfbGFiJywgJy10bicsICcxJywgJy1tYScsICc1MDAnLCAnLWltYWUnLCAnPGluZmlsZS5tYWU+JywgJy1vbWFlJywgJzxvdXRmaWxlLm1hZT4n

>  <s_epik_input>  (23) 
W2NIXTFbY0hdb25jMVtOSF1DKD1PKWMoYzJbTkgyXSlzYyhjMjMpbmMoW2NIXWMzQyhGKShGKUYpLWM0W2NIXVtjSF1bY0hdW2NIXVtjSF00

>  <s_lp_Force_Field>  (23) 
S-OPLS

>  <s_lp_Variant>  (23) 
4ci_Grossjean_2025-1

>  <s_lp_label>  (23) 
139

>  <s_m_source_file>  (23) 
montpellier_ligands.smi

$$$$
4cj_Grossjean_2025
     RDKit          3D

  0  0  0  0  0  0  0  0  0  0999 V3000
M  V30 BEGIN CTAB
M  V30 COUNTS 39 42 0 0 1
M  V30 BEGIN ATOM
M  V30 1 O -0.679562 1.020504 -0.136684 0
M  V30 2 C -0.018925 -0.016999 -0.051860 0
M  V30 3 N -0.566479 -1.254869 0.033283 0
M  V30 4 C -1.917950 -1.570823 0.029885 0
M  V30 5 N -2.937955 -0.751415 -0.107364 0
M  V30 6 C -4.087150 -1.396433 -0.064661 0
M  V30 7 C -4.013031 -2.775039 0.109060 0
M  V30 8 S -2.342180 -3.241742 0.221779 0
M  V30 9 C 1.445240 0.027337 -0.025617 0
M  V30 10 C 2.288055 1.150396 -0.048258 0
M  V30 11 N 1.820880 2.439096 -0.091559 0
M  V30 12 C 3.694738 0.831686 -0.021248 0
M  V30 13 C 4.872705 1.632862 -0.019061 0
M  V30 14 C 4.870641 3.165839 -0.033971 0
M  V30 15 F 6.097351 3.691502 -0.010071 0
M  V30 16 F 4.270211 3.603739 -1.140312 0
M  V30 17 F 4.218469 3.627381 1.032919 0
M  V30 18 C 6.105948 0.962207 -0.000603 0
M  V30 19 C 6.174221 -0.434926 0.009539 0
M  V30 20 C 7.482036 -1.172541 0.019470 0
M  V30 21 C 8.645484 -0.579916 -0.497519 0
M  V30 22 C 9.859892 -1.261322 -0.497849 0
M  V30 23 C 9.928217 -2.550631 0.019251 0
M  V30 24 C 8.790825 -3.162264 0.535357 0
M  V30 25 C 7.578673 -2.477286 0.534051 0
M  V30 26 N 5.056599 -1.207387 0.026853 0
M  V30 27 C 3.882775 -0.581178 0.008229 0
M  V30 28 S 2.377004 -1.467558 0.016824 0
M  V30 29 H 0.066637 -2.036531 0.117001 0
M  V30 30 H -5.004693 -0.835387 -0.164528 0
M  V30 31 H -4.812709 -3.498283 0.172384 0
M  V30 32 H 2.444544 3.233578 -0.110113 0
M  V30 33 H 0.829950 2.637913 -0.113024 0
M  V30 34 H 7.021251 1.533789 0.015570 0
M  V30 35 H 8.622387 0.412459 -0.922116 0
M  V30 36 H 10.744637 -0.791669 -0.901780 0
M  V30 37 H 10.869216 -3.080835 0.018058 0
M  V30 38 H 8.847263 -4.163842 0.935495 0
M  V30 39 H 6.711380 -2.973399 0.944752 0
M  V30 END ATOM
M  V30 BEGIN BOND
M  V30 1 2 2 1
M  V30 2 1 3 2
M  V30 3 1 4 3
M  V30 4 2 5 4
M  V30 5 1 6 5
M  V30 6 2 7 6
M  V30 7 1 8 7
M  V30 8 1 8 4
M  V30 9 1 9 2
M  V30 10 2 10 9
M  V30 11 1 11 10
M  V30 12 1 12 10
M  V30 13 2 13 12
M  V30 14 1 14 13
M  V30 15 1 15 14
M  V30 16 1 16 14
M  V30 17 1 17 14
M  V30 18 1 18 13
M  V30 19 2 19 18
M  V30 20 1 20 19
M  V30 21 2 21 20
M  V30 22 1 22 21
M  V30 23 2 23 22
M  V30 24 1 24 23
M  V30 25 2 25 24
M  V30 26 1 25 20
M  V30 27 1 26 19
M  V30 28 2 27 26
M  V30 29 1 27 12
M  V30 30 1 28 27
M  V30 31 1 28 9
M  V30 32 1 29 3
M  V30 33 1 30 6
M  V30 34 1 31 7
M  V30 35 1 32 11
M  V30 36 1 33 11
M  V30 37 1 34 18
M  V30 38 1 35 21
M  V30 39 1 36 22
M  V30 40 1 37 23
M  V30 41 1 38 24
M  V30 42 1 39 25
M  V30 END BOND
M  V30 END CTAB
M  END
>  <i_epik_Tot_Q>  (24) 
0

>  <i_epik_Tot_abs_Q>  (24) 
0

>  <i_f3d_flags>  (24) 
0

>  <i_lp_mmshare_version>  (24) 
71160

>  <i_lp_orig_ion_str>  (24) 
1

>  <i_m_source_file_index>  (24) 
140

>  <b_lp_Chiralities_Consistent>  (24) 
1

>  <r_epik_Charging_Adjusted_Penalty>  (24) 
0.029572697464073174

>  <r_epik_Ionization_Penalty>  (24) 
0.032677779430482584

>  <r_epik_Ionization_Penalty_Charging>  (24) 
0

>  <r_epik_Ionization_Penalty_Neutral>  (24) 
0.032677779430482584

>  <r_epik_State_Penalty>  (24) 
0.029572697464073174

>  <r_lp_Energy>  (24) 
44.588893999999996

>  <r_lp_tautomer_probability>  (24) 
0.99900048839916311

>  <s_epik_cmdline>  (24) 
J2VwaWtfcHl0aG9uJywgJy1waHQnLCAnMC4yJywgJy1waCcsICc3LjQnLCAnLXJldGFpbl9pX2xhYicsICctcmV0YWluX3RfbGFiJywgJy10bicsICcxJywgJy1tYScsICc1MDAnLCAnLWltYWUnLCAnPGluZmlsZS5tYWU+JywgJy1vbWFlJywgJzxvdXRmaWxlLm1hZT4n

>  <s_epik_input>  (24) 
czFbY0hdW2NIXW5jMVtOSF1DKD1PKWMoYzJbTkgyXSlzYyhjMjMpbmMoW2NIXWMzQyhGKShGKUYpLWM0W2NIXVtjSF1bY0hdW2NIXVtjSF00

>  <s_lp_Force_Field>  (24) 
S-OPLS

>  <s_lp_Variant>  (24) 
4cj_Grossjean_2025-1

>  <s_lp_label>  (24) 
140

>  <s_m_source_file>  (24) 
montpellier_ligands.smi

$$$$
4ck_Grossjean_2025
     RDKit          3D

  0  0  0  0  0  0  0  0  0  0999 V3000
M  V30 BEGIN CTAB
M  V30 COUNTS 57 59 0 0 1
M  V30 BEGIN ATOM
M  V30 1 O 0.269387 4.124800 0.368094 0
M  V30 2 C 0.262284 3.354990 1.330396 0
M  V30 3 N -0.151285 2.074492 1.235426 0
M  V30 4 C -0.607135 1.408548 0.014176 0
M  V30 5 C -0.076746 -0.029314 -0.092849 0
M  V30 6 O 1.345333 -0.014268 -0.096618 0
M  V30 7 C 1.933483 -1.306538 -0.140649 0
M  V30 8 C 3.458597 -1.156916 -0.096992 0
M  V30 9 O 4.053706 -2.447538 -0.096483 0
M  V30 10 C 5.474042 -2.418245 -0.054533 0
M  V30 11 C 6.004848 -3.856540 -0.039648 0
M  V30 12 O 7.425013 -3.826507 -0.002653 0
M  V30 13 C 8.016036 -5.116721 0.021730 0
M  V30 14 C 0.696390 3.790307 2.658136 0
M  V30 15 C 1.059188 5.078361 3.081179 0
M  V30 16 N 1.012977 6.177137 2.261583 0
M  V30 17 C 1.482074 5.147162 4.458702 0
M  V30 18 C 1.921044 6.219244 5.287793 0
M  V30 19 C 2.034797 7.675551 4.822540 0
M  V30 20 F 2.460023 8.500323 5.782257 0
M  V30 21 F 2.899123 7.760083 3.811548 0
M  V30 22 F 0.842362 8.114285 4.419859 0
M  V30 23 C 2.271521 5.906619 6.610810 0
M  V30 24 C 2.185734 4.597631 7.096200 0
M  V30 25 C 2.572546 4.239751 8.502394 0
M  V30 26 C 2.516901 5.196222 9.529320 0
M  V30 27 C 2.877095 4.871002 10.834545 0
M  V30 28 C 3.299144 3.579615 11.132508 0
M  V30 29 C 3.359242 2.611818 10.135712 0
M  V30 30 C 2.996876 2.940789 8.832426 0
M  V30 31 N 1.770664 3.567764 6.313038 0
M  V30 32 C 1.436629 3.853484 5.056810 0
M  V30 33 S 0.886766 2.613243 3.954722 0
M  V30 34 H -0.212952 1.531166 2.084043 0
M  V30 35 H -1.697629 1.405336 0.008001 0
M  V30 36 H -0.295287 1.960444 -0.875178 0
M  V30 37 H -0.444566 -0.619466 0.749111 0
M  V30 38 H -0.448486 -0.492453 -1.008654 0
M  V30 39 H 1.598171 -1.905315 0.708449 0
M  V30 40 H 1.635225 -1.827007 -1.052629 0
M  V30 41 H 3.798252 -0.582968 -0.961312 0
M  V30 42 H 3.748810 -0.606437 0.800106 0
M  V30 43 H 5.867256 -1.887397 -0.923669 0
M  V30 44 H 5.816370 -1.890723 0.837965 0
M  V30 45 H 5.614415 -4.384352 0.832476 0
M  V30 46 H 5.660085 -4.387036 -0.929457 0
M  V30 47 H 9.101352 -5.019732 0.046621 0
M  V30 48 H 7.752984 -5.692512 -0.866956 0
M  V30 49 H 7.711113 -5.677466 0.906638 0
M  V30 50 H 1.273548 7.097815 2.585449 0
M  V30 51 H 0.719096 6.100621 1.297341 0
M  V30 52 H 2.628779 6.687402 7.264704 0
M  V30 53 H 2.180160 6.202956 9.333164 0
M  V30 54 H 2.826346 5.617536 11.613484 0
M  V30 55 H 3.579972 3.326281 12.144180 0
M  V30 56 H 3.686648 1.609850 10.371312 0
M  V30 57 H 3.058397 2.172194 8.075682 0
M  V30 END ATOM
M  V30 BEGIN BOND
M  V30 1 2 2 1
M  V30 2 1 3 2
M  V30 3 1 4 3
M  V30 4 1 5 4
M  V30 5 1 6 5
M  V30 6 1 7 6
M  V30 7 1 8 7
M  V30 8 1 9 8
M  V30 9 1 10 9
M  V30 10 1 11 10
M  V30 11 1 12 11
M  V30 12 1 13 12
M  V30 13 1 14 2
M  V30 14 2 15 14
M  V30 15 1 16 15
M  V30 16 1 17 15
M  V30 17 2 18 17
M  V30 18 1 19 18
M  V30 19 1 20 19
M  V30 20 1 21 19
M  V30 21 1 22 19
M  V30 22 1 23 18
M  V30 23 2 24 23
M  V30 24 1 25 24
M  V30 25 2 26 25
M  V30 26 1 27 26
M  V30 27 2 28 27
M  V30 28 1 29 28
M  V30 29 2 30 29
M  V30 30 1 30 25
M  V30 31 1 31 24
M  V30 32 2 32 31
M  V30 33 1 32 17
M  V30 34 1 33 32
M  V30 35 1 33 14
M  V30 36 1 34 3
M  V30 37 1 35 4
M  V30 38 1 36 4
M  V30 39 1 37 5
M  V30 40 1 38 5
M  V30 41 1 39 7
M  V30 42 1 40 7
M  V30 43 1 41 8
M  V30 44 1 42 8
M  V30 45 1 43 10
M  V30 46 1 44 10
M  V30 47 1 45 11
M  V30 48 1 46 11
M  V30 49 1 47 13
M  V30 50 1 48 13
M  V30 51 1 49 13
M  V30 52 1 50 16
M  V30 53 1 51 16
M  V30 54 1 52 23
M  V30 55 1 53 26
M  V30 56 1 54 27
M  V30 57 1 55 28
M  V30 58 1 56 29
M  V30 59 1 57 30
M  V30 END BOND
M  V30 END CTAB
M  END
>  <i_epik_Tot_Q>  (25) 
0

>  <i_epik_Tot_abs_Q>  (25) 
0

>  <i_f3d_flags>  (25) 
0

>  <i_lp_mmshare_version>  (25) 
71160

>  <i_lp_orig_ion_str>  (25) 
1

>  <i_m_source_file_index>  (25) 
141

>  <b_lp_Chiralities_Consistent>  (25) 
1

>  <r_epik_Charging_Adjusted_Penalty>  (25) 
0

>  <r_epik_Ionization_Penalty>  (25) 
0.00018111835961626409

>  <r_epik_Ionization_Penalty_Charging>  (25) 
0

>  <r_epik_Ionization_Penalty_Neutral>  (25) 
0.00018111835961626409

>  <r_epik_State_Penalty>  (25) 
-0

>  <r_lp_Energy>  (25) 
48.585499999999996

>  <r_lp_tautomer_probability>  (25) 
1

>  <s_epik_cmdline>  (25) 
J2VwaWtfcHl0aG9uJywgJy1waHQnLCAnMC4yJywgJy1waCcsICc3LjQnLCAnLXJldGFpbl9pX2xhYicsICctcmV0YWluX3RfbGFiJywgJy10bicsICcxJywgJy1tYScsICc1MDAnLCAnLWltYWUnLCAnPGluZmlsZS5tYWU+JywgJy1vbWFlJywgJzxvdXRmaWxlLm1hZT4n

>  <s_epik_input>  (25) 
W2NIXTFbY0hdW2NIXVtjSF1bY0hdYzEtYyhbY0hdYzJDKEYpKEYpRiluYyhjMjMpc2MoYzNbTkgyXSlDKD1PKVtOSF1bQ0gyXVtDSDJdT1tDSDJdW0NIMl1PW0NIMl1bQ0gyXU9bQ0gzXQ==

>  <s_lp_Force_Field>  (25) 
S-OPLS

>  <s_lp_Variant>  (25) 
4ck_Grossjean_2025-1

>  <s_lp_label>  (25) 
141

>  <s_m_source_file>  (25) 
montpellier_ligands.smi

$$$$
