1a_Ghoteimi_2023
     RDKit          3D

 40 43  0  0  0  0  0  0  0  0999 V2000
  133.4290  131.7050   59.3860 C   0  0  0  0  0  0  0  0  0  0  0  0
  133.2620  130.9600   58.0580 C   0  0  0  0  0  0  0  0  0  0  0  0
  133.2860  131.8950   56.9870 O   0  0  0  0  0  0  0  0  0  0  0  0
  132.4370  132.9550   56.9610 C   0  0  0  0  0  0  0  0  0  0  0  0
  132.7770  134.1060   57.2480 O   0  0  0  0  0  0  0  0  0  0  0  0
  131.0420  132.5860   56.5450 C   0  0  0  0  0  0  0  0  0  0  0  0
  130.5960  132.7450   55.2240 C   0  0  0  0  0  0  0  0  0  0  0  0
  129.2950  132.3980   54.8680 C   0  0  0  0  0  0  0  0  0  0  0  0
  128.4160  131.8790   55.8300 C   0  0  0  0  0  0  0  0  0  0  0  0
  127.0820  131.5000   55.5830 N   0  0  0  0  0  0  0  0  0  0  0  0
  126.5280  130.2690   55.5280 C   0  0  0  0  0  0  0  0  0  0  0  0
  127.1230  129.2070   55.7100 O   0  0  0  0  0  0  0  0  0  0  0  0
  125.0320  130.2360   55.2190 C   0  0  0  0  0  0  0  0  0  0  0  0
  124.0390  130.7880   56.6370 S   0  0  0  0  0  0  0  0  0  0  0  0
  124.5000  129.7450   58.0010 C   0  0  0  0  0  0  0  0  0  0  0  0
  124.8580  128.4910   57.6370 N   0  0  0  0  0  0  0  0  0  0  0  0
  125.2380  127.5950   58.5850 C   0  0  0  0  0  0  0  0  0  0  0  0
  125.6410  126.2320   58.1000 C   0  0  0  0  0  0  0  0  0  0  0  0
  124.6980  125.2000   57.9590 C   0  0  0  0  0  0  0  0  0  0  0  0
  125.0740  123.9380   57.5090 C   0  0  0  0  0  0  0  0  0  0  0  0
  126.4010  123.6660   57.1870 C   0  0  0  0  0  0  0  0  0  0  0  0
  126.6830  122.3870   56.7450 O   0  0  0  0  0  0  0  0  0  0  0  0
  126.6350  122.1090   55.3500 C   0  0  0  0  0  0  0  0  0  0  0  0
  127.3550  124.6840   57.3260 C   0  0  0  0  0  0  0  0  0  0  0  0
  126.9760  125.9450   57.7770 C   0  0  0  0  0  0  0  0  0  0  0  0
  125.2620  127.9570   59.9380 C   0  0  0  0  0  0  0  0  0  0  0  0
  124.8720  129.2400   60.3410 C   0  0  0  0  0  0  0  0  0  0  0  0
  124.8910  129.5450   61.8040 C   0  0  0  0  0  0  0  0  0  0  0  0
  123.7800  130.1190   62.4310 C   0  0  0  0  0  0  0  0  0  0  0  0
  123.8010  130.3860   63.7980 C   0  0  0  0  0  0  0  0  0  0  0  0
  124.9260  130.0800   64.5630 C   0  0  0  0  0  0  0  0  0  0  0  0
  124.8540  130.3800   65.9090 O   0  0  0  0  0  0  0  0  0  0  0  0
  124.5500  129.3440   66.8360 C   0  0  0  0  0  0  0  0  0  0  0  0
  126.0390  129.4970   63.9380 C   0  0  0  0  0  0  0  0  0  0  0  0
  126.0160  129.2320   62.5710 C   0  0  0  0  0  0  0  0  0  0  0  0
  124.4820  130.1700   59.3470 C   0  0  0  0  0  0  0  0  0  0  0  0
  124.0780  131.5330   59.7060 C   0  0  0  0  0  0  0  0  0  0  0  0
  123.7590  132.6090   59.9900 N   0  0  0  0  0  0  0  0  0  0  0  0
  128.8550  131.7240   57.1450 C   0  0  0  0  0  0  0  0  0  0  0  0
  130.1560  132.0720   57.5000 C   0  0  0  0  0  0  0  0  0  0  0  0
  1  2  1  0
  2  3  1  0
  3  4  1  0
  4  5  2  0
  4  6  1  0
  6  7  2  0
  7  8  1  0
  8  9  2  0
  9 10  1  0
 10 11  1  0
 11 12  2  0
 11 13  1  0
 13 14  1  0
 14 15  1  0
 15 16  2  0
 16 17  1  0
 17 18  1  0
 18 19  2  0
 19 20  1  0
 20 21  2  0
 21 22  1  0
 22 23  1  0
 21 24  1  0
 24 25  2  0
 17 26  2  0
 26 27  1  0
 27 28  1  0
 28 29  2  0
 29 30  1  0
 30 31  2  0
 31 32  1  0
 32 33  1  0
 31 34  1  0
 34 35  2  0
 27 36  2  0
 36 37  1  0
 37 38  3  0
  9 39  1  0
 39 40  2  0
 40  6  1  0
 36 15  1  0
 25 18  1  0
 35 28  1  0
M  END
>  <Binding energies>  (1) 
[-9.5]

>  <Ligand effiencies>  (1) 
[-0.23170731707317074]

>  <Interactions>  (1) 
["V-B:ARG:545:CD:9894, V-B:ARG:545:CG:9893, V-B:ASP:366:CG:8183, V-B:TYR:531:CZ:9765, V-B:ASP:366:CB:8182, H-B:TYR:531:OH:9766, V-B:MET:535:CE:9806, H-B:TYR:539:N:9841, V-B:TYR:531:CE2:9764, V-B:LEU:363:CD1:8159, V-B:GLY:454:CA:9019, V-B:MET:535:CG:9804, V-B:ILE:538:CD1:9836, V-B:ILE:538:CA:9831, V-A:ASP:366:CB:3211, H-B:TYR:484:OH:9318, V-A:ASN:362:C:3171, V-A:TYR:531:CE2:4792, V-A:LEU:363:CA:3184, H-A:TYR:531:OH:4794, V-A:LEU:363:CD1:3188, V-A:PRO:540:CA:4882, V-A:TYR:531:CZ:4793, V-A:PRO:540:CD:4886, V-A:ILE:538:CG2:4862, V-A:PRO:540:N:4883, V-A:PRO:540:CB:4884, V-A:TYR:539:CE1:4874, V-A:MET:535:CG:4832, V-B:ILE:538:C:9829, V-B:GLY:453:CA:9014, H-B:GLY:454:N:9020, V-B:ILE:369:CG2:8207, V-B:ILE:369:CB:8206, V-A:TYR:539:CZ:4876, V-B:TYR:531:CE1:9763, V-B:TYR:531:CD1:9761, H-A:TYR:539:OH:4877"]

$$$$
1b_Ghoteimi_2023
     RDKit          3D

 34 37  0  0  0  0  0  0  0  0999 V2000
  126.8140  122.1280   55.3710 C   0  0  0  0  0  0  0  0  0  0  0  0
  126.5910  122.3550   56.7570 O   0  0  0  0  0  0  0  0  0  0  0  0
  126.2500  123.6240   57.1860 C   0  0  0  0  0  0  0  0  0  0  0  0
  127.2760  124.5660   57.2250 C   0  0  0  0  0  0  0  0  0  0  0  0
  127.0260  125.8700   57.6450 C   0  0  0  0  0  0  0  0  0  0  0  0
  125.7400  126.2720   58.0340 C   0  0  0  0  0  0  0  0  0  0  0  0
  125.4750  127.6800   58.4890 C   0  0  0  0  0  0  0  0  0  0  0  0
  125.2680  128.0210   59.8300 C   0  0  0  0  0  0  0  0  0  0  0  0
  125.0290  129.3500   60.2010 C   0  0  0  0  0  0  0  0  0  0  0  0
  124.8110  129.6400   61.6500 C   0  0  0  0  0  0  0  0  0  0  0  0
  123.7160  130.4050   62.0600 C   0  0  0  0  0  0  0  0  0  0  0  0
  123.5140  130.6850   63.4080 C   0  0  0  0  0  0  0  0  0  0  0  0
  124.4040  130.2100   64.3720 C   0  0  0  0  0  0  0  0  0  0  0  0
  124.1240  130.5380   65.6850 O   0  0  0  0  0  0  0  0  0  0  0  0
  124.1820  129.5230   66.6810 C   0  0  0  0  0  0  0  0  0  0  0  0
  125.5090  129.4490   63.9650 C   0  0  0  0  0  0  0  0  0  0  0  0
  125.7090  129.1710   62.6160 C   0  0  0  0  0  0  0  0  0  0  0  0
  125.0140  130.3410   59.1890 C   0  0  0  0  0  0  0  0  0  0  0  0
  124.8630  131.7580   59.5360 C   0  0  0  0  0  0  0  0  0  0  0  0
  124.7440  132.8760   59.8110 N   0  0  0  0  0  0  0  0  0  0  0  0
  125.2090  129.9270   57.8530 C   0  0  0  0  0  0  0  0  0  0  0  0
  125.2140  131.0290   56.4540 S   0  0  0  0  0  0  0  0  0  0  0  0
  126.5050  130.4610   55.2960 C   0  0  0  0  0  0  0  0  0  0  0  0
  127.9420  130.8210   55.6980 C   0  0  0  0  0  0  0  0  0  0  0  0
  128.7880  129.9410   55.8680 O   0  0  0  0  0  0  0  0  0  0  0  0
  128.1720  132.1460   55.8430 N   0  0  0  0  0  0  0  0  0  0  0  0
  129.3680  132.7580   56.1960 C   0  0  0  0  0  0  0  0  0  0  0  0
  130.2120  132.2640   57.1900 C   0  0  0  0  0  0  0  0  0  0  0  0
  131.2700  133.1430   57.2300 C   0  0  0  0  0  0  0  0  0  0  0  0
  131.0750  134.1150   56.3070 O   0  0  0  0  0  0  0  0  0  0  0  0
  129.8660  133.8600   55.6580 N   0  0  0  0  0  0  0  0  0  0  0  0
  125.4530  128.6350   57.5230 N   0  0  0  0  0  0  0  0  0  0  0  0
  124.7150  125.3140   57.9920 C   0  0  0  0  0  0  0  0  0  0  0  0
  124.9600  124.0100   57.5750 C   0  0  0  0  0  0  0  0  0  0  0  0
  1  2  1  0
  2  3  1  0
  3  4  2  0
  4  5  1  0
  5  6  2  0
  6  7  1  0
  7  8  2  0
  8  9  1  0
  9 10  1  0
 10 11  2  0
 11 12  1  0
 12 13  2  0
 13 14  1  0
 14 15  1  0
 13 16  1  0
 16 17  2  0
  9 18  2  0
 18 19  1  0
 19 20  3  0
 18 21  1  0
 21 22  1  0
 22 23  1  0
 23 24  1  0
 24 25  2  0
 24 26  1  0
 26 27  1  0
 27 28  1  0
 28 29  2  0
 29 30  1  0
 30 31  1  0
 21 32  2  0
  6 33  1  0
 33 34  2  0
 34  3  1  0
 32  7  1  0
 17 10  1  0
 31 27  2  0
M  END
>  <Binding energies>  (2) 
[-9.22]

>  <Ligand effiencies>  (2) 
[-0.26342857142857146]

>  <Interactions>  (2) 
["V-B:ARG:545:CD:9894, V-B:ARG:545:CG:9893, V-B:ASP:366:CG:8183, V-B:TYR:531:CZ:9765, V-B:ASP:366:CB:8182, H-B:TYR:531:OH:9766, V-B:MET:535:CE:9806, H-B:TYR:539:N:9841, V-B:TYR:531:CE2:9764, V-B:LEU:363:CD1:8159, V-B:GLY:453:C:9012, V-B:ARG:545:CZ:9897, V-B:GLY:454:CA:9019, V-B:MET:535:CG:9804, V-B:TYR:539:CD1:9844, V-B:ILE:538:CD1:9836, V-B:ILE:538:CA:9831, H-B:TYR:484:OH:9318, H-A:TYR:531:OH:4794, V-A:PRO:540:CA:4882, V-A:TYR:539:CD1:4872, V-A:PRO:540:CD:4886, V-A:PRO:540:N:4883, V-A:TYR:539:C:4866, V-A:TYR:539:CE1:4874, H-A:TYR:539:N:4869, V-A:MET:535:CE:4834, V-B:ILE:538:C:9829, V-B:GLY:453:CA:9014, H-B:GLY:454:N:9020, V-A:TYR:539:CZ:4876, H-A:TYR:539:OH:4877"]

$$$$
1c_Ghoteimi_2023
     RDKit          3D

 34 37  0  0  0  0  0  0  0  0999 V2000
  123.3780  132.5750   61.5760 C   0  0  0  0  0  0  0  0  0  0  0  0
  123.5970  132.3530   60.1880 O   0  0  0  0  0  0  0  0  0  0  0  0
  124.0640  131.1230   59.7660 C   0  0  0  0  0  0  0  0  0  0  0  0
  124.6380  130.3060   60.7360 C   0  0  0  0  0  0  0  0  0  0  0  0
  125.1380  129.0500   60.4000 C   0  0  0  0  0  0  0  0  0  0  0  0
  125.0780  128.5750   59.0810 C   0  0  0  0  0  0  0  0  0  0  0  0
  125.6200  127.2240   58.7130 C   0  0  0  0  0  0  0  0  0  0  0  0
  126.9880  126.9730   58.5600 C   0  0  0  0  0  0  0  0  0  0  0  0
  127.4480  125.6900   58.2430 C   0  0  0  0  0  0  0  0  0  0  0  0
  128.9240  125.4800   58.1620 C   0  0  0  0  0  0  0  0  0  0  0  0
  129.5910  124.7320   59.1360 C   0  0  0  0  0  0  0  0  0  0  0  0
  130.9690  124.5550   59.0710 C   0  0  0  0  0  0  0  0  0  0  0  0
  131.7070  125.1260   58.0340 C   0  0  0  0  0  0  0  0  0  0  0  0
  133.0700  124.8980   58.0490 O   0  0  0  0  0  0  0  0  0  0  0  0
  133.6640  124.3110   59.2030 C   0  0  0  0  0  0  0  0  0  0  0  0
  131.0420  125.8830   57.0570 C   0  0  0  0  0  0  0  0  0  0  0  0
  129.6630  126.0580   57.1250 C   0  0  0  0  0  0  0  0  0  0  0  0
  126.4950  124.6610   58.0510 C   0  0  0  0  0  0  0  0  0  0  0  0
  126.9100  123.3030   57.6840 C   0  0  0  0  0  0  0  0  0  0  0  0
  127.2400  122.2320   57.3950 N   0  0  0  0  0  0  0  0  0  0  0  0
  125.1340  124.9790   58.2370 C   0  0  0  0  0  0  0  0  0  0  0  0
  123.8450  123.7520   58.1960 S   0  0  0  0  0  0  0  0  0  0  0  0
  123.0130  123.8950   59.8110 C   0  0  0  0  0  0  0  0  0  0  0  0
  123.9670  123.6220   60.9790 C   0  0  0  0  0  0  0  0  0  0  0  0
  123.7320  122.6910   61.7510 O   0  0  0  0  0  0  0  0  0  0  0  0
  125.0480  124.4300   61.0400 N   0  0  0  0  0  0  0  0  0  0  0  0
  126.1310  124.3000   61.8950 C   0  0  0  0  0  0  0  0  0  0  0  0
  126.5030  123.2360   62.5730 N   0  0  0  0  0  0  0  0  0  0  0  0
  127.6090  123.4600   63.2560 C   0  0  0  0  0  0  0  0  0  0  0  0
  128.1590  124.7320   63.1370 C   0  0  0  0  0  0  0  0  0  0  0  0
  127.1660  125.6810   62.0720 S   0  0  0  0  0  0  0  0  0  0  0  0
  124.7120  126.2230   58.5680 N   0  0  0  0  0  0  0  0  0  0  0  0
  124.4920  129.4040   58.1130 C   0  0  0  0  0  0  0  0  0  0  0  0
  123.9930  130.6600   58.4450 C   0  0  0  0  0  0  0  0  0  0  0  0
  1  2  1  0
  2  3  1  0
  3  4  2  0
  4  5  1  0
  5  6  2  0
  6  7  1  0
  7  8  2  0
  8  9  1  0
  9 10  1  0
 10 11  2  0
 11 12  1  0
 12 13  2  0
 13 14  1  0
 14 15  1  0
 13 16  1  0
 16 17  2  0
  9 18  2  0
 18 19  1  0
 19 20  3  0
 18 21  1  0
 21 22  1  0
 22 23  1  0
 23 24  1  0
 24 25  2  0
 24 26  1  0
 26 27  1  0
 27 28  2  0
 28 29  1  0
 29 30  2  0
 30 31  1  0
 21 32  2  0
  6 33  1  0
 33 34  2  0
 34  3  1  0
 32  7  1  0
 17 10  1  0
 31 27  1  0
M  END
>  <Binding energies>  (3) 
[-7.86]

>  <Ligand effiencies>  (3) 
[-0.2245714285714286]

>  <Interactions>  (3) 
["V-B:GLU:543:CD:9879, V-B:ASP:366:CG:8183, V-B:LEU:363:CB:8157, V-B:ASP:366:CB:8182, V-B:PRO:540:N:9855, V-B:LEU:363:CA:8155, H-B:TYR:531:OH:9766, V-B:PRO:540:CB:9856, V-B:MET:535:CE:9806, H-B:TYR:539:N:9841, V-B:PRO:540:CA:9854, V-B:LEU:363:CD1:8159, V-B:TYR:539:CE2:9847, V-A:ILE:369:CB:3235, V-B:ALA:541:CB:9863, H-B:TYR:539:OH:9849, V-B:TYR:539:CZ:9848, V-A:ASP:366:CG:3212, V-A:ILE:369:CG2:3236, V-A:ILE:369:CD1:3238, V-A:ASP:366:CB:3211, V-B:GLU:543:CG:9878, H-B:ASP:366:OD1:8184, H-B:ALA:541:N:9862, V-B:ASP:366:CA:8180, V-B:ILE:369:CG1:8208, V-B:ILE:369:CG2:8207, V-A:ASP:366:CA:3209, V-B:ASN:362:CB:8146, V-B:ASN:362:C:8142"]

$$$$
1d_Ghoteimi_2023
     RDKit          3D

 30 32  0  0  0  0  0  0  0  0999 V2000
  124.6130  129.2950   64.4550 C   0  0  0  0  0  0  0  0  0  0  0  0
  124.0740  130.0510   65.5280 O   0  0  0  0  0  0  0  0  0  0  0  0
  123.9420  129.5020   66.7540 C   0  0  0  0  0  0  0  0  0  0  0  0
  123.0000  129.6700   67.5300 O   0  0  0  0  0  0  0  0  0  0  0  0
  125.1260  128.6110   67.1210 C   0  0  0  0  0  0  0  0  0  0  0  0
  126.6410  129.5880   66.8820 S   0  0  0  0  0  0  0  0  0  0  0  0
  128.0060  128.5640   67.3870 C   0  0  0  0  0  0  0  0  0  0  0  0
  128.0470  128.3280   68.7200 N   0  0  0  0  0  0  0  0  0  0  0  0
  129.0400  127.5640   69.2420 C   0  0  0  0  0  0  0  0  0  0  0  0
  129.0100  127.3470   70.7270 C   0  0  0  0  0  0  0  0  0  0  0  0
  129.7120  128.1910   71.6020 C   0  0  0  0  0  0  0  0  0  0  0  0
  129.6880  127.9830   72.9780 C   0  0  0  0  0  0  0  0  0  0  0  0
  128.9640  126.9260   73.5230 C   0  0  0  0  0  0  0  0  0  0  0  0
  129.0000  126.7940   74.8980 O   0  0  0  0  0  0  0  0  0  0  0  0
  130.2240  127.0270   75.5850 C   0  0  0  0  0  0  0  0  0  0  0  0
  128.2570  126.0740   72.6630 C   0  0  0  0  0  0  0  0  0  0  0  0
  128.2830  126.2850   71.2870 C   0  0  0  0  0  0  0  0  0  0  0  0
  130.0210  127.0060   68.4140 C   0  0  0  0  0  0  0  0  0  0  0  0
  130.0110  127.2460   67.0340 C   0  0  0  0  0  0  0  0  0  0  0  0
  131.0930  126.6260   66.2100 C   0  0  0  0  0  0  0  0  0  0  0  0
  132.3910  126.5180   66.7180 C   0  0  0  0  0  0  0  0  0  0  0  0
  133.4030  125.9410   65.9550 C   0  0  0  0  0  0  0  0  0  0  0  0
  133.1380  125.4560   64.6750 C   0  0  0  0  0  0  0  0  0  0  0  0
  134.2040  124.9060   63.9890 O   0  0  0  0  0  0  0  0  0  0  0  0
  133.9990  124.4040   62.6730 C   0  0  0  0  0  0  0  0  0  0  0  0
  131.8330  125.5500   64.1660 C   0  0  0  0  0  0  0  0  0  0  0  0
  130.8230  126.1270   64.9310 C   0  0  0  0  0  0  0  0  0  0  0  0
  128.9870  128.0670   66.4990 C   0  0  0  0  0  0  0  0  0  0  0  0
  128.9880  128.4360   65.0810 C   0  0  0  0  0  0  0  0  0  0  0  0
  128.9900  128.7260   63.9600 N   0  0  0  0  0  0  0  0  0  0  0  0
  1  2  1  0
  2  3  1  0
  3  4  2  0
  3  5  1  0
  5  6  1  0
  6  7  1  0
  7  8  2  0
  8  9  1  0
  9 10  1  0
 10 11  2  0
 11 12  1  0
 12 13  2  0
 13 14  1  0
 14 15  1  0
 13 16  1  0
 16 17  2  0
  9 18  2  0
 18 19  1  0
 19 20  1  0
 20 21  2  0
 21 22  1  0
 22 23  2  0
 23 24  1  0
 24 25  1  0
 23 26  1  0
 26 27  2  0
 19 28  2  0
 28 29  1  0
 29 30  3  0
 28  7  1  0
 17 10  1  0
 27 20  1  0
M  END
>  <Binding energies>  (4) 
[-8.11]

>  <Ligand effiencies>  (4) 
[-0.2703333333333333]

>  <Interactions>  (4) 
["V-A:HIS:456:CE1:4069, V-B:GLU:543:C:9873, V-B:ARG:545:CD:9894, V-B:GLU:543:CD:9879, V-B:HIS:456:CE1:9040, V-B:ARG:545:CG:9893, V-A:ARG:545:CZ:4925, V-A:ARG:545:CD:4922, V-A:ARG:545:CG:4921, V-B:ARG:545:CZ:9897, H-B:LYS:547:NZ:9922, V-A:ASP:366:CG:3212, V-A:ILE:369:CD1:3238, V-A:GLU:543:CD:4907, H-B:TYR:484:OH:9318, H-A:GLY:454:N:4049, H-B:GLY:454:N:9020, H-A:ARG:545:NH1:4926, H-B:ILE:455:N:9025"]

$$$$
1j_Grossjean_2025
     RDKit          3D

 20 21  0  0  0  0  0  0  0  0999 V2000
  124.5600  123.5480   63.2580 C   0  0  0  0  0  0  0  0  0  0  0  0
  125.0900  123.5640   61.8360 C   0  0  0  0  0  0  0  0  0  0  0  0
  124.2670  123.8690   60.7550 C   0  0  0  0  0  0  0  0  0  0  0  0
  124.8140  123.8810   59.4680 C   0  0  0  0  0  0  0  0  0  0  0  0
  123.8950  124.2350   58.2990 C   0  0  0  0  0  0  0  0  0  0  0  0
  126.1830  123.5770   59.2960 C   0  0  0  0  0  0  0  0  0  0  0  0
  126.7880  123.6360   57.9630 C   0  0  0  0  0  0  0  0  0  0  0  0
  127.2640  123.6840   56.9090 N   0  0  0  0  0  0  0  0  0  0  0  0
  126.9370  123.2540   60.4480 C   0  0  0  0  0  0  0  0  0  0  0  0
  128.6690  122.8440   60.4160 S   0  0  0  0  0  0  0  0  0  0  0  0
  129.1880  122.5050   62.1250 C   0  0  0  0  0  0  0  0  0  0  0  0
  130.2090  121.3680   62.2000 C   0  0  0  0  0  0  0  0  0  0  0  0
  131.2420  121.5260   62.8510 O   0  0  0  0  0  0  0  0  0  0  0  0
  129.8810  120.2450   61.5240 N   0  0  0  0  0  0  0  0  0  0  0  0
  130.6360  119.0840   61.4300 C   0  0  0  0  0  0  0  0  0  0  0  0
  130.3200  117.8800   61.8560 N   0  0  0  0  0  0  0  0  0  0  0  0
  131.2770  117.0100   61.5990 C   0  0  0  0  0  0  0  0  0  0  0  0
  132.4020  117.5060   60.9480 C   0  0  0  0  0  0  0  0  0  0  0  0
  132.1850  119.2070   60.6600 S   0  0  0  0  0  0  0  0  0  0  0  0
  126.4030  123.2650   61.6950 N   0  0  0  0  0  0  0  0  0  0  0  0
  1  2  1  0
  2  3  2  0
  3  4  1  0
  4  5  1  0
  4  6  2  0
  6  7  1  0
  7  8  3  0
  6  9  1  0
  9 10  1  0
 10 11  1  0
 11 12  1  0
 12 13  2  0
 12 14  1  0
 14 15  1  0
 15 16  2  0
 16 17  1  0
 17 18  2  0
 18 19  1  0
  9 20  2  0
 20  2  1  0
 19 15  1  0
M  END
>  <Binding energies>  (5) 
[-7.1]

>  <Ligand effiencies>  (5) 
[-0.33809523809523806]

>  <Interactions>  (5) 
["V-B:GLU:543:CD:9879, V-B:ASP:366:CG:8183, V-B:ASP:366:CB:8182, V-B:PRO:540:N:9855, V-B:LEU:363:CA:8155, H-B:TYR:531:OH:9766, V-B:PRO:540:CB:9856, V-B:TYR:539:CD2:9845, V-B:TYR:539:C:9838, V-B:PRO:540:CA:9854, V-B:LEU:363:CD1:8159, V-B:ARG:545:CZ:9897, V-A:LEU:475:CD2:4258, V-A:PRO:482:CG:4326, V-B:ALA:541:CB:9863, V-A:SER:385:CB:3408, V-A:HIS:383:CE1:3393, V-A:PRO:482:CB:4325, V-A:SER:385:CA:3406, V-B:ALA:541:C:9859, V-B:GLU:543:CG:9878, H-B:ALA:541:N:9862, V-B:PRO:540:C:9852, V-B:ASN:362:CB:8146, H-B:TYR:539:O:9839"]

$$$$
1o_Grossjean_2025
     RDKit          3D

 26 27  0  0  0  0  0  0  0  0999 V2000
  132.3560  133.7260   56.3780 C   0  0  0  0  0  0  0  0  0  0  0  0
  131.0150  134.0680   56.6990 O   0  0  0  0  0  0  0  0  0  0  0  0
  129.9770  133.5890   55.9660 C   0  0  0  0  0  0  0  0  0  0  0  0
  129.3840  134.2540   55.1110 O   0  0  0  0  0  0  0  0  0  0  0  0
  129.6220  132.1680   56.2970 C   0  0  0  0  0  0  0  0  0  0  0  0
  128.8750  131.3660   55.4220 C   0  0  0  0  0  0  0  0  0  0  0  0
  128.5650  130.0500   55.7580 C   0  0  0  0  0  0  0  0  0  0  0  0
  128.9900  129.5120   56.9730 C   0  0  0  0  0  0  0  0  0  0  0  0
  128.6290  128.1700   57.2070 N   0  0  0  0  0  0  0  0  0  0  0  0
  129.2270  127.0290   56.7970 C   0  0  0  0  0  0  0  0  0  0  0  0
  130.2720  126.9680   56.1500 O   0  0  0  0  0  0  0  0  0  0  0  0
  128.5280  125.7290   57.2220 C   0  0  0  0  0  0  0  0  0  0  0  0
  129.4930  124.6850   57.8190 C   0  0  0  0  0  0  0  0  0  0  0  0
  128.6980  123.1080   58.2500 S   0  0  0  0  0  0  0  0  0  0  0  0
  127.1460  123.4580   59.0500 C   0  0  0  0  0  0  0  0  0  0  0  0
  127.2440  123.5540   60.4000 N   0  0  0  0  0  0  0  0  0  0  0  0
  126.1280  123.8270   61.1170 C   0  0  0  0  0  0  0  0  0  0  0  0
  126.3180  123.9340   62.6180 C   0  0  0  0  0  0  0  0  0  0  0  0
  124.8790  124.0000   60.5250 C   0  0  0  0  0  0  0  0  0  0  0  0
  124.7620  123.8770   59.1370 C   0  0  0  0  0  0  0  0  0  0  0  0
  123.3780  124.0580   58.5130 C   0  0  0  0  0  0  0  0  0  0  0  0
  125.9120  123.5890   58.3680 C   0  0  0  0  0  0  0  0  0  0  0  0
  125.7980  123.3990   56.9200 C   0  0  0  0  0  0  0  0  0  0  0  0
  125.7060  123.2500   55.7760 N   0  0  0  0  0  0  0  0  0  0  0  0
  129.7430  130.3060   57.8510 C   0  0  0  0  0  0  0  0  0  0  0  0
  130.0520  131.6210   57.5130 C   0  0  0  0  0  0  0  0  0  0  0  0
  1  2  1  0
  2  3  1  0
  3  4  2  0
  3  5  1  0
  5  6  2  0
  6  7  1  0
  7  8  2  0
  8  9  1  0
  9 10  1  0
 10 11  2  0
 10 12  1  0
 12 13  1  0
 13 14  1  0
 14 15  1  0
 15 16  2  0
 16 17  1  0
 17 18  1  0
 17 19  2  0
 19 20  1  0
 20 21  1  0
 20 22  2  0
 22 23  1  0
 23 24  3  0
  8 25  1  0
 25 26  2  0
 26  5  1  0
 22 15  1  0
M  END
>  <Binding energies>  (6) 
[-8.36]

>  <Ligand effiencies>  (6) 
[-0.3096296296296296]

>  <Interactions>  (6) 
["V-B:GLU:543:CD:9879, V-B:ASP:366:CG:8183, V-B:LEU:363:CB:8157, V-B:ASP:366:CB:8182, V-B:PRO:540:N:9855, V-B:LEU:363:CA:8155, H-B:TYR:531:OH:9766, V-B:PRO:540:CB:9856, V-B:MET:535:CE:9806, V-B:PRO:540:CA:9854, V-B:LEU:363:CD1:8159, V-B:TYR:539:CE2:9847, V-B:TYR:539:CZ:9848, V-A:TYR:531:CE2:4792, H-A:TYR:531:OH:4794, V-A:LEU:363:CD1:3188, V-A:TYR:539:CD1:4872, V-A:PRO:540:CD:4886, V-A:ILE:538:CG2:4862, V-A:PRO:540:N:4883, V-A:PRO:540:CB:4884, V-A:TYR:539:CE1:4874, H-A:TYR:539:N:4869, V-A:ILE:538:CB:4861, V-A:ILE:538:CA:4859, V-A:MET:535:CE:4834, V-A:TYR:539:CZ:4876, V-A:ILE:538:C:4857, V-A:TYR:539:CG:4871"]

$$$$
1p_Grossjean_2025
     RDKit          3D

 21 22  0  0  0  0  0  0  0  0999 V2000
  129.7650  116.7550   60.6200 C   0  0  0  0  0  0  0  0  0  0  0  0
  130.6650  117.9740   60.7060 C   0  0  0  0  0  0  0  0  0  0  0  0
  131.9270  117.9910   60.1150 C   0  0  0  0  0  0  0  0  0  0  0  0
  132.7190  119.1370   60.2370 C   0  0  0  0  0  0  0  0  0  0  0  0
  134.1050  119.1280   59.5940 C   0  0  0  0  0  0  0  0  0  0  0  0
  132.2180  120.2510   60.9480 C   0  0  0  0  0  0  0  0  0  0  0  0
  133.0460  121.4440   61.1300 C   0  0  0  0  0  0  0  0  0  0  0  0
  133.7020  122.3880   61.2740 N   0  0  0  0  0  0  0  0  0  0  0  0
  130.9170  120.1540   61.4950 C   0  0  0  0  0  0  0  0  0  0  0  0
  130.1320  121.4630   62.4080 S   0  0  0  0  0  0  0  0  0  0  0  0
  128.9140  122.2230   61.2960 C   0  0  0  0  0  0  0  0  0  0  0  0
  129.4970  123.3340   60.4010 C   0  0  0  0  0  0  0  0  0  0  0  0
  128.7170  123.5430   59.0940 C   0  0  0  0  0  0  0  0  0  0  0  0
  128.8440  124.6000   58.4730 O   0  0  0  0  0  0  0  0  0  0  0  0
  127.9360  122.5080   58.7080 N   0  0  0  0  0  0  0  0  0  0  0  0
  127.1350  122.4370   57.5760 C   0  0  0  0  0  0  0  0  0  0  0  0
  125.8040  122.8530   57.5580 C   0  0  0  0  0  0  0  0  0  0  0  0
  125.3740  122.6210   56.2710 C   0  0  0  0  0  0  0  0  0  0  0  0
  126.3910  122.0910   55.5530 O   0  0  0  0  0  0  0  0  0  0  0  0
  127.5020  121.9780   56.3910 N   0  0  0  0  0  0  0  0  0  0  0  0
  130.1640  119.0290   61.3890 N   0  0  0  0  0  0  0  0  0  0  0  0
  1  2  1  0
  2  3  2  0
  3  4  1  0
  4  5  1  0
  4  6  2  0
  6  7  1  0
  7  8  3  0
  6  9  1  0
  9 10  1  0
 10 11  1  0
 11 12  1  0
 12 13  1  0
 13 14  2  0
 13 15  1  0
 15 16  1  0
 16 17  1  0
 17 18  2  0
 18 19  1  0
 19 20  1  0
  9 21  2  0
 21  2  1  0
 20 16  2  0
M  END
>  <Binding energies>  (7) 
[-8.22]

>  <Ligand effiencies>  (7) 
[-0.37363636363636366]

>  <Interactions>  (7) 
["V-B:PRO:540:N:9855, V-B:PRO:540:CB:9856, V-B:TYR:539:CD2:9845, V-B:TYR:539:C:9838, H-B:TYR:539:N:9841, V-B:TYR:531:CE2:9764, V-B:PRO:540:CA:9854, V-B:LEU:363:CD1:8159, V-B:TYR:539:CE2:9847, V-A:LEU:475:CD2:4258, V-A:PRO:482:CG:4326, V-B:ALA:541:CB:9863, V-B:VAL:344:CG1:7971, V-B:TYR:539:CA:9840, V-A:ILE:369:CG2:3236, V-B:TYR:539:CB:9842, V-B:TYR:539:CG:9843, V-A:HIS:383:CE1:3393, V-A:PRO:482:CB:4325, V-A:SER:385:CA:3406, V-B:PRO:540:CD:9858, V-A:LEU:373:CD2:3280, H-B:TYR:539:O:9839, V-A:VAL:384:C:3396"]

$$$$
2a_Ghoteimi_2023
     RDKit          3D

 48 53  0  0  0  0  0  0  0  0999 V2000
  129.4650  138.6560   61.0000 C   0  0  0  0  0  0  0  0  0  0  0  0
  129.3570  137.6220   62.1250 C   0  0  0  0  0  0  0  0  0  0  0  0
  127.9860  137.3550   62.3900 O   0  0  0  0  0  0  0  0  0  0  0  0
  127.1930  136.7660   61.4580 C   0  0  0  0  0  0  0  0  0  0  0  0
  127.0040  137.2340   60.3310 O   0  0  0  0  0  0  0  0  0  0  0  0
  126.5730  135.4830   61.9330 C   0  0  0  0  0  0  0  0  0  0  0  0
  125.3820  134.9850   61.3840 C   0  0  0  0  0  0  0  0  0  0  0  0
  124.8350  133.7920   61.8460 C   0  0  0  0  0  0  0  0  0  0  0  0
  125.4650  133.0700   62.8610 C   0  0  0  0  0  0  0  0  0  0  0  0
  124.8230  131.8800   63.2540 N   0  0  0  0  0  0  0  0  0  0  0  0
  124.8280  130.6610   62.6720 C   0  0  0  0  0  0  0  0  0  0  0  0
  125.3910  130.3840   61.6130 O   0  0  0  0  0  0  0  0  0  0  0  0
  124.0200  129.5840   63.4080 C   0  0  0  0  0  0  0  0  0  0  0  0
  124.0460  129.7320   65.2240 S   0  0  0  0  0  0  0  0  0  0  0  0
  125.7360  129.4580   65.7040 C   0  0  0  0  0  0  0  0  0  0  0  0
  126.6350  129.7540   64.7360 N   0  0  0  0  0  0  0  0  0  0  0  0
  127.9580  129.5780   64.9790 C   0  0  0  0  0  0  0  0  0  0  0  0
  128.8920  129.9160   63.8610 C   0  0  0  0  0  0  0  0  0  0  0  0
  129.5910  128.9170   63.1730 C   0  0  0  0  0  0  0  0  0  0  0  0
  130.4680  129.2390   62.1410 C   0  0  0  0  0  0  0  0  0  0  0  0
  130.6730  130.5700   61.7520 C   0  0  0  0  0  0  0  0  0  0  0  0
  131.5800  130.8810   60.7340 N   0  0  0  0  0  0  0  0  0  0  0  0
  133.0390  130.8080   60.9530 C   0  0  0  0  0  0  0  0  0  0  0  0
  133.8660  130.8260   59.6500 C   0  0  0  0  0  0  0  0  0  0  0  0
  133.5250  131.9630   58.8730 O   0  0  0  0  0  0  0  0  0  0  0  0
  132.1530  131.9510   58.5140 C   0  0  0  0  0  0  0  0  0  0  0  0
  131.2720  131.9670   59.7800 C   0  0  0  0  0  0  0  0  0  0  0  0
  129.9790  131.5690   62.4540 C   0  0  0  0  0  0  0  0  0  0  0  0
  129.1010  131.2470   63.4840 C   0  0  0  0  0  0  0  0  0  0  0  0
  128.4100  129.1090   66.2150 C   0  0  0  0  0  0  0  0  0  0  0  0
  127.4980  128.7960   67.2320 C   0  0  0  0  0  0  0  0  0  0  0  0
  128.0490  128.2930   68.5270 C   0  0  0  0  0  0  0  0  0  0  0  0
  127.6130  127.0730   69.0500 C   0  0  0  0  0  0  0  0  0  0  0  0
  128.1050  126.6060   70.2650 C   0  0  0  0  0  0  0  0  0  0  0  0
  129.0510  127.3430   70.9930 C   0  0  0  0  0  0  0  0  0  0  0  0
  129.5440  126.9010   72.2230 N   0  0  0  0  0  0  0  0  0  0  0  0
  129.2760  125.5140   72.6540 C   0  0  0  0  0  0  0  0  0  0  0  0
  130.1860  125.0470   73.8100 C   0  0  0  0  0  0  0  0  0  0  0  0
  130.0790  125.9450   74.9050 O   0  0  0  0  0  0  0  0  0  0  0  0
  130.4690  127.2610   74.5440 C   0  0  0  0  0  0  0  0  0  0  0  0
  129.5710  127.7850   73.4050 C   0  0  0  0  0  0  0  0  0  0  0  0
  129.4740  128.5720   70.4670 C   0  0  0  0  0  0  0  0  0  0  0  0
  128.9810  129.0410   69.2520 C   0  0  0  0  0  0  0  0  0  0  0  0
  126.1170  128.9790   66.9770 C   0  0  0  0  0  0  0  0  0  0  0  0
  125.1180  128.7230   68.0200 C   0  0  0  0  0  0  0  0  0  0  0  0
  124.3320  128.5180   68.8450 N   0  0  0  0  0  0  0  0  0  0  0  0
  126.6520  133.5650   63.4210 C   0  0  0  0  0  0  0  0  0  0  0  0
  127.1990  134.7590   62.9570 C   0  0  0  0  0  0  0  0  0  0  0  0
  1  2  1  0
  2  3  1  0
  3  4  1  0
  4  5  2  0
  4  6  1  0
  6  7  2  0
  7  8  1  0
  8  9  2  0
  9 10  1  0
 10 11  1  0
 11 12  2  0
 11 13  1  0
 13 14  1  0
 14 15  1  0
 15 16  2  0
 16 17  1  0
 17 18  1  0
 18 19  2  0
 19 20  1  0
 20 21  2  0
 21 22  1  0
 22 23  1  0
 23 24  1  0
 24 25  1  0
 25 26  1  0
 26 27  1  0
 21 28  1  0
 28 29  2  0
 17 30  2  0
 30 31  1  0
 31 32  1  0
 32 33  2  0
 33 34  1  0
 34 35  2  0
 35 36  1  0
 36 37  1  0
 37 38  1  0
 38 39  1  0
 39 40  1  0
 40 41  1  0
 35 42  1  0
 42 43  2  0
 31 44  2  0
 44 45  1  0
 45 46  3  0
  9 47  1  0
 47 48  2  0
 48  6  1  0
 44 15  1  0
 29 18  1  0
 43 32  1  0
 27 22  1  0
 41 36  1  0
M  END
>  <Binding energies>  (8) 
[-10.95]

>  <Ligand effiencies>  (8) 
[-0.22346938775510203]

>  <Interactions>  (8) 
["V-B:GLU:543:CB:9877, V-A:HIS:456:CE1:4069, V-A:HIS:456:CD2:4067, V-B:ARG:545:CD:9894, V-B:GLU:543:CD:9879, V-B:HIS:456:CE1:9040, V-A:HIS:456:CG:4065, V-B:ARG:545:CG:9893, V-B:ASP:366:CG:8183, V-B:LEU:475:CD1:9228, V-B:ARG:545:CZ:9897, H-B:LYS:547:NZ:9922, V-A:ASP:366:CG:3212, V-A:GLU:543:CD:4907, V-A:GLU:543:CG:4906, V-A:ASP:366:CB:3211, V-A:GLU:543:CB:4905, H-B:TYR:484:OH:9318, V-A:ASN:362:C:3171, V-A:PRO:540:C:4880, V-A:LEU:363:CA:3184, V-A:PRO:540:CA:4882, V-A:PRO:540:N:4883, V-A:PRO:540:CB:4884, V-A:TYR:539:C:4866, V-A:ALA:541:CB:4891, H-B:GLY:454:N:9020, H-B:HIS:456:ND1:9037, H-B:ARG:545:NH2:9899, H-B:ARG:545:NE:9895, V-A:ALA:541:CA:4889, V-B:SER:385:CB:8379, V-A:TYR:539:CA:4868, V-A:TYR:539:CB:4870, H-B:SER:385:OG:8380, H-B:HIS:383:NE2:8364, V-B:PRO:482:CB:9296, V-B:PRO:482:CG:9297, V-B:PRO:482:CD:9298, V-A:VAL:344:CG1:3000, V-A:VAL:344:CB:2999, V-A:VAL:344:CG2:3001"]

$$$$
2aa_Ghoteimi_2023
     RDKit          3D

 48 53  0  0  0  0  0  0  0  0999 V2000
  130.4090  123.9130   73.9740 C   0  0  0  0  0  0  0  0  0  0  0  0
  129.3890  124.7140   73.1580 C   0  0  0  0  0  0  0  0  0  0  0  0
  128.8640  125.7630   73.9610 O   0  0  0  0  0  0  0  0  0  0  0  0
  128.0370  126.7040   73.4350 C   0  0  0  0  0  0  0  0  0  0  0  0
  127.1840  127.3070   74.0950 O   0  0  0  0  0  0  0  0  0  0  0  0
  128.2750  126.9510   71.9730 C   0  0  0  0  0  0  0  0  0  0  0  0
  127.4670  126.3700   70.9830 C   0  0  0  0  0  0  0  0  0  0  0  0
  127.7100  126.6210   69.6360 C   0  0  0  0  0  0  0  0  0  0  0  0
  128.7660  127.4480   69.2490 C   0  0  0  0  0  0  0  0  0  0  0  0
  128.9180  127.6360   67.8620 N   0  0  0  0  0  0  0  0  0  0  0  0
  128.7500  128.7490   67.1160 C   0  0  0  0  0  0  0  0  0  0  0  0
  128.4430  129.8580   67.5580 O   0  0  0  0  0  0  0  0  0  0  0  0
  128.9970  128.5550   65.6140 C   0  0  0  0  0  0  0  0  0  0  0  0
  129.8950  127.4590   65.4120 O   0  0  0  0  0  0  0  0  0  0  0  0
  130.1860  127.0240   64.1260 C   0  0  0  0  0  0  0  0  0  0  0  0
  130.2700  127.9590   63.1380 N   0  0  0  0  0  0  0  0  0  0  0  0
  130.5570  127.5690   61.8710 C   0  0  0  0  0  0  0  0  0  0  0  0
  130.6280  128.6490   60.8380 C   0  0  0  0  0  0  0  0  0  0  0  0
  131.0040  129.9500   61.1890 C   0  0  0  0  0  0  0  0  0  0  0  0
  131.0780  130.9580   60.2310 C   0  0  0  0  0  0  0  0  0  0  0  0
  130.7910  130.6990   58.8820 C   0  0  0  0  0  0  0  0  0  0  0  0
  130.8480  131.7020   57.9080 N   0  0  0  0  0  0  0  0  0  0  0  0
  129.6290  132.3940   57.4430 C   0  0  0  0  0  0  0  0  0  0  0  0
  129.8270  133.1980   56.1410 C   0  0  0  0  0  0  0  0  0  0  0  0
  130.9020  134.1120   56.2930 O   0  0  0  0  0  0  0  0  0  0  0  0
  132.1190  133.4390   56.5770 C   0  0  0  0  0  0  0  0  0  0  0  0
  131.9880  132.6420   57.8930 C   0  0  0  0  0  0  0  0  0  0  0  0
  130.3930  129.3980   58.5390 C   0  0  0  0  0  0  0  0  0  0  0  0
  130.3170  128.3920   59.4980 C   0  0  0  0  0  0  0  0  0  0  0  0
  130.7520  126.2210   61.5560 C   0  0  0  0  0  0  0  0  0  0  0  0
  130.6610  125.2390   62.5510 C   0  0  0  0  0  0  0  0  0  0  0  0
  130.8540  123.8120   62.1490 C   0  0  0  0  0  0  0  0  0  0  0  0
  132.1410  123.2880   62.0050 C   0  0  0  0  0  0  0  0  0  0  0  0
  132.3280  121.9660   61.6120 C   0  0  0  0  0  0  0  0  0  0  0  0
  131.2330  121.1330   61.3370 C   0  0  0  0  0  0  0  0  0  0  0  0
  131.3970  119.8010   60.9450 N   0  0  0  0  0  0  0  0  0  0  0  0
  130.6340  118.7120   61.5840 C   0  0  0  0  0  0  0  0  0  0  0  0
  130.6790  117.3860   60.7950 C   0  0  0  0  0  0  0  0  0  0  0  0
  132.0260  116.9980   60.5750 O   0  0  0  0  0  0  0  0  0  0  0  0
  132.7370  117.9760   59.8310 C   0  0  0  0  0  0  0  0  0  0  0  0
  132.7470  119.3160   60.5940 C   0  0  0  0  0  0  0  0  0  0  0  0
  129.9450  121.6660   61.4910 C   0  0  0  0  0  0  0  0  0  0  0  0
  129.7580  122.9870   61.8850 C   0  0  0  0  0  0  0  0  0  0  0  0
  130.3840  125.6550   63.8740 C   0  0  0  0  0  0  0  0  0  0  0  0
  130.3200  124.7040   64.9860 C   0  0  0  0  0  0  0  0  0  0  0  0
  130.2690  123.9520   65.8650 N   0  0  0  0  0  0  0  0  0  0  0  0
  129.5730  128.0380   70.2320 C   0  0  0  0  0  0  0  0  0  0  0  0
  129.3260  127.7880   71.5800 C   0  0  0  0  0  0  0  0  0  0  0  0
  1  2  1  0
  2  3  1  0
  3  4  1  0
  4  5  2  0
  4  6  1  0
  6  7  2  0
  7  8  1  0
  8  9  2  0
  9 10  1  0
 10 11  1  0
 11 12  2  0
 11 13  1  0
 13 14  1  0
 14 15  1  0
 15 16  2  0
 16 17  1  0
 17 18  1  0
 18 19  2  0
 19 20  1  0
 20 21  2  0
 21 22  1  0
 22 23  1  0
 23 24  1  0
 24 25  1  0
 25 26  1  0
 26 27  1  0
 21 28  1  0
 28 29  2  0
 17 30  2  0
 30 31  1  0
 31 32  1  0
 32 33  2  0
 33 34  1  0
 34 35  2  0
 35 36  1  0
 36 37  1  0
 37 38  1  0
 38 39  1  0
 39 40  1  0
 40 41  1  0
 35 42  1  0
 42 43  2  0
 31 44  2  0
 44 45  1  0
 45 46  3  0
  9 47  1  0
 47 48  2  0
 48  6  1  0
 44 15  1  0
 29 18  1  0
 43 32  1  0
 27 22  1  0
 41 36  1  0
M  END
>  <Binding energies>  (9) 
[-11.5]

>  <Ligand effiencies>  (9) 
[-0.23469387755102042]

>  <Interactions>  (9) 
["V-B:GLU:543:CB:9877, V-A:HIS:456:CE1:4069, V-B:GLU:543:C:9873, V-B:GLY:544:C:9883, V-A:HIS:456:CD2:4067, V-B:GLU:543:CD:9879, V-B:HIS:456:CE1:9040, V-A:HIS:456:CG:4065, V-B:TYR:539:CD2:9845, V-B:TYR:539:CE2:9847, H-B:LYS:547:NZ:9922, V-A:LEU:475:CD2:4258, V-A:PRO:482:CG:4326, V-B:ALA:541:CB:9863, H-B:GLU:543:OE2:9881, V-A:HIS:383:CE1:3393, V-A:PRO:482:CB:4325, V-A:GLU:543:CD:4907, V-A:GLU:543:CG:4906, V-A:SER:385:CA:3406, V-A:GLU:543:CB:4905, H-B:TYR:484:OH:9318, H-A:TYR:484:OH:4347, V-A:TYR:531:CE2:4792, V-A:LEU:363:CD1:3188, V-A:PRO:540:CA:4882, V-A:TYR:539:CD1:4872, V-A:PRO:540:CD:4886, V-A:PRO:540:N:4883, V-A:PRO:540:CB:4884, V-A:TYR:539:CE1:4874, H-A:TYR:539:N:4869, V-A:ILE:538:CB:4861, H-A:ARG:545:NH2:4927, V-B:LYS:547:CE:9921, H-A:HIS:383:ND1:3390"]

$$$$
2b_Ghoteimi_2023
     RDKit          3D

 42 47  0  0  0  0  0  0  0  0999 V2000
  124.0080  130.0510   59.3210 N   0  0  0  0  0  0  0  0  0  0  0  0
  124.4560  129.8460   60.3680 C   0  0  0  0  0  0  0  0  0  0  0  0
  125.0260  129.5800   61.6920 C   0  0  0  0  0  0  0  0  0  0  0  0
  125.7080  128.3650   61.9520 C   0  0  0  0  0  0  0  0  0  0  0  0
  125.9020  127.2880   60.9360 C   0  0  0  0  0  0  0  0  0  0  0  0
  125.9820  125.9520   61.3330 C   0  0  0  0  0  0  0  0  0  0  0  0
  126.1630  124.9440   60.3910 C   0  0  0  0  0  0  0  0  0  0  0  0
  126.2870  125.2470   59.0250 C   0  0  0  0  0  0  0  0  0  0  0  0
  126.4560  124.2530   58.0600 N   0  0  0  0  0  0  0  0  0  0  0  0
  127.5710  123.2950   58.2020 C   0  0  0  0  0  0  0  0  0  0  0  0
  127.8730  122.5110   56.9080 C   0  0  0  0  0  0  0  0  0  0  0  0
  126.6980  121.8630   56.4440 O   0  0  0  0  0  0  0  0  0  0  0  0
  125.6620  122.7910   56.1640 C   0  0  0  0  0  0  0  0  0  0  0  0
  125.2990  123.5740   57.4430 C   0  0  0  0  0  0  0  0  0  0  0  0
  126.2080  126.5910   58.6370 C   0  0  0  0  0  0  0  0  0  0  0  0
  126.0230  127.5990   59.5790 C   0  0  0  0  0  0  0  0  0  0  0  0
  126.2400  128.1590   63.2310 C   0  0  0  0  0  0  0  0  0  0  0  0
  126.1240  129.1470   64.2130 C   0  0  0  0  0  0  0  0  0  0  0  0
  126.7000  128.9880   65.5840 C   0  0  0  0  0  0  0  0  0  0  0  0
  125.8790  128.6700   66.6710 C   0  0  0  0  0  0  0  0  0  0  0  0
  126.4100  128.5050   67.9470 C   0  0  0  0  0  0  0  0  0  0  0  0
  127.7840  128.6650   68.1880 C   0  0  0  0  0  0  0  0  0  0  0  0
  128.3370  128.4730   69.4590 N   0  0  0  0  0  0  0  0  0  0  0  0
  128.2340  127.1530   70.1140 C   0  0  0  0  0  0  0  0  0  0  0  0
  128.5270  127.1910   71.6300 C   0  0  0  0  0  0  0  0  0  0  0  0
  129.7980  127.7780   71.8640 O   0  0  0  0  0  0  0  0  0  0  0  0
  129.8520  129.1100   71.3810 C   0  0  0  0  0  0  0  0  0  0  0  0
  129.5960  129.1320   69.8590 C   0  0  0  0  0  0  0  0  0  0  0  0
  128.6050  128.9770   67.0940 C   0  0  0  0  0  0  0  0  0  0  0  0
  128.0720  129.1390   65.8180 C   0  0  0  0  0  0  0  0  0  0  0  0
  125.4710  130.3100   63.9620 N   0  0  0  0  0  0  0  0  0  0  0  0
  124.9200  130.5190   62.7430 C   0  0  0  0  0  0  0  0  0  0  0  0
  124.1000  132.0910   62.5920 S   0  0  0  0  0  0  0  0  0  0  0  0
  124.6480  132.8470   61.0320 C   0  0  0  0  0  0  0  0  0  0  0  0
  125.8830  133.7290   61.2220 C   0  0  0  0  0  0  0  0  0  0  0  0
  126.9800  133.1990   61.4100 O   0  0  0  0  0  0  0  0  0  0  0  0
  125.6600  135.0600   61.1720 N   0  0  0  0  0  0  0  0  0  0  0  0
  126.5960  136.0760   61.3020 C   0  0  0  0  0  0  0  0  0  0  0  0
  127.5370  136.1160   62.3300 C   0  0  0  0  0  0  0  0  0  0  0  0
  128.2650  137.2610   62.1050 C   0  0  0  0  0  0  0  0  0  0  0  0
  127.7870  137.8790   60.9990 O   0  0  0  0  0  0  0  0  0  0  0  0
  126.7290  137.1170   60.4970 N   0  0  0  0  0  0  0  0  0  0  0  0
  1  2  3  0
  2  3  1  0
  3  4  2  0
  4  5  1  0
  5  6  2  0
  6  7  1  0
  7  8  2  0
  8  9  1  0
  9 10  1  0
 10 11  1  0
 11 12  1  0
 12 13  1  0
 13 14  1  0
  8 15  1  0
 15 16  2  0
  4 17  1  0
 17 18  2  0
 18 19  1  0
 19 20  2  0
 20 21  1  0
 21 22  2  0
 22 23  1  0
 23 24  1  0
 24 25  1  0
 25 26  1  0
 26 27  1  0
 27 28  1  0
 22 29  1  0
 29 30  2  0
 18 31  1  0
 31 32  2  0
 32 33  1  0
 33 34  1  0
 34 35  1  0
 35 36  2  0
 35 37  1  0
 37 38  1  0
 38 39  1  0
 39 40  2  0
 40 41  1  0
 41 42  1  0
 32  3  1  0
 42 38  2  0
 16  5  1  0
 30 19  1  0
 14  9  1  0
 28 23  1  0
M  END
>  <Binding energies>  (10) 
[-11.43]

>  <Ligand effiencies>  (10) 
[-0.2658139534883721]

>  <Interactions>  (10) 
["V-B:GLU:543:CB:9877, V-A:HIS:456:CE1:4069, V-B:GLU:543:CD:9879, V-B:HIS:456:CE1:9040, V-B:ASP:366:CG:8183, V-B:ASP:366:CB:8182, V-B:PRO:540:N:9855, V-B:PRO:540:CB:9856, V-B:TYR:539:CD2:9845, V-B:TYR:539:C:9838, V-B:MET:535:CE:9806, H-B:TYR:539:N:9841, V-B:TYR:531:CE2:9764, V-B:PRO:540:CA:9854, V-B:LEU:363:CD1:8159, V-B:TYR:539:CE2:9847, V-B:TYR:539:CZ:9848, V-B:TYR:539:CE1:9846, V-B:TYR:539:CA:9840, V-B:TYR:539:CD1:9844, V-B:TYR:539:CG:9843, V-A:GLU:543:CD:4907, V-A:GLU:543:CG:4906, V-A:GLU:543:CB:4905, V-A:TYR:539:CD1:4872, V-A:TYR:539:C:4866, V-A:ALA:541:CB:4891, V-B:ILE:369:CG2:8207, V-A:GLU:543:C:4901, V-A:ALA:541:CA:4889, V-B:SER:385:CB:8379, H-B:SER:385:OG:8380, H-B:HIS:383:NE2:8364, V-B:PRO:482:CB:9296, V-B:PRO:482:CG:9297"]

$$$$
2c_Ghoteimi_2023
     RDKit          3D

 42 47  0  0  0  0  0  0  0  0999 V2000
  128.2230  132.4790   65.4540 N   0  0  0  0  0  0  0  0  0  0  0  0
  128.0740  131.5920   64.7270 C   0  0  0  0  0  0  0  0  0  0  0  0
  127.8850  130.4640   63.8090 C   0  0  0  0  0  0  0  0  0  0  0  0
  127.7720  129.1420   64.3060 C   0  0  0  0  0  0  0  0  0  0  0  0
  127.8380  128.7890   65.7560 C   0  0  0  0  0  0  0  0  0  0  0  0
  126.6810  128.8130   66.5370 C   0  0  0  0  0  0  0  0  0  0  0  0
  126.7330  128.4810   67.8880 C   0  0  0  0  0  0  0  0  0  0  0  0
  127.9470  128.1290   68.5000 C   0  0  0  0  0  0  0  0  0  0  0  0
  128.0180  127.7730   69.8490 N   0  0  0  0  0  0  0  0  0  0  0  0
  127.2270  126.6260   70.3360 C   0  0  0  0  0  0  0  0  0  0  0  0
  127.0940  126.5860   71.8730 C   0  0  0  0  0  0  0  0  0  0  0  0
  128.3810  126.6060   72.4730 O   0  0  0  0  0  0  0  0  0  0  0  0
  129.1030  127.7780   72.1270 C   0  0  0  0  0  0  0  0  0  0  0  0
  129.2880  127.8500   70.5970 C   0  0  0  0  0  0  0  0  0  0  0  0
  129.1030  128.1120   67.7070 C   0  0  0  0  0  0  0  0  0  0  0  0
  129.0510  128.4420   66.3560 C   0  0  0  0  0  0  0  0  0  0  0  0
  127.5890  128.0990   63.3890 C   0  0  0  0  0  0  0  0  0  0  0  0
  127.4930  128.3680   62.0200 C   0  0  0  0  0  0  0  0  0  0  0  0
  127.2800  127.2930   61.0030 C   0  0  0  0  0  0  0  0  0  0  0  0
  126.3750  126.2530   61.2410 C   0  0  0  0  0  0  0  0  0  0  0  0
  126.1680  125.2520   60.2960 C   0  0  0  0  0  0  0  0  0  0  0  0
  126.8690  125.2470   59.0790 C   0  0  0  0  0  0  0  0  0  0  0  0
  126.6550  124.2630   58.1090 N   0  0  0  0  0  0  0  0  0  0  0  0
  127.7060  123.2620   57.8310 C   0  0  0  0  0  0  0  0  0  0  0  0
  127.5010  122.5010   56.5040 C   0  0  0  0  0  0  0  0  0  0  0  0
  126.2160  121.9020   56.4810 O   0  0  0  0  0  0  0  0  0  0  0  0
  125.1880  122.8740   56.5850 C   0  0  0  0  0  0  0  0  0  0  0  0
  125.3240  123.6510   57.9110 C   0  0  0  0  0  0  0  0  0  0  0  0
  127.7660  126.2980   58.8400 C   0  0  0  0  0  0  0  0  0  0  0  0
  127.9710  127.3000   59.7850 C   0  0  0  0  0  0  0  0  0  0  0  0
  127.5980  129.6360   61.5470 N   0  0  0  0  0  0  0  0  0  0  0  0
  127.8080  130.6580   62.4110 C   0  0  0  0  0  0  0  0  0  0  0  0
  127.9320  132.2460   61.6200 S   0  0  0  0  0  0  0  0  0  0  0  0
  129.6990  132.6580   61.4980 C   0  0  0  0  0  0  0  0  0  0  0  0
  130.2440  132.4370   60.0860 C   0  0  0  0  0  0  0  0  0  0  0  0
  131.1590  131.6310   59.9110 O   0  0  0  0  0  0  0  0  0  0  0  0
  129.6610  133.1730   59.1150 N   0  0  0  0  0  0  0  0  0  0  0  0
  129.9610  133.1450   57.7610 C   0  0  0  0  0  0  0  0  0  0  0  0
  130.9010  133.8120   57.1280 N   0  0  0  0  0  0  0  0  0  0  0  0
  130.9050  133.5390   55.8390 C   0  0  0  0  0  0  0  0  0  0  0  0
  129.9480  132.6280   55.4000 C   0  0  0  0  0  0  0  0  0  0  0  0
  128.9980  132.1070   56.7590 S   0  0  0  0  0  0  0  0  0  0  0  0
  1  2  3  0
  2  3  1  0
  3  4  2  0
  4  5  1  0
  5  6  2  0
  6  7  1  0
  7  8  2  0
  8  9  1  0
  9 10  1  0
 10 11  1  0
 11 12  1  0
 12 13  1  0
 13 14  1  0
  8 15  1  0
 15 16  2  0
  4 17  1  0
 17 18  2  0
 18 19  1  0
 19 20  2  0
 20 21  1  0
 21 22  2  0
 22 23  1  0
 23 24  1  0
 24 25  1  0
 25 26  1  0
 26 27  1  0
 27 28  1  0
 22 29  1  0
 29 30  2  0
 18 31  1  0
 31 32  2  0
 32 33  1  0
 33 34  1  0
 34 35  1  0
 35 36  2  0
 35 37  1  0
 37 38  1  0
 38 39  2  0
 39 40  1  0
 40 41  2  0
 41 42  1  0
 32  3  1  0
 42 38  1  0
 16  5  1  0
 30 19  1  0
 14  9  1  0
 28 23  1  0
M  END
>  <Binding energies>  (11) 
[-10.15]

>  <Ligand effiencies>  (11) 
[-0.236046511627907]

>  <Interactions>  (11) 
["V-B:GLU:543:CB:9877, V-A:HIS:456:CE1:4069, V-B:GLU:543:C:9873, V-B:GLY:544:C:9883, V-B:GLU:543:CD:9879, V-B:HIS:456:CE1:9040, V-B:PRO:540:CB:9856, V-B:TYR:539:C:9838, V-B:MET:535:CE:9806, H-B:TYR:539:N:9841, V-B:TYR:531:CE2:9764, V-B:PRO:540:CA:9854, V-B:LEU:363:CD1:8159, V-B:GLY:544:CA:9885, V-B:TYR:539:CZ:9848, V-B:TYR:539:CE1:9846, V-B:TYR:539:CD1:9844, V-B:TYR:539:CG:9843, V-A:GLU:543:CD:4907, V-A:GLU:543:CG:4906, V-A:PRO:540:CA:4882, V-A:TYR:539:CD1:4872, V-A:ILE:538:CG2:4862, V-A:PRO:540:N:4883, V-A:TYR:539:C:4866, V-A:TYR:539:CE1:4874, H-A:TYR:539:N:4869, V-A:ILE:538:CB:4861, V-A:ILE:538:CA:4859, V-B:PRO:540:CD:9858, H-A:TYR:539:O:4867"]

$$$$
2j_Grossjean_2025
     RDKit          3D

 23 24  0  0  0  0  0  0  0  0999 V2000
  133.2420  123.9980   60.2860 C   0  0  0  0  0  0  0  0  0  0  0  0
  132.5310  122.6880   60.5660 C   0  0  0  0  0  0  0  0  0  0  0  0
  133.1340  121.4600   60.3060 C   0  0  0  0  0  0  0  0  0  0  0  0
  132.4370  120.2750   60.5850 C   0  0  0  0  0  0  0  0  0  0  0  0
  133.1200  118.9260   60.2920 C   0  0  0  0  0  0  0  0  0  0  0  0
  134.3800  119.1270   59.9040 F   0  0  0  0  0  0  0  0  0  0  0  0
  133.1210  118.1660   61.3880 F   0  0  0  0  0  0  0  0  0  0  0  0
  132.5080  118.2370   59.3260 F   0  0  0  0  0  0  0  0  0  0  0  0
  131.1300  120.3700   61.1260 C   0  0  0  0  0  0  0  0  0  0  0  0
  130.3560  119.1650   61.4370 C   0  0  0  0  0  0  0  0  0  0  0  0
  129.7450  118.2130   61.6830 N   0  0  0  0  0  0  0  0  0  0  0  0
  130.5940  121.6590   61.3590 C   0  0  0  0  0  0  0  0  0  0  0  0
  128.9590  121.8990   62.0390 S   0  0  0  0  0  0  0  0  0  0  0  0
  128.1150  123.1920   61.0650 C   0  0  0  0  0  0  0  0  0  0  0  0
  128.0880  122.9440   59.5490 C   0  0  0  0  0  0  0  0  0  0  0  0
  129.1370  122.8230   58.9130 O   0  0  0  0  0  0  0  0  0  0  0  0
  126.8510  122.8890   59.0070 N   0  0  0  0  0  0  0  0  0  0  0  0
  126.5410  122.6760   57.6700 C   0  0  0  0  0  0  0  0  0  0  0  0
  127.3260  122.2090   56.7240 N   0  0  0  0  0  0  0  0  0  0  0  0
  126.6990  122.1350   55.5650 C   0  0  0  0  0  0  0  0  0  0  0  0
  125.3710  122.5500   55.5570 C   0  0  0  0  0  0  0  0  0  0  0  0
  124.9290  123.0630   57.1580 S   0  0  0  0  0  0  0  0  0  0  0  0
  131.2860  122.7940   61.0830 N   0  0  0  0  0  0  0  0  0  0  0  0
  1  2  1  0
  2  3  2  0
  3  4  1  0
  4  5  1  0
  5  6  1  0
  5  7  1  0
  5  8  1  0
  4  9  2  0
  9 10  1  0
 10 11  3  0
  9 12  1  0
 12 13  1  0
 13 14  1  0
 14 15  1  0
 15 16  2  0
 15 17  1  0
 17 18  1  0
 18 19  2  0
 19 20  1  0
 20 21  2  0
 21 22  1  0
 12 23  2  0
 23  2  1  0
 22 18  1  0
M  END
>  <Binding energies>  (12) 
[-6.66]

>  <Ligand effiencies>  (12) 
[-0.2775]

>  <Interactions>  (12) 
["V-B:TYR:531:CZ:9765, V-B:PRO:540:N:9855, V-B:PRO:540:CB:9856, V-B:TYR:539:CD2:9845, V-B:TYR:539:C:9838, V-B:MET:535:CE:9806, H-B:TYR:539:N:9841, V-B:TYR:531:CE2:9764, V-B:PRO:540:CA:9854, V-B:LEU:363:CD1:8159, V-B:TYR:539:CE2:9847, V-A:LEU:475:CD2:4258, V-B:ALA:541:CB:9863, V-A:ASP:366:CG:3212, V-A:SER:385:CB:3408, V-B:MET:535:CG:9804, V-B:TYR:539:CD1:9844, V-A:ILE:369:CG2:3236, V-B:ILE:538:CD1:9836, V-B:TYR:539:CB:9842, V-B:TYR:539:CG:9843, V-B:ILE:538:CG2:9834, V-A:ILE:369:CD1:3238, V-B:ILE:538:CA:9831, V-A:SER:385:CA:3406, V-B:PRO:540:CD:9858, H-B:ALA:541:N:9862, V-B:ILE:538:C:9829, V-A:LEU:373:CD2:3280, V-A:SER:385:C:3404, V-A:VAL:384:C:3396"]

$$$$
3ab_Grossjean_2025
     RDKit          3D

 33 35  0  0  0  0  0  0  0  0999 V2000
  124.7610  123.9610   58.0400 C   0  0  0  0  0  0  0  0  0  0  0  0
  125.7230  123.8490   57.0000 O   0  0  0  0  0  0  0  0  0  0  0  0
  126.6580  122.8650   57.0160 C   0  0  0  0  0  0  0  0  0  0  0  0
  126.5500  121.8140   56.3790 O   0  0  0  0  0  0  0  0  0  0  0  0
  127.8400  123.1840   57.8860 C   0  0  0  0  0  0  0  0  0  0  0  0
  128.0870  122.4990   59.0850 C   0  0  0  0  0  0  0  0  0  0  0  0
  129.1910  122.8160   59.8710 C   0  0  0  0  0  0  0  0  0  0  0  0
  130.0730  123.8310   59.4680 C   0  0  0  0  0  0  0  0  0  0  0  0
  131.2220  124.2290   60.1790 N   0  0  0  0  0  0  0  0  0  0  0  0
  132.5210  124.1920   59.8160 C   0  0  0  0  0  0  0  0  0  0  0  0
  132.9530  123.7660   58.7450 O   0  0  0  0  0  0  0  0  0  0  0  0
  133.5080  124.7320   60.8540 C   0  0  0  0  0  0  0  0  0  0  0  0
  133.9020  123.4970   62.1300 S   0  0  0  0  0  0  0  0  0  0  0  0
  132.3930  122.6420   62.5300 C   0  0  0  0  0  0  0  0  0  0  0  0
  132.2480  121.4650   61.8760 N   0  0  0  0  0  0  0  0  0  0  0  0
  131.1440  120.7040   62.0910 C   0  0  0  0  0  0  0  0  0  0  0  0
  131.0600  119.4140   61.3300 C   0  0  0  0  0  0  0  0  0  0  0  0
  130.0390  118.4880   61.5950 C   0  0  0  0  0  0  0  0  0  0  0  0
  129.9560  117.2900   60.8910 C   0  0  0  0  0  0  0  0  0  0  0  0
  130.8970  117.0000   59.9090 C   0  0  0  0  0  0  0  0  0  0  0  0
  131.9210  117.8980   59.6280 C   0  0  0  0  0  0  0  0  0  0  0  0
  132.0000  119.0950   60.3350 C   0  0  0  0  0  0  0  0  0  0  0  0
  130.1390  121.1300   62.9670 C   0  0  0  0  0  0  0  0  0  0  0  0
  130.2580  122.3540   63.6420 C   0  0  0  0  0  0  0  0  0  0  0  0
  129.1270  122.7900   64.5940 C   0  0  0  0  0  0  0  0  0  0  0  0
  128.5290  121.7570   65.1930 F   0  0  0  0  0  0  0  0  0  0  0  0
  129.6110  123.5810   65.5510 F   0  0  0  0  0  0  0  0  0  0  0  0
  128.1920  123.4560   63.9140 F   0  0  0  0  0  0  0  0  0  0  0  0
  131.4130  123.1430   63.4160 C   0  0  0  0  0  0  0  0  0  0  0  0
  131.5600  124.4560   64.0510 C   0  0  0  0  0  0  0  0  0  0  0  0
  131.6730  125.4910   64.5540 N   0  0  0  0  0  0  0  0  0  0  0  0
  129.8340  124.5100   58.2730 C   0  0  0  0  0  0  0  0  0  0  0  0
  128.7280  124.1920   57.4900 C   0  0  0  0  0  0  0  0  0  0  0  0
  1  2  1  0
  2  3  1  0
  3  4  2  0
  3  5  1  0
  5  6  2  0
  6  7  1  0
  7  8  2  0
  8  9  1  0
  9 10  1  0
 10 11  2  0
 10 12  1  0
 12 13  1  0
 13 14  1  0
 14 15  2  0
 15 16  1  0
 16 17  1  0
 17 18  2  0
 18 19  1  0
 19 20  2  0
 20 21  1  0
 21 22  2  0
 16 23  2  0
 23 24  1  0
 24 25  1  0
 25 26  1  0
 25 27  1  0
 25 28  1  0
 24 29  2  0
 29 30  1  0
 30 31  3  0
  8 32  1  0
 32 33  2  0
 33  5  1  0
 29 14  1  0
 22 17  1  0
M  END
>  <Binding energies>  (13) 
[-8.37]

>  <Ligand effiencies>  (13) 
[-0.24617647058823527]

>  <Interactions>  (13) 
["V-B:GLU:543:CD:9879, V-B:PRO:540:N:9855, V-A:TYR:484:CZ:4346, H-B:TYR:531:OH:9766, V-B:PRO:540:CB:9856, V-B:TYR:539:CD2:9845, V-B:TYR:539:C:9838, V-B:MET:535:CE:9806, H-B:TYR:539:N:9841, V-B:PRO:540:CA:9854, V-B:LEU:363:CD1:8159, V-B:TYR:539:CE2:9847, V-A:LEU:475:CD2:4258, V-A:PRO:482:CG:4326, V-B:ALA:541:CB:9863, H-B:TYR:539:OH:9849, V-B:TYR:539:CZ:9848, V-A:ASP:366:CG:3212, V-B:VAL:344:CG1:7971, V-B:TYR:539:CB:9842, V-B:TYR:539:CG:9843, V-A:ILE:369:CD1:3238, V-A:HIS:383:CE1:3393, V-A:PRO:482:CB:4325, V-A:ASP:366:CB:3211, V-B:ALA:541:C:9859, H-A:TYR:484:OH:4347, V-B:GLU:543:CG:9878, V-A:TYR:484:CE2:4345, V-B:ALA:541:CA:9861, V-A:LEU:475:CD1:4257"]

$$$$
3ac_Grossjean_2025
     RDKit          3D

 31 33  0  0  0  0  0  0  0  0999 V2000
  125.1010  122.4970   55.4170 C   0  0  0  0  0  0  0  0  0  0  0  0
  126.4640  122.2460   55.7440 O   0  0  0  0  0  0  0  0  0  0  0  0
  126.9120  122.5150   57.0240 C   0  0  0  0  0  0  0  0  0  0  0  0
  125.9790  123.0570   57.9080 C   0  0  0  0  0  0  0  0  0  0  0  0
  126.3370  123.3560   59.2190 C   0  0  0  0  0  0  0  0  0  0  0  0
  127.6400  123.1260   59.6630 C   0  0  0  0  0  0  0  0  0  0  0  0
  127.9010  123.4420   61.0100 N   0  0  0  0  0  0  0  0  0  0  0  0
  127.0840  123.3460   62.0810 C   0  0  0  0  0  0  0  0  0  0  0  0
  125.9340  122.9050   62.0610 O   0  0  0  0  0  0  0  0  0  0  0  0
  127.6740  123.8300   63.4060 C   0  0  0  0  0  0  0  0  0  0  0  0
  128.6680  122.5460   64.2260 S   0  0  0  0  0  0  0  0  0  0  0  0
  130.2940  122.5270   63.4960 C   0  0  0  0  0  0  0  0  0  0  0  0
  130.5140  121.4450   62.7110 N   0  0  0  0  0  0  0  0  0  0  0  0
  131.7080  121.2970   62.0810 C   0  0  0  0  0  0  0  0  0  0  0  0
  131.8720  120.0680   61.2370 C   0  0  0  0  0  0  0  0  0  0  0  0
  130.9080  119.0460   61.2610 C   0  0  0  0  0  0  0  0  0  0  0  0
  131.0530  117.9060   60.4760 C   0  0  0  0  0  0  0  0  0  0  0  0
  132.1680  117.7690   59.6560 C   0  0  0  0  0  0  0  0  0  0  0  0
  133.1390  118.7630   59.6180 C   0  0  0  0  0  0  0  0  0  0  0  0
  132.9920  119.9020   60.4040 C   0  0  0  0  0  0  0  0  0  0  0  0
  132.7260  122.2410   62.2450 C   0  0  0  0  0  0  0  0  0  0  0  0
  132.5320  123.3590   63.0690 C   0  0  0  0  0  0  0  0  0  0  0  0
  133.6830  124.3720   63.2260 C   0  0  0  0  0  0  0  0  0  0  0  0
  133.5090  125.4720   62.4900 F   0  0  0  0  0  0  0  0  0  0  0  0
  133.7880  124.7590   64.4990 F   0  0  0  0  0  0  0  0  0  0  0  0
  134.8330  123.8130   62.8490 F   0  0  0  0  0  0  0  0  0  0  0  0
  131.2870  123.5070   63.7290 C   0  0  0  0  0  0  0  0  0  0  0  0
  131.0650  124.6160   64.6600 C   0  0  0  0  0  0  0  0  0  0  0  0
  130.8910  125.4920   65.3960 N   0  0  0  0  0  0  0  0  0  0  0  0
  128.5830  122.5750   58.7820 C   0  0  0  0  0  0  0  0  0  0  0  0
  128.2210  122.2750   57.4710 C   0  0  0  0  0  0  0  0  0  0  0  0
  1  2  1  0
  2  3  1  0
  3  4  2  0
  4  5  1  0
  5  6  2  0
  6  7  1  0
  7  8  1  0
  8  9  2  0
  8 10  1  0
 10 11  1  0
 11 12  1  0
 12 13  2  0
 13 14  1  0
 14 15  1  0
 15 16  2  0
 16 17  1  0
 17 18  2  0
 18 19  1  0
 19 20  2  0
 14 21  2  0
 21 22  1  0
 22 23  1  0
 23 24  1  0
 23 25  1  0
 23 26  1  0
 22 27  2  0
 27 28  1  0
 28 29  3  0
  6 30  1  0
 30 31  2  0
 31  3  1  0
 27 12  1  0
 20 15  1  0
M  END
>  <Binding energies>  (14) 
[-8.83]

>  <Ligand effiencies>  (14) 
[-0.2759375]

>  <Interactions>  (14) 
["V-B:GLU:543:CD:9879, V-B:TYR:531:CZ:9765, V-A:ARG:545:CZ:4925, V-B:PRO:540:N:9855, V-B:PRO:540:CB:9856, V-B:TYR:539:CD2:9845, V-B:TYR:539:C:9838, V-B:MET:535:CE:9806, H-B:TYR:539:N:9841, V-B:TYR:531:CE2:9764, V-B:PRO:540:CA:9854, V-B:LEU:363:CD1:8159, V-B:TYR:539:CE2:9847, V-A:LEU:475:CD2:4258, V-B:ILE:538:CB:9833, V-B:ALA:541:CB:9863, V-B:TYR:539:CZ:9848, V-A:ASP:366:CG:3212, V-B:TYR:539:CE1:9846, V-B:MET:535:CG:9804, V-B:TYR:539:CA:9840, V-B:TYR:539:CD1:9844, V-A:ILE:369:CG2:3236, V-B:ILE:538:CD1:9836, V-B:TYR:539:CB:9842, V-B:TYR:539:CG:9843, V-B:ILE:538:CG2:9834, V-A:ILE:369:CD1:3238, V-A:HIS:383:CE1:3393, V-B:ILE:538:CA:9831, V-A:GLY:454:CA:4048, V-A:SER:385:CA:3406, H-A:TYR:484:OH:4347, V-B:GLU:543:CG:9878, V-B:PRO:540:CD:9858, H-B:ALA:541:N:9862, V-A:GLY:453:C:4041, V-A:LEU:373:CD2:3280, V-A:GLY:453:CA:4043"]

$$$$
3af_Grossjean_2025
     RDKit          3D

 29 31  0  0  0  0  0  0  0  0999 V2000
  130.4180  125.7600   64.2240 N   0  0  0  0  0  0  0  0  0  0  0  0
  130.6300  124.7370   63.7270 C   0  0  0  0  0  0  0  0  0  0  0  0
  130.8980  123.4410   63.0970 C   0  0  0  0  0  0  0  0  0  0  0  0
  132.2260  123.0330   62.8220 C   0  0  0  0  0  0  0  0  0  0  0  0
  133.4540  123.8840   63.2020 C   0  0  0  0  0  0  0  0  0  0  0  0
  134.6080  123.3190   62.8400 F   0  0  0  0  0  0  0  0  0  0  0  0
  133.3850  125.0750   62.6060 F   0  0  0  0  0  0  0  0  0  0  0  0
  133.4960  124.0620   64.5230 F   0  0  0  0  0  0  0  0  0  0  0  0
  132.4300  121.8080   62.1690 C   0  0  0  0  0  0  0  0  0  0  0  0
  131.3390  121.0140   61.7990 C   0  0  0  0  0  0  0  0  0  0  0  0
  131.4990  119.7060   61.0830 C   0  0  0  0  0  0  0  0  0  0  0  0
  132.5970  119.4800   60.2380 C   0  0  0  0  0  0  0  0  0  0  0  0
  132.7520  118.2670   59.5720 C   0  0  0  0  0  0  0  0  0  0  0  0
  131.8080  117.2610   59.7440 C   0  0  0  0  0  0  0  0  0  0  0  0
  130.7120  117.4570   60.5780 C   0  0  0  0  0  0  0  0  0  0  0  0
  130.5620  118.6720   61.2430 C   0  0  0  0  0  0  0  0  0  0  0  0
  130.0680  121.4100   62.0620 N   0  0  0  0  0  0  0  0  0  0  0  0
  129.8470  122.5780   62.7120 C   0  0  0  0  0  0  0  0  0  0  0  0
  128.1190  122.9200   62.9800 S   0  0  0  0  0  0  0  0  0  0  0  0
  127.5300  123.9500   61.6030 C   0  0  0  0  0  0  0  0  0  0  0  0
  127.4720  123.1680   60.2910 C   0  0  0  0  0  0  0  0  0  0  0  0
  128.1940  122.1800   60.1510 O   0  0  0  0  0  0  0  0  0  0  0  0
  126.6120  123.6490   59.3680 N   0  0  0  0  0  0  0  0  0  0  0  0
  126.3280  123.1750   58.0720 C   0  0  0  0  0  0  0  0  0  0  0  0
  125.0730  123.2200   57.4380 C   0  0  0  0  0  0  0  0  0  0  0  0
  124.9330  122.7100   56.1450 C   0  0  0  0  0  0  0  0  0  0  0  0
  126.0530  122.1640   55.5170 C   0  0  0  0  0  0  0  0  0  0  0  0
  127.2730  122.1090   56.1060 N   0  0  0  0  0  0  0  0  0  0  0  0
  127.3930  122.6100   57.3620 C   0  0  0  0  0  0  0  0  0  0  0  0
  1  2  3  0
  2  3  1  0
  3  4  2  0
  4  5  1  0
  5  6  1  0
  5  7  1  0
  5  8  1  0
  4  9  1  0
  9 10  2  0
 10 11  1  0
 11 12  2  0
 12 13  1  0
 13 14  2  0
 14 15  1  0
 15 16  2  0
 10 17  1  0
 17 18  2  0
 18 19  1  0
 19 20  1  0
 20 21  1  0
 21 22  2  0
 21 23  1  0
 23 24  1  0
 24 25  2  0
 25 26  1  0
 26 27  2  0
 27 28  1  0
 28 29  2  0
 18  3  1  0
 29 24  1  0
 16 11  1  0
M  END
>  <Binding energies>  (15) 
[-8.67]

>  <Ligand effiencies>  (15) 
[-0.289]

>  <Interactions>  (15) 
["V-B:TYR:531:CZ:9765, V-B:PRO:540:N:9855, V-B:PRO:540:CB:9856, V-B:TYR:539:CD2:9845, V-B:TYR:539:C:9838, V-B:MET:535:CE:9806, H-B:TYR:539:N:9841, V-B:TYR:531:CE2:9764, V-B:PRO:540:CA:9854, V-B:LEU:363:CD1:8159, V-B:TYR:539:CE2:9847, V-A:LEU:475:CD2:4258, V-B:ILE:538:CB:9833, V-B:ALA:541:CB:9863, V-A:ASP:366:CG:3212, V-B:MET:535:CG:9804, V-B:ILE:538:CD1:9836, V-B:TYR:539:CB:9842, V-B:TYR:539:CG:9843, V-B:ILE:538:CG2:9834, V-A:ILE:369:CD1:3238, V-A:HIS:383:CE1:3393, V-B:ILE:538:CA:9831, V-A:GLY:454:CA:4048, H-B:ASP:366:OD1:8184, V-B:PRO:540:CD:9858, H-B:ALA:541:N:9862, V-B:ILE:538:C:9829, V-A:GLY:453:C:4041, V-A:LEU:373:CD2:3280, V-A:GLY:453:CA:4043"]

$$$$
3ag_Grossjean_2025
     RDKit          3D

 30 32  0  0  0  0  0  0  0  0999 V2000
  123.4030  123.7820   59.2430 N   0  0  0  0  0  0  0  0  0  0  0  0
  124.5050  124.0310   58.9890 C   0  0  0  0  0  0  0  0  0  0  0  0
  125.9000  124.3430   58.6640 C   0  0  0  0  0  0  0  0  0  0  0  0
  126.5170  123.7910   57.5160 C   0  0  0  0  0  0  0  0  0  0  0  0
  125.7630  122.8900   56.5180 C   0  0  0  0  0  0  0  0  0  0  0  0
  126.4750  122.6210   55.4220 F   0  0  0  0  0  0  0  0  0  0  0  0
  125.4600  121.7270   57.0960 F   0  0  0  0  0  0  0  0  0  0  0  0
  124.6350  123.4840   56.1240 F   0  0  0  0  0  0  0  0  0  0  0  0
  127.8700  124.0770   57.2770 C   0  0  0  0  0  0  0  0  0  0  0  0
  128.5890  124.8820   58.1670 C   0  0  0  0  0  0  0  0  0  0  0  0
  130.0350  125.2180   57.9630 C   0  0  0  0  0  0  0  0  0  0  0  0
  131.0030  124.8210   58.9000 C   0  0  0  0  0  0  0  0  0  0  0  0
  132.3480  125.1300   58.7160 C   0  0  0  0  0  0  0  0  0  0  0  0
  132.7450  125.8430   57.5900 C   0  0  0  0  0  0  0  0  0  0  0  0
  131.8060  126.2510   56.6480 C   0  0  0  0  0  0  0  0  0  0  0  0
  130.4620  125.9410   56.8350 C   0  0  0  0  0  0  0  0  0  0  0  0
  127.9910  125.4210   59.2610 N   0  0  0  0  0  0  0  0  0  0  0  0
  126.6800  125.1740   59.5000 C   0  0  0  0  0  0  0  0  0  0  0  0
  126.0650  125.9610   60.9720 S   0  0  0  0  0  0  0  0  0  0  0  0
  126.9730  125.2590   62.3820 C   0  0  0  0  0  0  0  0  0  0  0  0
  127.2470  123.7640   62.2060 C   0  0  0  0  0  0  0  0  0  0  0  0
  126.5770  122.9400   62.8310 O   0  0  0  0  0  0  0  0  0  0  0  0
  128.2280  123.4330   61.3490 N   0  0  0  0  0  0  0  0  0  0  0  0
  128.6300  122.0700   61.0050 C   0  0  0  0  0  0  0  0  0  0  0  0
  130.1190  121.7960   61.1890 C   0  0  0  0  0  0  0  0  0  0  0  0
  130.9990  122.8590   61.4070 C   0  0  0  0  0  0  0  0  0  0  0  0
  132.3550  122.6100   61.6050 C   0  0  0  0  0  0  0  0  0  0  0  0
  132.8240  121.2980   61.5930 C   0  0  0  0  0  0  0  0  0  0  0  0
  131.9500  120.2330   61.3910 C   0  0  0  0  0  0  0  0  0  0  0  0
  130.5940  120.4810   61.1940 C   0  0  0  0  0  0  0  0  0  0  0  0
  1  2  3  0
  2  3  1  0
  3  4  2  0
  4  5  1  0
  5  6  1  0
  5  7  1  0
  5  8  1  0
  4  9  1  0
  9 10  2  0
 10 11  1  0
 11 12  2  0
 12 13  1  0
 13 14  2  0
 14 15  1  0
 15 16  2  0
 10 17  1  0
 17 18  2  0
 18 19  1  0
 19 20  1  0
 20 21  1  0
 21 22  2  0
 21 23  1  0
 23 24  1  0
 24 25  1  0
 25 26  2  0
 26 27  1  0
 27 28  2  0
 28 29  1  0
 29 30  2  0
 18  3  1  0
 30 25  1  0
 16 11  1  0
M  END
>  <Binding energies>  (16) 
[-7.3]

>  <Ligand effiencies>  (16) 
[-0.23548387096774193]

>  <Interactions>  (16) 
["V-B:GLU:543:CD:9879, V-B:TYR:531:CZ:9765, V-B:PRO:540:N:9855, V-B:PRO:540:CB:9856, V-B:TYR:539:CD2:9845, V-B:TYR:539:C:9838, V-B:MET:535:CE:9806, V-B:TYR:531:CE2:9764, V-B:PRO:540:CA:9854, V-B:LEU:363:CD1:8159, V-B:TYR:539:CE2:9847, V-A:LEU:475:CD2:4258, V-B:TYR:539:CZ:9848, V-A:ASP:366:CG:3212, V-B:MET:535:CG:9804, V-B:TYR:539:CA:9840, V-B:ILE:538:CD1:9836, V-B:ILE:538:CG2:9834, V-B:ILE:538:CA:9831, V-A:ASP:366:CB:3211, V-A:TYR:531:CZ:4793, V-A:ASP:366:C:3207, V-A:TYR:531:CE1:4791, V-B:PRO:540:CG:9857, H-B:LEU:363:N:8156, V-B:PRO:540:CD:9858, H-B:ALA:541:N:9862, H-B:ARG:545:NH2:9899, V-A:ASP:366:CA:3209, V-B:PRO:540:C:9852"]

$$$$
3bc_Grossjean_2025
     RDKit          3D

 28 30  0  0  0  0  0  0  0  0999 V2000
  126.3550  122.1670   55.1000 C   0  0  0  0  0  0  0  0  0  0  0  0
  125.9870  123.2440   55.9560 O   0  0  0  0  0  0  0  0  0  0  0  0
  126.4060  123.2300   57.2730 C   0  0  0  0  0  0  0  0  0  0  0  0
  125.5260  123.7720   58.2110 C   0  0  0  0  0  0  0  0  0  0  0  0
  125.8600  123.8030   59.5620 C   0  0  0  0  0  0  0  0  0  0  0  0
  127.0870  123.2970   59.9940 C   0  0  0  0  0  0  0  0  0  0  0  0
  127.3320  123.3600   61.3790 N   0  0  0  0  0  0  0  0  0  0  0  0
  128.4660  123.6950   62.0300 C   0  0  0  0  0  0  0  0  0  0  0  0
  129.5100  124.0530   61.4810 O   0  0  0  0  0  0  0  0  0  0  0  0
  128.3670  123.6410   63.5610 C   0  0  0  0  0  0  0  0  0  0  0  0
  129.4250  122.3890   64.3630 S   0  0  0  0  0  0  0  0  0  0  0  0
  130.9410  122.2840   63.4380 C   0  0  0  0  0  0  0  0  0  0  0  0
  131.0000  121.2150   62.6070 N   0  0  0  0  0  0  0  0  0  0  0  0
  132.1020  121.0140   61.8390 C   0  0  0  0  0  0  0  0  0  0  0  0
  132.0970  119.7970   60.9630 C   0  0  0  0  0  0  0  0  0  0  0  0
  131.0750  118.8420   61.0700 C   0  0  0  0  0  0  0  0  0  0  0  0
  131.0630  117.7090   60.2600 C   0  0  0  0  0  0  0  0  0  0  0  0
  132.0800  117.5150   59.3310 C   0  0  0  0  0  0  0  0  0  0  0  0
  133.1070  118.4450   59.2070 C   0  0  0  0  0  0  0  0  0  0  0  0
  133.1150  119.5760   60.0200 C   0  0  0  0  0  0  0  0  0  0  0  0
  133.1840  121.8990   61.8910 C   0  0  0  0  0  0  0  0  0  0  0  0
  133.1300  123.0210   62.7250 C   0  0  0  0  0  0  0  0  0  0  0  0
  134.3270  123.9690   62.7370 C   0  0  0  0  0  0  0  0  0  0  0  0
  131.9810  123.2380   63.5170 C   0  0  0  0  0  0  0  0  0  0  0  0
  131.8820  124.4300   64.3610 C   0  0  0  0  0  0  0  0  0  0  0  0
  131.8060  125.3730   65.0270 N   0  0  0  0  0  0  0  0  0  0  0  0
  127.9720  122.7390   59.0600 C   0  0  0  0  0  0  0  0  0  0  0  0
  127.6340  122.7090   57.7090 C   0  0  0  0  0  0  0  0  0  0  0  0
  1  2  1  0
  2  3  1  0
  3  4  2  0
  4  5  1  0
  5  6  2  0
  6  7  1  0
  7  8  1  0
  8  9  2  0
  8 10  1  0
 10 11  1  0
 11 12  1  0
 12 13  2  0
 13 14  1  0
 14 15  1  0
 15 16  2  0
 16 17  1  0
 17 18  2  0
 18 19  1  0
 19 20  2  0
 14 21  2  0
 21 22  1  0
 22 23  1  0
 22 24  2  0
 24 25  1  0
 25 26  3  0
  6 27  1  0
 27 28  2  0
 28  3  1  0
 24 12  1  0
 20 15  1  0
M  END
>  <Binding energies>  (17) 
[-8.81]

>  <Ligand effiencies>  (17) 
[-0.30379310344827587]

>  <Interactions>  (17) 
["V-B:GLU:543:CD:9879, V-B:PRO:540:N:9855, H-B:TYR:531:OH:9766, V-B:PRO:540:CB:9856, V-B:TYR:539:CD2:9845, V-B:TYR:539:C:9838, V-B:MET:535:CE:9806, V-B:PRO:540:CA:9854, V-B:TYR:539:CE2:9847, V-A:LEU:475:CD2:4258, V-B:ILE:538:CB:9833, V-B:MET:535:CG:9804, V-A:ILE:369:CG2:3236, V-B:ILE:538:CD1:9836, V-B:TYR:539:CB:9842, V-B:TYR:539:CG:9843, V-B:ILE:538:CG2:9834, V-A:ILE:369:CD1:3238, V-A:HIS:383:CE1:3393, V-B:ILE:538:CA:9831, V-A:GLY:454:CA:4048, V-A:SER:385:CA:3406, H-A:TYR:484:OH:4347, V-B:GLU:543:CG:9878, V-B:ILE:538:C:9829, V-A:GLY:453:C:4041, V-A:LEU:373:CG:3278, V-A:LEU:373:CD2:3280, H-B:ALA:541:O:9860, V-A:GLY:453:CA:4043"]

$$$$
3bd_Grossjean_2025
     RDKit          3D

 26 28  0  0  0  0  0  0  0  0999 V2000
  134.2300  123.8080   62.8880 C   0  0  0  0  0  0  0  0  0  0  0  0
  132.9990  122.9140   62.7560 C   0  0  0  0  0  0  0  0  0  0  0  0
  133.0830  121.7900   61.9250 C   0  0  0  0  0  0  0  0  0  0  0  0
  131.9760  120.9480   61.7750 C   0  0  0  0  0  0  0  0  0  0  0  0
  131.9990  119.7260   60.9050 C   0  0  0  0  0  0  0  0  0  0  0  0
  133.0340  119.5260   59.9770 C   0  0  0  0  0  0  0  0  0  0  0  0
  133.0610  118.3950   59.1650 C   0  0  0  0  0  0  0  0  0  0  0  0
  132.0500  117.4450   59.2700 C   0  0  0  0  0  0  0  0  0  0  0  0
  131.0120  117.6210   60.1790 C   0  0  0  0  0  0  0  0  0  0  0  0
  130.9880  118.7530   60.9880 C   0  0  0  0  0  0  0  0  0  0  0  0
  130.8160  121.1980   62.4380 N   0  0  0  0  0  0  0  0  0  0  0  0
  130.7160  122.2830   63.2460 C   0  0  0  0  0  0  0  0  0  0  0  0
  129.1380  122.5060   64.0500 S   0  0  0  0  0  0  0  0  0  0  0  0
  128.2960  123.9100   63.2590 C   0  0  0  0  0  0  0  0  0  0  0  0
  127.4380  123.4680   62.0730 C   0  0  0  0  0  0  0  0  0  0  0  0
  126.3250  122.9860   62.2870 O   0  0  0  0  0  0  0  0  0  0  0  0
  127.9930  123.6370   60.8530 N   0  0  0  0  0  0  0  0  0  0  0  0
  127.4480  123.3550   59.5860 C   0  0  0  0  0  0  0  0  0  0  0  0
  128.3260  122.8060   58.6480 C   0  0  0  0  0  0  0  0  0  0  0  0
  127.8800  122.5030   57.3640 C   0  0  0  0  0  0  0  0  0  0  0  0
  126.5570  122.7580   57.0140 C   0  0  0  0  0  0  0  0  0  0  0  0
  125.6760  123.3180   57.9360 C   0  0  0  0  0  0  0  0  0  0  0  0
  126.1190  123.6220   59.2210 C   0  0  0  0  0  0  0  0  0  0  0  0
  131.7910  123.1780   63.4370 C   0  0  0  0  0  0  0  0  0  0  0  0
  131.6710  124.3460   64.3150 C   0  0  0  0  0  0  0  0  0  0  0  0
  131.5780  125.2670   65.0090 N   0  0  0  0  0  0  0  0  0  0  0  0
  1  2  1  0
  2  3  2  0
  3  4  1  0
  4  5  1  0
  5  6  2  0
  6  7  1  0
  7  8  2  0
  8  9  1  0
  9 10  2  0
  4 11  2  0
 11 12  1  0
 12 13  1  0
 13 14  1  0
 14 15  1  0
 15 16  2  0
 15 17  1  0
 17 18  1  0
 18 19  2  0
 19 20  1  0
 20 21  2  0
 21 22  1  0
 22 23  2  0
 12 24  2  0
 24 25  1  0
 25 26  3  0
 24  2  1  0
 10  5  1  0
 23 18  1  0
M  END
>  <Binding energies>  (18) 
[-9.03]

>  <Ligand effiencies>  (18) 
[-0.33444444444444443]

>  <Interactions>  (18) 
["V-B:GLU:543:CD:9879, V-B:PRO:540:N:9855, V-B:PRO:540:CB:9856, V-B:TYR:539:CD2:9845, V-B:TYR:539:C:9838, V-B:MET:535:CE:9806, V-B:PRO:540:CA:9854, V-B:TYR:539:CE2:9847, V-A:LEU:475:CD2:4258, V-B:ALA:541:CB:9863, V-B:TYR:539:CZ:9848, V-B:TYR:539:CE1:9846, V-B:TYR:539:CA:9840, V-B:TYR:539:CD1:9844, V-A:ILE:369:CG2:3236, V-B:TYR:539:CB:9842, V-B:TYR:539:CG:9843, V-A:ILE:369:CD1:3238, V-A:HIS:383:CE1:3393, V-A:GLY:454:CA:4048, V-A:SER:385:CA:3406, H-A:TYR:484:OH:4347, V-B:GLU:543:CG:9878, V-B:PRO:540:CD:9858, H-B:ALA:541:N:9862, V-A:GLY:453:C:4041, V-A:LEU:373:CG:3278, V-A:LEU:373:CD2:3280, V-A:LEU:373:CD1:3279"]

$$$$
3be_Grossjean_2025
     RDKit          3D

 27 29  0  0  0  0  0  0  0  0999 V2000
  124.2910  123.7300   57.9560 C   0  0  0  0  0  0  0  0  0  0  0  0
  125.7410  123.3870   58.2360 C   0  0  0  0  0  0  0  0  0  0  0  0
  126.5540  122.7980   57.2640 C   0  0  0  0  0  0  0  0  0  0  0  0
  127.8780  122.5070   57.5930 C   0  0  0  0  0  0  0  0  0  0  0  0
  128.3540  122.8100   58.8710 C   0  0  0  0  0  0  0  0  0  0  0  0
  127.4870  123.4040   59.7960 C   0  0  0  0  0  0  0  0  0  0  0  0
  128.0230  123.6740   61.0690 N   0  0  0  0  0  0  0  0  0  0  0  0
  127.4870  123.4220   62.2830 C   0  0  0  0  0  0  0  0  0  0  0  0
  126.3880  122.8960   62.4670 O   0  0  0  0  0  0  0  0  0  0  0  0
  128.3630  123.8460   63.4730 C   0  0  0  0  0  0  0  0  0  0  0  0
  129.3350  122.5040   64.2370 S   0  0  0  0  0  0  0  0  0  0  0  0
  130.8730  122.3630   63.3540 C   0  0  0  0  0  0  0  0  0  0  0  0
  130.9360  121.2780   62.5430 N   0  0  0  0  0  0  0  0  0  0  0  0
  132.0540  121.0490   61.8040 C   0  0  0  0  0  0  0  0  0  0  0  0
  132.0490  119.8200   60.9430 C   0  0  0  0  0  0  0  0  0  0  0  0
  130.9950  118.8960   61.0180 C   0  0  0  0  0  0  0  0  0  0  0  0
  130.9840  117.7530   60.2240 C   0  0  0  0  0  0  0  0  0  0  0  0
  132.0320  117.5170   59.3410 C   0  0  0  0  0  0  0  0  0  0  0  0
  133.0890  118.4150   59.2480 C   0  0  0  0  0  0  0  0  0  0  0  0
  133.0960  119.5570   60.0440 C   0  0  0  0  0  0  0  0  0  0  0  0
  133.1490  121.9170   61.8710 C   0  0  0  0  0  0  0  0  0  0  0  0
  133.0910  123.0530   62.6850 C   0  0  0  0  0  0  0  0  0  0  0  0
  134.3030  123.9820   62.7130 C   0  0  0  0  0  0  0  0  0  0  0  0
  131.9260  123.3020   63.4420 C   0  0  0  0  0  0  0  0  0  0  0  0
  131.8230  124.5130   64.2590 C   0  0  0  0  0  0  0  0  0  0  0  0
  131.7430  125.4720   64.9030 N   0  0  0  0  0  0  0  0  0  0  0  0
  126.1890  123.6870   59.4810 N   0  0  0  0  0  0  0  0  0  0  0  0
  1  2  1  0
  2  3  2  0
  3  4  1  0
  4  5  2  0
  5  6  1  0
  6  7  1  0
  7  8  1  0
  8  9  2  0
  8 10  1  0
 10 11  1  0
 11 12  1  0
 12 13  2  0
 13 14  1  0
 14 15  1  0
 15 16  2  0
 16 17  1  0
 17 18  2  0
 18 19  1  0
 19 20  2  0
 14 21  2  0
 21 22  1  0
 22 23  1  0
 22 24  2  0
 24 25  1  0
 25 26  3  0
  6 27  2  0
 27  2  1  0
 24 12  1  0
 20 15  1  0
M  END
>  <Binding energies>  (19) 
[-9.18]

>  <Ligand effiencies>  (19) 
[-0.32785714285714285]

>  <Interactions>  (19) 
["V-B:GLU:543:CD:9879, V-B:PRO:540:N:9855, V-B:PRO:540:CB:9856, V-B:TYR:539:CD2:9845, V-B:TYR:539:C:9838, V-B:MET:535:CE:9806, V-B:PRO:540:CA:9854, V-B:LEU:363:CD1:8159, V-B:TYR:539:CE2:9847, V-A:LEU:475:CD2:4258, V-B:TYR:539:CZ:9848, V-A:ASP:366:CG:3212, V-B:TYR:539:CE1:9846, V-B:TYR:539:CA:9840, V-B:TYR:539:CD1:9844, V-A:ILE:369:CG2:3236, V-B:TYR:539:CB:9842, V-B:TYR:539:CG:9843, V-A:ILE:369:CD1:3238, V-A:HIS:383:CE1:3393, V-A:GLY:454:CA:4048, V-A:SER:385:CA:3406, H-A:TYR:484:OH:4347, V-B:GLU:543:CG:9878, V-B:PRO:540:CD:9858, H-B:ALA:541:N:9862, V-A:GLY:453:C:4041, V-A:LEU:373:CG:3278, V-A:LEU:373:CD2:3280, V-A:GLY:453:CA:4043"]

$$$$
3bf_Grossjean_2025
     RDKit          3D

 26 28  0  0  0  0  0  0  0  0999 V2000
  134.2300  123.7670   62.7770 C   0  0  0  0  0  0  0  0  0  0  0  0
  132.9230  122.9850   62.6630 C   0  0  0  0  0  0  0  0  0  0  0  0
  132.9360  121.7780   61.9560 C   0  0  0  0  0  0  0  0  0  0  0  0
  131.7640  121.0230   61.8400 C   0  0  0  0  0  0  0  0  0  0  0  0
  131.7160  119.7120   61.1150 C   0  0  0  0  0  0  0  0  0  0  0  0
  132.7450  119.3430   60.2340 C   0  0  0  0  0  0  0  0  0  0  0  0
  132.7080  118.1270   59.5570 C   0  0  0  0  0  0  0  0  0  0  0  0
  131.6360  117.2620   59.7510 C   0  0  0  0  0  0  0  0  0  0  0  0
  130.6030  117.6040   60.6160 C   0  0  0  0  0  0  0  0  0  0  0  0
  130.6440  118.8220   61.2910 C   0  0  0  0  0  0  0  0  0  0  0  0
  130.6030  121.4450   62.4080 N   0  0  0  0  0  0  0  0  0  0  0  0
  130.5690  122.6250   63.0760 C   0  0  0  0  0  0  0  0  0  0  0  0
  128.9670  123.0180   63.7460 S   0  0  0  0  0  0  0  0  0  0  0  0
  128.1500  124.1880   62.6090 C   0  0  0  0  0  0  0  0  0  0  0  0
  127.2970  123.5390   61.5080 C   0  0  0  0  0  0  0  0  0  0  0  0
  126.2680  122.9230   61.7910 O   0  0  0  0  0  0  0  0  0  0  0  0
  127.7560  123.7320   60.2530 N   0  0  0  0  0  0  0  0  0  0  0  0
  127.2220  123.2680   59.0360 C   0  0  0  0  0  0  0  0  0  0  0  0
  125.8880  123.5860   58.7610 C   0  0  0  0  0  0  0  0  0  0  0  0
  125.3040  123.1660   57.5640 C   0  0  0  0  0  0  0  0  0  0  0  0
  126.0820  122.4360   56.6650 C   0  0  0  0  0  0  0  0  0  0  0  0
  127.3810  122.1230   56.8990 N   0  0  0  0  0  0  0  0  0  0  0  0
  127.9350  122.5390   58.0680 C   0  0  0  0  0  0  0  0  0  0  0  0
  131.7170  123.4290   63.2480 C   0  0  0  0  0  0  0  0  0  0  0  0
  131.6930  124.6640   64.0360 C   0  0  0  0  0  0  0  0  0  0  0  0
  131.6750  125.6410   64.6570 N   0  0  0  0  0  0  0  0  0  0  0  0
  1  2  1  0
  2  3  2  0
  3  4  1  0
  4  5  1  0
  5  6  2  0
  6  7  1  0
  7  8  2  0
  8  9  1  0
  9 10  2  0
  4 11  2  0
 11 12  1  0
 12 13  1  0
 13 14  1  0
 14 15  1  0
 15 16  2  0
 15 17  1  0
 17 18  1  0
 18 19  2  0
 19 20  1  0
 20 21  2  0
 21 22  1  0
 22 23  2  0
 12 24  2  0
 24 25  1  0
 25 26  3  0
 24  2  1  0
 10  5  1  0
 23 18  1  0
M  END
>  <Binding energies>  (20) 
[-9.24]

>  <Ligand effiencies>  (20) 
[-0.3422222222222222]

>  <Interactions>  (20) 
["V-B:GLU:543:CD:9879, V-B:PRO:540:N:9855, V-B:PRO:540:CB:9856, V-B:TYR:539:CD2:9845, V-B:TYR:539:C:9838, H-B:TYR:539:N:9841, V-B:PRO:540:CA:9854, V-B:LEU:363:CD1:8159, V-B:TYR:539:CE2:9847, V-A:LEU:475:CD2:4258, V-B:ALA:541:CB:9863, V-B:TYR:539:CZ:9848, V-A:ILE:369:CG2:3236, V-B:TYR:539:CB:9842, V-B:TYR:539:CG:9843, V-A:ILE:369:CD1:3238, V-A:HIS:383:CE1:3393, V-A:GLY:454:CA:4048, V-A:SER:385:CA:3406, H-A:TYR:484:OH:4347, V-B:PRO:540:CD:9858, H-B:ALA:541:N:9862, V-A:GLY:453:C:4041, V-A:LEU:373:CD2:3280"]

$$$$
3bg_Grossjean_2025
     RDKit          3D

 27 29  0  0  0  0  0  0  0  0999 V2000
  134.1800  123.9050   62.7070 C   0  0  0  0  0  0  0  0  0  0  0  0
  132.9580  122.9950   62.6070 C   0  0  0  0  0  0  0  0  0  0  0  0
  133.0400  121.8650   61.7880 C   0  0  0  0  0  0  0  0  0  0  0  0
  131.9440  120.9990   61.6730 C   0  0  0  0  0  0  0  0  0  0  0  0
  131.9700  119.7610   60.8190 C   0  0  0  0  0  0  0  0  0  0  0  0
  130.9240  118.8250   60.8680 C   0  0  0  0  0  0  0  0  0  0  0  0
  130.9360  117.6880   60.0660 C   0  0  0  0  0  0  0  0  0  0  0  0
  132.0000  117.4650   59.2000 C   0  0  0  0  0  0  0  0  0  0  0  0
  133.0550  118.3680   59.1380 C   0  0  0  0  0  0  0  0  0  0  0  0
  133.0400  119.5030   59.9430 C   0  0  0  0  0  0  0  0  0  0  0  0
  130.8000  121.2370   62.3690 N   0  0  0  0  0  0  0  0  0  0  0  0
  130.7050  122.3280   63.1710 C   0  0  0  0  0  0  0  0  0  0  0  0
  129.1630  122.5070   64.0550 S   0  0  0  0  0  0  0  0  0  0  0  0
  128.1830  123.8080   63.2360 C   0  0  0  0  0  0  0  0  0  0  0  0
  128.6840  124.0910   61.8170 C   0  0  0  0  0  0  0  0  0  0  0  0
  128.9050  125.2490   61.4640 O   0  0  0  0  0  0  0  0  0  0  0  0
  128.8330  123.0250   61.0110 N   0  0  0  0  0  0  0  0  0  0  0  0
  129.1200  123.0770   59.5770 C   0  0  0  0  0  0  0  0  0  0  0  0
  127.8440  123.0900   58.7440 C   0  0  0  0  0  0  0  0  0  0  0  0
  126.6870  123.6970   59.2450 C   0  0  0  0  0  0  0  0  0  0  0  0
  125.5200  123.7010   58.4880 C   0  0  0  0  0  0  0  0  0  0  0  0
  125.5130  123.1080   57.2270 C   0  0  0  0  0  0  0  0  0  0  0  0
  126.6670  122.5200   56.7120 C   0  0  0  0  0  0  0  0  0  0  0  0
  127.8350  122.5160   57.4700 C   0  0  0  0  0  0  0  0  0  0  0  0
  131.7650  123.2470   63.3160 C   0  0  0  0  0  0  0  0  0  0  0  0
  131.6510  124.4190   64.1890 C   0  0  0  0  0  0  0  0  0  0  0  0
  131.5630  125.3450   64.8770 N   0  0  0  0  0  0  0  0  0  0  0  0
  1  2  1  0
  2  3  2  0
  3  4  1  0
  4  5  1  0
  5  6  2  0
  6  7  1  0
  7  8  2  0
  8  9  1  0
  9 10  2  0
  4 11  2  0
 11 12  1  0
 12 13  1  0
 13 14  1  0
 14 15  1  0
 15 16  2  0
 15 17  1  0
 17 18  1  0
 18 19  1  0
 19 20  2  0
 20 21  1  0
 21 22  2  0
 22 23  1  0
 23 24  2  0
 12 25  2  0
 25 26  1  0
 26 27  3  0
 25  2  1  0
 10  5  1  0
 24 19  1  0
M  END
>  <Binding energies>  (21) 
[-8.13]

>  <Ligand effiencies>  (21) 
[-0.29035714285714287]

>  <Interactions>  (21) 
["V-B:GLU:543:CD:9879, V-B:PRO:540:N:9855, V-B:PRO:540:CB:9856, V-B:TYR:539:CD2:9845, V-B:TYR:539:C:9838, V-B:MET:535:CE:9806, V-B:PRO:540:CA:9854, V-B:LEU:363:CD1:8159, V-B:TYR:539:CE2:9847, V-A:LEU:475:CD2:4258, V-B:TYR:539:CZ:9848, V-B:TYR:539:CE1:9846, V-B:TYR:539:CA:9840, V-B:TYR:539:CD1:9844, V-A:ILE:369:CG2:3236, V-B:TYR:539:CB:9842, V-B:TYR:539:CG:9843, V-A:ILE:369:CD1:3238, V-A:HIS:383:CE1:3393, V-A:GLY:454:CA:4048, V-A:SER:385:CA:3406, H-A:TYR:484:OH:4347, V-B:GLU:543:CG:9878, V-B:PRO:540:CD:9858, V-A:GLY:453:C:4041, V-A:LEU:373:CG:3278, V-A:LEU:373:CD2:3280, H-B:TYR:539:O:9839, V-A:LEU:373:CD1:3279"]

$$$$
3ca_Grossjean_2025
     RDKit          3D

 31 33  0  0  0  0  0  0  0  0999 V2000
  124.4810  124.3650   57.9330 C   0  0  0  0  0  0  0  0  0  0  0  0
  124.7190  123.1270   57.0640 C   0  0  0  0  0  0  0  0  0  0  0  0
  125.8760  123.3290   56.2600 O   0  0  0  0  0  0  0  0  0  0  0  0
  127.0490  122.7140   56.5520 C   0  0  0  0  0  0  0  0  0  0  0  0
  127.4970  121.7600   55.9070 O   0  0  0  0  0  0  0  0  0  0  0  0
  127.7540  123.3110   57.7370 C   0  0  0  0  0  0  0  0  0  0  0  0
  128.3270  124.5840   57.6210 C   0  0  0  0  0  0  0  0  0  0  0  0
  128.9880  125.1640   58.7010 C   0  0  0  0  0  0  0  0  0  0  0  0
  129.0950  124.4820   59.9140 C   0  0  0  0  0  0  0  0  0  0  0  0
  129.7810  125.1590   60.9400 N   0  0  0  0  0  0  0  0  0  0  0  0
  129.3110  125.6770   62.0950 C   0  0  0  0  0  0  0  0  0  0  0  0
  128.1420  125.6230   62.4760 O   0  0  0  0  0  0  0  0  0  0  0  0
  130.3590  126.3570   62.9820 C   0  0  0  0  0  0  0  0  0  0  0  0
  131.6450  125.2110   63.5810 S   0  0  0  0  0  0  0  0  0  0  0  0
  132.0390  124.0210   62.3070 C   0  0  0  0  0  0  0  0  0  0  0  0
  132.6920  124.5140   61.2240 N   0  0  0  0  0  0  0  0  0  0  0  0
  133.0400  123.6670   60.2310 C   0  0  0  0  0  0  0  0  0  0  0  0
  133.7820  124.2900   59.0650 C   0  0  0  0  0  0  0  0  0  0  0  0
  132.7410  122.3070   60.2660 C   0  0  0  0  0  0  0  0  0  0  0  0
  132.0530  121.7770   61.3650 C   0  0  0  0  0  0  0  0  0  0  0  0
  131.7420  120.3160   61.3530 C   0  0  0  0  0  0  0  0  0  0  0  0
  130.4420  119.8710   61.6240 C   0  0  0  0  0  0  0  0  0  0  0  0
  130.1460  118.5110   61.6250 C   0  0  0  0  0  0  0  0  0  0  0  0
  131.1530  117.5860   61.3580 C   0  0  0  0  0  0  0  0  0  0  0  0
  132.4530  118.0110   61.0930 C   0  0  0  0  0  0  0  0  0  0  0  0
  132.7450  119.3730   61.0940 C   0  0  0  0  0  0  0  0  0  0  0  0
  131.6960  122.6530   62.4230 C   0  0  0  0  0  0  0  0  0  0  0  0
  131.0200  122.1460   63.6210 C   0  0  0  0  0  0  0  0  0  0  0  0
  130.4860  121.7460   64.5670 N   0  0  0  0  0  0  0  0  0  0  0  0
  128.5170  123.2100   60.0410 C   0  0  0  0  0  0  0  0  0  0  0  0
  127.8550  122.6320   58.9600 C   0  0  0  0  0  0  0  0  0  0  0  0
  1  2  1  0
  2  3  1  0
  3  4  1  0
  4  5  2  0
  4  6  1  0
  6  7  2  0
  7  8  1  0
  8  9  2  0
  9 10  1  0
 10 11  1  0
 11 12  2  0
 11 13  1  0
 13 14  1  0
 14 15  1  0
 15 16  2  0
 16 17  1  0
 17 18  1  0
 17 19  2  0
 19 20  1  0
 20 21  1  0
 21 22  2  0
 22 23  1  0
 23 24  2  0
 24 25  1  0
 25 26  2  0
 20 27  2  0
 27 28  1  0
 28 29  3  0
  9 30  1  0
 30 31  2  0
 31  6  1  0
 27 15  1  0
 26 21  1  0
M  END
>  <Binding energies>  (22) 
[-8.62]

>  <Ligand effiencies>  (22) 
[-0.269375]

>  <Interactions>  (22) 
["V-B:TYR:531:CZ:9765, V-B:PRO:540:N:9855, H-B:TYR:531:OH:9766, V-B:PRO:540:CB:9856, V-B:TYR:539:CD2:9845, V-B:TYR:539:C:9838, V-B:MET:535:CE:9806, H-B:TYR:539:N:9841, V-B:TYR:531:CE2:9764, V-B:PRO:540:CA:9854, V-B:LEU:363:CD1:8159, V-B:TYR:539:CE2:9847, V-A:ILE:369:CB:3235, V-A:LEU:475:CD2:4258, V-A:PRO:482:CG:4326, V-B:ALA:541:CB:9863, V-A:ILE:369:CG1:3237, V-A:ASP:366:CG:3212, V-A:SER:385:CB:3408, V-A:ILE:369:CG2:3236, V-A:ILE:369:CD1:3238, V-A:HIS:383:CE1:3393, V-A:PRO:482:CB:4325, V-A:ASP:366:CB:3211, V-A:SER:385:CA:3406, H-A:ASP:366:OD2:3214, V-A:ASP:366:CA:3209"]

$$$$
3ce_Grossjean_2025
     RDKit          3D

 27 29  0  0  0  0  0  0  0  0999 V2000
  135.3420  125.8420   67.3600 C   0  0  0  0  0  0  0  0  0  0  0  0
  133.9830  125.8880   66.6860 C   0  0  0  0  0  0  0  0  0  0  0  0
  132.8380  126.2890   67.3780 C   0  0  0  0  0  0  0  0  0  0  0  0
  131.6240  126.3170   66.6920 C   0  0  0  0  0  0  0  0  0  0  0  0
  131.5830  125.9470   65.3460 C   0  0  0  0  0  0  0  0  0  0  0  0
  132.7660  125.5460   64.7160 C   0  0  0  0  0  0  0  0  0  0  0  0
  132.6690  125.2040   63.3560 N   0  0  0  0  0  0  0  0  0  0  0  0
  133.6180  124.6620   62.5610 C   0  0  0  0  0  0  0  0  0  0  0  0
  134.7590  124.3680   62.9210 O   0  0  0  0  0  0  0  0  0  0  0  0
  133.2010  124.4030   61.1130 C   0  0  0  0  0  0  0  0  0  0  0  0
  131.7480  123.3170   61.0090 S   0  0  0  0  0  0  0  0  0  0  0  0
  130.7980  123.9110   59.6290 C   0  0  0  0  0  0  0  0  0  0  0  0
  131.4580  124.8040   58.8500 N   0  0  0  0  0  0  0  0  0  0  0  0
  130.8270  125.3030   57.7620 C   0  0  0  0  0  0  0  0  0  0  0  0
  131.6260  126.2860   56.9280 C   0  0  0  0  0  0  0  0  0  0  0  0
  129.5240  124.9470   57.4220 C   0  0  0  0  0  0  0  0  0  0  0  0
  128.8170  124.0470   58.2290 C   0  0  0  0  0  0  0  0  0  0  0  0
  127.4140  123.7150   57.8370 C   0  0  0  0  0  0  0  0  0  0  0  0
  127.1670  122.7310   56.8730 C   0  0  0  0  0  0  0  0  0  0  0  0
  125.8630  122.4210   56.4980 C   0  0  0  0  0  0  0  0  0  0  0  0
  124.7970  123.1000   57.0820 C   0  0  0  0  0  0  0  0  0  0  0  0
  125.0260  124.0890   58.0350 C   0  0  0  0  0  0  0  0  0  0  0  0
  126.3310  124.3960   58.4090 C   0  0  0  0  0  0  0  0  0  0  0  0
  129.4680  123.5050   59.3660 C   0  0  0  0  0  0  0  0  0  0  0  0
  128.7840  122.5460   60.2390 C   0  0  0  0  0  0  0  0  0  0  0  0
  128.2430  121.7900   60.9280 N   0  0  0  0  0  0  0  0  0  0  0  0
  133.9600  125.5230   65.3790 N   0  0  0  0  0  0  0  0  0  0  0  0
  1  2  1  0
  2  3  2  0
  3  4  1  0
  4  5  2  0
  5  6  1  0
  6  7  1  0
  7  8  1  0
  8  9  2  0
  8 10  1  0
 10 11  1  0
 11 12  1  0
 12 13  2  0
 13 14  1  0
 14 15  1  0
 14 16  2  0
 16 17  1  0
 17 18  1  0
 18 19  2  0
 19 20  1  0
 20 21  2  0
 21 22  1  0
 22 23  2  0
 17 24  2  0
 24 25  1  0
 25 26  3  0
  6 27  2  0
 27  2  1  0
 24 12  1  0
 23 18  1  0
M  END
>  <Binding energies>  (23) 
[-8.74]

>  <Ligand effiencies>  (23) 
[-0.31214285714285717]

>  <Interactions>  (23) 
["V-A:HIS:456:CE1:4069, V-A:ARG:545:CZ:4925, V-B:PRO:540:N:9855, V-A:TYR:484:CZ:4346, V-A:ARG:545:CD:4922, V-B:PRO:540:CB:9856, V-B:TYR:539:CD2:9845, V-B:TYR:539:C:9838, V-B:MET:535:CE:9806, V-B:TYR:531:CE2:9764, V-B:PRO:540:CA:9854, V-B:LEU:363:CD1:8159, V-A:ARG:545:CG:4921, V-B:TYR:539:CE2:9847, H-B:TYR:539:OH:9849, V-B:TYR:539:CZ:9848, V-A:ASP:366:CG:3212, V-A:ILE:369:CD1:3238, H-A:TYR:484:OH:4347, H-A:GLY:454:N:4049, V-A:TYR:531:CE1:4791, V-B:PRO:540:CD:9858, H-B:ALA:541:N:9862, H-A:ARG:545:NH2:4927, H-A:ASP:366:OD2:3214, V-A:GLY:453:C:4041, H-A:ARG:545:NH1:4926, H-A:ARG:545:NE:4923, V-A:ARG:545:CB:4920, V-A:ILE:455:C:4051, V-A:GLY:453:CA:4043"]

$$$$
3cj_Grossjean_2025
     RDKit          3D

 25 27  0  0  0  0  0  0  0  0999 V2000
  131.7570  125.1630   58.3680 C   0  0  0  0  0  0  0  0  0  0  0  0
  130.4810  124.6600   59.0140 C   0  0  0  0  0  0  0  0  0  0  0  0
  129.3640  124.3200   58.2540 C   0  0  0  0  0  0  0  0  0  0  0  0
  128.2130  123.8370   58.8910 C   0  0  0  0  0  0  0  0  0  0  0  0
  127.0640  123.4240   58.0320 C   0  0  0  0  0  0  0  0  0  0  0  0
  127.2490  122.5080   56.9900 C   0  0  0  0  0  0  0  0  0  0  0  0
  126.1790  122.1340   56.1810 C   0  0  0  0  0  0  0  0  0  0  0  0
  124.9200  122.6810   56.4090 C   0  0  0  0  0  0  0  0  0  0  0  0
  124.7220  123.6010   57.4350 C   0  0  0  0  0  0  0  0  0  0  0  0
  125.7940  123.9730   58.2430 C   0  0  0  0  0  0  0  0  0  0  0  0
  128.2150  123.7410   60.3050 C   0  0  0  0  0  0  0  0  0  0  0  0
  127.0310  123.2700   61.0310 C   0  0  0  0  0  0  0  0  0  0  0  0
  126.0970  122.8970   61.6030 N   0  0  0  0  0  0  0  0  0  0  0  0
  129.3930  124.1030   60.9950 C   0  0  0  0  0  0  0  0  0  0  0  0
  129.5750  123.9040   62.7550 S   0  0  0  0  0  0  0  0  0  0  0  0
  129.3790  122.1170   63.0460 C   0  0  0  0  0  0  0  0  0  0  0  0
  130.5360  121.3110   62.4460 C   0  0  0  0  0  0  0  0  0  0  0  0
  131.6920  121.5510   62.8010 O   0  0  0  0  0  0  0  0  0  0  0  0
  130.1770  120.3440   61.5750 N   0  0  0  0  0  0  0  0  0  0  0  0
  131.0090  119.3970   61.0010 C   0  0  0  0  0  0  0  0  0  0  0  0
  132.1950  119.5830   60.4630 N   0  0  0  0  0  0  0  0  0  0  0  0
  132.7170  118.4480   60.0400 C   0  0  0  0  0  0  0  0  0  0  0  0
  131.9470  117.3050   60.2320 C   0  0  0  0  0  0  0  0  0  0  0  0
  130.4570  117.7520   61.0090 S   0  0  0  0  0  0  0  0  0  0  0  0
  130.5080  124.5440   60.3610 N   0  0  0  0  0  0  0  0  0  0  0  0
  1  2  1  0
  2  3  2  0
  3  4  1  0
  4  5  1  0
  5  6  2  0
  6  7  1  0
  7  8  2  0
  8  9  1  0
  9 10  2  0
  4 11  2  0
 11 12  1  0
 12 13  3  0
 11 14  1  0
 14 15  1  0
 15 16  1  0
 16 17  1  0
 17 18  2  0
 17 19  1  0
 19 20  1  0
 20 21  2  0
 21 22  1  0
 22 23  2  0
 23 24  1  0
 14 25  2  0
 25  2  1  0
 10  5  1  0
 24 20  1  0
M  END
>  <Binding energies>  (24) 
[-8.16]

>  <Ligand effiencies>  (24) 
[-0.31384615384615383]

>  <Interactions>  (24) 
["V-B:PRO:540:N:9855, V-B:PRO:540:CB:9856, V-B:TYR:539:CD2:9845, V-B:TYR:539:C:9838, V-B:MET:535:CE:9806, V-B:TYR:531:CE2:9764, V-B:PRO:540:CA:9854, V-B:LEU:363:CD1:8159, V-B:TYR:539:CE2:9847, V-A:LEU:475:CD2:4258, V-A:PRO:482:CG:4326, V-B:ALA:541:CB:9863, V-B:TYR:539:CZ:9848, V-B:TYR:539:CG:9843, V-B:ILE:538:CG2:9834, V-A:HIS:383:CE1:3393, V-A:PRO:482:CB:4325, V-B:ILE:538:CA:9831, V-A:SER:385:CA:3406, V-B:PRO:540:CD:9858, H-B:ALA:541:N:9862, V-B:ILE:538:C:9829, V-B:ALA:541:CA:9861, V-B:PRO:540:C:9852, H-B:TYR:539:O:9839"]

$$$$
4ba_Grossjean_2025
     RDKit          3D

 28 30  0  0  0  0  0  0  0  0999 V2000
  125.6270  128.2300   68.3460 C   0  0  0  0  0  0  0  0  0  0  0  0
  124.4490  129.2190   68.4310 C   0  0  0  0  0  0  0  0  0  0  0  0
  123.8390  129.6270   67.0740 C   0  0  0  0  0  0  0  0  0  0  0  0
  122.6130  129.6600   66.9460 O   0  0  0  0  0  0  0  0  0  0  0  0
  124.7830  129.9750   65.9600 C   0  0  0  0  0  0  0  0  0  0  0  0
  124.8470  131.2960   65.5000 C   0  0  0  0  0  0  0  0  0  0  0  0
  125.7120  131.6460   64.4670 C   0  0  0  0  0  0  0  0  0  0  0  0
  126.5340  130.6850   63.8770 C   0  0  0  0  0  0  0  0  0  0  0  0
  127.3630  131.1460   62.8360 N   0  0  0  0  0  0  0  0  0  0  0  0
  128.3330  132.0940   62.8480 C   0  0  0  0  0  0  0  0  0  0  0  0
  128.6260  132.7710   63.8350 O   0  0  0  0  0  0  0  0  0  0  0  0
  129.0250  132.2960   61.5740 C   0  0  0  0  0  0  0  0  0  0  0  0
  128.1590  132.9660   60.1920 S   0  0  0  0  0  0  0  0  0  0  0  0
  129.5770  132.8280   59.1790 C   0  0  0  0  0  0  0  0  0  0  0  0
  129.5560  133.2060   57.9010 N   0  0  0  0  0  0  0  0  0  0  0  0
  130.7120  133.0510   57.2170 C   0  0  0  0  0  0  0  0  0  0  0  0
  130.6640  133.4780   55.7610 C   0  0  0  0  0  0  0  0  0  0  0  0
  131.8790  132.5370   57.7760 C   0  0  0  0  0  0  0  0  0  0  0  0
  131.9080  132.1380   59.1220 C   0  0  0  0  0  0  0  0  0  0  0  0
  133.2160  131.5810   59.6930 C   0  0  0  0  0  0  0  0  0  0  0  0
  133.7440  132.3560   60.6420 F   0  0  0  0  0  0  0  0  0  0  0  0
  133.0000  130.3810   60.2330 F   0  0  0  0  0  0  0  0  0  0  0  0
  134.1210  131.4690   58.7200 F   0  0  0  0  0  0  0  0  0  0  0  0
  130.7010  132.2830   59.8700 C   0  0  0  0  0  0  0  0  0  0  0  0
  130.3510  131.9800   61.2370 C   0  0  0  0  0  0  0  0  0  0  0  0
  131.2420  131.4320   62.1250 N   0  0  0  0  0  0  0  0  0  0  0  0
  126.4710  129.3590   64.3270 C   0  0  0  0  0  0  0  0  0  0  0  0
  125.6050  129.0100   65.3600 C   0  0  0  0  0  0  0  0  0  0  0  0
  1  2  1  0
  2  3  1  0
  3  4  2  0
  3  5  1  0
  5  6  2  0
  6  7  1  0
  7  8  2  0
  8  9  1  0
  9 10  1  0
 10 11  2  0
 10 12  1  0
 12 13  1  0
 13 14  1  0
 14 15  2  0
 15 16  1  0
 16 17  1  0
 16 18  2  0
 18 19  1  0
 19 20  1  0
 20 21  1  0
 20 22  1  0
 20 23  1  0
 19 24  2  0
 24 25  1  0
 25 26  1  0
  8 27  1  0
 27 28  2  0
 28  5  1  0
 25 12  2  0
 24 14  1  0
M  END
>  <Binding energies>  (25) 
[-7.86]

>  <Ligand effiencies>  (25) 
[-0.2535483870967742]

>  <Interactions>  (25) 
["V-B:ARG:545:CD:9894, V-B:GLU:543:CD:9879, V-B:HIS:456:CE1:9040, V-B:ARG:545:CG:9893, V-B:LEU:475:CD1:9228, V-B:ARG:545:CZ:9897, V-B:ARG:545:CB:9892, V-B:GLY:454:CA:9019, V-A:ASP:366:CG:3212, V-A:GLU:543:CD:4907, V-A:ASP:366:CB:3211, V-A:ASN:362:C:3171, V-A:LEU:363:CA:3184, V-A:LEU:363:C:3182, V-A:LEU:363:CD1:3188, V-A:PRO:540:CA:4882, V-A:TYR:539:CD1:4872, V-A:ASN:362:CB:3175, V-A:ILE:538:CG2:4862, V-A:PRO:540:N:4883, V-A:PRO:540:CB:4884, V-A:TYR:539:C:4866, V-A:ILE:538:CB:4861, V-A:ILE:538:CA:4859, V-A:LEU:363:CB:3186, H-B:GLY:454:N:9020, V-B:TYR:484:CZ:9317, H-A:GLU:543:OE2:4909, H-A:ASP:366:OD2:3214, H-B:ARG:545:NE:9895, H-B:ILE:455:N:9025"]

$$$$
4bb_Grossjean_2025
     RDKit          3D

 27 29  0  0  0  0  0  0  0  0999 V2000
  132.8490  126.2920   67.4160 C   0  0  0  0  0  0  0  0  0  0  0  0
  133.3560  125.8770   66.0340 C   0  0  0  0  0  0  0  0  0  0  0  0
  134.5740  125.8310   65.8520 O   0  0  0  0  0  0  0  0  0  0  0  0
  132.3460  125.5580   64.9730 C   0  0  0  0  0  0  0  0  0  0  0  0
  132.6140  124.5380   64.0510 C   0  0  0  0  0  0  0  0  0  0  0  0
  131.6940  124.2230   63.0560 C   0  0  0  0  0  0  0  0  0  0  0  0
  130.4850  124.9150   62.9670 C   0  0  0  0  0  0  0  0  0  0  0  0
  129.6280  124.5170   61.9210 N   0  0  0  0  0  0  0  0  0  0  0  0
  128.4810  123.7960   61.9610 C   0  0  0  0  0  0  0  0  0  0  0  0
  127.9970  123.3230   62.9890 O   0  0  0  0  0  0  0  0  0  0  0  0
  127.8390  123.5730   60.6630 C   0  0  0  0  0  0  0  0  0  0  0  0
  128.7070  122.7420   59.3750 S   0  0  0  0  0  0  0  0  0  0  0  0
  127.3570  122.9300   58.2800 C   0  0  0  0  0  0  0  0  0  0  0  0
  127.4020  122.4620   57.0340 N   0  0  0  0  0  0  0  0  0  0  0  0
  126.2970  122.6690   56.2810 C   0  0  0  0  0  0  0  0  0  0  0  0
  126.3680  122.1260   54.8660 C   0  0  0  0  0  0  0  0  0  0  0  0
  125.1590  123.3270   56.7400 C   0  0  0  0  0  0  0  0  0  0  0  0
  125.1060  123.8230   58.0520 C   0  0  0  0  0  0  0  0  0  0  0  0
  123.8330  124.5400   58.5120 C   0  0  0  0  0  0  0  0  0  0  0  0
  122.8500  124.4900   57.6100 F   0  0  0  0  0  0  0  0  0  0  0  0
  123.3770  123.9760   59.6310 F   0  0  0  0  0  0  0  0  0  0  0  0
  124.0970  125.8260   58.7430 F   0  0  0  0  0  0  0  0  0  0  0  0
  126.2560  123.6210   58.8740 C   0  0  0  0  0  0  0  0  0  0  0  0
  126.5640  123.9800   60.2350 C   0  0  0  0  0  0  0  0  0  0  0  0
  125.6820  124.6540   61.0410 N   0  0  0  0  0  0  0  0  0  0  0  0
  130.2120  125.9430   63.8820 C   0  0  0  0  0  0  0  0  0  0  0  0
  131.1350  126.2580   64.8760 C   0  0  0  0  0  0  0  0  0  0  0  0
  1  2  1  0
  2  3  2  0
  2  4  1  0
  4  5  2  0
  5  6  1  0
  6  7  2  0
  7  8  1  0
  8  9  1  0
  9 10  2  0
  9 11  1  0
 11 12  1  0
 12 13  1  0
 13 14  2  0
 14 15  1  0
 15 16  1  0
 15 17  2  0
 17 18  1  0
 18 19  1  0
 19 20  1  0
 19 21  1  0
 19 22  1  0
 18 23  2  0
 23 24  1  0
 24 25  1  0
  7 26  1  0
 26 27  2  0
 27  4  1  0
 24 11  2  0
 23 13  1  0
M  END
>  <Binding energies>  (26) 
[-7.72]

>  <Ligand effiencies>  (26) 
[-0.2573333333333333]

>  <Interactions>  (26) 
["V-A:HIS:456:CE1:4069, V-B:ASP:366:CG:8183, V-B:LEU:363:CB:8157, V-B:TYR:531:CZ:9765, V-A:ARG:545:CZ:4925, V-B:ASP:366:CB:8182, V-B:PRO:540:N:9855, V-A:TYR:484:CZ:4346, V-B:LEU:363:CA:8155, V-A:ARG:545:CD:4922, V-B:PRO:540:CB:9856, V-B:TYR:539:CD2:9845, V-B:TYR:539:C:9838, V-B:MET:535:CE:9806, H-B:TYR:539:N:9841, V-B:TYR:531:CE2:9764, V-B:PRO:540:CA:9854, V-B:LEU:363:CD1:8159, V-A:ARG:545:CG:4921, V-B:TYR:539:CE2:9847, V-B:ILE:538:CB:9833, V-B:MET:535:CG:9804, V-B:ILE:538:CD1:9836, V-B:ILE:538:CG2:9834, V-B:ILE:538:CA:9831, H-B:GLU:543:OE1:9880, H-A:TYR:484:OH:4347, H-A:GLY:454:N:4049, H-B:ASP:366:OD1:8184, H-B:ALA:541:N:9862, V-B:ILE:538:C:9829, H-A:ARG:545:NH1:4926, H-A:ARG:545:NE:4923, V-B:VAL:537:C:9821, V-B:ASN:362:C:8142, V-B:LEU:363:CG:8158, V-B:LEU:363:C:8153"]

$$$$
4bd_Grossjean_2025
     RDKit          3D

 24 26  0  0  0  0  0  0  0  0999 V2000
  128.4860  117.1540   76.7800 C   0  0  0  0  0  0  0  0  0  0  0  0
  128.5790  118.4860   76.0580 C   0  0  0  0  0  0  0  0  0  0  0  0
  127.8720  118.7160   74.8810 C   0  0  0  0  0  0  0  0  0  0  0  0
  127.9690  119.9520   74.2230 C   0  0  0  0  0  0  0  0  0  0  0  0
  127.1750  120.1570   72.9280 C   0  0  0  0  0  0  0  0  0  0  0  0
  126.1660  121.0200   73.0660 F   0  0  0  0  0  0  0  0  0  0  0  0
  127.9780  120.6310   71.9760 F   0  0  0  0  0  0  0  0  0  0  0  0
  126.6550  118.9970   72.5290 F   0  0  0  0  0  0  0  0  0  0  0  0
  128.8120  120.9400   74.8120 C   0  0  0  0  0  0  0  0  0  0  0  0
  129.1530  122.2910   74.4360 C   0  0  0  0  0  0  0  0  0  0  0  0
  128.6450  122.8970   73.3160 N   0  0  0  0  0  0  0  0  0  0  0  0
  130.0480  122.9230   75.3150 C   0  0  0  0  0  0  0  0  0  0  0  0
  130.6120  124.2740   75.2290 C   0  0  0  0  0  0  0  0  0  0  0  0
  129.9000  125.2340   74.9310 O   0  0  0  0  0  0  0  0  0  0  0  0
  131.9360  124.3700   75.5080 N   0  0  0  0  0  0  0  0  0  0  0  0
  132.7780  125.4970   75.4760 C   0  0  0  0  0  0  0  0  0  0  0  0
  134.0580  125.3200   76.0070 C   0  0  0  0  0  0  0  0  0  0  0  0
  134.9690  126.3730   76.0120 C   0  0  0  0  0  0  0  0  0  0  0  0
  134.6030  127.6040   75.4760 C   0  0  0  0  0  0  0  0  0  0  0  0
  133.3340  127.7900   74.9300 C   0  0  0  0  0  0  0  0  0  0  0  0
  132.4210  126.7390   74.9250 C   0  0  0  0  0  0  0  0  0  0  0  0
  130.4920  121.8590   76.6470 S   0  0  0  0  0  0  0  0  0  0  0  0
  129.4830  120.5770   76.0200 C   0  0  0  0  0  0  0  0  0  0  0  0
  129.3860  119.4020   76.6410 N   0  0  0  0  0  0  0  0  0  0  0  0
  1  2  1  0
  2  3  2  0
  3  4  1  0
  4  5  1  0
  5  6  1  0
  5  7  1  0
  5  8  1  0
  4  9  2  0
  9 10  1  0
 10 11  1  0
 10 12  2  0
 12 13  1  0
 13 14  2  0
 13 15  1  0
 15 16  1  0
 16 17  2  0
 17 18  1  0
 18 19  2  0
 19 20  1  0
 20 21  2  0
 12 22  1  0
 22 23  1  0
 23 24  2  0
 24  2  1  0
 23  9  1  0
 21 16  1  0
M  END
>  <Binding energies>  (27) 
[-6.58]

>  <Ligand effiencies>  (27) 
[-0.2437037037037037]

>  <Interactions>  (27) 
["V-B:GLU:543:C:9873, V-A:HIS:456:C:4060, V-A:HIS:456:CB:4064, V-A:VAL:457:C:4072, V-A:HIS:456:CG:4065, V-B:GLY:544:CA:9885, V-B:GLU:543:CA:9875, H-B:LYS:547:NZ:9922, H-A:ASP:473:OD2:4241, V-A:VAL:458:CG2:4086, V-A:TYR:484:CG:4341, V-A:TYR:484:CD2:4343, V-A:TYR:484:CB:4340, V-A:ASP:473:CG:4239, V-A:VAL:457:CA:4074, H-B:GLU:543:O:9874, V-A:TYR:484:CA:4338"]

$$$$
4be_Grossjean_2025
     RDKit          3D

 25 27  0  0  0  0  0  0  0  0999 V2000
  121.8250  131.5040   62.4790 C   0  0  0  0  0  0  0  0  0  0  0  0
  123.0960  130.6770   62.4330 C   0  0  0  0  0  0  0  0  0  0  0  0
  123.7360  130.3880   61.2250 C   0  0  0  0  0  0  0  0  0  0  0  0
  124.9000  129.6190   61.2590 C   0  0  0  0  0  0  0  0  0  0  0  0
  125.3900  129.1630   62.4840 C   0  0  0  0  0  0  0  0  0  0  0  0
  124.7030  129.4950   63.6580 C   0  0  0  0  0  0  0  0  0  0  0  0
  125.2450  129.0000   64.8570 N   0  0  0  0  0  0  0  0  0  0  0  0
  124.9930  129.3910   66.1310 C   0  0  0  0  0  0  0  0  0  0  0  0
  124.2000  130.2870   66.4300 O   0  0  0  0  0  0  0  0  0  0  0  0
  125.7520  128.6860   67.1680 C   0  0  0  0  0  0  0  0  0  0  0  0
  124.9870  128.2790   68.7030 S   0  0  0  0  0  0  0  0  0  0  0  0
  126.4650  127.5620   69.3010 C   0  0  0  0  0  0  0  0  0  0  0  0
  126.5320  127.0230   70.5170 N   0  0  0  0  0  0  0  0  0  0  0  0
  127.7290  126.4970   70.8680 C   0  0  0  0  0  0  0  0  0  0  0  0
  127.7870  125.8910   72.2580 C   0  0  0  0  0  0  0  0  0  0  0  0
  128.8470  126.4960   70.0380 C   0  0  0  0  0  0  0  0  0  0  0  0
  128.7810  127.0610   68.7550 C   0  0  0  0  0  0  0  0  0  0  0  0
  130.0360  127.0330   67.8760 C   0  0  0  0  0  0  0  0  0  0  0  0
  129.7600  127.0520   66.5700 F   0  0  0  0  0  0  0  0  0  0  0  0
  130.7940  128.0970   68.1380 F   0  0  0  0  0  0  0  0  0  0  0  0
  130.7350  125.9240   68.1210 F   0  0  0  0  0  0  0  0  0  0  0  0
  127.5350  127.6290   68.3550 C   0  0  0  0  0  0  0  0  0  0  0  0
  127.0980  128.2870   67.1490 C   0  0  0  0  0  0  0  0  0  0  0  0
  127.9270  128.4970   66.0770 N   0  0  0  0  0  0  0  0  0  0  0  0
  123.5610  130.2420   63.6320 N   0  0  0  0  0  0  0  0  0  0  0  0
  1  2  1  0
  2  3  2  0
  3  4  1  0
  4  5  2  0
  5  6  1  0
  6  7  1  0
  7  8  1  0
  8  9  2  0
  8 10  1  0
 10 11  1  0
 11 12  1  0
 12 13  2  0
 13 14  1  0
 14 15  1  0
 14 16  2  0
 16 17  1  0
 17 18  1  0
 18 19  1  0
 18 20  1  0
 18 21  1  0
 17 22  2  0
 22 23  1  0
 23 24  1  0
  6 25  2  0
 25  2  1  0
 23 10  2  0
 22 12  1  0
M  END
>  <Binding energies>  (28) 
[-6.8]

>  <Ligand effiencies>  (28) 
[-0.24285714285714285]

>  <Interactions>  (28) 
["V-B:GLU:543:CB:9877, V-A:HIS:456:CE1:4069, V-B:GLU:543:C:9873, V-B:GLY:544:C:9883, V-A:HIS:456:CD2:4067, V-B:ARG:545:CA:9890, V-B:ARG:545:CD:9894, V-B:GLU:543:CD:9879, V-B:HIS:456:CE1:9040, V-B:ARG:545:CG:9893, V-B:ASP:366:CG:8183, V-B:ASP:366:CB:8182, V-A:TYR:484:CZ:4346, V-B:GLY:453:C:9012, V-B:ARG:545:CZ:9897, V-B:ARG:545:CB:9892, V-B:GLY:544:CA:9885, H-B:GLU:543:OE2:9881, V-A:GLU:543:CD:4907, V-A:GLU:543:CG:4906, H-B:GLU:543:OE1:9880, V-A:GLU:543:CB:4905, H-B:TYR:484:OH:9318, V-A:TYR:484:CE2:4345, V-B:GLY:453:CA:9014, H-B:GLY:454:N:9020, H-B:HIS:456:ND1:9037, V-B:ILE:369:CG1:8208, H-B:ARG:545:N:9891"]

$$$$
4bg_Grossjean_2025
     RDKit          3D

 25 27  0  0  0  0  0  0  0  0999 V2000
  126.7020  122.1070   54.9080 C   0  0  0  0  0  0  0  0  0  0  0  0
  126.4490  122.5830   56.3280 C   0  0  0  0  0  0  0  0  0  0  0  0
  125.3200  123.3350   56.6420 C   0  0  0  0  0  0  0  0  0  0  0  0
  125.1010  123.7730   57.9580 C   0  0  0  0  0  0  0  0  0  0  0  0
  123.8450  124.5980   58.2560 C   0  0  0  0  0  0  0  0  0  0  0  0
  123.0330  124.7100   57.2020 F   0  0  0  0  0  0  0  0  0  0  0  0
  123.1490  124.0210   59.2360 F   0  0  0  0  0  0  0  0  0  0  0  0
  124.1910  125.8300   58.6270 F   0  0  0  0  0  0  0  0  0  0  0  0
  126.0760  123.4120   58.9350 C   0  0  0  0  0  0  0  0  0  0  0  0
  126.1930  123.6770   60.3480 C   0  0  0  0  0  0  0  0  0  0  0  0
  125.2720  124.4190   61.0440 N   0  0  0  0  0  0  0  0  0  0  0  0
  127.3260  123.1030   60.9460 C   0  0  0  0  0  0  0  0  0  0  0  0
  127.7680  123.1940   62.3370 C   0  0  0  0  0  0  0  0  0  0  0  0
  126.9630  123.3190   63.2610 O   0  0  0  0  0  0  0  0  0  0  0  0
  129.0980  123.0930   62.5410 N   0  0  0  0  0  0  0  0  0  0  0  0
  129.7660  123.1710   63.8400 C   0  0  0  0  0  0  0  0  0  0  0  0
  131.1310  123.8440   63.7850 C   0  0  0  0  0  0  0  0  0  0  0  0
  132.0960  123.4000   62.8760 C   0  0  0  0  0  0  0  0  0  0  0  0
  133.3290  124.0420   62.8010 C   0  0  0  0  0  0  0  0  0  0  0  0
  133.5890  125.1350   63.6240 C   0  0  0  0  0  0  0  0  0  0  0  0
  132.6270  125.5940   64.5200 C   0  0  0  0  0  0  0  0  0  0  0  0
  131.3930  124.9520   64.5960 C   0  0  0  0  0  0  0  0  0  0  0  0
  128.3080  122.2420   59.7630 S   0  0  0  0  0  0  0  0  0  0  0  0
  127.1840  122.6320   58.4830 C   0  0  0  0  0  0  0  0  0  0  0  0
  127.3880  122.2210   57.2310 N   0  0  0  0  0  0  0  0  0  0  0  0
  1  2  1  0
  2  3  2  0
  3  4  1  0
  4  5  1  0
  5  6  1  0
  5  7  1  0
  5  8  1  0
  4  9  2  0
  9 10  1  0
 10 11  1  0
 10 12  2  0
 12 13  1  0
 13 14  2  0
 13 15  1  0
 15 16  1  0
 16 17  1  0
 17 18  2  0
 18 19  1  0
 19 20  2  0
 20 21  1  0
 21 22  2  0
 12 23  1  0
 23 24  1  0
 24 25  2  0
 25  2  1  0
 24  9  1  0
 22 17  1  0
M  END
>  <Binding energies>  (29) 
[-6.85]

>  <Ligand effiencies>  (29) 
[-0.24464285714285713]

>  <Interactions>  (29) 
["V-B:ASP:366:CG:8183, V-B:LEU:363:CB:8157, V-B:TYR:531:CZ:9765, V-A:ARG:545:CZ:4925, V-B:ASP:366:CB:8182, V-B:PRO:540:N:9855, V-B:LEU:363:CA:8155, V-B:PRO:540:CB:9856, V-B:TYR:539:CD2:9845, V-B:TYR:539:C:9838, V-B:MET:535:CE:9806, H-B:TYR:539:N:9841, V-B:TYR:531:CE2:9764, V-B:PRO:540:CA:9854, V-B:LEU:363:CD1:8159, V-B:TYR:539:CE2:9847, V-B:ILE:538:CB:9833, V-A:ASP:366:CG:3212, V-B:MET:535:CG:9804, V-B:ILE:538:CD1:9836, V-B:ILE:538:CA:9831, H-B:GLU:543:OE1:9880, H-B:ASP:366:OD1:8184, H-B:ALA:541:N:9862, V-B:ILE:538:C:9829, V-B:PRO:540:C:9852, V-B:VAL:537:C:9821, V-B:ASN:362:C:8142, V-B:LEU:363:CG:8158, V-B:TYR:531:CD2:9762"]

$$$$
4ca_Grossjean_2025
     RDKit          3D

 34 37  0  0  0  0  0  0  0  0999 V2000
  129.0140  132.6780   54.9610 C   0  0  0  0  0  0  0  0  0  0  0  0
  130.3050  133.4900   55.0980 C   0  0  0  0  0  0  0  0  0  0  0  0
  130.5360  133.7830   56.4700 O   0  0  0  0  0  0  0  0  0  0  0  0
  131.6440  133.3260   57.1080 C   0  0  0  0  0  0  0  0  0  0  0  0
  132.6900  133.9760   57.2030 O   0  0  0  0  0  0  0  0  0  0  0  0
  131.4690  131.9540   57.6900 C   0  0  0  0  0  0  0  0  0  0  0  0
  132.5960  131.2520   58.1400 C   0  0  0  0  0  0  0  0  0  0  0  0
  132.4640  129.9790   58.6880 C   0  0  0  0  0  0  0  0  0  0  0  0
  131.2100  129.3790   58.7910 C   0  0  0  0  0  0  0  0  0  0  0  0
  131.1920  128.0950   59.3690 N   0  0  0  0  0  0  0  0  0  0  0  0
  130.2480  127.4970   60.1380 C   0  0  0  0  0  0  0  0  0  0  0  0
  129.1670  128.0090   60.4280 O   0  0  0  0  0  0  0  0  0  0  0  0
  130.5860  126.1520   60.6090 C   0  0  0  0  0  0  0  0  0  0  0  0
  130.2200  124.7460   59.6110 S   0  0  0  0  0  0  0  0  0  0  0  0
  130.9290  123.6690   60.7900 C   0  0  0  0  0  0  0  0  0  0  0  0
  130.9670  122.3530   60.5930 N   0  0  0  0  0  0  0  0  0  0  0  0
  131.5510  121.5970   61.5580 C   0  0  0  0  0  0  0  0  0  0  0  0
  131.5870  120.1180   61.3030 C   0  0  0  0  0  0  0  0  0  0  0  0
  132.7010  119.5200   60.6920 C   0  0  0  0  0  0  0  0  0  0  0  0
  132.7380  118.1500   60.4470 C   0  0  0  0  0  0  0  0  0  0  0  0
  131.6560  117.3540   60.8100 C   0  0  0  0  0  0  0  0  0  0  0  0
  130.5380  117.9200   61.4140 C   0  0  0  0  0  0  0  0  0  0  0  0
  130.5050  119.2910   61.6570 C   0  0  0  0  0  0  0  0  0  0  0  0
  132.0730  122.1630   62.7260 C   0  0  0  0  0  0  0  0  0  0  0  0
  132.0340  123.5490   62.9460 C   0  0  0  0  0  0  0  0  0  0  0  0
  132.6280  124.1020   64.2460 C   0  0  0  0  0  0  0  0  0  0  0  0
  131.7330  124.7490   64.9960 F   0  0  0  0  0  0  0  0  0  0  0  0
  133.1160  123.1040   64.9810 F   0  0  0  0  0  0  0  0  0  0  0  0
  133.6060  124.9620   63.9650 F   0  0  0  0  0  0  0  0  0  0  0  0
  131.4400  124.3530   61.9310 C   0  0  0  0  0  0  0  0  0  0  0  0
  131.2310  125.7740   61.7990 C   0  0  0  0  0  0  0  0  0  0  0  0
  131.6280  126.6730   62.7560 N   0  0  0  0  0  0  0  0  0  0  0  0
  130.0750  130.0750   58.3490 C   0  0  0  0  0  0  0  0  0  0  0  0
  130.2070  131.3500   57.8030 C   0  0  0  0  0  0  0  0  0  0  0  0
  1  2  1  0
  2  3  1  0
  3  4  1  0
  4  5  2  0
  4  6  1  0
  6  7  2  0
  7  8  1  0
  8  9  2  0
  9 10  1  0
 10 11  1  0
 11 12  2  0
 11 13  1  0
 13 14  1  0
 14 15  1  0
 15 16  2  0
 16 17  1  0
 17 18  1  0
 18 19  2  0
 19 20  1  0
 20 21  2  0
 21 22  1  0
 22 23  2  0
 17 24  2  0
 24 25  1  0
 25 26  1  0
 26 27  1  0
 26 28  1  0
 26 29  1  0
 25 30  2  0
 30 31  1  0
 31 32  1  0
  9 33  1  0
 33 34  2  0
 34  6  1  0
 31 13  2  0
 30 15  1  0
 23 18  1  0
M  END
>  <Binding energies>  (30) 
[-8.63]

>  <Ligand effiencies>  (30) 
[-0.23324324324324328]

>  <Interactions>  (30) 
["V-A:ARG:545:CZ:4925, V-A:TYR:484:CZ:4346, V-B:TYR:539:CD2:9845, V-B:TYR:539:CE2:9847, V-A:LEU:475:CD2:4258, V-A:PRO:482:CG:4326, V-B:ALA:541:CB:9863, V-A:ASP:366:CG:3212, V-A:SER:385:CB:3408, V-A:HIS:383:CE1:3393, V-A:PRO:482:CB:4325, V-A:ASP:366:CB:3211, V-A:GLY:454:CA:4048, V-A:SER:385:CA:3406, V-A:TYR:531:CE2:4792, V-A:PRO:540:CA:4882, V-A:TYR:531:CZ:4793, V-A:PRO:540:CD:4886, V-A:ILE:538:CG2:4862, V-A:PRO:540:N:4883, V-A:PRO:540:CB:4884, V-A:TYR:539:C:4866, V-A:TYR:539:CE1:4874, H-A:TYR:539:N:4869, V-A:MET:535:CG:4832, V-A:ILE:538:CB:4861, V-A:ILE:538:CA:4859, H-A:GLU:543:OE2:4909, H-A:ASP:366:OD2:3214, V-A:TYR:539:CZ:4876, H-A:ASP:366:OD1:3213, V-A:GLY:454:C:4046"]

$$$$
4cb_Grossjean_2025
     RDKit          3D

 33 36  0  0  0  0  0  0  0  0999 V2000
  129.4390  133.5830   55.1320 C   0  0  0  0  0  0  0  0  0  0  0  0
  129.8240  133.7510   56.4900 O   0  0  0  0  0  0  0  0  0  0  0  0
  131.0760  133.4290   56.9060 C   0  0  0  0  0  0  0  0  0  0  0  0
  132.0510  134.1750   56.7740 O   0  0  0  0  0  0  0  0  0  0  0  0
  131.1570  132.0720   57.5450 C   0  0  0  0  0  0  0  0  0  0  0  0
  130.0670  131.1980   57.4370 C   0  0  0  0  0  0  0  0  0  0  0  0
  130.1160  129.9310   58.0110 C   0  0  0  0  0  0  0  0  0  0  0  0
  131.2490  129.5140   58.7100 C   0  0  0  0  0  0  0  0  0  0  0  0
  131.1960  128.2090   59.2370 N   0  0  0  0  0  0  0  0  0  0  0  0
  130.1260  127.4310   59.5330 C   0  0  0  0  0  0  0  0  0  0  0  0
  128.9560  127.7550   59.3280 O   0  0  0  0  0  0  0  0  0  0  0  0
  130.4460  126.1240   60.1160 C   0  0  0  0  0  0  0  0  0  0  0  0
  130.2220  124.6540   59.1710 S   0  0  0  0  0  0  0  0  0  0  0  0
  130.8290  123.6660   60.4790 C   0  0  0  0  0  0  0  0  0  0  0  0
  130.9190  122.3430   60.3680 N   0  0  0  0  0  0  0  0  0  0  0  0
  131.4130  121.6610   61.4340 C   0  0  0  0  0  0  0  0  0  0  0  0
  131.5060  120.1710   61.2760 C   0  0  0  0  0  0  0  0  0  0  0  0
  130.4450  119.3400   61.6680 C   0  0  0  0  0  0  0  0  0  0  0  0
  130.5270  117.9570   61.5280 C   0  0  0  0  0  0  0  0  0  0  0  0
  131.6760  117.3840   60.9920 C   0  0  0  0  0  0  0  0  0  0  0  0
  132.7440  118.1850   60.5990 C   0  0  0  0  0  0  0  0  0  0  0  0
  132.6580  119.5660   60.7420 C   0  0  0  0  0  0  0  0  0  0  0  0
  131.7930  122.3100   62.6140 C   0  0  0  0  0  0  0  0  0  0  0  0
  131.7000  123.7040   62.7430 C   0  0  0  0  0  0  0  0  0  0  0  0
  132.1370  124.3510   64.0630 C   0  0  0  0  0  0  0  0  0  0  0  0
  132.9860  125.3670   63.8920 F   0  0  0  0  0  0  0  0  0  0  0  0
  131.0700  124.8270   64.7050 F   0  0  0  0  0  0  0  0  0  0  0  0
  132.7450  123.4470   64.8290 F   0  0  0  0  0  0  0  0  0  0  0  0
  131.1980  124.4310   61.6240 C   0  0  0  0  0  0  0  0  0  0  0  0
  130.9730  125.8360   61.3850 C   0  0  0  0  0  0  0  0  0  0  0  0
  131.2500  126.8000   62.3210 N   0  0  0  0  0  0  0  0  0  0  0  0
  132.3460  130.3810   58.8200 C   0  0  0  0  0  0  0  0  0  0  0  0
  132.2970  131.6470   58.2440 C   0  0  0  0  0  0  0  0  0  0  0  0
  1  2  1  0
  2  3  1  0
  3  4  2  0
  3  5  1  0
  5  6  2  0
  6  7  1  0
  7  8  2  0
  8  9  1  0
  9 10  1  0
 10 11  2  0
 10 12  1  0
 12 13  1  0
 13 14  1  0
 14 15  2  0
 15 16  1  0
 16 17  1  0
 17 18  2  0
 18 19  1  0
 19 20  2  0
 20 21  1  0
 21 22  2  0
 16 23  2  0
 23 24  1  0
 24 25  1  0
 25 26  1  0
 25 27  1  0
 25 28  1  0
 24 29  2  0
 29 30  1  0
 30 31  1  0
  8 32  1  0
 32 33  2  0
 33  5  1  0
 30 12  2  0
 29 14  1  0
 22 17  1  0
M  END
>  <Binding energies>  (31) 
[-8.56]

>  <Ligand effiencies>  (31) 
[-0.23777777777777778]

>  <Interactions>  (31) 
["V-A:ARG:545:CZ:4925, V-A:TYR:484:CZ:4346, V-B:TYR:539:CD2:9845, V-B:TYR:539:CE2:9847, V-A:LEU:475:CD2:4258, V-A:PRO:482:CG:4326, V-B:ALA:541:CB:9863, V-A:ASP:366:CG:3212, V-A:SER:385:CB:3408, V-A:HIS:383:CE1:3393, V-A:PRO:482:CB:4325, V-A:ASP:366:CB:3211, V-A:GLY:454:CA:4048, V-A:SER:385:CA:3406, V-A:TYR:539:CD1:4872, V-A:PRO:540:CD:4886, V-A:PRO:540:N:4883, V-A:TYR:539:C:4866, V-A:TYR:539:CE1:4874, H-A:TYR:539:N:4869, V-A:ILE:538:CA:4859, H-A:ASP:366:OD2:3214, V-A:TYR:539:CZ:4876, H-A:ASP:366:OD1:3213, V-A:TYR:539:CD2:4873, V-A:TYR:539:CE2:4875"]

$$$$
4cc_Grossjean_2025
     RDKit          3D

 31 34  0  0  0  0  0  0  0  0999 V2000
  130.5790  133.7470   55.5650 C   0  0  0  0  0  0  0  0  0  0  0  0
  131.0240  133.6560   56.9140 O   0  0  0  0  0  0  0  0  0  0  0  0
  131.1620  132.4110   57.4970 C   0  0  0  0  0  0  0  0  0  0  0  0
  130.0520  131.5690   57.4360 C   0  0  0  0  0  0  0  0  0  0  0  0
  130.0970  130.2950   57.9930 C   0  0  0  0  0  0  0  0  0  0  0  0
  131.2550  129.8470   58.6310 C   0  0  0  0  0  0  0  0  0  0  0  0
  131.2130  128.5400   59.1510 N   0  0  0  0  0  0  0  0  0  0  0  0
  130.1790  127.6640   59.1840 C   0  0  0  0  0  0  0  0  0  0  0  0
  129.0690  127.8900   58.6990 O   0  0  0  0  0  0  0  0  0  0  0  0
  130.4570  126.3870   59.8490 C   0  0  0  0  0  0  0  0  0  0  0  0
  130.4010  124.8810   58.9360 S   0  0  0  0  0  0  0  0  0  0  0  0
  130.8240  123.9530   60.3550 C   0  0  0  0  0  0  0  0  0  0  0  0
  130.9510  122.6290   60.3070 N   0  0  0  0  0  0  0  0  0  0  0  0
  131.2920  121.9950   61.4590 C   0  0  0  0  0  0  0  0  0  0  0  0
  131.4250  120.5020   61.3750 C   0  0  0  0  0  0  0  0  0  0  0  0
  132.6170  119.9110   60.9270 C   0  0  0  0  0  0  0  0  0  0  0  0
  132.7470  118.5270   60.8450 C   0  0  0  0  0  0  0  0  0  0  0  0
  131.6820  117.7110   61.2100 C   0  0  0  0  0  0  0  0  0  0  0  0
  130.4880  118.2710   61.6540 C   0  0  0  0  0  0  0  0  0  0  0  0
  130.3620  119.6550   61.7330 C   0  0  0  0  0  0  0  0  0  0  0  0
  131.4880  122.6910   62.6560 C   0  0  0  0  0  0  0  0  0  0  0  0
  131.3550  124.0880   62.7180 C   0  0  0  0  0  0  0  0  0  0  0  0
  131.5890  124.7870   64.0610 C   0  0  0  0  0  0  0  0  0  0  0  0
  132.6490  125.6000   64.0520 F   0  0  0  0  0  0  0  0  0  0  0  0
  130.5260  125.5250   64.3780 F   0  0  0  0  0  0  0  0  0  0  0  0
  131.7930  123.8780   65.0140 F   0  0  0  0  0  0  0  0  0  0  0  0
  131.0060  124.7640   61.5140 C   0  0  0  0  0  0  0  0  0  0  0  0
  130.7850  126.1530   61.1940 C   0  0  0  0  0  0  0  0  0  0  0  0
  130.8910  127.1540   62.1260 N   0  0  0  0  0  0  0  0  0  0  0  0
  132.3800  130.6830   58.6860 C   0  0  0  0  0  0  0  0  0  0  0  0
  132.3310  131.9570   58.1260 C   0  0  0  0  0  0  0  0  0  0  0  0
  1  2  1  0
  2  3  1  0
  3  4  2  0
  4  5  1  0
  5  6  2  0
  6  7  1  0
  7  8  1  0
  8  9  2  0
  8 10  1  0
 10 11  1  0
 11 12  1  0
 12 13  2  0
 13 14  1  0
 14 15  1  0
 15 16  2  0
 16 17  1  0
 17 18  2  0
 18 19  1  0
 19 20  2  0
 14 21  2  0
 21 22  1  0
 22 23  1  0
 23 24  1  0
 23 25  1  0
 23 26  1  0
 22 27  2  0
 27 28  1  0
 28 29  1  0
  6 30  1  0
 30 31  2  0
 31  3  1  0
 28 10  2  0
 27 12  1  0
 20 15  1  0
M  END
>  <Binding energies>  (32) 
[-7.4]

>  <Ligand effiencies>  (32) 
[-0.21764705882352942]

>  <Interactions>  (32) 
["V-A:ARG:545:CZ:4925, V-A:TYR:484:CZ:4346, V-B:TYR:539:CD2:9845, V-B:TYR:539:CE2:9847, V-A:LEU:475:CD2:4258, V-A:PRO:482:CG:4326, V-B:ALA:541:CB:9863, V-A:ASP:366:CG:3212, V-A:SER:385:CB:3408, V-A:HIS:383:CE1:3393, V-A:PRO:482:CB:4325, V-A:ASP:366:CB:3211, V-A:SER:385:CA:3406, V-A:PRO:540:CA:4882, V-A:ILE:538:CG2:4862, V-A:PRO:540:CB:4884, H-A:TYR:539:N:4869, V-A:ILE:538:CB:4861, V-A:ILE:538:CA:4859, H-A:GLU:543:OE2:4909, H-A:ASP:366:OD2:3214, V-A:ILE:538:C:4857"]

$$$$
4ce_Grossjean_2025
     RDKit          3D

 30 33  0  0  0  0  0  0  0  0999 V2000
  128.1630  130.2200   66.8330 C   0  0  0  0  0  0  0  0  0  0  0  0
  129.0040  129.0520   67.3110 C   0  0  0  0  0  0  0  0  0  0  0  0
  129.3680  128.9150   68.6540 C   0  0  0  0  0  0  0  0  0  0  0  0
  130.1360  127.8100   69.0240 C   0  0  0  0  0  0  0  0  0  0  0  0
  130.5170  126.8790   68.0560 C   0  0  0  0  0  0  0  0  0  0  0  0
  130.1230  127.0800   66.7270 C   0  0  0  0  0  0  0  0  0  0  0  0
  130.5170  126.0960   65.8030 N   0  0  0  0  0  0  0  0  0  0  0  0
  131.7660  125.6460   65.5220 C   0  0  0  0  0  0  0  0  0  0  0  0
  132.7830  126.0530   66.0860 O   0  0  0  0  0  0  0  0  0  0  0  0
  131.8450  124.6170   64.4820 C   0  0  0  0  0  0  0  0  0  0  0  0
  131.2300  122.9950   64.7910 S   0  0  0  0  0  0  0  0  0  0  0  0
  131.6400  122.4840   63.1720 C   0  0  0  0  0  0  0  0  0  0  0  0
  131.3950  121.2450   62.7530 N   0  0  0  0  0  0  0  0  0  0  0  0
  131.7340  120.9440   61.4710 C   0  0  0  0  0  0  0  0  0  0  0  0
  131.4400  119.5410   61.0290 C   0  0  0  0  0  0  0  0  0  0  0  0
  130.2930  118.8710   61.4850 C   0  0  0  0  0  0  0  0  0  0  0  0
  130.0170  117.5670   61.0840 C   0  0  0  0  0  0  0  0  0  0  0  0
  130.8850  116.9130   60.2170 C   0  0  0  0  0  0  0  0  0  0  0  0
  132.0280  117.5530   59.7510 C   0  0  0  0  0  0  0  0  0  0  0  0
  132.3030  118.8570   60.1560 C   0  0  0  0  0  0  0  0  0  0  0  0
  132.3370  121.8810   60.6260 C   0  0  0  0  0  0  0  0  0  0  0  0
  132.6050  123.1890   61.0600 C   0  0  0  0  0  0  0  0  0  0  0  0
  133.2650  124.1660   60.0810 C   0  0  0  0  0  0  0  0  0  0  0  0
  132.4790  125.1950   59.7570 F   0  0  0  0  0  0  0  0  0  0  0  0
  134.3750  124.6670   60.6250 F   0  0  0  0  0  0  0  0  0  0  0  0
  133.5770  123.5310   58.9520 F   0  0  0  0  0  0  0  0  0  0  0  0
  132.2390  123.5200   62.3970 C   0  0  0  0  0  0  0  0  0  0  0  0
  132.3450  124.7300   63.1740 C   0  0  0  0  0  0  0  0  0  0  0  0
  132.8860  125.8870   62.6750 N   0  0  0  0  0  0  0  0  0  0  0  0
  129.3680  128.1560   66.3580 N   0  0  0  0  0  0  0  0  0  0  0  0
  1  2  1  0
  2  3  2  0
  3  4  1  0
  4  5  2  0
  5  6  1  0
  6  7  1  0
  7  8  1  0
  8  9  2  0
  8 10  1  0
 10 11  1  0
 11 12  1  0
 12 13  2  0
 13 14  1  0
 14 15  1  0
 15 16  2  0
 16 17  1  0
 17 18  2  0
 18 19  1  0
 19 20  2  0
 14 21  2  0
 21 22  1  0
 22 23  1  0
 23 24  1  0
 23 25  1  0
 23 26  1  0
 22 27  2  0
 27 28  1  0
 28 29  1  0
  6 30  2  0
 30  2  1  0
 28 10  2  0
 27 12  1  0
 20 15  1  0
M  END
>  <Binding energies>  (33) 
[-7.93]

>  <Ligand effiencies>  (33) 
[-0.2403030303030303]

>  <Interactions>  (33) 
["V-A:HIS:456:CE1:4069, V-B:GLU:543:CD:9879, V-A:ARG:545:CZ:4925, V-A:TYR:484:CZ:4346, V-B:TYR:539:CD2:9845, V-B:TYR:539:C:9838, V-B:TYR:539:CE2:9847, V-A:ILE:369:CB:3235, V-A:LEU:475:CD2:4258, V-A:PRO:482:CG:4326, V-B:ALA:541:CB:9863, V-A:ILE:369:CG1:3237, V-B:TYR:539:CZ:9848, V-A:ASP:366:CG:3212, V-B:VAL:344:CG1:7971, H-B:GLU:543:OE2:9881, V-A:ILE:369:CG2:3236, V-B:TYR:539:CB:9842, V-A:ILE:369:CD1:3238, V-A:HIS:383:CE1:3393, V-A:PRO:482:CB:4325, V-A:GLU:543:CD:4907, V-A:GLU:543:CG:4906, V-A:ASP:366:CB:3211, V-A:GLU:543:CB:4905, H-A:TYR:484:OH:4347, H-A:ASP:366:OD2:3214, H-A:ASP:366:OD1:3213, V-B:TYR:484:CE2:9316, H-A:ARG:545:NE:4923, V-A:ASP:366:CA:3209"]

$$$$
4cf_Grossjean_2025
     RDKit          3D

 29 32  0  0  0  0  0  0  0  0999 V2000
  132.9760  125.9060   62.8650 N   0  0  0  0  0  0  0  0  0  0  0  0
  132.3330  124.7960   63.3510 C   0  0  0  0  0  0  0  0  0  0  0  0
  131.7420  124.7450   64.6240 C   0  0  0  0  0  0  0  0  0  0  0  0
  131.7140  125.7800   65.6610 C   0  0  0  0  0  0  0  0  0  0  0  0
  132.7550  126.1480   66.2070 O   0  0  0  0  0  0  0  0  0  0  0  0
  130.4890  126.2850   65.9440 N   0  0  0  0  0  0  0  0  0  0  0  0
  130.1130  127.2400   66.9080 C   0  0  0  0  0  0  0  0  0  0  0  0
  130.6490  127.3460   68.2060 C   0  0  0  0  0  0  0  0  0  0  0  0
  130.1730  128.3340   69.0710 C   0  0  0  0  0  0  0  0  0  0  0  0
  129.1710  129.1930   68.6180 C   0  0  0  0  0  0  0  0  0  0  0  0
  128.6330  129.1080   67.3750 N   0  0  0  0  0  0  0  0  0  0  0  0
  129.1050  128.1410   66.5460 C   0  0  0  0  0  0  0  0  0  0  0  0
  131.0010  123.1730   64.9180 S   0  0  0  0  0  0  0  0  0  0  0  0
  131.4930  122.5960   63.3430 C   0  0  0  0  0  0  0  0  0  0  0  0
  131.2100  121.3600   62.9370 N   0  0  0  0  0  0  0  0  0  0  0  0
  131.6490  120.9970   61.7030 C   0  0  0  0  0  0  0  0  0  0  0  0
  131.3220  119.5970   61.2740 C   0  0  0  0  0  0  0  0  0  0  0  0
  130.1650  118.9550   61.7420 C   0  0  0  0  0  0  0  0  0  0  0  0
  129.8540  117.6560   61.3490 C   0  0  0  0  0  0  0  0  0  0  0  0
  130.6980  116.9790   60.4760 C   0  0  0  0  0  0  0  0  0  0  0  0
  131.8500  117.5920   59.9930 C   0  0  0  0  0  0  0  0  0  0  0  0
  132.1570  118.8910   60.3890 C   0  0  0  0  0  0  0  0  0  0  0  0
  132.3480  121.8830   60.8760 C   0  0  0  0  0  0  0  0  0  0  0  0
  132.6470  123.1890   61.2940 C   0  0  0  0  0  0  0  0  0  0  0  0
  133.4200  124.1050   60.3390 C   0  0  0  0  0  0  0  0  0  0  0  0
  132.6850  125.1170   59.8730 F   0  0  0  0  0  0  0  0  0  0  0  0
  134.4690  124.6330   60.9710 F   0  0  0  0  0  0  0  0  0  0  0  0
  133.8460  123.4060   59.2870 F   0  0  0  0  0  0  0  0  0  0  0  0
  132.2070  123.5750   62.5930 C   0  0  0  0  0  0  0  0  0  0  0  0
  1  2  1  0
  2  3  2  0
  3  4  1  0
  4  5  2  0
  4  6  1  0
  6  7  1  0
  7  8  2  0
  8  9  1  0
  9 10  2  0
 10 11  1  0
 11 12  2  0
  3 13  1  0
 13 14  1  0
 14 15  2  0
 15 16  1  0
 16 17  1  0
 17 18  2  0
 18 19  1  0
 19 20  2  0
 20 21  1  0
 21 22  2  0
 16 23  2  0
 23 24  1  0
 24 25  1  0
 25 26  1  0
 25 27  1  0
 25 28  1  0
 24 29  2  0
 29  2  1  0
 12  7  1  0
 29 14  1  0
 22 17  1  0
M  END
>  <Binding energies>  (34) 
[-7.64]

>  <Ligand effiencies>  (34) 
[-0.23875]

>  <Interactions>  (34) 
["V-A:HIS:456:CE1:4069, V-B:GLU:543:CD:9879, V-B:HIS:456:CE1:9040, V-A:ARG:545:CZ:4925, V-A:TYR:484:CZ:4346, V-B:TYR:539:CD2:9845, V-B:TYR:539:C:9838, V-B:TYR:539:CE2:9847, V-A:ILE:369:CB:3235, V-A:LEU:475:CD2:4258, V-A:PRO:482:CG:4326, V-B:ALA:541:CB:9863, V-A:ILE:369:CG1:3237, V-A:ASP:366:CG:3212, V-B:VAL:344:CG1:7971, H-B:GLU:543:OE2:9881, V-A:ILE:369:CG2:3236, V-B:TYR:539:CB:9842, V-A:ILE:369:CD1:3238, V-A:HIS:383:CE1:3393, V-A:PRO:482:CB:4325, V-A:GLU:543:CD:4907, V-A:GLU:543:CG:4906, V-A:ASP:366:CB:3211, V-A:GLU:543:CB:4905, H-A:TYR:484:OH:4347, V-A:TYR:484:CE2:4345, H-A:ASP:366:OD2:3214, H-A:ASP:366:OD1:3213, H-A:ARG:545:NE:4923, V-A:ASP:366:CA:3209"]

$$$$
4ci_Grossjean_2025
     RDKit          3D

 28 31  0  0  0  0  0  0  0  0999 V2000
  128.9680  124.1830   63.9100 N   0  0  0  0  0  0  0  0  0  0  0  0
  129.4010  123.9290   62.6340 C   0  0  0  0  0  0  0  0  0  0  0  0
  130.7590  123.8740   62.2800 C   0  0  0  0  0  0  0  0  0  0  0  0
  131.9340  124.0490   63.1370 C   0  0  0  0  0  0  0  0  0  0  0  0
  132.8990  123.2870   63.0460 O   0  0  0  0  0  0  0  0  0  0  0  0
  131.8660  125.0790   64.0180 N   0  0  0  0  0  0  0  0  0  0  0  0
  132.8270  125.4670   64.9420 C   0  0  0  0  0  0  0  0  0  0  0  0
  132.5150  125.9180   66.2240 C   0  0  0  0  0  0  0  0  0  0  0  0
  133.7270  126.1980   66.8110 C   0  0  0  0  0  0  0  0  0  0  0  0
  134.7190  125.9280   65.9290 O   0  0  0  0  0  0  0  0  0  0  0  0
  134.1360  125.4660   64.7480 N   0  0  0  0  0  0  0  0  0  0  0  0
  130.9560  123.5170   60.5660 S   0  0  0  0  0  0  0  0  0  0  0  0
  129.2240  123.4540   60.3340 C   0  0  0  0  0  0  0  0  0  0  0  0
  128.6910  123.2010   59.1410 N   0  0  0  0  0  0  0  0  0  0  0  0
  127.3350  123.1690   59.0590 C   0  0  0  0  0  0  0  0  0  0  0  0
  126.7640  122.8860   57.6990 C   0  0  0  0  0  0  0  0  0  0  0  0
  127.5760  122.3930   56.6650 C   0  0  0  0  0  0  0  0  0  0  0  0
  127.0510  122.1270   55.4020 C   0  0  0  0  0  0  0  0  0  0  0  0
  125.7010  122.3530   55.1550 C   0  0  0  0  0  0  0  0  0  0  0  0
  124.8750  122.8450   56.1590 C   0  0  0  0  0  0  0  0  0  0  0  0
  125.4040  123.1100   57.4190 C   0  0  0  0  0  0  0  0  0  0  0  0
  126.5230  123.4080   60.1720 C   0  0  0  0  0  0  0  0  0  0  0  0
  127.0750  123.6760   61.4360 C   0  0  0  0  0  0  0  0  0  0  0  0
  126.1250  123.9290   62.6120 C   0  0  0  0  0  0  0  0  0  0  0  0
  126.4990  123.3050   63.7310 F   0  0  0  0  0  0  0  0  0  0  0  0
  126.0800  125.2340   62.8800 F   0  0  0  0  0  0  0  0  0  0  0  0
  124.9010  123.5000   62.3050 F   0  0  0  0  0  0  0  0  0  0  0  0
  128.4950  123.7000   61.5340 C   0  0  0  0  0  0  0  0  0  0  0  0
  1  2  1  0
  2  3  2  0
  3  4  1  0
  4  5  2  0
  4  6  1  0
  6  7  1  0
  7  8  1  0
  8  9  2  0
  9 10  1  0
 10 11  1  0
  3 12  1  0
 12 13  1  0
 13 14  2  0
 14 15  1  0
 15 16  1  0
 16 17  2  0
 17 18  1  0
 18 19  2  0
 19 20  1  0
 20 21  2  0
 15 22  2  0
 22 23  1  0
 23 24  1  0
 24 25  1  0
 24 26  1  0
 24 27  1  0
 23 28  2  0
 28  2  1  0
 11  7  2  0
 28 13  1  0
 21 16  1  0
M  END
>  <Binding energies>  (35) 
[-7.75]

>  <Ligand effiencies>  (35) 
[-0.25]

>  <Interactions>  (35) 
["V-B:GLU:543:CD:9879, V-B:TYR:531:CZ:9765, V-A:ARG:545:CZ:4925, V-B:PRO:540:N:9855, V-A:ARG:545:CD:4922, V-B:PRO:540:CB:9856, V-B:TYR:539:CD2:9845, V-B:TYR:539:C:9838, V-B:MET:535:CE:9806, V-B:TYR:531:CE2:9764, V-B:PRO:540:CA:9854, V-B:LEU:363:CD1:8159, V-A:ARG:545:CG:4921, V-B:TYR:539:CE2:9847, V-B:ARG:545:CZ:9897, V-B:ILE:538:CB:9833, V-B:TYR:539:CZ:9848, V-B:TYR:539:CE1:9846, V-B:MET:535:CG:9804, V-B:TYR:539:CA:9840, H-B:GLU:543:OE2:9881, V-B:TYR:539:CD1:9844, V-B:ILE:538:CD1:9836, V-B:TYR:539:CG:9843, V-B:ILE:538:CG2:9834, V-B:ILE:538:CA:9831, H-B:GLU:543:OE1:9880, V-B:ALA:541:C:9859, H-A:GLY:454:N:4049, V-B:GLU:543:CG:9878, V-B:PRO:540:CD:9858, V-B:ILE:538:C:9829, H-A:ARG:545:NH2:4927, V-B:ALA:541:CA:9861, H-A:ARG:545:NH1:4926, H-A:ARG:545:NE:4923"]

$$$$
8a_Ghoteimi_2023
     RDKit          3D

 40 44  0  0  0  0  0  0  0  0999 V2000
  128.8050  132.3110   55.0510 C   0  0  0  0  0  0  0  0  0  0  0  0
  129.9830  133.2790   54.9090 C   0  0  0  0  0  0  0  0  0  0  0  0
  130.2220  133.9190   56.1560 O   0  0  0  0  0  0  0  0  0  0  0  0
  131.3900  133.7360   56.8260 C   0  0  0  0  0  0  0  0  0  0  0  0
  132.4540  134.2710   56.4950 O   0  0  0  0  0  0  0  0  0  0  0  0
  131.2620  132.8150   58.0040 C   0  0  0  0  0  0  0  0  0  0  0  0
  130.1580  132.9460   58.8560 C   0  0  0  0  0  0  0  0  0  0  0  0
  130.0110  132.1080   59.9580 C   0  0  0  0  0  0  0  0  0  0  0  0
  130.9610  131.1240   60.2320 C   0  0  0  0  0  0  0  0  0  0  0  0
  130.7110  130.3390   61.3750 N   0  0  0  0  0  0  0  0  0  0  0  0
  129.6530  129.5480   61.6810 C   0  0  0  0  0  0  0  0  0  0  0  0
  128.6750  129.3850   60.9520 O   0  0  0  0  0  0  0  0  0  0  0  0
  129.7380  128.8630   62.9740 C   0  0  0  0  0  0  0  0  0  0  0  0
  128.9420  129.5380   64.3950 S   0  0  0  0  0  0  0  0  0  0  0  0
  129.5140  128.2250   65.3980 C   0  0  0  0  0  0  0  0  0  0  0  0
  129.2410  128.1690   66.7010 N   0  0  0  0  0  0  0  0  0  0  0  0
  129.7390  127.1090   67.3910 C   0  0  0  0  0  0  0  0  0  0  0  0
  129.4380  127.0770   68.8550 C   0  0  0  0  0  0  0  0  0  0  0  0
  129.6510  128.2040   69.6620 C   0  0  0  0  0  0  0  0  0  0  0  0
  129.3790  128.1640   71.0270 C   0  0  0  0  0  0  0  0  0  0  0  0
  128.8860  127.0030   71.6180 C   0  0  0  0  0  0  0  0  0  0  0  0
  128.6480  127.0550   72.9780 O   0  0  0  0  0  0  0  0  0  0  0  0
  129.4880  127.8600   73.7980 C   0  0  0  0  0  0  0  0  0  0  0  0
  128.6640  125.8730   70.8180 C   0  0  0  0  0  0  0  0  0  0  0  0
  128.9390  125.9140   69.4540 C   0  0  0  0  0  0  0  0  0  0  0  0
  130.4970  126.1100   66.7770 C   0  0  0  0  0  0  0  0  0  0  0  0
  130.7720  126.1560   65.4060 C   0  0  0  0  0  0  0  0  0  0  0  0
  131.5560  125.0500   64.7980 C   0  0  0  0  0  0  0  0  0  0  0  0
  131.0390  123.7530   64.7720 C   0  0  0  0  0  0  0  0  0  0  0  0
  131.7610  122.7180   64.1850 C   0  0  0  0  0  0  0  0  0  0  0  0
  133.0090  122.9620   63.6090 C   0  0  0  0  0  0  0  0  0  0  0  0
  133.6530  121.8750   63.0500 O   0  0  0  0  0  0  0  0  0  0  0  0
  133.7810  121.7970   61.6350 C   0  0  0  0  0  0  0  0  0  0  0  0
  133.5270  124.2660   63.6280 C   0  0  0  0  0  0  0  0  0  0  0  0
  132.8010  125.3000   64.2140 C   0  0  0  0  0  0  0  0  0  0  0  0
  130.2800  127.2690   64.6680 C   0  0  0  0  0  0  0  0  0  0  0  0
  130.4070  127.6690   63.2880 C   0  0  0  0  0  0  0  0  0  0  0  0
  131.1360  126.9470   62.3760 N   0  0  0  0  0  0  0  0  0  0  0  0
  132.0680  130.9820   59.3810 C   0  0  0  0  0  0  0  0  0  0  0  0
  132.2140  131.8220   58.2790 C   0  0  0  0  0  0  0  0  0  0  0  0
  1  2  1  0
  2  3  1  0
  3  4  1  0
  4  5  2  0
  4  6  1  0
  6  7  2  0
  7  8  1  0
  8  9  2  0
  9 10  1  0
 10 11  1  0
 11 12  2  0
 11 13  1  0
 13 14  1  0
 14 15  1  0
 15 16  2  0
 16 17  1  0
 17 18  1  0
 18 19  2  0
 19 20  1  0
 20 21  2  0
 21 22  1  0
 22 23  1  0
 21 24  1  0
 24 25  2  0
 17 26  2  0
 26 27  1  0
 27 28  1  0
 28 29  2  0
 29 30  1  0
 30 31  2  0
 31 32  1  0
 32 33  1  0
 31 34  1  0
 34 35  2  0
 27 36  2  0
 36 37  1  0
 37 38  1  0
  9 39  1  0
 39 40  2  0
 40  6  1  0
 37 13  2  0
 36 15  1  0
 25 18  1  0
 35 28  1  0
M  END
>  <Binding energies>  (36) 
[-9.57]

>  <Ligand effiencies>  (36) 
[-0.22255813953488374]

>  <Interactions>  (36) 
["V-B:GLU:543:CB:9877, V-A:HIS:456:CE1:4069, V-B:GLU:543:C:9873, V-B:GLU:543:CD:9879, V-B:HIS:456:CE1:9040, V-A:ARG:545:CZ:4925, V-A:LEU:475:CD2:4258, V-A:ASP:366:CG:3212, V-A:ILE:369:CG2:3236, V-A:ILE:369:CD1:3238, V-A:GLU:543:CD:4907, V-A:GLU:543:CG:4906, V-A:GLY:454:CA:4048, H-A:GLY:454:N:4049, V-A:PRO:540:CA:4882, V-A:PRO:540:CD:4886, V-A:ILE:538:CG2:4862, V-A:PRO:540:N:4883, V-A:PRO:540:CB:4884, V-A:TYR:539:C:4866, V-A:TYR:539:CE1:4874, H-A:TYR:539:N:4869, V-A:MET:535:CG:4832, V-A:ILE:538:CB:4861, V-A:ILE:538:CA:4859, H-A:GLU:543:OE2:4909, H-A:ASP:366:OD2:3214, V-A:TYR:539:CZ:4876, H-A:ASP:366:OD1:3213"]

$$$$
8c_Ghoteimi_2023
     RDKit          3D

 34 38  0  0  0  0  0  0  0  0999 V2000
  124.1680  132.3470   63.6360 C   0  0  0  0  0  0  0  0  0  0  0  0
  124.6160  131.3840   64.5830 O   0  0  0  0  0  0  0  0  0  0  0  0
  125.1750  130.2030   64.1310 C   0  0  0  0  0  0  0  0  0  0  0  0
  124.7390  129.7420   62.8910 C   0  0  0  0  0  0  0  0  0  0  0  0
  125.2450  128.5600   62.3580 C   0  0  0  0  0  0  0  0  0  0  0  0
  126.2040  127.8090   63.0530 C   0  0  0  0  0  0  0  0  0  0  0  0
  126.7500  126.5360   62.4870 C   0  0  0  0  0  0  0  0  0  0  0  0
  126.3270  126.0380   61.2510 C   0  0  0  0  0  0  0  0  0  0  0  0
  126.8560  124.8460   60.7430 C   0  0  0  0  0  0  0  0  0  0  0  0
  126.3810  124.3420   59.4350 C   0  0  0  0  0  0  0  0  0  0  0  0
  127.2830  124.1480   58.3860 C   0  0  0  0  0  0  0  0  0  0  0  0
  126.8360  123.6640   57.1600 C   0  0  0  0  0  0  0  0  0  0  0  0
  125.4860  123.3710   56.9610 C   0  0  0  0  0  0  0  0  0  0  0  0
  125.1350  122.8930   55.7130 O   0  0  0  0  0  0  0  0  0  0  0  0
  126.0840  122.1450   54.9640 C   0  0  0  0  0  0  0  0  0  0  0  0
  124.5810  123.5700   58.0150 C   0  0  0  0  0  0  0  0  0  0  0  0
  125.0290  124.0530   59.2420 C   0  0  0  0  0  0  0  0  0  0  0  0
  127.8330  124.1660   61.5170 C   0  0  0  0  0  0  0  0  0  0  0  0
  128.5720  122.9490   61.3050 C   0  0  0  0  0  0  0  0  0  0  0  0
  128.4130  122.1790   60.1800 N   0  0  0  0  0  0  0  0  0  0  0  0
  129.4580  122.6320   62.3470 C   0  0  0  0  0  0  0  0  0  0  0  0
  130.3590  121.4830   62.4600 C   0  0  0  0  0  0  0  0  0  0  0  0
  131.2910  121.4910   63.2670 O   0  0  0  0  0  0  0  0  0  0  0  0
  130.0890  120.4480   61.6270 N   0  0  0  0  0  0  0  0  0  0  0  0
  130.7810  119.2490   61.5350 C   0  0  0  0  0  0  0  0  0  0  0  0
  130.3570  118.0450   61.8540 N   0  0  0  0  0  0  0  0  0  0  0  0
  131.2820  117.1320   61.6330 C   0  0  0  0  0  0  0  0  0  0  0  0
  132.4920  117.5910   61.1240 C   0  0  0  0  0  0  0  0  0  0  0  0
  132.4040  119.3160   60.9270 S   0  0  0  0  0  0  0  0  0  0  0  0
  129.4000  123.8480   63.6240 S   0  0  0  0  0  0  0  0  0  0  0  0
  128.1910  124.7680   62.7580 C   0  0  0  0  0  0  0  0  0  0  0  0
  127.6870  125.9020   63.2430 N   0  0  0  0  0  0  0  0  0  0  0  0
  126.6400  128.2810   64.2980 C   0  0  0  0  0  0  0  0  0  0  0  0
  126.1350  129.4610   64.8350 C   0  0  0  0  0  0  0  0  0  0  0  0
  1  2  1  0
  2  3  1  0
  3  4  2  0
  4  5  1  0
  5  6  2  0
  6  7  1  0
  7  8  2  0
  8  9  1  0
  9 10  1  0
 10 11  2  0
 11 12  1  0
 12 13  2  0
 13 14  1  0
 14 15  1  0
 13 16  1  0
 16 17  2  0
  9 18  2  0
 18 19  1  0
 19 20  1  0
 19 21  2  0
 21 22  1  0
 22 23  2  0
 22 24  1  0
 24 25  1  0
 25 26  2  0
 26 27  1  0
 27 28  2  0
 28 29  1  0
 21 30  1  0
 30 31  1  0
 31 32  2  0
  6 33  1  0
 33 34  2  0
 34  3  1  0
 32  7  1  0
 17 10  1  0
 31 18  1  0
 29 25  1  0
M  END
>  <Binding energies>  (37) 
[-8.35]

>  <Ligand effiencies>  (37) 
[-0.22567567567567567]

>  <Interactions>  (37) 
["V-B:GLU:543:CD:9879, V-B:ASP:366:CG:8183, V-B:TYR:531:CZ:9765, V-B:PRO:540:N:9855, H-B:TYR:531:OH:9766, V-B:PRO:540:CB:9856, V-B:TYR:539:CD2:9845, V-B:TYR:539:C:9838, V-B:MET:535:CE:9806, V-B:TYR:531:CE2:9764, V-B:PRO:540:CA:9854, V-B:LEU:363:CD1:8159, V-B:LEU:475:CD1:9228, V-B:ARG:545:CZ:9897, V-B:GLY:454:CA:9019, V-A:LEU:475:CD2:4258, V-B:ILE:538:CB:9833, V-A:PRO:482:CG:4326, V-B:ALA:541:CB:9863, V-A:SER:385:CB:3408, V-B:MET:535:CG:9804, V-B:ILE:538:CD1:9836, V-B:ILE:538:CG2:9834, V-A:HIS:383:CE1:3393, V-A:PRO:482:CB:4325, V-B:ILE:538:CA:9831, V-A:SER:385:CA:3406, V-B:ILE:538:C:9829, H-B:GLY:454:N:9020, V-B:PRO:540:C:9852, H-B:TYR:539:O:9839, V-B:ILE:538:CG1:9835"]

$$$$
8d_Ghoteimi_2023
     RDKit          3D

 30 33  0  0  0  0  0  0  0  0999 V2000
  135.2590  125.1070   76.5500 C   0  0  0  0  0  0  0  0  0  0  0  0
  134.1010  125.7710   77.0350 O   0  0  0  0  0  0  0  0  0  0  0  0
  133.6330  126.8910   76.4240 C   0  0  0  0  0  0  0  0  0  0  0  0
  134.0560  128.0270   76.6510 O   0  0  0  0  0  0  0  0  0  0  0  0
  132.5560  126.6090   75.4510 C   0  0  0  0  0  0  0  0  0  0  0  0
  131.9710  127.8920   74.3890 S   0  0  0  0  0  0  0  0  0  0  0  0
  130.8210  126.8060   73.6460 C   0  0  0  0  0  0  0  0  0  0  0  0
  129.9980  127.2080   72.6760 N   0  0  0  0  0  0  0  0  0  0  0  0
  129.1440  126.2820   72.1650 C   0  0  0  0  0  0  0  0  0  0  0  0
  128.2300  126.7600   71.0820 C   0  0  0  0  0  0  0  0  0  0  0  0
  126.8460  126.5480   71.1560 C   0  0  0  0  0  0  0  0  0  0  0  0
  125.9990  126.9950   70.1450 C   0  0  0  0  0  0  0  0  0  0  0  0
  126.5130  127.6640   69.0350 C   0  0  0  0  0  0  0  0  0  0  0  0
  125.6000  128.0710   68.0820 O   0  0  0  0  0  0  0  0  0  0  0  0
  126.0590  128.7930   66.9430 C   0  0  0  0  0  0  0  0  0  0  0  0
  127.8950  127.8840   68.9520 C   0  0  0  0  0  0  0  0  0  0  0  0
  128.7380  127.4360   69.9660 C   0  0  0  0  0  0  0  0  0  0  0  0
  129.1080  124.9630   72.6290 C   0  0  0  0  0  0  0  0  0  0  0  0
  129.9730  124.5410   73.6440 C   0  0  0  0  0  0  0  0  0  0  0  0
  129.9170  123.1350   74.1070 C   0  0  0  0  0  0  0  0  0  0  0  0
  131.0620  122.3370   74.0680 C   0  0  0  0  0  0  0  0  0  0  0  0
  131.0080  121.0130   74.4950 C   0  0  0  0  0  0  0  0  0  0  0  0
  129.8140  120.4700   74.9700 C   0  0  0  0  0  0  0  0  0  0  0  0
  129.8540  119.1490   75.3710 O   0  0  0  0  0  0  0  0  0  0  0  0
  130.8320  118.7410   76.3210 C   0  0  0  0  0  0  0  0  0  0  0  0
  128.6640  121.2760   75.0130 C   0  0  0  0  0  0  0  0  0  0  0  0
  128.7200  122.6000   74.5840 C   0  0  0  0  0  0  0  0  0  0  0  0
  130.8760  125.4910   74.1890 C   0  0  0  0  0  0  0  0  0  0  0  0
  131.8750  125.4080   75.2180 C   0  0  0  0  0  0  0  0  0  0  0  0
  132.1300  124.2510   75.9110 N   0  0  0  0  0  0  0  0  0  0  0  0
  1  2  1  0
  2  3  1  0
  3  4  2  0
  3  5  1  0
  5  6  1  0
  6  7  1  0
  7  8  2  0
  8  9  1  0
  9 10  1  0
 10 11  2  0
 11 12  1  0
 12 13  2  0
 13 14  1  0
 14 15  1  0
 13 16  1  0
 16 17  2  0
  9 18  2  0
 18 19  1  0
 19 20  1  0
 20 21  2  0
 21 22  1  0
 22 23  2  0
 23 24  1  0
 24 25  1  0
 23 26  1  0
 26 27  2  0
 19 28  2  0
 28 29  1  0
 29 30  1  0
 29  5  2  0
 28  7  1  0
 17 10  1  0
 27 20  1  0
M  END
>  <Binding energies>  (38) 
[-6.73]

>  <Ligand effiencies>  (38) 
[-0.2103125]

>  <Interactions>  (38) 
["V-B:GLU:543:CB:9877, V-A:HIS:456:CE1:4069, V-B:GLU:543:C:9873, V-B:GLY:544:C:9883, V-A:HIS:456:CD2:4067, V-A:HIS:456:C:4060, V-B:ARG:545:CA:9890, V-A:HIS:456:CB:4064, V-A:VAL:457:C:4072, V-B:GLU:543:CD:9879, V-B:HIS:456:CE1:9040, V-A:HIS:456:CG:4065, V-B:ARG:545:CG:9893, H-A:HIS:456:ND1:4066, V-B:GLY:544:CA:9885, H-A:ASP:473:OD2:4241, V-B:LYS:547:CE:9921, V-A:VAL:458:CG2:4086, V-A:TYR:484:CG:4341, V-A:TYR:484:CB:4340, V-A:ASP:473:CG:4239, V-A:LYS:471:CD:4218, V-A:VAL:457:CA:4074, V-A:ASP:485:CA:4352, V-A:PRO:486:CD:4365, V-A:ASP:473:CB:4238"]

$$$$
9a_Ghoteimi_2023
     RDKit          3D

 48 54  0  0  0  0  0  0  0  0999 V2000
  130.4890  117.1270   60.6220 C   0  0  0  0  0  0  0  0  0  0  0  0
  131.4390  116.9090   61.8040 C   0  0  0  0  0  0  0  0  0  0  0  0
  132.6680  117.5810   61.5550 O   0  0  0  0  0  0  0  0  0  0  0  0
  132.7610  118.5370   60.5960 C   0  0  0  0  0  0  0  0  0  0  0  0
  133.0710  118.2980   59.4240 O   0  0  0  0  0  0  0  0  0  0  0  0
  132.4580  119.9180   61.1020 C   0  0  0  0  0  0  0  0  0  0  0  0
  131.1800  120.1990   61.6010 C   0  0  0  0  0  0  0  0  0  0  0  0
  130.8670  121.4700   62.0760 C   0  0  0  0  0  0  0  0  0  0  0  0
  131.8240  122.4850   62.0640 C   0  0  0  0  0  0  0  0  0  0  0  0
  131.3970  123.7280   62.5680 N   0  0  0  0  0  0  0  0  0  0  0  0
  131.7830  124.4070   63.6770 C   0  0  0  0  0  0  0  0  0  0  0  0
  132.6340  124.0060   64.4720 O   0  0  0  0  0  0  0  0  0  0  0  0
  131.1160  125.6950   63.8860 C   0  0  0  0  0  0  0  0  0  0  0  0
  130.9410  126.8350   62.5510 S   0  0  0  0  0  0  0  0  0  0  0  0
  130.1040  127.9770   63.5760 C   0  0  0  0  0  0  0  0  0  0  0  0
  129.6520  129.1380   63.1040 N   0  0  0  0  0  0  0  0  0  0  0  0
  129.0050  129.9500   63.9820 C   0  0  0  0  0  0  0  0  0  0  0  0
  128.4970  131.2420   63.4280 C   0  0  0  0  0  0  0  0  0  0  0  0
  129.0550  131.7870   62.2660 C   0  0  0  0  0  0  0  0  0  0  0  0
  128.5880  132.9890   61.7430 C   0  0  0  0  0  0  0  0  0  0  0  0
  127.5340  133.6860   62.3560 C   0  0  0  0  0  0  0  0  0  0  0  0
  127.0660  134.9050   61.8530 N   0  0  0  0  0  0  0  0  0  0  0  0
  127.7720  136.1730   62.1230 C   0  0  0  0  0  0  0  0  0  0  0  0
  126.9360  137.4310   61.8080 C   0  0  0  0  0  0  0  0  0  0  0  0
  126.4700  137.3830   60.4700 O   0  0  0  0  0  0  0  0  0  0  0  0
  125.6500  136.2470   60.2460 C   0  0  0  0  0  0  0  0  0  0  0  0
  126.4530  134.9570   60.5090 C   0  0  0  0  0  0  0  0  0  0  0  0
  126.9870  133.1430   63.5280 C   0  0  0  0  0  0  0  0  0  0  0  0
  127.4580  131.9430   64.0520 C   0  0  0  0  0  0  0  0  0  0  0  0
  128.8370  129.6120   65.3260 C   0  0  0  0  0  0  0  0  0  0  0  0
  129.3280  128.4030   65.8300 C   0  0  0  0  0  0  0  0  0  0  0  0
  129.1540  128.1090   67.2760 C   0  0  0  0  0  0  0  0  0  0  0  0
  130.2340  128.2060   68.1570 C   0  0  0  0  0  0  0  0  0  0  0  0
  130.0660  127.9440   69.5130 C   0  0  0  0  0  0  0  0  0  0  0  0
  128.8080  127.5950   70.0290 C   0  0  0  0  0  0  0  0  0  0  0  0
  128.6180  127.3160   71.3850 N   0  0  0  0  0  0  0  0  0  0  0  0
  129.7100  127.5990   72.3380 C   0  0  0  0  0  0  0  0  0  0  0  0
  129.2470  127.6100   73.8100 C   0  0  0  0  0  0  0  0  0  0  0  0
  128.6040  126.3850   74.1260 O   0  0  0  0  0  0  0  0  0  0  0  0
  127.4630  126.1660   73.3120 C   0  0  0  0  0  0  0  0  0  0  0  0
  127.8770  126.1180   71.8260 C   0  0  0  0  0  0  0  0  0  0  0  0
  127.7310  127.5030   69.1360 C   0  0  0  0  0  0  0  0  0  0  0  0
  127.8990  127.7610   67.7790 C   0  0  0  0  0  0  0  0  0  0  0  0
  129.9780  127.5200   64.9210 C   0  0  0  0  0  0  0  0  0  0  0  0
  130.5440  126.2020   65.0640 C   0  0  0  0  0  0  0  0  0  0  0  0
  130.5090  125.5080   66.2460 N   0  0  0  0  0  0  0  0  0  0  0  0
  133.1090  122.2110   61.5690 C   0  0  0  0  0  0  0  0  0  0  0  0
  133.4200  120.9400   61.0940 C   0  0  0  0  0  0  0  0  0  0  0  0
  1  2  1  0
  2  3  1  0
  3  4  1  0
  4  5  2  0
  4  6  1  0
  6  7  2  0
  7  8  1  0
  8  9  2  0
  9 10  1  0
 10 11  1  0
 11 12  2  0
 11 13  1  0
 13 14  1  0
 14 15  1  0
 15 16  2  0
 16 17  1  0
 17 18  1  0
 18 19  2  0
 19 20  1  0
 20 21  2  0
 21 22  1  0
 22 23  1  0
 23 24  1  0
 24 25  1  0
 25 26  1  0
 26 27  1  0
 21 28  1  0
 28 29  2  0
 17 30  2  0
 30 31  1  0
 31 32  1  0
 32 33  2  0
 33 34  1  0
 34 35  2  0
 35 36  1  0
 36 37  1  0
 37 38  1  0
 38 39  1  0
 39 40  1  0
 40 41  1  0
 35 42  1  0
 42 43  2  0
 31 44  2  0
 44 45  1  0
 45 46  1  0
  9 47  1  0
 47 48  2  0
 48  6  1  0
 45 13  2  0
 44 15  1  0
 29 18  1  0
 43 32  1  0
 27 22  1  0
 41 36  1  0
M  END
>  <Binding energies>  (39) 
[-10.37]

>  <Ligand effiencies>  (39) 
[-0.2033333333333333]

>  <Interactions>  (39) 
["V-B:GLU:543:CB:9877, V-A:HIS:456:CE1:4069, V-B:GLU:543:C:9873, V-B:GLY:544:C:9883, V-B:GLU:543:CD:9879, V-B:HIS:456:CE1:9040, V-B:TYR:539:CD2:9845, V-B:LEU:475:CD1:9228, H-B:LYS:547:NZ:9922, V-A:LEU:475:CD2:4258, V-A:PRO:482:CG:4326, V-A:SER:385:CB:3408, V-B:VAL:344:CG1:7971, V-A:THR:477:CG2:4272, H-B:GLU:543:OE2:9881, V-A:ILE:369:CG2:3236, V-B:TYR:539:CB:9842, V-A:ILE:369:CD1:3238, V-A:HIS:383:CE1:3393, V-A:PRO:482:CB:4325, V-A:GLU:543:CD:4907, V-A:GLU:543:CG:4906, V-A:SER:385:CA:3406, V-A:GLU:543:CB:4905, H-A:TYR:484:OH:4347, H-A:GLY:454:N:4049, V-A:TYR:539:CD1:4872, V-A:TYR:539:CE1:4874, V-A:ALA:541:CB:4891, V-B:SER:385:CB:8379, V-B:LYS:547:CE:9921, H-A:HIS:383:ND1:3390, V-A:TYR:539:CG:4871, V-A:TYR:539:CB:4870, H-B:SER:385:OG:8380, H-B:HIS:383:NE2:8364, V-B:PRO:482:CB:9296, V-B:PRO:482:CG:9297"]

$$$$
9b_Ghoteimi_2023
     RDKit          3D

 42 48  0  0  0  0  0  0  0  0999 V2000
  128.6810  129.4450   59.4240 N   0  0  0  0  0  0  0  0  0  0  0  0
  128.8210  130.1090   60.6170 C   0  0  0  0  0  0  0  0  0  0  0  0
  129.2000  131.4570   60.7110 C   0  0  0  0  0  0  0  0  0  0  0  0
  129.4890  132.4030   59.6300 C   0  0  0  0  0  0  0  0  0  0  0  0
  128.7950  133.4100   59.4730 O   0  0  0  0  0  0  0  0  0  0  0  0
  130.5450  132.0830   58.8410 N   0  0  0  0  0  0  0  0  0  0  0  0
  131.0300  132.7880   57.7470 C   0  0  0  0  0  0  0  0  0  0  0  0
  132.2890  132.5610   57.1920 C   0  0  0  0  0  0  0  0  0  0  0  0
  132.3820  133.4460   56.1430 C   0  0  0  0  0  0  0  0  0  0  0  0
  131.2390  134.1680   56.0700 O   0  0  0  0  0  0  0  0  0  0  0  0
  130.3900  133.7420   57.0920 N   0  0  0  0  0  0  0  0  0  0  0  0
  129.3110  131.9720   62.3940 S   0  0  0  0  0  0  0  0  0  0  0  0
  128.8680  130.3790   62.9580 C   0  0  0  0  0  0  0  0  0  0  0  0
  128.7970  130.0930   64.2570 N   0  0  0  0  0  0  0  0  0  0  0  0
  128.4610  128.8190   64.5900 C   0  0  0  0  0  0  0  0  0  0  0  0
  128.4090  128.5200   66.0530 C   0  0  0  0  0  0  0  0  0  0  0  0
  129.4980  127.9370   66.7120 C   0  0  0  0  0  0  0  0  0  0  0  0
  129.4380  127.6470   68.0720 C   0  0  0  0  0  0  0  0  0  0  0  0
  128.2820  127.9150   68.8200 C   0  0  0  0  0  0  0  0  0  0  0  0
  128.2080  127.6320   70.1890 N   0  0  0  0  0  0  0  0  0  0  0  0
  129.3660  127.8420   71.0810 C   0  0  0  0  0  0  0  0  0  0  0  0
  129.0090  127.8130   72.5820 C   0  0  0  0  0  0  0  0  0  0  0  0
  128.3390  126.6040   72.8980 O   0  0  0  0  0  0  0  0  0  0  0  0
  127.1310  126.4730   72.1660 C   0  0  0  0  0  0  0  0  0  0  0  0
  127.4270  126.4650   70.6500 C   0  0  0  0  0  0  0  0  0  0  0  0
  127.2010  128.5170   68.1600 C   0  0  0  0  0  0  0  0  0  0  0  0
  127.2620  128.8110   66.8000 C   0  0  0  0  0  0  0  0  0  0  0  0
  128.1710  127.8470   63.6290 C   0  0  0  0  0  0  0  0  0  0  0  0
  128.2250  128.1490   62.2630 C   0  0  0  0  0  0  0  0  0  0  0  0
  127.8790  127.0890   61.2820 C   0  0  0  0  0  0  0  0  0  0  0  0
  126.5450  126.7510   61.0510 C   0  0  0  0  0  0  0  0  0  0  0  0
  126.2170  125.7720   60.1190 C   0  0  0  0  0  0  0  0  0  0  0  0
  127.2140  125.1030   59.3920 C   0  0  0  0  0  0  0  0  0  0  0  0
  126.9070  124.1280   58.4400 N   0  0  0  0  0  0  0  0  0  0  0  0
  127.8700  123.0400   58.1820 C   0  0  0  0  0  0  0  0  0  0  0  0
  127.5990  122.2870   56.8620 C   0  0  0  0  0  0  0  0  0  0  0  0
  126.2680  121.7920   56.8510 O   0  0  0  0  0  0  0  0  0  0  0  0
  125.3170  122.8390   56.9640 C   0  0  0  0  0  0  0  0  0  0  0  0
  125.5330  123.6100   58.2830 C   0  0  0  0  0  0  0  0  0  0  0  0
  128.5500  125.4640   59.6200 C   0  0  0  0  0  0  0  0  0  0  0  0
  128.8790  126.4440   60.5530 C   0  0  0  0  0  0  0  0  0  0  0  0
  128.6090  129.4680   61.8910 C   0  0  0  0  0  0  0  0  0  0  0  0
  1  2  1  0
  2  3  2  0
  3  4  1  0
  4  5  2  0
  4  6  1  0
  6  7  1  0
  7  8  1  0
  8  9  2  0
  9 10  1  0
 10 11  1  0
  3 12  1  0
 12 13  1  0
 13 14  2  0
 14 15  1  0
 15 16  1  0
 16 17  2  0
 17 18  1  0
 18 19  2  0
 19 20  1  0
 20 21  1  0
 21 22  1  0
 22 23  1  0
 23 24  1  0
 24 25  1  0
 19 26  1  0
 26 27  2  0
 15 28  2  0
 28 29  1  0
 29 30  1  0
 30 31  2  0
 31 32  1  0
 32 33  2  0
 33 34  1  0
 34 35  1  0
 35 36  1  0
 36 37  1  0
 37 38  1  0
 38 39  1  0
 33 40  1  0
 40 41  2  0
 29 42  2  0
 42  2  1  0
 11  7  2  0
 42 13  1  0
 27 16  1  0
 41 30  1  0
 25 20  1  0
 39 34  1  0
M  END
>  <Binding energies>  (40) 
[-9.75]

>  <Ligand effiencies>  (40) 
[-0.21666666666666667]

>  <Interactions>  (40) 
["V-B:GLU:543:CB:9877, V-A:HIS:456:CE1:4069, V-B:GLU:543:C:9873, V-B:GLY:544:C:9883, V-B:GLU:543:CD:9879, V-B:HIS:456:CE1:9040, V-B:PRO:540:N:9855, V-B:PRO:540:CB:9856, V-B:TYR:539:CD2:9845, V-B:TYR:539:C:9838, V-B:MET:535:CE:9806, H-B:TYR:539:N:9841, V-B:PRO:540:CA:9854, V-B:LEU:363:CD1:8159, V-B:TYR:539:CE2:9847, V-B:GLY:544:CA:9885, V-B:TYR:539:CZ:9848, V-B:TYR:539:CE1:9846, V-B:TYR:539:CA:9840, V-B:TYR:539:CD1:9844, V-B:TYR:539:CG:9843, V-A:GLU:543:CD:4907, V-A:GLU:543:CG:4906, V-A:TYR:531:CE2:4792, V-A:LEU:363:CD1:3188, V-A:PRO:540:CA:4882, V-A:PRO:540:CD:4886, V-A:ILE:538:CG2:4862, V-A:PRO:540:N:4883, V-A:PRO:540:CB:4884, V-A:TYR:539:C:4866, H-A:TYR:539:N:4869, V-A:ILE:538:CB:4861, V-B:PRO:540:CD:9858"]

$$$$
9c_Ghoteimi_2023
     RDKit          3D

 42 48  0  0  0  0  0  0  0  0999 V2000
  130.2620  124.0680   64.8240 N   0  0  0  0  0  0  0  0  0  0  0  0
  130.3060  124.2870   63.4710 C   0  0  0  0  0  0  0  0  0  0  0  0
  130.3630  123.2550   62.5220 C   0  0  0  0  0  0  0  0  0  0  0  0
  130.3670  121.8060   62.7470 C   0  0  0  0  0  0  0  0  0  0  0  0
  130.1370  121.3410   63.8650 O   0  0  0  0  0  0  0  0  0  0  0  0
  130.6420  121.0490   61.6570 N   0  0  0  0  0  0  0  0  0  0  0  0
  130.7230  119.6650   61.6010 C   0  0  0  0  0  0  0  0  0  0  0  0
  129.7500  118.7920   61.7530 N   0  0  0  0  0  0  0  0  0  0  0  0
  130.1890  117.5530   61.6410 C   0  0  0  0  0  0  0  0  0  0  0  0
  131.5510  117.4020   61.3930 C   0  0  0  0  0  0  0  0  0  0  0  0
  132.2860  118.9740   61.3030 S   0  0  0  0  0  0  0  0  0  0  0  0
  130.4390  123.8990   60.8820 S   0  0  0  0  0  0  0  0  0  0  0  0
  130.4130  125.5420   61.4770 C   0  0  0  0  0  0  0  0  0  0  0  0
  130.4780  126.5850   60.6510 N   0  0  0  0  0  0  0  0  0  0  0  0
  130.4680  127.8200   61.2160 C   0  0  0  0  0  0  0  0  0  0  0  0
  130.5640  128.9710   60.2690 C   0  0  0  0  0  0  0  0  0  0  0  0
  131.3630  130.0840   60.5580 C   0  0  0  0  0  0  0  0  0  0  0  0
  131.4420  131.1570   59.6760 C   0  0  0  0  0  0  0  0  0  0  0  0
  130.7130  131.1640   58.4760 C   0  0  0  0  0  0  0  0  0  0  0  0
  130.7860  132.2330   57.5760 N   0  0  0  0  0  0  0  0  0  0  0  0
  129.8310  132.3630   56.4570 C   0  0  0  0  0  0  0  0  0  0  0  0
  129.8360  133.7560   55.7910 C   0  0  0  0  0  0  0  0  0  0  0  0
  131.1510  134.0880   55.3760 O   0  0  0  0  0  0  0  0  0  0  0  0
  132.0470  134.1320   56.4740 C   0  0  0  0  0  0  0  0  0  0  0  0
  132.1080  132.7520   57.1660 C   0  0  0  0  0  0  0  0  0  0  0  0
  129.9290  130.0390   58.1830 C   0  0  0  0  0  0  0  0  0  0  0  0
  129.8540  128.9640   59.0640 C   0  0  0  0  0  0  0  0  0  0  0  0
  130.3640  128.0090   62.5970 C   0  0  0  0  0  0  0  0  0  0  0  0
  130.2730  126.9160   63.4660 C   0  0  0  0  0  0  0  0  0  0  0  0
  130.1340  127.1690   64.9220 C   0  0  0  0  0  0  0  0  0  0  0  0
  129.1270  128.0110   65.3970 C   0  0  0  0  0  0  0  0  0  0  0  0
  128.9820  128.2380   66.7630 C   0  0  0  0  0  0  0  0  0  0  0  0
  129.8420  127.6290   67.6900 C   0  0  0  0  0  0  0  0  0  0  0  0
  129.7080  127.8330   69.0670 N   0  0  0  0  0  0  0  0  0  0  0  0
  129.8130  129.2040   69.6050 C   0  0  0  0  0  0  0  0  0  0  0  0
  130.0390  129.2430   71.1320 C   0  0  0  0  0  0  0  0  0  0  0  0
  129.0110  128.5220   71.7940 O   0  0  0  0  0  0  0  0  0  0  0  0
  128.9800  127.1620   71.3890 C   0  0  0  0  0  0  0  0  0  0  0  0
  128.7330  127.0680   69.8670 C   0  0  0  0  0  0  0  0  0  0  0  0
  130.8370  126.7690   67.2030 C   0  0  0  0  0  0  0  0  0  0  0  0
  130.9820  126.5430   65.8370 C   0  0  0  0  0  0  0  0  0  0  0  0
  130.3180  125.6110   62.8990 C   0  0  0  0  0  0  0  0  0  0  0  0
  1  2  1  0
  2  3  2  0
  3  4  1  0
  4  5  2  0
  4  6  1  0
  6  7  1  0
  7  8  2  0
  8  9  1  0
  9 10  2  0
 10 11  1  0
  3 12  1  0
 12 13  1  0
 13 14  2  0
 14 15  1  0
 15 16  1  0
 16 17  2  0
 17 18  1  0
 18 19  2  0
 19 20  1  0
 20 21  1  0
 21 22  1  0
 22 23  1  0
 23 24  1  0
 24 25  1  0
 19 26  1  0
 26 27  2  0
 15 28  2  0
 28 29  1  0
 29 30  1  0
 30 31  2  0
 31 32  1  0
 32 33  2  0
 33 34  1  0
 34 35  1  0
 35 36  1  0
 36 37  1  0
 37 38  1  0
 38 39  1  0
 33 40  1  0
 40 41  2  0
 29 42  2  0
 42  2  1  0
 11  7  1  0
 42 13  1  0
 27 16  1  0
 41 30  1  0
 25 20  1  0
 39 34  1  0
M  END
>  <Binding energies>  (41) 
[-8.96]

>  <Ligand effiencies>  (41) 
[-0.19911111111111113]

>  <Interactions>  (41) 
["V-A:HIS:456:CE1:4069, V-B:GLU:543:CD:9879, V-B:HIS:456:CE1:9040, V-B:TYR:539:CD2:9845, V-A:LEU:475:CD2:4258, V-A:PRO:482:CG:4326, V-B:ALA:541:CB:9863, V-A:SER:385:CB:3408, H-B:GLU:543:OE2:9881, V-A:HIS:383:CE1:3393, V-A:PRO:482:CB:4325, V-A:GLU:543:CD:4907, V-A:GLU:543:CG:4906, V-A:SER:385:CA:3406, V-A:GLU:543:CB:4905, H-A:TYR:484:OH:4347, V-A:TYR:531:CE2:4792, V-A:LEU:363:CD1:3188, V-A:PRO:540:CA:4882, V-A:TYR:539:CD1:4872, V-A:PRO:540:CD:4886, V-A:ILE:538:CG2:4862, V-A:PRO:540:N:4883, V-A:PRO:540:CB:4884, V-A:TYR:539:C:4866, V-A:TYR:539:CE1:4874, H-A:TYR:539:N:4869, V-A:ILE:538:CB:4861, V-A:ILE:538:CA:4859, V-A:TYR:539:CZ:4876, V-A:PRO:540:CG:4885, V-A:GLU:543:C:4901, V-A:ILE:538:C:4857, V-A:TYR:539:CD2:4873, V-A:TYR:539:CE2:4875, V-A:GLU:543:CA:4903, H-B:TYR:539:O:9839, V-A:TYR:539:CG:4871"]

$$$$
RR11_Rahimova_2017
     RDKit          3D

 33 38  0  0  0  0  0  0  0  0999 V2000
  134.6330  130.5210   57.6070 N   0  0  0  0  0  0  0  0  0  0  0  0
  133.4770  130.9340   58.2660 C   0  0  0  0  0  0  0  0  0  0  0  0
  133.2390  130.5180   59.5750 C   0  0  0  0  0  0  0  0  0  0  0  0
  132.0850  130.9330   60.2340 C   0  0  0  0  0  0  0  0  0  0  0  0
  131.1600  131.7680   59.5920 C   0  0  0  0  0  0  0  0  0  0  0  0
  129.9200  132.2190   60.3060 C   0  0  0  0  0  0  0  0  0  0  0  0
  128.9170  131.4310   60.6230 N   0  0  0  0  0  0  0  0  0  0  0  0
  128.0130  132.2360   61.2650 C   0  0  0  0  0  0  0  0  0  0  0  0
  126.7690  131.9040   61.8190 C   0  0  0  0  0  0  0  0  0  0  0  0
  126.0290  132.9140   62.4470 C   0  0  0  0  0  0  0  0  0  0  0  0
  124.6720  132.5850   63.0530 C   0  0  0  0  0  0  0  0  0  0  0  0
  124.7210  131.4070   64.0160 C   0  0  0  0  0  0  0  0  0  0  0  0
  123.7750  130.3830   63.8990 C   0  0  0  0  0  0  0  0  0  0  0  0
  123.7840  129.2770   64.7520 C   0  0  0  0  0  0  0  0  0  0  0  0
  124.7780  129.2120   65.7380 C   0  0  0  0  0  0  0  0  0  0  0  0
  124.9950  128.2500   66.6890 N   0  0  0  0  0  0  0  0  0  0  0  0
  126.0460  128.6620   67.3660 C   0  0  0  0  0  0  0  0  0  0  0  0
  126.6470  127.9280   68.5300 C   0  0  0  0  0  0  0  0  0  0  0  0
  125.8260  127.2970   69.4730 C   0  0  0  0  0  0  0  0  0  0  0  0
  126.3820  126.6250   70.5580 C   0  0  0  0  0  0  0  0  0  0  0  0
  127.7670  126.5800   70.7080 C   0  0  0  0  0  0  0  0  0  0  0  0
  128.3250  125.9120   71.7970 N   0  0  0  0  0  0  0  0  0  0  0  0
  128.5960  127.2000   69.7770 C   0  0  0  0  0  0  0  0  0  0  0  0
  128.0380  127.8710   68.6920 C   0  0  0  0  0  0  0  0  0  0  0  0
  126.5310  129.8600   66.8870 N   0  0  0  0  0  0  0  0  0  0  0  0
  125.7360  130.2500   65.8360 C   0  0  0  0  0  0  0  0  0  0  0  0
  125.7350  131.3550   64.9810 C   0  0  0  0  0  0  0  0  0  0  0  0
  126.5130  134.2270   62.4950 C   0  0  0  0  0  0  0  0  0  0  0  0
  127.7460  134.5890   61.9480 C   0  0  0  0  0  0  0  0  0  0  0  0
  128.4800  133.5690   61.3400 C   0  0  0  0  0  0  0  0  0  0  0  0
  129.7030  133.5200   60.7120 N   0  0  0  0  0  0  0  0  0  0  0  0
  131.4120  132.1780   58.2760 C   0  0  0  0  0  0  0  0  0  0  0  0
  132.5650  131.7640   57.6150 C   0  0  0  0  0  0  0  0  0  0  0  0
  1  2  1  0
  2  3  2  0
  3  4  1  0
  4  5  2  0
  5  6  1  0
  6  7  2  0
  7  8  1  0
  8  9  2  0
  9 10  1  0
 10 11  1  0
 11 12  1  0
 12 13  2  0
 13 14  1  0
 14 15  2  0
 15 16  1  0
 16 17  2  0
 17 18  1  0
 18 19  2  0
 19 20  1  0
 20 21  2  0
 21 22  1  0
 21 23  1  0
 23 24  2  0
 17 25  1  0
 25 26  1  0
 26 27  2  0
 10 28  2  0
 28 29  1  0
 29 30  2  0
 30 31  1  0
  5 32  1  0
 32 33  2  0
 33  2  1  0
 31  6  1  0
 30  8  1  0
 27 12  1  0
 26 15  1  0
 24 18  1  0
M  END
>  <Binding energies>  (42) 
[-8.72]

>  <Ligand effiencies>  (42) 
[-0.2235897435897436]

>  <Interactions>  (42) 
["V-B:GLU:543:CB:9877, V-A:HIS:456:CE1:4069, V-B:GLU:543:C:9873, V-B:GLY:544:C:9883, V-B:ARG:545:CA:9890, V-B:GLU:543:CD:9879, V-B:HIS:456:CE1:9040, V-B:ARG:545:CG:9893, V-B:GLY:453:C:9012, V-B:LEU:475:CD1:9228, V-B:ARG:545:CZ:9897, V-B:GLY:544:CA:9885, V-B:GLY:454:CA:9019, V-A:ASP:366:CG:3212, V-A:ASP:366:CB:3211, H-B:TYR:484:OH:9318, V-A:TYR:531:CE2:4792, V-A:PRO:540:C:4880, V-A:LEU:363:CA:3184, H-A:TYR:531:OH:4794, V-A:LEU:363:C:3182, V-A:LEU:363:CD1:3188, V-A:PRO:540:CA:4882, V-A:TYR:531:CZ:4793, V-A:PRO:540:N:4883, V-A:TYR:539:C:4866, H-A:TYR:539:O:4867, V-B:GLY:453:CA:9014, V-A:ALA:541:CB:4891, V-B:TYR:484:CZ:9317, H-B:ARG:545:NE:9895, H-A:ASN:362:O:3172, H-A:LEU:363:O:3183, H-B:GLU:543:O:9874"]

$$$$
RR16_Rahimova_2017
     RDKit          3D

 44 49  0  0  0  0  0  0  0  0999 V2000
  129.7750  128.0580   70.0810 O   0  0  0  0  0  0  0  0  0  0  0  0
  129.3890  127.2690   68.9050 S   0  0  0  0  0  0  0  0  0  0  0  0
  129.0360  125.8510   69.0340 O   0  0  0  0  0  0  0  0  0  0  0  0
  130.6920  127.4050   67.7230 N   0  0  0  0  0  0  0  0  0  0  0  0
  131.4780  126.2160   67.3170 C   0  0  0  0  0  0  0  0  0  0  0  0
  130.8510  125.6040   66.0370 C   0  0  0  0  0  0  0  0  0  0  0  0
  131.1900  126.2760   64.6920 C   0  0  0  0  0  0  0  0  0  0  0  0
  132.6620  126.1220   64.2700 C   0  0  0  0  0  0  0  0  0  0  0  0
  133.4990  125.1390   65.1120 C   0  0  0  0  0  0  0  0  0  0  0  0
  133.8770  125.5770   66.5410 C   0  0  0  0  0  0  0  0  0  0  0  0
  132.9650  126.6270   67.2040 C   0  0  0  0  0  0  0  0  0  0  0  0
  128.0070  128.1140   68.1450 C   0  0  0  0  0  0  0  0  0  0  0  0
  126.7040  127.8710   68.5840 C   0  0  0  0  0  0  0  0  0  0  0  0
  125.6310  128.4400   67.9050 C   0  0  0  0  0  0  0  0  0  0  0  0
  125.8650  129.2490   66.7910 C   0  0  0  0  0  0  0  0  0  0  0  0
  124.4840  129.8660   65.8310 S   0  0  0  0  0  0  0  0  0  0  0  0
  124.2720  131.2670   66.2170 O   0  0  0  0  0  0  0  0  0  0  0  0
  123.3930  128.8910   65.9530 O   0  0  0  0  0  0  0  0  0  0  0  0
  125.0690  129.8330   64.1560 N   0  0  0  0  0  0  0  0  0  0  0  0
  123.9970  129.7630   63.1300 C   0  0  0  0  0  0  0  0  0  0  0  0
  124.5930  129.4260   61.7490 C   0  0  0  0  0  0  0  0  0  0  0  0
  125.7360  130.3980   61.3630 C   0  0  0  0  0  0  0  0  0  0  0  0
  126.3730  130.0510   60.0150 C   0  0  0  0  0  0  0  0  0  0  0  0
  125.9500  128.9100   59.3180 C   0  0  0  0  0  0  0  0  0  0  0  0
  126.4970  128.5610   58.0820 C   0  0  0  0  0  0  0  0  0  0  0  0
  126.0680  127.4440   57.4140 O   0  0  0  0  0  0  0  0  0  0  0  0
  127.4930  129.3890   57.5420 C   0  0  0  0  0  0  0  0  0  0  0  0
  128.1830  129.3100   56.3670 N   0  0  0  0  0  0  0  0  0  0  0  0
  129.0280  130.3970   56.3090 N   0  0  0  0  0  0  0  0  0  0  0  0
  128.8900  131.1040   57.4470 N   0  0  0  0  0  0  0  0  0  0  0  0
  129.6070  132.3610   57.6200 C   0  0  0  0  0  0  0  0  0  0  0  0
  131.0170  132.1640   58.1590 C   0  0  0  0  0  0  0  0  0  0  0  0
  132.1010  132.0940   57.2770 C   0  0  0  0  0  0  0  0  0  0  0  0
  133.3970  131.9350   57.7700 C   0  0  0  0  0  0  0  0  0  0  0  0
  133.6160  131.8480   59.1450 C   0  0  0  0  0  0  0  0  0  0  0  0
  132.5400  131.9190   60.0290 C   0  0  0  0  0  0  0  0  0  0  0  0
  132.8080  131.8210   61.7310 Cl  0  0  0  0  0  0  0  0  0  0  0  0
  131.2420  132.0730   59.5370 C   0  0  0  0  0  0  0  0  0  0  0  0
  127.9200  130.5340   58.2550 C   0  0  0  0  0  0  0  0  0  0  0  0
  127.3750  130.8830   59.4950 C   0  0  0  0  0  0  0  0  0  0  0  0
  126.7810  130.5560   62.4980 C   0  0  0  0  0  0  0  0  0  0  0  0
  126.1150  130.8460   63.8580 C   0  0  0  0  0  0  0  0  0  0  0  0
  127.1700  129.5240   66.3780 C   0  0  0  0  0  0  0  0  0  0  0  0
  128.2430  128.9530   67.0540 C   0  0  0  0  0  0  0  0  0  0  0  0
  1  2  2  0
  2  3  2  0
  2  4  1  0
  4  5  1  0
  5  6  1  0
  6  7  1  0
  7  8  1  0
  8  9  1  0
  9 10  1  0
 10 11  1  0
  2 12  1  0
 12 13  2  0
 13 14  1  0
 14 15  2  0
 15 16  1  0
 16 17  2  0
 16 18  2  0
 16 19  1  0
 19 20  1  0
 20 21  1  0
 21 22  1  0
 22 23  1  0
 23 24  2  0
 24 25  1  0
 25 26  1  0
 25 27  2  0
 27 28  1  0
 28 29  2  0
 29 30  1  0
 30 31  1  0
 31 32  1  0
 32 33  2  0
 33 34  1  0
 34 35  2  0
 35 36  1  0
 36 37  1  0
 36 38  2  0
 30 39  1  0
 39 40  2  0
 22 41  1  0
 41 42  1  0
 15 43  1  0
 43 44  2  0
 11  5  1  0
 44 12  1  0
 42 19  1  0
 40 23  1  0
 39 27  1  0
 38 32  1  0
M  END
>  <Binding energies>  (43) 
[-9.68]

>  <Ligand effiencies>  (43) 
[-0.20166666666666666]

>  <Interactions>  (43) 
["V-B:GLU:543:CB:9877, V-A:HIS:456:CE1:4069, V-B:GLU:543:CD:9879, V-B:HIS:456:CE1:9040, V-B:ARG:545:CG:9893, V-B:ASP:366:CG:8183, V-A:ARG:545:CZ:4925, V-A:TYR:484:CZ:4346, H-B:TYR:531:OH:9766, V-A:ARG:545:CD:4922, V-A:ARG:545:CG:4921, V-B:ARG:545:CZ:9897, V-A:GLU:543:CG:4906, V-A:GLY:454:CA:4048, H-B:TYR:484:OH:9318, V-A:ASN:362:C:3171, V-A:TYR:531:CE2:4792, V-A:LEU:363:CA:3184, H-A:TYR:531:OH:4794, V-A:LEU:363:CD1:3188, V-A:PRO:540:CA:4882, V-A:TYR:531:CZ:4793, V-A:TYR:539:CD1:4872, V-A:ASN:362:CB:3175, V-A:PRO:540:CB:4884, V-A:TYR:539:CE1:4874, V-A:LEU:363:CB:3186, H-B:GLY:454:N:9020, H-B:ARG:545:NH2:9899, H-A:GLU:543:OE1:4908, H-B:ARG:545:NE:9895, H-B:ARG:545:NH1:9898, H-B:ILE:455:N:9025"]

$$$$
RR18_Rahimova_2017
     RDKit          3D

 36 41  0  0  0  0  0  0  0  0999 V2000
  129.7820  127.7330   59.8130 C   0  0  0  0  0  0  0  0  0  0  0  0
  129.6990  128.0060   61.2930 C   0  0  0  0  0  0  0  0  0  0  0  0
  129.9000  127.2400   62.4300 C   0  0  0  0  0  0  0  0  0  0  0  0
  129.6660  128.0720   63.5240 C   0  0  0  0  0  0  0  0  0  0  0  0
  129.3310  129.3170   63.0170 C   0  0  0  0  0  0  0  0  0  0  0  0
  128.9710  130.6570   63.6540 C   0  0  1  0  0  0  0  0  0  0  0  0
  128.8400  131.7820   62.5840 C   0  0  0  0  0  0  0  0  0  0  0  0
  130.0040  132.2070   61.8130 C   0  0  0  0  0  0  0  0  0  0  0  0
  130.8470  132.9760   62.2790 O   0  0  0  0  0  0  0  0  0  0  0  0
  130.0720  131.6720   60.5720 N   0  0  0  0  0  0  0  0  0  0  0  0
  131.0250  131.8620   59.5470 C   0  0  0  0  0  0  0  0  0  0  0  0
  130.7360  132.5070   58.3310 C   0  0  0  0  0  0  0  0  0  0  0  0
  131.7220  132.6570   57.3560 C   0  0  0  0  0  0  0  0  0  0  0  0
  133.0030  132.1610   57.5770 C   0  0  0  0  0  0  0  0  0  0  0  0
  133.3000  131.5100   58.7720 C   0  0  0  0  0  0  0  0  0  0  0  0
  132.3220  131.3530   59.7590 C   0  0  0  0  0  0  0  0  0  0  0  0
  132.6970  130.6280   61.0490 C   0  0  0  0  0  0  0  0  0  0  0  0
  127.6040  132.2790   62.3160 C   0  0  0  0  0  0  0  0  0  0  0  0
  126.4710  131.9550   62.9990 N   0  0  0  0  0  0  0  0  0  0  0  0
  126.5490  131.1870   64.0220 C   0  0  0  0  0  0  0  0  0  0  0  0
  125.2120  130.8050   65.0810 S   0  0  0  0  0  0  0  0  0  0  0  0
  126.2600  129.7940   66.1250 C   0  0  0  0  0  0  0  0  0  0  0  0
  125.8880  129.1050   67.2600 C   0  0  0  0  0  0  0  0  0  0  0  0
  124.5180  129.2180   67.7810 C   0  0  0  0  0  0  0  0  0  0  0  0
  123.5540  129.8470   67.3450 O   0  0  0  0  0  0  0  0  0  0  0  0
  124.4580  128.4960   68.9040 N   0  0  0  0  0  0  0  0  0  0  0  0
  125.6310  127.8680   69.1950 C   0  0  0  0  0  0  0  0  0  0  0  0
  125.9070  127.0320   70.2770 C   0  0  0  0  0  0  0  0  0  0  0  0
  127.1720  126.4590   70.3770 C   0  0  0  0  0  0  0  0  0  0  0  0
  128.1280  126.7220   69.3980 C   0  0  0  0  0  0  0  0  0  0  0  0
  127.8270  127.5640   68.3240 C   0  0  0  0  0  0  0  0  0  0  0  0
  126.5620  128.1720   68.2170 C   0  0  0  0  0  0  0  0  0  0  0  0
  127.6150  129.8290   65.5750 C   0  0  0  0  0  0  0  0  0  0  0  0
  128.6110  129.2960   66.0540 O   0  0  0  0  0  0  0  0  0  0  0  0
  127.6850  130.5650   64.4330 N   0  0  0  0  0  0  0  0  0  0  0  0
  129.3520  129.2680   61.6580 O   0  0  0  0  0  0  0  0  0  0  0  0
  1  2  1  0
  2  3  2  0
  3  4  1  0
  4  5  2  0
  6  5  1  6
  6  7  1  0
  7  8  1  0
  8  9  2  0
  8 10  1  0
 10 11  1  0
 11 12  2  0
 12 13  1  0
 13 14  2  0
 14 15  1  0
 15 16  2  0
 16 17  1  0
  7 18  2  0
 18 19  1  0
 19 20  2  0
 20 21  1  0
 21 22  1  0
 22 23  2  0
 23 24  1  0
 24 25  2  0
 24 26  1  0
 26 27  1  0
 27 28  2  0
 28 29  1  0
 29 30  2  0
 30 31  1  0
 31 32  2  0
 22 33  1  0
 33 34  2  0
 33 35  1  0
  5 36  1  0
 36  2  1  0
 35  6  1  0
 16 11  1  0
 35 20  1  0
 32 23  1  0
 32 27  1  0
M  END
>  <Binding energies>  (44) 
[-9.41]

>  <Ligand effiencies>  (44) 
[-0.24763157894736842]

>  <Interactions>  (44) 
["V-B:GLU:543:CB:9877, V-B:GLU:543:C:9873, V-B:GLY:544:C:9883, V-B:ARG:545:CA:9890, V-B:ARG:545:CD:9894, V-B:GLU:543:CD:9879, V-B:HIS:456:CE1:9040, V-B:ARG:545:CG:9893, V-B:ARG:545:CB:9892, V-B:GLU:543:CA:9875, V-B:GLY:454:CA:9019, V-A:ASP:366:CG:3212, V-A:GLU:543:CD:4907, V-A:GLU:543:CG:4906, H-B:TYR:484:OH:9318, V-A:TYR:531:CE2:4792, V-A:LEU:363:CA:3184, V-A:LEU:363:CD1:3188, V-A:PRO:540:CA:4882, V-A:TYR:531:CZ:4793, V-A:PRO:540:N:4883, V-A:PRO:540:CB:4884, V-A:TYR:539:C:4866, H-A:ALA:541:N:4890, H-B:GLY:454:N:9020, V-B:TYR:484:CZ:9317, H-B:ILE:455:O:9023, H-B:ILE:455:N:9025"]

$$$$
RR20_Rahimova_2017
     RDKit          3D

 38 43  0  0  0  0  0  0  0  0999 V2000
  123.7330  132.7750   61.2730 C   0  0  0  0  0  0  0  0  0  0  0  0
  123.9930  131.9260   62.5040 C   0  0  0  0  0  0  0  0  0  0  0  0
  123.6710  130.5690   62.4930 C   0  0  0  0  0  0  0  0  0  0  0  0
  123.9180  129.7870   63.6180 C   0  0  0  0  0  0  0  0  0  0  0  0
  124.4760  130.3580   64.7680 C   0  0  0  0  0  0  0  0  0  0  0  0
  124.7540  129.4870   65.9730 C   0  0  0  0  0  0  0  0  0  0  0  0
  123.7860  129.0080   66.5680 O   0  0  0  0  0  0  0  0  0  0  0  0
  126.0470  129.2530   66.3450 N   0  0  0  0  0  0  0  0  0  0  0  0
  127.1670  130.0100   65.7610 C   0  0  0  0  0  0  0  0  0  0  0  0
  128.4120  129.5870   66.5220 C   0  0  0  0  0  0  0  0  0  0  0  0
  127.8490  128.9030   67.7300 C   0  0  0  0  0  0  0  0  0  0  0  0
  128.5190  128.3800   68.8370 C   0  0  0  0  0  0  0  0  0  0  0  0
  127.8320  127.6270   69.7970 C   0  0  0  0  0  0  0  0  0  0  0  0
  128.5520  127.0710   70.9940 C   0  0  0  0  0  0  0  0  0  0  0  0
  128.3020  125.8220   71.3540 N   0  0  0  0  0  0  0  0  0  0  0  0
  128.9970  125.4380   72.3940 C   0  0  0  0  0  0  0  0  0  0  0  0
  128.9830  124.2020   73.0210 N   0  0  0  0  0  0  0  0  0  0  0  0
  129.3700  123.9280   74.2910 C   0  0  0  0  0  0  0  0  0  0  0  0
  129.7810  124.7770   75.0840 O   0  0  0  0  0  0  0  0  0  0  0  0
  129.2670  122.4650   74.7830 C   0  0  0  0  0  0  0  0  0  0  0  0
  128.2640  121.6780   74.0430 N   0  0  0  0  0  0  0  0  0  0  0  0
  128.7160  120.3050   73.7700 C   0  0  0  0  0  0  0  0  0  0  0  0
  127.7560  119.6160   72.7730 C   0  0  0  0  0  0  0  0  0  0  0  0
  126.2820  119.8250   73.1230 C   0  0  0  0  0  0  0  0  0  0  0  0
  125.2810  119.0670   72.5060 C   0  0  0  0  0  0  0  0  0  0  0  0
  123.9360  119.2830   72.7960 C   0  0  0  0  0  0  0  0  0  0  0  0
  123.5750  120.2650   73.7140 C   0  0  0  0  0  0  0  0  0  0  0  0
  124.5630  121.0200   74.3430 C   0  0  0  0  0  0  0  0  0  0  0  0
  125.9170  120.8140   74.0590 C   0  0  0  0  0  0  0  0  0  0  0  0
  127.0030  121.6030   74.7920 C   0  0  0  0  0  0  0  0  0  0  0  0
  130.0440  126.6430   73.0350 S   0  0  0  0  0  0  0  0  0  0  0  0
  129.4870  127.7510   71.8030 C   0  0  0  0  0  0  0  0  0  0  0  0
  129.9980  129.1750   71.7650 C   0  0  0  0  0  0  0  0  0  0  0  0
  126.4690  127.3640   69.5910 C   0  0  0  0  0  0  0  0  0  0  0  0
  125.8010  127.8700   68.4760 C   0  0  0  0  0  0  0  0  0  0  0  0
  126.4800  128.6920   67.5680 C   0  0  0  0  0  0  0  0  0  0  0  0
  124.8230  131.7150   64.7620 C   0  0  0  0  0  0  0  0  0  0  0  0
  124.5780  132.4980   63.6360 C   0  0  0  0  0  0  0  0  0  0  0  0
  1  2  1  0
  2  3  2  0
  3  4  1  0
  4  5  2  0
  5  6  1  0
  6  7  2  0
  6  8  1  0
  8  9  1  0
  9 10  1  0
 10 11  1  0
 11 12  2  0
 12 13  1  0
 13 14  1  0
 14 15  1  0
 15 16  2  0
 16 17  1  0
 17 18  1  0
 18 19  2  0
 18 20  1  0
 20 21  1  0
 21 22  1  0
 22 23  1  0
 23 24  1  0
 24 25  2  0
 25 26  1  0
 26 27  2  0
 27 28  1  0
 28 29  2  0
 29 30  1  0
 16 31  1  0
 31 32  1  0
 32 33  1  0
 13 34  2  0
 34 35  1  0
 35 36  2  0
  5 37  1  0
 37 38  2  0
 38  2  1  0
 36  8  1  0
 36 11  1  0
 32 14  2  0
 30 21  1  0
 29 24  1  0
M  END
>  <Binding energies>  (45) 
[-10.91]

>  <Ligand effiencies>  (45) 
[-0.27974358974358976]

>  <Interactions>  (45) 
["V-B:GLU:543:CB:9877, V-A:HIS:456:CE1:4069, V-B:GLU:543:C:9873, V-A:HIS:456:CD2:4067, V-B:GLU:543:CD:9879, V-B:HIS:456:CE1:9040, V-A:HIS:456:CG:4065, V-B:ARG:545:CG:9893, V-B:LEU:475:CD1:9228, V-B:ARG:545:CZ:9897, V-B:GLY:544:CA:9885, H-B:LYS:547:NZ:9922, V-B:GLY:454:CA:9019, V-A:GLU:543:CD:4907, V-A:GLU:543:CG:4906, V-A:GLU:543:CB:4905, H-B:GLY:454:N:9020, V-B:ILE:369:CG2:8207, V-A:GLU:543:C:4901, H-B:ARG:545:NE:9895, V-B:LYS:547:CE:9921, V-B:LYS:547:CG:9919, V-B:VAL:542:CG1:9870, V-A:TYR:484:CB:4340, H-B:GLU:543:O:9874, V-A:TYR:484:C:4336, V-A:TYR:484:CA:4338"]

$$$$
RR21_Rahimova_2017
     RDKit          3D

 40 45  0  0  0  0  0  0  0  0999 V2000
  133.5480  124.9710   63.0080 C   0  0  0  0  0  0  0  0  0  0  0  0
  133.8640  125.3340   64.3490 O   0  0  0  0  0  0  0  0  0  0  0  0
  132.8640  125.8200   65.1700 C   0  0  0  0  0  0  0  0  0  0  0  0
  131.5490  126.0770   64.7470 C   0  0  0  0  0  0  0  0  0  0  0  0
  130.5970  126.5650   65.6420 C   0  0  0  0  0  0  0  0  0  0  0  0
  130.9320  126.8040   66.9800 C   0  0  0  0  0  0  0  0  0  0  0  0
  129.9060  127.3230   67.9400 C   0  0  0  0  0  0  0  0  0  0  0  0
  129.8180  126.8040   69.1490 N   0  0  0  0  0  0  0  0  0  0  0  0
  128.8280  127.4570   69.7770 N   0  0  0  0  0  0  0  0  0  0  0  0
  128.4780  127.1570   71.1200 C   0  0  0  0  0  0  0  0  0  0  0  0
  127.4640  126.2300   71.4070 C   0  0  0  0  0  0  0  0  0  0  0  0
  127.1330  125.9410   72.7280 C   0  0  0  0  0  0  0  0  0  0  0  0
  127.8120  126.5770   73.7650 C   0  0  0  0  0  0  0  0  0  0  0  0
  128.8180  127.5010   73.4930 C   0  0  0  0  0  0  0  0  0  0  0  0
  129.1510  127.7920   72.1730 C   0  0  0  0  0  0  0  0  0  0  0  0
  128.2950  128.4160   68.9530 C   0  0  0  0  0  0  0  0  0  0  0  0
  128.9600  128.3540   67.7370 C   0  0  0  0  0  0  0  0  0  0  0  0
  128.7760  129.2010   66.5690 C   0  0  0  0  0  0  0  0  0  0  0  0
  127.6210  129.5340   65.9490 C   0  0  0  0  0  0  0  0  0  0  0  0
  125.9700  129.0260   66.3700 S   0  0  0  0  0  0  0  0  0  0  0  0
  125.3490  129.9930   65.0400 C   0  0  0  0  0  0  0  0  0  0  0  0
  124.1120  130.1580   64.6870 N   0  0  0  0  0  0  0  0  0  0  0  0
  123.7400  130.9840   63.5900 C   0  0  0  0  0  0  0  0  0  0  0  0
  122.5930  131.2080   63.2050 O   0  0  0  0  0  0  0  0  0  0  0  0
  124.9070  131.6190   62.8850 C   0  0  0  0  0  0  0  0  0  0  0  0
  124.6310  132.5170   61.6720 C   0  0  0  0  0  0  0  0  0  0  0  0
  125.4060  133.8330   61.6730 C   0  0  0  0  0  0  0  0  0  0  0  0
  126.2830  134.1270   62.7210 C   0  0  0  0  0  0  0  0  0  0  0  0
  127.0020  135.3200   62.7130 C   0  0  0  0  0  0  0  0  0  0  0  0
  126.8480  136.2200   61.6560 C   0  0  0  0  0  0  0  0  0  0  0  0
  127.6430  137.5120   61.6460 C   0  0  0  0  0  0  0  0  0  0  0  0
  125.9800  135.9220   60.6030 C   0  0  0  0  0  0  0  0  0  0  0  0
  125.2610  134.7300   60.6110 C   0  0  0  0  0  0  0  0  0  0  0  0
  126.1360  131.4410   63.2450 N   0  0  0  0  0  0  0  0  0  0  0  0
  126.3590  130.6110   64.3510 N   0  0  0  0  0  0  0  0  0  0  0  0
  127.6280  130.4050   64.7820 C   0  0  0  0  0  0  0  0  0  0  0  0
  128.6370  130.8940   64.2600 O   0  0  0  0  0  0  0  0  0  0  0  0
  132.2420  126.5540   67.4000 C   0  0  0  0  0  0  0  0  0  0  0  0
  133.1960  126.0670   66.5070 C   0  0  0  0  0  0  0  0  0  0  0  0
  134.4550  125.8340   66.9460 F   0  0  0  0  0  0  0  0  0  0  0  0
  1  2  1  0
  2  3  1  0
  3  4  2  0
  4  5  1  0
  5  6  2  0
  6  7  1  0
  7  8  2  0
  8  9  1  0
  9 10  1  0
 10 11  2  0
 11 12  1  0
 12 13  2  0
 13 14  1  0
 14 15  2  0
  9 16  1  0
 16 17  2  0
 17 18  1  0
 18 19  2  0
 19 20  1  0
 20 21  1  0
 21 22  2  0
 22 23  1  0
 23 24  2  0
 23 25  1  0
 25 26  1  0
 26 27  1  0
 27 28  2  0
 28 29  1  0
 29 30  2  0
 30 31  1  0
 30 32  1  0
 32 33  2  0
 25 34  2  0
 34 35  1  0
 35 36  1  0
 36 37  2  0
  6 38  1  0
 38 39  2  0
 39 40  1  0
 39  3  1  0
 17  7  1  0
 36 19  1  0
 15 10  1  0
 35 21  1  0
 33 27  1  0
M  END
>  <Binding energies>  (46) 
[-10.91]

>  <Ligand effiencies>  (46) 
[-0.27275]

>  <Interactions>  (46) 
["V-B:GLU:543:CB:9877, V-A:HIS:456:CE1:4069, V-B:GLU:543:C:9873, V-B:GLY:544:C:9883, V-B:GLU:543:CD:9879, V-B:HIS:456:CE1:9040, V-A:ARG:545:CZ:4925, V-A:ARG:545:CD:4922, V-A:ARG:545:CG:4921, V-B:GLY:453:C:9012, V-B:LEU:475:CD1:9228, V-B:GLY:544:CA:9885, V-B:GLY:454:CA:9019, V-A:ASP:366:CG:3212, V-A:GLU:543:CD:4907, V-A:GLU:543:CG:4906, V-A:GLU:543:CB:4905, H-A:GLY:454:N:4049, V-A:TYR:539:CD1:4872, V-A:TYR:539:C:4866, V-A:TYR:539:CE1:4874, V-A:ALA:541:CB:4891, H-B:GLY:454:N:9020, H-A:ARG:545:NH2:4927, V-B:SER:385:CB:8379, H-A:ARG:545:NH1:4926, V-B:LYS:547:CE:9921, V-A:TYR:539:CG:4871, V-A:GLY:453:CA:4043, V-A:TYR:539:CB:4870, V-B:PRO:482:CB:9296, V-B:PRO:482:CG:9297"]

$$$$
RR23_Rahimova_2017
     RDKit          3D

 39 44  0  0  0  0  0  0  0  0999 V2000
  132.1840  124.7390   75.8150 C   0  0  0  0  0  0  0  0  0  0  0  0
  131.0700  125.1710   74.8790 C   0  0  0  0  0  0  0  0  0  0  0  0
  130.5780  126.4760   74.9350 C   0  0  0  0  0  0  0  0  0  0  0  0
  129.5620  126.8740   74.0680 C   0  0  0  0  0  0  0  0  0  0  0  0
  129.0240  125.9680   73.1480 C   0  0  0  0  0  0  0  0  0  0  0  0
  127.9360  126.4260   72.2020 C   0  0  0  0  0  0  0  0  0  0  0  0
  126.8140  125.9340   72.3420 O   0  0  0  0  0  0  0  0  0  0  0  0
  128.2250  127.3640   71.2520 N   0  0  0  0  0  0  0  0  0  0  0  0
  129.5370  128.0290   71.2010 C   0  0  0  0  0  0  0  0  0  0  0  0
  129.5360  128.8810   69.9420 C   0  0  0  0  0  0  0  0  0  0  0  0
  128.3650  128.3430   69.1760 C   0  0  0  0  0  0  0  0  0  0  0  0
  127.9230  128.6800   67.8970 C   0  0  0  0  0  0  0  0  0  0  0  0
  126.7050  128.1780   67.4130 C   0  0  0  0  0  0  0  0  0  0  0  0
  126.1810  128.5230   66.0110 C   0  0  2  0  0  0  0  0  0  0  0  0
  126.9830  129.5380   65.3620 N   0  0  0  0  0  0  0  0  0  0  0  0
  126.2860  130.2730   64.5920 C   0  0  0  0  0  0  0  0  0  0  0  0
  126.6980  131.3340   63.8470 N   0  0  0  0  0  0  0  0  0  0  0  0
  127.9050  131.9480   63.8510 C   0  0  0  0  0  0  0  0  0  0  0  0
  128.8790  131.6090   64.5270 O   0  0  0  0  0  0  0  0  0  0  0  0
  128.0300  133.1700   62.9260 C   0  0  0  0  0  0  0  0  0  0  0  0
  129.1160  132.9300   61.9490 N   0  0  0  0  0  0  0  0  0  0  0  0
  130.3590  132.6410   62.4980 N   0  0  0  0  0  0  0  0  0  0  0  0
  131.3910  132.4120   61.7500 N   0  0  0  0  0  0  0  0  0  0  0  0
  131.2640  132.4510   60.3600 C   0  0  0  0  0  0  0  0  0  0  0  0
  132.3970  132.2020   59.5820 C   0  0  0  0  0  0  0  0  0  0  0  0
  132.3020  132.2340   58.1900 C   0  0  0  0  0  0  0  0  0  0  0  0
  131.0800  132.5150   57.5760 C   0  0  0  0  0  0  0  0  0  0  0  0
  129.9460  132.7660   58.3510 C   0  0  0  0  0  0  0  0  0  0  0  0
  130.0410  132.7320   59.7470 C   0  0  0  0  0  0  0  0  0  0  0  0
  128.8270  133.0040   60.6050 C   0  0  0  0  0  0  0  0  0  0  0  0
  127.7110  133.2720   60.1490 O   0  0  0  0  0  0  0  0  0  0  0  0
  124.5440  129.8930   64.4680 S   0  0  0  0  0  0  0  0  0  0  0  0
  124.6820  128.9040   65.9670 C   0  0  2  0  0  0  0  0  0  0  0  0
  124.1400  129.7200   67.1590 C   0  0  0  0  0  0  0  0  0  0  0  0
  125.9230  127.3770   68.2530 C   0  0  0  0  0  0  0  0  0  0  0  0
  126.3550  127.0570   69.5410 C   0  0  0  0  0  0  0  0  0  0  0  0
  127.6090  127.4950   69.9870 C   0  0  0  0  0  0  0  0  0  0  0  0
  129.5430  124.6680   73.0780 C   0  0  0  0  0  0  0  0  0  0  0  0
  130.5580  124.2710   73.9440 C   0  0  0  0  0  0  0  0  0  0  0  0
  1  2  1  0
  2  3  2  0
  3  4  1  0
  4  5  2  0
  5  6  1  0
  6  7  2  0
  6  8  1  0
  8  9  1  0
  9 10  1  0
 10 11  1  0
 11 12  2  0
 12 13  1  0
 14 13  1  1
 14 15  1  0
 15 16  2  0
 16 17  1  0
 17 18  1  0
 18 19  2  0
 18 20  1  0
 20 21  1  0
 21 22  1  0
 22 23  2  0
 23 24  1  0
 24 25  2  0
 25 26  1  0
 26 27  2  0
 27 28  1  0
 28 29  2  0
 29 30  1  0
 30 31  2  0
 16 32  1  0
 32 33  1  0
 33 34  1  1
 13 35  2  0
 35 36  1  0
 36 37  2  0
  5 38  1  0
 38 39  2  0
 39  2  1  0
 37  8  1  0
 37 11  1  0
 33 14  1  0
 30 21  1  0
 29 24  1  0
M  END
>  <Binding energies>  (47) 
[-10.51]

>  <Ligand effiencies>  (47) 
[-0.26275]

>  <Interactions>  (47) 
["V-B:GLU:543:CB:9877, V-A:HIS:456:CE1:4069, V-A:HIS:456:CD2:4067, V-A:HIS:456:CB:4064, V-B:ARG:545:CD:9894, V-B:GLU:543:CD:9879, V-B:HIS:456:CE1:9040, V-A:HIS:456:CG:4065, V-B:ARG:545:CG:9893, V-B:ARG:545:CZ:9897, V-A:GLU:543:CB:4905, V-B:GLU:543:CG:9878, V-A:PRO:540:C:4880, V-A:PRO:540:CA:4882, V-A:TYR:539:CD1:4872, V-A:PRO:540:N:4883, V-A:PRO:540:CB:4884, V-A:TYR:539:C:4866, H-A:ALA:541:N:4890, V-A:ALA:541:CB:4891, H-B:GLY:454:N:9020, H-B:ARG:545:NH2:9899, H-B:ARG:545:N:9891"]

$$$$
RR26_Rahimova_2017
     RDKit          3D

 38 44  0  0  0  0  0  0  0  0999 V2000
  123.0040  135.2090   55.7630 C   0  0  0  0  0  0  0  0  0  0  0  0
  122.6490  136.6630   56.0470 C   0  0  0  0  0  0  0  0  0  0  0  0
  121.8430  137.3400   55.1260 C   0  0  0  0  0  0  0  0  0  0  0  0
  121.4540  138.6580   55.3540 C   0  0  0  0  0  0  0  0  0  0  0  0
  121.8630  139.3100   56.5130 C   0  0  0  0  0  0  0  0  0  0  0  0
  122.6650  138.6460   57.4390 C   0  0  0  0  0  0  0  0  0  0  0  0
  123.0740  137.3220   57.2220 C   0  0  0  0  0  0  0  0  0  0  0  0
  123.9500  136.6850   58.2620 C   0  0  0  0  0  0  0  0  0  0  0  0
  123.8360  135.4040   58.6000 N   0  0  0  0  0  0  0  0  0  0  0  0
  124.7730  135.2780   59.5010 C   0  0  0  0  0  0  0  0  0  0  0  0
  125.3670  134.0010   60.4970 S   0  0  0  0  0  0  0  0  0  0  0  0
  126.5790  135.1410   61.1940 C   0  0  0  0  0  0  0  0  0  0  0  0
  127.5090  134.8830   62.1410 C   0  0  0  0  0  0  0  0  0  0  0  0
  127.7660  133.6270   62.8260 C   0  0  0  0  0  0  0  0  0  0  0  0
  127.1430  133.1250   63.9590 C   0  0  0  0  0  0  0  0  0  0  0  0
  127.6780  131.8900   64.2230 N   0  0  0  0  0  0  0  0  0  0  0  0
  127.3490  130.9980   65.2760 C   0  0  0  0  0  0  0  0  0  0  0  0
  128.2130  130.8280   66.3690 C   0  0  0  0  0  0  0  0  0  0  0  0
  127.8790  129.9470   67.3940 C   0  0  0  0  0  0  0  0  0  0  0  0
  126.6830  129.2370   67.3330 C   0  0  0  0  0  0  0  0  0  0  0  0
  125.8150  129.4000   66.2550 C   0  0  0  0  0  0  0  0  0  0  0  0
  126.1470  130.2770   65.2270 C   0  0  0  0  0  0  0  0  0  0  0  0
  128.5920  131.5710   63.2940 N   0  0  0  0  0  0  0  0  0  0  0  0
  128.6590  132.5930   62.4630 C   0  0  0  0  0  0  0  0  0  0  0  0
  129.6070  132.5520   61.3050 C   0  0  0  0  0  0  0  0  0  0  0  0
  130.9030  132.0380   61.4660 C   0  0  0  0  0  0  0  0  0  0  0  0
  131.7950  131.9990   60.3930 C   0  0  0  0  0  0  0  0  0  0  0  0
  131.3970  132.4770   59.1470 C   0  0  0  0  0  0  0  0  0  0  0  0
  130.0980  132.9760   58.9690 C   0  0  0  0  0  0  0  0  0  0  0  0
  129.2110  133.0190   60.0430 C   0  0  0  0  0  0  0  0  0  0  0  0
  129.6740  133.5000   57.7630 O   0  0  0  0  0  0  0  0  0  0  0  0
  130.4660  133.1010   56.6400 C   0  0  0  0  0  0  0  0  0  0  0  0
  131.9740  133.2010   56.9760 C   0  0  0  0  0  0  0  0  0  0  0  0
  132.2940  132.3760   58.1020 O   0  0  0  0  0  0  0  0  0  0  0  0
  126.4710  136.4820   60.6260 C   0  0  0  0  0  0  0  0  0  0  0  0
  127.1340  137.4890   60.8790 O   0  0  0  0  0  0  0  0  0  0  0  0
  125.4270  136.4380   59.6890 N   0  0  0  0  0  0  0  0  0  0  0  0
  124.9030  137.3640   58.8820 N   0  0  0  0  0  0  0  0  0  0  0  0
  1  2  1  0
  2  3  2  0
  3  4  1  0
  4  5  2  0
  5  6  1  0
  6  7  2  0
  7  8  1  0
  8  9  1  0
  9 10  2  0
 10 11  1  0
 11 12  1  0
 12 13  2  0
 13 14  1  0
 14 15  2  0
 15 16  1  0
 16 17  1  0
 17 18  2  0
 18 19  1  0
 19 20  2  0
 20 21  1  0
 21 22  2  0
 16 23  1  0
 23 24  2  0
 24 25  1  0
 25 26  2  0
 26 27  1  0
 27 28  2  0
 28 29  1  0
 29 30  2  0
 29 31  1  0
 31 32  1  0
 32 33  1  0
 33 34  1  0
 12 35  1  0
 35 36  2  0
 35 37  1  0
 37 38  1  0
  7  2  1  0
 38  8  2  0
 37 10  1  0
 24 14  1  0
 30 25  1  0
 22 17  1  0
 34 28  1  0
M  END
>  <Binding energies>  (48) 
[-11.56]

>  <Ligand effiencies>  (48) 
[-0.3042105263157895]

>  <Interactions>  (48) 
["V-B:LEU:475:CD1:9228, V-A:GLU:543:CD:4907, V-A:GLU:543:CG:4906, V-A:GLU:543:CB:4905, V-A:TYR:531:CE2:4792, V-A:LEU:363:CD1:3188, V-A:PRO:540:CA:4882, V-A:TYR:539:CD1:4872, V-A:PRO:540:CD:4886, V-A:PRO:540:N:4883, V-A:PRO:540:CB:4884, V-A:TYR:539:C:4866, V-A:TYR:539:CE1:4874, H-A:TYR:539:N:4869, V-A:ALA:541:CB:4891, V-B:TYR:484:CZ:9317, V-B:ILE:369:CG2:8207, V-A:TYR:539:CZ:4876, V-B:TYR:484:CE2:9316, V-B:SER:385:CB:8379, V-B:ASN:370:CA:8213, V-B:ILE:369:C:8202, V-A:TYR:539:CE2:4875, V-A:TYR:539:CG:4871, V-A:TYR:539:CB:4870, H-B:SER:385:OG:8380, H-B:HIS:383:NE2:8364, V-B:LEU:373:CD1:8250, V-B:HIS:383:CB:8359, V-B:HIS:383:CD2:8362, V-B:LEU:373:CD2:8251, V-B:LEU:373:CG:8249, V-B:HIS:383:CG:8360, V-B:ASN:372:CB:8237, V-B:VAL:384:C:8367, V-B:ASN:372:C:8233"]

$$$$
RR2_Rahimova_2017
     RDKit          3D

 46 50  0  0  0  0  0  0  0  0999 V2000
  130.3020  127.0030   67.4680 C   0  0  0  0  0  0  0  0  0  0  0  0
  129.5150  128.0520   68.0200 O   0  0  0  0  0  0  0  0  0  0  0  0
  128.3160  128.3850   67.4170 C   0  0  0  0  0  0  0  0  0  0  0  0
  127.0560  128.1820   67.9960 C   0  0  0  0  0  0  0  0  0  0  0  0
  125.9010  128.5470   67.3110 C   0  0  0  0  0  0  0  0  0  0  0  0
  125.9760  129.1190   66.0340 C   0  0  0  0  0  0  0  0  0  0  0  0
  124.7020  129.5010   65.3060 C   0  0  0  0  0  0  0  0  0  0  0  0
  123.6540  129.6800   65.9360 O   0  0  0  0  0  0  0  0  0  0  0  0
  124.8010  129.6100   63.9600 N   0  0  0  0  0  0  0  0  0  0  0  0
  123.6420  129.8660   63.2360 N   0  0  0  0  0  0  0  0  0  0  0  0
  123.2160  131.1420   63.1450 C   0  0  0  0  0  0  0  0  0  0  0  0
  123.6690  132.0850   63.8010 O   0  0  0  0  0  0  0  0  0  0  0  0
  122.1000  131.3960   62.1220 C   0  0  0  0  0  0  0  0  0  0  0  0
  122.6260  131.3290   60.3700 S   0  0  0  0  0  0  0  0  0  0  0  0
  124.1980  130.5390   60.5320 C   0  0  0  0  0  0  0  0  0  0  0  0
  124.3440  129.2380   60.5530 N   0  0  0  0  0  0  0  0  0  0  0  0
  125.6900  128.9730   60.7640 N   0  0  0  0  0  0  0  0  0  0  0  0
  126.3130  130.1250   60.8320 C   0  0  0  0  0  0  0  0  0  0  0  0
  127.7880  130.2510   61.0370 C   0  0  0  0  0  0  0  0  0  0  0  0
  128.6670  129.8170   60.0410 C   0  0  0  0  0  0  0  0  0  0  0  0
  130.0420  129.9230   60.2250 C   0  0  0  0  0  0  0  0  0  0  0  0
  130.5520  130.4810   61.4030 C   0  0  0  0  0  0  0  0  0  0  0  0
  131.9280  130.6030   61.6480 N   0  0  0  0  0  0  0  0  0  0  0  0
  132.9850  131.8190   60.8980 S   0  0  0  0  0  0  0  0  0  0  0  0
  134.2250  131.1150   60.5470 O   0  0  0  0  0  0  0  0  0  0  0  0
  133.0110  133.0000   61.7690 O   0  0  0  0  0  0  0  0  0  0  0  0
  132.1830  132.2500   59.3550 C   0  0  0  0  0  0  0  0  0  0  0  0
  132.8580  132.1150   58.1400 C   0  0  0  0  0  0  0  0  0  0  0  0
  132.2230  132.4700   56.9540 C   0  0  0  0  0  0  0  0  0  0  0  0
  130.9130  132.9540   56.9820 C   0  0  0  0  0  0  0  0  0  0  0  0
  130.2260  133.3550   55.6880 C   0  0  0  0  0  0  0  0  0  0  0  0
  130.2420  133.0920   58.1990 C   0  0  0  0  0  0  0  0  0  0  0  0
  130.8760  132.7390   59.3860 C   0  0  0  0  0  0  0  0  0  0  0  0
  129.6730  130.9160   62.3960 C   0  0  0  0  0  0  0  0  0  0  0  0
  128.2980  130.8050   62.2150 C   0  0  0  0  0  0  0  0  0  0  0  0
  125.4160  131.1720   60.6960 N   0  0  0  0  0  0  0  0  0  0  0  0
  125.6710  132.5580   60.7550 C   0  0  0  0  0  0  0  0  0  0  0  0
  126.5820  133.0600   61.6850 C   0  0  0  0  0  0  0  0  0  0  0  0
  126.8330  134.4280   61.7350 C   0  0  0  0  0  0  0  0  0  0  0  0
  126.1800  135.3020   60.8650 C   0  0  0  0  0  0  0  0  0  0  0  0
  126.4930  136.6420   60.9910 O   0  0  0  0  0  0  0  0  0  0  0  0
  127.5020  137.0360   61.9150 C   0  0  0  0  0  0  0  0  0  0  0  0
  125.2650  134.7880   59.9310 C   0  0  0  0  0  0  0  0  0  0  0  0
  125.0120  133.4210   59.8760 C   0  0  0  0  0  0  0  0  0  0  0  0
  127.2410  129.3250   65.4630 C   0  0  0  0  0  0  0  0  0  0  0  0
  128.3960  128.9610   66.1510 C   0  0  0  0  0  0  0  0  0  0  0  0
  1  2  1  0
  2  3  1  0
  3  4  2  0
  4  5  1  0
  5  6  2  0
  6  7  1  0
  7  8  2  0
  7  9  1  0
  9 10  1  0
 10 11  1  0
 11 12  2  0
 11 13  1  0
 13 14  1  0
 14 15  1  0
 15 16  2  0
 16 17  1  0
 17 18  2  0
 18 19  1  0
 19 20  2  0
 20 21  1  0
 21 22  2  0
 22 23  1  0
 23 24  1  0
 24 25  2  0
 24 26  2  0
 24 27  1  0
 27 28  2  0
 28 29  1  0
 29 30  2  0
 30 31  1  0
 30 32  1  0
 32 33  2  0
 22 34  1  0
 34 35  2  0
 18 36  1  0
 36 37  1  0
 37 38  2  0
 38 39  1  0
 39 40  2  0
 40 41  1  0
 41 42  1  0
 40 43  1  0
 43 44  2  0
  6 45  1  0
 45 46  2  0
 46  3  1  0
 36 15  1  0
 44 37  1  0
 35 19  1  0
 33 27  1  0
M  END
>  <Binding energies>  (49) 
[-10.44]

>  <Ligand effiencies>  (49) 
[-0.21306122448979592]

>  <Interactions>  (49) 
["V-A:HIS:456:CE1:4069, V-B:GLU:543:CD:9879, V-B:HIS:456:CE1:9040, V-B:ARG:545:CG:9893, V-B:ASP:366:CG:8183, V-B:GLY:453:C:9012, V-B:ARG:545:CZ:9897, V-B:GLY:454:CA:9019, V-A:GLU:543:CD:4907, V-A:GLU:543:CG:4906, H-B:TYR:484:OH:9318, V-A:ASN:362:C:3171, V-A:TYR:531:CE2:4792, V-A:LEU:363:CA:3184, V-A:LEU:363:CD1:3188, V-A:PRO:540:CA:4882, V-A:TYR:531:CZ:4793, V-A:TYR:539:CD1:4872, V-A:ASN:362:CB:3175, V-A:PRO:540:N:4883, V-A:PRO:540:CB:4884, V-A:TYR:539:C:4866, V-A:TYR:539:CE1:4874, V-A:ILE:538:CB:4861, V-A:ILE:538:CA:4859, H-B:ASP:366:OD2:8185, H-B:ASP:366:OD1:8184, H-A:ALA:541:N:4890, V-B:GLY:453:CA:9014, H-B:GLY:454:N:9020, V-B:ILE:369:CG1:8208, V-B:ILE:369:CG2:8207, H-A:GLU:543:OE2:4909, H-A:ASP:366:OD2:3214, H-A:LEU:363:N:3185, H-B:ARG:545:NE:9895, H-B:SER:385:OG:8380, H-B:HIS:383:NE2:8364, V-B:PRO:482:CB:9296, V-B:PRO:482:CG:9297"]

$$$$
RR33_Rahimova_2017
     RDKit          3D

 18 19  0  0  0  0  0  0  0  0999 V2000
  132.7310  118.0210   59.1190 C   0  0  0  0  0  0  0  0  0  0  0  0
  132.8700  118.7180   60.4750 C   0  0  0  0  0  0  0  0  0  0  0  0
  133.6630  119.8900   60.3080 O   0  0  0  0  0  0  0  0  0  0  0  0
  133.4280  120.9880   61.1130 C   0  0  0  0  0  0  0  0  0  0  0  0
  133.4770  120.7710   62.4900 C   0  0  0  0  0  0  0  0  0  0  0  0
  133.2500  121.8170   63.3800 C   0  0  0  0  0  0  0  0  0  0  0  0
  132.9690  123.1010   62.9040 C   0  0  0  0  0  0  0  0  0  0  0  0
  132.7240  124.2230   63.8610 C   0  0  0  0  0  0  0  0  0  0  0  0
  133.4450  124.5560   64.9080 N   0  0  0  0  0  0  0  0  0  0  0  0
  132.8340  125.6070   65.4340 C   0  0  0  0  0  0  0  0  0  0  0  0
  133.3840  126.2900   66.6680 C   0  0  0  0  0  0  0  0  0  0  0  0
  134.3490  125.4340   67.3410 N   0  0  0  0  0  0  0  0  0  0  0  0
  135.7060  125.8700   67.0570 C   0  0  0  0  0  0  0  0  0  0  0  0
  131.7080  125.9170   64.6810 C   0  0  0  0  0  0  0  0  0  0  0  0
  130.6280  126.9690   64.7480 C   0  0  0  0  0  0  0  0  0  0  0  0
  131.6420  125.0220   63.6680 O   0  0  0  0  0  0  0  0  0  0  0  0
  132.9220  123.3240   61.5240 C   0  0  0  0  0  0  0  0  0  0  0  0
  133.1490  122.2770   60.6330 C   0  0  0  0  0  0  0  0  0  0  0  0
  1  2  1  0
  2  3  1  0
  3  4  1  0
  4  5  2  0
  5  6  1  0
  6  7  2  0
  7  8  1  0
  8  9  2  0
  9 10  1  0
 10 11  1  0
 11 12  1  0
 12 13  1  0
 10 14  2  0
 14 15  1  0
 14 16  1  0
  7 17  1  0
 17 18  2  0
 18  4  1  0
 16  8  1  0
M  END
>  <Binding energies>  (50) 
[-5.3]

>  <Ligand effiencies>  (50) 
[-0.2789473684210526]

>  <Interactions>  (50) 
["V-A:ARG:545:CZ:4925, V-A:ARG:545:CD:4922, V-B:TYR:539:CD2:9845, V-A:ARG:545:CG:4921, V-B:TYR:539:CE2:9847, V-A:LEU:475:CD2:4258, V-A:SER:385:CB:3408, V-A:ILE:369:CG2:3236, V-B:TYR:539:CB:9842, V-B:TYR:539:CG:9843, V-A:ILE:369:CD1:3238, V-A:GLU:543:CD:4907, V-A:GLY:454:CA:4048, V-A:SER:385:CA:3406, H-A:TYR:484:OH:4347, H-A:GLY:454:N:4049, V-A:GLY:453:C:4041, V-A:LEU:373:CG:3278, V-A:LEU:373:CD2:3280, V-A:SER:385:C:3404, V-A:ARG:545:CB:4920, V-A:ILE:455:C:4051, V-A:GLY:453:CA:4043, H-A:ILE:455:O:4052, V-A:LEU:373:CD1:3279, H-A:ILE:455:N:4054"]

$$$$
RR3_Rahimova_2017
     RDKit          3D

 38 44  0  0  0  0  0  0  0  0999 V2000
  131.5600  133.7380   55.8930 C   0  0  0  0  0  0  0  0  0  0  0  0
  132.3720  133.3540   56.9540 C   0  0  0  0  0  0  0  0  0  0  0  0
  131.8360  132.6070   57.9980 C   0  0  0  0  0  0  0  0  0  0  0  0
  130.4840  132.2330   57.9950 C   0  0  0  0  0  0  0  0  0  0  0  0
  129.9080  131.4280   59.1190 C   0  0  0  0  0  0  0  0  0  0  0  0
  128.5220  131.3490   59.3120 C   0  0  0  0  0  0  0  0  0  0  0  0
  127.9880  130.6030   60.3590 C   0  0  0  0  0  0  0  0  0  0  0  0
  128.8300  129.9240   61.2430 C   0  0  0  0  0  0  0  0  0  0  0  0
  128.2620  129.1240   62.3740 C   0  0  0  0  0  0  0  0  0  0  0  0
  128.3380  129.5850   63.6180 N   0  0  0  0  0  0  0  0  0  0  0  0
  127.7280  128.7100   64.3800 C   0  0  0  0  0  0  0  0  0  0  0  0
  127.5730  128.8170   65.8280 C   0  0  0  0  0  0  0  0  0  0  0  0
  126.4890  129.3690   66.4880 C   0  0  0  0  0  0  0  0  0  0  0  0
  126.6740  129.2960   67.8440 N   0  0  0  0  0  0  0  0  0  0  0  0
  127.8830  128.6990   68.1210 C   0  0  0  0  0  0  0  0  0  0  0  0
  128.5010  128.4100   69.3430 C   0  0  0  0  0  0  0  0  0  0  0  0
  129.7490  127.7900   69.2900 C   0  0  0  0  0  0  0  0  0  0  0  0
  130.3590  127.4700   68.0820 C   0  0  0  0  0  0  0  0  0  0  0  0
  129.7440  127.7570   66.8650 C   0  0  0  0  0  0  0  0  0  0  0  0
  128.4840  128.3830   66.8620 C   0  0  0  0  0  0  0  0  0  0  0  0
  127.2520  127.6640   63.6380 N   0  0  0  0  0  0  0  0  0  0  0  0
  127.6000  127.8850   62.3310 C   0  0  0  0  0  0  0  0  0  0  0  0
  127.2970  126.9160   61.2360 C   0  0  0  0  0  0  0  0  0  0  0  0
  126.5640  125.7600   61.5070 C   0  0  0  0  0  0  0  0  0  0  0  0
  126.2920  124.8480   60.4920 C   0  0  0  0  0  0  0  0  0  0  0  0
  126.7400  125.0710   59.1820 C   0  0  0  0  0  0  0  0  0  0  0  0
  126.4620  124.0790   58.0980 C   0  0  0  0  0  0  0  0  0  0  0  0
  125.1460  123.7970   57.7010 C   0  0  0  0  0  0  0  0  0  0  0  0
  124.8870  122.8770   56.6880 C   0  0  0  0  0  0  0  0  0  0  0  0
  125.9450  122.2270   56.0590 C   0  0  0  0  0  0  0  0  0  0  0  0
  127.2570  122.4920   56.4360 C   0  0  0  0  0  0  0  0  0  0  0  0
  127.5120  123.4120   57.4490 C   0  0  0  0  0  0  0  0  0  0  0  0
  127.4600  126.2450   58.9200 C   0  0  0  0  0  0  0  0  0  0  0  0
  127.7350  127.1600   59.9320 C   0  0  0  0  0  0  0  0  0  0  0  0
  130.2110  129.9850   61.0510 C   0  0  0  0  0  0  0  0  0  0  0  0
  130.7430  130.7320   60.0030 C   0  0  0  0  0  0  0  0  0  0  0  0
  129.6830  132.6320   56.9150 C   0  0  0  0  0  0  0  0  0  0  0  0
  130.2160  133.3800   55.8690 C   0  0  0  0  0  0  0  0  0  0  0  0
  1  2  2  0
  2  3  1  0
  3  4  2  0
  4  5  1  0
  5  6  2  0
  6  7  1  0
  7  8  2  0
  8  9  1  0
  9 10  1  0
 10 11  2  0
 11 12  1  0
 12 13  2  0
 13 14  1  0
 14 15  1  0
 15 16  2  0
 16 17  1  0
 17 18  2  0
 18 19  1  0
 19 20  2  0
 11 21  1  0
 21 22  1  0
 22 23  1  0
 23 24  2  0
 24 25  1  0
 25 26  2  0
 26 27  1  0
 27 28  2  0
 28 29  1  0
 29 30  2  0
 30 31  1  0
 31 32  2  0
 26 33  1  0
 33 34  2  0
  8 35  1  0
 35 36  2  0
  4 37  1  0
 37 38  2  0
 38  1  1  0
 36  5  1  0
 22  9  2  0
 34 23  1  0
 20 12  1  0
 32 27  1  0
 20 15  1  0
M  END
>  <Binding energies>  (51) 
[-10.6]

>  <Ligand effiencies>  (51) 
[-0.265]

>  <Interactions>  (51) 
["V-A:HIS:456:CE1:4069, V-B:GLU:543:CD:9879, V-B:HIS:456:CE1:9040, V-B:PRO:540:N:9855, V-B:PRO:540:CB:9856, V-B:TYR:539:C:9838, V-B:MET:535:CE:9806, V-B:TYR:531:CE2:9764, V-B:LEU:363:CD1:8159, V-B:TYR:539:CE1:9846, H-B:GLU:543:OE2:9881, V-B:TYR:539:CD1:9844, V-B:ILE:538:CD1:9836, V-B:TYR:539:CG:9843, V-B:ILE:538:CG2:9834, V-B:ILE:538:CA:9831, V-A:GLU:543:CD:4907, H-B:GLU:543:OE1:9880, H-B:TYR:484:OH:9318, V-A:TYR:531:CE2:4792, V-A:LEU:363:CD1:3188, V-A:PRO:540:CA:4882, V-A:TYR:539:CD1:4872, V-A:PRO:540:CD:4886, V-A:ILE:538:CG2:4862, V-A:PRO:540:N:4883, V-A:PRO:540:CB:4884, V-A:TYR:539:CE1:4874, V-A:ILE:538:CB:4861, V-A:ILE:538:CA:4859, V-B:PRO:540:CD:9858, V-B:ILE:538:C:9829, V-B:TYR:484:CZ:9317, V-B:TYR:484:CE2:9316, V-A:ILE:538:C:4857"]

$$$$
RR4_Rahimova_2017
     RDKit          3D

 40 44  0  0  0  0  0  0  0  0999 V2000
  128.7720  128.9460   75.9260 C   0  0  0  0  0  0  0  0  0  0  0  0
  129.9230  128.7660   75.1080 O   0  0  0  0  0  0  0  0  0  0  0  0
  129.7630  128.6110   73.7440 C   0  0  0  0  0  0  0  0  0  0  0  0
  130.5940  129.3730   72.9260 C   0  0  0  0  0  0  0  0  0  0  0  0
  130.5050  129.2810   71.5410 C   0  0  0  0  0  0  0  0  0  0  0  0
  129.5770  128.4240   70.9300 C   0  0  0  0  0  0  0  0  0  0  0  0
  129.4820  128.3280   69.4350 C   0  0  0  0  0  0  0  0  0  0  0  0
  128.6510  129.1560   68.6730 C   0  0  0  0  0  0  0  0  0  0  0  0
  128.6010  129.0300   67.2790 C   0  0  0  0  0  0  0  0  0  0  0  0
  127.7120  129.9680   66.5300 C   0  0  0  0  0  0  0  0  0  0  0  0
  126.4390  129.5550   66.1240 C   0  0  0  0  0  0  0  0  0  0  0  0
  125.5990  130.4270   65.4360 C   0  0  0  0  0  0  0  0  0  0  0  0
  126.0110  131.7270   65.1460 C   0  0  0  0  0  0  0  0  0  0  0  0
  125.1120  132.5210   64.4600 O   0  0  0  0  0  0  0  0  0  0  0  0
  124.2970  131.9340   63.4510 C   0  0  0  0  0  0  0  0  0  0  0  0
  127.2860  132.1470   65.5560 C   0  0  0  0  0  0  0  0  0  0  0  0
  128.1230  131.2740   66.2450 C   0  0  0  0  0  0  0  0  0  0  0  0
  129.3890  128.0260   66.6630 C   0  0  0  0  0  0  0  0  0  0  0  0
  129.3750  127.8520   65.2080 C   0  0  0  0  0  0  0  0  0  0  0  0
  129.3630  127.7140   64.0590 N   0  0  0  0  0  0  0  0  0  0  0  0
  130.1830  127.2050   67.4960 C   0  0  0  0  0  0  0  0  0  0  0  0
  131.2230  125.8900   66.8980 S   0  0  0  0  0  0  0  0  0  0  0  0
  132.0080  126.4590   65.3530 C   0  0  0  0  0  0  0  0  0  0  0  0
  132.6520  125.3450   64.5180 C   0  0  0  0  0  0  0  0  0  0  0  0
  133.8710  125.3300   64.3270 O   0  0  0  0  0  0  0  0  0  0  0  0
  131.7830  124.4340   64.0220 N   0  0  0  0  0  0  0  0  0  0  0  0
  132.0550  123.3120   63.2350 C   0  0  0  0  0  0  0  0  0  0  0  0
  133.6610  122.8950   62.7000 S   0  0  0  0  0  0  0  0  0  0  0  0
  133.0780  121.4940   61.8560 C   0  0  0  0  0  0  0  0  0  0  0  0
  131.6860  121.3590   61.9820 C   0  0  0  0  0  0  0  0  0  0  0  0
  131.1110  122.3800   62.7760 C   0  0  0  0  0  0  0  0  0  0  0  0
  129.6850  122.4580   63.0770 C   0  0  0  0  0  0  0  0  0  0  0  0
  128.5540  122.5190   63.3150 N   0  0  0  0  0  0  0  0  0  0  0  0
  130.9360  120.1770   61.3570 C   0  0  0  0  0  0  0  0  0  0  0  0
  131.9180  119.0470   60.9750 C   0  0  0  0  0  0  0  0  0  0  0  0
  133.1620  119.5820   60.2440 C   0  0  0  0  0  0  0  0  0  0  0  0
  134.0020  120.5180   61.1400 C   0  0  0  0  0  0  0  0  0  0  0  0
  130.2370  127.3700   68.8380 N   0  0  0  0  0  0  0  0  0  0  0  0
  128.7460  127.6570   71.7630 C   0  0  0  0  0  0  0  0  0  0  0  0
  128.8330  127.7470   73.1490 C   0  0  0  0  0  0  0  0  0  0  0  0
  1  2  1  0
  2  3  1  0
  3  4  2  0
  4  5  1  0
  5  6  2  0
  6  7  1  0
  7  8  2  0
  8  9  1  0
  9 10  1  0
 10 11  2  0
 11 12  1  0
 12 13  2  0
 13 14  1  0
 14 15  1  0
 13 16  1  0
 16 17  2  0
  9 18  2  0
 18 19  1  0
 19 20  3  0
 18 21  1  0
 21 22  1  0
 22 23  1  0
 23 24  1  0
 24 25  2  0
 24 26  1  0
 26 27  1  0
 27 28  1  0
 28 29  1  0
 29 30  2  0
 30 31  1  0
 31 32  1  0
 32 33  3  0
 30 34  1  0
 34 35  1  0
 35 36  1  0
 36 37  1  0
 21 38  2  0
  6 39  1  0
 39 40  2  0
 40  3  1  0
 38  7  1  0
 17 10  1  0
 31 27  2  0
 37 29  1  0
M  END
>  <Binding energies>  (52) 
[-10.21]

>  <Ligand effiencies>  (52) 
[-0.24902439024390247]

>  <Interactions>  (52) 
["V-A:HIS:456:CE1:4069, V-B:GLU:543:CD:9879, V-B:HIS:456:CE1:9040, V-A:ARG:545:CZ:4925, V-B:TYR:539:CD2:9845, V-B:TYR:539:CE2:9847, V-B:LEU:475:CD1:9228, V-A:GLY:544:CA:4913, V-A:GLY:544:C:4911, V-B:GLY:454:CA:9019, V-A:LEU:475:CD2:4258, V-B:ALA:541:CB:9863, V-A:SER:385:CB:3408, H-B:GLU:543:OE2:9881, V-A:ILE:369:CG2:3236, V-A:ILE:369:CD1:3238, V-A:GLU:543:CD:4907, V-A:GLU:543:CG:4906, V-A:GLY:454:CA:4048, V-A:SER:385:CA:3406, V-A:GLU:543:CB:4905, H-A:TYR:484:OH:4347, H-A:GLY:454:N:4049, H-B:ALA:541:N:9862, V-B:TYR:484:CZ:9317, H-A:ARG:545:NH2:4927, V-A:GLU:543:C:4901, V-B:TYR:484:CE2:9316, H-A:ARG:545:NH1:4926, V-A:SER:385:C:3404, H-A:LYS:547:NZ:4950, V-B:HIS:456:CD2:9038"]

$$$$
RR6_Rahimova_2017
     RDKit          3D

 38 41  0  0  0  0  0  0  0  0999 V2000
  130.0380  133.2810   55.0690 C   0  0  0  0  0  0  0  0  0  0  0  0
  130.6140  133.7840   56.2660 O   0  0  0  0  0  0  0  0  0  0  0  0
  131.6520  133.1460   56.8640 C   0  0  0  0  0  0  0  0  0  0  0  0
  132.7310  132.9290   56.3030 O   0  0  0  0  0  0  0  0  0  0  0  0
  131.3590  132.7300   58.2760 C   0  0  0  0  0  0  0  0  0  0  0  0
  132.3110  132.0720   59.0700 C   0  0  0  0  0  0  0  0  0  0  0  0
  132.0050  131.6920   60.3760 C   0  0  0  0  0  0  0  0  0  0  0  0
  130.7360  131.9610   60.9080 C   0  0  0  0  0  0  0  0  0  0  0  0
  130.3140  131.5970   62.2000 N   0  0  0  0  0  0  0  0  0  0  0  0
  129.0600  131.4320   62.6770 C   0  0  0  0  0  0  0  0  0  0  0  0
  128.0250  131.5700   62.0250 O   0  0  0  0  0  0  0  0  0  0  0  0
  128.9580  131.1070   64.1710 C   0  0  0  0  0  0  0  0  0  0  0  0
  127.9310  129.6440   64.5340 S   0  0  0  0  0  0  0  0  0  0  0  0
  128.9880  128.4640   65.3480 C   0  0  0  0  0  0  0  0  0  0  0  0
  128.9520  128.5240   66.7010 N   0  0  0  0  0  0  0  0  0  0  0  0
  129.6930  127.6540   67.4330 C   0  0  0  0  0  0  0  0  0  0  0  0
  129.5490  127.7460   68.9240 C   0  0  0  0  0  0  0  0  0  0  0  0
  130.0690  128.8400   69.6340 C   0  0  0  0  0  0  0  0  0  0  0  0
  129.9470  128.9180   71.0190 C   0  0  0  0  0  0  0  0  0  0  0  0
  129.2970  127.9040   71.7210 C   0  0  0  0  0  0  0  0  0  0  0  0
  129.1740  127.9890   73.2310 C   0  0  0  0  0  0  0  0  0  0  0  0
  128.7720  126.8110   71.0340 C   0  0  0  0  0  0  0  0  0  0  0  0
  128.8960  126.7380   69.6510 C   0  0  0  0  0  0  0  0  0  0  0  0
  130.5060  126.7040   66.8070 C   0  0  0  0  0  0  0  0  0  0  0  0
  130.5640  126.6260   65.4080 C   0  0  0  0  0  0  0  0  0  0  0  0
  131.4380  125.5760   64.8060 C   0  0  0  0  0  0  0  0  0  0  0  0
  132.6950  125.9150   64.2960 C   0  0  0  0  0  0  0  0  0  0  0  0
  133.5240  124.9390   63.7470 C   0  0  0  0  0  0  0  0  0  0  0  0
  133.1150  123.6070   63.7020 C   0  0  0  0  0  0  0  0  0  0  0  0
  134.0020  122.7090   63.1420 O   0  0  0  0  0  0  0  0  0  0  0  0
  133.5640  121.8750   62.0740 C   0  0  0  0  0  0  0  0  0  0  0  0
  131.8560  123.2610   64.2170 C   0  0  0  0  0  0  0  0  0  0  0  0
  131.0310  124.2390   64.7660 C   0  0  0  0  0  0  0  0  0  0  0  0
  129.7870  127.5360   64.6500 C   0  0  0  0  0  0  0  0  0  0  0  0
  129.8230  127.5280   63.1840 C   0  0  0  0  0  0  0  0  0  0  0  0
  129.8510  127.5200   62.0280 N   0  0  0  0  0  0  0  0  0  0  0  0
  129.7930  132.6300   60.1270 C   0  0  0  0  0  0  0  0  0  0  0  0
  130.0990  133.0070   58.8220 C   0  0  0  0  0  0  0  0  0  0  0  0
  1  2  1  0
  2  3  1  0
  3  4  2  0
  3  5  1  0
  5  6  2  0
  6  7  1  0
  7  8  2  0
  8  9  1  0
  9 10  1  0
 10 11  2  0
 10 12  1  0
 12 13  1  0
 13 14  1  0
 14 15  2  0
 15 16  1  0
 16 17  1  0
 17 18  2  0
 18 19  1  0
 19 20  2  0
 20 21  1  0
 20 22  1  0
 22 23  2  0
 16 24  2  0
 24 25  1  0
 25 26  1  0
 26 27  2  0
 27 28  1  0
 28 29  2  0
 29 30  1  0
 30 31  1  0
 29 32  1  0
 32 33  2  0
 25 34  2  0
 34 35  1  0
 35 36  3  0
  8 37  1  0
 37 38  2  0
 38  5  1  0
 34 14  1  0
 23 17  1  0
 33 26  1  0
M  END
>  <Binding energies>  (53) 
[-9.47]

>  <Ligand effiencies>  (53) 
[-0.24282051282051284]

>  <Interactions>  (53) 
["V-B:GLU:543:CB:9877, V-A:HIS:456:CE1:4069, V-B:HIS:456:CE1:9040, V-A:ARG:545:CZ:4925, V-A:ILE:369:CD1:3238, V-A:GLU:543:CD:4907, V-A:GLU:543:CG:4906, V-A:GLY:454:CA:4048, V-A:GLU:543:CB:4905, H-A:GLY:454:N:4049, H-A:TYR:531:OH:4794, V-A:LEU:363:CD1:3188, V-A:PRO:540:CA:4882, V-A:PRO:540:CD:4886, V-A:ILE:538:CG2:4862, V-A:PRO:540:N:4883, V-A:PRO:540:CB:4884, V-A:TYR:539:C:4866, H-A:TYR:539:N:4869, V-A:ILE:538:CB:4861, V-A:ILE:538:CA:4859, H-A:GLU:543:OE2:4909, V-A:GLU:543:C:4901"]

$$$$
RR7_Rahimova_2017
     RDKit          3D

 47 53  0  0  0  0  0  0  0  0999 V2000
  132.4320  124.4650   59.2600 C   0  0  0  0  0  0  0  0  0  0  0  0
  131.4590  124.8410   58.2910 O   0  0  0  0  0  0  0  0  0  0  0  0
  130.9690  126.1330   58.2960 C   0  0  0  0  0  0  0  0  0  0  0  0
  130.8720  126.7570   59.5380 C   0  0  0  0  0  0  0  0  0  0  0  0
  130.3950  128.0600   59.6430 C   0  0  0  0  0  0  0  0  0  0  0  0
  129.9890  128.7680   58.5020 C   0  0  0  0  0  0  0  0  0  0  0  0
  129.4810  130.2410   58.5850 C   0  0  0  0  0  0  0  0  0  0  0  0
  128.0410  130.1700   58.6830 O   0  0  0  0  0  0  0  0  0  0  0  0
  127.4150  128.9860   59.1890 C   0  0  0  0  0  0  0  0  0  0  0  0
  126.7050  128.2620   58.0330 C   0  0  1  0  0  0  0  0  0  0  0  0
  127.4000  127.0350   57.8260 O   0  0  0  0  0  0  0  0  0  0  0  0
  126.5610  125.9270   57.9790 C   0  0  1  0  0  0  0  0  0  0  0  0
  127.3060  124.8090   58.5270 N   0  0  0  0  0  0  0  0  0  0  0  0
  128.1230  123.9180   57.8540 C   0  0  0  0  0  0  0  0  0  0  0  0
  128.6420  122.9660   58.5900 N   0  0  0  0  0  0  0  0  0  0  0  0
  128.1140  123.1900   59.8330 C   0  0  0  0  0  0  0  0  0  0  0  0
  128.2650  122.5120   61.0580 C   0  0  0  0  0  0  0  0  0  0  0  0
  129.1110  121.3880   61.1070 N   0  0  0  0  0  0  0  0  0  0  0  0
  130.4630  121.3400   61.1740 C   0  0  0  0  0  0  0  0  0  0  0  0
  131.1930  122.3340   61.1850 O   0  0  0  0  0  0  0  0  0  0  0  0
  131.0690  119.9530   61.2050 C   0  0  0  0  0  0  0  0  0  0  0  0
  130.3200  118.8800   61.7110 C   0  0  0  0  0  0  0  0  0  0  0  0
  130.8550  117.5960   61.7440 C   0  0  0  0  0  0  0  0  0  0  0  0
  132.1430  117.3730   61.2670 C   0  0  0  0  0  0  0  0  0  0  0  0
  132.9010  118.4230   60.7570 C   0  0  0  0  0  0  0  0  0  0  0  0
  132.3670  119.7090   60.7250 C   0  0  0  0  0  0  0  0  0  0  0  0
  127.5870  122.9600   62.1570 N   0  0  0  0  0  0  0  0  0  0  0  0
  126.7910  124.0500   62.0100 C   0  0  0  0  0  0  0  0  0  0  0  0
  126.5760  124.7790   60.8820 N   0  0  0  0  0  0  0  0  0  0  0  0
  127.2580  124.3210   59.8230 C   0  0  0  0  0  0  0  0  0  0  0  0
  125.4050  126.4150   58.8440 C   0  0  0  0  0  0  0  0  0  0  0  0
  125.2590  127.8350   58.3250 C   0  0  2  0  0  0  0  0  0  0  0  0
  124.4340  127.8980   57.1740 O   0  0  0  0  0  0  0  0  0  0  0  0
  129.9860  130.9690   59.8600 C   0  0  0  0  0  0  0  0  0  0  0  0
  131.3310  130.8630   60.2500 C   0  0  0  0  0  0  0  0  0  0  0  0
  131.7910  131.4990   61.3980 C   0  0  0  0  0  0  0  0  0  0  0  0
  130.9100  132.2500   62.1700 C   0  0  0  0  0  0  0  0  0  0  0  0
  129.5730  132.3690   61.8030 C   0  0  0  0  0  0  0  0  0  0  0  0
  129.1130  131.7310   60.6540 C   0  0  0  0  0  0  0  0  0  0  0  0
  129.8750  131.1620   57.3950 C   0  0  0  0  0  0  0  0  0  0  0  0
  129.0680  131.2250   56.2490 C   0  0  0  0  0  0  0  0  0  0  0  0
  129.4170  132.0380   55.1750 C   0  0  0  0  0  0  0  0  0  0  0  0
  130.5860  132.7910   55.2320 C   0  0  0  0  0  0  0  0  0  0  0  0
  131.4080  132.7340   56.3530 C   0  0  0  0  0  0  0  0  0  0  0  0
  131.0570  131.9200   57.4260 C   0  0  0  0  0  0  0  0  0  0  0  0
  130.1020  128.1400   57.2530 C   0  0  0  0  0  0  0  0  0  0  0  0
  130.5800  126.8370   57.1480 C   0  0  0  0  0  0  0  0  0  0  0  0
  1  2  1  0
  2  3  1  0
  3  4  2  0
  4  5  1  0
  5  6  2  0
  6  7  1  0
  7  8  1  0
  8  9  1  0
 10  9  1  1
 10 11  1  0
 11 12  1  0
 12 13  1  1
 13 14  1  0
 14 15  2  0
 15 16  1  0
 16 17  2  0
 17 18  1  0
 18 19  1  0
 19 20  2  0
 19 21  1  0
 21 22  2  0
 22 23  1  0
 23 24  2  0
 24 25  1  0
 25 26  2  0
 17 27  1  0
 27 28  2  0
 28 29  1  0
 29 30  2  0
 12 31  1  0
 31 32  1  0
 32 33  1  6
  7 34  1  0
 34 35  2  0
 35 36  1  0
 36 37  2  0
 37 38  1  0
 38 39  2  0
  7 40  1  0
 40 41  2  0
 41 42  1  0
 42 43  2  0
 43 44  1  0
 44 45  2  0
  6 46  1  0
 46 47  2  0
 47  3  1  0
 32 10  1  0
 39 34  1  0
 45 40  1  0
 30 13  1  0
 30 16  1  0
 26 21  1  0
M  END
>  <Binding energies>  (54) 
[-10.59]

>  <Ligand effiencies>  (54) 
[-0.21612244897959185]

>  <Interactions>  (54) 
["V-B:ASP:366:CG:8183, V-B:ASP:366:CB:8182, H-B:TYR:531:OH:9766, V-B:TYR:539:CD2:9845, V-B:TYR:539:C:9838, V-B:MET:535:CE:9806, V-B:PRO:540:CA:9854, V-B:TYR:539:CE2:9847, V-A:LEU:475:CD2:4258, V-A:PRO:482:CG:4326, V-B:ALA:541:CB:9863, H-B:TYR:539:OH:9849, V-B:TYR:539:CZ:9848, V-A:ASP:366:CG:3212, V-A:SER:385:CB:3408, V-A:THR:477:CG2:4272, V-A:HIS:383:CE1:3393, V-A:PRO:482:CB:4325, V-A:SER:385:CA:3406, V-A:TYR:531:CE2:4792, V-A:PRO:540:CA:4882, V-A:TYR:531:CZ:4793, V-A:ILE:538:CG2:4862, V-A:MET:535:CG:4832, H-B:ALA:541:N:9862, V-A:ALA:541:CB:4891, V-B:PRO:540:C:9852, H-B:TYR:539:O:9839"]

$$$$
RR8_A_Rahimova_2017
     RDKit          3D

 42 46  0  0  0  0  0  0  0  0999 V2000
  125.3980  125.3350   61.5750 O   0  0  0  0  0  0  0  0  0  0  0  0
  125.8130  124.2160   61.2550 C   0  0  0  0  0  0  0  0  0  0  0  0
  126.2110  123.2550   62.1450 O   0  0  0  0  0  0  0  0  0  0  0  0
  127.3980  123.4790   62.8530 C   0  0  1  0  0  0  0  0  0  0  0  0
  127.5510  122.5700   63.9050 O   0  0  0  0  0  0  0  0  0  0  0  0
  128.9070  122.1620   64.0590 C   0  0  2  0  0  0  0  0  0  0  0  0
  129.3460  122.4530   65.5050 C   0  0  0  0  0  0  0  0  0  0  0  0
  130.6350  123.0510   65.4810 O   0  0  0  0  0  0  0  0  0  0  0  0
  131.6760  122.1660   65.0890 C   0  0  0  0  0  0  0  0  0  0  0  0
  132.6770  122.9020   64.2110 C   0  0  0  0  0  0  0  0  0  0  0  0
  132.8030  124.2900   64.3130 C   0  0  0  0  0  0  0  0  0  0  0  0
  133.7240  124.9660   63.5150 C   0  0  0  0  0  0  0  0  0  0  0  0
  134.5180  124.2520   62.6200 C   0  0  0  0  0  0  0  0  0  0  0  0
  134.4020  122.8680   62.5160 C   0  0  0  0  0  0  0  0  0  0  0  0
  133.4830  122.1910   63.3150 C   0  0  0  0  0  0  0  0  0  0  0  0
  129.6520  122.9480   62.9720 C   0  0  1  0  0  0  0  0  0  0  0  0
  130.6830  122.1930   62.3400 O   0  0  0  0  0  0  0  0  0  0  0  0
  130.2800  121.4200   61.2150 C   0  0  0  0  0  0  0  0  0  0  0  0
  131.1270  120.1590   61.1210 C   0  0  0  0  0  0  0  0  0  0  0  0
  132.4570  120.2450   60.6980 C   0  0  0  0  0  0  0  0  0  0  0  0
  133.2340  119.0950   60.6010 C   0  0  0  0  0  0  0  0  0  0  0  0
  132.6790  117.8580   60.9250 C   0  0  0  0  0  0  0  0  0  0  0  0
  131.3530  117.7610   61.3400 C   0  0  0  0  0  0  0  0  0  0  0  0
  130.5750  118.9120   61.4350 C   0  0  0  0  0  0  0  0  0  0  0  0
  128.5780  123.2070   61.9310 C   0  0  2  0  0  0  0  0  0  0  0  0
  128.9320  124.3170   61.1100 O   0  0  0  0  0  0  0  0  0  0  0  0
  130.1010  125.0270   61.5030 C   0  0  0  0  0  0  0  0  0  0  0  0
  131.1590  124.9270   60.4150 C   0  0  0  0  0  0  0  0  0  0  0  0
  131.1710  125.8440   59.3590 C   0  0  0  0  0  0  0  0  0  0  0  0
  132.1480  125.7540   58.3700 C   0  0  0  0  0  0  0  0  0  0  0  0
  133.1120  124.7510   58.4410 C   0  0  0  0  0  0  0  0  0  0  0  0
  133.1100  123.8370   59.4930 C   0  0  0  0  0  0  0  0  0  0  0  0
  132.1330  123.9260   60.4830 C   0  0  0  0  0  0  0  0  0  0  0  0
  125.9230  123.7630   59.8270 C   0  0  0  0  0  0  0  0  0  0  0  0
  127.1060  123.2100   59.3130 C   0  0  0  0  0  0  0  0  0  0  0  0
  127.1760  122.8000   57.9850 C   0  0  0  0  0  0  0  0  0  0  0  0
  126.0700  122.9340   57.1360 C   0  0  0  0  0  0  0  0  0  0  0  0
  126.1460  122.4960   55.7210 N   0  0  0  0  0  0  0  0  0  0  0  0
  125.2810  122.8790   54.9390 O   0  0  0  0  0  0  0  0  0  0  0  0
  127.0720  121.7660   55.3810 O   0  0  0  0  0  0  0  0  0  0  0  0
  124.8910  123.4890   57.6490 C   0  0  0  0  0  0  0  0  0  0  0  0
  124.8180  123.8990   58.9770 C   0  0  0  0  0  0  0  0  0  0  0  0
  1  2  2  0
  2  3  1  0
  4  3  1  6
  4  5  1  0
  5  6  1  0
  6  7  1  1
  7  8  1  0
  8  9  1  0
  9 10  1  0
 10 11  2  0
 11 12  1  0
 12 13  2  0
 13 14  1  0
 14 15  2  0
  6 16  1  0
 16 17  1  6
 17 18  1  0
 18 19  1  0
 19 20  2  0
 20 21  1  0
 21 22  2  0
 22 23  1  0
 23 24  2  0
 16 25  1  0
 25 26  1  6
 26 27  1  0
 27 28  1  0
 28 29  2  0
 29 30  1  0
 30 31  2  0
 31 32  1  0
 32 33  2  0
  2 34  1  0
 34 35  2  0
 35 36  1  0
 36 37  2  0
 37 38  1  0
 38 39  2  0
 38 40  1  0
 37 41  1  0
 41 42  2  0
 25  4  1  0
 33 28  1  0
 42 34  1  0
 15 10  1  0
 24 19  1  0
M  CHG  2  38   1  40  -1
M  END
>  <Binding energies>  (55) 
[-11.36]

>  <Ligand effiencies>  (55) 
[-0.2704761904761905]

>  <Interactions>  (55) 
["V-B:GLU:543:CD:9879, V-A:ARG:545:CZ:4925, V-B:PRO:540:N:9855, V-A:TYR:484:CZ:4346, H-B:TYR:531:OH:9766, V-B:PRO:540:CB:9856, V-B:TYR:539:CD2:9845, V-B:TYR:539:C:9838, V-B:MET:535:CE:9806, H-B:TYR:539:N:9841, V-B:PRO:540:CA:9854, V-B:LEU:363:CD1:8159, V-B:TYR:539:CE2:9847, V-A:ILE:369:CB:3235, V-A:LEU:475:CD2:4258, V-B:ALA:541:CB:9863, V-B:TYR:539:CZ:9848, V-A:ASP:366:CG:3212, V-A:SER:385:CB:3408, V-B:MET:535:CG:9804, V-A:ILE:369:CG2:3236, V-B:ILE:538:CD1:9836, V-A:ILE:369:CD1:3238, V-A:HIS:383:CE1:3393, V-B:ILE:538:CA:9831, V-A:ASP:366:CB:3211, V-A:GLY:454:CA:4048, V-A:SER:385:CA:3406, V-B:ALA:541:C:9859, H-A:TYR:484:OH:4347, V-B:GLU:543:CG:9878, V-A:ASP:366:C:3207, V-A:TYR:484:CE2:4345, V-B:PRO:540:CD:9858, H-B:ALA:541:N:9862, H-B:ARG:545:NH2:9899, V-B:ALA:541:CA:9861, V-A:GLY:453:C:4041, V-A:LEU:475:CG:4256, V-A:LEU:475:CD1:4257, V-A:ASP:366:CA:3209, V-A:VAL:384:C:3396, V-A:GLY:453:CA:4043"]

$$$$
RR8_B_Rahimova_2017
     RDKit          3D

 42 46  0  0  0  0  0  0  0  0999 V2000
  129.3410  127.2090   63.5600 O   0  0  0  0  0  0  0  0  0  0  0  0
  130.0660  126.2140   63.6530 C   0  0  0  0  0  0  0  0  0  0  0  0
  129.9280  125.0840   62.8940 O   0  0  0  0  0  0  0  0  0  0  0  0
  129.1290  124.0410   63.3970 C   0  0  2  0  0  0  0  0  0  0  0  0
  129.8590  123.1760   64.2210 O   0  0  0  0  0  0  0  0  0  0  0  0
  130.4100  122.0890   63.4800 C   0  0  2  0  0  0  0  0  0  0  0  0
  131.9410  122.0790   63.6450 C   0  0  0  0  0  0  0  0  0  0  0  0
  132.5500  122.1880   62.3640 O   0  0  0  0  0  0  0  0  0  0  0  0
  133.3040  123.3730   62.1600 C   0  0  0  0  0  0  0  0  0  0  0  0
  132.9120  123.9930   60.8270 C   0  0  0  0  0  0  0  0  0  0  0  0
  133.8080  123.9570   59.7550 C   0  0  0  0  0  0  0  0  0  0  0  0
  133.4660  124.5440   58.5390 C   0  0  0  0  0  0  0  0  0  0  0  0
  132.2250  125.1640   58.4000 C   0  0  0  0  0  0  0  0  0  0  0  0
  131.3250  125.1980   59.4620 C   0  0  0  0  0  0  0  0  0  0  0  0
  131.6690  124.6140   60.6790 C   0  0  0  0  0  0  0  0  0  0  0  0
  129.9030  122.3090   62.0500 C   0  0  1  0  0  0  0  0  0  0  0  0
  129.6390  121.0480   61.4280 O   0  0  0  0  0  0  0  0  0  0  0  0
  130.2720  119.8980   61.9960 C   0  0  0  0  0  0  0  0  0  0  0  0
  131.1620  119.1730   60.9910 C   0  0  0  0  0  0  0  0  0  0  0  0
  130.7490  117.9560   60.4400 C   0  0  0  0  0  0  0  0  0  0  0  0
  131.5480  117.3130   59.4990 C   0  0  0  0  0  0  0  0  0  0  0  0
  132.7590  117.8860   59.1140 C   0  0  0  0  0  0  0  0  0  0  0  0
  133.1780  119.0960   59.6620 C   0  0  0  0  0  0  0  0  0  0  0  0
  132.3770  119.7420   60.6020 C   0  0  0  0  0  0  0  0  0  0  0  0
  128.6530  123.1620   62.2410 C   0  0  2  0  0  0  0  0  0  0  0  0
  128.3600  123.8870   61.0500 O   0  0  0  0  0  0  0  0  0  0  0  0
  126.9910  123.9260   60.6770 C   0  0  0  0  0  0  0  0  0  0  0  0
  126.8770  123.4620   59.2350 C   0  0  0  0  0  0  0  0  0  0  0  0
  125.6680  123.5900   58.5460 C   0  0  0  0  0  0  0  0  0  0  0  0
  125.5710  123.1430   57.2300 C   0  0  0  0  0  0  0  0  0  0  0  0
  126.6790  122.5710   56.6100 C   0  0  0  0  0  0  0  0  0  0  0  0
  127.8880  122.4430   57.2920 C   0  0  0  0  0  0  0  0  0  0  0  0
  127.9870  122.8890   58.6060 C   0  0  0  0  0  0  0  0  0  0  0  0
  131.1850  126.1030   64.6480 C   0  0  0  0  0  0  0  0  0  0  0  0
  130.9960  126.3890   66.0080 C   0  0  0  0  0  0  0  0  0  0  0  0
  132.0530  126.2860   66.9060 C   0  0  0  0  0  0  0  0  0  0  0  0
  133.3270  125.9040   66.4670 C   0  0  0  0  0  0  0  0  0  0  0  0
  134.4590  125.8210   67.4220 N   0  0  0  0  0  0  0  0  0  0  0  0
  135.5650  125.4990   66.9970 O   0  0  0  0  0  0  0  0  0  0  0  0
  134.2510  126.0810   68.6050 O   0  0  0  0  0  0  0  0  0  0  0  0
  133.5140  125.6130   65.1100 C   0  0  0  0  0  0  0  0  0  0  0  0
  132.4560  125.7080   64.2120 C   0  0  0  0  0  0  0  0  0  0  0  0
  1  2  2  0
  2  3  1  0
  4  3  1  6
  4  5  1  0
  5  6  1  0
  6  7  1  6
  7  8  1  0
  8  9  1  0
  9 10  1  0
 10 11  2  0
 11 12  1  0
 12 13  2  0
 13 14  1  0
 14 15  2  0
  6 16  1  0
 16 17  1  1
 17 18  1  0
 18 19  1  0
 19 20  2  0
 20 21  1  0
 21 22  2  0
 22 23  1  0
 23 24  2  0
 16 25  1  0
 25 26  1  6
 26 27  1  0
 27 28  1  0
 28 29  2  0
 29 30  1  0
 30 31  2  0
 31 32  1  0
 32 33  2  0
  2 34  1  0
 34 35  2  0
 35 36  1  0
 36 37  2  0
 37 38  1  0
 38 39  2  0
 38 40  1  0
 37 41  1  0
 41 42  2  0
 25  4  1  0
 33 28  1  0
 42 34  1  0
 15 10  1  0
 24 19  1  0
M  CHG  2  38   1  40  -1
M  END
>  <Binding energies>  (56) 
[-11.07]

>  <Ligand effiencies>  (56) 
[-0.26357142857142857]

>  <Interactions>  (56) 
["V-A:HIS:456:CE1:4069, V-B:GLU:543:CD:9879, H-A:HIS:456:ND1:4066, V-A:ARG:545:CZ:4925, V-B:PRO:540:N:9855, V-A:ARG:545:CD:4922, V-B:PRO:540:CB:9856, V-B:TYR:539:CD2:9845, V-B:TYR:539:C:9838, V-B:MET:535:CE:9806, V-B:PRO:540:CA:9854, V-B:LEU:363:CD1:8159, V-A:ARG:545:CG:4921, V-B:TYR:539:CE2:9847, V-A:ILE:369:CB:3235, V-A:LEU:475:CD2:4258, V-B:ALA:541:CB:9863, V-A:ILE:369:CG1:3237, V-B:TYR:539:CZ:9848, V-A:ASP:366:CG:3212, V-B:TYR:539:CE1:9846, V-B:TYR:539:CA:9840, V-B:TYR:539:CD1:9844, V-A:ILE:369:CG2:3236, V-B:TYR:539:CB:9842, V-B:TYR:539:CG:9843, V-A:ILE:369:CD1:3238, V-A:HIS:383:CE1:3393, V-A:ASP:366:CB:3211, V-A:SER:385:CA:3406, H-A:TYR:484:OH:4347, H-A:GLY:454:N:4049, V-A:ASP:366:C:3207, V-A:LEU:373:CG:3278, V-A:LEU:373:CD2:3280, V-A:ASP:366:CA:3209, V-A:ARG:545:CB:4920, V-A:ILE:455:C:4051, V-A:LEU:373:CD1:3279, H-A:ILE:455:N:4054"]

$$$$
RR9_Rahimova_2017
     RDKit          3D

 36 40  0  0  0  0  0  0  0  0999 V2000
  129.4170  122.6800   73.3510 C   0  0  0  0  0  0  0  0  0  0  0  0
  129.9390  124.1080   73.5370 C   0  0  0  0  0  0  0  0  0  0  0  0
  128.8270  124.9890   73.6640 O   0  0  0  0  0  0  0  0  0  0  0  0
  128.3450  125.6390   72.5440 C   0  0  0  0  0  0  0  0  0  0  0  0
  127.1250  126.2980   72.6820 C   0  0  0  0  0  0  0  0  0  0  0  0
  126.5610  126.9780   71.6070 C   0  0  0  0  0  0  0  0  0  0  0  0
  127.2030  127.0190   70.3610 C   0  0  0  0  0  0  0  0  0  0  0  0
  126.5980  127.7460   69.1970 C   0  0  0  0  0  0  0  0  0  0  0  0
  127.3480  128.0580   68.0530 C   0  0  0  0  0  0  0  0  0  0  0  0
  126.7720  128.7290   66.9590 C   0  0  0  0  0  0  0  0  0  0  0  0
  127.6010  128.9440   65.7220 C   0  0  0  0  0  0  0  0  0  0  0  0
  127.3330  129.8610   64.9460 O   0  0  0  0  0  0  0  0  0  0  0  0
  128.6060  128.0670   65.5310 N   0  0  0  0  0  0  0  0  0  0  0  0
  129.4640  127.9890   64.3440 C   0  0  0  0  0  0  0  0  0  0  0  0
  130.1600  126.6170   64.1890 C   0  0  0  0  0  0  0  0  0  0  0  0
  131.3390  126.3910   65.1280 C   0  0  0  0  0  0  0  0  0  0  0  0
  131.1800  126.5550   66.5080 C   0  0  0  0  0  0  0  0  0  0  0  0
  132.2500  126.3140   67.3650 C   0  0  0  0  0  0  0  0  0  0  0  0
  133.4770  125.9150   66.8410 C   0  0  0  0  0  0  0  0  0  0  0  0
  133.6450  125.7530   65.4670 C   0  0  0  0  0  0  0  0  0  0  0  0
  132.5740  125.9930   64.6090 C   0  0  0  0  0  0  0  0  0  0  0  0
  125.4110  129.0980   67.0960 C   0  0  0  0  0  0  0  0  0  0  0  0
  124.3930  129.7940   66.3450 C   0  0  0  0  0  0  0  0  0  0  0  0
  124.4990  130.5020   65.0340 C   0  0  0  0  0  0  0  0  0  0  0  0
  124.1250  129.8550   63.8530 C   0  0  0  0  0  0  0  0  0  0  0  0
  124.2390  130.5120   62.6300 C   0  0  0  0  0  0  0  0  0  0  0  0
  124.7240  131.8200   62.5850 C   0  0  0  0  0  0  0  0  0  0  0  0
  124.8660  132.5290   61.2500 C   0  0  0  0  0  0  0  0  0  0  0  0
  125.1000  132.4680   63.7620 C   0  0  0  0  0  0  0  0  0  0  0  0
  124.9830  131.8120   64.9830 C   0  0  0  0  0  0  0  0  0  0  0  0
  123.2480  129.7720   66.9890 N   0  0  0  0  0  0  0  0  0  0  0  0
  123.4460  129.1490   68.1620 N   0  0  0  0  0  0  0  0  0  0  0  0
  124.7480  128.7260   68.2900 C   0  0  0  0  0  0  0  0  0  0  0  0
  125.2830  128.0820   69.3260 N   0  0  0  0  0  0  0  0  0  0  0  0
  128.4300  126.3520   70.2290 C   0  0  0  0  0  0  0  0  0  0  0  0
  128.9970  125.6720   71.3040 C   0  0  0  0  0  0  0  0  0  0  0  0
  1  2  1  0
  2  3  1  0
  3  4  1  0
  4  5  2  0
  5  6  1  0
  6  7  2  0
  7  8  1  0
  8  9  2  0
  9 10  1  0
 10 11  1  0
 11 12  2  0
 11 13  1  0
 13 14  1  0
 14 15  1  0
 15 16  1  0
 16 17  2  0
 17 18  1  0
 18 19  2  0
 19 20  1  0
 20 21  2  0
 10 22  2  0
 22 23  1  0
 23 24  1  0
 24 25  2  0
 25 26  1  0
 26 27  2  0
 27 28  1  0
 27 29  1  0
 29 30  2  0
 23 31  2  0
 31 32  1  0
 32 33  1  0
 33 34  2  0
  7 35  1  0
 35 36  2  0
 36  4  1  0
 34  8  1  0
 21 16  1  0
 33 22  1  0
 30 24  1  0
M  END
>  <Binding energies>  (57) 
[-10.0]

>  <Ligand effiencies>  (57) 
[-0.2631578947368421]

>  <Interactions>  (57) 
["V-B:GLU:543:CB:9877, V-A:HIS:456:CE1:4069, V-B:GLU:543:C:9873, V-B:GLY:544:C:9883, V-A:HIS:456:CD2:4067, V-B:ARG:545:CA:9890, V-B:ARG:545:CD:9894, V-B:GLU:543:CD:9879, V-B:HIS:456:CE1:9040, V-B:ARG:545:CG:9893, V-A:ARG:545:CZ:4925, V-A:TYR:484:CZ:4346, V-A:ARG:545:CD:4922, V-A:ARG:545:CG:4921, V-B:LEU:475:CD1:9228, V-B:ARG:545:CZ:9897, V-B:ARG:545:CB:9892, V-B:GLY:544:CA:9885, H-B:LYS:547:NZ:9922, V-B:GLY:454:CA:9019, H-B:GLU:543:OE2:9881, V-A:GLU:543:CD:4907, H-B:GLU:543:OE1:9880, H-B:TYR:484:OH:9318, H-B:GLY:454:N:9020, H-B:HIS:456:ND1:9037, V-B:LYS:547:CE:9921, H-B:ILE:455:O:9023, H-B:ILE:455:N:9025, V-A:TYR:484:CG:4341, V-A:TYR:484:CD2:4343, V-A:TYR:484:CB:4340, V-B:ILE:455:C:9022"]

$$$$
