1a_Ghoteimi_2023
     RDKit          3D

 67 70  0  0  0  0  0  0  0  0999 V2000
  133.4290  131.7050   59.3860 C   0  0  0  0  0  0  0  0  0  0  0  0
  133.2620  130.9600   58.0580 C   0  0  0  0  0  0  0  0  0  0  0  0
  133.2860  131.8950   56.9870 O   0  0  0  0  0  0  0  0  0  0  0  0
  132.4370  132.9550   56.9610 C   0  0  0  0  0  0  0  0  0  0  0  0
  132.7770  134.1060   57.2480 O   0  0  0  0  0  0  0  0  0  0  0  0
  131.0420  132.5860   56.5450 C   0  0  0  0  0  0  0  0  0  0  0  0
  130.5960  132.7450   55.2240 C   0  0  0  0  0  0  0  0  0  0  0  0
  129.2950  132.3980   54.8680 C   0  0  0  0  0  0  0  0  0  0  0  0
  128.4160  131.8790   55.8300 C   0  0  0  0  0  0  0  0  0  0  0  0
  127.0820  131.5000   55.5830 N   0  0  0  0  0  0  0  0  0  0  0  0
  126.5280  130.2690   55.5280 C   0  0  0  0  0  0  0  0  0  0  0  0
  127.1230  129.2070   55.7100 O   0  0  0  0  0  0  0  0  0  0  0  0
  125.0320  130.2360   55.2190 C   0  0  0  0  0  0  0  0  0  0  0  0
  124.0390  130.7880   56.6370 S   0  0  0  0  0  0  0  0  0  0  0  0
  124.5000  129.7450   58.0010 C   0  0  0  0  0  0  0  0  0  0  0  0
  124.8580  128.4910   57.6370 N   0  0  0  0  0  0  0  0  0  0  0  0
  125.2380  127.5950   58.5850 C   0  0  0  0  0  0  0  0  0  0  0  0
  125.6410  126.2320   58.1000 C   0  0  0  0  0  0  0  0  0  0  0  0
  124.6980  125.2000   57.9590 C   0  0  0  0  0  0  0  0  0  0  0  0
  125.0740  123.9380   57.5090 C   0  0  0  0  0  0  0  0  0  0  0  0
  126.4010  123.6660   57.1870 C   0  0  0  0  0  0  0  0  0  0  0  0
  126.6830  122.3870   56.7450 O   0  0  0  0  0  0  0  0  0  0  0  0
  126.6350  122.1090   55.3500 C   0  0  0  0  0  0  0  0  0  0  0  0
  127.3550  124.6840   57.3260 C   0  0  0  0  0  0  0  0  0  0  0  0
  126.9760  125.9450   57.7770 C   0  0  0  0  0  0  0  0  0  0  0  0
  125.2620  127.9570   59.9380 C   0  0  0  0  0  0  0  0  0  0  0  0
  124.8720  129.2400   60.3410 C   0  0  0  0  0  0  0  0  0  0  0  0
  124.8910  129.5450   61.8040 C   0  0  0  0  0  0  0  0  0  0  0  0
  123.7800  130.1190   62.4310 C   0  0  0  0  0  0  0  0  0  0  0  0
  123.8010  130.3860   63.7980 C   0  0  0  0  0  0  0  0  0  0  0  0
  124.9260  130.0800   64.5630 C   0  0  0  0  0  0  0  0  0  0  0  0
  124.8540  130.3800   65.9090 O   0  0  0  0  0  0  0  0  0  0  0  0
  124.5500  129.3440   66.8360 C   0  0  0  0  0  0  0  0  0  0  0  0
  126.0390  129.4970   63.9380 C   0  0  0  0  0  0  0  0  0  0  0  0
  126.0160  129.2320   62.5710 C   0  0  0  0  0  0  0  0  0  0  0  0
  124.4820  130.1700   59.3470 C   0  0  0  0  0  0  0  0  0  0  0  0
  124.0780  131.5330   59.7060 C   0  0  0  0  0  0  0  0  0  0  0  0
  123.7590  132.6090   59.9900 N   0  0  0  0  0  0  0  0  0  0  0  0
  128.8550  131.7240   57.1450 C   0  0  0  0  0  0  0  0  0  0  0  0
  130.1560  132.0720   57.5000 C   0  0  0  0  0  0  0  0  0  0  0  0
  133.2723  131.0060   60.2208 H   0  0  0  0  0  0  0  0  0  0  0  0
  134.4437  132.1255   59.4454 H   0  0  0  0  0  0  0  0  0  0  0  0
  132.6909  132.5184   59.4454 H   0  0  0  0  0  0  0  0  0  0  0  0
  134.0842  130.2397   57.9351 H   0  0  0  0  0  0  0  0  0  0  0  0
  132.3022  130.4225   58.0558 H   0  0  0  0  0  0  0  0  0  0  0  0
  131.2803  133.1474   54.4626 H   0  0  0  0  0  0  0  0  0  0  0  0
  128.9560  132.5313   53.8300 H   0  0  0  0  0  0  0  0  0  0  0  0
  126.4500  132.2770   55.4620 H   0  0  0  0  0  0  0  0  0  0  0  0
  124.8302  130.8976   54.3637 H   0  0  0  0  0  0  0  0  0  0  0  0
  124.7527  129.1972   54.9891 H   0  0  0  0  0  0  0  0  0  0  0  0
  123.6442  125.3930   58.2087 H   0  0  0  0  0  0  0  0  0  0  0  0
  124.3156  123.1478   57.4067 H   0  0  0  0  0  0  0  0  0  0  0  0
  126.4497  121.0357   55.1962 H   0  0  0  0  0  0  0  0  0  0  0  0
  125.8241  122.6910   54.8878 H   0  0  0  0  0  0  0  0  0  0  0  0
  127.5942  122.3854   54.8878 H   0  0  0  0  0  0  0  0  0  0  0  0
  128.4079  124.4851   57.0775 H   0  0  0  0  0  0  0  0  0  0  0  0
  127.7376  126.7317   57.8822 H   0  0  0  0  0  0  0  0  0  0  0  0
  125.5905  127.2260   60.6915 H   0  0  0  0  0  0  0  0  0  0  0  0
  122.8839  130.3611   61.8407 H   0  0  0  0  0  0  0  0  0  0  0  0
  122.9227  130.8421   64.2781 H   0  0  0  0  0  0  0  0  0  0  0  0
  124.6619  129.7253   67.8617 H   0  0  0  0  0  0  0  0  0  0  0  0
  123.5148  129.0058   66.6814 H   0  0  0  0  0  0  0  0  0  0  0  0
  125.2384  128.5000   66.6814 H   0  0  0  0  0  0  0  0  0  0  0  0
  126.9324  129.2485   64.5297 H   0  0  0  0  0  0  0  0  0  0  0  0
  126.8920  128.7718   62.0905 H   0  0  0  0  0  0  0  0  0  0  0  0
  128.1692  131.3243   57.9065 H   0  0  0  0  0  0  0  0  0  0  0  0
  130.4906  131.9420   58.5398 H   0  0  0  0  0  0  0  0  0  0  0  0
  1  2  1  0
  2  3  1  0
  3  4  1  0
  4  5  2  0
  4  6  1  0
  6  7  2  0
  7  8  1  0
  8  9  2  0
  9 10  1  0
 10 11  1  0
 11 12  2  0
 11 13  1  0
 13 14  1  0
 14 15  1  0
 15 16  2  0
 16 17  1  0
 17 18  1  0
 18 19  2  0
 19 20  1  0
 20 21  2  0
 21 22  1  0
 22 23  1  0
 21 24  1  0
 24 25  2  0
 17 26  2  0
 26 27  1  0
 27 28  1  0
 28 29  2  0
 29 30  1  0
 30 31  2  0
 31 32  1  0
 32 33  1  0
 31 34  1  0
 34 35  2  0
 27 36  2  0
 36 37  1  0
 37 38  3  0
  9 39  1  0
 39 40  2  0
 40  6  1  0
 36 15  1  0
 25 18  1  0
 35 28  1  0
  1 41  1  0
  1 42  1  0
  1 43  1  0
  2 44  1  0
  2 45  1  0
  7 46  1  0
  8 47  1  0
 10 48  1  0
 13 49  1  0
 13 50  1  0
 19 51  1  0
 20 52  1  0
 23 53  1  0
 23 54  1  0
 23 55  1  0
 24 56  1  0
 25 57  1  0
 26 58  1  0
 29 59  1  0
 30 60  1  0
 33 61  1  0
 33 62  1  0
 33 63  1  0
 34 64  1  0
 35 65  1  0
 39 66  1  0
 40 67  1  0
M  END
>  <Binding energies>  (1) 
[-9.5]

>  <Ligand effiencies>  (1) 
[-0.23170731707317074]

>  <Interactions>  (1) 
["V-B:ARG:545:CD:9894, V-B:ARG:545:CG:9893, V-B:ASP:366:CG:8183, V-B:TYR:531:CZ:9765, V-B:ASP:366:CB:8182, H-B:TYR:531:OH:9766, V-B:MET:535:CE:9806, H-B:TYR:539:N:9841, V-B:TYR:531:CE2:9764, V-B:LEU:363:CD1:8159, V-B:GLY:454:CA:9019, V-B:MET:535:CG:9804, V-B:ILE:538:CD1:9836, V-B:ILE:538:CA:9831, V-A:ASP:366:CB:3211, H-B:TYR:484:OH:9318, V-A:ASN:362:C:3171, V-A:TYR:531:CE2:4792, V-A:LEU:363:CA:3184, H-A:TYR:531:OH:4794, V-A:LEU:363:CD1:3188, V-A:PRO:540:CA:4882, V-A:TYR:531:CZ:4793, V-A:PRO:540:CD:4886, V-A:ILE:538:CG2:4862, V-A:PRO:540:N:4883, V-A:PRO:540:CB:4884, V-A:TYR:539:CE1:4874, V-A:MET:535:CG:4832, V-B:ILE:538:C:9829, V-B:GLY:453:CA:9014, H-B:GLY:454:N:9020, V-B:ILE:369:CG2:8207, V-B:ILE:369:CB:8206, V-A:TYR:539:CZ:4876, V-B:TYR:531:CE1:9763, V-B:TYR:531:CD1:9761, H-A:TYR:539:OH:4877"]

$$$$
1a_Grossjean_2025
     RDKit          3D

 45 46  0  0  0  0  0  0  0  0999 V2000
  123.3300  124.8540   57.6200 C   0  0  0  0  0  0  0  0  0  0  0  0
  124.4860  123.8880   57.8970 C   0  0  0  0  0  0  0  0  0  0  0  0
  125.3750  123.8820   56.7870 O   0  0  0  0  0  0  0  0  0  0  0  0
  126.3750  122.9670   56.6950 C   0  0  0  0  0  0  0  0  0  0  0  0
  126.2980  121.9430   56.0090 O   0  0  0  0  0  0  0  0  0  0  0  0
  127.5770  123.3170   57.5240 C   0  0  0  0  0  0  0  0  0  0  0  0
  127.9270  122.4930   58.6020 C   0  0  0  0  0  0  0  0  0  0  0  0
  129.0330  122.7930   59.3920 C   0  0  0  0  0  0  0  0  0  0  0  0
  129.8100  123.9200   59.1230 C   0  0  0  0  0  0  0  0  0  0  0  0
  130.9030  124.1280   59.9880 N   0  0  0  0  0  0  0  0  0  0  0  0
  132.2140  124.2850   59.7070 C   0  0  0  0  0  0  0  0  0  0  0  0
  132.7110  124.2750   58.5800 O   0  0  0  0  0  0  0  0  0  0  0  0
  133.1240  124.4900   60.9200 C   0  0  0  0  0  0  0  0  0  0  0  0
  133.5810  122.9170   61.7080 S   0  0  0  0  0  0  0  0  0  0  0  0
  132.1380  121.8770   61.7010 C   0  0  0  0  0  0  0  0  0  0  0  0
  131.0290  122.4750   62.2040 N   0  0  0  0  0  0  0  0  0  0  0  0
  129.8740  121.7710   62.2510 C   0  0  0  0  0  0  0  0  0  0  0  0
  128.6800  122.5010   62.8380 C   0  0  0  0  0  0  0  0  0  0  0  0
  129.7740  120.4590   61.7930 C   0  0  0  0  0  0  0  0  0  0  0  0
  130.9060  119.8390   61.2530 C   0  0  0  0  0  0  0  0  0  0  0  0
  130.7690  118.4060   60.7440 C   0  0  0  0  0  0  0  0  0  0  0  0
  132.1230  120.5560   61.1910 C   0  0  0  0  0  0  0  0  0  0  0  0
  133.3090  119.9450   60.5850 C   0  0  0  0  0  0  0  0  0  0  0  0
  134.2440  119.4610   60.1060 N   0  0  0  0  0  0  0  0  0  0  0  0
  129.4720  124.7460   58.0410 C   0  0  0  0  0  0  0  0  0  0  0  0
  128.3650  124.4460   57.2520 C   0  0  0  0  0  0  0  0  0  0  0  0
  122.9094  125.2055   58.5737 H   0  0  0  0  0  0  0  0  0  0  0  0
  123.7011  125.7143   57.0437 H   0  0  0  0  0  0  0  0  0  0  0  0
  122.5493  124.3359   57.0437 H   0  0  0  0  0  0  0  0  0  0  0  0
  125.0269  124.2123   58.7982 H   0  0  0  0  0  0  0  0  0  0  0  0
  124.0876  122.8746   58.0532 H   0  0  0  0  0  0  0  0  0  0  0  0
  127.3226  121.6016   58.8258 H   0  0  0  0  0  0  0  0  0  0  0  0
  129.2963  122.1367   60.2346 H   0  0  0  0  0  0  0  0  0  0  0  0
  130.6470  124.1980   60.9610 H   0  0  0  0  0  0  0  0  0  0  0  0
  134.0409  125.0019   60.5927 H   0  0  0  0  0  0  0  0  0  0  0  0
  132.5727  125.0904   61.6586 H   0  0  0  0  0  0  0  0  0  0  0  0
  128.7338  122.4681   63.9362 H   0  0  0  0  0  0  0  0  0  0  0  0
  128.6889  123.5483   62.5016 H   0  0  0  0  0  0  0  0  0  0  0  0
  127.7519  122.0157   62.5016 H   0  0  0  0  0  0  0  0  0  0  0  0
  128.8182  119.9181   61.8551 H   0  0  0  0  0  0  0  0  0  0  0  0
  130.7032  117.7177   61.5995 H   0  0  0  0  0  0  0  0  0  0  0  0
  129.8585  118.3194   60.1329 H   0  0  0  0  0  0  0  0  0  0  0  0
  131.6466  118.1485   60.1329 H   0  0  0  0  0  0  0  0  0  0  0  0
  130.0828  125.6326   57.8154 H   0  0  0  0  0  0  0  0  0  0  0  0
  128.1053  125.1004   56.4069 H   0  0  0  0  0  0  0  0  0  0  0  0
  1  2  1  0
  2  3  1  0
  3  4  1  0
  4  5  2  0
  4  6  1  0
  6  7  2  0
  7  8  1  0
  8  9  2  0
  9 10  1  0
 10 11  1  0
 11 12  2  0
 11 13  1  0
 13 14  1  0
 14 15  1  0
 15 16  2  0
 16 17  1  0
 17 18  1  0
 17 19  2  0
 19 20  1  0
 20 21  1  0
 20 22  2  0
 22 23  1  0
 23 24  3  0
  9 25  1  0
 25 26  2  0
 26  6  1  0
 22 15  1  0
  1 27  1  0
  1 28  1  0
  1 29  1  0
  2 30  1  0
  2 31  1  0
  7 32  1  0
  8 33  1  0
 10 34  1  0
 13 35  1  0
 13 36  1  0
 18 37  1  0
 18 38  1  0
 18 39  1  0
 19 40  1  0
 21 41  1  0
 21 42  1  0
 21 43  1  0
 25 44  1  0
 26 45  1  0
M  END
>  <Binding energies>  (1) 
[-8.18]

>  <Ligand effiencies>  (1) 
[-0.30296296296296293]

>  <Interactions>  (1) 
["V-B:ASP:366:CG:8183, V-B:TYR:531:CZ:9765, V-B:ASP:366:CB:8182, V-B:PRO:540:N:9855, V-B:LEU:363:CA:8155, H-B:TYR:531:OH:9766, V-B:PRO:540:CB:9856, V-B:TYR:539:CD2:9845, V-B:TYR:539:C:9838, V-B:MET:535:CE:9806, H-B:TYR:539:N:9841, V-B:TYR:531:CE2:9764, V-B:PRO:540:CA:9854, V-B:LEU:363:CD1:8159, V-B:TYR:539:CE2:9847, V-A:LEU:475:CD2:4258, V-B:ALA:541:CB:9863, H-B:TYR:539:OH:9849, V-B:TYR:539:CZ:9848, V-A:ASP:366:CG:3212, V-A:ILE:369:CG2:3236, V-B:TYR:539:CB:9842, V-B:TYR:539:CG:9843, V-A:ILE:369:CD1:3238, V-A:SER:385:CA:3406, V-B:ALA:541:CA:9861"]

$$$$
1aa_Ghoteimi_2023
     RDKit          3D

 67 70  0  0  0  0  0  0  0  0999 V2000
  133.1250  120.0890   60.3820 C   0  0  0  0  0  0  0  0  0  0  0  0
  132.6970  121.5430   60.5970 C   0  0  0  0  0  0  0  0  0  0  0  0
  133.1450  122.3360   59.5040 O   0  0  0  0  0  0  0  0  0  0  0  0
  133.0430  123.6890   59.5310 C   0  0  0  0  0  0  0  0  0  0  0  0
  133.1900  124.4030   58.5340 O   0  0  0  0  0  0  0  0  0  0  0  0
  132.7330  124.2340   60.8960 C   0  0  0  0  0  0  0  0  0  0  0  0
  131.4560  124.7060   61.2350 C   0  0  0  0  0  0  0  0  0  0  0  0
  131.1980  125.2060   62.5090 C   0  0  0  0  0  0  0  0  0  0  0  0
  132.2170  125.2390   63.4720 C   0  0  0  0  0  0  0  0  0  0  0  0
  132.0740  125.7210   64.7860 N   0  0  0  0  0  0  0  0  0  0  0  0
  133.0080  126.0020   65.7230 C   0  0  0  0  0  0  0  0  0  0  0  0
  134.2230  125.8780   65.5650 O   0  0  0  0  0  0  0  0  0  0  0  0
  132.5090  126.5150   67.0830 C   0  0  0  0  0  0  0  0  0  0  0  0
  131.1600  126.0910   67.3150 O   0  0  0  0  0  0  0  0  0  0  0  0
  130.2220  126.9790   67.8220 C   0  0  0  0  0  0  0  0  0  0  0  0
  130.0430  127.0220   69.1710 N   0  0  0  0  0  0  0  0  0  0  0  0
  129.1230  127.8690   69.7040 C   0  0  0  0  0  0  0  0  0  0  0  0
  128.9880  127.8580   71.2000 C   0  0  0  0  0  0  0  0  0  0  0  0
  128.0580  127.0210   71.8340 C   0  0  0  0  0  0  0  0  0  0  0  0
  127.9300  127.0110   73.2200 C   0  0  0  0  0  0  0  0  0  0  0  0
  128.7260  127.8330   74.0140 C   0  0  0  0  0  0  0  0  0  0  0  0
  128.5290  127.7550   75.3800 O   0  0  0  0  0  0  0  0  0  0  0  0
  127.9370  128.8580   76.0590 C   0  0  0  0  0  0  0  0  0  0  0  0
  129.6640  128.6710   73.3950 C   0  0  0  0  0  0  0  0  0  0  0  0
  129.7910  128.6790   72.0090 C   0  0  0  0  0  0  0  0  0  0  0  0
  128.3700  128.7150   68.8800 C   0  0  0  0  0  0  0  0  0  0  0  0
  128.5430  128.6980   67.4900 C   0  0  0  0  0  0  0  0  0  0  0  0
  127.7160  129.6320   66.6670 C   0  0  0  0  0  0  0  0  0  0  0  0
  126.4510  129.2410   66.2180 C   0  0  0  0  0  0  0  0  0  0  0  0
  125.6710  130.1090   65.4600 C   0  0  0  0  0  0  0  0  0  0  0  0
  126.1340  131.3840   65.1390 C   0  0  0  0  0  0  0  0  0  0  0  0
  125.2920  132.1760   64.3820 O   0  0  0  0  0  0  0  0  0  0  0  0
  124.3770  131.5570   63.4860 C   0  0  0  0  0  0  0  0  0  0  0  0
  127.4000  131.7830   65.5940 C   0  0  0  0  0  0  0  0  0  0  0  0
  128.1800  130.9140   66.3520 C   0  0  0  0  0  0  0  0  0  0  0  0
  129.4890  127.7990   66.9460 C   0  0  0  0  0  0  0  0  0  0  0  0
  129.7070  127.6790   65.5030 C   0  0  0  0  0  0  0  0  0  0  0  0
  129.8800  127.5840   64.3630 N   0  0  0  0  0  0  0  0  0  0  0  0
  133.4890  124.7730   63.1370 C   0  0  0  0  0  0  0  0  0  0  0  0
  133.7460  124.2740   61.8630 C   0  0  0  0  0  0  0  0  0  0  0  0
  133.2686  119.6010   61.3573 H   0  0  0  0  0  0  0  0  0  0  0  0
  132.3454  119.5570   59.8171 H   0  0  0  0  0  0  0  0  0  0  0  0
  134.0685  120.0642   59.8171 H   0  0  0  0  0  0  0  0  0  0  0  0
  131.6003  121.5964   60.6634 H   0  0  0  0  0  0  0  0  0  0  0  0
  133.1398  121.9213   61.5302 H   0  0  0  0  0  0  0  0  0  0  0  0
  130.6501  124.6809   60.4867 H   0  0  0  0  0  0  0  0  0  0  0  0
  130.1930  125.5758   62.7604 H   0  0  0  0  0  0  0  0  0  0  0  0
  131.1160  125.8850   65.0610 H   0  0  0  0  0  0  0  0  0  0  0  0
  133.1555  126.1174   67.8792 H   0  0  0  0  0  0  0  0  0  0  0  0
  132.5412  127.6145   67.0821 H   0  0  0  0  0  0  0  0  0  0  0  0
  127.4200  126.3623   71.2265 H   0  0  0  0  0  0  0  0  0  0  0  0
  127.1921  126.3466   73.6934 H   0  0  0  0  0  0  0  0  0  0  0  0
  128.0184  128.7063   77.1454 H   0  0  0  0  0  0  0  0  0  0  0  0
  128.4590  129.7846   75.7780 H   0  0  0  0  0  0  0  0  0  0  0  0
  126.8763  128.9351   75.7780 H   0  0  0  0  0  0  0  0  0  0  0  0
  130.3023  129.3250   74.0073 H   0  0  0  0  0  0  0  0  0  0  0  0
  130.5336  129.3402   71.5386 H   0  0  0  0  0  0  0  0  0  0  0  0
  127.6354  129.3997   69.3289 H   0  0  0  0  0  0  0  0  0  0  0  0
  126.0694  128.2395   66.4658 H   0  0  0  0  0  0  0  0  0  0  0  0
  124.6793  129.7858   65.1107 H   0  0  0  0  0  0  0  0  0  0  0  0
  123.6000  131.0314   64.0605 H   0  0  0  0  0  0  0  0  0  0  0  0
  123.9084  132.3244   62.8523 H   0  0  0  0  0  0  0  0  0  0  0  0
  124.9149  130.8366   62.8523 H   0  0  0  0  0  0  0  0  0  0  0  0
  127.7779  132.7870   65.3507 H   0  0  0  0  0  0  0  0  0  0  0  0
  129.1697  131.2380   66.7064 H   0  0  0  0  0  0  0  0  0  0  0  0
  134.2948  124.8002   63.8853 H   0  0  0  0  0  0  0  0  0  0  0  0
  134.7529  123.9080   61.6135 H   0  0  0  0  0  0  0  0  0  0  0  0
  1  2  1  0
  2  3  1  0
  3  4  1  0
  4  5  2  0
  4  6  1  0
  6  7  2  0
  7  8  1  0
  8  9  2  0
  9 10  1  0
 10 11  1  0
 11 12  2  0
 11 13  1  0
 13 14  1  0
 14 15  1  0
 15 16  2  0
 16 17  1  0
 17 18  1  0
 18 19  2  0
 19 20  1  0
 20 21  2  0
 21 22  1  0
 22 23  1  0
 21 24  1  0
 24 25  2  0
 17 26  2  0
 26 27  1  0
 27 28  1  0
 28 29  2  0
 29 30  1  0
 30 31  2  0
 31 32  1  0
 32 33  1  0
 31 34  1  0
 34 35  2  0
 27 36  2  0
 36 37  1  0
 37 38  3  0
  9 39  1  0
 39 40  2  0
 40  6  1  0
 36 15  1  0
 25 18  1  0
 35 28  1  0
  1 41  1  0
  1 42  1  0
  1 43  1  0
  2 44  1  0
  2 45  1  0
  7 46  1  0
  8 47  1  0
 10 48  1  0
 13 49  1  0
 13 50  1  0
 19 51  1  0
 20 52  1  0
 23 53  1  0
 23 54  1  0
 23 55  1  0
 24 56  1  0
 25 57  1  0
 26 58  1  0
 29 59  1  0
 30 60  1  0
 33 61  1  0
 33 62  1  0
 33 63  1  0
 34 64  1  0
 35 65  1  0
 39 66  1  0
 40 67  1  0
M  END
>  <Binding energies>  (1) 
[-8.38]

>  <Ligand effiencies>  (1) 
[-0.20439024390243904]

>  <Interactions>  (1) 
["V-A:HIS:456:CE1:4069, V-B:GLU:543:CD:9879, V-B:HIS:456:CE1:9040, V-A:ARG:545:CZ:4925, V-A:ARG:545:CD:4922, V-B:TYR:539:CD2:9845, V-A:ARG:545:CG:4921, V-B:TYR:539:CE2:9847, H-B:LYS:547:NZ:9922, V-B:GLY:454:CA:9019, V-A:ILE:369:CB:3235, H-B:TYR:539:OH:9849, V-A:ASP:366:CG:3212, H-B:GLU:543:OE2:9881, V-A:ILE:369:CG2:3236, V-A:ILE:369:CD1:3238, V-A:GLU:543:CD:4907, V-A:GLU:543:CG:4906, V-A:SER:385:CA:3406, V-A:GLU:543:CB:4905, H-A:TYR:484:OH:4347, H-A:GLY:454:N:4049, V-B:TYR:484:CZ:9317, H-A:ARG:545:NH2:4927, V-B:TYR:484:CE2:9316, H-A:ARG:545:NH1:4926, H-A:ARG:545:NE:4923, V-B:LYS:547:CE:9921, V-B:HIS:456:CD2:9038"]

$$$$
1b_Ghoteimi_2023
     RDKit          3D

 54 57  0  0  0  0  0  0  0  0999 V2000
  126.8140  122.1280   55.3710 C   0  0  0  0  0  0  0  0  0  0  0  0
  126.5910  122.3550   56.7570 O   0  0  0  0  0  0  0  0  0  0  0  0
  126.2500  123.6240   57.1860 C   0  0  0  0  0  0  0  0  0  0  0  0
  127.2760  124.5660   57.2250 C   0  0  0  0  0  0  0  0  0  0  0  0
  127.0260  125.8700   57.6450 C   0  0  0  0  0  0  0  0  0  0  0  0
  125.7400  126.2720   58.0340 C   0  0  0  0  0  0  0  0  0  0  0  0
  125.4750  127.6800   58.4890 C   0  0  0  0  0  0  0  0  0  0  0  0
  125.2680  128.0210   59.8300 C   0  0  0  0  0  0  0  0  0  0  0  0
  125.0290  129.3500   60.2010 C   0  0  0  0  0  0  0  0  0  0  0  0
  124.8110  129.6400   61.6500 C   0  0  0  0  0  0  0  0  0  0  0  0
  123.7160  130.4050   62.0600 C   0  0  0  0  0  0  0  0  0  0  0  0
  123.5140  130.6850   63.4080 C   0  0  0  0  0  0  0  0  0  0  0  0
  124.4040  130.2100   64.3720 C   0  0  0  0  0  0  0  0  0  0  0  0
  124.1240  130.5380   65.6850 O   0  0  0  0  0  0  0  0  0  0  0  0
  124.1820  129.5230   66.6810 C   0  0  0  0  0  0  0  0  0  0  0  0
  125.5090  129.4490   63.9650 C   0  0  0  0  0  0  0  0  0  0  0  0
  125.7090  129.1710   62.6160 C   0  0  0  0  0  0  0  0  0  0  0  0
  125.0140  130.3410   59.1890 C   0  0  0  0  0  0  0  0  0  0  0  0
  124.8630  131.7580   59.5360 C   0  0  0  0  0  0  0  0  0  0  0  0
  124.7440  132.8760   59.8110 N   0  0  0  0  0  0  0  0  0  0  0  0
  125.2090  129.9270   57.8530 C   0  0  0  0  0  0  0  0  0  0  0  0
  125.2140  131.0290   56.4540 S   0  0  0  0  0  0  0  0  0  0  0  0
  126.5050  130.4610   55.2960 C   0  0  0  0  0  0  0  0  0  0  0  0
  127.9420  130.8210   55.6980 C   0  0  0  0  0  0  0  0  0  0  0  0
  128.7880  129.9410   55.8680 O   0  0  0  0  0  0  0  0  0  0  0  0
  128.1720  132.1460   55.8430 N   0  0  0  0  0  0  0  0  0  0  0  0
  129.3680  132.7580   56.1960 C   0  0  0  0  0  0  0  0  0  0  0  0
  130.2120  132.2640   57.1900 C   0  0  0  0  0  0  0  0  0  0  0  0
  131.2700  133.1430   57.2300 C   0  0  0  0  0  0  0  0  0  0  0  0
  131.0750  134.1150   56.3070 O   0  0  0  0  0  0  0  0  0  0  0  0
  129.8660  133.8600   55.6580 N   0  0  0  0  0  0  0  0  0  0  0  0
  125.4530  128.6350   57.5230 N   0  0  0  0  0  0  0  0  0  0  0  0
  124.7150  125.3140   57.9920 C   0  0  0  0  0  0  0  0  0  0  0  0
  124.9600  124.0100   57.5750 C   0  0  0  0  0  0  0  0  0  0  0  0
  127.5799  121.3484   55.2457 H   0  0  0  0  0  0  0  0  0  0  0  0
  125.8766  121.8006   54.8976 H   0  0  0  0  0  0  0  0  0  0  0  0
  127.1580  123.0594   54.8976 H   0  0  0  0  0  0  0  0  0  0  0  0
  128.2929  124.2769   56.9212 H   0  0  0  0  0  0  0  0  0  0  0  0
  127.8511  126.5969   57.6721 H   0  0  0  0  0  0  0  0  0  0  0  0
  125.2933  127.2369   60.6011 H   0  0  0  0  0  0  0  0  0  0  0  0
  123.0078  130.7891   61.3110 H   0  0  0  0  0  0  0  0  0  0  0  0
  122.6456  131.2857   63.7162 H   0  0  0  0  0  0  0  0  0  0  0  0
  124.1555  129.9861   67.6784 H   0  0  0  0  0  0  0  0  0  0  0  0
  123.3210  128.8480   66.5672 H   0  0  0  0  0  0  0  0  0  0  0  0
  125.1143  128.9505   66.5672 H   0  0  0  0  0  0  0  0  0  0  0  0
  126.2200  129.0705   64.7141 H   0  0  0  0  0  0  0  0  0  0  0  0
  126.5813  128.5769   62.3059 H   0  0  0  0  0  0  0  0  0  0  0  0
  126.4365  129.3658   55.2193 H   0  0  0  0  0  0  0  0  0  0  0  0
  126.3134  130.9787   54.3445 H   0  0  0  0  0  0  0  0  0  0  0  0
  127.4000  132.7710   55.6660 H   0  0  0  0  0  0  0  0  0  0  0  0
  130.0641  131.3662   57.8082 H   0  0  0  0  0  0  0  0  0  0  0  0
  132.1360  133.0682   57.9041 H   0  0  0  0  0  0  0  0  0  0  0  0
  123.6971  125.6004   58.2951 H   0  0  0  0  0  0  0  0  0  0  0  0
  124.1384  123.2790   57.5504 H   0  0  0  0  0  0  0  0  0  0  0  0
  1  2  1  0
  2  3  1  0
  3  4  2  0
  4  5  1  0
  5  6  2  0
  6  7  1  0
  7  8  2  0
  8  9  1  0
  9 10  1  0
 10 11  2  0
 11 12  1  0
 12 13  2  0
 13 14  1  0
 14 15  1  0
 13 16  1  0
 16 17  2  0
  9 18  2  0
 18 19  1  0
 19 20  3  0
 18 21  1  0
 21 22  1  0
 22 23  1  0
 23 24  1  0
 24 25  2  0
 24 26  1  0
 26 27  1  0
 27 28  1  0
 28 29  2  0
 29 30  1  0
 30 31  1  0
 21 32  2  0
  6 33  1  0
 33 34  2  0
 34  3  1  0
 32  7  1  0
 17 10  1  0
 31 27  2  0
  1 35  1  0
  1 36  1  0
  1 37  1  0
  4 38  1  0
  5 39  1  0
  8 40  1  0
 11 41  1  0
 12 42  1  0
 15 43  1  0
 15 44  1  0
 15 45  1  0
 16 46  1  0
 17 47  1  0
 23 48  1  0
 23 49  1  0
 26 50  1  0
 28 51  1  0
 29 52  1  0
 33 53  1  0
 34 54  1  0
M  END
>  <Binding energies>  (1) 
[-9.22]

>  <Ligand effiencies>  (1) 
[-0.26342857142857146]

>  <Interactions>  (1) 
["V-B:ARG:545:CD:9894, V-B:ARG:545:CG:9893, V-B:ASP:366:CG:8183, V-B:TYR:531:CZ:9765, V-B:ASP:366:CB:8182, H-B:TYR:531:OH:9766, V-B:MET:535:CE:9806, H-B:TYR:539:N:9841, V-B:TYR:531:CE2:9764, V-B:LEU:363:CD1:8159, V-B:GLY:453:C:9012, V-B:ARG:545:CZ:9897, V-B:GLY:454:CA:9019, V-B:MET:535:CG:9804, V-B:TYR:539:CD1:9844, V-B:ILE:538:CD1:9836, V-B:ILE:538:CA:9831, H-B:TYR:484:OH:9318, H-A:TYR:531:OH:4794, V-A:PRO:540:CA:4882, V-A:TYR:539:CD1:4872, V-A:PRO:540:CD:4886, V-A:PRO:540:N:4883, V-A:TYR:539:C:4866, V-A:TYR:539:CE1:4874, H-A:TYR:539:N:4869, V-A:MET:535:CE:4834, V-B:ILE:538:C:9829, V-B:GLY:453:CA:9014, H-B:GLY:454:N:9020, V-A:TYR:539:CZ:4876, H-A:TYR:539:OH:4877"]

$$$$
1b_Grossjean_2025
     RDKit          3D

 42 43  0  0  0  0  0  0  0  0999 V2000
  124.6470  123.9390   58.0190 C   0  0  0  0  0  0  0  0  0  0  0  0
  125.5000  123.8580   56.8850 O   0  0  0  0  0  0  0  0  0  0  0  0
  126.4680  122.9090   56.8060 C   0  0  0  0  0  0  0  0  0  0  0  0
  126.3720  121.8960   56.1060 O   0  0  0  0  0  0  0  0  0  0  0  0
  127.6720  123.2170   57.6490 C   0  0  0  0  0  0  0  0  0  0  0  0
  127.9570  122.5050   58.8240 C   0  0  0  0  0  0  0  0  0  0  0  0
  129.0800  122.8160   59.5840 C   0  0  0  0  0  0  0  0  0  0  0  0
  129.9410  123.8410   59.1890 C   0  0  0  0  0  0  0  0  0  0  0  0
  131.0440  124.0690   60.0340 N   0  0  0  0  0  0  0  0  0  0  0  0
  132.3390  124.3020   59.7310 C   0  0  0  0  0  0  0  0  0  0  0  0
  132.8080  124.3650   58.5940 O   0  0  0  0  0  0  0  0  0  0  0  0
  133.2660  124.5110   60.9300 C   0  0  0  0  0  0  0  0  0  0  0  0
  133.7410  122.9390   61.7100 S   0  0  0  0  0  0  0  0  0  0  0  0
  132.2890  121.9110   61.7620 C   0  0  0  0  0  0  0  0  0  0  0  0
  131.2360  122.4850   62.3970 N   0  0  0  0  0  0  0  0  0  0  0  0
  130.0790  121.7900   62.4930 C   0  0  0  0  0  0  0  0  0  0  0  0
  128.9400  122.5000   63.2030 C   0  0  0  0  0  0  0  0  0  0  0  0
  129.9270  120.5060   61.9760 C   0  0  0  0  0  0  0  0  0  0  0  0
  131.0130  119.8980   61.3390 C   0  0  0  0  0  0  0  0  0  0  0  0
  130.8290  118.4820   60.7940 C   0  0  0  0  0  0  0  0  0  0  0  0
  132.2330  120.6030   61.2270 C   0  0  0  0  0  0  0  0  0  0  0  0
  133.3970  119.9700   60.6030 C   0  0  0  0  0  0  0  0  0  0  0  0
  134.3150  119.4670   60.1090 N   0  0  0  0  0  0  0  0  0  0  0  0
  129.6630  124.5570   58.0150 C   0  0  0  0  0  0  0  0  0  0  0  0
  128.5400  124.2450   57.2560 C   0  0  0  0  0  0  0  0  0  0  0  0
  125.2507  123.8817   58.9368 H   0  0  0  0  0  0  0  0  0  0  0  0
  124.1000  124.8931   57.9989 H   0  0  0  0  0  0  0  0  0  0  0  0
  123.9302  123.1049   57.9989 H   0  0  0  0  0  0  0  0  0  0  0  0
  127.2871  121.6944   59.1468 H   0  0  0  0  0  0  0  0  0  0  0  0
  129.2909  122.2498   60.5032 H   0  0  0  0  0  0  0  0  0  0  0  0
  130.8190  124.0380   61.0180 H   0  0  0  0  0  0  0  0  0  0  0  0
  134.1758  125.0269   60.5892 H   0  0  0  0  0  0  0  0  0  0  0  0
  132.7237  125.1093   61.6770 H   0  0  0  0  0  0  0  0  0  0  0  0
  129.0765  122.4149   64.2912 H   0  0  0  0  0  0  0  0  0  0  0  0
  128.9343  123.5619   62.9161 H   0  0  0  0  0  0  0  0  0  0  0  0
  127.9841  122.0375   62.9161 H   0  0  0  0  0  0  0  0  0  0  0  0
  128.9665  119.9777   62.0674 H   0  0  0  0  0  0  0  0  0  0  0  0
  130.7372  117.7756   61.6322 H   0  0  0  0  0  0  0  0  0  0  0  0
  129.9180  118.4414   60.1788 H   0  0  0  0  0  0  0  0  0  0  0  0
  131.6993  118.2099   60.1788 H   0  0  0  0  0  0  0  0  0  0  0  0
  130.3346  125.3669   57.6941 H   0  0  0  0  0  0  0  0  0  0  0  0
  128.3306  124.8116   56.3367 H   0  0  0  0  0  0  0  0  0  0  0  0
  1  2  1  0
  2  3  1  0
  3  4  2  0
  3  5  1  0
  5  6  2  0
  6  7  1  0
  7  8  2  0
  8  9  1  0
  9 10  1  0
 10 11  2  0
 10 12  1  0
 12 13  1  0
 13 14  1  0
 14 15  2  0
 15 16  1  0
 16 17  1  0
 16 18  2  0
 18 19  1  0
 19 20  1  0
 19 21  2  0
 21 22  1  0
 22 23  3  0
  8 24  1  0
 24 25  2  0
 25  5  1  0
 21 14  1  0
  1 26  1  0
  1 27  1  0
  1 28  1  0
  6 29  1  0
  7 30  1  0
  9 31  1  0
 12 32  1  0
 12 33  1  0
 17 34  1  0
 17 35  1  0
 17 36  1  0
 18 37  1  0
 20 38  1  0
 20 39  1  0
 20 40  1  0
 24 41  1  0
 25 42  1  0
M  END
>  <Binding energies>  (1) 
[-7.75]

>  <Ligand effiencies>  (1) 
[-0.2980769230769231]

>  <Interactions>  (1) 
["V-B:PRO:540:N:9855, H-B:TYR:531:OH:9766, V-B:PRO:540:CB:9856, V-B:TYR:539:CD2:9845, V-B:TYR:539:C:9838, V-B:MET:535:CE:9806, H-B:TYR:539:N:9841, V-B:PRO:540:CA:9854, V-B:LEU:363:CD1:8159, V-B:TYR:539:CE2:9847, V-A:LEU:475:CD2:4258, V-B:ALA:541:CB:9863, H-B:TYR:539:OH:9849, V-B:TYR:539:CZ:9848, V-A:ASP:366:CG:3212, V-A:ILE:369:CG2:3236, V-B:TYR:539:CB:9842, V-A:ILE:369:CD1:3238, V-A:ASP:366:CB:3211, V-A:SER:385:CA:3406, V-B:ALA:541:CA:9861"]

$$$$
1c_Ghoteimi_2023
     RDKit          3D

 54 57  0  0  0  0  0  0  0  0999 V2000
  123.3780  132.5750   61.5760 C   0  0  0  0  0  0  0  0  0  0  0  0
  123.5970  132.3530   60.1880 O   0  0  0  0  0  0  0  0  0  0  0  0
  124.0640  131.1230   59.7660 C   0  0  0  0  0  0  0  0  0  0  0  0
  124.6380  130.3060   60.7360 C   0  0  0  0  0  0  0  0  0  0  0  0
  125.1380  129.0500   60.4000 C   0  0  0  0  0  0  0  0  0  0  0  0
  125.0780  128.5750   59.0810 C   0  0  0  0  0  0  0  0  0  0  0  0
  125.6200  127.2240   58.7130 C   0  0  0  0  0  0  0  0  0  0  0  0
  126.9880  126.9730   58.5600 C   0  0  0  0  0  0  0  0  0  0  0  0
  127.4480  125.6900   58.2430 C   0  0  0  0  0  0  0  0  0  0  0  0
  128.9240  125.4800   58.1620 C   0  0  0  0  0  0  0  0  0  0  0  0
  129.5910  124.7320   59.1360 C   0  0  0  0  0  0  0  0  0  0  0  0
  130.9690  124.5550   59.0710 C   0  0  0  0  0  0  0  0  0  0  0  0
  131.7070  125.1260   58.0340 C   0  0  0  0  0  0  0  0  0  0  0  0
  133.0700  124.8980   58.0490 O   0  0  0  0  0  0  0  0  0  0  0  0
  133.6640  124.3110   59.2030 C   0  0  0  0  0  0  0  0  0  0  0  0
  131.0420  125.8830   57.0570 C   0  0  0  0  0  0  0  0  0  0  0  0
  129.6630  126.0580   57.1250 C   0  0  0  0  0  0  0  0  0  0  0  0
  126.4950  124.6610   58.0510 C   0  0  0  0  0  0  0  0  0  0  0  0
  126.9100  123.3030   57.6840 C   0  0  0  0  0  0  0  0  0  0  0  0
  127.2400  122.2320   57.3950 N   0  0  0  0  0  0  0  0  0  0  0  0
  125.1340  124.9790   58.2370 C   0  0  0  0  0  0  0  0  0  0  0  0
  123.8450  123.7520   58.1960 S   0  0  0  0  0  0  0  0  0  0  0  0
  123.0130  123.8950   59.8110 C   0  0  0  0  0  0  0  0  0  0  0  0
  123.9670  123.6220   60.9790 C   0  0  0  0  0  0  0  0  0  0  0  0
  123.7320  122.6910   61.7510 O   0  0  0  0  0  0  0  0  0  0  0  0
  125.0480  124.4300   61.0400 N   0  0  0  0  0  0  0  0  0  0  0  0
  126.1310  124.3000   61.8950 C   0  0  0  0  0  0  0  0  0  0  0  0
  126.5030  123.2360   62.5730 N   0  0  0  0  0  0  0  0  0  0  0  0
  127.6090  123.4600   63.2560 C   0  0  0  0  0  0  0  0  0  0  0  0
  128.1590  124.7320   63.1370 C   0  0  0  0  0  0  0  0  0  0  0  0
  127.1660  125.6810   62.0720 S   0  0  0  0  0  0  0  0  0  0  0  0
  124.7120  126.2230   58.5680 N   0  0  0  0  0  0  0  0  0  0  0  0
  124.4920  129.4040   58.1130 C   0  0  0  0  0  0  0  0  0  0  0  0
  123.9930  130.6600   58.4450 C   0  0  0  0  0  0  0  0  0  0  0  0
  124.0322  131.9119   62.1611 H   0  0  0  0  0  0  0  0  0  0  0  0
  123.6056  133.6231   61.8201 H   0  0  0  0  0  0  0  0  0  0  0  0
  122.3269  132.3616   61.8201 H   0  0  0  0  0  0  0  0  0  0  0  0
  124.6973  130.6554   61.7773 H   0  0  0  0  0  0  0  0  0  0  0  0
  125.5874  128.4200   61.1818 H   0  0  0  0  0  0  0  0  0  0  0  0
  127.7096  127.7930   58.6903 H   0  0  0  0  0  0  0  0  0  0  0  0
  129.0213  124.2794   59.9610 H   0  0  0  0  0  0  0  0  0  0  0  0
  131.4804  123.9607   59.8426 H   0  0  0  0  0  0  0  0  0  0  0  0
  133.2193  124.7505   60.1080 H   0  0  0  0  0  0  0  0  0  0  0  0
  133.4844  123.2258   59.1960 H   0  0  0  0  0  0  0  0  0  0  0  0
  134.7470  124.5035   59.1960 H   0  0  0  0  0  0  0  0  0  0  0  0
  131.6126  126.3395   56.2348 H   0  0  0  0  0  0  0  0  0  0  0  0
  129.1503  126.6557   56.3570 H   0  0  0  0  0  0  0  0  0  0  0  0
  122.6101  124.9134   59.9131 H   0  0  0  0  0  0  0  0  0  0  0  0
  122.2115  123.1424   59.8462 H   0  0  0  0  0  0  0  0  0  0  0  0
  125.1200  125.1620   60.3500 H   0  0  0  0  0  0  0  0  0  0  0  0
  128.0706  122.6842   63.8846 H   0  0  0  0  0  0  0  0  0  0  0  0
  129.0748  125.0811   63.6364 H   0  0  0  0  0  0  0  0  0  0  0  0
  124.4256  129.0548   57.0720 H   0  0  0  0  0  0  0  0  0  0  0  0
  123.5407  131.2924   57.6669 H   0  0  0  0  0  0  0  0  0  0  0  0
  1  2  1  0
  2  3  1  0
  3  4  2  0
  4  5  1  0
  5  6  2  0
  6  7  1  0
  7  8  2  0
  8  9  1  0
  9 10  1  0
 10 11  2  0
 11 12  1  0
 12 13  2  0
 13 14  1  0
 14 15  1  0
 13 16  1  0
 16 17  2  0
  9 18  2  0
 18 19  1  0
 19 20  3  0
 18 21  1  0
 21 22  1  0
 22 23  1  0
 23 24  1  0
 24 25  2  0
 24 26  1  0
 26 27  1  0
 27 28  2  0
 28 29  1  0
 29 30  2  0
 30 31  1  0
 21 32  2  0
  6 33  1  0
 33 34  2  0
 34  3  1  0
 32  7  1  0
 17 10  1  0
 31 27  1  0
  1 35  1  0
  1 36  1  0
  1 37  1  0
  4 38  1  0
  5 39  1  0
  8 40  1  0
 11 41  1  0
 12 42  1  0
 15 43  1  0
 15 44  1  0
 15 45  1  0
 16 46  1  0
 17 47  1  0
 23 48  1  0
 23 49  1  0
 26 50  1  0
 29 51  1  0
 30 52  1  0
 33 53  1  0
 34 54  1  0
M  END
>  <Binding energies>  (1) 
[-7.86]

>  <Ligand effiencies>  (1) 
[-0.2245714285714286]

>  <Interactions>  (1) 
["V-B:GLU:543:CD:9879, V-B:ASP:366:CG:8183, V-B:LEU:363:CB:8157, V-B:ASP:366:CB:8182, V-B:PRO:540:N:9855, V-B:LEU:363:CA:8155, H-B:TYR:531:OH:9766, V-B:PRO:540:CB:9856, V-B:MET:535:CE:9806, H-B:TYR:539:N:9841, V-B:PRO:540:CA:9854, V-B:LEU:363:CD1:8159, V-B:TYR:539:CE2:9847, V-A:ILE:369:CB:3235, V-B:ALA:541:CB:9863, H-B:TYR:539:OH:9849, V-B:TYR:539:CZ:9848, V-A:ASP:366:CG:3212, V-A:ILE:369:CG2:3236, V-A:ILE:369:CD1:3238, V-A:ASP:366:CB:3211, V-B:GLU:543:CG:9878, H-B:ASP:366:OD1:8184, H-B:ALA:541:N:9862, V-B:ASP:366:CA:8180, V-B:ILE:369:CG1:8208, V-B:ILE:369:CG2:8207, V-A:ASP:366:CA:3209, V-B:ASN:362:CB:8146, V-B:ASN:362:C:8142"]

$$$$
1c_Grossjean_2025
     RDKit          3D

 40 41  0  0  0  0  0  0  0  0999 V2000
  125.0510  122.2990   55.7060 C   0  0  0  0  0  0  0  0  0  0  0  0
  126.4180  122.0960   56.0460 O   0  0  0  0  0  0  0  0  0  0  0  0
  126.9000  122.6100   57.2350 C   0  0  0  0  0  0  0  0  0  0  0  0
  125.9730  123.2520   58.0560 C   0  0  0  0  0  0  0  0  0  0  0  0
  126.3620  123.8020   59.2740 C   0  0  0  0  0  0  0  0  0  0  0  0
  127.6980  123.7070   59.6920 C   0  0  0  0  0  0  0  0  0  0  0  0
  128.2000  124.2360   60.8970 N   0  0  0  0  0  0  0  0  0  0  0  0
  127.9760  123.8360   62.1670 C   0  0  0  0  0  0  0  0  0  0  0  0
  127.2730  122.8830   62.5030 O   0  0  0  0  0  0  0  0  0  0  0  0
  128.6800  124.6600   63.2470 C   0  0  0  0  0  0  0  0  0  0  0  0
  129.6260  123.6110   64.3900 S   0  0  0  0  0  0  0  0  0  0  0  0
  130.8440  122.7120   63.4510 C   0  0  0  0  0  0  0  0  0  0  0  0
  130.3320  121.6460   62.7840 N   0  0  0  0  0  0  0  0  0  0  0  0
  131.1640  120.8850   62.0350 C   0  0  0  0  0  0  0  0  0  0  0  0
  130.5180  119.7180   61.3120 C   0  0  0  0  0  0  0  0  0  0  0  0
  132.5280  121.1450   61.9280 C   0  0  0  0  0  0  0  0  0  0  0  0
  133.0710  122.2260   62.6300 C   0  0  0  0  0  0  0  0  0  0  0  0
  134.5720  122.4800   62.5100 C   0  0  0  0  0  0  0  0  0  0  0  0
  132.2210  123.0340   63.4210 C   0  0  0  0  0  0  0  0  0  0  0  0
  132.7800  124.1370   64.2060 C   0  0  0  0  0  0  0  0  0  0  0  0
  133.2220  125.0080   64.8250 N   0  0  0  0  0  0  0  0  0  0  0  0
  128.6300  123.0760   58.8680 C   0  0  0  0  0  0  0  0  0  0  0  0
  128.2380  122.5280   57.6500 C   0  0  0  0  0  0  0  0  0  0  0  0
  124.4537  122.3877   56.6255 H   0  0  0  0  0  0  0  0  0  0  0  0
  124.9533  123.2215   55.1149 H   0  0  0  0  0  0  0  0  0  0  0  0
  124.6894  121.4447   55.1149 H   0  0  0  0  0  0  0  0  0  0  0  0
  124.9227  123.3245   57.7373 H   0  0  0  0  0  0  0  0  0  0  0  0
  125.6220  124.3112   59.9089 H   0  0  0  0  0  0  0  0  0  0  0  0
  128.8570  124.9920   60.7770 H   0  0  0  0  0  0  0  0  0  0  0  0
  129.3680  125.3682   62.7621 H   0  0  0  0  0  0  0  0  0  0  0  0
  127.9104  125.1896   63.8278 H   0  0  0  0  0  0  0  0  0  0  0  0
  130.1225  119.0036   62.0490 H   0  0  0  0  0  0  0  0  0  0  0  0
  129.6958  120.0871   60.6814 H   0  0  0  0  0  0  0  0  0  0  0  0
  131.2673  119.2172   60.6814 H   0  0  0  0  0  0  0  0  0  0  0  0
  133.1694  120.5090   61.3001 H   0  0  0  0  0  0  0  0  0  0  0  0
  135.0128  122.5546   63.5151 H   0  0  0  0  0  0  0  0  0  0  0  0
  135.0421  121.6486   61.9642 H   0  0  0  0  0  0  0  0  0  0  0  0
  134.7424  123.4197   61.9642 H   0  0  0  0  0  0  0  0  0  0  0  0
  129.6820  123.0110   59.1829 H   0  0  0  0  0  0  0  0  0  0  0  0
  128.9802  122.0285   57.0100 H   0  0  0  0  0  0  0  0  0  0  0  0
  1  2  1  0
  2  3  1  0
  3  4  2  0
  4  5  1  0
  5  6  2  0
  6  7  1  0
  7  8  1  0
  8  9  2  0
  8 10  1  0
 10 11  1  0
 11 12  1  0
 12 13  2  0
 13 14  1  0
 14 15  1  0
 14 16  2  0
 16 17  1  0
 17 18  1  0
 17 19  2  0
 19 20  1  0
 20 21  3  0
  6 22  1  0
 22 23  2  0
 23  3  1  0
 19 12  1  0
  1 24  1  0
  1 25  1  0
  1 26  1  0
  4 27  1  0
  5 28  1  0
  7 29  1  0
 10 30  1  0
 10 31  1  0
 15 32  1  0
 15 33  1  0
 15 34  1  0
 16 35  1  0
 18 36  1  0
 18 37  1  0
 18 38  1  0
 22 39  1  0
 23 40  1  0
M  END
>  <Binding energies>  (1) 
[-7.28]

>  <Ligand effiencies>  (1) 
[-0.30333333333333334]

>  <Interactions>  (1) 
["V-B:GLU:543:CD:9879, V-B:PRO:540:N:9855, V-B:PRO:540:CB:9856, V-B:TYR:539:CD2:9845, V-B:TYR:539:C:9838, V-B:MET:535:CE:9806, H-B:TYR:539:N:9841, V-B:TYR:531:CE2:9764, V-B:PRO:540:CA:9854, V-B:LEU:363:CD1:8159, V-B:TYR:539:CE2:9847, V-A:LEU:475:CD2:4258, V-B:ILE:538:CB:9833, V-B:ALA:541:CB:9863, V-B:TYR:539:CZ:9848, V-B:TYR:539:CE1:9846, V-B:TYR:539:CA:9840, V-B:TYR:539:CD1:9844, V-B:ILE:538:CD1:9836, V-B:TYR:539:CG:9843, V-B:ILE:538:CG2:9834, V-A:ILE:369:CD1:3238, V-B:ILE:538:CA:9831, V-A:GLY:454:CA:4048, H-A:TYR:484:OH:4347, H-A:GLY:454:N:4049, V-B:PRO:540:CD:9858, H-B:ALA:541:N:9862, V-A:GLY:453:C:4041, V-A:SER:385:C:3404"]

$$$$
1d_Ghoteimi_2023
     RDKit          3D

 50 52  0  0  0  0  0  0  0  0999 V2000
  124.6130  129.2950   64.4550 C   0  0  0  0  0  0  0  0  0  0  0  0
  124.0740  130.0510   65.5280 O   0  0  0  0  0  0  0  0  0  0  0  0
  123.9420  129.5020   66.7540 C   0  0  0  0  0  0  0  0  0  0  0  0
  123.0000  129.6700   67.5300 O   0  0  0  0  0  0  0  0  0  0  0  0
  125.1260  128.6110   67.1210 C   0  0  0  0  0  0  0  0  0  0  0  0
  126.6410  129.5880   66.8820 S   0  0  0  0  0  0  0  0  0  0  0  0
  128.0060  128.5640   67.3870 C   0  0  0  0  0  0  0  0  0  0  0  0
  128.0470  128.3280   68.7200 N   0  0  0  0  0  0  0  0  0  0  0  0
  129.0400  127.5640   69.2420 C   0  0  0  0  0  0  0  0  0  0  0  0
  129.0100  127.3470   70.7270 C   0  0  0  0  0  0  0  0  0  0  0  0
  129.7120  128.1910   71.6020 C   0  0  0  0  0  0  0  0  0  0  0  0
  129.6880  127.9830   72.9780 C   0  0  0  0  0  0  0  0  0  0  0  0
  128.9640  126.9260   73.5230 C   0  0  0  0  0  0  0  0  0  0  0  0
  129.0000  126.7940   74.8980 O   0  0  0  0  0  0  0  0  0  0  0  0
  130.2240  127.0270   75.5850 C   0  0  0  0  0  0  0  0  0  0  0  0
  128.2570  126.0740   72.6630 C   0  0  0  0  0  0  0  0  0  0  0  0
  128.2830  126.2850   71.2870 C   0  0  0  0  0  0  0  0  0  0  0  0
  130.0210  127.0060   68.4140 C   0  0  0  0  0  0  0  0  0  0  0  0
  130.0110  127.2460   67.0340 C   0  0  0  0  0  0  0  0  0  0  0  0
  131.0930  126.6260   66.2100 C   0  0  0  0  0  0  0  0  0  0  0  0
  132.3910  126.5180   66.7180 C   0  0  0  0  0  0  0  0  0  0  0  0
  133.4030  125.9410   65.9550 C   0  0  0  0  0  0  0  0  0  0  0  0
  133.1380  125.4560   64.6750 C   0  0  0  0  0  0  0  0  0  0  0  0
  134.2040  124.9060   63.9890 O   0  0  0  0  0  0  0  0  0  0  0  0
  133.9990  124.4040   62.6730 C   0  0  0  0  0  0  0  0  0  0  0  0
  131.8330  125.5500   64.1660 C   0  0  0  0  0  0  0  0  0  0  0  0
  130.8230  126.1270   64.9310 C   0  0  0  0  0  0  0  0  0  0  0  0
  128.9870  128.0670   66.4990 C   0  0  0  0  0  0  0  0  0  0  0  0
  128.9880  128.4360   65.0810 C   0  0  0  0  0  0  0  0  0  0  0  0
  128.9900  128.7260   63.9600 N   0  0  0  0  0  0  0  0  0  0  0  0
  125.2076  128.4611   64.8563 H   0  0  0  0  0  0  0  0  0  0  0  0
  123.7933  128.8975   63.8384 H   0  0  0  0  0  0  0  0  0  0  0  0
  125.2560  129.9403   63.8384 H   0  0  0  0  0  0  0  0  0  0  0  0
  125.0457  128.2936   68.1711 H   0  0  0  0  0  0  0  0  0  0  0  0
  125.1428  127.7100   66.4901 H   0  0  0  0  0  0  0  0  0  0  0  0
  130.2914  129.0318   71.1928 H   0  0  0  0  0  0  0  0  0  0  0  0
  130.2463  128.6601   73.6412 H   0  0  0  0  0  0  0  0  0  0  0  0
  130.0475  126.9934   76.6702 H   0  0  0  0  0  0  0  0  0  0  0  0
  130.9533  126.2516   75.3079 H   0  0  0  0  0  0  0  0  0  0  0  0
  130.6174  128.0162   75.3079 H   0  0  0  0  0  0  0  0  0  0  0  0
  127.6790  125.2348   73.0773 H   0  0  0  0  0  0  0  0  0  0  0  0
  127.7232  125.6066   70.6263 H   0  0  0  0  0  0  0  0  0  0  0  0
  130.8073  126.3730   68.8512 H   0  0  0  0  0  0  0  0  0  0  0  0
  132.6146  126.8917   67.7281 H   0  0  0  0  0  0  0  0  0  0  0  0
  134.4207  125.8672   66.3659 H   0  0  0  0  0  0  0  0  0  0  0  0
  133.5837  123.3870   62.7291 H   0  0  0  0  0  0  0  0  0  0  0  0
  133.2960  125.0581   62.1364 H   0  0  0  0  0  0  0  0  0  0  0  0
  134.9589  124.3790   62.1364 H   0  0  0  0  0  0  0  0  0  0  0  0
  131.6079  125.1667   63.1598 H   0  0  0  0  0  0  0  0  0  0  0  0
  129.8024  126.1912   64.5258 H   0  0  0  0  0  0  0  0  0  0  0  0
  1  2  1  0
  2  3  1  0
  3  4  2  0
  3  5  1  0
  5  6  1  0
  6  7  1  0
  7  8  2  0
  8  9  1  0
  9 10  1  0
 10 11  2  0
 11 12  1  0
 12 13  2  0
 13 14  1  0
 14 15  1  0
 13 16  1  0
 16 17  2  0
  9 18  2  0
 18 19  1  0
 19 20  1  0
 20 21  2  0
 21 22  1  0
 22 23  2  0
 23 24  1  0
 24 25  1  0
 23 26  1  0
 26 27  2  0
 19 28  2  0
 28 29  1  0
 29 30  3  0
 28  7  1  0
 17 10  1  0
 27 20  1  0
  1 31  1  0
  1 32  1  0
  1 33  1  0
  5 34  1  0
  5 35  1  0
 11 36  1  0
 12 37  1  0
 15 38  1  0
 15 39  1  0
 15 40  1  0
 16 41  1  0
 17 42  1  0
 18 43  1  0
 21 44  1  0
 22 45  1  0
 25 46  1  0
 25 47  1  0
 25 48  1  0
 26 49  1  0
 27 50  1  0
M  END
>  <Binding energies>  (1) 
[-8.11]

>  <Ligand effiencies>  (1) 
[-0.2703333333333333]

>  <Interactions>  (1) 
["V-A:HIS:456:CE1:4069, V-B:GLU:543:C:9873, V-B:ARG:545:CD:9894, V-B:GLU:543:CD:9879, V-B:HIS:456:CE1:9040, V-B:ARG:545:CG:9893, V-A:ARG:545:CZ:4925, V-A:ARG:545:CD:4922, V-A:ARG:545:CG:4921, V-B:ARG:545:CZ:9897, H-B:LYS:547:NZ:9922, V-A:ASP:366:CG:3212, V-A:ILE:369:CD1:3238, V-A:GLU:543:CD:4907, H-B:TYR:484:OH:9318, H-A:GLY:454:N:4049, H-B:GLY:454:N:9020, H-A:ARG:545:NH1:4926, H-B:ILE:455:N:9025"]

$$$$
1d_Grossjean_2025
     RDKit          3D

 36 37  0  0  0  0  0  0  0  0999 V2000
  124.1340  123.2520   63.2430 C   0  0  0  0  0  0  0  0  0  0  0  0
  124.7640  123.3910   61.8710 C   0  0  0  0  0  0  0  0  0  0  0  0
  123.9960  123.6510   60.7380 C   0  0  0  0  0  0  0  0  0  0  0  0
  124.6330  123.7800   59.4990 C   0  0  0  0  0  0  0  0  0  0  0  0
  123.7720  124.0810   58.2740 C   0  0  0  0  0  0  0  0  0  0  0  0
  126.0380  123.6350   59.4260 C   0  0  0  0  0  0  0  0  0  0  0  0
  126.7310  123.8130   58.1480 C   0  0  0  0  0  0  0  0  0  0  0  0
  127.2760  123.9550   57.1370 N   0  0  0  0  0  0  0  0  0  0  0  0
  126.7340  123.3470   60.6230 C   0  0  0  0  0  0  0  0  0  0  0  0
  128.4980  123.1320   60.7140 S   0  0  0  0  0  0  0  0  0  0  0  0
  128.8980  122.6460   62.4200 C   0  0  0  0  0  0  0  0  0  0  0  0
  130.0330  121.6220   62.4770 C   0  0  0  0  0  0  0  0  0  0  0  0
  130.9220  121.7570   63.3170 O   0  0  0  0  0  0  0  0  0  0  0  0
  129.9440  120.6120   61.5850 N   0  0  0  0  0  0  0  0  0  0  0  0
  130.8140  119.5290   61.3600 C   0  0  0  0  0  0  0  0  0  0  0  0
  130.2880  118.2620   61.6290 C   0  0  0  0  0  0  0  0  0  0  0  0
  131.0630  117.1230   61.4340 C   0  0  0  0  0  0  0  0  0  0  0  0
  132.3670  117.2480   60.9620 C   0  0  0  0  0  0  0  0  0  0  0  0
  132.9010  118.5030   60.6810 C   0  0  0  0  0  0  0  0  0  0  0  0
  132.1290  119.6450   60.8760 C   0  0  0  0  0  0  0  0  0  0  0  0
  126.1090  123.2450   61.8230 N   0  0  0  0  0  0  0  0  0  0  0  0
  124.8981  123.4206   64.0161 H   0  0  0  0  0  0  0  0  0  0  0  0
  123.3299  123.9943   63.3542 H   0  0  0  0  0  0  0  0  0  0  0  0
  123.7169  122.2402   63.3542 H   0  0  0  0  0  0  0  0  0  0  0  0
  122.9036  123.7535   60.8165 H   0  0  0  0  0  0  0  0  0  0  0  0
  122.7801  124.4278   58.5993 H   0  0  0  0  0  0  0  0  0  0  0  0
  124.2543  124.8638   57.6702 H   0  0  0  0  0  0  0  0  0  0  0  0
  123.6615  123.1682   57.6702 H   0  0  0  0  0  0  0  0  0  0  0  0
  129.2003  123.5419   62.9821 H   0  0  0  0  0  0  0  0  0  0  0  0
  128.0020  122.1824   62.8584 H   0  0  0  0  0  0  0  0  0  0  0  0
  129.1270  120.6130   60.9920 H   0  0  0  0  0  0  0  0  0  0  0  0
  129.2559  118.1650   61.9968 H   0  0  0  0  0  0  0  0  0  0  0  0
  130.6474  116.1281   61.6518 H   0  0  0  0  0  0  0  0  0  0  0  0
  132.9805  116.3478   60.8098 H   0  0  0  0  0  0  0  0  0  0  0  0
  133.9311  118.5919   60.3056 H   0  0  0  0  0  0  0  0  0  0  0  0
  132.5475  120.6372   60.6516 H   0  0  0  0  0  0  0  0  0  0  0  0
  1  2  1  0
  2  3  2  0
  3  4  1  0
  4  5  1  0
  4  6  2  0
  6  7  1  0
  7  8  3  0
  6  9  1  0
  9 10  1  0
 10 11  1  0
 11 12  1  0
 12 13  2  0
 12 14  1  0
 14 15  1  0
 15 16  2  0
 16 17  1  0
 17 18  2  0
 18 19  1  0
 19 20  2  0
  9 21  2  0
 21  2  1  0
 20 15  1  0
  1 22  1  0
  1 23  1  0
  1 24  1  0
  3 25  1  0
  5 26  1  0
  5 27  1  0
  5 28  1  0
 11 29  1  0
 11 30  1  0
 14 31  1  0
 16 32  1  0
 17 33  1  0
 18 34  1  0
 19 35  1  0
 20 36  1  0
M  END
>  <Binding energies>  (1) 
[-7.93]

>  <Ligand effiencies>  (1) 
[-0.3604545454545454]

>  <Interactions>  (1) 
["V-B:ASP:366:CG:8183, V-B:LEU:363:CA:8155, H-B:TYR:531:OH:9766, V-B:PRO:540:CB:9856, V-B:TYR:539:CD2:9845, V-B:PRO:540:CA:9854, V-B:LEU:363:CD1:8159, V-B:TYR:539:CE2:9847, V-B:ARG:545:CZ:9897, V-A:LEU:475:CD2:4258, V-A:PRO:482:CG:4326, V-B:ALA:541:CB:9863, V-A:SER:385:CB:3408, V-A:THR:477:CG2:4272, V-A:HIS:383:CE1:3393, V-A:PRO:482:CB:4325, V-A:SER:385:CA:3406, V-B:ALA:541:C:9859, H-B:ALA:541:N:9862, V-B:PRO:540:C:9852, V-B:ASN:362:CB:8146, H-B:TYR:539:O:9839, V-B:ASN:362:CG:8147"]

$$$$
1e_Grossjean_2025
     RDKit          3D

 38 39  0  0  0  0  0  0  0  0999 V2000
  123.7580  123.9980   58.4290 C   0  0  0  0  0  0  0  0  0  0  0  0
  125.0810  123.4450   57.9330 C   0  0  0  0  0  0  0  0  0  0  0  0
  125.2310  122.9700   56.6270 C   0  0  0  0  0  0  0  0  0  0  0  0
  126.4770  122.4740   56.2420 C   0  0  0  0  0  0  0  0  0  0  0  0
  127.5300  122.4630   57.1590 C   0  0  0  0  0  0  0  0  0  0  0  0
  127.3120  122.9580   58.4500 C   0  0  0  0  0  0  0  0  0  0  0  0
  128.4060  122.9100   59.3320 N   0  0  0  0  0  0  0  0  0  0  0  0
  128.3960  122.7970   60.6790 C   0  0  0  0  0  0  0  0  0  0  0  0
  127.3820  122.7270   61.3740 O   0  0  0  0  0  0  0  0  0  0  0  0
  129.7680  122.7890   61.3560 C   0  0  0  0  0  0  0  0  0  0  0  0
  129.9930  121.3310   62.4190 S   0  0  0  0  0  0  0  0  0  0  0  0
  130.8160  120.0610   61.4780 C   0  0  0  0  0  0  0  0  0  0  0  0
  130.1010  118.9100   61.3840 N   0  0  0  0  0  0  0  0  0  0  0  0
  130.6250  117.8700   60.6940 C   0  0  0  0  0  0  0  0  0  0  0  0
  129.7660  116.6230   60.6260 C   0  0  0  0  0  0  0  0  0  0  0  0
  131.8770  117.9280   60.0850 C   0  0  0  0  0  0  0  0  0  0  0  0
  132.6330  119.0990   60.1960 C   0  0  0  0  0  0  0  0  0  0  0  0
  134.0100  119.1300   59.5350 C   0  0  0  0  0  0  0  0  0  0  0  0
  132.1070  120.1970   60.9150 C   0  0  0  0  0  0  0  0  0  0  0  0
  132.9110  121.4090   61.0900 C   0  0  0  0  0  0  0  0  0  0  0  0
  133.5470  122.3660   61.2270 N   0  0  0  0  0  0  0  0  0  0  0  0
  126.0940  123.4410   58.8350 N   0  0  0  0  0  0  0  0  0  0  0  0
  123.7511  124.0009   59.5290 H   0  0  0  0  0  0  0  0  0  0  0  0
  123.6283  125.0257   58.0588 H   0  0  0  0  0  0  0  0  0  0  0  0
  122.9355  123.3683   58.0588 H   0  0  0  0  0  0  0  0  0  0  0  0
  124.3880  122.9868   55.9206 H   0  0  0  0  0  0  0  0  0  0  0  0
  126.6291  122.0935   55.2212 H   0  0  0  0  0  0  0  0  0  0  0  0
  128.5166  122.0710   56.8710 H   0  0  0  0  0  0  0  0  0  0  0  0
  129.3080  123.0270   58.8940 H   0  0  0  0  0  0  0  0  0  0  0  0
  130.5473  122.7864   60.5797 H   0  0  0  0  0  0  0  0  0  0  0  0
  129.8405  123.6859   61.9887 H   0  0  0  0  0  0  0  0  0  0  0  0
  129.5318  116.2830   61.6456 H   0  0  0  0  0  0  0  0  0  0  0  0
  128.8318  116.8500   60.0915 H   0  0  0  0  0  0  0  0  0  0  0  0
  130.3110  115.8310   60.0915 H   0  0  0  0  0  0  0  0  0  0  0  0
  132.2652  117.0646   59.5247 H   0  0  0  0  0  0  0  0  0  0  0  0
  134.7891  119.1475   60.3114 H   0  0  0  0  0  0  0  0  0  0  0  0
  134.1364  118.2345   58.9089 H   0  0  0  0  0  0  0  0  0  0  0  0
  134.0960  120.0303   58.9089 H   0  0  0  0  0  0  0  0  0  0  0  0
  1  2  1  0
  2  3  2  0
  3  4  1  0
  4  5  2  0
  5  6  1  0
  6  7  1  0
  7  8  1  0
  8  9  2  0
  8 10  1  0
 10 11  1  0
 11 12  1  0
 12 13  2  0
 13 14  1  0
 14 15  1  0
 14 16  2  0
 16 17  1  0
 17 18  1  0
 17 19  2  0
 19 20  1  0
 20 21  3  0
  6 22  2  0
 22  2  1  0
 19 12  1  0
  1 23  1  0
  1 24  1  0
  1 25  1  0
  3 26  1  0
  4 27  1  0
  5 28  1  0
  7 29  1  0
 10 30  1  0
 10 31  1  0
 15 32  1  0
 15 33  1  0
 15 34  1  0
 16 35  1  0
 18 36  1  0
 18 37  1  0
 18 38  1  0
M  END
>  <Binding energies>  (1) 
[-8.09]

>  <Ligand effiencies>  (1) 
[-0.3517391304347826]

>  <Interactions>  (1) 
["V-B:LEU:363:CB:8157, V-B:PRO:540:N:9855, V-B:LEU:363:CA:8155, V-B:PRO:540:CB:9856, V-B:TYR:539:CD2:9845, V-B:TYR:539:C:9838, V-B:MET:535:CE:9806, V-B:TYR:531:CE2:9764, V-B:PRO:540:CA:9854, V-B:LEU:363:CD1:8159, V-B:TYR:539:CE2:9847, V-A:LEU:475:CD2:4258, V-A:PRO:482:CG:4326, V-B:ALA:541:CB:9863, V-B:VAL:344:CG1:7971, V-B:TYR:539:CA:9840, V-B:TYR:539:CD1:9844, V-A:ILE:369:CG2:3236, V-B:TYR:539:CB:9842, V-B:TYR:539:CG:9843, V-A:HIS:383:CE1:3393, V-A:PRO:482:CB:4325, V-B:ILE:538:CA:9831, V-A:SER:385:CA:3406, V-B:PRO:540:CD:9858, H-B:ALA:541:N:9862, V-A:LEU:373:CD2:3280, V-A:VAL:384:C:3396"]

$$$$
1f_Grossjean_2025
     RDKit          3D

 35 36  0  0  0  0  0  0  0  0999 V2000
  129.7080  116.8100   60.5900 C   0  0  0  0  0  0  0  0  0  0  0  0
  130.6340  118.0050   60.7120 C   0  0  0  0  0  0  0  0  0  0  0  0
  131.8920  118.0170   60.1140 C   0  0  0  0  0  0  0  0  0  0  0  0
  132.7070  119.1430   60.2710 C   0  0  0  0  0  0  0  0  0  0  0  0
  134.0900  119.1250   59.6210 C   0  0  0  0  0  0  0  0  0  0  0  0
  132.2330  120.2420   61.0230 C   0  0  0  0  0  0  0  0  0  0  0  0
  133.0940  121.4070   61.2450 C   0  0  0  0  0  0  0  0  0  0  0  0
  133.7750  122.3250   61.4190 N   0  0  0  0  0  0  0  0  0  0  0  0
  130.9310  120.1540   61.5710 C   0  0  0  0  0  0  0  0  0  0  0  0
  130.1660  121.4350   62.5440 S   0  0  0  0  0  0  0  0  0  0  0  0
  129.7720  122.8380   61.4440 C   0  0  0  0  0  0  0  0  0  0  0  0
  128.4340  122.7180   60.6990 C   0  0  0  0  0  0  0  0  0  0  0  0
  127.3910  122.5040   61.3180 O   0  0  0  0  0  0  0  0  0  0  0  0
  128.5260  122.8410   59.3580 N   0  0  0  0  0  0  0  0  0  0  0  0
  127.5140  122.7930   58.3800 C   0  0  0  0  0  0  0  0  0  0  0  0
  126.2070  123.2950   58.5270 C   0  0  0  0  0  0  0  0  0  0  0  0
  125.3010  123.1830   57.4690 C   0  0  0  0  0  0  0  0  0  0  0  0
  125.7250  122.5760   56.2870 C   0  0  0  0  0  0  0  0  0  0  0  0
  126.9800  122.0890   56.1180 N   0  0  0  0  0  0  0  0  0  0  0  0
  127.8490  122.2050   57.1550 C   0  0  0  0  0  0  0  0  0  0  0  0
  130.1580  119.0480   61.4330 N   0  0  0  0  0  0  0  0  0  0  0  0
  129.4330  116.4552   61.5942 H   0  0  0  0  0  0  0  0  0  0  0  0
  128.7997  117.1042   60.0436 H   0  0  0  0  0  0  0  0  0  0  0  0
  130.2196  116.0039   60.0436 H   0  0  0  0  0  0  0  0  0  0  0  0
  132.2393  117.1539   59.5271 H   0  0  0  0  0  0  0  0  0  0  0  0
  134.8629  119.1149   60.4037 H   0  0  0  0  0  0  0  0  0  0  0  0
  134.1896  118.2255   58.9957 H   0  0  0  0  0  0  0  0  0  0  0  0
  134.2130  120.0216   58.9957 H   0  0  0  0  0  0  0  0  0  0  0  0
  129.7430  123.7530   62.0538 H   0  0  0  0  0  0  0  0  0  0  0  0
  130.5553  122.8549   60.6719 H   0  0  0  0  0  0  0  0  0  0  0  0
  129.4550  122.9730   58.9860 H   0  0  0  0  0  0  0  0  0  0  0  0
  125.9007  123.7727   59.4693 H   0  0  0  0  0  0  0  0  0  0  0  0
  124.2743  123.5658   57.5664 H   0  0  0  0  0  0  0  0  0  0  0  0
  125.0105  122.4883   55.4553 H   0  0  0  0  0  0  0  0  0  0  0  0
  128.8699  121.8164   57.0254 H   0  0  0  0  0  0  0  0  0  0  0  0
  1  2  1  0
  2  3  2  0
  3  4  1  0
  4  5  1  0
  4  6  2  0
  6  7  1  0
  7  8  3  0
  6  9  1  0
  9 10  1  0
 10 11  1  0
 11 12  1  0
 12 13  2  0
 12 14  1  0
 14 15  1  0
 15 16  2  0
 16 17  1  0
 17 18  2  0
 18 19  1  0
 19 20  2  0
  9 21  2  0
 21  2  1  0
 20 15  1  0
  1 22  1  0
  1 23  1  0
  1 24  1  0
  3 25  1  0
  5 26  1  0
  5 27  1  0
  5 28  1  0
 11 29  1  0
 11 30  1  0
 14 31  1  0
 16 32  1  0
 17 33  1  0
 18 34  1  0
 20 35  1  0
M  END
>  <Binding energies>  (1) 
[-8.16]

>  <Ligand effiencies>  (1) 
[-0.3709090909090909]

>  <Interactions>  (1) 
["V-B:PRO:540:N:9855, V-B:PRO:540:CB:9856, V-B:TYR:539:CD2:9845, V-B:TYR:539:C:9838, V-B:MET:535:CE:9806, H-B:TYR:539:N:9841, V-B:PRO:540:CA:9854, V-B:LEU:363:CD1:8159, V-B:TYR:539:CE2:9847, V-A:LEU:475:CD2:4258, V-A:PRO:482:CG:4326, V-B:ALA:541:CB:9863, V-B:TYR:539:CZ:9848, V-B:VAL:344:CG1:7971, V-B:TYR:539:CE1:9846, V-B:TYR:539:CA:9840, V-B:TYR:539:CD1:9844, V-A:ILE:369:CG2:3236, V-B:TYR:539:CB:9842, V-B:TYR:539:CG:9843, V-A:HIS:383:CE1:3393, V-A:PRO:482:CB:4325, V-A:SER:385:CA:3406, V-B:PRO:540:CD:9858, H-B:ALA:541:N:9862, V-A:LEU:373:CD2:3280, H-B:TYR:539:O:9839, V-A:VAL:384:C:3396"]

$$$$
1g_Grossjean_2025
     RDKit          3D

 39 40  0  0  0  0  0  0  0  0999 V2000
  130.7610  126.9150   67.2030 C   0  0  0  0  0  0  0  0  0  0  0  0
  131.2620  125.9160   66.1770 C   0  0  0  0  0  0  0  0  0  0  0  0
  132.4300  126.1400   65.4510 C   0  0  0  0  0  0  0  0  0  0  0  0
  132.8340  125.1900   64.5060 C   0  0  0  0  0  0  0  0  0  0  0  0
  134.1100  125.4640   63.7110 C   0  0  0  0  0  0  0  0  0  0  0  0
  132.0550  124.0260   64.3180 C   0  0  0  0  0  0  0  0  0  0  0  0
  132.4310  123.0440   63.2980 C   0  0  0  0  0  0  0  0  0  0  0  0
  132.7300  122.2710   62.4900 N   0  0  0  0  0  0  0  0  0  0  0  0
  130.8990  123.8700   65.1170 C   0  0  0  0  0  0  0  0  0  0  0  0
  129.8120  122.4660   65.0190 S   0  0  0  0  0  0  0  0  0  0  0  0
  128.4750  122.8980   63.8650 C   0  0  0  0  0  0  0  0  0  0  0  0
  128.6960  122.2910   62.4790 C   0  0  0  0  0  0  0  0  0  0  0  0
  127.7800  122.2870   61.6540 O   0  0  0  0  0  0  0  0  0  0  0  0
  129.9150  121.7770   62.2420 N   0  0  0  0  0  0  0  0  0  0  0  0
  130.3610  121.2020   60.9730 C   0  0  0  0  0  0  0  0  0  0  0  0
  130.9720  119.8090   61.0950 C   0  0  0  0  0  0  0  0  0  0  0  0
  130.2160  118.7600   61.6280 C   0  0  0  0  0  0  0  0  0  0  0  0
  130.7730  117.4890   61.7380 C   0  0  0  0  0  0  0  0  0  0  0  0
  132.0810  117.2690   61.3110 C   0  0  0  0  0  0  0  0  0  0  0  0
  132.8370  118.3090   60.7750 C   0  0  0  0  0  0  0  0  0  0  0  0
  132.2820  119.5810   60.6650 C   0  0  0  0  0  0  0  0  0  0  0  0
  130.5010  124.8070   66.0150 N   0  0  0  0  0  0  0  0  0  0  0  0
  130.9543  126.5295   68.2149 H   0  0  0  0  0  0  0  0  0  0  0  0
  131.2856  127.8725   67.0690 H   0  0  0  0  0  0  0  0  0  0  0  0
  129.6799  127.0673   67.0690 H   0  0  0  0  0  0  0  0  0  0  0  0
  133.0255  127.0497   65.6181 H   0  0  0  0  0  0  0  0  0  0  0  0
  134.9437  125.6430   64.4060 H   0  0  0  0  0  0  0  0  0  0  0  0
  134.3410  124.5950   63.0774 H   0  0  0  0  0  0  0  0  0  0  0  0
  133.9638  126.3512   63.0774 H   0  0  0  0  0  0  0  0  0  0  0  0
  127.5227  122.5239   64.2688 H   0  0  0  0  0  0  0  0  0  0  0  0
  128.4592  123.9927   63.7579 H   0  0  0  0  0  0  0  0  0  0  0  0
  130.6130  121.8410   62.9690 H   0  0  0  0  0  0  0  0  0  0  0  0
  129.4937  121.1400   60.2992 H   0  0  0  0  0  0  0  0  0  0  0  0
  131.1538  121.8613   60.5898 H   0  0  0  0  0  0  0  0  0  0  0  0
  129.1826  118.9391   61.9598 H   0  0  0  0  0  0  0  0  0  0  0  0
  130.1832  116.6620   62.1601 H   0  0  0  0  0  0  0  0  0  0  0  0
  132.5208  116.2645   61.3980 H   0  0  0  0  0  0  0  0  0  0  0  0
  133.8686  118.1259   60.4399 H   0  0  0  0  0  0  0  0  0  0  0  0
  132.8737  120.4053   60.2403 H   0  0  0  0  0  0  0  0  0  0  0  0
  1  2  1  0
  2  3  2  0
  3  4  1  0
  4  5  1  0
  4  6  2  0
  6  7  1  0
  7  8  3  0
  6  9  1  0
  9 10  1  0
 10 11  1  0
 11 12  1  0
 12 13  2  0
 12 14  1  0
 14 15  1  0
 15 16  1  0
 16 17  2  0
 17 18  1  0
 18 19  2  0
 19 20  1  0
 20 21  2  0
  9 22  2  0
 22  2  1  0
 21 16  1  0
  1 23  1  0
  1 24  1  0
  1 25  1  0
  3 26  1  0
  5 27  1  0
  5 28  1  0
  5 29  1  0
 11 30  1  0
 11 31  1  0
 14 32  1  0
 15 33  1  0
 15 34  1  0
 17 35  1  0
 18 36  1  0
 19 37  1  0
 20 38  1  0
 21 39  1  0
M  END
>  <Binding energies>  (1) 
[-7.02]

>  <Ligand effiencies>  (1) 
[-0.30521739130434783]

>  <Interactions>  (1) 
["V-A:HIS:456:CE1:4069, V-B:GLU:543:CD:9879, V-A:ARG:545:CZ:4925, V-A:TYR:484:CZ:4346, V-B:TYR:539:CD2:9845, V-B:TYR:539:CE2:9847, V-A:LEU:475:CD2:4258, V-A:PRO:482:CG:4326, V-B:ALA:541:CB:9863, V-A:ASP:366:CG:3212, V-A:SER:385:CB:3408, V-A:THR:477:CG2:4272, V-A:HIS:383:CE1:3393, V-A:PRO:482:CB:4325, V-A:GLU:543:CD:4907, V-A:SER:385:CA:3406, H-A:TYR:484:OH:4347, V-B:GLU:543:CG:9878, V-A:TYR:484:CE2:4345, H-B:ALA:541:N:9862, V-B:ALA:541:CA:9861, V-A:GLY:453:C:4041, V-A:GLY:453:CA:4043"]

$$$$
1h_Grossjean_2025
     RDKit          3D

 51 52  0  0  0  0  0  0  0  0999 V2000
  133.0860  131.5630   61.6750 C   0  0  0  0  0  0  0  0  0  0  0  0
  132.9200  131.4530   60.2660 O   0  0  0  0  0  0  0  0  0  0  0  0
  131.8100  132.0220   59.6670 C   0  0  0  0  0  0  0  0  0  0  0  0
  130.5350  132.0580   60.2530 C   0  0  0  0  0  0  0  0  0  0  0  0
  129.4570  132.6370   59.5840 C   0  0  0  0  0  0  0  0  0  0  0  0
  128.0810  132.6900   60.2420 C   0  0  0  0  0  0  0  0  0  0  0  0
  128.1180  132.9880   61.6740 N   0  0  0  0  0  0  0  0  0  0  0  0
  128.4110  132.1030   62.6450 C   0  0  0  0  0  0  0  0  0  0  0  0
  128.7100  130.9290   62.4310 O   0  0  0  0  0  0  0  0  0  0  0  0
  128.3500  132.6230   64.0810 C   0  0  0  0  0  0  0  0  0  0  0  0
  126.6570  132.5920   64.7450 S   0  0  0  0  0  0  0  0  0  0  0  0
  125.5240  132.8250   63.3840 C   0  0  0  0  0  0  0  0  0  0  0  0
  125.8000  133.8690   62.5590 N   0  0  0  0  0  0  0  0  0  0  0  0
  124.9840  134.1000   61.5050 C   0  0  0  0  0  0  0  0  0  0  0  0
  125.3590  135.2800   60.6280 C   0  0  0  0  0  0  0  0  0  0  0  0
  123.8680  133.3120   61.2300 C   0  0  0  0  0  0  0  0  0  0  0  0
  123.5720  132.2350   62.0730 C   0  0  0  0  0  0  0  0  0  0  0  0
  122.3470  131.3830   61.7530 C   0  0  0  0  0  0  0  0  0  0  0  0
  124.4120  131.9760   63.1810 C   0  0  0  0  0  0  0  0  0  0  0  0
  124.1250  130.8570   64.0820 C   0  0  0  0  0  0  0  0  0  0  0  0
  123.8980  129.9730   64.7940 N   0  0  0  0  0  0  0  0  0  0  0  0
  129.6560  133.2190   58.3310 C   0  0  0  0  0  0  0  0  0  0  0  0
  130.9210  133.2030   57.7230 C   0  0  0  0  0  0  0  0  0  0  0  0
  131.1900  133.7580   56.4850 O   0  0  0  0  0  0  0  0  0  0  0  0
  130.4350  133.3410   55.3530 C   0  0  0  0  0  0  0  0  0  0  0  0
  131.9880  132.5910   58.3970 C   0  0  0  0  0  0  0  0  0  0  0  0
  133.2330  132.5720   57.8170 O   0  0  0  0  0  0  0  0  0  0  0  0
  133.7470  131.2670   57.5930 C   0  0  0  0  0  0  0  0  0  0  0  0
  132.2728  131.0241   62.1832 H   0  0  0  0  0  0  0  0  0  0  0  0
  134.0529  131.1263   61.9655 H   0  0  0  0  0  0  0  0  0  0  0  0
  133.0607  132.6236   61.9655 H   0  0  0  0  0  0  0  0  0  0  0  0
  130.3842  131.6241   61.2525 H   0  0  0  0  0  0  0  0  0  0  0  0
  127.4879  133.4696   59.7415 H   0  0  0  0  0  0  0  0  0  0  0  0
  127.6386  131.6885   60.1363 H   0  0  0  0  0  0  0  0  0  0  0  0
  127.8700  133.9300   61.9390 H   0  0  0  0  0  0  0  0  0  0  0  0
  128.9916  131.9929   64.7145 H   0  0  0  0  0  0  0  0  0  0  0  0
  128.6954  133.6674   64.0793 H   0  0  0  0  0  0  0  0  0  0  0  0
  125.6312  136.1364   61.2624 H   0  0  0  0  0  0  0  0  0  0  0  0
  126.2148  135.0075   59.9929 H   0  0  0  0  0  0  0  0  0  0  0  0
  124.5029  135.5515   59.9929 H   0  0  0  0  0  0  0  0  0  0  0  0
  123.2288  133.5335   60.3626 H   0  0  0  0  0  0  0  0  0  0  0  0
  121.8741  131.0541   62.6902 H   0  0  0  0  0  0  0  0  0  0  0  0
  121.6291  131.9777   61.1691 H   0  0  0  0  0  0  0  0  0  0  0  0
  122.6548  130.5030   61.1691 H   0  0  0  0  0  0  0  0  0  0  0  0
  128.8108  133.6962   57.8135 H   0  0  0  0  0  0  0  0  0  0  0  0
  129.5184  132.8347   55.6899 H   0  0  0  0  0  0  0  0  0  0  0  0
  130.1673  134.2192   54.7471 H   0  0  0  0  0  0  0  0  0  0  0  0
  131.0358  132.6468   54.7471 H   0  0  0  0  0  0  0  0  0  0  0  0
  133.9396  130.7779   58.5593 H   0  0  0  0  0  0  0  0  0  0  0  0
  133.0141  130.6771   57.0231 H   0  0  0  0  0  0  0  0  0  0  0  0
  134.6854  131.3353   57.0231 H   0  0  0  0  0  0  0  0  0  0  0  0
  1  2  1  0
  2  3  1  0
  3  4  2  0
  4  5  1  0
  5  6  1  0
  6  7  1  0
  7  8  1  0
  8  9  2  0
  8 10  1  0
 10 11  1  0
 11 12  1  0
 12 13  2  0
 13 14  1  0
 14 15  1  0
 14 16  2  0
 16 17  1  0
 17 18  1  0
 17 19  2  0
 19 20  1  0
 20 21  3  0
  5 22  2  0
 22 23  1  0
 23 24  1  0
 24 25  1  0
 23 26  2  0
 26 27  1  0
 27 28  1  0
 26  3  1  0
 19 12  1  0
  1 29  1  0
  1 30  1  0
  1 31  1  0
  4 32  1  0
  6 33  1  0
  6 34  1  0
  7 35  1  0
 10 36  1  0
 10 37  1  0
 15 38  1  0
 15 39  1  0
 15 40  1  0
 16 41  1  0
 18 42  1  0
 18 43  1  0
 18 44  1  0
 22 45  1  0
 25 46  1  0
 25 47  1  0
 25 48  1  0
 28 49  1  0
 28 50  1  0
 28 51  1  0
M  END
>  <Binding energies>  (1) 
[-6.67]

>  <Ligand effiencies>  (1) 
[-0.23]

>  <Interactions>  (1) 
["V-B:LEU:475:CD1:9228, V-B:GLY:454:CA:9019, V-A:GLU:543:CG:4906, H-B:TYR:484:OH:9318, V-A:ASN:362:C:3171, V-A:TYR:531:CE2:4792, V-A:LEU:363:CA:3184, V-A:LEU:363:CD1:3188, V-A:PRO:540:CA:4882, V-A:TYR:531:CZ:4793, V-A:TYR:539:CD1:4872, V-A:PRO:540:CD:4886, V-A:ASN:362:CB:3175, V-A:ILE:538:CG2:4862, V-A:PRO:540:N:4883, V-A:PRO:540:CB:4884, V-A:TYR:539:C:4866, V-A:TYR:539:CE1:4874, H-A:TYR:539:N:4869, V-A:ILE:538:CB:4861, V-A:ILE:538:CA:4859, H-A:TYR:539:O:4867, V-A:ALA:541:CB:4891, H-B:GLY:454:N:9020, V-B:ILE:369:CG1:8208, V-B:ILE:369:CG2:8207, V-B:ILE:369:CB:8206, V-B:SER:385:CB:8379"]

$$$$
1i_Grossjean_2025
     RDKit          3D

 32 33  0  0  0  0  0  0  0  0999 V2000
  129.7930  116.7550   60.6900 C   0  0  0  0  0  0  0  0  0  0  0  0
  130.6770  117.9840   60.7800 C   0  0  0  0  0  0  0  0  0  0  0  0
  131.9690  117.9940   60.2580 C   0  0  0  0  0  0  0  0  0  0  0  0
  132.7350  119.1600   60.3600 C   0  0  0  0  0  0  0  0  0  0  0  0
  134.1420  119.1520   59.7650 C   0  0  0  0  0  0  0  0  0  0  0  0
  132.1830  120.2970   60.9960 C   0  0  0  0  0  0  0  0  0  0  0  0
  132.9490  121.5430   61.0700 C   0  0  0  0  0  0  0  0  0  0  0  0
  133.5550  122.5280   61.1260 N   0  0  0  0  0  0  0  0  0  0  0  0
  130.8730  120.1880   61.5190 C   0  0  0  0  0  0  0  0  0  0  0  0
  130.0260  121.5150   62.3490 S   0  0  0  0  0  0  0  0  0  0  0  0
  129.7810  122.8510   61.1410 C   0  0  0  0  0  0  0  0  0  0  0  0
  128.4810  122.6820   60.3510 C   0  0  0  0  0  0  0  0  0  0  0  0
  127.4260  122.4970   60.9590 O   0  0  0  0  0  0  0  0  0  0  0  0
  128.6020  122.7570   59.0070 N   0  0  0  0  0  0  0  0  0  0  0  0
  127.5920  122.6340   58.0640 C   0  0  0  0  0  0  0  0  0  0  0  0
  126.3230  123.1860   58.2330 C   0  0  0  0  0  0  0  0  0  0  0  0
  125.6310  122.8450   57.0940 C   0  0  0  0  0  0  0  0  0  0  0  0
  126.4400  122.1240   56.2820 O   0  0  0  0  0  0  0  0  0  0  0  0
  127.6810  121.9950   56.9090 N   0  0  0  0  0  0  0  0  0  0  0  0
  130.1300  119.0590   61.3960 N   0  0  0  0  0  0  0  0  0  0  0  0
  129.5433  116.4079   61.7035 H   0  0  0  0  0  0  0  0  0  0  0  0
  128.8681  117.0073   60.1506 H   0  0  0  0  0  0  0  0  0  0  0  0
  130.3264  115.9584   60.1506 H   0  0  0  0  0  0  0  0  0  0  0  0
  132.3809  117.0971   59.7723 H   0  0  0  0  0  0  0  0  0  0  0  0
  134.8836  119.1478   60.5774 H   0  0  0  0  0  0  0  0  0  0  0  0
  134.2726  118.2531   59.1446 H   0  0  0  0  0  0  0  0  0  0  0  0
  134.2829  120.0494   59.1446 H   0  0  0  0  0  0  0  0  0  0  0  0
  129.7485  123.8115   61.6762 H   0  0  0  0  0  0  0  0  0  0  0  0
  130.6175  122.8198   60.4273 H   0  0  0  0  0  0  0  0  0  0  0  0
  129.5320  122.8830   58.6320 H   0  0  0  0  0  0  0  0  0  0  0  0
  125.9550  123.7679   59.0909 H   0  0  0  0  0  0  0  0  0  0  0  0
  124.5869  123.1150   56.8774 H   0  0  0  0  0  0  0  0  0  0  0  0
  1  2  1  0
  2  3  2  0
  3  4  1  0
  4  5  1  0
  4  6  2  0
  6  7  1  0
  7  8  3  0
  6  9  1  0
  9 10  1  0
 10 11  1  0
 11 12  1  0
 12 13  2  0
 12 14  1  0
 14 15  1  0
 15 16  1  0
 16 17  2  0
 17 18  1  0
 18 19  1  0
  9 20  2  0
 20  2  1  0
 19 15  2  0
  1 21  1  0
  1 22  1  0
  1 23  1  0
  3 24  1  0
  5 25  1  0
  5 26  1  0
  5 27  1  0
 11 28  1  0
 11 29  1  0
 14 30  1  0
 16 31  1  0
 17 32  1  0
M  END
>  <Binding energies>  (1) 
[-7.85]

>  <Ligand effiencies>  (1) 
[-0.3738095238095238]

>  <Interactions>  (1) 
["V-B:PRO:540:N:9855, V-B:PRO:540:CB:9856, V-B:TYR:539:CD2:9845, V-B:TYR:539:C:9838, H-B:TYR:539:N:9841, V-B:PRO:540:CA:9854, V-B:LEU:363:CD1:8159, V-B:TYR:539:CE2:9847, V-A:LEU:475:CD2:4258, V-A:PRO:482:CG:4326, V-B:ALA:541:CB:9863, V-B:VAL:344:CG1:7971, V-A:ILE:369:CG2:3236, V-B:TYR:539:CB:9842, V-A:HIS:383:CE1:3393, V-A:PRO:482:CB:4325, V-A:SER:385:CA:3406, V-B:PRO:540:CD:9858, H-B:ALA:541:N:9862, V-A:LEU:373:CD2:3280, H-B:TYR:539:O:9839, V-A:VAL:384:C:3396"]

$$$$
1j_Grossjean_2025
     RDKit          3D

 32 33  0  0  0  0  0  0  0  0999 V2000
  124.5600  123.5480   63.2580 C   0  0  0  0  0  0  0  0  0  0  0  0
  125.0900  123.5640   61.8360 C   0  0  0  0  0  0  0  0  0  0  0  0
  124.2670  123.8690   60.7550 C   0  0  0  0  0  0  0  0  0  0  0  0
  124.8140  123.8810   59.4680 C   0  0  0  0  0  0  0  0  0  0  0  0
  123.8950  124.2350   58.2990 C   0  0  0  0  0  0  0  0  0  0  0  0
  126.1830  123.5770   59.2960 C   0  0  0  0  0  0  0  0  0  0  0  0
  126.7880  123.6360   57.9630 C   0  0  0  0  0  0  0  0  0  0  0  0
  127.2640  123.6840   56.9090 N   0  0  0  0  0  0  0  0  0  0  0  0
  126.9370  123.2540   60.4480 C   0  0  0  0  0  0  0  0  0  0  0  0
  128.6690  122.8440   60.4160 S   0  0  0  0  0  0  0  0  0  0  0  0
  129.1880  122.5050   62.1250 C   0  0  0  0  0  0  0  0  0  0  0  0
  130.2090  121.3680   62.2000 C   0  0  0  0  0  0  0  0  0  0  0  0
  131.2420  121.5260   62.8510 O   0  0  0  0  0  0  0  0  0  0  0  0
  129.8810  120.2450   61.5240 N   0  0  0  0  0  0  0  0  0  0  0  0
  130.6360  119.0840   61.4300 C   0  0  0  0  0  0  0  0  0  0  0  0
  130.3200  117.8800   61.8560 N   0  0  0  0  0  0  0  0  0  0  0  0
  131.2770  117.0100   61.5990 C   0  0  0  0  0  0  0  0  0  0  0  0
  132.4020  117.5060   60.9480 C   0  0  0  0  0  0  0  0  0  0  0  0
  132.1850  119.2070   60.6600 S   0  0  0  0  0  0  0  0  0  0  0  0
  126.4030  123.2650   61.6950 N   0  0  0  0  0  0  0  0  0  0  0  0
  125.4032  123.5735   63.9639 H   0  0  0  0  0  0  0  0  0  0  0  0
  123.9192  124.4272   63.4204 H   0  0  0  0  0  0  0  0  0  0  0  0
  123.9734  122.6317   63.4204 H   0  0  0  0  0  0  0  0  0  0  0  0
  123.2023  124.0971   60.9111 H   0  0  0  0  0  0  0  0  0  0  0  0
  122.9344  124.6050   58.6868 H   0  0  0  0  0  0  0  0  0  0  0  0
  124.3675  125.0155   57.6845 H   0  0  0  0  0  0  0  0  0  0  0  0
  123.7218  123.3393   57.6845 H   0  0  0  0  0  0  0  0  0  0  0  0
  129.6391  123.4155   62.5462 H   0  0  0  0  0  0  0  0  0  0  0  0
  128.2984  122.2005   62.6958 H   0  0  0  0  0  0  0  0  0  0  0  0
  129.0150  120.2480   61.0050 H   0  0  0  0  0  0  0  0  0  0  0  0
  131.1906  115.9510   61.8835 H   0  0  0  0  0  0  0  0  0  0  0  0
  133.2860  116.9172   60.6617 H   0  0  0  0  0  0  0  0  0  0  0  0
  1  2  1  0
  2  3  2  0
  3  4  1  0
  4  5  1  0
  4  6  2  0
  6  7  1  0
  7  8  3  0
  6  9  1  0
  9 10  1  0
 10 11  1  0
 11 12  1  0
 12 13  2  0
 12 14  1  0
 14 15  1  0
 15 16  2  0
 16 17  1  0
 17 18  2  0
 18 19  1  0
  9 20  2  0
 20  2  1  0
 19 15  1  0
  1 21  1  0
  1 22  1  0
  1 23  1  0
  3 24  1  0
  5 25  1  0
  5 26  1  0
  5 27  1  0
 11 28  1  0
 11 29  1  0
 14 30  1  0
 17 31  1  0
 18 32  1  0
M  END
>  <Binding energies>  (1) 
[-7.1]

>  <Ligand effiencies>  (1) 
[-0.33809523809523806]

>  <Interactions>  (1) 
["V-B:GLU:543:CD:9879, V-B:ASP:366:CG:8183, V-B:ASP:366:CB:8182, V-B:PRO:540:N:9855, V-B:LEU:363:CA:8155, H-B:TYR:531:OH:9766, V-B:PRO:540:CB:9856, V-B:TYR:539:CD2:9845, V-B:TYR:539:C:9838, V-B:PRO:540:CA:9854, V-B:LEU:363:CD1:8159, V-B:ARG:545:CZ:9897, V-A:LEU:475:CD2:4258, V-A:PRO:482:CG:4326, V-B:ALA:541:CB:9863, V-A:SER:385:CB:3408, V-A:HIS:383:CE1:3393, V-A:PRO:482:CB:4325, V-A:SER:385:CA:3406, V-B:ALA:541:C:9859, V-B:GLU:543:CG:9878, H-B:ALA:541:N:9862, V-B:PRO:540:C:9852, V-B:ASN:362:CB:8146, H-B:TYR:539:O:9839"]

$$$$
1k_Grossjean_2025
     RDKit          3D

 50 50  0  0  0  0  0  0  0  0999 V2000
  132.6050  124.6970   59.3040 C   0  0  0  0  0  0  0  0  0  0  0  0
  133.1780  124.7620   58.0080 O   0  0  0  0  0  0  0  0  0  0  0  0
  132.7710  125.9040   57.2650 C   0  0  0  0  0  0  0  0  0  0  0  0
  131.3090  126.2340   57.5930 C   0  0  0  0  0  0  0  0  0  0  0  0
  130.9020  127.3720   56.8440 O   0  0  0  0  0  0  0  0  0  0  0  0
  129.6460  127.9020   57.2470 C   0  0  0  0  0  0  0  0  0  0  0  0
  129.0140  128.6630   56.0740 C   0  0  0  0  0  0  0  0  0  0  0  0
  128.7650  130.0080   56.4610 O   0  0  0  0  0  0  0  0  0  0  0  0
  128.4000  130.8550   55.3790 C   0  0  0  0  0  0  0  0  0  0  0  0
  129.2080  132.1640   55.4530 C   0  0  0  0  0  0  0  0  0  0  0  0
  130.4650  132.0470   56.1940 N   0  0  0  0  0  0  0  0  0  0  0  0
  131.3990  133.0090   56.2930 C   0  0  0  0  0  0  0  0  0  0  0  0
  131.2850  134.1150   55.7600 O   0  0  0  0  0  0  0  0  0  0  0  0
  132.6420  132.6430   57.1180 C   0  0  0  0  0  0  0  0  0  0  0  0
  132.4410  131.2410   58.2710 S   0  0  0  0  0  0  0  0  0  0  0  0
  131.0200  131.5380   59.3140 C   0  0  0  0  0  0  0  0  0  0  0  0
  129.8070  131.3850   58.7210 N   0  0  0  0  0  0  0  0  0  0  0  0
  128.6900  131.6040   59.4510 C   0  0  0  0  0  0  0  0  0  0  0  0
  127.3760  131.4230   58.7160 C   0  0  0  0  0  0  0  0  0  0  0  0
  128.7310  131.9730   60.7940 C   0  0  0  0  0  0  0  0  0  0  0  0
  129.9730  132.1260   61.4190 C   0  0  0  0  0  0  0  0  0  0  0  0
  129.9950  132.5310   62.8910 C   0  0  0  0  0  0  0  0  0  0  0  0
  131.1520  131.9060   60.6720 C   0  0  0  0  0  0  0  0  0  0  0  0
  132.4670  132.0630   61.3000 C   0  0  0  0  0  0  0  0  0  0  0  0
  133.5050  132.1870   61.7970 N   0  0  0  0  0  0  0  0  0  0  0  0
  133.3984  124.7870   60.0606 H   0  0  0  0  0  0  0  0  0  0  0  0
  131.8849  125.5192   59.4282 H   0  0  0  0  0  0  0  0  0  0  0  0
  132.0874  123.7344   59.4282 H   0  0  0  0  0  0  0  0  0  0  0  0
  133.4085  126.7603   57.5304 H   0  0  0  0  0  0  0  0  0  0  0  0
  132.8669  125.6945   56.1894 H   0  0  0  0  0  0  0  0  0  0  0  0
  130.6718  125.3761   57.3324 H   0  0  0  0  0  0  0  0  0  0  0  0
  131.2129  126.4480   58.6677 H   0  0  0  0  0  0  0  0  0  0  0  0
  128.9816  127.0800   57.5518 H   0  0  0  0  0  0  0  0  0  0  0  0
  129.7915  128.5881   58.0944 H   0  0  0  0  0  0  0  0  0  0  0  0
  129.7014  128.6498   55.2154 H   0  0  0  0  0  0  0  0  0  0  0  0
  128.0662  128.1810   55.7923 H   0  0  0  0  0  0  0  0  0  0  0  0
  128.6136  130.3461   54.4275 H   0  0  0  0  0  0  0  0  0  0  0  0
  127.3260  131.0844   55.4406 H   0  0  0  0  0  0  0  0  0  0  0  0
  129.4400  132.4857   54.4270 H   0  0  0  0  0  0  0  0  0  0  0  0
  128.5859  132.8917   55.9947 H   0  0  0  0  0  0  0  0  0  0  0  0
  130.6290  131.1650   56.6570 H   0  0  0  0  0  0  0  0  0  0  0  0
  133.4511  132.3908   56.4167 H   0  0  0  0  0  0  0  0  0  0  0  0
  132.8545  133.5205   57.7464 H   0  0  0  0  0  0  0  0  0  0  0  0
  126.5603  131.3106   59.4454 H   0  0  0  0  0  0  0  0  0  0  0  0
  127.1847  132.3033   58.0847 H   0  0  0  0  0  0  0  0  0  0  0  0
  127.4298  130.5238   58.0847 H   0  0  0  0  0  0  0  0  0  0  0  0
  127.7998  132.1416   61.3548 H   0  0  0  0  0  0  0  0  0  0  0  0
  129.9461  131.6299   63.5200 H   0  0  0  0  0  0  0  0  0  0  0  0
  130.9242  133.0787   63.1067 H   0  0  0  0  0  0  0  0  0  0  0  0
  129.1306  133.1762   63.1067 H   0  0  0  0  0  0  0  0  0  0  0  0
  1  2  1  0
  2  3  1  0
  3  4  1  0
  4  5  1  0
  5  6  1  0
  6  7  1  0
  7  8  1  0
  8  9  1  0
  9 10  1  0
 10 11  1  0
 11 12  1  0
 12 13  2  0
 12 14  1  0
 14 15  1  0
 15 16  1  0
 16 17  2  0
 17 18  1  0
 18 19  1  0
 18 20  2  0
 20 21  1  0
 21 22  1  0
 21 23  2  0
 23 24  1  0
 24 25  3  0
 23 16  1  0
  1 26  1  0
  1 27  1  0
  1 28  1  0
  3 29  1  0
  3 30  1  0
  4 31  1  0
  4 32  1  0
  6 33  1  0
  6 34  1  0
  7 35  1  0
  7 36  1  0
  9 37  1  0
  9 38  1  0
 10 39  1  0
 10 40  1  0
 11 41  1  0
 14 42  1  0
 14 43  1  0
 19 44  1  0
 19 45  1  0
 19 46  1  0
 20 47  1  0
 22 48  1  0
 22 49  1  0
 22 50  1  0
M  END
>  <Binding energies>  (1) 
[-5.79]

>  <Ligand effiencies>  (1) 
[-0.2226923076923077]

>  <Interactions>  (1) 
["V-B:TYR:539:CE2:9847, H-B:TYR:539:OH:9849, V-A:ASP:366:CG:3212, V-A:GLU:543:CD:4907, V-A:GLU:543:CG:4906, V-A:ASP:366:CB:3211, V-A:TYR:531:CE2:4792, H-A:TYR:531:OH:4794, V-A:LEU:363:CD1:3188, V-A:PRO:540:CA:4882, V-A:TYR:531:CZ:4793, V-A:PRO:540:CB:4884, V-A:TYR:539:CE1:4874, H-A:TYR:539:N:4869, V-A:ASP:366:C:3207, V-A:MET:535:CE:4834, V-A:ALA:541:CB:4891, V-A:TYR:539:CZ:4876, V-A:ALA:541:CA:4889, V-A:ASP:366:CA:3209"]

$$$$
1l_Grossjean_2025
     RDKit          3D

 30 30  0  0  0  0  0  0  0  0999 V2000
  124.8800  122.4120   56.3900 C   0  0  0  0  0  0  0  0  0  0  0  0
  125.8490  123.1790   55.6900 O   0  0  0  0  0  0  0  0  0  0  0  0
  126.7610  123.7290   56.5900 N   0  0  0  0  0  0  0  0  0  0  0  0
  127.6480  122.9180   57.1990 C   0  0  0  0  0  0  0  0  0  0  0  0
  127.8630  121.7540   56.8490 O   0  0  0  0  0  0  0  0  0  0  0  0
  128.4070  123.5480   58.3750 C   0  0  0  0  0  0  0  0  0  0  0  0
  127.5770  124.9750   59.1530 S   0  0  0  0  0  0  0  0  0  0  0  0
  125.8580  124.5560   59.3920 C   0  0  0  0  0  0  0  0  0  0  0  0
  125.0190  124.9110   58.3840 N   0  0  0  0  0  0  0  0  0  0  0  0
  123.7010  124.6240   58.5000 C   0  0  0  0  0  0  0  0  0  0  0  0
  122.8290  125.0510   57.3350 C   0  0  0  0  0  0  0  0  0  0  0  0
  123.1680  123.9780   59.6120 C   0  0  0  0  0  0  0  0  0  0  0  0
  124.0220  123.6060   60.6560 C   0  0  0  0  0  0  0  0  0  0  0  0
  123.4150  122.8960   61.8650 C   0  0  0  0  0  0  0  0  0  0  0  0
  125.4000  123.8960   60.5560 C   0  0  0  0  0  0  0  0  0  0  0  0
  126.3190  123.5180   61.6350 C   0  0  0  0  0  0  0  0  0  0  0  0
  127.0420  123.2190   62.4860 N   0  0  0  0  0  0  0  0  0  0  0  0
  125.0306  122.5312   57.4731 H   0  0  0  0  0  0  0  0  0  0  0  0
  123.8720  122.7596   56.1195 H   0  0  0  0  0  0  0  0  0  0  0  0
  124.9869  121.3511   56.1195 H   0  0  0  0  0  0  0  0  0  0  0  0
  126.4300  124.5970   56.9860 H   0  0  0  0  0  0  0  0  0  0  0  0
  128.5478  122.7742   59.1440 H   0  0  0  0  0  0  0  0  0  0  0  0
  129.3521  123.9300   57.9616 H   0  0  0  0  0  0  0  0  0  0  0  0
  121.9027  125.5046   57.7173 H   0  0  0  0  0  0  0  0  0  0  0  0
  123.3709  125.7857   56.7213 H   0  0  0  0  0  0  0  0  0  0  0  0
  122.5809  124.1724   56.7213 H   0  0  0  0  0  0  0  0  0  0  0  0
  122.0907  123.7631   59.6691 H   0  0  0  0  0  0  0  0  0  0  0  0
  123.8026  123.3494   62.7892 H   0  0  0  0  0  0  0  0  0  0  0  0
  122.3200  122.9973   61.8381 H   0  0  0  0  0  0  0  0  0  0  0  0
  123.6853  121.8301   61.8381 H   0  0  0  0  0  0  0  0  0  0  0  0
  1  2  1  0
  2  3  1  0
  3  4  1  0
  4  5  2  0
  4  6  1  0
  6  7  1  0
  7  8  1  0
  8  9  2  0
  9 10  1  0
 10 11  1  0
 10 12  2  0
 12 13  1  0
 13 14  1  0
 13 15  2  0
 15 16  1  0
 16 17  3  0
 15  8  1  0
  1 18  1  0
  1 19  1  0
  1 20  1  0
  3 21  1  0
  6 22  1  0
  6 23  1  0
 11 24  1  0
 11 25  1  0
 11 26  1  0
 12 27  1  0
 14 28  1  0
 14 29  1  0
 14 30  1  0
M  END
>  <Binding energies>  (1) 
[-6.33]

>  <Ligand effiencies>  (1) 
[-0.3516666666666667]

>  <Interactions>  (1) 
["V-B:ASP:366:CG:8183, V-B:LEU:363:CB:8157, V-B:TYR:531:CZ:9765, V-B:ASP:366:CB:8182, V-B:PRO:540:N:9855, V-B:LEU:363:CA:8155, H-B:TYR:531:OH:9766, V-B:PRO:540:CB:9856, V-B:TYR:539:CD2:9845, V-B:TYR:539:C:9838, V-B:MET:535:CE:9806, H-B:TYR:539:N:9841, V-B:TYR:531:CE2:9764, V-B:PRO:540:CA:9854, V-B:LEU:363:CD1:8159, V-B:TYR:539:CE2:9847, V-B:TYR:539:CZ:9848, V-B:ILE:538:CD1:9836, V-B:ILE:538:CG2:9834, V-B:PRO:540:CG:9857, V-B:PRO:540:CD:9858, H-B:ALA:541:N:9862, V-B:ASN:362:CB:8146, V-B:ASN:362:CG:8147, V-B:ASN:362:C:8142, V-B:LEU:363:C:8153, V-B:TYR:531:CD2:9762"]

$$$$
1m_Grossjean_2025
     RDKit          3D

 35 35  0  0  0  0  0  0  0  0999 V2000
  129.7450  116.9030   60.6250 C   0  0  0  0  0  0  0  0  0  0  0  0
  130.5280  117.7550   59.8020 O   0  0  0  0  0  0  0  0  0  0  0  0
  131.8400  117.9410   60.0580 C   0  0  0  0  0  0  0  0  0  0  0  0
  132.7630  117.2550   59.6080 O   0  0  0  0  0  0  0  0  0  0  0  0
  132.0680  119.1450   60.9950 C   0  0  0  0  0  0  0  0  0  0  0  0
  130.9080  120.0470   61.0570 N   0  0  0  0  0  0  0  0  0  0  0  0
  130.8190  121.1620   61.8070 C   0  0  0  0  0  0  0  0  0  0  0  0
  131.7220  121.5420   62.5550 O   0  0  0  0  0  0  0  0  0  0  0  0
  129.5020  121.9390   61.6830 C   0  0  0  0  0  0  0  0  0  0  0  0
  128.9580  122.2470   59.9680 S   0  0  0  0  0  0  0  0  0  0  0  0
  127.3170  122.9350   60.0260 C   0  0  0  0  0  0  0  0  0  0  0  0
  126.8830  123.1970   61.2850 N   0  0  0  0  0  0  0  0  0  0  0  0
  125.6500  123.7280   61.4520 C   0  0  0  0  0  0  0  0  0  0  0  0
  125.2420  124.0110   62.8850 C   0  0  0  0  0  0  0  0  0  0  0  0
  124.8000  124.0070   60.3830 C   0  0  0  0  0  0  0  0  0  0  0  0
  125.2270  123.7160   59.0830 C   0  0  0  0  0  0  0  0  0  0  0  0
  124.2730  124.0160   57.9280 C   0  0  0  0  0  0  0  0  0  0  0  0
  126.5110  123.1600   58.8840 C   0  0  0  0  0  0  0  0  0  0  0  0
  126.9580  122.8020   57.5360 C   0  0  0  0  0  0  0  0  0  0  0  0
  127.3100  122.5210   56.4710 N   0  0  0  0  0  0  0  0  0  0  0  0
  129.9495  117.1256   61.6826 H   0  0  0  0  0  0  0  0  0  0  0  0
  128.6781  117.0694   60.4149 H   0  0  0  0  0  0  0  0  0  0  0  0
  130.0007  115.8540   60.4149 H   0  0  0  0  0  0  0  0  0  0  0  0
  132.2746  118.7681   62.0076 H   0  0  0  0  0  0  0  0  0  0  0  0
  132.9145  119.7214   60.5934 H   0  0  0  0  0  0  0  0  0  0  0  0
  130.1140  119.7870   60.4900 H   0  0  0  0  0  0  0  0  0  0  0  0
  128.7155  121.3644   62.1942 H   0  0  0  0  0  0  0  0  0  0  0  0
  129.6793  122.9260   62.1351 H   0  0  0  0  0  0  0  0  0  0  0  0
  125.9486  123.5209   63.5710 H   0  0  0  0  0  0  0  0  0  0  0  0
  125.2527  125.0967   63.0617 H   0  0  0  0  0  0  0  0  0  0  0  0
  124.2289  123.6207   63.0617 H   0  0  0  0  0  0  0  0  0  0  0  0
  123.8084  124.4493   60.5590 H   0  0  0  0  0  0  0  0  0  0  0  0
  123.2961  124.3232   58.3297 H   0  0  0  0  0  0  0  0  0  0  0  0
  124.6874  124.8272   57.3114 H   0  0  0  0  0  0  0  0  0  0  0  0
  124.1486  123.1136   57.3114 H   0  0  0  0  0  0  0  0  0  0  0  0
  1  2  1  0
  2  3  1  0
  3  4  2  0
  3  5  1  0
  5  6  1  0
  6  7  1  0
  7  8  2  0
  7  9  1  0
  9 10  1  0
 10 11  1  0
 11 12  2  0
 12 13  1  0
 13 14  1  0
 13 15  2  0
 15 16  1  0
 16 17  1  0
 16 18  2  0
 18 19  1  0
 19 20  3  0
 18 11  1  0
  1 21  1  0
  1 22  1  0
  1 23  1  0
  5 24  1  0
  5 25  1  0
  6 26  1  0
  9 27  1  0
  9 28  1  0
 14 29  1  0
 14 30  1  0
 14 31  1  0
 15 32  1  0
 17 33  1  0
 17 34  1  0
 17 35  1  0
M  END
>  <Binding energies>  (1) 
[-6.62]

>  <Ligand effiencies>  (1) 
[-0.31523809523809526]

>  <Interactions>  (1) 
["V-B:GLU:543:CD:9879, V-B:PRO:540:N:9855, V-B:PRO:540:CB:9856, V-B:TYR:539:CD2:9845, V-B:TYR:539:C:9838, V-B:MET:535:CE:9806, H-B:TYR:539:N:9841, V-B:PRO:540:CA:9854, V-B:LEU:363:CD1:8159, V-B:TYR:539:CE2:9847, V-B:ARG:545:CZ:9897, V-A:LEU:475:CD2:4258, V-A:PRO:482:CG:4326, V-B:ALA:541:CB:9863, V-B:VAL:344:CG1:7971, V-B:TYR:539:CB:9842, V-A:HIS:383:CE1:3393, V-A:PRO:482:CB:4325, H-B:ALA:541:N:9862, V-B:PRO:540:C:9852, H-A:HIS:383:ND1:3390, H-B:TYR:539:O:9839"]

$$$$
1n_Grossjean_2025
     RDKit          3D

 48 49  0  0  0  0  0  0  0  0999 V2000
  129.0560  132.6660   54.9920 C   0  0  0  0  0  0  0  0  0  0  0  0
  130.2860  133.5660   55.1480 C   0  0  0  0  0  0  0  0  0  0  0  0
  130.5360  133.7890   56.5300 O   0  0  0  0  0  0  0  0  0  0  0  0
  131.6590  133.3110   57.1260 C   0  0  0  0  0  0  0  0  0  0  0  0
  132.7020  133.9630   57.2320 O   0  0  0  0  0  0  0  0  0  0  0  0
  131.5020  131.9140   57.6540 C   0  0  0  0  0  0  0  0  0  0  0  0
  130.2400  131.3290   57.8420 C   0  0  0  0  0  0  0  0  0  0  0  0
  130.1290  130.0330   58.3360 C   0  0  0  0  0  0  0  0  0  0  0  0
  131.2700  129.2980   58.6600 C   0  0  0  0  0  0  0  0  0  0  0  0
  131.0420  128.0000   59.1570 N   0  0  0  0  0  0  0  0  0  0  0  0
  130.1120  127.0890   58.7980 C   0  0  0  0  0  0  0  0  0  0  0  0
  129.2620  127.2450   57.9220 O   0  0  0  0  0  0  0  0  0  0  0  0
  130.1530  125.7620   59.5670 C   0  0  0  0  0  0  0  0  0  0  0  0
  130.0180  124.5270   58.6510 C   0  0  0  0  0  0  0  0  0  0  0  0
  128.9950  123.1890   59.3340 S   0  0  0  0  0  0  0  0  0  0  0  0
  127.4390  123.2040   58.4700 C   0  0  0  0  0  0  0  0  0  0  0  0
  127.5180  122.7290   57.2020 N   0  0  0  0  0  0  0  0  0  0  0  0
  126.3910  122.6780   56.4540 C   0  0  0  0  0  0  0  0  0  0  0  0
  126.5540  122.1250   55.0520 C   0  0  0  0  0  0  0  0  0  0  0  0
  125.1520  123.1010   56.9320 C   0  0  0  0  0  0  0  0  0  0  0  0
  125.0640  123.6120   58.2310 C   0  0  0  0  0  0  0  0  0  0  0  0
  123.6990  124.0820   58.7280 C   0  0  0  0  0  0  0  0  0  0  0  0
  126.2300  123.6800   59.0280 C   0  0  0  0  0  0  0  0  0  0  0  0
  126.1700  124.2590   60.3720 C   0  0  0  0  0  0  0  0  0  0  0  0
  126.1210  124.7180   61.4330 N   0  0  0  0  0  0  0  0  0  0  0  0
  132.5350  129.8720   58.4650 C   0  0  0  0  0  0  0  0  0  0  0  0
  132.6440  131.1680   57.9670 C   0  0  0  0  0  0  0  0  0  0  0  0
  128.6764  132.3882   55.9864 H   0  0  0  0  0  0  0  0  0  0  0  0
  128.2739  133.2066   54.4388 H   0  0  0  0  0  0  0  0  0  0  0  0
  129.3346  131.7570   54.4388 H   0  0  0  0  0  0  0  0  0  0  0  0
  131.1590  133.0767   54.6914 H   0  0  0  0  0  0  0  0  0  0  0  0
  130.1028  134.5284   54.6478 H   0  0  0  0  0  0  0  0  0  0  0  0
  129.3319  131.8994   57.5969 H   0  0  0  0  0  0  0  0  0  0  0  0
  129.1340  129.5843   58.4722 H   0  0  0  0  0  0  0  0  0  0  0  0
  131.7050  127.7060   59.8590 H   0  0  0  0  0  0  0  0  0  0  0  0
  131.1115  125.6974   60.1028 H   0  0  0  0  0  0  0  0  0  0  0  0
  129.2951  125.7552   60.2554 H   0  0  0  0  0  0  0  0  0  0  0  0
  129.5690  124.8517   57.7007 H   0  0  0  0  0  0  0  0  0  0  0  0
  131.0309  124.1153   58.5302 H   0  0  0  0  0  0  0  0  0  0  0  0
  126.8646  121.0712   55.1073 H   0  0  0  0  0  0  0  0  0  0  0  0
  125.5963  122.1973   54.5157 H   0  0  0  0  0  0  0  0  0  0  0  0
  127.3193  122.7052   54.5157 H   0  0  0  0  0  0  0  0  0  0  0  0
  124.2564  123.0339   56.2969 H   0  0  0  0  0  0  0  0  0  0  0  0
  123.6904  124.0850   59.8280 H   0  0  0  0  0  0  0  0  0  0  0  0
  123.5040  125.0990   58.3571 H   0  0  0  0  0  0  0  0  0  0  0  0
  122.9192  123.4006   58.3571 H   0  0  0  0  0  0  0  0  0  0  0  0
  133.4419  129.2978   58.7057 H   0  0  0  0  0  0  0  0  0  0  0  0
  133.6399  131.6107   57.8178 H   0  0  0  0  0  0  0  0  0  0  0  0
  1  2  1  0
  2  3  1  0
  3  4  1  0
  4  5  2  0
  4  6  1  0
  6  7  2  0
  7  8  1  0
  8  9  2  0
  9 10  1  0
 10 11  1  0
 11 12  2  0
 11 13  1  0
 13 14  1  0
 14 15  1  0
 15 16  1  0
 16 17  2  0
 17 18  1  0
 18 19  1  0
 18 20  2  0
 20 21  1  0
 21 22  1  0
 21 23  2  0
 23 24  1  0
 24 25  3  0
  9 26  1  0
 26 27  2  0
 27  6  1  0
 23 16  1  0
  1 28  1  0
  1 29  1  0
  1 30  1  0
  2 31  1  0
  2 32  1  0
  7 33  1  0
  8 34  1  0
 10 35  1  0
 13 36  1  0
 13 37  1  0
 14 38  1  0
 14 39  1  0
 19 40  1  0
 19 41  1  0
 19 42  1  0
 20 43  1  0
 22 44  1  0
 22 45  1  0
 22 46  1  0
 26 47  1  0
 27 48  1  0
M  END
>  <Binding energies>  (1) 
[-8.31]

>  <Ligand effiencies>  (1) 
[-0.2967857142857143]

>  <Interactions>  (1) 
["V-B:ASP:366:CG:8183, V-B:LEU:363:CB:8157, V-B:ASP:366:CB:8182, V-B:PRO:540:N:9855, V-B:LEU:363:CA:8155, V-B:PRO:540:CB:9856, V-B:TYR:539:C:9838, V-B:MET:535:CE:9806, V-B:TYR:531:CE2:9764, V-B:PRO:540:CA:9854, V-B:LEU:363:CD1:8159, V-B:TYR:539:CE2:9847, V-B:ILE:538:CB:9833, V-B:TYR:539:CZ:9848, V-A:ASP:366:CG:3212, V-B:MET:535:CG:9804, V-B:ILE:538:CD1:9836, V-B:ILE:538:CA:9831, V-A:ASP:366:CB:3211, V-A:TYR:531:CE2:4792, V-A:PRO:540:CA:4882, V-A:TYR:531:CZ:4793, V-A:PRO:540:CD:4886, V-A:ILE:538:CG2:4862, V-A:PRO:540:N:4883, V-A:PRO:540:CB:4884, V-A:TYR:539:C:4866, V-A:TYR:539:CE1:4874, H-A:TYR:539:N:4869, V-A:MET:535:CG:4832, V-A:ILE:538:CB:4861, V-A:ILE:538:CA:4859, V-B:ILE:538:C:9829, H-A:ASP:366:OD2:3214, V-A:TYR:539:CZ:4876, V-A:ILE:538:C:4857, V-B:VAL:537:C:9821"]

$$$$
1o_Grossjean_2025
     RDKit          3D

 45 46  0  0  0  0  0  0  0  0999 V2000
  132.3560  133.7260   56.3780 C   0  0  0  0  0  0  0  0  0  0  0  0
  131.0150  134.0680   56.6990 O   0  0  0  0  0  0  0  0  0  0  0  0
  129.9770  133.5890   55.9660 C   0  0  0  0  0  0  0  0  0  0  0  0
  129.3840  134.2540   55.1110 O   0  0  0  0  0  0  0  0  0  0  0  0
  129.6220  132.1680   56.2970 C   0  0  0  0  0  0  0  0  0  0  0  0
  128.8750  131.3660   55.4220 C   0  0  0  0  0  0  0  0  0  0  0  0
  128.5650  130.0500   55.7580 C   0  0  0  0  0  0  0  0  0  0  0  0
  128.9900  129.5120   56.9730 C   0  0  0  0  0  0  0  0  0  0  0  0
  128.6290  128.1700   57.2070 N   0  0  0  0  0  0  0  0  0  0  0  0
  129.2270  127.0290   56.7970 C   0  0  0  0  0  0  0  0  0  0  0  0
  130.2720  126.9680   56.1500 O   0  0  0  0  0  0  0  0  0  0  0  0
  128.5280  125.7290   57.2220 C   0  0  0  0  0  0  0  0  0  0  0  0
  129.4930  124.6850   57.8190 C   0  0  0  0  0  0  0  0  0  0  0  0
  128.6980  123.1080   58.2500 S   0  0  0  0  0  0  0  0  0  0  0  0
  127.1460  123.4580   59.0500 C   0  0  0  0  0  0  0  0  0  0  0  0
  127.2440  123.5540   60.4000 N   0  0  0  0  0  0  0  0  0  0  0  0
  126.1280  123.8270   61.1170 C   0  0  0  0  0  0  0  0  0  0  0  0
  126.3180  123.9340   62.6180 C   0  0  0  0  0  0  0  0  0  0  0  0
  124.8790  124.0000   60.5250 C   0  0  0  0  0  0  0  0  0  0  0  0
  124.7620  123.8770   59.1370 C   0  0  0  0  0  0  0  0  0  0  0  0
  123.3780  124.0580   58.5130 C   0  0  0  0  0  0  0  0  0  0  0  0
  125.9120  123.5890   58.3680 C   0  0  0  0  0  0  0  0  0  0  0  0
  125.7980  123.3990   56.9200 C   0  0  0  0  0  0  0  0  0  0  0  0
  125.7060  123.2500   55.7760 N   0  0  0  0  0  0  0  0  0  0  0  0
  129.7430  130.3060   57.8510 C   0  0  0  0  0  0  0  0  0  0  0  0
  130.0520  131.6210   57.5130 C   0  0  0  0  0  0  0  0  0  0  0  0
  132.9292  133.5798   57.3054 H   0  0  0  0  0  0  0  0  0  0  0  0
  132.3666  132.7964   55.7900 H   0  0  0  0  0  0  0  0  0  0  0  0
  132.8105  134.5370   55.7900 H   0  0  0  0  0  0  0  0  0  0  0  0
  128.5310  131.7795   54.4625 H   0  0  0  0  0  0  0  0  0  0  0  0
  127.9813  129.4311   55.0607 H   0  0  0  0  0  0  0  0  0  0  0  0
  127.8120  128.0580   57.7890 H   0  0  0  0  0  0  0  0  0  0  0  0
  127.7665  125.9728   57.9774 H   0  0  0  0  0  0  0  0  0  0  0  0
  128.0869  125.2853   56.3172 H   0  0  0  0  0  0  0  0  0  0  0  0
  130.2845  124.4838   57.0821 H   0  0  0  0  0  0  0  0  0  0  0  0
  129.8850  125.1109   58.7544 H   0  0  0  0  0  0  0  0  0  0  0  0
  125.4697  123.4563   63.1300 H   0  0  0  0  0  0  0  0  0  0  0  0
  127.2518  123.4291   62.9063 H   0  0  0  0  0  0  0  0  0  0  0  0
  126.3703  124.9943   62.9063 H   0  0  0  0  0  0  0  0  0  0  0  0
  123.9970  124.2302   61.1408 H   0  0  0  0  0  0  0  0  0  0  0  0
  122.6264  124.1563   59.3101 H   0  0  0  0  0  0  0  0  0  0  0  0
  123.3724  124.9645   57.8900 H   0  0  0  0  0  0  0  0  0  0  0  0
  123.1395  123.1834   57.8900 H   0  0  0  0  0  0  0  0  0  0  0  0
  130.0899  129.8890   58.8080 H   0  0  0  0  0  0  0  0  0  0  0  0
  130.6404  132.2373   58.2086 H   0  0  0  0  0  0  0  0  0  0  0  0
  1  2  1  0
  2  3  1  0
  3  4  2  0
  3  5  1  0
  5  6  2  0
  6  7  1  0
  7  8  2  0
  8  9  1  0
  9 10  1  0
 10 11  2  0
 10 12  1  0
 12 13  1  0
 13 14  1  0
 14 15  1  0
 15 16  2  0
 16 17  1  0
 17 18  1  0
 17 19  2  0
 19 20  1  0
 20 21  1  0
 20 22  2  0
 22 23  1  0
 23 24  3  0
  8 25  1  0
 25 26  2  0
 26  5  1  0
 22 15  1  0
  1 27  1  0
  1 28  1  0
  1 29  1  0
  6 30  1  0
  7 31  1  0
  9 32  1  0
 12 33  1  0
 12 34  1  0
 13 35  1  0
 13 36  1  0
 18 37  1  0
 18 38  1  0
 18 39  1  0
 19 40  1  0
 21 41  1  0
 21 42  1  0
 21 43  1  0
 25 44  1  0
 26 45  1  0
M  END
>  <Binding energies>  (1) 
[-8.36]

>  <Ligand effiencies>  (1) 
[-0.3096296296296296]

>  <Interactions>  (1) 
["V-B:GLU:543:CD:9879, V-B:ASP:366:CG:8183, V-B:LEU:363:CB:8157, V-B:ASP:366:CB:8182, V-B:PRO:540:N:9855, V-B:LEU:363:CA:8155, H-B:TYR:531:OH:9766, V-B:PRO:540:CB:9856, V-B:MET:535:CE:9806, V-B:PRO:540:CA:9854, V-B:LEU:363:CD1:8159, V-B:TYR:539:CE2:9847, V-B:TYR:539:CZ:9848, V-A:TYR:531:CE2:4792, H-A:TYR:531:OH:4794, V-A:LEU:363:CD1:3188, V-A:TYR:539:CD1:4872, V-A:PRO:540:CD:4886, V-A:ILE:538:CG2:4862, V-A:PRO:540:N:4883, V-A:PRO:540:CB:4884, V-A:TYR:539:CE1:4874, H-A:TYR:539:N:4869, V-A:ILE:538:CB:4861, V-A:ILE:538:CA:4859, V-A:MET:535:CE:4834, V-A:TYR:539:CZ:4876, V-A:ILE:538:C:4857, V-A:TYR:539:CG:4871"]

$$$$
1p_Grossjean_2025
     RDKit          3D

 35 36  0  0  0  0  0  0  0  0999 V2000
  129.7650  116.7550   60.6200 C   0  0  0  0  0  0  0  0  0  0  0  0
  130.6650  117.9740   60.7060 C   0  0  0  0  0  0  0  0  0  0  0  0
  131.9270  117.9910   60.1150 C   0  0  0  0  0  0  0  0  0  0  0  0
  132.7190  119.1370   60.2370 C   0  0  0  0  0  0  0  0  0  0  0  0
  134.1050  119.1280   59.5940 C   0  0  0  0  0  0  0  0  0  0  0  0
  132.2180  120.2510   60.9480 C   0  0  0  0  0  0  0  0  0  0  0  0
  133.0460  121.4440   61.1300 C   0  0  0  0  0  0  0  0  0  0  0  0
  133.7020  122.3880   61.2740 N   0  0  0  0  0  0  0  0  0  0  0  0
  130.9170  120.1540   61.4950 C   0  0  0  0  0  0  0  0  0  0  0  0
  130.1320  121.4630   62.4080 S   0  0  0  0  0  0  0  0  0  0  0  0
  128.9140  122.2230   61.2960 C   0  0  0  0  0  0  0  0  0  0  0  0
  129.4970  123.3340   60.4010 C   0  0  0  0  0  0  0  0  0  0  0  0
  128.7170  123.5430   59.0940 C   0  0  0  0  0  0  0  0  0  0  0  0
  128.8440  124.6000   58.4730 O   0  0  0  0  0  0  0  0  0  0  0  0
  127.9360  122.5080   58.7080 N   0  0  0  0  0  0  0  0  0  0  0  0
  127.1350  122.4370   57.5760 C   0  0  0  0  0  0  0  0  0  0  0  0
  125.8040  122.8530   57.5580 C   0  0  0  0  0  0  0  0  0  0  0  0
  125.3740  122.6210   56.2710 C   0  0  0  0  0  0  0  0  0  0  0  0
  126.3910  122.0910   55.5530 O   0  0  0  0  0  0  0  0  0  0  0  0
  127.5020  121.9780   56.3910 N   0  0  0  0  0  0  0  0  0  0  0  0
  130.1640  119.0290   61.3890 N   0  0  0  0  0  0  0  0  0  0  0  0
  129.5127  116.4132   61.6346 H   0  0  0  0  0  0  0  0  0  0  0  0
  128.8425  117.0176   60.0815 H   0  0  0  0  0  0  0  0  0  0  0  0
  130.2876  115.9507   60.0815 H   0  0  0  0  0  0  0  0  0  0  0  0
  132.2949  117.1152   59.5603 H   0  0  0  0  0  0  0  0  0  0  0  0
  134.8740  119.1230   60.3805 H   0  0  0  0  0  0  0  0  0  0  0  0
  134.2136  118.2291   58.9693 H   0  0  0  0  0  0  0  0  0  0  0  0
  134.2252  120.0254   58.9693 H   0  0  0  0  0  0  0  0  0  0  0  0
  128.4988  121.4374   60.6476 H   0  0  0  0  0  0  0  0  0  0  0  0
  128.1487  122.6923   61.9317 H   0  0  0  0  0  0  0  0  0  0  0  0
  129.4871  124.2774   60.9666 H   0  0  0  0  0  0  0  0  0  0  0  0
  130.5151  123.0237   60.1232 H   0  0  0  0  0  0  0  0  0  0  0  0
  127.9170  121.6950   59.3060 H   0  0  0  0  0  0  0  0  0  0  0  0
  125.2235  123.2751   58.3916 H   0  0  0  0  0  0  0  0  0  0  0  0
  124.3649  122.8327   55.8876 H   0  0  0  0  0  0  0  0  0  0  0  0
  1  2  1  0
  2  3  2  0
  3  4  1  0
  4  5  1  0
  4  6  2  0
  6  7  1  0
  7  8  3  0
  6  9  1  0
  9 10  1  0
 10 11  1  0
 11 12  1  0
 12 13  1  0
 13 14  2  0
 13 15  1  0
 15 16  1  0
 16 17  1  0
 17 18  2  0
 18 19  1  0
 19 20  1  0
  9 21  2  0
 21  2  1  0
 20 16  2  0
  1 22  1  0
  1 23  1  0
  1 24  1  0
  3 25  1  0
  5 26  1  0
  5 27  1  0
  5 28  1  0
 11 29  1  0
 11 30  1  0
 12 31  1  0
 12 32  1  0
 15 33  1  0
 17 34  1  0
 18 35  1  0
M  END
>  <Binding energies>  (1) 
[-8.22]

>  <Ligand effiencies>  (1) 
[-0.37363636363636366]

>  <Interactions>  (1) 
["V-B:PRO:540:N:9855, V-B:PRO:540:CB:9856, V-B:TYR:539:CD2:9845, V-B:TYR:539:C:9838, H-B:TYR:539:N:9841, V-B:TYR:531:CE2:9764, V-B:PRO:540:CA:9854, V-B:LEU:363:CD1:8159, V-B:TYR:539:CE2:9847, V-A:LEU:475:CD2:4258, V-A:PRO:482:CG:4326, V-B:ALA:541:CB:9863, V-B:VAL:344:CG1:7971, V-B:TYR:539:CA:9840, V-A:ILE:369:CG2:3236, V-B:TYR:539:CB:9842, V-B:TYR:539:CG:9843, V-A:HIS:383:CE1:3393, V-A:PRO:482:CB:4325, V-A:SER:385:CA:3406, V-B:PRO:540:CD:9858, V-A:LEU:373:CD2:3280, H-B:TYR:539:O:9839, V-A:VAL:384:C:3396"]

$$$$
1q_Grossjean_2025
     RDKit          3D

 38 38  0  0  0  0  0  0  0  0999 V2000
  131.7780  126.2120   64.1580 C   0  0  0  0  0  0  0  0  0  0  0  0
  132.0060  125.1800   63.2100 O   0  0  0  0  0  0  0  0  0  0  0  0
  133.2690  124.8240   62.8690 C   0  0  0  0  0  0  0  0  0  0  0  0
  134.2480  124.8570   63.6160 O   0  0  0  0  0  0  0  0  0  0  0  0
  133.4220  124.3800   61.3980 C   0  0  0  0  0  0  0  0  0  0  0  0
  132.2250  124.6540   60.5880 N   0  0  0  0  0  0  0  0  0  0  0  0
  132.1460  124.5780   59.2460 C   0  0  0  0  0  0  0  0  0  0  0  0
  133.0990  124.2590   58.5320 O   0  0  0  0  0  0  0  0  0  0  0  0
  130.7760  124.9000   58.6330 C   0  0  0  0  0  0  0  0  0  0  0  0
  129.5790  124.5540   59.5410 C   0  0  0  0  0  0  0  0  0  0  0  0
  128.9210  122.8820   59.2720 S   0  0  0  0  0  0  0  0  0  0  0  0
  127.3560  123.0160   58.4310 C   0  0  0  0  0  0  0  0  0  0  0  0
  127.3920  122.5710   57.1500 N   0  0  0  0  0  0  0  0  0  0  0  0
  126.2620  122.6250   56.4080 C   0  0  0  0  0  0  0  0  0  0  0  0
  126.3860  122.1250   54.9800 C   0  0  0  0  0  0  0  0  0  0  0  0
  125.0560  123.1100   56.9090 C   0  0  0  0  0  0  0  0  0  0  0  0
  125.0000  123.5470   58.2360 C   0  0  0  0  0  0  0  0  0  0  0  0
  123.6610  124.0580   58.7680 C   0  0  0  0  0  0  0  0  0  0  0  0
  126.1670  123.4990   59.0320 C   0  0  0  0  0  0  0  0  0  0  0  0
  126.1120  123.8990   60.4390 C   0  0  0  0  0  0  0  0  0  0  0  0
  126.0650  124.2170   61.5510 N   0  0  0  0  0  0  0  0  0  0  0  0
  131.8685  125.8023   65.1749 H   0  0  0  0  0  0  0  0  0  0  0  0
  132.5214  127.0104   64.0168 H   0  0  0  0  0  0  0  0  0  0  0  0
  130.7674  126.6229   64.0168 H   0  0  0  0  0  0  0  0  0  0  0  0
  134.2745  124.9169   60.9565 H   0  0  0  0  0  0  0  0  0  0  0  0
  133.5779  123.2911   61.3972 H   0  0  0  0  0  0  0  0  0  0  0  0
  131.4040  124.9480   61.0980 H   0  0  0  0  0  0  0  0  0  0  0  0
  130.7415  125.9771   58.4126 H   0  0  0  0  0  0  0  0  0  0  0  0
  130.6791  124.2767   57.7319 H   0  0  0  0  0  0  0  0  0  0  0  0
  129.9026  124.6359   60.5891 H   0  0  0  0  0  0  0  0  0  0  0  0
  128.7730  125.2611   59.2954 H   0  0  0  0  0  0  0  0  0  0  0  0
  126.6508  121.0574   54.9870 H   0  0  0  0  0  0  0  0  0  0  0  0
  125.4268  122.2615   54.4591 H   0  0  0  0  0  0  0  0  0  0  0  0
  127.1703  122.6939   54.4591 H   0  0  0  0  0  0  0  0  0  0  0  0
  124.1613  123.1486   56.2703 H   0  0  0  0  0  0  0  0  0  0  0  0
  123.6770  124.0519   59.8679 H   0  0  0  0  0  0  0  0  0  0  0  0
  123.4915  125.0840   58.4095 H   0  0  0  0  0  0  0  0  0  0  0  0
  122.8510  123.4058   58.4095 H   0  0  0  0  0  0  0  0  0  0  0  0
  1  2  1  0
  2  3  1  0
  3  4  2  0
  3  5  1  0
  5  6  1  0
  6  7  1  0
  7  8  2  0
  7  9  1  0
  9 10  1  0
 10 11  1  0
 11 12  1  0
 12 13  2  0
 13 14  1  0
 14 15  1  0
 14 16  2  0
 16 17  1  0
 17 18  1  0
 17 19  2  0
 19 20  1  0
 20 21  3  0
 19 12  1  0
  1 22  1  0
  1 23  1  0
  1 24  1  0
  5 25  1  0
  5 26  1  0
  6 27  1  0
  9 28  1  0
  9 29  1  0
 10 30  1  0
 10 31  1  0
 15 32  1  0
 15 33  1  0
 15 34  1  0
 16 35  1  0
 18 36  1  0
 18 37  1  0
 18 38  1  0
M  END
>  <Binding energies>  (1) 
[-6.21]

>  <Ligand effiencies>  (1) 
[-0.2822727272727273]

>  <Interactions>  (1) 
["V-B:ASP:366:CG:8183, V-B:LEU:363:CB:8157, V-A:ARG:545:CZ:4925, V-B:ASP:366:CB:8182, V-B:PRO:540:N:9855, V-B:LEU:363:CA:8155, V-B:PRO:540:CB:9856, V-B:TYR:539:C:9838, V-B:MET:535:CE:9806, H-B:TYR:539:N:9841, V-B:TYR:531:CE2:9764, V-B:PRO:540:CA:9854, V-B:LEU:363:CD1:8159, V-B:TYR:539:CE2:9847, V-B:ILE:538:CB:9833, H-B:TYR:539:OH:9849, V-B:TYR:539:CZ:9848, V-A:ASP:366:CG:3212, V-B:MET:535:CG:9804, V-B:ILE:538:CD1:9836, V-B:ILE:538:CG2:9834, V-A:ILE:369:CD1:3238, V-B:ILE:538:CA:9831, H-A:GLY:454:N:4049, V-B:PRO:540:CD:9858, V-B:ILE:538:C:9829, H-A:ASP:366:OD2:3214, V-B:VAL:537:C:9821"]

$$$$
2a_Ghoteimi_2023
     RDKit          3D

 85 90  0  0  0  0  0  0  0  0999 V2000
  129.4650  138.6560   61.0000 C   0  0  0  0  0  0  0  0  0  0  0  0
  129.3570  137.6220   62.1250 C   0  0  0  0  0  0  0  0  0  0  0  0
  127.9860  137.3550   62.3900 O   0  0  0  0  0  0  0  0  0  0  0  0
  127.1930  136.7660   61.4580 C   0  0  0  0  0  0  0  0  0  0  0  0
  127.0040  137.2340   60.3310 O   0  0  0  0  0  0  0  0  0  0  0  0
  126.5730  135.4830   61.9330 C   0  0  0  0  0  0  0  0  0  0  0  0
  125.3820  134.9850   61.3840 C   0  0  0  0  0  0  0  0  0  0  0  0
  124.8350  133.7920   61.8460 C   0  0  0  0  0  0  0  0  0  0  0  0
  125.4650  133.0700   62.8610 C   0  0  0  0  0  0  0  0  0  0  0  0
  124.8230  131.8800   63.2540 N   0  0  0  0  0  0  0  0  0  0  0  0
  124.8280  130.6610   62.6720 C   0  0  0  0  0  0  0  0  0  0  0  0
  125.3910  130.3840   61.6130 O   0  0  0  0  0  0  0  0  0  0  0  0
  124.0200  129.5840   63.4080 C   0  0  0  0  0  0  0  0  0  0  0  0
  124.0460  129.7320   65.2240 S   0  0  0  0  0  0  0  0  0  0  0  0
  125.7360  129.4580   65.7040 C   0  0  0  0  0  0  0  0  0  0  0  0
  126.6350  129.7540   64.7360 N   0  0  0  0  0  0  0  0  0  0  0  0
  127.9580  129.5780   64.9790 C   0  0  0  0  0  0  0  0  0  0  0  0
  128.8920  129.9160   63.8610 C   0  0  0  0  0  0  0  0  0  0  0  0
  129.5910  128.9170   63.1730 C   0  0  0  0  0  0  0  0  0  0  0  0
  130.4680  129.2390   62.1410 C   0  0  0  0  0  0  0  0  0  0  0  0
  130.6730  130.5700   61.7520 C   0  0  0  0  0  0  0  0  0  0  0  0
  131.5800  130.8810   60.7340 N   0  0  0  0  0  0  0  0  0  0  0  0
  133.0390  130.8080   60.9530 C   0  0  0  0  0  0  0  0  0  0  0  0
  133.8660  130.8260   59.6500 C   0  0  0  0  0  0  0  0  0  0  0  0
  133.5250  131.9630   58.8730 O   0  0  0  0  0  0  0  0  0  0  0  0
  132.1530  131.9510   58.5140 C   0  0  0  0  0  0  0  0  0  0  0  0
  131.2720  131.9670   59.7800 C   0  0  0  0  0  0  0  0  0  0  0  0
  129.9790  131.5690   62.4540 C   0  0  0  0  0  0  0  0  0  0  0  0
  129.1010  131.2470   63.4840 C   0  0  0  0  0  0  0  0  0  0  0  0
  128.4100  129.1090   66.2150 C   0  0  0  0  0  0  0  0  0  0  0  0
  127.4980  128.7960   67.2320 C   0  0  0  0  0  0  0  0  0  0  0  0
  128.0490  128.2930   68.5270 C   0  0  0  0  0  0  0  0  0  0  0  0
  127.6130  127.0730   69.0500 C   0  0  0  0  0  0  0  0  0  0  0  0
  128.1050  126.6060   70.2650 C   0  0  0  0  0  0  0  0  0  0  0  0
  129.0510  127.3430   70.9930 C   0  0  0  0  0  0  0  0  0  0  0  0
  129.5440  126.9010   72.2230 N   0  0  0  0  0  0  0  0  0  0  0  0
  129.2760  125.5140   72.6540 C   0  0  0  0  0  0  0  0  0  0  0  0
  130.1860  125.0470   73.8100 C   0  0  0  0  0  0  0  0  0  0  0  0
  130.0790  125.9450   74.9050 O   0  0  0  0  0  0  0  0  0  0  0  0
  130.4690  127.2610   74.5440 C   0  0  0  0  0  0  0  0  0  0  0  0
  129.5710  127.7850   73.4050 C   0  0  0  0  0  0  0  0  0  0  0  0
  129.4740  128.5720   70.4670 C   0  0  0  0  0  0  0  0  0  0  0  0
  128.9810  129.0410   69.2520 C   0  0  0  0  0  0  0  0  0  0  0  0
  126.1170  128.9790   66.9770 C   0  0  0  0  0  0  0  0  0  0  0  0
  125.1180  128.7230   68.0200 C   0  0  0  0  0  0  0  0  0  0  0  0
  124.3320  128.5180   68.8450 N   0  0  0  0  0  0  0  0  0  0  0  0
  126.6520  133.5650   63.4210 C   0  0  0  0  0  0  0  0  0  0  0  0
  127.1990  134.7590   62.9570 C   0  0  0  0  0  0  0  0  0  0  0  0
  129.5700  139.6610   61.4346 H   0  0  0  0  0  0  0  0  0  0  0  0
  130.3446  138.4314   60.3788 H   0  0  0  0  0  0  0  0  0  0  0  0
  128.5580  138.6180   60.3788 H   0  0  0  0  0  0  0  0  0  0  0  0
  129.8595  136.6926   61.8189 H   0  0  0  0  0  0  0  0  0  0  0  0
  129.8373  138.0151   63.0332 H   0  0  0  0  0  0  0  0  0  0  0  0
  124.8764  135.5423   60.5816 H   0  0  0  0  0  0  0  0  0  0  0  0
  123.8990  133.4150   61.4081 H   0  0  0  0  0  0  0  0  0  0  0  0
  124.2560  131.9730   64.0840 H   0  0  0  0  0  0  0  0  0  0  0  0
  122.9744  129.6492   63.0726 H   0  0  0  0  0  0  0  0  0  0  0  0
  124.4892  128.6192   63.1652 H   0  0  0  0  0  0  0  0  0  0  0  0
  129.4452  127.8630   63.4518 H   0  0  0  0  0  0  0  0  0  0  0  0
  131.0097  128.4348   61.6216 H   0  0  0  0  0  0  0  0  0  0  0  0
  133.3410  131.6690   61.5674 H   0  0  0  0  0  0  0  0  0  0  0  0
  133.2411  129.8464   61.4475 H   0  0  0  0  0  0  0  0  0  0  0  0
  134.9368  130.8631   59.8990 H   0  0  0  0  0  0  0  0  0  0  0  0
  133.6479  129.9158   59.0720 H   0  0  0  0  0  0  0  0  0  0  0  0
  131.9291  132.8386   57.9040 H   0  0  0  0  0  0  0  0  0  0  0  0
  131.9399  131.0375   57.9394 H   0  0  0  0  0  0  0  0  0  0  0  0
  131.4173  132.9298   60.2917 H   0  0  0  0  0  0  0  0  0  0  0  0
  130.2333  131.8187   59.4497 H   0  0  0  0  0  0  0  0  0  0  0  0
  130.1323  132.6245   62.1847 H   0  0  0  0  0  0  0  0  0  0  0  0
  128.5635  132.0502   64.0094 H   0  0  0  0  0  0  0  0  0  0  0  0
  129.4887  128.9846   66.3910 H   0  0  0  0  0  0  0  0  0  0  0  0
  126.8737  126.4759   68.4960 H   0  0  0  0  0  0  0  0  0  0  0  0
  127.7467  125.6442   70.6607 H   0  0  0  0  0  0  0  0  0  0  0  0
  128.2291  125.4474   72.9851 H   0  0  0  0  0  0  0  0  0  0  0  0
  129.4811  124.8602   71.7935 H   0  0  0  0  0  0  0  0  0  0  0  0
  129.8785  124.0412   74.1322 H   0  0  0  0  0  0  0  0  0  0  0  0
  131.2292  125.0243   73.4620 H   0  0  0  0  0  0  0  0  0  0  0  0
  130.3717  127.9221   75.4178 H   0  0  0  0  0  0  0  0  0  0  0  0
  131.5141  127.2460   74.2012 H   0  0  0  0  0  0  0  0  0  0  0  0
  128.5449  127.8852   73.7885 H   0  0  0  0  0  0  0  0  0  0  0  0
  129.9902  128.7484   73.0793 H   0  0  0  0  0  0  0  0  0  0  0  0
  130.2069  129.1752   71.0229 H   0  0  0  0  0  0  0  0  0  0  0  0
  129.3279  130.0083   68.8595 H   0  0  0  0  0  0  0  0  0  0  0  0
  127.1518  133.0092   64.2281 H   0  0  0  0  0  0  0  0  0  0  0  0
  128.1323  135.1378   63.3990 H   0  0  0  0  0  0  0  0  0  0  0  0
  1  2  1  0
  2  3  1  0
  3  4  1  0
  4  5  2  0
  4  6  1  0
  6  7  2  0
  7  8  1  0
  8  9  2  0
  9 10  1  0
 10 11  1  0
 11 12  2  0
 11 13  1  0
 13 14  1  0
 14 15  1  0
 15 16  2  0
 16 17  1  0
 17 18  1  0
 18 19  2  0
 19 20  1  0
 20 21  2  0
 21 22  1  0
 22 23  1  0
 23 24  1  0
 24 25  1  0
 25 26  1  0
 26 27  1  0
 21 28  1  0
 28 29  2  0
 17 30  2  0
 30 31  1  0
 31 32  1  0
 32 33  2  0
 33 34  1  0
 34 35  2  0
 35 36  1  0
 36 37  1  0
 37 38  1  0
 38 39  1  0
 39 40  1  0
 40 41  1  0
 35 42  1  0
 42 43  2  0
 31 44  2  0
 44 45  1  0
 45 46  3  0
  9 47  1  0
 47 48  2  0
 48  6  1  0
 44 15  1  0
 29 18  1  0
 43 32  1  0
 27 22  1  0
 41 36  1  0
  1 49  1  0
  1 50  1  0
  1 51  1  0
  2 52  1  0
  2 53  1  0
  7 54  1  0
  8 55  1  0
 10 56  1  0
 13 57  1  0
 13 58  1  0
 19 59  1  0
 20 60  1  0
 23 61  1  0
 23 62  1  0
 24 63  1  0
 24 64  1  0
 26 65  1  0
 26 66  1  0
 27 67  1  0
 27 68  1  0
 28 69  1  0
 29 70  1  0
 30 71  1  0
 33 72  1  0
 34 73  1  0
 37 74  1  0
 37 75  1  0
 38 76  1  0
 38 77  1  0
 40 78  1  0
 40 79  1  0
 41 80  1  0
 41 81  1  0
 42 82  1  0
 43 83  1  0
 47 84  1  0
 48 85  1  0
M  END
>  <Binding energies>  (1) 
[-10.95]

>  <Ligand effiencies>  (1) 
[-0.22346938775510203]

>  <Interactions>  (1) 
["V-B:GLU:543:CB:9877, V-A:HIS:456:CE1:4069, V-A:HIS:456:CD2:4067, V-B:ARG:545:CD:9894, V-B:GLU:543:CD:9879, V-B:HIS:456:CE1:9040, V-A:HIS:456:CG:4065, V-B:ARG:545:CG:9893, V-B:ASP:366:CG:8183, V-B:LEU:475:CD1:9228, V-B:ARG:545:CZ:9897, H-B:LYS:547:NZ:9922, V-A:ASP:366:CG:3212, V-A:GLU:543:CD:4907, V-A:GLU:543:CG:4906, V-A:ASP:366:CB:3211, V-A:GLU:543:CB:4905, H-B:TYR:484:OH:9318, V-A:ASN:362:C:3171, V-A:PRO:540:C:4880, V-A:LEU:363:CA:3184, V-A:PRO:540:CA:4882, V-A:PRO:540:N:4883, V-A:PRO:540:CB:4884, V-A:TYR:539:C:4866, V-A:ALA:541:CB:4891, H-B:GLY:454:N:9020, H-B:HIS:456:ND1:9037, H-B:ARG:545:NH2:9899, H-B:ARG:545:NE:9895, V-A:ALA:541:CA:4889, V-B:SER:385:CB:8379, V-A:TYR:539:CA:4868, V-A:TYR:539:CB:4870, H-B:SER:385:OG:8380, H-B:HIS:383:NE2:8364, V-B:PRO:482:CB:9296, V-B:PRO:482:CG:9297, V-B:PRO:482:CD:9298, V-A:VAL:344:CG1:3000, V-A:VAL:344:CB:2999, V-A:VAL:344:CG2:3001"]

$$$$
2a_Grossjean_2025
     RDKit          3D

 45 46  0  0  0  0  0  0  0  0999 V2000
  123.3820  124.7630   57.9970 C   0  0  0  0  0  0  0  0  0  0  0  0
  124.8000  124.2440   58.2520 C   0  0  0  0  0  0  0  0  0  0  0  0
  125.4410  123.9960   57.0070 O   0  0  0  0  0  0  0  0  0  0  0  0
  126.3640  123.0090   56.8780 C   0  0  0  0  0  0  0  0  0  0  0  0
  126.2050  122.0170   56.1590 O   0  0  0  0  0  0  0  0  0  0  0  0
  127.6100  123.2550   57.6810 C   0  0  0  0  0  0  0  0  0  0  0  0
  127.9020  122.5210   58.8400 C   0  0  0  0  0  0  0  0  0  0  0  0
  129.0640  122.7750   59.5620 C   0  0  0  0  0  0  0  0  0  0  0  0
  129.9520  123.7690   59.1490 C   0  0  0  0  0  0  0  0  0  0  0  0
  131.0850  123.9490   59.9630 N   0  0  0  0  0  0  0  0  0  0  0  0
  132.3570  124.2530   59.6250 C   0  0  0  0  0  0  0  0  0  0  0  0
  132.7740  124.4100   58.4770 O   0  0  0  0  0  0  0  0  0  0  0  0
  133.3340  124.4040   60.7970 C   0  0  0  0  0  0  0  0  0  0  0  0
  133.7000  122.8280   61.6370 S   0  0  0  0  0  0  0  0  0  0  0  0
  132.2110  121.8430   61.7510 C   0  0  0  0  0  0  0  0  0  0  0  0
  131.1440  122.4540   62.3270 N   0  0  0  0  0  0  0  0  0  0  0  0
  129.9880  121.7650   62.4570 C   0  0  0  0  0  0  0  0  0  0  0  0
  128.8500  122.5050   63.1350 C   0  0  0  0  0  0  0  0  0  0  0  0
  129.8420  120.4530   62.0160 C   0  0  0  0  0  0  0  0  0  0  0  0
  130.9290  119.8040   61.4100 C   0  0  0  0  0  0  0  0  0  0  0  0
  130.7510  118.3520   60.9260 C   0  0  0  0  0  0  0  0  0  0  0  0
  131.0430  118.2630   59.6280 F   0  0  0  0  0  0  0  0  0  0  0  0
  131.5610  117.5420   61.6090 F   0  0  0  0  0  0  0  0  0  0  0  0
  129.5040  117.9040   61.0900 F   0  0  0  0  0  0  0  0  0  0  0  0
  132.1490  120.5150   61.2700 C   0  0  0  0  0  0  0  0  0  0  0  0
  133.3170  119.8840   60.6470 C   0  0  0  0  0  0  0  0  0  0  0  0
  134.2390  119.3870   60.1550 N   0  0  0  0  0  0  0  0  0  0  0  0
  129.6700  124.5020   57.9870 C   0  0  0  0  0  0  0  0  0  0  0  0
  128.5090  124.2430   57.2630 C   0  0  0  0  0  0  0  0  0  0  0  0
  122.8803  124.9466   58.9586 H   0  0  0  0  0  0  0  0  0  0  0  0
  123.4323  125.7010   57.4246 H   0  0  0  0  0  0  0  0  0  0  0  0
  122.8149  124.0142   57.4246 H   0  0  0  0  0  0  0  0  0  0  0  0
  125.3709  124.9966   58.8157 H   0  0  0  0  0  0  0  0  0  0  0  0
  124.7520  123.3117   58.8337 H   0  0  0  0  0  0  0  0  0  0  0  0
  127.2074  121.7390   59.1806 H   0  0  0  0  0  0  0  0  0  0  0  0
  129.2844  122.1876   60.4655 H   0  0  0  0  0  0  0  0  0  0  0  0
  130.8970  123.8810   60.9520 H   0  0  0  0  0  0  0  0  0  0  0  0
  134.2764  124.8230   60.4144 H   0  0  0  0  0  0  0  0  0  0  0  0
  132.8571  125.0645   61.5361 H   0  0  0  0  0  0  0  0  0  0  0  0
  128.9635  122.4312   64.2266 H   0  0  0  0  0  0  0  0  0  0  0  0
  128.8704  123.5631   62.8349 H   0  0  0  0  0  0  0  0  0  0  0  0
  127.8911  122.0572   62.8349 H   0  0  0  0  0  0  0  0  0  0  0  0
  128.8829  119.9292   62.1413 H   0  0  0  0  0  0  0  0  0  0  0  0
  130.3667  125.2824   57.6471 H   0  0  0  0  0  0  0  0  0  0  0  0
  128.2960  124.8216   56.3520 H   0  0  0  0  0  0  0  0  0  0  0  0
  1  2  1  0
  2  3  1  0
  3  4  1  0
  4  5  2  0
  4  6  1  0
  6  7  2  0
  7  8  1  0
  8  9  2  0
  9 10  1  0
 10 11  1  0
 11 12  2  0
 11 13  1  0
 13 14  1  0
 14 15  1  0
 15 16  2  0
 16 17  1  0
 17 18  1  0
 17 19  2  0
 19 20  1  0
 20 21  1  0
 21 22  1  0
 21 23  1  0
 21 24  1  0
 20 25  2  0
 25 26  1  0
 26 27  3  0
  9 28  1  0
 28 29  2  0
 29  6  1  0
 25 15  1  0
  1 30  1  0
  1 31  1  0
  1 32  1  0
  2 33  1  0
  2 34  1  0
  7 35  1  0
  8 36  1  0
 10 37  1  0
 13 38  1  0
 13 39  1  0
 18 40  1  0
 18 41  1  0
 18 42  1  0
 19 43  1  0
 28 44  1  0
 29 45  1  0
M  END
>  <Binding energies>  (1) 
[-7.83]

>  <Ligand effiencies>  (1) 
[-0.261]

>  <Interactions>  (1) 
["V-B:ASP:366:CG:8183, V-B:TYR:531:CZ:9765, V-B:ASP:366:CB:8182, V-B:PRO:540:N:9855, V-B:LEU:363:CA:8155, H-B:TYR:531:OH:9766, V-B:PRO:540:CB:9856, V-B:TYR:539:CD2:9845, V-B:TYR:539:C:9838, V-B:MET:535:CE:9806, H-B:TYR:539:N:9841, V-B:TYR:531:CE2:9764, V-B:PRO:540:CA:9854, V-B:LEU:363:CD1:8159, V-B:TYR:539:CE2:9847, V-A:LEU:475:CD2:4258, V-A:PRO:482:CG:4326, V-B:ALA:541:CB:9863, H-B:TYR:539:OH:9849, V-B:TYR:539:CZ:9848, V-A:ASP:366:CG:3212, V-A:SER:385:CB:3408, V-B:TYR:539:CA:9840, V-A:ILE:369:CG2:3236, V-B:TYR:539:CB:9842, V-B:TYR:539:CG:9843, V-A:ILE:369:CD1:3238, V-A:HIS:383:CE1:3393, V-A:PRO:482:CB:4325, V-A:ASP:366:CB:3211, V-A:SER:385:CA:3406, V-B:ALA:541:CA:9861, H-A:SER:385:N:3407"]

$$$$
2aa_Ghoteimi_2023
     RDKit          3D

 85 90  0  0  0  0  0  0  0  0999 V2000
  130.4090  123.9130   73.9740 C   0  0  0  0  0  0  0  0  0  0  0  0
  129.3890  124.7140   73.1580 C   0  0  0  0  0  0  0  0  0  0  0  0
  128.8640  125.7630   73.9610 O   0  0  0  0  0  0  0  0  0  0  0  0
  128.0370  126.7040   73.4350 C   0  0  0  0  0  0  0  0  0  0  0  0
  127.1840  127.3070   74.0950 O   0  0  0  0  0  0  0  0  0  0  0  0
  128.2750  126.9510   71.9730 C   0  0  0  0  0  0  0  0  0  0  0  0
  127.4670  126.3700   70.9830 C   0  0  0  0  0  0  0  0  0  0  0  0
  127.7100  126.6210   69.6360 C   0  0  0  0  0  0  0  0  0  0  0  0
  128.7660  127.4480   69.2490 C   0  0  0  0  0  0  0  0  0  0  0  0
  128.9180  127.6360   67.8620 N   0  0  0  0  0  0  0  0  0  0  0  0
  128.7500  128.7490   67.1160 C   0  0  0  0  0  0  0  0  0  0  0  0
  128.4430  129.8580   67.5580 O   0  0  0  0  0  0  0  0  0  0  0  0
  128.9970  128.5550   65.6140 C   0  0  0  0  0  0  0  0  0  0  0  0
  129.8950  127.4590   65.4120 O   0  0  0  0  0  0  0  0  0  0  0  0
  130.1860  127.0240   64.1260 C   0  0  0  0  0  0  0  0  0  0  0  0
  130.2700  127.9590   63.1380 N   0  0  0  0  0  0  0  0  0  0  0  0
  130.5570  127.5690   61.8710 C   0  0  0  0  0  0  0  0  0  0  0  0
  130.6280  128.6490   60.8380 C   0  0  0  0  0  0  0  0  0  0  0  0
  131.0040  129.9500   61.1890 C   0  0  0  0  0  0  0  0  0  0  0  0
  131.0780  130.9580   60.2310 C   0  0  0  0  0  0  0  0  0  0  0  0
  130.7910  130.6990   58.8820 C   0  0  0  0  0  0  0  0  0  0  0  0
  130.8480  131.7020   57.9080 N   0  0  0  0  0  0  0  0  0  0  0  0
  129.6290  132.3940   57.4430 C   0  0  0  0  0  0  0  0  0  0  0  0
  129.8270  133.1980   56.1410 C   0  0  0  0  0  0  0  0  0  0  0  0
  130.9020  134.1120   56.2930 O   0  0  0  0  0  0  0  0  0  0  0  0
  132.1190  133.4390   56.5770 C   0  0  0  0  0  0  0  0  0  0  0  0
  131.9880  132.6420   57.8930 C   0  0  0  0  0  0  0  0  0  0  0  0
  130.3930  129.3980   58.5390 C   0  0  0  0  0  0  0  0  0  0  0  0
  130.3170  128.3920   59.4980 C   0  0  0  0  0  0  0  0  0  0  0  0
  130.7520  126.2210   61.5560 C   0  0  0  0  0  0  0  0  0  0  0  0
  130.6610  125.2390   62.5510 C   0  0  0  0  0  0  0  0  0  0  0  0
  130.8540  123.8120   62.1490 C   0  0  0  0  0  0  0  0  0  0  0  0
  132.1410  123.2880   62.0050 C   0  0  0  0  0  0  0  0  0  0  0  0
  132.3280  121.9660   61.6120 C   0  0  0  0  0  0  0  0  0  0  0  0
  131.2330  121.1330   61.3370 C   0  0  0  0  0  0  0  0  0  0  0  0
  131.3970  119.8010   60.9450 N   0  0  0  0  0  0  0  0  0  0  0  0
  130.6340  118.7120   61.5840 C   0  0  0  0  0  0  0  0  0  0  0  0
  130.6790  117.3860   60.7950 C   0  0  0  0  0  0  0  0  0  0  0  0
  132.0260  116.9980   60.5750 O   0  0  0  0  0  0  0  0  0  0  0  0
  132.7370  117.9760   59.8310 C   0  0  0  0  0  0  0  0  0  0  0  0
  132.7470  119.3160   60.5940 C   0  0  0  0  0  0  0  0  0  0  0  0
  129.9450  121.6660   61.4910 C   0  0  0  0  0  0  0  0  0  0  0  0
  129.7580  122.9870   61.8850 C   0  0  0  0  0  0  0  0  0  0  0  0
  130.3840  125.6550   63.8740 C   0  0  0  0  0  0  0  0  0  0  0  0
  130.3200  124.7040   64.9860 C   0  0  0  0  0  0  0  0  0  0  0  0
  130.2690  123.9520   65.8650 N   0  0  0  0  0  0  0  0  0  0  0  0
  129.5730  128.0380   70.2320 C   0  0  0  0  0  0  0  0  0  0  0  0
  129.3260  127.7880   71.5800 C   0  0  0  0  0  0  0  0  0  0  0  0
  130.2187  124.0624   75.0471 H   0  0  0  0  0  0  0  0  0  0  0  0
  130.3156  122.8444   73.7304 H   0  0  0  0  0  0  0  0  0  0  0  0
  131.4250  124.2571   73.7304 H   0  0  0  0  0  0  0  0  0  0  0  0
  129.8813  125.1409   72.2718 H   0  0  0  0  0  0  0  0  0  0  0  0
  128.5717  124.0512   72.8374 H   0  0  0  0  0  0  0  0  0  0  0  0
  126.6355  125.7114   71.2742 H   0  0  0  0  0  0  0  0  0  0  0  0
  127.0653  126.1644   68.8706 H   0  0  0  0  0  0  0  0  0  0  0  0
  129.2390  126.8150   67.3680 H   0  0  0  0  0  0  0  0  0  0  0  0
  128.0422  128.3434   65.1105 H   0  0  0  0  0  0  0  0  0  0  0  0
  129.4393  129.4711   65.1955 H   0  0  0  0  0  0  0  0  0  0  0  0
  131.2448  130.1802   62.2374 H   0  0  0  0  0  0  0  0  0  0  0  0
  131.3663  131.9745   60.5369 H   0  0  0  0  0  0  0  0  0  0  0  0
  128.8471  131.6400   57.2694 H   0  0  0  0  0  0  0  0  0  0  0  0
  129.3521  133.1155   58.2258 H   0  0  0  0  0  0  0  0  0  0  0  0
  130.0514  132.5058   55.3161 H   0  0  0  0  0  0  0  0  0  0  0  0
  128.9063  133.7575   55.9189 H   0  0  0  0  0  0  0  0  0  0  0  0
  132.3533  132.7475   55.7543 H   0  0  0  0  0  0  0  0  0  0  0  0
  132.9249  134.1802   56.6828 H   0  0  0  0  0  0  0  0  0  0  0  0
  132.9137  132.0674   58.0445 H   0  0  0  0  0  0  0  0  0  0  0  0
  131.8116  133.3736   58.6953 H   0  0  0  0  0  0  0  0  0  0  0  0
  130.1366  129.1691   57.4941 H   0  0  0  0  0  0  0  0  0  0  0  0
  130.0079  127.3798   59.1981 H   0  0  0  0  0  0  0  0  0  0  0  0
  130.9784  125.9294   60.5198 H   0  0  0  0  0  0  0  0  0  0  0  0
  133.0146  123.9261   62.2041 H   0  0  0  0  0  0  0  0  0  0  0  0
  133.3491  121.5685   61.5156 H   0  0  0  0  0  0  0  0  0  0  0  0
  131.0514  118.5355   62.5863 H   0  0  0  0  0  0  0  0  0  0  0  0
  129.5821  119.0316   61.6216 H   0  0  0  0  0  0  0  0  0  0  0  0
  130.1634  116.6025   61.3696 H   0  0  0  0  0  0  0  0  0  0  0  0
  130.1803  117.5260   59.8246 H   0  0  0  0  0  0  0  0  0  0  0  0
  133.7720  117.6361   59.6785 H   0  0  0  0  0  0  0  0  0  0  0  0
  132.2435  118.1184   58.8583 H   0  0  0  0  0  0  0  0  0  0  0  0
  133.3225  119.1845   61.5222 H   0  0  0  0  0  0  0  0  0  0  0  0
  133.1984  120.0658   59.9276 H   0  0  0  0  0  0  0  0  0  0  0  0
  129.0690  121.0296   61.2972 H   0  0  0  0  0  0  0  0  0  0  0  0
  128.7381  123.3855   61.9896 H   0  0  0  0  0  0  0  0  0  0  0  0
  130.4019  128.6989   69.9386 H   0  0  0  0  0  0  0  0  0  0  0  0
  129.9646  128.2540   72.3449 H   0  0  0  0  0  0  0  0  0  0  0  0
  1  2  1  0
  2  3  1  0
  3  4  1  0
  4  5  2  0
  4  6  1  0
  6  7  2  0
  7  8  1  0
  8  9  2  0
  9 10  1  0
 10 11  1  0
 11 12  2  0
 11 13  1  0
 13 14  1  0
 14 15  1  0
 15 16  2  0
 16 17  1  0
 17 18  1  0
 18 19  2  0
 19 20  1  0
 20 21  2  0
 21 22  1  0
 22 23  1  0
 23 24  1  0
 24 25  1  0
 25 26  1  0
 26 27  1  0
 21 28  1  0
 28 29  2  0
 17 30  2  0
 30 31  1  0
 31 32  1  0
 32 33  2  0
 33 34  1  0
 34 35  2  0
 35 36  1  0
 36 37  1  0
 37 38  1  0
 38 39  1  0
 39 40  1  0
 40 41  1  0
 35 42  1  0
 42 43  2  0
 31 44  2  0
 44 45  1  0
 45 46  3  0
  9 47  1  0
 47 48  2  0
 48  6  1  0
 44 15  1  0
 29 18  1  0
 43 32  1  0
 27 22  1  0
 41 36  1  0
  1 49  1  0
  1 50  1  0
  1 51  1  0
  2 52  1  0
  2 53  1  0
  7 54  1  0
  8 55  1  0
 10 56  1  0
 13 57  1  0
 13 58  1  0
 19 59  1  0
 20 60  1  0
 23 61  1  0
 23 62  1  0
 24 63  1  0
 24 64  1  0
 26 65  1  0
 26 66  1  0
 27 67  1  0
 27 68  1  0
 28 69  1  0
 29 70  1  0
 30 71  1  0
 33 72  1  0
 34 73  1  0
 37 74  1  0
 37 75  1  0
 38 76  1  0
 38 77  1  0
 40 78  1  0
 40 79  1  0
 41 80  1  0
 41 81  1  0
 42 82  1  0
 43 83  1  0
 47 84  1  0
 48 85  1  0
M  END
>  <Binding energies>  (1) 
[-11.5]

>  <Ligand effiencies>  (1) 
[-0.23469387755102042]

>  <Interactions>  (1) 
["V-B:GLU:543:CB:9877, V-A:HIS:456:CE1:4069, V-B:GLU:543:C:9873, V-B:GLY:544:C:9883, V-A:HIS:456:CD2:4067, V-B:GLU:543:CD:9879, V-B:HIS:456:CE1:9040, V-A:HIS:456:CG:4065, V-B:TYR:539:CD2:9845, V-B:TYR:539:CE2:9847, H-B:LYS:547:NZ:9922, V-A:LEU:475:CD2:4258, V-A:PRO:482:CG:4326, V-B:ALA:541:CB:9863, H-B:GLU:543:OE2:9881, V-A:HIS:383:CE1:3393, V-A:PRO:482:CB:4325, V-A:GLU:543:CD:4907, V-A:GLU:543:CG:4906, V-A:SER:385:CA:3406, V-A:GLU:543:CB:4905, H-B:TYR:484:OH:9318, H-A:TYR:484:OH:4347, V-A:TYR:531:CE2:4792, V-A:LEU:363:CD1:3188, V-A:PRO:540:CA:4882, V-A:TYR:539:CD1:4872, V-A:PRO:540:CD:4886, V-A:PRO:540:N:4883, V-A:PRO:540:CB:4884, V-A:TYR:539:CE1:4874, H-A:TYR:539:N:4869, V-A:ILE:538:CB:4861, H-A:ARG:545:NH2:4927, V-B:LYS:547:CE:9921, H-A:HIS:383:ND1:3390"]

$$$$
2b_Ghoteimi_2023
     RDKit          3D

 72 77  0  0  0  0  0  0  0  0999 V2000
  124.0080  130.0510   59.3210 N   0  0  0  0  0  0  0  0  0  0  0  0
  124.4560  129.8460   60.3680 C   0  0  0  0  0  0  0  0  0  0  0  0
  125.0260  129.5800   61.6920 C   0  0  0  0  0  0  0  0  0  0  0  0
  125.7080  128.3650   61.9520 C   0  0  0  0  0  0  0  0  0  0  0  0
  125.9020  127.2880   60.9360 C   0  0  0  0  0  0  0  0  0  0  0  0
  125.9820  125.9520   61.3330 C   0  0  0  0  0  0  0  0  0  0  0  0
  126.1630  124.9440   60.3910 C   0  0  0  0  0  0  0  0  0  0  0  0
  126.2870  125.2470   59.0250 C   0  0  0  0  0  0  0  0  0  0  0  0
  126.4560  124.2530   58.0600 N   0  0  0  0  0  0  0  0  0  0  0  0
  127.5710  123.2950   58.2020 C   0  0  0  0  0  0  0  0  0  0  0  0
  127.8730  122.5110   56.9080 C   0  0  0  0  0  0  0  0  0  0  0  0
  126.6980  121.8630   56.4440 O   0  0  0  0  0  0  0  0  0  0  0  0
  125.6620  122.7910   56.1640 C   0  0  0  0  0  0  0  0  0  0  0  0
  125.2990  123.5740   57.4430 C   0  0  0  0  0  0  0  0  0  0  0  0
  126.2080  126.5910   58.6370 C   0  0  0  0  0  0  0  0  0  0  0  0
  126.0230  127.5990   59.5790 C   0  0  0  0  0  0  0  0  0  0  0  0
  126.2400  128.1590   63.2310 C   0  0  0  0  0  0  0  0  0  0  0  0
  126.1240  129.1470   64.2130 C   0  0  0  0  0  0  0  0  0  0  0  0
  126.7000  128.9880   65.5840 C   0  0  0  0  0  0  0  0  0  0  0  0
  125.8790  128.6700   66.6710 C   0  0  0  0  0  0  0  0  0  0  0  0
  126.4100  128.5050   67.9470 C   0  0  0  0  0  0  0  0  0  0  0  0
  127.7840  128.6650   68.1880 C   0  0  0  0  0  0  0  0  0  0  0  0
  128.3370  128.4730   69.4590 N   0  0  0  0  0  0  0  0  0  0  0  0
  128.2340  127.1530   70.1140 C   0  0  0  0  0  0  0  0  0  0  0  0
  128.5270  127.1910   71.6300 C   0  0  0  0  0  0  0  0  0  0  0  0
  129.7980  127.7780   71.8640 O   0  0  0  0  0  0  0  0  0  0  0  0
  129.8520  129.1100   71.3810 C   0  0  0  0  0  0  0  0  0  0  0  0
  129.5960  129.1320   69.8590 C   0  0  0  0  0  0  0  0  0  0  0  0
  128.6050  128.9770   67.0940 C   0  0  0  0  0  0  0  0  0  0  0  0
  128.0720  129.1390   65.8180 C   0  0  0  0  0  0  0  0  0  0  0  0
  125.4710  130.3100   63.9620 N   0  0  0  0  0  0  0  0  0  0  0  0
  124.9200  130.5190   62.7430 C   0  0  0  0  0  0  0  0  0  0  0  0
  124.1000  132.0910   62.5920 S   0  0  0  0  0  0  0  0  0  0  0  0
  124.6480  132.8470   61.0320 C   0  0  0  0  0  0  0  0  0  0  0  0
  125.8830  133.7290   61.2220 C   0  0  0  0  0  0  0  0  0  0  0  0
  126.9800  133.1990   61.4100 O   0  0  0  0  0  0  0  0  0  0  0  0
  125.6600  135.0600   61.1720 N   0  0  0  0  0  0  0  0  0  0  0  0
  126.5960  136.0760   61.3020 C   0  0  0  0  0  0  0  0  0  0  0  0
  127.5370  136.1160   62.3300 C   0  0  0  0  0  0  0  0  0  0  0  0
  128.2650  137.2610   62.1050 C   0  0  0  0  0  0  0  0  0  0  0  0
  127.7870  137.8790   60.9990 O   0  0  0  0  0  0  0  0  0  0  0  0
  126.7290  137.1170   60.4970 N   0  0  0  0  0  0  0  0  0  0  0  0
  125.9013  125.6940   62.3993 H   0  0  0  0  0  0  0  0  0  0  0  0
  126.2096  123.8956   60.7205 H   0  0  0  0  0  0  0  0  0  0  0  0
  128.4745  123.8517   58.4914 H   0  0  0  0  0  0  0  0  0  0  0  0
  127.2733  122.5606   58.9649 H   0  0  0  0  0  0  0  0  0  0  0  0
  128.2331  123.2074   56.1364 H   0  0  0  0  0  0  0  0  0  0  0  0
  128.6427  121.7536   57.1176 H   0  0  0  0  0  0  0  0  0  0  0  0
  126.0019  123.4945   55.3897 H   0  0  0  0  0  0  0  0  0  0  0  0
  124.7747  122.2469   55.8082 H   0  0  0  0  0  0  0  0  0  0  0  0
  124.5452  124.3327   57.1858 H   0  0  0  0  0  0  0  0  0  0  0  0
  124.9204  122.8453   58.1749 H   0  0  0  0  0  0  0  0  0  0  0  0
  126.2934  126.8535   57.5722 H   0  0  0  0  0  0  0  0  0  0  0  0
  125.9717  128.6483   59.2528 H   0  0  0  0  0  0  0  0  0  0  0  0
  126.7523  127.2139   63.4643 H   0  0  0  0  0  0  0  0  0  0  0  0
  124.7969  128.5484   66.5149 H   0  0  0  0  0  0  0  0  0  0  0  0
  125.7417  128.2448   68.7810 H   0  0  0  0  0  0  0  0  0  0  0  0
  127.2134  126.7702   69.9665 H   0  0  0  0  0  0  0  0  0  0  0  0
  128.9943  126.5044   69.6544 H   0  0  0  0  0  0  0  0  0  0  0  0
  127.7523  127.7858   72.1360 H   0  0  0  0  0  0  0  0  0  0  0  0
  128.5254  126.1640   72.0240 H   0  0  0  0  0  0  0  0  0  0  0  0
  129.0839  129.7125   71.8881 H   0  0  0  0  0  0  0  0  0  0  0  0
  130.8492  129.5272   71.5849 H   0  0  0  0  0  0  0  0  0  0  0  0
  129.5594  130.1804   69.5282 H   0  0  0  0  0  0  0  0  0  0  0  0
  130.4162  128.5711   69.3871 H   0  0  0  0  0  0  0  0  0  0  0  0
  129.6878  129.0956   67.2469 H   0  0  0  0  0  0  0  0  0  0  0  0
  128.7395  129.3896   64.9804 H   0  0  0  0  0  0  0  0  0  0  0  0
  124.8900  132.0475   60.3163 H   0  0  0  0  0  0  0  0  0  0  0  0
  123.8318  133.4833   60.6592 H   0  0  0  0  0  0  0  0  0  0  0  0
  124.7130  135.3650   60.9970 H   0  0  0  0  0  0  0  0  0  0  0  0
  127.6687  135.3889   63.1449 H   0  0  0  0  0  0  0  0  0  0  0  0
  129.1014  137.6175   62.7242 H   0  0  0  0  0  0  0  0  0  0  0  0
  1  2  3  0
  2  3  1  0
  3  4  2  0
  4  5  1  0
  5  6  2  0
  6  7  1  0
  7  8  2  0
  8  9  1  0
  9 10  1  0
 10 11  1  0
 11 12  1  0
 12 13  1  0
 13 14  1  0
  8 15  1  0
 15 16  2  0
  4 17  1  0
 17 18  2  0
 18 19  1  0
 19 20  2  0
 20 21  1  0
 21 22  2  0
 22 23  1  0
 23 24  1  0
 24 25  1  0
 25 26  1  0
 26 27  1  0
 27 28  1  0
 22 29  1  0
 29 30  2  0
 18 31  1  0
 31 32  2  0
 32 33  1  0
 33 34  1  0
 34 35  1  0
 35 36  2  0
 35 37  1  0
 37 38  1  0
 38 39  1  0
 39 40  2  0
 40 41  1  0
 41 42  1  0
 32  3  1  0
 42 38  2  0
 16  5  1  0
 30 19  1  0
 14  9  1  0
 28 23  1  0
  6 43  1  0
  7 44  1  0
 10 45  1  0
 10 46  1  0
 11 47  1  0
 11 48  1  0
 13 49  1  0
 13 50  1  0
 14 51  1  0
 14 52  1  0
 15 53  1  0
 16 54  1  0
 17 55  1  0
 20 56  1  0
 21 57  1  0
 24 58  1  0
 24 59  1  0
 25 60  1  0
 25 61  1  0
 27 62  1  0
 27 63  1  0
 28 64  1  0
 28 65  1  0
 29 66  1  0
 30 67  1  0
 34 68  1  0
 34 69  1  0
 37 70  1  0
 39 71  1  0
 40 72  1  0
M  END
>  <Binding energies>  (1) 
[-11.43]

>  <Ligand effiencies>  (1) 
[-0.2658139534883721]

>  <Interactions>  (1) 
["V-B:GLU:543:CB:9877, V-A:HIS:456:CE1:4069, V-B:GLU:543:CD:9879, V-B:HIS:456:CE1:9040, V-B:ASP:366:CG:8183, V-B:ASP:366:CB:8182, V-B:PRO:540:N:9855, V-B:PRO:540:CB:9856, V-B:TYR:539:CD2:9845, V-B:TYR:539:C:9838, V-B:MET:535:CE:9806, H-B:TYR:539:N:9841, V-B:TYR:531:CE2:9764, V-B:PRO:540:CA:9854, V-B:LEU:363:CD1:8159, V-B:TYR:539:CE2:9847, V-B:TYR:539:CZ:9848, V-B:TYR:539:CE1:9846, V-B:TYR:539:CA:9840, V-B:TYR:539:CD1:9844, V-B:TYR:539:CG:9843, V-A:GLU:543:CD:4907, V-A:GLU:543:CG:4906, V-A:GLU:543:CB:4905, V-A:TYR:539:CD1:4872, V-A:TYR:539:C:4866, V-A:ALA:541:CB:4891, V-B:ILE:369:CG2:8207, V-A:GLU:543:C:4901, V-A:ALA:541:CA:4889, V-B:SER:385:CB:8379, H-B:SER:385:OG:8380, H-B:HIS:383:NE2:8364, V-B:PRO:482:CB:9296, V-B:PRO:482:CG:9297"]

$$$$
2b_Grossjean_2025
     RDKit          3D

 42 43  0  0  0  0  0  0  0  0999 V2000
  124.5210  123.9950   58.0130 C   0  0  0  0  0  0  0  0  0  0  0  0
  125.4170  123.9880   56.9100 O   0  0  0  0  0  0  0  0  0  0  0  0
  126.3700  123.0290   56.7900 C   0  0  0  0  0  0  0  0  0  0  0  0
  126.2410  122.0270   56.0790 O   0  0  0  0  0  0  0  0  0  0  0  0
  127.5970  123.3060   57.6090 C   0  0  0  0  0  0  0  0  0  0  0  0
  127.9310  122.5320   58.7300 C   0  0  0  0  0  0  0  0  0  0  0  0
  129.0750  122.8160   59.4700 C   0  0  0  0  0  0  0  0  0  0  0  0
  129.9100  123.8720   59.1040 C   0  0  0  0  0  0  0  0  0  0  0  0
  131.0360  124.0750   59.9250 N   0  0  0  0  0  0  0  0  0  0  0  0
  132.3230  124.2950   59.5830 C   0  0  0  0  0  0  0  0  0  0  0  0
  132.7590  124.3320   58.4310 O   0  0  0  0  0  0  0  0  0  0  0  0
  133.2870  124.4920   60.7570 C   0  0  0  0  0  0  0  0  0  0  0  0
  133.6730  122.9410   61.6350 S   0  0  0  0  0  0  0  0  0  0  0  0
  132.2160  121.9080   61.7180 C   0  0  0  0  0  0  0  0  0  0  0  0
  131.1120  122.4890   62.2530 N   0  0  0  0  0  0  0  0  0  0  0  0
  129.9750  121.7640   62.3520 C   0  0  0  0  0  0  0  0  0  0  0  0
  128.7910  122.4810   62.9710 C   0  0  0  0  0  0  0  0  0  0  0  0
  129.8860  120.4440   61.9190 C   0  0  0  0  0  0  0  0  0  0  0  0
  131.0130  119.8260   61.3570 C   0  0  0  0  0  0  0  0  0  0  0  0
  130.8960  118.3660   60.8780 C   0  0  0  0  0  0  0  0  0  0  0  0
  129.6520  117.9230   61.0640 F   0  0  0  0  0  0  0  0  0  0  0  0
  131.1950  118.2830   59.5810 F   0  0  0  0  0  0  0  0  0  0  0  0
  131.7170  117.5410   61.5320 F   0  0  0  0  0  0  0  0  0  0  0  0
  132.2140  120.5720   61.2530 C   0  0  0  0  0  0  0  0  0  0  0  0
  133.4240  119.9740   60.6790 C   0  0  0  0  0  0  0  0  0  0  0  0
  134.3780  119.5020   60.2260 N   0  0  0  0  0  0  0  0  0  0  0  0
  129.5790  124.6560   57.9900 C   0  0  0  0  0  0  0  0  0  0  0  0
  128.4340  124.3720   57.2520 C   0  0  0  0  0  0  0  0  0  0  0  0
  125.0948  123.9905   58.9515 H   0  0  0  0  0  0  0  0  0  0  0  0
  123.8944  124.8981   57.9706 H   0  0  0  0  0  0  0  0  0  0  0  0
  123.8803  123.1018   57.9706 H   0  0  0  0  0  0  0  0  0  0  0  0
  127.2835  121.6937   59.0267 H   0  0  0  0  0  0  0  0  0  0  0  0
  129.3225  122.2036   60.3496 H   0  0  0  0  0  0  0  0  0  0  0  0
  130.8470  123.9960   60.9130 H   0  0  0  0  0  0  0  0  0  0  0  0
  134.2248  124.9188   60.3719 H   0  0  0  0  0  0  0  0  0  0  0  0
  132.7941  125.1620   61.4768 H   0  0  0  0  0  0  0  0  0  0  0  0
  128.8668  122.4351   64.0674 H   0  0  0  0  0  0  0  0  0  0  0  0
  128.7888  123.5323   62.6473 H   0  0  0  0  0  0  0  0  0  0  0  0
  127.8584  121.9958   62.6473 H   0  0  0  0  0  0  0  0  0  0  0  0
  128.9404  119.8905   62.0167 H   0  0  0  0  0  0  0  0  0  0  0  0
  130.2254  125.4970   57.6988 H   0  0  0  0  0  0  0  0  0  0  0  0
  128.1829  124.9913   56.3783 H   0  0  0  0  0  0  0  0  0  0  0  0
  1  2  1  0
  2  3  1  0
  3  4  2  0
  3  5  1  0
  5  6  2  0
  6  7  1  0
  7  8  2  0
  8  9  1  0
  9 10  1  0
 10 11  2  0
 10 12  1  0
 12 13  1  0
 13 14  1  0
 14 15  2  0
 15 16  1  0
 16 17  1  0
 16 18  2  0
 18 19  1  0
 19 20  1  0
 20 21  1  0
 20 22  1  0
 20 23  1  0
 19 24  2  0
 24 25  1  0
 25 26  3  0
  8 27  1  0
 27 28  2  0
 28  5  1  0
 24 14  1  0
  1 29  1  0
  1 30  1  0
  1 31  1  0
  6 32  1  0
  7 33  1  0
  9 34  1  0
 12 35  1  0
 12 36  1  0
 17 37  1  0
 17 38  1  0
 17 39  1  0
 18 40  1  0
 27 41  1  0
 28 42  1  0
M  END
>  <Binding energies>  (1) 
[-7.6]

>  <Ligand effiencies>  (1) 
[-0.26206896551724135]

>  <Interactions>  (1) 
["V-B:PRO:540:N:9855, H-B:TYR:531:OH:9766, V-B:PRO:540:CB:9856, V-B:TYR:539:CD2:9845, V-B:TYR:539:C:9838, V-B:MET:535:CE:9806, H-B:TYR:539:N:9841, V-B:PRO:540:CA:9854, V-B:LEU:363:CD1:8159, V-B:TYR:539:CE2:9847, V-A:LEU:475:CD2:4258, V-A:PRO:482:CG:4326, V-B:ALA:541:CB:9863, H-B:TYR:539:OH:9849, V-B:TYR:539:CZ:9848, V-A:ASP:366:CG:3212, V-A:SER:385:CB:3408, V-A:ILE:369:CG2:3236, V-B:TYR:539:CB:9842, V-B:TYR:539:CG:9843, V-A:ILE:369:CD1:3238, V-A:HIS:383:CE1:3393, V-A:PRO:482:CB:4325, V-A:ASP:366:CB:3211, V-A:SER:385:CA:3406, V-B:ALA:541:CA:9861, H-A:SER:385:N:3407"]

$$$$
2c_Ghoteimi_2023
     RDKit          3D

 72 77  0  0  0  0  0  0  0  0999 V2000
  128.2230  132.4790   65.4540 N   0  0  0  0  0  0  0  0  0  0  0  0
  128.0740  131.5920   64.7270 C   0  0  0  0  0  0  0  0  0  0  0  0
  127.8850  130.4640   63.8090 C   0  0  0  0  0  0  0  0  0  0  0  0
  127.7720  129.1420   64.3060 C   0  0  0  0  0  0  0  0  0  0  0  0
  127.8380  128.7890   65.7560 C   0  0  0  0  0  0  0  0  0  0  0  0
  126.6810  128.8130   66.5370 C   0  0  0  0  0  0  0  0  0  0  0  0
  126.7330  128.4810   67.8880 C   0  0  0  0  0  0  0  0  0  0  0  0
  127.9470  128.1290   68.5000 C   0  0  0  0  0  0  0  0  0  0  0  0
  128.0180  127.7730   69.8490 N   0  0  0  0  0  0  0  0  0  0  0  0
  127.2270  126.6260   70.3360 C   0  0  0  0  0  0  0  0  0  0  0  0
  127.0940  126.5860   71.8730 C   0  0  0  0  0  0  0  0  0  0  0  0
  128.3810  126.6060   72.4730 O   0  0  0  0  0  0  0  0  0  0  0  0
  129.1030  127.7780   72.1270 C   0  0  0  0  0  0  0  0  0  0  0  0
  129.2880  127.8500   70.5970 C   0  0  0  0  0  0  0  0  0  0  0  0
  129.1030  128.1120   67.7070 C   0  0  0  0  0  0  0  0  0  0  0  0
  129.0510  128.4420   66.3560 C   0  0  0  0  0  0  0  0  0  0  0  0
  127.5890  128.0990   63.3890 C   0  0  0  0  0  0  0  0  0  0  0  0
  127.4930  128.3680   62.0200 C   0  0  0  0  0  0  0  0  0  0  0  0
  127.2800  127.2930   61.0030 C   0  0  0  0  0  0  0  0  0  0  0  0
  126.3750  126.2530   61.2410 C   0  0  0  0  0  0  0  0  0  0  0  0
  126.1680  125.2520   60.2960 C   0  0  0  0  0  0  0  0  0  0  0  0
  126.8690  125.2470   59.0790 C   0  0  0  0  0  0  0  0  0  0  0  0
  126.6550  124.2630   58.1090 N   0  0  0  0  0  0  0  0  0  0  0  0
  127.7060  123.2620   57.8310 C   0  0  0  0  0  0  0  0  0  0  0  0
  127.5010  122.5010   56.5040 C   0  0  0  0  0  0  0  0  0  0  0  0
  126.2160  121.9020   56.4810 O   0  0  0  0  0  0  0  0  0  0  0  0
  125.1880  122.8740   56.5850 C   0  0  0  0  0  0  0  0  0  0  0  0
  125.3240  123.6510   57.9110 C   0  0  0  0  0  0  0  0  0  0  0  0
  127.7660  126.2980   58.8400 C   0  0  0  0  0  0  0  0  0  0  0  0
  127.9710  127.3000   59.7850 C   0  0  0  0  0  0  0  0  0  0  0  0
  127.5980  129.6360   61.5470 N   0  0  0  0  0  0  0  0  0  0  0  0
  127.8080  130.6580   62.4110 C   0  0  0  0  0  0  0  0  0  0  0  0
  127.9320  132.2460   61.6200 S   0  0  0  0  0  0  0  0  0  0  0  0
  129.6990  132.6580   61.4980 C   0  0  0  0  0  0  0  0  0  0  0  0
  130.2440  132.4370   60.0860 C   0  0  0  0  0  0  0  0  0  0  0  0
  131.1590  131.6310   59.9110 O   0  0  0  0  0  0  0  0  0  0  0  0
  129.6610  133.1730   59.1150 N   0  0  0  0  0  0  0  0  0  0  0  0
  129.9610  133.1450   57.7610 C   0  0  0  0  0  0  0  0  0  0  0  0
  130.9010  133.8120   57.1280 N   0  0  0  0  0  0  0  0  0  0  0  0
  130.9050  133.5390   55.8390 C   0  0  0  0  0  0  0  0  0  0  0  0
  129.9480  132.6280   55.4000 C   0  0  0  0  0  0  0  0  0  0  0  0
  128.9980  132.1070   56.7590 S   0  0  0  0  0  0  0  0  0  0  0  0
  125.7208  129.0965   66.0813 H   0  0  0  0  0  0  0  0  0  0  0  0
  125.8093  128.4946   68.4851 H   0  0  0  0  0  0  0  0  0  0  0  0
  126.2191  126.6863   69.8996 H   0  0  0  0  0  0  0  0  0  0  0  0
  127.7564  125.7114   70.0305 H   0  0  0  0  0  0  0  0  0  0  0  0
  126.5206  127.4614   72.2118 H   0  0  0  0  0  0  0  0  0  0  0  0
  126.5734  125.6624   72.1663 H   0  0  0  0  0  0  0  0  0  0  0  0
  128.5465  128.6631   72.4689 H   0  0  0  0  0  0  0  0  0  0  0  0
  130.0910  127.7497   72.6097 H   0  0  0  0  0  0  0  0  0  0  0  0
  129.7812  128.8017   70.3498 H   0  0  0  0  0  0  0  0  0  0  0  0
  129.8923  126.9796   70.3015 H   0  0  0  0  0  0  0  0  0  0  0  0
  130.0661  127.8335   68.1597 H   0  0  0  0  0  0  0  0  0  0  0  0
  129.9726  128.4295   65.7556 H   0  0  0  0  0  0  0  0  0  0  0  0
  127.5204  127.0615   63.7481 H   0  0  0  0  0  0  0  0  0  0  0  0
  125.8185  126.2258   62.1894 H   0  0  0  0  0  0  0  0  0  0  0  0
  125.4433  124.4516   60.5060 H   0  0  0  0  0  0  0  0  0  0  0  0
  128.6759  123.7791   57.7888 H   0  0  0  0  0  0  0  0  0  0  0  0
  127.6630  122.5171   58.6393 H   0  0  0  0  0  0  0  0  0  0  0  0
  127.5898  123.2047   55.6632 H   0  0  0  0  0  0  0  0  0  0  0  0
  128.2665  121.7159   56.4164 H   0  0  0  0  0  0  0  0  0  0  0  0
  125.2653  123.5766   55.7422 H   0  0  0  0  0  0  0  0  0  0  0  0
  124.2114  122.3684   56.5630 H   0  0  0  0  0  0  0  0  0  0  0  0
  124.5690  124.4509   57.9235 H   0  0  0  0  0  0  0  0  0  0  0  0
  125.1806  122.9247   58.7246 H   0  0  0  0  0  0  0  0  0  0  0  0
  128.3176  126.3315   57.8889 H   0  0  0  0  0  0  0  0  0  0  0  0
  128.6858  128.1084   59.5717 H   0  0  0  0  0  0  0  0  0  0  0  0
  129.8366  133.7149   61.7702 H   0  0  0  0  0  0  0  0  0  0  0  0
  130.2498  131.9954   62.1818 H   0  0  0  0  0  0  0  0  0  0  0  0
  128.9120  133.7940   59.3860 H   0  0  0  0  0  0  0  0  0  0  0  0
  131.6238  134.0045   55.1487 H   0  0  0  0  0  0  0  0  0  0  0  0
  129.8147  132.2923   54.3610 H   0  0  0  0  0  0  0  0  0  0  0  0
  1  2  3  0
  2  3  1  0
  3  4  2  0
  4  5  1  0
  5  6  2  0
  6  7  1  0
  7  8  2  0
  8  9  1  0
  9 10  1  0
 10 11  1  0
 11 12  1  0
 12 13  1  0
 13 14  1  0
  8 15  1  0
 15 16  2  0
  4 17  1  0
 17 18  2  0
 18 19  1  0
 19 20  2  0
 20 21  1  0
 21 22  2  0
 22 23  1  0
 23 24  1  0
 24 25  1  0
 25 26  1  0
 26 27  1  0
 27 28  1  0
 22 29  1  0
 29 30  2  0
 18 31  1  0
 31 32  2  0
 32 33  1  0
 33 34  1  0
 34 35  1  0
 35 36  2  0
 35 37  1  0
 37 38  1  0
 38 39  2  0
 39 40  1  0
 40 41  2  0
 41 42  1  0
 32  3  1  0
 42 38  1  0
 16  5  1  0
 30 19  1  0
 14  9  1  0
 28 23  1  0
  6 43  1  0
  7 44  1  0
 10 45  1  0
 10 46  1  0
 11 47  1  0
 11 48  1  0
 13 49  1  0
 13 50  1  0
 14 51  1  0
 14 52  1  0
 15 53  1  0
 16 54  1  0
 17 55  1  0
 20 56  1  0
 21 57  1  0
 24 58  1  0
 24 59  1  0
 25 60  1  0
 25 61  1  0
 27 62  1  0
 27 63  1  0
 28 64  1  0
 28 65  1  0
 29 66  1  0
 30 67  1  0
 34 68  1  0
 34 69  1  0
 37 70  1  0
 40 71  1  0
 41 72  1  0
M  END
>  <Binding energies>  (1) 
[-10.15]

>  <Ligand effiencies>  (1) 
[-0.236046511627907]

>  <Interactions>  (1) 
["V-B:GLU:543:CB:9877, V-A:HIS:456:CE1:4069, V-B:GLU:543:C:9873, V-B:GLY:544:C:9883, V-B:GLU:543:CD:9879, V-B:HIS:456:CE1:9040, V-B:PRO:540:CB:9856, V-B:TYR:539:C:9838, V-B:MET:535:CE:9806, H-B:TYR:539:N:9841, V-B:TYR:531:CE2:9764, V-B:PRO:540:CA:9854, V-B:LEU:363:CD1:8159, V-B:GLY:544:CA:9885, V-B:TYR:539:CZ:9848, V-B:TYR:539:CE1:9846, V-B:TYR:539:CD1:9844, V-B:TYR:539:CG:9843, V-A:GLU:543:CD:4907, V-A:GLU:543:CG:4906, V-A:PRO:540:CA:4882, V-A:TYR:539:CD1:4872, V-A:ILE:538:CG2:4862, V-A:PRO:540:N:4883, V-A:TYR:539:C:4866, V-A:TYR:539:CE1:4874, H-A:TYR:539:N:4869, V-A:ILE:538:CB:4861, V-A:ILE:538:CA:4859, V-B:PRO:540:CD:9858, H-A:TYR:539:O:4867"]

$$$$
2c_Grossjean_2025
     RDKit          3D

 40 41  0  0  0  0  0  0  0  0999 V2000
  125.6980  122.3580   56.4380 C   0  0  0  0  0  0  0  0  0  0  0  0
  126.3680  123.6070   56.5800 O   0  0  0  0  0  0  0  0  0  0  0  0
  127.4700  123.6900   57.4090 C   0  0  0  0  0  0  0  0  0  0  0  0
  128.2780  124.8160   57.2600 C   0  0  0  0  0  0  0  0  0  0  0  0
  129.4110  124.9880   58.0500 C   0  0  0  0  0  0  0  0  0  0  0  0
  129.7560  124.0160   59.0010 C   0  0  0  0  0  0  0  0  0  0  0  0
  130.8690  124.1110   59.8550 N   0  0  0  0  0  0  0  0  0  0  0  0
  132.1640  124.3160   59.5320 C   0  0  0  0  0  0  0  0  0  0  0  0
  132.5940  124.4040   58.3810 O   0  0  0  0  0  0  0  0  0  0  0  0
  133.1240  124.4010   60.7290 C   0  0  0  0  0  0  0  0  0  0  0  0
  133.5430  122.8050   61.5130 S   0  0  0  0  0  0  0  0  0  0  0  0
  132.0830  121.7750   61.5830 C   0  0  0  0  0  0  0  0  0  0  0  0
  130.9670  122.3690   62.0790 N   0  0  0  0  0  0  0  0  0  0  0  0
  129.8290  121.6480   62.1700 C   0  0  0  0  0  0  0  0  0  0  0  0
  128.6320  122.3780   62.7490 C   0  0  0  0  0  0  0  0  0  0  0  0
  129.7480  120.3170   61.7660 C   0  0  0  0  0  0  0  0  0  0  0  0
  130.8850  119.6850   61.2440 C   0  0  0  0  0  0  0  0  0  0  0  0
  130.7790  118.2130   60.7990 C   0  0  0  0  0  0  0  0  0  0  0  0
  131.6320  117.4630   61.4990 F   0  0  0  0  0  0  0  0  0  0  0  0
  129.5410  117.7620   60.9990 F   0  0  0  0  0  0  0  0  0  0  0  0
  131.0650  118.0440   59.5060 F   0  0  0  0  0  0  0  0  0  0  0  0
  132.0890  120.4280   61.1470 C   0  0  0  0  0  0  0  0  0  0  0  0
  133.3100  119.8180   60.6110 C   0  0  0  0  0  0  0  0  0  0  0  0
  134.2730  119.3350   60.1870 N   0  0  0  0  0  0  0  0  0  0  0  0
  128.9410  122.8940   59.1650 C   0  0  0  0  0  0  0  0  0  0  0  0
  127.8090  122.7270   58.3740 C   0  0  0  0  0  0  0  0  0  0  0  0
  125.4767  121.9454   57.4334 H   0  0  0  0  0  0  0  0  0  0  0  0
  124.7585  122.5066   55.8855 H   0  0  0  0  0  0  0  0  0  0  0  0
  126.3414  121.6575   55.8855 H   0  0  0  0  0  0  0  0  0  0  0  0
  128.0174  125.5771   56.5098 H   0  0  0  0  0  0  0  0  0  0  0  0
  130.0355  125.8854   57.9288 H   0  0  0  0  0  0  0  0  0  0  0  0
  130.6690  123.9400   60.8300 H   0  0  0  0  0  0  0  0  0  0  0  0
  134.0593  124.8642   60.3816 H   0  0  0  0  0  0  0  0  0  0  0  0
  132.5988  124.9873   61.4974 H   0  0  0  0  0  0  0  0  0  0  0  0
  128.6806  122.3483   63.8475 H   0  0  0  0  0  0  0  0  0  0  0  0
  128.6413  123.4243   62.4097 H   0  0  0  0  0  0  0  0  0  0  0  0
  127.7060  121.8907   62.4097 H   0  0  0  0  0  0  0  0  0  0  0  0
  128.7997  119.7668   61.8559 H   0  0  0  0  0  0  0  0  0  0  0  0
  129.1953  122.1387   59.9232 H   0  0  0  0  0  0  0  0  0  0  0  0
  127.1763  121.8367   58.5047 H   0  0  0  0  0  0  0  0  0  0  0  0
  1  2  1  0
  2  3  1  0
  3  4  2  0
  4  5  1  0
  5  6  2  0
  6  7  1  0
  7  8  1  0
  8  9  2  0
  8 10  1  0
 10 11  1  0
 11 12  1  0
 12 13  2  0
 13 14  1  0
 14 15  1  0
 14 16  2  0
 16 17  1  0
 17 18  1  0
 18 19  1  0
 18 20  1  0
 18 21  1  0
 17 22  2  0
 22 23  1  0
 23 24  3  0
  6 25  1  0
 25 26  2  0
 26  3  1  0
 22 12  1  0
  1 27  1  0
  1 28  1  0
  1 29  1  0
  4 30  1  0
  5 31  1  0
  7 32  1  0
 10 33  1  0
 10 34  1  0
 15 35  1  0
 15 36  1  0
 15 37  1  0
 16 38  1  0
 25 39  1  0
 26 40  1  0
M  END
>  <Binding energies>  (1) 
[-6.62]

>  <Ligand effiencies>  (1) 
[-0.2451851851851852]

>  <Interactions>  (1) 
["V-B:PRO:540:N:9855, H-B:TYR:531:OH:9766, V-B:TYR:539:CD2:9845, V-B:TYR:539:C:9838, V-B:MET:535:CE:9806, V-B:PRO:540:CA:9854, V-B:LEU:363:CD1:8159, V-B:TYR:539:CE2:9847, V-A:LEU:475:CD2:4258, V-A:PRO:482:CG:4326, V-B:ALA:541:CB:9863, H-B:TYR:539:OH:9849, V-B:TYR:539:CZ:9848, V-A:ASP:366:CG:3212, V-A:SER:385:CB:3408, V-B:TYR:539:CA:9840, V-A:ILE:369:CG2:3236, V-B:TYR:539:CB:9842, V-B:TYR:539:CG:9843, V-A:ILE:369:CD1:3238, V-A:HIS:383:CE1:3393, V-A:PRO:482:CB:4325, V-A:SER:385:CA:3406, V-B:PRO:540:CD:9858, V-B:ALA:541:CA:9861, H-A:SER:385:N:3407"]

$$$$
2d_Ghoteimi_2023
     RDKit          3D

 68 72  0  0  0  0  0  0  0  0999 V2000
  134.2670  125.7960   67.7580 C   0  0  0  0  0  0  0  0  0  0  0  0
  133.0720  126.5610   67.7380 O   0  0  0  0  0  0  0  0  0  0  0  0
  132.2900  126.5830   66.6390 C   0  0  0  0  0  0  0  0  0  0  0  0
  132.6930  126.5660   65.4720 O   0  0  0  0  0  0  0  0  0  0  0  0
  130.8010  126.6250   67.0150 C   0  0  0  0  0  0  0  0  0  0  0  0
  129.8340  127.5580   65.7790 S   0  0  0  0  0  0  0  0  0  0  0  0
  130.1840  126.8830   64.1680 C   0  0  0  0  0  0  0  0  0  0  0  0
  130.3140  127.8310   63.2080 N   0  0  0  0  0  0  0  0  0  0  0  0
  130.5750  127.4600   61.9290 C   0  0  0  0  0  0  0  0  0  0  0  0
  130.6870  128.5590   60.9230 C   0  0  0  0  0  0  0  0  0  0  0  0
  131.1510  129.8240   61.2980 C   0  0  0  0  0  0  0  0  0  0  0  0
  131.2580  130.8530   60.3660 C   0  0  0  0  0  0  0  0  0  0  0  0
  130.9140  130.6490   59.0210 C   0  0  0  0  0  0  0  0  0  0  0  0
  130.9990  131.6770   58.0740 N   0  0  0  0  0  0  0  0  0  0  0  0
  129.8450  132.5490   57.7760 C   0  0  0  0  0  0  0  0  0  0  0  0
  130.0020  133.3570   56.4720 C   0  0  0  0  0  0  0  0  0  0  0  0
  131.2050  134.1080   56.5090 O   0  0  0  0  0  0  0  0  0  0  0  0
  132.3400  133.2680   56.6380 C   0  0  0  0  0  0  0  0  0  0  0  0
  132.2500  132.4510   57.9440 C   0  0  0  0  0  0  0  0  0  0  0  0
  130.4370  129.3840   58.6520 C   0  0  0  0  0  0  0  0  0  0  0  0
  130.3280  128.3570   59.5840 C   0  0  0  0  0  0  0  0  0  0  0  0
  130.7180  126.1130   61.5850 C   0  0  0  0  0  0  0  0  0  0  0  0
  130.6220  125.1160   62.5640 C   0  0  0  0  0  0  0  0  0  0  0  0
  130.8130  123.7000   62.1280 C   0  0  0  0  0  0  0  0  0  0  0  0
  129.7090  122.8650   61.9500 C   0  0  0  0  0  0  0  0  0  0  0  0
  129.8750  121.5480   61.5320 C   0  0  0  0  0  0  0  0  0  0  0  0
  131.1550  121.0270   61.2830 C   0  0  0  0  0  0  0  0  0  0  0  0
  131.3450  119.7110   60.8500 N   0  0  0  0  0  0  0  0  0  0  0  0
  130.6220  118.5850   61.4720 C   0  0  0  0  0  0  0  0  0  0  0  0
  130.6810  117.2840   60.6430 C   0  0  0  0  0  0  0  0  0  0  0  0
  132.0310  116.9360   60.3810 O   0  0  0  0  0  0  0  0  0  0  0  0
  132.7030  117.9530   59.6530 C   0  0  0  0  0  0  0  0  0  0  0  0
  132.6980  119.2700   60.4580 C   0  0  0  0  0  0  0  0  0  0  0  0
  132.2570  121.8780   61.4470 C   0  0  0  0  0  0  0  0  0  0  0  0
  132.0900  123.1950   61.8640 C   0  0  0  0  0  0  0  0  0  0  0  0
  130.3520  125.5050   63.8990 C   0  0  0  0  0  0  0  0  0  0  0  0
  130.2620  124.5000   64.9630 C   0  0  0  0  0  0  0  0  0  0  0  0
  130.1910  123.7030   65.8000 N   0  0  0  0  0  0  0  0  0  0  0  0
  134.5635  125.6062   68.8002 H   0  0  0  0  0  0  0  0  0  0  0  0
  134.0977  124.8380   67.2447 H   0  0  0  0  0  0  0  0  0  0  0  0
  135.0662  126.3508   67.2447 H   0  0  0  0  0  0  0  0  0  0  0  0
  130.4156  125.5962   67.0699 H   0  0  0  0  0  0  0  0  0  0  0  0
  130.7015  127.1289   67.9877 H   0  0  0  0  0  0  0  0  0  0  0  0
  131.4355  130.0087   62.3444 H   0  0  0  0  0  0  0  0  0  0  0  0
  131.6177  131.8410   60.6891 H   0  0  0  0  0  0  0  0  0  0  0  0
  128.9470  131.9197   57.6892 H   0  0  0  0  0  0  0  0  0  0  0  0
  129.7690  133.2756   58.5984 H   0  0  0  0  0  0  0  0  0  0  0  0
  130.0299  132.6662   55.6164 H   0  0  0  0  0  0  0  0  0  0  0  0
  129.1498  134.0447   56.3683 H   0  0  0  0  0  0  0  0  0  0  0  0
  132.3826  132.5800   55.7808 H   0  0  0  0  0  0  0  0  0  0  0  0
  133.2469  133.8900   56.6645 H   0  0  0  0  0  0  0  0  0  0  0  0
  133.0971  131.7499   57.9743 H   0  0  0  0  0  0  0  0  0  0  0  0
  132.2713  133.1704   58.7758 H   0  0  0  0  0  0  0  0  0  0  0  0
  130.1439  129.2000   57.6079 H   0  0  0  0  0  0  0  0  0  0  0  0
  129.9547  127.3726   59.2651 H   0  0  0  0  0  0  0  0  0  0  0  0
  130.9073  125.8339   60.5380 H   0  0  0  0  0  0  0  0  0  0  0  0
  128.6973  123.2518   62.1421 H   0  0  0  0  0  0  0  0  0  0  0  0
  128.9919  120.9067   61.3949 H   0  0  0  0  0  0  0  0  0  0  0  0
  131.0652  118.3893   62.4595 H   0  0  0  0  0  0  0  0  0  0  0  0
  129.5639  118.8777   61.5410 H   0  0  0  0  0  0  0  0  0  0  0  0
  130.1980  116.4714   61.2056 H   0  0  0  0  0  0  0  0  0  0  0  0
  130.1568  117.4401   59.6886 H   0  0  0  0  0  0  0  0  0  0  0  0
  133.7421  117.6428   59.4685 H   0  0  0  0  0  0  0  0  0  0  0  0
  132.1858  118.1133   58.6955 H   0  0  0  0  0  0  0  0  0  0  0  0
  133.2952  119.1237   61.3701 H   0  0  0  0  0  0  0  0  0  0  0  0
  133.1187  120.0506   59.8071 H   0  0  0  0  0  0  0  0  0  0  0  0
  133.2692  121.4988   61.2429 H   0  0  0  0  0  0  0  0  0  0  0  0
  132.9695  123.8441   61.9870 H   0  0  0  0  0  0  0  0  0  0  0  0
  1  2  1  0
  2  3  1  0
  3  4  2  0
  3  5  1  0
  5  6  1  0
  6  7  1  0
  7  8  2  0
  8  9  1  0
  9 10  1  0
 10 11  2  0
 11 12  1  0
 12 13  2  0
 13 14  1  0
 14 15  1  0
 15 16  1  0
 16 17  1  0
 17 18  1  0
 18 19  1  0
 13 20  1  0
 20 21  2  0
  9 22  2  0
 22 23  1  0
 23 24  1  0
 24 25  2  0
 25 26  1  0
 26 27  2  0
 27 28  1  0
 28 29  1  0
 29 30  1  0
 30 31  1  0
 31 32  1  0
 32 33  1  0
 27 34  1  0
 34 35  2  0
 23 36  2  0
 36 37  1  0
 37 38  3  0
 36  7  1  0
 21 10  1  0
 35 24  1  0
 19 14  1  0
 33 28  1  0
  1 39  1  0
  1 40  1  0
  1 41  1  0
  5 42  1  0
  5 43  1  0
 11 44  1  0
 12 45  1  0
 15 46  1  0
 15 47  1  0
 16 48  1  0
 16 49  1  0
 18 50  1  0
 18 51  1  0
 19 52  1  0
 19 53  1  0
 20 54  1  0
 21 55  1  0
 22 56  1  0
 25 57  1  0
 26 58  1  0
 29 59  1  0
 29 60  1  0
 30 61  1  0
 30 62  1  0
 32 63  1  0
 32 64  1  0
 33 65  1  0
 33 66  1  0
 34 67  1  0
 35 68  1  0
M  END
>  <Binding energies>  (1) 
[-9.0]

>  <Ligand effiencies>  (1) 
[-0.23684210526315788]

>  <Interactions>  (1) 
["V-A:HIS:456:CE1:4069, V-B:GLU:543:CD:9879, V-A:TYR:484:CZ:4346, V-A:ARG:545:CD:4922, V-B:TYR:539:CD2:9845, V-A:ARG:545:CG:4921, V-B:TYR:539:CE2:9847, V-A:LEU:475:CD2:4258, V-A:PRO:482:CG:4326, V-B:ALA:541:CB:9863, V-B:TYR:539:CB:9842, V-A:HIS:383:CE1:3393, V-A:GLU:543:CD:4907, V-A:SER:385:CA:3406, H-A:TYR:484:OH:4347, V-A:TYR:531:CE2:4792, V-A:LEU:363:CD1:3188, V-A:PRO:540:CA:4882, V-A:TYR:539:CD1:4872, V-A:PRO:540:CD:4886, V-A:PRO:540:N:4883, V-A:PRO:540:CB:4884, V-A:TYR:539:C:4866, V-A:TYR:539:CE1:4874, H-A:TYR:539:N:4869, H-A:ARG:545:NH2:4927, H-A:ARG:545:NE:4923, H-A:HIS:383:ND1:3390, V-A:ARG:545:CB:4920, V-A:ILE:455:C:4051"]

$$$$
2d_Grossjean_2025
     RDKit          3D

 36 37  0  0  0  0  0  0  0  0999 V2000
  124.0810  123.2420   63.1760 C   0  0  0  0  0  0  0  0  0  0  0  0
  124.8800  123.4480   61.9040 C   0  0  0  0  0  0  0  0  0  0  0  0
  124.2560  123.6260   60.6710 C   0  0  0  0  0  0  0  0  0  0  0  0
  125.0390  123.8180   59.5230 C   0  0  0  0  0  0  0  0  0  0  0  0
  124.3310  124.0240   58.1700 C   0  0  0  0  0  0  0  0  0  0  0  0
  123.0090  124.0100   58.3400 F   0  0  0  0  0  0  0  0  0  0  0  0
  124.6860  125.1970   57.6420 F   0  0  0  0  0  0  0  0  0  0  0  0
  124.6320  123.0770   57.2800 F   0  0  0  0  0  0  0  0  0  0  0  0
  126.4510  123.8160   59.6580 C   0  0  0  0  0  0  0  0  0  0  0  0
  127.3130  124.0580   58.4970 C   0  0  0  0  0  0  0  0  0  0  0  0
  127.9920  124.2510   57.5800 N   0  0  0  0  0  0  0  0  0  0  0  0
  126.9970  123.6020   60.9450 C   0  0  0  0  0  0  0  0  0  0  0  0
  128.7450  123.5370   61.2880 S   0  0  0  0  0  0  0  0  0  0  0  0
  129.0160  122.5000   62.7620 C   0  0  0  0  0  0  0  0  0  0  0  0
  130.1130  121.4500   62.5630 C   0  0  0  0  0  0  0  0  0  0  0  0
  131.1940  121.5990   63.1330 O   0  0  0  0  0  0  0  0  0  0  0  0
  129.8040  120.4340   61.7300 N   0  0  0  0  0  0  0  0  0  0  0  0
  130.5860  119.3270   61.3510 C   0  0  0  0  0  0  0  0  0  0  0  0
  131.8690  119.6150   60.8800 C   0  0  0  0  0  0  0  0  0  0  0  0
  132.7160  118.5870   60.4750 C   0  0  0  0  0  0  0  0  0  0  0  0
  132.2750  117.2670   60.5330 C   0  0  0  0  0  0  0  0  0  0  0  0
  130.9930  116.9680   60.9880 C   0  0  0  0  0  0  0  0  0  0  0  0
  130.1450  117.9930   61.3940 C   0  0  0  0  0  0  0  0  0  0  0  0
  126.2250  123.4400   62.0480 N   0  0  0  0  0  0  0  0  0  0  0  0
  124.7303  123.4094   64.0480 H   0  0  0  0  0  0  0  0  0  0  0  0
  123.2423  123.9533   63.2014 H   0  0  0  0  0  0  0  0  0  0  0  0
  123.6907  122.2139   63.2014 H   0  0  0  0  0  0  0  0  0  0  0  0
  123.1584  123.6161   60.5984 H   0  0  0  0  0  0  0  0  0  0  0  0
  129.3026  123.1514   63.6007 H   0  0  0  0  0  0  0  0  0  0  0  0
  128.0780  121.9613   62.9616 H   0  0  0  0  0  0  0  0  0  0  0  0
  128.9100  120.4930   61.2640 H   0  0  0  0  0  0  0  0  0  0  0  0
  132.2118  120.6590   60.8288 H   0  0  0  0  0  0  0  0  0  0  0  0
  133.7285  118.8160   60.1110 H   0  0  0  0  0  0  0  0  0  0  0  0
  132.9449  116.4538   60.2168 H   0  0  0  0  0  0  0  0  0  0  0  0
  130.6517  115.9230   61.0262 H   0  0  0  0  0  0  0  0  0  0  0  0
  129.1301  117.7599   61.7484 H   0  0  0  0  0  0  0  0  0  0  0  0
  1  2  1  0
  2  3  2  0
  3  4  1  0
  4  5  1  0
  5  6  1  0
  5  7  1  0
  5  8  1  0
  4  9  2  0
  9 10  1  0
 10 11  3  0
  9 12  1  0
 12 13  1  0
 13 14  1  0
 14 15  1  0
 15 16  2  0
 15 17  1  0
 17 18  1  0
 18 19  2  0
 19 20  1  0
 20 21  2  0
 21 22  1  0
 22 23  2  0
 12 24  2  0
 24  2  1  0
 23 18  1  0
  1 25  1  0
  1 26  1  0
  1 27  1  0
  3 28  1  0
 14 29  1  0
 14 30  1  0
 17 31  1  0
 19 32  1  0
 20 33  1  0
 21 34  1  0
 22 35  1  0
 23 36  1  0
M  END
>  <Binding energies>  (1) 
[-7.43]

>  <Ligand effiencies>  (1) 
[-0.29719999999999996]

>  <Interactions>  (1) 
["V-B:LEU:363:CB:8157, V-B:TYR:531:CZ:9765, V-B:ASP:366:CB:8182, V-B:LEU:363:CA:8155, V-B:PRO:540:CB:9856, V-B:TYR:539:CD2:9845, V-B:TYR:531:CE2:9764, V-B:PRO:540:CA:9854, V-B:LEU:363:CD1:8159, V-B:TYR:539:CE2:9847, V-B:ARG:545:CZ:9897, V-A:LEU:475:CD2:4258, V-A:PRO:482:CG:4326, V-B:ALA:541:CB:9863, V-A:SER:385:CB:3408, V-A:HIS:383:CE1:3393, V-A:PRO:482:CB:4325, V-A:SER:385:CA:3406, V-B:ALA:541:C:9859, V-B:PRO:540:CG:9857, V-B:PRO:540:CD:9858, H-B:ALA:541:N:9862, V-B:ASN:362:CB:8146, H-B:TYR:539:O:9839, V-B:ASN:362:CG:8147, V-B:LEU:363:CG:8158, V-B:LEU:363:C:8153"]

$$$$
2e_Grossjean_2025
     RDKit          3D

 38 39  0  0  0  0  0  0  0  0999 V2000
  130.2280  132.4470   61.8330 C   0  0  0  0  0  0  0  0  0  0  0  0
  131.2390  132.2220   60.7250 C   0  0  0  0  0  0  0  0  0  0  0  0
  132.5990  132.0580   60.9980 C   0  0  0  0  0  0  0  0  0  0  0  0
  133.4700  131.8430   59.9280 C   0  0  0  0  0  0  0  0  0  0  0  0
  132.9650  131.7980   58.6260 C   0  0  0  0  0  0  0  0  0  0  0  0
  131.5920  131.9810   58.4230 C   0  0  0  0  0  0  0  0  0  0  0  0
  131.1330  131.8840   57.0980 N   0  0  0  0  0  0  0  0  0  0  0  0
  130.6140  132.8610   56.3220 C   0  0  0  0  0  0  0  0  0  0  0  0
  130.5280  134.0470   56.6430 O   0  0  0  0  0  0  0  0  0  0  0  0
  130.0630  132.4130   54.9650 C   0  0  0  0  0  0  0  0  0  0  0  0
  128.2650  132.1270   55.0180 S   0  0  0  0  0  0  0  0  0  0  0  0
  128.0350  130.7470   56.1170 C   0  0  0  0  0  0  0  0  0  0  0  0
  129.1810  130.2440   56.6400 N   0  0  0  0  0  0  0  0  0  0  0  0
  129.1000  129.1650   57.4510 C   0  0  0  0  0  0  0  0  0  0  0  0
  130.4180  128.6550   58.0010 C   0  0  0  0  0  0  0  0  0  0  0  0
  127.8910  128.5480   57.7650 C   0  0  0  0  0  0  0  0  0  0  0  0
  126.6970  129.0510   57.2250 C   0  0  0  0  0  0  0  0  0  0  0  0
  125.3710  128.3450   57.5650 C   0  0  0  0  0  0  0  0  0  0  0  0
  125.6030  127.0820   57.9230 F   0  0  0  0  0  0  0  0  0  0  0  0
  124.7640  128.9760   58.5700 F   0  0  0  0  0  0  0  0  0  0  0  0
  124.5230  128.3200   56.5350 F   0  0  0  0  0  0  0  0  0  0  0  0
  126.7640  130.1840   56.3780 C   0  0  0  0  0  0  0  0  0  0  0  0
  125.5570  130.7400   55.7580 C   0  0  0  0  0  0  0  0  0  0  0  0
  124.6030  131.1770   55.2690 N   0  0  0  0  0  0  0  0  0  0  0  0
  130.7340  132.1830   59.4650 N   0  0  0  0  0  0  0  0  0  0  0  0
  130.7231  132.3368   62.8091 H   0  0  0  0  0  0  0  0  0  0  0  0
  129.8089  133.4604   61.7468 H   0  0  0  0  0  0  0  0  0  0  0  0
  129.4187  131.7070   61.7468 H   0  0  0  0  0  0  0  0  0  0  0  0
  132.9748  132.0973   62.0311 H   0  0  0  0  0  0  0  0  0  0  0  0
  134.5468  131.7099   60.1089 H   0  0  0  0  0  0  0  0  0  0  0  0
  133.6365  131.6213   57.7729 H   0  0  0  0  0  0  0  0  0  0  0  0
  131.2440  130.9750   56.6740 H   0  0  0  0  0  0  0  0  0  0  0  0
  130.2764  133.1937   54.2200 H   0  0  0  0  0  0  0  0  0  0  0  0
  130.5499  131.4635   54.6978 H   0  0  0  0  0  0  0  0  0  0  0  0
  130.3859  128.6674   59.1005 H   0  0  0  0  0  0  0  0  0  0  0  0
  130.5880  127.6262   57.6507 H   0  0  0  0  0  0  0  0  0  0  0  0
  131.2362  129.3014   57.6507 H   0  0  0  0  0  0  0  0  0  0  0  0
  127.8723  127.6730   58.4313 H   0  0  0  0  0  0  0  0  0  0  0  0
  1  2  1  0
  2  3  2  0
  3  4  1  0
  4  5  2  0
  5  6  1  0
  6  7  1  0
  7  8  1  0
  8  9  2  0
  8 10  1  0
 10 11  1  0
 11 12  1  0
 12 13  2  0
 13 14  1  0
 14 15  1  0
 14 16  2  0
 16 17  1  0
 17 18  1  0
 18 19  1  0
 18 20  1  0
 18 21  1  0
 17 22  2  0
 22 23  1  0
 23 24  3  0
  6 25  2  0
 25  2  1  0
 22 12  1  0
  1 26  1  0
  1 27  1  0
  1 28  1  0
  3 29  1  0
  4 30  1  0
  5 31  1  0
  7 32  1  0
 10 33  1  0
 10 34  1  0
 15 35  1  0
 15 36  1  0
 15 37  1  0
 16 38  1  0
M  END
>  <Binding energies>  (1) 
[-6.48]

>  <Ligand effiencies>  (1) 
[-0.24923076923076926]

>  <Interactions>  (1) 
["V-B:ASP:366:CG:8183, V-B:TYR:531:CZ:9765, V-B:ASP:366:CB:8182, V-A:ASN:362:C:3171, V-A:TYR:531:CE2:4792, V-A:LEU:363:CA:3184, H-A:TYR:531:OH:4794, V-A:PRO:540:CA:4882, V-A:TYR:531:CZ:4793, V-A:PRO:540:CB:4884, V-A:TYR:539:CE1:4874, H-A:TYR:539:N:4869, V-A:MET:535:CG:4832, V-A:ALA:541:CB:4891, V-B:TYR:531:CE1:9763, V-B:TYR:531:CD1:9761, H-A:TYR:539:OH:4877"]

$$$$
2f_Grossjean_2025
     RDKit          3D

 35 36  0  0  0  0  0  0  0  0999 V2000
  133.4020  124.0250   60.5110 C   0  0  0  0  0  0  0  0  0  0  0  0
  132.6410  122.7430   60.7880 C   0  0  0  0  0  0  0  0  0  0  0  0
  133.1560  121.4970   60.4360 C   0  0  0  0  0  0  0  0  0  0  0  0
  132.4090  120.3400   60.7060 C   0  0  0  0  0  0  0  0  0  0  0  0
  132.9900  118.9730   60.2990 C   0  0  0  0  0  0  0  0  0  0  0  0
  132.2170  118.4040   59.3720 F   0  0  0  0  0  0  0  0  0  0  0  0
  134.2170  119.1310   59.8000 F   0  0  0  0  0  0  0  0  0  0  0  0
  133.0790  118.1220   61.3230 F   0  0  0  0  0  0  0  0  0  0  0  0
  131.1470  120.4800   61.3400 C   0  0  0  0  0  0  0  0  0  0  0  0
  130.3060  119.3070   61.5920 C   0  0  0  0  0  0  0  0  0  0  0  0
  129.6410  118.3800   61.7910 N   0  0  0  0  0  0  0  0  0  0  0  0
  130.7160  121.7830   61.6850 C   0  0  0  0  0  0  0  0  0  0  0  0
  129.1700  122.1430   62.4940 S   0  0  0  0  0  0  0  0  0  0  0  0
  128.2140  123.2620   61.4150 C   0  0  0  0  0  0  0  0  0  0  0  0
  128.1080  122.8190   59.9480 C   0  0  0  0  0  0  0  0  0  0  0  0
  129.0350  122.2170   59.4050 O   0  0  0  0  0  0  0  0  0  0  0  0
  126.9510  123.1640   59.3420 N   0  0  0  0  0  0  0  0  0  0  0  0
  126.5220  122.9120   58.0250 C   0  0  0  0  0  0  0  0  0  0  0  0
  125.2250  123.1450   57.5300 C   0  0  0  0  0  0  0  0  0  0  0  0
  124.9320  122.8550   56.1970 C   0  0  0  0  0  0  0  0  0  0  0  0
  125.9450  122.3410   55.3870 C   0  0  0  0  0  0  0  0  0  0  0  0
  127.2050  122.1150   55.8370 N   0  0  0  0  0  0  0  0  0  0  0  0
  127.4750  122.4030   57.1360 C   0  0  0  0  0  0  0  0  0  0  0  0
  131.4420  122.8910   61.3960 N   0  0  0  0  0  0  0  0  0  0  0  0
  133.6827  124.4979   61.4637 H   0  0  0  0  0  0  0  0  0  0  0  0
  134.3100  123.7951   59.9342 H   0  0  0  0  0  0  0  0  0  0  0  0
  132.7653  124.7120   59.9342 H   0  0  0  0  0  0  0  0  0  0  0  0
  134.1401  121.4209   59.9504 H   0  0  0  0  0  0  0  0  0  0  0  0
  127.1950  123.3398   61.8220 H   0  0  0  0  0  0  0  0  0  0  0  0
  128.7569  124.2187   61.4078 H   0  0  0  0  0  0  0  0  0  0  0  0
  126.3030  123.7090   59.8930 H   0  0  0  0  0  0  0  0  0  0  0  0
  124.4463  123.5537   58.1908 H   0  0  0  0  0  0  0  0  0  0  0  0
  123.9235  123.0280   55.7932 H   0  0  0  0  0  0  0  0  0  0  0  0
  125.7120  122.1087   54.3374 H   0  0  0  0  0  0  0  0  0  0  0  0
  128.4950  122.2272   57.5085 H   0  0  0  0  0  0  0  0  0  0  0  0
  1  2  1  0
  2  3  2  0
  3  4  1  0
  4  5  1  0
  5  6  1  0
  5  7  1  0
  5  8  1  0
  4  9  2  0
  9 10  1  0
 10 11  3  0
  9 12  1  0
 12 13  1  0
 13 14  1  0
 14 15  1  0
 15 16  2  0
 15 17  1  0
 17 18  1  0
 18 19  2  0
 19 20  1  0
 20 21  2  0
 21 22  1  0
 22 23  2  0
 12 24  2  0
 24  2  1  0
 23 18  1  0
  1 25  1  0
  1 26  1  0
  1 27  1  0
  3 28  1  0
 14 29  1  0
 14 30  1  0
 17 31  1  0
 19 32  1  0
 20 33  1  0
 21 34  1  0
 23 35  1  0
M  END
>  <Binding energies>  (1) 
[-7.2]

>  <Ligand effiencies>  (1) 
[-0.28800000000000003]

>  <Interactions>  (1) 
["V-B:TYR:531:CZ:9765, V-B:PRO:540:N:9855, V-B:PRO:540:CB:9856, V-B:TYR:539:CD2:9845, V-B:TYR:539:C:9838, V-B:MET:535:CE:9806, H-B:TYR:539:N:9841, V-B:TYR:531:CE2:9764, V-B:PRO:540:CA:9854, V-B:LEU:363:CD1:8159, V-B:TYR:539:CE2:9847, V-A:LEU:475:CD2:4258, V-B:ILE:538:CB:9833, V-B:ALA:541:CB:9863, V-A:ASP:366:CG:3212, V-A:SER:385:CB:3408, V-B:MET:535:CG:9804, V-B:TYR:539:CA:9840, V-B:TYR:539:CD1:9844, V-A:ILE:369:CG2:3236, V-B:ILE:538:CD1:9836, V-B:TYR:539:CB:9842, V-B:TYR:539:CG:9843, V-B:ILE:538:CG2:9834, V-A:ILE:369:CD1:3238, V-B:ILE:538:CA:9831, V-A:SER:385:CA:3406, V-B:PRO:540:CD:9858, H-B:ALA:541:N:9862, V-B:ILE:538:C:9829, V-A:LEU:373:CD2:3280, V-A:VAL:384:C:3396"]

$$$$
2g_Grossjean_2025
     RDKit          3D

 39 40  0  0  0  0  0  0  0  0999 V2000
  133.5820  123.9800   60.8590 C   0  0  0  0  0  0  0  0  0  0  0  0
  132.8030  122.6920   61.0500 C   0  0  0  0  0  0  0  0  0  0  0  0
  133.2960  121.4680   60.6040 C   0  0  0  0  0  0  0  0  0  0  0  0
  132.5330  120.3060   60.7990 C   0  0  0  0  0  0  0  0  0  0  0  0
  133.0900  118.9620   60.2900 C   0  0  0  0  0  0  0  0  0  0  0  0
  134.3270  119.1240   59.8160 F   0  0  0  0  0  0  0  0  0  0  0  0
  133.1220  118.0790   61.2890 F   0  0  0  0  0  0  0  0  0  0  0  0
  132.3530  118.4360   59.3090 F   0  0  0  0  0  0  0  0  0  0  0  0
  131.2820  120.4180   61.4560 C   0  0  0  0  0  0  0  0  0  0  0  0
  130.4210  119.2450   61.6340 C   0  0  0  0  0  0  0  0  0  0  0  0
  129.7430  118.3180   61.7740 N   0  0  0  0  0  0  0  0  0  0  0  0
  130.8760  121.6990   61.9030 C   0  0  0  0  0  0  0  0  0  0  0  0
  129.3520  122.0140   62.7650 S   0  0  0  0  0  0  0  0  0  0  0  0
  128.6410  123.5490   62.0790 C   0  0  0  0  0  0  0  0  0  0  0  0
  127.2260  123.3990   61.5020 C   0  0  0  0  0  0  0  0  0  0  0  0
  126.2850  123.0170   62.2010 O   0  0  0  0  0  0  0  0  0  0  0  0
  127.0980  123.7060   60.1990 N   0  0  0  0  0  0  0  0  0  0  0  0
  125.8530  123.6500   59.4310 C   0  0  0  0  0  0  0  0  0  0  0  0
  126.0190  123.1530   57.9990 C   0  0  0  0  0  0  0  0  0  0  0  0
  127.2910  122.8270   57.5190 C   0  0  0  0  0  0  0  0  0  0  0  0
  127.4410  122.3370   56.2240 C   0  0  0  0  0  0  0  0  0  0  0  0
  126.3190  122.1660   55.4170 C   0  0  0  0  0  0  0  0  0  0  0  0
  125.0470  122.4770   55.8940 C   0  0  0  0  0  0  0  0  0  0  0  0
  124.8960  122.9660   57.1890 C   0  0  0  0  0  0  0  0  0  0  0  0
  131.6160  122.8150   61.6850 N   0  0  0  0  0  0  0  0  0  0  0  0
  133.8378  124.4030   61.8417 H   0  0  0  0  0  0  0  0  0  0  0  0
  134.5050  123.7706   60.2984 H   0  0  0  0  0  0  0  0  0  0  0  0
  132.9680  124.7002   60.2984 H   0  0  0  0  0  0  0  0  0  0  0  0
  134.2741  121.4125   60.1037 H   0  0  0  0  0  0  0  0  0  0  0  0
  128.6055  124.2992   62.8827 H   0  0  0  0  0  0  0  0  0  0  0  0
  129.2888  123.8436   61.2402 H   0  0  0  0  0  0  0  0  0  0  0  0
  127.9120  124.0360   59.7000 H   0  0  0  0  0  0  0  0  0  0  0  0
  125.1577  122.9748   59.9513 H   0  0  0  0  0  0  0  0  0  0  0  0
  125.4783  124.6821   59.3640 H   0  0  0  0  0  0  0  0  0  0  0  0
  128.1727  122.9574   58.1637 H   0  0  0  0  0  0  0  0  0  0  0  0
  128.4410  122.0862   55.8404 H   0  0  0  0  0  0  0  0  0  0  0  0
  126.4379  121.7817   54.3932 H   0  0  0  0  0  0  0  0  0  0  0  0
  124.1661  122.3368   55.2503 H   0  0  0  0  0  0  0  0  0  0  0  0
  123.8936  123.2048   57.5739 H   0  0  0  0  0  0  0  0  0  0  0  0
  1  2  1  0
  2  3  2  0
  3  4  1  0
  4  5  1  0
  5  6  1  0
  5  7  1  0
  5  8  1  0
  4  9  2  0
  9 10  1  0
 10 11  3  0
  9 12  1  0
 12 13  1  0
 13 14  1  0
 14 15  1  0
 15 16  2  0
 15 17  1  0
 17 18  1  0
 18 19  1  0
 19 20  2  0
 20 21  1  0
 21 22  2  0
 22 23  1  0
 23 24  2  0
 12 25  2  0
 25  2  1  0
 24 19  1  0
  1 26  1  0
  1 27  1  0
  1 28  1  0
  3 29  1  0
 14 30  1  0
 14 31  1  0
 17 32  1  0
 18 33  1  0
 18 34  1  0
 20 35  1  0
 21 36  1  0
 22 37  1  0
 23 38  1  0
 24 39  1  0
M  END
>  <Binding energies>  (1) 
[-7.4]

>  <Ligand effiencies>  (1) 
[-0.2846153846153846]

>  <Interactions>  (1) 
["V-B:PRO:540:N:9855, V-B:PRO:540:CB:9856, V-B:TYR:539:CD2:9845, V-B:TYR:539:C:9838, V-B:MET:535:CE:9806, V-B:TYR:531:CE2:9764, V-B:PRO:540:CA:9854, V-B:LEU:363:CD1:8159, V-B:TYR:539:CE2:9847, V-A:LEU:475:CD2:4258, V-B:ILE:538:CB:9833, V-B:ALA:541:CB:9863, V-A:ASP:366:CG:3212, V-A:SER:385:CB:3408, V-B:TYR:539:CE1:9846, V-B:MET:535:CG:9804, V-B:TYR:539:CA:9840, V-B:TYR:539:CD1:9844, V-A:ILE:369:CG2:3236, V-B:ILE:538:CD1:9836, V-B:TYR:539:CB:9842, V-B:TYR:539:CG:9843, V-B:ILE:538:CG2:9834, V-A:ILE:369:CD1:3238, V-B:ILE:538:CA:9831, V-A:SER:385:CA:3406, V-B:PRO:540:CG:9857, V-B:PRO:540:CD:9858, H-B:ALA:541:N:9862, V-B:ILE:538:C:9829, V-A:LEU:373:CD2:3280, V-A:SER:385:C:3404, V-A:VAL:384:C:3396"]

$$$$
2h_Grossjean_2025
     RDKit          3D

 51 52  0  0  0  0  0  0  0  0999 V2000
  135.7030  124.0570   76.7940 C   0  0  0  0  0  0  0  0  0  0  0  0
  134.3580  124.3930   77.1160 O   0  0  0  0  0  0  0  0  0  0  0  0
  133.6720  125.2860   76.3130 C   0  0  0  0  0  0  0  0  0  0  0  0
  134.2660  126.3920   75.6840 C   0  0  0  0  0  0  0  0  0  0  0  0
  133.5110  127.2440   74.8820 C   0  0  0  0  0  0  0  0  0  0  0  0
  132.1480  127.0130   74.6910 C   0  0  0  0  0  0  0  0  0  0  0  0
  131.3440  127.9500   73.7910 C   0  0  0  0  0  0  0  0  0  0  0  0
  130.0400  127.4130   73.4000 N   0  0  0  0  0  0  0  0  0  0  0  0
  129.3360  127.8080   72.3240 C   0  0  0  0  0  0  0  0  0  0  0  0
  129.6850  128.7350   71.5910 O   0  0  0  0  0  0  0  0  0  0  0  0
  128.0490  127.0170   72.0490 C   0  0  0  0  0  0  0  0  0  0  0  0
  128.0380  126.0860   70.4800 S   0  0  0  0  0  0  0  0  0  0  0  0
  127.4430  127.2000   69.2260 C   0  0  0  0  0  0  0  0  0  0  0  0
  126.1740  127.6270   69.4330 N   0  0  0  0  0  0  0  0  0  0  0  0
  125.6160  128.4630   68.5300 C   0  0  0  0  0  0  0  0  0  0  0  0
  124.1910  128.8940   68.8220 C   0  0  0  0  0  0  0  0  0  0  0  0
  126.2940  128.9080   67.3970 C   0  0  0  0  0  0  0  0  0  0  0  0
  127.6160  128.4930   67.1760 C   0  0  0  0  0  0  0  0  0  0  0  0
  128.3530  129.0020   65.9220 C   0  0  0  0  0  0  0  0  0  0  0  0
  129.2480  128.0990   65.5220 F   0  0  0  0  0  0  0  0  0  0  0  0
  127.5300  129.2310   64.8960 F   0  0  0  0  0  0  0  0  0  0  0  0
  128.9840  130.1450   66.1940 F   0  0  0  0  0  0  0  0  0  0  0  0
  128.2180  127.6210   68.1190 C   0  0  0  0  0  0  0  0  0  0  0  0
  129.6150  127.2050   67.9650 C   0  0  0  0  0  0  0  0  0  0  0  0
  130.7190  126.8810   67.8440 N   0  0  0  0  0  0  0  0  0  0  0  0
  131.5350  125.9260   75.3320 C   0  0  0  0  0  0  0  0  0  0  0  0
  130.1920  125.6940   75.1510 O   0  0  0  0  0  0  0  0  0  0  0  0
  129.8930  124.4820   74.4700 C   0  0  0  0  0  0  0  0  0  0  0  0
  132.3030  125.0560   76.1250 C   0  0  0  0  0  0  0  0  0  0  0  0
  131.7090  123.9800   76.7390 O   0  0  0  0  0  0  0  0  0  0  0  0
  130.9040  124.3210   77.8600 C   0  0  0  0  0  0  0  0  0  0  0  0
  136.2771  123.9136   77.7212 H   0  0  0  0  0  0  0  0  0  0  0  0
  135.7180  123.1275   76.2059 H   0  0  0  0  0  0  0  0  0  0  0  0
  136.1534  124.8702   76.2059 H   0  0  0  0  0  0  0  0  0  0  0  0
  135.3391  126.5875   75.8263 H   0  0  0  0  0  0  0  0  0  0  0  0
  133.9923  128.1052   74.3956 H   0  0  0  0  0  0  0  0  0  0  0  0
  131.1831  128.8957   74.3294 H   0  0  0  0  0  0  0  0  0  0  0  0
  131.9257  128.0872   72.8675 H   0  0  0  0  0  0  0  0  0  0  0  0
  129.7060  126.6240   73.9330 H   0  0  0  0  0  0  0  0  0  0  0  0
  127.9058  126.3011   72.8718 H   0  0  0  0  0  0  0  0  0  0  0  0
  127.2415  127.7600   71.9718 H   0  0  0  0  0  0  0  0  0  0  0  0
  124.0377  128.9404   69.9103 H   0  0  0  0  0  0  0  0  0  0  0  0
  124.0111  129.8867   68.3837 H   0  0  0  0  0  0  0  0  0  0  0  0
  123.4910  128.1674   68.3837 H   0  0  0  0  0  0  0  0  0  0  0  0
  125.7968  129.5794   66.6814 H   0  0  0  0  0  0  0  0  0  0  0  0
  129.6969  123.6873   75.2048 H   0  0  0  0  0  0  0  0  0  0  0  0
  129.0034  124.6257   73.8392 H   0  0  0  0  0  0  0  0  0  0  0  0
  130.7474  124.1955   73.8392 H   0  0  0  0  0  0  0  0  0  0  0  0
  131.4494  124.0900   78.7869 H   0  0  0  0  0  0  0  0  0  0  0  0
  130.6702  125.3955   77.8302 H   0  0  0  0  0  0  0  0  0  0  0  0
  129.9695  123.7414   77.8302 H   0  0  0  0  0  0  0  0  0  0  0  0
  1  2  1  0
  2  3  1  0
  3  4  2  0
  4  5  1  0
  5  6  2  0
  6  7  1  0
  7  8  1  0
  8  9  1  0
  9 10  2  0
  9 11  1  0
 11 12  1  0
 12 13  1  0
 13 14  2  0
 14 15  1  0
 15 16  1  0
 15 17  2  0
 17 18  1  0
 18 19  1  0
 19 20  1  0
 19 21  1  0
 19 22  1  0
 18 23  2  0
 23 24  1  0
 24 25  3  0
  6 26  1  0
 26 27  1  0
 27 28  1  0
 26 29  2  0
 29 30  1  0
 30 31  1  0
 29  3  1  0
 23 13  1  0
  1 32  1  0
  1 33  1  0
  1 34  1  0
  4 35  1  0
  5 36  1  0
  7 37  1  0
  7 38  1  0
  8 39  1  0
 11 40  1  0
 11 41  1  0
 16 42  1  0
 16 43  1  0
 16 44  1  0
 17 45  1  0
 28 46  1  0
 28 47  1  0
 28 48  1  0
 31 49  1  0
 31 50  1  0
 31 51  1  0
M  END
>  <Binding energies>  (1) 
[-6.29]

>  <Ligand effiencies>  (1) 
[-0.1965625]

>  <Interactions>  (1) 
["V-B:GLU:543:CB:9877, V-A:HIS:456:CE1:4069, V-A:HIS:456:C:4060, V-B:ARG:545:CA:9890, V-A:HIS:456:CB:4064, H-A:LYS:471:NZ:4220, V-A:VAL:457:C:4072, V-B:ARG:545:CD:9894, V-B:GLU:543:CD:9879, V-B:HIS:456:CE1:9040, V-A:HIS:456:CG:4065, V-B:ARG:545:CG:9893, V-B:ARG:545:CB:9892, H-B:LYS:547:NZ:9922, V-A:GLU:543:CD:4907, V-A:GLU:543:CG:4906, V-A:GLU:543:CB:4905, H-B:HIS:456:ND1:9037, V-B:LYS:547:CE:9921, V-A:VAL:458:CG2:4086, V-A:LYS:471:CE:4219, V-A:ASP:473:CG:4239, V-A:LYS:471:CD:4218, V-A:VAL:457:CA:4074, V-B:ILE:455:C:9022, V-A:LYS:471:CG:4217, V-A:LYS:471:C:4212, V-A:LYS:471:CB:4216"]

$$$$
2i_Grossjean_2025
     RDKit          3D

 32 33  0  0  0  0  0  0  0  0999 V2000
  133.1560  124.1760   60.3530 C   0  0  0  0  0  0  0  0  0  0  0  0
  132.4660  122.8540   60.6320 C   0  0  0  0  0  0  0  0  0  0  0  0
  133.1030  121.6360   60.4040 C   0  0  0  0  0  0  0  0  0  0  0  0
  132.4230  120.4410   60.6800 C   0  0  0  0  0  0  0  0  0  0  0  0
  133.1420  119.1030   60.4220 C   0  0  0  0  0  0  0  0  0  0  0  0
  134.4170  119.3250   60.0970 F   0  0  0  0  0  0  0  0  0  0  0  0
  133.1000  118.3420   61.5160 F   0  0  0  0  0  0  0  0  0  0  0  0
  132.5910  118.4040   59.4270 F   0  0  0  0  0  0  0  0  0  0  0  0
  131.1000  120.5150   61.1850 C   0  0  0  0  0  0  0  0  0  0  0  0
  130.3440  119.2970   61.4920 C   0  0  0  0  0  0  0  0  0  0  0  0
  129.7470  118.3350   61.7350 N   0  0  0  0  0  0  0  0  0  0  0  0
  130.5300  121.7930   61.3840 C   0  0  0  0  0  0  0  0  0  0  0  0
  128.8700  122.0090   62.0080 S   0  0  0  0  0  0  0  0  0  0  0  0
  128.0450  123.2720   60.9920 C   0  0  0  0  0  0  0  0  0  0  0  0
  127.9740  122.8740   59.5160 C   0  0  0  0  0  0  0  0  0  0  0  0
  129.0020  122.5050   58.9450 O   0  0  0  0  0  0  0  0  0  0  0  0
  126.7600  122.9860   58.9350 N   0  0  0  0  0  0  0  0  0  0  0  0
  126.4460  122.7040   57.6160 C   0  0  0  0  0  0  0  0  0  0  0  0
  125.2760  122.9700   56.8900 C   0  0  0  0  0  0  0  0  0  0  0  0
  125.5250  122.4730   55.6310 C   0  0  0  0  0  0  0  0  0  0  0  0
  126.7740  121.9490   55.6000 O   0  0  0  0  0  0  0  0  0  0  0  0
  127.3460  122.1080   56.8640 N   0  0  0  0  0  0  0  0  0  0  0  0
  131.2060  122.9390   61.1120 N   0  0  0  0  0  0  0  0  0  0  0  0
  133.4110  124.6646   61.3050 H   0  0  0  0  0  0  0  0  0  0  0  0
  134.0749  123.9954   59.7759 H   0  0  0  0  0  0  0  0  0  0  0  0
  132.4824  124.8265   59.7759 H   0  0  0  0  0  0  0  0  0  0  0  0
  134.1301  121.6120   60.0110 H   0  0  0  0  0  0  0  0  0  0  0  0
  127.0218  123.4165   61.3691 H   0  0  0  0  0  0  0  0  0  0  0  0
  128.6337  124.1985   61.0630 H   0  0  0  0  0  0  0  0  0  0  0  0
  126.0010  123.3390   59.4990 H   0  0  0  0  0  0  0  0  0  0  0  0
  124.3617  123.4661   57.2477 H   0  0  0  0  0  0  0  0  0  0  0  0
  124.8223  122.4973   54.7851 H   0  0  0  0  0  0  0  0  0  0  0  0
  1  2  1  0
  2  3  2  0
  3  4  1  0
  4  5  1  0
  5  6  1  0
  5  7  1  0
  5  8  1  0
  4  9  2  0
  9 10  1  0
 10 11  3  0
  9 12  1  0
 12 13  1  0
 13 14  1  0
 14 15  1  0
 15 16  2  0
 15 17  1  0
 17 18  1  0
 18 19  1  0
 19 20  2  0
 20 21  1  0
 21 22  1  0
 12 23  2  0
 23  2  1  0
 22 18  2  0
  1 24  1  0
  1 25  1  0
  1 26  1  0
  3 27  1  0
 14 28  1  0
 14 29  1  0
 17 30  1  0
 19 31  1  0
 20 32  1  0
M  END
>  <Binding energies>  (1) 
[-7.24]

>  <Ligand effiencies>  (1) 
[-0.3016666666666667]

>  <Interactions>  (1) 
["V-B:PRO:540:N:9855, V-B:PRO:540:CB:9856, V-B:TYR:539:CD2:9845, V-B:TYR:539:C:9838, V-B:MET:535:CE:9806, H-B:TYR:539:N:9841, V-B:TYR:531:CE2:9764, V-B:PRO:540:CA:9854, V-B:LEU:363:CD1:8159, V-B:TYR:539:CE2:9847, V-A:LEU:475:CD2:4258, V-B:ALA:541:CB:9863, V-A:ASP:366:CG:3212, V-A:SER:385:CB:3408, V-B:MET:535:CG:9804, V-A:ILE:369:CG2:3236, V-B:ILE:538:CD1:9836, V-B:TYR:539:CB:9842, V-B:TYR:539:CG:9843, V-B:ILE:538:CG2:9834, V-A:ILE:369:CD1:3238, V-B:ILE:538:CA:9831, V-A:SER:385:CA:3406, V-B:PRO:540:CD:9858, H-B:ALA:541:N:9862, V-A:LEU:373:CD2:3280, V-A:SER:385:C:3404, V-A:VAL:384:C:3396"]

$$$$
2j_Grossjean_2025
     RDKit          3D

 32 33  0  0  0  0  0  0  0  0999 V2000
  133.2420  123.9980   60.2860 C   0  0  0  0  0  0  0  0  0  0  0  0
  132.5310  122.6880   60.5660 C   0  0  0  0  0  0  0  0  0  0  0  0
  133.1340  121.4600   60.3060 C   0  0  0  0  0  0  0  0  0  0  0  0
  132.4370  120.2750   60.5850 C   0  0  0  0  0  0  0  0  0  0  0  0
  133.1200  118.9260   60.2920 C   0  0  0  0  0  0  0  0  0  0  0  0
  134.3800  119.1270   59.9040 F   0  0  0  0  0  0  0  0  0  0  0  0
  133.1210  118.1660   61.3880 F   0  0  0  0  0  0  0  0  0  0  0  0
  132.5080  118.2370   59.3260 F   0  0  0  0  0  0  0  0  0  0  0  0
  131.1300  120.3700   61.1260 C   0  0  0  0  0  0  0  0  0  0  0  0
  130.3560  119.1650   61.4370 C   0  0  0  0  0  0  0  0  0  0  0  0
  129.7450  118.2130   61.6830 N   0  0  0  0  0  0  0  0  0  0  0  0
  130.5940  121.6590   61.3590 C   0  0  0  0  0  0  0  0  0  0  0  0
  128.9590  121.8990   62.0390 S   0  0  0  0  0  0  0  0  0  0  0  0
  128.1150  123.1920   61.0650 C   0  0  0  0  0  0  0  0  0  0  0  0
  128.0880  122.9440   59.5490 C   0  0  0  0  0  0  0  0  0  0  0  0
  129.1370  122.8230   58.9130 O   0  0  0  0  0  0  0  0  0  0  0  0
  126.8510  122.8890   59.0070 N   0  0  0  0  0  0  0  0  0  0  0  0
  126.5410  122.6760   57.6700 C   0  0  0  0  0  0  0  0  0  0  0  0
  127.3260  122.2090   56.7240 N   0  0  0  0  0  0  0  0  0  0  0  0
  126.6990  122.1350   55.5650 C   0  0  0  0  0  0  0  0  0  0  0  0
  125.3710  122.5500   55.5570 C   0  0  0  0  0  0  0  0  0  0  0  0
  124.9290  123.0630   57.1580 S   0  0  0  0  0  0  0  0  0  0  0  0
  131.2860  122.7940   61.0830 N   0  0  0  0  0  0  0  0  0  0  0  0
  133.5052  124.4830   61.2376 H   0  0  0  0  0  0  0  0  0  0  0  0
  134.1576  123.8021   59.7087 H   0  0  0  0  0  0  0  0  0  0  0  0
  132.5789  124.6590   59.7087 H   0  0  0  0  0  0  0  0  0  0  0  0
  134.1494  121.4195   59.8849 H   0  0  0  0  0  0  0  0  0  0  0  0
  127.0757  123.2627   61.4185 H   0  0  0  0  0  0  0  0  0  0  0  0
  128.6897  124.1176   61.2165 H   0  0  0  0  0  0  0  0  0  0  0  0
  126.0640  123.0140   59.6260 H   0  0  0  0  0  0  0  0  0  0  0  0
  127.1981  121.7661   54.6568 H   0  0  0  0  0  0  0  0  0  0  0  0
  124.7079  122.5530   54.6793 H   0  0  0  0  0  0  0  0  0  0  0  0
  1  2  1  0
  2  3  2  0
  3  4  1  0
  4  5  1  0
  5  6  1  0
  5  7  1  0
  5  8  1  0
  4  9  2  0
  9 10  1  0
 10 11  3  0
  9 12  1  0
 12 13  1  0
 13 14  1  0
 14 15  1  0
 15 16  2  0
 15 17  1  0
 17 18  1  0
 18 19  2  0
 19 20  1  0
 20 21  2  0
 21 22  1  0
 12 23  2  0
 23  2  1  0
 22 18  1  0
  1 24  1  0
  1 25  1  0
  1 26  1  0
  3 27  1  0
 14 28  1  0
 14 29  1  0
 17 30  1  0
 20 31  1  0
 21 32  1  0
M  END
>  <Binding energies>  (1) 
[-6.66]

>  <Ligand effiencies>  (1) 
[-0.2775]

>  <Interactions>  (1) 
["V-B:TYR:531:CZ:9765, V-B:PRO:540:N:9855, V-B:PRO:540:CB:9856, V-B:TYR:539:CD2:9845, V-B:TYR:539:C:9838, V-B:MET:535:CE:9806, H-B:TYR:539:N:9841, V-B:TYR:531:CE2:9764, V-B:PRO:540:CA:9854, V-B:LEU:363:CD1:8159, V-B:TYR:539:CE2:9847, V-A:LEU:475:CD2:4258, V-B:ALA:541:CB:9863, V-A:ASP:366:CG:3212, V-A:SER:385:CB:3408, V-B:MET:535:CG:9804, V-B:TYR:539:CD1:9844, V-A:ILE:369:CG2:3236, V-B:ILE:538:CD1:9836, V-B:TYR:539:CB:9842, V-B:TYR:539:CG:9843, V-B:ILE:538:CG2:9834, V-A:ILE:369:CD1:3238, V-B:ILE:538:CA:9831, V-A:SER:385:CA:3406, V-B:PRO:540:CD:9858, H-B:ALA:541:N:9862, V-B:ILE:538:C:9829, V-A:LEU:373:CD2:3280, V-A:SER:385:C:3404, V-A:VAL:384:C:3396"]

$$$$
2k_Grossjean_2025
     RDKit          3D

 50 50  0  0  0  0  0  0  0  0999 V2000
  128.2150  137.9800   61.3740 C   0  0  0  0  0  0  0  0  0  0  0  0
  127.1310  137.1390   61.0140 O   0  0  0  0  0  0  0  0  0  0  0  0
  127.1270  135.8940   61.7020 C   0  0  0  0  0  0  0  0  0  0  0  0
  126.2130  134.9020   60.9720 C   0  0  0  0  0  0  0  0  0  0  0  0
  127.0160  133.9570   60.2800 O   0  0  0  0  0  0  0  0  0  0  0  0
  128.1510  133.5070   61.0110 C   0  0  0  0  0  0  0  0  0  0  0  0
  129.2030  133.0060   60.0130 C   0  0  0  0  0  0  0  0  0  0  0  0
  128.6270  131.9410   59.2720 O   0  0  0  0  0  0  0  0  0  0  0  0
  128.3420  132.2360   57.9130 C   0  0  0  0  0  0  0  0  0  0  0  0
  129.1930  131.3190   57.0140 C   0  0  0  0  0  0  0  0  0  0  0  0
  130.6330  131.5410   57.1710 N   0  0  0  0  0  0  0  0  0  0  0  0
  131.2400  132.7420   57.2190 C   0  0  0  0  0  0  0  0  0  0  0  0
  130.6310  133.8120   57.1630 O   0  0  0  0  0  0  0  0  0  0  0  0
  132.7710  132.7100   57.3280 C   0  0  0  0  0  0  0  0  0  0  0  0
  133.4330  131.8840   58.8160 S   0  0  0  0  0  0  0  0  0  0  0  0
  132.3620  130.5260   59.2670 C   0  0  0  0  0  0  0  0  0  0  0  0
  132.3230  129.4910   58.3900 N   0  0  0  0  0  0  0  0  0  0  0  0
  131.5310  128.4310   58.6650 C   0  0  0  0  0  0  0  0  0  0  0  0
  131.5320  127.3220   57.6300 C   0  0  0  0  0  0  0  0  0  0  0  0
  130.7590  128.3490   59.8210 C   0  0  0  0  0  0  0  0  0  0  0  0
  130.7910  129.4040   60.7460 C   0  0  0  0  0  0  0  0  0  0  0  0
  129.9350  129.2950   62.0230 C   0  0  0  0  0  0  0  0  0  0  0  0
  129.5330  130.4830   62.4780 F   0  0  0  0  0  0  0  0  0  0  0  0
  128.8430  128.5680   61.7800 F   0  0  0  0  0  0  0  0  0  0  0  0
  130.6360  128.7100   62.9940 F   0  0  0  0  0  0  0  0  0  0  0  0
  131.6120  130.5260   60.4670 C   0  0  0  0  0  0  0  0  0  0  0  0
  131.6800  131.6570   61.3970 C   0  0  0  0  0  0  0  0  0  0  0  0
  131.7340  132.5500   62.1320 N   0  0  0  0  0  0  0  0  0  0  0  0
  128.2872  138.0361   62.4702 H   0  0  0  0  0  0  0  0  0  0  0  0
  129.1497  137.5685   60.9655 H   0  0  0  0  0  0  0  0  0  0  0  0
  128.0487  138.9877   60.9655 H   0  0  0  0  0  0  0  0  0  0  0  0
  128.1502  135.4917   61.7355 H   0  0  0  0  0  0  0  0  0  0  0  0
  126.7554  136.0454   62.7262 H   0  0  0  0  0  0  0  0  0  0  0  0
  125.5765  134.3808   61.7022 H   0  0  0  0  0  0  0  0  0  0  0  0
  125.5745  135.4416   60.2571 H   0  0  0  0  0  0  0  0  0  0  0  0
  128.5653  134.3372   61.6019 H   0  0  0  0  0  0  0  0  0  0  0  0
  127.8623  132.6952   61.6948 H   0  0  0  0  0  0  0  0  0  0  0  0
  129.4919  133.8212   59.3333 H   0  0  0  0  0  0  0  0  0  0  0  0
  130.1026  132.6615   60.5441 H   0  0  0  0  0  0  0  0  0  0  0  0
  127.2745  132.0613   57.7133 H   0  0  0  0  0  0  0  0  0  0  0  0
  128.5799  133.2891   57.7025 H   0  0  0  0  0  0  0  0  0  0  0  0
  128.9696  130.2725   57.2690 H   0  0  0  0  0  0  0  0  0  0  0  0
  128.9359  131.5506   55.9698 H   0  0  0  0  0  0  0  0  0  0  0  0
  131.2050  130.7120   57.2390 H   0  0  0  0  0  0  0  0  0  0  0  0
  133.1632  132.1841   56.4451 H   0  0  0  0  0  0  0  0  0  0  0  0
  133.0921  133.7599   57.3959 H   0  0  0  0  0  0  0  0  0  0  0  0
  131.5329  126.3463   58.1380 H   0  0  0  0  0  0  0  0  0  0  0  0
  130.6338  127.4069   57.0007 H   0  0  0  0  0  0  0  0  0  0  0  0
  132.4301  127.4085   57.0007 H   0  0  0  0  0  0  0  0  0  0  0  0
  130.1302  127.4659   60.0074 H   0  0  0  0  0  0  0  0  0  0  0  0
  1  2  1  0
  2  3  1  0
  3  4  1  0
  4  5  1  0
  5  6  1  0
  6  7  1  0
  7  8  1  0
  8  9  1  0
  9 10  1  0
 10 11  1  0
 11 12  1  0
 12 13  2  0
 12 14  1  0
 14 15  1  0
 15 16  1  0
 16 17  2  0
 17 18  1  0
 18 19  1  0
 18 20  2  0
 20 21  1  0
 21 22  1  0
 22 23  1  0
 22 24  1  0
 22 25  1  0
 21 26  2  0
 26 27  1  0
 27 28  3  0
 26 16  1  0
  1 29  1  0
  1 30  1  0
  1 31  1  0
  3 32  1  0
  3 33  1  0
  4 34  1  0
  4 35  1  0
  6 36  1  0
  6 37  1  0
  7 38  1  0
  7 39  1  0
  9 40  1  0
  9 41  1  0
 10 42  1  0
 10 43  1  0
 11 44  1  0
 14 45  1  0
 14 46  1  0
 19 47  1  0
 19 48  1  0
 19 49  1  0
 20 50  1  0
M  END
>  <Binding energies>  (1) 
[-5.01]

>  <Ligand effiencies>  (1) 
[-0.17275862068965517]

>  <Interactions>  (1) 
["V-A:ASP:366:CG:3212, V-A:GLU:543:CD:4907, V-A:ASP:366:CB:3211, V-A:TYR:531:CE2:4792, H-A:TYR:531:OH:4794, V-A:LEU:363:CD1:3188, V-A:PRO:540:CA:4882, V-A:TYR:531:CZ:4793, V-A:TYR:539:CD1:4872, V-A:PRO:540:N:4883, V-A:PRO:540:CB:4884, V-A:TYR:539:C:4866, V-A:TYR:539:CE1:4874, H-A:TYR:539:N:4869, H-A:ALA:541:N:4890, V-A:TYR:539:CA:4868, V-A:TYR:539:CB:4870, H-B:SER:385:OG:8380, H-B:HIS:383:NE2:8364, V-B:PRO:482:CB:9296, V-B:PRO:482:CG:9297, V-B:PRO:482:CD:9298"]

$$$$
3aa_Grossjean_2025
     RDKit          3D

 52 54  0  0  0  0  0  0  0  0999 V2000
  123.6980  124.7490   57.6730 C   0  0  0  0  0  0  0  0  0  0  0  0
  124.8890  123.9150   58.1560 C   0  0  0  0  0  0  0  0  0  0  0  0
  125.8760  123.8630   57.1330 O   0  0  0  0  0  0  0  0  0  0  0  0
  126.8120  122.8790   57.1160 C   0  0  0  0  0  0  0  0  0  0  0  0
  126.6760  121.8210   56.4930 O   0  0  0  0  0  0  0  0  0  0  0  0
  128.0240  123.1980   57.9430 C   0  0  0  0  0  0  0  0  0  0  0  0
  128.9570  124.1700   57.5510 C   0  0  0  0  0  0  0  0  0  0  0  0
  130.0680  124.4440   58.3440 C   0  0  0  0  0  0  0  0  0  0  0  0
  130.2660  123.7600   59.5450 C   0  0  0  0  0  0  0  0  0  0  0  0
  131.4190  124.1160   60.2730 N   0  0  0  0  0  0  0  0  0  0  0  0
  132.7000  124.2250   59.8580 C   0  0  0  0  0  0  0  0  0  0  0  0
  133.1030  123.9980   58.7160 O   0  0  0  0  0  0  0  0  0  0  0  0
  133.7050  124.6570   60.9260 C   0  0  0  0  0  0  0  0  0  0  0  0
  133.9930  123.3450   62.1520 S   0  0  0  0  0  0  0  0  0  0  0  0
  132.4270  122.5550   62.4480 C   0  0  0  0  0  0  0  0  0  0  0  0
  132.2890  121.3670   61.8120 N   0  0  0  0  0  0  0  0  0  0  0  0
  131.1380  120.6590   61.9510 C   0  0  0  0  0  0  0  0  0  0  0  0
  131.0680  119.3480   61.2280 C   0  0  0  0  0  0  0  0  0  0  0  0
  130.0300  118.4400   61.4930 C   0  0  0  0  0  0  0  0  0  0  0  0
  129.9580  117.2200   60.8250 C   0  0  0  0  0  0  0  0  0  0  0  0
  130.9250  116.8920   59.8810 C   0  0  0  0  0  0  0  0  0  0  0  0
  131.9620  117.7750   59.5990 C   0  0  0  0  0  0  0  0  0  0  0  0
  132.0300  118.9950   60.2670 C   0  0  0  0  0  0  0  0  0  0  0  0
  130.0940  121.1350   62.7500 C   0  0  0  0  0  0  0  0  0  0  0  0
  130.2060  122.3720   63.4040 C   0  0  0  0  0  0  0  0  0  0  0  0
  129.0290  122.8670   64.2650 C   0  0  0  0  0  0  0  0  0  0  0  0
  127.9170  122.1530   64.0820 F   0  0  0  0  0  0  0  0  0  0  0  0
  129.3420  122.7920   65.5590 F   0  0  0  0  0  0  0  0  0  0  0  0
  128.7470  124.1350   63.9620 F   0  0  0  0  0  0  0  0  0  0  0  0
  131.4010  123.1140   63.2420 C   0  0  0  0  0  0  0  0  0  0  0  0
  131.5520  124.4370   63.8550 C   0  0  0  0  0  0  0  0  0  0  0  0
  131.6710  125.4830   64.3380 N   0  0  0  0  0  0  0  0  0  0  0  0
  129.3440  122.7780   59.9370 C   0  0  0  0  0  0  0  0  0  0  0  0
  128.2360  122.5040   59.1420 C   0  0  0  0  0  0  0  0  0  0  0  0
  123.1452  125.1361   58.5416 H   0  0  0  0  0  0  0  0  0  0  0  0
  124.0620  125.5905   57.0653 H   0  0  0  0  0  0  0  0  0  0  0  0
  123.0317  124.1191   57.0653 H   0  0  0  0  0  0  0  0  0  0  0  0
  125.3187  124.3766   59.0573 H   0  0  0  0  0  0  0  0  0  0  0  0
  124.5513  122.8952   58.3925 H   0  0  0  0  0  0  0  0  0  0  0  0
  128.8094  124.7198   56.6098 H   0  0  0  0  0  0  0  0  0  0  0  0
  130.7947  125.2045   58.0222 H   0  0  0  0  0  0  0  0  0  0  0  0
  131.2570  124.2640   61.2590 H   0  0  0  0  0  0  0  0  0  0  0  0
  134.6593  124.9039   60.4378 H   0  0  0  0  0  0  0  0  0  0  0  0
  133.2918  125.5309   61.4509 H   0  0  0  0  0  0  0  0  0  0  0  0
  129.2629  118.6959   62.2387 H   0  0  0  0  0  0  0  0  0  0  0  0
  129.1393  116.5185   61.0433 H   0  0  0  0  0  0  0  0  0  0  0  0
  130.8694  115.9281   59.3539 H   0  0  0  0  0  0  0  0  0  0  0  0
  132.7248  117.5109   58.8518 H   0  0  0  0  0  0  0  0  0  0  0  0
  132.8492  119.6927   60.0388 H   0  0  0  0  0  0  0  0  0  0  0  0
  129.1788  120.5361   62.8669 H   0  0  0  0  0  0  0  0  0  0  0  0
  129.4976  122.2238   60.8747 H   0  0  0  0  0  0  0  0  0  0  0  0
  127.5175  121.7334   59.4582 H   0  0  0  0  0  0  0  0  0  0  0  0
  1  2  1  0
  2  3  1  0
  3  4  1  0
  4  5  2  0
  4  6  1  0
  6  7  2  0
  7  8  1  0
  8  9  2  0
  9 10  1  0
 10 11  1  0
 11 12  2  0
 11 13  1  0
 13 14  1  0
 14 15  1  0
 15 16  2  0
 16 17  1  0
 17 18  1  0
 18 19  2  0
 19 20  1  0
 20 21  2  0
 21 22  1  0
 22 23  2  0
 17 24  2  0
 24 25  1  0
 25 26  1  0
 26 27  1  0
 26 28  1  0
 26 29  1  0
 25 30  2  0
 30 31  1  0
 31 32  3  0
  9 33  1  0
 33 34  2  0
 34  6  1  0
 30 15  1  0
 23 18  1  0
  1 35  1  0
  1 36  1  0
  1 37  1  0
  2 38  1  0
  2 39  1  0
  7 40  1  0
  8 41  1  0
 10 42  1  0
 13 43  1  0
 13 44  1  0
 19 45  1  0
 20 46  1  0
 21 47  1  0
 22 48  1  0
 23 49  1  0
 24 50  1  0
 33 51  1  0
 34 52  1  0
M  END
>  <Binding energies>  (1) 
[-8.61]

>  <Ligand effiencies>  (1) 
[-0.246]

>  <Interactions>  (1) 
["V-B:GLU:543:CD:9879, V-B:TYR:531:CZ:9765, V-B:ASP:366:CB:8182, V-B:PRO:540:N:9855, V-A:TYR:484:CZ:4346, V-B:LEU:363:CA:8155, H-B:TYR:531:OH:9766, V-B:PRO:540:CB:9856, V-B:TYR:539:CD2:9845, V-B:TYR:539:C:9838, V-B:MET:535:CE:9806, H-B:TYR:539:N:9841, V-B:TYR:531:CE2:9764, V-B:PRO:540:CA:9854, V-B:LEU:363:CD1:8159, V-B:TYR:539:CE2:9847, V-A:LEU:475:CD2:4258, V-A:PRO:482:CG:4326, V-B:ALA:541:CB:9863, H-B:TYR:539:OH:9849, V-B:TYR:539:CZ:9848, V-A:ASP:366:CG:3212, V-B:VAL:344:CG1:7971, V-B:TYR:539:CB:9842, V-B:TYR:539:CG:9843, V-A:ILE:369:CD1:3238, V-A:HIS:383:CE1:3393, V-A:PRO:482:CB:4325, V-A:ASP:366:CB:3211, V-B:ALA:541:C:9859, V-B:GLU:543:CG:9878, V-A:TYR:484:CE2:4345, V-B:ALA:541:CA:9861, V-A:LEU:475:CD1:4257"]

$$$$
3ab_Grossjean_2025
     RDKit          3D

 49 51  0  0  0  0  0  0  0  0999 V2000
  124.7610  123.9610   58.0400 C   0  0  0  0  0  0  0  0  0  0  0  0
  125.7230  123.8490   57.0000 O   0  0  0  0  0  0  0  0  0  0  0  0
  126.6580  122.8650   57.0160 C   0  0  0  0  0  0  0  0  0  0  0  0
  126.5500  121.8140   56.3790 O   0  0  0  0  0  0  0  0  0  0  0  0
  127.8400  123.1840   57.8860 C   0  0  0  0  0  0  0  0  0  0  0  0
  128.0870  122.4990   59.0850 C   0  0  0  0  0  0  0  0  0  0  0  0
  129.1910  122.8160   59.8710 C   0  0  0  0  0  0  0  0  0  0  0  0
  130.0730  123.8310   59.4680 C   0  0  0  0  0  0  0  0  0  0  0  0
  131.2220  124.2290   60.1790 N   0  0  0  0  0  0  0  0  0  0  0  0
  132.5210  124.1920   59.8160 C   0  0  0  0  0  0  0  0  0  0  0  0
  132.9530  123.7660   58.7450 O   0  0  0  0  0  0  0  0  0  0  0  0
  133.5080  124.7320   60.8540 C   0  0  0  0  0  0  0  0  0  0  0  0
  133.9020  123.4970   62.1300 S   0  0  0  0  0  0  0  0  0  0  0  0
  132.3930  122.6420   62.5300 C   0  0  0  0  0  0  0  0  0  0  0  0
  132.2480  121.4650   61.8760 N   0  0  0  0  0  0  0  0  0  0  0  0
  131.1440  120.7040   62.0910 C   0  0  0  0  0  0  0  0  0  0  0  0
  131.0600  119.4140   61.3300 C   0  0  0  0  0  0  0  0  0  0  0  0
  130.0390  118.4880   61.5950 C   0  0  0  0  0  0  0  0  0  0  0  0
  129.9560  117.2900   60.8910 C   0  0  0  0  0  0  0  0  0  0  0  0
  130.8970  117.0000   59.9090 C   0  0  0  0  0  0  0  0  0  0  0  0
  131.9210  117.8980   59.6280 C   0  0  0  0  0  0  0  0  0  0  0  0
  132.0000  119.0950   60.3350 C   0  0  0  0  0  0  0  0  0  0  0  0
  130.1390  121.1300   62.9670 C   0  0  0  0  0  0  0  0  0  0  0  0
  130.2580  122.3540   63.6420 C   0  0  0  0  0  0  0  0  0  0  0  0
  129.1270  122.7900   64.5940 C   0  0  0  0  0  0  0  0  0  0  0  0
  128.5290  121.7570   65.1930 F   0  0  0  0  0  0  0  0  0  0  0  0
  129.6110  123.5810   65.5510 F   0  0  0  0  0  0  0  0  0  0  0  0
  128.1920  123.4560   63.9140 F   0  0  0  0  0  0  0  0  0  0  0  0
  131.4130  123.1430   63.4160 C   0  0  0  0  0  0  0  0  0  0  0  0
  131.5600  124.4560   64.0510 C   0  0  0  0  0  0  0  0  0  0  0  0
  131.6730  125.4910   64.5540 N   0  0  0  0  0  0  0  0  0  0  0  0
  129.8340  124.5100   58.2730 C   0  0  0  0  0  0  0  0  0  0  0  0
  128.7280  124.1920   57.4900 C   0  0  0  0  0  0  0  0  0  0  0  0
  125.2667  123.9021   59.0151 H   0  0  0  0  0  0  0  0  0  0  0  0
  124.2397  124.9259   57.9549 H   0  0  0  0  0  0  0  0  0  0  0  0
  124.0320  123.1417   57.9549 H   0  0  0  0  0  0  0  0  0  0  0  0
  127.4005  121.7024   59.4076 H   0  0  0  0  0  0  0  0  0  0  0  0
  129.3726  122.2707   60.8089 H   0  0  0  0  0  0  0  0  0  0  0  0
  131.0310  124.5610   61.1130 H   0  0  0  0  0  0  0  0  0  0  0  0
  134.4374  125.0224   60.3423 H   0  0  0  0  0  0  0  0  0  0  0  0
  133.0397  125.5947   61.3504 H   0  0  0  0  0  0  0  0  0  0  0  0
  129.2927  118.7125   62.3712 H   0  0  0  0  0  0  0  0  0  0  0  0
  129.1491  116.5754   61.1106 H   0  0  0  0  0  0  0  0  0  0  0  0
  130.8309  116.0543   59.3510 H   0  0  0  0  0  0  0  0  0  0  0  0
  132.6643  117.6640   58.8516 H   0  0  0  0  0  0  0  0  0  0  0  0
  132.8117  119.8028   60.1110 H   0  0  0  0  0  0  0  0  0  0  0  0
  129.2506  120.5014   63.1271 H   0  0  0  0  0  0  0  0  0  0  0  0
  130.5243  125.3021   57.9473 H   0  0  0  0  0  0  0  0  0  0  0  0
  128.5498  124.7374   56.5515 H   0  0  0  0  0  0  0  0  0  0  0  0
  1  2  1  0
  2  3  1  0
  3  4  2  0
  3  5  1  0
  5  6  2  0
  6  7  1  0
  7  8  2  0
  8  9  1  0
  9 10  1  0
 10 11  2  0
 10 12  1  0
 12 13  1  0
 13 14  1  0
 14 15  2  0
 15 16  1  0
 16 17  1  0
 17 18  2  0
 18 19  1  0
 19 20  2  0
 20 21  1  0
 21 22  2  0
 16 23  2  0
 23 24  1  0
 24 25  1  0
 25 26  1  0
 25 27  1  0
 25 28  1  0
 24 29  2  0
 29 30  1  0
 30 31  3  0
  8 32  1  0
 32 33  2  0
 33  5  1  0
 29 14  1  0
 22 17  1  0
  1 34  1  0
  1 35  1  0
  1 36  1  0
  6 37  1  0
  7 38  1  0
  9 39  1  0
 12 40  1  0
 12 41  1  0
 18 42  1  0
 19 43  1  0
 20 44  1  0
 21 45  1  0
 22 46  1  0
 23 47  1  0
 32 48  1  0
 33 49  1  0
M  END
>  <Binding energies>  (1) 
[-8.37]

>  <Ligand effiencies>  (1) 
[-0.24617647058823527]

>  <Interactions>  (1) 
["V-B:GLU:543:CD:9879, V-B:PRO:540:N:9855, V-A:TYR:484:CZ:4346, H-B:TYR:531:OH:9766, V-B:PRO:540:CB:9856, V-B:TYR:539:CD2:9845, V-B:TYR:539:C:9838, V-B:MET:535:CE:9806, H-B:TYR:539:N:9841, V-B:PRO:540:CA:9854, V-B:LEU:363:CD1:8159, V-B:TYR:539:CE2:9847, V-A:LEU:475:CD2:4258, V-A:PRO:482:CG:4326, V-B:ALA:541:CB:9863, H-B:TYR:539:OH:9849, V-B:TYR:539:CZ:9848, V-A:ASP:366:CG:3212, V-B:VAL:344:CG1:7971, V-B:TYR:539:CB:9842, V-B:TYR:539:CG:9843, V-A:ILE:369:CD1:3238, V-A:HIS:383:CE1:3393, V-A:PRO:482:CB:4325, V-A:ASP:366:CB:3211, V-B:ALA:541:C:9859, H-A:TYR:484:OH:4347, V-B:GLU:543:CG:9878, V-A:TYR:484:CE2:4345, V-B:ALA:541:CA:9861, V-A:LEU:475:CD1:4257"]

$$$$
3ac_Grossjean_2025
     RDKit          3D

 47 49  0  0  0  0  0  0  0  0999 V2000
  125.1010  122.4970   55.4170 C   0  0  0  0  0  0  0  0  0  0  0  0
  126.4640  122.2460   55.7440 O   0  0  0  0  0  0  0  0  0  0  0  0
  126.9120  122.5150   57.0240 C   0  0  0  0  0  0  0  0  0  0  0  0
  125.9790  123.0570   57.9080 C   0  0  0  0  0  0  0  0  0  0  0  0
  126.3370  123.3560   59.2190 C   0  0  0  0  0  0  0  0  0  0  0  0
  127.6400  123.1260   59.6630 C   0  0  0  0  0  0  0  0  0  0  0  0
  127.9010  123.4420   61.0100 N   0  0  0  0  0  0  0  0  0  0  0  0
  127.0840  123.3460   62.0810 C   0  0  0  0  0  0  0  0  0  0  0  0
  125.9340  122.9050   62.0610 O   0  0  0  0  0  0  0  0  0  0  0  0
  127.6740  123.8300   63.4060 C   0  0  0  0  0  0  0  0  0  0  0  0
  128.6680  122.5460   64.2260 S   0  0  0  0  0  0  0  0  0  0  0  0
  130.2940  122.5270   63.4960 C   0  0  0  0  0  0  0  0  0  0  0  0
  130.5140  121.4450   62.7110 N   0  0  0  0  0  0  0  0  0  0  0  0
  131.7080  121.2970   62.0810 C   0  0  0  0  0  0  0  0  0  0  0  0
  131.8720  120.0680   61.2370 C   0  0  0  0  0  0  0  0  0  0  0  0
  130.9080  119.0460   61.2610 C   0  0  0  0  0  0  0  0  0  0  0  0
  131.0530  117.9060   60.4760 C   0  0  0  0  0  0  0  0  0  0  0  0
  132.1680  117.7690   59.6560 C   0  0  0  0  0  0  0  0  0  0  0  0
  133.1390  118.7630   59.6180 C   0  0  0  0  0  0  0  0  0  0  0  0
  132.9920  119.9020   60.4040 C   0  0  0  0  0  0  0  0  0  0  0  0
  132.7260  122.2410   62.2450 C   0  0  0  0  0  0  0  0  0  0  0  0
  132.5320  123.3590   63.0690 C   0  0  0  0  0  0  0  0  0  0  0  0
  133.6830  124.3720   63.2260 C   0  0  0  0  0  0  0  0  0  0  0  0
  133.5090  125.4720   62.4900 F   0  0  0  0  0  0  0  0  0  0  0  0
  133.7880  124.7590   64.4990 F   0  0  0  0  0  0  0  0  0  0  0  0
  134.8330  123.8130   62.8490 F   0  0  0  0  0  0  0  0  0  0  0  0
  131.2870  123.5070   63.7290 C   0  0  0  0  0  0  0  0  0  0  0  0
  131.0650  124.6160   64.6600 C   0  0  0  0  0  0  0  0  0  0  0  0
  130.8910  125.4920   65.3960 N   0  0  0  0  0  0  0  0  0  0  0  0
  128.5830  122.5750   58.7820 C   0  0  0  0  0  0  0  0  0  0  0  0
  128.2210  122.2750   57.4710 C   0  0  0  0  0  0  0  0  0  0  0  0
  124.5158  122.6048   56.3422 H   0  0  0  0  0  0  0  0  0  0  0  0
  125.0298  123.4234   54.8281 H   0  0  0  0  0  0  0  0  0  0  0  0
  124.7045  121.6568   54.8281 H   0  0  0  0  0  0  0  0  0  0  0  0
  124.9515  123.2497   57.5658 H   0  0  0  0  0  0  0  0  0  0  0  0
  125.5896  123.7755   59.9085 H   0  0  0  0  0  0  0  0  0  0  0  0
  128.8500  123.7330   61.1940 H   0  0  0  0  0  0  0  0  0  0  0  0
  128.3144  124.7028   63.2107 H   0  0  0  0  0  0  0  0  0  0  0  0
  126.8384  124.0875   64.0735 H   0  0  0  0  0  0  0  0  0  0  0  0
  130.0257  119.1485   61.9098 H   0  0  0  0  0  0  0  0  0  0  0  0
  130.2882  117.1159   60.5040 H   0  0  0  0  0  0  0  0  0  0  0  0
  132.2821  116.8690   59.0340 H   0  0  0  0  0  0  0  0  0  0  0  0
  134.0201  118.6497   58.9692 H   0  0  0  0  0  0  0  0  0  0  0  0
  133.7644  120.6846   60.3729 H   0  0  0  0  0  0  0  0  0  0  0  0
  133.6855  122.1059   61.7243 H   0  0  0  0  0  0  0  0  0  0  0  0
  129.6091  122.3798   59.1271 H   0  0  0  0  0  0  0  0  0  0  0  0
  128.9647  121.8478   56.7822 H   0  0  0  0  0  0  0  0  0  0  0  0
  1  2  1  0
  2  3  1  0
  3  4  2  0
  4  5  1  0
  5  6  2  0
  6  7  1  0
  7  8  1  0
  8  9  2  0
  8 10  1  0
 10 11  1  0
 11 12  1  0
 12 13  2  0
 13 14  1  0
 14 15  1  0
 15 16  2  0
 16 17  1  0
 17 18  2  0
 18 19  1  0
 19 20  2  0
 14 21  2  0
 21 22  1  0
 22 23  1  0
 23 24  1  0
 23 25  1  0
 23 26  1  0
 22 27  2  0
 27 28  1  0
 28 29  3  0
  6 30  1  0
 30 31  2  0
 31  3  1  0
 27 12  1  0
 20 15  1  0
  1 32  1  0
  1 33  1  0
  1 34  1  0
  4 35  1  0
  5 36  1  0
  7 37  1  0
 10 38  1  0
 10 39  1  0
 16 40  1  0
 17 41  1  0
 18 42  1  0
 19 43  1  0
 20 44  1  0
 21 45  1  0
 30 46  1  0
 31 47  1  0
M  END
>  <Binding energies>  (1) 
[-8.83]

>  <Ligand effiencies>  (1) 
[-0.2759375]

>  <Interactions>  (1) 
["V-B:GLU:543:CD:9879, V-B:TYR:531:CZ:9765, V-A:ARG:545:CZ:4925, V-B:PRO:540:N:9855, V-B:PRO:540:CB:9856, V-B:TYR:539:CD2:9845, V-B:TYR:539:C:9838, V-B:MET:535:CE:9806, H-B:TYR:539:N:9841, V-B:TYR:531:CE2:9764, V-B:PRO:540:CA:9854, V-B:LEU:363:CD1:8159, V-B:TYR:539:CE2:9847, V-A:LEU:475:CD2:4258, V-B:ILE:538:CB:9833, V-B:ALA:541:CB:9863, V-B:TYR:539:CZ:9848, V-A:ASP:366:CG:3212, V-B:TYR:539:CE1:9846, V-B:MET:535:CG:9804, V-B:TYR:539:CA:9840, V-B:TYR:539:CD1:9844, V-A:ILE:369:CG2:3236, V-B:ILE:538:CD1:9836, V-B:TYR:539:CB:9842, V-B:TYR:539:CG:9843, V-B:ILE:538:CG2:9834, V-A:ILE:369:CD1:3238, V-A:HIS:383:CE1:3393, V-B:ILE:538:CA:9831, V-A:GLY:454:CA:4048, V-A:SER:385:CA:3406, H-A:TYR:484:OH:4347, V-B:GLU:543:CG:9878, V-B:PRO:540:CD:9858, H-B:ALA:541:N:9862, V-A:GLY:453:C:4041, V-A:LEU:373:CD2:3280, V-A:GLY:453:CA:4043"]

$$$$
3ad_Grossjean_2025
     RDKit          3D

 43 45  0  0  0  0  0  0  0  0999 V2000
  124.1820  131.8590   56.1100 N   0  0  0  0  0  0  0  0  0  0  0  0
  125.0890  131.1490   56.2210 C   0  0  0  0  0  0  0  0  0  0  0  0
  126.2350  130.2460   56.3640 C   0  0  0  0  0  0  0  0  0  0  0  0
  126.0920  128.9880   56.9970 C   0  0  0  0  0  0  0  0  0  0  0  0
  124.7410  128.4720   57.5280 C   0  0  0  0  0  0  0  0  0  0  0  0
  123.7580  128.5780   56.6320 F   0  0  0  0  0  0  0  0  0  0  0  0
  124.8450  127.1840   57.8620 F   0  0  0  0  0  0  0  0  0  0  0  0
  124.3750  129.1690   58.6050 F   0  0  0  0  0  0  0  0  0  0  0  0
  127.2300  128.1820   57.1510 C   0  0  0  0  0  0  0  0  0  0  0  0
  128.4760  128.6200   56.6880 C   0  0  0  0  0  0  0  0  0  0  0  0
  129.7260  127.8060   56.8390 C   0  0  0  0  0  0  0  0  0  0  0  0
  130.5150  127.9120   57.9950 C   0  0  0  0  0  0  0  0  0  0  0  0
  131.6760  127.1580   58.1420 C   0  0  0  0  0  0  0  0  0  0  0  0
  132.0650  126.2840   57.1310 C   0  0  0  0  0  0  0  0  0  0  0  0
  131.2990  126.1590   55.9770 C   0  0  0  0  0  0  0  0  0  0  0  0
  130.1380  126.9140   55.8340 C   0  0  0  0  0  0  0  0  0  0  0  0
  128.6090  129.8300   56.0870 N   0  0  0  0  0  0  0  0  0  0  0  0
  127.5210  130.6160   55.9090 C   0  0  0  0  0  0  0  0  0  0  0  0
  127.8800  132.1560   55.0940 S   0  0  0  0  0  0  0  0  0  0  0  0
  129.6810  132.2390   54.8660 C   0  0  0  0  0  0  0  0  0  0  0  0
  130.4100  132.6220   56.1560 C   0  0  0  0  0  0  0  0  0  0  0  0
  130.6310  133.8110   56.3880 O   0  0  0  0  0  0  0  0  0  0  0  0
  130.7590  131.5900   56.9530 N   0  0  0  0  0  0  0  0  0  0  0  0
  131.4180  131.5940   58.1960 C   0  0  0  0  0  0  0  0  0  0  0  0
  132.7550  131.1860   58.1750 C   0  0  0  0  0  0  0  0  0  0  0  0
  133.4980  131.1490   59.3520 C   0  0  0  0  0  0  0  0  0  0  0  0
  132.9030  131.5170   60.5550 C   0  0  0  0  0  0  0  0  0  0  0  0
  131.5700  131.9180   60.5920 C   0  0  0  0  0  0  0  0  0  0  0  0
  130.8230  131.9560   59.4170 C   0  0  0  0  0  0  0  0  0  0  0  0
  127.1424  127.1999   57.6386 H   0  0  0  0  0  0  0  0  0  0  0  0
  130.2114  128.6012   58.7968 H   0  0  0  0  0  0  0  0  0  0  0  0
  132.2838  127.2526   59.0539 H   0  0  0  0  0  0  0  0  0  0  0  0
  132.9831  125.6890   57.2454 H   0  0  0  0  0  0  0  0  0  0  0  0
  131.6091  125.4665   55.1806 H   0  0  0  0  0  0  0  0  0  0  0  0
  129.5339  126.8108   54.9205 H   0  0  0  0  0  0  0  0  0  0  0  0
  130.0418  131.2543   54.5342 H   0  0  0  0  0  0  0  0  0  0  0  0
  129.8910  133.0158   54.1161 H   0  0  0  0  0  0  0  0  0  0  0  0
  130.5560  130.6670   56.5980 H   0  0  0  0  0  0  0  0  0  0  0  0
  133.2225  130.8926   57.2235 H   0  0  0  0  0  0  0  0  0  0  0  0
  134.5506  130.8303   59.3310 H   0  0  0  0  0  0  0  0  0  0  0  0
  133.4906  131.4909   61.4845 H   0  0  0  0  0  0  0  0  0  0  0  0
  131.1075  132.2044   61.5481 H   0  0  0  0  0  0  0  0  0  0  0  0
  129.7688  132.2689   59.4445 H   0  0  0  0  0  0  0  0  0  0  0  0
  1  2  3  0
  2  3  1  0
  3  4  2  0
  4  5  1  0
  5  6  1  0
  5  7  1  0
  5  8  1  0
  4  9  1  0
  9 10  2  0
 10 11  1  0
 11 12  2  0
 12 13  1  0
 13 14  2  0
 14 15  1  0
 15 16  2  0
 10 17  1  0
 17 18  2  0
 18 19  1  0
 19 20  1  0
 20 21  1  0
 21 22  2  0
 21 23  1  0
 23 24  1  0
 24 25  2  0
 25 26  1  0
 26 27  2  0
 27 28  1  0
 28 29  2  0
 18  3  1  0
 29 24  1  0
 16 11  1  0
  9 30  1  0
 12 31  1  0
 13 32  1  0
 14 33  1  0
 15 34  1  0
 16 35  1  0
 20 36  1  0
 20 37  1  0
 23 38  1  0
 25 39  1  0
 26 40  1  0
 27 41  1  0
 28 42  1  0
 29 43  1  0
M  END
>  <Binding energies>  (1) 
[-7.55]

>  <Ligand effiencies>  (1) 
[-0.25166666666666665]

>  <Interactions>  (1) 
["V-B:ASP:366:CG:8183, V-B:TYR:531:CZ:9765, V-B:ASP:366:CB:8182, V-B:MET:535:CE:9806, V-A:ASP:366:CG:3212, V-A:ASP:366:CB:3211, V-A:ASN:362:C:3171, V-A:TYR:531:CE2:4792, V-A:LEU:363:CA:3184, H-A:TYR:531:OH:4794, V-A:PRO:540:CA:4882, V-A:TYR:531:CZ:4793, V-A:PRO:540:CB:4884, V-A:TYR:539:CE1:4874, H-A:TYR:539:N:4869, V-A:MET:535:CG:4832, V-A:MET:535:CE:4834, V-A:TYR:531:CE1:4791, V-A:MET:535:CB:4831, V-B:ASP:366:CA:8180, V-A:TYR:539:CZ:4876, V-B:TYR:531:CE1:9763, V-B:ASP:366:C:8178, V-B:TYR:531:CD1:9761, H-A:TYR:539:OH:4877"]

$$$$
3af_Grossjean_2025
     RDKit          3D

 42 44  0  0  0  0  0  0  0  0999 V2000
  130.4180  125.7600   64.2240 N   0  0  0  0  0  0  0  0  0  0  0  0
  130.6300  124.7370   63.7270 C   0  0  0  0  0  0  0  0  0  0  0  0
  130.8980  123.4410   63.0970 C   0  0  0  0  0  0  0  0  0  0  0  0
  132.2260  123.0330   62.8220 C   0  0  0  0  0  0  0  0  0  0  0  0
  133.4540  123.8840   63.2020 C   0  0  0  0  0  0  0  0  0  0  0  0
  134.6080  123.3190   62.8400 F   0  0  0  0  0  0  0  0  0  0  0  0
  133.3850  125.0750   62.6060 F   0  0  0  0  0  0  0  0  0  0  0  0
  133.4960  124.0620   64.5230 F   0  0  0  0  0  0  0  0  0  0  0  0
  132.4300  121.8080   62.1690 C   0  0  0  0  0  0  0  0  0  0  0  0
  131.3390  121.0140   61.7990 C   0  0  0  0  0  0  0  0  0  0  0  0
  131.4990  119.7060   61.0830 C   0  0  0  0  0  0  0  0  0  0  0  0
  132.5970  119.4800   60.2380 C   0  0  0  0  0  0  0  0  0  0  0  0
  132.7520  118.2670   59.5720 C   0  0  0  0  0  0  0  0  0  0  0  0
  131.8080  117.2610   59.7440 C   0  0  0  0  0  0  0  0  0  0  0  0
  130.7120  117.4570   60.5780 C   0  0  0  0  0  0  0  0  0  0  0  0
  130.5620  118.6720   61.2430 C   0  0  0  0  0  0  0  0  0  0  0  0
  130.0680  121.4100   62.0620 N   0  0  0  0  0  0  0  0  0  0  0  0
  129.8470  122.5780   62.7120 C   0  0  0  0  0  0  0  0  0  0  0  0
  128.1190  122.9200   62.9800 S   0  0  0  0  0  0  0  0  0  0  0  0
  127.5300  123.9500   61.6030 C   0  0  0  0  0  0  0  0  0  0  0  0
  127.4720  123.1680   60.2910 C   0  0  0  0  0  0  0  0  0  0  0  0
  128.1940  122.1800   60.1510 O   0  0  0  0  0  0  0  0  0  0  0  0
  126.6120  123.6490   59.3680 N   0  0  0  0  0  0  0  0  0  0  0  0
  126.3280  123.1750   58.0720 C   0  0  0  0  0  0  0  0  0  0  0  0
  125.0730  123.2200   57.4380 C   0  0  0  0  0  0  0  0  0  0  0  0
  124.9330  122.7100   56.1450 C   0  0  0  0  0  0  0  0  0  0  0  0
  126.0530  122.1640   55.5170 C   0  0  0  0  0  0  0  0  0  0  0  0
  127.2730  122.1090   56.1060 N   0  0  0  0  0  0  0  0  0  0  0  0
  127.3930  122.6100   57.3620 C   0  0  0  0  0  0  0  0  0  0  0  0
  133.4530  121.4701   61.9468 H   0  0  0  0  0  0  0  0  0  0  0  0
  133.3464  120.2733   60.0999 H   0  0  0  0  0  0  0  0  0  0  0  0
  133.6176  118.1055   58.9127 H   0  0  0  0  0  0  0  0  0  0  0  0
  131.9286  116.3031   59.2168 H   0  0  0  0  0  0  0  0  0  0  0  0
  129.9683  116.6576   60.7116 H   0  0  0  0  0  0  0  0  0  0  0  0
  129.6959  118.8239   61.9039 H   0  0  0  0  0  0  0  0  0  0  0  0
  126.5219  124.3200   61.8414 H   0  0  0  0  0  0  0  0  0  0  0  0
  128.2372  124.7824   61.4729 H   0  0  0  0  0  0  0  0  0  0  0  0
  126.0820  124.4650   59.6360 H   0  0  0  0  0  0  0  0  0  0  0  0
  124.2064  123.6545   57.9577 H   0  0  0  0  0  0  0  0  0  0  0  0
  123.9600  122.7383   55.6326 H   0  0  0  0  0  0  0  0  0  0  0  0
  125.9413  121.7606   54.4997 H   0  0  0  0  0  0  0  0  0  0  0  0
  128.3795  122.5696   57.8470 H   0  0  0  0  0  0  0  0  0  0  0  0
  1  2  3  0
  2  3  1  0
  3  4  2  0
  4  5  1  0
  5  6  1  0
  5  7  1  0
  5  8  1  0
  4  9  1  0
  9 10  2  0
 10 11  1  0
 11 12  2  0
 12 13  1  0
 13 14  2  0
 14 15  1  0
 15 16  2  0
 10 17  1  0
 17 18  2  0
 18 19  1  0
 19 20  1  0
 20 21  1  0
 21 22  2  0
 21 23  1  0
 23 24  1  0
 24 25  2  0
 25 26  1  0
 26 27  2  0
 27 28  1  0
 28 29  2  0
 18  3  1  0
 29 24  1  0
 16 11  1  0
  9 30  1  0
 12 31  1  0
 13 32  1  0
 14 33  1  0
 15 34  1  0
 16 35  1  0
 20 36  1  0
 20 37  1  0
 23 38  1  0
 25 39  1  0
 26 40  1  0
 27 41  1  0
 29 42  1  0
M  END
>  <Binding energies>  (1) 
[-8.67]

>  <Ligand effiencies>  (1) 
[-0.289]

>  <Interactions>  (1) 
["V-B:TYR:531:CZ:9765, V-B:PRO:540:N:9855, V-B:PRO:540:CB:9856, V-B:TYR:539:CD2:9845, V-B:TYR:539:C:9838, V-B:MET:535:CE:9806, H-B:TYR:539:N:9841, V-B:TYR:531:CE2:9764, V-B:PRO:540:CA:9854, V-B:LEU:363:CD1:8159, V-B:TYR:539:CE2:9847, V-A:LEU:475:CD2:4258, V-B:ILE:538:CB:9833, V-B:ALA:541:CB:9863, V-A:ASP:366:CG:3212, V-B:MET:535:CG:9804, V-B:ILE:538:CD1:9836, V-B:TYR:539:CB:9842, V-B:TYR:539:CG:9843, V-B:ILE:538:CG2:9834, V-A:ILE:369:CD1:3238, V-A:HIS:383:CE1:3393, V-B:ILE:538:CA:9831, V-A:GLY:454:CA:4048, H-B:ASP:366:OD1:8184, V-B:PRO:540:CD:9858, H-B:ALA:541:N:9862, V-B:ILE:538:C:9829, V-A:GLY:453:C:4041, V-A:LEU:373:CD2:3280, V-A:GLY:453:CA:4043"]

$$$$
3ag_Grossjean_2025
     RDKit          3D

 46 48  0  0  0  0  0  0  0  0999 V2000
  123.4030  123.7820   59.2430 N   0  0  0  0  0  0  0  0  0  0  0  0
  124.5050  124.0310   58.9890 C   0  0  0  0  0  0  0  0  0  0  0  0
  125.9000  124.3430   58.6640 C   0  0  0  0  0  0  0  0  0  0  0  0
  126.5170  123.7910   57.5160 C   0  0  0  0  0  0  0  0  0  0  0  0
  125.7630  122.8900   56.5180 C   0  0  0  0  0  0  0  0  0  0  0  0
  126.4750  122.6210   55.4220 F   0  0  0  0  0  0  0  0  0  0  0  0
  125.4600  121.7270   57.0960 F   0  0  0  0  0  0  0  0  0  0  0  0
  124.6350  123.4840   56.1240 F   0  0  0  0  0  0  0  0  0  0  0  0
  127.8700  124.0770   57.2770 C   0  0  0  0  0  0  0  0  0  0  0  0
  128.5890  124.8820   58.1670 C   0  0  0  0  0  0  0  0  0  0  0  0
  130.0350  125.2180   57.9630 C   0  0  0  0  0  0  0  0  0  0  0  0
  131.0030  124.8210   58.9000 C   0  0  0  0  0  0  0  0  0  0  0  0
  132.3480  125.1300   58.7160 C   0  0  0  0  0  0  0  0  0  0  0  0
  132.7450  125.8430   57.5900 C   0  0  0  0  0  0  0  0  0  0  0  0
  131.8060  126.2510   56.6480 C   0  0  0  0  0  0  0  0  0  0  0  0
  130.4620  125.9410   56.8350 C   0  0  0  0  0  0  0  0  0  0  0  0
  127.9910  125.4210   59.2610 N   0  0  0  0  0  0  0  0  0  0  0  0
  126.6800  125.1740   59.5000 C   0  0  0  0  0  0  0  0  0  0  0  0
  126.0650  125.9610   60.9720 S   0  0  0  0  0  0  0  0  0  0  0  0
  126.9730  125.2590   62.3820 C   0  0  0  0  0  0  0  0  0  0  0  0
  127.2470  123.7640   62.2060 C   0  0  0  0  0  0  0  0  0  0  0  0
  126.5770  122.9400   62.8310 O   0  0  0  0  0  0  0  0  0  0  0  0
  128.2280  123.4330   61.3490 N   0  0  0  0  0  0  0  0  0  0  0  0
  128.6300  122.0700   61.0050 C   0  0  0  0  0  0  0  0  0  0  0  0
  130.1190  121.7960   61.1890 C   0  0  0  0  0  0  0  0  0  0  0  0
  130.9990  122.8590   61.4070 C   0  0  0  0  0  0  0  0  0  0  0  0
  132.3550  122.6100   61.6050 C   0  0  0  0  0  0  0  0  0  0  0  0
  132.8240  121.2980   61.5930 C   0  0  0  0  0  0  0  0  0  0  0  0
  131.9500  120.2330   61.3910 C   0  0  0  0  0  0  0  0  0  0  0  0
  130.5940  120.4810   61.1940 C   0  0  0  0  0  0  0  0  0  0  0  0
  128.3674  123.6664   56.3859 H   0  0  0  0  0  0  0  0  0  0  0  0
  130.6938  124.2575   59.7927 H   0  0  0  0  0  0  0  0  0  0  0  0
  133.0941  124.8112   59.4588 H   0  0  0  0  0  0  0  0  0  0  0  0
  133.8078  126.0858   57.4433 H   0  0  0  0  0  0  0  0  0  0  0  0
  132.1243  126.8160   55.7595 H   0  0  0  0  0  0  0  0  0  0  0  0
  129.7223  126.2667   56.0888 H   0  0  0  0  0  0  0  0  0  0  0  0
  127.9334  125.7858   62.4827 H   0  0  0  0  0  0  0  0  0  0  0  0
  126.3513  125.3850   63.2807 H   0  0  0  0  0  0  0  0  0  0  0  0
  128.7200  124.1740   60.8710 H   0  0  0  0  0  0  0  0  0  0  0  0
  128.0686  121.3724   61.6439 H   0  0  0  0  0  0  0  0  0  0  0  0
  128.4119  121.9348   59.9353 H   0  0  0  0  0  0  0  0  0  0  0  0
  130.6212  123.8920   61.4223 H   0  0  0  0  0  0  0  0  0  0  0  0
  133.0521  123.4448   61.7700 H   0  0  0  0  0  0  0  0  0  0  0  0
  133.8956  121.1015   61.7447 H   0  0  0  0  0  0  0  0  0  0  0  0
  132.3290  119.2004   61.3871 H   0  0  0  0  0  0  0  0  0  0  0  0
  129.8973  119.6433   61.0425 H   0  0  0  0  0  0  0  0  0  0  0  0
  1  2  3  0
  2  3  1  0
  3  4  2  0
  4  5  1  0
  5  6  1  0
  5  7  1  0
  5  8  1  0
  4  9  1  0
  9 10  2  0
 10 11  1  0
 11 12  2  0
 12 13  1  0
 13 14  2  0
 14 15  1  0
 15 16  2  0
 10 17  1  0
 17 18  2  0
 18 19  1  0
 19 20  1  0
 20 21  1  0
 21 22  2  0
 21 23  1  0
 23 24  1  0
 24 25  1  0
 25 26  2  0
 26 27  1  0
 27 28  2  0
 28 29  1  0
 29 30  2  0
 18  3  1  0
 30 25  1  0
 16 11  1  0
  9 31  1  0
 12 32  1  0
 13 33  1  0
 14 34  1  0
 15 35  1  0
 16 36  1  0
 20 37  1  0
 20 38  1  0
 23 39  1  0
 24 40  1  0
 24 41  1  0
 26 42  1  0
 27 43  1  0
 28 44  1  0
 29 45  1  0
 30 46  1  0
M  END
>  <Binding energies>  (1) 
[-7.3]

>  <Ligand effiencies>  (1) 
[-0.23548387096774193]

>  <Interactions>  (1) 
["V-B:GLU:543:CD:9879, V-B:TYR:531:CZ:9765, V-B:PRO:540:N:9855, V-B:PRO:540:CB:9856, V-B:TYR:539:CD2:9845, V-B:TYR:539:C:9838, V-B:MET:535:CE:9806, V-B:TYR:531:CE2:9764, V-B:PRO:540:CA:9854, V-B:LEU:363:CD1:8159, V-B:TYR:539:CE2:9847, V-A:LEU:475:CD2:4258, V-B:TYR:539:CZ:9848, V-A:ASP:366:CG:3212, V-B:MET:535:CG:9804, V-B:TYR:539:CA:9840, V-B:ILE:538:CD1:9836, V-B:ILE:538:CG2:9834, V-B:ILE:538:CA:9831, V-A:ASP:366:CB:3211, V-A:TYR:531:CZ:4793, V-A:ASP:366:C:3207, V-A:TYR:531:CE1:4791, V-B:PRO:540:CG:9857, H-B:LEU:363:N:8156, V-B:PRO:540:CD:9858, H-B:ALA:541:N:9862, H-B:ARG:545:NH2:9899, V-A:ASP:366:CA:3209, V-B:PRO:540:C:9852"]

$$$$
3ai_Grossjean_2025
     RDKit          3D

 39 41  0  0  0  0  0  0  0  0999 V2000
  129.9830  125.8430   64.0080 N   0  0  0  0  0  0  0  0  0  0  0  0
  130.2510  124.8130   63.5550 C   0  0  0  0  0  0  0  0  0  0  0  0
  130.5920  123.5070   62.9810 C   0  0  0  0  0  0  0  0  0  0  0  0
  131.9340  123.0540   62.9590 C   0  0  0  0  0  0  0  0  0  0  0  0
  133.0960  123.8650   63.5650 C   0  0  0  0  0  0  0  0  0  0  0  0
  133.1000  125.1400   63.1670 F   0  0  0  0  0  0  0  0  0  0  0  0
  133.0090  123.8590   64.8960 F   0  0  0  0  0  0  0  0  0  0  0  0
  134.2640  123.3330   63.2050 F   0  0  0  0  0  0  0  0  0  0  0  0
  132.2150  121.8190   62.3550 C   0  0  0  0  0  0  0  0  0  0  0  0
  131.1870  121.0590   61.7880 C   0  0  0  0  0  0  0  0  0  0  0  0
  131.4310  119.7390   61.1210 C   0  0  0  0  0  0  0  0  0  0  0  0
  130.5450  118.6660   61.3110 C   0  0  0  0  0  0  0  0  0  0  0  0
  130.7630  117.4380   60.6910 C   0  0  0  0  0  0  0  0  0  0  0  0
  131.8720  117.2670   59.8690 C   0  0  0  0  0  0  0  0  0  0  0  0
  132.7640  118.3150   59.6630 C   0  0  0  0  0  0  0  0  0  0  0  0
  132.5430  119.5410   60.2840 C   0  0  0  0  0  0  0  0  0  0  0  0
  129.9040  121.5010   61.8040 N   0  0  0  0  0  0  0  0  0  0  0  0
  129.6040  122.6790   62.4020 C   0  0  0  0  0  0  0  0  0  0  0  0
  127.8710  123.0830   62.3450 S   0  0  0  0  0  0  0  0  0  0  0  0
  127.5930  124.1550   60.8940 C   0  0  0  0  0  0  0  0  0  0  0  0
  127.6680  123.4420   59.5360 C   0  0  0  0  0  0  0  0  0  0  0  0
  128.7240  122.9380   59.1460 O   0  0  0  0  0  0  0  0  0  0  0  0
  126.5070  123.4260   58.8430 N   0  0  0  0  0  0  0  0  0  0  0  0
  126.2780  122.8510   57.5990 C   0  0  0  0  0  0  0  0  0  0  0  0
  125.0700  122.9720   56.9150 C   0  0  0  0  0  0  0  0  0  0  0  0
  125.2480  122.2700   55.7450 C   0  0  0  0  0  0  0  0  0  0  0  0
  126.5000  121.7530   55.7250 O   0  0  0  0  0  0  0  0  0  0  0  0
  127.1430  122.1300   56.9050 N   0  0  0  0  0  0  0  0  0  0  0  0
  133.2497  121.4465   62.3273 H   0  0  0  0  0  0  0  0  0  0  0  0
  129.6659  118.7974   61.9590 H   0  0  0  0  0  0  0  0  0  0  0  0
  130.0608  116.6065   60.8508 H   0  0  0  0  0  0  0  0  0  0  0  0
  132.0449  116.2975   59.3789 H   0  0  0  0  0  0  0  0  0  0  0  0
  133.6398  118.1752   59.0123 H   0  0  0  0  0  0  0  0  0  0  0  0
  133.2493  120.3676   60.1173 H   0  0  0  0  0  0  0  0  0  0  0  0
  126.5936  124.6047   60.9885 H   0  0  0  0  0  0  0  0  0  0  0  0
  128.4071  124.8947   60.8980 H   0  0  0  0  0  0  0  0  0  0  0  0
  125.7080  123.8740   59.2670 H   0  0  0  0  0  0  0  0  0  0  0  0
  124.1686  123.5121   57.2402 H   0  0  0  0  0  0  0  0  0  0  0  0
  124.4945  122.1481   54.9529 H   0  0  0  0  0  0  0  0  0  0  0  0
  1  2  3  0
  2  3  1  0
  3  4  2  0
  4  5  1  0
  5  6  1  0
  5  7  1  0
  5  8  1  0
  4  9  1  0
  9 10  2  0
 10 11  1  0
 11 12  2  0
 12 13  1  0
 13 14  2  0
 14 15  1  0
 15 16  2  0
 10 17  1  0
 17 18  2  0
 18 19  1  0
 19 20  1  0
 20 21  1  0
 21 22  2  0
 21 23  1  0
 23 24  1  0
 24 25  1  0
 25 26  2  0
 26 27  1  0
 27 28  1  0
 18  3  1  0
 28 24  2  0
 16 11  1  0
  9 29  1  0
 12 30  1  0
 13 31  1  0
 14 32  1  0
 15 33  1  0
 16 34  1  0
 20 35  1  0
 20 36  1  0
 23 37  1  0
 25 38  1  0
 26 39  1  0
M  END
>  <Binding energies>  (1) 
[-8.53]

>  <Ligand effiencies>  (1) 
[-0.2941379310344827]

>  <Interactions>  (1) 
["V-B:PRO:540:N:9855, V-A:TYR:484:CZ:4346, V-B:PRO:540:CB:9856, V-B:TYR:539:CD2:9845, V-B:TYR:539:C:9838, H-B:TYR:539:N:9841, V-B:TYR:531:CE2:9764, V-B:PRO:540:CA:9854, V-B:LEU:363:CD1:8159, V-B:TYR:539:CE2:9847, V-A:LEU:475:CD2:4258, V-B:ILE:538:CB:9833, V-B:ALA:541:CB:9863, V-A:ASP:366:CG:3212, V-B:ILE:538:CD1:9836, V-B:TYR:539:CB:9842, V-B:ILE:538:CG2:9834, V-A:ILE:369:CD1:3238, V-A:HIS:383:CE1:3393, V-B:ILE:538:CA:9831, V-A:GLY:454:CA:4048, V-B:PRO:540:CD:9858, H-B:ALA:541:N:9862, V-A:GLY:453:C:4041"]

$$$$
3aj_Grossjean_2025
     RDKit          3D

 39 41  0  0  0  0  0  0  0  0999 V2000
  132.5570  122.0540   64.4210 N   0  0  0  0  0  0  0  0  0  0  0  0
  131.7640  122.2360   63.5990 C   0  0  0  0  0  0  0  0  0  0  0  0
  130.7570  122.4690   62.5600 C   0  0  0  0  0  0  0  0  0  0  0  0
  129.4090  122.7350   62.9040 C   0  0  0  0  0  0  0  0  0  0  0  0
  128.9290  122.8390   64.3650 C   0  0  0  0  0  0  0  0  0  0  0  0
  129.3260  121.8080   65.1150 F   0  0  0  0  0  0  0  0  0  0  0  0
  129.4070  123.9510   64.9240 F   0  0  0  0  0  0  0  0  0  0  0  0
  127.5970  122.8720   64.4070 F   0  0  0  0  0  0  0  0  0  0  0  0
  128.4740  122.9030   61.8710 C   0  0  0  0  0  0  0  0  0  0  0  0
  128.8710  122.8040   60.5340 C   0  0  0  0  0  0  0  0  0  0  0  0
  127.9130  122.9650   59.3940 C   0  0  0  0  0  0  0  0  0  0  0  0
  128.2390  122.4960   58.1120 C   0  0  0  0  0  0  0  0  0  0  0  0
  127.3510  122.6380   57.0480 C   0  0  0  0  0  0  0  0  0  0  0  0
  126.1220  123.2560   57.2540 C   0  0  0  0  0  0  0  0  0  0  0  0
  125.7740  123.7290   58.5150 C   0  0  0  0  0  0  0  0  0  0  0  0
  126.6640  123.5820   59.5760 C   0  0  0  0  0  0  0  0  0  0  0  0
  130.1630  122.5420   60.2090 N   0  0  0  0  0  0  0  0  0  0  0  0
  131.0890  122.3990   61.1870 C   0  0  0  0  0  0  0  0  0  0  0  0
  132.7290  122.0830   60.5720 S   0  0  0  0  0  0  0  0  0  0  0  0
  133.5030  123.6910   60.1900 C   0  0  0  0  0  0  0  0  0  0  0  0
  132.9230  124.4170   58.9670 C   0  0  0  0  0  0  0  0  0  0  0  0
  133.6330  124.6760   57.9920 O   0  0  0  0  0  0  0  0  0  0  0  0
  131.6110  124.7280   59.0640 N   0  0  0  0  0  0  0  0  0  0  0  0
  130.8390  125.3740   58.1080 C   0  0  0  0  0  0  0  0  0  0  0  0
  129.5280  125.3890   58.0040 N   0  0  0  0  0  0  0  0  0  0  0  0
  129.1300  126.1090   56.9740 C   0  0  0  0  0  0  0  0  0  0  0  0
  130.1350  126.7000   56.2120 C   0  0  0  0  0  0  0  0  0  0  0  0
  131.6790  126.2800   56.8900 S   0  0  0  0  0  0  0  0  0  0  0  0
  127.4223  123.1139   62.1147 H   0  0  0  0  0  0  0  0  0  0  0  0
  129.2109  122.0087   57.9447 H   0  0  0  0  0  0  0  0  0  0  0  0
  127.6205  122.2631   56.0496 H   0  0  0  0  0  0  0  0  0  0  0  0
  125.4208  123.3714   56.4144 H   0  0  0  0  0  0  0  0  0  0  0  0
  124.8008  124.2167   58.6733 H   0  0  0  0  0  0  0  0  0  0  0  0
  126.3846  123.9549   60.5724 H   0  0  0  0  0  0  0  0  0  0  0  0
  133.3797  124.3455   61.0654 H   0  0  0  0  0  0  0  0  0  0  0  0
  134.5547  123.4763   59.9495 H   0  0  0  0  0  0  0  0  0  0  0  0
  131.1300  124.4600   59.9100 H   0  0  0  0  0  0  0  0  0  0  0  0
  128.0649  126.2358   56.7302 H   0  0  0  0  0  0  0  0  0  0  0  0
  129.9770  127.3306   55.3246 H   0  0  0  0  0  0  0  0  0  0  0  0
  1  2  3  0
  2  3  1  0
  3  4  2  0
  4  5  1  0
  5  6  1  0
  5  7  1  0
  5  8  1  0
  4  9  1  0
  9 10  2  0
 10 11  1  0
 11 12  2  0
 12 13  1  0
 13 14  2  0
 14 15  1  0
 15 16  2  0
 10 17  1  0
 17 18  2  0
 18 19  1  0
 19 20  1  0
 20 21  1  0
 21 22  2  0
 21 23  1  0
 23 24  1  0
 24 25  2  0
 25 26  1  0
 26 27  2  0
 27 28  1  0
 18  3  1  0
 28 24  1  0
 16 11  1  0
  9 29  1  0
 12 30  1  0
 13 31  1  0
 14 32  1  0
 15 33  1  0
 16 34  1  0
 20 35  1  0
 20 36  1  0
 23 37  1  0
 26 38  1  0
 27 39  1  0
M  END
>  <Binding energies>  (1) 
[-7.0]

>  <Ligand effiencies>  (1) 
[-0.2413793103448276]

>  <Interactions>  (1) 
["V-B:GLU:543:CD:9879, V-B:PRO:540:N:9855, V-B:PRO:540:CB:9856, V-B:TYR:539:CD2:9845, V-B:TYR:539:C:9838, V-B:MET:535:CE:9806, V-B:PRO:540:CA:9854, V-B:TYR:539:CE2:9847, V-A:ILE:369:CB:3235, V-A:LEU:475:CD2:4258, V-B:ALA:541:CB:9863, H-B:TYR:539:OH:9849, V-B:TYR:539:CZ:9848, V-A:ASP:366:CG:3212, V-A:ILE:369:CG2:3236, V-B:TYR:539:CG:9843, V-A:ILE:369:CD1:3238, V-A:ASP:366:CB:3211, V-B:ALA:541:C:9859, H-A:TYR:484:OH:4347, V-B:GLU:543:CG:9878, V-A:TYR:531:CE1:4791, V-A:TYR:484:CE2:4345, V-B:ALA:541:CA:9861, V-A:LEU:475:CD1:4257"]

$$$$
3ak_Grossjean_2025
     RDKit          3D

 57 58  0  0  0  0  0  0  0  0999 V2000
  129.9490  126.1730   56.8680 C   0  0  0  0  0  0  0  0  0  0  0  0
  131.0640  126.6900   56.1580 O   0  0  0  0  0  0  0  0  0  0  0  0
  132.2880  126.5790   56.8710 C   0  0  0  0  0  0  0  0  0  0  0  0
  132.0920  125.6240   58.0550 C   0  0  0  0  0  0  0  0  0  0  0  0
  133.1320  124.6510   58.0420 O   0  0  0  0  0  0  0  0  0  0  0  0
  133.5030  124.1310   59.3160 C   0  0  0  0  0  0  0  0  0  0  0  0
  132.3080  123.8760   60.2530 C   0  0  0  0  0  0  0  0  0  0  0  0
  132.5120  122.6540   60.9490 O   0  0  0  0  0  0  0  0  0  0  0  0
  133.8390  122.4790   61.4300 C   0  0  0  0  0  0  0  0  0  0  0  0
  133.9680  123.0530   62.8520 C   0  0  0  0  0  0  0  0  0  0  0  0
  132.6930  123.4880   63.4260 N   0  0  0  0  0  0  0  0  0  0  0  0
  132.5370  124.4090   64.3970 C   0  0  0  0  0  0  0  0  0  0  0  0
  133.4850  125.0090   64.9050 O   0  0  0  0  0  0  0  0  0  0  0  0
  131.1170  124.7260   64.8960 C   0  0  0  0  0  0  0  0  0  0  0  0
  129.9220  123.3390   64.8980 S   0  0  0  0  0  0  0  0  0  0  0  0
  129.7000  122.7720   63.2190 C   0  0  0  0  0  0  0  0  0  0  0  0
  130.2720  121.5790   62.9220 N   0  0  0  0  0  0  0  0  0  0  0  0
  130.1640  121.0670   61.6700 C   0  0  0  0  0  0  0  0  0  0  0  0
  130.8260  119.7440   61.4300 C   0  0  0  0  0  0  0  0  0  0  0  0
  132.1300  119.6760   60.9160 C   0  0  0  0  0  0  0  0  0  0  0  0
  132.7520  118.4500   60.6950 C   0  0  0  0  0  0  0  0  0  0  0  0
  132.0750  117.2710   60.9880 C   0  0  0  0  0  0  0  0  0  0  0  0
  130.7840  117.3090   61.5010 C   0  0  0  0  0  0  0  0  0  0  0  0
  130.1660  118.5370   61.7220 C   0  0  0  0  0  0  0  0  0  0  0  0
  129.4510  121.7480   60.6760 C   0  0  0  0  0  0  0  0  0  0  0  0
  128.8480  122.9830   60.9570 C   0  0  0  0  0  0  0  0  0  0  0  0
  128.0740  123.7030   59.8360 C   0  0  0  0  0  0  0  0  0  0  0  0
  128.6610  124.8650   59.5500 F   0  0  0  0  0  0  0  0  0  0  0  0
  128.0510  122.9480   58.7370 F   0  0  0  0  0  0  0  0  0  0  0  0
  126.8070  123.9650   60.1670 F   0  0  0  0  0  0  0  0  0  0  0  0
  128.9740  123.5150   62.2630 C   0  0  0  0  0  0  0  0  0  0  0  0
  128.3650  124.8020   62.6130 C   0  0  0  0  0  0  0  0  0  0  0  0
  127.8850  125.8190   62.8900 N   0  0  0  0  0  0  0  0  0  0  0  0
  130.1316  126.2577   57.9494 H   0  0  0  0  0  0  0  0  0  0  0  0
  129.0478  126.7451   56.6024 H   0  0  0  0  0  0  0  0  0  0  0  0
  129.8034  125.1155   56.6024 H   0  0  0  0  0  0  0  0  0  0  0  0
  133.0686  126.1841   56.2041 H   0  0  0  0  0  0  0  0  0  0  0  0
  132.5944  127.5692   57.2393 H   0  0  0  0  0  0  0  0  0  0  0  0
  132.1293  126.1913   58.9967 H   0  0  0  0  0  0  0  0  0  0  0  0
  131.1150  125.1253   57.9729 H   0  0  0  0  0  0  0  0  0  0  0  0
  134.0324  123.1792   59.1617 H   0  0  0  0  0  0  0  0  0  0  0  0
  134.1352  124.8895   59.8008 H   0  0  0  0  0  0  0  0  0  0  0  0
  132.2244  124.7013   60.9754 H   0  0  0  0  0  0  0  0  0  0  0  0
  131.3820  123.8146   59.6624 H   0  0  0  0  0  0  0  0  0  0  0  0
  134.0806  121.4060   61.4478 H   0  0  0  0  0  0  0  0  0  0  0  0
  134.5354  123.0094   60.7639 H   0  0  0  0  0  0  0  0  0  0  0  0
  134.3957  122.2764   63.5031 H   0  0  0  0  0  0  0  0  0  0  0  0
  134.6115  123.9425   62.7839 H   0  0  0  0  0  0  0  0  0  0  0  0
  131.8640  123.0540   63.0460 H   0  0  0  0  0  0  0  0  0  0  0  0
  131.2007  125.0963   65.9284 H   0  0  0  0  0  0  0  0  0  0  0  0
  130.7134  125.4564   64.1794 H   0  0  0  0  0  0  0  0  0  0  0  0
  132.6694  120.6061   60.6840 H   0  0  0  0  0  0  0  0  0  0  0  0
  133.7743  118.4141   60.2905 H   0  0  0  0  0  0  0  0  0  0  0  0
  132.5647  116.3018   60.8125 H   0  0  0  0  0  0  0  0  0  0  0  0
  130.2530  116.3736   61.7313 H   0  0  0  0  0  0  0  0  0  0  0  0
  129.1454  118.5634   62.1315 H   0  0  0  0  0  0  0  0  0  0  0  0
  129.3632  121.3125   59.6697 H   0  0  0  0  0  0  0  0  0  0  0  0
  1  2  1  0
  2  3  1  0
  3  4  1  0
  4  5  1  0
  5  6  1  0
  6  7  1  0
  7  8  1  0
  8  9  1  0
  9 10  1  0
 10 11  1  0
 11 12  1  0
 12 13  2  0
 12 14  1  0
 14 15  1  0
 15 16  1  0
 16 17  2  0
 17 18  1  0
 18 19  1  0
 19 20  2  0
 20 21  1  0
 21 22  2  0
 22 23  1  0
 23 24  2  0
 18 25  2  0
 25 26  1  0
 26 27  1  0
 27 28  1  0
 27 29  1  0
 27 30  1  0
 26 31  2  0
 31 32  1  0
 32 33  3  0
 31 16  1  0
 24 19  1  0
  1 34  1  0
  1 35  1  0
  1 36  1  0
  3 37  1  0
  3 38  1  0
  4 39  1  0
  4 40  1  0
  6 41  1  0
  6 42  1  0
  7 43  1  0
  7 44  1  0
  9 45  1  0
  9 46  1  0
 10 47  1  0
 10 48  1  0
 11 49  1  0
 14 50  1  0
 14 51  1  0
 20 52  1  0
 21 53  1  0
 22 54  1  0
 23 55  1  0
 24 56  1  0
 25 57  1  0
M  END
>  <Binding energies>  (1) 
[-7.36]

>  <Ligand effiencies>  (1) 
[-0.21647058823529414]

>  <Interactions>  (1) 
["V-B:GLU:543:CD:9879, V-B:PRO:540:N:9855, V-B:TYR:539:CD2:9845, V-B:TYR:539:C:9838, V-B:MET:535:CE:9806, V-B:PRO:540:CA:9854, V-B:TYR:539:CE2:9847, V-A:ILE:369:CB:3235, V-A:LEU:475:CD2:4258, V-A:PRO:482:CG:4326, V-B:ALA:541:CB:9863, H-B:TYR:539:OH:9849, V-B:TYR:539:CZ:9848, V-A:ASP:366:CG:3212, V-A:SER:385:CB:3408, V-A:ILE:369:CG2:3236, V-A:ILE:369:CD1:3238, V-A:HIS:383:CE1:3393, V-A:PRO:482:CB:4325, V-A:ASP:366:CB:3211, V-A:GLY:454:CA:4048, V-A:SER:385:CA:3406, H-A:TYR:484:OH:4347, H-A:GLY:454:N:4049, H-A:TYR:531:OH:4794, V-A:TYR:531:CZ:4793, V-A:ASP:366:C:3207, V-A:TYR:531:CE1:4791, V-A:ASP:366:CA:3209"]

$$$$
3bc_Grossjean_2025
     RDKit          3D

 47 49  0  0  0  0  0  0  0  0999 V2000
  126.3550  122.1670   55.1000 C   0  0  0  0  0  0  0  0  0  0  0  0
  125.9870  123.2440   55.9560 O   0  0  0  0  0  0  0  0  0  0  0  0
  126.4060  123.2300   57.2730 C   0  0  0  0  0  0  0  0  0  0  0  0
  125.5260  123.7720   58.2110 C   0  0  0  0  0  0  0  0  0  0  0  0
  125.8600  123.8030   59.5620 C   0  0  0  0  0  0  0  0  0  0  0  0
  127.0870  123.2970   59.9940 C   0  0  0  0  0  0  0  0  0  0  0  0
  127.3320  123.3600   61.3790 N   0  0  0  0  0  0  0  0  0  0  0  0
  128.4660  123.6950   62.0300 C   0  0  0  0  0  0  0  0  0  0  0  0
  129.5100  124.0530   61.4810 O   0  0  0  0  0  0  0  0  0  0  0  0
  128.3670  123.6410   63.5610 C   0  0  0  0  0  0  0  0  0  0  0  0
  129.4250  122.3890   64.3630 S   0  0  0  0  0  0  0  0  0  0  0  0
  130.9410  122.2840   63.4380 C   0  0  0  0  0  0  0  0  0  0  0  0
  131.0000  121.2150   62.6070 N   0  0  0  0  0  0  0  0  0  0  0  0
  132.1020  121.0140   61.8390 C   0  0  0  0  0  0  0  0  0  0  0  0
  132.0970  119.7970   60.9630 C   0  0  0  0  0  0  0  0  0  0  0  0
  131.0750  118.8420   61.0700 C   0  0  0  0  0  0  0  0  0  0  0  0
  131.0630  117.7090   60.2600 C   0  0  0  0  0  0  0  0  0  0  0  0
  132.0800  117.5150   59.3310 C   0  0  0  0  0  0  0  0  0  0  0  0
  133.1070  118.4450   59.2070 C   0  0  0  0  0  0  0  0  0  0  0  0
  133.1150  119.5760   60.0200 C   0  0  0  0  0  0  0  0  0  0  0  0
  133.1840  121.8990   61.8910 C   0  0  0  0  0  0  0  0  0  0  0  0
  133.1300  123.0210   62.7250 C   0  0  0  0  0  0  0  0  0  0  0  0
  134.3270  123.9690   62.7370 C   0  0  0  0  0  0  0  0  0  0  0  0
  131.9810  123.2380   63.5170 C   0  0  0  0  0  0  0  0  0  0  0  0
  131.8820  124.4300   64.3610 C   0  0  0  0  0  0  0  0  0  0  0  0
  131.8060  125.3730   65.0270 N   0  0  0  0  0  0  0  0  0  0  0  0
  127.9720  122.7390   59.0600 C   0  0  0  0  0  0  0  0  0  0  0  0
  127.6340  122.7090   57.7090 C   0  0  0  0  0  0  0  0  0  0  0  0
  126.6513  121.2998   55.7084 H   0  0  0  0  0  0  0  0  0  0  0  0
  125.4991  121.8942   54.4652 H   0  0  0  0  0  0  0  0  0  0  0  0
  127.1989  122.4750   54.4652 H   0  0  0  0  0  0  0  0  0  0  0  0
  124.5592  124.1786   57.8795 H   0  0  0  0  0  0  0  0  0  0  0  0
  125.1547  124.2276   60.2915 H   0  0  0  0  0  0  0  0  0  0  0  0
  126.5200  123.1840   61.9540 H   0  0  0  0  0  0  0  0  0  0  0  0
  128.6490  124.6283   63.9555 H   0  0  0  0  0  0  0  0  0  0  0  0
  127.3294  123.3568   63.7905 H   0  0  0  0  0  0  0  0  0  0  0  0
  130.2704  118.9903   61.8052 H   0  0  0  0  0  0  0  0  0  0  0  0
  130.2529  116.9709   60.3545 H   0  0  0  0  0  0  0  0  0  0  0  0
  132.0721  116.6207   58.6905 H   0  0  0  0  0  0  0  0  0  0  0  0
  133.9089  118.2880   58.4705 H   0  0  0  0  0  0  0  0  0  0  0  0
  133.9308  120.3074   59.9223 H   0  0  0  0  0  0  0  0  0  0  0  0
  134.0771  121.7128   61.2763 H   0  0  0  0  0  0  0  0  0  0  0  0
  134.6080  124.1916   63.7769 H   0  0  0  0  0  0  0  0  0  0  0  0
  135.1752  123.4951   62.2214 H   0  0  0  0  0  0  0  0  0  0  0  0
  134.0600  124.9033   62.2214 H   0  0  0  0  0  0  0  0  0  0  0  0
  128.9343  122.3245   59.3948 H   0  0  0  0  0  0  0  0  0  0  0  0
  128.3336  122.2745   56.9798 H   0  0  0  0  0  0  0  0  0  0  0  0
  1  2  1  0
  2  3  1  0
  3  4  2  0
  4  5  1  0
  5  6  2  0
  6  7  1  0
  7  8  1  0
  8  9  2  0
  8 10  1  0
 10 11  1  0
 11 12  1  0
 12 13  2  0
 13 14  1  0
 14 15  1  0
 15 16  2  0
 16 17  1  0
 17 18  2  0
 18 19  1  0
 19 20  2  0
 14 21  2  0
 21 22  1  0
 22 23  1  0
 22 24  2  0
 24 25  1  0
 25 26  3  0
  6 27  1  0
 27 28  2  0
 28  3  1  0
 24 12  1  0
 20 15  1  0
  1 29  1  0
  1 30  1  0
  1 31  1  0
  4 32  1  0
  5 33  1  0
  7 34  1  0
 10 35  1  0
 10 36  1  0
 16 37  1  0
 17 38  1  0
 18 39  1  0
 19 40  1  0
 20 41  1  0
 21 42  1  0
 23 43  1  0
 23 44  1  0
 23 45  1  0
 27 46  1  0
 28 47  1  0
M  END
>  <Binding energies>  (1) 
[-8.81]

>  <Ligand effiencies>  (1) 
[-0.30379310344827587]

>  <Interactions>  (1) 
["V-B:GLU:543:CD:9879, V-B:PRO:540:N:9855, H-B:TYR:531:OH:9766, V-B:PRO:540:CB:9856, V-B:TYR:539:CD2:9845, V-B:TYR:539:C:9838, V-B:MET:535:CE:9806, V-B:PRO:540:CA:9854, V-B:TYR:539:CE2:9847, V-A:LEU:475:CD2:4258, V-B:ILE:538:CB:9833, V-B:MET:535:CG:9804, V-A:ILE:369:CG2:3236, V-B:ILE:538:CD1:9836, V-B:TYR:539:CB:9842, V-B:TYR:539:CG:9843, V-B:ILE:538:CG2:9834, V-A:ILE:369:CD1:3238, V-A:HIS:383:CE1:3393, V-B:ILE:538:CA:9831, V-A:GLY:454:CA:4048, V-A:SER:385:CA:3406, H-A:TYR:484:OH:4347, V-B:GLU:543:CG:9878, V-B:ILE:538:C:9829, V-A:GLY:453:C:4041, V-A:LEU:373:CG:3278, V-A:LEU:373:CD2:3280, H-B:ALA:541:O:9860, V-A:GLY:453:CA:4043"]

$$$$
3bd_Grossjean_2025
     RDKit          3D

 43 45  0  0  0  0  0  0  0  0999 V2000
  134.2300  123.8080   62.8880 C   0  0  0  0  0  0  0  0  0  0  0  0
  132.9990  122.9140   62.7560 C   0  0  0  0  0  0  0  0  0  0  0  0
  133.0830  121.7900   61.9250 C   0  0  0  0  0  0  0  0  0  0  0  0
  131.9760  120.9480   61.7750 C   0  0  0  0  0  0  0  0  0  0  0  0
  131.9990  119.7260   60.9050 C   0  0  0  0  0  0  0  0  0  0  0  0
  133.0340  119.5260   59.9770 C   0  0  0  0  0  0  0  0  0  0  0  0
  133.0610  118.3950   59.1650 C   0  0  0  0  0  0  0  0  0  0  0  0
  132.0500  117.4450   59.2700 C   0  0  0  0  0  0  0  0  0  0  0  0
  131.0120  117.6210   60.1790 C   0  0  0  0  0  0  0  0  0  0  0  0
  130.9880  118.7530   60.9880 C   0  0  0  0  0  0  0  0  0  0  0  0
  130.8160  121.1980   62.4380 N   0  0  0  0  0  0  0  0  0  0  0  0
  130.7160  122.2830   63.2460 C   0  0  0  0  0  0  0  0  0  0  0  0
  129.1380  122.5060   64.0500 S   0  0  0  0  0  0  0  0  0  0  0  0
  128.2960  123.9100   63.2590 C   0  0  0  0  0  0  0  0  0  0  0  0
  127.4380  123.4680   62.0730 C   0  0  0  0  0  0  0  0  0  0  0  0
  126.3250  122.9860   62.2870 O   0  0  0  0  0  0  0  0  0  0  0  0
  127.9930  123.6370   60.8530 N   0  0  0  0  0  0  0  0  0  0  0  0
  127.4480  123.3550   59.5860 C   0  0  0  0  0  0  0  0  0  0  0  0
  128.3260  122.8060   58.6480 C   0  0  0  0  0  0  0  0  0  0  0  0
  127.8800  122.5030   57.3640 C   0  0  0  0  0  0  0  0  0  0  0  0
  126.5570  122.7580   57.0140 C   0  0  0  0  0  0  0  0  0  0  0  0
  125.6760  123.3180   57.9360 C   0  0  0  0  0  0  0  0  0  0  0  0
  126.1190  123.6220   59.2210 C   0  0  0  0  0  0  0  0  0  0  0  0
  131.7910  123.1780   63.4370 C   0  0  0  0  0  0  0  0  0  0  0  0
  131.6710  124.3460   64.3150 C   0  0  0  0  0  0  0  0  0  0  0  0
  131.5780  125.2670   65.0090 N   0  0  0  0  0  0  0  0  0  0  0  0
  134.4530  123.9700   63.9529 H   0  0  0  0  0  0  0  0  0  0  0  0
  135.0896  123.3223   62.4031 H   0  0  0  0  0  0  0  0  0  0  0  0
  134.0341  124.7757   62.4031 H   0  0  0  0  0  0  0  0  0  0  0  0
  134.0188  121.5693   61.3906 H   0  0  0  0  0  0  0  0  0  0  0  0
  133.8356  120.2742   59.8902 H   0  0  0  0  0  0  0  0  0  0  0  0
  133.8788  118.2532   58.4431 H   0  0  0  0  0  0  0  0  0  0  0  0
  132.0717  116.5500   58.6308 H   0  0  0  0  0  0  0  0  0  0  0  0
  130.2135  116.8686   60.2580 H   0  0  0  0  0  0  0  0  0  0  0  0
  130.1642  118.8886   61.7043 H   0  0  0  0  0  0  0  0  0  0  0  0
  127.6498  124.4009   64.0016 H   0  0  0  0  0  0  0  0  0  0  0  0
  129.0656  124.6004   62.8834 H   0  0  0  0  0  0  0  0  0  0  0  0
  128.9500  123.9580   60.8360 H   0  0  0  0  0  0  0  0  0  0  0  0
  129.3729  122.6125   58.9246 H   0  0  0  0  0  0  0  0  0  0  0  0
  128.5706  122.0638   56.6291 H   0  0  0  0  0  0  0  0  0  0  0  0
  126.2044  122.5152   56.0007 H   0  0  0  0  0  0  0  0  0  0  0  0
  124.6331  123.5196   57.6501 H   0  0  0  0  0  0  0  0  0  0  0  0
  125.4279  124.0711   59.9495 H   0  0  0  0  0  0  0  0  0  0  0  0
  1  2  1  0
  2  3  2  0
  3  4  1  0
  4  5  1  0
  5  6  2  0
  6  7  1  0
  7  8  2  0
  8  9  1  0
  9 10  2  0
  4 11  2  0
 11 12  1  0
 12 13  1  0
 13 14  1  0
 14 15  1  0
 15 16  2  0
 15 17  1  0
 17 18  1  0
 18 19  2  0
 19 20  1  0
 20 21  2  0
 21 22  1  0
 22 23  2  0
 12 24  2  0
 24 25  1  0
 25 26  3  0
 24  2  1  0
 10  5  1  0
 23 18  1  0
  1 27  1  0
  1 28  1  0
  1 29  1  0
  3 30  1  0
  6 31  1  0
  7 32  1  0
  8 33  1  0
  9 34  1  0
 10 35  1  0
 14 36  1  0
 14 37  1  0
 17 38  1  0
 19 39  1  0
 20 40  1  0
 21 41  1  0
 22 42  1  0
 23 43  1  0
M  END
>  <Binding energies>  (1) 
[-9.03]

>  <Ligand effiencies>  (1) 
[-0.33444444444444443]

>  <Interactions>  (1) 
["V-B:GLU:543:CD:9879, V-B:PRO:540:N:9855, V-B:PRO:540:CB:9856, V-B:TYR:539:CD2:9845, V-B:TYR:539:C:9838, V-B:MET:535:CE:9806, V-B:PRO:540:CA:9854, V-B:TYR:539:CE2:9847, V-A:LEU:475:CD2:4258, V-B:ALA:541:CB:9863, V-B:TYR:539:CZ:9848, V-B:TYR:539:CE1:9846, V-B:TYR:539:CA:9840, V-B:TYR:539:CD1:9844, V-A:ILE:369:CG2:3236, V-B:TYR:539:CB:9842, V-B:TYR:539:CG:9843, V-A:ILE:369:CD1:3238, V-A:HIS:383:CE1:3393, V-A:GLY:454:CA:4048, V-A:SER:385:CA:3406, H-A:TYR:484:OH:4347, V-B:GLU:543:CG:9878, V-B:PRO:540:CD:9858, H-B:ALA:541:N:9862, V-A:GLY:453:C:4041, V-A:LEU:373:CG:3278, V-A:LEU:373:CD2:3280, V-A:LEU:373:CD1:3279"]

$$$$
3be_Grossjean_2025
     RDKit          3D

 45 47  0  0  0  0  0  0  0  0999 V2000
  124.2910  123.7300   57.9560 C   0  0  0  0  0  0  0  0  0  0  0  0
  125.7410  123.3870   58.2360 C   0  0  0  0  0  0  0  0  0  0  0  0
  126.5540  122.7980   57.2640 C   0  0  0  0  0  0  0  0  0  0  0  0
  127.8780  122.5070   57.5930 C   0  0  0  0  0  0  0  0  0  0  0  0
  128.3540  122.8100   58.8710 C   0  0  0  0  0  0  0  0  0  0  0  0
  127.4870  123.4040   59.7960 C   0  0  0  0  0  0  0  0  0  0  0  0
  128.0230  123.6740   61.0690 N   0  0  0  0  0  0  0  0  0  0  0  0
  127.4870  123.4220   62.2830 C   0  0  0  0  0  0  0  0  0  0  0  0
  126.3880  122.8960   62.4670 O   0  0  0  0  0  0  0  0  0  0  0  0
  128.3630  123.8460   63.4730 C   0  0  0  0  0  0  0  0  0  0  0  0
  129.3350  122.5040   64.2370 S   0  0  0  0  0  0  0  0  0  0  0  0
  130.8730  122.3630   63.3540 C   0  0  0  0  0  0  0  0  0  0  0  0
  130.9360  121.2780   62.5430 N   0  0  0  0  0  0  0  0  0  0  0  0
  132.0540  121.0490   61.8040 C   0  0  0  0  0  0  0  0  0  0  0  0
  132.0490  119.8200   60.9430 C   0  0  0  0  0  0  0  0  0  0  0  0
  130.9950  118.8960   61.0180 C   0  0  0  0  0  0  0  0  0  0  0  0
  130.9840  117.7530   60.2240 C   0  0  0  0  0  0  0  0  0  0  0  0
  132.0320  117.5170   59.3410 C   0  0  0  0  0  0  0  0  0  0  0  0
  133.0890  118.4150   59.2480 C   0  0  0  0  0  0  0  0  0  0  0  0
  133.0960  119.5570   60.0440 C   0  0  0  0  0  0  0  0  0  0  0  0
  133.1490  121.9170   61.8710 C   0  0  0  0  0  0  0  0  0  0  0  0
  133.0910  123.0530   62.6850 C   0  0  0  0  0  0  0  0  0  0  0  0
  134.3030  123.9820   62.7130 C   0  0  0  0  0  0  0  0  0  0  0  0
  131.9260  123.3020   63.4420 C   0  0  0  0  0  0  0  0  0  0  0  0
  131.8230  124.5130   64.2590 C   0  0  0  0  0  0  0  0  0  0  0  0
  131.7430  125.4720   64.9030 N   0  0  0  0  0  0  0  0  0  0  0  0
  126.1890  123.6870   59.4810 N   0  0  0  0  0  0  0  0  0  0  0  0
  123.7539  123.8570   58.9075 H   0  0  0  0  0  0  0  0  0  0  0  0
  124.2403  124.6649   57.3787 H   0  0  0  0  0  0  0  0  0  0  0  0
  123.8268  122.9169   57.3787 H   0  0  0  0  0  0  0  0  0  0  0  0
  126.1593  122.5692   56.2631 H   0  0  0  0  0  0  0  0  0  0  0  0
  128.5432  122.0418   56.8507 H   0  0  0  0  0  0  0  0  0  0  0  0
  129.3949  122.5851   59.1465 H   0  0  0  0  0  0  0  0  0  0  0  0
  128.9170  124.1430   61.0580 H   0  0  0  0  0  0  0  0  0  0  0  0
  129.0644  124.6172   63.1219 H   0  0  0  0  0  0  0  0  0  0  0  0
  127.6713  124.2033   64.2501 H   0  0  0  0  0  0  0  0  0  0  0  0
  130.1643  119.0782   61.7156 H   0  0  0  0  0  0  0  0  0  0  0  0
  130.1499  117.0394   60.2946 H   0  0  0  0  0  0  0  0  0  0  0  0
  132.0245  116.6144   58.7124 H   0  0  0  0  0  0  0  0  0  0  0  0
  133.9162  118.2241   58.5485 H   0  0  0  0  0  0  0  0  0  0  0  0
  133.9347  120.2647   59.9679 H   0  0  0  0  0  0  0  0  0  0  0  0
  134.0551  121.7063   61.2839 H   0  0  0  0  0  0  0  0  0  0  0  0
  134.5789  124.1935   63.7566 H   0  0  0  0  0  0  0  0  0  0  0  0
  135.1479  123.4980   62.2013 H   0  0  0  0  0  0  0  0  0  0  0  0
  134.0551  124.9236   62.2013 H   0  0  0  0  0  0  0  0  0  0  0  0
  1  2  1  0
  2  3  2  0
  3  4  1  0
  4  5  2  0
  5  6  1  0
  6  7  1  0
  7  8  1  0
  8  9  2  0
  8 10  1  0
 10 11  1  0
 11 12  1  0
 12 13  2  0
 13 14  1  0
 14 15  1  0
 15 16  2  0
 16 17  1  0
 17 18  2  0
 18 19  1  0
 19 20  2  0
 14 21  2  0
 21 22  1  0
 22 23  1  0
 22 24  2  0
 24 25  1  0
 25 26  3  0
  6 27  2  0
 27  2  1  0
 24 12  1  0
 20 15  1  0
  1 28  1  0
  1 29  1  0
  1 30  1  0
  3 31  1  0
  4 32  1  0
  5 33  1  0
  7 34  1  0
 10 35  1  0
 10 36  1  0
 16 37  1  0
 17 38  1  0
 18 39  1  0
 19 40  1  0
 20 41  1  0
 21 42  1  0
 23 43  1  0
 23 44  1  0
 23 45  1  0
M  END
>  <Binding energies>  (1) 
[-9.18]

>  <Ligand effiencies>  (1) 
[-0.32785714285714285]

>  <Interactions>  (1) 
["V-B:GLU:543:CD:9879, V-B:PRO:540:N:9855, V-B:PRO:540:CB:9856, V-B:TYR:539:CD2:9845, V-B:TYR:539:C:9838, V-B:MET:535:CE:9806, V-B:PRO:540:CA:9854, V-B:LEU:363:CD1:8159, V-B:TYR:539:CE2:9847, V-A:LEU:475:CD2:4258, V-B:TYR:539:CZ:9848, V-A:ASP:366:CG:3212, V-B:TYR:539:CE1:9846, V-B:TYR:539:CA:9840, V-B:TYR:539:CD1:9844, V-A:ILE:369:CG2:3236, V-B:TYR:539:CB:9842, V-B:TYR:539:CG:9843, V-A:ILE:369:CD1:3238, V-A:HIS:383:CE1:3393, V-A:GLY:454:CA:4048, V-A:SER:385:CA:3406, H-A:TYR:484:OH:4347, V-B:GLU:543:CG:9878, V-B:PRO:540:CD:9858, H-B:ALA:541:N:9862, V-A:GLY:453:C:4041, V-A:LEU:373:CG:3278, V-A:LEU:373:CD2:3280, V-A:GLY:453:CA:4043"]

$$$$
3bf_Grossjean_2025
     RDKit          3D

 42 44  0  0  0  0  0  0  0  0999 V2000
  134.2300  123.7670   62.7770 C   0  0  0  0  0  0  0  0  0  0  0  0
  132.9230  122.9850   62.6630 C   0  0  0  0  0  0  0  0  0  0  0  0
  132.9360  121.7780   61.9560 C   0  0  0  0  0  0  0  0  0  0  0  0
  131.7640  121.0230   61.8400 C   0  0  0  0  0  0  0  0  0  0  0  0
  131.7160  119.7120   61.1150 C   0  0  0  0  0  0  0  0  0  0  0  0
  132.7450  119.3430   60.2340 C   0  0  0  0  0  0  0  0  0  0  0  0
  132.7080  118.1270   59.5570 C   0  0  0  0  0  0  0  0  0  0  0  0
  131.6360  117.2620   59.7510 C   0  0  0  0  0  0  0  0  0  0  0  0
  130.6030  117.6040   60.6160 C   0  0  0  0  0  0  0  0  0  0  0  0
  130.6440  118.8220   61.2910 C   0  0  0  0  0  0  0  0  0  0  0  0
  130.6030  121.4450   62.4080 N   0  0  0  0  0  0  0  0  0  0  0  0
  130.5690  122.6250   63.0760 C   0  0  0  0  0  0  0  0  0  0  0  0
  128.9670  123.0180   63.7460 S   0  0  0  0  0  0  0  0  0  0  0  0
  128.1500  124.1880   62.6090 C   0  0  0  0  0  0  0  0  0  0  0  0
  127.2970  123.5390   61.5080 C   0  0  0  0  0  0  0  0  0  0  0  0
  126.2680  122.9230   61.7910 O   0  0  0  0  0  0  0  0  0  0  0  0
  127.7560  123.7320   60.2530 N   0  0  0  0  0  0  0  0  0  0  0  0
  127.2220  123.2680   59.0360 C   0  0  0  0  0  0  0  0  0  0  0  0
  125.8880  123.5860   58.7610 C   0  0  0  0  0  0  0  0  0  0  0  0
  125.3040  123.1660   57.5640 C   0  0  0  0  0  0  0  0  0  0  0  0
  126.0820  122.4360   56.6650 C   0  0  0  0  0  0  0  0  0  0  0  0
  127.3810  122.1230   56.8990 N   0  0  0  0  0  0  0  0  0  0  0  0
  127.9350  122.5390   58.0680 C   0  0  0  0  0  0  0  0  0  0  0  0
  131.7170  123.4290   63.2480 C   0  0  0  0  0  0  0  0  0  0  0  0
  131.6930  124.6640   64.0360 C   0  0  0  0  0  0  0  0  0  0  0  0
  131.6750  125.6410   64.6570 N   0  0  0  0  0  0  0  0  0  0  0  0
  134.4773  123.9150   63.8386 H   0  0  0  0  0  0  0  0  0  0  0  0
  135.0381  123.2039   62.2873 H   0  0  0  0  0  0  0  0  0  0  0  0
  134.1158  124.7453   62.2873 H   0  0  0  0  0  0  0  0  0  0  0  0
  133.8676  121.4226   61.4914 H   0  0  0  0  0  0  0  0  0  0  0  0
  133.5934  120.0251   60.0762 H   0  0  0  0  0  0  0  0  0  0  0  0
  133.5230  117.8514   58.8716 H   0  0  0  0  0  0  0  0  0  0  0  0
  131.6055  116.3011   59.2164 H   0  0  0  0  0  0  0  0  0  0  0  0
  129.7576  116.9165   60.7667 H   0  0  0  0  0  0  0  0  0  0  0  0
  129.8236  119.0909   61.9727 H   0  0  0  0  0  0  0  0  0  0  0  0
  127.4968  124.8424   63.2049 H   0  0  0  0  0  0  0  0  0  0  0  0
  128.9575  124.7278   62.0927 H   0  0  0  0  0  0  0  0  0  0  0  0
  128.5670  124.3270   60.1560 H   0  0  0  0  0  0  0  0  0  0  0  0
  125.2995  124.1663   59.4868 H   0  0  0  0  0  0  0  0  0  0  0  0
  124.2550  123.4052   57.3353 H   0  0  0  0  0  0  0  0  0  0  0  0
  125.6215  122.0992   55.7245 H   0  0  0  0  0  0  0  0  0  0  0  0
  128.9890  122.2943   58.2659 H   0  0  0  0  0  0  0  0  0  0  0  0
  1  2  1  0
  2  3  2  0
  3  4  1  0
  4  5  1  0
  5  6  2  0
  6  7  1  0
  7  8  2  0
  8  9  1  0
  9 10  2  0
  4 11  2  0
 11 12  1  0
 12 13  1  0
 13 14  1  0
 14 15  1  0
 15 16  2  0
 15 17  1  0
 17 18  1  0
 18 19  2  0
 19 20  1  0
 20 21  2  0
 21 22  1  0
 22 23  2  0
 12 24  2  0
 24 25  1  0
 25 26  3  0
 24  2  1  0
 10  5  1  0
 23 18  1  0
  1 27  1  0
  1 28  1  0
  1 29  1  0
  3 30  1  0
  6 31  1  0
  7 32  1  0
  8 33  1  0
  9 34  1  0
 10 35  1  0
 14 36  1  0
 14 37  1  0
 17 38  1  0
 19 39  1  0
 20 40  1  0
 21 41  1  0
 23 42  1  0
M  END
>  <Binding energies>  (1) 
[-9.24]

>  <Ligand effiencies>  (1) 
[-0.3422222222222222]

>  <Interactions>  (1) 
["V-B:GLU:543:CD:9879, V-B:PRO:540:N:9855, V-B:PRO:540:CB:9856, V-B:TYR:539:CD2:9845, V-B:TYR:539:C:9838, H-B:TYR:539:N:9841, V-B:PRO:540:CA:9854, V-B:LEU:363:CD1:8159, V-B:TYR:539:CE2:9847, V-A:LEU:475:CD2:4258, V-B:ALA:541:CB:9863, V-B:TYR:539:CZ:9848, V-A:ILE:369:CG2:3236, V-B:TYR:539:CB:9842, V-B:TYR:539:CG:9843, V-A:ILE:369:CD1:3238, V-A:HIS:383:CE1:3393, V-A:GLY:454:CA:4048, V-A:SER:385:CA:3406, H-A:TYR:484:OH:4347, V-B:PRO:540:CD:9858, H-B:ALA:541:N:9862, V-A:GLY:453:C:4041, V-A:LEU:373:CD2:3280"]

$$$$
3bg_Grossjean_2025
     RDKit          3D

 46 48  0  0  0  0  0  0  0  0999 V2000
  134.1800  123.9050   62.7070 C   0  0  0  0  0  0  0  0  0  0  0  0
  132.9580  122.9950   62.6070 C   0  0  0  0  0  0  0  0  0  0  0  0
  133.0400  121.8650   61.7880 C   0  0  0  0  0  0  0  0  0  0  0  0
  131.9440  120.9990   61.6730 C   0  0  0  0  0  0  0  0  0  0  0  0
  131.9700  119.7610   60.8190 C   0  0  0  0  0  0  0  0  0  0  0  0
  130.9240  118.8250   60.8680 C   0  0  0  0  0  0  0  0  0  0  0  0
  130.9360  117.6880   60.0660 C   0  0  0  0  0  0  0  0  0  0  0  0
  132.0000  117.4650   59.2000 C   0  0  0  0  0  0  0  0  0  0  0  0
  133.0550  118.3680   59.1380 C   0  0  0  0  0  0  0  0  0  0  0  0
  133.0400  119.5030   59.9430 C   0  0  0  0  0  0  0  0  0  0  0  0
  130.8000  121.2370   62.3690 N   0  0  0  0  0  0  0  0  0  0  0  0
  130.7050  122.3280   63.1710 C   0  0  0  0  0  0  0  0  0  0  0  0
  129.1630  122.5070   64.0550 S   0  0  0  0  0  0  0  0  0  0  0  0
  128.1830  123.8080   63.2360 C   0  0  0  0  0  0  0  0  0  0  0  0
  128.6840  124.0910   61.8170 C   0  0  0  0  0  0  0  0  0  0  0  0
  128.9050  125.2490   61.4640 O   0  0  0  0  0  0  0  0  0  0  0  0
  128.8330  123.0250   61.0110 N   0  0  0  0  0  0  0  0  0  0  0  0
  129.1200  123.0770   59.5770 C   0  0  0  0  0  0  0  0  0  0  0  0
  127.8440  123.0900   58.7440 C   0  0  0  0  0  0  0  0  0  0  0  0
  126.6870  123.6970   59.2450 C   0  0  0  0  0  0  0  0  0  0  0  0
  125.5200  123.7010   58.4880 C   0  0  0  0  0  0  0  0  0  0  0  0
  125.5130  123.1080   57.2270 C   0  0  0  0  0  0  0  0  0  0  0  0
  126.6670  122.5200   56.7120 C   0  0  0  0  0  0  0  0  0  0  0  0
  127.8350  122.5160   57.4700 C   0  0  0  0  0  0  0  0  0  0  0  0
  131.7650  123.2470   63.3160 C   0  0  0  0  0  0  0  0  0  0  0  0
  131.6510  124.4190   64.1890 C   0  0  0  0  0  0  0  0  0  0  0  0
  131.5630  125.3450   64.8770 N   0  0  0  0  0  0  0  0  0  0  0  0
  134.4190  124.0830   63.7659 H   0  0  0  0  0  0  0  0  0  0  0  0
  135.0371  123.4235   62.2136 H   0  0  0  0  0  0  0  0  0  0  0  0
  133.9643  124.8642   62.2136 H   0  0  0  0  0  0  0  0  0  0  0  0
  133.9662  121.6552   61.2329 H   0  0  0  0  0  0  0  0  0  0  0  0
  130.0799  118.9938   61.5529 H   0  0  0  0  0  0  0  0  0  0  0  0
  130.1060  116.9679   60.1172 H   0  0  0  0  0  0  0  0  0  0  0  0
  132.0073  116.5698   58.5608 H   0  0  0  0  0  0  0  0  0  0  0  0
  133.8982  118.1861   58.4554 H   0  0  0  0  0  0  0  0  0  0  0  0
  133.8801  120.2113   59.8934 H   0  0  0  0  0  0  0  0  0  0  0  0
  127.1332  123.4834   63.1846 H   0  0  0  0  0  0  0  0  0  0  0  0
  128.2835  124.7322   63.8241 H   0  0  0  0  0  0  0  0  0  0  0  0
  128.6220  122.1120   61.3860 H   0  0  0  0  0  0  0  0  0  0  0  0
  129.6948  123.9899   59.3619 H   0  0  0  0  0  0  0  0  0  0  0  0
  129.6929  122.1766   59.3104 H   0  0  0  0  0  0  0  0  0  0  0  0
  126.7003  124.1710   60.2375 H   0  0  0  0  0  0  0  0  0  0  0  0
  124.6068  124.1701   58.8830 H   0  0  0  0  0  0  0  0  0  0  0  0
  124.5877  123.1039   56.6322 H   0  0  0  0  0  0  0  0  0  0  0  0
  126.6551  122.0616   55.7121 H   0  0  0  0  0  0  0  0  0  0  0  0
  128.7511  122.0607   57.0657 H   0  0  0  0  0  0  0  0  0  0  0  0
  1  2  1  0
  2  3  2  0
  3  4  1  0
  4  5  1  0
  5  6  2  0
  6  7  1  0
  7  8  2  0
  8  9  1  0
  9 10  2  0
  4 11  2  0
 11 12  1  0
 12 13  1  0
 13 14  1  0
 14 15  1  0
 15 16  2  0
 15 17  1  0
 17 18  1  0
 18 19  1  0
 19 20  2  0
 20 21  1  0
 21 22  2  0
 22 23  1  0
 23 24  2  0
 12 25  2  0
 25 26  1  0
 26 27  3  0
 25  2  1  0
 10  5  1  0
 24 19  1  0
  1 28  1  0
  1 29  1  0
  1 30  1  0
  3 31  1  0
  6 32  1  0
  7 33  1  0
  8 34  1  0
  9 35  1  0
 10 36  1  0
 14 37  1  0
 14 38  1  0
 17 39  1  0
 18 40  1  0
 18 41  1  0
 20 42  1  0
 21 43  1  0
 22 44  1  0
 23 45  1  0
 24 46  1  0
M  END
>  <Binding energies>  (1) 
[-8.13]

>  <Ligand effiencies>  (1) 
[-0.29035714285714287]

>  <Interactions>  (1) 
["V-B:GLU:543:CD:9879, V-B:PRO:540:N:9855, V-B:PRO:540:CB:9856, V-B:TYR:539:CD2:9845, V-B:TYR:539:C:9838, V-B:MET:535:CE:9806, V-B:PRO:540:CA:9854, V-B:LEU:363:CD1:8159, V-B:TYR:539:CE2:9847, V-A:LEU:475:CD2:4258, V-B:TYR:539:CZ:9848, V-B:TYR:539:CE1:9846, V-B:TYR:539:CA:9840, V-B:TYR:539:CD1:9844, V-A:ILE:369:CG2:3236, V-B:TYR:539:CB:9842, V-B:TYR:539:CG:9843, V-A:ILE:369:CD1:3238, V-A:HIS:383:CE1:3393, V-A:GLY:454:CA:4048, V-A:SER:385:CA:3406, H-A:TYR:484:OH:4347, V-B:GLU:543:CG:9878, V-B:PRO:540:CD:9858, V-A:GLY:453:C:4041, V-A:LEU:373:CG:3278, V-A:LEU:373:CD2:3280, H-B:TYR:539:O:9839, V-A:LEU:373:CD1:3279"]

$$$$
3bk_Grossjean_2025
     RDKit          3D

 57 58  0  0  0  0  0  0  0  0999 V2000
  124.3780  123.9610   57.8210 C   0  0  0  0  0  0  0  0  0  0  0  0
  124.8600  123.6700   56.5180 O   0  0  0  0  0  0  0  0  0  0  0  0
  125.1770  122.2980   56.3250 C   0  0  0  0  0  0  0  0  0  0  0  0
  126.3780  122.1750   55.3770 C   0  0  0  0  0  0  0  0  0  0  0  0
  127.5650  122.0080   56.1390 O   0  0  0  0  0  0  0  0  0  0  0  0
  127.3970  122.2650   57.5270 C   0  0  0  0  0  0  0  0  0  0  0  0
  128.0430  123.6120   57.8730 C   0  0  0  0  0  0  0  0  0  0  0  0
  129.3520  123.3910   58.3820 O   0  0  0  0  0  0  0  0  0  0  0  0
  129.3820  123.0400   59.7590 C   0  0  0  0  0  0  0  0  0  0  0  0
  129.5730  124.3080   60.6050 C   0  0  0  0  0  0  0  0  0  0  0  0
  129.2660  124.0860   62.0190 N   0  0  0  0  0  0  0  0  0  0  0  0
  128.3470  123.2270   62.4930 C   0  0  0  0  0  0  0  0  0  0  0  0
  127.6560  122.5010   61.7760 O   0  0  0  0  0  0  0  0  0  0  0  0
  128.1980  123.1580   64.0140 C   0  0  0  0  0  0  0  0  0  0  0  0
  129.6430  122.3820   64.8050 S   0  0  0  0  0  0  0  0  0  0  0  0
  130.9940  122.3460   63.6390 C   0  0  0  0  0  0  0  0  0  0  0  0
  131.0530  121.2550   62.8340 N   0  0  0  0  0  0  0  0  0  0  0  0
  132.0500  121.1400   61.9170 C   0  0  0  0  0  0  0  0  0  0  0  0
  132.0290  119.9150   61.0540 C   0  0  0  0  0  0  0  0  0  0  0  0
  133.0830  119.6430   60.1670 C   0  0  0  0  0  0  0  0  0  0  0  0
  133.0650  118.5090   59.3590 C   0  0  0  0  0  0  0  0  0  0  0  0
  131.9910  117.6280   59.4270 C   0  0  0  0  0  0  0  0  0  0  0  0
  130.9360  117.8720   60.3000 C   0  0  0  0  0  0  0  0  0  0  0  0
  130.9570  119.0060   61.1080 C   0  0  0  0  0  0  0  0  0  0  0  0
  133.0210  122.1390   61.7840 C   0  0  0  0  0  0  0  0  0  0  0  0
  132.9770  123.2690   62.6080 C   0  0  0  0  0  0  0  0  0  0  0  0
  134.0570  124.3350   62.4300 C   0  0  0  0  0  0  0  0  0  0  0  0
  131.9440  123.3870   63.5610 C   0  0  0  0  0  0  0  0  0  0  0  0
  131.8700  124.5610   64.4360 C   0  0  0  0  0  0  0  0  0  0  0  0
  131.8120  125.4880   65.1260 N   0  0  0  0  0  0  0  0  0  0  0  0
  125.0685  123.5441   58.5690 H   0  0  0  0  0  0  0  0  0  0  0  0
  124.3102  125.0511   57.9519 H   0  0  0  0  0  0  0  0  0  0  0  0
  123.3818  123.5133   57.9519 H   0  0  0  0  0  0  0  0  0  0  0  0
  125.4268  121.8403   57.2936 H   0  0  0  0  0  0  0  0  0  0  0  0
  124.3108  121.7814   55.8859 H   0  0  0  0  0  0  0  0  0  0  0  0
  126.2387  121.3045   54.7191 H   0  0  0  0  0  0  0  0  0  0  0  0
  126.4587  123.0860   54.7659 H   0  0  0  0  0  0  0  0  0  0  0  0
  126.3242  122.2991   57.7675 H   0  0  0  0  0  0  0  0  0  0  0  0
  127.8755  121.4651   58.1112 H   0  0  0  0  0  0  0  0  0  0  0  0
  128.1014  124.2343   56.9678 H   0  0  0  0  0  0  0  0  0  0  0  0
  127.4356  124.1266   58.6321 H   0  0  0  0  0  0  0  0  0  0  0  0
  128.4343  122.5543   60.0346 H   0  0  0  0  0  0  0  0  0  0  0  0
  130.2157  122.3465   59.9432 H   0  0  0  0  0  0  0  0  0  0  0  0
  130.6191  124.6367   60.5179 H   0  0  0  0  0  0  0  0  0  0  0  0
  128.8780  125.0720   60.2265 H   0  0  0  0  0  0  0  0  0  0  0  0
  129.8310  124.6000   62.6790 H   0  0  0  0  0  0  0  0  0  0  0  0
  128.0837  124.1792   64.4066 H   0  0  0  0  0  0  0  0  0  0  0  0
  127.3145  122.5436   64.2418 H   0  0  0  0  0  0  0  0  0  0  0  0
  133.9354  120.3359   60.1096 H   0  0  0  0  0  0  0  0  0  0  0  0
  133.8981  118.3105   58.6687 H   0  0  0  0  0  0  0  0  0  0  0  0
  131.9758  116.7335   58.7870 H   0  0  0  0  0  0  0  0  0  0  0  0
  130.0888  117.1723   60.3519 H   0  0  0  0  0  0  0  0  0  0  0  0
  130.1222  119.1938   61.7993 H   0  0  0  0  0  0  0  0  0  0  0  0
  133.8178  122.0360   61.0326 H   0  0  0  0  0  0  0  0  0  0  0  0
  134.4022  124.6757   63.4173 H   0  0  0  0  0  0  0  0  0  0  0  0
  134.9041  123.9092   61.8723 H   0  0  0  0  0  0  0  0  0  0  0  0
  133.6423  125.1876   61.8723 H   0  0  0  0  0  0  0  0  0  0  0  0
  1  2  1  0
  2  3  1  0
  3  4  1  0
  4  5  1  0
  5  6  1  0
  6  7  1  0
  7  8  1  0
  8  9  1  0
  9 10  1  0
 10 11  1  0
 11 12  1  0
 12 13  2  0
 12 14  1  0
 14 15  1  0
 15 16  1  0
 16 17  2  0
 17 18  1  0
 18 19  1  0
 19 20  2  0
 20 21  1  0
 21 22  2  0
 22 23  1  0
 23 24  2  0
 18 25  2  0
 25 26  1  0
 26 27  1  0
 26 28  2  0
 28 29  1  0
 29 30  3  0
 28 16  1  0
 24 19  1  0
  1 31  1  0
  1 32  1  0
  1 33  1  0
  3 34  1  0
  3 35  1  0
  4 36  1  0
  4 37  1  0
  6 38  1  0
  6 39  1  0
  7 40  1  0
  7 41  1  0
  9 42  1  0
  9 43  1  0
 10 44  1  0
 10 45  1  0
 11 46  1  0
 14 47  1  0
 14 48  1  0
 20 49  1  0
 21 50  1  0
 22 51  1  0
 23 52  1  0
 24 53  1  0
 25 54  1  0
 27 55  1  0
 27 56  1  0
 27 57  1  0
M  END
>  <Binding energies>  (1) 
[-8.05]

>  <Ligand effiencies>  (1) 
[-0.25967741935483873]

>  <Interactions>  (1) 
["V-B:GLU:543:CD:9879, V-B:PRO:540:N:9855, H-B:TYR:531:OH:9766, V-B:PRO:540:CB:9856, V-B:TYR:539:CD2:9845, V-B:TYR:539:C:9838, V-B:MET:535:CE:9806, H-B:TYR:539:N:9841, V-B:TYR:531:CE2:9764, V-B:PRO:540:CA:9854, V-B:LEU:363:CD1:8159, V-B:TYR:539:CE2:9847, V-A:LEU:475:CD2:4258, V-B:ALA:541:CB:9863, H-B:TYR:539:OH:9849, V-A:ASP:366:CG:3212, V-B:MET:535:CG:9804, V-B:TYR:539:CA:9840, V-A:ILE:369:CG2:3236, V-B:ILE:538:CD1:9836, V-B:TYR:539:CB:9842, V-B:TYR:539:CG:9843, V-B:ILE:538:CG2:9834, V-A:ILE:369:CD1:3238, V-A:HIS:383:CE1:3393, V-B:ILE:538:CA:9831, V-A:SER:385:CA:3406, H-A:TYR:484:OH:4347, V-B:GLU:543:CG:9878, V-B:PRO:540:CD:9858, H-B:ALA:541:N:9862, V-B:ILE:538:C:9829, V-A:LEU:373:CG:3278, V-A:LEU:373:CD2:3280"]

$$$$
3ca_Grossjean_2025
     RDKit          3D

 52 54  0  0  0  0  0  0  0  0999 V2000
  124.4810  124.3650   57.9330 C   0  0  0  0  0  0  0  0  0  0  0  0
  124.7190  123.1270   57.0640 C   0  0  0  0  0  0  0  0  0  0  0  0
  125.8760  123.3290   56.2600 O   0  0  0  0  0  0  0  0  0  0  0  0
  127.0490  122.7140   56.5520 C   0  0  0  0  0  0  0  0  0  0  0  0
  127.4970  121.7600   55.9070 O   0  0  0  0  0  0  0  0  0  0  0  0
  127.7540  123.3110   57.7370 C   0  0  0  0  0  0  0  0  0  0  0  0
  128.3270  124.5840   57.6210 C   0  0  0  0  0  0  0  0  0  0  0  0
  128.9880  125.1640   58.7010 C   0  0  0  0  0  0  0  0  0  0  0  0
  129.0950  124.4820   59.9140 C   0  0  0  0  0  0  0  0  0  0  0  0
  129.7810  125.1590   60.9400 N   0  0  0  0  0  0  0  0  0  0  0  0
  129.3110  125.6770   62.0950 C   0  0  0  0  0  0  0  0  0  0  0  0
  128.1420  125.6230   62.4760 O   0  0  0  0  0  0  0  0  0  0  0  0
  130.3590  126.3570   62.9820 C   0  0  0  0  0  0  0  0  0  0  0  0
  131.6450  125.2110   63.5810 S   0  0  0  0  0  0  0  0  0  0  0  0
  132.0390  124.0210   62.3070 C   0  0  0  0  0  0  0  0  0  0  0  0
  132.6920  124.5140   61.2240 N   0  0  0  0  0  0  0  0  0  0  0  0
  133.0400  123.6670   60.2310 C   0  0  0  0  0  0  0  0  0  0  0  0
  133.7820  124.2900   59.0650 C   0  0  0  0  0  0  0  0  0  0  0  0
  132.7410  122.3070   60.2660 C   0  0  0  0  0  0  0  0  0  0  0  0
  132.0530  121.7770   61.3650 C   0  0  0  0  0  0  0  0  0  0  0  0
  131.7420  120.3160   61.3530 C   0  0  0  0  0  0  0  0  0  0  0  0
  130.4420  119.8710   61.6240 C   0  0  0  0  0  0  0  0  0  0  0  0
  130.1460  118.5110   61.6250 C   0  0  0  0  0  0  0  0  0  0  0  0
  131.1530  117.5860   61.3580 C   0  0  0  0  0  0  0  0  0  0  0  0
  132.4530  118.0110   61.0930 C   0  0  0  0  0  0  0  0  0  0  0  0
  132.7450  119.3730   61.0940 C   0  0  0  0  0  0  0  0  0  0  0  0
  131.6960  122.6530   62.4230 C   0  0  0  0  0  0  0  0  0  0  0  0
  131.0200  122.1460   63.6210 C   0  0  0  0  0  0  0  0  0  0  0  0
  130.4860  121.7460   64.5670 N   0  0  0  0  0  0  0  0  0  0  0  0
  128.5170  123.2100   60.0410 C   0  0  0  0  0  0  0  0  0  0  0  0
  127.8550  122.6320   58.9600 C   0  0  0  0  0  0  0  0  0  0  0  0
  124.5351  124.0835   58.9950 H   0  0  0  0  0  0  0  0  0  0  0  0
  125.2504  125.1200   57.7142 H   0  0  0  0  0  0  0  0  0  0  0  0
  123.4865  124.7809   57.7142 H   0  0  0  0  0  0  0  0  0  0  0  0
  124.8693  122.2490   57.7094 H   0  0  0  0  0  0  0  0  0  0  0  0
  123.8460  122.9596   56.4160 H   0  0  0  0  0  0  0  0  0  0  0  0
  128.2543  125.1301   56.6689 H   0  0  0  0  0  0  0  0  0  0  0  0
  129.4288  126.1665   58.5973 H   0  0  0  0  0  0  0  0  0  0  0  0
  130.7790  125.2180   60.8010 H   0  0  0  0  0  0  0  0  0  0  0  0
  130.8447  127.1547   62.4007 H   0  0  0  0  0  0  0  0  0  0  0  0
  129.8344  126.7505   63.8652 H   0  0  0  0  0  0  0  0  0  0  0  0
  134.5723  124.9536   59.4458 H   0  0  0  0  0  0  0  0  0  0  0  0
  134.2336  123.4964   58.4516 H   0  0  0  0  0  0  0  0  0  0  0  0
  133.0785  124.8721   58.4516 H   0  0  0  0  0  0  0  0  0  0  0  0
  133.0435  121.6527   59.4351 H   0  0  0  0  0  0  0  0  0  0  0  0
  129.6485  120.6022   61.8378 H   0  0  0  0  0  0  0  0  0  0  0  0
  129.1222  118.1682   61.8355 H   0  0  0  0  0  0  0  0  0  0  0  0
  130.9197  116.5110   61.3564 H   0  0  0  0  0  0  0  0  0  0  0  0
  133.2439  117.2756   60.8843 H   0  0  0  0  0  0  0  0  0  0  0  0
  133.7717  119.7109   60.8897 H   0  0  0  0  0  0  0  0  0  0  0  0
  128.5866  122.6681   60.9957 H   0  0  0  0  0  0  0  0  0  0  0  0
  127.4070  121.6330   59.0668 H   0  0  0  0  0  0  0  0  0  0  0  0
  1  2  1  0
  2  3  1  0
  3  4  1  0
  4  5  2  0
  4  6  1  0
  6  7  2  0
  7  8  1  0
  8  9  2  0
  9 10  1  0
 10 11  1  0
 11 12  2  0
 11 13  1  0
 13 14  1  0
 14 15  1  0
 15 16  2  0
 16 17  1  0
 17 18  1  0
 17 19  2  0
 19 20  1  0
 20 21  1  0
 21 22  2  0
 22 23  1  0
 23 24  2  0
 24 25  1  0
 25 26  2  0
 20 27  2  0
 27 28  1  0
 28 29  3  0
  9 30  1  0
 30 31  2  0
 31  6  1  0
 27 15  1  0
 26 21  1  0
  1 32  1  0
  1 33  1  0
  1 34  1  0
  2 35  1  0
  2 36  1  0
  7 37  1  0
  8 38  1  0
 10 39  1  0
 13 40  1  0
 13 41  1  0
 18 42  1  0
 18 43  1  0
 18 44  1  0
 19 45  1  0
 22 46  1  0
 23 47  1  0
 24 48  1  0
 25 49  1  0
 26 50  1  0
 30 51  1  0
 31 52  1  0
M  END
>  <Binding energies>  (1) 
[-8.62]

>  <Ligand effiencies>  (1) 
[-0.269375]

>  <Interactions>  (1) 
["V-B:TYR:531:CZ:9765, V-B:PRO:540:N:9855, H-B:TYR:531:OH:9766, V-B:PRO:540:CB:9856, V-B:TYR:539:CD2:9845, V-B:TYR:539:C:9838, V-B:MET:535:CE:9806, H-B:TYR:539:N:9841, V-B:TYR:531:CE2:9764, V-B:PRO:540:CA:9854, V-B:LEU:363:CD1:8159, V-B:TYR:539:CE2:9847, V-A:ILE:369:CB:3235, V-A:LEU:475:CD2:4258, V-A:PRO:482:CG:4326, V-B:ALA:541:CB:9863, V-A:ILE:369:CG1:3237, V-A:ASP:366:CG:3212, V-A:SER:385:CB:3408, V-A:ILE:369:CG2:3236, V-A:ILE:369:CD1:3238, V-A:HIS:383:CE1:3393, V-A:PRO:482:CB:4325, V-A:ASP:366:CB:3211, V-A:SER:385:CA:3406, H-A:ASP:366:OD2:3214, V-A:ASP:366:CA:3209"]

$$$$
3cb_Grossjean_2025
     RDKit          3D

 49 51  0  0  0  0  0  0  0  0999 V2000
  124.1750  131.7790   63.4450 C   0  0  0  0  0  0  0  0  0  0  0  0
  124.4870  131.2590   64.7290 O   0  0  0  0  0  0  0  0  0  0  0  0
  124.1220  129.9990   65.0810 C   0  0  0  0  0  0  0  0  0  0  0  0
  123.1930  129.3860   64.5470 O   0  0  0  0  0  0  0  0  0  0  0  0
  124.9610  129.4260   66.1870 C   0  0  0  0  0  0  0  0  0  0  0  0
  126.3210  129.1310   66.0130 C   0  0  0  0  0  0  0  0  0  0  0  0
  127.0700  128.6030   67.0600 C   0  0  0  0  0  0  0  0  0  0  0  0
  126.4790  128.3530   68.2990 C   0  0  0  0  0  0  0  0  0  0  0  0
  127.3300  127.8210   69.2880 N   0  0  0  0  0  0  0  0  0  0  0  0
  127.0960  126.8630   70.2110 C   0  0  0  0  0  0  0  0  0  0  0  0
  126.0370  126.2470   70.3350 O   0  0  0  0  0  0  0  0  0  0  0  0
  128.2890  126.5590   71.1310 C   0  0  0  0  0  0  0  0  0  0  0  0
  127.9240  126.6390   72.9180 S   0  0  0  0  0  0  0  0  0  0  0  0
  129.3620  126.0600   73.7940 C   0  0  0  0  0  0  0  0  0  0  0  0
  129.3160  124.7380   74.0910 N   0  0  0  0  0  0  0  0  0  0  0  0
  130.3550  124.1870   74.7560 C   0  0  0  0  0  0  0  0  0  0  0  0
  130.2420  122.7020   75.0440 C   0  0  0  0  0  0  0  0  0  0  0  0
  131.4680  124.9230   75.1520 C   0  0  0  0  0  0  0  0  0  0  0  0
  131.5300  126.2940   74.8700 C   0  0  0  0  0  0  0  0  0  0  0  0
  132.7430  127.0430   75.3210 C   0  0  0  0  0  0  0  0  0  0  0  0
  133.8810  127.0950   74.5070 C   0  0  0  0  0  0  0  0  0  0  0  0
  135.0120  127.7990   74.9130 C   0  0  0  0  0  0  0  0  0  0  0  0
  135.0080  128.4590   76.1390 C   0  0  0  0  0  0  0  0  0  0  0  0
  133.8830  128.4240   76.9580 C   0  0  0  0  0  0  0  0  0  0  0  0
  132.7530  127.7210   76.5480 C   0  0  0  0  0  0  0  0  0  0  0  0
  130.4410  126.8910   74.1840 C   0  0  0  0  0  0  0  0  0  0  0  0
  130.4100  128.3370   73.9450 C   0  0  0  0  0  0  0  0  0  0  0  0
  130.3860  129.4790   73.7560 N   0  0  0  0  0  0  0  0  0  0  0  0
  125.1200  128.6490   68.4830 C   0  0  0  0  0  0  0  0  0  0  0  0
  124.3710  129.1780   67.4350 C   0  0  0  0  0  0  0  0  0  0  0  0
  123.6120  132.7174   63.5564 H   0  0  0  0  0  0  0  0  0  0  0  0
  125.1058  131.9733   62.8920 H   0  0  0  0  0  0  0  0  0  0  0  0
  123.5655  131.0491   62.8920 H   0  0  0  0  0  0  0  0  0  0  0  0
  126.7996  129.3186   65.0405 H   0  0  0  0  0  0  0  0  0  0  0  0
  128.1368  128.3808   66.9097 H   0  0  0  0  0  0  0  0  0  0  0  0
  128.2640  128.2070   69.2770 H   0  0  0  0  0  0  0  0  0  0  0  0
  128.6478  125.5450   70.9009 H   0  0  0  0  0  0  0  0  0  0  0  0
  129.0367  127.3415   70.9342 H   0  0  0  0  0  0  0  0  0  0  0  0
  130.2296  122.5394   76.1318 H   0  0  0  0  0  0  0  0  0  0  0  0
  129.3117  122.3130   74.6045 H   0  0  0  0  0  0  0  0  0  0  0  0
  131.1028  122.1767   74.6045 H   0  0  0  0  0  0  0  0  0  0  0  0
  132.2953  124.4305   75.6840 H   0  0  0  0  0  0  0  0  0  0  0  0
  133.8818  126.5749   73.5377 H   0  0  0  0  0  0  0  0  0  0  0  0
  135.9031  127.8334   74.2690 H   0  0  0  0  0  0  0  0  0  0  0  0
  135.9015  129.0128   76.4631 H   0  0  0  0  0  0  0  0  0  0  0  0
  133.8866  128.9492   77.9245 H   0  0  0  0  0  0  0  0  0  0  0  0
  131.8614  127.6975   77.1918 H   0  0  0  0  0  0  0  0  0  0  0  0
  124.6450  128.4627   69.4575 H   0  0  0  0  0  0  0  0  0  0  0  0
  123.3053  129.4038   67.5876 H   0  0  0  0  0  0  0  0  0  0  0  0
  1  2  1  0
  2  3  1  0
  3  4  2  0
  3  5  1  0
  5  6  2  0
  6  7  1  0
  7  8  2  0
  8  9  1  0
  9 10  1  0
 10 11  2  0
 10 12  1  0
 12 13  1  0
 13 14  1  0
 14 15  2  0
 15 16  1  0
 16 17  1  0
 16 18  2  0
 18 19  1  0
 19 20  1  0
 20 21  2  0
 21 22  1  0
 22 23  2  0
 23 24  1  0
 24 25  2  0
 19 26  2  0
 26 27  1  0
 27 28  3  0
  8 29  1  0
 29 30  2  0
 30  5  1  0
 26 14  1  0
 25 20  1  0
  1 31  1  0
  1 32  1  0
  1 33  1  0
  6 34  1  0
  7 35  1  0
  9 36  1  0
 12 37  1  0
 12 38  1  0
 17 39  1  0
 17 40  1  0
 17 41  1  0
 18 42  1  0
 21 43  1  0
 22 44  1  0
 23 45  1  0
 24 46  1  0
 25 47  1  0
 29 48  1  0
 30 49  1  0
M  END
>  <Binding energies>  (1) 
[-8.6]

>  <Ligand effiencies>  (1) 
[-0.27741935483870966]

>  <Interactions>  (1) 
["V-B:GLU:543:CB:9877, V-A:HIS:456:CE1:4069, V-B:GLU:543:C:9873, V-A:HIS:456:CA:4062, V-A:HIS:456:CB:4064, V-A:VAL:457:C:4072, V-B:ARG:545:CD:9894, V-B:GLU:543:CD:9879, V-B:HIS:456:CE1:9040, V-A:HIS:456:CG:4065, V-B:ARG:545:CG:9893, V-B:ARG:545:CZ:9897, H-B:LYS:547:NZ:9922, V-B:GLY:454:CA:9019, H-B:TYR:484:OH:9318, H-B:GLY:454:N:9020, H-B:ARG:545:NH2:9899, H-B:ARG:545:NE:9895, H-B:ARG:545:NH1:9898, V-A:LYS:547:CD:4948, V-A:VAL:458:CG2:4086, V-A:LYS:547:CE:4949, H-A:LYS:547:NZ:4950, H-B:ARG:545:N:9891, V-A:LYS:547:CB:4946, V-A:LYS:547:CG:4947, V-A:ARG:545:C:4916, H-B:GLY:544:N:9886"]

$$$$
3ce_Grossjean_2025
     RDKit          3D

 45 47  0  0  0  0  0  0  0  0999 V2000
  135.3420  125.8420   67.3600 C   0  0  0  0  0  0  0  0  0  0  0  0
  133.9830  125.8880   66.6860 C   0  0  0  0  0  0  0  0  0  0  0  0
  132.8380  126.2890   67.3780 C   0  0  0  0  0  0  0  0  0  0  0  0
  131.6240  126.3170   66.6920 C   0  0  0  0  0  0  0  0  0  0  0  0
  131.5830  125.9470   65.3460 C   0  0  0  0  0  0  0  0  0  0  0  0
  132.7660  125.5460   64.7160 C   0  0  0  0  0  0  0  0  0  0  0  0
  132.6690  125.2040   63.3560 N   0  0  0  0  0  0  0  0  0  0  0  0
  133.6180  124.6620   62.5610 C   0  0  0  0  0  0  0  0  0  0  0  0
  134.7590  124.3680   62.9210 O   0  0  0  0  0  0  0  0  0  0  0  0
  133.2010  124.4030   61.1130 C   0  0  0  0  0  0  0  0  0  0  0  0
  131.7480  123.3170   61.0090 S   0  0  0  0  0  0  0  0  0  0  0  0
  130.7980  123.9110   59.6290 C   0  0  0  0  0  0  0  0  0  0  0  0
  131.4580  124.8040   58.8500 N   0  0  0  0  0  0  0  0  0  0  0  0
  130.8270  125.3030   57.7620 C   0  0  0  0  0  0  0  0  0  0  0  0
  131.6260  126.2860   56.9280 C   0  0  0  0  0  0  0  0  0  0  0  0
  129.5240  124.9470   57.4220 C   0  0  0  0  0  0  0  0  0  0  0  0
  128.8170  124.0470   58.2290 C   0  0  0  0  0  0  0  0  0  0  0  0
  127.4140  123.7150   57.8370 C   0  0  0  0  0  0  0  0  0  0  0  0
  127.1670  122.7310   56.8730 C   0  0  0  0  0  0  0  0  0  0  0  0
  125.8630  122.4210   56.4980 C   0  0  0  0  0  0  0  0  0  0  0  0
  124.7970  123.1000   57.0820 C   0  0  0  0  0  0  0  0  0  0  0  0
  125.0260  124.0890   58.0350 C   0  0  0  0  0  0  0  0  0  0  0  0
  126.3310  124.3960   58.4090 C   0  0  0  0  0  0  0  0  0  0  0  0
  129.4680  123.5050   59.3660 C   0  0  0  0  0  0  0  0  0  0  0  0
  128.7840  122.5460   60.2390 C   0  0  0  0  0  0  0  0  0  0  0  0
  128.2430  121.7900   60.9280 N   0  0  0  0  0  0  0  0  0  0  0  0
  133.9600  125.5230   65.3790 N   0  0  0  0  0  0  0  0  0  0  0  0
  135.2100  125.8465   68.4520 H   0  0  0  0  0  0  0  0  0  0  0  0
  135.8701  124.9255   67.0582 H   0  0  0  0  0  0  0  0  0  0  0  0
  135.9309  126.7207   67.0582 H   0  0  0  0  0  0  0  0  0  0  0  0
  132.8924  126.5758   68.4385 H   0  0  0  0  0  0  0  0  0  0  0  0
  130.7040  126.6287   67.2082 H   0  0  0  0  0  0  0  0  0  0  0  0
  130.6345  125.9705   64.7894 H   0  0  0  0  0  0  0  0  0  0  0  0
  131.7450  125.2980   62.9590 H   0  0  0  0  0  0  0  0  0  0  0  0
  132.9613  125.3642   60.6348 H   0  0  0  0  0  0  0  0  0  0  0  0
  134.0371  123.9029   60.6022 H   0  0  0  0  0  0  0  0  0  0  0  0
  132.1789  126.9662   57.5926 H   0  0  0  0  0  0  0  0  0  0  0  0
  132.3363  125.7359   56.2933 H   0  0  0  0  0  0  0  0  0  0  0  0
  130.9424  126.8689   56.2933 H   0  0  0  0  0  0  0  0  0  0  0  0
  129.0523  125.3711   56.5233 H   0  0  0  0  0  0  0  0  0  0  0  0
  128.0098  122.1985   56.4081 H   0  0  0  0  0  0  0  0  0  0  0  0
  125.6754  121.6429   55.7435 H   0  0  0  0  0  0  0  0  0  0  0  0
  123.7660  122.8533   56.7883 H   0  0  0  0  0  0  0  0  0  0  0  0
  124.1799  124.6249   58.4899 H   0  0  0  0  0  0  0  0  0  0  0  0
  126.5137  125.1793   59.1594 H   0  0  0  0  0  0  0  0  0  0  0  0
  1  2  1  0
  2  3  2  0
  3  4  1  0
  4  5  2  0
  5  6  1  0
  6  7  1  0
  7  8  1  0
  8  9  2  0
  8 10  1  0
 10 11  1  0
 11 12  1  0
 12 13  2  0
 13 14  1  0
 14 15  1  0
 14 16  2  0
 16 17  1  0
 17 18  1  0
 18 19  2  0
 19 20  1  0
 20 21  2  0
 21 22  1  0
 22 23  2  0
 17 24  2  0
 24 25  1  0
 25 26  3  0
  6 27  2  0
 27  2  1  0
 24 12  1  0
 23 18  1  0
  1 28  1  0
  1 29  1  0
  1 30  1  0
  3 31  1  0
  4 32  1  0
  5 33  1  0
  7 34  1  0
 10 35  1  0
 10 36  1  0
 15 37  1  0
 15 38  1  0
 15 39  1  0
 16 40  1  0
 19 41  1  0
 20 42  1  0
 21 43  1  0
 22 44  1  0
 23 45  1  0
M  END
>  <Binding energies>  (1) 
[-8.74]

>  <Ligand effiencies>  (1) 
[-0.31214285714285717]

>  <Interactions>  (1) 
["V-A:HIS:456:CE1:4069, V-A:ARG:545:CZ:4925, V-B:PRO:540:N:9855, V-A:TYR:484:CZ:4346, V-A:ARG:545:CD:4922, V-B:PRO:540:CB:9856, V-B:TYR:539:CD2:9845, V-B:TYR:539:C:9838, V-B:MET:535:CE:9806, V-B:TYR:531:CE2:9764, V-B:PRO:540:CA:9854, V-B:LEU:363:CD1:8159, V-A:ARG:545:CG:4921, V-B:TYR:539:CE2:9847, H-B:TYR:539:OH:9849, V-B:TYR:539:CZ:9848, V-A:ASP:366:CG:3212, V-A:ILE:369:CD1:3238, H-A:TYR:484:OH:4347, H-A:GLY:454:N:4049, V-A:TYR:531:CE1:4791, V-B:PRO:540:CD:9858, H-B:ALA:541:N:9862, H-A:ARG:545:NH2:4927, H-A:ASP:366:OD2:3214, V-A:GLY:453:C:4041, H-A:ARG:545:NH1:4926, H-A:ARG:545:NE:4923, V-A:ARG:545:CB:4920, V-A:ILE:455:C:4051, V-A:GLY:453:CA:4043"]

$$$$
3ch_Grossjean_2025
     RDKit          3D

 55 57  0  0  0  0  0  0  0  0999 V2000
  134.1540  124.3570   62.2370 C   0  0  0  0  0  0  0  0  0  0  0  0
  134.1600  124.7810   63.5960 O   0  0  0  0  0  0  0  0  0  0  0  0
  132.9990  125.2780   64.1610 C   0  0  0  0  0  0  0  0  0  0  0  0
  131.7430  125.2450   63.5330 C   0  0  0  0  0  0  0  0  0  0  0  0
  130.6060  125.7600   64.1720 C   0  0  0  0  0  0  0  0  0  0  0  0
  129.3080  125.7660   63.6270 N   0  0  0  0  0  0  0  0  0  0  0  0
  128.9030  126.0460   62.3680 C   0  0  0  0  0  0  0  0  0  0  0  0
  129.6400  126.3470   61.4300 O   0  0  0  0  0  0  0  0  0  0  0  0
  127.3990  125.9280   62.1190 C   0  0  0  0  0  0  0  0  0  0  0  0
  126.8310  124.2020   62.1540 S   0  0  0  0  0  0  0  0  0  0  0  0
  128.1960  123.2450   62.7770 C   0  0  0  0  0  0  0  0  0  0  0  0
  128.3070  123.2610   64.1290 N   0  0  0  0  0  0  0  0  0  0  0  0
  129.3180  122.5700   64.7020 C   0  0  0  0  0  0  0  0  0  0  0  0
  129.3860  122.6340   66.2160 C   0  0  0  0  0  0  0  0  0  0  0  0
  130.2480  121.8460   63.9610 C   0  0  0  0  0  0  0  0  0  0  0  0
  130.1460  121.8110   62.5630 C   0  0  0  0  0  0  0  0  0  0  0  0
  131.1730  121.0300   61.8080 C   0  0  0  0  0  0  0  0  0  0  0  0
  130.8950  119.7230   61.3910 C   0  0  0  0  0  0  0  0  0  0  0  0
  131.8490  118.9860   60.6940 C   0  0  0  0  0  0  0  0  0  0  0  0
  133.0900  119.5540   60.4150 C   0  0  0  0  0  0  0  0  0  0  0  0
  133.3840  120.8500   60.8290 C   0  0  0  0  0  0  0  0  0  0  0  0
  132.4270  121.5840   61.5260 C   0  0  0  0  0  0  0  0  0  0  0  0
  129.0790  122.5150   61.9470 C   0  0  0  0  0  0  0  0  0  0  0  0
  128.8690  122.4370   60.4990 C   0  0  0  0  0  0  0  0  0  0  0  0
  128.7030  122.3770   59.3550 N   0  0  0  0  0  0  0  0  0  0  0  0
  130.7380  126.3290   65.4400 C   0  0  0  0  0  0  0  0  0  0  0  0
  131.9820  126.3770   66.0870 C   0  0  0  0  0  0  0  0  0  0  0  0
  132.1790  126.9200   67.3450 O   0  0  0  0  0  0  0  0  0  0  0  0
  131.0580  127.3770   68.0940 C   0  0  0  0  0  0  0  0  0  0  0  0
  133.1050  125.8500   65.4360 C   0  0  0  0  0  0  0  0  0  0  0  0
  134.3270  125.8740   66.0660 O   0  0  0  0  0  0  0  0  0  0  0  0
  134.3070  125.3550   67.3890 C   0  0  0  0  0  0  0  0  0  0  0  0
  134.1384  123.2579   62.1959 H   0  0  0  0  0  0  0  0  0  0  0  0
  133.2614  124.7555   61.7325 H   0  0  0  0  0  0  0  0  0  0  0  0
  135.0575  124.7300   61.7325 H   0  0  0  0  0  0  0  0  0  0  0  0
  131.6501  124.8096   62.5271 H   0  0  0  0  0  0  0  0  0  0  0  0
  128.5870  125.4790   64.2720 H   0  0  0  0  0  0  0  0  0  0  0  0
  126.8656  126.4924   62.8980 H   0  0  0  0  0  0  0  0  0  0  0  0
  127.1896  126.3323   61.1176 H   0  0  0  0  0  0  0  0  0  0  0  0
  128.6487  121.9400   66.6458 H   0  0  0  0  0  0  0  0  0  0  0  0
  130.3949  122.3502   66.5501 H   0  0  0  0  0  0  0  0  0  0  0  0
  129.1638  123.6582   66.5501 H   0  0  0  0  0  0  0  0  0  0  0  0
  131.0589  121.3041   64.4698 H   0  0  0  0  0  0  0  0  0  0  0  0
  129.9158  119.2749   61.6155 H   0  0  0  0  0  0  0  0  0  0  0  0
  131.6238  117.9606   60.3654 H   0  0  0  0  0  0  0  0  0  0  0  0
  133.8438  118.9735   59.8629 H   0  0  0  0  0  0  0  0  0  0  0  0
  134.3665  121.2921   60.6070 H   0  0  0  0  0  0  0  0  0  0  0  0
  132.6586  122.6070   61.8574 H   0  0  0  0  0  0  0  0  0  0  0  0
  129.8518  126.7467   65.9402 H   0  0  0  0  0  0  0  0  0  0  0  0
  131.2746  127.2887   69.1689 H   0  0  0  0  0  0  0  0  0  0  0  0
  130.8557  128.4294   67.8460 H   0  0  0  0  0  0  0  0  0  0  0  0
  130.1776  126.7660   67.8460 H   0  0  0  0  0  0  0  0  0  0  0  0
  134.3390  126.1858   68.1093 H   0  0  0  0  0  0  0  0  0  0  0  0
  133.3858  124.7734   67.5408 H   0  0  0  0  0  0  0  0  0  0  0  0
  135.1807  124.7042   67.5408 H   0  0  0  0  0  0  0  0  0  0  0  0
  1  2  1  0
  2  3  1  0
  3  4  2  0
  4  5  1  0
  5  6  1  0
  6  7  1  0
  7  8  2  0
  7  9  1  0
  9 10  1  0
 10 11  1  0
 11 12  2  0
 12 13  1  0
 13 14  1  0
 13 15  2  0
 15 16  1  0
 16 17  1  0
 17 18  2  0
 18 19  1  0
 19 20  2  0
 20 21  1  0
 21 22  2  0
 16 23  2  0
 23 24  1  0
 24 25  3  0
  5 26  2  0
 26 27  1  0
 27 28  1  0
 28 29  1  0
 27 30  2  0
 30 31  1  0
 31 32  1  0
 30  3  1  0
 23 11  1  0
 22 17  1  0
  1 33  1  0
  1 34  1  0
  1 35  1  0
  4 36  1  0
  6 37  1  0
  9 38  1  0
  9 39  1  0
 14 40  1  0
 14 41  1  0
 14 42  1  0
 15 43  1  0
 18 44  1  0
 19 45  1  0
 20 46  1  0
 21 47  1  0
 22 48  1  0
 26 49  1  0
 29 50  1  0
 29 51  1  0
 29 52  1  0
 32 53  1  0
 32 54  1  0
 32 55  1  0
M  END
>  <Binding energies>  (1) 
[-7.7]

>  <Ligand effiencies>  (1) 
[-0.23333333333333334]

>  <Interactions>  (1) 
["V-B:GLU:543:CB:9877, V-A:HIS:456:CE1:4069, V-B:GLU:543:CD:9879, V-A:ARG:545:CZ:4925, V-A:TYR:484:CZ:4346, V-A:ARG:545:CD:4922, V-B:TYR:539:CD2:9845, V-B:TYR:539:C:9838, V-B:PRO:540:CA:9854, V-A:ARG:545:CG:4921, V-B:TYR:539:CE2:9847, V-A:LEU:475:CD2:4258, V-B:ALA:541:CB:9863, V-A:ASP:366:CG:3212, H-B:GLU:543:OE2:9881, V-A:ILE:369:CG2:3236, V-A:ILE:369:CD1:3238, V-A:GLU:543:CD:4907, H-B:GLU:543:OE1:9880, V-A:GLY:454:CA:4048, V-A:SER:385:CA:3406, V-A:GLU:543:CB:4905, H-A:TYR:484:OH:4347, H-A:GLY:454:N:4049, V-B:GLU:543:CG:9878, V-A:TYR:484:CE2:4345, H-A:ARG:545:NH1:4926, V-A:LEU:475:CD1:4257, H-A:ARG:545:NE:4923, V-A:TYR:484:CD2:4343, V-A:ILE:455:C:4051"]

$$$$
3ci_Grossjean_2025
     RDKit          3D

 39 41  0  0  0  0  0  0  0  0999 V2000
  134.7210  124.3620   62.8360 C   0  0  0  0  0  0  0  0  0  0  0  0
  133.3570  123.7990   62.4810 C   0  0  0  0  0  0  0  0  0  0  0  0
  133.1940  122.4790   62.0730 C   0  0  0  0  0  0  0  0  0  0  0  0
  131.9120  122.0000   61.7720 C   0  0  0  0  0  0  0  0  0  0  0  0
  131.7830  120.5720   61.3530 C   0  0  0  0  0  0  0  0  0  0  0  0
  132.7550  119.9730   60.5410 C   0  0  0  0  0  0  0  0  0  0  0  0
  132.6260  118.6440   60.1460 C   0  0  0  0  0  0  0  0  0  0  0  0
  131.5180  117.9090   60.5570 C   0  0  0  0  0  0  0  0  0  0  0  0
  130.5380  118.4910   61.3570 C   0  0  0  0  0  0  0  0  0  0  0  0
  130.6710  119.8200   61.7500 C   0  0  0  0  0  0  0  0  0  0  0  0
  130.8150  122.8930   61.8840 C   0  0  0  0  0  0  0  0  0  0  0  0
  129.4560  122.4610   61.5410 C   0  0  0  0  0  0  0  0  0  0  0  0
  128.3840  122.1180   61.2710 N   0  0  0  0  0  0  0  0  0  0  0  0
  131.0690  124.2190   62.3120 C   0  0  0  0  0  0  0  0  0  0  0  0
  129.7600  125.4210   62.5090 S   0  0  0  0  0  0  0  0  0  0  0  0
  130.0160  126.3500   64.0560 C   0  0  0  0  0  0  0  0  0  0  0  0
  131.0280  125.6920   65.0010 C   0  0  0  0  0  0  0  0  0  0  0  0
  130.8510  124.5240   65.3530 O   0  0  0  0  0  0  0  0  0  0  0  0
  132.0570  126.4740   65.3950 N   0  0  0  0  0  0  0  0  0  0  0  0
  133.1170  126.1180   66.2180 C   0  0  0  0  0  0  0  0  0  0  0  0
  133.0940  126.2860   67.6020 C   0  0  0  0  0  0  0  0  0  0  0  0
  134.3140  125.8210   68.0390 C   0  0  0  0  0  0  0  0  0  0  0  0
  135.0320  125.3930   66.9730 O   0  0  0  0  0  0  0  0  0  0  0  0
  134.2630  125.5880   65.8240 N   0  0  0  0  0  0  0  0  0  0  0  0
  132.3210  124.6590   62.5970 N   0  0  0  0  0  0  0  0  0  0  0  0
  134.8263  124.4055   63.9301 H   0  0  0  0  0  0  0  0  0  0  0  0
  135.5053  123.7141   62.4176 H   0  0  0  0  0  0  0  0  0  0  0  0
  134.8200  125.3745   62.4176 H   0  0  0  0  0  0  0  0  0  0  0  0
  134.0667  121.8149   61.9872 H   0  0  0  0  0  0  0  0  0  0  0  0
  133.6272  120.5574   60.2128 H   0  0  0  0  0  0  0  0  0  0  0  0
  133.3953  118.1778   59.5129 H   0  0  0  0  0  0  0  0  0  0  0  0
  131.4154  116.8586   60.2470 H   0  0  0  0  0  0  0  0  0  0  0  0
  129.6641  117.9043   61.6765 H   0  0  0  0  0  0  0  0  0  0  0  0
  129.8956  120.2831   62.3779 H   0  0  0  0  0  0  0  0  0  0  0  0
  130.3795  127.3567   63.8021 H   0  0  0  0  0  0  0  0  0  0  0  0
  129.0504  126.3770   64.5821 H   0  0  0  0  0  0  0  0  0  0  0  0
  132.0830  127.4170   65.0390 H   0  0  0  0  0  0  0  0  0  0  0  0
  132.2780  126.7003   68.2124 H   0  0  0  0  0  0  0  0  0  0  0  0
  134.6515  125.8003   69.0857 H   0  0  0  0  0  0  0  0  0  0  0  0
  1  2  1  0
  2  3  2  0
  3  4  1  0
  4  5  1  0
  5  6  2  0
  6  7  1  0
  7  8  2  0
  8  9  1  0
  9 10  2  0
  4 11  2  0
 11 12  1  0
 12 13  3  0
 11 14  1  0
 14 15  1  0
 15 16  1  0
 16 17  1  0
 17 18  2  0
 17 19  1  0
 19 20  1  0
 20 21  1  0
 21 22  2  0
 22 23  1  0
 23 24  1  0
 14 25  2  0
 25  2  1  0
 10  5  1  0
 24 20  2  0
  1 26  1  0
  1 27  1  0
  1 28  1  0
  3 29  1  0
  6 30  1  0
  7 31  1  0
  8 32  1  0
  9 33  1  0
 10 34  1  0
 16 35  1  0
 16 36  1  0
 19 37  1  0
 21 38  1  0
 22 39  1  0
M  END
>  <Binding energies>  (1) 
[-8.5]

>  <Ligand effiencies>  (1) 
[-0.3269230769230769]

>  <Interactions>  (1) 
["V-A:HIS:456:CE1:4069, V-A:HIS:456:CD2:4067, V-A:ARG:545:CZ:4925, V-A:TYR:484:CZ:4346, V-A:ARG:545:CD:4922, V-B:TYR:539:CD2:9845, V-A:ARG:545:CG:4921, V-B:TYR:539:CE2:9847, V-A:LEU:475:CD2:4258, V-B:ALA:541:CB:9863, V-A:ASP:366:CG:3212, V-A:ILE:369:CG2:3236, V-A:ILE:369:CD1:3238, V-A:HIS:383:CE1:3393, V-A:GLU:543:CD:4907, V-A:GLY:454:CA:4048, V-A:SER:385:CA:3406, H-A:TYR:484:OH:4347, H-A:GLY:454:N:4049, H-B:ALA:541:N:9862, H-A:GLU:543:OE2:4909, V-A:GLY:453:C:4041, H-A:GLU:543:OE1:4908, H-A:ARG:545:NH1:4926, H-A:ARG:545:NE:4923, V-A:ARG:545:CB:4920, V-A:ILE:455:C:4051, V-A:GLY:453:CA:4043, H-A:ILE:455:N:4054"]

$$$$
3cj_Grossjean_2025
     RDKit          3D

 39 41  0  0  0  0  0  0  0  0999 V2000
  131.7570  125.1630   58.3680 C   0  0  0  0  0  0  0  0  0  0  0  0
  130.4810  124.6600   59.0140 C   0  0  0  0  0  0  0  0  0  0  0  0
  129.3640  124.3200   58.2540 C   0  0  0  0  0  0  0  0  0  0  0  0
  128.2130  123.8370   58.8910 C   0  0  0  0  0  0  0  0  0  0  0  0
  127.0640  123.4240   58.0320 C   0  0  0  0  0  0  0  0  0  0  0  0
  127.2490  122.5080   56.9900 C   0  0  0  0  0  0  0  0  0  0  0  0
  126.1790  122.1340   56.1810 C   0  0  0  0  0  0  0  0  0  0  0  0
  124.9200  122.6810   56.4090 C   0  0  0  0  0  0  0  0  0  0  0  0
  124.7220  123.6010   57.4350 C   0  0  0  0  0  0  0  0  0  0  0  0
  125.7940  123.9730   58.2430 C   0  0  0  0  0  0  0  0  0  0  0  0
  128.2150  123.7410   60.3050 C   0  0  0  0  0  0  0  0  0  0  0  0
  127.0310  123.2700   61.0310 C   0  0  0  0  0  0  0  0  0  0  0  0
  126.0970  122.8970   61.6030 N   0  0  0  0  0  0  0  0  0  0  0  0
  129.3930  124.1030   60.9950 C   0  0  0  0  0  0  0  0  0  0  0  0
  129.5750  123.9040   62.7550 S   0  0  0  0  0  0  0  0  0  0  0  0
  129.3790  122.1170   63.0460 C   0  0  0  0  0  0  0  0  0  0  0  0
  130.5360  121.3110   62.4460 C   0  0  0  0  0  0  0  0  0  0  0  0
  131.6920  121.5510   62.8010 O   0  0  0  0  0  0  0  0  0  0  0  0
  130.1770  120.3440   61.5750 N   0  0  0  0  0  0  0  0  0  0  0  0
  131.0090  119.3970   61.0010 C   0  0  0  0  0  0  0  0  0  0  0  0
  132.1950  119.5830   60.4630 N   0  0  0  0  0  0  0  0  0  0  0  0
  132.7170  118.4480   60.0400 C   0  0  0  0  0  0  0  0  0  0  0  0
  131.9470  117.3050   60.2320 C   0  0  0  0  0  0  0  0  0  0  0  0
  130.4570  117.7520   61.0090 S   0  0  0  0  0  0  0  0  0  0  0  0
  130.5080  124.5440   60.3610 N   0  0  0  0  0  0  0  0  0  0  0  0
  132.4767  125.4467   59.1500 H   0  0  0  0  0  0  0  0  0  0  0  0
  132.1894  124.3681   57.7426 H   0  0  0  0  0  0  0  0  0  0  0  0
  131.5307  126.0392   57.7426 H   0  0  0  0  0  0  0  0  0  0  0  0
  129.3854  124.4301   57.1597 H   0  0  0  0  0  0  0  0  0  0  0  0
  128.2463  122.0807   56.8089 H   0  0  0  0  0  0  0  0  0  0  0  0
  126.3282  121.4102   55.3663 H   0  0  0  0  0  0  0  0  0  0  0  0
  124.0734  122.3838   55.7727 H   0  0  0  0  0  0  0  0  0  0  0  0
  123.7245  124.0318   57.6067 H   0  0  0  0  0  0  0  0  0  0  0  0
  125.6414  124.7027   59.0518 H   0  0  0  0  0  0  0  0  0  0  0  0
  129.3432  121.9349   64.1302 H   0  0  0  0  0  0  0  0  0  0  0  0
  128.4479  121.7920   62.5588 H   0  0  0  0  0  0  0  0  0  0  0  0
  129.1920  120.2370   61.3800 H   0  0  0  0  0  0  0  0  0  0  0  0
  133.7067  118.4072   59.5617 H   0  0  0  0  0  0  0  0  0  0  0  0
  132.2343  116.2842   59.9397 H   0  0  0  0  0  0  0  0  0  0  0  0
  1  2  1  0
  2  3  2  0
  3  4  1  0
  4  5  1  0
  5  6  2  0
  6  7  1  0
  7  8  2  0
  8  9  1  0
  9 10  2  0
  4 11  2  0
 11 12  1  0
 12 13  3  0
 11 14  1  0
 14 15  1  0
 15 16  1  0
 16 17  1  0
 17 18  2  0
 17 19  1  0
 19 20  1  0
 20 21  2  0
 21 22  1  0
 22 23  2  0
 23 24  1  0
 14 25  2  0
 25  2  1  0
 10  5  1  0
 24 20  1  0
  1 26  1  0
  1 27  1  0
  1 28  1  0
  3 29  1  0
  6 30  1  0
  7 31  1  0
  8 32  1  0
  9 33  1  0
 10 34  1  0
 16 35  1  0
 16 36  1  0
 19 37  1  0
 22 38  1  0
 23 39  1  0
M  END
>  <Binding energies>  (1) 
[-8.16]

>  <Ligand effiencies>  (1) 
[-0.31384615384615383]

>  <Interactions>  (1) 
["V-B:PRO:540:N:9855, V-B:PRO:540:CB:9856, V-B:TYR:539:CD2:9845, V-B:TYR:539:C:9838, V-B:MET:535:CE:9806, V-B:TYR:531:CE2:9764, V-B:PRO:540:CA:9854, V-B:LEU:363:CD1:8159, V-B:TYR:539:CE2:9847, V-A:LEU:475:CD2:4258, V-A:PRO:482:CG:4326, V-B:ALA:541:CB:9863, V-B:TYR:539:CZ:9848, V-B:TYR:539:CG:9843, V-B:ILE:538:CG2:9834, V-A:HIS:383:CE1:3393, V-A:PRO:482:CB:4325, V-B:ILE:538:CA:9831, V-A:SER:385:CA:3406, V-B:PRO:540:CD:9858, H-B:ALA:541:N:9862, V-B:ILE:538:C:9829, V-B:ALA:541:CA:9861, V-B:PRO:540:C:9852, H-B:TYR:539:O:9839"]

$$$$
3ck_Grossjean_2025
     RDKit          3D

 57 58  0  0  0  0  0  0  0  0999 V2000
  125.4550  122.1490   55.8150 C   0  0  0  0  0  0  0  0  0  0  0  0
  126.8450  121.8650   55.8430 O   0  0  0  0  0  0  0  0  0  0  0  0
  127.5260  122.4770   56.9300 C   0  0  0  0  0  0  0  0  0  0  0  0
  126.5100  122.9070   57.9950 C   0  0  0  0  0  0  0  0  0  0  0  0
  127.1740  123.0570   59.2440 O   0  0  0  0  0  0  0  0  0  0  0  0
  128.4820  123.6040   59.1400 C   0  0  0  0  0  0  0  0  0  0  0  0
  129.4290  122.8130   60.0510 C   0  0  0  0  0  0  0  0  0  0  0  0
  129.4530  123.4400   61.3250 O   0  0  0  0  0  0  0  0  0  0  0  0
  128.7660  122.7360   62.3480 C   0  0  0  0  0  0  0  0  0  0  0  0
  129.0290  123.4140   63.7060 C   0  0  0  0  0  0  0  0  0  0  0  0
  130.1210  124.3910   63.6760 N   0  0  0  0  0  0  0  0  0  0  0  0
  130.7510  124.8960   64.7520 C   0  0  0  0  0  0  0  0  0  0  0  0
  130.4860  124.5620   65.9090 O   0  0  0  0  0  0  0  0  0  0  0  0
  131.8470  125.9310   64.4520 C   0  0  0  0  0  0  0  0  0  0  0  0
  133.4460  125.2410   63.9020 S   0  0  0  0  0  0  0  0  0  0  0  0
  133.1680  124.1580   62.5080 C   0  0  0  0  0  0  0  0  0  0  0  0
  133.3270  124.7250   61.2860 N   0  0  0  0  0  0  0  0  0  0  0  0
  133.1280  123.9650   60.1860 C   0  0  0  0  0  0  0  0  0  0  0  0
  133.3220  124.6670   58.8560 C   0  0  0  0  0  0  0  0  0  0  0  0
  132.7650  122.6220   60.2570 C   0  0  0  0  0  0  0  0  0  0  0  0
  132.5890  122.0180   61.5090 C   0  0  0  0  0  0  0  0  0  0  0  0
  132.1760  120.5830   61.5370 C   0  0  0  0  0  0  0  0  0  0  0  0
  133.1250  119.5740   61.3300 C   0  0  0  0  0  0  0  0  0  0  0  0
  132.7450  118.2330   61.3450 C   0  0  0  0  0  0  0  0  0  0  0  0
  131.4120  117.8980   61.5600 C   0  0  0  0  0  0  0  0  0  0  0  0
  130.4550  118.8900   61.7590 C   0  0  0  0  0  0  0  0  0  0  0  0
  130.8370  120.2280   61.7440 C   0  0  0  0  0  0  0  0  0  0  0  0
  132.8060  122.8010   62.6720 C   0  0  0  0  0  0  0  0  0  0  0  0
  132.6770  122.2100   64.0090 C   0  0  0  0  0  0  0  0  0  0  0  0
  132.5760  121.7440   65.0630 N   0  0  0  0  0  0  0  0  0  0  0  0
  125.0758  122.2265   56.8447 H   0  0  0  0  0  0  0  0  0  0  0  0
  125.2856  123.1003   55.2893 H   0  0  0  0  0  0  0  0  0  0  0  0
  124.9261  121.3404   55.2893 H   0  0  0  0  0  0  0  0  0  0  0  0
  128.2351  121.7596   57.3687 H   0  0  0  0  0  0  0  0  0  0  0  0
  128.0731  123.3602   56.5685 H   0  0  0  0  0  0  0  0  0  0  0  0
  126.0549  123.8650   57.7033 H   0  0  0  0  0  0  0  0  0  0  0  0
  125.7240  122.1427   58.0847 H   0  0  0  0  0  0  0  0  0  0  0  0
  128.8289  123.5345   58.0984 H   0  0  0  0  0  0  0  0  0  0  0  0
  128.4681  124.6603   59.4466 H   0  0  0  0  0  0  0  0  0  0  0  0
  129.0689  121.7786   60.1527 H   0  0  0  0  0  0  0  0  0  0  0  0
  130.4407  122.7946   59.6197 H   0  0  0  0  0  0  0  0  0  0  0  0
  127.6864  122.7446   62.1372 H   0  0  0  0  0  0  0  0  0  0  0  0
  129.1255  121.6970   62.3820 H   0  0  0  0  0  0  0  0  0  0  0  0
  128.1098  123.9303   64.0200 H   0  0  0  0  0  0  0  0  0  0  0  0
  129.3265  122.6214   64.4083 H   0  0  0  0  0  0  0  0  0  0  0  0
  130.4100  124.7050   62.7610 H   0  0  0  0  0  0  0  0  0  0  0  0
  131.4756  126.5991   63.6610 H   0  0  0  0  0  0  0  0  0  0  0  0
  132.0492  126.4432   65.4042 H   0  0  0  0  0  0  0  0  0  0  0  0
  133.6112  125.7135   59.0325 H   0  0  0  0  0  0  0  0  0  0  0  0
  134.1135  124.1591   58.2853 H   0  0  0  0  0  0  0  0  0  0  0  0
  132.3821  124.6376   58.2853 H   0  0  0  0  0  0  0  0  0  0  0  0
  132.6174  122.0392   59.3358 H   0  0  0  0  0  0  0  0  0  0  0  0
  134.1774  119.8416   61.1544 H   0  0  0  0  0  0  0  0  0  0  0  0
  133.4951  117.4439   61.1877 H   0  0  0  0  0  0  0  0  0  0  0  0
  131.1112  116.8400   61.5729 H   0  0  0  0  0  0  0  0  0  0  0  0
  129.4027  118.6173   61.9272 H   0  0  0  0  0  0  0  0  0  0  0  0
  130.0815  121.0130   61.8959 H   0  0  0  0  0  0  0  0  0  0  0  0
  1  2  1  0
  2  3  1  0
  3  4  1  0
  4  5  1  0
  5  6  1  0
  6  7  1  0
  7  8  1  0
  8  9  1  0
  9 10  1  0
 10 11  1  0
 11 12  1  0
 12 13  2  0
 12 14  1  0
 14 15  1  0
 15 16  1  0
 16 17  2  0
 17 18  1  0
 18 19  1  0
 18 20  2  0
 20 21  1  0
 21 22  1  0
 22 23  2  0
 23 24  1  0
 24 25  2  0
 25 26  1  0
 26 27  2  0
 21 28  2  0
 28 29  1  0
 29 30  3  0
 28 16  1  0
 27 22  1  0
  1 31  1  0
  1 32  1  0
  1 33  1  0
  3 34  1  0
  3 35  1  0
  4 36  1  0
  4 37  1  0
  6 38  1  0
  6 39  1  0
  7 40  1  0
  7 41  1  0
  9 42  1  0
  9 43  1  0
 10 44  1  0
 10 45  1  0
 11 46  1  0
 14 47  1  0
 14 48  1  0
 19 49  1  0
 19 50  1  0
 19 51  1  0
 20 52  1  0
 23 53  1  0
 24 54  1  0
 25 55  1  0
 26 56  1  0
 27 57  1  0
M  END
>  <Binding energies>  (1) 
[-7.25]

>  <Ligand effiencies>  (1) 
[-0.23387096774193547]

>  <Interactions>  (1) 
["V-B:GLU:543:CD:9879, V-B:PRO:540:N:9855, V-B:PRO:540:CB:9856, V-B:TYR:539:CD2:9845, V-B:TYR:539:C:9838, V-B:MET:535:CE:9806, H-B:TYR:539:N:9841, V-B:TYR:531:CE2:9764, V-B:PRO:540:CA:9854, V-B:LEU:363:CD1:8159, V-B:TYR:539:CE2:9847, V-A:ILE:369:CB:3235, V-A:LEU:475:CD2:4258, V-B:ILE:538:CB:9833, V-B:ALA:541:CB:9863, V-A:ASP:366:CG:3212, V-A:SER:385:CB:3408, V-B:TYR:539:CE1:9846, V-B:TYR:539:CA:9840, V-B:TYR:539:CD1:9844, V-A:ILE:369:CG2:3236, V-B:ILE:538:CD1:9836, V-B:TYR:539:CG:9843, V-B:ILE:538:CG2:9834, V-A:ILE:369:CD1:3238, V-A:PRO:482:CB:4325, V-B:ILE:538:CA:9831, V-A:ASP:366:CB:3211, V-A:GLY:454:CA:4048, V-A:SER:385:CA:3406, H-A:TYR:484:OH:4347, H-A:GLY:454:N:4049, V-B:PRO:540:CD:9858, V-B:ILE:538:C:9829, H-A:ARG:545:NH2:4927, V-A:ASP:366:CA:3209"]

$$$$
4aa_Grossjean_2025
     RDKit          3D

 45 47  0  0  0  0  0  0  0  0999 V2000
  124.0400  124.7010   57.6910 C   0  0  0  0  0  0  0  0  0  0  0  0
  124.6600  123.3070   57.5520 C   0  0  0  0  0  0  0  0  0  0  0  0
  125.5430  123.2920   56.4380 O   0  0  0  0  0  0  0  0  0  0  0  0
  126.7760  122.7300   56.5270 C   0  0  0  0  0  0  0  0  0  0  0  0
  127.1810  121.8500   55.7600 O   0  0  0  0  0  0  0  0  0  0  0  0
  127.5980  123.2820   57.6560 C   0  0  0  0  0  0  0  0  0  0  0  0
  127.8750  122.4690   58.7630 C   0  0  0  0  0  0  0  0  0  0  0  0
  128.6300  122.9530   59.8270 C   0  0  0  0  0  0  0  0  0  0  0  0
  129.1320  124.2550   59.8030 C   0  0  0  0  0  0  0  0  0  0  0  0
  129.8750  124.6440   60.9350 N   0  0  0  0  0  0  0  0  0  0  0  0
  130.4970  125.8160   61.2100 C   0  0  0  0  0  0  0  0  0  0  0  0
  130.5440  126.7730   60.4370 O   0  0  0  0  0  0  0  0  0  0  0  0
  131.1570  125.8810   62.5150 C   0  0  0  0  0  0  0  0  0  0  0  0
  132.8210  125.3210   62.7000 S   0  0  0  0  0  0  0  0  0  0  0  0
  132.8010  125.6780   64.4120 C   0  0  0  0  0  0  0  0  0  0  0  0
  133.8610  125.4570   65.1910 N   0  0  0  0  0  0  0  0  0  0  0  0
  133.7110  125.7740   66.5010 C   0  0  0  0  0  0  0  0  0  0  0  0
  134.9270  125.5100   67.3720 C   0  0  0  0  0  0  0  0  0  0  0  0
  132.5420  126.3020   67.0430 C   0  0  0  0  0  0  0  0  0  0  0  0
  131.4330  126.5340   66.2220 C   0  0  0  0  0  0  0  0  0  0  0  0
  130.1780  127.1130   66.8590 C   0  0  0  0  0  0  0  0  0  0  0  0
  131.5490  126.2110   64.8430 C   0  0  0  0  0  0  0  0  0  0  0  0
  130.6280  126.3120   63.7420 C   0  0  0  0  0  0  0  0  0  0  0  0
  129.3520  126.7930   63.8980 N   0  0  0  0  0  0  0  0  0  0  0  0
  128.8560  125.0790   58.7030 C   0  0  0  0  0  0  0  0  0  0  0  0
  128.0970  124.5940   57.6400 C   0  0  0  0  0  0  0  0  0  0  0  0
  123.9298  124.9487   58.7571 H   0  0  0  0  0  0  0  0  0  0  0  0
  124.6931  125.4426   57.2079 H   0  0  0  0  0  0  0  0  0  0  0  0
  123.0518  124.7126   57.2079 H   0  0  0  0  0  0  0  0  0  0  0  0
  125.2191  123.0611   58.4668 H   0  0  0  0  0  0  0  0  0  0  0  0
  123.8633  122.5640   57.3994 H   0  0  0  0  0  0  0  0  0  0  0  0
  127.4920  121.4382   58.7913 H   0  0  0  0  0  0  0  0  0  0  0  0
  128.8325  122.3052   60.6926 H   0  0  0  0  0  0  0  0  0  0  0  0
  129.9630  123.9240   61.6380 H   0  0  0  0  0  0  0  0  0  0  0  0
  134.6394  125.5724   68.4319 H   0  0  0  0  0  0  0  0  0  0  0  0
  135.3206  124.5055   67.1575 H   0  0  0  0  0  0  0  0  0  0  0  0
  135.7017  126.2609   67.1575 H   0  0  0  0  0  0  0  0  0  0  0  0
  132.4904  126.5367   68.1164 H   0  0  0  0  0  0  0  0  0  0  0  0
  130.2698  127.0706   67.9543 H   0  0  0  0  0  0  0  0  0  0  0  0
  130.0548  128.1590   66.5415 H   0  0  0  0  0  0  0  0  0  0  0  0
  129.3023  126.5279   66.5415 H   0  0  0  0  0  0  0  0  0  0  0  0
  128.9090  127.3640   63.1930 H   0  0  0  0  0  0  0  0  0  0  0  0
  128.8130  126.5920   64.7280 H   0  0  0  0  0  0  0  0  0  0  0  0
  129.2392  126.1098   58.6790 H   0  0  0  0  0  0  0  0  0  0  0  0
  127.8866  125.2459   56.7793 H   0  0  0  0  0  0  0  0  0  0  0  0
  1  2  1  0
  2  3  1  0
  3  4  1  0
  4  5  2  0
  4  6  1  0
  6  7  2  0
  7  8  1  0
  8  9  2  0
  9 10  1  0
 10 11  1  0
 11 12  2  0
 11 13  1  0
 13 14  1  0
 14 15  1  0
 15 16  2  0
 16 17  1  0
 17 18  1  0
 17 19  2  0
 19 20  1  0
 20 21  1  0
 20 22  2  0
 22 23  1  0
 23 24  1  0
  9 25  1  0
 25 26  2  0
 26  6  1  0
 23 13  2  0
 22 15  1  0
  1 27  1  0
  1 28  1  0
  1 29  1  0
  2 30  1  0
  2 31  1  0
  7 32  1  0
  8 33  1  0
 10 34  1  0
 18 35  1  0
 18 36  1  0
 18 37  1  0
 19 38  1  0
 21 39  1  0
 21 40  1  0
 21 41  1  0
 24 42  1  0
 24 43  1  0
 25 44  1  0
 26 45  1  0
M  END
>  <Binding energies>  (1) 
[-8.26]

>  <Ligand effiencies>  (1) 
[-0.2848275862068965]

>  <Interactions>  (1) 
["V-A:HIS:456:CE1:4069, V-B:GLU:543:CD:9879, V-B:TYR:531:CZ:9765, V-A:ARG:545:CZ:4925, V-B:ASP:366:CB:8182, V-B:PRO:540:N:9855, H-B:TYR:531:OH:9766, V-A:ARG:545:CD:4922, V-B:PRO:540:CB:9856, V-B:TYR:539:CD2:9845, V-B:TYR:539:C:9838, V-B:MET:535:CE:9806, H-B:TYR:539:N:9841, V-B:TYR:531:CE2:9764, V-B:PRO:540:CA:9854, V-B:LEU:363:CD1:8159, V-A:ARG:545:CG:4921, V-B:TYR:539:CE2:9847, V-A:ASP:366:CG:3212, H-B:GLU:543:OE2:9881, V-A:GLU:543:CD:4907, H-B:GLU:543:OE1:9880, V-A:GLY:454:CA:4048, H-A:TYR:484:OH:4347, H-A:GLY:454:N:4049, H-A:ARG:545:NH2:4927, V-A:GLY:453:C:4041, H-A:ARG:545:NH1:4926, H-A:ARG:545:NE:4923, V-A:ILE:455:C:4051, V-A:GLY:453:CA:4043, V-A:GLY:454:C:4046"]

$$$$
4ab_Grossjean_2025
     RDKit          3D

 42 44  0  0  0  0  0  0  0  0999 V2000
  124.8520  123.5620   57.3910 C   0  0  0  0  0  0  0  0  0  0  0  0
  125.7360  123.3530   56.2990 O   0  0  0  0  0  0  0  0  0  0  0  0
  126.9180  122.7080   56.4710 C   0  0  0  0  0  0  0  0  0  0  0  0
  127.2830  121.7570   55.7710 O   0  0  0  0  0  0  0  0  0  0  0  0
  127.7360  123.2600   57.6020 C   0  0  0  0  0  0  0  0  0  0  0  0
  127.7880  122.5590   58.8140 C   0  0  0  0  0  0  0  0  0  0  0  0
  128.5370  123.0460   59.8830 C   0  0  0  0  0  0  0  0  0  0  0  0
  129.2530  124.2360   59.7600 C   0  0  0  0  0  0  0  0  0  0  0  0
  129.9680  124.6390   60.9040 N   0  0  0  0  0  0  0  0  0  0  0  0
  130.4730  125.8520   61.2360 C   0  0  0  0  0  0  0  0  0  0  0  0
  130.4110  126.8490   60.5160 O   0  0  0  0  0  0  0  0  0  0  0  0
  131.1430  125.9140   62.5360 C   0  0  0  0  0  0  0  0  0  0  0  0
  132.8030  125.3380   62.7110 S   0  0  0  0  0  0  0  0  0  0  0  0
  132.7990  125.7010   64.4220 C   0  0  0  0  0  0  0  0  0  0  0  0
  133.8610  125.4710   65.1950 N   0  0  0  0  0  0  0  0  0  0  0  0
  133.7260  125.7950   66.5040 C   0  0  0  0  0  0  0  0  0  0  0  0
  134.9440  125.5200   67.3670 C   0  0  0  0  0  0  0  0  0  0  0  0
  132.5680  126.3410   67.0520 C   0  0  0  0  0  0  0  0  0  0  0  0
  131.4550  126.5810   66.2380 C   0  0  0  0  0  0  0  0  0  0  0  0
  130.2130  127.1770   66.8830 C   0  0  0  0  0  0  0  0  0  0  0  0
  131.5570  126.2500   64.8590 C   0  0  0  0  0  0  0  0  0  0  0  0
  130.6290  126.3550   63.7650 C   0  0  0  0  0  0  0  0  0  0  0  0
  129.3590  126.8490   63.9280 N   0  0  0  0  0  0  0  0  0  0  0  0
  129.2030  124.9490   58.5520 C   0  0  0  0  0  0  0  0  0  0  0  0
  128.4520  124.4610   57.4850 C   0  0  0  0  0  0  0  0  0  0  0  0
  125.3997  123.4325   58.3361 H   0  0  0  0  0  0  0  0  0  0  0  0
  124.4425  124.5817   57.3413 H   0  0  0  0  0  0  0  0  0  0  0  0
  124.0292  122.8336   57.3413 H   0  0  0  0  0  0  0  0  0  0  0  0
  127.2325  121.6158   58.9225 H   0  0  0  0  0  0  0  0  0  0  0  0
  128.5637  122.4879   60.8305 H   0  0  0  0  0  0  0  0  0  0  0  0
  130.1360  123.8970   61.5660 H   0  0  0  0  0  0  0  0  0  0  0  0
  134.6631  125.5834   68.4286 H   0  0  0  0  0  0  0  0  0  0  0  0
  135.3280  124.5125   67.1489 H   0  0  0  0  0  0  0  0  0  0  0  0
  135.7236  126.2647   67.1489 H   0  0  0  0  0  0  0  0  0  0  0  0
  132.5281  126.5836   68.1242 H   0  0  0  0  0  0  0  0  0  0  0  0
  130.3101  127.1304   67.9777 H   0  0  0  0  0  0  0  0  0  0  0  0
  130.1039  128.2255   66.5689 H   0  0  0  0  0  0  0  0  0  0  0  0
  129.3268  126.6061   66.5689 H   0  0  0  0  0  0  0  0  0  0  0  0
  128.8080  126.6430   64.7490 H   0  0  0  0  0  0  0  0  0  0  0  0
  128.9290  127.4330   63.2240 H   0  0  0  0  0  0  0  0  0  0  0  0
  129.7571  125.8935   58.4478 H   0  0  0  0  0  0  0  0  0  0  0  0
  128.4200  125.0235   56.5402 H   0  0  0  0  0  0  0  0  0  0  0  0
  1  2  1  0
  2  3  1  0
  3  4  2  0
  3  5  1  0
  5  6  2  0
  6  7  1  0
  7  8  2  0
  8  9  1  0
  9 10  1  0
 10 11  2  0
 10 12  1  0
 12 13  1  0
 13 14  1  0
 14 15  2  0
 15 16  1  0
 16 17  1  0
 16 18  2  0
 18 19  1  0
 19 20  1  0
 19 21  2  0
 21 22  1  0
 22 23  1  0
  8 24  1  0
 24 25  2  0
 25  5  1  0
 22 12  2  0
 21 14  1  0
  1 26  1  0
  1 27  1  0
  1 28  1  0
  6 29  1  0
  7 30  1  0
  9 31  1  0
 17 32  1  0
 17 33  1  0
 17 34  1  0
 18 35  1  0
 20 36  1  0
 20 37  1  0
 20 38  1  0
 23 39  1  0
 23 40  1  0
 24 41  1  0
 25 42  1  0
M  END
>  <Binding energies>  (1) 
[-8.0]

>  <Ligand effiencies>  (1) 
[-0.2857142857142857]

>  <Interactions>  (1) 
["V-A:HIS:456:CE1:4069, V-B:GLU:543:CD:9879, V-A:ARG:545:CZ:4925, V-B:PRO:540:N:9855, H-B:TYR:531:OH:9766, V-A:ARG:545:CD:4922, V-B:PRO:540:CB:9856, V-B:TYR:539:CD2:9845, V-B:TYR:539:C:9838, V-B:MET:535:CE:9806, H-B:TYR:539:N:9841, V-B:TYR:531:CE2:9764, V-B:PRO:540:CA:9854, V-B:LEU:363:CD1:8159, V-A:ARG:545:CG:4921, V-B:TYR:539:CE2:9847, V-A:ASP:366:CG:3212, H-B:GLU:543:OE2:9881, V-A:GLU:543:CD:4907, H-B:GLU:543:OE1:9880, V-A:GLY:454:CA:4048, H-A:TYR:484:OH:4347, H-A:GLY:454:N:4049, H-A:ARG:545:NH2:4927, V-A:GLY:453:C:4041, H-A:ARG:545:NH1:4926, H-A:ARG:545:NE:4923, V-A:ILE:455:C:4051, V-A:GLY:453:CA:4043, V-A:GLY:454:C:4046"]

$$$$
4ac_Grossjean_2025
     RDKit          3D

 40 42  0  0  0  0  0  0  0  0999 V2000
  133.6710  125.8880   66.7520 C   0  0  0  0  0  0  0  0  0  0  0  0
  133.9300  125.4810   65.4130 O   0  0  0  0  0  0  0  0  0  0  0  0
  132.8690  125.1990   64.5760 C   0  0  0  0  0  0  0  0  0  0  0  0
  133.1880  124.7060   63.3110 C   0  0  0  0  0  0  0  0  0  0  0  0
  132.1840  124.3930   62.3980 C   0  0  0  0  0  0  0  0  0  0  0  0
  130.8430  124.5610   62.7440 C   0  0  0  0  0  0  0  0  0  0  0  0
  129.8990  124.2310   61.7540 N   0  0  0  0  0  0  0  0  0  0  0  0
  128.6010  123.8710   61.8930 C   0  0  0  0  0  0  0  0  0  0  0  0
  128.0350  123.7390   62.9800 O   0  0  0  0  0  0  0  0  0  0  0  0
  127.8790  123.6270   60.6410 C   0  0  0  0  0  0  0  0  0  0  0  0
  128.7010  122.8880   59.2670 S   0  0  0  0  0  0  0  0  0  0  0  0
  127.2490  122.9650   58.2950 C   0  0  0  0  0  0  0  0  0  0  0  0
  127.2150  122.5210   57.0390 N   0  0  0  0  0  0  0  0  0  0  0  0
  126.0280  122.6390   56.3970 C   0  0  0  0  0  0  0  0  0  0  0  0
  126.0100  122.1260   54.9690 C   0  0  0  0  0  0  0  0  0  0  0  0
  124.8850  123.1880   56.9760 C   0  0  0  0  0  0  0  0  0  0  0  0
  124.9240  123.6550   58.2950 C   0  0  0  0  0  0  0  0  0  0  0  0
  123.6510  124.2460   58.8820 C   0  0  0  0  0  0  0  0  0  0  0  0
  126.1520  123.5450   59.0000 C   0  0  0  0  0  0  0  0  0  0  0  0
  126.5380  123.9110   60.3370 C   0  0  0  0  0  0  0  0  0  0  0  0
  125.6600  124.4880   61.2200 N   0  0  0  0  0  0  0  0  0  0  0  0
  130.5140  125.0690   64.0100 C   0  0  0  0  0  0  0  0  0  0  0  0
  131.5200  125.3810   64.9200 C   0  0  0  0  0  0  0  0  0  0  0  0
  134.1281  125.1697   67.4485 H   0  0  0  0  0  0  0  0  0  0  0  0
  134.1001  126.8866   66.9212 H   0  0  0  0  0  0  0  0  0  0  0  0
  132.5846  125.9222   66.9212 H   0  0  0  0  0  0  0  0  0  0  0  0
  134.2423  124.5631   63.0318 H   0  0  0  0  0  0  0  0  0  0  0  0
  132.4492  124.0120   61.4007 H   0  0  0  0  0  0  0  0  0  0  0  0
  130.2620  124.2370   60.8110 H   0  0  0  0  0  0  0  0  0  0  0  0
  125.9714  121.0267   54.9748 H   0  0  0  0  0  0  0  0  0  0  0  0
  125.1252  122.5212   54.4485 H   0  0  0  0  0  0  0  0  0  0  0  0
  126.9204  122.4582   54.4485 H   0  0  0  0  0  0  0  0  0  0  0  0
  123.9524  123.2542   56.3964 H   0  0  0  0  0  0  0  0  0  0  0  0
  123.7071  124.2199   59.9803 H   0  0  0  0  0  0  0  0  0  0  0  0
  123.5409  125.2873   58.5451 H   0  0  0  0  0  0  0  0  0  0  0  0
  122.7845  123.6581   58.5451 H   0  0  0  0  0  0  0  0  0  0  0  0
  124.8270  124.9640   60.9090 H   0  0  0  0  0  0  0  0  0  0  0  0
  125.8210  124.4530   62.2170 H   0  0  0  0  0  0  0  0  0  0  0  0
  129.4595  125.2209   64.2837 H   0  0  0  0  0  0  0  0  0  0  0  0
  131.2567  125.7722   65.9138 H   0  0  0  0  0  0  0  0  0  0  0  0
  1  2  1  0
  2  3  1  0
  3  4  2  0
  4  5  1  0
  5  6  2  0
  6  7  1  0
  7  8  1  0
  8  9  2  0
  8 10  1  0
 10 11  1  0
 11 12  1  0
 12 13  2  0
 13 14  1  0
 14 15  1  0
 14 16  2  0
 16 17  1  0
 17 18  1  0
 17 19  2  0
 19 20  1  0
 20 21  1  0
  6 22  1  0
 22 23  2  0
 23  3  1  0
 20 10  2  0
 19 12  1  0
  1 24  1  0
  1 25  1  0
  1 26  1  0
  4 27  1  0
  5 28  1  0
  7 29  1  0
 15 30  1  0
 15 31  1  0
 15 32  1  0
 16 33  1  0
 18 34  1  0
 18 35  1  0
 18 36  1  0
 21 37  1  0
 21 38  1  0
 22 39  1  0
 23 40  1  0
M  END
>  <Binding energies>  (1) 
[-7.37]

>  <Ligand effiencies>  (1) 
[-0.2834615384615385]

>  <Interactions>  (1) 
["V-B:ASP:366:CG:8183, V-B:TYR:531:CZ:9765, V-A:ARG:545:CZ:4925, V-B:ASP:366:CB:8182, V-B:PRO:540:N:9855, V-B:LEU:363:CA:8155, V-A:ARG:545:CD:4922, V-B:PRO:540:CB:9856, V-B:TYR:539:CD2:9845, V-B:TYR:539:C:9838, V-B:MET:535:CE:9806, H-B:TYR:539:N:9841, V-B:TYR:531:CE2:9764, V-B:PRO:540:CA:9854, V-B:LEU:363:CD1:8159, V-A:ARG:545:CG:4921, V-B:TYR:539:CE2:9847, V-B:ILE:538:CB:9833, V-B:MET:535:CG:9804, V-B:ILE:538:CD1:9836, V-B:ILE:538:CG2:9834, V-B:ILE:538:CA:9831, H-B:GLU:543:OE1:9880, H-A:TYR:484:OH:4347, H-A:GLY:454:N:4049, H-B:ASP:366:OD1:8184, V-B:PRO:540:CD:9858, V-B:ILE:538:C:9829, H-A:ARG:545:NE:4923, V-B:ILE:538:CG1:9835"]

$$$$
4ad_Grossjean_2025
     RDKit          3D

 36 38  0  0  0  0  0  0  0  0999 V2000
  126.1010  122.1330   54.6710 C   0  0  0  0  0  0  0  0  0  0  0  0
  126.0090  122.5940   56.1140 C   0  0  0  0  0  0  0  0  0  0  0  0
  124.8560  123.2090   56.5980 C   0  0  0  0  0  0  0  0  0  0  0  0
  124.7940  123.6280   57.9330 C   0  0  0  0  0  0  0  0  0  0  0  0
  123.5160  124.2970   58.4150 C   0  0  0  0  0  0  0  0  0  0  0  0
  125.9330  123.4020   58.7520 C   0  0  0  0  0  0  0  0  0  0  0  0
  126.2090  123.6960   60.1330 C   0  0  0  0  0  0  0  0  0  0  0  0
  125.2880  124.3060   60.9480 N   0  0  0  0  0  0  0  0  0  0  0  0
  127.4880  123.3020   60.5560 C   0  0  0  0  0  0  0  0  0  0  0  0
  128.1000  123.4600   61.8770 C   0  0  0  0  0  0  0  0  0  0  0  0
  127.5900  122.9390   62.8710 O   0  0  0  0  0  0  0  0  0  0  0  0
  129.2400  124.1930   61.9050 N   0  0  0  0  0  0  0  0  0  0  0  0
  130.0390  124.5640   63.0040 C   0  0  0  0  0  0  0  0  0  0  0  0
  130.9310  123.5910   63.4670 C   0  0  0  0  0  0  0  0  0  0  0  0
  131.7720  123.8650   64.5420 C   0  0  0  0  0  0  0  0  0  0  0  0
  131.7280  125.1160   65.1510 C   0  0  0  0  0  0  0  0  0  0  0  0
  130.8540  126.0980   64.6910 C   0  0  0  0  0  0  0  0  0  0  0  0
  130.0110  125.8270   63.6170 C   0  0  0  0  0  0  0  0  0  0  0  0
  128.3890  122.5460   59.2410 S   0  0  0  0  0  0  0  0  0  0  0  0
  127.0510  122.7630   58.1350 C   0  0  0  0  0  0  0  0  0  0  0  0
  127.1120  122.3630   56.8640 N   0  0  0  0  0  0  0  0  0  0  0  0
  126.3162  121.0546   54.6436 H   0  0  0  0  0  0  0  0  0  0  0  0
  125.1460  122.3294   54.1617 H   0  0  0  0  0  0  0  0  0  0  0  0
  126.9075  122.6809   54.1617 H   0  0  0  0  0  0  0  0  0  0  0  0
  123.9948  123.3653   55.9318 H   0  0  0  0  0  0  0  0  0  0  0  0
  123.4991  124.3059   59.5148 H   0  0  0  0  0  0  0  0  0  0  0  0
  123.4788  125.3302   58.0394 H   0  0  0  0  0  0  0  0  0  0  0  0
  122.6458  123.7388   58.0394 H   0  0  0  0  0  0  0  0  0  0  0  0
  125.3780  124.3010   61.9530 H   0  0  0  0  0  0  0  0  0  0  0  0
  124.4870  124.7900   60.5650 H   0  0  0  0  0  0  0  0  0  0  0  0
  129.5850  124.5120   61.0120 H   0  0  0  0  0  0  0  0  0  0  0  0
  130.9681  122.6055   62.9797 H   0  0  0  0  0  0  0  0  0  0  0  0
  132.4682  123.0963   64.9086 H   0  0  0  0  0  0  0  0  0  0  0  0
  132.3895  125.3309   66.0032 H   0  0  0  0  0  0  0  0  0  0  0  0
  130.8300  127.0854   65.1753 H   0  0  0  0  0  0  0  0  0  0  0  0
  129.3230  126.6021   63.2485 H   0  0  0  0  0  0  0  0  0  0  0  0
  1  2  1  0
  2  3  2  0
  3  4  1  0
  4  5  1  0
  4  6  2  0
  6  7  1  0
  7  8  1  0
  7  9  2  0
  9 10  1  0
 10 11  2  0
 10 12  1  0
 12 13  1  0
 13 14  2  0
 14 15  1  0
 15 16  2  0
 16 17  1  0
 17 18  2  0
  9 19  1  0
 19 20  1  0
 20 21  2  0
 21  2  1  0
 20  6  1  0
 18 13  1  0
  1 22  1  0
  1 23  1  0
  1 24  1  0
  3 25  1  0
  5 26  1  0
  5 27  1  0
  5 28  1  0
  8 29  1  0
  8 30  1  0
 12 31  1  0
 14 32  1  0
 15 33  1  0
 16 34  1  0
 17 35  1  0
 18 36  1  0
M  END
>  <Binding energies>  (1) 
[-6.94]

>  <Ligand effiencies>  (1) 
[-0.2891666666666667]

>  <Interactions>  (1) 
["V-B:ASP:366:CG:8183, V-B:LEU:363:CB:8157, V-B:TYR:531:CZ:9765, V-B:ASP:366:CB:8182, V-B:PRO:540:N:9855, V-B:LEU:363:CA:8155, V-B:PRO:540:CB:9856, V-B:TYR:539:CD2:9845, V-B:TYR:539:C:9838, V-B:MET:535:CE:9806, H-B:TYR:539:N:9841, V-B:TYR:531:CE2:9764, V-B:PRO:540:CA:9854, V-B:LEU:363:CD1:8159, V-B:TYR:539:CE2:9847, V-B:ILE:538:CB:9833, V-B:MET:535:CG:9804, V-B:ILE:538:CD1:9836, V-B:ILE:538:CG2:9834, V-B:ILE:538:CA:9831, H-B:ASP:366:OD1:8184, H-B:ALA:541:N:9862, V-B:ILE:538:C:9829, V-B:ILE:538:CG1:9835, V-B:VAL:537:C:9821"]

$$$$
4ae_Grossjean_2025
     RDKit          3D

 38 40  0  0  0  0  0  0  0  0999 V2000
  121.5100  131.5170   62.4960 C   0  0  0  0  0  0  0  0  0  0  0  0
  122.8230  130.7630   62.4330 C   0  0  0  0  0  0  0  0  0  0  0  0
  123.4740  130.5270   61.2190 C   0  0  0  0  0  0  0  0  0  0  0  0
  124.6760  129.8190   61.2380 C   0  0  0  0  0  0  0  0  0  0  0  0
  125.1920  129.3670   62.4550 C   0  0  0  0  0  0  0  0  0  0  0  0
  124.4940  129.6450   63.6340 C   0  0  0  0  0  0  0  0  0  0  0  0
  125.0530  129.1480   64.8240 N   0  0  0  0  0  0  0  0  0  0  0  0
  124.8580  129.5770   66.0970 C   0  0  0  0  0  0  0  0  0  0  0  0
  124.1270  130.5210   66.3980 O   0  0  0  0  0  0  0  0  0  0  0  0
  125.5910  128.8370   67.1270 C   0  0  0  0  0  0  0  0  0  0  0  0
  124.8260  128.4680   68.6730 S   0  0  0  0  0  0  0  0  0  0  0  0
  126.2750  127.6840   69.2580 C   0  0  0  0  0  0  0  0  0  0  0  0
  126.3440  127.1490   70.4770 N   0  0  0  0  0  0  0  0  0  0  0  0
  127.5260  126.5770   70.8100 C   0  0  0  0  0  0  0  0  0  0  0  0
  127.5860  125.9800   72.2040 C   0  0  0  0  0  0  0  0  0  0  0  0
  128.6290  126.5240   69.9590 C   0  0  0  0  0  0  0  0  0  0  0  0
  128.5520  127.0860   68.6790 C   0  0  0  0  0  0  0  0  0  0  0  0
  129.7820  127.0070   67.7880 C   0  0  0  0  0  0  0  0  0  0  0  0
  127.3280  127.6980   68.2950 C   0  0  0  0  0  0  0  0  0  0  0  0
  126.9110  128.3590   67.0870 C   0  0  0  0  0  0  0  0  0  0  0  0
  127.7430  128.5030   66.0060 N   0  0  0  0  0  0  0  0  0  0  0  0
  123.3140  130.3320   63.6230 N   0  0  0  0  0  0  0  0  0  0  0  0
  121.2297  131.6780   63.5474 H   0  0  0  0  0  0  0  0  0  0  0  0
  121.6209  132.4890   61.9931 H   0  0  0  0  0  0  0  0  0  0  0  0
  120.7263  130.9313   61.9931 H   0  0  0  0  0  0  0  0  0  0  0  0
  123.0491  130.8906   60.2718 H   0  0  0  0  0  0  0  0  0  0  0  0
  125.2143  129.6178   60.3001 H   0  0  0  0  0  0  0  0  0  0  0  0
  126.1343  128.8003   62.4852 H   0  0  0  0  0  0  0  0  0  0  0  0
  125.7240  128.4050   64.6980 H   0  0  0  0  0  0  0  0  0  0  0  0
  127.5052  126.7836   72.9508 H   0  0  0  0  0  0  0  0  0  0  0  0
  126.7545  125.2720   72.3358 H   0  0  0  0  0  0  0  0  0  0  0  0
  128.5418  125.4517   72.3358 H   0  0  0  0  0  0  0  0  0  0  0  0
  129.5591  126.0410   70.2930 H   0  0  0  0  0  0  0  0  0  0  0  0
  130.6849  126.9490   68.4137 H   0  0  0  0  0  0  0  0  0  0  0  0
  129.7178  126.1111   67.1529 H   0  0  0  0  0  0  0  0  0  0  0  0
  129.8329  127.9037   67.1529 H   0  0  0  0  0  0  0  0  0  0  0  0
  128.0690  127.7090   65.4740 H   0  0  0  0  0  0  0  0  0  0  0  0
  128.0580  129.4150   65.7040 H   0  0  0  0  0  0  0  0  0  0  0  0
  1  2  1  0
  2  3  2  0
  3  4  1  0
  4  5  2  0
  5  6  1  0
  6  7  1  0
  7  8  1  0
  8  9  2  0
  8 10  1  0
 10 11  1  0
 11 12  1  0
 12 13  2  0
 13 14  1  0
 14 15  1  0
 14 16  2  0
 16 17  1  0
 17 18  1  0
 17 19  2  0
 19 20  1  0
 20 21  1  0
  6 22  2  0
 22  2  1  0
 20 10  2  0
 19 12  1  0
  1 23  1  0
  1 24  1  0
  1 25  1  0
  3 26  1  0
  4 27  1  0
  5 28  1  0
  7 29  1  0
 15 30  1  0
 15 31  1  0
 15 32  1  0
 16 33  1  0
 18 34  1  0
 18 35  1  0
 18 36  1  0
 21 37  1  0
 21 38  1  0
M  END
>  <Binding energies>  (1) 
[-7.24]

>  <Ligand effiencies>  (1) 
[-0.2896]

>  <Interactions>  (1) 
["V-B:GLU:543:CB:9877, V-A:HIS:456:CE1:4069, V-B:GLU:543:C:9873, V-B:GLY:544:C:9883, V-B:ARG:545:CA:9890, V-B:ARG:545:CD:9894, V-B:GLU:543:CD:9879, V-B:HIS:456:CE1:9040, V-B:ARG:545:CG:9893, V-B:ASP:366:CG:8183, V-B:ASP:366:CB:8182, V-B:GLY:453:C:9012, V-B:ARG:545:CZ:9897, V-B:ARG:545:CB:9892, V-B:GLY:544:CA:9885, H-B:GLU:543:OE2:9881, H-B:GLU:543:OE1:9880, H-B:TYR:484:OH:9318, V-B:GLY:453:CA:9014, H-B:GLY:454:N:9020, H-B:HIS:456:ND1:9037, V-B:ILE:369:CG1:8208, H-B:ARG:545:N:9891"]

$$$$
4af_Grossjean_2025
     RDKit          3D

 35 37  0  0  0  0  0  0  0  0999 V2000
  126.3660  122.1220   54.9270 C   0  0  0  0  0  0  0  0  0  0  0  0
  126.1860  122.5870   56.3610 C   0  0  0  0  0  0  0  0  0  0  0  0
  124.9990  123.1850   56.7770 C   0  0  0  0  0  0  0  0  0  0  0  0
  124.8560  123.6090   58.1040 C   0  0  0  0  0  0  0  0  0  0  0  0
  123.5420  124.2570   58.5100 C   0  0  0  0  0  0  0  0  0  0  0  0
  125.9520  123.4080   58.9860 C   0  0  0  0  0  0  0  0  0  0  0  0
  126.1460  123.7150   60.3780 C   0  0  0  0  0  0  0  0  0  0  0  0
  125.1750  124.3190   61.1360 N   0  0  0  0  0  0  0  0  0  0  0  0
  127.4050  123.3420   60.8740 C   0  0  0  0  0  0  0  0  0  0  0  0
  127.9450  123.5310   62.2220 C   0  0  0  0  0  0  0  0  0  0  0  0
  127.5070  122.8790   63.1700 O   0  0  0  0  0  0  0  0  0  0  0  0
  128.9440  124.4420   62.3240 N   0  0  0  0  0  0  0  0  0  0  0  0
  129.6360  124.8870   63.4660 C   0  0  0  0  0  0  0  0  0  0  0  0
  130.1620  126.1790   63.6490 C   0  0  0  0  0  0  0  0  0  0  0  0
  130.8460  126.4860   64.8260 C   0  0  0  0  0  0  0  0  0  0  0  0
  130.9920  125.4920   65.7940 C   0  0  0  0  0  0  0  0  0  0  0  0
  130.5010  124.2360   65.6390 N   0  0  0  0  0  0  0  0  0  0  0  0
  129.8390  123.9530   64.4890 C   0  0  0  0  0  0  0  0  0  0  0  0
  128.3910  122.5960   59.6150 S   0  0  0  0  0  0  0  0  0  0  0  0
  127.1120  122.7840   58.4360 C   0  0  0  0  0  0  0  0  0  0  0  0
  127.2510  122.3780   57.1730 N   0  0  0  0  0  0  0  0  0  0  0  0
  126.7631  121.0962   54.9213 H   0  0  0  0  0  0  0  0  0  0  0  0
  125.3951  122.1422   54.4104 H   0  0  0  0  0  0  0  0  0  0  0  0
  127.0702  122.7907   54.4104 H   0  0  0  0  0  0  0  0  0  0  0  0
  124.1737  123.3243   56.0632 H   0  0  0  0  0  0  0  0  0  0  0  0
  123.4735  124.2908   59.6073 H   0  0  0  0  0  0  0  0  0  0  0  0
  123.4981  125.2801   58.1082 H   0  0  0  0  0  0  0  0  0  0  0  0
  122.7036  123.6690   58.1082 H   0  0  0  0  0  0  0  0  0  0  0  0
  124.4870  124.9370   60.7290 H   0  0  0  0  0  0  0  0  0  0  0  0
  125.1130  124.1610   62.1320 H   0  0  0  0  0  0  0  0  0  0  0  0
  129.2490  124.8660   61.4600 H   0  0  0  0  0  0  0  0  0  0  0  0
  130.0347  126.9433   62.8682 H   0  0  0  0  0  0  0  0  0  0  0  0
  131.2617  127.4916   64.9873 H   0  0  0  0  0  0  0  0  0  0  0  0
  131.5281  125.7366   66.7229 H   0  0  0  0  0  0  0  0  0  0  0  0
  129.4410  122.9366   64.3533 H   0  0  0  0  0  0  0  0  0  0  0  0
  1  2  1  0
  2  3  2  0
  3  4  1  0
  4  5  1  0
  4  6  2  0
  6  7  1  0
  7  8  1  0
  7  9  2  0
  9 10  1  0
 10 11  2  0
 10 12  1  0
 12 13  1  0
 13 14  2  0
 14 15  1  0
 15 16  2  0
 16 17  1  0
 17 18  2  0
  9 19  1  0
 19 20  1  0
 20 21  2  0
 21  2  1  0
 20  6  1  0
 18 13  1  0
  1 22  1  0
  1 23  1  0
  1 24  1  0
  3 25  1  0
  5 26  1  0
  5 27  1  0
  5 28  1  0
  8 29  1  0
  8 30  1  0
 12 31  1  0
 14 32  1  0
 15 33  1  0
 16 34  1  0
 18 35  1  0
M  END
>  <Binding energies>  (1) 
[-7.28]

>  <Ligand effiencies>  (1) 
[-0.30333333333333334]

>  <Interactions>  (1) 
["V-B:GLU:543:CD:9879, V-B:ASP:366:CG:8183, V-B:LEU:363:CB:8157, V-B:TYR:531:CZ:9765, V-B:ASP:366:CB:8182, V-B:PRO:540:N:9855, V-B:LEU:363:CA:8155, V-B:PRO:540:CB:9856, V-B:TYR:539:CD2:9845, V-B:TYR:539:C:9838, V-B:MET:535:CE:9806, H-B:TYR:539:N:9841, V-B:TYR:531:CE2:9764, V-B:PRO:540:CA:9854, V-B:LEU:363:CD1:8159, V-B:TYR:539:CE2:9847, V-B:ILE:538:CB:9833, V-B:MET:535:CG:9804, V-B:ILE:538:CD1:9836, V-B:ILE:538:CG2:9834, V-B:ILE:538:CA:9831, H-A:TYR:484:OH:4347, H-B:ASP:366:OD1:8184, V-B:PRO:540:CD:9858, H-B:ALA:541:N:9862, V-B:ILE:538:C:9829, V-B:VAL:537:C:9821"]

$$$$
4ag_Grossjean_2025
     RDKit          3D

 39 41  0  0  0  0  0  0  0  0999 V2000
  122.5650  125.0770   57.5660 C   0  0  0  0  0  0  0  0  0  0  0  0
  123.9030  124.4330   57.8780 C   0  0  0  0  0  0  0  0  0  0  0  0
  124.6530  123.8180   56.8770 C   0  0  0  0  0  0  0  0  0  0  0  0
  125.8850  123.2300   57.1860 C   0  0  0  0  0  0  0  0  0  0  0  0
  126.6670  122.5720   56.0590 C   0  0  0  0  0  0  0  0  0  0  0  0
  126.3260  123.2870   58.5350 C   0  0  0  0  0  0  0  0  0  0  0  0
  127.5110  122.7990   59.1880 C   0  0  0  0  0  0  0  0  0  0  0  0
  128.4990  122.1290   58.5110 N   0  0  0  0  0  0  0  0  0  0  0  0
  127.5540  123.0680   60.5640 C   0  0  0  0  0  0  0  0  0  0  0  0
  128.6040  122.7290   61.5240 C   0  0  0  0  0  0  0  0  0  0  0  0
  128.8570  123.4600   62.4840 O   0  0  0  0  0  0  0  0  0  0  0  0
  129.2830  121.5870   61.2830 N   0  0  0  0  0  0  0  0  0  0  0  0
  130.3500  121.0430   62.1210 C   0  0  0  0  0  0  0  0  0  0  0  0
  131.0640  119.8420   61.5120 C   0  0  0  0  0  0  0  0  0  0  0  0
  130.4110  118.6080   61.4390 C   0  0  0  0  0  0  0  0  0  0  0  0
  131.0520  117.5150   60.8610 C   0  0  0  0  0  0  0  0  0  0  0  0
  132.3390  117.6620   60.3470 C   0  0  0  0  0  0  0  0  0  0  0  0
  132.9890  118.8930   60.4030 C   0  0  0  0  0  0  0  0  0  0  0  0
  132.3490  119.9860   60.9810 C   0  0  0  0  0  0  0  0  0  0  0  0
  126.1200  123.9510   61.0880 S   0  0  0  0  0  0  0  0  0  0  0  0
  125.4670  123.9460   59.4650 C   0  0  0  0  0  0  0  0  0  0  0  0
  124.2930  124.5080   59.1730 N   0  0  0  0  0  0  0  0  0  0  0  0
  122.0495  125.3251   58.5055 H   0  0  0  0  0  0  0  0  0  0  0  0
  122.7273  125.9957   56.9831 H   0  0  0  0  0  0  0  0  0  0  0  0
  121.9482  124.3771   56.9831 H   0  0  0  0  0  0  0  0  0  0  0  0
  124.2765  123.7947   55.8437 H   0  0  0  0  0  0  0  0  0  0  0  0
  127.4433  121.9188   56.4841 H   0  0  0  0  0  0  0  0  0  0  0  0
  125.9833  121.9735   55.4390 H   0  0  0  0  0  0  0  0  0  0  0  0
  127.1398  123.3480   55.4390 H   0  0  0  0  0  0  0  0  0  0  0  0
  128.7720  122.3870   57.5730 H   0  0  0  0  0  0  0  0  0  0  0  0
  128.9930  121.3540   58.9330 H   0  0  0  0  0  0  0  0  0  0  0  0
  128.9840  121.0090   60.5110 H   0  0  0  0  0  0  0  0  0  0  0  0
  131.0925  121.8359   62.2939 H   0  0  0  0  0  0  0  0  0  0  0  0
  129.8781  120.6949   63.0517 H   0  0  0  0  0  0  0  0  0  0  0  0
  129.3915  118.5004   61.8379 H   0  0  0  0  0  0  0  0  0  0  0  0
  130.5448  116.5402   60.8104 H   0  0  0  0  0  0  0  0  0  0  0  0
  132.8463  116.7981   59.8929 H   0  0  0  0  0  0  0  0  0  0  0  0
  134.0037  119.0009   59.9922 H   0  0  0  0  0  0  0  0  0  0  0  0
  132.8543  120.9623   61.0198 H   0  0  0  0  0  0  0  0  0  0  0  0
  1  2  1  0
  2  3  2  0
  3  4  1  0
  4  5  1  0
  4  6  2  0
  6  7  1  0
  7  8  1  0
  7  9  2  0
  9 10  1  0
 10 11  2  0
 10 12  1  0
 12 13  1  0
 13 14  1  0
 14 15  2  0
 15 16  1  0
 16 17  2  0
 17 18  1  0
 18 19  2  0
  9 20  1  0
 20 21  1  0
 21 22  2  0
 22  2  1  0
 21  6  1  0
 19 14  1  0
  1 23  1  0
  1 24  1  0
  1 25  1  0
  3 26  1  0
  5 27  1  0
  5 28  1  0
  5 29  1  0
  8 30  1  0
  8 31  1  0
 12 32  1  0
 13 33  1  0
 13 34  1  0
 15 35  1  0
 16 36  1  0
 17 37  1  0
 18 38  1  0
 19 39  1  0
M  END
>  <Binding energies>  (1) 
[-7.5]

>  <Ligand effiencies>  (1) 
[-0.3]

>  <Interactions>  (1) 
["V-B:ASP:366:CG:8183, V-B:LEU:363:CB:8157, V-B:TYR:531:CZ:9765, V-B:ASP:366:CB:8182, V-B:PRO:540:N:9855, V-B:LEU:363:CA:8155, V-B:PRO:540:CB:9856, V-B:TYR:539:CD2:9845, V-B:TYR:539:C:9838, V-B:MET:535:CE:9806, V-B:TYR:531:CE2:9764, V-B:PRO:540:CA:9854, V-B:LEU:363:CD1:8159, V-B:TYR:539:CE2:9847, V-A:LEU:475:CD2:4258, V-A:PRO:482:CG:4326, V-B:ALA:541:CB:9863, V-B:TYR:539:CZ:9848, V-A:SER:385:CB:3408, V-B:TYR:539:CA:9840, V-B:TYR:539:CD1:9844, V-B:TYR:539:CG:9843, V-A:HIS:383:CE1:3393, V-A:PRO:482:CB:4325, V-B:ILE:538:CA:9831, V-A:SER:385:CA:3406, H-B:TYR:539:O:9839, V-B:LEU:363:CG:8158, V-B:LEU:363:C:8153"]

$$$$
4ah_Grossjean_2025
     RDKit          3D

 51 53  0  0  0  0  0  0  0  0999 V2000
  134.2200  122.2840   62.4570 C   0  0  0  0  0  0  0  0  0  0  0  0
  134.0910  123.4770   63.2210 O   0  0  0  0  0  0  0  0  0  0  0  0
  132.8770  123.7750   63.8150 C   0  0  0  0  0  0  0  0  0  0  0  0
  131.7170  123.0000   63.6600 C   0  0  0  0  0  0  0  0  0  0  0  0
  130.5250  123.3630   64.2890 C   0  0  0  0  0  0  0  0  0  0  0  0
  129.2880  122.4830   64.1470 C   0  0  0  0  0  0  0  0  0  0  0  0
  128.6910  122.5240   62.8120 N   0  0  0  0  0  0  0  0  0  0  0  0
  127.7920  123.4360   62.3860 C   0  0  0  0  0  0  0  0  0  0  0  0
  127.3490  124.3240   63.1170 O   0  0  0  0  0  0  0  0  0  0  0  0
  127.3330  123.2870   61.0050 C   0  0  0  0  0  0  0  0  0  0  0  0
  128.3400  122.4500   59.8220 S   0  0  0  0  0  0  0  0  0  0  0  0
  127.1710  122.7440   58.5540 C   0  0  0  0  0  0  0  0  0  0  0  0
  127.3610  122.3170   57.3060 N   0  0  0  0  0  0  0  0  0  0  0  0
  126.3780  122.6090   56.4200 C   0  0  0  0  0  0  0  0  0  0  0  0
  126.6160  122.1160   55.0050 C   0  0  0  0  0  0  0  0  0  0  0  0
  125.2210  123.3100   56.7500 C   0  0  0  0  0  0  0  0  0  0  0  0
  125.0240  123.7600   58.0610 C   0  0  0  0  0  0  0  0  0  0  0  0
  123.7450  124.5220   58.3730 C   0  0  0  0  0  0  0  0  0  0  0  0
  126.0350  123.4740   59.0190 C   0  0  0  0  0  0  0  0  0  0  0  0
  126.1600  123.7820   60.4180 C   0  0  0  0  0  0  0  0  0  0  0  0
  125.2030  124.4870   61.1030 N   0  0  0  0  0  0  0  0  0  0  0  0
  130.4940  124.4950   65.1030 C   0  0  0  0  0  0  0  0  0  0  0  0
  131.6370  125.2920   65.2720 C   0  0  0  0  0  0  0  0  0  0  0  0
  131.6730  126.4350   66.0520 O   0  0  0  0  0  0  0  0  0  0  0  0
  130.4530  126.9850   66.5390 C   0  0  0  0  0  0  0  0  0  0  0  0
  132.8200  124.9250   64.6170 C   0  0  0  0  0  0  0  0  0  0  0  0
  133.9520  125.6860   64.7880 O   0  0  0  0  0  0  0  0  0  0  0  0
  134.3460  125.8400   66.1450 C   0  0  0  0  0  0  0  0  0  0  0  0
  134.3131  121.4227   63.1349 H   0  0  0  0  0  0  0  0  0  0  0  0
  133.3304  122.1568   61.8227 H   0  0  0  0  0  0  0  0  0  0  0  0
  135.1163  122.3499   61.8227 H   0  0  0  0  0  0  0  0  0  0  0  0
  131.7477  122.0953   63.0350 H   0  0  0  0  0  0  0  0  0  0  0  0
  129.5729  121.4440   64.3689 H   0  0  0  0  0  0  0  0  0  0  0  0
  128.5347  122.8690   64.8495 H   0  0  0  0  0  0  0  0  0  0  0  0
  129.0700  121.8770   62.1360 H   0  0  0  0  0  0  0  0  0  0  0  0
  127.0940  121.1258   55.0372 H   0  0  0  0  0  0  0  0  0  0  0  0
  125.6544  122.0419   54.4759 H   0  0  0  0  0  0  0  0  0  0  0  0
  127.2721  122.8228   54.4759 H   0  0  0  0  0  0  0  0  0  0  0  0
  124.4613  123.5103   55.9801 H   0  0  0  0  0  0  0  0  0  0  0  0
  123.6194  124.5968   59.4632 H   0  0  0  0  0  0  0  0  0  0  0  0
  123.8050  125.5317   57.9407 H   0  0  0  0  0  0  0  0  0  0  0  0
  122.8856  123.9885   57.9407 H   0  0  0  0  0  0  0  0  0  0  0  0
  124.3260  124.7480   60.6780 H   0  0  0  0  0  0  0  0  0  0  0  0
  125.3490  124.7750   62.0610 H   0  0  0  0  0  0  0  0  0  0  0  0
  129.5616  124.7668   65.6194 H   0  0  0  0  0  0  0  0  0  0  0  0
  130.4622  126.9809   67.6390 H   0  0  0  0  0  0  0  0  0  0  0  0
  130.3463  128.0183   66.1771 H   0  0  0  0  0  0  0  0  0  0  0  0
  129.6081  126.3807   66.1771 H   0  0  0  0  0  0  0  0  0  0  0  0
  133.5255  125.5193   66.8037 H   0  0  0  0  0  0  0  0  0  0  0  0
  135.2357  125.2234   66.3407 H   0  0  0  0  0  0  0  0  0  0  0  0
  134.5818  126.8965   66.3407 H   0  0  0  0  0  0  0  0  0  0  0  0
  1  2  1  0
  2  3  1  0
  3  4  2  0
  4  5  1  0
  5  6  1  0
  6  7  1  0
  7  8  1  0
  8  9  2  0
  8 10  1  0
 10 11  1  0
 11 12  1  0
 12 13  2  0
 13 14  1  0
 14 15  1  0
 14 16  2  0
 16 17  1  0
 17 18  1  0
 17 19  2  0
 19 20  1  0
 20 21  1  0
  5 22  2  0
 22 23  1  0
 23 24  1  0
 24 25  1  0
 23 26  2  0
 26 27  1  0
 27 28  1  0
 26  3  1  0
 20 10  2  0
 19 12  1  0
  1 29  1  0
  1 30  1  0
  1 31  1  0
  4 32  1  0
  6 33  1  0
  6 34  1  0
  7 35  1  0
 15 36  1  0
 15 37  1  0
 15 38  1  0
 16 39  1  0
 18 40  1  0
 18 41  1  0
 18 42  1  0
 21 43  1  0
 21 44  1  0
 22 45  1  0
 25 46  1  0
 25 47  1  0
 25 48  1  0
 28 49  1  0
 28 50  1  0
 28 51  1  0
M  END
>  <Binding energies>  (1) 
[-7.33]

>  <Ligand effiencies>  (1) 
[-0.2364516129032258]

>  <Interactions>  (1) 
["V-B:GLU:543:CD:9879, V-B:ASP:366:CG:8183, V-B:TYR:531:CZ:9765, V-A:ARG:545:CZ:4925, V-B:ASP:366:CB:8182, V-B:PRO:540:N:9855, V-B:LEU:363:CA:8155, V-A:ARG:545:CD:4922, V-B:PRO:540:CB:9856, V-B:TYR:539:CD2:9845, V-B:TYR:539:C:9838, V-B:MET:535:CE:9806, H-B:TYR:539:N:9841, V-B:TYR:531:CE2:9764, V-B:PRO:540:CA:9854, V-B:LEU:363:CD1:8159, V-A:ARG:545:CG:4921, V-B:TYR:539:CE2:9847, V-B:ILE:538:CB:9833, V-B:ALA:541:CB:9863, V-B:MET:535:CG:9804, V-B:ILE:538:CD1:9836, V-A:ILE:369:CD1:3238, V-B:ILE:538:CA:9831, V-A:GLU:543:CD:4907, H-B:GLU:543:OE1:9880, V-A:GLY:454:CA:4048, H-A:TYR:484:OH:4347, H-A:GLY:454:N:4049, H-B:ASP:366:OD1:8184, V-B:PRO:540:CD:9858, V-B:ILE:538:C:9829, H-A:ARG:545:NH2:4927, V-B:ALA:541:CA:9861, V-A:GLY:453:C:4041, H-A:ARG:545:NH1:4926, H-A:ARG:545:NE:4923, H-B:TYR:539:O:9839, V-A:GLY:453:CA:4043, V-B:VAL:537:C:9821"]

$$$$
4ai_Grossjean_2025
     RDKit          3D

 32 34  0  0  0  0  0  0  0  0999 V2000
  126.4340  122.1370   54.9020 C   0  0  0  0  0  0  0  0  0  0  0  0
  126.1910  122.6150   56.3220 C   0  0  0  0  0  0  0  0  0  0  0  0
  124.9960  123.2400   56.6730 C   0  0  0  0  0  0  0  0  0  0  0  0
  124.7900  123.6680   57.9890 C   0  0  0  0  0  0  0  0  0  0  0  0
  123.4690  124.3430   58.3240 C   0  0  0  0  0  0  0  0  0  0  0  0
  125.8300  123.4400   58.9310 C   0  0  0  0  0  0  0  0  0  0  0  0
  125.9520  123.7410   60.3320 C   0  0  0  0  0  0  0  0  0  0  0  0
  124.9570  124.3730   61.0340 N   0  0  0  0  0  0  0  0  0  0  0  0
  127.1660  123.3250   60.9010 C   0  0  0  0  0  0  0  0  0  0  0  0
  127.6240  123.4780   62.2840 C   0  0  0  0  0  0  0  0  0  0  0  0
  126.8760  123.2150   63.2270 O   0  0  0  0  0  0  0  0  0  0  0  0
  128.9040  123.9030   62.4280 N   0  0  0  0  0  0  0  0  0  0  0  0
  129.5920  124.1220   63.6140 C   0  0  0  0  0  0  0  0  0  0  0  0
  130.3660  125.2590   63.8480 C   0  0  0  0  0  0  0  0  0  0  0  0
  130.8730  125.0930   65.1160 C   0  0  0  0  0  0  0  0  0  0  0  0
  130.4280  123.9190   65.6210 O   0  0  0  0  0  0  0  0  0  0  0  0
  129.6160  123.3120   64.6610 N   0  0  0  0  0  0  0  0  0  0  0  0
  128.2080  122.5660   59.6950 S   0  0  0  0  0  0  0  0  0  0  0  0
  127.0050  122.7900   58.4450 C   0  0  0  0  0  0  0  0  0  0  0  0
  127.2050  122.3830   57.1910 N   0  0  0  0  0  0  0  0  0  0  0  0
  126.9324  121.1567   54.9254 H   0  0  0  0  0  0  0  0  0  0  0  0
  125.4722  122.0470   54.3758 H   0  0  0  0  0  0  0  0  0  0  0  0
  127.0735  122.8610   54.3758 H   0  0  0  0  0  0  0  0  0  0  0  0
  124.2143  123.3969   55.9151 H   0  0  0  0  0  0  0  0  0  0  0  0
  123.3539  124.4018   59.4164 H   0  0  0  0  0  0  0  0  0  0  0  0
  123.4575  125.3575   57.8990 H   0  0  0  0  0  0  0  0  0  0  0  0
  122.6401  123.7579   57.8990 H   0  0  0  0  0  0  0  0  0  0  0  0
  124.9860  124.4580   62.0400 H   0  0  0  0  0  0  0  0  0  0  0  0
  124.1560  124.7720   60.5650 H   0  0  0  0  0  0  0  0  0  0  0  0
  129.4290  124.0760   61.5840 H   0  0  0  0  0  0  0  0  0  0  0  0
  130.5344  126.1054   63.1659 H   0  0  0  0  0  0  0  0  0  0  0  0
  131.5344  125.8014   65.6363 H   0  0  0  0  0  0  0  0  0  0  0  0
  1  2  1  0
  2  3  2  0
  3  4  1  0
  4  5  1  0
  4  6  2  0
  6  7  1  0
  7  8  1  0
  7  9  2  0
  9 10  1  0
 10 11  2  0
 10 12  1  0
 12 13  1  0
 13 14  1  0
 14 15  2  0
 15 16  1  0
 16 17  1  0
  9 18  1  0
 18 19  1  0
 19 20  2  0
 20  2  1  0
 19  6  1  0
 17 13  2  0
  1 21  1  0
  1 22  1  0
  1 23  1  0
  3 24  1  0
  5 25  1  0
  5 26  1  0
  5 27  1  0
  8 28  1  0
  8 29  1  0
 12 30  1  0
 14 31  1  0
 15 32  1  0
M  END
>  <Binding energies>  (1) 
[-7.13]

>  <Ligand effiencies>  (1) 
[-0.31]

>  <Interactions>  (1) 
["V-B:GLU:543:CD:9879, V-B:ASP:366:CG:8183, V-B:LEU:363:CB:8157, V-B:TYR:531:CZ:9765, V-B:ASP:366:CB:8182, V-B:PRO:540:N:9855, V-B:LEU:363:CA:8155, V-B:PRO:540:CB:9856, V-B:TYR:539:CD2:9845, V-B:TYR:539:C:9838, V-B:MET:535:CE:9806, H-B:TYR:539:N:9841, V-B:TYR:531:CE2:9764, V-B:PRO:540:CA:9854, V-B:LEU:363:CD1:8159, V-B:TYR:539:CE2:9847, V-B:ILE:538:CB:9833, V-B:MET:535:CG:9804, V-B:ILE:538:CD1:9836, V-B:ILE:538:CG2:9834, V-B:ILE:538:CA:9831, H-A:TYR:484:OH:4347, H-B:ASP:366:OD1:8184, V-B:PRO:540:CD:9858, H-B:ALA:541:N:9862, V-B:ILE:538:C:9829, V-B:VAL:537:C:9821"]

$$$$
4aj_Grossjean_2025
     RDKit          3D

 32 34  0  0  0  0  0  0  0  0999 V2000
  126.3470  122.1290   54.6830 C   0  0  0  0  0  0  0  0  0  0  0  0
  126.1020  122.5990   56.1050 C   0  0  0  0  0  0  0  0  0  0  0  0
  124.9180  123.2440   56.4530 C   0  0  0  0  0  0  0  0  0  0  0  0
  124.7150  123.6740   57.7700 C   0  0  0  0  0  0  0  0  0  0  0  0
  123.4050  124.3740   58.1000 C   0  0  0  0  0  0  0  0  0  0  0  0
  125.7470  123.4280   58.7140 C   0  0  0  0  0  0  0  0  0  0  0  0
  125.8710  123.7270   60.1160 C   0  0  0  0  0  0  0  0  0  0  0  0
  124.8850  124.3750   60.8160 N   0  0  0  0  0  0  0  0  0  0  0  0
  127.0770  123.2930   60.6870 C   0  0  0  0  0  0  0  0  0  0  0  0
  127.5340  123.4390   62.0700 C   0  0  0  0  0  0  0  0  0  0  0  0
  127.0080  124.2600   62.8240 O   0  0  0  0  0  0  0  0  0  0  0  0
  128.5430  122.6120   62.4400 N   0  0  0  0  0  0  0  0  0  0  0  0
  129.1470  122.5400   63.6880 C   0  0  0  0  0  0  0  0  0  0  0  0
  128.5640  122.5340   64.8680 N   0  0  0  0  0  0  0  0  0  0  0  0
  129.4480  122.4510   65.8440 C   0  0  0  0  0  0  0  0  0  0  0  0
  130.7850  122.3880   65.4610 C   0  0  0  0  0  0  0  0  0  0  0  0
  130.8770  122.4410   63.7250 S   0  0  0  0  0  0  0  0  0  0  0  0
  128.1050  122.5090   59.4860 S   0  0  0  0  0  0  0  0  0  0  0  0
  126.9110  122.7560   58.2320 C   0  0  0  0  0  0  0  0  0  0  0  0
  127.1070  122.3450   56.9790 N   0  0  0  0  0  0  0  0  0  0  0  0
  126.8554  121.1537   54.7016 H   0  0  0  0  0  0  0  0  0  0  0  0
  125.3852  122.0311   54.1583 H   0  0  0  0  0  0  0  0  0  0  0  0
  126.9780  122.8615   54.1583 H   0  0  0  0  0  0  0  0  0  0  0  0
  124.1417  123.4158   55.6928 H   0  0  0  0  0  0  0  0  0  0  0  0
  123.2877  124.4367   59.1919 H   0  0  0  0  0  0  0  0  0  0  0  0
  123.4134  125.3878   57.6733 H   0  0  0  0  0  0  0  0  0  0  0  0
  122.5668  123.8036   57.6733 H   0  0  0  0  0  0  0  0  0  0  0  0
  123.9830  124.5740   60.4080 H   0  0  0  0  0  0  0  0  0  0  0  0
  125.0300  124.6780   61.7690 H   0  0  0  0  0  0  0  0  0  0  0  0
  128.8970  121.9730   61.7440 H   0  0  0  0  0  0  0  0  0  0  0  0
  129.1454  122.4326   66.9014 H   0  0  0  0  0  0  0  0  0  0  0  0
  131.6435  122.3164   66.1450 H   0  0  0  0  0  0  0  0  0  0  0  0
  1  2  1  0
  2  3  2  0
  3  4  1  0
  4  5  1  0
  4  6  2  0
  6  7  1  0
  7  8  1  0
  7  9  2  0
  9 10  1  0
 10 11  2  0
 10 12  1  0
 12 13  1  0
 13 14  2  0
 14 15  1  0
 15 16  2  0
 16 17  1  0
  9 18  1  0
 18 19  1  0
 19 20  2  0
 20  2  1  0
 19  6  1  0
 17 13  1  0
  1 21  1  0
  1 22  1  0
  1 23  1  0
  3 24  1  0
  5 25  1  0
  5 26  1  0
  5 27  1  0
  8 28  1  0
  8 29  1  0
 12 30  1  0
 15 31  1  0
 16 32  1  0
M  END
>  <Binding energies>  (1) 
[-6.75]

>  <Ligand effiencies>  (1) 
[-0.29347826086956524]

>  <Interactions>  (1) 
["V-B:GLU:543:CD:9879, V-B:ASP:366:CG:8183, V-B:LEU:363:CB:8157, V-B:TYR:531:CZ:9765, V-B:ASP:366:CB:8182, V-B:PRO:540:N:9855, V-A:TYR:484:CZ:4346, V-B:LEU:363:CA:8155, V-B:PRO:540:CB:9856, V-B:TYR:539:CD2:9845, V-B:TYR:539:C:9838, V-B:MET:535:CE:9806, H-B:TYR:539:N:9841, V-B:TYR:531:CE2:9764, V-B:PRO:540:CA:9854, V-B:LEU:363:CD1:8159, V-B:TYR:539:CE2:9847, V-A:LEU:475:CD2:4258, V-B:ILE:538:CB:9833, V-B:ALA:541:CB:9863, V-B:MET:535:CG:9804, V-B:ILE:538:CD1:9836, V-B:ILE:538:CG2:9834, V-B:ILE:538:CA:9831, V-B:GLU:543:CG:9878, V-A:TYR:484:CE2:4345, H-B:ASP:366:OD1:8184, V-B:PRO:540:CD:9858, V-B:ILE:538:C:9829, V-B:ALA:541:CA:9861, V-A:LEU:475:CG:4256, V-A:LEU:475:CD1:4257, H-B:TYR:539:O:9839, V-B:ILE:538:CG1:9835, V-B:VAL:537:C:9821"]

$$$$
4ak_Grossjean_2025
     RDKit          3D

 50 51  0  0  0  0  0  0  0  0999 V2000
  131.9570  116.8690   62.0270 C   0  0  0  0  0  0  0  0  0  0  0  0
  132.1820  117.2350   60.6750 O   0  0  0  0  0  0  0  0  0  0  0  0
  131.5880  118.4770   60.3180 C   0  0  0  0  0  0  0  0  0  0  0  0
  130.5210  118.8510   61.3550 C   0  0  0  0  0  0  0  0  0  0  0  0
  130.6280  120.2340   61.6640 O   0  0  0  0  0  0  0  0  0  0  0  0
  131.6010  120.9220   60.8890 C   0  0  0  0  0  0  0  0  0  0  0  0
  132.4950  121.7510   61.8180 C   0  0  0  0  0  0  0  0  0  0  0  0
  131.7300  122.8030   62.3900 O   0  0  0  0  0  0  0  0  0  0  0  0
  131.3470  122.5680   63.7390 C   0  0  0  0  0  0  0  0  0  0  0  0
  129.8110  122.5540   63.8370 C   0  0  0  0  0  0  0  0  0  0  0  0
  129.1400  122.6140   62.5390 N   0  0  0  0  0  0  0  0  0  0  0  0
  127.9460  123.1960   62.3040 C   0  0  0  0  0  0  0  0  0  0  0  0
  127.3040  123.7650   63.1870 O   0  0  0  0  0  0  0  0  0  0  0  0
  127.4540  123.1220   60.9290 C   0  0  0  0  0  0  0  0  0  0  0  0
  128.4070  122.3130   59.6850 S   0  0  0  0  0  0  0  0  0  0  0  0
  127.1920  122.6470   58.4720 C   0  0  0  0  0  0  0  0  0  0  0  0
  127.3370  122.2610   57.2040 N   0  0  0  0  0  0  0  0  0  0  0  0
  126.3220  122.5850   56.3640 C   0  0  0  0  0  0  0  0  0  0  0  0
  126.5050  122.1370   54.9260 C   0  0  0  0  0  0  0  0  0  0  0  0
  125.1790  123.2760   56.7600 C   0  0  0  0  0  0  0  0  0  0  0  0
  125.0300  123.6790   58.0930 C   0  0  0  0  0  0  0  0  0  0  0  0
  123.7670  124.4340   58.4760 C   0  0  0  0  0  0  0  0  0  0  0  0
  126.0740  123.3580   59.0020 C   0  0  0  0  0  0  0  0  0  0  0  0
  126.2470  123.6110   60.4070 C   0  0  0  0  0  0  0  0  0  0  0  0
  125.3070  124.2760   61.1540 N   0  0  0  0  0  0  0  0  0  0  0  0
  132.4165  117.6164   62.6905 H   0  0  0  0  0  0  0  0  0  0  0  0
  130.8749  116.8238   62.2194 H   0  0  0  0  0  0  0  0  0  0  0  0
  132.4052  115.8830   62.2194 H   0  0  0  0  0  0  0  0  0  0  0  0
  132.3615  119.2586   60.2897 H   0  0  0  0  0  0  0  0  0  0  0  0
  131.1200  118.3878   59.3265 H   0  0  0  0  0  0  0  0  0  0  0  0
  129.5217  118.6427   60.9450 H   0  0  0  0  0  0  0  0  0  0  0  0
  130.6723  118.2574   62.2686 H   0  0  0  0  0  0  0  0  0  0  0  0
  132.2163  120.1934   60.3408 H   0  0  0  0  0  0  0  0  0  0  0  0
  131.0977  121.5871   60.1718 H   0  0  0  0  0  0  0  0  0  0  0  0
  132.8907  121.1076   62.6177 H   0  0  0  0  0  0  0  0  0  0  0  0
  133.3318  122.1743   61.2431 H   0  0  0  0  0  0  0  0  0  0  0  0
  131.7451  121.5975   64.0702 H   0  0  0  0  0  0  0  0  0  0  0  0
  131.7498  123.3656   64.3805 H   0  0  0  0  0  0  0  0  0  0  0  0
  129.5036  121.6279   64.3447 H   0  0  0  0  0  0  0  0  0  0  0  0
  129.5155  123.4552   64.3943 H   0  0  0  0  0  0  0  0  0  0  0  0
  129.6190  122.1690   61.7680 H   0  0  0  0  0  0  0  0  0  0  0  0
  126.9209  121.1188   54.9093 H   0  0  0  0  0  0  0  0  0  0  0  0
  125.5319  122.1441   54.4131 H   0  0  0  0  0  0  0  0  0  0  0  0
  127.1948  122.8233   54.4131 H   0  0  0  0  0  0  0  0  0  0  0  0
  124.3931  123.5052   56.0253 H   0  0  0  0  0  0  0  0  0  0  0  0
  123.6867  124.4820   59.5720 H   0  0  0  0  0  0  0  0  0  0  0  0
  123.8111  125.4540   58.0665 H   0  0  0  0  0  0  0  0  0  0  0  0
  122.8895  123.9122   58.0665 H   0  0  0  0  0  0  0  0  0  0  0  0
  124.5010  124.7140   60.7310 H   0  0  0  0  0  0  0  0  0  0  0  0
  125.3890  124.3460   62.1580 H   0  0  0  0  0  0  0  0  0  0  0  0
  1  2  1  0
  2  3  1  0
  3  4  1  0
  4  5  1  0
  5  6  1  0
  6  7  1  0
  7  8  1  0
  8  9  1  0
  9 10  1  0
 10 11  1  0
 11 12  1  0
 12 13  2  0
 12 14  1  0
 14 15  1  0
 15 16  1  0
 16 17  2  0
 17 18  1  0
 18 19  1  0
 18 20  2  0
 20 21  1  0
 21 22  1  0
 21 23  2  0
 23 24  1  0
 24 25  1  0
 24 14  2  0
 23 16  1  0
  1 26  1  0
  1 27  1  0
  1 28  1  0
  3 29  1  0
  3 30  1  0
  4 31  1  0
  4 32  1  0
  6 33  1  0
  6 34  1  0
  7 35  1  0
  7 36  1  0
  9 37  1  0
  9 38  1  0
 10 39  1  0
 10 40  1  0
 11 41  1  0
 19 42  1  0
 19 43  1  0
 19 44  1  0
 20 45  1  0
 22 46  1  0
 22 47  1  0
 22 48  1  0
 25 49  1  0
 25 50  1  0
M  END
>  <Binding energies>  (1) 
[-5.89]

>  <Ligand effiencies>  (1) 
[-0.21035714285714285]

>  <Interactions>  (1) 
["V-B:ASP:366:CG:8183, V-B:TYR:531:CZ:9765, V-B:ASP:366:CB:8182, V-B:PRO:540:N:9855, V-B:LEU:363:CA:8155, V-B:PRO:540:CB:9856, V-B:TYR:539:CD2:9845, V-B:TYR:539:C:9838, V-B:MET:535:CE:9806, H-B:TYR:539:N:9841, V-B:TYR:531:CE2:9764, V-B:PRO:540:CA:9854, V-B:LEU:363:CD1:8159, V-B:TYR:539:CE2:9847, V-A:LEU:475:CD2:4258, V-B:ILE:538:CB:9833, V-B:ALA:541:CB:9863, V-A:SER:385:CB:3408, V-A:THR:477:CG2:4272, V-B:MET:535:CG:9804, V-B:ILE:538:CD1:9836, V-B:TYR:539:CB:9842, V-A:HIS:383:CE1:3393, V-A:PRO:482:CB:4325, V-B:ILE:538:CA:9831, H-B:GLU:543:OE1:9880, H-B:ASP:366:OD1:8184, V-B:PRO:540:CD:9858, V-B:ILE:538:C:9829, V-B:PRO:540:C:9852, H-A:HIS:383:ND1:3390, V-B:VAL:537:C:9821"]

$$$$
4al_Grossjean_2025
     RDKit          3D

 28 29  0  0  0  0  0  0  0  0999 V2000
  129.3890  124.5280   63.2440 C   0  0  0  0  0  0  0  0  0  0  0  0
  128.8940  123.6590   62.2360 O   0  0  0  0  0  0  0  0  0  0  0  0
  127.5670  123.3830   62.1430 C   0  0  0  0  0  0  0  0  0  0  0  0
  126.8210  123.2500   63.1160 O   0  0  0  0  0  0  0  0  0  0  0  0
  127.1020  123.2560   60.7450 C   0  0  0  0  0  0  0  0  0  0  0  0
  128.1350  122.4860   59.5390 S   0  0  0  0  0  0  0  0  0  0  0  0
  126.9340  122.7340   58.2920 C   0  0  0  0  0  0  0  0  0  0  0  0
  127.1300  122.3360   57.0350 N   0  0  0  0  0  0  0  0  0  0  0  0
  126.1200  122.5880   56.1650 C   0  0  0  0  0  0  0  0  0  0  0  0
  126.3650  122.1280   54.7400 C   0  0  0  0  0  0  0  0  0  0  0  0
  124.9320  123.2220   56.5210 C   0  0  0  0  0  0  0  0  0  0  0  0
  124.7280  123.6370   57.8420 C   0  0  0  0  0  0  0  0  0  0  0  0
  123.4150  124.3240   58.1820 C   0  0  0  0  0  0  0  0  0  0  0  0
  125.7650  123.3900   58.7810 C   0  0  0  0  0  0  0  0  0  0  0  0
  125.8900  123.6750   60.1840 C   0  0  0  0  0  0  0  0  0  0  0  0
  124.9040  124.3030   60.9000 N   0  0  0  0  0  0  0  0  0  0  0  0
  129.1524  124.1127   64.2347 H   0  0  0  0  0  0  0  0  0  0  0  0
  130.4794  124.6277   63.1391 H   0  0  0  0  0  0  0  0  0  0  0  0
  128.9186  125.5168   63.1391 H   0  0  0  0  0  0  0  0  0  0  0  0
  126.8821  121.1572   54.7519 H   0  0  0  0  0  0  0  0  0  0  0  0
  125.4026  122.0245   54.2175 H   0  0  0  0  0  0  0  0  0  0  0  0
  126.9880  122.8689   54.2175 H   0  0  0  0  0  0  0  0  0  0  0  0
  124.1537  123.3966   55.7635 H   0  0  0  0  0  0  0  0  0  0  0  0
  123.3038  124.3822   59.2748 H   0  0  0  0  0  0  0  0  0  0  0  0
  123.4120  125.3392   57.7586 H   0  0  0  0  0  0  0  0  0  0  0  0
  122.5792  123.7476   57.7586 H   0  0  0  0  0  0  0  0  0  0  0  0
  124.9170  124.3400   61.9090 H   0  0  0  0  0  0  0  0  0  0  0  0
  124.1250  124.7550   60.4390 H   0  0  0  0  0  0  0  0  0  0  0  0
  1  2  1  0
  2  3  1  0
  3  4  2  0
  3  5  1  0
  5  6  1  0
  6  7  1  0
  7  8  2  0
  8  9  1  0
  9 10  1  0
  9 11  2  0
 11 12  1  0
 12 13  1  0
 12 14  2  0
 14 15  1  0
 15 16  1  0
 15  5  2  0
 14  7  1  0
  1 17  1  0
  1 18  1  0
  1 19  1  0
 10 20  1  0
 10 21  1  0
 10 22  1  0
 11 23  1  0
 13 24  1  0
 13 25  1  0
 13 26  1  0
 16 27  1  0
 16 28  1  0
M  END
>  <Binding energies>  (1) 
[-5.92]

>  <Ligand effiencies>  (1) 
[-0.3288888888888889]

>  <Interactions>  (1) 
["V-B:GLU:543:CD:9879, V-B:ASP:366:CG:8183, V-B:LEU:363:CB:8157, V-B:TYR:531:CZ:9765, V-B:ASP:366:CB:8182, V-B:PRO:540:N:9855, V-B:LEU:363:CA:8155, V-B:PRO:540:CB:9856, V-B:TYR:539:CD2:9845, V-B:TYR:539:C:9838, V-B:MET:535:CE:9806, H-B:TYR:539:N:9841, V-B:TYR:531:CE2:9764, V-B:PRO:540:CA:9854, V-B:LEU:363:CD1:8159, V-B:TYR:539:CE2:9847, V-B:ILE:538:CB:9833, V-B:MET:535:CG:9804, V-B:ILE:538:CD1:9836, V-B:ILE:538:CG2:9834, V-B:ILE:538:CA:9831, H-B:ASP:366:OD1:8184, V-B:PRO:540:CD:9858, H-B:ALA:541:N:9862, V-B:ILE:538:C:9829, V-B:PRO:540:C:9852, V-B:ILE:538:CG1:9835, V-B:VAL:537:C:9821"]

$$$$
4ba_Grossjean_2025
     RDKit          3D

 44 46  0  0  0  0  0  0  0  0999 V2000
  125.6270  128.2300   68.3460 C   0  0  0  0  0  0  0  0  0  0  0  0
  124.4490  129.2190   68.4310 C   0  0  0  0  0  0  0  0  0  0  0  0
  123.8390  129.6270   67.0740 C   0  0  0  0  0  0  0  0  0  0  0  0
  122.6130  129.6600   66.9460 O   0  0  0  0  0  0  0  0  0  0  0  0
  124.7830  129.9750   65.9600 C   0  0  0  0  0  0  0  0  0  0  0  0
  124.8470  131.2960   65.5000 C   0  0  0  0  0  0  0  0  0  0  0  0
  125.7120  131.6460   64.4670 C   0  0  0  0  0  0  0  0  0  0  0  0
  126.5340  130.6850   63.8770 C   0  0  0  0  0  0  0  0  0  0  0  0
  127.3630  131.1460   62.8360 N   0  0  0  0  0  0  0  0  0  0  0  0
  128.3330  132.0940   62.8480 C   0  0  0  0  0  0  0  0  0  0  0  0
  128.6260  132.7710   63.8350 O   0  0  0  0  0  0  0  0  0  0  0  0
  129.0250  132.2960   61.5740 C   0  0  0  0  0  0  0  0  0  0  0  0
  128.1590  132.9660   60.1920 S   0  0  0  0  0  0  0  0  0  0  0  0
  129.5770  132.8280   59.1790 C   0  0  0  0  0  0  0  0  0  0  0  0
  129.5560  133.2060   57.9010 N   0  0  0  0  0  0  0  0  0  0  0  0
  130.7120  133.0510   57.2170 C   0  0  0  0  0  0  0  0  0  0  0  0
  130.6640  133.4780   55.7610 C   0  0  0  0  0  0  0  0  0  0  0  0
  131.8790  132.5370   57.7760 C   0  0  0  0  0  0  0  0  0  0  0  0
  131.9080  132.1380   59.1220 C   0  0  0  0  0  0  0  0  0  0  0  0
  133.2160  131.5810   59.6930 C   0  0  0  0  0  0  0  0  0  0  0  0
  133.7440  132.3560   60.6420 F   0  0  0  0  0  0  0  0  0  0  0  0
  133.0000  130.3810   60.2330 F   0  0  0  0  0  0  0  0  0  0  0  0
  134.1210  131.4690   58.7200 F   0  0  0  0  0  0  0  0  0  0  0  0
  130.7010  132.2830   59.8700 C   0  0  0  0  0  0  0  0  0  0  0  0
  130.3510  131.9800   61.2370 C   0  0  0  0  0  0  0  0  0  0  0  0
  131.2420  131.4320   62.1250 N   0  0  0  0  0  0  0  0  0  0  0  0
  126.4710  129.3590   64.3270 C   0  0  0  0  0  0  0  0  0  0  0  0
  125.6050  129.0100   65.3600 C   0  0  0  0  0  0  0  0  0  0  0  0
  125.9512  127.9578   69.3613 H   0  0  0  0  0  0  0  0  0  0  0  0
  125.3080  127.3251   67.8080 H   0  0  0  0  0  0  0  0  0  0  0  0
  126.4630  128.7009   67.8080 H   0  0  0  0  0  0  0  0  0  0  0  0
  123.6562  128.7538   69.0351 H   0  0  0  0  0  0  0  0  0  0  0  0
  124.8536  130.1405   68.8749 H   0  0  0  0  0  0  0  0  0  0  0  0
  124.2077  132.0644   65.9592 H   0  0  0  0  0  0  0  0  0  0  0  0
  125.7478  132.6870   64.1135 H   0  0  0  0  0  0  0  0  0  0  0  0
  127.1900  130.7050   61.9460 H   0  0  0  0  0  0  0  0  0  0  0  0
  130.5413  134.5696   55.7029 H   0  0  0  0  0  0  0  0  0  0  0  0
  131.6005  133.1872   55.2626 H   0  0  0  0  0  0  0  0  0  0  0  0
  129.8154  132.9866   55.2626 H   0  0  0  0  0  0  0  0  0  0  0  0
  132.7847  132.4428   57.1589 H   0  0  0  0  0  0  0  0  0  0  0  0
  131.5770  131.9420   62.9290 H   0  0  0  0  0  0  0  0  0  0  0  0
  131.6020  130.4960   61.9980 H   0  0  0  0  0  0  0  0  0  0  0  0
  127.1078  128.5916   63.8626 H   0  0  0  0  0  0  0  0  0  0  0  0
  125.5652  127.9675   65.7088 H   0  0  0  0  0  0  0  0  0  0  0  0
  1  2  1  0
  2  3  1  0
  3  4  2  0
  3  5  1  0
  5  6  2  0
  6  7  1  0
  7  8  2  0
  8  9  1  0
  9 10  1  0
 10 11  2  0
 10 12  1  0
 12 13  1  0
 13 14  1  0
 14 15  2  0
 15 16  1  0
 16 17  1  0
 16 18  2  0
 18 19  1  0
 19 20  1  0
 20 21  1  0
 20 22  1  0
 20 23  1  0
 19 24  2  0
 24 25  1  0
 25 26  1  0
  8 27  1  0
 27 28  2  0
 28  5  1  0
 25 12  2  0
 24 14  1  0
  1 29  1  0
  1 30  1  0
  1 31  1  0
  2 32  1  0
  2 33  1  0
  6 34  1  0
  7 35  1  0
  9 36  1  0
 17 37  1  0
 17 38  1  0
 17 39  1  0
 18 40  1  0
 26 41  1  0
 26 42  1  0
 27 43  1  0
 28 44  1  0
M  END
>  <Binding energies>  (1) 
[-7.86]

>  <Ligand effiencies>  (1) 
[-0.2535483870967742]

>  <Interactions>  (1) 
["V-B:ARG:545:CD:9894, V-B:GLU:543:CD:9879, V-B:HIS:456:CE1:9040, V-B:ARG:545:CG:9893, V-B:LEU:475:CD1:9228, V-B:ARG:545:CZ:9897, V-B:ARG:545:CB:9892, V-B:GLY:454:CA:9019, V-A:ASP:366:CG:3212, V-A:GLU:543:CD:4907, V-A:ASP:366:CB:3211, V-A:ASN:362:C:3171, V-A:LEU:363:CA:3184, V-A:LEU:363:C:3182, V-A:LEU:363:CD1:3188, V-A:PRO:540:CA:4882, V-A:TYR:539:CD1:4872, V-A:ASN:362:CB:3175, V-A:ILE:538:CG2:4862, V-A:PRO:540:N:4883, V-A:PRO:540:CB:4884, V-A:TYR:539:C:4866, V-A:ILE:538:CB:4861, V-A:ILE:538:CA:4859, V-A:LEU:363:CB:3186, H-B:GLY:454:N:9020, V-B:TYR:484:CZ:9317, H-A:GLU:543:OE2:4909, H-A:ASP:366:OD2:3214, H-B:ARG:545:NE:9895, H-B:ILE:455:N:9025"]

$$$$
4bb_Grossjean_2025
     RDKit          3D

 41 43  0  0  0  0  0  0  0  0999 V2000
  132.8490  126.2920   67.4160 C   0  0  0  0  0  0  0  0  0  0  0  0
  133.3560  125.8770   66.0340 C   0  0  0  0  0  0  0  0  0  0  0  0
  134.5740  125.8310   65.8520 O   0  0  0  0  0  0  0  0  0  0  0  0
  132.3460  125.5580   64.9730 C   0  0  0  0  0  0  0  0  0  0  0  0
  132.6140  124.5380   64.0510 C   0  0  0  0  0  0  0  0  0  0  0  0
  131.6940  124.2230   63.0560 C   0  0  0  0  0  0  0  0  0  0  0  0
  130.4850  124.9150   62.9670 C   0  0  0  0  0  0  0  0  0  0  0  0
  129.6280  124.5170   61.9210 N   0  0  0  0  0  0  0  0  0  0  0  0
  128.4810  123.7960   61.9610 C   0  0  0  0  0  0  0  0  0  0  0  0
  127.9970  123.3230   62.9890 O   0  0  0  0  0  0  0  0  0  0  0  0
  127.8390  123.5730   60.6630 C   0  0  0  0  0  0  0  0  0  0  0  0
  128.7070  122.7420   59.3750 S   0  0  0  0  0  0  0  0  0  0  0  0
  127.3570  122.9300   58.2800 C   0  0  0  0  0  0  0  0  0  0  0  0
  127.4020  122.4620   57.0340 N   0  0  0  0  0  0  0  0  0  0  0  0
  126.2970  122.6690   56.2810 C   0  0  0  0  0  0  0  0  0  0  0  0
  126.3680  122.1260   54.8660 C   0  0  0  0  0  0  0  0  0  0  0  0
  125.1590  123.3270   56.7400 C   0  0  0  0  0  0  0  0  0  0  0  0
  125.1060  123.8230   58.0520 C   0  0  0  0  0  0  0  0  0  0  0  0
  123.8330  124.5400   58.5120 C   0  0  0  0  0  0  0  0  0  0  0  0
  122.8500  124.4900   57.6100 F   0  0  0  0  0  0  0  0  0  0  0  0
  123.3770  123.9760   59.6310 F   0  0  0  0  0  0  0  0  0  0  0  0
  124.0970  125.8260   58.7430 F   0  0  0  0  0  0  0  0  0  0  0  0
  126.2560  123.6210   58.8740 C   0  0  0  0  0  0  0  0  0  0  0  0
  126.5640  123.9800   60.2350 C   0  0  0  0  0  0  0  0  0  0  0  0
  125.6820  124.6540   61.0410 N   0  0  0  0  0  0  0  0  0  0  0  0
  130.2120  125.9430   63.8820 C   0  0  0  0  0  0  0  0  0  0  0  0
  131.1350  126.2580   64.8760 C   0  0  0  0  0  0  0  0  0  0  0  0
  133.4526  125.7979   68.1916 H   0  0  0  0  0  0  0  0  0  0  0  0
  132.9338  127.3833   67.5252 H   0  0  0  0  0  0  0  0  0  0  0  0
  131.7960  125.9933   67.5252 H   0  0  0  0  0  0  0  0  0  0  0  0
  133.5605  123.9810   64.1143 H   0  0  0  0  0  0  0  0  0  0  0  0
  131.9207  123.4237   62.3350 H   0  0  0  0  0  0  0  0  0  0  0  0
  129.9390  124.8020   61.0040 H   0  0  0  0  0  0  0  0  0  0  0  0
  126.5106  121.0358   54.8984 H   0  0  0  0  0  0  0  0  0  0  0  0
  125.4319  122.3578   54.3369 H   0  0  0  0  0  0  0  0  0  0  0  0
  127.2130  122.5907   54.3369 H   0  0  0  0  0  0  0  0  0  0  0  0
  124.2963  123.4589   56.0704 H   0  0  0  0  0  0  0  0  0  0  0  0
  125.8040  124.7040   62.0430 H   0  0  0  0  0  0  0  0  0  0  0  0
  124.8740  125.1260   60.6580 H   0  0  0  0  0  0  0  0  0  0  0  0
  129.2667  126.5014   63.8140 H   0  0  0  0  0  0  0  0  0  0  0  0
  130.9120  127.0632   65.5915 H   0  0  0  0  0  0  0  0  0  0  0  0
  1  2  1  0
  2  3  2  0
  2  4  1  0
  4  5  2  0
  5  6  1  0
  6  7  2  0
  7  8  1  0
  8  9  1  0
  9 10  2  0
  9 11  1  0
 11 12  1  0
 12 13  1  0
 13 14  2  0
 14 15  1  0
 15 16  1  0
 15 17  2  0
 17 18  1  0
 18 19  1  0
 19 20  1  0
 19 21  1  0
 19 22  1  0
 18 23  2  0
 23 24  1  0
 24 25  1  0
  7 26  1  0
 26 27  2  0
 27  4  1  0
 24 11  2  0
 23 13  1  0
  1 28  1  0
  1 29  1  0
  1 30  1  0
  5 31  1  0
  6 32  1  0
  8 33  1  0
 16 34  1  0
 16 35  1  0
 16 36  1  0
 17 37  1  0
 25 38  1  0
 25 39  1  0
 26 40  1  0
 27 41  1  0
M  END
>  <Binding energies>  (1) 
[-7.72]

>  <Ligand effiencies>  (1) 
[-0.2573333333333333]

>  <Interactions>  (1) 
["V-A:HIS:456:CE1:4069, V-B:ASP:366:CG:8183, V-B:LEU:363:CB:8157, V-B:TYR:531:CZ:9765, V-A:ARG:545:CZ:4925, V-B:ASP:366:CB:8182, V-B:PRO:540:N:9855, V-A:TYR:484:CZ:4346, V-B:LEU:363:CA:8155, V-A:ARG:545:CD:4922, V-B:PRO:540:CB:9856, V-B:TYR:539:CD2:9845, V-B:TYR:539:C:9838, V-B:MET:535:CE:9806, H-B:TYR:539:N:9841, V-B:TYR:531:CE2:9764, V-B:PRO:540:CA:9854, V-B:LEU:363:CD1:8159, V-A:ARG:545:CG:4921, V-B:TYR:539:CE2:9847, V-B:ILE:538:CB:9833, V-B:MET:535:CG:9804, V-B:ILE:538:CD1:9836, V-B:ILE:538:CG2:9834, V-B:ILE:538:CA:9831, H-B:GLU:543:OE1:9880, H-A:TYR:484:OH:4347, H-A:GLY:454:N:4049, H-B:ASP:366:OD1:8184, H-B:ALA:541:N:9862, V-B:ILE:538:C:9829, H-A:ARG:545:NH1:4926, H-A:ARG:545:NE:4923, V-B:VAL:537:C:9821, V-B:ASN:362:C:8142, V-B:LEU:363:CG:8158, V-B:LEU:363:C:8153"]

$$$$
4bc_Grossjean_2025
     RDKit          3D

 40 42  0  0  0  0  0  0  0  0999 V2000
  123.5940  129.6170   67.3420 C   0  0  0  0  0  0  0  0  0  0  0  0
  123.4190  129.6060   65.9300 O   0  0  0  0  0  0  0  0  0  0  0  0
  124.4710  129.9800   65.1170 C   0  0  0  0  0  0  0  0  0  0  0  0
  124.1420  130.4260   63.8370 C   0  0  0  0  0  0  0  0  0  0  0  0
  125.1360  130.8240   62.9470 C   0  0  0  0  0  0  0  0  0  0  0  0
  126.4780  130.7890   63.3300 C   0  0  0  0  0  0  0  0  0  0  0  0
  127.4120  131.1950   62.3600 N   0  0  0  0  0  0  0  0  0  0  0  0
  128.2370  132.2710   62.3610 C   0  0  0  0  0  0  0  0  0  0  0  0
  128.2610  133.1170   63.2560 O   0  0  0  0  0  0  0  0  0  0  0  0
  129.1250  132.3840   61.2000 C   0  0  0  0  0  0  0  0  0  0  0  0
  128.5360  133.0940   59.6990 S   0  0  0  0  0  0  0  0  0  0  0  0
  130.0850  132.8560   58.9250 C   0  0  0  0  0  0  0  0  0  0  0  0
  130.2960  133.2260   57.6620 N   0  0  0  0  0  0  0  0  0  0  0  0
  131.5340  132.9890   57.1720 C   0  0  0  0  0  0  0  0  0  0  0  0
  131.7550  133.4220   55.7350 C   0  0  0  0  0  0  0  0  0  0  0  0
  132.5580  132.3950   57.9080 C   0  0  0  0  0  0  0  0  0  0  0  0
  132.3410  132.0030   59.2380 C   0  0  0  0  0  0  0  0  0  0  0  0
  133.4980  131.3510   60.0060 C   0  0  0  0  0  0  0  0  0  0  0  0
  133.0980  130.3670   60.8130 F   0  0  0  0  0  0  0  0  0  0  0  0
  134.3730  130.8330   59.1450 F   0  0  0  0  0  0  0  0  0  0  0  0
  134.1090  132.2640   60.7610 F   0  0  0  0  0  0  0  0  0  0  0  0
  131.0460  132.2410   59.7860 C   0  0  0  0  0  0  0  0  0  0  0  0
  130.4660  131.9860   61.0830 C   0  0  0  0  0  0  0  0  0  0  0  0
  131.1700  131.4050   62.1060 N   0  0  0  0  0  0  0  0  0  0  0  0
  126.8180  130.3290   64.6120 C   0  0  0  0  0  0  0  0  0  0  0  0
  125.8220  129.9320   65.4980 C   0  0  0  0  0  0  0  0  0  0  0  0
  122.6119  129.5553   67.8337 H   0  0  0  0  0  0  0  0  0  0  0  0
  124.2090  128.7557   67.6420 H   0  0  0  0  0  0  0  0  0  0  0  0
  124.0963  130.5485   67.6420 H   0  0  0  0  0  0  0  0  0  0  0  0
  123.0870  130.4636   63.5277 H   0  0  0  0  0  0  0  0  0  0  0  0
  124.8629  131.1673   61.9383 H   0  0  0  0  0  0  0  0  0  0  0  0
  127.4400  130.6110   61.5370 H   0  0  0  0  0  0  0  0  0  0  0  0
  132.2550  134.4017   55.7200 H   0  0  0  0  0  0  0  0  0  0  0  0
  132.3851  132.6809   55.2215 H   0  0  0  0  0  0  0  0  0  0  0  0
  130.7851  133.4975   55.2215 H   0  0  0  0  0  0  0  0  0  0  0  0
  133.5419  132.2326   57.4437 H   0  0  0  0  0  0  0  0  0  0  0  0
  131.5530  130.4730   62.0320 H   0  0  0  0  0  0  0  0  0  0  0  0
  131.3330  131.8950   62.9750 H   0  0  0  0  0  0  0  0  0  0  0  0
  127.8740  130.2824   64.9164 H   0  0  0  0  0  0  0  0  0  0  0  0
  126.0941  129.5782   66.5034 H   0  0  0  0  0  0  0  0  0  0  0  0
  1  2  1  0
  2  3  1  0
  3  4  2  0
  4  5  1  0
  5  6  2  0
  6  7  1  0
  7  8  1  0
  8  9  2  0
  8 10  1  0
 10 11  1  0
 11 12  1  0
 12 13  2  0
 13 14  1  0
 14 15  1  0
 14 16  2  0
 16 17  1  0
 17 18  1  0
 18 19  1  0
 18 20  1  0
 18 21  1  0
 17 22  2  0
 22 23  1  0
 23 24  1  0
  6 25  1  0
 25 26  2  0
 26  3  1  0
 23 10  2  0
 22 12  1  0
  1 27  1  0
  1 28  1  0
  1 29  1  0
  4 30  1  0
  5 31  1  0
  7 32  1  0
 15 33  1  0
 15 34  1  0
 15 35  1  0
 16 36  1  0
 24 37  1  0
 24 38  1  0
 25 39  1  0
 26 40  1  0
M  END
>  <Binding energies>  (1) 
[-6.81]

>  <Ligand effiencies>  (1) 
[-0.23482758620689653]

>  <Interactions>  (1) 
["V-B:ARG:545:CD:9894, V-B:ARG:545:CG:9893, V-B:ARG:545:CZ:9897, V-B:GLY:454:CA:9019, V-A:ASP:366:CG:3212, V-A:GLU:543:CD:4907, V-A:ASP:366:CB:3211, V-A:ASN:362:C:3171, V-A:TYR:531:CE2:4792, V-A:LEU:363:CA:3184, V-A:ASN:362:CA:3173, V-A:LEU:363:C:3182, V-A:LEU:363:CD1:3188, V-A:PRO:540:CA:4882, V-A:TYR:539:CD1:4872, V-A:ASN:362:CB:3175, V-A:ILE:538:CG2:4862, V-A:PRO:540:N:4883, V-A:PRO:540:CB:4884, V-A:TYR:539:C:4866, V-A:TYR:539:CE1:4874, V-A:ILE:538:CB:4861, V-A:ILE:538:CA:4859, V-A:LEU:363:CB:3186, H-B:GLY:454:N:9020, H-A:GLU:543:OE2:4909, H-A:ASP:366:OD2:3214, H-B:ARG:545:NE:9895"]

$$$$
4bd_Grossjean_2025
     RDKit          3D

 36 38  0  0  0  0  0  0  0  0999 V2000
  128.4860  117.1540   76.7800 C   0  0  0  0  0  0  0  0  0  0  0  0
  128.5790  118.4860   76.0580 C   0  0  0  0  0  0  0  0  0  0  0  0
  127.8720  118.7160   74.8810 C   0  0  0  0  0  0  0  0  0  0  0  0
  127.9690  119.9520   74.2230 C   0  0  0  0  0  0  0  0  0  0  0  0
  127.1750  120.1570   72.9280 C   0  0  0  0  0  0  0  0  0  0  0  0
  126.1660  121.0200   73.0660 F   0  0  0  0  0  0  0  0  0  0  0  0
  127.9780  120.6310   71.9760 F   0  0  0  0  0  0  0  0  0  0  0  0
  126.6550  118.9970   72.5290 F   0  0  0  0  0  0  0  0  0  0  0  0
  128.8120  120.9400   74.8120 C   0  0  0  0  0  0  0  0  0  0  0  0
  129.1530  122.2910   74.4360 C   0  0  0  0  0  0  0  0  0  0  0  0
  128.6450  122.8970   73.3160 N   0  0  0  0  0  0  0  0  0  0  0  0
  130.0480  122.9230   75.3150 C   0  0  0  0  0  0  0  0  0  0  0  0
  130.6120  124.2740   75.2290 C   0  0  0  0  0  0  0  0  0  0  0  0
  129.9000  125.2340   74.9310 O   0  0  0  0  0  0  0  0  0  0  0  0
  131.9360  124.3700   75.5080 N   0  0  0  0  0  0  0  0  0  0  0  0
  132.7780  125.4970   75.4760 C   0  0  0  0  0  0  0  0  0  0  0  0
  134.0580  125.3200   76.0070 C   0  0  0  0  0  0  0  0  0  0  0  0
  134.9690  126.3730   76.0120 C   0  0  0  0  0  0  0  0  0  0  0  0
  134.6030  127.6040   75.4760 C   0  0  0  0  0  0  0  0  0  0  0  0
  133.3340  127.7900   74.9300 C   0  0  0  0  0  0  0  0  0  0  0  0
  132.4210  126.7390   74.9250 C   0  0  0  0  0  0  0  0  0  0  0  0
  130.4920  121.8590   76.6470 S   0  0  0  0  0  0  0  0  0  0  0  0
  129.4830  120.5770   76.0200 C   0  0  0  0  0  0  0  0  0  0  0  0
  129.3860  119.4020   76.6410 N   0  0  0  0  0  0  0  0  0  0  0  0
  128.4979  117.3243   77.8667 H   0  0  0  0  0  0  0  0  0  0  0  0
  127.5504  116.6488   76.4983 H   0  0  0  0  0  0  0  0  0  0  0  0
  129.3423  116.5236   76.4983 H   0  0  0  0  0  0  0  0  0  0  0  0
  127.2330  117.9237   74.4639 H   0  0  0  0  0  0  0  0  0  0  0  0
  129.0030  122.7010   72.3920 H   0  0  0  0  0  0  0  0  0  0  0  0
  127.8840  123.5600   73.3760 H   0  0  0  0  0  0  0  0  0  0  0  0
  132.3920  123.5170   75.8000 H   0  0  0  0  0  0  0  0  0  0  0  0
  134.3476  124.3439   76.4232 H   0  0  0  0  0  0  0  0  0  0  0  0
  135.9735  126.2325   76.4377 H   0  0  0  0  0  0  0  0  0  0  0  0
  135.3211  128.4372   75.4832 H   0  0  0  0  0  0  0  0  0  0  0  0
  133.0546  128.7650   74.5041 H   0  0  0  0  0  0  0  0  0  0  0  0
  131.4207  126.8810   74.4899 H   0  0  0  0  0  0  0  0  0  0  0  0
  1  2  1  0
  2  3  2  0
  3  4  1  0
  4  5  1  0
  5  6  1  0
  5  7  1  0
  5  8  1  0
  4  9  2  0
  9 10  1  0
 10 11  1  0
 10 12  2  0
 12 13  1  0
 13 14  2  0
 13 15  1  0
 15 16  1  0
 16 17  2  0
 17 18  1  0
 18 19  2  0
 19 20  1  0
 20 21  2  0
 12 22  1  0
 22 23  1  0
 23 24  2  0
 24  2  1  0
 23  9  1  0
 21 16  1  0
  1 25  1  0
  1 26  1  0
  1 27  1  0
  3 28  1  0
 11 29  1  0
 11 30  1  0
 15 31  1  0
 17 32  1  0
 18 33  1  0
 19 34  1  0
 20 35  1  0
 21 36  1  0
M  END
>  <Binding energies>  (1) 
[-6.58]

>  <Ligand effiencies>  (1) 
[-0.2437037037037037]

>  <Interactions>  (1) 
["V-B:GLU:543:C:9873, V-A:HIS:456:C:4060, V-A:HIS:456:CB:4064, V-A:VAL:457:C:4072, V-A:HIS:456:CG:4065, V-B:GLY:544:CA:9885, V-B:GLU:543:CA:9875, H-B:LYS:547:NZ:9922, H-A:ASP:473:OD2:4241, V-A:VAL:458:CG2:4086, V-A:TYR:484:CG:4341, V-A:TYR:484:CD2:4343, V-A:TYR:484:CB:4340, V-A:ASP:473:CG:4239, V-A:VAL:457:CA:4074, H-B:GLU:543:O:9874, V-A:TYR:484:CA:4338"]

$$$$
4be_Grossjean_2025
     RDKit          3D

 38 40  0  0  0  0  0  0  0  0999 V2000
  121.8250  131.5040   62.4790 C   0  0  0  0  0  0  0  0  0  0  0  0
  123.0960  130.6770   62.4330 C   0  0  0  0  0  0  0  0  0  0  0  0
  123.7360  130.3880   61.2250 C   0  0  0  0  0  0  0  0  0  0  0  0
  124.9000  129.6190   61.2590 C   0  0  0  0  0  0  0  0  0  0  0  0
  125.3900  129.1630   62.4840 C   0  0  0  0  0  0  0  0  0  0  0  0
  124.7030  129.4950   63.6580 C   0  0  0  0  0  0  0  0  0  0  0  0
  125.2450  129.0000   64.8570 N   0  0  0  0  0  0  0  0  0  0  0  0
  124.9930  129.3910   66.1310 C   0  0  0  0  0  0  0  0  0  0  0  0
  124.2000  130.2870   66.4300 O   0  0  0  0  0  0  0  0  0  0  0  0
  125.7520  128.6860   67.1680 C   0  0  0  0  0  0  0  0  0  0  0  0
  124.9870  128.2790   68.7030 S   0  0  0  0  0  0  0  0  0  0  0  0
  126.4650  127.5620   69.3010 C   0  0  0  0  0  0  0  0  0  0  0  0
  126.5320  127.0230   70.5170 N   0  0  0  0  0  0  0  0  0  0  0  0
  127.7290  126.4970   70.8680 C   0  0  0  0  0  0  0  0  0  0  0  0
  127.7870  125.8910   72.2580 C   0  0  0  0  0  0  0  0  0  0  0  0
  128.8470  126.4960   70.0380 C   0  0  0  0  0  0  0  0  0  0  0  0
  128.7810  127.0610   68.7550 C   0  0  0  0  0  0  0  0  0  0  0  0
  130.0360  127.0330   67.8760 C   0  0  0  0  0  0  0  0  0  0  0  0
  129.7600  127.0520   66.5700 F   0  0  0  0  0  0  0  0  0  0  0  0
  130.7940  128.0970   68.1380 F   0  0  0  0  0  0  0  0  0  0  0  0
  130.7350  125.9240   68.1210 F   0  0  0  0  0  0  0  0  0  0  0  0
  127.5350  127.6290   68.3550 C   0  0  0  0  0  0  0  0  0  0  0  0
  127.0980  128.2870   67.1490 C   0  0  0  0  0  0  0  0  0  0  0  0
  127.9270  128.4970   66.0770 N   0  0  0  0  0  0  0  0  0  0  0  0
  123.5610  130.2420   63.6320 N   0  0  0  0  0  0  0  0  0  0  0  0
  121.5442  131.6867   63.5267 H   0  0  0  0  0  0  0  0  0  0  0  0
  121.9945  132.4653   61.9718 H   0  0  0  0  0  0  0  0  0  0  0  0
  121.0148  130.9596   61.9718 H   0  0  0  0  0  0  0  0  0  0  0  0
  123.3323  130.7575   60.2708 H   0  0  0  0  0  0  0  0  0  0  0  0
  125.4283  129.3736   60.3259 H   0  0  0  0  0  0  0  0  0  0  0  0
  126.3032  128.5513   62.5264 H   0  0  0  0  0  0  0  0  0  0  0  0
  125.9450  128.2820   64.7380 H   0  0  0  0  0  0  0  0  0  0  0  0
  127.7105  126.6902   73.0099 H   0  0  0  0  0  0  0  0  0  0  0  0
  126.9522  125.1862   72.3858 H   0  0  0  0  0  0  0  0  0  0  0  0
  128.7403  125.3573   72.3858 H   0  0  0  0  0  0  0  0  0  0  0  0
  129.7884  126.0493   70.3903 H   0  0  0  0  0  0  0  0  0  0  0  0
  128.2670  129.4160   65.8350 H   0  0  0  0  0  0  0  0  0  0  0  0
  128.2230  127.7330   65.4850 H   0  0  0  0  0  0  0  0  0  0  0  0
  1  2  1  0
  2  3  2  0
  3  4  1  0
  4  5  2  0
  5  6  1  0
  6  7  1  0
  7  8  1  0
  8  9  2  0
  8 10  1  0
 10 11  1  0
 11 12  1  0
 12 13  2  0
 13 14  1  0
 14 15  1  0
 14 16  2  0
 16 17  1  0
 17 18  1  0
 18 19  1  0
 18 20  1  0
 18 21  1  0
 17 22  2  0
 22 23  1  0
 23 24  1  0
  6 25  2  0
 25  2  1  0
 23 10  2  0
 22 12  1  0
  1 26  1  0
  1 27  1  0
  1 28  1  0
  3 29  1  0
  4 30  1  0
  5 31  1  0
  7 32  1  0
 15 33  1  0
 15 34  1  0
 15 35  1  0
 16 36  1  0
 24 37  1  0
 24 38  1  0
M  END
>  <Binding energies>  (1) 
[-6.8]

>  <Ligand effiencies>  (1) 
[-0.24285714285714285]

>  <Interactions>  (1) 
["V-B:GLU:543:CB:9877, V-A:HIS:456:CE1:4069, V-B:GLU:543:C:9873, V-B:GLY:544:C:9883, V-A:HIS:456:CD2:4067, V-B:ARG:545:CA:9890, V-B:ARG:545:CD:9894, V-B:GLU:543:CD:9879, V-B:HIS:456:CE1:9040, V-B:ARG:545:CG:9893, V-B:ASP:366:CG:8183, V-B:ASP:366:CB:8182, V-A:TYR:484:CZ:4346, V-B:GLY:453:C:9012, V-B:ARG:545:CZ:9897, V-B:ARG:545:CB:9892, V-B:GLY:544:CA:9885, H-B:GLU:543:OE2:9881, V-A:GLU:543:CD:4907, V-A:GLU:543:CG:4906, H-B:GLU:543:OE1:9880, V-A:GLU:543:CB:4905, H-B:TYR:484:OH:9318, V-A:TYR:484:CE2:4345, V-B:GLY:453:CA:9014, H-B:GLY:454:N:9020, H-B:HIS:456:ND1:9037, V-B:ILE:369:CG1:8208, H-B:ARG:545:N:9891"]

$$$$
4bf_Grossjean_2025
     RDKit          3D

 35 37  0  0  0  0  0  0  0  0999 V2000
  126.5000  122.1160   54.9000 C   0  0  0  0  0  0  0  0  0  0  0  0
  126.3120  122.6440   56.3120 C   0  0  0  0  0  0  0  0  0  0  0  0
  125.1790  123.3730   56.6600 C   0  0  0  0  0  0  0  0  0  0  0  0
  125.0200  123.8580   57.9670 C   0  0  0  0  0  0  0  0  0  0  0  0
  123.7570  124.6590   58.3030 C   0  0  0  0  0  0  0  0  0  0  0  0
  122.9160  124.7640   57.2720 F   0  0  0  0  0  0  0  0  0  0  0  0
  123.0970  124.0650   59.2980 F   0  0  0  0  0  0  0  0  0  0  0  0
  124.0920  125.8960   58.6720 F   0  0  0  0  0  0  0  0  0  0  0  0
  126.0600  123.5700   58.9010 C   0  0  0  0  0  0  0  0  0  0  0  0
  126.2450  123.8940   60.2940 C   0  0  0  0  0  0  0  0  0  0  0  0
  125.3260  124.6150   61.0140 N   0  0  0  0  0  0  0  0  0  0  0  0
  127.4410  123.4040   60.8440 C   0  0  0  0  0  0  0  0  0  0  0  0
  127.9570  123.5730   62.2060 C   0  0  0  0  0  0  0  0  0  0  0  0
  127.5060  122.9030   63.1350 O   0  0  0  0  0  0  0  0  0  0  0  0
  128.9490  124.4880   62.3410 N   0  0  0  0  0  0  0  0  0  0  0  0
  129.6180  124.9190   63.5020 C   0  0  0  0  0  0  0  0  0  0  0  0
  130.1020  126.2190   63.7290 C   0  0  0  0  0  0  0  0  0  0  0  0
  130.7640  126.5120   64.9230 C   0  0  0  0  0  0  0  0  0  0  0  0
  130.9320  125.4930   65.8610 C   0  0  0  0  0  0  0  0  0  0  0  0
  130.4820  124.2290   65.6630 N   0  0  0  0  0  0  0  0  0  0  0  0
  129.8400  123.9600   64.4980 C   0  0  0  0  0  0  0  0  0  0  0  0
  128.3810  122.5250   59.6410 S   0  0  0  0  0  0  0  0  0  0  0  0
  127.1690  122.8120   58.4150 C   0  0  0  0  0  0  0  0  0  0  0  0
  127.3150  122.3530   57.1730 N   0  0  0  0  0  0  0  0  0  0  0  0
  126.8687  121.0805   54.9418 H   0  0  0  0  0  0  0  0  0  0  0  0
  125.5376  122.1413   54.3679 H   0  0  0  0  0  0  0  0  0  0  0  0
  127.2298  122.7439   54.3679 H   0  0  0  0  0  0  0  0  0  0  0  0
  124.4031  123.5703   55.9057 H   0  0  0  0  0  0  0  0  0  0  0  0
  124.5730  125.1180   60.5670 H   0  0  0  0  0  0  0  0  0  0  0  0
  125.3720  124.6660   62.0220 H   0  0  0  0  0  0  0  0  0  0  0  0
  129.2690  124.9260   61.4900 H   0  0  0  0  0  0  0  0  0  0  0  0
  129.9599  127.0019   62.9695 H   0  0  0  0  0  0  0  0  0  0  0  0
  131.1450  127.5249   65.1199 H   0  0  0  0  0  0  0  0  0  0  0  0
  131.4521  125.7249   66.8021 H   0  0  0  0  0  0  0  0  0  0  0  0
  129.4754  122.9363   64.3274 H   0  0  0  0  0  0  0  0  0  0  0  0
  1  2  1  0
  2  3  2  0
  3  4  1  0
  4  5  1  0
  5  6  1  0
  5  7  1  0
  5  8  1  0
  4  9  2  0
  9 10  1  0
 10 11  1  0
 10 12  2  0
 12 13  1  0
 13 14  2  0
 13 15  1  0
 15 16  1  0
 16 17  2  0
 17 18  1  0
 18 19  2  0
 19 20  1  0
 20 21  2  0
 12 22  1  0
 22 23  1  0
 23 24  2  0
 24  2  1  0
 23  9  1  0
 21 16  1  0
  1 25  1  0
  1 26  1  0
  1 27  1  0
  3 28  1  0
 11 29  1  0
 11 30  1  0
 15 31  1  0
 17 32  1  0
 18 33  1  0
 19 34  1  0
 21 35  1  0
M  END
>  <Binding energies>  (1) 
[-6.78]

>  <Ligand effiencies>  (1) 
[-0.2511111111111111]

>  <Interactions>  (1) 
["V-B:GLU:543:CD:9879, V-B:ASP:366:CG:8183, V-B:LEU:363:CB:8157, V-B:TYR:531:CZ:9765, V-B:ASP:366:CB:8182, V-B:PRO:540:N:9855, V-B:LEU:363:CA:8155, V-B:PRO:540:CB:9856, V-B:TYR:539:CD2:9845, V-B:TYR:539:C:9838, V-B:MET:535:CE:9806, H-B:TYR:539:N:9841, V-B:TYR:531:CE2:9764, V-B:PRO:540:CA:9854, V-B:LEU:363:CD1:8159, V-B:TYR:539:CE2:9847, V-B:ILE:538:CB:9833, V-B:MET:535:CG:9804, V-B:ILE:538:CD1:9836, V-B:ILE:538:CG2:9834, V-B:ILE:538:CA:9831, V-A:GLU:543:CD:4907, H-B:GLU:543:OE1:9880, H-A:TYR:484:OH:4347, H-B:ASP:366:OD1:8184, H-B:ALA:541:N:9862, V-B:ILE:538:C:9829, V-B:VAL:537:C:9821, V-B:ASN:362:C:8142, V-B:LEU:363:CG:8158, V-B:TYR:531:CD2:9762"]

$$$$
4bg_Grossjean_2025
     RDKit          3D

 39 41  0  0  0  0  0  0  0  0999 V2000
  126.7020  122.1070   54.9080 C   0  0  0  0  0  0  0  0  0  0  0  0
  126.4490  122.5830   56.3280 C   0  0  0  0  0  0  0  0  0  0  0  0
  125.3200  123.3350   56.6420 C   0  0  0  0  0  0  0  0  0  0  0  0
  125.1010  123.7730   57.9580 C   0  0  0  0  0  0  0  0  0  0  0  0
  123.8450  124.5980   58.2560 C   0  0  0  0  0  0  0  0  0  0  0  0
  123.0330  124.7100   57.2020 F   0  0  0  0  0  0  0  0  0  0  0  0
  123.1490  124.0210   59.2360 F   0  0  0  0  0  0  0  0  0  0  0  0
  124.1910  125.8300   58.6270 F   0  0  0  0  0  0  0  0  0  0  0  0
  126.0760  123.4120   58.9350 C   0  0  0  0  0  0  0  0  0  0  0  0
  126.1930  123.6770   60.3480 C   0  0  0  0  0  0  0  0  0  0  0  0
  125.2720  124.4190   61.0440 N   0  0  0  0  0  0  0  0  0  0  0  0
  127.3260  123.1030   60.9460 C   0  0  0  0  0  0  0  0  0  0  0  0
  127.7680  123.1940   62.3370 C   0  0  0  0  0  0  0  0  0  0  0  0
  126.9630  123.3190   63.2610 O   0  0  0  0  0  0  0  0  0  0  0  0
  129.0980  123.0930   62.5410 N   0  0  0  0  0  0  0  0  0  0  0  0
  129.7660  123.1710   63.8400 C   0  0  0  0  0  0  0  0  0  0  0  0
  131.1310  123.8440   63.7850 C   0  0  0  0  0  0  0  0  0  0  0  0
  132.0960  123.4000   62.8760 C   0  0  0  0  0  0  0  0  0  0  0  0
  133.3290  124.0420   62.8010 C   0  0  0  0  0  0  0  0  0  0  0  0
  133.5890  125.1350   63.6240 C   0  0  0  0  0  0  0  0  0  0  0  0
  132.6270  125.5940   64.5200 C   0  0  0  0  0  0  0  0  0  0  0  0
  131.3930  124.9520   64.5960 C   0  0  0  0  0  0  0  0  0  0  0  0
  128.3080  122.2420   59.7630 S   0  0  0  0  0  0  0  0  0  0  0  0
  127.1840  122.6320   58.4830 C   0  0  0  0  0  0  0  0  0  0  0  0
  127.3880  122.2210   57.2310 N   0  0  0  0  0  0  0  0  0  0  0  0
  127.2181  121.1359   54.9333 H   0  0  0  0  0  0  0  0  0  0  0  0
  125.7425  121.9986   54.3812 H   0  0  0  0  0  0  0  0  0  0  0  0
  127.3286  122.8417   54.3812 H   0  0  0  0  0  0  0  0  0  0  0  0
  124.5951  123.5876   55.8542 H   0  0  0  0  0  0  0  0  0  0  0  0
  124.5390  124.9330   60.5790 H   0  0  0  0  0  0  0  0  0  0  0  0
  125.3040  124.4840   62.0530 H   0  0  0  0  0  0  0  0  0  0  0  0
  129.7040  123.0730   61.7330 H   0  0  0  0  0  0  0  0  0  0  0  0
  129.1243  123.7420   64.5271 H   0  0  0  0  0  0  0  0  0  0  0  0
  129.9295  122.1380   64.1808 H   0  0  0  0  0  0  0  0  0  0  0  0
  131.8810  122.5435   62.2201 H   0  0  0  0  0  0  0  0  0  0  0  0
  134.0944  123.6876   62.0949 H   0  0  0  0  0  0  0  0  0  0  0  0
  134.5641  125.6408   63.5656 H   0  0  0  0  0  0  0  0  0  0  0  0
  132.8404  126.4594   65.1647 H   0  0  0  0  0  0  0  0  0  0  0  0
  130.6251  125.3168   65.2940 H   0  0  0  0  0  0  0  0  0  0  0  0
  1  2  1  0
  2  3  2  0
  3  4  1  0
  4  5  1  0
  5  6  1  0
  5  7  1  0
  5  8  1  0
  4  9  2  0
  9 10  1  0
 10 11  1  0
 10 12  2  0
 12 13  1  0
 13 14  2  0
 13 15  1  0
 15 16  1  0
 16 17  1  0
 17 18  2  0
 18 19  1  0
 19 20  2  0
 20 21  1  0
 21 22  2  0
 12 23  1  0
 23 24  1  0
 24 25  2  0
 25  2  1  0
 24  9  1  0
 22 17  1  0
  1 26  1  0
  1 27  1  0
  1 28  1  0
  3 29  1  0
 11 30  1  0
 11 31  1  0
 15 32  1  0
 16 33  1  0
 16 34  1  0
 18 35  1  0
 19 36  1  0
 20 37  1  0
 21 38  1  0
 22 39  1  0
M  END
>  <Binding energies>  (1) 
[-6.85]

>  <Ligand effiencies>  (1) 
[-0.24464285714285713]

>  <Interactions>  (1) 
["V-B:ASP:366:CG:8183, V-B:LEU:363:CB:8157, V-B:TYR:531:CZ:9765, V-A:ARG:545:CZ:4925, V-B:ASP:366:CB:8182, V-B:PRO:540:N:9855, V-B:LEU:363:CA:8155, V-B:PRO:540:CB:9856, V-B:TYR:539:CD2:9845, V-B:TYR:539:C:9838, V-B:MET:535:CE:9806, H-B:TYR:539:N:9841, V-B:TYR:531:CE2:9764, V-B:PRO:540:CA:9854, V-B:LEU:363:CD1:8159, V-B:TYR:539:CE2:9847, V-B:ILE:538:CB:9833, V-A:ASP:366:CG:3212, V-B:MET:535:CG:9804, V-B:ILE:538:CD1:9836, V-B:ILE:538:CA:9831, H-B:GLU:543:OE1:9880, H-B:ASP:366:OD1:8184, H-B:ALA:541:N:9862, V-B:ILE:538:C:9829, V-B:PRO:540:C:9852, V-B:VAL:537:C:9821, V-B:ASN:362:C:8142, V-B:LEU:363:CG:8158, V-B:TYR:531:CD2:9762"]

$$$$
4bh_Grossjean_2025
     RDKit          3D

 51 53  0  0  0  0  0  0  0  0999 V2000
  130.5650  126.6500   67.0860 C   0  0  0  0  0  0  0  0  0  0  0  0
  131.5000  126.4260   66.0370 O   0  0  0  0  0  0  0  0  0  0  0  0
  131.4370  125.2520   65.3090 C   0  0  0  0  0  0  0  0  0  0  0  0
  130.2740  124.4790   65.1690 C   0  0  0  0  0  0  0  0  0  0  0  0
  130.2820  123.3020   64.4210 C   0  0  0  0  0  0  0  0  0  0  0  0
  128.9990  122.4990   64.2420 C   0  0  0  0  0  0  0  0  0  0  0  0
  128.4630  122.5490   62.8820 N   0  0  0  0  0  0  0  0  0  0  0  0
  127.8010  123.5920   62.3400 C   0  0  0  0  0  0  0  0  0  0  0  0
  127.5440  124.6170   62.9760 O   0  0  0  0  0  0  0  0  0  0  0  0
  127.3590  123.4240   60.9550 C   0  0  0  0  0  0  0  0  0  0  0  0
  128.3490  122.5150   59.8180 S   0  0  0  0  0  0  0  0  0  0  0  0
  127.2170  122.8220   58.5210 C   0  0  0  0  0  0  0  0  0  0  0  0
  127.4220  122.3480   57.2930 N   0  0  0  0  0  0  0  0  0  0  0  0
  126.4750  122.6500   56.3750 C   0  0  0  0  0  0  0  0  0  0  0  0
  126.7290  122.1020   54.9820 C   0  0  0  0  0  0  0  0  0  0  0  0
  125.3380  123.4040   56.6520 C   0  0  0  0  0  0  0  0  0  0  0  0
  125.1180  123.9070   57.9440 C   0  0  0  0  0  0  0  0  0  0  0  0
  123.8510  124.7300   58.2030 C   0  0  0  0  0  0  0  0  0  0  0  0
  123.0990  124.2370   59.1890 F   0  0  0  0  0  0  0  0  0  0  0  0
  124.1830  125.9760   58.5410 F   0  0  0  0  0  0  0  0  0  0  0  0
  123.0990  124.7580   57.1030 F   0  0  0  0  0  0  0  0  0  0  0  0
  126.0990  123.6100   58.9360 C   0  0  0  0  0  0  0  0  0  0  0  0
  126.2160  123.9510   60.3330 C   0  0  0  0  0  0  0  0  0  0  0  0
  125.2880  124.7140   60.9920 N   0  0  0  0  0  0  0  0  0  0  0  0
  131.4570  122.9040   63.7790 C   0  0  0  0  0  0  0  0  0  0  0  0
  132.6370  123.6530   63.9070 C   0  0  0  0  0  0  0  0  0  0  0  0
  133.8380  123.3120   63.3120 O   0  0  0  0  0  0  0  0  0  0  0  0
  134.2420  123.9820   62.1220 C   0  0  0  0  0  0  0  0  0  0  0  0
  132.6140  124.8230   64.6810 C   0  0  0  0  0  0  0  0  0  0  0  0
  133.7580  125.5770   64.8000 O   0  0  0  0  0  0  0  0  0  0  0  0
  134.1560  125.8130   66.1430 C   0  0  0  0  0  0  0  0  0  0  0  0
  131.0676  126.5296   68.0570 H   0  0  0  0  0  0  0  0  0  0  0  0
  130.1616  127.6702   67.0059 H   0  0  0  0  0  0  0  0  0  0  0  0
  129.7431  125.9234   67.0059 H   0  0  0  0  0  0  0  0  0  0  0  0
  129.3434  124.8060   65.6559 H   0  0  0  0  0  0  0  0  0  0  0  0
  129.2074  121.4491   64.4955 H   0  0  0  0  0  0  0  0  0  0  0  0
  128.2429  122.9465   64.9039 H   0  0  0  0  0  0  0  0  0  0  0  0
  128.7120  121.7780   62.2790 H   0  0  0  0  0  0  0  0  0  0  0  0
  127.1905  121.1064   55.0582 H   0  0  0  0  0  0  0  0  0  0  0  0
  125.7754  122.0236   54.4393 H   0  0  0  0  0  0  0  0  0  0  0  0
  127.4051  122.7790   54.4393 H   0  0  0  0  0  0  0  0  0  0  0  0
  124.6082  123.6067   55.8543 H   0  0  0  0  0  0  0  0  0  0  0  0
  125.4670  125.1000   61.9090 H   0  0  0  0  0  0  0  0  0  0  0  0
  124.3840  124.9110   60.5850 H   0  0  0  0  0  0  0  0  0  0  0  0
  131.4575  121.9914   63.1649 H   0  0  0  0  0  0  0  0  0  0  0  0
  134.7935  124.8966   62.3854 H   0  0  0  0  0  0  0  0  0  0  0  0
  134.8914  123.3197   61.5307 H   0  0  0  0  0  0  0  0  0  0  0  0
  133.3531  124.2472   61.5307 H   0  0  0  0  0  0  0  0  0  0  0  0
  133.4153  125.3738   66.8275 H   0  0  0  0  0  0  0  0  0  0  0  0
  135.1385  125.3514   66.3208 H   0  0  0  0  0  0  0  0  0  0  0  0
  134.2223  126.8965   66.3208 H   0  0  0  0  0  0  0  0  0  0  0  0
  1  2  1  0
  2  3  1  0
  3  4  2  0
  4  5  1  0
  5  6  1  0
  6  7  1  0
  7  8  1  0
  8  9  2  0
  8 10  1  0
 10 11  1  0
 11 12  1  0
 12 13  2  0
 13 14  1  0
 14 15  1  0
 14 16  2  0
 16 17  1  0
 17 18  1  0
 18 19  1  0
 18 20  1  0
 18 21  1  0
 17 22  2  0
 22 23  1  0
 23 24  1  0
  5 25  2  0
 25 26  1  0
 26 27  1  0
 27 28  1  0
 26 29  2  0
 29 30  1  0
 30 31  1  0
 29  3  1  0
 23 10  2  0
 22 12  1  0
  1 32  1  0
  1 33  1  0
  1 34  1  0
  4 35  1  0
  6 36  1  0
  6 37  1  0
  7 38  1  0
 15 39  1  0
 15 40  1  0
 15 41  1  0
 16 42  1  0
 24 43  1  0
 24 44  1  0
 25 45  1  0
 28 46  1  0
 28 47  1  0
 28 48  1  0
 31 49  1  0
 31 50  1  0
 31 51  1  0
M  END
>  <Binding energies>  (1) 
[-6.85]

>  <Ligand effiencies>  (1) 
[-0.2014705882352941]

>  <Interactions>  (1) 
["V-B:GLU:543:CD:9879, V-B:ASP:366:CG:8183, V-B:LEU:363:CB:8157, V-B:TYR:531:CZ:9765, V-A:ARG:545:CZ:4925, V-B:ASP:366:CB:8182, V-B:PRO:540:N:9855, V-B:LEU:363:CA:8155, V-A:ARG:545:CD:4922, V-B:PRO:540:CB:9856, V-B:TYR:539:CD2:9845, V-B:TYR:539:C:9838, V-B:MET:535:CE:9806, H-B:TYR:539:N:9841, V-B:TYR:531:CE2:9764, V-B:PRO:540:CA:9854, V-B:LEU:363:CD1:8159, V-A:ARG:545:CG:4921, V-B:TYR:539:CE2:9847, V-A:LEU:475:CD2:4258, V-B:ILE:538:CB:9833, V-B:ALA:541:CB:9863, V-A:ASP:366:CG:3212, V-B:MET:535:CG:9804, V-B:TYR:539:CD1:9844, V-B:ILE:538:CD1:9836, V-A:ILE:369:CD1:3238, V-B:ILE:538:CA:9831, H-B:GLU:543:OE1:9880, V-A:GLY:454:CA:4048, H-A:TYR:484:OH:4347, H-A:GLY:454:N:4049, V-B:GLU:543:CG:9878, H-B:ASP:366:OD1:8184, V-B:ILE:538:C:9829, H-A:ARG:545:NH2:4927, V-B:ALA:541:CA:9861, V-A:GLY:453:C:4041, H-A:ARG:545:NH1:4926, H-A:ARG:545:NE:4923, H-B:TYR:539:O:9839, V-A:GLY:453:CA:4043, V-B:VAL:537:C:9821, V-B:ASN:362:C:8142, V-B:TYR:531:CD2:9762"]

$$$$
4bi_Grossjean_2025
     RDKit          3D

 32 34  0  0  0  0  0  0  0  0999 V2000
  126.7330  122.1240   54.8980 C   0  0  0  0  0  0  0  0  0  0  0  0
  126.4550  122.6440   56.2960 C   0  0  0  0  0  0  0  0  0  0  0  0
  125.2930  123.3580   56.5780 C   0  0  0  0  0  0  0  0  0  0  0  0
  125.0470  123.8290   57.8790 C   0  0  0  0  0  0  0  0  0  0  0  0
  123.7510  124.6030   58.1430 C   0  0  0  0  0  0  0  0  0  0  0  0
  123.9640  125.8770   58.4810 F   0  0  0  0  0  0  0  0  0  0  0  0
  122.9930  124.6030   57.0460 F   0  0  0  0  0  0  0  0  0  0  0  0
  123.0790  124.0320   59.1430 F   0  0  0  0  0  0  0  0  0  0  0  0
  126.0310  123.5470   58.8720 C   0  0  0  0  0  0  0  0  0  0  0  0
  126.1260  123.8630   60.2760 C   0  0  0  0  0  0  0  0  0  0  0  0
  125.1640  124.5780   60.9420 N   0  0  0  0  0  0  0  0  0  0  0  0
  127.2850  123.3690   60.8990 C   0  0  0  0  0  0  0  0  0  0  0  0
  127.7040  123.5150   62.2950 C   0  0  0  0  0  0  0  0  0  0  0  0
  126.9260  123.2580   63.2160 O   0  0  0  0  0  0  0  0  0  0  0  0
  128.9840  123.9240   62.4790 N   0  0  0  0  0  0  0  0  0  0  0  0
  129.6410  124.1310   63.6860 C   0  0  0  0  0  0  0  0  0  0  0  0
  130.4020  125.2680   63.9530 C   0  0  0  0  0  0  0  0  0  0  0  0
  130.8750  125.0900   65.2330 C   0  0  0  0  0  0  0  0  0  0  0  0
  130.4220  123.9060   65.7120 O   0  0  0  0  0  0  0  0  0  0  0  0
  129.6410  123.3080   64.7210 N   0  0  0  0  0  0  0  0  0  0  0  0
  128.3100  122.5130   59.7490 S   0  0  0  0  0  0  0  0  0  0  0  0
  127.1770  122.8050   58.4510 C   0  0  0  0  0  0  0  0  0  0  0  0
  127.4050  122.3590   57.2160 N   0  0  0  0  0  0  0  0  0  0  0  0
  127.2507  121.1556   54.9632 H   0  0  0  0  0  0  0  0  0  0  0  0
  125.7829  121.9962   54.3586 H   0  0  0  0  0  0  0  0  0  0  0  0
  127.3670  122.8431   54.3586 H   0  0  0  0  0  0  0  0  0  0  0  0
  124.5639  123.5543   55.7781 H   0  0  0  0  0  0  0  0  0  0  0  0
  125.1200  124.6030   61.9520 H   0  0  0  0  0  0  0  0  0  0  0  0
  124.4590  125.1030   60.4440 H   0  0  0  0  0  0  0  0  0  0  0  0
  129.5360  124.0920   61.6510 H   0  0  0  0  0  0  0  0  0  0  0  0
  130.5849  126.1226   63.2850 H   0  0  0  0  0  0  0  0  0  0  0  0
  131.5178  125.7957   65.7797 H   0  0  0  0  0  0  0  0  0  0  0  0
  1  2  1  0
  2  3  2  0
  3  4  1  0
  4  5  1  0
  5  6  1  0
  5  7  1  0
  5  8  1  0
  4  9  2  0
  9 10  1  0
 10 11  1  0
 10 12  2  0
 12 13  1  0
 13 14  2  0
 13 15  1  0
 15 16  1  0
 16 17  1  0
 17 18  2  0
 18 19  1  0
 19 20  1  0
 12 21  1  0
 21 22  1  0
 22 23  2  0
 23  2  1  0
 22  9  1  0
 20 16  2  0
  1 24  1  0
  1 25  1  0
  1 26  1  0
  3 27  1  0
 11 28  1  0
 11 29  1  0
 15 30  1  0
 17 31  1  0
 18 32  1  0
M  END
>  <Binding energies>  (1) 
[-6.53]

>  <Ligand effiencies>  (1) 
[-0.25115384615384617]

>  <Interactions>  (1) 
["V-B:GLU:543:CD:9879, V-B:ASP:366:CG:8183, V-B:LEU:363:CB:8157, V-B:TYR:531:CZ:9765, V-B:ASP:366:CB:8182, V-B:PRO:540:N:9855, V-B:LEU:363:CA:8155, V-B:PRO:540:CB:9856, V-B:TYR:539:CD2:9845, V-B:TYR:539:C:9838, V-B:MET:535:CE:9806, H-B:TYR:539:N:9841, V-B:TYR:531:CE2:9764, V-B:PRO:540:CA:9854, V-B:LEU:363:CD1:8159, V-B:TYR:539:CE2:9847, V-B:ILE:538:CB:9833, V-B:MET:535:CG:9804, V-B:ILE:538:CD1:9836, V-B:ILE:538:CA:9831, H-A:TYR:484:OH:4347, H-B:ASP:366:OD1:8184, H-B:ALA:541:N:9862, V-B:ILE:538:C:9829, V-B:VAL:537:C:9821, V-B:ASN:362:C:8142, V-B:LEU:363:CG:8158, V-B:TYR:531:CD2:9762"]

$$$$
4bj_Grossjean_2025
     RDKit          3D

 32 34  0  0  0  0  0  0  0  0999 V2000
  133.2680  125.3680   65.1050 C   0  0  0  0  0  0  0  0  0  0  0  0
  132.5090  124.4970   64.1210 C   0  0  0  0  0  0  0  0  0  0  0  0
  133.0500  123.3000   63.6580 C   0  0  0  0  0  0  0  0  0  0  0  0
  132.3400  122.5070   62.7430 C   0  0  0  0  0  0  0  0  0  0  0  0
  132.9780  121.1990   62.2590 C   0  0  0  0  0  0  0  0  0  0  0  0
  132.0920  120.2120   62.1080 F   0  0  0  0  0  0  0  0  0  0  0  0
  133.5650  121.3940   61.0790 F   0  0  0  0  0  0  0  0  0  0  0  0
  133.8870  120.7890   63.1420 F   0  0  0  0  0  0  0  0  0  0  0  0
  131.0610  122.9800   62.3240 C   0  0  0  0  0  0  0  0  0  0  0  0
  130.0690  122.4560   61.4170 C   0  0  0  0  0  0  0  0  0  0  0  0
  130.2370  121.2760   60.7370 N   0  0  0  0  0  0  0  0  0  0  0  0
  128.9200  123.2540   61.3000 C   0  0  0  0  0  0  0  0  0  0  0  0
  127.7340  123.0300   60.4700 C   0  0  0  0  0  0  0  0  0  0  0  0
  126.6240  122.8740   60.9850 O   0  0  0  0  0  0  0  0  0  0  0  0
  127.9510  123.0250   59.1320 N   0  0  0  0  0  0  0  0  0  0  0  0
  127.0040  122.8470   58.1340 C   0  0  0  0  0  0  0  0  0  0  0  0
  127.1080  122.1250   57.0390 N   0  0  0  0  0  0  0  0  0  0  0  0
  126.0080  122.1790   56.3150 C   0  0  0  0  0  0  0  0  0  0  0  0
  124.9760  122.9610   56.8220 C   0  0  0  0  0  0  0  0  0  0  0  0
  125.4850  123.6630   58.3290 S   0  0  0  0  0  0  0  0  0  0  0  0
  129.0420  124.7000   62.2990 S   0  0  0  0  0  0  0  0  0  0  0  0
  130.6210  124.2210   62.8790 C   0  0  0  0  0  0  0  0  0  0  0  0
  131.2990  124.9720   63.7450 N   0  0  0  0  0  0  0  0  0  0  0  0
  133.0096  125.0715   66.1323 H   0  0  0  0  0  0  0  0  0  0  0  0
  134.3494  125.2419   64.9480 H   0  0  0  0  0  0  0  0  0  0  0  0
  132.9952  126.4220   64.9480 H   0  0  0  0  0  0  0  0  0  0  0  0
  134.0394  122.9742   64.0114 H   0  0  0  0  0  0  0  0  0  0  0  0
  129.4850  120.6120   60.6230 H   0  0  0  0  0  0  0  0  0  0  0  0
  131.1280  121.0280   60.3280 H   0  0  0  0  0  0  0  0  0  0  0  0
  128.8990  123.1720   58.8160 H   0  0  0  0  0  0  0  0  0  0  0  0
  125.9117  121.6360   55.3632 H   0  0  0  0  0  0  0  0  0  0  0  0
  123.9956  123.1113   56.3463 H   0  0  0  0  0  0  0  0  0  0  0  0
  1  2  1  0
  2  3  2  0
  3  4  1  0
  4  5  1  0
  5  6  1  0
  5  7  1  0
  5  8  1  0
  4  9  2  0
  9 10  1  0
 10 11  1  0
 10 12  2  0
 12 13  1  0
 13 14  2  0
 13 15  1  0
 15 16  1  0
 16 17  2  0
 17 18  1  0
 18 19  2  0
 19 20  1  0
 12 21  1  0
 21 22  1  0
 22 23  2  0
 23  2  1  0
 22  9  1  0
 20 16  1  0
  1 24  1  0
  1 25  1  0
  1 26  1  0
  3 27  1  0
 11 28  1  0
 11 29  1  0
 15 30  1  0
 18 31  1  0
 19 32  1  0
M  END
>  <Binding energies>  (1) 
[-6.04]

>  <Ligand effiencies>  (1) 
[-0.2323076923076923]

>  <Interactions>  (1) 
["V-A:ARG:545:CZ:4925, V-B:PRO:540:N:9855, V-B:PRO:540:CB:9856, V-B:TYR:539:CD2:9845, V-B:TYR:539:C:9838, V-B:MET:535:CE:9806, H-B:TYR:539:N:9841, V-B:TYR:531:CE2:9764, V-B:PRO:540:CA:9854, V-B:LEU:363:CD1:8159, V-B:TYR:539:CE2:9847, V-A:LEU:475:CD2:4258, V-A:SER:385:CB:3408, V-A:ILE:369:CG2:3236, V-B:ILE:538:CG2:9834, V-A:ILE:369:CD1:3238, V-B:ILE:538:CA:9831, V-A:GLY:454:CA:4048, V-A:SER:385:CA:3406, V-B:PRO:540:CD:9858, H-B:ALA:541:N:9862, V-B:ILE:538:C:9829, V-A:SER:385:C:3404, H-B:TYR:539:O:9839"]

$$$$
4bk_Grossjean_2025
     RDKit          3D

 50 51  0  0  0  0  0  0  0  0999 V2000
  130.5500  117.3060   60.1690 C   0  0  0  0  0  0  0  0  0  0  0  0
  131.9480  117.5330   60.2620 O   0  0  0  0  0  0  0  0  0  0  0  0
  132.2800  118.7790   60.8610 C   0  0  0  0  0  0  0  0  0  0  0  0
  131.0030  119.6000   61.0780 C   0  0  0  0  0  0  0  0  0  0  0  0
  131.3140  120.9840   61.0080 O   0  0  0  0  0  0  0  0  0  0  0  0
  132.7070  121.2630   61.0560 C   0  0  0  0  0  0  0  0  0  0  0  0
  132.9470  122.5160   61.9090 C   0  0  0  0  0  0  0  0  0  0  0  0
  131.6960  123.0730   62.2880 O   0  0  0  0  0  0  0  0  0  0  0  0
  131.3170  122.7760   63.6270 C   0  0  0  0  0  0  0  0  0  0  0  0
  129.7830  122.7140   63.7210 C   0  0  0  0  0  0  0  0  0  0  0  0
  129.1120  122.7630   62.4210 N   0  0  0  0  0  0  0  0  0  0  0  0
  127.8520  123.1950   62.2100 C   0  0  0  0  0  0  0  0  0  0  0  0
  127.1380  123.6190   63.1200 O   0  0  0  0  0  0  0  0  0  0  0  0
  127.3760  123.1430   60.8270 C   0  0  0  0  0  0  0  0  0  0  0  0
  128.3170  122.2980   59.6000 S   0  0  0  0  0  0  0  0  0  0  0  0
  127.1280  122.6650   58.3730 C   0  0  0  0  0  0  0  0  0  0  0  0
  127.2830  122.2620   57.1120 N   0  0  0  0  0  0  0  0  0  0  0  0
  126.2950  122.6050   56.2530 C   0  0  0  0  0  0  0  0  0  0  0  0
  126.4910  122.1340   54.8230 C   0  0  0  0  0  0  0  0  0  0  0  0
  125.1680  123.3350   56.6210 C   0  0  0  0  0  0  0  0  0  0  0  0
  125.0000  123.7640   57.9470 C   0  0  0  0  0  0  0  0  0  0  0  0
  123.7450  124.5680   58.3030 C   0  0  0  0  0  0  0  0  0  0  0  0
  123.0370  124.0190   59.2930 F   0  0  0  0  0  0  0  0  0  0  0  0
  124.0900  125.7950   58.6910 F   0  0  0  0  0  0  0  0  0  0  0  0
  122.9460  124.6510   57.2400 F   0  0  0  0  0  0  0  0  0  0  0  0
  126.0230  123.4180   58.8790 C   0  0  0  0  0  0  0  0  0  0  0  0
  126.1930  123.6710   60.2880 C   0  0  0  0  0  0  0  0  0  0  0  0
  125.2770  124.3690   61.0330 N   0  0  0  0  0  0  0  0  0  0  0  0
  130.1218  117.2365   61.1798 H   0  0  0  0  0  0  0  0  0  0  0  0
  130.0784  118.1393   59.6275 H   0  0  0  0  0  0  0  0  0  0  0  0
  130.3663  116.3663   59.6275 H   0  0  0  0  0  0  0  0  0  0  0  0
  132.7701  118.6009   61.8296 H   0  0  0  0  0  0  0  0  0  0  0  0
  132.9631  119.3325   60.1999 H   0  0  0  0  0  0  0  0  0  0  0  0
  130.2686  119.3491   60.2985 H   0  0  0  0  0  0  0  0  0  0  0  0
  130.5808  119.3680   62.0669 H   0  0  0  0  0  0  0  0  0  0  0  0
  133.2372  120.4085   61.5018 H   0  0  0  0  0  0  0  0  0  0  0  0
  133.0825  121.4352   60.0365 H   0  0  0  0  0  0  0  0  0  0  0  0
  133.5160  122.2436   62.8101 H   0  0  0  0  0  0  0  0  0  0  0  0
  133.5177  123.2543   61.3267 H   0  0  0  0  0  0  0  0  0  0  0  0
  131.7425  121.8056   63.9224 H   0  0  0  0  0  0  0  0  0  0  0  0
  131.6953  123.5605   64.2989 H   0  0  0  0  0  0  0  0  0  0  0  0
  129.5033  121.7751   64.2212 H   0  0  0  0  0  0  0  0  0  0  0  0
  129.4590  123.6017   64.2840 H   0  0  0  0  0  0  0  0  0  0  0  0
  129.6450  122.4280   61.6320 H   0  0  0  0  0  0  0  0  0  0  0  0
  126.9136  121.1184   54.8261 H   0  0  0  0  0  0  0  0  0  0  0  0
  125.5215  122.1261   54.3034 H   0  0  0  0  0  0  0  0  0  0  0  0
  127.1799  122.8162   54.3034 H   0  0  0  0  0  0  0  0  0  0  0  0
  124.4040  123.5772   55.8675 H   0  0  0  0  0  0  0  0  0  0  0  0
  125.3750  124.4840   62.0320 H   0  0  0  0  0  0  0  0  0  0  0  0
  124.4710  124.8010   60.6030 H   0  0  0  0  0  0  0  0  0  0  0  0
  1  2  1  0
  2  3  1  0
  3  4  1  0
  4  5  1  0
  5  6  1  0
  6  7  1  0
  7  8  1  0
  8  9  1  0
  9 10  1  0
 10 11  1  0
 11 12  1  0
 12 13  2  0
 12 14  1  0
 14 15  1  0
 15 16  1  0
 16 17  2  0
 17 18  1  0
 18 19  1  0
 18 20  2  0
 20 21  1  0
 21 22  1  0
 22 23  1  0
 22 24  1  0
 22 25  1  0
 21 26  2  0
 26 27  1  0
 27 28  1  0
 27 14  2  0
 26 16  1  0
  1 29  1  0
  1 30  1  0
  1 31  1  0
  3 32  1  0
  3 33  1  0
  4 34  1  0
  4 35  1  0
  6 36  1  0
  6 37  1  0
  7 38  1  0
  7 39  1  0
  9 40  1  0
  9 41  1  0
 10 42  1  0
 10 43  1  0
 11 44  1  0
 19 45  1  0
 19 46  1  0
 19 47  1  0
 20 48  1  0
 28 49  1  0
 28 50  1  0
M  END
>  <Binding energies>  (1) 
[-5.47]

>  <Ligand effiencies>  (1) 
[-0.1764516129032258]

>  <Interactions>  (1) 
["V-B:ASP:366:CG:8183, V-B:LEU:363:CB:8157, V-B:TYR:531:CZ:9765, V-B:ASP:366:CB:8182, V-B:PRO:540:N:9855, V-B:LEU:363:CA:8155, V-B:PRO:540:CB:9856, V-B:TYR:539:CD2:9845, V-B:TYR:539:C:9838, V-B:MET:535:CE:9806, H-B:TYR:539:N:9841, V-B:TYR:531:CE2:9764, V-B:PRO:540:CA:9854, V-B:LEU:363:CD1:8159, V-B:TYR:539:CE2:9847, V-A:LEU:475:CD2:4258, V-B:ILE:538:CB:9833, V-B:ALA:541:CB:9863, V-A:SER:385:CB:3408, V-B:VAL:344:CG1:7971, V-B:MET:535:CG:9804, V-A:ILE:369:CG2:3236, V-B:ILE:538:CD1:9836, V-B:TYR:539:CB:9842, V-A:HIS:383:CE1:3393, V-B:ILE:538:CA:9831, H-B:GLU:543:OE1:9880, V-A:SER:385:CA:3406, H-B:ASP:366:OD1:8184, H-B:ALA:541:N:9862, V-B:ILE:538:C:9829, V-B:PRO:540:C:9852, H-A:HIS:383:ND1:3390, V-B:VAL:537:C:9821, V-B:ASN:362:C:8142, V-B:LEU:363:CG:8158, V-B:TYR:531:CD2:9762"]

$$$$
4ca_Grossjean_2025
     RDKit          3D

 52 55  0  0  0  0  0  0  0  0999 V2000
  129.0140  132.6780   54.9610 C   0  0  0  0  0  0  0  0  0  0  0  0
  130.3050  133.4900   55.0980 C   0  0  0  0  0  0  0  0  0  0  0  0
  130.5360  133.7830   56.4700 O   0  0  0  0  0  0  0  0  0  0  0  0
  131.6440  133.3260   57.1080 C   0  0  0  0  0  0  0  0  0  0  0  0
  132.6900  133.9760   57.2030 O   0  0  0  0  0  0  0  0  0  0  0  0
  131.4690  131.9540   57.6900 C   0  0  0  0  0  0  0  0  0  0  0  0
  132.5960  131.2520   58.1400 C   0  0  0  0  0  0  0  0  0  0  0  0
  132.4640  129.9790   58.6880 C   0  0  0  0  0  0  0  0  0  0  0  0
  131.2100  129.3790   58.7910 C   0  0  0  0  0  0  0  0  0  0  0  0
  131.1920  128.0950   59.3690 N   0  0  0  0  0  0  0  0  0  0  0  0
  130.2480  127.4970   60.1380 C   0  0  0  0  0  0  0  0  0  0  0  0
  129.1670  128.0090   60.4280 O   0  0  0  0  0  0  0  0  0  0  0  0
  130.5860  126.1520   60.6090 C   0  0  0  0  0  0  0  0  0  0  0  0
  130.2200  124.7460   59.6110 S   0  0  0  0  0  0  0  0  0  0  0  0
  130.9290  123.6690   60.7900 C   0  0  0  0  0  0  0  0  0  0  0  0
  130.9670  122.3530   60.5930 N   0  0  0  0  0  0  0  0  0  0  0  0
  131.5510  121.5970   61.5580 C   0  0  0  0  0  0  0  0  0  0  0  0
  131.5870  120.1180   61.3030 C   0  0  0  0  0  0  0  0  0  0  0  0
  132.7010  119.5200   60.6920 C   0  0  0  0  0  0  0  0  0  0  0  0
  132.7380  118.1500   60.4470 C   0  0  0  0  0  0  0  0  0  0  0  0
  131.6560  117.3540   60.8100 C   0  0  0  0  0  0  0  0  0  0  0  0
  130.5380  117.9200   61.4140 C   0  0  0  0  0  0  0  0  0  0  0  0
  130.5050  119.2910   61.6570 C   0  0  0  0  0  0  0  0  0  0  0  0
  132.0730  122.1630   62.7260 C   0  0  0  0  0  0  0  0  0  0  0  0
  132.0340  123.5490   62.9460 C   0  0  0  0  0  0  0  0  0  0  0  0
  132.6280  124.1020   64.2460 C   0  0  0  0  0  0  0  0  0  0  0  0
  131.7330  124.7490   64.9960 F   0  0  0  0  0  0  0  0  0  0  0  0
  133.1160  123.1040   64.9810 F   0  0  0  0  0  0  0  0  0  0  0  0
  133.6060  124.9620   63.9650 F   0  0  0  0  0  0  0  0  0  0  0  0
  131.4400  124.3530   61.9310 C   0  0  0  0  0  0  0  0  0  0  0  0
  131.2310  125.7740   61.7990 C   0  0  0  0  0  0  0  0  0  0  0  0
  131.6280  126.6730   62.7560 N   0  0  0  0  0  0  0  0  0  0  0  0
  130.0750  130.0750   58.3490 C   0  0  0  0  0  0  0  0  0  0  0  0
  130.2070  131.3500   57.8030 C   0  0  0  0  0  0  0  0  0  0  0  0
  128.6263  132.4342   55.9611 H   0  0  0  0  0  0  0  0  0  0  0  0
  128.2660  133.2685   54.4117 H   0  0  0  0  0  0  0  0  0  0  0  0
  129.2223  131.7480   54.4117 H   0  0  0  0  0  0  0  0  0  0  0  0
  131.1489  132.9073   54.7002 H   0  0  0  0  0  0  0  0  0  0  0  0
  130.2098  134.4290   54.5330 H   0  0  0  0  0  0  0  0  0  0  0  0
  133.5926  131.7107   58.0595 H   0  0  0  0  0  0  0  0  0  0  0  0
  133.3564  129.4424   59.0425 H   0  0  0  0  0  0  0  0  0  0  0  0
  132.0070  127.5380   59.1630 H   0  0  0  0  0  0  0  0  0  0  0  0
  133.5589  120.1445   60.4021 H   0  0  0  0  0  0  0  0  0  0  0  0
  133.6194  117.6985   59.9682 H   0  0  0  0  0  0  0  0  0  0  0  0
  131.6848  116.2712   60.6183 H   0  0  0  0  0  0  0  0  0  0  0  0
  129.6840  117.2877   61.6984 H   0  0  0  0  0  0  0  0  0  0  0  0
  129.6184  119.7347   62.1336 H   0  0  0  0  0  0  0  0  0  0  0  0
  132.5231  121.5089   63.4873 H   0  0  0  0  0  0  0  0  0  0  0  0
  132.3690  127.3400   62.5880 H   0  0  0  0  0  0  0  0  0  0  0  0
  131.1890  126.7020   63.6660 H   0  0  0  0  0  0  0  0  0  0  0  0
  129.0800  129.6137   58.4336 H   0  0  0  0  0  0  0  0  0  0  0  0
  129.3128  131.8890   57.4568 H   0  0  0  0  0  0  0  0  0  0  0  0
  1  2  1  0
  2  3  1  0
  3  4  1  0
  4  5  2  0
  4  6  1  0
  6  7  2  0
  7  8  1  0
  8  9  2  0
  9 10  1  0
 10 11  1  0
 11 12  2  0
 11 13  1  0
 13 14  1  0
 14 15  1  0
 15 16  2  0
 16 17  1  0
 17 18  1  0
 18 19  2  0
 19 20  1  0
 20 21  2  0
 21 22  1  0
 22 23  2  0
 17 24  2  0
 24 25  1  0
 25 26  1  0
 26 27  1  0
 26 28  1  0
 26 29  1  0
 25 30  2  0
 30 31  1  0
 31 32  1  0
  9 33  1  0
 33 34  2  0
 34  6  1  0
 31 13  2  0
 30 15  1  0
 23 18  1  0
  1 35  1  0
  1 36  1  0
  1 37  1  0
  2 38  1  0
  2 39  1  0
  7 40  1  0
  8 41  1  0
 10 42  1  0
 19 43  1  0
 20 44  1  0
 21 45  1  0
 22 46  1  0
 23 47  1  0
 24 48  1  0
 32 49  1  0
 32 50  1  0
 33 51  1  0
 34 52  1  0
M  END
>  <Binding energies>  (1) 
[-8.63]

>  <Ligand effiencies>  (1) 
[-0.23324324324324328]

>  <Interactions>  (1) 
["V-A:ARG:545:CZ:4925, V-A:TYR:484:CZ:4346, V-B:TYR:539:CD2:9845, V-B:TYR:539:CE2:9847, V-A:LEU:475:CD2:4258, V-A:PRO:482:CG:4326, V-B:ALA:541:CB:9863, V-A:ASP:366:CG:3212, V-A:SER:385:CB:3408, V-A:HIS:383:CE1:3393, V-A:PRO:482:CB:4325, V-A:ASP:366:CB:3211, V-A:GLY:454:CA:4048, V-A:SER:385:CA:3406, V-A:TYR:531:CE2:4792, V-A:PRO:540:CA:4882, V-A:TYR:531:CZ:4793, V-A:PRO:540:CD:4886, V-A:ILE:538:CG2:4862, V-A:PRO:540:N:4883, V-A:PRO:540:CB:4884, V-A:TYR:539:C:4866, V-A:TYR:539:CE1:4874, H-A:TYR:539:N:4869, V-A:MET:535:CG:4832, V-A:ILE:538:CB:4861, V-A:ILE:538:CA:4859, H-A:GLU:543:OE2:4909, H-A:ASP:366:OD2:3214, V-A:TYR:539:CZ:4876, H-A:ASP:366:OD1:3213, V-A:GLY:454:C:4046"]

$$$$
4cb_Grossjean_2025
     RDKit          3D

 49 52  0  0  0  0  0  0  0  0999 V2000
  129.4390  133.5830   55.1320 C   0  0  0  0  0  0  0  0  0  0  0  0
  129.8240  133.7510   56.4900 O   0  0  0  0  0  0  0  0  0  0  0  0
  131.0760  133.4290   56.9060 C   0  0  0  0  0  0  0  0  0  0  0  0
  132.0510  134.1750   56.7740 O   0  0  0  0  0  0  0  0  0  0  0  0
  131.1570  132.0720   57.5450 C   0  0  0  0  0  0  0  0  0  0  0  0
  130.0670  131.1980   57.4370 C   0  0  0  0  0  0  0  0  0  0  0  0
  130.1160  129.9310   58.0110 C   0  0  0  0  0  0  0  0  0  0  0  0
  131.2490  129.5140   58.7100 C   0  0  0  0  0  0  0  0  0  0  0  0
  131.1960  128.2090   59.2370 N   0  0  0  0  0  0  0  0  0  0  0  0
  130.1260  127.4310   59.5330 C   0  0  0  0  0  0  0  0  0  0  0  0
  128.9560  127.7550   59.3280 O   0  0  0  0  0  0  0  0  0  0  0  0
  130.4460  126.1240   60.1160 C   0  0  0  0  0  0  0  0  0  0  0  0
  130.2220  124.6540   59.1710 S   0  0  0  0  0  0  0  0  0  0  0  0
  130.8290  123.6660   60.4790 C   0  0  0  0  0  0  0  0  0  0  0  0
  130.9190  122.3430   60.3680 N   0  0  0  0  0  0  0  0  0  0  0  0
  131.4130  121.6610   61.4340 C   0  0  0  0  0  0  0  0  0  0  0  0
  131.5060  120.1710   61.2760 C   0  0  0  0  0  0  0  0  0  0  0  0
  130.4450  119.3400   61.6680 C   0  0  0  0  0  0  0  0  0  0  0  0
  130.5270  117.9570   61.5280 C   0  0  0  0  0  0  0  0  0  0  0  0
  131.6760  117.3840   60.9920 C   0  0  0  0  0  0  0  0  0  0  0  0
  132.7440  118.1850   60.5990 C   0  0  0  0  0  0  0  0  0  0  0  0
  132.6580  119.5660   60.7420 C   0  0  0  0  0  0  0  0  0  0  0  0
  131.7930  122.3100   62.6140 C   0  0  0  0  0  0  0  0  0  0  0  0
  131.7000  123.7040   62.7430 C   0  0  0  0  0  0  0  0  0  0  0  0
  132.1370  124.3510   64.0630 C   0  0  0  0  0  0  0  0  0  0  0  0
  132.9860  125.3670   63.8920 F   0  0  0  0  0  0  0  0  0  0  0  0
  131.0700  124.8270   64.7050 F   0  0  0  0  0  0  0  0  0  0  0  0
  132.7450  123.4470   64.8290 F   0  0  0  0  0  0  0  0  0  0  0  0
  131.1980  124.4310   61.6240 C   0  0  0  0  0  0  0  0  0  0  0  0
  130.9730  125.8360   61.3850 C   0  0  0  0  0  0  0  0  0  0  0  0
  131.2500  126.8000   62.3210 N   0  0  0  0  0  0  0  0  0  0  0  0
  132.3460  130.3810   58.8200 C   0  0  0  0  0  0  0  0  0  0  0  0
  132.2970  131.6470   58.2440 C   0  0  0  0  0  0  0  0  0  0  0  0
  128.4316  133.1434   55.0882 H   0  0  0  0  0  0  0  0  0  0  0  0
  129.4345  134.5610   54.6285 H   0  0  0  0  0  0  0  0  0  0  0  0
  130.1529  132.9146   54.6285 H   0  0  0  0  0  0  0  0  0  0  0  0
  129.1648  131.5160   56.8939 H   0  0  0  0  0  0  0  0  0  0  0  0
  129.2550  129.2535   57.9128 H   0  0  0  0  0  0  0  0  0  0  0  0
  132.1010  127.7960   59.4080 H   0  0  0  0  0  0  0  0  0  0  0  0
  129.5345  119.7882   62.0924 H   0  0  0  0  0  0  0  0  0  0  0  0
  129.6864  117.3198   61.8400 H   0  0  0  0  0  0  0  0  0  0  0  0
  131.7406  116.2918   60.8782 H   0  0  0  0  0  0  0  0  0  0  0  0
  133.6516  117.7284   60.1774 H   0  0  0  0  0  0  0  0  0  0  0  0
  133.5052  120.1955   60.4322 H   0  0  0  0  0  0  0  0  0  0  0  0
  132.1724  121.7150   63.4578 H   0  0  0  0  0  0  0  0  0  0  0  0
  130.6670  126.9370   63.1340 H   0  0  0  0  0  0  0  0  0  0  0  0
  132.0530  127.4060   62.2300 H   0  0  0  0  0  0  0  0  0  0  0  0
  133.2472  130.0596   59.3628 H   0  0  0  0  0  0  0  0  0  0  0  0
  133.1609  132.3214   58.3377 H   0  0  0  0  0  0  0  0  0  0  0  0
  1  2  1  0
  2  3  1  0
  3  4  2  0
  3  5  1  0
  5  6  2  0
  6  7  1  0
  7  8  2  0
  8  9  1  0
  9 10  1  0
 10 11  2  0
 10 12  1  0
 12 13  1  0
 13 14  1  0
 14 15  2  0
 15 16  1  0
 16 17  1  0
 17 18  2  0
 18 19  1  0
 19 20  2  0
 20 21  1  0
 21 22  2  0
 16 23  2  0
 23 24  1  0
 24 25  1  0
 25 26  1  0
 25 27  1  0
 25 28  1  0
 24 29  2  0
 29 30  1  0
 30 31  1  0
  8 32  1  0
 32 33  2  0
 33  5  1  0
 30 12  2  0
 29 14  1  0
 22 17  1  0
  1 34  1  0
  1 35  1  0
  1 36  1  0
  6 37  1  0
  7 38  1  0
  9 39  1  0
 18 40  1  0
 19 41  1  0
 20 42  1  0
 21 43  1  0
 22 44  1  0
 23 45  1  0
 31 46  1  0
 31 47  1  0
 32 48  1  0
 33 49  1  0
M  END
>  <Binding energies>  (1) 
[-8.56]

>  <Ligand effiencies>  (1) 
[-0.23777777777777778]

>  <Interactions>  (1) 
["V-A:ARG:545:CZ:4925, V-A:TYR:484:CZ:4346, V-B:TYR:539:CD2:9845, V-B:TYR:539:CE2:9847, V-A:LEU:475:CD2:4258, V-A:PRO:482:CG:4326, V-B:ALA:541:CB:9863, V-A:ASP:366:CG:3212, V-A:SER:385:CB:3408, V-A:HIS:383:CE1:3393, V-A:PRO:482:CB:4325, V-A:ASP:366:CB:3211, V-A:GLY:454:CA:4048, V-A:SER:385:CA:3406, V-A:TYR:539:CD1:4872, V-A:PRO:540:CD:4886, V-A:PRO:540:N:4883, V-A:TYR:539:C:4866, V-A:TYR:539:CE1:4874, H-A:TYR:539:N:4869, V-A:ILE:538:CA:4859, H-A:ASP:366:OD2:3214, V-A:TYR:539:CZ:4876, H-A:ASP:366:OD1:3213, V-A:TYR:539:CD2:4873, V-A:TYR:539:CE2:4875"]

$$$$
4cc_Grossjean_2025
     RDKit          3D

 47 50  0  0  0  0  0  0  0  0999 V2000
  130.5790  133.7470   55.5650 C   0  0  0  0  0  0  0  0  0  0  0  0
  131.0240  133.6560   56.9140 O   0  0  0  0  0  0  0  0  0  0  0  0
  131.1620  132.4110   57.4970 C   0  0  0  0  0  0  0  0  0  0  0  0
  130.0520  131.5690   57.4360 C   0  0  0  0  0  0  0  0  0  0  0  0
  130.0970  130.2950   57.9930 C   0  0  0  0  0  0  0  0  0  0  0  0
  131.2550  129.8470   58.6310 C   0  0  0  0  0  0  0  0  0  0  0  0
  131.2130  128.5400   59.1510 N   0  0  0  0  0  0  0  0  0  0  0  0
  130.1790  127.6640   59.1840 C   0  0  0  0  0  0  0  0  0  0  0  0
  129.0690  127.8900   58.6990 O   0  0  0  0  0  0  0  0  0  0  0  0
  130.4570  126.3870   59.8490 C   0  0  0  0  0  0  0  0  0  0  0  0
  130.4010  124.8810   58.9360 S   0  0  0  0  0  0  0  0  0  0  0  0
  130.8240  123.9530   60.3550 C   0  0  0  0  0  0  0  0  0  0  0  0
  130.9510  122.6290   60.3070 N   0  0  0  0  0  0  0  0  0  0  0  0
  131.2920  121.9950   61.4590 C   0  0  0  0  0  0  0  0  0  0  0  0
  131.4250  120.5020   61.3750 C   0  0  0  0  0  0  0  0  0  0  0  0
  132.6170  119.9110   60.9270 C   0  0  0  0  0  0  0  0  0  0  0  0
  132.7470  118.5270   60.8450 C   0  0  0  0  0  0  0  0  0  0  0  0
  131.6820  117.7110   61.2100 C   0  0  0  0  0  0  0  0  0  0  0  0
  130.4880  118.2710   61.6540 C   0  0  0  0  0  0  0  0  0  0  0  0
  130.3620  119.6550   61.7330 C   0  0  0  0  0  0  0  0  0  0  0  0
  131.4880  122.6910   62.6560 C   0  0  0  0  0  0  0  0  0  0  0  0
  131.3550  124.0880   62.7180 C   0  0  0  0  0  0  0  0  0  0  0  0
  131.5890  124.7870   64.0610 C   0  0  0  0  0  0  0  0  0  0  0  0
  132.6490  125.6000   64.0520 F   0  0  0  0  0  0  0  0  0  0  0  0
  130.5260  125.5250   64.3780 F   0  0  0  0  0  0  0  0  0  0  0  0
  131.7930  123.8780   65.0140 F   0  0  0  0  0  0  0  0  0  0  0  0
  131.0060  124.7640   61.5140 C   0  0  0  0  0  0  0  0  0  0  0  0
  130.7850  126.1530   61.1940 C   0  0  0  0  0  0  0  0  0  0  0  0
  130.8910  127.1540   62.1260 N   0  0  0  0  0  0  0  0  0  0  0  0
  132.3800  130.6830   58.6860 C   0  0  0  0  0  0  0  0  0  0  0  0
  132.3310  131.9570   58.1260 C   0  0  0  0  0  0  0  0  0  0  0  0
  129.5014  133.9674   55.5484 H   0  0  0  0  0  0  0  0  0  0  0  0
  131.1258  134.5519   55.0520 H   0  0  0  0  0  0  0  0  0  0  0  0
  130.7659  132.7920   55.0520 H   0  0  0  0  0  0  0  0  0  0  0  0
  129.1319  131.9156   56.9427 H   0  0  0  0  0  0  0  0  0  0  0  0
  129.2168  129.6382   57.9305 H   0  0  0  0  0  0  0  0  0  0  0  0
  132.0900  128.2090   59.5230 H   0  0  0  0  0  0  0  0  0  0  0  0
  133.4623  120.5518   60.6359 H   0  0  0  0  0  0  0  0  0  0  0  0
  133.6888  118.0809   60.4928 H   0  0  0  0  0  0  0  0  0  0  0  0
  131.7838  116.6175   61.1475 H   0  0  0  0  0  0  0  0  0  0  0  0
  129.6472  117.6226   61.9414 H   0  0  0  0  0  0  0  0  0  0  0  0
  129.4150  120.0930   62.0813 H   0  0  0  0  0  0  0  0  0  0  0  0
  131.7515  122.1335   63.5669 H   0  0  0  0  0  0  0  0  0  0  0  0
  131.6680  127.8000   62.1310 H   0  0  0  0  0  0  0  0  0  0  0  0
  130.1920  127.2770   62.8450 H   0  0  0  0  0  0  0  0  0  0  0  0
  133.3021  130.3318   59.1721 H   0  0  0  0  0  0  0  0  0  0  0  0
  133.2139  132.6112   58.1771 H   0  0  0  0  0  0  0  0  0  0  0  0
  1  2  1  0
  2  3  1  0
  3  4  2  0
  4  5  1  0
  5  6  2  0
  6  7  1  0
  7  8  1  0
  8  9  2  0
  8 10  1  0
 10 11  1  0
 11 12  1  0
 12 13  2  0
 13 14  1  0
 14 15  1  0
 15 16  2  0
 16 17  1  0
 17 18  2  0
 18 19  1  0
 19 20  2  0
 14 21  2  0
 21 22  1  0
 22 23  1  0
 23 24  1  0
 23 25  1  0
 23 26  1  0
 22 27  2  0
 27 28  1  0
 28 29  1  0
  6 30  1  0
 30 31  2  0
 31  3  1  0
 28 10  2  0
 27 12  1  0
 20 15  1  0
  1 32  1  0
  1 33  1  0
  1 34  1  0
  4 35  1  0
  5 36  1  0
  7 37  1  0
 16 38  1  0
 17 39  1  0
 18 40  1  0
 19 41  1  0
 20 42  1  0
 21 43  1  0
 29 44  1  0
 29 45  1  0
 30 46  1  0
 31 47  1  0
M  END
>  <Binding energies>  (1) 
[-7.4]

>  <Ligand effiencies>  (1) 
[-0.21764705882352942]

>  <Interactions>  (1) 
["V-A:ARG:545:CZ:4925, V-A:TYR:484:CZ:4346, V-B:TYR:539:CD2:9845, V-B:TYR:539:CE2:9847, V-A:LEU:475:CD2:4258, V-A:PRO:482:CG:4326, V-B:ALA:541:CB:9863, V-A:ASP:366:CG:3212, V-A:SER:385:CB:3408, V-A:HIS:383:CE1:3393, V-A:PRO:482:CB:4325, V-A:ASP:366:CB:3211, V-A:SER:385:CA:3406, V-A:PRO:540:CA:4882, V-A:ILE:538:CG2:4862, V-A:PRO:540:CB:4884, H-A:TYR:539:N:4869, V-A:ILE:538:CB:4861, V-A:ILE:538:CA:4859, H-A:GLU:543:OE2:4909, H-A:ASP:366:OD2:3214, V-A:ILE:538:C:4857"]

$$$$
4cd_Grossjean_2025
     RDKit          3D

 43 46  0  0  0  0  0  0  0  0999 V2000
  132.7900  126.0230   62.8690 N   0  0  0  0  0  0  0  0  0  0  0  0
  132.2400  124.8740   63.3800 C   0  0  0  0  0  0  0  0  0  0  0  0
  131.7360  124.7780   64.6870 C   0  0  0  0  0  0  0  0  0  0  0  0
  131.7040  125.8070   65.7320 C   0  0  0  0  0  0  0  0  0  0  0  0
  132.7370  126.1440   66.3110 O   0  0  0  0  0  0  0  0  0  0  0  0
  130.4840  126.3380   65.9870 N   0  0  0  0  0  0  0  0  0  0  0  0
  130.1050  127.2930   66.9490 C   0  0  0  0  0  0  0  0  0  0  0  0
  129.1250  128.2070   66.5520 C   0  0  0  0  0  0  0  0  0  0  0  0
  128.6740  129.1820   67.4370 C   0  0  0  0  0  0  0  0  0  0  0  0
  129.1990  129.2400   68.7250 C   0  0  0  0  0  0  0  0  0  0  0  0
  130.1660  128.3270   69.1380 C   0  0  0  0  0  0  0  0  0  0  0  0
  130.6200  127.3500   68.2550 C   0  0  0  0  0  0  0  0  0  0  0  0
  131.0960  123.1670   65.0050 S   0  0  0  0  0  0  0  0  0  0  0  0
  131.5150  122.6340   63.3950 C   0  0  0  0  0  0  0  0  0  0  0  0
  131.2660  121.3910   62.9880 N   0  0  0  0  0  0  0  0  0  0  0  0
  131.6410  121.0650   61.7230 C   0  0  0  0  0  0  0  0  0  0  0  0
  131.3500  119.6560   61.2940 C   0  0  0  0  0  0  0  0  0  0  0  0
  130.2020  118.9880   61.7510 C   0  0  0  0  0  0  0  0  0  0  0  0
  129.9260  117.6820   61.3570 C   0  0  0  0  0  0  0  0  0  0  0  0
  130.7960  117.0230   60.4950 C   0  0  0  0  0  0  0  0  0  0  0  0
  131.9380  117.6630   60.0240 C   0  0  0  0  0  0  0  0  0  0  0  0
  132.2090  118.9690   60.4190 C   0  0  0  0  0  0  0  0  0  0  0  0
  132.2440  121.9920   60.8680 C   0  0  0  0  0  0  0  0  0  0  0  0
  132.5080  123.3070   61.2870 C   0  0  0  0  0  0  0  0  0  0  0  0
  133.1760  124.2710   60.2990 C   0  0  0  0  0  0  0  0  0  0  0  0
  134.3450  124.7440   60.7380 F   0  0  0  0  0  0  0  0  0  0  0  0
  133.4060  123.6470   59.1440 F   0  0  0  0  0  0  0  0  0  0  0  0
  132.3790  125.3180   60.0830 F   0  0  0  0  0  0  0  0  0  0  0  0
  132.1310  123.6560   62.6150 C   0  0  0  0  0  0  0  0  0  0  0  0
  132.2220  126.7500   62.4570 H   0  0  0  0  0  0  0  0  0  0  0  0
  133.7880  126.1820   62.8900 H   0  0  0  0  0  0  0  0  0  0  0  0
  129.7290  126.0200   65.3970 H   0  0  0  0  0  0  0  0  0  0  0  0
  128.7082  128.1556   65.5353 H   0  0  0  0  0  0  0  0  0  0  0  0
  127.9063  129.9033   67.1202 H   0  0  0  0  0  0  0  0  0  0  0  0
  128.8468  130.0140   69.4228 H   0  0  0  0  0  0  0  0  0  0  0  0
  130.5706  128.3772   70.1597 H   0  0  0  0  0  0  0  0  0  0  0  0
  131.3804  126.6244   68.5796 H   0  0  0  0  0  0  0  0  0  0  0  0
  129.5098  119.5055   62.4314 H   0  0  0  0  0  0  0  0  0  0  0  0
  129.0233  117.1730   61.7259 H   0  0  0  0  0  0  0  0  0  0  0  0
  130.5800  115.9902   60.1839 H   0  0  0  0  0  0  0  0  0  0  0  0
  132.6237  117.1386   59.3422 H   0  0  0  0  0  0  0  0  0  0  0  0
  133.1107  119.4725   60.0402 H   0  0  0  0  0  0  0  0  0  0  0  0
  132.5172  121.6861   59.8473 H   0  0  0  0  0  0  0  0  0  0  0  0
  1  2  1  0
  2  3  2  0
  3  4  1  0
  4  5  2  0
  4  6  1  0
  6  7  1  0
  7  8  2  0
  8  9  1  0
  9 10  2  0
 10 11  1  0
 11 12  2  0
  3 13  1  0
 13 14  1  0
 14 15  2  0
 15 16  1  0
 16 17  1  0
 17 18  2  0
 18 19  1  0
 19 20  2  0
 20 21  1  0
 21 22  2  0
 16 23  2  0
 23 24  1  0
 24 25  1  0
 25 26  1  0
 25 27  1  0
 25 28  1  0
 24 29  2  0
 29  2  1  0
 12  7  1  0
 29 14  1  0
 22 17  1  0
  1 30  1  0
  1 31  1  0
  6 32  1  0
  8 33  1  0
  9 34  1  0
 10 35  1  0
 11 36  1  0
 12 37  1  0
 18 38  1  0
 19 39  1  0
 20 40  1  0
 21 41  1  0
 22 42  1  0
 23 43  1  0
M  END
>  <Binding energies>  (1) 
[-7.85]

>  <Ligand effiencies>  (1) 
[-0.2453125]

>  <Interactions>  (1) 
["V-A:HIS:456:CE1:4069, V-B:GLU:543:CD:9879, V-B:HIS:456:CE1:9040, V-A:ARG:545:CZ:4925, V-A:TYR:484:CZ:4346, V-B:TYR:539:CD2:9845, V-B:TYR:539:C:9838, V-B:TYR:539:CE2:9847, V-A:ILE:369:CB:3235, V-A:LEU:475:CD2:4258, V-A:PRO:482:CG:4326, V-B:ALA:541:CB:9863, V-A:ILE:369:CG1:3237, V-B:TYR:539:CZ:9848, V-A:ASP:366:CG:3212, V-B:VAL:344:CG1:7971, H-B:GLU:543:OE2:9881, V-A:ILE:369:CG2:3236, V-B:TYR:539:CB:9842, V-A:ILE:369:CD1:3238, V-A:HIS:383:CE1:3393, V-A:PRO:482:CB:4325, V-A:GLU:543:CD:4907, V-A:GLU:543:CG:4906, V-A:ASP:366:CB:3211, V-A:GLU:543:CB:4905, H-A:TYR:484:OH:4347, V-A:TYR:484:CE2:4345, H-A:ASP:366:OD2:3214, H-A:ASP:366:OD1:3213, H-A:ARG:545:NE:4923, V-A:ASP:366:CA:3209"]

$$$$
4ce_Grossjean_2025
     RDKit          3D

 45 48  0  0  0  0  0  0  0  0999 V2000
  128.1630  130.2200   66.8330 C   0  0  0  0  0  0  0  0  0  0  0  0
  129.0040  129.0520   67.3110 C   0  0  0  0  0  0  0  0  0  0  0  0
  129.3680  128.9150   68.6540 C   0  0  0  0  0  0  0  0  0  0  0  0
  130.1360  127.8100   69.0240 C   0  0  0  0  0  0  0  0  0  0  0  0
  130.5170  126.8790   68.0560 C   0  0  0  0  0  0  0  0  0  0  0  0
  130.1230  127.0800   66.7270 C   0  0  0  0  0  0  0  0  0  0  0  0
  130.5170  126.0960   65.8030 N   0  0  0  0  0  0  0  0  0  0  0  0
  131.7660  125.6460   65.5220 C   0  0  0  0  0  0  0  0  0  0  0  0
  132.7830  126.0530   66.0860 O   0  0  0  0  0  0  0  0  0  0  0  0
  131.8450  124.6170   64.4820 C   0  0  0  0  0  0  0  0  0  0  0  0
  131.2300  122.9950   64.7910 S   0  0  0  0  0  0  0  0  0  0  0  0
  131.6400  122.4840   63.1720 C   0  0  0  0  0  0  0  0  0  0  0  0
  131.3950  121.2450   62.7530 N   0  0  0  0  0  0  0  0  0  0  0  0
  131.7340  120.9440   61.4710 C   0  0  0  0  0  0  0  0  0  0  0  0
  131.4400  119.5410   61.0290 C   0  0  0  0  0  0  0  0  0  0  0  0
  130.2930  118.8710   61.4850 C   0  0  0  0  0  0  0  0  0  0  0  0
  130.0170  117.5670   61.0840 C   0  0  0  0  0  0  0  0  0  0  0  0
  130.8850  116.9130   60.2170 C   0  0  0  0  0  0  0  0  0  0  0  0
  132.0280  117.5530   59.7510 C   0  0  0  0  0  0  0  0  0  0  0  0
  132.3030  118.8570   60.1560 C   0  0  0  0  0  0  0  0  0  0  0  0
  132.3370  121.8810   60.6260 C   0  0  0  0  0  0  0  0  0  0  0  0
  132.6050  123.1890   61.0600 C   0  0  0  0  0  0  0  0  0  0  0  0
  133.2650  124.1660   60.0810 C   0  0  0  0  0  0  0  0  0  0  0  0
  132.4790  125.1950   59.7570 F   0  0  0  0  0  0  0  0  0  0  0  0
  134.3750  124.6670   60.6250 F   0  0  0  0  0  0  0  0  0  0  0  0
  133.5770  123.5310   58.9520 F   0  0  0  0  0  0  0  0  0  0  0  0
  132.2390  123.5200   62.3970 C   0  0  0  0  0  0  0  0  0  0  0  0
  132.3450  124.7300   63.1740 C   0  0  0  0  0  0  0  0  0  0  0  0
  132.8860  125.8870   62.6750 N   0  0  0  0  0  0  0  0  0  0  0  0
  129.3680  128.1560   66.3580 N   0  0  0  0  0  0  0  0  0  0  0  0
  127.7687  130.7677   67.7017 H   0  0  0  0  0  0  0  0  0  0  0  0
  128.7840  130.8946   66.2253 H   0  0  0  0  0  0  0  0  0  0  0  0
  127.3263  129.8450   66.2253 H   0  0  0  0  0  0  0  0  0  0  0  0
  129.0566  129.6601   69.4009 H   0  0  0  0  0  0  0  0  0  0  0  0
  130.4394  127.6734   70.0725 H   0  0  0  0  0  0  0  0  0  0  0  0
  131.1179  126.0003   68.3330 H   0  0  0  0  0  0  0  0  0  0  0  0
  129.7560  125.6450   65.3170 H   0  0  0  0  0  0  0  0  0  0  0  0
  129.6021  119.3847   62.1696 H   0  0  0  0  0  0  0  0  0  0  0  0
  129.1152  117.0557   61.4518 H   0  0  0  0  0  0  0  0  0  0  0  0
  130.6662  115.8833   59.8979 H   0  0  0  0  0  0  0  0  0  0  0  0
  132.7122  117.0317   59.0654 H   0  0  0  0  0  0  0  0  0  0  0  0
  133.2095  119.3590   59.7869 H   0  0  0  0  0  0  0  0  0  0  0  0
  132.6067  121.5873   59.6008 H   0  0  0  0  0  0  0  0  0  0  0  0
  133.8780  125.9880   62.5120 H   0  0  0  0  0  0  0  0  0  0  0  0
  132.3060  126.6860   62.4550 H   0  0  0  0  0  0  0  0  0  0  0  0
  1  2  1  0
  2  3  2  0
  3  4  1  0
  4  5  2  0
  5  6  1  0
  6  7  1  0
  7  8  1  0
  8  9  2  0
  8 10  1  0
 10 11  1  0
 11 12  1  0
 12 13  2  0
 13 14  1  0
 14 15  1  0
 15 16  2  0
 16 17  1  0
 17 18  2  0
 18 19  1  0
 19 20  2  0
 14 21  2  0
 21 22  1  0
 22 23  1  0
 23 24  1  0
 23 25  1  0
 23 26  1  0
 22 27  2  0
 27 28  1  0
 28 29  1  0
  6 30  2  0
 30  2  1  0
 28 10  2  0
 27 12  1  0
 20 15  1  0
  1 31  1  0
  1 32  1  0
  1 33  1  0
  3 34  1  0
  4 35  1  0
  5 36  1  0
  7 37  1  0
 16 38  1  0
 17 39  1  0
 18 40  1  0
 19 41  1  0
 20 42  1  0
 21 43  1  0
 29 44  1  0
 29 45  1  0
M  END
>  <Binding energies>  (1) 
[-7.93]

>  <Ligand effiencies>  (1) 
[-0.2403030303030303]

>  <Interactions>  (1) 
["V-A:HIS:456:CE1:4069, V-B:GLU:543:CD:9879, V-A:ARG:545:CZ:4925, V-A:TYR:484:CZ:4346, V-B:TYR:539:CD2:9845, V-B:TYR:539:C:9838, V-B:TYR:539:CE2:9847, V-A:ILE:369:CB:3235, V-A:LEU:475:CD2:4258, V-A:PRO:482:CG:4326, V-B:ALA:541:CB:9863, V-A:ILE:369:CG1:3237, V-B:TYR:539:CZ:9848, V-A:ASP:366:CG:3212, V-B:VAL:344:CG1:7971, H-B:GLU:543:OE2:9881, V-A:ILE:369:CG2:3236, V-B:TYR:539:CB:9842, V-A:ILE:369:CD1:3238, V-A:HIS:383:CE1:3393, V-A:PRO:482:CB:4325, V-A:GLU:543:CD:4907, V-A:GLU:543:CG:4906, V-A:ASP:366:CB:3211, V-A:GLU:543:CB:4905, H-A:TYR:484:OH:4347, H-A:ASP:366:OD2:3214, H-A:ASP:366:OD1:3213, V-B:TYR:484:CE2:9316, H-A:ARG:545:NE:4923, V-A:ASP:366:CA:3209"]

$$$$
4cf_Grossjean_2025
     RDKit          3D

 42 45  0  0  0  0  0  0  0  0999 V2000
  132.9760  125.9060   62.8650 N   0  0  0  0  0  0  0  0  0  0  0  0
  132.3330  124.7960   63.3510 C   0  0  0  0  0  0  0  0  0  0  0  0
  131.7420  124.7450   64.6240 C   0  0  0  0  0  0  0  0  0  0  0  0
  131.7140  125.7800   65.6610 C   0  0  0  0  0  0  0  0  0  0  0  0
  132.7550  126.1480   66.2070 O   0  0  0  0  0  0  0  0  0  0  0  0
  130.4890  126.2850   65.9440 N   0  0  0  0  0  0  0  0  0  0  0  0
  130.1130  127.2400   66.9080 C   0  0  0  0  0  0  0  0  0  0  0  0
  130.6490  127.3460   68.2060 C   0  0  0  0  0  0  0  0  0  0  0  0
  130.1730  128.3340   69.0710 C   0  0  0  0  0  0  0  0  0  0  0  0
  129.1710  129.1930   68.6180 C   0  0  0  0  0  0  0  0  0  0  0  0
  128.6330  129.1080   67.3750 N   0  0  0  0  0  0  0  0  0  0  0  0
  129.1050  128.1410   66.5460 C   0  0  0  0  0  0  0  0  0  0  0  0
  131.0010  123.1730   64.9180 S   0  0  0  0  0  0  0  0  0  0  0  0
  131.4930  122.5960   63.3430 C   0  0  0  0  0  0  0  0  0  0  0  0
  131.2100  121.3600   62.9370 N   0  0  0  0  0  0  0  0  0  0  0  0
  131.6490  120.9970   61.7030 C   0  0  0  0  0  0  0  0  0  0  0  0
  131.3220  119.5970   61.2740 C   0  0  0  0  0  0  0  0  0  0  0  0
  130.1650  118.9550   61.7420 C   0  0  0  0  0  0  0  0  0  0  0  0
  129.8540  117.6560   61.3490 C   0  0  0  0  0  0  0  0  0  0  0  0
  130.6980  116.9790   60.4760 C   0  0  0  0  0  0  0  0  0  0  0  0
  131.8500  117.5920   59.9930 C   0  0  0  0  0  0  0  0  0  0  0  0
  132.1570  118.8910   60.3890 C   0  0  0  0  0  0  0  0  0  0  0  0
  132.3480  121.8830   60.8760 C   0  0  0  0  0  0  0  0  0  0  0  0
  132.6470  123.1890   61.2940 C   0  0  0  0  0  0  0  0  0  0  0  0
  133.4200  124.1050   60.3390 C   0  0  0  0  0  0  0  0  0  0  0  0
  132.6850  125.1170   59.8730 F   0  0  0  0  0  0  0  0  0  0  0  0
  134.4690  124.6330   60.9710 F   0  0  0  0  0  0  0  0  0  0  0  0
  133.8460  123.4060   59.2870 F   0  0  0  0  0  0  0  0  0  0  0  0
  132.2070  123.5750   62.5930 C   0  0  0  0  0  0  0  0  0  0  0  0
  132.4690  126.7050   62.5120 H   0  0  0  0  0  0  0  0  0  0  0  0
  133.9850  125.9620   62.8440 H   0  0  0  0  0  0  0  0  0  0  0  0
  129.7240  125.9350   65.3860 H   0  0  0  0  0  0  0  0  0  0  0  0
  131.4381  126.6546   68.5367 H   0  0  0  0  0  0  0  0  0  0  0  0
  130.5796  128.4329   70.0883 H   0  0  0  0  0  0  0  0  0  0  0  0
  128.8007  129.9738   69.2987 H   0  0  0  0  0  0  0  0  0  0  0  0
  128.6725  128.0619   65.5377 H   0  0  0  0  0  0  0  0  0  0  0  0
  129.4925  119.4871   62.4309 H   0  0  0  0  0  0  0  0  0  0  0  0
  128.9442  117.1674   61.7277 H   0  0  0  0  0  0  0  0  0  0  0  0
  130.4536  115.9525   60.1652 H   0  0  0  0  0  0  0  0  0  0  0  0
  132.5147  117.0531   59.3019 H   0  0  0  0  0  0  0  0  0  0  0  0
  133.0674  119.3732   60.0035 H   0  0  0  0  0  0  0  0  0  0  0  0
  132.6696  121.5494   59.8784 H   0  0  0  0  0  0  0  0  0  0  0  0
  1  2  1  0
  2  3  2  0
  3  4  1  0
  4  5  2  0
  4  6  1  0
  6  7  1  0
  7  8  2  0
  8  9  1  0
  9 10  2  0
 10 11  1  0
 11 12  2  0
  3 13  1  0
 13 14  1  0
 14 15  2  0
 15 16  1  0
 16 17  1  0
 17 18  2  0
 18 19  1  0
 19 20  2  0
 20 21  1  0
 21 22  2  0
 16 23  2  0
 23 24  1  0
 24 25  1  0
 25 26  1  0
 25 27  1  0
 25 28  1  0
 24 29  2  0
 29  2  1  0
 12  7  1  0
 29 14  1  0
 22 17  1  0
  1 30  1  0
  1 31  1  0
  6 32  1  0
  8 33  1  0
  9 34  1  0
 10 35  1  0
 12 36  1  0
 18 37  1  0
 19 38  1  0
 20 39  1  0
 21 40  1  0
 22 41  1  0
 23 42  1  0
M  END
>  <Binding energies>  (1) 
[-7.64]

>  <Ligand effiencies>  (1) 
[-0.23875]

>  <Interactions>  (1) 
["V-A:HIS:456:CE1:4069, V-B:GLU:543:CD:9879, V-B:HIS:456:CE1:9040, V-A:ARG:545:CZ:4925, V-A:TYR:484:CZ:4346, V-B:TYR:539:CD2:9845, V-B:TYR:539:C:9838, V-B:TYR:539:CE2:9847, V-A:ILE:369:CB:3235, V-A:LEU:475:CD2:4258, V-A:PRO:482:CG:4326, V-B:ALA:541:CB:9863, V-A:ILE:369:CG1:3237, V-A:ASP:366:CG:3212, V-B:VAL:344:CG1:7971, H-B:GLU:543:OE2:9881, V-A:ILE:369:CG2:3236, V-B:TYR:539:CB:9842, V-A:ILE:369:CD1:3238, V-A:HIS:383:CE1:3393, V-A:PRO:482:CB:4325, V-A:GLU:543:CD:4907, V-A:GLU:543:CG:4906, V-A:ASP:366:CB:3211, V-A:GLU:543:CB:4905, H-A:TYR:484:OH:4347, V-A:TYR:484:CE2:4345, H-A:ASP:366:OD2:3214, H-A:ASP:366:OD1:3213, H-A:ARG:545:NE:4923, V-A:ASP:366:CA:3209"]

$$$$
4cg_Grossjean_2025
     RDKit          3D

 46 49  0  0  0  0  0  0  0  0999 V2000
  129.3380  125.3780   63.7560 N   0  0  0  0  0  0  0  0  0  0  0  0
  130.3830  124.4900   63.7720 C   0  0  0  0  0  0  0  0  0  0  0  0
  131.5110  124.6450   64.5900 C   0  0  0  0  0  0  0  0  0  0  0  0
  131.7840  125.6880   65.5780 C   0  0  0  0  0  0  0  0  0  0  0  0
  132.8800  126.2500   65.6330 O   0  0  0  0  0  0  0  0  0  0  0  0
  130.7830  125.9620   66.4420 N   0  0  0  0  0  0  0  0  0  0  0  0
  130.8250  126.9770   67.4930 C   0  0  0  0  0  0  0  0  0  0  0  0
  129.5060  127.1280   68.2430 C   0  0  0  0  0  0  0  0  0  0  0  0
  128.5780  128.0870   67.8280 C   0  0  0  0  0  0  0  0  0  0  0  0
  127.3590  128.2080   68.4900 C   0  0  0  0  0  0  0  0  0  0  0  0
  127.0690  127.3620   69.5580 C   0  0  0  0  0  0  0  0  0  0  0  0
  127.9830  126.3930   69.9670 C   0  0  0  0  0  0  0  0  0  0  0  0
  129.2010  126.2720   69.3040 C   0  0  0  0  0  0  0  0  0  0  0  0
  132.6480  123.3170   64.3760 S   0  0  0  0  0  0  0  0  0  0  0  0
  131.6170  122.5750   63.1750 C   0  0  0  0  0  0  0  0  0  0  0  0
  131.9570  121.4370   62.5760 N   0  0  0  0  0  0  0  0  0  0  0  0
  131.0910  120.9320   61.6590 C   0  0  0  0  0  0  0  0  0  0  0  0
  131.5050  119.6470   61.0000 C   0  0  0  0  0  0  0  0  0  0  0  0
  132.7030  119.5630   60.2720 C   0  0  0  0  0  0  0  0  0  0  0  0
  133.0900  118.3760   59.6580 C   0  0  0  0  0  0  0  0  0  0  0  0
  132.2810  117.2490   59.7630 C   0  0  0  0  0  0  0  0  0  0  0  0
  131.0880  117.3040   60.4750 C   0  0  0  0  0  0  0  0  0  0  0  0
  130.7050  118.4940   61.0870 C   0  0  0  0  0  0  0  0  0  0  0  0
  129.8960  121.5840   61.3360 C   0  0  0  0  0  0  0  0  0  0  0  0
  129.5270  122.7860   61.9610 C   0  0  0  0  0  0  0  0  0  0  0  0
  128.2040  123.4470   61.5580 C   0  0  0  0  0  0  0  0  0  0  0  0
  127.5820  122.8110   60.5640 F   0  0  0  0  0  0  0  0  0  0  0  0
  127.3740  123.4670   62.6020 F   0  0  0  0  0  0  0  0  0  0  0  0
  128.4300  124.6960   61.1530 F   0  0  0  0  0  0  0  0  0  0  0  0
  130.4220  123.3160   62.9350 C   0  0  0  0  0  0  0  0  0  0  0  0
  129.0300  125.8560   64.5910 H   0  0  0  0  0  0  0  0  0  0  0  0
  128.8440  125.5930   62.9010 H   0  0  0  0  0  0  0  0  0  0  0  0
  129.8900  125.5160   66.2910 H   0  0  0  0  0  0  0  0  0  0  0  0
  131.6067  126.6988   68.2152 H   0  0  0  0  0  0  0  0  0  0  0  0
  131.0330  127.9407   67.0052 H   0  0  0  0  0  0  0  0  0  0  0  0
  128.8105  128.7461   66.9786 H   0  0  0  0  0  0  0  0  0  0  0  0
  126.6294  128.9671   68.1715 H   0  0  0  0  0  0  0  0  0  0  0  0
  126.1080  127.4600   70.0842 H   0  0  0  0  0  0  0  0  0  0  0  0
  127.7433  125.7273   70.8092 H   0  0  0  0  0  0  0  0  0  0  0  0
  129.9230  125.5027   69.6154 H   0  0  0  0  0  0  0  0  0  0  0  0
  133.3465  120.4510   60.1857 H   0  0  0  0  0  0  0  0  0  0  0  0
  134.0319  118.3288   59.0918 H   0  0  0  0  0  0  0  0  0  0  0  0
  132.5869  116.3092   59.2800 H   0  0  0  0  0  0  0  0  0  0  0  0
  130.4500  116.4114   60.5542 H   0  0  0  0  0  0  0  0  0  0  0  0
  129.7599  118.5331   61.6485 H   0  0  0  0  0  0  0  0  0  0  0  0
  129.2317  121.1458   60.5766 H   0  0  0  0  0  0  0  0  0  0  0  0
  1  2  1  0
  2  3  2  0
  3  4  1  0
  4  5  2  0
  4  6  1  0
  6  7  1  0
  7  8  1  0
  8  9  2  0
  9 10  1  0
 10 11  2  0
 11 12  1  0
 12 13  2  0
  3 14  1  0
 14 15  1  0
 15 16  2  0
 16 17  1  0
 17 18  1  0
 18 19  2  0
 19 20  1  0
 20 21  2  0
 21 22  1  0
 22 23  2  0
 17 24  2  0
 24 25  1  0
 25 26  1  0
 26 27  1  0
 26 28  1  0
 26 29  1  0
 25 30  2  0
 30  2  1  0
 13  8  1  0
 30 15  1  0
 23 18  1  0
  1 31  1  0
  1 32  1  0
  6 33  1  0
  7 34  1  0
  7 35  1  0
  9 36  1  0
 10 37  1  0
 11 38  1  0
 12 39  1  0
 13 40  1  0
 19 41  1  0
 20 42  1  0
 21 43  1  0
 22 44  1  0
 23 45  1  0
 24 46  1  0
M  END
>  <Binding energies>  (1) 
[-8.24]

>  <Ligand effiencies>  (1) 
[-0.2496969696969697]

>  <Interactions>  (1) 
["V-B:GLU:543:CB:9877, V-A:HIS:456:CE1:4069, V-B:GLU:543:C:9873, V-B:GLU:543:CD:9879, V-B:HIS:456:CE1:9040, V-B:PRO:540:N:9855, V-B:PRO:540:CB:9856, V-B:TYR:539:CD2:9845, V-B:PRO:540:CA:9854, V-B:TYR:539:CE2:9847, V-A:LEU:475:CD2:4258, V-B:ALA:541:CB:9863, H-B:GLU:543:OE2:9881, V-A:ILE:369:CG2:3236, V-B:TYR:539:CB:9842, V-A:HIS:383:CE1:3393, V-A:GLU:543:CD:4907, H-B:GLU:543:OE1:9880, V-A:GLY:454:CA:4048, V-A:SER:385:CA:3406, H-A:TYR:484:OH:4347, H-A:ARG:545:NH2:4927, V-A:LEU:373:CD2:3280, H-A:ARG:545:NE:4923, V-B:PRO:540:C:9852, V-A:VAL:384:C:3396, V-A:HIS:383:CG:3389"]

$$$$
4ch_Grossjean_2025
     RDKit          3D

 58 61  0  0  0  0  0  0  0  0999 V2000
  128.2560  130.2580   64.6560 C   0  0  0  0  0  0  0  0  0  0  0  0
  127.3330  129.8780   65.6720 O   0  0  0  0  0  0  0  0  0  0  0  0
  127.7080  128.9330   66.6090 C   0  0  0  0  0  0  0  0  0  0  0  0
  128.9690  128.3160   66.6400 C   0  0  0  0  0  0  0  0  0  0  0  0
  129.2790  127.3690   67.6170 C   0  0  0  0  0  0  0  0  0  0  0  0
  130.6440  126.6900   67.6180 C   0  0  0  0  0  0  0  0  0  0  0  0
  130.8510  125.7580   66.5080 N   0  0  0  0  0  0  0  0  0  0  0  0
  131.9710  125.6650   65.7620 C   0  0  0  0  0  0  0  0  0  0  0  0
  132.9670  126.3620   65.9710 O   0  0  0  0  0  0  0  0  0  0  0  0
  131.9540  124.6560   64.7020 C   0  0  0  0  0  0  0  0  0  0  0  0
  131.2800  123.0600   65.0150 S   0  0  0  0  0  0  0  0  0  0  0  0
  131.6000  122.5550   63.3740 C   0  0  0  0  0  0  0  0  0  0  0  0
  131.2950  121.3310   62.9510 N   0  0  0  0  0  0  0  0  0  0  0  0
  131.5760  121.0310   61.6560 C   0  0  0  0  0  0  0  0  0  0  0  0
  131.2250  119.6390   61.2130 C   0  0  0  0  0  0  0  0  0  0  0  0
  130.0890  118.9880   61.7220 C   0  0  0  0  0  0  0  0  0  0  0  0
  129.7580  117.6970   61.3160 C   0  0  0  0  0  0  0  0  0  0  0  0
  130.5620  117.0370   60.3930 C   0  0  0  0  0  0  0  0  0  0  0  0
  131.6940  117.6580   59.8750 C   0  0  0  0  0  0  0  0  0  0  0  0
  132.0220  118.9470   60.2860 C   0  0  0  0  0  0  0  0  0  0  0  0
  132.1770  121.9560   60.7980 C   0  0  0  0  0  0  0  0  0  0  0  0
  132.5050  123.2500   61.2330 C   0  0  0  0  0  0  0  0  0  0  0  0
  133.1630  124.2150   60.2400 C   0  0  0  0  0  0  0  0  0  0  0  0
  134.3020  124.7410   60.6960 F   0  0  0  0  0  0  0  0  0  0  0  0
  133.4460  123.5730   59.1080 F   0  0  0  0  0  0  0  0  0  0  0  0
  132.3350  125.2250   59.9760 F   0  0  0  0  0  0  0  0  0  0  0  0
  132.2030  123.5790   62.5850 C   0  0  0  0  0  0  0  0  0  0  0  0
  132.3830  124.7760   63.3710 C   0  0  0  0  0  0  0  0  0  0  0  0
  132.9340  125.9240   62.8620 N   0  0  0  0  0  0  0  0  0  0  0  0
  128.3180  127.0190   68.5660 C   0  0  0  0  0  0  0  0  0  0  0  0
  127.0480  127.6190   68.5580 C   0  0  0  0  0  0  0  0  0  0  0  0
  126.0490  127.3220   69.4680 O   0  0  0  0  0  0  0  0  0  0  0  0
  126.3800  126.6390   70.6720 C   0  0  0  0  0  0  0  0  0  0  0  0
  126.7580  128.5790   67.5780 C   0  0  0  0  0  0  0  0  0  0  0  0
  125.5150  129.1620   67.5500 O   0  0  0  0  0  0  0  0  0  0  0  0
  124.7450  128.8310   66.4020 C   0  0  0  0  0  0  0  0  0  0  0  0
  129.1777  130.6375   65.1213 H   0  0  0  0  0  0  0  0  0  0  0  0
  128.4935  129.3845   64.0310 H   0  0  0  0  0  0  0  0  0  0  0  0
  127.8096  131.0455   64.0310 H   0  0  0  0  0  0  0  0  0  0  0  0
  129.7224  128.5827   65.8842 H   0  0  0  0  0  0  0  0  0  0  0  0
  131.4175  127.4701   67.5623 H   0  0  0  0  0  0  0  0  0  0  0  0
  130.7020  126.0979   68.5432 H   0  0  0  0  0  0  0  0  0  0  0  0
  130.0550  125.1940   66.2470 H   0  0  0  0  0  0  0  0  0  0  0  0
  129.4505  119.5059   62.4529 H   0  0  0  0  0  0  0  0  0  0  0  0
  128.8644  117.2018   61.7238 H   0  0  0  0  0  0  0  0  0  0  0  0
  130.3014  116.0181   60.0707 H   0  0  0  0  0  0  0  0  0  0  0  0
  132.3268  117.1331   59.1442 H   0  0  0  0  0  0  0  0  0  0  0  0
  132.9209  119.4321   59.8778 H   0  0  0  0  0  0  0  0  0  0  0  0
  132.3976  121.6643   59.7606 H   0  0  0  0  0  0  0  0  0  0  0  0
  132.3630  126.6740   62.4960 H   0  0  0  0  0  0  0  0  0  0  0  0
  133.9340  126.0610   62.8390 H   0  0  0  0  0  0  0  0  0  0  0  0
  128.5577  126.2643   69.3295 H   0  0  0  0  0  0  0  0  0  0  0  0
  126.0827  127.2525   71.5352 H   0  0  0  0  0  0  0  0  0  0  0  0
  125.8483  125.6766   70.7057 H   0  0  0  0  0  0  0  0  0  0  0  0
  127.4648  126.4600   70.7057 H   0  0  0  0  0  0  0  0  0  0  0  0
  123.7768  128.4148   66.7174 H   0  0  0  0  0  0  0  0  0  0  0  0
  124.5764  129.7361   65.8001 H   0  0  0  0  0  0  0  0  0  0  0  0
  125.2858  128.0859   65.8001 H   0  0  0  0  0  0  0  0  0  0  0  0
  1  2  1  0
  2  3  1  0
  3  4  2  0
  4  5  1  0
  5  6  1  0
  6  7  1  0
  7  8  1  0
  8  9  2  0
  8 10  1  0
 10 11  1  0
 11 12  1  0
 12 13  2  0
 13 14  1  0
 14 15  1  0
 15 16  2  0
 16 17  1  0
 17 18  2  0
 18 19  1  0
 19 20  2  0
 14 21  2  0
 21 22  1  0
 22 23  1  0
 23 24  1  0
 23 25  1  0
 23 26  1  0
 22 27  2  0
 27 28  1  0
 28 29  1  0
  5 30  2  0
 30 31  1  0
 31 32  1  0
 32 33  1  0
 31 34  2  0
 34 35  1  0
 35 36  1  0
 34  3  1  0
 28 10  2  0
 27 12  1  0
 20 15  1  0
  1 37  1  0
  1 38  1  0
  1 39  1  0
  4 40  1  0
  6 41  1  0
  6 42  1  0
  7 43  1  0
 16 44  1  0
 17 45  1  0
 18 46  1  0
 19 47  1  0
 20 48  1  0
 21 49  1  0
 29 50  1  0
 29 51  1  0
 30 52  1  0
 33 53  1  0
 33 54  1  0
 33 55  1  0
 36 56  1  0
 36 57  1  0
 36 58  1  0
M  END
>  <Binding energies>  (1) 
[-7.68]

>  <Ligand effiencies>  (1) 
[-0.19692307692307692]

>  <Interactions>  (1) 
["V-B:GLU:543:CB:9877, V-A:HIS:456:CE1:4069, V-B:GLU:543:C:9873, V-B:GLY:544:C:9883, V-B:ARG:545:CA:9890, V-B:ARG:545:CD:9894, V-B:GLU:543:CD:9879, V-B:HIS:456:CE1:9040, V-B:ARG:545:CG:9893, V-A:ARG:545:CZ:4925, V-A:TYR:484:CZ:4346, V-B:TYR:539:CD2:9845, V-B:TYR:539:C:9838, V-B:TYR:539:CE2:9847, V-B:ARG:545:CZ:9897, V-B:GLY:544:CA:9885, V-A:ILE:369:CB:3235, V-A:LEU:475:CD2:4258, V-A:PRO:482:CG:4326, V-B:ALA:541:CB:9863, V-A:ILE:369:CG1:3237, V-B:TYR:539:CZ:9848, V-A:ASP:366:CG:3212, V-B:VAL:344:CG1:7971, H-B:GLU:543:OE2:9881, V-A:ILE:369:CG2:3236, V-B:TYR:539:CB:9842, V-A:ILE:369:CD1:3238, V-A:HIS:383:CE1:3393, V-A:PRO:482:CB:4325, V-A:GLU:543:CD:4907, V-A:GLU:543:CG:4906, V-A:ASP:366:CB:3211, H-B:TYR:484:OH:9318, H-A:TYR:484:OH:4347, V-A:TYR:484:CE2:4345, H-B:HIS:456:ND1:9037, H-A:ARG:545:NH2:4927, H-A:ASP:366:OD2:3214, H-A:ASP:366:OD1:3213, H-A:ARG:545:NE:4923, V-A:ASP:366:CA:3209, H-B:ARG:545:N:9891"]

$$$$
4ci_Grossjean_2025
     RDKit          3D

 39 42  0  0  0  0  0  0  0  0999 V2000
  128.9680  124.1830   63.9100 N   0  0  0  0  0  0  0  0  0  0  0  0
  129.4010  123.9290   62.6340 C   0  0  0  0  0  0  0  0  0  0  0  0
  130.7590  123.8740   62.2800 C   0  0  0  0  0  0  0  0  0  0  0  0
  131.9340  124.0490   63.1370 C   0  0  0  0  0  0  0  0  0  0  0  0
  132.8990  123.2870   63.0460 O   0  0  0  0  0  0  0  0  0  0  0  0
  131.8660  125.0790   64.0180 N   0  0  0  0  0  0  0  0  0  0  0  0
  132.8270  125.4670   64.9420 C   0  0  0  0  0  0  0  0  0  0  0  0
  132.5150  125.9180   66.2240 C   0  0  0  0  0  0  0  0  0  0  0  0
  133.7270  126.1980   66.8110 C   0  0  0  0  0  0  0  0  0  0  0  0
  134.7190  125.9280   65.9290 O   0  0  0  0  0  0  0  0  0  0  0  0
  134.1360  125.4660   64.7480 N   0  0  0  0  0  0  0  0  0  0  0  0
  130.9560  123.5170   60.5660 S   0  0  0  0  0  0  0  0  0  0  0  0
  129.2240  123.4540   60.3340 C   0  0  0  0  0  0  0  0  0  0  0  0
  128.6910  123.2010   59.1410 N   0  0  0  0  0  0  0  0  0  0  0  0
  127.3350  123.1690   59.0590 C   0  0  0  0  0  0  0  0  0  0  0  0
  126.7640  122.8860   57.6990 C   0  0  0  0  0  0  0  0  0  0  0  0
  127.5760  122.3930   56.6650 C   0  0  0  0  0  0  0  0  0  0  0  0
  127.0510  122.1270   55.4020 C   0  0  0  0  0  0  0  0  0  0  0  0
  125.7010  122.3530   55.1550 C   0  0  0  0  0  0  0  0  0  0  0  0
  124.8750  122.8450   56.1590 C   0  0  0  0  0  0  0  0  0  0  0  0
  125.4040  123.1100   57.4190 C   0  0  0  0  0  0  0  0  0  0  0  0
  126.5230  123.4080   60.1720 C   0  0  0  0  0  0  0  0  0  0  0  0
  127.0750  123.6760   61.4360 C   0  0  0  0  0  0  0  0  0  0  0  0
  126.1250  123.9290   62.6120 C   0  0  0  0  0  0  0  0  0  0  0  0
  126.4990  123.3050   63.7310 F   0  0  0  0  0  0  0  0  0  0  0  0
  126.0800  125.2340   62.8800 F   0  0  0  0  0  0  0  0  0  0  0  0
  124.9010  123.5000   62.3050 F   0  0  0  0  0  0  0  0  0  0  0  0
  128.4950  123.7000   61.5340 C   0  0  0  0  0  0  0  0  0  0  0  0
  128.5140  123.4750   64.4710 H   0  0  0  0  0  0  0  0  0  0  0  0
  129.0940  125.0900   64.3370 H   0  0  0  0  0  0  0  0  0  0  0  0
  131.0230  125.6330   64.0120 H   0  0  0  0  0  0  0  0  0  0  0  0
  131.5152  126.0265   66.6698 H   0  0  0  0  0  0  0  0  0  0  0  0
  133.8681  126.5800   67.8329 H   0  0  0  0  0  0  0  0  0  0  0  0
  128.6445  122.2138   56.8552 H   0  0  0  0  0  0  0  0  0  0  0  0
  127.7014  121.7400   54.6037 H   0  0  0  0  0  0  0  0  0  0  0  0
  125.2845  122.1411   54.1592 H   0  0  0  0  0  0  0  0  0  0  0  0
  123.8083  123.0241   55.9587 H   0  0  0  0  0  0  0  0  0  0  0  0
  124.7469  123.5015   58.2095 H   0  0  0  0  0  0  0  0  0  0  0  0
  125.4294  123.3857   60.0556 H   0  0  0  0  0  0  0  0  0  0  0  0
  1  2  1  0
  2  3  2  0
  3  4  1  0
  4  5  2  0
  4  6  1  0
  6  7  1  0
  7  8  1  0
  8  9  2  0
  9 10  1  0
 10 11  1  0
  3 12  1  0
 12 13  1  0
 13 14  2  0
 14 15  1  0
 15 16  1  0
 16 17  2  0
 17 18  1  0
 18 19  2  0
 19 20  1  0
 20 21  2  0
 15 22  2  0
 22 23  1  0
 23 24  1  0
 24 25  1  0
 24 26  1  0
 24 27  1  0
 23 28  2  0
 28  2  1  0
 11  7  2  0
 28 13  1  0
 21 16  1  0
  1 29  1  0
  1 30  1  0
  6 31  1  0
  8 32  1  0
  9 33  1  0
 17 34  1  0
 18 35  1  0
 19 36  1  0
 20 37  1  0
 21 38  1  0
 22 39  1  0
M  END
>  <Binding energies>  (1) 
[-7.75]

>  <Ligand effiencies>  (1) 
[-0.25]

>  <Interactions>  (1) 
["V-B:GLU:543:CD:9879, V-B:TYR:531:CZ:9765, V-A:ARG:545:CZ:4925, V-B:PRO:540:N:9855, V-A:ARG:545:CD:4922, V-B:PRO:540:CB:9856, V-B:TYR:539:CD2:9845, V-B:TYR:539:C:9838, V-B:MET:535:CE:9806, V-B:TYR:531:CE2:9764, V-B:PRO:540:CA:9854, V-B:LEU:363:CD1:8159, V-A:ARG:545:CG:4921, V-B:TYR:539:CE2:9847, V-B:ARG:545:CZ:9897, V-B:ILE:538:CB:9833, V-B:TYR:539:CZ:9848, V-B:TYR:539:CE1:9846, V-B:MET:535:CG:9804, V-B:TYR:539:CA:9840, H-B:GLU:543:OE2:9881, V-B:TYR:539:CD1:9844, V-B:ILE:538:CD1:9836, V-B:TYR:539:CG:9843, V-B:ILE:538:CG2:9834, V-B:ILE:538:CA:9831, H-B:GLU:543:OE1:9880, V-B:ALA:541:C:9859, H-A:GLY:454:N:4049, V-B:GLU:543:CG:9878, V-B:PRO:540:CD:9858, V-B:ILE:538:C:9829, H-A:ARG:545:NH2:4927, V-B:ALA:541:CA:9861, H-A:ARG:545:NH1:4926, H-A:ARG:545:NE:4923"]

$$$$
4cj_Grossjean_2025
     RDKit          3D

 39 42  0  0  0  0  0  0  0  0999 V2000
  132.1630  125.3590   61.5050 N   0  0  0  0  0  0  0  0  0  0  0  0
  130.9680  124.6900   61.5820 C   0  0  0  0  0  0  0  0  0  0  0  0
  130.4410  124.1950   62.7860 C   0  0  0  0  0  0  0  0  0  0  0  0
  131.0050  124.2840   64.1350 C   0  0  0  0  0  0  0  0  0  0  0  0
  130.6580  123.4940   65.0170 O   0  0  0  0  0  0  0  0  0  0  0  0
  131.9030  125.2810   64.3270 N   0  0  0  0  0  0  0  0  0  0  0  0
  132.5790  125.5800   65.5020 C   0  0  0  0  0  0  0  0  0  0  0  0
  133.8600  125.4230   65.7580 N   0  0  0  0  0  0  0  0  0  0  0  0
  134.1620  125.8160   66.9800 C   0  0  0  0  0  0  0  0  0  0  0  0
  133.1090  126.3080   67.7460 C   0  0  0  0  0  0  0  0  0  0  0  0
  131.6480  126.2480   66.8040 S   0  0  0  0  0  0  0  0  0  0  0  0
  128.8880  123.4040   62.5240 S   0  0  0  0  0  0  0  0  0  0  0  0
  128.9580  123.7380   60.8090 C   0  0  0  0  0  0  0  0  0  0  0  0
  127.9820  123.3590   59.9880 N   0  0  0  0  0  0  0  0  0  0  0  0
  128.1200  123.6700   58.6740 C   0  0  0  0  0  0  0  0  0  0  0  0
  126.9940  123.2400   57.7770 C   0  0  0  0  0  0  0  0  0  0  0  0
  127.2500  122.5200   56.5990 C   0  0  0  0  0  0  0  0  0  0  0  0
  126.2110  122.1230   55.7590 C   0  0  0  0  0  0  0  0  0  0  0  0
  124.8980  122.4450   56.0870 C   0  0  0  0  0  0  0  0  0  0  0  0
  124.6180  123.1590   57.2460 C   0  0  0  0  0  0  0  0  0  0  0  0
  125.6590  123.5530   58.0830 C   0  0  0  0  0  0  0  0  0  0  0  0
  129.2480  124.3370   58.1860 C   0  0  0  0  0  0  0  0  0  0  0  0
  130.2850  124.7390   59.0430 C   0  0  0  0  0  0  0  0  0  0  0  0
  131.4930  125.4690   58.4430 C   0  0  0  0  0  0  0  0  0  0  0  0
  132.6470  124.8360   58.6560 F   0  0  0  0  0  0  0  0  0  0  0  0
  131.3380  125.5850   57.1240 F   0  0  0  0  0  0  0  0  0  0  0  0
  131.5990  126.6840   58.9820 F   0  0  0  0  0  0  0  0  0  0  0  0
  130.1420  124.4350   60.4270 C   0  0  0  0  0  0  0  0  0  0  0  0
  132.2650  126.3120   61.8270 H   0  0  0  0  0  0  0  0  0  0  0  0
  132.9890  124.9170   61.1240 H   0  0  0  0  0  0  0  0  0  0  0  0
  132.1030  125.8830   63.5410 H   0  0  0  0  0  0  0  0  0  0  0  0
  135.1882  125.7583   67.3719 H   0  0  0  0  0  0  0  0  0  0  0  0
  133.1880  126.6753   68.7798 H   0  0  0  0  0  0  0  0  0  0  0  0
  128.2870  122.2652   56.3349 H   0  0  0  0  0  0  0  0  0  0  0  0
  126.4283  121.5576   54.8408 H   0  0  0  0  0  0  0  0  0  0  0  0
  124.0767  122.1327   55.4252 H   0  0  0  0  0  0  0  0  0  0  0  0
  123.5783  123.4119   57.5012 H   0  0  0  0  0  0  0  0  0  0  0  0
  125.4323  124.1186   58.9988 H   0  0  0  0  0  0  0  0  0  0  0  0
  129.3244  124.5509   57.1097 H   0  0  0  0  0  0  0  0  0  0  0  0
  1  2  1  0
  2  3  2  0
  3  4  1  0
  4  5  2  0
  4  6  1  0
  6  7  1  0
  7  8  2  0
  8  9  1  0
  9 10  2  0
 10 11  1  0
  3 12  1  0
 12 13  1  0
 13 14  2  0
 14 15  1  0
 15 16  1  0
 16 17  2  0
 17 18  1  0
 18 19  2  0
 19 20  1  0
 20 21  2  0
 15 22  2  0
 22 23  1  0
 23 24  1  0
 24 25  1  0
 24 26  1  0
 24 27  1  0
 23 28  2  0
 28  2  1  0
 11  7  1  0
 28 13  1  0
 21 16  1  0
  1 29  1  0
  1 30  1  0
  6 31  1  0
  9 32  1  0
 10 33  1  0
 17 34  1  0
 18 35  1  0
 19 36  1  0
 20 37  1  0
 21 38  1  0
 22 39  1  0
M  END
>  <Binding energies>  (1) 
[-7.61]

>  <Ligand effiencies>  (1) 
[-0.24548387096774194]

>  <Interactions>  (1) 
["V-A:HIS:456:CE1:4069, V-A:ARG:545:CZ:4925, V-B:PRO:540:N:9855, V-A:TYR:484:CZ:4346, V-A:ARG:545:CD:4922, V-B:PRO:540:CB:9856, V-B:TYR:539:C:9838, V-B:MET:535:CE:9806, V-B:TYR:531:CE2:9764, V-B:PRO:540:CA:9854, V-B:LEU:363:CD1:8159, V-A:ARG:545:CG:4921, V-B:TYR:539:CE2:9847, V-B:TYR:539:CZ:9848, V-A:ASP:366:CG:3212, V-B:MET:535:CG:9804, V-B:TYR:539:CD1:9844, V-B:ILE:538:CD1:9836, V-B:TYR:539:CG:9843, V-B:ILE:538:CG2:9834, V-B:ILE:538:CA:9831, V-A:ASP:366:CB:3211, H-A:TYR:484:OH:4347, H-A:GLY:454:N:4049, V-B:PRO:540:CD:9858, V-B:ILE:538:C:9829, H-A:ASP:366:OD2:3214, H-A:ASP:366:OD1:3213, H-A:ARG:545:NE:4923"]

$$$$
4ck_Grossjean_2025
     RDKit          3D

 57 59  0  0  0  0  0  0  0  0999 V2000
  127.8980  122.4920   56.9970 C   0  0  0  0  0  0  0  0  0  0  0  0
  127.4340  121.7970   55.8500 O   0  0  0  0  0  0  0  0  0  0  0  0
  126.1730  122.2570   55.3830 C   0  0  0  0  0  0  0  0  0  0  0  0
  125.1540  122.1720   56.5260 C   0  0  0  0  0  0  0  0  0  0  0  0
  125.2480  123.3460   57.3200 O   0  0  0  0  0  0  0  0  0  0  0  0
  124.0780  123.6110   58.0820 C   0  0  0  0  0  0  0  0  0  0  0  0
  123.7900  125.1180   58.0540 C   0  0  0  0  0  0  0  0  0  0  0  0
  125.0230  125.8170   57.9520 O   0  0  0  0  0  0  0  0  0  0  0  0
  124.9190  127.2090   58.2240 C   0  0  0  0  0  0  0  0  0  0  0  0
  126.0730  127.6420   59.1410 C   0  0  0  0  0  0  0  0  0  0  0  0
  126.7900  126.4960   59.7020 N   0  0  0  0  0  0  0  0  0  0  0  0
  127.2660  126.4000   60.9610 C   0  0  0  0  0  0  0  0  0  0  0  0
  127.1120  127.2900   61.7990 O   0  0  0  0  0  0  0  0  0  0  0  0
  127.9740  125.1610   61.2840 C   0  0  0  0  0  0  0  0  0  0  0  0
  128.2170  123.9330   60.0450 S   0  0  0  0  0  0  0  0  0  0  0  0
  129.1110  122.9250   61.1580 C   0  0  0  0  0  0  0  0  0  0  0  0
  129.6100  121.7500   60.7850 N   0  0  0  0  0  0  0  0  0  0  0  0
  130.2890  121.0360   61.7200 C   0  0  0  0  0  0  0  0  0  0  0  0
  130.8550  119.7230   61.2620 C   0  0  0  0  0  0  0  0  0  0  0  0
  130.1400  118.5280   61.4450 C   0  0  0  0  0  0  0  0  0  0  0  0
  130.6600  117.3070   61.0240 C   0  0  0  0  0  0  0  0  0  0  0  0
  131.9070  117.2620   60.4110 C   0  0  0  0  0  0  0  0  0  0  0  0
  132.6350  118.4310   60.2120 C   0  0  0  0  0  0  0  0  0  0  0  0
  132.1110  119.6510   60.6340 C   0  0  0  0  0  0  0  0  0  0  0  0
  130.4720  121.5110   63.0230 C   0  0  0  0  0  0  0  0  0  0  0  0
  129.9490  122.7490   63.4280 C   0  0  0  0  0  0  0  0  0  0  0  0
  130.1840  123.2070   64.8730 C   0  0  0  0  0  0  0  0  0  0  0  0
  130.7150  124.4280   64.9560 F   0  0  0  0  0  0  0  0  0  0  0  0
  129.0260  123.2300   65.5310 F   0  0  0  0  0  0  0  0  0  0  0  0
  131.0200  122.3660   65.4810 F   0  0  0  0  0  0  0  0  0  0  0  0
  129.2330  123.5050   62.4560 C   0  0  0  0  0  0  0  0  0  0  0  0
  128.5780  124.7900   62.4950 C   0  0  0  0  0  0  0  0  0  0  0  0
  128.5460  125.5740   63.6200 N   0  0  0  0  0  0  0  0  0  0  0  0
  127.5525  121.9744   57.9040 H   0  0  0  0  0  0  0  0  0  0  0  0
  128.9976  122.5214   56.9880 H   0  0  0  0  0  0  0  0  0  0  0  0
  127.5036  123.5188   56.9880 H   0  0  0  0  0  0  0  0  0  0  0  0
  126.2630  123.3004   55.0464 H   0  0  0  0  0  0  0  0  0  0  0  0
  125.8390  121.6327   54.5411 H   0  0  0  0  0  0  0  0  0  0  0  0
  124.1393  122.0891   56.1096 H   0  0  0  0  0  0  0  0  0  0  0  0
  125.3644  121.2876   57.1454 H   0  0  0  0  0  0  0  0  0  0  0  0
  123.2260  123.0653   57.6503 H   0  0  0  0  0  0  0  0  0  0  0  0
  124.2304  123.2825   59.1207 H   0  0  0  0  0  0  0  0  0  0  0  0
  123.1563  125.3574   57.1874 H   0  0  0  0  0  0  0  0  0  0  0  0
  123.2659  125.4160   58.9741 H   0  0  0  0  0  0  0  0  0  0  0  0
  124.9706  127.7714   57.2801 H   0  0  0  0  0  0  0  0  0  0  0  0
  123.9598  127.4134   58.7222 H   0  0  0  0  0  0  0  0  0  0  0  0
  126.7793  128.2518   58.5585 H   0  0  0  0  0  0  0  0  0  0  0  0
  125.6450  128.2158   59.9762 H   0  0  0  0  0  0  0  0  0  0  0  0
  126.8770  125.6910   59.0990 H   0  0  0  0  0  0  0  0  0  0  0  0
  129.1527  118.5573   61.9290 H   0  0  0  0  0  0  0  0  0  0  0  0
  130.0861  116.3810   61.1759 H   0  0  0  0  0  0  0  0  0  0  0  0
  132.3203  116.2973   60.0816 H   0  0  0  0  0  0  0  0  0  0  0  0
  133.6199  118.3921   59.7237 H   0  0  0  0  0  0  0  0  0  0  0  0
  132.6892  120.5729   60.4733 H   0  0  0  0  0  0  0  0  0  0  0  0
  131.0369  120.9023   63.7444 H   0  0  0  0  0  0  0  0  0  0  0  0
  129.1600  125.4100   64.4050 H   0  0  0  0  0  0  0  0  0  0  0  0
  127.9060  126.3530   63.7000 H   0  0  0  0  0  0  0  0  0  0  0  0
  1  2  1  0
  2  3  1  0
  3  4  1  0
  4  5  1  0
  5  6  1  0
  6  7  1  0
  7  8  1  0
  8  9  1  0
  9 10  1  0
 10 11  1  0
 11 12  1  0
 12 13  2  0
 12 14  1  0
 14 15  1  0
 15 16  1  0
 16 17  2  0
 17 18  1  0
 18 19  1  0
 19 20  2  0
 20 21  1  0
 21 22  2  0
 22 23  1  0
 23 24  2  0
 18 25  2  0
 25 26  1  0
 26 27  1  0
 27 28  1  0
 27 29  1  0
 27 30  1  0
 26 31  2  0
 31 32  1  0
 32 33  1  0
 32 14  2  0
 31 16  1  0
 24 19  1  0
  1 34  1  0
  1 35  1  0
  1 36  1  0
  3 37  1  0
  3 38  1  0
  4 39  1  0
  4 40  1  0
  6 41  1  0
  6 42  1  0
  7 43  1  0
  7 44  1  0
  9 45  1  0
  9 46  1  0
 10 47  1  0
 10 48  1  0
 11 49  1  0
 20 50  1  0
 21 51  1  0
 22 52  1  0
 23 53  1  0
 24 54  1  0
 25 55  1  0
 33 56  1  0
 33 57  1  0
M  END
>  <Binding energies>  (1) 
[-6.5]

>  <Ligand effiencies>  (1) 
[-0.18055555555555555]

>  <Interactions>  (1) 
["V-B:GLU:543:CB:9877, V-B:GLU:543:CD:9879, V-B:ASP:366:CG:8183, V-B:TYR:531:CZ:9765, V-B:ASP:366:CB:8182, V-B:PRO:540:N:9855, V-A:TYR:484:CZ:4346, H-B:TYR:531:OH:9766, V-B:PRO:540:CB:9856, V-B:TYR:539:CD2:9845, V-B:TYR:539:C:9838, V-B:MET:535:CE:9806, H-B:TYR:539:N:9841, V-B:TYR:531:CE2:9764, V-B:LEU:363:CD1:8159, V-B:TYR:539:CE2:9847, V-A:LEU:475:CD2:4258, V-B:ILE:538:CB:9833, V-A:PRO:482:CG:4326, V-B:ALA:541:CB:9863, V-B:TYR:539:CZ:9848, V-B:TYR:539:CE1:9846, V-B:MET:535:CG:9804, V-B:TYR:539:CA:9840, H-B:GLU:543:OE2:9881, V-B:TYR:539:CD1:9844, V-B:ILE:538:CD1:9836, V-B:TYR:539:CG:9843, V-B:ILE:538:CG2:9834, V-A:HIS:383:CE1:3393, V-A:PRO:482:CB:4325, V-B:ILE:538:CA:9831, H-B:GLU:543:OE1:9880, V-A:SER:385:CA:3406, V-B:GLU:543:CG:9878, V-A:TYR:484:CE2:4345, V-B:PRO:540:CG:9857, V-B:PRO:540:CD:9858, V-B:ILE:538:C:9829, V-A:LEU:475:CG:4256, V-A:LEU:475:CD1:4257"]

$$$$
4dd_Grossjean_2025
     RDKit          3D

 43 46  0  0  0  0  0  0  0  0999 V2000
  133.8360  124.0870   60.5230 C   0  0  0  0  0  0  0  0  0  0  0  0
  132.9440  123.1730   61.3500 C   0  0  0  0  0  0  0  0  0  0  0  0
  132.6750  121.8900   60.8570 C   0  0  0  0  0  0  0  0  0  0  0  0
  131.8620  121.0010   61.5700 C   0  0  0  0  0  0  0  0  0  0  0  0
  131.5530  119.6240   61.0640 C   0  0  0  0  0  0  0  0  0  0  0  0
  130.4170  118.9300   61.5120 C   0  0  0  0  0  0  0  0  0  0  0  0
  130.1220  117.6520   61.0440 C   0  0  0  0  0  0  0  0  0  0  0  0
  130.9640  117.0470   60.1180 C   0  0  0  0  0  0  0  0  0  0  0  0
  132.0940  117.7100   59.6550 C   0  0  0  0  0  0  0  0  0  0  0  0
  132.3840  118.9890   60.1240 C   0  0  0  0  0  0  0  0  0  0  0  0
  131.2910  121.3440   62.7580 N   0  0  0  0  0  0  0  0  0  0  0  0
  131.5520  122.5620   63.2310 C   0  0  0  0  0  0  0  0  0  0  0  0
  130.8990  123.1250   64.7530 S   0  0  0  0  0  0  0  0  0  0  0  0
  131.7050  124.6860   64.5750 C   0  0  0  0  0  0  0  0  0  0  0  0
  131.5700  125.7120   65.6100 C   0  0  0  0  0  0  0  0  0  0  0  0
  132.3890  126.6280   65.6970 O   0  0  0  0  0  0  0  0  0  0  0  0
  130.4990  125.5730   66.4290 N   0  0  0  0  0  0  0  0  0  0  0  0
  130.1140  126.3440   67.5410 C   0  0  0  0  0  0  0  0  0  0  0  0
  129.3540  125.6830   68.5100 C   0  0  0  0  0  0  0  0  0  0  0  0
  128.9370  126.3560   69.6550 C   0  0  0  0  0  0  0  0  0  0  0  0
  129.2870  127.6910   69.8360 C   0  0  0  0  0  0  0  0  0  0  0  0
  130.0540  128.3590   68.8850 C   0  0  0  0  0  0  0  0  0  0  0  0
  130.4730  127.6890   67.7390 C   0  0  0  0  0  0  0  0  0  0  0  0
  132.4360  124.7430   63.3780 C   0  0  0  0  0  0  0  0  0  0  0  0
  133.1590  125.8390   62.9770 N   0  0  0  0  0  0  0  0  0  0  0  0
  132.3670  123.5390   62.5930 C   0  0  0  0  0  0  0  0  0  0  0  0
  134.4447  124.7107   61.1942 H   0  0  0  0  0  0  0  0  0  0  0  0
  134.4969  123.4783   59.8884 H   0  0  0  0  0  0  0  0  0  0  0  0
  133.2113  124.7329   59.8884 H   0  0  0  0  0  0  0  0  0  0  0  0
  133.1087  121.5764   59.8960 H   0  0  0  0  0  0  0  0  0  0  0  0
  129.7485  119.4044   62.2455 H   0  0  0  0  0  0  0  0  0  0  0  0
  129.2272  117.1239   61.4052 H   0  0  0  0  0  0  0  0  0  0  0  0
  130.7341  116.0365   59.7492 H   0  0  0  0  0  0  0  0  0  0  0  0
  132.7564  117.2270   58.9215 H   0  0  0  0  0  0  0  0  0  0  0  0
  133.2782  119.5112   59.7528 H   0  0  0  0  0  0  0  0  0  0  0  0
  129.8690  124.8150   66.2110 H   0  0  0  0  0  0  0  0  0  0  0  0
  129.0842  124.6262   68.3672 H   0  0  0  0  0  0  0  0  0  0  0  0
  128.3337  125.8352   70.4132 H   0  0  0  0  0  0  0  0  0  0  0  0
  128.9544  128.2235   70.7392 H   0  0  0  0  0  0  0  0  0  0  0  0
  130.3280  129.4131   69.0389 H   0  0  0  0  0  0  0  0  0  0  0  0
  131.0846  128.2115   66.9887 H   0  0  0  0  0  0  0  0  0  0  0  0
  132.7310  126.7450   62.8550 H   0  0  0  0  0  0  0  0  0  0  0  0
  134.1500  125.7740   62.7930 H   0  0  0  0  0  0  0  0  0  0  0  0
  1  2  1  0
  2  3  2  0
  3  4  1  0
  4  5  1  0
  5  6  2  0
  6  7  1  0
  7  8  2  0
  8  9  1  0
  9 10  2  0
  4 11  2  0
 11 12  1  0
 12 13  1  0
 13 14  1  0
 14 15  1  0
 15 16  2  0
 15 17  1  0
 17 18  1  0
 18 19  2  0
 19 20  1  0
 20 21  2  0
 21 22  1  0
 22 23  2  0
 14 24  2  0
 24 25  1  0
 24 26  1  0
 26  2  1  0
 10  5  1  0
 26 12  2  0
 23 18  1  0
  1 27  1  0
  1 28  1  0
  1 29  1  0
  3 30  1  0
  6 31  1  0
  7 32  1  0
  8 33  1  0
  9 34  1  0
 10 35  1  0
 17 36  1  0
 19 37  1  0
 20 38  1  0
 21 39  1  0
 22 40  1  0
 23 41  1  0
 25 42  1  0
 25 43  1  0
M  END
>  <Binding energies>  (1) 
[-8.75]

>  <Ligand effiencies>  (1) 
[-0.3017241379310345]

>  <Interactions>  (1) 
["V-B:GLU:543:CB:9877, V-A:HIS:456:CE1:4069, V-B:GLU:543:CD:9879, V-B:HIS:456:CE1:9040, V-A:ARG:545:CZ:4925, V-A:TYR:484:CZ:4346, V-B:TYR:539:CD2:9845, V-B:TYR:539:C:9838, V-B:TYR:539:CE2:9847, V-A:ILE:369:CB:3235, V-A:LEU:475:CD2:4258, V-A:PRO:482:CG:4326, V-B:ALA:541:CB:9863, V-A:ILE:369:CG1:3237, V-A:ASP:366:CG:3212, V-B:VAL:344:CG1:7971, H-B:GLU:543:OE2:9881, V-A:ILE:369:CG2:3236, V-B:TYR:539:CB:9842, V-A:ILE:369:CD1:3238, V-A:HIS:383:CE1:3393, V-A:PRO:482:CB:4325, V-A:GLU:543:CD:4907, V-A:ASP:366:CB:3211, V-A:GLU:543:CB:4905, H-A:TYR:484:OH:4347, V-B:GLU:543:CG:9878, V-A:TYR:484:CE2:4345, H-A:ARG:545:NH2:4927, H-A:ASP:366:OD2:3214, H-A:ASP:366:OD1:3213, H-A:ARG:545:NE:4923"]

$$$$
4dg_Grossjean_2025
     RDKit          3D

 46 49  0  0  0  0  0  0  0  0999 V2000
  133.7940  124.0240   60.5150 C   0  0  0  0  0  0  0  0  0  0  0  0
  132.8930  123.1800   61.4050 C   0  0  0  0  0  0  0  0  0  0  0  0
  132.5500  121.8960   60.9680 C   0  0  0  0  0  0  0  0  0  0  0  0
  131.7240  121.0690   61.7400 C   0  0  0  0  0  0  0  0  0  0  0  0
  131.3390  119.6860   61.2980 C   0  0  0  0  0  0  0  0  0  0  0  0
  132.1480  118.9630   60.4060 C   0  0  0  0  0  0  0  0  0  0  0  0
  131.7940  117.6820   59.9890 C   0  0  0  0  0  0  0  0  0  0  0  0
  130.6220  117.1020   60.4620 C   0  0  0  0  0  0  0  0  0  0  0  0
  129.8000  117.7960   61.3440 C   0  0  0  0  0  0  0  0  0  0  0  0
  130.1570  119.0770   61.7570 C   0  0  0  0  0  0  0  0  0  0  0  0
  131.2380  121.4670   62.9470 N   0  0  0  0  0  0  0  0  0  0  0  0
  131.5640  122.6900   63.3650 C   0  0  0  0  0  0  0  0  0  0  0  0
  131.0020  123.3270   64.8920 S   0  0  0  0  0  0  0  0  0  0  0  0
  131.8530  124.8470   64.6220 C   0  0  0  0  0  0  0  0  0  0  0  0
  131.7510  125.9300   65.5980 C   0  0  0  0  0  0  0  0  0  0  0  0
  132.7540  126.4140   66.1270 O   0  0  0  0  0  0  0  0  0  0  0  0
  130.5000  126.3320   65.9040 N   0  0  0  0  0  0  0  0  0  0  0  0
  130.1600  127.4090   66.8320 C   0  0  0  0  0  0  0  0  0  0  0  0
  129.5900  126.9110   68.1550 C   0  0  0  0  0  0  0  0  0  0  0  0
  129.5190  125.5370   68.4070 C   0  0  0  0  0  0  0  0  0  0  0  0
  129.0280  125.0790   69.6270 C   0  0  0  0  0  0  0  0  0  0  0  0
  128.6200  125.9950   70.5940 C   0  0  0  0  0  0  0  0  0  0  0  0
  128.7030  127.3650   70.3570 C   0  0  0  0  0  0  0  0  0  0  0  0
  129.1950  127.8230   69.1370 C   0  0  0  0  0  0  0  0  0  0  0  0
  132.5230  124.8440   63.3890 C   0  0  0  0  0  0  0  0  0  0  0  0
  133.2550  125.9020   62.9150 N   0  0  0  0  0  0  0  0  0  0  0  0
  132.3820  123.6140   62.6550 C   0  0  0  0  0  0  0  0  0  0  0  0
  134.4537  124.6420   61.1419 H   0  0  0  0  0  0  0  0  0  0  0  0
  134.4038  123.3646   59.8799 H   0  0  0  0  0  0  0  0  0  0  0  0
  133.1758  124.6755   59.8799 H   0  0  0  0  0  0  0  0  0  0  0  0
  132.9345  121.5306   60.0043 H   0  0  0  0  0  0  0  0  0  0  0  0
  133.0772  119.4162   60.0303 H   0  0  0  0  0  0  0  0  0  0  0  0
  132.4389  117.1314   59.2884 H   0  0  0  0  0  0  0  0  0  0  0  0
  130.3433  116.0888   60.1369 H   0  0  0  0  0  0  0  0  0  0  0  0
  128.8722  117.3349   61.7135 H   0  0  0  0  0  0  0  0  0  0  0  0
  129.5035  119.6220   62.4541 H   0  0  0  0  0  0  0  0  0  0  0  0
  129.7330  125.9460   65.3730 H   0  0  0  0  0  0  0  0  0  0  0  0
  131.0707  127.9894   67.0412 H   0  0  0  0  0  0  0  0  0  0  0  0
  129.3801  128.0177   66.3511 H   0  0  0  0  0  0  0  0  0  0  0  0
  129.8506  124.8191   67.6424 H   0  0  0  0  0  0  0  0  0  0  0  0
  128.9626  123.9992   69.8262 H   0  0  0  0  0  0  0  0  0  0  0  0
  128.2279  125.6322   71.5556 H   0  0  0  0  0  0  0  0  0  0  0  0
  128.3821  128.0807   71.1283 H   0  0  0  0  0  0  0  0  0  0  0  0
  129.2726  128.9036   68.9465 H   0  0  0  0  0  0  0  0  0  0  0  0
  134.2640  125.8880   62.8960 H   0  0  0  0  0  0  0  0  0  0  0  0
  132.8030  126.7340   62.5600 H   0  0  0  0  0  0  0  0  0  0  0  0
  1  2  1  0
  2  3  2  0
  3  4  1  0
  4  5  1  0
  5  6  2  0
  6  7  1  0
  7  8  2  0
  8  9  1  0
  9 10  2  0
  4 11  2  0
 11 12  1  0
 12 13  1  0
 13 14  1  0
 14 15  1  0
 15 16  2  0
 15 17  1  0
 17 18  1  0
 18 19  1  0
 19 20  2  0
 20 21  1  0
 21 22  2  0
 22 23  1  0
 23 24  2  0
 14 25  2  0
 25 26  1  0
 25 27  1  0
 27  2  1  0
 10  5  1  0
 27 12  2  0
 24 19  1  0
  1 28  1  0
  1 29  1  0
  1 30  1  0
  3 31  1  0
  6 32  1  0
  7 33  1  0
  8 34  1  0
  9 35  1  0
 10 36  1  0
 17 37  1  0
 18 38  1  0
 18 39  1  0
 20 40  1  0
 21 41  1  0
 22 42  1  0
 23 43  1  0
 24 44  1  0
 26 45  1  0
 26 46  1  0
M  END
>  <Binding energies>  (1) 
[-8.75]

>  <Ligand effiencies>  (1) 
[-0.2916666666666667]

>  <Interactions>  (1) 
["V-B:GLU:543:CB:9877, V-A:HIS:456:CE1:4069, V-B:GLU:543:C:9873, V-A:HIS:456:CD2:4067, V-B:GLU:543:CD:9879, V-B:HIS:456:CE1:9040, V-A:ARG:545:CZ:4925, V-A:TYR:484:CZ:4346, V-B:TYR:539:CD2:9845, V-B:TYR:539:C:9838, V-B:TYR:539:CE2:9847, V-B:GLU:543:CA:9875, V-A:ILE:369:CB:3235, V-A:LEU:475:CD2:4258, V-A:PRO:482:CG:4326, V-B:ALA:541:CB:9863, V-A:ILE:369:CG1:3237, V-A:ASP:366:CG:3212, V-B:VAL:344:CG1:7971, H-B:GLU:543:OE2:9881, V-A:ILE:369:CG2:3236, V-B:TYR:539:CB:9842, V-A:ILE:369:CD1:3238, V-A:HIS:383:CE1:3393, V-A:PRO:482:CB:4325, V-A:GLU:543:CD:4907, H-A:TYR:484:OH:4347, V-B:GLU:543:CG:9878, V-A:TYR:484:CE2:4345, H-A:ARG:545:NH2:4927, H-A:ASP:366:OD2:3214, H-A:ASP:366:OD1:3213, H-A:ARG:545:NE:4923, V-A:TYR:484:CD2:4343"]

$$$$
4dj_Grossjean_2025
     RDKit          3D

 39 42  0  0  0  0  0  0  0  0999 V2000
  133.8200  124.0770   60.4200 C   0  0  0  0  0  0  0  0  0  0  0  0
  132.9650  123.1810   61.3040 C   0  0  0  0  0  0  0  0  0  0  0  0
  132.6630  121.8940   60.8430 C   0  0  0  0  0  0  0  0  0  0  0  0
  131.8790  121.0210   61.6070 C   0  0  0  0  0  0  0  0  0  0  0  0
  131.5440  119.6330   61.1410 C   0  0  0  0  0  0  0  0  0  0  0  0
  132.3740  118.9580   60.2310 C   0  0  0  0  0  0  0  0  0  0  0  0
  132.0700  117.6720   59.7950 C   0  0  0  0  0  0  0  0  0  0  0  0
  130.9220  117.0400   60.2620 C   0  0  0  0  0  0  0  0  0  0  0  0
  130.0800  117.6850   61.1610 C   0  0  0  0  0  0  0  0  0  0  0  0
  130.3890  118.9700   61.5950 C   0  0  0  0  0  0  0  0  0  0  0  0
  131.3940  121.3750   62.8290 N   0  0  0  0  0  0  0  0  0  0  0  0
  131.6800  122.5990   63.2680 C   0  0  0  0  0  0  0  0  0  0  0  0
  131.1140  123.1860   64.8160 S   0  0  0  0  0  0  0  0  0  0  0  0
  131.9050  124.7440   64.5680 C   0  0  0  0  0  0  0  0  0  0  0  0
  131.8040  125.7940   65.5820 C   0  0  0  0  0  0  0  0  0  0  0  0
  132.8150  126.3680   65.9980 O   0  0  0  0  0  0  0  0  0  0  0  0
  130.5500  126.0670   66.0170 N   0  0  0  0  0  0  0  0  0  0  0  0
  130.1820  127.0090   66.9680 C   0  0  0  0  0  0  0  0  0  0  0  0
  130.6240  127.1260   68.2030 N   0  0  0  0  0  0  0  0  0  0  0  0
  130.0560  128.1390   68.8270 C   0  0  0  0  0  0  0  0  0  0  0  0
  129.1290  128.8720   68.0940 C   0  0  0  0  0  0  0  0  0  0  0  0
  129.0010  128.1890   66.5000 S   0  0  0  0  0  0  0  0  0  0  0  0
  132.5680  124.7830   63.3320 C   0  0  0  0  0  0  0  0  0  0  0  0
  133.2650  125.8730   62.8740 N   0  0  0  0  0  0  0  0  0  0  0  0
  132.4560  123.5680   62.5710 C   0  0  0  0  0  0  0  0  0  0  0  0
  134.4420  124.7288   61.0511 H   0  0  0  0  0  0  0  0  0  0  0  0
  134.4678  123.4549   59.7849 H   0  0  0  0  0  0  0  0  0  0  0  0
  133.1683  124.6950   59.7849 H   0  0  0  0  0  0  0  0  0  0  0  0
  133.0472  121.5639   59.8665 H   0  0  0  0  0  0  0  0  0  0  0  0
  133.2809  119.4550   59.8561 H   0  0  0  0  0  0  0  0  0  0  0  0
  132.7340  117.1577   59.0847 H   0  0  0  0  0  0  0  0  0  0  0  0
  130.6790  116.0239   59.9179 H   0  0  0  0  0  0  0  0  0  0  0  0
  129.1734  117.1813   61.5275 H   0  0  0  0  0  0  0  0  0  0  0  0
  129.7189  119.4765   62.3053 H   0  0  0  0  0  0  0  0  0  0  0  0
  129.7930  125.5320   65.6160 H   0  0  0  0  0  0  0  0  0  0  0  0
  130.3017  128.3904   69.8693 H   0  0  0  0  0  0  0  0  0  0  0  0
  128.5675  129.7430   68.4629 H   0  0  0  0  0  0  0  0  0  0  0  0
  132.8000  126.7020   62.5370 H   0  0  0  0  0  0  0  0  0  0  0  0
  134.2760  125.8790   62.8600 H   0  0  0  0  0  0  0  0  0  0  0  0
  1  2  1  0
  2  3  2  0
  3  4  1  0
  4  5  1  0
  5  6  2  0
  6  7  1  0
  7  8  2  0
  8  9  1  0
  9 10  2  0
  4 11  2  0
 11 12  1  0
 12 13  1  0
 13 14  1  0
 14 15  1  0
 15 16  2  0
 15 17  1  0
 17 18  1  0
 18 19  2  0
 19 20  1  0
 20 21  2  0
 21 22  1  0
 14 23  2  0
 23 24  1  0
 23 25  1  0
 25  2  1  0
 10  5  1  0
 25 12  2  0
 22 18  1  0
  1 26  1  0
  1 27  1  0
  1 28  1  0
  3 29  1  0
  6 30  1  0
  7 31  1  0
  8 32  1  0
  9 33  1  0
 10 34  1  0
 17 35  1  0
 20 36  1  0
 21 37  1  0
 24 38  1  0
 24 39  1  0
M  END
>  <Binding energies>  (1) 
[-8.27]

>  <Ligand effiencies>  (1) 
[-0.2953571428571428]

>  <Interactions>  (1) 
["V-A:HIS:456:CE1:4069, V-B:GLU:543:CD:9879, V-A:ARG:545:CZ:4925, V-A:TYR:484:CZ:4346, V-B:TYR:539:CD2:9845, V-B:TYR:539:C:9838, V-B:TYR:539:CE2:9847, V-A:ILE:369:CB:3235, V-A:LEU:475:CD2:4258, V-A:PRO:482:CG:4326, V-B:ALA:541:CB:9863, V-A:ILE:369:CG1:3237, V-A:ASP:366:CG:3212, V-B:VAL:344:CG1:7971, H-B:GLU:543:OE2:9881, V-A:ILE:369:CG2:3236, V-B:TYR:539:CB:9842, V-A:ILE:369:CD1:3238, V-A:HIS:383:CE1:3393, V-A:PRO:482:CB:4325, V-A:GLU:543:CD:4907, V-A:GLU:543:CG:4906, V-A:ASP:366:CB:3211, V-A:GLU:543:CB:4905, H-A:TYR:484:OH:4347, H-A:ARG:545:NH2:4927, H-A:ASP:366:OD2:3214, H-A:ASP:366:OD1:3213, H-A:ARG:545:NE:4923"]

$$$$
4ea_Grossjean_2025
     RDKit          3D

 52 55  0  0  0  0  0  0  0  0999 V2000
  124.2710  124.3580   57.7310 C   0  0  0  0  0  0  0  0  0  0  0  0
  124.8580  123.0230   57.2650 C   0  0  0  0  0  0  0  0  0  0  0  0
  125.9160  123.2660   56.3480 O   0  0  0  0  0  0  0  0  0  0  0  0
  127.1230  122.6620   56.4920 C   0  0  0  0  0  0  0  0  0  0  0  0
  127.5220  121.7550   55.7550 O   0  0  0  0  0  0  0  0  0  0  0  0
  127.9250  123.2070   57.6380 C   0  0  0  0  0  0  0  0  0  0  0  0
  127.7720  122.6400   58.9100 C   0  0  0  0  0  0  0  0  0  0  0  0
  128.5010  123.1230   59.9930 C   0  0  0  0  0  0  0  0  0  0  0  0
  129.3970  124.1800   59.8290 C   0  0  0  0  0  0  0  0  0  0  0  0
  130.0780  124.5840   60.9930 N   0  0  0  0  0  0  0  0  0  0  0  0
  130.4110  125.8240   61.4310 C   0  0  0  0  0  0  0  0  0  0  0  0
  130.1460  126.8650   60.8310 O   0  0  0  0  0  0  0  0  0  0  0  0
  131.1290  125.8620   62.7080 C   0  0  0  0  0  0  0  0  0  0  0  0
  132.8230  125.3700   62.7950 S   0  0  0  0  0  0  0  0  0  0  0  0
  132.8790  125.6960   64.5120 C   0  0  0  0  0  0  0  0  0  0  0  0
  133.9880  125.5060   65.2290 N   0  0  0  0  0  0  0  0  0  0  0  0
  133.9000  125.7960   66.5500 C   0  0  0  0  0  0  0  0  0  0  0  0
  135.1720  125.5730   67.3470 C   0  0  0  0  0  0  0  0  0  0  0  0
  132.7420  126.2680   67.1650 C   0  0  0  0  0  0  0  0  0  0  0  0
  131.5820  126.4660   66.4090 C   0  0  0  0  0  0  0  0  0  0  0  0
  130.3590  126.9680   67.0760 C   0  0  0  0  0  0  0  0  0  0  0  0
  129.8200  126.2780   68.1660 C   0  0  0  0  0  0  0  0  0  0  0  0
  128.6710  126.7500   68.7960 C   0  0  0  0  0  0  0  0  0  0  0  0
  128.0590  127.9120   68.3320 C   0  0  0  0  0  0  0  0  0  0  0  0
  128.5850  128.6040   67.2430 C   0  0  0  0  0  0  0  0  0  0  0  0
  129.7340  128.1310   66.6150 C   0  0  0  0  0  0  0  0  0  0  0  0
  131.6330  126.1730   65.0180 C   0  0  0  0  0  0  0  0  0  0  0  0
  130.6520  126.2580   63.9670 C   0  0  0  0  0  0  0  0  0  0  0  0
  129.3700  126.6900   64.1960 N   0  0  0  0  0  0  0  0  0  0  0  0
  129.5570  124.7550   58.5580 C   0  0  0  0  0  0  0  0  0  0  0  0
  128.8270  124.2710   57.4760 C   0  0  0  0  0  0  0  0  0  0  0  0
  124.2575  124.3888   58.8305 H   0  0  0  0  0  0  0  0  0  0  0  0
  124.8891  125.1837   57.3487 H   0  0  0  0  0  0  0  0  0  0  0  0
  123.2447  124.4607   57.3487 H   0  0  0  0  0  0  0  0  0  0  0  0
  125.2450  122.4694   58.1332 H   0  0  0  0  0  0  0  0  0  0  0  0
  124.0740  122.4295   56.7720 H   0  0  0  0  0  0  0  0  0  0  0  0
  127.0696  121.8058   59.0541 H   0  0  0  0  0  0  0  0  0  0  0  0
  128.3697  122.6679   60.9858 H   0  0  0  0  0  0  0  0  0  0  0  0
  130.3590  123.8190   61.5890 H   0  0  0  0  0  0  0  0  0  0  0  0
  134.9428  125.6132   68.4221 H   0  0  0  0  0  0  0  0  0  0  0  0
  135.5925  124.5874   67.0983 H   0  0  0  0  0  0  0  0  0  0  0  0
  135.9027  126.3567   67.0983 H   0  0  0  0  0  0  0  0  0  0  0  0
  132.7402  126.4845   68.2435 H   0  0  0  0  0  0  0  0  0  0  0  0
  130.3051  125.3592   68.5273 H   0  0  0  0  0  0  0  0  0  0  0  0
  128.2492  126.2081   69.6553 H   0  0  0  0  0  0  0  0  0  0  0  0
  127.1524  128.2867   68.8297 H   0  0  0  0  0  0  0  0  0  0  0  0
  128.0947  129.5198   66.8811 H   0  0  0  0  0  0  0  0  0  0  0  0
  130.1513  128.6735   65.7539 H   0  0  0  0  0  0  0  0  0  0  0  0
  128.7870  127.0480   63.4520 H   0  0  0  0  0  0  0  0  0  0  0  0
  128.9630  126.6640   65.1210 H   0  0  0  0  0  0  0  0  0  0  0  0
  130.2602  125.5891   58.4171 H   0  0  0  0  0  0  0  0  0  0  0  0
  128.9581  124.7269   56.4835 H   0  0  0  0  0  0  0  0  0  0  0  0
  1  2  1  0
  2  3  1  0
  3  4  1  0
  4  5  2  0
  4  6  1  0
  6  7  2  0
  7  8  1  0
  8  9  2  0
  9 10  1  0
 10 11  1  0
 11 12  2  0
 11 13  1  0
 13 14  1  0
 14 15  1  0
 15 16  2  0
 16 17  1  0
 17 18  1  0
 17 19  2  0
 19 20  1  0
 20 21  1  0
 21 22  2  0
 22 23  1  0
 23 24  2  0
 24 25  1  0
 25 26  2  0
 20 27  2  0
 27 28  1  0
 28 29  1  0
  9 30  1  0
 30 31  2  0
 31  6  1  0
 28 13  2  0
 27 15  1  0
 26 21  1  0
  1 32  1  0
  1 33  1  0
  1 34  1  0
  2 35  1  0
  2 36  1  0
  7 37  1  0
  8 38  1  0
 10 39  1  0
 18 40  1  0
 18 41  1  0
 18 42  1  0
 19 43  1  0
 22 44  1  0
 23 45  1  0
 24 46  1  0
 25 47  1  0
 26 48  1  0
 29 49  1  0
 29 50  1  0
 30 51  1  0
 31 52  1  0
M  END
>  <Binding energies>  (1) 
[-9.34]

>  <Ligand effiencies>  (1) 
[-0.2747058823529412]

>  <Interactions>  (1) 
["V-B:GLU:543:CB:9877, V-A:HIS:456:CE1:4069, V-B:GLU:543:CD:9879, V-B:HIS:456:CE1:9040, V-B:TYR:531:CZ:9765, V-A:ARG:545:CZ:4925, V-B:PRO:540:N:9855, H-B:TYR:531:OH:9766, V-A:ARG:545:CD:4922, V-B:PRO:540:CB:9856, V-B:TYR:539:CD2:9845, V-B:TYR:539:C:9838, V-B:MET:535:CE:9806, H-B:TYR:539:N:9841, V-B:TYR:531:CE2:9764, V-B:PRO:540:CA:9854, V-B:LEU:363:CD1:8159, V-A:ARG:545:CG:4921, V-B:TYR:539:CE2:9847, V-B:TYR:539:CZ:9848, V-A:ASP:366:CG:3212, H-B:GLU:543:OE2:9881, V-A:GLU:543:CD:4907, V-A:GLU:543:CG:4906, H-B:GLU:543:OE1:9880, V-A:GLY:454:CA:4048, V-A:GLU:543:CB:4905, H-A:TYR:484:OH:4347, H-A:GLY:454:N:4049, V-B:PRO:540:CG:9857, V-B:PRO:540:CD:9858, H-A:ARG:545:NH2:4927, V-A:GLY:453:C:4041, H-A:ARG:545:NH1:4926, H-A:ARG:545:NE:4923, V-A:ARG:545:CB:4920, V-A:ILE:455:C:4051, V-A:GLY:453:CA:4043, V-A:GLY:454:C:4046, V-A:ILE:455:CA:4053"]

$$$$
4eb_Grossjean_2025
     RDKit          3D

 49 52  0  0  0  0  0  0  0  0999 V2000
  124.9490  123.5160   57.4430 C   0  0  0  0  0  0  0  0  0  0  0  0
  125.8400  123.3200   56.3550 O   0  0  0  0  0  0  0  0  0  0  0  0
  127.0360  122.7010   56.5350 C   0  0  0  0  0  0  0  0  0  0  0  0
  127.4350  121.7760   55.8230 O   0  0  0  0  0  0  0  0  0  0  0  0
  127.8240  123.2560   57.6860 C   0  0  0  0  0  0  0  0  0  0  0  0
  127.9410  122.5020   58.8610 C   0  0  0  0  0  0  0  0  0  0  0  0
  128.6640  122.9890   59.9460 C   0  0  0  0  0  0  0  0  0  0  0  0
  129.2850  124.2370   59.8800 C   0  0  0  0  0  0  0  0  0  0  0  0
  129.9890  124.6260   61.0360 N   0  0  0  0  0  0  0  0  0  0  0  0
  130.4180  125.8500   61.4330 C   0  0  0  0  0  0  0  0  0  0  0  0
  130.2440  126.8870   60.7920 O   0  0  0  0  0  0  0  0  0  0  0  0
  131.1290  125.8790   62.7140 C   0  0  0  0  0  0  0  0  0  0  0  0
  132.8210  125.3840   62.8060 S   0  0  0  0  0  0  0  0  0  0  0  0
  132.8680  125.6970   64.5270 C   0  0  0  0  0  0  0  0  0  0  0  0
  133.9720  125.5010   65.2490 N   0  0  0  0  0  0  0  0  0  0  0  0
  133.8770  125.7810   66.5710 C   0  0  0  0  0  0  0  0  0  0  0  0
  135.1450  125.5500   67.3730 C   0  0  0  0  0  0  0  0  0  0  0  0
  132.7160  126.2480   67.1830 C   0  0  0  0  0  0  0  0  0  0  0  0
  131.5600  126.4530   66.4210 C   0  0  0  0  0  0  0  0  0  0  0  0
  130.3330  126.9510   67.0860 C   0  0  0  0  0  0  0  0  0  0  0  0
  129.7790  126.2440   68.1560 C   0  0  0  0  0  0  0  0  0  0  0  0
  128.6260  126.7120   68.7830 C   0  0  0  0  0  0  0  0  0  0  0  0
  128.0270  127.8870   68.3350 C   0  0  0  0  0  0  0  0  0  0  0  0
  128.5710  128.5970   67.2670 C   0  0  0  0  0  0  0  0  0  0  0  0
  129.7230  128.1280   66.6420 C   0  0  0  0  0  0  0  0  0  0  0  0
  131.6190  126.1710   65.0290 C   0  0  0  0  0  0  0  0  0  0  0  0
  130.6450  126.2650   63.9730 C   0  0  0  0  0  0  0  0  0  0  0  0
  129.3610  126.6960   64.1970 N   0  0  0  0  0  0  0  0  0  0  0  0
  129.1740  124.9990   58.7080 C   0  0  0  0  0  0  0  0  0  0  0  0
  128.4500  124.5110   57.6240 C   0  0  0  0  0  0  0  0  0  0  0  0
  125.4950  123.3959   58.3903 H   0  0  0  0  0  0  0  0  0  0  0  0
  124.5238  124.5292   57.3908 H   0  0  0  0  0  0  0  0  0  0  0  0
  124.1379  122.7748   57.3908 H   0  0  0  0  0  0  0  0  0  0  0  0
  127.4571  121.5163   58.9266 H   0  0  0  0  0  0  0  0  0  0  0  0
  128.7465  122.3858   60.8622 H   0  0  0  0  0  0  0  0  0  0  0  0
  130.2030  123.8650   61.6620 H   0  0  0  0  0  0  0  0  0  0  0  0
  134.9122  125.5924   68.4473 H   0  0  0  0  0  0  0  0  0  0  0  0
  135.5598  124.5615   67.1264 H   0  0  0  0  0  0  0  0  0  0  0  0
  135.8818  126.3287   67.1264 H   0  0  0  0  0  0  0  0  0  0  0  0
  132.7078  126.4553   68.2633 H   0  0  0  0  0  0  0  0  0  0  0  0
  130.2543  125.3152   68.5045 H   0  0  0  0  0  0  0  0  0  0  0  0
  128.1912  126.1566   69.6271 H   0  0  0  0  0  0  0  0  0  0  0  0
  127.1165  128.2575   68.8288 H   0  0  0  0  0  0  0  0  0  0  0  0
  128.0923  129.5242   66.9191 H   0  0  0  0  0  0  0  0  0  0  0  0
  130.1543  128.6847   65.7970 H   0  0  0  0  0  0  0  0  0  0  0  0
  128.7960  127.0840   63.4560 H   0  0  0  0  0  0  0  0  0  0  0  0
  128.9380  126.6380   65.1140 H   0  0  0  0  0  0  0  0  0  0  0  0
  129.6598  125.9839   58.6453 H   0  0  0  0  0  0  0  0  0  0  0  0
  128.3674  125.1154   56.7086 H   0  0  0  0  0  0  0  0  0  0  0  0
  1  2  1  0
  2  3  1  0
  3  4  2  0
  3  5  1  0
  5  6  2  0
  6  7  1  0
  7  8  2  0
  8  9  1  0
  9 10  1  0
 10 11  2  0
 10 12  1  0
 12 13  1  0
 13 14  1  0
 14 15  2  0
 15 16  1  0
 16 17  1  0
 16 18  2  0
 18 19  1  0
 19 20  1  0
 20 21  2  0
 21 22  1  0
 22 23  2  0
 23 24  1  0
 24 25  2  0
 19 26  2  0
 26 27  1  0
 27 28  1  0
  8 29  1  0
 29 30  2  0
 30  5  1  0
 27 12  2  0
 26 14  1  0
 25 20  1  0
  1 31  1  0
  1 32  1  0
  1 33  1  0
  6 34  1  0
  7 35  1  0
  9 36  1  0
 17 37  1  0
 17 38  1  0
 17 39  1  0
 18 40  1  0
 21 41  1  0
 22 42  1  0
 23 43  1  0
 24 44  1  0
 25 45  1  0
 28 46  1  0
 28 47  1  0
 29 48  1  0
 30 49  1  0
M  END
>  <Binding energies>  (1) 
[-9.09]

>  <Ligand effiencies>  (1) 
[-0.27545454545454545]

>  <Interactions>  (1) 
["V-B:GLU:543:CB:9877, V-A:HIS:456:CE1:4069, V-B:GLU:543:CD:9879, V-B:HIS:456:CE1:9040, V-A:ARG:545:CZ:4925, V-B:PRO:540:N:9855, V-A:TYR:484:CZ:4346, H-B:TYR:531:OH:9766, V-A:ARG:545:CD:4922, V-B:PRO:540:CB:9856, V-B:TYR:539:CD2:9845, V-B:TYR:539:C:9838, V-B:MET:535:CE:9806, H-B:TYR:539:N:9841, V-B:TYR:531:CE2:9764, V-B:PRO:540:CA:9854, V-B:LEU:363:CD1:8159, V-A:ARG:545:CG:4921, V-B:TYR:539:CE2:9847, V-A:ASP:366:CG:3212, H-B:GLU:543:OE2:9881, V-A:GLU:543:CD:4907, V-A:GLU:543:CG:4906, H-B:GLU:543:OE1:9880, V-A:GLY:454:CA:4048, V-A:GLU:543:CB:4905, H-A:TYR:484:OH:4347, H-A:GLY:454:N:4049, H-A:ARG:545:NH2:4927, V-A:GLY:453:C:4041, H-A:ARG:545:NH1:4926, H-A:ARG:545:NE:4923, V-A:ARG:545:CB:4920, V-A:ILE:455:C:4051, V-A:GLY:453:CA:4043, V-A:GLY:454:C:4046, V-A:ILE:455:CA:4053"]

$$$$
8a_Ghoteimi_2023
     RDKit          3D

 67 71  0  0  0  0  0  0  0  0999 V2000
  128.8050  132.3110   55.0510 C   0  0  0  0  0  0  0  0  0  0  0  0
  129.9830  133.2790   54.9090 C   0  0  0  0  0  0  0  0  0  0  0  0
  130.2220  133.9190   56.1560 O   0  0  0  0  0  0  0  0  0  0  0  0
  131.3900  133.7360   56.8260 C   0  0  0  0  0  0  0  0  0  0  0  0
  132.4540  134.2710   56.4950 O   0  0  0  0  0  0  0  0  0  0  0  0
  131.2620  132.8150   58.0040 C   0  0  0  0  0  0  0  0  0  0  0  0
  130.1580  132.9460   58.8560 C   0  0  0  0  0  0  0  0  0  0  0  0
  130.0110  132.1080   59.9580 C   0  0  0  0  0  0  0  0  0  0  0  0
  130.9610  131.1240   60.2320 C   0  0  0  0  0  0  0  0  0  0  0  0
  130.7110  130.3390   61.3750 N   0  0  0  0  0  0  0  0  0  0  0  0
  129.6530  129.5480   61.6810 C   0  0  0  0  0  0  0  0  0  0  0  0
  128.6750  129.3850   60.9520 O   0  0  0  0  0  0  0  0  0  0  0  0
  129.7380  128.8630   62.9740 C   0  0  0  0  0  0  0  0  0  0  0  0
  128.9420  129.5380   64.3950 S   0  0  0  0  0  0  0  0  0  0  0  0
  129.5140  128.2250   65.3980 C   0  0  0  0  0  0  0  0  0  0  0  0
  129.2410  128.1690   66.7010 N   0  0  0  0  0  0  0  0  0  0  0  0
  129.7390  127.1090   67.3910 C   0  0  0  0  0  0  0  0  0  0  0  0
  129.4380  127.0770   68.8550 C   0  0  0  0  0  0  0  0  0  0  0  0
  129.6510  128.2040   69.6620 C   0  0  0  0  0  0  0  0  0  0  0  0
  129.3790  128.1640   71.0270 C   0  0  0  0  0  0  0  0  0  0  0  0
  128.8860  127.0030   71.6180 C   0  0  0  0  0  0  0  0  0  0  0  0
  128.6480  127.0550   72.9780 O   0  0  0  0  0  0  0  0  0  0  0  0
  129.4880  127.8600   73.7980 C   0  0  0  0  0  0  0  0  0  0  0  0
  128.6640  125.8730   70.8180 C   0  0  0  0  0  0  0  0  0  0  0  0
  128.9390  125.9140   69.4540 C   0  0  0  0  0  0  0  0  0  0  0  0
  130.4970  126.1100   66.7770 C   0  0  0  0  0  0  0  0  0  0  0  0
  130.7720  126.1560   65.4060 C   0  0  0  0  0  0  0  0  0  0  0  0
  131.5560  125.0500   64.7980 C   0  0  0  0  0  0  0  0  0  0  0  0
  131.0390  123.7530   64.7720 C   0  0  0  0  0  0  0  0  0  0  0  0
  131.7610  122.7180   64.1850 C   0  0  0  0  0  0  0  0  0  0  0  0
  133.0090  122.9620   63.6090 C   0  0  0  0  0  0  0  0  0  0  0  0
  133.6530  121.8750   63.0500 O   0  0  0  0  0  0  0  0  0  0  0  0
  133.7810  121.7970   61.6350 C   0  0  0  0  0  0  0  0  0  0  0  0
  133.5270  124.2660   63.6280 C   0  0  0  0  0  0  0  0  0  0  0  0
  132.8010  125.3000   64.2140 C   0  0  0  0  0  0  0  0  0  0  0  0
  130.2800  127.2690   64.6680 C   0  0  0  0  0  0  0  0  0  0  0  0
  130.4070  127.6690   63.2880 C   0  0  0  0  0  0  0  0  0  0  0  0
  131.1360  126.9470   62.3760 N   0  0  0  0  0  0  0  0  0  0  0  0
  132.0680  130.9820   59.3810 C   0  0  0  0  0  0  0  0  0  0  0  0
  132.2140  131.8220   58.2790 C   0  0  0  0  0  0  0  0  0  0  0  0
  128.5972  132.1403   56.1176 H   0  0  0  0  0  0  0  0  0  0  0  0
  127.9156  132.7426   54.5687 H   0  0  0  0  0  0  0  0  0  0  0  0
  129.0560  131.3548   54.5687 H   0  0  0  0  0  0  0  0  0  0  0  0
  130.8812  132.7217   54.6045 H   0  0  0  0  0  0  0  0  0  0  0  0
  129.7462  134.0362   54.1471 H   0  0  0  0  0  0  0  0  0  0  0  0
  129.4007  133.7175   58.6527 H   0  0  0  0  0  0  0  0  0  0  0  0
  129.1386  132.2228   60.6180 H   0  0  0  0  0  0  0  0  0  0  0  0
  131.4470  130.3700   62.0640 H   0  0  0  0  0  0  0  0  0  0  0  0
  130.0374  129.1302   69.2115 H   0  0  0  0  0  0  0  0  0  0  0  0
  129.5550  129.0573   71.6442 H   0  0  0  0  0  0  0  0  0  0  0  0
  129.2730  127.6540   74.8569 H   0  0  0  0  0  0  0  0  0  0  0  0
  130.5415  127.6256   73.5854 H   0  0  0  0  0  0  0  0  0  0  0  0
  129.2986  128.9225   73.5854 H   0  0  0  0  0  0  0  0  0  0  0  0
  128.2710  124.9504   71.2701 H   0  0  0  0  0  0  0  0  0  0  0  0
  128.7618  125.0200   68.8380 H   0  0  0  0  0  0  0  0  0  0  0  0
  130.8834  125.2749   67.3798 H   0  0  0  0  0  0  0  0  0  0  0  0
  130.0547  123.5480   65.2184 H   0  0  0  0  0  0  0  0  0  0  0  0
  131.3450  121.6997   64.1749 H   0  0  0  0  0  0  0  0  0  0  0  0
  134.6947  121.2402   61.3796 H   0  0  0  0  0  0  0  0  0  0  0  0
  132.9063  121.2783   61.2157 H   0  0  0  0  0  0  0  0  0  0  0  0
  133.8410  122.8122   61.2157 H   0  0  0  0  0  0  0  0  0  0  0  0
  134.5096  124.4722   63.1786 H   0  0  0  0  0  0  0  0  0  0  0  0
  133.2104  126.3210   64.2173 H   0  0  0  0  0  0  0  0  0  0  0  0
  131.9330  127.3490   61.9030 H   0  0  0  0  0  0  0  0  0  0  0  0
  130.9050  125.9900   62.1490 H   0  0  0  0  0  0  0  0  0  0  0  0
  132.8213  130.2066   59.5843 H   0  0  0  0  0  0  0  0  0  0  0  0
  133.0851  131.7053   57.6175 H   0  0  0  0  0  0  0  0  0  0  0  0
  1  2  1  0
  2  3  1  0
  3  4  1  0
  4  5  2  0
  4  6  1  0
  6  7  2  0
  7  8  1  0
  8  9  2  0
  9 10  1  0
 10 11  1  0
 11 12  2  0
 11 13  1  0
 13 14  1  0
 14 15  1  0
 15 16  2  0
 16 17  1  0
 17 18  1  0
 18 19  2  0
 19 20  1  0
 20 21  2  0
 21 22  1  0
 22 23  1  0
 21 24  1  0
 24 25  2  0
 17 26  2  0
 26 27  1  0
 27 28  1  0
 28 29  2  0
 29 30  1  0
 30 31  2  0
 31 32  1  0
 32 33  1  0
 31 34  1  0
 34 35  2  0
 27 36  2  0
 36 37  1  0
 37 38  1  0
  9 39  1  0
 39 40  2  0
 40  6  1  0
 37 13  2  0
 36 15  1  0
 25 18  1  0
 35 28  1  0
  1 41  1  0
  1 42  1  0
  1 43  1  0
  2 44  1  0
  2 45  1  0
  7 46  1  0
  8 47  1  0
 10 48  1  0
 19 49  1  0
 20 50  1  0
 23 51  1  0
 23 52  1  0
 23 53  1  0
 24 54  1  0
 25 55  1  0
 26 56  1  0
 29 57  1  0
 30 58  1  0
 33 59  1  0
 33 60  1  0
 33 61  1  0
 34 62  1  0
 35 63  1  0
 38 64  1  0
 38 65  1  0
 39 66  1  0
 40 67  1  0
M  END
>  <Binding energies>  (1) 
[-9.57]

>  <Ligand effiencies>  (1) 
[-0.22255813953488374]

>  <Interactions>  (1) 
["V-B:GLU:543:CB:9877, V-A:HIS:456:CE1:4069, V-B:GLU:543:C:9873, V-B:GLU:543:CD:9879, V-B:HIS:456:CE1:9040, V-A:ARG:545:CZ:4925, V-A:LEU:475:CD2:4258, V-A:ASP:366:CG:3212, V-A:ILE:369:CG2:3236, V-A:ILE:369:CD1:3238, V-A:GLU:543:CD:4907, V-A:GLU:543:CG:4906, V-A:GLY:454:CA:4048, H-A:GLY:454:N:4049, V-A:PRO:540:CA:4882, V-A:PRO:540:CD:4886, V-A:ILE:538:CG2:4862, V-A:PRO:540:N:4883, V-A:PRO:540:CB:4884, V-A:TYR:539:C:4866, V-A:TYR:539:CE1:4874, H-A:TYR:539:N:4869, V-A:MET:535:CG:4832, V-A:ILE:538:CB:4861, V-A:ILE:538:CA:4859, H-A:GLU:543:OE2:4909, H-A:ASP:366:OD2:3214, V-A:TYR:539:CZ:4876, H-A:ASP:366:OD1:3213"]

$$$$
8b_Ghoteimi_2023
     RDKit          3D

 54 58  0  0  0  0  0  0  0  0999 V2000
  124.2880  132.3460   63.6390 C   0  0  0  0  0  0  0  0  0  0  0  0
  124.5920  131.3170   64.5750 O   0  0  0  0  0  0  0  0  0  0  0  0
  125.1580  130.1400   64.1240 C   0  0  0  0  0  0  0  0  0  0  0  0
  124.7350  129.6840   62.8770 C   0  0  0  0  0  0  0  0  0  0  0  0
  125.2500  128.5080   62.3420 C   0  0  0  0  0  0  0  0  0  0  0  0
  126.2030  127.7540   63.0420 C   0  0  0  0  0  0  0  0  0  0  0  0
  126.7580  126.4870   62.4730 C   0  0  0  0  0  0  0  0  0  0  0  0
  126.3510  125.9990   61.2270 C   0  0  0  0  0  0  0  0  0  0  0  0
  126.8860  124.8120   60.7170 C   0  0  0  0  0  0  0  0  0  0  0  0
  126.4270  124.3170   59.3990 C   0  0  0  0  0  0  0  0  0  0  0  0
  127.3410  124.1310   58.3600 C   0  0  0  0  0  0  0  0  0  0  0  0
  126.9080  123.6570   57.1250 C   0  0  0  0  0  0  0  0  0  0  0  0
  125.5610  123.3650   56.9080 C   0  0  0  0  0  0  0  0  0  0  0  0
  125.2240  122.8970   55.6520 O   0  0  0  0  0  0  0  0  0  0  0  0
  126.1820  122.1520   54.9090 C   0  0  0  0  0  0  0  0  0  0  0  0
  124.6440  123.5570   57.9530 C   0  0  0  0  0  0  0  0  0  0  0  0
  125.0770  124.0300   59.1890 C   0  0  0  0  0  0  0  0  0  0  0  0
  127.8560  124.1270   61.4960 C   0  0  0  0  0  0  0  0  0  0  0  0
  128.6010  122.9130   61.2820 C   0  0  0  0  0  0  0  0  0  0  0  0
  128.4570  122.1540   60.1490 N   0  0  0  0  0  0  0  0  0  0  0  0
  129.4760  122.5910   62.3320 C   0  0  0  0  0  0  0  0  0  0  0  0
  130.3790  121.4430   62.4450 C   0  0  0  0  0  0  0  0  0  0  0  0
  131.3150  121.4560   63.2480 O   0  0  0  0  0  0  0  0  0  0  0  0
  130.1060  120.4040   61.6160 N   0  0  0  0  0  0  0  0  0  0  0  0
  130.7900  119.2000   61.5160 C   0  0  0  0  0  0  0  0  0  0  0  0
  132.1010  119.1060   61.0520 C   0  0  0  0  0  0  0  0  0  0  0  0
  132.4040  117.7650   61.1020 C   0  0  0  0  0  0  0  0  0  0  0  0
  131.3330  117.0860   61.5760 O   0  0  0  0  0  0  0  0  0  0  0  0
  130.3150  118.0070   61.8370 N   0  0  0  0  0  0  0  0  0  0  0  0
  129.3980  123.7950   63.6190 S   0  0  0  0  0  0  0  0  0  0  0  0
  128.1980  124.7190   62.7460 C   0  0  0  0  0  0  0  0  0  0  0  0
  127.6870  125.8480   63.2350 N   0  0  0  0  0  0  0  0  0  0  0  0
  126.6260  128.2200   64.2950 C   0  0  0  0  0  0  0  0  0  0  0  0
  126.1120  129.3970   64.8330 C   0  0  0  0  0  0  0  0  0  0  0  0
  124.0166  133.2648   64.1795 H   0  0  0  0  0  0  0  0  0  0  0  0
  125.1676  132.5385   63.0072 H   0  0  0  0  0  0  0  0  0  0  0  0
  123.4450  132.0296   63.0072 H   0  0  0  0  0  0  0  0  0  0  0  0
  123.9874  130.2590   62.3109 H   0  0  0  0  0  0  0  0  0  0  0  0
  124.9049  128.1644   61.3557 H   0  0  0  0  0  0  0  0  0  0  0  0
  125.6027  126.5544   60.6425 H   0  0  0  0  0  0  0  0  0  0  0  0
  128.4054  124.3595   58.5178 H   0  0  0  0  0  0  0  0  0  0  0  0
  127.6348  123.5112   56.3122 H   0  0  0  0  0  0  0  0  0  0  0  0
  126.8563  121.6276   55.6020 H   0  0  0  0  0  0  0  0  0  0  0  0
  125.6638  121.4173   54.2753 H   0  0  0  0  0  0  0  0  0  0  0  0
  126.7665  122.8352   54.2753 H   0  0  0  0  0  0  0  0  0  0  0  0
  123.5787  123.3329   57.7950 H   0  0  0  0  0  0  0  0  0  0  0  0
  124.3524  124.1781   60.0033 H   0  0  0  0  0  0  0  0  0  0  0  0
  128.8950  122.4210   59.2780 H   0  0  0  0  0  0  0  0  0  0  0  0
  127.9080  121.3060   60.1430 H   0  0  0  0  0  0  0  0  0  0  0  0
  129.3140  120.5060   61.0000 H   0  0  0  0  0  0  0  0  0  0  0  0
  132.7526  119.9268   60.7180 H   0  0  0  0  0  0  0  0  0  0  0  0
  133.3632  117.3162   60.8044 H   0  0  0  0  0  0  0  0  0  0  0  0
  127.3751  127.6472   64.8614 H   0  0  0  0  0  0  0  0  0  0  0  0
  126.4559  129.7451   65.8182 H   0  0  0  0  0  0  0  0  0  0  0  0
  1  2  1  0
  2  3  1  0
  3  4  2  0
  4  5  1  0
  5  6  2  0
  6  7  1  0
  7  8  2  0
  8  9  1  0
  9 10  1  0
 10 11  2  0
 11 12  1  0
 12 13  2  0
 13 14  1  0
 14 15  1  0
 13 16  1  0
 16 17  2  0
  9 18  2  0
 18 19  1  0
 19 20  1  0
 19 21  2  0
 21 22  1  0
 22 23  2  0
 22 24  1  0
 24 25  1  0
 25 26  1  0
 26 27  2  0
 27 28  1  0
 28 29  1  0
 21 30  1  0
 30 31  1  0
 31 32  2  0
  6 33  1  0
 33 34  2  0
 34  3  1  0
 32  7  1  0
 17 10  1  0
 31 18  1  0
 29 25  2  0
  1 35  1  0
  1 36  1  0
  1 37  1  0
  4 38  1  0
  5 39  1  0
  8 40  1  0
 11 41  1  0
 12 42  1  0
 15 43  1  0
 15 44  1  0
 15 45  1  0
 16 46  1  0
 17 47  1  0
 20 48  1  0
 20 49  1  0
 24 50  1  0
 26 51  1  0
 27 52  1  0
 33 53  1  0
 34 54  1  0
M  END
>  <Binding energies>  (1) 
[-8.09]

>  <Ligand effiencies>  (1) 
[-0.21864864864864864]

>  <Interactions>  (1) 
["V-B:GLU:543:CD:9879, V-B:ASP:366:CG:8183, V-B:TYR:531:CZ:9765, V-B:PRO:540:N:9855, H-B:TYR:531:OH:9766, V-B:PRO:540:CB:9856, V-B:TYR:539:CD2:9845, V-B:TYR:539:C:9838, V-B:MET:535:CE:9806, V-B:TYR:531:CE2:9764, V-B:PRO:540:CA:9854, V-B:LEU:363:CD1:8159, V-B:TYR:539:CE2:9847, V-B:LEU:475:CD1:9228, V-B:ARG:545:CZ:9897, V-B:GLY:454:CA:9019, V-A:LEU:475:CD2:4258, V-B:ILE:538:CB:9833, V-B:ALA:541:CB:9863, V-A:SER:385:CB:3408, V-B:MET:535:CG:9804, V-B:ILE:538:CD1:9836, V-B:ILE:538:CG2:9834, V-B:ILE:538:CA:9831, V-A:SER:385:CA:3406, V-B:ILE:538:C:9829, H-B:GLY:454:N:9020, V-B:PRO:540:C:9852, H-A:HIS:383:ND1:3390, H-B:TYR:539:O:9839, V-B:ILE:538:CG1:9835, V-B:VAL:537:C:9821"]

$$$$
8c_Ghoteimi_2023
     RDKit          3D

 54 58  0  0  0  0  0  0  0  0999 V2000
  124.1680  132.3470   63.6360 C   0  0  0  0  0  0  0  0  0  0  0  0
  124.6160  131.3840   64.5830 O   0  0  0  0  0  0  0  0  0  0  0  0
  125.1750  130.2030   64.1310 C   0  0  0  0  0  0  0  0  0  0  0  0
  124.7390  129.7420   62.8910 C   0  0  0  0  0  0  0  0  0  0  0  0
  125.2450  128.5600   62.3580 C   0  0  0  0  0  0  0  0  0  0  0  0
  126.2040  127.8090   63.0530 C   0  0  0  0  0  0  0  0  0  0  0  0
  126.7500  126.5360   62.4870 C   0  0  0  0  0  0  0  0  0  0  0  0
  126.3270  126.0380   61.2510 C   0  0  0  0  0  0  0  0  0  0  0  0
  126.8560  124.8460   60.7430 C   0  0  0  0  0  0  0  0  0  0  0  0
  126.3810  124.3420   59.4350 C   0  0  0  0  0  0  0  0  0  0  0  0
  127.2830  124.1480   58.3860 C   0  0  0  0  0  0  0  0  0  0  0  0
  126.8360  123.6640   57.1600 C   0  0  0  0  0  0  0  0  0  0  0  0
  125.4860  123.3710   56.9610 C   0  0  0  0  0  0  0  0  0  0  0  0
  125.1350  122.8930   55.7130 O   0  0  0  0  0  0  0  0  0  0  0  0
  126.0840  122.1450   54.9640 C   0  0  0  0  0  0  0  0  0  0  0  0
  124.5810  123.5700   58.0150 C   0  0  0  0  0  0  0  0  0  0  0  0
  125.0290  124.0530   59.2420 C   0  0  0  0  0  0  0  0  0  0  0  0
  127.8330  124.1660   61.5170 C   0  0  0  0  0  0  0  0  0  0  0  0
  128.5720  122.9490   61.3050 C   0  0  0  0  0  0  0  0  0  0  0  0
  128.4130  122.1790   60.1800 N   0  0  0  0  0  0  0  0  0  0  0  0
  129.4580  122.6320   62.3470 C   0  0  0  0  0  0  0  0  0  0  0  0
  130.3590  121.4830   62.4600 C   0  0  0  0  0  0  0  0  0  0  0  0
  131.2910  121.4910   63.2670 O   0  0  0  0  0  0  0  0  0  0  0  0
  130.0890  120.4480   61.6270 N   0  0  0  0  0  0  0  0  0  0  0  0
  130.7810  119.2490   61.5350 C   0  0  0  0  0  0  0  0  0  0  0  0
  130.3570  118.0450   61.8540 N   0  0  0  0  0  0  0  0  0  0  0  0
  131.2820  117.1320   61.6330 C   0  0  0  0  0  0  0  0  0  0  0  0
  132.4920  117.5910   61.1240 C   0  0  0  0  0  0  0  0  0  0  0  0
  132.4040  119.3160   60.9270 S   0  0  0  0  0  0  0  0  0  0  0  0
  129.4000  123.8480   63.6240 S   0  0  0  0  0  0  0  0  0  0  0  0
  128.1910  124.7680   62.7580 C   0  0  0  0  0  0  0  0  0  0  0  0
  127.6870  125.9020   63.2430 N   0  0  0  0  0  0  0  0  0  0  0  0
  126.6400  128.2810   64.2980 C   0  0  0  0  0  0  0  0  0  0  0  0
  126.1350  129.4610   64.8350 C   0  0  0  0  0  0  0  0  0  0  0  0
  123.7614  133.2209   64.1661 H   0  0  0  0  0  0  0  0  0  0  0  0
  125.0125  132.6611   63.0049 H   0  0  0  0  0  0  0  0  0  0  0  0
  123.3838  131.9034   63.0049 H   0  0  0  0  0  0  0  0  0  0  0  0
  123.9886  130.3168   62.3284 H   0  0  0  0  0  0  0  0  0  0  0  0
  124.8878  128.2101   61.3782 H   0  0  0  0  0  0  0  0  0  0  0  0
  125.5709  126.5885   60.6720 H   0  0  0  0  0  0  0  0  0  0  0  0
  128.3490  124.3783   58.5293 H   0  0  0  0  0  0  0  0  0  0  0  0
  127.5534  123.5110   56.3403 H   0  0  0  0  0  0  0  0  0  0  0  0
  126.7579  121.6139   55.6523 H   0  0  0  0  0  0  0  0  0  0  0  0
  125.5582  121.4158   54.3301 H   0  0  0  0  0  0  0  0  0  0  0  0
  126.6702  122.8266   54.3301 H   0  0  0  0  0  0  0  0  0  0  0  0
  123.5141  123.3437   57.8715 H   0  0  0  0  0  0  0  0  0  0  0  0
  124.3138  124.2076   60.0633 H   0  0  0  0  0  0  0  0  0  0  0  0
  128.8090  122.4550   59.2920 H   0  0  0  0  0  0  0  0  0  0  0  0
  127.8940  121.3130   60.1980 H   0  0  0  0  0  0  0  0  0  0  0  0
  129.2980  120.5480   61.0070 H   0  0  0  0  0  0  0  0  0  0  0  0
  131.1064  116.0660   61.8398 H   0  0  0  0  0  0  0  0  0  0  0  0
  133.3636  116.9641   60.8848 H   0  0  0  0  0  0  0  0  0  0  0  0
  127.3935  127.7096   64.8598 H   0  0  0  0  0  0  0  0  0  0  0  0
  126.4897  129.8132   65.8149 H   0  0  0  0  0  0  0  0  0  0  0  0
  1  2  1  0
  2  3  1  0
  3  4  2  0
  4  5  1  0
  5  6  2  0
  6  7  1  0
  7  8  2  0
  8  9  1  0
  9 10  1  0
 10 11  2  0
 11 12  1  0
 12 13  2  0
 13 14  1  0
 14 15  1  0
 13 16  1  0
 16 17  2  0
  9 18  2  0
 18 19  1  0
 19 20  1  0
 19 21  2  0
 21 22  1  0
 22 23  2  0
 22 24  1  0
 24 25  1  0
 25 26  2  0
 26 27  1  0
 27 28  2  0
 28 29  1  0
 21 30  1  0
 30 31  1  0
 31 32  2  0
  6 33  1  0
 33 34  2  0
 34  3  1  0
 32  7  1  0
 17 10  1  0
 31 18  1  0
 29 25  1  0
  1 35  1  0
  1 36  1  0
  1 37  1  0
  4 38  1  0
  5 39  1  0
  8 40  1  0
 11 41  1  0
 12 42  1  0
 15 43  1  0
 15 44  1  0
 15 45  1  0
 16 46  1  0
 17 47  1  0
 20 48  1  0
 20 49  1  0
 24 50  1  0
 27 51  1  0
 28 52  1  0
 33 53  1  0
 34 54  1  0
M  END
>  <Binding energies>  (1) 
[-8.35]

>  <Ligand effiencies>  (1) 
[-0.22567567567567567]

>  <Interactions>  (1) 
["V-B:GLU:543:CD:9879, V-B:ASP:366:CG:8183, V-B:TYR:531:CZ:9765, V-B:PRO:540:N:9855, H-B:TYR:531:OH:9766, V-B:PRO:540:CB:9856, V-B:TYR:539:CD2:9845, V-B:TYR:539:C:9838, V-B:MET:535:CE:9806, V-B:TYR:531:CE2:9764, V-B:PRO:540:CA:9854, V-B:LEU:363:CD1:8159, V-B:LEU:475:CD1:9228, V-B:ARG:545:CZ:9897, V-B:GLY:454:CA:9019, V-A:LEU:475:CD2:4258, V-B:ILE:538:CB:9833, V-A:PRO:482:CG:4326, V-B:ALA:541:CB:9863, V-A:SER:385:CB:3408, V-B:MET:535:CG:9804, V-B:ILE:538:CD1:9836, V-B:ILE:538:CG2:9834, V-A:HIS:383:CE1:3393, V-A:PRO:482:CB:4325, V-B:ILE:538:CA:9831, V-A:SER:385:CA:3406, V-B:ILE:538:C:9829, H-B:GLY:454:N:9020, V-B:PRO:540:C:9852, H-B:TYR:539:O:9839, V-B:ILE:538:CG1:9835"]

$$$$
8d_Ghoteimi_2023
     RDKit          3D

 50 53  0  0  0  0  0  0  0  0999 V2000
  135.2590  125.1070   76.5500 C   0  0  0  0  0  0  0  0  0  0  0  0
  134.1010  125.7710   77.0350 O   0  0  0  0  0  0  0  0  0  0  0  0
  133.6330  126.8910   76.4240 C   0  0  0  0  0  0  0  0  0  0  0  0
  134.0560  128.0270   76.6510 O   0  0  0  0  0  0  0  0  0  0  0  0
  132.5560  126.6090   75.4510 C   0  0  0  0  0  0  0  0  0  0  0  0
  131.9710  127.8920   74.3890 S   0  0  0  0  0  0  0  0  0  0  0  0
  130.8210  126.8060   73.6460 C   0  0  0  0  0  0  0  0  0  0  0  0
  129.9980  127.2080   72.6760 N   0  0  0  0  0  0  0  0  0  0  0  0
  129.1440  126.2820   72.1650 C   0  0  0  0  0  0  0  0  0  0  0  0
  128.2300  126.7600   71.0820 C   0  0  0  0  0  0  0  0  0  0  0  0
  126.8460  126.5480   71.1560 C   0  0  0  0  0  0  0  0  0  0  0  0
  125.9990  126.9950   70.1450 C   0  0  0  0  0  0  0  0  0  0  0  0
  126.5130  127.6640   69.0350 C   0  0  0  0  0  0  0  0  0  0  0  0
  125.6000  128.0710   68.0820 O   0  0  0  0  0  0  0  0  0  0  0  0
  126.0590  128.7930   66.9430 C   0  0  0  0  0  0  0  0  0  0  0  0
  127.8950  127.8840   68.9520 C   0  0  0  0  0  0  0  0  0  0  0  0
  128.7380  127.4360   69.9660 C   0  0  0  0  0  0  0  0  0  0  0  0
  129.1080  124.9630   72.6290 C   0  0  0  0  0  0  0  0  0  0  0  0
  129.9730  124.5410   73.6440 C   0  0  0  0  0  0  0  0  0  0  0  0
  129.9170  123.1350   74.1070 C   0  0  0  0  0  0  0  0  0  0  0  0
  131.0620  122.3370   74.0680 C   0  0  0  0  0  0  0  0  0  0  0  0
  131.0080  121.0130   74.4950 C   0  0  0  0  0  0  0  0  0  0  0  0
  129.8140  120.4700   74.9700 C   0  0  0  0  0  0  0  0  0  0  0  0
  129.8540  119.1490   75.3710 O   0  0  0  0  0  0  0  0  0  0  0  0
  130.8320  118.7410   76.3210 C   0  0  0  0  0  0  0  0  0  0  0  0
  128.6640  121.2760   75.0130 C   0  0  0  0  0  0  0  0  0  0  0  0
  128.7200  122.6000   74.5840 C   0  0  0  0  0  0  0  0  0  0  0  0
  130.8760  125.4910   74.1890 C   0  0  0  0  0  0  0  0  0  0  0  0
  131.8750  125.4080   75.2180 C   0  0  0  0  0  0  0  0  0  0  0  0
  132.1300  124.2510   75.9110 N   0  0  0  0  0  0  0  0  0  0  0  0
  135.8652  124.7594   77.3995 H   0  0  0  0  0  0  0  0  0  0  0  0
  134.9576  124.2445   75.9374 H   0  0  0  0  0  0  0  0  0  0  0  0
  135.8511  125.8028   75.9374 H   0  0  0  0  0  0  0  0  0  0  0  0
  126.4235  126.0214   72.0245 H   0  0  0  0  0  0  0  0  0  0  0  0
  124.9160  126.8189   70.2228 H   0  0  0  0  0  0  0  0  0  0  0  0
  126.6220  129.6786   67.2727 H   0  0  0  0  0  0  0  0  0  0  0  0
  126.7127  128.1471   66.3384 H   0  0  0  0  0  0  0  0  0  0  0  0
  125.1968  129.1108   66.3384 H   0  0  0  0  0  0  0  0  0  0  0  0
  128.3149  128.4121   68.0832 H   0  0  0  0  0  0  0  0  0  0  0  0
  129.8204  127.6161   69.8889 H   0  0  0  0  0  0  0  0  0  0  0  0
  128.3928  124.2509   72.1916 H   0  0  0  0  0  0  0  0  0  0  0  0
  132.0098  122.7557   73.6987 H   0  0  0  0  0  0  0  0  0  0  0  0
  131.9139  120.3902   74.4575 H   0  0  0  0  0  0  0  0  0  0  0  0
  130.4451  118.9024   77.3380 H   0  0  0  0  0  0  0  0  0  0  0  0
  131.0576  117.6737   76.1797 H   0  0  0  0  0  0  0  0  0  0  0  0
  131.7492  119.3315   76.1797 H   0  0  0  0  0  0  0  0  0  0  0  0
  127.7166  120.8602   75.3866 H   0  0  0  0  0  0  0  0  0  0  0  0
  127.8166  123.2265   74.6214 H   0  0  0  0  0  0  0  0  0  0  0  0
  133.0550  124.0330   76.2520 H   0  0  0  0  0  0  0  0  0  0  0  0
  131.4010  123.5800   76.1080 H   0  0  0  0  0  0  0  0  0  0  0  0
  1  2  1  0
  2  3  1  0
  3  4  2  0
  3  5  1  0
  5  6  1  0
  6  7  1  0
  7  8  2  0
  8  9  1  0
  9 10  1  0
 10 11  2  0
 11 12  1  0
 12 13  2  0
 13 14  1  0
 14 15  1  0
 13 16  1  0
 16 17  2  0
  9 18  2  0
 18 19  1  0
 19 20  1  0
 20 21  2  0
 21 22  1  0
 22 23  2  0
 23 24  1  0
 24 25  1  0
 23 26  1  0
 26 27  2  0
 19 28  2  0
 28 29  1  0
 29 30  1  0
 29  5  2  0
 28  7  1  0
 17 10  1  0
 27 20  1  0
  1 31  1  0
  1 32  1  0
  1 33  1  0
 11 34  1  0
 12 35  1  0
 15 36  1  0
 15 37  1  0
 15 38  1  0
 16 39  1  0
 17 40  1  0
 18 41  1  0
 21 42  1  0
 22 43  1  0
 25 44  1  0
 25 45  1  0
 25 46  1  0
 26 47  1  0
 27 48  1  0
 30 49  1  0
 30 50  1  0
M  END
>  <Binding energies>  (1) 
[-6.73]

>  <Ligand effiencies>  (1) 
[-0.2103125]

>  <Interactions>  (1) 
["V-B:GLU:543:CB:9877, V-A:HIS:456:CE1:4069, V-B:GLU:543:C:9873, V-B:GLY:544:C:9883, V-A:HIS:456:CD2:4067, V-A:HIS:456:C:4060, V-B:ARG:545:CA:9890, V-A:HIS:456:CB:4064, V-A:VAL:457:C:4072, V-B:GLU:543:CD:9879, V-B:HIS:456:CE1:9040, V-A:HIS:456:CG:4065, V-B:ARG:545:CG:9893, H-A:HIS:456:ND1:4066, V-B:GLY:544:CA:9885, H-A:ASP:473:OD2:4241, V-B:LYS:547:CE:9921, V-A:VAL:458:CG2:4086, V-A:TYR:484:CG:4341, V-A:TYR:484:CB:4340, V-A:ASP:473:CG:4239, V-A:LYS:471:CD:4218, V-A:VAL:457:CA:4074, V-A:ASP:485:CA:4352, V-A:PRO:486:CD:4365, V-A:ASP:473:CB:4238"]

$$$$
9a_Ghoteimi_2023
     RDKit          3D

 85 91  0  0  0  0  0  0  0  0999 V2000
  130.4890  117.1270   60.6220 C   0  0  0  0  0  0  0  0  0  0  0  0
  131.4390  116.9090   61.8040 C   0  0  0  0  0  0  0  0  0  0  0  0
  132.6680  117.5810   61.5550 O   0  0  0  0  0  0  0  0  0  0  0  0
  132.7610  118.5370   60.5960 C   0  0  0  0  0  0  0  0  0  0  0  0
  133.0710  118.2980   59.4240 O   0  0  0  0  0  0  0  0  0  0  0  0
  132.4580  119.9180   61.1020 C   0  0  0  0  0  0  0  0  0  0  0  0
  131.1800  120.1990   61.6010 C   0  0  0  0  0  0  0  0  0  0  0  0
  130.8670  121.4700   62.0760 C   0  0  0  0  0  0  0  0  0  0  0  0
  131.8240  122.4850   62.0640 C   0  0  0  0  0  0  0  0  0  0  0  0
  131.3970  123.7280   62.5680 N   0  0  0  0  0  0  0  0  0  0  0  0
  131.7830  124.4070   63.6770 C   0  0  0  0  0  0  0  0  0  0  0  0
  132.6340  124.0060   64.4720 O   0  0  0  0  0  0  0  0  0  0  0  0
  131.1160  125.6950   63.8860 C   0  0  0  0  0  0  0  0  0  0  0  0
  130.9410  126.8350   62.5510 S   0  0  0  0  0  0  0  0  0  0  0  0
  130.1040  127.9770   63.5760 C   0  0  0  0  0  0  0  0  0  0  0  0
  129.6520  129.1380   63.1040 N   0  0  0  0  0  0  0  0  0  0  0  0
  129.0050  129.9500   63.9820 C   0  0  0  0  0  0  0  0  0  0  0  0
  128.4970  131.2420   63.4280 C   0  0  0  0  0  0  0  0  0  0  0  0
  129.0550  131.7870   62.2660 C   0  0  0  0  0  0  0  0  0  0  0  0
  128.5880  132.9890   61.7430 C   0  0  0  0  0  0  0  0  0  0  0  0
  127.5340  133.6860   62.3560 C   0  0  0  0  0  0  0  0  0  0  0  0
  127.0660  134.9050   61.8530 N   0  0  0  0  0  0  0  0  0  0  0  0
  127.7720  136.1730   62.1230 C   0  0  0  0  0  0  0  0  0  0  0  0
  126.9360  137.4310   61.8080 C   0  0  0  0  0  0  0  0  0  0  0  0
  126.4700  137.3830   60.4700 O   0  0  0  0  0  0  0  0  0  0  0  0
  125.6500  136.2470   60.2460 C   0  0  0  0  0  0  0  0  0  0  0  0
  126.4530  134.9570   60.5090 C   0  0  0  0  0  0  0  0  0  0  0  0
  126.9870  133.1430   63.5280 C   0  0  0  0  0  0  0  0  0  0  0  0
  127.4580  131.9430   64.0520 C   0  0  0  0  0  0  0  0  0  0  0  0
  128.8370  129.6120   65.3260 C   0  0  0  0  0  0  0  0  0  0  0  0
  129.3280  128.4030   65.8300 C   0  0  0  0  0  0  0  0  0  0  0  0
  129.1540  128.1090   67.2760 C   0  0  0  0  0  0  0  0  0  0  0  0
  130.2340  128.2060   68.1570 C   0  0  0  0  0  0  0  0  0  0  0  0
  130.0660  127.9440   69.5130 C   0  0  0  0  0  0  0  0  0  0  0  0
  128.8080  127.5950   70.0290 C   0  0  0  0  0  0  0  0  0  0  0  0
  128.6180  127.3160   71.3850 N   0  0  0  0  0  0  0  0  0  0  0  0
  129.7100  127.5990   72.3380 C   0  0  0  0  0  0  0  0  0  0  0  0
  129.2470  127.6100   73.8100 C   0  0  0  0  0  0  0  0  0  0  0  0
  128.6040  126.3850   74.1260 O   0  0  0  0  0  0  0  0  0  0  0  0
  127.4630  126.1660   73.3120 C   0  0  0  0  0  0  0  0  0  0  0  0
  127.8770  126.1180   71.8260 C   0  0  0  0  0  0  0  0  0  0  0  0
  127.7310  127.5030   69.1360 C   0  0  0  0  0  0  0  0  0  0  0  0
  127.8990  127.7610   67.7790 C   0  0  0  0  0  0  0  0  0  0  0  0
  129.9780  127.5200   64.9210 C   0  0  0  0  0  0  0  0  0  0  0  0
  130.5440  126.2020   65.0640 C   0  0  0  0  0  0  0  0  0  0  0  0
  130.5090  125.5080   66.2460 N   0  0  0  0  0  0  0  0  0  0  0  0
  133.1090  122.2110   61.5690 C   0  0  0  0  0  0  0  0  0  0  0  0
  133.4200  120.9400   61.0940 C   0  0  0  0  0  0  0  0  0  0  0  0
  129.4818  117.3581   60.9989 H   0  0  0  0  0  0  0  0  0  0  0  0
  130.8524  117.9651   60.0092 H   0  0  0  0  0  0  0  0  0  0  0  0
  130.4507  116.2143   60.0092 H   0  0  0  0  0  0  0  0  0  0  0  0
  130.9815  117.3092   62.7208 H   0  0  0  0  0  0  0  0  0  0  0  0
  131.6284  115.8326   61.9284 H   0  0  0  0  0  0  0  0  0  0  0  0
  130.4159  119.4079   61.6179 H   0  0  0  0  0  0  0  0  0  0  0  0
  129.8581  121.6751   62.4634 H   0  0  0  0  0  0  0  0  0  0  0  0
  130.6920  124.1790   62.0030 H   0  0  0  0  0  0  0  0  0  0  0  0
  129.8748  131.2574   61.7586 H   0  0  0  0  0  0  0  0  0  0  0  0
  129.0521  133.4001   60.8344 H   0  0  0  0  0  0  0  0  0  0  0  0
  128.0467  136.1969   63.1879 H   0  0  0  0  0  0  0  0  0  0  0  0
  128.6500  136.1979   61.4608 H   0  0  0  0  0  0  0  0  0  0  0  0
  126.0755  137.4767   62.4917 H   0  0  0  0  0  0  0  0  0  0  0  0
  127.5652  138.3238   61.9386 H   0  0  0  0  0  0  0  0  0  0  0  0
  124.7851  136.2825   60.9247 H   0  0  0  0  0  0  0  0  0  0  0  0
  125.3049  136.2510   59.2015 H   0  0  0  0  0  0  0  0  0  0  0  0
  125.7748  134.0975   60.4026 H   0  0  0  0  0  0  0  0  0  0  0  0
  127.2751  134.9343   59.7785 H   0  0  0  0  0  0  0  0  0  0  0  0
  126.1722  133.6746   64.0414 H   0  0  0  0  0  0  0  0  0  0  0  0
  127.0072  131.5390   64.9704 H   0  0  0  0  0  0  0  0  0  0  0  0
  128.3112  130.3061   65.9981 H   0  0  0  0  0  0  0  0  0  0  0  0
  131.2253  128.4919   67.7754 H   0  0  0  0  0  0  0  0  0  0  0  0
  130.9305  128.0112   70.1898 H   0  0  0  0  0  0  0  0  0  0  0  0
  130.4844  126.8266   72.2212 H   0  0  0  0  0  0  0  0  0  0  0  0
  130.0907  128.6052   72.1083 H   0  0  0  0  0  0  0  0  0  0  0  0
  130.1203  127.7426   74.4655 H   0  0  0  0  0  0  0  0  0  0  0  0
  128.5389  128.4384   73.9595 H   0  0  0  0  0  0  0  0  0  0  0  0
  126.9944  125.2106   73.5908 H   0  0  0  0  0  0  0  0  0  0  0  0
  126.7488  126.9891   73.4618 H   0  0  0  0  0  0  0  0  0  0  0  0
  128.5156  125.2360   71.6703 H   0  0  0  0  0  0  0  0  0  0  0  0
  126.9520  126.0715   71.2325 H   0  0  0  0  0  0  0  0  0  0  0  0
  126.7370  127.2223   69.5143 H   0  0  0  0  0  0  0  0  0  0  0  0
  127.0377  127.6903   67.0984 H   0  0  0  0  0  0  0  0  0  0  0  0
  129.6360  125.2410   66.6810 H   0  0  0  0  0  0  0  0  0  0  0  0
  131.3580  125.2390   66.7230 H   0  0  0  0  0  0  0  0  0  0  0  0
  133.8722  123.0030   61.5565 H   0  0  0  0  0  0  0  0  0  0  0  0
  134.4296  120.7346   60.7086 H   0  0  0  0  0  0  0  0  0  0  0  0
  1  2  1  0
  2  3  1  0
  3  4  1  0
  4  5  2  0
  4  6  1  0
  6  7  2  0
  7  8  1  0
  8  9  2  0
  9 10  1  0
 10 11  1  0
 11 12  2  0
 11 13  1  0
 13 14  1  0
 14 15  1  0
 15 16  2  0
 16 17  1  0
 17 18  1  0
 18 19  2  0
 19 20  1  0
 20 21  2  0
 21 22  1  0
 22 23  1  0
 23 24  1  0
 24 25  1  0
 25 26  1  0
 26 27  1  0
 21 28  1  0
 28 29  2  0
 17 30  2  0
 30 31  1  0
 31 32  1  0
 32 33  2  0
 33 34  1  0
 34 35  2  0
 35 36  1  0
 36 37  1  0
 37 38  1  0
 38 39  1  0
 39 40  1  0
 40 41  1  0
 35 42  1  0
 42 43  2  0
 31 44  2  0
 44 45  1  0
 45 46  1  0
  9 47  1  0
 47 48  2  0
 48  6  1  0
 45 13  2  0
 44 15  1  0
 29 18  1  0
 43 32  1  0
 27 22  1  0
 41 36  1  0
  1 49  1  0
  1 50  1  0
  1 51  1  0
  2 52  1  0
  2 53  1  0
  7 54  1  0
  8 55  1  0
 10 56  1  0
 19 57  1  0
 20 58  1  0
 23 59  1  0
 23 60  1  0
 24 61  1  0
 24 62  1  0
 26 63  1  0
 26 64  1  0
 27 65  1  0
 27 66  1  0
 28 67  1  0
 29 68  1  0
 30 69  1  0
 33 70  1  0
 34 71  1  0
 37 72  1  0
 37 73  1  0
 38 74  1  0
 38 75  1  0
 40 76  1  0
 40 77  1  0
 41 78  1  0
 41 79  1  0
 42 80  1  0
 43 81  1  0
 46 82  1  0
 46 83  1  0
 47 84  1  0
 48 85  1  0
M  END
>  <Binding energies>  (1) 
[-10.37]

>  <Ligand effiencies>  (1) 
[-0.2033333333333333]

>  <Interactions>  (1) 
["V-B:GLU:543:CB:9877, V-A:HIS:456:CE1:4069, V-B:GLU:543:C:9873, V-B:GLY:544:C:9883, V-B:GLU:543:CD:9879, V-B:HIS:456:CE1:9040, V-B:TYR:539:CD2:9845, V-B:LEU:475:CD1:9228, H-B:LYS:547:NZ:9922, V-A:LEU:475:CD2:4258, V-A:PRO:482:CG:4326, V-A:SER:385:CB:3408, V-B:VAL:344:CG1:7971, V-A:THR:477:CG2:4272, H-B:GLU:543:OE2:9881, V-A:ILE:369:CG2:3236, V-B:TYR:539:CB:9842, V-A:ILE:369:CD1:3238, V-A:HIS:383:CE1:3393, V-A:PRO:482:CB:4325, V-A:GLU:543:CD:4907, V-A:GLU:543:CG:4906, V-A:SER:385:CA:3406, V-A:GLU:543:CB:4905, H-A:TYR:484:OH:4347, H-A:GLY:454:N:4049, V-A:TYR:539:CD1:4872, V-A:TYR:539:CE1:4874, V-A:ALA:541:CB:4891, V-B:SER:385:CB:8379, V-B:LYS:547:CE:9921, H-A:HIS:383:ND1:3390, V-A:TYR:539:CG:4871, V-A:TYR:539:CB:4870, H-B:SER:385:OG:8380, H-B:HIS:383:NE2:8364, V-B:PRO:482:CB:9296, V-B:PRO:482:CG:9297"]

$$$$
9b_Ghoteimi_2023
     RDKit          3D

 72 78  0  0  0  0  0  0  0  0999 V2000
  128.6810  129.4450   59.4240 N   0  0  0  0  0  0  0  0  0  0  0  0
  128.8210  130.1090   60.6170 C   0  0  0  0  0  0  0  0  0  0  0  0
  129.2000  131.4570   60.7110 C   0  0  0  0  0  0  0  0  0  0  0  0
  129.4890  132.4030   59.6300 C   0  0  0  0  0  0  0  0  0  0  0  0
  128.7950  133.4100   59.4730 O   0  0  0  0  0  0  0  0  0  0  0  0
  130.5450  132.0830   58.8410 N   0  0  0  0  0  0  0  0  0  0  0  0
  131.0300  132.7880   57.7470 C   0  0  0  0  0  0  0  0  0  0  0  0
  132.2890  132.5610   57.1920 C   0  0  0  0  0  0  0  0  0  0  0  0
  132.3820  133.4460   56.1430 C   0  0  0  0  0  0  0  0  0  0  0  0
  131.2390  134.1680   56.0700 O   0  0  0  0  0  0  0  0  0  0  0  0
  130.3900  133.7420   57.0920 N   0  0  0  0  0  0  0  0  0  0  0  0
  129.3110  131.9720   62.3940 S   0  0  0  0  0  0  0  0  0  0  0  0
  128.8680  130.3790   62.9580 C   0  0  0  0  0  0  0  0  0  0  0  0
  128.7970  130.0930   64.2570 N   0  0  0  0  0  0  0  0  0  0  0  0
  128.4610  128.8190   64.5900 C   0  0  0  0  0  0  0  0  0  0  0  0
  128.4090  128.5200   66.0530 C   0  0  0  0  0  0  0  0  0  0  0  0
  129.4980  127.9370   66.7120 C   0  0  0  0  0  0  0  0  0  0  0  0
  129.4380  127.6470   68.0720 C   0  0  0  0  0  0  0  0  0  0  0  0
  128.2820  127.9150   68.8200 C   0  0  0  0  0  0  0  0  0  0  0  0
  128.2080  127.6320   70.1890 N   0  0  0  0  0  0  0  0  0  0  0  0
  129.3660  127.8420   71.0810 C   0  0  0  0  0  0  0  0  0  0  0  0
  129.0090  127.8130   72.5820 C   0  0  0  0  0  0  0  0  0  0  0  0
  128.3390  126.6040   72.8980 O   0  0  0  0  0  0  0  0  0  0  0  0
  127.1310  126.4730   72.1660 C   0  0  0  0  0  0  0  0  0  0  0  0
  127.4270  126.4650   70.6500 C   0  0  0  0  0  0  0  0  0  0  0  0
  127.2010  128.5170   68.1600 C   0  0  0  0  0  0  0  0  0  0  0  0
  127.2620  128.8110   66.8000 C   0  0  0  0  0  0  0  0  0  0  0  0
  128.1710  127.8470   63.6290 C   0  0  0  0  0  0  0  0  0  0  0  0
  128.2250  128.1490   62.2630 C   0  0  0  0  0  0  0  0  0  0  0  0
  127.8790  127.0890   61.2820 C   0  0  0  0  0  0  0  0  0  0  0  0
  126.5450  126.7510   61.0510 C   0  0  0  0  0  0  0  0  0  0  0  0
  126.2170  125.7720   60.1190 C   0  0  0  0  0  0  0  0  0  0  0  0
  127.2140  125.1030   59.3920 C   0  0  0  0  0  0  0  0  0  0  0  0
  126.9070  124.1280   58.4400 N   0  0  0  0  0  0  0  0  0  0  0  0
  127.8700  123.0400   58.1820 C   0  0  0  0  0  0  0  0  0  0  0  0
  127.5990  122.2870   56.8620 C   0  0  0  0  0  0  0  0  0  0  0  0
  126.2680  121.7920   56.8510 O   0  0  0  0  0  0  0  0  0  0  0  0
  125.3170  122.8390   56.9640 C   0  0  0  0  0  0  0  0  0  0  0  0
  125.5330  123.6100   58.2830 C   0  0  0  0  0  0  0  0  0  0  0  0
  128.5500  125.4640   59.6200 C   0  0  0  0  0  0  0  0  0  0  0  0
  128.8790  126.4440   60.5530 C   0  0  0  0  0  0  0  0  0  0  0  0
  128.6090  129.4680   61.8910 C   0  0  0  0  0  0  0  0  0  0  0  0
  129.1810  129.7300   58.5940 H   0  0  0  0  0  0  0  0  0  0  0  0
  128.0700  128.6440   59.3360 H   0  0  0  0  0  0  0  0  0  0  0  0
  131.0470  131.2370   59.0690 H   0  0  0  0  0  0  0  0  0  0  0  0
  133.0441  131.8322   57.5216 H   0  0  0  0  0  0  0  0  0  0  0  0
  133.2466  133.5504   55.4710 H   0  0  0  0  0  0  0  0  0  0  0  0
  130.4132  127.7051   66.1475 H   0  0  0  0  0  0  0  0  0  0  0  0
  130.3119  127.2001   68.5686 H   0  0  0  0  0  0  0  0  0  0  0  0
  130.1034  127.0497   70.8845 H   0  0  0  0  0  0  0  0  0  0  0  0
  129.7593  128.8462   70.8645 H   0  0  0  0  0  0  0  0  0  0  0  0
  129.9313  127.8846   73.1772 H   0  0  0  0  0  0  0  0  0  0  0  0
  128.3491  128.6623   72.8126 H   0  0  0  0  0  0  0  0  0  0  0  0
  126.6368  125.5307   72.4452 H   0  0  0  0  0  0  0  0  0  0  0  0
  126.4742  127.3238   72.4000 H   0  0  0  0  0  0  0  0  0  0  0  0
  127.9934  125.5526   70.4120 H   0  0  0  0  0  0  0  0  0  0  0  0
  126.4565  126.5045   70.1337 H   0  0  0  0  0  0  0  0  0  0  0  0
  126.2898  128.7611   68.7258 H   0  0  0  0  0  0  0  0  0  0  0  0
  126.3970  129.2782   66.3065 H   0  0  0  0  0  0  0  0  0  0  0  0
  127.8967  126.8312   63.9499 H   0  0  0  0  0  0  0  0  0  0  0  0
  125.7473  127.2623   61.6098 H   0  0  0  0  0  0  0  0  0  0  0  0
  125.1602  125.5182   59.9491 H   0  0  0  0  0  0  0  0  0  0  0  0
  128.8808  123.4715   58.1370 H   0  0  0  0  0  0  0  0  0  0  0  0
  127.7670  122.3120   59.0002 H   0  0  0  0  0  0  0  0  0  0  0  0
  127.7392  122.9744   56.0148 H   0  0  0  0  0  0  0  0  0  0  0  0
  128.2994  121.4431   56.7768 H   0  0  0  0  0  0  0  0  0  0  0  0
  125.4332  123.5294   56.1156 H   0  0  0  0  0  0  0  0  0  0  0  0
  124.3047  122.4085   56.9597 H   0  0  0  0  0  0  0  0  0  0  0  0
  124.8348  124.4596   58.3089 H   0  0  0  0  0  0  0  0  0  0  0  0
  125.3563  122.9021   59.1062 H   0  0  0  0  0  0  0  0  0  0  0  0
  129.3501  124.9654   59.0532 H   0  0  0  0  0  0  0  0  0  0  0  0
  129.9334  126.7113   60.7164 H   0  0  0  0  0  0  0  0  0  0  0  0
  1  2  1  0
  2  3  2  0
  3  4  1  0
  4  5  2  0
  4  6  1  0
  6  7  1  0
  7  8  1  0
  8  9  2  0
  9 10  1  0
 10 11  1  0
  3 12  1  0
 12 13  1  0
 13 14  2  0
 14 15  1  0
 15 16  1  0
 16 17  2  0
 17 18  1  0
 18 19  2  0
 19 20  1  0
 20 21  1  0
 21 22  1  0
 22 23  1  0
 23 24  1  0
 24 25  1  0
 19 26  1  0
 26 27  2  0
 15 28  2  0
 28 29  1  0
 29 30  1  0
 30 31  2  0
 31 32  1  0
 32 33  2  0
 33 34  1  0
 34 35  1  0
 35 36  1  0
 36 37  1  0
 37 38  1  0
 38 39  1  0
 33 40  1  0
 40 41  2  0
 29 42  2  0
 42  2  1  0
 11  7  2  0
 42 13  1  0
 27 16  1  0
 41 30  1  0
 25 20  1  0
 39 34  1  0
  1 43  1  0
  1 44  1  0
  6 45  1  0
  8 46  1  0
  9 47  1  0
 17 48  1  0
 18 49  1  0
 21 50  1  0
 21 51  1  0
 22 52  1  0
 22 53  1  0
 24 54  1  0
 24 55  1  0
 25 56  1  0
 25 57  1  0
 26 58  1  0
 27 59  1  0
 28 60  1  0
 31 61  1  0
 32 62  1  0
 35 63  1  0
 35 64  1  0
 36 65  1  0
 36 66  1  0
 38 67  1  0
 38 68  1  0
 39 69  1  0
 39 70  1  0
 40 71  1  0
 41 72  1  0
M  END
>  <Binding energies>  (1) 
[-9.75]

>  <Ligand effiencies>  (1) 
[-0.21666666666666667]

>  <Interactions>  (1) 
["V-B:GLU:543:CB:9877, V-A:HIS:456:CE1:4069, V-B:GLU:543:C:9873, V-B:GLY:544:C:9883, V-B:GLU:543:CD:9879, V-B:HIS:456:CE1:9040, V-B:PRO:540:N:9855, V-B:PRO:540:CB:9856, V-B:TYR:539:CD2:9845, V-B:TYR:539:C:9838, V-B:MET:535:CE:9806, H-B:TYR:539:N:9841, V-B:PRO:540:CA:9854, V-B:LEU:363:CD1:8159, V-B:TYR:539:CE2:9847, V-B:GLY:544:CA:9885, V-B:TYR:539:CZ:9848, V-B:TYR:539:CE1:9846, V-B:TYR:539:CA:9840, V-B:TYR:539:CD1:9844, V-B:TYR:539:CG:9843, V-A:GLU:543:CD:4907, V-A:GLU:543:CG:4906, V-A:TYR:531:CE2:4792, V-A:LEU:363:CD1:3188, V-A:PRO:540:CA:4882, V-A:PRO:540:CD:4886, V-A:ILE:538:CG2:4862, V-A:PRO:540:N:4883, V-A:PRO:540:CB:4884, V-A:TYR:539:C:4866, H-A:TYR:539:N:4869, V-A:ILE:538:CB:4861, V-B:PRO:540:CD:9858"]

$$$$
9c_Ghoteimi_2023
     RDKit          3D

 72 78  0  0  0  0  0  0  0  0999 V2000
  130.2620  124.0680   64.8240 N   0  0  0  0  0  0  0  0  0  0  0  0
  130.3060  124.2870   63.4710 C   0  0  0  0  0  0  0  0  0  0  0  0
  130.3630  123.2550   62.5220 C   0  0  0  0  0  0  0  0  0  0  0  0
  130.3670  121.8060   62.7470 C   0  0  0  0  0  0  0  0  0  0  0  0
  130.1370  121.3410   63.8650 O   0  0  0  0  0  0  0  0  0  0  0  0
  130.6420  121.0490   61.6570 N   0  0  0  0  0  0  0  0  0  0  0  0
  130.7230  119.6650   61.6010 C   0  0  0  0  0  0  0  0  0  0  0  0
  129.7500  118.7920   61.7530 N   0  0  0  0  0  0  0  0  0  0  0  0
  130.1890  117.5530   61.6410 C   0  0  0  0  0  0  0  0  0  0  0  0
  131.5510  117.4020   61.3930 C   0  0  0  0  0  0  0  0  0  0  0  0
  132.2860  118.9740   61.3030 S   0  0  0  0  0  0  0  0  0  0  0  0
  130.4390  123.8990   60.8820 S   0  0  0  0  0  0  0  0  0  0  0  0
  130.4130  125.5420   61.4770 C   0  0  0  0  0  0  0  0  0  0  0  0
  130.4780  126.5850   60.6510 N   0  0  0  0  0  0  0  0  0  0  0  0
  130.4680  127.8200   61.2160 C   0  0  0  0  0  0  0  0  0  0  0  0
  130.5640  128.9710   60.2690 C   0  0  0  0  0  0  0  0  0  0  0  0
  131.3630  130.0840   60.5580 C   0  0  0  0  0  0  0  0  0  0  0  0
  131.4420  131.1570   59.6760 C   0  0  0  0  0  0  0  0  0  0  0  0
  130.7130  131.1640   58.4760 C   0  0  0  0  0  0  0  0  0  0  0  0
  130.7860  132.2330   57.5760 N   0  0  0  0  0  0  0  0  0  0  0  0
  129.8310  132.3630   56.4570 C   0  0  0  0  0  0  0  0  0  0  0  0
  129.8360  133.7560   55.7910 C   0  0  0  0  0  0  0  0  0  0  0  0
  131.1510  134.0880   55.3760 O   0  0  0  0  0  0  0  0  0  0  0  0
  132.0470  134.1320   56.4740 C   0  0  0  0  0  0  0  0  0  0  0  0
  132.1080  132.7520   57.1660 C   0  0  0  0  0  0  0  0  0  0  0  0
  129.9290  130.0390   58.1830 C   0  0  0  0  0  0  0  0  0  0  0  0
  129.8540  128.9640   59.0640 C   0  0  0  0  0  0  0  0  0  0  0  0
  130.3640  128.0090   62.5970 C   0  0  0  0  0  0  0  0  0  0  0  0
  130.2730  126.9160   63.4660 C   0  0  0  0  0  0  0  0  0  0  0  0
  130.1340  127.1690   64.9220 C   0  0  0  0  0  0  0  0  0  0  0  0
  129.1270  128.0110   65.3970 C   0  0  0  0  0  0  0  0  0  0  0  0
  128.9820  128.2380   66.7630 C   0  0  0  0  0  0  0  0  0  0  0  0
  129.8420  127.6290   67.6900 C   0  0  0  0  0  0  0  0  0  0  0  0
  129.7080  127.8330   69.0670 N   0  0  0  0  0  0  0  0  0  0  0  0
  129.8130  129.2040   69.6050 C   0  0  0  0  0  0  0  0  0  0  0  0
  130.0390  129.2430   71.1320 C   0  0  0  0  0  0  0  0  0  0  0  0
  129.0110  128.5220   71.7940 O   0  0  0  0  0  0  0  0  0  0  0  0
  128.9800  127.1620   71.3890 C   0  0  0  0  0  0  0  0  0  0  0  0
  128.7330  127.0680   69.8670 C   0  0  0  0  0  0  0  0  0  0  0  0
  130.8370  126.7690   67.2030 C   0  0  0  0  0  0  0  0  0  0  0  0
  130.9820  126.5430   65.8370 C   0  0  0  0  0  0  0  0  0  0  0  0
  130.3180  125.6110   62.8990 C   0  0  0  0  0  0  0  0  0  0  0  0
  130.7090  123.2680   65.2490 H   0  0  0  0  0  0  0  0  0  0  0  0
  129.7790  124.7020   65.4440 H   0  0  0  0  0  0  0  0  0  0  0  0
  130.8070  121.5320   60.7860 H   0  0  0  0  0  0  0  0  0  0  0  0
  129.5169  116.6877   61.7381 H   0  0  0  0  0  0  0  0  0  0  0  0
  132.0764  116.4430   61.2735 H   0  0  0  0  0  0  0  0  0  0  0  0
  131.9367  130.1103   61.4962 H   0  0  0  0  0  0  0  0  0  0  0  0
  132.0861  132.0139   59.9228 H   0  0  0  0  0  0  0  0  0  0  0  0
  130.0868  131.6131   55.6940 H   0  0  0  0  0  0  0  0  0  0  0  0
  128.8250  132.2121   56.8757 H   0  0  0  0  0  0  0  0  0  0  0  0
  129.1694  133.7443   54.9160 H   0  0  0  0  0  0  0  0  0  0  0  0
  129.4850  134.5052   56.5159 H   0  0  0  0  0  0  0  0  0  0  0  0
  133.0505  134.4030   56.1139 H   0  0  0  0  0  0  0  0  0  0  0  0
  131.6933  134.8817   57.1971 H   0  0  0  0  0  0  0  0  0  0  0  0
  132.5617  132.0333   56.4677 H   0  0  0  0  0  0  0  0  0  0  0  0
  132.7018  132.8787   58.0833 H   0  0  0  0  0  0  0  0  0  0  0  0
  129.3632  130.0054   57.2402 H   0  0  0  0  0  0  0  0  0  0  0  0
  129.2274  128.0966   58.8089 H   0  0  0  0  0  0  0  0  0  0  0  0
  130.3536  129.0301   63.0060 H   0  0  0  0  0  0  0  0  0  0  0  0
  128.4430  128.4987   64.6869 H   0  0  0  0  0  0  0  0  0  0  0  0
  128.1826  128.9037   67.1205 H   0  0  0  0  0  0  0  0  0  0  0  0
  130.6580  129.7086   69.1136 H   0  0  0  0  0  0  0  0  0  0  0  0
  128.8564  129.7083   69.4033 H   0  0  0  0  0  0  0  0  0  0  0  0
  131.0125  128.7884   71.3678 H   0  0  0  0  0  0  0  0  0  0  0  0
  130.0230  130.2888   71.4725 H   0  0  0  0  0  0  0  0  0  0  0  0
  129.9425  126.6879   71.6315 H   0  0  0  0  0  0  0  0  0  0  0  0
  128.1654  126.6465   71.9189 H   0  0  0  0  0  0  0  0  0  0  0  0
  128.7906  126.0107   69.5690 H   0  0  0  0  0  0  0  0  0  0  0  0
  127.7411  127.5016   69.6716 H   0  0  0  0  0  0  0  0  0  0  0  0
  131.5125  126.2658   67.9105 H   0  0  0  0  0  0  0  0  0  0  0  0
  131.7705  125.8662   65.4762 H   0  0  0  0  0  0  0  0  0  0  0  0
  1  2  1  0
  2  3  2  0
  3  4  1  0
  4  5  2  0
  4  6  1  0
  6  7  1  0
  7  8  2  0
  8  9  1  0
  9 10  2  0
 10 11  1  0
  3 12  1  0
 12 13  1  0
 13 14  2  0
 14 15  1  0
 15 16  1  0
 16 17  2  0
 17 18  1  0
 18 19  2  0
 19 20  1  0
 20 21  1  0
 21 22  1  0
 22 23  1  0
 23 24  1  0
 24 25  1  0
 19 26  1  0
 26 27  2  0
 15 28  2  0
 28 29  1  0
 29 30  1  0
 30 31  2  0
 31 32  1  0
 32 33  2  0
 33 34  1  0
 34 35  1  0
 35 36  1  0
 36 37  1  0
 37 38  1  0
 38 39  1  0
 33 40  1  0
 40 41  2  0
 29 42  2  0
 42  2  1  0
 11  7  1  0
 42 13  1  0
 27 16  1  0
 41 30  1  0
 25 20  1  0
 39 34  1  0
  1 43  1  0
  1 44  1  0
  6 45  1  0
  9 46  1  0
 10 47  1  0
 17 48  1  0
 18 49  1  0
 21 50  1  0
 21 51  1  0
 22 52  1  0
 22 53  1  0
 24 54  1  0
 24 55  1  0
 25 56  1  0
 25 57  1  0
 26 58  1  0
 27 59  1  0
 28 60  1  0
 31 61  1  0
 32 62  1  0
 35 63  1  0
 35 64  1  0
 36 65  1  0
 36 66  1  0
 38 67  1  0
 38 68  1  0
 39 69  1  0
 39 70  1  0
 40 71  1  0
 41 72  1  0
M  END
>  <Binding energies>  (1) 
[-8.96]

>  <Ligand effiencies>  (1) 
[-0.19911111111111113]

>  <Interactions>  (1) 
["V-A:HIS:456:CE1:4069, V-B:GLU:543:CD:9879, V-B:HIS:456:CE1:9040, V-B:TYR:539:CD2:9845, V-A:LEU:475:CD2:4258, V-A:PRO:482:CG:4326, V-B:ALA:541:CB:9863, V-A:SER:385:CB:3408, H-B:GLU:543:OE2:9881, V-A:HIS:383:CE1:3393, V-A:PRO:482:CB:4325, V-A:GLU:543:CD:4907, V-A:GLU:543:CG:4906, V-A:SER:385:CA:3406, V-A:GLU:543:CB:4905, H-A:TYR:484:OH:4347, V-A:TYR:531:CE2:4792, V-A:LEU:363:CD1:3188, V-A:PRO:540:CA:4882, V-A:TYR:539:CD1:4872, V-A:PRO:540:CD:4886, V-A:ILE:538:CG2:4862, V-A:PRO:540:N:4883, V-A:PRO:540:CB:4884, V-A:TYR:539:C:4866, V-A:TYR:539:CE1:4874, H-A:TYR:539:N:4869, V-A:ILE:538:CB:4861, V-A:ILE:538:CA:4859, V-A:TYR:539:CZ:4876, V-A:PRO:540:CG:4885, V-A:GLU:543:C:4901, V-A:ILE:538:C:4857, V-A:TYR:539:CD2:4873, V-A:TYR:539:CE2:4875, V-A:GLU:543:CA:4903, H-B:TYR:539:O:9839, V-A:TYR:539:CG:4871"]

$$$$
9d_Ghoteimi_2023
     RDKit          3D

 68 73  0  0  0  0  0  0  0  0999 V2000
  135.3030  125.0810   76.4190 C   0  0  0  0  0  0  0  0  0  0  0  0
  134.0830  125.7360   76.7360 O   0  0  0  0  0  0  0  0  0  0  0  0
  133.7060  126.8620   76.0750 C   0  0  0  0  0  0  0  0  0  0  0  0
  134.2530  127.9590   76.2130 O   0  0  0  0  0  0  0  0  0  0  0  0
  132.5600  126.6400   75.1660 C   0  0  0  0  0  0  0  0  0  0  0  0
  131.9890  127.9520   74.1360 S   0  0  0  0  0  0  0  0  0  0  0  0
  130.7590  126.9240   73.4400 C   0  0  0  0  0  0  0  0  0  0  0  0
  129.9410  127.3640   72.4850 N   0  0  0  0  0  0  0  0  0  0  0  0
  129.0300  126.4810   71.9980 C   0  0  0  0  0  0  0  0  0  0  0  0
  128.1390  126.9890   70.9090 C   0  0  0  0  0  0  0  0  0  0  0  0
  128.6390  127.8520   69.9280 C   0  0  0  0  0  0  0  0  0  0  0  0
  127.8170  128.3320   68.9120 C   0  0  0  0  0  0  0  0  0  0  0  0
  126.4670  127.9560   68.8320 C   0  0  0  0  0  0  0  0  0  0  0  0
  125.6250  128.4440   67.8270 N   0  0  0  0  0  0  0  0  0  0  0  0
  124.4260  129.2440   68.1500 C   0  0  0  0  0  0  0  0  0  0  0  0
  123.4420  129.3970   66.9720 C   0  0  0  0  0  0  0  0  0  0  0  0
  124.1160  129.9250   65.8420 O   0  0  0  0  0  0  0  0  0  0  0  0
  125.1660  129.0710   65.4180 C   0  0  0  0  0  0  0  0  0  0  0  0
  126.2050  128.9050   66.5480 C   0  0  0  0  0  0  0  0  0  0  0  0
  125.9680  127.1020   69.8270 C   0  0  0  0  0  0  0  0  0  0  0  0
  126.7890  126.6250   70.8450 C   0  0  0  0  0  0  0  0  0  0  0  0
  128.9190  125.1770   72.4880 C   0  0  0  0  0  0  0  0  0  0  0  0
  129.7640  124.7170   73.5040 C   0  0  0  0  0  0  0  0  0  0  0  0
  129.5840  123.3300   74.0080 C   0  0  0  0  0  0  0  0  0  0  0  0
  130.6550  122.4340   74.0260 C   0  0  0  0  0  0  0  0  0  0  0  0
  130.4870  121.1410   74.5170 C   0  0  0  0  0  0  0  0  0  0  0  0
  129.2460  120.7170   75.0180 C   0  0  0  0  0  0  0  0  0  0  0  0
  129.0500  119.4230   75.5060 N   0  0  0  0  0  0  0  0  0  0  0  0
  127.8400  118.6800   75.1030 C   0  0  0  0  0  0  0  0  0  0  0  0
  127.9350  117.1650   75.3820 C   0  0  0  0  0  0  0  0  0  0  0  0
  128.2350  116.9400   76.7520 O   0  0  0  0  0  0  0  0  0  0  0  0
  129.4700  117.5350   77.1230 C   0  0  0  0  0  0  0  0  0  0  0  0
  129.4100  119.0590   76.8900 C   0  0  0  0  0  0  0  0  0  0  0  0
  128.1780  121.6250   74.9930 C   0  0  0  0  0  0  0  0  0  0  0  0
  128.3460  122.9160   74.5010 C   0  0  0  0  0  0  0  0  0  0  0  0
  130.7520  125.6120   74.0000 C   0  0  0  0  0  0  0  0  0  0  0  0
  131.8070  125.4760   74.9700 C   0  0  0  0  0  0  0  0  0  0  0  0
  132.0650  124.3010   75.6290 N   0  0  0  0  0  0  0  0  0  0  0  0
  135.8218  124.8025   77.3481 H   0  0  0  0  0  0  0  0  0  0  0  0
  135.0911  124.1754   75.8317 H   0  0  0  0  0  0  0  0  0  0  0  0
  135.9408  125.7580   75.8317 H   0  0  0  0  0  0  0  0  0  0  0  0
  129.6958  128.1554   69.9598 H   0  0  0  0  0  0  0  0  0  0  0  0
  128.2326  129.0177   68.1590 H   0  0  0  0  0  0  0  0  0  0  0  0
  123.8974  128.7557   68.9819 H   0  0  0  0  0  0  0  0  0  0  0  0
  124.7758  130.2546   68.4078 H   0  0  0  0  0  0  0  0  0  0  0  0
  123.0218  128.4126   66.7183 H   0  0  0  0  0  0  0  0  0  0  0  0
  122.6339  130.0839   67.2637 H   0  0  0  0  0  0  0  0  0  0  0  0
  124.7511  128.0860   65.1579 H   0  0  0  0  0  0  0  0  0  0  0  0
  125.6577  129.5143   64.5395 H   0  0  0  0  0  0  0  0  0  0  0  0
  126.9567  128.1706   66.2231 H   0  0  0  0  0  0  0  0  0  0  0  0
  126.6401  129.8983   66.7324 H   0  0  0  0  0  0  0  0  0  0  0  0
  124.9094  126.8041   69.8023 H   0  0  0  0  0  0  0  0  0  0  0  0
  126.3712  125.9531   71.6092 H   0  0  0  0  0  0  0  0  0  0  0  0
  128.1571  124.5031   72.0693 H   0  0  0  0  0  0  0  0  0  0  0  0
  131.6387  122.7515   73.6497 H   0  0  0  0  0  0  0  0  0  0  0  0
  131.3376  120.4435   74.5120 H   0  0  0  0  0  0  0  0  0  0  0  0
  126.9806  119.0843   75.6579 H   0  0  0  0  0  0  0  0  0  0  0  0
  127.7265  118.8055   74.0161 H   0  0  0  0  0  0  0  0  0  0  0  0
  126.9743  116.6887   75.1367 H   0  0  0  0  0  0  0  0  0  0  0  0
  128.7349  116.7337   74.7622 H   0  0  0  0  0  0  0  0  0  0  0  0
  129.6655  117.3362   78.1871 H   0  0  0  0  0  0  0  0  0  0  0  0
  130.2768  117.1066   76.5102 H   0  0  0  0  0  0  0  0  0  0  0  0
  128.6592  119.4872   77.5704 H   0  0  0  0  0  0  0  0  0  0  0  0
  130.4171  119.4582   77.0810 H   0  0  0  0  0  0  0  0  0  0  0  0
  127.1923  121.3123   75.3680 H   0  0  0  0  0  0  0  0  0  0  0  0
  127.4967  123.6151   74.5008 H   0  0  0  0  0  0  0  0  0  0  0  0
  131.3290  123.6560   75.8750 H   0  0  0  0  0  0  0  0  0  0  0  0
  133.0060  124.0370   75.8870 H   0  0  0  0  0  0  0  0  0  0  0  0
  1  2  1  0
  2  3  1  0
  3  4  2  0
  3  5  1  0
  5  6  1  0
  6  7  1  0
  7  8  2  0
  8  9  1  0
  9 10  1  0
 10 11  2  0
 11 12  1  0
 12 13  2  0
 13 14  1  0
 14 15  1  0
 15 16  1  0
 16 17  1  0
 17 18  1  0
 18 19  1  0
 13 20  1  0
 20 21  2  0
  9 22  2  0
 22 23  1  0
 23 24  1  0
 24 25  2  0
 25 26  1  0
 26 27  2  0
 27 28  1  0
 28 29  1  0
 29 30  1  0
 30 31  1  0
 31 32  1  0
 32 33  1  0
 27 34  1  0
 34 35  2  0
 23 36  2  0
 36 37  1  0
 37 38  1  0
 37  5  2  0
 36  7  1  0
 21 10  1  0
 35 24  1  0
 19 14  1  0
 33 28  1  0
  1 39  1  0
  1 40  1  0
  1 41  1  0
 11 42  1  0
 12 43  1  0
 15 44  1  0
 15 45  1  0
 16 46  1  0
 16 47  1  0
 18 48  1  0
 18 49  1  0
 19 50  1  0
 19 51  1  0
 20 52  1  0
 21 53  1  0
 22 54  1  0
 25 55  1  0
 26 56  1  0
 29 57  1  0
 29 58  1  0
 30 59  1  0
 30 60  1  0
 32 61  1  0
 32 62  1  0
 33 63  1  0
 33 64  1  0
 34 65  1  0
 35 66  1  0
 38 67  1  0
 38 68  1  0
M  END
>  <Binding energies>  (1) 
[-9.13]

>  <Ligand effiencies>  (1) 
[-0.22825]

>  <Interactions>  (1) 
["V-B:GLU:543:CB:9877, V-A:HIS:456:CE1:4069, V-B:GLU:543:C:9873, V-B:GLY:544:C:9883, V-A:HIS:456:CD2:4067, V-A:HIS:456:C:4060, V-B:ARG:545:CA:9890, V-A:HIS:456:CB:4064, V-A:VAL:457:C:4072, V-B:ARG:545:CD:9894, V-B:GLU:543:CD:9879, V-B:HIS:456:CE1:9040, V-A:HIS:456:CG:4065, V-B:ARG:545:CG:9893, H-A:HIS:456:ND1:4066, V-B:ARG:545:CZ:9897, V-A:GLY:544:C:4911, H-B:TYR:484:OH:9318, H-B:GLY:454:N:9020, V-B:TYR:484:CZ:9317, H-A:ASP:473:OD2:4241, V-B:LYS:547:CE:9921, V-A:VAL:458:CG2:4086, V-A:TYR:484:CG:4341, V-A:TYR:484:CB:4340, V-A:ASP:473:CG:4239, V-A:VAL:457:CA:4074, V-A:PRO:486:CD:4365, V-A:ASP:485:CG:4355"]

$$$$
RR10_Rahimova_2017
     RDKit          3D

 66 70  0  0  0  0  0  0  0  0999 V2000
  124.5810  135.5350   59.4990 C   0  0  0  0  0  0  0  0  0  0  0  0
  125.2660  135.0940   60.8040 C   0  0  1  0  0  0  0  0  0  0  0  0
  125.6880  133.6060   60.7590 C   0  0  0  0  0  0  0  0  0  0  0  0
  126.3420  133.1760   62.0920 C   0  0  0  0  0  0  0  0  0  0  0  0
  127.5780  134.0450   62.4440 C   0  0  1  0  0  0  0  0  0  0  0  0
  128.6760  133.7920   61.5020 N   0  0  0  0  0  0  0  0  0  0  0  0
  129.7930  133.0930   61.7750 C   0  0  0  0  0  0  0  0  0  0  0  0
  130.0020  132.5610   62.8680 O   0  0  0  0  0  0  0  0  0  0  0  0
  130.8400  132.9890   60.6460 C   0  0  1  0  0  0  0  0  0  0  0  0
  131.8140  131.8220   60.9550 C   0  0  0  0  0  0  0  0  0  0  0  0
  132.8080  131.6540   59.7810 C   0  0  0  0  0  0  0  0  0  0  0  0
  132.0960  131.5350   58.4130 C   0  0  0  0  0  0  0  0  0  0  0  0
  131.1340  132.6540   58.2230 N   0  0  0  0  0  0  0  0  0  0  0  0
  130.4830  132.7900   56.5810 S   0  0  0  0  0  0  0  0  0  0  0  0
  131.5800  132.5520   55.6340 O   0  0  0  0  0  0  0  0  0  0  0  0
  129.6990  134.0290   56.5070 O   0  0  0  0  0  0  0  0  0  0  0  0
  129.3510  131.4100   56.4130 C   0  0  0  0  0  0  0  0  0  0  0  0
  128.2900  131.5010   55.5060 C   0  0  0  0  0  0  0  0  0  0  0  0
  127.3710  130.4620   55.3300 C   0  0  0  0  0  0  0  0  0  0  0  0
  127.5670  129.3180   56.1080 C   0  0  0  0  0  0  0  0  0  0  0  0
  126.8990  128.1220   56.2270 N   0  0  0  0  0  0  0  0  0  0  0  0
  127.5570  127.3600   57.1700 C   0  0  0  0  0  0  0  0  0  0  0  0
  127.1170  125.9850   57.5810 C   0  0  0  0  0  0  0  0  0  0  0  0
  127.9810  124.8900   57.4370 C   0  0  0  0  0  0  0  0  0  0  0  0
  127.5750  123.6150   57.8220 C   0  0  0  0  0  0  0  0  0  0  0  0
  126.3020  123.4270   58.3520 C   0  0  0  0  0  0  0  0  0  0  0  0
  125.4320  124.5030   58.5020 C   0  0  0  0  0  0  0  0  0  0  0  0
  125.8390  125.7780   58.1170 C   0  0  0  0  0  0  0  0  0  0  0  0
  128.6060  127.9830   57.6600 N   0  0  0  0  0  0  0  0  0  0  0  0
  128.6370  129.1960   57.0260 C   0  0  0  0  0  0  0  0  0  0  0  0
  129.5440  130.2540   57.1790 C   0  0  0  0  0  0  0  0  0  0  0  0
  130.1160  132.7490   59.2990 C   0  0  0  0  0  0  0  0  0  0  0  0
  127.1430  135.5350   62.4670 C   0  0  0  0  0  0  0  0  0  0  0  0
  126.4960  135.9710   61.1340 C   0  0  0  0  0  0  0  0  0  0  0  0
  123.6780  136.1163   59.7372 H   0  0  0  0  0  0  0  0  0  0  0  0
  125.2738  136.1572   58.9134 H   0  0  0  0  0  0  0  0  0  0  0  0
  124.3014  134.6468   58.9134 H   0  0  0  0  0  0  0  0  0  0  0  0
  124.5186  135.2234   61.6006 H   0  0  0  0  0  0  0  0  0  0  0  0
  124.7984  132.9850   60.5778 H   0  0  0  0  0  0  0  0  0  0  0  0
  126.4212  133.4736   59.9497 H   0  0  0  0  0  0  0  0  0  0  0  0
  125.5999  133.2722   62.8982 H   0  0  0  0  0  0  0  0  0  0  0  0
  126.6805  132.1351   61.9824 H   0  0  0  0  0  0  0  0  0  0  0  0
  127.9623  133.7796   63.4399 H   0  0  0  0  0  0  0  0  0  0  0  0
  128.6250  134.2860   60.6220 H   0  0  0  0  0  0  0  0  0  0  0  0
  131.4165  133.9234   60.5786 H   0  0  0  0  0  0  0  0  0  0  0  0
  132.3705  132.0436   61.8776 H   0  0  0  0  0  0  0  0  0  0  0  0
  131.2414  130.8920   61.0861 H   0  0  0  0  0  0  0  0  0  0  0  0
  133.4754  132.5281   59.7563 H   0  0  0  0  0  0  0  0  0  0  0  0
  133.3676  130.7218   59.9482 H   0  0  0  0  0  0  0  0  0  0  0  0
  132.8478  131.5647   57.6106 H   0  0  0  0  0  0  0  0  0  0  0  0
  131.5437  130.5842   58.3827 H   0  0  0  0  0  0  0  0  0  0  0  0
  128.1749  132.4197   54.9120 H   0  0  0  0  0  0  0  0  0  0  0  0
  126.5375  130.5411   54.6165 H   0  0  0  0  0  0  0  0  0  0  0  0
  126.0700  127.8100   55.7410 H   0  0  0  0  0  0  0  0  0  0  0  0
  128.9866  125.0393   57.0169 H   0  0  0  0  0  0  0  0  0  0  0  0
  128.2575  122.7600   57.7077 H   0  0  0  0  0  0  0  0  0  0  0  0
  125.9807  122.4195   58.6549 H   0  0  0  0  0  0  0  0  0  0  0  0
  124.4277  124.3471   58.9227 H   0  0  0  0  0  0  0  0  0  0  0  0
  125.1520  126.6290   58.2346 H   0  0  0  0  0  0  0  0  0  0  0  0
  130.3858  130.1779   57.8829 H   0  0  0  0  0  0  0  0  0  0  0  0
  129.4341  133.5866   59.0907 H   0  0  0  0  0  0  0  0  0  0  0  0
  129.5329  131.8175   59.3472 H   0  0  0  0  0  0  0  0  0  0  0  0
  126.4150  135.6797   63.2788 H   0  0  0  0  0  0  0  0  0  0  0  0
  128.0424  136.1485   62.6241 H   0  0  0  0  0  0  0  0  0  0  0  0
  126.1783  137.0210   61.2145 H   0  0  0  0  0  0  0  0  0  0  0  0
  127.2368  135.8540   60.3293 H   0  0  0  0  0  0  0  0  0  0  0  0
  1  2  1  0
  2  3  1  0
  3  4  1  0
  4  5  1  0
  5  6  1  0
  6  7  1  0
  7  8  2  0
  7  9  1  0
  9 10  1  0
 10 11  1  0
 11 12  1  0
 12 13  1  0
 13 14  1  0
 14 15  2  0
 14 16  2  0
 14 17  1  0
 17 18  2  0
 18 19  1  0
 19 20  2  0
 20 21  1  0
 21 22  1  0
 22 23  1  0
 23 24  2  0
 24 25  1  0
 25 26  2  0
 26 27  1  0
 27 28  2  0
 22 29  2  0
 29 30  1  0
 30 31  2  0
 13 32  1  0
  5 33  1  0
 33 34  1  0
 34  2  1  0
 32  9  1  0
 31 17  1  0
 30 20  1  0
 28 23  1  0
  1 35  1  0
  1 36  1  0
  1 37  1  0
  2 38  1  1
  3 39  1  0
  3 40  1  0
  4 41  1  0
  4 42  1  0
  5 43  1  1
  6 44  1  0
  9 45  1  6
 10 46  1  0
 10 47  1  0
 11 48  1  0
 11 49  1  0
 12 50  1  0
 12 51  1  0
 18 52  1  0
 19 53  1  0
 21 54  1  0
 24 55  1  0
 25 56  1  0
 26 57  1  0
 27 58  1  0
 28 59  1  0
 31 60  1  0
 32 61  1  0
 32 62  1  0
 33 63  1  0
 33 64  1  0
 34 65  1  0
 34 66  1  0
M  END
>  <Binding energies>  (1) 
[-10.57]

>  <Ligand effiencies>  (1) 
[-0.2936111111111111]

>  <Interactions>  (1) 
["V-B:TYR:531:CZ:9765, V-B:PRO:540:N:9855, H-B:TYR:531:OH:9766, V-B:PRO:540:CB:9856, V-B:MET:535:CE:9806, V-B:PRO:540:CA:9854, V-B:LEU:475:CD1:9228, V-A:PRO:540:C:4880, H-A:TYR:531:OH:4794, V-A:PRO:540:CA:4882, V-A:TYR:539:CD1:4872, V-A:PRO:540:N:4883, V-A:PRO:540:CB:4884, V-A:TYR:539:C:4866, V-A:TYR:539:CE1:4874, H-A:TYR:539:N:4869, V-A:MET:535:CE:4834, H-A:ALA:541:N:4890, H-A:TYR:539:O:4867, V-A:ALA:541:CB:4891, V-B:ILE:369:CG2:8207, V-A:TYR:539:CZ:4876, V-B:TYR:531:CE1:9763, V-A:ALA:541:CA:4889, V-B:SER:385:CB:8379"]

$$$$
RR11_Rahimova_2017
     RDKit          3D

 55 60  0  0  0  0  0  0  0  0999 V2000
  134.6330  130.5210   57.6070 N   0  0  0  0  0  0  0  0  0  0  0  0
  133.4770  130.9340   58.2660 C   0  0  0  0  0  0  0  0  0  0  0  0
  133.2390  130.5180   59.5750 C   0  0  0  0  0  0  0  0  0  0  0  0
  132.0850  130.9330   60.2340 C   0  0  0  0  0  0  0  0  0  0  0  0
  131.1600  131.7680   59.5920 C   0  0  0  0  0  0  0  0  0  0  0  0
  129.9200  132.2190   60.3060 C   0  0  0  0  0  0  0  0  0  0  0  0
  128.9170  131.4310   60.6230 N   0  0  0  0  0  0  0  0  0  0  0  0
  128.0130  132.2360   61.2650 C   0  0  0  0  0  0  0  0  0  0  0  0
  126.7690  131.9040   61.8190 C   0  0  0  0  0  0  0  0  0  0  0  0
  126.0290  132.9140   62.4470 C   0  0  0  0  0  0  0  0  0  0  0  0
  124.6720  132.5850   63.0530 C   0  0  0  0  0  0  0  0  0  0  0  0
  124.7210  131.4070   64.0160 C   0  0  0  0  0  0  0  0  0  0  0  0
  123.7750  130.3830   63.8990 C   0  0  0  0  0  0  0  0  0  0  0  0
  123.7840  129.2770   64.7520 C   0  0  0  0  0  0  0  0  0  0  0  0
  124.7780  129.2120   65.7380 C   0  0  0  0  0  0  0  0  0  0  0  0
  124.9950  128.2500   66.6890 N   0  0  0  0  0  0  0  0  0  0  0  0
  126.0460  128.6620   67.3660 C   0  0  0  0  0  0  0  0  0  0  0  0
  126.6470  127.9280   68.5300 C   0  0  0  0  0  0  0  0  0  0  0  0
  125.8260  127.2970   69.4730 C   0  0  0  0  0  0  0  0  0  0  0  0
  126.3820  126.6250   70.5580 C   0  0  0  0  0  0  0  0  0  0  0  0
  127.7670  126.5800   70.7080 C   0  0  0  0  0  0  0  0  0  0  0  0
  128.3250  125.9120   71.7970 N   0  0  0  0  0  0  0  0  0  0  0  0
  128.5960  127.2000   69.7770 C   0  0  0  0  0  0  0  0  0  0  0  0
  128.0380  127.8710   68.6920 C   0  0  0  0  0  0  0  0  0  0  0  0
  126.5310  129.8600   66.8870 N   0  0  0  0  0  0  0  0  0  0  0  0
  125.7360  130.2500   65.8360 C   0  0  0  0  0  0  0  0  0  0  0  0
  125.7350  131.3550   64.9810 C   0  0  0  0  0  0  0  0  0  0  0  0
  126.5130  134.2270   62.4950 C   0  0  0  0  0  0  0  0  0  0  0  0
  127.7460  134.5890   61.9480 C   0  0  0  0  0  0  0  0  0  0  0  0
  128.4800  133.5690   61.3400 C   0  0  0  0  0  0  0  0  0  0  0  0
  129.7030  133.5200   60.7120 N   0  0  0  0  0  0  0  0  0  0  0  0
  131.4120  132.1780   58.2760 C   0  0  0  0  0  0  0  0  0  0  0  0
  132.5650  131.7640   57.6150 C   0  0  0  0  0  0  0  0  0  0  0  0
  134.7790  130.7900   56.6440 H   0  0  0  0  0  0  0  0  0  0  0  0
  135.3290  129.9920   58.1110 H   0  0  0  0  0  0  0  0  0  0  0  0
  133.9609  129.8638   60.0858 H   0  0  0  0  0  0  0  0  0  0  0  0
  131.8976  130.6031   61.2665 H   0  0  0  0  0  0  0  0  0  0  0  0
  126.3833  130.8754   61.7620 H   0  0  0  0  0  0  0  0  0  0  0  0
  124.3079  133.4684   63.5979 H   0  0  0  0  0  0  0  0  0  0  0  0
  124.0011  132.3071   62.2268 H   0  0  0  0  0  0  0  0  0  0  0  0
  123.0053  130.4505   63.1161 H   0  0  0  0  0  0  0  0  0  0  0  0
  123.0325  128.4799   64.6528 H   0  0  0  0  0  0  0  0  0  0  0  0
  124.7329  127.3327   69.3554 H   0  0  0  0  0  0  0  0  0  0  0  0
  125.7307  126.1313   71.2943 H   0  0  0  0  0  0  0  0  0  0  0  0
  128.2250  124.9090   71.8710 H   0  0  0  0  0  0  0  0  0  0  0  0
  128.8540  126.4340   72.4820 H   0  0  0  0  0  0  0  0  0  0  0  0
  129.6886  127.1599   69.8982 H   0  0  0  0  0  0  0  0  0  0  0  0
  128.6938  128.3600   67.9565 H   0  0  0  0  0  0  0  0  0  0  0  0
  127.3320  130.3320   67.2810 H   0  0  0  0  0  0  0  0  0  0  0  0
  126.4945  132.1466   65.0618 H   0  0  0  0  0  0  0  0  0  0  0  0
  125.9004  135.0008   62.9807 H   0  0  0  0  0  0  0  0  0  0  0  0
  128.1189  135.6228   61.9938 H   0  0  0  0  0  0  0  0  0  0  0  0
  130.3620  134.2680   60.5550 H   0  0  0  0  0  0  0  0  0  0  0  0
  130.6930  132.8322   57.7612 H   0  0  0  0  0  0  0  0  0  0  0  0
  132.7561  132.0906   56.5822 H   0  0  0  0  0  0  0  0  0  0  0  0
  1  2  1  0
  2  3  2  0
  3  4  1  0
  4  5  2  0
  5  6  1  0
  6  7  2  0
  7  8  1  0
  8  9  2  0
  9 10  1  0
 10 11  1  0
 11 12  1  0
 12 13  2  0
 13 14  1  0
 14 15  2  0
 15 16  1  0
 16 17  2  0
 17 18  1  0
 18 19  2  0
 19 20  1  0
 20 21  2  0
 21 22  1  0
 21 23  1  0
 23 24  2  0
 17 25  1  0
 25 26  1  0
 26 27  2  0
 10 28  2  0
 28 29  1  0
 29 30  2  0
 30 31  1  0
  5 32  1  0
 32 33  2  0
 33  2  1  0
 31  6  1  0
 30  8  1  0
 27 12  1  0
 26 15  1  0
 24 18  1  0
  1 34  1  0
  1 35  1  0
  3 36  1  0
  4 37  1  0
  9 38  1  0
 11 39  1  0
 11 40  1  0
 13 41  1  0
 14 42  1  0
 19 43  1  0
 20 44  1  0
 22 45  1  0
 22 46  1  0
 23 47  1  0
 24 48  1  0
 25 49  1  0
 27 50  1  0
 28 51  1  0
 29 52  1  0
 31 53  1  0
 32 54  1  0
 33 55  1  0
M  END
>  <Binding energies>  (1) 
[-8.72]

>  <Ligand effiencies>  (1) 
[-0.2235897435897436]

>  <Interactions>  (1) 
["V-B:GLU:543:CB:9877, V-A:HIS:456:CE1:4069, V-B:GLU:543:C:9873, V-B:GLY:544:C:9883, V-B:ARG:545:CA:9890, V-B:GLU:543:CD:9879, V-B:HIS:456:CE1:9040, V-B:ARG:545:CG:9893, V-B:GLY:453:C:9012, V-B:LEU:475:CD1:9228, V-B:ARG:545:CZ:9897, V-B:GLY:544:CA:9885, V-B:GLY:454:CA:9019, V-A:ASP:366:CG:3212, V-A:ASP:366:CB:3211, H-B:TYR:484:OH:9318, V-A:TYR:531:CE2:4792, V-A:PRO:540:C:4880, V-A:LEU:363:CA:3184, H-A:TYR:531:OH:4794, V-A:LEU:363:C:3182, V-A:LEU:363:CD1:3188, V-A:PRO:540:CA:4882, V-A:TYR:531:CZ:4793, V-A:PRO:540:N:4883, V-A:TYR:539:C:4866, H-A:TYR:539:O:4867, V-B:GLY:453:CA:9014, V-A:ALA:541:CB:4891, V-B:TYR:484:CZ:9317, H-B:ARG:545:NE:9895, H-A:ASN:362:O:3172, H-A:LEU:363:O:3183, H-B:GLU:543:O:9874"]

$$$$
RR11_Rahimova_2017-again1
     RDKit          3D

 56 61  0  0  0  0  0  0  0  0999 V2000
  129.4010  118.7170   75.6420 N   0  0  0  0  0  0  0  0  0  0  0  0
  129.4310  120.0270   75.1650 C   0  0  0  0  0  0  0  0  0  0  0  0
  128.2510  120.6440   74.7570 C   0  0  0  0  0  0  0  0  0  0  0  0
  128.2830  121.9520   74.2780 C   0  0  0  0  0  0  0  0  0  0  0  0
  129.4940  122.6510   74.2030 C   0  0  0  0  0  0  0  0  0  0  0  0
  129.5290  124.0580   73.6780 C   0  0  0  0  0  0  0  0  0  0  0  0
  129.7850  125.1170   74.4120 N   0  0  0  0  0  0  0  0  0  0  0  0
  129.6950  126.1830   73.5550 C   0  0  0  0  0  0  0  0  0  0  0  0
  129.8700  127.5480   73.8150 C   0  0  0  0  0  0  0  0  0  0  0  0
  129.7080  128.4450   72.7580 C   0  0  0  0  0  0  0  0  0  0  0  0
  129.3770  128.0090   71.4700 C   0  0  0  0  0  0  0  0  0  0  0  0
  129.2070  129.0310   70.3540 C   0  0  0  0  0  0  0  0  0  0  0  0
  129.4560  128.4400   68.9740 C   0  0  0  0  0  0  0  0  0  0  0  0
  128.6550  128.8370   67.8970 C   0  0  0  0  0  0  0  0  0  0  0  0
  128.8350  128.3270   66.6090 C   0  0  0  0  0  0  0  0  0  0  0  0
  129.8640  127.3960   66.4420 C   0  0  0  0  0  0  0  0  0  0  0  0
  130.3050  126.6940   65.3280 N   0  0  0  0  0  0  0  0  0  0  0  0
  131.3600  125.8800   65.6700 C   0  0  0  0  0  0  0  0  0  0  0  0
  132.1070  124.9500   64.7690 C   0  0  0  0  0  0  0  0  0  0  0  0
  133.2080  125.4140   64.0390 C   0  0  0  0  0  0  0  0  0  0  0  0
  133.9130  124.5510   63.2040 C   0  0  0  0  0  0  0  0  0  0  0  0
  133.5180  123.2180   63.0950 C   0  0  0  0  0  0  0  0  0  0  0  0
  134.2280  122.3540   62.2620 N   0  0  0  0  0  0  0  0  0  0  0  0
  132.4230  122.7470   63.8160 C   0  0  0  0  0  0  0  0  0  0  0  0
  131.7190  123.6110   64.6500 C   0  0  0  0  0  0  0  0  0  0  0  0
  131.5860  126.0820   67.0120 N   0  0  0  0  0  0  0  0  0  0  0  0
  130.6810  127.0040   67.5150 C   0  0  0  0  0  0  0  0  0  0  0  0
  130.5010  127.5230   68.8000 C   0  0  0  0  0  0  0  0  0  0  0  0
  129.2200  126.6470   71.1800 C   0  0  0  0  0  0  0  0  0  0  0  0
  129.3760  125.7550   72.2440 C   0  0  0  0  0  0  0  0  0  0  0  0
  129.2840  124.3880   72.3620 N   0  0  0  0  0  0  0  0  0  0  0  0
  130.6740  122.0180   74.6170 C   0  0  0  0  0  0  0  0  0  0  0  0
  130.6430  120.7110   75.0970 C   0  0  0  0  0  0  0  0  0  0  0  0
  129.3890  118.5520   76.6380 H   0  0  0  0  0  0  0  0  0  0  0  0
  129.4340  117.9490   74.9870 H   0  0  0  0  0  0  0  0  0  0  0  0
  127.2964  120.1002   74.8127 H   0  0  0  0  0  0  0  0  0  0  0  0
  127.3505  122.4389   73.9565 H   0  0  0  0  0  0  0  0  0  0  0  0
  130.1278  127.9031   74.8237 H   0  0  0  0  0  0  0  0  0  0  0  0
  129.8438  129.5210   72.9418 H   0  0  0  0  0  0  0  0  0  0  0  0
  128.1797  129.4228   70.3890 H   0  0  0  0  0  0  0  0  0  0  0  0
  129.9508  129.8253   70.5146 H   0  0  0  0  0  0  0  0  0  0  0  0
  127.8577  129.5747   68.0705 H   0  0  0  0  0  0  0  0  0  0  0  0
  128.1990  128.6422   65.7687 H   0  0  0  0  0  0  0  0  0  0  0  0
  129.9350  126.7360   64.3890 H   0  0  0  0  0  0  0  0  0  0  0  0
  133.5177  126.4659   64.1256 H   0  0  0  0  0  0  0  0  0  0  0  0
  134.7779  124.9192   62.6327 H   0  0  0  0  0  0  0  0  0  0  0  0
  134.9880  121.8080   62.6430 H   0  0  0  0  0  0  0  0  0  0  0  0
  133.9930  122.3040   61.2820 H   0  0  0  0  0  0  0  0  0  0  0  0
  132.1154  121.6947   63.7265 H   0  0  0  0  0  0  0  0  0  0  0  0
  130.8535  123.2393   65.2182 H   0  0  0  0  0  0  0  0  0  0  0  0
  132.3150  125.5980   67.5140 H   0  0  0  0  0  0  0  0  0  0  0  0
  131.1501  127.2252   69.6367 H   0  0  0  0  0  0  0  0  0  0  0  0
  128.9853  126.2971   70.1639 H   0  0  0  0  0  0  0  0  0  0  0  0
  129.0690  123.7060   71.6490 H   0  0  0  0  0  0  0  0  0  0  0  0
  131.6312  122.5573   74.5624 H   0  0  0  0  0  0  0  0  0  0  0  0
  131.5724  120.2202   75.4214 H   0  0  0  0  0  0  0  0  0  0  0  0
  1  2  1  0
  2  3  2  0
  3  4  1  0
  4  5  2  0
  5  6  1  0
  6  7  2  0
  7  8  1  0
  8  9  2  0
  9 10  1  0
 10 11  2  0
 11 12  1  0
 12 13  1  0
 13 14  2  0
 14 15  1  0
 15 16  2  0
 16 17  1  0
 17 18  1  0
 18 19  1  0
 19 20  2  0
 20 21  1  0
 21 22  2  0
 22 23  1  0
 22 24  1  0
 24 25  2  0
 18 26  2  0
 26 27  1  0
 27 28  2  0
 11 29  1  0
 29 30  2  0
 30 31  1  0
  5 32  1  0
 32 33  2  0
 33  2  1  0
 31  6  1  0
 30  8  1  0
 28 13  1  0
 27 16  1  0
 25 19  1  0
  1 34  1  0
  1 35  1  0
  3 36  1  0
  4 37  1  0
  9 38  1  0
 10 39  1  0
 12 40  1  0
 12 41  1  0
 14 42  1  0
 15 43  1  0
 17 44  1  0
 20 45  1  0
 21 46  1  0
 23 47  1  0
 23 48  1  0
 24 49  1  0
 25 50  1  0
 26 51  1  0
 28 52  1  0
 29 53  1  0
 31 54  1  0
 32 55  1  0
 33 56  1  0
M  CHG  1  26   1
M  END
>  <Binding energies>  (1) 
[-9.48]

>  <Ligand effiencies>  (1) 
[-0.23700000000000002]

>  <Interactions>  (1) 
["V-A:HIS:456:CE1:4069, V-B:GLU:543:C:9873, V-A:HIS:456:CD2:4067, V-B:GLU:543:CD:9879, V-B:HIS:456:CE1:9040, V-A:ARG:545:CZ:4925, V-A:TYR:484:CZ:4346, H-B:LYS:547:NZ:9922, V-A:LEU:475:CD2:4258, V-A:ASP:366:CG:3212, H-B:GLU:543:OE2:9881, V-A:ILE:369:CD1:3238, V-A:GLU:543:CD:4907, V-A:GLU:543:CG:4906, V-A:GLY:454:CA:4048, V-A:GLU:543:CB:4905, H-A:TYR:484:OH:4347, V-A:GLY:453:C:4041, V-B:LYS:547:CE:9921, V-A:TYR:484:CD2:4343, V-A:TYR:484:CB:4340, V-A:ASP:473:CG:4239, H-A:SER:385:O:3405, H-A:HIS:456:NE2:4070, H-B:GLU:543:O:9874, V-A:TYR:484:C:4336, V-A:ASP:473:CB:4238, H-A:ASP:485:OD2:4357, H-A:TYR:484:O:4337"]

$$$$
RR11_Rahimova_2017-again2
     RDKit          3D

 57 62  0  0  0  0  0  0  0  0999 V2000
  128.7070  125.6560   71.4740 N   0  0  0  0  0  0  0  0  0  0  0  0
  128.1140  126.3790   70.4400 C   0  0  0  0  0  0  0  0  0  0  0  0
  128.9030  126.8960   69.4150 C   0  0  0  0  0  0  0  0  0  0  0  0
  128.3110  127.6230   68.3850 C   0  0  0  0  0  0  0  0  0  0  0  0
  126.9270  127.8360   68.3750 C   0  0  0  0  0  0  0  0  0  0  0  0
  126.2930  128.6250   67.2750 C   0  0  0  0  0  0  0  0  0  0  0  0
  126.5740  129.9260   66.9280 N   0  0  0  0  0  0  0  0  0  0  0  0
  125.7970  130.3080   65.8420 C   0  0  0  0  0  0  0  0  0  0  0  0
  125.7240  131.5070   65.1270 C   0  0  0  0  0  0  0  0  0  0  0  0
  124.8280  131.5500   64.0520 C   0  0  0  0  0  0  0  0  0  0  0  0
  124.7080  132.8270   63.2310 C   0  0  0  0  0  0  0  0  0  0  0  0
  125.8890  133.0410   62.2960 C   0  0  0  0  0  0  0  0  0  0  0  0
  125.9680  134.2170   61.5400 C   0  0  0  0  0  0  0  0  0  0  0  0
  127.0280  134.4690   60.6650 C   0  0  0  0  0  0  0  0  0  0  0  0
  128.0170  133.4860   60.5810 C   0  0  0  0  0  0  0  0  0  0  0  0
  129.1770  133.4060   59.8230 N   0  0  0  0  0  0  0  0  0  0  0  0
  129.8340  132.2260   60.0850 C   0  0  0  0  0  0  0  0  0  0  0  0
  131.1080  131.7510   59.4650 C   0  0  0  0  0  0  0  0  0  0  0  0
  131.9290  130.8460   60.1470 C   0  0  0  0  0  0  0  0  0  0  0  0
  133.1120  130.3950   59.5660 C   0  0  0  0  0  0  0  0  0  0  0  0
  133.4770  130.8460   58.2990 C   0  0  0  0  0  0  0  0  0  0  0  0
  134.6580  130.3900   57.7140 N   0  0  0  0  0  0  0  0  0  0  0  0
  132.6680  131.7510   57.6130 C   0  0  0  0  0  0  0  0  0  0  0  0
  131.4860  132.2010   58.1950 C   0  0  0  0  0  0  0  0  0  0  0  0
  129.0780  131.5640   61.0250 N   0  0  0  0  0  0  0  0  0  0  0  0
  127.9530  132.3110   61.3460 C   0  0  0  0  0  0  0  0  0  0  0  0
  126.8940  132.0670   62.2250 C   0  0  0  0  0  0  0  0  0  0  0  0
  124.0240  130.4490   63.7330 C   0  0  0  0  0  0  0  0  0  0  0  0
  124.0880  129.2510   64.4490 C   0  0  0  0  0  0  0  0  0  0  0  0
  124.9970  129.2030   65.5090 C   0  0  0  0  0  0  0  0  0  0  0  0
  125.3220  128.1910   66.4030 N   0  0  0  0  0  0  0  0  0  0  0  0
  126.1440  127.3080   69.4080 C   0  0  0  0  0  0  0  0  0  0  0  0
  126.7350  126.5810   70.4380 C   0  0  0  0  0  0  0  0  0  0  0  0
  129.2050  126.1480   72.2020 H   0  0  0  0  0  0  0  0  0  0  0  0
  128.6890  124.6460   71.4500 H   0  0  0  0  0  0  0  0  0  0  0  0
  129.9905  126.7306   69.4191 H   0  0  0  0  0  0  0  0  0  0  0  0
  128.9336  128.0318   67.5755 H   0  0  0  0  0  0  0  0  0  0  0  0
  127.2610  130.4800   67.4180 H   0  0  0  0  0  0  0  0  0  0  0  0
  126.3418  132.3763   65.3964 H   0  0  0  0  0  0  0  0  0  0  0  0
  123.7888  132.7726   62.6292 H   0  0  0  0  0  0  0  0  0  0  0  0
  124.6860  133.6720   63.9349 H   0  0  0  0  0  0  0  0  0  0  0  0
  125.1694  134.9671   61.6381 H   0  0  0  0  0  0  0  0  0  0  0  0
  127.0809  135.3943   60.0725 H   0  0  0  0  0  0  0  0  0  0  0  0
  129.5270  134.0830   59.1600 H   0  0  0  0  0  0  0  0  0  0  0  0
  131.6389  130.4892   61.1463 H   0  0  0  0  0  0  0  0  0  0  0  0
  133.7560  129.6851   60.1056 H   0  0  0  0  0  0  0  0  0  0  0  0
  134.7540  130.4050   56.7100 H   0  0  0  0  0  0  0  0  0  0  0  0
  135.3780  129.9900   58.2970 H   0  0  0  0  0  0  0  0  0  0  0  0
  132.9627  132.1083   56.6152 H   0  0  0  0  0  0  0  0  0  0  0  0
  130.8462  132.9137   57.6540 H   0  0  0  0  0  0  0  0  0  0  0  0
  129.3430  130.6610   61.3930 H   0  0  0  0  0  0  0  0  0  0  0  0
  126.8514  131.1517   62.8336 H   0  0  0  0  0  0  0  0  0  0  0  0
  123.3196  130.5298   62.8920 H   0  0  0  0  0  0  0  0  0  0  0  0
  123.4548  128.3892   64.1913 H   0  0  0  0  0  0  0  0  0  0  0  0
  124.9360  127.2590   66.4440 H   0  0  0  0  0  0  0  0  0  0  0  0
  125.0557  127.4683   69.4061 H   0  0  0  0  0  0  0  0  0  0  0  0
  126.1156  126.1674   71.2475 H   0  0  0  0  0  0  0  0  0  0  0  0
  1  2  1  0
  2  3  2  0
  3  4  1  0
  4  5  2  0
  5  6  1  0
  6  7  1  0
  7  8  1  0
  8  9  2  0
  9 10  1  0
 10 11  1  0
 11 12  1  0
 12 13  2  0
 13 14  1  0
 14 15  2  0
 15 16  1  0
 16 17  1  0
 17 18  1  0
 18 19  2  0
 19 20  1  0
 20 21  2  0
 21 22  1  0
 21 23  1  0
 23 24  2  0
 17 25  2  0
 25 26  1  0
 26 27  2  0
 10 28  2  0
 28 29  1  0
 29 30  2  0
 30 31  1  0
  5 32  1  0
 32 33  2  0
 33  2  1  0
 31  6  2  0
 30  8  1  0
 27 12  1  0
 26 15  1  0
 24 18  1  0
  1 34  1  0
  1 35  1  0
  3 36  1  0
  4 37  1  0
  7 38  1  0
  9 39  1  0
 11 40  1  0
 11 41  1  0
 13 42  1  0
 14 43  1  0
 16 44  1  0
 19 45  1  0
 20 46  1  0
 22 47  1  0
 22 48  1  0
 23 49  1  0
 24 50  1  0
 25 51  1  0
 27 52  1  0
 28 53  1  0
 29 54  1  0
 31 55  1  0
 32 56  1  0
 33 57  1  0
M  CHG  2  25   1  31   1
M  END
>  <Binding energies>  (1) 
[-9.42]

>  <Ligand effiencies>  (1) 
[-0.22975609756097562]

>  <Interactions>  (1) 
["V-B:GLU:543:CB:9877, V-A:HIS:456:CE1:4069, V-B:GLU:543:C:9873, V-B:GLY:544:C:9883, V-B:ARG:545:CA:9890, V-B:ARG:545:CD:9894, V-B:GLU:543:CD:9879, V-B:HIS:456:CE1:9040, V-B:ARG:545:CG:9893, V-B:LEU:475:CD1:9228, V-B:ARG:545:CZ:9897, V-B:GLY:454:CA:9019, V-A:ASP:366:CG:3212, H-B:GLU:543:OE2:9881, H-B:GLU:543:OE1:9880, V-A:ASP:366:CB:3211, H-B:TYR:484:OH:9318, V-A:TYR:531:CE2:4792, V-A:LEU:363:CA:3184, H-A:TYR:531:OH:4794, V-A:LEU:363:C:3182, V-A:LEU:363:CD1:3188, V-A:PRO:540:CA:4882, V-A:TYR:531:CZ:4793, V-A:TYR:539:CD1:4872, V-A:PRO:540:N:4883, V-A:TYR:539:C:4866, V-A:TYR:539:CE1:4874, V-A:ASP:366:C:3207, H-A:TYR:539:O:4867, V-B:TYR:484:CZ:9317, V-B:TYR:484:CE2:9316, V-A:ASP:366:CA:3209, H-A:HIS:456:NE2:4070, H-A:ASN:362:O:3172, H-A:LEU:363:O:3183, H-B:GLU:543:O:9874"]

$$$$
RR12_Rahimova_2017
     RDKit          3D

 51 53  0  0  0  0  0  0  0  0999 V2000
  123.7750  123.2740   62.0250 C   0  0  0  0  0  0  0  0  0  0  0  0
  125.2610  123.4500   61.6850 C   0  0  0  0  0  0  0  0  0  0  0  0
  125.4930  124.4730   60.5580 C   0  0  0  0  0  0  0  0  0  0  0  0
  126.4190  123.9430   59.5610 N   0  0  0  0  0  0  0  0  0  0  0  0
  127.7950  123.8140   59.6720 C   0  0  0  0  0  0  0  0  0  0  0  0
  128.5940  124.2640   60.8830 C   0  0  0  0  0  0  0  0  0  0  0  0
  129.9330  123.5150   61.0140 C   0  0  0  0  0  0  0  0  0  0  0  0
  129.7720  121.9860   60.9130 C   0  0  0  0  0  0  0  0  0  0  0  0
  131.0080  121.2450   61.1630 N   0  0  0  0  0  0  0  0  0  0  0  0
  132.2500  121.7320   60.9870 C   0  0  0  0  0  0  0  0  0  0  0  0
  132.4760  122.8760   60.5860 O   0  0  0  0  0  0  0  0  0  0  0  0
  133.3950  120.7690   61.3250 C   0  0  0  0  0  0  0  0  0  0  0  0
  132.8550  119.5400   61.8130 O   0  0  0  0  0  0  0  0  0  0  0  0
  132.2600  118.6620   60.9270 C   0  0  0  0  0  0  0  0  0  0  0  0
  131.1000  118.0240   61.3700 C   0  0  0  0  0  0  0  0  0  0  0  0
  130.4280  117.1250   60.5460 C   0  0  0  0  0  0  0  0  0  0  0  0
  130.9180  116.8620   59.2700 C   0  0  0  0  0  0  0  0  0  0  0  0
  132.0760  117.4880   58.8130 C   0  0  0  0  0  0  0  0  0  0  0  0
  132.7470  118.3860   59.6380 C   0  0  0  0  0  0  0  0  0  0  0  0
  128.3530  123.2770   58.6150 N   0  0  0  0  0  0  0  0  0  0  0  0
  127.3150  123.0090   57.7670 C   0  0  0  0  0  0  0  0  0  0  0  0
  127.3440  122.4190   56.4950 C   0  0  0  0  0  0  0  0  0  0  0  0
  126.1340  122.2450   55.8230 C   0  0  0  0  0  0  0  0  0  0  0  0
  124.9240  122.6430   56.3940 C   0  0  0  0  0  0  0  0  0  0  0  0
  124.8620  123.2340   57.6580 C   0  0  0  0  0  0  0  0  0  0  0  0
  126.0780  123.4100   58.3310 C   0  0  0  0  0  0  0  0  0  0  0  0
  123.6481  123.2590   63.1176 H   0  0  0  0  0  0  0  0  0  0  0  0
  123.2002  124.1103   61.6006 H   0  0  0  0  0  0  0  0  0  0  0  0
  123.4115  122.3265   61.6006 H   0  0  0  0  0  0  0  0  0  0  0  0
  125.7905  123.7925   62.5863 H   0  0  0  0  0  0  0  0  0  0  0  0
  125.6405  122.4782   61.3364 H   0  0  0  0  0  0  0  0  0  0  0  0
  124.5320  124.7001   60.0733 H   0  0  0  0  0  0  0  0  0  0  0  0
  125.9267  125.3855   60.9931 H   0  0  0  0  0  0  0  0  0  0  0  0
  128.7991  125.3408   60.7907 H   0  0  0  0  0  0  0  0  0  0  0  0
  127.9968  124.0429   61.7799 H   0  0  0  0  0  0  0  0  0  0  0  0
  130.6046  123.8519   60.2106 H   0  0  0  0  0  0  0  0  0  0  0  0
  130.3436  123.7406   62.0092 H   0  0  0  0  0  0  0  0  0  0  0  0
  129.0209  121.6668   61.6506 H   0  0  0  0  0  0  0  0  0  0  0  0
  129.4681  121.7632   59.8796 H   0  0  0  0  0  0  0  0  0  0  0  0
  130.9010  120.2980   61.4980 H   0  0  0  0  0  0  0  0  0  0  0  0
  133.9898  120.5746   60.4203 H   0  0  0  0  0  0  0  0  0  0  0  0
  134.0372  121.2192   62.0963 H   0  0  0  0  0  0  0  0  0  0  0  0
  130.7136  118.2332   62.3784 H   0  0  0  0  0  0  0  0  0  0  0  0
  129.5148  116.6253   60.9015 H   0  0  0  0  0  0  0  0  0  0  0  0
  130.3867  116.1541   58.6169 H   0  0  0  0  0  0  0  0  0  0  0  0
  132.4583  117.2733   57.8042 H   0  0  0  0  0  0  0  0  0  0  0  0
  133.6615  118.8813   59.2798 H   0  0  0  0  0  0  0  0  0  0  0  0
  128.2941  122.1024   56.0400 H   0  0  0  0  0  0  0  0  0  0  0  0
  126.1334  121.7852   54.8237 H   0  0  0  0  0  0  0  0  0  0  0  0
  123.9916  122.4865   55.8318 H   0  0  0  0  0  0  0  0  0  0  0  0
  123.9056  123.5458   58.1031 H   0  0  0  0  0  0  0  0  0  0  0  0
  1  2  1  0
  2  3  1  0
  3  4  1  0
  4  5  1  0
  5  6  1  0
  6  7  1  0
  7  8  1  0
  8  9  1  0
  9 10  1  0
 10 11  2  0
 10 12  1  0
 12 13  1  0
 13 14  1  0
 14 15  2  0
 15 16  1  0
 16 17  2  0
 17 18  1  0
 18 19  2  0
  5 20  2  0
 20 21  1  0
 21 22  2  0
 22 23  1  0
 23 24  2  0
 24 25  1  0
 25 26  2  0
 26  4  1  0
 19 14  1  0
 26 21  1  0
  1 27  1  0
  1 28  1  0
  1 29  1  0
  2 30  1  0
  2 31  1  0
  3 32  1  0
  3 33  1  0
  6 34  1  0
  6 35  1  0
  7 36  1  0
  7 37  1  0
  8 38  1  0
  8 39  1  0
  9 40  1  0
 12 41  1  0
 12 42  1  0
 15 43  1  0
 16 44  1  0
 17 45  1  0
 18 46  1  0
 19 47  1  0
 22 48  1  0
 23 49  1  0
 24 50  1  0
 25 51  1  0
M  END
>  <Binding energies>  (1) 
[-7.45]

>  <Ligand effiencies>  (1) 
[-0.2759259259259259]

>  <Interactions>  (1) 
["V-B:PRO:540:N:9855, V-B:PRO:540:CB:9856, V-B:TYR:539:CD2:9845, V-B:TYR:539:C:9838, V-B:MET:535:CE:9806, V-B:TYR:531:CE2:9764, V-B:PRO:540:CA:9854, V-B:LEU:363:CD1:8159, V-B:TYR:539:CE2:9847, V-A:LEU:475:CD2:4258, V-A:PRO:482:CG:4326, V-A:SER:385:CB:3408, V-B:VAL:344:CG1:7971, V-B:TYR:539:CE1:9846, V-B:MET:535:CG:9804, V-B:TYR:539:CA:9840, V-B:TYR:539:CD1:9844, V-A:ILE:369:CG2:3236, V-B:ILE:538:CD1:9836, V-B:TYR:539:CB:9842, V-B:TYR:539:CG:9843, V-B:ILE:538:CG2:9834, V-A:HIS:383:CE1:3393, V-A:PRO:482:CB:4325, V-B:ILE:538:CA:9831, V-A:SER:385:CA:3406, V-B:PRO:540:CD:9858, V-B:ILE:538:C:9829, V-A:LEU:373:CG:3278, V-A:LEU:373:CD2:3280, V-B:PRO:540:C:9852, V-B:ASN:362:CB:8146, H-B:TYR:539:O:9839, V-A:LEU:373:CD1:3279, V-A:HIS:383:CG:3389"]

$$$$
RR13_Rahimova_2017
     RDKit          3D

 84 90  0  0  0  0  0  0  0  0999 V2000
  127.6020  131.3420   59.4840 Cl  0  0  0  0  0  0  0  0  0  0  0  0
  127.9080  131.2360   61.1850 C   0  0  0  0  0  0  0  0  0  0  0  0
  126.8460  131.4960   62.0540 C   0  0  0  0  0  0  0  0  0  0  0  0
  127.0330  131.4490   63.4330 C   0  0  0  0  0  0  0  0  0  0  0  0
  128.2880  131.1420   63.9530 C   0  0  0  0  0  0  0  0  0  0  0  0
  129.3520  130.8820   63.0920 C   0  0  0  0  0  0  0  0  0  0  0  0
  129.1800  130.9130   61.6990 C   0  0  0  0  0  0  0  0  0  0  0  0
  130.3820  130.6450   60.7660 C   0  0  1  0  0  0  0  0  0  0  0  0
  131.6090  131.4640   61.1980 C   0  0  0  0  0  0  0  0  0  0  0  0
  131.6890  132.2730   62.2310 N   0  0  0  0  0  0  0  0  0  0  0  0
  132.9750  132.8040   62.2000 N   0  0  0  0  0  0  0  0  0  0  0  0
  133.6650  132.3110   61.1110 N   0  0  0  0  0  0  0  0  0  0  0  0
  132.7940  131.5060   60.4940 N   0  0  0  0  0  0  0  0  0  0  0  0
  133.1890  130.7650   59.3020 C   0  0  0  0  0  0  0  0  0  0  0  0
  133.5180  131.7380   58.1540 C   0  0  0  0  0  0  0  0  0  0  0  0
  132.2650  132.2710   57.4760 C   0  0  0  0  0  0  0  0  0  0  0  0
  132.3720  133.2420   56.4770 C   0  0  0  0  0  0  0  0  0  0  0  0
  131.2240  133.7350   55.8620 C   0  0  0  0  0  0  0  0  0  0  0  0
  129.9730  133.2550   56.2490 C   0  0  0  0  0  0  0  0  0  0  0  0
  129.8610  132.2880   57.2450 C   0  0  0  0  0  0  0  0  0  0  0  0
  131.0080  131.7940   57.8600 C   0  0  0  0  0  0  0  0  0  0  0  0
  130.6930  129.2050   60.6030 N   0  0  0  0  0  0  0  0  0  0  0  0
  129.9050  128.6270   59.4990 C   0  0  0  0  0  0  0  0  0  0  0  0
  130.3200  127.1610   59.2370 C   0  0  0  0  0  0  0  0  0  0  0  0
  130.0780  126.3310   60.4290 N   0  0  0  0  0  0  0  0  0  0  0  0
  130.3860  124.9010   60.1960 C   0  0  1  0  0  0  0  0  0  0  0  0
  129.3160  124.1100   59.4110 C   0  0  0  0  0  0  0  0  0  0  0  0
  129.2220  124.3540   58.0340 C   0  0  0  0  0  0  0  0  0  0  0  0
  128.2970  123.6730   57.2430 C   0  0  0  0  0  0  0  0  0  0  0  0
  127.4450  122.7370   57.8210 C   0  0  0  0  0  0  0  0  0  0  0  0
  127.5110  122.4920   59.1900 C   0  0  0  0  0  0  0  0  0  0  0  0
  128.4320  123.1710   59.9920 C   0  0  0  0  0  0  0  0  0  0  0  0
  128.3890  122.8460   61.6930 Cl  0  0  0  0  0  0  0  0  0  0  0  0
  131.7670  124.6760   59.5760 C   0  0  0  0  0  0  0  0  0  0  0  0
  132.1500  125.1010   58.3940 N   0  0  0  0  0  0  0  0  0  0  0  0
  133.4710  124.6900   58.2500 N   0  0  0  0  0  0  0  0  0  0  0  0
  133.8840  124.0180   59.3830 N   0  0  0  0  0  0  0  0  0  0  0  0
  132.8220  124.0400   60.1960 N   0  0  0  0  0  0  0  0  0  0  0  0
  132.8880  123.3930   61.5020 C   0  0  0  0  0  0  0  0  0  0  0  0
  131.6980  122.4340   61.6880 C   0  0  0  0  0  0  0  0  0  0  0  0
  132.0140  121.0270   61.2070 C   0  0  0  0  0  0  0  0  0  0  0  0
  131.0650  120.0110   61.3480 C   0  0  0  0  0  0  0  0  0  0  0  0
  131.3520  118.7240   60.9010 C   0  0  0  0  0  0  0  0  0  0  0  0
  132.5880  118.4570   60.3150 C   0  0  0  0  0  0  0  0  0  0  0  0
  133.5390  119.4660   60.1710 C   0  0  0  0  0  0  0  0  0  0  0  0
  133.2520  120.7530   60.6160 C   0  0  0  0  0  0  0  0  0  0  0  0
  130.8730  126.9090   61.5280 C   0  0  0  0  0  0  0  0  0  0  0  0
  130.4460  128.3720   61.7930 C   0  0  0  0  0  0  0  0  0  0  0  0
  125.8541  131.7398   61.6458 H   0  0  0  0  0  0  0  0  0  0  0  0
  126.1910  131.6540   64.1105 H   0  0  0  0  0  0  0  0  0  0  0  0
  128.4389  131.1049   65.0420 H   0  0  0  0  0  0  0  0  0  0  0  0
  130.3423  130.6488   63.5102 H   0  0  0  0  0  0  0  0  0  0  0  0
  130.0845  130.9880   59.7641 H   0  0  0  0  0  0  0  0  0  0  0  0
  134.0778  130.1581   59.5296 H   0  0  0  0  0  0  0  0  0  0  0  0
  132.3580  130.1139   58.9929 H   0  0  0  0  0  0  0  0  0  0  0  0
  134.0887  132.5859   58.5608 H   0  0  0  0  0  0  0  0  0  0  0  0
  134.1012  131.1874   57.4012 H   0  0  0  0  0  0  0  0  0  0  0  0
  133.3617  133.6165   56.1767 H   0  0  0  0  0  0  0  0  0  0  0  0
  131.3034  134.4992   55.0748 H   0  0  0  0  0  0  0  0  0  0  0  0
  129.0661  133.6439   55.7629 H   0  0  0  0  0  0  0  0  0  0  0  0
  128.8701  131.9160   57.5445 H   0  0  0  0  0  0  0  0  0  0  0  0
  130.9256  131.0297   58.6468 H   0  0  0  0  0  0  0  0  0  0  0  0
  128.8376  128.6579   59.7631 H   0  0  0  0  0  0  0  0  0  0  0  0
  130.0912  129.2143   58.5878 H   0  0  0  0  0  0  0  0  0  0  0  0
  129.7330  126.7644   58.3955 H   0  0  0  0  0  0  0  0  0  0  0  0
  131.3937  127.1343   58.9993 H   0  0  0  0  0  0  0  0  0  0  0  0
  130.3835  124.4878   61.2154 H   0  0  0  0  0  0  0  0  0  0  0  0
  129.8890  125.0951   57.5694 H   0  0  0  0  0  0  0  0  0  0  0  0
  128.2410  123.8756   56.1633 H   0  0  0  0  0  0  0  0  0  0  0  0
  126.7209  122.1918   57.1977 H   0  0  0  0  0  0  0  0  0  0  0  0
  126.8312  121.7565   59.6448 H   0  0  0  0  0  0  0  0  0  0  0  0
  133.8266  122.8244   61.5775 H   0  0  0  0  0  0  0  0  0  0  0  0
  132.8490  124.1651   62.2845 H   0  0  0  0  0  0  0  0  0  0  0  0
  131.4393  122.3934   62.7564 H   0  0  0  0  0  0  0  0  0  0  0  0
  130.8593  122.8159   61.0873 H   0  0  0  0  0  0  0  0  0  0  0  0
  130.0915  120.2280   61.8120 H   0  0  0  0  0  0  0  0  0  0  0  0
  130.6070  117.9220   61.0098 H   0  0  0  0  0  0  0  0  0  0  0  0
  132.8153  117.4401   59.9627 H   0  0  0  0  0  0  0  0  0  0  0  0
  134.5121  119.2459   59.7076 H   0  0  0  0  0  0  0  0  0  0  0  0
  133.9977  121.5538   60.5032 H   0  0  0  0  0  0  0  0  0  0  0  0
  130.7155  126.3149   62.4403 H   0  0  0  0  0  0  0  0  0  0  0  0
  131.9358  126.8939   61.2449 H   0  0  0  0  0  0  0  0  0  0  0  0
  129.3736  128.3977   62.0367 H   0  0  0  0  0  0  0  0  0  0  0  0
  131.0352  128.7681   62.6332 H   0  0  0  0  0  0  0  0  0  0  0  0
  1  2  1  0
  2  3  2  0
  3  4  1  0
  4  5  2  0
  5  6  1  0
  6  7  2  0
  7  8  1  0
  8  9  1  0
  9 10  2  0
 10 11  1  0
 11 12  2  0
 12 13  1  0
 13 14  1  0
 14 15  1  0
 15 16  1  0
 16 17  2  0
 17 18  1  0
 18 19  2  0
 19 20  1  0
 20 21  2  0
  8 22  1  0
 22 23  1  0
 23 24  1  0
 24 25  1  0
 25 26  1  0
 26 27  1  0
 27 28  2  0
 28 29  1  0
 29 30  2  0
 30 31  1  0
 31 32  2  0
 32 33  1  0
 26 34  1  0
 34 35  2  0
 35 36  1  0
 36 37  2  0
 37 38  1  0
 38 39  1  0
 39 40  1  0
 40 41  1  0
 41 42  2  0
 42 43  1  0
 43 44  2  0
 44 45  1  0
 45 46  2  0
 25 47  1  0
 47 48  1  0
  7  2  1  0
 13  9  1  0
 21 16  1  0
 48 22  1  0
 32 27  1  0
 38 34  1  0
 46 41  1  0
  3 49  1  0
  4 50  1  0
  5 51  1  0
  6 52  1  0
  8 53  1  6
 14 54  1  0
 14 55  1  0
 15 56  1  0
 15 57  1  0
 17 58  1  0
 18 59  1  0
 19 60  1  0
 20 61  1  0
 21 62  1  0
 23 63  1  0
 23 64  1  0
 24 65  1  0
 24 66  1  0
 26 67  1  1
 28 68  1  0
 29 69  1  0
 30 70  1  0
 31 71  1  0
 39 72  1  0
 39 73  1  0
 40 74  1  0
 40 75  1  0
 42 76  1  0
 43 77  1  0
 44 78  1  0
 45 79  1  0
 46 80  1  0
 47 81  1  0
 47 82  1  0
 48 83  1  0
 48 84  1  0
M  END
>  <Binding energies>  (1) 
[-13.64]

>  <Ligand effiencies>  (1) 
[-0.2841666666666667]

>  <Interactions>  (1) 
["V-B:PRO:540:N:9855, V-B:PRO:540:CB:9856, V-B:TYR:539:CD2:9845, V-B:TYR:539:C:9838, V-B:MET:535:CE:9806, V-B:PRO:540:CA:9854, V-B:TYR:539:CE2:9847, V-A:LEU:475:CD2:4258, H-B:TYR:539:OH:9849, V-B:TYR:539:CZ:9848, V-A:ASP:366:CG:3212, V-A:ILE:369:CG2:3236, V-A:ILE:369:CD1:3238, V-A:GLU:543:CD:4907, V-A:GLU:543:CG:4906, V-A:ASP:366:CB:3211, V-A:SER:385:CA:3406, V-A:TYR:531:CE2:4792, V-A:LEU:363:CA:3184, V-A:LEU:363:CD1:3188, V-A:PRO:540:CA:4882, V-A:TYR:539:CD1:4872, V-A:PRO:540:CD:4886, V-A:ILE:538:CG2:4862, V-A:PRO:540:N:4883, V-A:PRO:540:CB:4884, V-A:TYR:539:CE1:4874, V-A:ILE:538:CB:4861, V-A:ILE:538:CA:4859, V-A:LEU:363:CB:3186, H-A:ALA:541:N:4890, H-A:LEU:363:N:3185, V-A:ILE:538:C:4857"]

$$$$
RR14_Rahimova_2017
     RDKit          3D

 76 80  0  0  0  0  0  0  0  0999 V2000
  131.1640  117.3930   59.8680 C   0  0  0  0  0  0  0  0  0  0  0  0
  131.2410  118.1050   61.0980 O   0  0  0  0  0  0  0  0  0  0  0  0
  131.4890  119.4640   61.0750 C   0  0  0  0  0  0  0  0  0  0  0  0
  132.7920  119.8530   60.7620 C   0  0  0  0  0  0  0  0  0  0  0  0
  133.1420  121.2000   60.7380 C   0  0  0  0  0  0  0  0  0  0  0  0
  132.1870  122.1750   61.0360 C   0  0  0  0  0  0  0  0  0  0  0  0
  132.5830  123.6460   61.0760 C   0  0  0  0  0  0  0  0  0  0  0  0
  132.6890  124.2530   59.7490 N   0  0  0  0  0  0  0  0  0  0  0  0
  133.7250  123.9620   58.9530 N   0  0  0  0  0  0  0  0  0  0  0  0
  133.5190  124.7210   57.8180 N   0  0  0  0  0  0  0  0  0  0  0  0
  132.3550  125.4710   57.9490 N   0  0  0  0  0  0  0  0  0  0  0  0
  131.8720  125.1760   59.1320 C   0  0  0  0  0  0  0  0  0  0  0  0
  130.6090  125.7720   59.7390 C   0  0  0  0  0  0  0  0  0  0  0  0
  129.7660  126.4430   58.7350 N   0  0  0  0  0  0  0  0  0  0  0  0
  128.6780  125.5760   58.2640 C   0  0  0  0  0  0  0  0  0  0  0  0
  128.2910  124.4740   59.2740 C   0  0  0  0  0  0  0  0  0  0  0  0
  128.3500  123.0480   58.6880 C   0  0  0  0  0  0  0  0  0  0  0  0
  127.1690  122.6990   57.8910 N   0  0  0  0  0  0  0  0  0  0  0  0
  127.5410  122.5040   56.4840 C   0  0  0  0  0  0  0  0  0  0  0  0
  126.3110  122.1860   55.6080 C   0  0  0  0  0  0  0  0  0  0  0  0
  125.3210  123.1960   55.7700 O   0  0  0  0  0  0  0  0  0  0  0  0
  124.8780  123.3050   57.1180 C   0  0  0  0  0  0  0  0  0  0  0  0
  126.0650  123.6590   58.0390 C   0  0  0  0  0  0  0  0  0  0  0  0
  129.2250  127.6950   59.2850 C   0  0  0  0  0  0  0  0  0  0  0  0
  129.6980  128.9820   58.6140 C   0  0  0  0  0  0  0  0  0  0  0  0
  130.8860  129.5470   58.9430 C   0  0  0  0  0  0  0  0  0  0  0  0
  131.3490  130.8130   58.3380 C   0  0  0  0  0  0  0  0  0  0  0  0
  132.5810  131.4160   58.6410 C   0  0  0  0  0  0  0  0  0  0  0  0
  133.5500  130.7940   59.6380 C   0  0  0  0  0  0  0  0  0  0  0  0
  132.9250  132.6140   58.0100 C   0  0  0  0  0  0  0  0  0  0  0  0
  132.0620  133.2080   57.0900 C   0  0  0  0  0  0  0  0  0  0  0  0
  130.8350  132.6140   56.7800 C   0  0  0  0  0  0  0  0  0  0  0  0
  129.9140  133.2860   55.7690 C   0  0  0  0  0  0  0  0  0  0  0  0
  130.4790  131.4110   57.4080 C   0  0  0  0  0  0  0  0  0  0  0  0
  129.2490  130.7770   57.1290 N   0  0  0  0  0  0  0  0  0  0  0  0
  128.7840  129.6180   57.6590 C   0  0  0  0  0  0  0  0  0  0  0  0
  127.6790  129.1840   57.3360 O   0  0  0  0  0  0  0  0  0  0  0  0
  130.8740  121.7970   61.3220 C   0  0  0  0  0  0  0  0  0  0  0  0
  130.5260  120.4500   61.3460 C   0  0  0  0  0  0  0  0  0  0  0  0
  131.0478  116.3185   60.0730 H   0  0  0  0  0  0  0  0  0  0  0  0
  130.2994  117.7517   59.2902 H   0  0  0  0  0  0  0  0  0  0  0  0
  132.0853  117.5585   59.2902 H   0  0  0  0  0  0  0  0  0  0  0  0
  133.5490  119.0887   60.5323 H   0  0  0  0  0  0  0  0  0  0  0  0
  134.1704  121.4967   60.4844 H   0  0  0  0  0  0  0  0  0  0  0  0
  131.8245  124.1962   61.6521 H   0  0  0  0  0  0  0  0  0  0  0  0
  133.5783  123.7030   61.5408 H   0  0  0  0  0  0  0  0  0  0  0  0
  130.0266  124.9643   60.2063 H   0  0  0  0  0  0  0  0  0  0  0  0
  130.9160  126.5271   60.4777 H   0  0  0  0  0  0  0  0  0  0  0  0
  127.7927  126.2002   58.0728 H   0  0  0  0  0  0  0  0  0  0  0  0
  129.0355  125.0716   57.3542 H   0  0  0  0  0  0  0  0  0  0  0  0
  128.9820  124.5274   60.1282 H   0  0  0  0  0  0  0  0  0  0  0  0
  127.2469  124.6585   59.5670 H   0  0  0  0  0  0  0  0  0  0  0  0
  129.2398  122.9709   58.0459 H   0  0  0  0  0  0  0  0  0  0  0  0
  128.3891  122.3486   59.5361 H   0  0  0  0  0  0  0  0  0  0  0  0
  128.0170  123.4226   56.1104 H   0  0  0  0  0  0  0  0  0  0  0  0
  128.2328  121.6507   56.4270 H   0  0  0  0  0  0  0  0  0  0  0  0
  126.6174  122.1428   54.5524 H   0  0  0  0  0  0  0  0  0  0  0  0
  125.8907  121.2171   55.9155 H   0  0  0  0  0  0  0  0  0  0  0  0
  124.1153  124.0946   57.1877 H   0  0  0  0  0  0  0  0  0  0  0  0
  124.4503  122.3426   57.4355 H   0  0  0  0  0  0  0  0  0  0  0  0
  126.4292  124.6645   57.7816 H   0  0  0  0  0  0  0  0  0  0  0  0
  125.7149  123.6233   59.0812 H   0  0  0  0  0  0  0  0  0  0  0  0
  128.1291  127.6541   59.1991 H   0  0  0  0  0  0  0  0  0  0  0  0
  129.5946  127.7477   60.3197 H   0  0  0  0  0  0  0  0  0  0  0  0
  131.5259  129.0464   59.6846 H   0  0  0  0  0  0  0  0  0  0  0  0
  133.2120  131.0110   60.6620 H   0  0  0  0  0  0  0  0  0  0  0  0
  133.5838  129.7051   59.4860 H   0  0  0  0  0  0  0  0  0  0  0  0
  134.5541  131.2167   59.4860 H   0  0  0  0  0  0  0  0  0  0  0  0
  133.8873  133.0939   58.2415 H   0  0  0  0  0  0  0  0  0  0  0  0
  132.3490  134.1521   56.6039 H   0  0  0  0  0  0  0  0  0  0  0  0
  129.1365  133.8533   56.3017 H   0  0  0  0  0  0  0  0  0  0  0  0
  130.4997  133.9705   55.1377 H   0  0  0  0  0  0  0  0  0  0  0  0
  129.4409  132.5194   55.1377 H   0  0  0  0  0  0  0  0  0  0  0  0
  128.6260  131.2170   56.4700 H   0  0  0  0  0  0  0  0  0  0  0  0
  130.1138  122.5647   61.5286 H   0  0  0  0  0  0  0  0  0  0  0  0
  129.4918  120.1559   61.5783 H   0  0  0  0  0  0  0  0  0  0  0  0
  1  2  1  0
  2  3  1  0
  3  4  2  0
  4  5  1  0
  5  6  2  0
  6  7  1  0
  7  8  1  0
  8  9  1  0
  9 10  2  0
 10 11  1  0
 11 12  2  0
 12 13  1  0
 13 14  1  0
 14 15  1  0
 15 16  1  0
 16 17  1  0
 17 18  1  0
 18 19  1  0
 19 20  1  0
 20 21  1  0
 21 22  1  0
 22 23  1  0
 14 24  1  0
 24 25  1  0
 25 26  2  0
 26 27  1  0
 27 28  2  0
 28 29  1  0
 28 30  1  0
 30 31  2  0
 31 32  1  0
 32 33  1  0
 32 34  2  0
 34 35  1  0
 35 36  1  0
 36 37  2  0
  6 38  1  0
 38 39  2  0
 39  3  1  0
 12  8  1  0
 23 18  1  0
 36 25  1  0
 34 27  1  0
  1 40  1  0
  1 41  1  0
  1 42  1  0
  4 43  1  0
  5 44  1  0
  7 45  1  0
  7 46  1  0
 13 47  1  0
 13 48  1  0
 15 49  1  0
 15 50  1  0
 16 51  1  0
 16 52  1  0
 17 53  1  0
 17 54  1  0
 19 55  1  0
 19 56  1  0
 20 57  1  0
 20 58  1  0
 22 59  1  0
 22 60  1  0
 23 61  1  0
 23 62  1  0
 24 63  1  0
 24 64  1  0
 26 65  1  0
 29 66  1  0
 29 67  1  0
 29 68  1  0
 30 69  1  0
 31 70  1  0
 33 71  1  0
 33 72  1  0
 33 73  1  0
 35 74  1  0
 38 75  1  0
 39 76  1  0
M  END
>  <Binding energies>  (1) 
[-11.27]

>  <Ligand effiencies>  (1) 
[-0.28175]

>  <Interactions>  (1) 
["H-B:TYR:531:OH:9766, V-B:PRO:540:CB:9856, V-B:TYR:539:CD2:9845, V-B:TYR:539:C:9838, V-B:MET:535:CE:9806, V-B:TYR:531:CE2:9764, V-B:PRO:540:CA:9854, V-B:LEU:363:CD1:8159, V-B:TYR:539:CE2:9847, V-A:LEU:475:CD2:4258, V-B:ALA:541:CB:9863, H-B:TYR:539:OH:9849, V-B:TYR:539:CZ:9848, V-A:ASP:366:CG:3212, V-B:TYR:539:CE1:9846, V-B:MET:535:CG:9804, V-B:TYR:539:CD1:9844, V-A:ILE:369:CG2:3236, V-B:ILE:538:CD1:9836, V-B:TYR:539:CB:9842, V-B:TYR:539:CG:9843, V-B:ILE:538:CG2:9834, V-A:HIS:383:CE1:3393, V-B:ILE:538:CA:9831, V-A:ASP:366:CB:3211, V-A:SER:385:CA:3406, V-A:ASN:362:C:3171, V-A:LEU:363:CA:3184, V-A:LEU:363:CD1:3188, V-A:PRO:540:CA:4882, V-A:TYR:539:CD1:4872, V-A:PRO:540:CD:4886, V-A:PRO:540:N:4883, V-A:PRO:540:CB:4884, V-A:TYR:539:CE1:4874, V-A:ILE:538:CA:4859, V-B:ILE:538:C:9829"]

$$$$
RR15_Rahimova_2017
     RDKit          3D

 85 89  0  0  0  0  0  0  0  0999 V2000
  125.5940  122.2080   55.2230 C   0  0  0  0  0  0  0  0  0  0  0  0
  126.3550  123.2720   55.7850 O   0  0  0  0  0  0  0  0  0  0  0  0
  126.6610  123.2510   57.1350 C   0  0  0  0  0  0  0  0  0  0  0  0
  127.9090  122.8570   57.6430 C   0  0  0  0  0  0  0  0  0  0  0  0
  128.1520  122.8580   59.0140 C   0  0  0  0  0  0  0  0  0  0  0  0
  127.1570  123.2480   59.9170 C   0  0  0  0  0  0  0  0  0  0  0  0
  127.4170  123.2420   61.3980 C   0  0  0  0  0  0  0  0  0  0  0  0
  126.5040  122.8770   62.2880 N   0  0  0  0  0  0  0  0  0  0  0  0
  127.1020  123.0100   63.5240 N   0  0  0  0  0  0  0  0  0  0  0  0
  128.3410  123.4080   63.2330 N   0  0  0  0  0  0  0  0  0  0  0  0
  129.2830  123.8300   64.2690 C   0  0  0  0  0  0  0  0  0  0  0  0
  130.4600  122.8520   64.5120 C   0  0  0  0  0  0  0  0  0  0  0  0
  130.2500  121.8440   65.1910 O   0  0  0  0  0  0  0  0  0  0  0  0
  131.6810  123.1100   63.9510 N   0  0  0  0  0  0  0  0  0  0  0  0
  132.5200  122.0240   63.4050 C   0  0  0  0  0  0  0  0  0  0  0  0
  132.2000  121.6750   61.9360 C   0  0  0  0  0  0  0  0  0  0  0  0
  131.1300  120.5730   61.7480 C   0  0  0  0  0  0  0  0  0  0  0  0
  131.4390  119.6270   60.6710 N   0  0  0  0  0  0  0  0  0  0  0  0
  132.8580  119.6180   60.2860 C   0  0  0  0  0  0  0  0  0  0  0  0
  133.1450  118.5480   59.2120 C   0  0  0  0  0  0  0  0  0  0  0  0
  132.7000  117.2710   59.6580 O   0  0  0  0  0  0  0  0  0  0  0  0
  131.3030  117.2500   59.9330 C   0  0  0  0  0  0  0  0  0  0  0  0
  130.9670  118.2830   61.0300 C   0  0  0  0  0  0  0  0  0  0  0  0
  132.1810  124.4900   63.6650 C   0  0  2  0  0  0  0  0  0  0  0  0
  133.3290  124.5460   62.6090 C   0  0  0  0  0  0  0  0  0  0  0  0
  134.5040  124.6670   62.9540 O   0  0  0  0  0  0  0  0  0  0  0  0
  132.9460  124.4130   61.3270 N   0  0  0  0  0  0  0  0  0  0  0  0
  133.8470  124.3320   60.1820 C   0  0  0  0  0  0  0  0  0  0  0  0
  133.0610  124.2340   58.8620 C   0  0  2  0  0  0  0  0  0  0  0  0
  133.0640  125.5050   57.9950 C   0  0  0  0  0  0  0  0  0  0  0  0
  131.7210  126.1430   58.2530 C   0  0  0  0  0  0  0  0  0  0  0  0
  130.8440  124.9210   58.4610 C   0  0  0  0  0  0  0  0  0  0  0  0
  131.6840  124.0660   59.2280 O   0  0  0  0  0  0  0  0  0  0  0  0
  132.3800  125.2690   64.9600 C   0  0  0  0  0  0  0  0  0  0  0  0
  131.2520  125.8250   65.5750 C   0  0  0  0  0  0  0  0  0  0  0  0
  131.3730  126.5470   66.7590 C   0  0  0  0  0  0  0  0  0  0  0  0
  132.6270  126.7170   67.3390 C   0  0  0  0  0  0  0  0  0  0  0  0
  132.7450  127.4170   68.4900 F   0  0  0  0  0  0  0  0  0  0  0  0
  133.7600  126.1690   66.7430 C   0  0  0  0  0  0  0  0  0  0  0  0
  133.6370  125.4480   65.5580 C   0  0  0  0  0  0  0  0  0  0  0  0
  128.5700  123.6040   61.9290 N   0  0  0  0  0  0  0  0  0  0  0  0
  125.9130  123.6430   59.4070 C   0  0  0  0  0  0  0  0  0  0  0  0
  125.6540  123.6510   58.0250 C   0  0  0  0  0  0  0  0  0  0  0  0
  124.4440  124.0350   57.4740 O   0  0  0  0  0  0  0  0  0  0  0  0
  123.4600  124.6500   58.2980 C   0  0  0  0  0  0  0  0  0  0  0  0
  125.1599  121.6010   56.0311 H   0  0  0  0  0  0  0  0  0  0  0  0
  124.7866  122.6230   54.6018 H   0  0  0  0  0  0  0  0  0  0  0  0
  126.2476  121.5780   54.6018 H   0  0  0  0  0  0  0  0  0  0  0  0
  128.7039  122.5439   56.9501 H   0  0  0  0  0  0  0  0  0  0  0  0
  129.1377  122.5486   59.3916 H   0  0  0  0  0  0  0  0  0  0  0  0
  129.7019  124.8037   63.9750 H   0  0  0  0  0  0  0  0  0  0  0  0
  128.7132  123.8697   65.2091 H   0  0  0  0  0  0  0  0  0  0  0  0
  133.5736  122.3338   63.4673 H   0  0  0  0  0  0  0  0  0  0  0  0
  132.3124  121.1243   64.0029 H   0  0  0  0  0  0  0  0  0  0  0  0
  131.8419  122.5880   61.4378 H   0  0  0  0  0  0  0  0  0  0  0  0
  133.1304  121.2797   61.5024 H   0  0  0  0  0  0  0  0  0  0  0  0
  131.0420  120.0106   62.6892 H   0  0  0  0  0  0  0  0  0  0  0  0
  130.1933  121.0791   61.4715 H   0  0  0  0  0  0  0  0  0  0  0  0
  133.1263  120.6070   59.8861 H   0  0  0  0  0  0  0  0  0  0  0  0
  133.4565  119.3812   61.1781 H   0  0  0  0  0  0  0  0  0  0  0  0
  132.6164  118.8133   58.2846 H   0  0  0  0  0  0  0  0  0  0  0  0
  134.2287  118.5061   59.0281 H   0  0  0  0  0  0  0  0  0  0  0  0
  130.7473  117.4976   59.0166 H   0  0  0  0  0  0  0  0  0  0  0  0
  131.0179  116.2464   60.2816 H   0  0  0  0  0  0  0  0  0  0  0  0
  129.8763  118.3133   61.1696 H   0  0  0  0  0  0  0  0  0  0  0  0
  131.4737  117.9770   61.9571 H   0  0  0  0  0  0  0  0  0  0  0  0
  131.3971  125.0442   63.1280 H   0  0  0  0  0  0  0  0  0  0  0  0
  131.9640  124.2900   61.1280 H   0  0  0  0  0  0  0  0  0  0  0  0
  134.4785  125.2324   60.1578 H   0  0  0  0  0  0  0  0  0  0  0  0
  134.4649  123.4281   60.2878 H   0  0  0  0  0  0  0  0  0  0  0  0
  133.5304  123.4231   58.2858 H   0  0  0  0  0  0  0  0  0  0  0  0
  133.8790  126.1793   58.2968 H   0  0  0  0  0  0  0  0  0  0  0  0
  133.2235  125.2835   56.9294 H   0  0  0  0  0  0  0  0  0  0  0  0
  131.7435  126.7795   59.1499 H   0  0  0  0  0  0  0  0  0  0  0  0
  131.3784  126.8108   57.4489 H   0  0  0  0  0  0  0  0  0  0  0  0
  129.9282  125.1783   59.0133 H   0  0  0  0  0  0  0  0  0  0  0  0
  130.4957  124.4662   57.5219 H   0  0  0  0  0  0  0  0  0  0  0  0
  130.2605  125.6901   65.1182 H   0  0  0  0  0  0  0  0  0  0  0  0
  130.4812  126.9815   67.2344 H   0  0  0  0  0  0  0  0  0  0  0  0
  134.7483  126.3051   67.2065 H   0  0  0  0  0  0  0  0  0  0  0  0
  134.5320  125.0154   65.0870 H   0  0  0  0  0  0  0  0  0  0  0  0
  125.1208  123.9540   60.1039 H   0  0  0  0  0  0  0  0  0  0  0  0
  123.7157  124.4902   59.3559 H   0  0  0  0  0  0  0  0  0  0  0  0
  123.4279  125.7292   58.0875 H   0  0  0  0  0  0  0  0  0  0  0  0
  122.4759  124.2059   58.0875 H   0  0  0  0  0  0  0  0  0  0  0  0
  1  2  1  0
  2  3  1  0
  3  4  2  0
  4  5  1  0
  5  6  2  0
  6  7  1  0
  7  8  1  0
  8  9  2  0
  9 10  1  0
 10 11  1  0
 11 12  1  0
 12 13  2  0
 12 14  1  0
 14 15  1  0
 15 16  1  0
 16 17  1  0
 17 18  1  0
 18 19  1  0
 19 20  1  0
 20 21  1  0
 21 22  1  0
 22 23  1  0
 14 24  1  0
 24 25  1  0
 25 26  2  0
 25 27  1  0
 27 28  1  0
 28 29  1  0
 29 30  1  0
 30 31  1  0
 31 32  1  0
 32 33  1  0
 24 34  1  0
 34 35  2  0
 35 36  1  0
 36 37  2  0
 37 38  1  0
 37 39  1  0
 39 40  2  0
 10 41  1  0
  6 42  1  0
 42 43  2  0
 43 44  1  0
 44 45  1  0
 43  3  1  0
 41  7  2  0
 23 18  1  0
 33 29  1  0
 40 34  1  0
  1 46  1  0
  1 47  1  0
  1 48  1  0
  4 49  1  0
  5 50  1  0
 11 51  1  0
 11 52  1  0
 15 53  1  0
 15 54  1  0
 16 55  1  0
 16 56  1  0
 17 57  1  0
 17 58  1  0
 19 59  1  0
 19 60  1  0
 20 61  1  0
 20 62  1  0
 22 63  1  0
 22 64  1  0
 23 65  1  0
 23 66  1  0
 24 67  1  6
 27 68  1  0
 28 69  1  0
 28 70  1  0
 29 71  1  6
 30 72  1  0
 30 73  1  0
 31 74  1  0
 31 75  1  0
 32 76  1  0
 32 77  1  0
 35 78  1  0
 36 79  1  0
 39 80  1  0
 40 81  1  0
 42 82  1  0
 45 83  1  0
 45 84  1  0
 45 85  1  0
M  END
>  <Binding energies>  (1) 
[-11.61]

>  <Ligand effiencies>  (1) 
[-0.2523913043478261]

>  <Interactions>  (1) 
["V-A:HIS:456:CE1:4069, V-B:GLU:543:CD:9879, V-B:ASP:366:CG:8183, V-A:ARG:545:CZ:4925, V-B:ASP:366:CB:8182, V-B:PRO:540:N:9855, V-B:LEU:363:CA:8155, H-B:TYR:531:OH:9766, V-A:ARG:545:CD:4922, V-B:PRO:540:CB:9856, V-B:TYR:539:CD2:9845, V-B:TYR:539:C:9838, V-B:MET:535:CE:9806, V-B:TYR:531:CE2:9764, V-B:PRO:540:CA:9854, V-B:LEU:363:CD1:8159, V-A:ARG:545:CG:4921, V-B:TYR:539:CE2:9847, V-A:ILE:369:CB:3235, V-A:LEU:475:CD2:4258, V-B:ILE:538:CB:9833, V-B:ALA:541:CB:9863, H-B:TYR:539:OH:9849, V-A:ILE:369:CG1:3237, V-B:TYR:539:CZ:9848, V-A:ASP:366:CG:3212, V-B:MET:535:CG:9804, V-A:ILE:369:CG2:3236, V-B:ILE:538:CD1:9836, V-B:TYR:539:CB:9842, V-B:TYR:539:CG:9843, V-B:ILE:538:CG2:9834, V-A:ILE:369:CD1:3238, V-A:HIS:383:CE1:3393, V-B:ILE:538:CA:9831, V-A:GLU:543:CD:4907, V-A:ASP:366:CB:3211, V-A:GLY:454:CA:4048, V-A:SER:385:CA:3406, H-A:TYR:484:OH:4347, H-A:GLY:454:N:4049, V-B:GLU:543:CG:9878, V-A:ASP:366:C:3207, H-B:ALA:541:N:9862, V-B:ILE:538:C:9829, H-A:ASP:366:OD2:3214, V-A:LEU:373:CG:3278, V-A:LEU:373:CD2:3280, V-A:ASP:366:CA:3209, H-A:HIS:383:ND1:3390, V-A:ARG:545:CB:4920, V-B:ILE:538:CG1:9835, V-A:ARG:545:CA:4918"]

$$$$
RR16_Rahimova_2017
     RDKit          3D

 80 85  0  0  0  0  0  0  0  0999 V2000
  129.7750  128.0580   70.0810 O   0  0  0  0  0  0  0  0  0  0  0  0
  129.3890  127.2690   68.9050 S   0  0  0  0  0  0  0  0  0  0  0  0
  129.0360  125.8510   69.0340 O   0  0  0  0  0  0  0  0  0  0  0  0
  130.6920  127.4050   67.7230 N   0  0  0  0  0  0  0  0  0  0  0  0
  131.4780  126.2160   67.3170 C   0  0  0  0  0  0  0  0  0  0  0  0
  130.8510  125.6040   66.0370 C   0  0  0  0  0  0  0  0  0  0  0  0
  131.1900  126.2760   64.6920 C   0  0  0  0  0  0  0  0  0  0  0  0
  132.6620  126.1220   64.2700 C   0  0  0  0  0  0  0  0  0  0  0  0
  133.4990  125.1390   65.1120 C   0  0  0  0  0  0  0  0  0  0  0  0
  133.8770  125.5770   66.5410 C   0  0  0  0  0  0  0  0  0  0  0  0
  132.9650  126.6270   67.2040 C   0  0  0  0  0  0  0  0  0  0  0  0
  128.0070  128.1140   68.1450 C   0  0  0  0  0  0  0  0  0  0  0  0
  126.7040  127.8710   68.5840 C   0  0  0  0  0  0  0  0  0  0  0  0
  125.6310  128.4400   67.9050 C   0  0  0  0  0  0  0  0  0  0  0  0
  125.8650  129.2490   66.7910 C   0  0  0  0  0  0  0  0  0  0  0  0
  124.4840  129.8660   65.8310 S   0  0  0  0  0  0  0  0  0  0  0  0
  124.2720  131.2670   66.2170 O   0  0  0  0  0  0  0  0  0  0  0  0
  123.3930  128.8910   65.9530 O   0  0  0  0  0  0  0  0  0  0  0  0
  125.0690  129.8330   64.1560 N   0  0  0  0  0  0  0  0  0  0  0  0
  123.9970  129.7630   63.1300 C   0  0  0  0  0  0  0  0  0  0  0  0
  124.5930  129.4260   61.7490 C   0  0  0  0  0  0  0  0  0  0  0  0
  125.7360  130.3980   61.3630 C   0  0  0  0  0  0  0  0  0  0  0  0
  126.3730  130.0510   60.0150 C   0  0  0  0  0  0  0  0  0  0  0  0
  125.9500  128.9100   59.3180 C   0  0  0  0  0  0  0  0  0  0  0  0
  126.4970  128.5610   58.0820 C   0  0  0  0  0  0  0  0  0  0  0  0
  126.0680  127.4440   57.4140 O   0  0  0  0  0  0  0  0  0  0  0  0
  127.4930  129.3890   57.5420 C   0  0  0  0  0  0  0  0  0  0  0  0
  128.1830  129.3100   56.3670 N   0  0  0  0  0  0  0  0  0  0  0  0
  129.0280  130.3970   56.3090 N   0  0  0  0  0  0  0  0  0  0  0  0
  128.8900  131.1040   57.4470 N   0  0  0  0  0  0  0  0  0  0  0  0
  129.6070  132.3610   57.6200 C   0  0  0  0  0  0  0  0  0  0  0  0
  131.0170  132.1640   58.1590 C   0  0  0  0  0  0  0  0  0  0  0  0
  132.1010  132.0940   57.2770 C   0  0  0  0  0  0  0  0  0  0  0  0
  133.3970  131.9350   57.7700 C   0  0  0  0  0  0  0  0  0  0  0  0
  133.6160  131.8480   59.1450 C   0  0  0  0  0  0  0  0  0  0  0  0
  132.5400  131.9190   60.0290 C   0  0  0  0  0  0  0  0  0  0  0  0
  132.8080  131.8210   61.7310 Cl  0  0  0  0  0  0  0  0  0  0  0  0
  131.2420  132.0730   59.5370 C   0  0  0  0  0  0  0  0  0  0  0  0
  127.9200  130.5340   58.2550 C   0  0  0  0  0  0  0  0  0  0  0  0
  127.3750  130.8830   59.4950 C   0  0  0  0  0  0  0  0  0  0  0  0
  126.7810  130.5560   62.4980 C   0  0  0  0  0  0  0  0  0  0  0  0
  126.1150  130.8460   63.8580 C   0  0  0  0  0  0  0  0  0  0  0  0
  127.1700  129.5240   66.3780 C   0  0  0  0  0  0  0  0  0  0  0  0
  128.2430  128.9530   67.0540 C   0  0  0  0  0  0  0  0  0  0  0  0
  130.6220  128.1620   67.0380 H   0  0  0  0  0  0  0  0  0  0  0  0
  131.4460  125.4096   68.0645 H   0  0  0  0  0  0  0  0  0  0  0  0
  131.1817  124.5567   65.9755 H   0  0  0  0  0  0  0  0  0  0  0  0
  129.7670  125.7465   66.1581 H   0  0  0  0  0  0  0  0  0  0  0  0
  130.5575  125.8273   63.9118 H   0  0  0  0  0  0  0  0  0  0  0  0
  131.0057  127.3531   64.8184 H   0  0  0  0  0  0  0  0  0  0  0  0
  132.6799  125.7737   63.2268 H   0  0  0  0  0  0  0  0  0  0  0  0
  133.1215  127.1104   64.4180 H   0  0  0  0  0  0  0  0  0  0  0  0
  132.9265  124.2032   65.1937 H   0  0  0  0  0  0  0  0  0  0  0  0
  134.4577  125.0556   64.5791 H   0  0  0  0  0  0  0  0  0  0  0  0
  133.8711  124.6800   67.1777 H   0  0  0  0  0  0  0  0  0  0  0  0
  134.8586  126.0641   66.4452 H   0  0  0  0  0  0  0  0  0  0  0  0
  133.3450  126.8188   68.2183 H   0  0  0  0  0  0  0  0  0  0  0  0
  132.9924  127.5148   66.5552 H   0  0  0  0  0  0  0  0  0  0  0  0
  126.5266  127.2329   69.4623 H   0  0  0  0  0  0  0  0  0  0  0  0
  124.6016  128.2532   68.2447 H   0  0  0  0  0  0  0  0  0  0  0  0
  123.2753  128.9826   63.4131 H   0  0  0  0  0  0  0  0  0  0  0  0
  123.4954  130.7402   63.0722 H   0  0  0  0  0  0  0  0  0  0  0  0
  124.9906  128.4006   61.7734 H   0  0  0  0  0  0  0  0  0  0  0  0
  123.7941  129.5226   60.9990 H   0  0  0  0  0  0  0  0  0  0  0  0
  125.2729  131.3870   61.2310 H   0  0  0  0  0  0  0  0  0  0  0  0
  125.1671  128.2737   59.7565 H   0  0  0  0  0  0  0  0  0  0  0  0
  126.3970  127.3910   56.5130 H   0  0  0  0  0  0  0  0  0  0  0  0
  129.6704  132.8669   56.6453 H   0  0  0  0  0  0  0  0  0  0  0  0
  129.0514  132.9619   58.3550 H   0  0  0  0  0  0  0  0  0  0  0  0
  131.9313  132.1645   56.1924 H   0  0  0  0  0  0  0  0  0  0  0  0
  134.2466  131.8782   57.0736 H   0  0  0  0  0  0  0  0  0  0  0  0
  134.6381  131.7233   59.5320 H   0  0  0  0  0  0  0  0  0  0  0  0
  130.3935  132.1229   60.2353 H   0  0  0  0  0  0  0  0  0  0  0  0
  127.7186  131.7743   60.0404 H   0  0  0  0  0  0  0  0  0  0  0  0
  127.3622  129.6255   62.5781 H   0  0  0  0  0  0  0  0  0  0  0  0
  127.4292  131.4088   62.2477 H   0  0  0  0  0  0  0  0  0  0  0  0
  126.8799  130.8187   64.6480 H   0  0  0  0  0  0  0  0  0  0  0  0
  125.6445  131.8395   63.8173 H   0  0  0  0  0  0  0  0  0  0  0  0
  127.3489  130.1899   65.5210 H   0  0  0  0  0  0  0  0  0  0  0  0
  129.2735  129.1615   66.7305 H   0  0  0  0  0  0  0  0  0  0  0  0
  1  2  2  0
  2  3  2  0
  2  4  1  0
  4  5  1  0
  5  6  1  0
  6  7  1  0
  7  8  1  0
  8  9  1  0
  9 10  1  0
 10 11  1  0
  2 12  1  0
 12 13  2  0
 13 14  1  0
 14 15  2  0
 15 16  1  0
 16 17  2  0
 16 18  2  0
 16 19  1  0
 19 20  1  0
 20 21  1  0
 21 22  1  0
 22 23  1  0
 23 24  2  0
 24 25  1  0
 25 26  1  0
 25 27  2  0
 27 28  1  0
 28 29  2  0
 29 30  1  0
 30 31  1  0
 31 32  1  0
 32 33  2  0
 33 34  1  0
 34 35  2  0
 35 36  1  0
 36 37  1  0
 36 38  2  0
 30 39  1  0
 39 40  2  0
 22 41  1  0
 41 42  1  0
 15 43  1  0
 43 44  2  0
 11  5  1  0
 44 12  1  0
 42 19  1  0
 40 23  1  0
 39 27  1  0
 38 32  1  0
  4 45  1  0
  5 46  1  0
  6 47  1  0
  6 48  1  0
  7 49  1  0
  7 50  1  0
  8 51  1  0
  8 52  1  0
  9 53  1  0
  9 54  1  0
 10 55  1  0
 10 56  1  0
 11 57  1  0
 11 58  1  0
 13 59  1  0
 14 60  1  0
 20 61  1  0
 20 62  1  0
 21 63  1  0
 21 64  1  0
 22 65  1  0
 24 66  1  0
 26 67  1  0
 31 68  1  0
 31 69  1  0
 33 70  1  0
 34 71  1  0
 35 72  1  0
 38 73  1  0
 40 74  1  0
 41 75  1  0
 41 76  1  0
 42 77  1  0
 42 78  1  0
 43 79  1  0
 44 80  1  0
M  END
>  <Binding energies>  (1) 
[-9.68]

>  <Ligand effiencies>  (1) 
[-0.20166666666666666]

>  <Interactions>  (1) 
["V-B:GLU:543:CB:9877, V-A:HIS:456:CE1:4069, V-B:GLU:543:CD:9879, V-B:HIS:456:CE1:9040, V-B:ARG:545:CG:9893, V-B:ASP:366:CG:8183, V-A:ARG:545:CZ:4925, V-A:TYR:484:CZ:4346, H-B:TYR:531:OH:9766, V-A:ARG:545:CD:4922, V-A:ARG:545:CG:4921, V-B:ARG:545:CZ:9897, V-A:GLU:543:CG:4906, V-A:GLY:454:CA:4048, H-B:TYR:484:OH:9318, V-A:ASN:362:C:3171, V-A:TYR:531:CE2:4792, V-A:LEU:363:CA:3184, H-A:TYR:531:OH:4794, V-A:LEU:363:CD1:3188, V-A:PRO:540:CA:4882, V-A:TYR:531:CZ:4793, V-A:TYR:539:CD1:4872, V-A:ASN:362:CB:3175, V-A:PRO:540:CB:4884, V-A:TYR:539:CE1:4874, V-A:LEU:363:CB:3186, H-B:GLY:454:N:9020, H-B:ARG:545:NH2:9899, H-A:GLU:543:OE1:4908, H-B:ARG:545:NE:9895, H-B:ARG:545:NH1:9898, H-B:ILE:455:N:9025"]

$$$$
RR17_Rahimova_2017
     RDKit          3D

 63 66  0  0  0  0  0  0  0  0999 V2000
  129.2190  133.2560   61.7260 C   0  0  0  0  0  0  0  0  0  0  0  0
  130.1660  132.5150   62.6740 C   0  0  0  0  0  0  0  0  0  0  0  0
  131.3870  132.2530   61.9870 O   0  0  0  0  0  0  0  0  0  0  0  0
  131.4430  131.2130   61.0770 C   0  0  0  0  0  0  0  0  0  0  0  0
  130.6210  130.1170   61.3340 C   0  0  0  0  0  0  0  0  0  0  0  0
  130.6100  129.0220   60.4760 C   0  0  0  0  0  0  0  0  0  0  0  0
  131.4270  129.0010   59.3360 C   0  0  0  0  0  0  0  0  0  0  0  0
  131.3930  127.8070   58.4270 C   0  0  0  0  0  0  0  0  0  0  0  0
  132.2680  127.5930   57.5830 O   0  0  0  0  0  0  0  0  0  0  0  0
  130.1920  126.8450   58.5770 C   0  0  0  0  0  0  0  0  0  0  0  0
  130.4900  125.2390   57.7560 S   0  0  0  0  0  0  0  0  0  0  0  0
  131.8560  124.6530   58.7180 C   0  0  0  0  0  0  0  0  0  0  0  0
  133.1200  124.7390   58.3760 N   0  0  0  0  0  0  0  0  0  0  0  0
  133.8770  124.1760   59.3960 N   0  0  0  0  0  0  0  0  0  0  0  0
  133.0410  123.7730   60.3190 C   0  0  0  0  0  0  0  0  0  0  0  0
  133.4510  123.1060   61.6230 C   0  0  0  0  0  0  0  0  0  0  0  0
  133.9540  121.7440   61.4570 N   0  0  0  0  0  0  0  0  0  0  0  0
  133.1280  120.6290   61.2290 C   0  0  0  0  0  0  0  0  0  0  0  0
  131.8310  120.6760   61.7390 C   0  0  0  0  0  0  0  0  0  0  0  0
  130.9630  119.6040   61.5550 C   0  0  0  0  0  0  0  0  0  0  0  0
  131.3820  118.4700   60.8520 C   0  0  0  0  0  0  0  0  0  0  0  0
  130.4190  117.2990   60.6640 C   0  0  0  0  0  0  0  0  0  0  0  0
  130.4210  116.8390   59.4110 F   0  0  0  0  0  0  0  0  0  0  0  0
  130.7480  116.2910   61.4730 F   0  0  0  0  0  0  0  0  0  0  0  0
  129.1820  117.6990   60.9610 F   0  0  0  0  0  0  0  0  0  0  0  0
  132.6800  118.4250   60.3330 C   0  0  0  0  0  0  0  0  0  0  0  0
  133.5470  119.4970   60.5170 C   0  0  0  0  0  0  0  0  0  0  0  0
  131.7380  124.0350   59.9470 N   0  0  0  0  0  0  0  0  0  0  0  0
  130.5660  123.7630   60.6690 C   0  0  0  0  0  0  0  0  0  0  0  0
  130.3110  124.4580   61.8510 C   0  0  0  0  0  0  0  0  0  0  0  0
  129.1500  124.1860   62.5690 C   0  0  0  0  0  0  0  0  0  0  0  0
  128.2420  123.2190   62.1070 C   0  0  0  0  0  0  0  0  0  0  0  0
  127.0670  122.8850   62.7520 O   0  0  0  0  0  0  0  0  0  0  0  0
  125.9780  123.8020   62.7330 C   0  0  0  0  0  0  0  0  0  0  0  0
  128.5160  122.5320   60.9230 C   0  0  0  0  0  0  0  0  0  0  0  0
  129.6740  122.8000   60.1990 C   0  0  0  0  0  0  0  0  0  0  0  0
  132.2530  130.1050   59.0780 C   0  0  0  0  0  0  0  0  0  0  0  0
  132.2610  131.2000   59.9390 C   0  0  0  0  0  0  0  0  0  0  0  0
  128.4866  133.8291   62.3134 H   0  0  0  0  0  0  0  0  0  0  0  0
  129.7985  133.9429   61.0918 H   0  0  0  0  0  0  0  0  0  0  0  0
  128.6916  132.5283   61.0918 H   0  0  0  0  0  0  0  0  0  0  0  0
  130.3653  133.1370   63.5591 H   0  0  0  0  0  0  0  0  0  0  0  0
  129.7077  131.5690   62.9981 H   0  0  0  0  0  0  0  0  0  0  0  0
  129.9746  130.1179   62.2240 H   0  0  0  0  0  0  0  0  0  0  0  0
  129.9551  128.1654   60.6934 H   0  0  0  0  0  0  0  0  0  0  0  0
  130.0111  126.6679   59.6475 H   0  0  0  0  0  0  0  0  0  0  0  0
  129.3205  127.3141   58.0970 H   0  0  0  0  0  0  0  0  0  0  0  0
  134.2411  123.7129   62.0894 H   0  0  0  0  0  0  0  0  0  0  0  0
  132.5472  123.0396   62.2465 H   0  0  0  0  0  0  0  0  0  0  0  0
  134.9120  121.5690   61.7200 H   0  0  0  0  0  0  0  0  0  0  0  0
  131.4920  121.5657   62.2900 H   0  0  0  0  0  0  0  0  0  0  0  0
  129.9429  119.6488   61.9643 H   0  0  0  0  0  0  0  0  0  0  0  0
  133.0167  117.5378   59.7767 H   0  0  0  0  0  0  0  0  0  0  0  0
  134.5650  119.4561   60.1022 H   0  0  0  0  0  0  0  0  0  0  0  0
  131.0219  125.2153   62.2130 H   0  0  0  0  0  0  0  0  0  0  0  0
  128.9427  124.7305   63.5020 H   0  0  0  0  0  0  0  0  0  0  0  0
  125.6870  124.0471   63.7651 H   0  0  0  0  0  0  0  0  0  0  0  0
  126.2814  124.7207   62.2096 H   0  0  0  0  0  0  0  0  0  0  0  0
  125.1243  123.3467   62.2096 H   0  0  0  0  0  0  0  0  0  0  0  0
  127.8097  121.7714   60.5587 H   0  0  0  0  0  0  0  0  0  0  0  0
  129.8834  122.2575   59.2653 H   0  0  0  0  0  0  0  0  0  0  0  0
  132.8999  130.1061   58.1883 H   0  0  0  0  0  0  0  0  0  0  0  0
  132.9131  132.0595   59.7245 H   0  0  0  0  0  0  0  0  0  0  0  0
  1  2  1  0
  2  3  1  0
  3  4  1  0
  4  5  2  0
  5  6  1  0
  6  7  2  0
  7  8  1  0
  8  9  2  0
  8 10  1  0
 10 11  1  0
 11 12  1  0
 12 13  2  0
 13 14  1  0
 14 15  2  0
 15 16  1  0
 16 17  1  0
 17 18  1  0
 18 19  2  0
 19 20  1  0
 20 21  2  0
 21 22  1  0
 22 23  1  0
 22 24  1  0
 22 25  1  0
 21 26  1  0
 26 27  2  0
 15 28  1  0
 28 29  1  0
 29 30  2  0
 30 31  1  0
 31 32  2  0
 32 33  1  0
 33 34  1  0
 32 35  1  0
 35 36  2  0
  7 37  1  0
 37 38  2  0
 38  4  1  0
 28 12  1  0
 36 29  1  0
 27 18  1  0
  1 39  1  0
  1 40  1  0
  1 41  1  0
  2 42  1  0
  2 43  1  0
  5 44  1  0
  6 45  1  0
 10 46  1  0
 10 47  1  0
 16 48  1  0
 16 49  1  0
 17 50  1  0
 19 51  1  0
 20 52  1  0
 26 53  1  0
 27 54  1  0
 30 55  1  0
 31 56  1  0
 34 57  1  0
 34 58  1  0
 34 59  1  0
 35 60  1  0
 36 61  1  0
 37 62  1  0
 38 63  1  0
M  END
>  <Binding energies>  (1) 
[-9.16]

>  <Ligand effiencies>  (1) 
[-0.23487179487179488]

>  <Interactions>  (1) 
["V-B:GLU:543:CD:9879, V-B:TYR:539:CD2:9845, V-B:TYR:539:C:9838, V-B:PRO:540:CA:9854, V-B:TYR:539:CE2:9847, V-A:LEU:475:CD2:4258, V-A:PRO:482:CG:4326, V-B:ALA:541:CB:9863, H-B:TYR:539:OH:9849, V-B:TYR:539:CZ:9848, V-A:ASP:366:CG:3212, V-A:SER:385:CB:3408, V-B:VAL:344:CG1:7971, V-B:TYR:539:CA:9840, V-A:ILE:369:CG2:3236, V-B:TYR:539:CB:9842, V-B:TYR:539:CG:9843, V-A:ILE:369:CD1:3238, V-A:HIS:383:CE1:3393, V-A:PRO:482:CB:4325, V-A:GLU:543:CD:4907, V-A:ASP:366:CB:3211, V-A:SER:385:CA:3406, H-A:TYR:531:OH:4794, V-A:PRO:540:CA:4882, H-B:ALA:541:N:9862, H-A:ALA:541:N:4890, V-A:ALA:541:CB:4891, V-A:ALA:541:CA:4889, V-B:PRO:540:C:9852, H-A:SER:385:O:3405"]

$$$$
RR18_Rahimova_2017
     RDKit          3D

 56 61  0  0  0  0  0  0  0  0999 V2000
  129.7820  127.7330   59.8130 C   0  0  0  0  0  0  0  0  0  0  0  0
  129.6990  128.0060   61.2930 C   0  0  0  0  0  0  0  0  0  0  0  0
  129.9000  127.2400   62.4300 C   0  0  0  0  0  0  0  0  0  0  0  0
  129.6660  128.0720   63.5240 C   0  0  0  0  0  0  0  0  0  0  0  0
  129.3310  129.3170   63.0170 C   0  0  0  0  0  0  0  0  0  0  0  0
  128.9710  130.6570   63.6540 C   0  0  1  0  0  0  0  0  0  0  0  0
  128.8400  131.7820   62.5840 C   0  0  0  0  0  0  0  0  0  0  0  0
  130.0040  132.2070   61.8130 C   0  0  0  0  0  0  0  0  0  0  0  0
  130.8470  132.9760   62.2790 O   0  0  0  0  0  0  0  0  0  0  0  0
  130.0720  131.6720   60.5720 N   0  0  0  0  0  0  0  0  0  0  0  0
  131.0250  131.8620   59.5470 C   0  0  0  0  0  0  0  0  0  0  0  0
  130.7360  132.5070   58.3310 C   0  0  0  0  0  0  0  0  0  0  0  0
  131.7220  132.6570   57.3560 C   0  0  0  0  0  0  0  0  0  0  0  0
  133.0030  132.1610   57.5770 C   0  0  0  0  0  0  0  0  0  0  0  0
  133.3000  131.5100   58.7720 C   0  0  0  0  0  0  0  0  0  0  0  0
  132.3220  131.3530   59.7590 C   0  0  0  0  0  0  0  0  0  0  0  0
  132.6970  130.6280   61.0490 C   0  0  0  0  0  0  0  0  0  0  0  0
  127.6040  132.2790   62.3160 C   0  0  0  0  0  0  0  0  0  0  0  0
  126.4710  131.9550   62.9990 N   0  0  0  0  0  0  0  0  0  0  0  0
  126.5490  131.1870   64.0220 C   0  0  0  0  0  0  0  0  0  0  0  0
  125.2120  130.8050   65.0810 S   0  0  0  0  0  0  0  0  0  0  0  0
  126.2600  129.7940   66.1250 C   0  0  0  0  0  0  0  0  0  0  0  0
  125.8880  129.1050   67.2600 C   0  0  0  0  0  0  0  0  0  0  0  0
  124.5180  129.2180   67.7810 C   0  0  0  0  0  0  0  0  0  0  0  0
  123.5540  129.8470   67.3450 O   0  0  0  0  0  0  0  0  0  0  0  0
  124.4580  128.4960   68.9040 N   0  0  0  0  0  0  0  0  0  0  0  0
  125.6310  127.8680   69.1950 C   0  0  0  0  0  0  0  0  0  0  0  0
  125.9070  127.0320   70.2770 C   0  0  0  0  0  0  0  0  0  0  0  0
  127.1720  126.4590   70.3770 C   0  0  0  0  0  0  0  0  0  0  0  0
  128.1280  126.7220   69.3980 C   0  0  0  0  0  0  0  0  0  0  0  0
  127.8270  127.5640   68.3240 C   0  0  0  0  0  0  0  0  0  0  0  0
  126.5620  128.1720   68.2170 C   0  0  0  0  0  0  0  0  0  0  0  0
  127.6150  129.8290   65.5750 C   0  0  0  0  0  0  0  0  0  0  0  0
  128.6110  129.2960   66.0540 O   0  0  0  0  0  0  0  0  0  0  0  0
  127.6850  130.5650   64.4330 N   0  0  0  0  0  0  0  0  0  0  0  0
  129.3520  129.2680   61.6580 O   0  0  0  0  0  0  0  0  0  0  0  0
  130.0984  126.6923   59.6493 H   0  0  0  0  0  0  0  0  0  0  0  0
  128.7948  127.8925   59.3548 H   0  0  0  0  0  0  0  0  0  0  0  0
  130.5134  128.4150   59.3548 H   0  0  0  0  0  0  0  0  0  0  0  0
  130.1888  126.1791   62.4631 H   0  0  0  0  0  0  0  0  0  0  0  0
  129.7343  127.7934   64.5859 H   0  0  0  0  0  0  0  0  0  0  0  0
  129.7922  130.9105   64.3405 H   0  0  0  0  0  0  0  0  0  0  0  0
  129.3620  130.9920   60.3470 H   0  0  0  0  0  0  0  0  0  0  0  0
  129.7238  132.8964   58.1474 H   0  0  0  0  0  0  0  0  0  0  0  0
  131.4865  133.1682   56.4109 H   0  0  0  0  0  0  0  0  0  0  0  0
  133.7806  132.2829   56.8086 H   0  0  0  0  0  0  0  0  0  0  0  0
  134.3130  131.1158   58.9408 H   0  0  0  0  0  0  0  0  0  0  0  0
  132.3844  131.2323   61.9134 H   0  0  0  0  0  0  0  0  0  0  0  0
  132.1906  129.6520   61.0816 H   0  0  0  0  0  0  0  0  0  0  0  0
  133.7861  130.4773   61.0816 H   0  0  0  0  0  0  0  0  0  0  0  0
  127.5117  132.9956   61.4866 H   0  0  0  0  0  0  0  0  0  0  0  0
  123.6200  128.4120   69.4620 H   0  0  0  0  0  0  0  0  0  0  0  0
  125.1388  126.8290   71.0378 H   0  0  0  0  0  0  0  0  0  0  0  0
  127.4155  125.8018   71.2248 H   0  0  0  0  0  0  0  0  0  0  0  0
  129.1255  126.2642   69.4709 H   0  0  0  0  0  0  0  0  0  0  0  0
  128.5880  127.7540   67.5528 H   0  0  0  0  0  0  0  0  0  0  0  0
  1  2  1  0
  2  3  2  0
  3  4  1  0
  4  5  2  0
  5  6  1  0
  6  7  1  0
  7  8  1  0
  8  9  2  0
  8 10  1  0
 10 11  1  0
 11 12  2  0
 12 13  1  0
 13 14  2  0
 14 15  1  0
 15 16  2  0
 16 17  1  0
  7 18  2  0
 18 19  1  0
 19 20  2  0
 20 21  1  0
 21 22  1  0
 22 23  2  0
 23 24  1  0
 24 25  2  0
 24 26  1  0
 26 27  1  0
 27 28  2  0
 28 29  1  0
 29 30  2  0
 30 31  1  0
 31 32  2  0
 22 33  1  0
 33 34  2  0
 33 35  1  0
  5 36  1  0
 36  2  1  0
 35  6  1  0
 16 11  1  0
 35 20  1  0
 32 23  1  0
 32 27  1  0
  1 37  1  0
  1 38  1  0
  1 39  1  0
  3 40  1  0
  4 41  1  0
  6 42  1  1
 10 43  1  0
 12 44  1  0
 13 45  1  0
 14 46  1  0
 15 47  1  0
 17 48  1  0
 17 49  1  0
 17 50  1  0
 18 51  1  0
 26 52  1  0
 28 53  1  0
 29 54  1  0
 30 55  1  0
 31 56  1  0
M  END
>  <Binding energies>  (1) 
[-9.41]

>  <Ligand effiencies>  (1) 
[-0.24763157894736842]

>  <Interactions>  (1) 
["V-B:GLU:543:CB:9877, V-B:GLU:543:C:9873, V-B:GLY:544:C:9883, V-B:ARG:545:CA:9890, V-B:ARG:545:CD:9894, V-B:GLU:543:CD:9879, V-B:HIS:456:CE1:9040, V-B:ARG:545:CG:9893, V-B:ARG:545:CB:9892, V-B:GLU:543:CA:9875, V-B:GLY:454:CA:9019, V-A:ASP:366:CG:3212, V-A:GLU:543:CD:4907, V-A:GLU:543:CG:4906, H-B:TYR:484:OH:9318, V-A:TYR:531:CE2:4792, V-A:LEU:363:CA:3184, V-A:LEU:363:CD1:3188, V-A:PRO:540:CA:4882, V-A:TYR:531:CZ:4793, V-A:PRO:540:N:4883, V-A:PRO:540:CB:4884, V-A:TYR:539:C:4866, H-A:ALA:541:N:4890, H-B:GLY:454:N:9020, V-B:TYR:484:CZ:9317, H-B:ILE:455:O:9023, H-B:ILE:455:N:9025"]

$$$$
RR19_Rahimova_2017
     RDKit          3D

 72 77  0  0  0  0  0  0  0  0999 V2000
  128.8930  128.2000   56.5980 O   0  0  0  0  0  0  0  0  0  0  0  0
  129.3030  128.3990   57.7450 C   0  0  0  0  0  0  0  0  0  0  0  0
  130.0800  127.5560   58.4720 N   0  0  0  0  0  0  0  0  0  0  0  0
  130.7940  126.4290   58.1480 C   0  0  0  0  0  0  0  0  0  0  0  0
  131.1050  125.8760   56.5780 S   0  0  0  0  0  0  0  0  0  0  0  0
  131.2150  125.8270   59.3080 N   0  0  0  0  0  0  0  0  0  0  0  0
  132.0530  124.7900   59.5600 C   0  0  0  0  0  0  0  0  0  0  0  0
  132.8020  124.2410   58.7490 O   0  0  0  0  0  0  0  0  0  0  0  0
  132.0000  124.2810   61.0220 C   0  0  2  0  0  0  0  0  0  0  0  0
  133.1070  124.8550   61.9540 C   0  0  0  0  0  0  0  0  0  0  0  0
  132.6340  125.2840   63.3330 C   0  0  0  0  0  0  0  0  0  0  0  0
  133.5400  125.3810   64.4120 C   0  0  0  0  0  0  0  0  0  0  0  0
  133.1060  125.8500   65.6440 C   0  0  0  0  0  0  0  0  0  0  0  0
  131.7840  126.2440   65.8180 C   0  0  0  0  0  0  0  0  0  0  0  0
  130.8890  126.1820   64.7570 C   0  0  0  0  0  0  0  0  0  0  0  0
  131.3040  125.7180   63.5170 C   0  0  0  0  0  0  0  0  0  0  0  0
  131.9580  122.7940   61.0750 N   0  0  0  0  0  0  0  0  0  0  0  0
  130.7860  122.1250   61.2760 C   0  0  0  0  0  0  0  0  0  0  0  0
  129.6700  122.6130   61.4600 O   0  0  0  0  0  0  0  0  0  0  0  0
  131.1380  120.6850   61.2200 C   0  0  0  0  0  0  0  0  0  0  0  0
  130.3470  119.5440   61.3630 C   0  0  0  0  0  0  0  0  0  0  0  0
  130.9560  118.2890   61.2540 C   0  0  0  0  0  0  0  0  0  0  0  0
  132.3320  118.1900   61.0050 C   0  0  0  0  0  0  0  0  0  0  0  0
  133.1070  119.3470   60.8640 C   0  0  0  0  0  0  0  0  0  0  0  0
  132.4810  120.5890   60.9780 C   0  0  0  0  0  0  0  0  0  0  0  0
  133.0250  121.9650   60.8700 C   0  0  0  0  0  0  0  0  0  0  0  0
  134.1900  122.2870   60.6350 O   0  0  0  0  0  0  0  0  0  0  0  0
  128.9150  129.7100   58.4790 C   0  0  2  0  0  0  0  0  0  0  0  0
  128.2280  130.7660   57.5650 C   0  0  0  0  0  0  0  0  0  0  0  0
  129.1940  131.7380   56.9130 C   0  0  0  0  0  0  0  0  0  0  0  0
  129.8100  132.7480   57.6840 C   0  0  0  0  0  0  0  0  0  0  0  0
  130.7690  133.5720   57.1090 C   0  0  0  0  0  0  0  0  0  0  0  0
  131.1470  133.3890   55.7850 C   0  0  0  0  0  0  0  0  0  0  0  0
  130.5780  132.3740   55.0260 C   0  0  0  0  0  0  0  0  0  0  0  0
  129.6160  131.5400   55.5810 C   0  0  0  0  0  0  0  0  0  0  0  0
  130.0390  130.3090   59.2550 N   0  0  0  0  0  0  0  0  0  0  0  0
  129.8210  131.0660   60.3660 C   0  0  0  0  0  0  0  0  0  0  0  0
  128.7340  131.3700   60.8600 O   0  0  0  0  0  0  0  0  0  0  0  0
  131.1690  131.4460   60.8540 C   0  0  0  0  0  0  0  0  0  0  0  0
  131.5610  132.2190   61.9490 C   0  0  0  0  0  0  0  0  0  0  0  0
  132.9280  132.4140   62.1760 C   0  0  0  0  0  0  0  0  0  0  0  0
  133.8760  131.8390   61.3180 C   0  0  0  0  0  0  0  0  0  0  0  0
  133.4630  131.0650   60.2280 C   0  0  0  0  0  0  0  0  0  0  0  0
  132.0940  130.8840   60.0180 C   0  0  0  0  0  0  0  0  0  0  0  0
  131.3640  130.1300   58.9710 C   0  0  0  0  0  0  0  0  0  0  0  0
  131.8480  129.4800   58.0440 O   0  0  0  0  0  0  0  0  0  0  0  0
  130.2400  127.8760   59.4160 H   0  0  0  0  0  0  0  0  0  0  0  0
  130.7360  126.1600   60.1320 H   0  0  0  0  0  0  0  0  0  0  0  0
  131.0579  124.6773   61.4287 H   0  0  0  0  0  0  0  0  0  0  0  0
  133.8774  124.0807   62.0842 H   0  0  0  0  0  0  0  0  0  0  0  0
  133.4782  125.7660   61.4617 H   0  0  0  0  0  0  0  0  0  0  0  0
  134.5905  125.0846   64.2758 H   0  0  0  0  0  0  0  0  0  0  0  0
  133.8109  125.9103   66.4863 H   0  0  0  0  0  0  0  0  0  0  0  0
  131.4452  126.6063   66.7998 H   0  0  0  0  0  0  0  0  0  0  0  0
  129.8465  126.5023   64.9008 H   0  0  0  0  0  0  0  0  0  0  0  0
  130.5953  125.6884   62.6763 H   0  0  0  0  0  0  0  0  0  0  0  0
  129.2677  119.6296   61.5573 H   0  0  0  0  0  0  0  0  0  0  0  0
  130.3524  117.3760   61.3642 H   0  0  0  0  0  0  0  0  0  0  0  0
  132.8041  117.2001   60.9202 H   0  0  0  0  0  0  0  0  0  0  0  0
  134.1871  119.2787   60.6674 H   0  0  0  0  0  0  0  0  0  0  0  0
  128.1554  129.3922   59.2084 H   0  0  0  0  0  0  0  0  0  0  0  0
  127.6831  130.2344   56.7709 H   0  0  0  0  0  0  0  0  0  0  0  0
  127.5633  131.3607   58.2088 H   0  0  0  0  0  0  0  0  0  0  0  0
  129.5305  132.8821   58.7394 H   0  0  0  0  0  0  0  0  0  0  0  0
  131.2311  134.3730   57.7047 H   0  0  0  0  0  0  0  0  0  0  0  0
  131.9011  134.0514   55.3349 H   0  0  0  0  0  0  0  0  0  0  0  0
  130.8907  132.2303   53.9812 H   0  0  0  0  0  0  0  0  0  0  0  0
  129.1830  130.7251   54.9823 H   0  0  0  0  0  0  0  0  0  0  0  0
  130.8111  132.6651   62.6188 H   0  0  0  0  0  0  0  0  0  0  0  0
  133.2601  133.0209   63.0312 H   0  0  0  0  0  0  0  0  0  0  0  0
  134.9489  131.9970   61.5025 H   0  0  0  0  0  0  0  0  0  0  0  0
  134.2005  130.6089   59.5511 H   0  0  0  0  0  0  0  0  0  0  0  0
  1  2  2  0
  2  3  1  0
  3  4  1  0
  4  5  2  0
  4  6  1  0
  6  7  1  0
  7  8  2  0
  7  9  1  0
  9 10  1  0
 10 11  1  0
 11 12  2  0
 12 13  1  0
 13 14  2  0
 14 15  1  0
 15 16  2  0
  9 17  1  0
 17 18  1  0
 18 19  2  0
 18 20  1  0
 20 21  2  0
 21 22  1  0
 22 23  2  0
 23 24  1  0
 24 25  2  0
 25 26  1  0
 26 27  2  0
  2 28  1  0
 28 29  1  0
 29 30  1  0
 30 31  2  0
 31 32  1  0
 32 33  2  0
 33 34  1  0
 34 35  2  0
 28 36  1  0
 36 37  1  0
 37 38  2  0
 37 39  1  0
 39 40  2  0
 40 41  1  0
 41 42  2  0
 42 43  1  0
 43 44  2  0
 44 45  1  0
 45 46  2  0
 16 11  1  0
 26 17  1  0
 35 30  1  0
 45 36  1  0
 25 20  1  0
 44 39  1  0
  3 47  1  0
  6 48  1  0
  9 49  1  1
 10 50  1  0
 10 51  1  0
 12 52  1  0
 13 53  1  0
 14 54  1  0
 15 55  1  0
 16 56  1  0
 21 57  1  0
 22 58  1  0
 23 59  1  0
 24 60  1  0
 28 61  1  1
 29 62  1  0
 29 63  1  0
 31 64  1  0
 32 65  1  0
 33 66  1  0
 34 67  1  0
 35 68  1  0
 40 69  1  0
 41 70  1  0
 42 71  1  0
 43 72  1  0
M  END
>  <Binding energies>  (1) 
[-11.84]

>  <Ligand effiencies>  (1) 
[-0.24666666666666667]

>  <Interactions>  (1) 
["V-A:ARG:545:CZ:4925, V-B:TYR:539:CD2:9845, V-B:TYR:539:C:9838, V-B:MET:535:CE:9806, V-B:TYR:539:CE2:9847, V-A:LEU:475:CD2:4258, V-B:ALA:541:CB:9863, H-B:TYR:539:OH:9849, V-B:TYR:539:CZ:9848, V-A:ASP:366:CG:3212, V-A:SER:385:CB:3408, V-A:ILE:369:CG2:3236, V-A:ILE:369:CD1:3238, V-A:ASP:366:CB:3211, V-A:SER:385:CA:3406, V-A:ASN:362:C:3171, V-A:TYR:531:CE2:4792, V-A:PRO:540:C:4880, V-A:LEU:363:CA:3184, V-A:ASN:362:CA:3173, H-A:TYR:531:OH:4794, V-A:PRO:540:CA:4882, V-A:TYR:531:CZ:4793, V-A:TYR:539:CD1:4872, V-A:PRO:540:CD:4886, V-A:ASN:362:CB:3175, V-A:ILE:538:CG2:4862, V-A:PRO:540:N:4883, V-A:PRO:540:CB:4884, V-A:TYR:539:C:4866, V-A:TYR:539:CE1:4874, V-A:MET:535:CG:4832, V-A:ILE:538:CB:4861, V-A:ILE:538:CA:4859, V-A:MET:535:CE:4834, H-A:ASP:366:OD2:3214, V-A:TYR:539:CA:4868"]

$$$$
RR19_Rahimova_2017-again1
     RDKit          3D

 71 76  0  0  0  0  0  0  0  0999 V2000
  132.2980  128.3290   76.3930 O   0  0  0  0  0  0  0  0  0  0  0  0
  131.4670  127.7120   75.7220 C   0  0  0  0  0  0  0  0  0  0  0  0
  131.5790  126.4260   75.3100 N   0  0  0  0  0  0  0  0  0  0  0  0
  132.4760  125.4350   75.5940 C   0  0  0  0  0  0  0  0  0  0  0  0
  133.8880  125.4770   76.5050 S   0  0  0  0  0  0  0  0  0  0  0  0
  131.9700  124.2730   75.0390 N   0  0  0  0  0  0  0  0  0  0  0  0
  130.7510  123.8410   75.0170 C   0  0  0  0  0  0  0  0  0  0  0  0
  129.6960  124.3780   75.4070 O   0  0  0  0  0  0  0  0  0  0  0  0
  130.5590  122.4060   74.4210 C   0  0  2  0  0  0  0  0  0  0  0  0
  129.5650  122.4180   73.2120 C   0  0  0  0  0  0  0  0  0  0  0  0
  128.2950  121.5980   73.4270 C   0  0  0  0  0  0  0  0  0  0  0  0
  128.1730  120.3360   72.8410 C   0  0  0  0  0  0  0  0  0  0  0  0
  127.0220  119.5810   73.0480 C   0  0  0  0  0  0  0  0  0  0  0  0
  125.9940  120.0920   73.8390 C   0  0  0  0  0  0  0  0  0  0  0  0
  126.1080  121.3530   74.4230 C   0  0  0  0  0  0  0  0  0  0  0  0
  127.2580  122.1080   74.2140 C   0  0  0  0  0  0  0  0  0  0  0  0
  130.2700  121.3590   75.4560 N   0  0  0  0  0  0  0  0  0  0  0  0
  130.8050  120.1080   75.3760 C   0  0  0  0  0  0  0  0  0  0  0  0
  131.5470  119.6670   74.4980 O   0  0  0  0  0  0  0  0  0  0  0  0
  130.3020  119.3870   76.5740 C   0  0  0  0  0  0  0  0  0  0  0  0
  130.5180  118.0790   77.0100 C   0  0  0  0  0  0  0  0  0  0  0  0
  129.9060  117.6610   78.1970 C   0  0  0  0  0  0  0  0  0  0  0  0
  129.0990  118.5440   78.9260 C   0  0  0  0  0  0  0  0  0  0  0  0
  128.8960  119.8510   78.4720 C   0  0  0  0  0  0  0  0  0  0  0  0
  129.5130  120.2490   77.2840 C   0  0  0  0  0  0  0  0  0  0  0  0
  129.4890  121.5450   76.5650 C   0  0  0  0  0  0  0  0  0  0  0  0
  128.8920  122.5670   76.8980 O   0  0  0  0  0  0  0  0  0  0  0  0
  130.1550  128.4230   75.2770 C   0  0  2  0  0  0  0  0  0  0  0  0
  128.9240  128.0780   76.1630 C   0  0  0  0  0  0  0  0  0  0  0  0
  127.8630  129.1630   76.1950 C   0  0  0  0  0  0  0  0  0  0  0  0
  126.4980  128.8160   76.2700 C   0  0  0  0  0  0  0  0  0  0  0  0
  125.5340  129.8080   76.3990 C   0  0  0  0  0  0  0  0  0  0  0  0
  125.9110  131.1430   76.4840 C   0  0  0  0  0  0  0  0  0  0  0  0
  127.2540  131.4970   76.4500 C   0  0  0  0  0  0  0  0  0  0  0  0
  128.2320  130.5200   76.3210 C   0  0  0  0  0  0  0  0  0  0  0  0
  129.8530  128.2870   73.8190 N   0  0  0  0  0  0  0  0  0  0  0  0
  129.1730  127.2120   73.3280 C   0  0  0  0  0  0  0  0  0  0  0  0
  128.8010  126.2160   73.9490 O   0  0  0  0  0  0  0  0  0  0  0  0
  128.9680  127.5000   71.8870 C   0  0  0  0  0  0  0  0  0  0  0  0
  128.3250  126.7640   70.8910 C   0  0  0  0  0  0  0  0  0  0  0  0
  128.2620  127.2980   69.5990 C   0  0  0  0  0  0  0  0  0  0  0  0
  128.8380  128.5450   69.3220 C   0  0  0  0  0  0  0  0  0  0  0  0
  129.4810  129.2670   70.3340 C   0  0  0  0  0  0  0  0  0  0  0  0
  129.5300  128.7180   71.6160 C   0  0  0  0  0  0  0  0  0  0  0  0
  130.1040  129.2450   72.8780 C   0  0  0  0  0  0  0  0  0  0  0  0
  130.6740  130.3240   73.0430 O   0  0  0  0  0  0  0  0  0  0  0  0
  130.8020  126.1090   74.7500 H   0  0  0  0  0  0  0  0  0  0  0  0
  131.5306  122.0941   74.0102 H   0  0  0  0  0  0  0  0  0  0  0  0
  129.2720  123.4605   73.0187 H   0  0  0  0  0  0  0  0  0  0  0  0
  130.0958  121.9560   72.3666 H   0  0  0  0  0  0  0  0  0  0  0  0
  128.9864  119.9388   72.2160 H   0  0  0  0  0  0  0  0  0  0  0  0
  126.9240  118.5859   72.5896 H   0  0  0  0  0  0  0  0  0  0  0  0
  125.0849  119.4951   74.0039 H   0  0  0  0  0  0  0  0  0  0  0  0
  125.2926  121.7491   75.0461 H   0  0  0  0  0  0  0  0  0  0  0  0
  127.3512  123.1057   74.6678 H   0  0  0  0  0  0  0  0  0  0  0  0
  131.1550  117.3920   76.4335 H   0  0  0  0  0  0  0  0  0  0  0  0
  130.0594  116.6338   78.5595 H   0  0  0  0  0  0  0  0  0  0  0  0
  128.6232  118.2080   79.8591 H   0  0  0  0  0  0  0  0  0  0  0  0
  128.2639  120.5506   79.0385 H   0  0  0  0  0  0  0  0  0  0  0  0
  130.3643  129.4901   75.4431 H   0  0  0  0  0  0  0  0  0  0  0  0
  128.4652  127.1569   75.7742 H   0  0  0  0  0  0  0  0  0  0  0  0
  129.2945  127.9647   77.1925 H   0  0  0  0  0  0  0  0  0  0  0  0
  126.1965  127.7590   76.2263 H   0  0  0  0  0  0  0  0  0  0  0  0
  124.4688  129.5359   76.4340 H   0  0  0  0  0  0  0  0  0  0  0  0
  125.1418  131.9236   76.5787 H   0  0  0  0  0  0  0  0  0  0  0  0
  127.5436  132.5555   76.5256 H   0  0  0  0  0  0  0  0  0  0  0  0
  129.2949  130.8033   76.3170 H   0  0  0  0  0  0  0  0  0  0  0  0
  127.8772  125.7849   71.1166 H   0  0  0  0  0  0  0  0  0  0  0  0
  127.7585  126.7368   68.7980 H   0  0  0  0  0  0  0  0  0  0  0  0
  128.7845  128.9585   68.3041 H   0  0  0  0  0  0  0  0  0  0  0  0
  129.9376  130.2454   70.1235 H   0  0  0  0  0  0  0  0  0  0  0  0
  1  2  2  0
  2  3  1  0
  3  4  1  0
  4  5  2  0
  4  6  1  0
  6  7  2  0
  7  8  1  0
  7  9  1  0
  9 10  1  0
 10 11  1  0
 11 12  2  0
 12 13  1  0
 13 14  2  0
 14 15  1  0
 15 16  2  0
  9 17  1  0
 17 18  1  0
 18 19  2  0
 18 20  1  0
 20 21  2  0
 21 22  1  0
 22 23  2  0
 23 24  1  0
 24 25  2  0
 25 26  1  0
 26 27  2  0
  2 28  1  0
 28 29  1  0
 29 30  1  0
 30 31  2  0
 31 32  1  0
 32 33  2  0
 33 34  1  0
 34 35  2  0
 28 36  1  0
 36 37  1  0
 37 38  2  0
 37 39  1  0
 39 40  2  0
 40 41  1  0
 41 42  2  0
 42 43  1  0
 43 44  2  0
 44 45  1  0
 45 46  2  0
 16 11  1  0
 26 17  1  0
 35 30  1  0
 45 36  1  0
 25 20  1  0
 44 39  1  0
  3 47  1  0
  9 48  1  6
 10 49  1  0
 10 50  1  0
 12 51  1  0
 13 52  1  0
 14 53  1  0
 15 54  1  0
 16 55  1  0
 21 56  1  0
 22 57  1  0
 23 58  1  0
 24 59  1  0
 28 60  1  6
 29 61  1  0
 29 62  1  0
 31 63  1  0
 32 64  1  0
 33 65  1  0
 34 66  1  0
 35 67  1  0
 40 68  1  0
 41 69  1  0
 42 70  1  0
 43 71  1  0
M  CHG  1   8  -1
M  END
>  <Binding energies>  (1) 
[-10.87]

>  <Ligand effiencies>  (1) 
[-0.23127659574468085]

>  <Interactions>  (1) 
["V-B:GLU:543:CB:9877, V-A:HIS:456:CE1:4069, V-B:GLU:543:C:9873, V-A:HIS:456:CB:4064, V-B:HIS:456:CE1:9040, V-A:HIS:456:CG:4065, V-B:GLY:544:CA:9885, H-B:LYS:547:NZ:9922, V-A:GLU:543:CB:4905, V-A:GLU:543:C:4901, V-B:LYS:547:CE:9921, V-A:VAL:458:CG2:4086, H-A:LYS:547:NZ:4950, V-A:TYR:484:CG:4341, V-A:TYR:484:CD2:4343, V-A:TYR:484:CB:4340, V-A:ASP:473:CG:4239, V-B:HIS:456:CD2:9038, V-B:LYS:471:CD:9189, V-B:HIS:456:CB:9035, V-B:HIS:456:CG:9036, V-B:LYS:471:CE:9190, V-A:ASP:485:CA:4352, V-A:TYR:484:C:4336, V-A:PRO:486:CD:4365, V-A:ASP:473:CB:4238, H-A:ASP:485:N:4353, V-A:PRO:486:CG:4364, V-A:TYR:484:CA:4338, V-A:ASP:485:CG:4355"]

$$$$
RR1_Rahimova_2017
     RDKit          3D

 68 71  0  0  0  0  0  0  0  0999 V2000
  124.2690  129.7450   63.8850 C   0  0  0  0  0  0  0  0  0  0  0  0
  123.9020  129.9570   65.2430 O   0  0  0  0  0  0  0  0  0  0  0  0
  124.6490  129.3680   66.2440 C   0  0  0  0  0  0  0  0  0  0  0  0
  124.2080  129.2010   67.5670 C   0  0  0  0  0  0  0  0  0  0  0  0
  125.0360  128.6000   68.5110 C   0  0  0  0  0  0  0  0  0  0  0  0
  126.3080  128.1530   68.1530 C   0  0  0  0  0  0  0  0  0  0  0  0
  127.0860  127.6010   69.1890 N   0  0  0  0  0  0  0  0  0  0  0  0
  126.6910  127.0690   70.3650 C   0  0  0  0  0  0  0  0  0  0  0  0
  125.5270  127.0430   70.7670 O   0  0  0  0  0  0  0  0  0  0  0  0
  127.8270  126.4770   71.2140 C   0  0  0  0  0  0  0  0  0  0  0  0
  127.5490  126.4970   73.0190 S   0  0  0  0  0  0  0  0  0  0  0  0
  129.2100  126.8150   73.5150 C   0  0  0  0  0  0  0  0  0  0  0  0
  129.8820  126.0700   74.3560 N   0  0  0  0  0  0  0  0  0  0  0  0
  131.0700  126.6630   74.4260 C   0  0  0  0  0  0  0  0  0  0  0  0
  132.1850  126.1300   75.2800 C   0  0  0  0  0  0  0  0  0  0  0  0
  133.4830  126.6600   75.2080 C   0  0  0  0  0  0  0  0  0  0  0  0
  134.5000  126.1420   76.0130 C   0  0  0  0  0  0  0  0  0  0  0  0
  134.1920  125.0960   76.8810 C   0  0  0  0  0  0  0  0  0  0  0  0
  132.9490  124.5600   76.9760 N   0  0  0  0  0  0  0  0  0  0  0  0
  131.9740  125.0780   76.1860 C   0  0  0  0  0  0  0  0  0  0  0  0
  131.2040  127.7490   73.6880 N   0  0  0  0  0  0  0  0  0  0  0  0
  130.0080  127.8500   73.1020 N   0  0  0  0  0  0  0  0  0  0  0  0
  129.7310  128.9340   72.1590 C   0  0  0  0  0  0  0  0  0  0  0  0
  130.4960  128.8460   70.8260 C   0  0  0  0  0  0  0  0  0  0  0  0
  131.6380  129.3070   70.7200 O   0  0  0  0  0  0  0  0  0  0  0  0
  129.8240  128.2450   69.8250 N   0  0  0  0  0  0  0  0  0  0  0  0
  130.5020  127.9980   68.6390 N   0  0  0  0  0  0  0  0  0  0  0  0
  130.2420  126.8410   67.9930 C   0  0  0  0  0  0  0  0  0  0  0  0
  129.3670  126.0380   68.3360 O   0  0  0  0  0  0  0  0  0  0  0  0
  131.0860  126.5710   66.7640 C   0  0  0  0  0  0  0  0  0  0  0  0
  130.5100  126.6440   65.4910 C   0  0  0  0  0  0  0  0  0  0  0  0
  131.2630  126.3890   64.3510 C   0  0  0  0  0  0  0  0  0  0  0  0
  132.6210  126.0440   64.4490 C   0  0  0  0  0  0  0  0  0  0  0  0
  133.4220  125.7650   63.3560 O   0  0  0  0  0  0  0  0  0  0  0  0
  133.5930  124.4150   62.9380 C   0  0  0  0  0  0  0  0  0  0  0  0
  133.2150  125.9580   65.7150 C   0  0  0  0  0  0  0  0  0  0  0  0
  134.5510  125.5950   65.7590 O   0  0  0  0  0  0  0  0  0  0  0  0
  135.2560  125.6520   66.9940 C   0  0  0  0  0  0  0  0  0  0  0  0
  132.4440  126.2260   66.8600 C   0  0  0  0  0  0  0  0  0  0  0  0
  126.7520  128.3170   66.8320 C   0  0  0  0  0  0  0  0  0  0  0  0
  125.9210  128.9170   65.8900 C   0  0  0  0  0  0  0  0  0  0  0  0
  125.2208  129.1952   63.8440 H   0  0  0  0  0  0  0  0  0  0  0  0
  123.4857  129.1602   63.3805 H   0  0  0  0  0  0  0  0  0  0  0  0
  124.3842  130.7157   63.3805 H   0  0  0  0  0  0  0  0  0  0  0  0
  123.2050  129.5463   67.8582 H   0  0  0  0  0  0  0  0  0  0  0  0
  124.6849  128.4768   69.5461 H   0  0  0  0  0  0  0  0  0  0  0  0
  128.0830  127.6470   69.0310 H   0  0  0  0  0  0  0  0  0  0  0  0
  127.9723  125.4314   70.9047 H   0  0  0  0  0  0  0  0  0  0  0  0
  128.7037  127.1170   71.0355 H   0  0  0  0  0  0  0  0  0  0  0  0
  133.6998  127.4863   74.5150 H   0  0  0  0  0  0  0  0  0  0  0  0
  135.5203  126.5501   75.9631 H   0  0  0  0  0  0  0  0  0  0  0  0
  134.9912  124.6872   77.5167 H   0  0  0  0  0  0  0  0  0  0  0  0
  130.9633  124.6502   76.2596 H   0  0  0  0  0  0  0  0  0  0  0  0
  128.6539  128.9256   71.9358 H   0  0  0  0  0  0  0  0  0  0  0  0
  130.0679  129.8605   72.6470 H   0  0  0  0  0  0  0  0  0  0  0  0
  128.9910  127.6850   69.9420 H   0  0  0  0  0  0  0  0  0  0  0  0
  131.4320  128.3910   68.6570 H   0  0  0  0  0  0  0  0  0  0  0  0
  129.4465  126.9068   65.3911 H   0  0  0  0  0  0  0  0  0  0  0  0
  130.7899  126.4582   63.3604 H   0  0  0  0  0  0  0  0  0  0  0  0
  133.6753  123.7652   63.8217 H   0  0  0  0  0  0  0  0  0  0  0  0
  132.7269  124.1055   62.3346 H   0  0  0  0  0  0  0  0  0  0  0  0
  134.5089  124.3312   62.3346 H   0  0  0  0  0  0  0  0  0  0  0  0
  134.5406  125.5942   67.8276 H   0  0  0  0  0  0  0  0  0  0  0  0
  135.9585  124.8077   67.0545 H   0  0  0  0  0  0  0  0  0  0  0  0
  135.8138  126.5982   67.0545 H   0  0  0  0  0  0  0  0  0  0  0  0
  132.9147  126.1641   67.8523 H   0  0  0  0  0  0  0  0  0  0  0  0
  127.7552  127.9720   66.5412 H   0  0  0  0  0  0  0  0  0  0  0  0
  126.2714  129.0370   64.8542 H   0  0  0  0  0  0  0  0  0  0  0  0
  1  2  1  0
  2  3  1  0
  3  4  2  0
  4  5  1  0
  5  6  2  0
  6  7  1  0
  7  8  1  0
  8  9  2  0
  8 10  1  0
 10 11  1  0
 11 12  1  0
 12 13  2  0
 13 14  1  0
 14 15  1  0
 15 16  2  0
 16 17  1  0
 17 18  2  0
 18 19  1  0
 19 20  2  0
 14 21  2  0
 21 22  1  0
 22 23  1  0
 23 24  1  0
 24 25  2  0
 24 26  1  0
 26 27  1  0
 27 28  1  0
 28 29  2  0
 28 30  1  0
 30 31  2  0
 31 32  1  0
 32 33  2  0
 33 34  1  0
 34 35  1  0
 33 36  1  0
 36 37  1  0
 37 38  1  0
 36 39  2  0
  6 40  1  0
 40 41  2  0
 41  3  1  0
 22 12  1  0
 39 30  1  0
 20 15  1  0
  1 42  1  0
  1 43  1  0
  1 44  1  0
  4 45  1  0
  5 46  1  0
  7 47  1  0
 10 48  1  0
 10 49  1  0
 16 50  1  0
 17 51  1  0
 18 52  1  0
 20 53  1  0
 23 54  1  0
 23 55  1  0
 26 56  1  0
 27 57  1  0
 31 58  1  0
 32 59  1  0
 35 60  1  0
 35 61  1  0
 35 62  1  0
 38 63  1  0
 38 64  1  0
 38 65  1  0
 39 66  1  0
 40 67  1  0
 41 68  1  0
M  END
>  <Binding energies>  (1) 
[-9.67]

>  <Ligand effiencies>  (1) 
[-0.21977272727272726]

>  <Interactions>  (1) 
["V-B:GLU:543:CB:9877, V-A:HIS:456:CE1:4069, V-B:GLU:543:C:9873, V-B:GLY:544:C:9883, V-A:HIS:456:C:4060, V-A:HIS:456:CB:4064, H-A:LYS:471:NZ:4220, V-A:VAL:457:C:4072, V-B:ARG:545:CD:9894, V-B:GLU:543:CD:9879, V-B:HIS:456:CE1:9040, V-A:HIS:456:CG:4065, V-B:ARG:545:CG:9893, H-A:HIS:456:ND1:4066, V-A:ARG:545:CZ:4925, V-A:ARG:545:CD:4922, V-A:ARG:545:CG:4921, V-B:ARG:545:CZ:9897, V-B:ARG:545:CB:9892, H-B:LYS:547:NZ:9922, V-A:ASP:366:CG:3212, H-B:GLU:543:OE2:9881, V-A:GLU:543:CD:4907, V-A:GLY:454:CA:4048, V-A:GLU:543:CB:4905, H-A:TYR:484:OH:4347, H-A:GLY:454:N:4049, H-B:GLY:454:N:9020, H-B:HIS:456:ND1:9037, H-A:ARG:545:NH2:4927, V-A:GLY:453:C:4041, H-A:GLU:543:OE1:4908, V-A:GLU:543:C:4901, H-A:ARG:545:NH1:4926, H-A:ARG:545:NE:4923, H-A:GLY:544:N:4914, V-A:VAL:458:CG2:4086, H-A:ARG:545:N:4919, H-B:ARG:545:N:9891, V-A:LYS:471:CD:4218, V-A:ILE:455:C:4051, V-A:GLY:453:CA:4043, H-A:HIS:456:NE2:4070, V-A:GLY:454:C:4046"]

$$$$
RR20_Rahimova_2017
     RDKit          3D

 68 73  0  0  0  0  0  0  0  0999 V2000
  123.7330  132.7750   61.2730 C   0  0  0  0  0  0  0  0  0  0  0  0
  123.9930  131.9260   62.5040 C   0  0  0  0  0  0  0  0  0  0  0  0
  123.6710  130.5690   62.4930 C   0  0  0  0  0  0  0  0  0  0  0  0
  123.9180  129.7870   63.6180 C   0  0  0  0  0  0  0  0  0  0  0  0
  124.4760  130.3580   64.7680 C   0  0  0  0  0  0  0  0  0  0  0  0
  124.7540  129.4870   65.9730 C   0  0  0  0  0  0  0  0  0  0  0  0
  123.7860  129.0080   66.5680 O   0  0  0  0  0  0  0  0  0  0  0  0
  126.0470  129.2530   66.3450 N   0  0  0  0  0  0  0  0  0  0  0  0
  127.1670  130.0100   65.7610 C   0  0  0  0  0  0  0  0  0  0  0  0
  128.4120  129.5870   66.5220 C   0  0  0  0  0  0  0  0  0  0  0  0
  127.8490  128.9030   67.7300 C   0  0  0  0  0  0  0  0  0  0  0  0
  128.5190  128.3800   68.8370 C   0  0  0  0  0  0  0  0  0  0  0  0
  127.8320  127.6270   69.7970 C   0  0  0  0  0  0  0  0  0  0  0  0
  128.5520  127.0710   70.9940 C   0  0  0  0  0  0  0  0  0  0  0  0
  128.3020  125.8220   71.3540 N   0  0  0  0  0  0  0  0  0  0  0  0
  128.9970  125.4380   72.3940 C   0  0  0  0  0  0  0  0  0  0  0  0
  128.9830  124.2020   73.0210 N   0  0  0  0  0  0  0  0  0  0  0  0
  129.3700  123.9280   74.2910 C   0  0  0  0  0  0  0  0  0  0  0  0
  129.7810  124.7770   75.0840 O   0  0  0  0  0  0  0  0  0  0  0  0
  129.2670  122.4650   74.7830 C   0  0  0  0  0  0  0  0  0  0  0  0
  128.2640  121.6780   74.0430 N   0  0  0  0  0  0  0  0  0  0  0  0
  128.7160  120.3050   73.7700 C   0  0  0  0  0  0  0  0  0  0  0  0
  127.7560  119.6160   72.7730 C   0  0  0  0  0  0  0  0  0  0  0  0
  126.2820  119.8250   73.1230 C   0  0  0  0  0  0  0  0  0  0  0  0
  125.2810  119.0670   72.5060 C   0  0  0  0  0  0  0  0  0  0  0  0
  123.9360  119.2830   72.7960 C   0  0  0  0  0  0  0  0  0  0  0  0
  123.5750  120.2650   73.7140 C   0  0  0  0  0  0  0  0  0  0  0  0
  124.5630  121.0200   74.3430 C   0  0  0  0  0  0  0  0  0  0  0  0
  125.9170  120.8140   74.0590 C   0  0  0  0  0  0  0  0  0  0  0  0
  127.0030  121.6030   74.7920 C   0  0  0  0  0  0  0  0  0  0  0  0
  130.0440  126.6430   73.0350 S   0  0  0  0  0  0  0  0  0  0  0  0
  129.4870  127.7510   71.8030 C   0  0  0  0  0  0  0  0  0  0  0  0
  129.9980  129.1750   71.7650 C   0  0  0  0  0  0  0  0  0  0  0  0
  126.4690  127.3640   69.5910 C   0  0  0  0  0  0  0  0  0  0  0  0
  125.8010  127.8700   68.4760 C   0  0  0  0  0  0  0  0  0  0  0  0
  126.4800  128.6920   67.5680 C   0  0  0  0  0  0  0  0  0  0  0  0
  124.8230  131.7150   64.7620 C   0  0  0  0  0  0  0  0  0  0  0  0
  124.5780  132.4980   63.6360 C   0  0  0  0  0  0  0  0  0  0  0  0
  123.4239  133.7843   61.5823 H   0  0  0  0  0  0  0  0  0  0  0  0
  124.6521  132.8410   60.6723 H   0  0  0  0  0  0  0  0  0  0  0  0
  122.9346  132.3150   60.6723 H   0  0  0  0  0  0  0  0  0  0  0  0
  123.2222  130.1170   61.5962 H   0  0  0  0  0  0  0  0  0  0  0  0
  123.6734  128.7146   63.6032 H   0  0  0  0  0  0  0  0  0  0  0  0
  127.2734  129.7691   64.6930 H   0  0  0  0  0  0  0  0  0  0  0  0
  127.0001  131.0944   65.8397 H   0  0  0  0  0  0  0  0  0  0  0  0
  129.0249  128.8955   65.9252 H   0  0  0  0  0  0  0  0  0  0  0  0
  129.0770  130.4277   66.7690 H   0  0  0  0  0  0  0  0  0  0  0  0
  129.5974  128.5611   68.9565 H   0  0  0  0  0  0  0  0  0  0  0  0
  128.6530  123.4260   72.4640 H   0  0  0  0  0  0  0  0  0  0  0  0
  130.2490  121.9843   74.6616 H   0  0  0  0  0  0  0  0  0  0  0  0
  128.9513  122.4934   75.8363 H   0  0  0  0  0  0  0  0  0  0  0  0
  129.7277  120.3343   73.3393 H   0  0  0  0  0  0  0  0  0  0  0  0
  128.7253  119.7360   74.7113 H   0  0  0  0  0  0  0  0  0  0  0  0
  127.9396  120.0260   71.7689 H   0  0  0  0  0  0  0  0  0  0  0  0
  127.9551  118.5351   72.8172 H   0  0  0  0  0  0  0  0  0  0  0  0
  125.5605  118.2886   71.7808 H   0  0  0  0  0  0  0  0  0  0  0  0
  123.1612  118.6792   72.3009 H   0  0  0  0  0  0  0  0  0  0  0  0
  122.5140  120.4444   73.9421 H   0  0  0  0  0  0  0  0  0  0  0  0
  124.2737  121.7895   75.0738 H   0  0  0  0  0  0  0  0  0  0  0  0
  126.6367  122.6258   74.9646 H   0  0  0  0  0  0  0  0  0  0  0  0
  127.2118  121.0763   75.7348 H   0  0  0  0  0  0  0  0  0  0  0  0
  130.1306  129.5445   72.7926 H   0  0  0  0  0  0  0  0  0  0  0  0
  130.9628  129.2044   71.2374 H   0  0  0  0  0  0  0  0  0  0  0  0
  129.2720  129.8111   71.2374 H   0  0  0  0  0  0  0  0  0  0  0  0
  125.9194  126.7498   70.3195 H   0  0  0  0  0  0  0  0  0  0  0  0
  124.7419  127.6236   68.3100 H   0  0  0  0  0  0  0  0  0  0  0  0
  125.2910  132.1645   65.6502 H   0  0  0  0  0  0  0  0  0  0  0  0
  124.8449  133.5651   63.6385 H   0  0  0  0  0  0  0  0  0  0  0  0
  1  2  1  0
  2  3  2  0
  3  4  1  0
  4  5  2  0
  5  6  1  0
  6  7  2  0
  6  8  1  0
  8  9  1  0
  9 10  1  0
 10 11  1  0
 11 12  2  0
 12 13  1  0
 13 14  1  0
 14 15  1  0
 15 16  2  0
 16 17  1  0
 17 18  1  0
 18 19  2  0
 18 20  1  0
 20 21  1  0
 21 22  1  0
 22 23  1  0
 23 24  1  0
 24 25  2  0
 25 26  1  0
 26 27  2  0
 27 28  1  0
 28 29  2  0
 29 30  1  0
 16 31  1  0
 31 32  1  0
 32 33  1  0
 13 34  2  0
 34 35  1  0
 35 36  2  0
  5 37  1  0
 37 38  2  0
 38  2  1  0
 36  8  1  0
 36 11  1  0
 32 14  2  0
 30 21  1  0
 29 24  1  0
  1 39  1  0
  1 40  1  0
  1 41  1  0
  3 42  1  0
  4 43  1  0
  9 44  1  0
  9 45  1  0
 10 46  1  0
 10 47  1  0
 12 48  1  0
 17 49  1  0
 20 50  1  0
 20 51  1  0
 22 52  1  0
 22 53  1  0
 23 54  1  0
 23 55  1  0
 25 56  1  0
 26 57  1  0
 27 58  1  0
 28 59  1  0
 30 60  1  0
 30 61  1  0
 33 62  1  0
 33 63  1  0
 33 64  1  0
 34 65  1  0
 35 66  1  0
 37 67  1  0
 38 68  1  0
M  END
>  <Binding energies>  (1) 
[-10.91]

>  <Ligand effiencies>  (1) 
[-0.27974358974358976]

>  <Interactions>  (1) 
["V-B:GLU:543:CB:9877, V-A:HIS:456:CE1:4069, V-B:GLU:543:C:9873, V-A:HIS:456:CD2:4067, V-B:GLU:543:CD:9879, V-B:HIS:456:CE1:9040, V-A:HIS:456:CG:4065, V-B:ARG:545:CG:9893, V-B:LEU:475:CD1:9228, V-B:ARG:545:CZ:9897, V-B:GLY:544:CA:9885, H-B:LYS:547:NZ:9922, V-B:GLY:454:CA:9019, V-A:GLU:543:CD:4907, V-A:GLU:543:CG:4906, V-A:GLU:543:CB:4905, H-B:GLY:454:N:9020, V-B:ILE:369:CG2:8207, V-A:GLU:543:C:4901, H-B:ARG:545:NE:9895, V-B:LYS:547:CE:9921, V-B:LYS:547:CG:9919, V-B:VAL:542:CG1:9870, V-A:TYR:484:CB:4340, H-B:GLU:543:O:9874, V-A:TYR:484:C:4336, V-A:TYR:484:CA:4338"]

$$$$
RR20_Rahimova_2017-again1
     RDKit          3D

 68 73  0  0  0  0  0  0  0  0999 V2000
  134.6930  125.4390   76.3450 C   0  0  0  0  0  0  0  0  0  0  0  0
  133.5570  126.1330   75.6140 C   0  0  0  0  0  0  0  0  0  0  0  0
  133.6900  127.4680   75.2280 C   0  0  0  0  0  0  0  0  0  0  0  0
  132.6530  128.1030   74.5520 C   0  0  0  0  0  0  0  0  0  0  0  0
  131.4690  127.4120   74.2660 C   0  0  0  0  0  0  0  0  0  0  0  0
  130.3580  128.1140   73.5150 C   0  0  0  0  0  0  0  0  0  0  0  0
  130.0790  129.2660   73.8500 O   0  0  0  0  0  0  0  0  0  0  0  0
  129.7350  127.4640   72.4880 N   0  0  0  0  0  0  0  0  0  0  0  0
  128.9060  126.2710   72.7260 C   0  0  0  0  0  0  0  0  0  0  0  0
  128.2640  125.9220   71.3930 C   0  0  0  0  0  0  0  0  0  0  0  0
  128.4820  127.1660   70.5840 C   0  0  0  0  0  0  0  0  0  0  0  0
  128.0350  127.4660   69.2970 C   0  0  0  0  0  0  0  0  0  0  0  0
  128.4820  128.6210   68.6360 C   0  0  0  0  0  0  0  0  0  0  0  0
  128.0060  128.9410   67.2480 C   0  0  0  0  0  0  0  0  0  0  0  0
  128.9150  129.1420   66.3060 N   0  0  0  0  0  0  0  0  0  0  0  0
  128.4120  129.4240   65.1290 C   0  0  0  0  0  0  0  0  0  0  0  0
  129.0630  129.7260   63.9620 N   0  0  0  0  0  0  0  0  0  0  0  0
  128.6140  129.4790   62.7780 C   0  0  0  0  0  0  0  0  0  0  0  0
  127.5270  129.0120   62.3870 O   0  0  0  0  0  0  0  0  0  0  0  0
  129.6000  129.8390   61.6470 C   0  0  0  0  0  0  0  0  0  0  0  0
  130.5210  131.0090   62.1000 N   0  0  2  0  0  0  0  0  0  0  0  0
  129.8610  132.3900   61.9110 C   0  0  0  0  0  0  0  0  0  0  0  0
  129.6490  132.6710   60.4120 C   0  0  0  0  0  0  0  0  0  0  0  0
  130.8950  132.4160   59.5710 C   0  0  0  0  0  0  0  0  0  0  0  0
  131.0090  133.0000   58.3040 C   0  0  0  0  0  0  0  0  0  0  0  0
  132.1100  132.7510   57.4890 C   0  0  0  0  0  0  0  0  0  0  0  0
  133.1200  131.9090   57.9360 C   0  0  0  0  0  0  0  0  0  0  0  0
  133.0280  131.3300   59.1990 C   0  0  0  0  0  0  0  0  0  0  0  0
  131.9330  131.5750   60.0360 C   0  0  0  0  0  0  0  0  0  0  0  0
  131.9190  130.9490   61.4360 C   0  0  0  0  0  0  0  0  0  0  0  0
  126.6890  129.4850   65.1230 S   0  0  0  0  0  0  0  0  0  0  0  0
  126.6700  129.0550   66.8160 C   0  0  0  0  0  0  0  0  0  0  0  0
  125.3570  128.8550   67.5430 C   0  0  0  0  0  0  0  0  0  0  0  0
  129.4210  129.4370   69.2800 C   0  0  0  0  0  0  0  0  0  0  0  0
  129.8830  129.1300   70.5610 C   0  0  0  0  0  0  0  0  0  0  0  0
  129.3700  128.0180   71.2410 C   0  0  0  0  0  0  0  0  0  0  0  0
  131.3550  126.0640   74.6290 C   0  0  0  0  0  0  0  0  0  0  0  0
  132.3930  125.4290   75.3050 C   0  0  0  0  0  0  0  0  0  0  0  0
  134.5413  125.5317   77.4305 H   0  0  0  0  0  0  0  0  0  0  0  0
  134.7120  124.3749   76.0670 H   0  0  0  0  0  0  0  0  0  0  0  0
  135.6485  125.9078   76.0670 H   0  0  0  0  0  0  0  0  0  0  0  0
  134.6145  128.0177   75.4583 H   0  0  0  0  0  0  0  0  0  0  0  0
  132.7636  129.1523   74.2409 H   0  0  0  0  0  0  0  0  0  0  0  0
  129.5314  125.4370   73.0771 H   0  0  0  0  0  0  0  0  0  0  0  0
  128.1453  126.4613   73.4975 H   0  0  0  0  0  0  0  0  0  0  0  0
  128.7590  125.0559   70.9294 H   0  0  0  0  0  0  0  0  0  0  0  0
  127.2046  125.6392   71.4804 H   0  0  0  0  0  0  0  0  0  0  0  0
  127.3257  126.7912   68.7955 H   0  0  0  0  0  0  0  0  0  0  0  0
  130.2172  128.9605   61.4078 H   0  0  0  0  0  0  0  0  0  0  0  0
  129.0328  130.1483   60.7567 H   0  0  0  0  0  0  0  0  0  0  0  0
  130.6540  130.8890   63.0960 H   0  0  0  0  0  0  0  0  0  0  0  0
  128.8886  132.4026   62.4252 H   0  0  0  0  0  0  0  0  0  0  0  0
  130.5168  133.1649   62.3347 H   0  0  0  0  0  0  0  0  0  0  0  0
  128.8407  132.0212   60.0454 H   0  0  0  0  0  0  0  0  0  0  0  0
  129.3994  133.7376   60.3115 H   0  0  0  0  0  0  0  0  0  0  0  0
  130.2129  133.6689   57.9451 H   0  0  0  0  0  0  0  0  0  0  0  0
  132.1796  133.2189   56.4959 H   0  0  0  0  0  0  0  0  0  0  0  0
  133.9891  131.7003   57.2949 H   0  0  0  0  0  0  0  0  0  0  0  0
  133.8330  130.6658   59.5465 H   0  0  0  0  0  0  0  0  0  0  0  0
  132.2255  129.8957   61.3543 H   0  0  0  0  0  0  0  0  0  0  0  0
  132.6127  131.5251   62.0661 H   0  0  0  0  0  0  0  0  0  0  0  0
  125.5313  128.8816   68.6288 H   0  0  0  0  0  0  0  0  0  0  0  0
  124.6576  129.6570   67.2642 H   0  0  0  0  0  0  0  0  0  0  0  0
  124.9281  127.8812   67.2642 H   0  0  0  0  0  0  0  0  0  0  0  0
  129.8003  130.3338   68.7682 H   0  0  0  0  0  0  0  0  0  0  0  0
  130.6490  129.7606   71.0359 H   0  0  0  0  0  0  0  0  0  0  0  0
  130.4414  125.5048   74.3788 H   0  0  0  0  0  0  0  0  0  0  0  0
  132.2954  124.3725   75.5954 H   0  0  0  0  0  0  0  0  0  0  0  0
  1  2  1  0
  2  3  2  0
  3  4  1  0
  4  5  2  0
  5  6  1  0
  6  7  2  0
  6  8  1  0
  8  9  1  0
  9 10  1  0
 10 11  1  0
 11 12  2  0
 12 13  1  0
 13 14  1  0
 14 15  1  0
 15 16  2  0
 16 17  1  0
 17 18  2  0
 18 19  1  0
 18 20  1  0
 20 21  1  0
 21 22  1  0
 22 23  1  0
 23 24  1  0
 24 25  2  0
 25 26  1  0
 26 27  2  0
 27 28  1  0
 28 29  2  0
 29 30  1  0
 16 31  1  0
 31 32  1  0
 32 33  1  0
 13 34  2  0
 34 35  1  0
 35 36  2  0
  5 37  1  0
 37 38  2  0
 38  2  1  0
 36  8  1  0
 36 11  1  0
 32 14  2  0
 30 21  1  0
 29 24  1  0
  1 39  1  0
  1 40  1  0
  1 41  1  0
  3 42  1  0
  4 43  1  0
  9 44  1  0
  9 45  1  0
 10 46  1  0
 10 47  1  0
 12 48  1  0
 20 49  1  0
 20 50  1  0
 21 51  1  1
 22 52  1  0
 22 53  1  0
 23 54  1  0
 23 55  1  0
 25 56  1  0
 26 57  1  0
 27 58  1  0
 28 59  1  0
 30 60  1  0
 30 61  1  0
 33 62  1  0
 33 63  1  0
 33 64  1  0
 34 65  1  0
 35 66  1  0
 37 67  1  0
 38 68  1  0
M  CHG  2  19  -1  21   1
M  END
>  <Binding energies>  (1) 
[-10.19]

>  <Ligand effiencies>  (1) 
[-0.2612820512820513]

>  <Interactions>  (1) 
["V-B:GLU:543:CB:9877, V-A:HIS:456:CE1:4069, V-B:GLU:543:C:9873, V-A:HIS:456:CD2:4067, V-A:HIS:456:C:4060, V-A:HIS:456:CB:4064, V-A:VAL:457:C:4072, V-B:GLU:543:CD:9879, V-B:HIS:456:CE1:9040, V-A:HIS:456:CG:4065, V-B:ARG:545:CG:9893, V-A:GLY:544:C:4911, V-A:GLU:543:CD:4907, V-A:GLU:543:CG:4906, V-A:GLU:543:CB:4905, V-A:TYR:531:CE2:4792, V-A:LEU:363:CA:3184, V-A:LEU:363:CD1:3188, V-A:PRO:540:CA:4882, V-A:PRO:540:N:4883, V-A:PRO:540:CB:4884, V-A:TYR:539:C:4866, V-A:ALA:541:CB:4891, H-A:GLU:543:OE2:4909, V-A:GLU:543:C:4901, V-A:VAL:458:CG2:4086, V-A:LYS:547:CE:4949, H-A:LYS:547:NZ:4950, V-A:GLU:543:CA:4903"]

$$$$
RR21_Rahimova_2017
     RDKit          3D

 62 67  0  0  0  0  0  0  0  0999 V2000
  133.5480  124.9710   63.0080 C   0  0  0  0  0  0  0  0  0  0  0  0
  133.8640  125.3340   64.3490 O   0  0  0  0  0  0  0  0  0  0  0  0
  132.8640  125.8200   65.1700 C   0  0  0  0  0  0  0  0  0  0  0  0
  131.5490  126.0770   64.7470 C   0  0  0  0  0  0  0  0  0  0  0  0
  130.5970  126.5650   65.6420 C   0  0  0  0  0  0  0  0  0  0  0  0
  130.9320  126.8040   66.9800 C   0  0  0  0  0  0  0  0  0  0  0  0
  129.9060  127.3230   67.9400 C   0  0  0  0  0  0  0  0  0  0  0  0
  129.8180  126.8040   69.1490 N   0  0  0  0  0  0  0  0  0  0  0  0
  128.8280  127.4570   69.7770 N   0  0  0  0  0  0  0  0  0  0  0  0
  128.4780  127.1570   71.1200 C   0  0  0  0  0  0  0  0  0  0  0  0
  127.4640  126.2300   71.4070 C   0  0  0  0  0  0  0  0  0  0  0  0
  127.1330  125.9410   72.7280 C   0  0  0  0  0  0  0  0  0  0  0  0
  127.8120  126.5770   73.7650 C   0  0  0  0  0  0  0  0  0  0  0  0
  128.8180  127.5010   73.4930 C   0  0  0  0  0  0  0  0  0  0  0  0
  129.1510  127.7920   72.1730 C   0  0  0  0  0  0  0  0  0  0  0  0
  128.2950  128.4160   68.9530 C   0  0  0  0  0  0  0  0  0  0  0  0
  128.9600  128.3540   67.7370 C   0  0  0  0  0  0  0  0  0  0  0  0
  128.7760  129.2010   66.5690 C   0  0  0  0  0  0  0  0  0  0  0  0
  127.6210  129.5340   65.9490 C   0  0  0  0  0  0  0  0  0  0  0  0
  125.9700  129.0260   66.3700 S   0  0  0  0  0  0  0  0  0  0  0  0
  125.3490  129.9930   65.0400 C   0  0  0  0  0  0  0  0  0  0  0  0
  124.1120  130.1580   64.6870 N   0  0  0  0  0  0  0  0  0  0  0  0
  123.7400  130.9840   63.5900 C   0  0  0  0  0  0  0  0  0  0  0  0
  122.5930  131.2080   63.2050 O   0  0  0  0  0  0  0  0  0  0  0  0
  124.9070  131.6190   62.8850 C   0  0  0  0  0  0  0  0  0  0  0  0
  124.6310  132.5170   61.6720 C   0  0  0  0  0  0  0  0  0  0  0  0
  125.4060  133.8330   61.6730 C   0  0  0  0  0  0  0  0  0  0  0  0
  126.2830  134.1270   62.7210 C   0  0  0  0  0  0  0  0  0  0  0  0
  127.0020  135.3200   62.7130 C   0  0  0  0  0  0  0  0  0  0  0  0
  126.8480  136.2200   61.6560 C   0  0  0  0  0  0  0  0  0  0  0  0
  127.6430  137.5120   61.6460 C   0  0  0  0  0  0  0  0  0  0  0  0
  125.9800  135.9220   60.6030 C   0  0  0  0  0  0  0  0  0  0  0  0
  125.2610  134.7300   60.6110 C   0  0  0  0  0  0  0  0  0  0  0  0
  126.1360  131.4410   63.2450 N   0  0  0  0  0  0  0  0  0  0  0  0
  126.3590  130.6110   64.3510 N   0  0  0  0  0  0  0  0  0  0  0  0
  127.6280  130.4050   64.7820 C   0  0  0  0  0  0  0  0  0  0  0  0
  128.6370  130.8940   64.2600 O   0  0  0  0  0  0  0  0  0  0  0  0
  132.2420  126.5540   67.4000 C   0  0  0  0  0  0  0  0  0  0  0  0
  133.1960  126.0670   66.5070 C   0  0  0  0  0  0  0  0  0  0  0  0
  134.4550  125.8340   66.9460 F   0  0  0  0  0  0  0  0  0  0  0  0
  132.8258  124.1413   63.0132 H   0  0  0  0  0  0  0  0  0  0  0  0
  133.1097  125.8354   62.4877 H   0  0  0  0  0  0  0  0  0  0  0  0
  134.4646  124.6560   62.4877 H   0  0  0  0  0  0  0  0  0  0  0  0
  131.2676  125.8916   63.6999 H   0  0  0  0  0  0  0  0  0  0  0  0
  129.5730  126.7640   65.2930 H   0  0  0  0  0  0  0  0  0  0  0  0
  126.9293  125.7304   70.5858 H   0  0  0  0  0  0  0  0  0  0  0  0
  126.3388  125.2136   72.9520 H   0  0  0  0  0  0  0  0  0  0  0  0
  127.5511  126.3472   74.8086 H   0  0  0  0  0  0  0  0  0  0  0  0
  129.3476  127.9992   74.3184 H   0  0  0  0  0  0  0  0  0  0  0  0
  129.9444  128.5222   71.9557 H   0  0  0  0  0  0  0  0  0  0  0  0
  127.4831  129.1118   69.2112 H   0  0  0  0  0  0  0  0  0  0  0  0
  129.6933  129.6249   66.1344 H   0  0  0  0  0  0  0  0  0  0  0  0
  124.9003  131.9596   60.7627 H   0  0  0  0  0  0  0  0  0  0  0  0
  123.5638  132.7807   61.7125 H   0  0  0  0  0  0  0  0  0  0  0  0
  126.4053  133.4165   63.5518 H   0  0  0  0  0  0  0  0  0  0  0  0
  127.6906  135.5532   63.5385 H   0  0  0  0  0  0  0  0  0  0  0  0
  127.8387  137.8301   62.6807 H   0  0  0  0  0  0  0  0  0  0  0  0
  128.5983  137.3507   61.1250 H   0  0  0  0  0  0  0  0  0  0  0  0
  127.0684  138.2920   61.1250 H   0  0  0  0  0  0  0  0  0  0  0  0
  125.8647  136.6287   59.7680 H   0  0  0  0  0  0  0  0  0  0  0  0
  124.5785  134.4940   59.7812 H   0  0  0  0  0  0  0  0  0  0  0  0
  132.5232  126.7436   68.4464 H   0  0  0  0  0  0  0  0  0  0  0  0
  1  2  1  0
  2  3  1  0
  3  4  2  0
  4  5  1  0
  5  6  2  0
  6  7  1  0
  7  8  2  0
  8  9  1  0
  9 10  1  0
 10 11  2  0
 11 12  1  0
 12 13  2  0
 13 14  1  0
 14 15  2  0
  9 16  1  0
 16 17  2  0
 17 18  1  0
 18 19  2  0
 19 20  1  0
 20 21  1  0
 21 22  2  0
 22 23  1  0
 23 24  2  0
 23 25  1  0
 25 26  1  0
 26 27  1  0
 27 28  2  0
 28 29  1  0
 29 30  2  0
 30 31  1  0
 30 32  1  0
 32 33  2  0
 25 34  2  0
 34 35  1  0
 35 36  1  0
 36 37  2  0
  6 38  1  0
 38 39  2  0
 39 40  1  0
 39  3  1  0
 17  7  1  0
 36 19  1  0
 15 10  1  0
 35 21  1  0
 33 27  1  0
  1 41  1  0
  1 42  1  0
  1 43  1  0
  4 44  1  0
  5 45  1  0
 11 46  1  0
 12 47  1  0
 13 48  1  0
 14 49  1  0
 15 50  1  0
 16 51  1  0
 18 52  1  0
 26 53  1  0
 26 54  1  0
 28 55  1  0
 29 56  1  0
 31 57  1  0
 31 58  1  0
 31 59  1  0
 32 60  1  0
 33 61  1  0
 38 62  1  0
M  END
>  <Binding energies>  (1) 
[-10.91]

>  <Ligand effiencies>  (1) 
[-0.27275]

>  <Interactions>  (1) 
["V-B:GLU:543:CB:9877, V-A:HIS:456:CE1:4069, V-B:GLU:543:C:9873, V-B:GLY:544:C:9883, V-B:GLU:543:CD:9879, V-B:HIS:456:CE1:9040, V-A:ARG:545:CZ:4925, V-A:ARG:545:CD:4922, V-A:ARG:545:CG:4921, V-B:GLY:453:C:9012, V-B:LEU:475:CD1:9228, V-B:GLY:544:CA:9885, V-B:GLY:454:CA:9019, V-A:ASP:366:CG:3212, V-A:GLU:543:CD:4907, V-A:GLU:543:CG:4906, V-A:GLU:543:CB:4905, H-A:GLY:454:N:4049, V-A:TYR:539:CD1:4872, V-A:TYR:539:C:4866, V-A:TYR:539:CE1:4874, V-A:ALA:541:CB:4891, H-B:GLY:454:N:9020, H-A:ARG:545:NH2:4927, V-B:SER:385:CB:8379, H-A:ARG:545:NH1:4926, V-B:LYS:547:CE:9921, V-A:TYR:539:CG:4871, V-A:GLY:453:CA:4043, V-A:TYR:539:CB:4870, V-B:PRO:482:CB:9296, V-B:PRO:482:CG:9297"]

$$$$
RR22_Rahimova_2017
     RDKit          3D

 49 54  0  0  0  0  0  0  0  0999 V2000
  125.9750  123.1430   62.1270 O   0  0  0  0  0  0  0  0  0  0  0  0
  127.1030  123.5500   61.8570 C   0  0  0  0  0  0  0  0  0  0  0  0
  128.1690  123.7210   62.7220 N   0  0  0  0  0  0  0  0  0  0  0  0
  129.4430  124.1490   62.2320 C   0  0  1  0  0  0  0  0  0  0  0  0
  129.7610  125.3210   62.9890 O   0  0  0  0  0  0  0  0  0  0  0  0
  130.9250  125.3170   63.7580 C   0  0  0  0  0  0  0  0  0  0  0  0
  131.0190  126.2940   64.7500 C   0  0  0  0  0  0  0  0  0  0  0  0
  132.1700  126.3790   65.5330 C   0  0  0  0  0  0  0  0  0  0  0  0
  133.2270  125.4940   65.3190 C   0  0  0  0  0  0  0  0  0  0  0  0
  133.1340  124.5170   64.3260 C   0  0  0  0  0  0  0  0  0  0  0  0
  131.9760  124.4040   63.5500 C   0  0  0  0  0  0  0  0  0  0  0  0
  131.7940  123.4110   62.4250 C   0  0  1  0  0  0  0  0  0  0  0  0
  132.4350  122.0380   62.4390 C   0  0  0  0  0  0  0  0  0  0  0  0
  131.3970  121.2570   61.6260 C   0  0  0  0  0  0  0  0  0  0  0  0
  131.6920  119.9530   60.9990 C   0  0  0  0  0  0  0  0  0  0  0  0
  130.8270  118.8630   61.1780 C   0  0  0  0  0  0  0  0  0  0  0  0
  131.1090  117.6370   60.5830 C   0  0  0  0  0  0  0  0  0  0  0  0
  132.2550  117.4920   59.8060 C   0  0  0  0  0  0  0  0  0  0  0  0
  133.1230  118.5640   59.6180 C   0  0  0  0  0  0  0  0  0  0  0  0
  132.8420  119.7920   60.2110 C   0  0  0  0  0  0  0  0  0  0  0  0
  130.2750  121.8710   61.5990 N   0  0  0  0  0  0  0  0  0  0  0  0
  130.4110  123.0480   62.3530 N   0  0  0  0  0  0  0  0  0  0  0  0
  129.2290  124.5920   60.7920 C   0  0  0  0  0  0  0  0  0  0  0  0
  130.1130  125.3660   60.1200 C   0  0  0  0  0  0  0  0  0  0  0  0
  130.0410  125.8480   58.7270 C   0  0  0  0  0  0  0  0  0  0  0  0
  128.8350  125.9820   58.0230 C   0  0  0  0  0  0  0  0  0  0  0  0
  128.8440  126.4440   56.7060 C   0  0  0  0  0  0  0  0  0  0  0  0
  130.0700  126.7570   56.1190 C   0  0  0  0  0  0  0  0  0  0  0  0
  131.2520  126.6290   56.7720 N   0  0  0  0  0  0  0  0  0  0  0  0
  131.2220  126.1790   58.0530 C   0  0  0  0  0  0  0  0  0  0  0  0
  127.6560  124.0430   60.1960 S   0  0  0  0  0  0  0  0  0  0  0  0
  128.0540  123.5890   63.7150 H   0  0  0  0  0  0  0  0  0  0  0  0
  130.1875  126.9952   64.9139 H   0  0  0  0  0  0  0  0  0  0  0  0
  132.2444  127.1442   66.3197 H   0  0  0  0  0  0  0  0  0  0  0  0
  134.1360  125.5661   65.9342 H   0  0  0  0  0  0  0  0  0  0  0  0
  133.9769  123.8318   64.1529 H   0  0  0  0  0  0  0  0  0  0  0  0
  132.2771  123.9857   61.6211 H   0  0  0  0  0  0  0  0  0  0  0  0
  133.4199  122.0414   61.9492 H   0  0  0  0  0  0  0  0  0  0  0  0
  132.6433  121.6320   63.4399 H   0  0  0  0  0  0  0  0  0  0  0  0
  129.9214  118.9780   61.7917 H   0  0  0  0  0  0  0  0  0  0  0  0
  130.4283  116.7849   60.7262 H   0  0  0  0  0  0  0  0  0  0  0  0
  132.4765  116.5221   59.3366 H   0  0  0  0  0  0  0  0  0  0  0  0
  134.0271  118.4414   59.0035 H   0  0  0  0  0  0  0  0  0  0  0  0
  133.5253  120.6408   60.0610 H   0  0  0  0  0  0  0  0  0  0  0  0
  131.0028  125.6769   60.6872 H   0  0  0  0  0  0  0  0  0  0  0  0
  127.8826  125.7231   58.5088 H   0  0  0  0  0  0  0  0  0  0  0  0
  127.9056  126.5587   56.1437 H   0  0  0  0  0  0  0  0  0  0  0  0
  130.0787  127.1234   55.0819 H   0  0  0  0  0  0  0  0  0  0  0  0
  132.1762  126.0689   58.5890 H   0  0  0  0  0  0  0  0  0  0  0  0
  1  2  2  0
  2  3  1  0
  3  4  1  0
  4  5  1  1
  5  6  1  0
  6  7  2  0
  7  8  1  0
  8  9  2  0
  9 10  1  0
 10 11  2  0
 11 12  1  0
 12 13  1  0
 13 14  1  0
 14 15  1  0
 15 16  2  0
 16 17  1  0
 17 18  2  0
 18 19  1  0
 19 20  2  0
 14 21  2  0
 21 22  1  0
  4 23  1  0
 23 24  2  0
 24 25  1  0
 25 26  2  0
 26 27  1  0
 27 28  2  0
 28 29  1  0
 29 30  2  0
 23 31  1  0
 31  2  1  0
 22  4  1  0
 30 25  1  0
 11  6  1  0
 22 12  1  0
 20 15  1  0
  3 32  1  0
  7 33  1  0
  8 34  1  0
  9 35  1  0
 10 36  1  0
 12 37  1  6
 13 38  1  0
 13 39  1  0
 16 40  1  0
 17 41  1  0
 18 42  1  0
 19 43  1  0
 20 44  1  0
 24 45  1  0
 26 46  1  0
 27 47  1  0
 28 48  1  0
 30 49  1  0
M  END
>  <Binding energies>  (1) 
[-9.22]

>  <Ligand effiencies>  (1) 
[-0.288125]

>  <Interactions>  (1) 
["V-B:GLU:543:CD:9879, V-A:ARG:545:CZ:4925, V-B:TYR:539:CD2:9845, V-B:MET:535:CE:9806, V-B:PRO:540:CA:9854, V-B:TYR:539:CE2:9847, V-A:LEU:475:CD2:4258, H-B:TYR:539:OH:9849, H-B:GLU:543:OE2:9881, V-A:ILE:369:CG2:3236, V-B:TYR:539:CB:9842, V-A:HIS:383:CE1:3393, V-A:GLU:543:CD:4907, H-B:GLU:543:OE1:9880, V-A:GLY:454:CA:4048, V-A:SER:385:CA:3406, H-A:TYR:531:OH:4794, V-A:MET:535:CE:4834, H-B:ALA:541:N:9862, V-A:LEU:373:CD2:3280, H-B:ALA:541:O:9860, V-A:VAL:384:C:3396"]

$$$$
RR23_Rahimova_2017
     RDKit          3D

 65 70  0  0  0  0  0  0  0  0999 V2000
  132.1840  124.7390   75.8150 C   0  0  0  0  0  0  0  0  0  0  0  0
  131.0700  125.1710   74.8790 C   0  0  0  0  0  0  0  0  0  0  0  0
  130.5780  126.4760   74.9350 C   0  0  0  0  0  0  0  0  0  0  0  0
  129.5620  126.8740   74.0680 C   0  0  0  0  0  0  0  0  0  0  0  0
  129.0240  125.9680   73.1480 C   0  0  0  0  0  0  0  0  0  0  0  0
  127.9360  126.4260   72.2020 C   0  0  0  0  0  0  0  0  0  0  0  0
  126.8140  125.9340   72.3420 O   0  0  0  0  0  0  0  0  0  0  0  0
  128.2250  127.3640   71.2520 N   0  0  0  0  0  0  0  0  0  0  0  0
  129.5370  128.0290   71.2010 C   0  0  0  0  0  0  0  0  0  0  0  0
  129.5360  128.8810   69.9420 C   0  0  0  0  0  0  0  0  0  0  0  0
  128.3650  128.3430   69.1760 C   0  0  0  0  0  0  0  0  0  0  0  0
  127.9230  128.6800   67.8970 C   0  0  0  0  0  0  0  0  0  0  0  0
  126.7050  128.1780   67.4130 C   0  0  0  0  0  0  0  0  0  0  0  0
  126.1810  128.5230   66.0110 C   0  0  2  0  0  0  0  0  0  0  0  0
  126.9830  129.5380   65.3620 N   0  0  0  0  0  0  0  0  0  0  0  0
  126.2860  130.2730   64.5920 C   0  0  0  0  0  0  0  0  0  0  0  0
  126.6980  131.3340   63.8470 N   0  0  0  0  0  0  0  0  0  0  0  0
  127.9050  131.9480   63.8510 C   0  0  0  0  0  0  0  0  0  0  0  0
  128.8790  131.6090   64.5270 O   0  0  0  0  0  0  0  0  0  0  0  0
  128.0300  133.1700   62.9260 C   0  0  0  0  0  0  0  0  0  0  0  0
  129.1160  132.9300   61.9490 N   0  0  0  0  0  0  0  0  0  0  0  0
  130.3590  132.6410   62.4980 N   0  0  0  0  0  0  0  0  0  0  0  0
  131.3910  132.4120   61.7500 N   0  0  0  0  0  0  0  0  0  0  0  0
  131.2640  132.4510   60.3600 C   0  0  0  0  0  0  0  0  0  0  0  0
  132.3970  132.2020   59.5820 C   0  0  0  0  0  0  0  0  0  0  0  0
  132.3020  132.2340   58.1900 C   0  0  0  0  0  0  0  0  0  0  0  0
  131.0800  132.5150   57.5760 C   0  0  0  0  0  0  0  0  0  0  0  0
  129.9460  132.7660   58.3510 C   0  0  0  0  0  0  0  0  0  0  0  0
  130.0410  132.7320   59.7470 C   0  0  0  0  0  0  0  0  0  0  0  0
  128.8270  133.0040   60.6050 C   0  0  0  0  0  0  0  0  0  0  0  0
  127.7110  133.2720   60.1490 O   0  0  0  0  0  0  0  0  0  0  0  0
  124.5440  129.8930   64.4680 S   0  0  0  0  0  0  0  0  0  0  0  0
  124.6820  128.9040   65.9670 C   0  0  2  0  0  0  0  0  0  0  0  0
  124.1400  129.7200   67.1590 C   0  0  0  0  0  0  0  0  0  0  0  0
  125.9230  127.3770   68.2530 C   0  0  0  0  0  0  0  0  0  0  0  0
  126.3550  127.0570   69.5410 C   0  0  0  0  0  0  0  0  0  0  0  0
  127.6090  127.4950   69.9870 C   0  0  0  0  0  0  0  0  0  0  0  0
  129.5430  124.6680   73.0780 C   0  0  0  0  0  0  0  0  0  0  0  0
  130.5580  124.2710   73.9440 C   0  0  0  0  0  0  0  0  0  0  0  0
  131.8568  124.8659   76.8575 H   0  0  0  0  0  0  0  0  0  0  0  0
  132.4265  123.6816   75.6329 H   0  0  0  0  0  0  0  0  0  0  0  0
  133.0760  125.3564   75.6329 H   0  0  0  0  0  0  0  0  0  0  0  0
  130.9918  127.1896   75.6627 H   0  0  0  0  0  0  0  0  0  0  0  0
  129.1814  127.9053   74.1073 H   0  0  0  0  0  0  0  0  0  0  0  0
  129.6775  128.6625   72.0892 H   0  0  0  0  0  0  0  0  0  0  0  0
  130.3564  127.2952   71.1860 H   0  0  0  0  0  0  0  0  0  0  0  0
  129.3959  129.9449   70.1840 H   0  0  0  0  0  0  0  0  0  0  0  0
  130.4817  128.8312   69.3824 H   0  0  0  0  0  0  0  0  0  0  0  0
  128.5320  129.3425   67.2644 H   0  0  0  0  0  0  0  0  0  0  0  0
  126.2764  127.5845   65.4451 H   0  0  0  0  0  0  0  0  0  0  0  0
  126.0010  131.7490   63.2460 H   0  0  0  0  0  0  0  0  0  0  0  0
  127.0814  133.3256   62.3912 H   0  0  0  0  0  0  0  0  0  0  0  0
  128.2604  134.0645   63.5234 H   0  0  0  0  0  0  0  0  0  0  0  0
  133.3605  131.9815   60.0647 H   0  0  0  0  0  0  0  0  0  0  0  0
  133.1924  132.0373   57.5749 H   0  0  0  0  0  0  0  0  0  0  0  0
  131.0104  132.5387   56.4785 H   0  0  0  0  0  0  0  0  0  0  0  0
  128.9836  132.9892   57.8673 H   0  0  0  0  0  0  0  0  0  0  0  0
  124.0826  127.9823   66.0016 H   0  0  0  0  0  0  0  0  0  0  0  0
  124.4545  129.2465   68.1007 H   0  0  0  0  0  0  0  0  0  0  0  0
  124.5377  130.7446   67.1130 H   0  0  0  0  0  0  0  0  0  0  0  0
  123.0414  129.7507   67.1130 H   0  0  0  0  0  0  0  0  0  0  0  0
  124.9561  126.9950   67.8937 H   0  0  0  0  0  0  0  0  0  0  0  0
  125.7116  126.4615   70.2054 H   0  0  0  0  0  0  0  0  0  0  0  0
  129.1469  123.9589   72.3362 H   0  0  0  0  0  0  0  0  0  0  0  0
  130.9566  123.2471   73.8911 H   0  0  0  0  0  0  0  0  0  0  0  0
  1  2  1  0
  2  3  2  0
  3  4  1  0
  4  5  2  0
  5  6  1  0
  6  7  2  0
  6  8  1  0
  8  9  1  0
  9 10  1  0
 10 11  1  0
 11 12  2  0
 12 13  1  0
 13 14  1  0
 14 15  1  0
 15 16  2  0
 16 17  1  0
 17 18  1  0
 18 19  2  0
 18 20  1  0
 20 21  1  0
 21 22  1  0
 22 23  2  0
 23 24  1  0
 24 25  2  0
 25 26  1  0
 26 27  2  0
 27 28  1  0
 28 29  2  0
 29 30  1  0
 30 31  2  0
 16 32  1  0
 32 33  1  0
 33 34  1  0
 13 35  2  0
 35 36  1  0
 36 37  2  0
  5 38  1  0
 38 39  2  0
 39  2  1  0
 37  8  1  0
 37 11  1  0
 33 14  1  0
 30 21  1  0
 29 24  1  0
  1 40  1  0
  1 41  1  0
  1 42  1  0
  3 43  1  0
  4 44  1  0
  9 45  1  0
  9 46  1  0
 10 47  1  0
 10 48  1  0
 12 49  1  0
 14 50  1  6
 17 51  1  0
 20 52  1  0
 20 53  1  0
 25 54  1  0
 26 55  1  0
 27 56  1  0
 28 57  1  0
 33 58  1  6
 34 59  1  0
 34 60  1  0
 34 61  1  0
 35 62  1  0
 36 63  1  0
 38 64  1  0
 39 65  1  0
M  END
>  <Binding energies>  (1) 
[-10.51]

>  <Ligand effiencies>  (1) 
[-0.26275]

>  <Interactions>  (1) 
["V-B:GLU:543:CB:9877, V-A:HIS:456:CE1:4069, V-A:HIS:456:CD2:4067, V-A:HIS:456:CB:4064, V-B:ARG:545:CD:9894, V-B:GLU:543:CD:9879, V-B:HIS:456:CE1:9040, V-A:HIS:456:CG:4065, V-B:ARG:545:CG:9893, V-B:ARG:545:CZ:9897, V-A:GLU:543:CB:4905, V-B:GLU:543:CG:9878, V-A:PRO:540:C:4880, V-A:PRO:540:CA:4882, V-A:TYR:539:CD1:4872, V-A:PRO:540:N:4883, V-A:PRO:540:CB:4884, V-A:TYR:539:C:4866, H-A:ALA:541:N:4890, V-A:ALA:541:CB:4891, H-B:GLY:454:N:9020, H-B:ARG:545:NH2:9899, H-B:ARG:545:N:9891"]

$$$$
RR24_Rahimova_2017
     RDKit          3D

 65 71  0  0  0  0  0  0  0  0999 V2000
  133.7810  130.7080   60.1360 C   0  0  0  0  0  0  0  0  0  0  0  0
  132.8030  131.8660   60.3800 C   0  0  2  0  0  0  0  0  0  0  0  0
  131.8280  131.6050   61.5660 C   0  0  0  0  0  0  0  0  0  0  0  0
  131.3750  132.5240   62.2570 O   0  0  0  0  0  0  0  0  0  0  0  0
  131.5710  130.2770   61.7500 O   0  0  0  0  0  0  0  0  0  0  0  0
  130.3490  129.7630   61.3800 C   0  0  0  0  0  0  0  0  0  0  0  0
  130.2870  128.8140   60.3570 C   0  0  0  0  0  0  0  0  0  0  0  0
  129.0580  128.2800   59.9810 C   0  0  0  0  0  0  0  0  0  0  0  0
  127.8880  128.6850   60.6300 C   0  0  0  0  0  0  0  0  0  0  0  0
  126.5350  128.1080   60.1970 C   0  0  1  0  0  0  0  0  0  0  0  0
  125.7730  129.0670   59.2530 C   0  0  0  0  0  0  0  0  0  0  0  0
  125.2620  128.6730   58.0730 C   0  0  0  0  0  0  0  0  0  0  0  0
  125.3820  127.3830   57.6170 N   0  0  0  0  0  0  0  0  0  0  0  0
  126.0380  126.4240   58.3520 C   0  0  0  0  0  0  0  0  0  0  0  0
  126.0610  125.1990   57.7660 N   0  0  0  0  0  0  0  0  0  0  0  0
  126.7310  124.1460   58.3070 C   0  0  0  0  0  0  0  0  0  0  0  0
  126.9890  123.1690   57.6010 O   0  0  0  0  0  0  0  0  0  0  0  0
  127.2030  124.3750   59.5900 N   0  0  0  0  0  0  0  0  0  0  0  0
  127.8600  123.2330   60.2590 C   0  0  0  0  0  0  0  0  0  0  0  0
  127.2330  125.5760   60.2770 C   0  0  0  0  0  0  0  0  0  0  0  0
  127.7180  125.7190   61.4030 O   0  0  0  0  0  0  0  0  0  0  0  0
  126.6060  126.6900   59.5570 C   0  0  0  0  0  0  0  0  0  0  0  0
  124.6010  129.7790   57.3990 C   0  0  0  0  0  0  0  0  0  0  0  0
  123.9350  129.8880   56.1780 C   0  0  0  0  0  0  0  0  0  0  0  0
  123.3960  131.1210   55.8040 C   0  0  0  0  0  0  0  0  0  0  0  0
  123.5220  132.2300   56.6460 C   0  0  0  0  0  0  0  0  0  0  0  0
  124.1910  132.1140   57.8680 C   0  0  0  0  0  0  0  0  0  0  0  0
  124.7290  130.8800   58.2360 C   0  0  0  0  0  0  0  0  0  0  0  0
  125.4700  130.4800   59.4510 C   0  0  0  0  0  0  0  0  0  0  0  0
  125.7870  131.1480   60.4340 O   0  0  0  0  0  0  0  0  0  0  0  0
  127.9560  129.6220   61.6660 C   0  0  0  0  0  0  0  0  0  0  0  0
  129.1850  130.1550   62.0440 C   0  0  0  0  0  0  0  0  0  0  0  0
  132.0880  132.2680   59.1340 N   0  0  0  0  0  0  0  0  0  0  0  0
  132.7260  132.3240   57.9310 C   0  0  0  0  0  0  0  0  0  0  0  0
  133.9120  132.0770   57.7020 O   0  0  0  0  0  0  0  0  0  0  0  0
  131.6920  132.7460   56.9540 C   0  0  0  0  0  0  0  0  0  0  0  0
  131.7720  132.9690   55.5780 C   0  0  0  0  0  0  0  0  0  0  0  0
  130.6160  133.3650   54.8960 C   0  0  0  0  0  0  0  0  0  0  0  0
  129.4090  133.5290   55.5880 C   0  0  0  0  0  0  0  0  0  0  0  0
  129.3490  133.2990   56.9670 C   0  0  0  0  0  0  0  0  0  0  0  0
  130.5130  132.9070   57.6300 C   0  0  0  0  0  0  0  0  0  0  0  0
  130.7600  132.5920   59.0590 C   0  0  0  0  0  0  0  0  0  0  0  0
  129.9420  132.6140   59.9790 O   0  0  0  0  0  0  0  0  0  0  0  0
  134.1209  130.3055   61.1016 H   0  0  0  0  0  0  0  0  0  0  0  0
  133.2752  129.9149   59.5658 H   0  0  0  0  0  0  0  0  0  0  0  0
  134.6476  131.0739   59.5658 H   0  0  0  0  0  0  0  0  0  0  0  0
  133.4192  132.7243   60.6861 H   0  0  0  0  0  0  0  0  0  0  0  0
  131.2075  128.4894   59.8497 H   0  0  0  0  0  0  0  0  0  0  0  0
  129.0072  127.5374   59.1711 H   0  0  0  0  0  0  0  0  0  0  0  0
  125.9795  127.9983   61.1401 H   0  0  0  0  0  0  0  0  0  0  0  0
  124.9800  127.1290   56.7250 H   0  0  0  0  0  0  0  0  0  0  0  0
  125.5960  125.0380   56.8840 H   0  0  0  0  0  0  0  0  0  0  0  0
  127.7889  123.3566   61.3497 H   0  0  0  0  0  0  0  0  0  0  0  0
  127.3616  122.2982   59.9627 H   0  0  0  0  0  0  0  0  0  0  0  0
  128.9186  123.1940   59.9627 H   0  0  0  0  0  0  0  0  0  0  0  0
  123.8356  129.0136   55.5180 H   0  0  0  0  0  0  0  0  0  0  0  0
  122.8701  131.2200   54.8429 H   0  0  0  0  0  0  0  0  0  0  0  0
  123.0931  133.1974   56.3458 H   0  0  0  0  0  0  0  0  0  0  0  0
  124.2922  132.9853   58.5318 H   0  0  0  0  0  0  0  0  0  0  0  0
  127.0376  129.9380   62.1825 H   0  0  0  0  0  0  0  0  0  0  0  0
  129.2392  130.8846   62.8654 H   0  0  0  0  0  0  0  0  0  0  0  0
  132.7232  132.8363   55.0416 H   0  0  0  0  0  0  0  0  0  0  0  0
  130.6552  133.5483   53.8121 H   0  0  0  0  0  0  0  0  0  0  0  0
  128.5044  133.8400   55.0449 H   0  0  0  0  0  0  0  0  0  0  0  0
  128.4046  133.4245   57.5168 H   0  0  0  0  0  0  0  0  0  0  0  0
  1  2  1  0
  2  3  1  0
  3  4  2  0
  3  5  1  0
  5  6  1  0
  6  7  2  0
  7  8  1  0
  8  9  2  0
  9 10  1  0
 10 11  1  0
 11 12  2  0
 12 13  1  0
 13 14  1  0
 14 15  1  0
 15 16  1  0
 16 17  2  0
 16 18  1  0
 18 19  1  0
 18 20  1  0
 20 21  2  0
 20 22  1  0
 12 23  1  0
 23 24  2  0
 24 25  1  0
 25 26  2  0
 26 27  1  0
 27 28  2  0
 28 29  1  0
 29 30  2  0
  9 31  1  0
 31 32  2  0
  2 33  1  0
 33 34  1  0
 34 35  2  0
 34 36  1  0
 36 37  2  0
 37 38  1  0
 38 39  2  0
 39 40  1  0
 40 41  2  0
 41 42  1  0
 42 43  2  0
 32  6  1  0
 42 33  1  0
 22 10  1  0
 28 23  1  0
 41 36  1  0
 29 11  1  0
 22 14  2  0
  1 44  1  0
  1 45  1  0
  1 46  1  0
  2 47  1  1
  7 48  1  0
  8 49  1  0
 10 50  1  1
 13 51  1  0
 15 52  1  0
 19 53  1  0
 19 54  1  0
 19 55  1  0
 24 56  1  0
 25 57  1  0
 26 58  1  0
 27 59  1  0
 31 60  1  0
 32 61  1  0
 37 62  1  0
 38 63  1  0
 39 64  1  0
 40 65  1  0
M  END
>  <Binding energies>  (1) 
[-10.46]

>  <Ligand effiencies>  (1) 
[-0.23244444444444445]

>  <Interactions>  (1) 
["V-B:TYR:531:CZ:9765, V-B:ASP:366:CB:8182, H-B:TYR:531:OH:9766, V-B:PRO:540:CA:9854, V-A:ASP:366:CG:3212, V-A:ASP:366:CB:3211, V-A:ASN:362:C:3171, V-A:TYR:531:CE2:4792, V-A:LEU:363:CA:3184, V-A:LEU:363:CD1:3188, V-A:PRO:540:CA:4882, V-A:TYR:531:CZ:4793, V-A:TYR:539:CD1:4872, V-A:ILE:538:CG2:4862, V-A:PRO:540:N:4883, V-A:PRO:540:CB:4884, V-A:TYR:539:C:4866, V-A:TYR:539:CE1:4874, V-A:MET:535:CG:4832, V-A:ILE:538:CB:4861, V-A:ILE:538:CA:4859, H-A:ALA:541:N:4890, H-A:ARG:545:NH2:4927, V-B:ILE:369:CG2:8207, V-B:ILE:369:CB:8206, V-A:TYR:539:CZ:4876, V-B:TYR:531:CE1:9763, V-B:ASN:370:CB:8215, V-B:ASN:370:CA:8213, V-B:ASP:366:C:8178, V-B:TYR:531:CD1:9761, V-B:ILE:369:C:8202, V-A:TYR:539:CD2:4873, V-A:TYR:539:CE2:4875, V-A:TYR:539:CG:4871, V-B:ASN:370:CG:8216"]

$$$$
RR24_Rahimova_2017-again1
     RDKit          3D

 63 69  0  0  0  0  0  0  0  0999 V2000
  129.0460  121.3770   61.7240 C   0  0  0  0  0  0  0  0  0  0  0  0
  128.8200  122.8920   61.6350 C   0  0  2  0  0  0  0  0  0  0  0  0
  128.7200  123.5840   63.0250 C   0  0  0  0  0  0  0  0  0  0  0  0
  128.0500  123.1050   63.9480 O   0  0  0  0  0  0  0  0  0  0  0  0
  129.4190  124.7560   63.0820 O   0  0  0  0  0  0  0  0  0  0  0  0
  128.7420  125.9440   63.2310 C   0  0  0  0  0  0  0  0  0  0  0  0
  127.4540  126.0730   62.7070 C   0  0  0  0  0  0  0  0  0  0  0  0
  126.7550  127.2660   62.8700 C   0  0  0  0  0  0  0  0  0  0  0  0
  127.3360  128.3330   63.5640 C   0  0  0  0  0  0  0  0  0  0  0  0
  126.5690  129.6500   63.7460 C   0  0  1  0  0  0  0  0  0  0  0  0
  125.9240  130.1140   62.4200 C   0  0  0  0  0  0  0  0  0  0  0  0
  126.4550  130.4960   61.2360 C   0  0  0  0  0  0  0  0  0  0  0  0
  127.7170  130.5840   60.9870 O   0  0  0  0  0  0  0  0  0  0  0  0
  125.3930  130.7670   60.2680 C   0  0  0  0  0  0  0  0  0  0  0  0
  125.4170  131.1720   58.9270 C   0  0  0  0  0  0  0  0  0  0  0  0
  124.2160  131.3490   58.2390 C   0  0  0  0  0  0  0  0  0  0  0  0
  122.9990  131.1260   58.8860 C   0  0  0  0  0  0  0  0  0  0  0  0
  122.9790  130.7240   60.2230 C   0  0  0  0  0  0  0  0  0  0  0  0
  124.1830  130.5430   60.9090 C   0  0  0  0  0  0  0  0  0  0  0  0
  124.4790  130.1570   62.2770 C   0  0  0  0  0  0  0  0  0  0  0  0
  123.6860  129.8960   63.2480 N   0  0  0  0  0  0  0  0  0  0  0  0
  124.1500  129.6670   64.5090 C   0  0  0  0  0  0  0  0  0  0  0  0
  123.1530  129.5700   65.4370 N   0  0  0  0  0  0  0  0  0  0  0  0
  123.4550  129.3380   66.6650 C   0  0  0  0  0  0  0  0  0  0  0  0
  122.4700  129.2640   67.4180 O   0  0  0  0  0  0  0  0  0  0  0  0
  124.7730  129.1890   67.0930 N   0  0  0  0  0  0  0  0  0  0  0  0
  125.1530  128.9190   68.5000 C   0  0  0  0  0  0  0  0  0  0  0  0
  125.8460  129.2890   66.2290 C   0  0  0  0  0  0  0  0  0  0  0  0
  127.0290  129.1870   66.5710 O   0  0  0  0  0  0  0  0  0  0  0  0
  125.4740  129.5410   64.8330 C   0  0  0  0  0  0  0  0  0  0  0  0
  128.6210  128.1950   64.0970 C   0  0  0  0  0  0  0  0  0  0  0  0
  129.3200  127.0030   63.9370 C   0  0  0  0  0  0  0  0  0  0  0  0
  127.6700  123.2350   60.7470 N   0  0  0  0  0  0  0  0  0  0  0  0
  126.4070  123.3780   61.2390 C   0  0  0  0  0  0  0  0  0  0  0  0
  126.0400  123.2510   62.4080 O   0  0  0  0  0  0  0  0  0  0  0  0
  125.5630  123.7180   60.0660 C   0  0  0  0  0  0  0  0  0  0  0  0
  124.1930  123.9700   59.9670 C   0  0  0  0  0  0  0  0  0  0  0  0
  123.6570  124.2700   58.7100 C   0  0  0  0  0  0  0  0  0  0  0  0
  124.4850  124.3160   57.5810 C   0  0  0  0  0  0  0  0  0  0  0  0
  125.8550  124.0610   57.7010 C   0  0  0  0  0  0  0  0  0  0  0  0
  126.3710  123.7610   58.9630 C   0  0  0  0  0  0  0  0  0  0  0  0
  127.7560  123.4530   59.3990 C   0  0  0  0  0  0  0  0  0  0  0  0
  128.7660  123.4060   58.6970 O   0  0  0  0  0  0  0  0  0  0  0  0
  129.0911  121.0745   62.7806 H   0  0  0  0  0  0  0  0  0  0  0  0
  128.2161  120.8527   61.2276 H   0  0  0  0  0  0  0  0  0  0  0  0
  129.9928  121.1177   61.2276 H   0  0  0  0  0  0  0  0  0  0  0  0
  129.7253  123.3041   61.1654 H   0  0  0  0  0  0  0  0  0  0  0  0
  126.9925  125.2335   62.1664 H   0  0  0  0  0  0  0  0  0  0  0  0
  125.7429  127.3700   62.4519 H   0  0  0  0  0  0  0  0  0  0  0  0
  127.3105  130.3949   64.0704 H   0  0  0  0  0  0  0  0  0  0  0  0
  126.3767  131.3494   58.4196 H   0  0  0  0  0  0  0  0  0  0  0  0
  124.2281  131.6647   57.1853 H   0  0  0  0  0  0  0  0  0  0  0  0
  122.0539  131.2673   58.3412 H   0  0  0  0  0  0  0  0  0  0  0  0
  122.0203  130.5506   60.7338 H   0  0  0  0  0  0  0  0  0  0  0  0
  124.4445  129.4224   69.1742 H   0  0  0  0  0  0  0  0  0  0  0  0
  125.1281  127.8350   68.6850 H   0  0  0  0  0  0  0  0  0  0  0  0
  126.1685  129.2993   68.6850 H   0  0  0  0  0  0  0  0  0  0  0  0
  129.0806  129.0312   64.6443 H   0  0  0  0  0  0  0  0  0  0  0  0
  130.3271  126.8938   64.3658 H   0  0  0  0  0  0  0  0  0  0  0  0
  123.5492  123.9334   60.8581 H   0  0  0  0  0  0  0  0  0  0  0  0
  122.5803  124.4707   58.6077 H   0  0  0  0  0  0  0  0  0  0  0  0
  124.0561  124.5536   56.5963 H   0  0  0  0  0  0  0  0  0  0  0  0
  126.5121  124.0961   56.8195 H   0  0  0  0  0  0  0  0  0  0  0  0
  1  2  1  0
  2  3  1  0
  3  4  2  0
  3  5  1  0
  5  6  1  0
  6  7  2  0
  7  8  1  0
  8  9  2  0
  9 10  1  0
 10 11  1  0
 11 12  2  0
 12 13  1  0
 12 14  1  0
 14 15  2  0
 15 16  1  0
 16 17  2  0
 17 18  1  0
 18 19  2  0
 19 20  1  0
 20 21  2  0
 21 22  1  0
 22 23  1  0
 23 24  2  0
 24 25  1  0
 24 26  1  0
 26 27  1  0
 26 28  1  0
 28 29  2  0
 28 30  1  0
  9 31  1  0
 31 32  2  0
  2 33  1  0
 33 34  1  0
 34 35  2  0
 34 36  1  0
 36 37  2  0
 37 38  1  0
 38 39  2  0
 39 40  1  0
 40 41  2  0
 41 42  1  0
 42 43  2  0
 32  6  1  0
 42 33  1  0
 30 10  1  0
 41 36  1  0
 20 11  1  0
 30 22  2  0
 19 14  1  0
  1 44  1  0
  1 45  1  0
  1 46  1  0
  2 47  1  6
  7 48  1  0
  8 49  1  0
 10 50  1  1
 15 51  1  0
 16 52  1  0
 17 53  1  0
 18 54  1  0
 27 55  1  0
 27 56  1  0
 27 57  1  0
 31 58  1  0
 32 59  1  0
 37 60  1  0
 38 61  1  0
 39 62  1  0
 40 63  1  0
M  CHG  2  13  -1  25  -1
M  END
>  <Binding energies>  (1) 
[-9.28]

>  <Ligand effiencies>  (1) 
[-0.21581395348837207]

>  <Interactions>  (1) 
["V-B:ARG:545:CD:9894, V-B:GLU:543:CD:9879, V-B:HIS:456:CE1:9040, V-B:ARG:545:CG:9893, V-B:ASP:366:CG:8183, V-B:TYR:531:CZ:9765, V-B:ASP:366:CB:8182, V-B:LEU:363:CA:8155, V-B:PRO:540:CB:9856, V-B:TYR:531:CE2:9764, V-B:PRO:540:CA:9854, V-B:LEU:363:CD1:8159, V-B:GLY:453:C:9012, V-B:ARG:545:CZ:9897, V-B:ALA:541:CB:9863, H-B:TYR:484:OH:9318, H-B:ALA:541:N:9862, V-B:GLY:453:CA:9014, V-B:ASP:366:CA:8180, H-B:GLY:454:N:9020, V-B:TYR:484:CZ:9317, H-B:ARG:545:NH2:9899, V-B:ILE:369:CG1:8208, V-B:ILE:369:CG2:8207, V-B:ILE:369:CB:8206, V-B:ALA:541:CA:9861, H-B:ARG:545:NE:9895, H-B:ARG:545:NH1:9898, V-B:ASP:366:C:8178, V-B:PRO:540:C:9852, H-B:ILE:455:N:9025"]

$$$$
RR25_Rahimova_2017
     RDKit          3D

 63 68  0  0  0  0  0  0  0  0999 V2000
  124.2680  128.9060   68.5640 O   0  0  0  0  0  0  0  0  0  0  0  0
  125.3750  128.7880   68.0370 C   0  0  0  0  0  0  0  0  0  0  0  0
  126.4160  128.4750   68.8760 O   0  0  0  0  0  0  0  0  0  0  0  0
  127.6450  128.0740   68.3830 C   0  0  0  0  0  0  0  0  0  0  0  0
  128.4240  127.2740   69.2180 C   0  0  0  0  0  0  0  0  0  0  0  0
  129.6760  126.8410   68.7890 C   0  0  0  0  0  0  0  0  0  0  0  0
  130.1680  127.2020   67.5260 C   0  0  0  0  0  0  0  0  0  0  0  0
  131.4990  126.7320   67.0680 N   0  0  0  0  0  0  0  0  0  0  0  0
  131.5680  126.0890   66.0230 O   0  0  0  0  0  0  0  0  0  0  0  0
  132.4840  127.0020   67.7490 O   0  0  0  0  0  0  0  0  0  0  0  0
  129.3730  128.0180   66.7050 C   0  0  0  0  0  0  0  0  0  0  0  0
  128.1180  128.4680   67.1240 C   0  0  0  0  0  0  0  0  0  0  0  0
  127.2160  129.3420   66.2710 C   0  0  0  0  0  0  0  0  0  0  0  0
  125.7290  128.9730   66.5320 C   0  0  2  0  0  0  0  0  0  0  0  0
  124.7710  129.9160   65.7480 C   0  0  0  0  0  0  0  0  0  0  0  0
  123.7510  130.2720   66.3460 O   0  0  0  0  0  0  0  0  0  0  0  0
  125.0940  130.4250   64.5210 N   0  0  0  0  0  0  0  0  0  0  0  0
  126.1130  129.8120   63.6430 C   0  0  0  0  0  0  0  0  0  0  0  0
  126.8800  130.9310   62.9070 C   0  0  0  0  0  0  0  0  0  0  0  0
  125.9650  131.8190   62.1830 N   0  0  0  0  0  0  0  0  0  0  0  0
  126.6980  132.8030   61.3750 C   0  0  0  0  0  0  0  0  0  0  0  0
  128.0580  133.2080   62.0060 C   0  0  0  0  0  0  0  0  0  0  0  0
  129.2740  132.8960   61.2000 N   0  0  0  0  0  0  0  0  0  0  0  0
  130.3740  132.4930   61.9270 C   0  0  0  0  0  0  0  0  0  0  0  0
  130.3820  132.4250   63.1610 O   0  0  0  0  0  0  0  0  0  0  0  0
  131.5810  132.1170   61.0890 C   0  0  0  0  0  0  0  0  0  0  0  0
  132.7470  131.6690   61.7240 C   0  0  0  0  0  0  0  0  0  0  0  0
  133.8710  131.3070   60.9840 C   0  0  0  0  0  0  0  0  0  0  0  0
  133.8670  131.3780   59.5920 C   0  0  0  0  0  0  0  0  0  0  0  0
  132.7120  131.8260   58.9070 C   0  0  0  0  0  0  0  0  0  0  0  0
  132.6390  131.9200   57.4970 C   0  0  0  0  0  0  0  0  0  0  0  0
  131.4680  132.3660   56.8860 C   0  0  0  0  0  0  0  0  0  0  0  0
  130.3560  132.7260   57.6450 C   0  0  0  0  0  0  0  0  0  0  0  0
  130.3830  132.6480   59.0430 C   0  0  0  0  0  0  0  0  0  0  0  0
  131.5700  132.1940   59.6730 C   0  0  0  0  0  0  0  0  0  0  0  0
  129.1490  133.0400   59.8340 C   0  0  0  0  0  0  0  0  0  0  0  0
  128.1170  133.4370   59.2830 O   0  0  0  0  0  0  0  0  0  0  0  0
  125.0510  132.4660   63.1260 C   0  0  0  0  0  0  0  0  0  0  0  0
  124.2020  131.4310   63.9010 C   0  0  0  0  0  0  0  0  0  0  0  0
  128.0510  126.9860   70.2119 H   0  0  0  0  0  0  0  0  0  0  0  0
  130.2870  126.2077   69.4490 H   0  0  0  0  0  0  0  0  0  0  0  0
  129.7457  128.3089   65.7118 H   0  0  0  0  0  0  0  0  0  0  0  0
  127.3810  130.3986   66.5285 H   0  0  0  0  0  0  0  0  0  0  0  0
  127.4504  129.1794   65.2086 H   0  0  0  0  0  0  0  0  0  0  0  0
  125.5706  127.9647   66.1218 H   0  0  0  0  0  0  0  0  0  0  0  0
  126.8150  129.2208   64.2494 H   0  0  0  0  0  0  0  0  0  0  0  0
  125.6246  129.1522   62.9108 H   0  0  0  0  0  0  0  0  0  0  0  0
  127.4447  131.5219   63.6431 H   0  0  0  0  0  0  0  0  0  0  0  0
  127.5589  130.4642   62.1782 H   0  0  0  0  0  0  0  0  0  0  0  0
  126.8867  132.3709   60.3812 H   0  0  0  0  0  0  0  0  0  0  0  0
  126.0780  133.7097   61.3153 H   0  0  0  0  0  0  0  0  0  0  0  0
  128.0385  134.2943   62.1782 H   0  0  0  0  0  0  0  0  0  0  0  0
  128.1490  132.6073   62.9230 H   0  0  0  0  0  0  0  0  0  0  0  0
  132.7755  131.6021   62.8216 H   0  0  0  0  0  0  0  0  0  0  0  0
  134.7748  130.9601   61.5062 H   0  0  0  0  0  0  0  0  0  0  0  0
  134.7629  131.0854   59.0247 H   0  0  0  0  0  0  0  0  0  0  0  0
  133.5074  131.6408   56.8822 H   0  0  0  0  0  0  0  0  0  0  0  0
  131.4211  132.4347   55.7892 H   0  0  0  0  0  0  0  0  0  0  0  0
  129.4443  133.0763   57.1389 H   0  0  0  0  0  0  0  0  0  0  0  0
  125.6390  133.0551   63.8452 H   0  0  0  0  0  0  0  0  0  0  0  0
  124.3677  133.1107   62.5538 H   0  0  0  0  0  0  0  0  0  0  0  0
  123.6259  131.9433   64.6857 H   0  0  0  0  0  0  0  0  0  0  0  0
  123.5114  130.9300   63.2067 H   0  0  0  0  0  0  0  0  0  0  0  0
  1  2  2  0
  2  3  1  0
  3  4  1  0
  4  5  2  0
  5  6  1  0
  6  7  2  0
  7  8  1  0
  8  9  2  0
  8 10  1  0
  7 11  1  0
 11 12  2  0
 12 13  1  0
 13 14  1  0
 14 15  1  0
 15 16  2  0
 15 17  1  0
 17 18  1  0
 18 19  1  0
 19 20  1  0
 20 21  1  0
 21 22  1  0
 22 23  1  0
 23 24  1  0
 24 25  2  0
 24 26  1  0
 26 27  2  0
 27 28  1  0
 28 29  2  0
 29 30  1  0
 30 31  2  0
 31 32  1  0
 32 33  2  0
 33 34  1  0
 34 35  2  0
 34 36  1  0
 36 37  2  0
 20 38  1  0
 38 39  1  0
 14  2  1  0
 39 17  1  0
 12  4  1  0
 36 23  1  0
 35 26  1  0
 35 30  1  0
  5 40  1  0
  6 41  1  0
 11 42  1  0
 13 43  1  0
 13 44  1  0
 14 45  1  6
 18 46  1  0
 18 47  1  0
 19 48  1  0
 19 49  1  0
 21 50  1  0
 21 51  1  0
 22 52  1  0
 22 53  1  0
 27 54  1  0
 28 55  1  0
 29 56  1  0
 31 57  1  0
 32 58  1  0
 33 59  1  0
 38 60  1  0
 38 61  1  0
 39 62  1  0
 39 63  1  0
M  CHG  2   8   1  10  -1
M  END
>  <Binding energies>  (1) 
[-11.01]

>  <Ligand effiencies>  (1) 
[-0.2823076923076923]

>  <Interactions>  (1) 
["V-B:GLU:543:CB:9877, V-A:HIS:456:CE1:4069, V-B:GLU:543:CD:9879, V-B:HIS:456:CE1:9040, V-B:ARG:545:CG:9893, V-B:LEU:475:CD1:9228, V-B:GLY:454:CA:9019, V-A:GLU:543:CD:4907, V-A:GLU:543:CG:4906, V-A:ASP:366:CB:3211, H-B:TYR:484:OH:9318, H-A:TYR:484:OH:4347, V-A:ASN:362:C:3171, V-A:TYR:531:CE2:4792, V-A:LEU:363:CA:3184, V-A:ASN:362:CA:3173, V-A:LEU:363:CD1:3188, V-A:PRO:540:CA:4882, V-A:TYR:531:CZ:4793, V-A:TYR:539:CD1:4872, V-A:ASN:362:CB:3175, V-A:PRO:540:N:4883, V-A:PRO:540:CB:4884, V-A:TYR:539:C:4866, H-A:ALA:541:N:4890, V-A:ALA:541:CB:4891, H-B:GLY:454:N:9020, H-B:HIS:456:ND1:9037, H-A:ARG:545:NE:4923, H-B:ILE:455:N:9025"]

$$$$
RR26_Rahimova_2017
     RDKit          3D

 59 65  0  0  0  0  0  0  0  0999 V2000
  123.0040  135.2090   55.7630 C   0  0  0  0  0  0  0  0  0  0  0  0
  122.6490  136.6630   56.0470 C   0  0  0  0  0  0  0  0  0  0  0  0
  121.8430  137.3400   55.1260 C   0  0  0  0  0  0  0  0  0  0  0  0
  121.4540  138.6580   55.3540 C   0  0  0  0  0  0  0  0  0  0  0  0
  121.8630  139.3100   56.5130 C   0  0  0  0  0  0  0  0  0  0  0  0
  122.6650  138.6460   57.4390 C   0  0  0  0  0  0  0  0  0  0  0  0
  123.0740  137.3220   57.2220 C   0  0  0  0  0  0  0  0  0  0  0  0
  123.9500  136.6850   58.2620 C   0  0  0  0  0  0  0  0  0  0  0  0
  123.8360  135.4040   58.6000 N   0  0  0  0  0  0  0  0  0  0  0  0
  124.7730  135.2780   59.5010 C   0  0  0  0  0  0  0  0  0  0  0  0
  125.3670  134.0010   60.4970 S   0  0  0  0  0  0  0  0  0  0  0  0
  126.5790  135.1410   61.1940 C   0  0  0  0  0  0  0  0  0  0  0  0
  127.5090  134.8830   62.1410 C   0  0  0  0  0  0  0  0  0  0  0  0
  127.7660  133.6270   62.8260 C   0  0  0  0  0  0  0  0  0  0  0  0
  127.1430  133.1250   63.9590 C   0  0  0  0  0  0  0  0  0  0  0  0
  127.6780  131.8900   64.2230 N   0  0  0  0  0  0  0  0  0  0  0  0
  127.3490  130.9980   65.2760 C   0  0  0  0  0  0  0  0  0  0  0  0
  128.2130  130.8280   66.3690 C   0  0  0  0  0  0  0  0  0  0  0  0
  127.8790  129.9470   67.3940 C   0  0  0  0  0  0  0  0  0  0  0  0
  126.6830  129.2370   67.3330 C   0  0  0  0  0  0  0  0  0  0  0  0
  125.8150  129.4000   66.2550 C   0  0  0  0  0  0  0  0  0  0  0  0
  126.1470  130.2770   65.2270 C   0  0  0  0  0  0  0  0  0  0  0  0
  128.5920  131.5710   63.2940 N   0  0  0  0  0  0  0  0  0  0  0  0
  128.6590  132.5930   62.4630 C   0  0  0  0  0  0  0  0  0  0  0  0
  129.6070  132.5520   61.3050 C   0  0  0  0  0  0  0  0  0  0  0  0
  130.9030  132.0380   61.4660 C   0  0  0  0  0  0  0  0  0  0  0  0
  131.7950  131.9990   60.3930 C   0  0  0  0  0  0  0  0  0  0  0  0
  131.3970  132.4770   59.1470 C   0  0  0  0  0  0  0  0  0  0  0  0
  130.0980  132.9760   58.9690 C   0  0  0  0  0  0  0  0  0  0  0  0
  129.2110  133.0190   60.0430 C   0  0  0  0  0  0  0  0  0  0  0  0
  129.6740  133.5000   57.7630 O   0  0  0  0  0  0  0  0  0  0  0  0
  130.4660  133.1010   56.6400 C   0  0  0  0  0  0  0  0  0  0  0  0
  131.9740  133.2010   56.9760 C   0  0  0  0  0  0  0  0  0  0  0  0
  132.2940  132.3760   58.1020 O   0  0  0  0  0  0  0  0  0  0  0  0
  126.4710  136.4820   60.6260 C   0  0  0  0  0  0  0  0  0  0  0  0
  127.1340  137.4890   60.8790 O   0  0  0  0  0  0  0  0  0  0  0  0
  125.4270  136.4380   59.6890 N   0  0  0  0  0  0  0  0  0  0  0  0
  124.9030  137.3640   58.8820 N   0  0  0  0  0  0  0  0  0  0  0  0
  123.1353  134.6712   56.7136 H   0  0  0  0  0  0  0  0  0  0  0  0
  122.1940  134.7399   55.1852 H   0  0  0  0  0  0  0  0  0  0  0  0
  123.9390  135.1660   55.1852 H   0  0  0  0  0  0  0  0  0  0  0  0
  121.5126  136.8259   54.2114 H   0  0  0  0  0  0  0  0  0  0  0  0
  120.8249  139.1821   54.6194 H   0  0  0  0  0  0  0  0  0  0  0  0
  121.5534  140.3492   56.6982 H   0  0  0  0  0  0  0  0  0  0  0  0
  122.9821  139.1680   58.3539 H   0  0  0  0  0  0  0  0  0  0  0  0
  128.1508  135.7287   62.4288 H   0  0  0  0  0  0  0  0  0  0  0  0
  126.3583  133.6285   64.5428 H   0  0  0  0  0  0  0  0  0  0  0  0
  129.1562  131.3921   66.4159 H   0  0  0  0  0  0  0  0  0  0  0  0
  128.5577  129.8124   68.2491 H   0  0  0  0  0  0  0  0  0  0  0  0
  126.4207  128.5408   68.1433 H   0  0  0  0  0  0  0  0  0  0  0  0
  124.8706  128.8373   66.2169 H   0  0  0  0  0  0  0  0  0  0  0  0
  125.4649  130.4052   64.3736 H   0  0  0  0  0  0  0  0  0  0  0  0
  131.2197  131.6613   62.4498 H   0  0  0  0  0  0  0  0  0  0  0  0
  132.8078  131.5925   60.5310 H   0  0  0  0  0  0  0  0  0  0  0  0
  128.1969  133.4205   59.9006 H   0  0  0  0  0  0  0  0  0  0  0  0
  130.2222  132.0613   56.3764 H   0  0  0  0  0  0  0  0  0  0  0  0
  130.2453  133.7688   55.7942 H   0  0  0  0  0  0  0  0  0  0  0  0
  132.5611  132.8701   56.1066 H   0  0  0  0  0  0  0  0  0  0  0  0
  132.2147  134.2459   57.2214 H   0  0  0  0  0  0  0  0  0  0  0  0
  1  2  1  0
  2  3  2  0
  3  4  1  0
  4  5  2  0
  5  6  1  0
  6  7  2  0
  7  8  1  0
  8  9  1  0
  9 10  2  0
 10 11  1  0
 11 12  1  0
 12 13  2  0
 13 14  1  0
 14 15  2  0
 15 16  1  0
 16 17  1  0
 17 18  2  0
 18 19  1  0
 19 20  2  0
 20 21  1  0
 21 22  2  0
 16 23  1  0
 23 24  2  0
 24 25  1  0
 25 26  2  0
 26 27  1  0
 27 28  2  0
 28 29  1  0
 29 30  2  0
 29 31  1  0
 31 32  1  0
 32 33  1  0
 33 34  1  0
 12 35  1  0
 35 36  2  0
 35 37  1  0
 37 38  1  0
  7  2  1  0
 38  8  2  0
 37 10  1  0
 24 14  1  0
 30 25  1  0
 22 17  1  0
 34 28  1  0
  1 39  1  0
  1 40  1  0
  1 41  1  0
  3 42  1  0
  4 43  1  0
  5 44  1  0
  6 45  1  0
 13 46  1  0
 15 47  1  0
 18 48  1  0
 19 49  1  0
 20 50  1  0
 21 51  1  0
 22 52  1  0
 26 53  1  0
 27 54  1  0
 30 55  1  0
 32 56  1  0
 32 57  1  0
 33 58  1  0
 33 59  1  0
M  END
>  <Binding energies>  (1) 
[-11.56]

>  <Ligand effiencies>  (1) 
[-0.3042105263157895]

>  <Interactions>  (1) 
["V-B:LEU:475:CD1:9228, V-A:GLU:543:CD:4907, V-A:GLU:543:CG:4906, V-A:GLU:543:CB:4905, V-A:TYR:531:CE2:4792, V-A:LEU:363:CD1:3188, V-A:PRO:540:CA:4882, V-A:TYR:539:CD1:4872, V-A:PRO:540:CD:4886, V-A:PRO:540:N:4883, V-A:PRO:540:CB:4884, V-A:TYR:539:C:4866, V-A:TYR:539:CE1:4874, H-A:TYR:539:N:4869, V-A:ALA:541:CB:4891, V-B:TYR:484:CZ:9317, V-B:ILE:369:CG2:8207, V-A:TYR:539:CZ:4876, V-B:TYR:484:CE2:9316, V-B:SER:385:CB:8379, V-B:ASN:370:CA:8213, V-B:ILE:369:C:8202, V-A:TYR:539:CE2:4875, V-A:TYR:539:CG:4871, V-A:TYR:539:CB:4870, H-B:SER:385:OG:8380, H-B:HIS:383:NE2:8364, V-B:LEU:373:CD1:8250, V-B:HIS:383:CB:8359, V-B:HIS:383:CD2:8362, V-B:LEU:373:CD2:8251, V-B:LEU:373:CG:8249, V-B:HIS:383:CG:8360, V-B:ASN:372:CB:8237, V-B:VAL:384:C:8367, V-B:ASN:372:C:8233"]

$$$$
RR27_Rahimova_2017
     RDKit          3D

 66 71  0  0  0  0  0  0  0  0999 V2000
  127.3020  122.5090   60.2750 O   0  0  0  0  0  0  0  0  0  0  0  0
  127.2740  123.7420   60.2170 C   0  0  0  0  0  0  0  0  0  0  0  0
  127.4940  124.4220   58.8340 C   0  0  0  0  0  0  0  0  0  0  0  0
  126.8380  123.6540   57.6710 C   0  0  0  0  0  0  0  0  0  0  0  0
  127.5800  122.8200   56.8220 C   0  0  0  0  0  0  0  0  0  0  0  0
  126.9540  122.1390   55.7820 C   0  0  0  0  0  0  0  0  0  0  0  0
  125.5840  122.2890   55.5860 C   0  0  0  0  0  0  0  0  0  0  0  0
  124.8350  123.1150   56.4190 C   0  0  0  0  0  0  0  0  0  0  0  0
  125.4610  123.7960   57.4590 C   0  0  0  0  0  0  0  0  0  0  0  0
  128.9720  124.7980   58.6110 C   0  0  0  0  0  0  0  0  0  0  0  0
  129.9810  124.3700   59.4840 C   0  0  0  0  0  0  0  0  0  0  0  0
  131.3060  124.7370   59.2590 C   0  0  0  0  0  0  0  0  0  0  0  0
  131.6240  125.5380   58.1660 C   0  0  0  0  0  0  0  0  0  0  0  0
  130.6300  125.9800   57.2970 C   0  0  0  0  0  0  0  0  0  0  0  0
  129.3070  125.6130   57.5230 C   0  0  0  0  0  0  0  0  0  0  0  0
  126.9090  124.5000   61.2900 N   0  0  0  0  0  0  0  0  0  0  0  0
  127.1000  125.9560   61.3570 C   0  0  0  0  0  0  0  0  0  0  0  0
  128.5220  126.1970   61.9110 C   0  0  0  0  0  0  0  0  0  0  0  0
  128.7660  125.4800   63.2770 C   0  0  0  0  0  0  0  0  0  0  0  0
  130.2040  125.5950   63.8180 C   0  0  0  0  0  0  0  0  0  0  0  0
  130.3450  126.1580   65.0530 N   0  0  0  0  0  0  0  0  0  0  0  0
  131.5930  126.2580   65.5890 C   0  0  0  0  0  0  0  0  0  0  0  0
  131.8600  126.7980   66.8200 O   0  0  0  0  0  0  0  0  0  0  0  0
  132.6880  125.7780   64.8450 C   0  0  0  0  0  0  0  0  0  0  0  0
  134.0300  125.7200   65.0780 N   0  0  0  0  0  0  0  0  0  0  0  0
  134.6160  125.1420   63.9680 N   0  0  0  0  0  0  0  0  0  0  0  0
  133.6510  124.8430   63.0720 N   0  0  0  0  0  0  0  0  0  0  0  0
  133.9930  124.2410   61.7860 C   0  0  0  0  0  0  0  0  0  0  0  0
  133.3850  122.8610   61.5750 C   0  0  0  0  0  0  0  0  0  0  0  0
  134.2110  121.7510   61.3720 C   0  0  0  0  0  0  0  0  0  0  0  0
  133.6540  120.4840   61.1900 C   0  0  0  0  0  0  0  0  0  0  0  0
  132.2690  120.3200   61.2140 C   0  0  0  0  0  0  0  0  0  0  0  0
  131.4390  121.4220   61.4260 C   0  0  0  0  0  0  0  0  0  0  0  0
  129.7260  121.2170   61.4840 Cl  0  0  0  0  0  0  0  0  0  0  0  0
  131.9960  122.6900   61.6010 C   0  0  0  0  0  0  0  0  0  0  0  0
  132.4180  125.2280   63.5740 C   0  0  0  0  0  0  0  0  0  0  0  0
  131.2060  125.1240   63.0220 N   0  0  0  0  0  0  0  0  0  0  0  0
  128.2210  124.0190   63.2740 C   0  0  0  0  0  0  0  0  0  0  0  0
  126.8180  123.8930   62.6270 C   0  0  0  0  0  0  0  0  0  0  0  0
  126.9518  125.3790   58.8497 H   0  0  0  0  0  0  0  0  0  0  0  0
  128.6625  122.7035   56.9789 H   0  0  0  0  0  0  0  0  0  0  0  0
  127.5390  121.4854   55.1182 H   0  0  0  0  0  0  0  0  0  0  0  0
  125.0888  121.7497   54.7651 H   0  0  0  0  0  0  0  0  0  0  0  0
  123.7531  123.2291   56.2561 H   0  0  0  0  0  0  0  0  0  0  0  0
  124.8708  124.4495   58.1182 H   0  0  0  0  0  0  0  0  0  0  0  0
  129.7260  123.7419   60.3503 H   0  0  0  0  0  0  0  0  0  0  0  0
  132.0975  124.3952   59.9422 H   0  0  0  0  0  0  0  0  0  0  0  0
  132.6708  125.8246   57.9870 H   0  0  0  0  0  0  0  0  0  0  0  0
  130.8890  126.6153   56.4372 H   0  0  0  0  0  0  0  0  0  0  0  0
  128.5186  125.9658   56.8419 H   0  0  0  0  0  0  0  0  0  0  0  0
  127.0053  126.3965   60.3535 H   0  0  0  0  0  0  0  0  0  0  0  0
  126.3416  126.4233   62.0023 H   0  0  0  0  0  0  0  0  0  0  0  0
  129.2529  125.8203   61.1803 H   0  0  0  0  0  0  0  0  0  0  0  0
  128.6346  127.2783   62.0785 H   0  0  0  0  0  0  0  0  0  0  0  0
  128.1693  126.0427   64.0101 H   0  0  0  0  0  0  0  0  0  0  0  0
  132.0750  127.7320   66.7760 H   0  0  0  0  0  0  0  0  0  0  0  0
  133.6341  124.9047   60.9855 H   0  0  0  0  0  0  0  0  0  0  0  0
  135.0858  124.1166   61.7698 H   0  0  0  0  0  0  0  0  0  0  0  0
  135.3037  121.8767   61.3557 H   0  0  0  0  0  0  0  0  0  0  0  0
  134.3077  119.6144   61.0276 H   0  0  0  0  0  0  0  0  0  0  0  0
  131.8308  119.3220   61.0658 H   0  0  0  0  0  0  0  0  0  0  0  0
  131.3403  123.5588   61.7601 H   0  0  0  0  0  0  0  0  0  0  0  0
  128.9232  123.3849   62.7129 H   0  0  0  0  0  0  0  0  0  0  0  0
  128.1272  123.7025   64.3233 H   0  0  0  0  0  0  0  0  0  0  0  0
  126.5337  122.8337   62.5431 H   0  0  0  0  0  0  0  0  0  0  0  0
  126.0554  124.3980   63.2381 H   0  0  0  0  0  0  0  0  0  0  0  0
  1  2  2  0
  2  3  1  0
  3  4  1  0
  4  5  2  0
  5  6  1  0
  6  7  2  0
  7  8  1  0
  8  9  2  0
  3 10  1  0
 10 11  2  0
 11 12  1  0
 12 13  2  0
 13 14  1  0
 14 15  2  0
  2 16  1  0
 16 17  1  0
 17 18  1  0
 18 19  1  0
 19 20  1  0
 20 21  2  0
 21 22  1  0
 22 23  1  0
 22 24  2  0
 24 25  1  0
 25 26  2  0
 26 27  1  0
 27 28  1  0
 28 29  1  0
 29 30  2  0
 30 31  1  0
 31 32  2  0
 32 33  1  0
 33 34  1  0
 33 35  2  0
 27 36  1  0
 36 37  2  0
 19 38  1  0
 38 39  1  0
  9  4  1  0
 15 10  1  0
 39 16  1  0
 37 20  1  0
 36 24  1  0
 35 29  1  0
  3 40  1  0
  5 41  1  0
  6 42  1  0
  7 43  1  0
  8 44  1  0
  9 45  1  0
 11 46  1  0
 12 47  1  0
 13 48  1  0
 14 49  1  0
 15 50  1  0
 17 51  1  0
 17 52  1  0
 18 53  1  0
 18 54  1  0
 19 55  1  0
 23 56  1  0
 28 57  1  0
 28 58  1  0
 30 59  1  0
 31 60  1  0
 32 61  1  0
 35 62  1  0
 38 63  1  0
 38 64  1  0
 39 65  1  0
 39 66  1  0
M  END
>  <Binding energies>  (1) 
[-10.66]

>  <Ligand effiencies>  (1) 
[-0.2665]

>  <Interactions>  (1) 
["V-B:GLU:543:CD:9879, V-B:TYR:531:CZ:9765, V-A:ARG:545:CZ:4925, V-B:TYR:539:CD2:9845, V-B:MET:535:CE:9806, V-B:TYR:531:CE2:9764, V-B:PRO:540:CA:9854, V-B:LEU:363:CD1:8159, V-B:TYR:539:CE2:9847, V-A:LEU:475:CD2:4258, V-B:ILE:538:CB:9833, V-B:ALA:541:CB:9863, V-B:TYR:539:CZ:9848, V-A:ASP:366:CG:3212, V-A:SER:385:CB:3408, V-B:TYR:539:CE1:9846, V-B:MET:535:CG:9804, V-B:TYR:539:CD1:9844, V-A:ILE:369:CG2:3236, V-B:ILE:538:CD1:9836, V-B:TYR:539:CG:9843, V-B:ILE:538:CG2:9834, V-A:ILE:369:CD1:3238, V-B:ILE:538:CA:9831, V-A:ASP:366:CB:3211, V-A:SER:385:CA:3406, H-A:TYR:484:OH:4347, H-A:GLY:454:N:4049, V-B:GLU:543:CG:9878, V-B:PRO:540:CD:9858, H-B:ALA:541:N:9862, V-B:ILE:538:C:9829, H-A:ARG:545:NH2:4927, H-A:GLU:543:OE2:4909, H-A:GLU:543:OE1:4908, H-A:ARG:545:NH1:4926, H-A:ARG:545:NE:4923, V-A:SER:385:C:3404"]

$$$$
RR27_Rahimova_2017-again1
     RDKit          3D

 66 71  0  0  0  0  0  0  0  0999 V2000
  126.7960  122.5330   61.1700 O   0  0  0  0  0  0  0  0  0  0  0  0
  127.2000  123.4220   60.4130 C   0  0  0  0  0  0  0  0  0  0  0  0
  127.9800  122.9990   59.1320 C   0  0  0  0  0  0  0  0  0  0  0  0
  129.2250  123.8710   58.8850 C   0  0  0  0  0  0  0  0  0  0  0  0
  129.3220  124.7370   57.7840 C   0  0  0  0  0  0  0  0  0  0  0  0
  130.4630  125.5120   57.5960 C   0  0  0  0  0  0  0  0  0  0  0  0
  131.5140  125.4240   58.5040 C   0  0  0  0  0  0  0  0  0  0  0  0
  131.4330  124.5720   59.6000 C   0  0  0  0  0  0  0  0  0  0  0  0
  130.2920  123.7980   59.7890 C   0  0  0  0  0  0  0  0  0  0  0  0
  127.0550  122.8770   57.9060 C   0  0  0  0  0  0  0  0  0  0  0  0
  125.7210  123.3090   57.9500 C   0  0  0  0  0  0  0  0  0  0  0  0
  124.8990  123.1690   56.8350 C   0  0  0  0  0  0  0  0  0  0  0  0
  125.4060  122.6010   55.6700 C   0  0  0  0  0  0  0  0  0  0  0  0
  126.7270  122.1680   55.6110 C   0  0  0  0  0  0  0  0  0  0  0  0
  127.5480  122.2990   56.7280 C   0  0  0  0  0  0  0  0  0  0  0  0
  126.8380  124.7250   60.5960 N   0  0  0  0  0  0  0  0  0  0  0  0
  127.4900  125.8550   59.9200 C   0  0  0  0  0  0  0  0  0  0  0  0
  128.7330  126.2470   60.7520 C   0  0  0  0  0  0  0  0  0  0  0  0
  128.5220  126.3080   62.3010 C   0  0  0  0  0  0  0  0  0  0  0  0
  129.8080  126.0840   63.1020 C   0  0  0  0  0  0  0  0  0  0  0  0
  130.8040  125.4370   62.5830 N   0  0  0  0  0  0  0  0  0  0  0  0
  131.8930  125.2920   63.3870 C   0  0  0  0  0  0  0  0  0  0  0  0
  132.0240  125.7620   64.6850 C   0  0  0  0  0  0  0  0  0  0  0  0
  133.2070  125.4360   65.1760 N   0  0  0  0  0  0  0  0  0  0  0  0
  133.8890  124.7340   64.1870 N   0  0  0  0  0  0  0  0  0  0  0  0
  133.0840  124.6730   63.1120 N   0  0  0  0  0  0  0  0  0  0  0  0
  133.5020  123.9770   61.9020 C   0  0  0  0  0  0  0  0  0  0  0  0
  132.8070  122.6380   61.7060 C   0  0  0  0  0  0  0  0  0  0  0  0
  131.5690  122.3940   62.3100 C   0  0  0  0  0  0  0  0  0  0  0  0
  130.9340  121.1630   62.1390 C   0  0  0  0  0  0  0  0  0  0  0  0
  131.5320  120.1720   61.3620 C   0  0  0  0  0  0  0  0  0  0  0  0
  132.7640  120.4100   60.7520 C   0  0  0  0  0  0  0  0  0  0  0  0
  133.5040  119.1820   59.7940 Cl  0  0  0  0  0  0  0  0  0  0  0  0
  133.3990  121.6410   60.9210 C   0  0  0  0  0  0  0  0  0  0  0  0
  130.9170  126.5010   65.2930 C   0  0  0  0  0  0  0  0  0  0  0  0
  130.8490  126.9930   66.4170 O   0  0  0  0  0  0  0  0  0  0  0  0
  129.8730  126.5930   64.3960 N   0  0  0  0  0  0  0  0  0  0  0  0
  127.3230  125.4780   62.8620 C   0  0  0  0  0  0  0  0  0  0  0  0
  126.1980  125.1390   61.8530 C   0  0  0  0  0  0  0  0  0  0  0  0
  128.3705  121.9863   59.3111 H   0  0  0  0  0  0  0  0  0  0  0  0
  128.4915  124.8034   57.0658 H   0  0  0  0  0  0  0  0  0  0  0  0
  130.5336  126.1910   56.7335 H   0  0  0  0  0  0  0  0  0  0  0  0
  132.4169  126.0339   58.3533 H   0  0  0  0  0  0  0  0  0  0  0  0
  132.2671  124.5101   60.3144 H   0  0  0  0  0  0  0  0  0  0  0  0
  130.2277  123.1234   60.6555 H   0  0  0  0  0  0  0  0  0  0  0  0
  125.3223  123.7607   58.8703 H   0  0  0  0  0  0  0  0  0  0  0  0
  123.8527  123.5061   56.8747 H   0  0  0  0  0  0  0  0  0  0  0  0
  124.7569  122.4935   54.7884 H   0  0  0  0  0  0  0  0  0  0  0  0
  127.1214  121.7238   54.6852 H   0  0  0  0  0  0  0  0  0  0  0  0
  128.5893  121.9469   56.6857 H   0  0  0  0  0  0  0  0  0  0  0  0
  127.7962  125.5587   58.9059 H   0  0  0  0  0  0  0  0  0  0  0  0
  126.7978  126.7059   59.8374 H   0  0  0  0  0  0  0  0  0  0  0  0
  129.5228  125.5092   60.5475 H   0  0  0  0  0  0  0  0  0  0  0  0
  128.9885  127.2716   60.4440 H   0  0  0  0  0  0  0  0  0  0  0  0
  128.2196  127.3538   62.4587 H   0  0  0  0  0  0  0  0  0  0  0  0
  133.2771  124.6169   61.0360 H   0  0  0  0  0  0  0  0  0  0  0  0
  134.5786  123.7735   61.9993 H   0  0  0  0  0  0  0  0  0  0  0  0
  131.0943  123.1752   62.9219 H   0  0  0  0  0  0  0  0  0  0  0  0
  129.9615  120.9747   62.6174 H   0  0  0  0  0  0  0  0  0  0  0  0
  131.0319  119.2012   61.2297 H   0  0  0  0  0  0  0  0  0  0  0  0
  134.3682  121.8289   60.4358 H   0  0  0  0  0  0  0  0  0  0  0  0
  129.0640  127.0890   64.7390 H   0  0  0  0  0  0  0  0  0  0  0  0
  127.7231  124.5298   63.2504 H   0  0  0  0  0  0  0  0  0  0  0  0
  126.8532  126.1160   63.6251 H   0  0  0  0  0  0  0  0  0  0  0  0
  125.5768  124.3202   62.2450 H   0  0  0  0  0  0  0  0  0  0  0  0
  125.5513  126.0133   61.6875 H   0  0  0  0  0  0  0  0  0  0  0  0
  1  2  2  0
  2  3  1  0
  3  4  1  0
  4  5  2  0
  5  6  1  0
  6  7  2  0
  7  8  1  0
  8  9  2  0
  3 10  1  0
 10 11  2  0
 11 12  1  0
 12 13  2  0
 13 14  1  0
 14 15  2  0
  2 16  1  0
 16 17  1  0
 17 18  1  0
 18 19  1  0
 19 20  1  0
 20 21  2  0
 21 22  1  0
 22 23  2  0
 23 24  1  0
 24 25  2  0
 25 26  1  0
 26 27  1  0
 27 28  1  0
 28 29  2  0
 29 30  1  0
 30 31  2  0
 31 32  1  0
 32 33  1  0
 32 34  2  0
 23 35  1  0
 35 36  2  0
 35 37  1  0
 19 38  1  0
 38 39  1  0
  9  4  1  0
 15 10  1  0
 39 16  1  0
 37 20  1  0
 26 22  1  0
 34 28  1  0
  3 40  1  0
  5 41  1  0
  6 42  1  0
  7 43  1  0
  8 44  1  0
  9 45  1  0
 11 46  1  0
 12 47  1  0
 13 48  1  0
 14 49  1  0
 15 50  1  0
 17 51  1  0
 17 52  1  0
 18 53  1  0
 18 54  1  0
 19 55  1  0
 27 56  1  0
 27 57  1  0
 29 58  1  0
 30 59  1  0
 31 60  1  0
 34 61  1  0
 37 62  1  0
 38 63  1  0
 38 64  1  0
 39 65  1  0
 39 66  1  0
M  END
>  <Binding energies>  (1) 
[-11.26]

>  <Ligand effiencies>  (1) 
[-0.2815]

>  <Interactions>  (1) 
["V-B:GLU:543:CD:9879, V-B:TYR:531:CZ:9765, V-B:PRO:540:N:9855, V-B:PRO:540:CB:9856, V-B:TYR:539:CD2:9845, V-B:TYR:539:C:9838, V-B:MET:535:CE:9806, V-B:TYR:531:CE2:9764, V-B:PRO:540:CA:9854, V-B:LEU:363:CD1:8159, V-B:TYR:539:CE2:9847, V-A:LEU:475:CD2:4258, V-B:ALA:541:CB:9863, V-B:TYR:539:CZ:9848, V-A:ASP:366:CG:3212, V-B:TYR:539:CE1:9846, V-B:MET:535:CG:9804, V-B:TYR:539:CA:9840, H-B:GLU:543:OE2:9881, V-B:TYR:539:CD1:9844, V-A:ILE:369:CG2:3236, V-B:ILE:538:CD1:9836, V-B:TYR:539:CG:9843, V-B:ILE:538:CG2:9834, V-A:ILE:369:CD1:3238, V-B:ILE:538:CA:9831, V-A:GLU:543:CD:4907, H-B:GLU:543:OE1:9880, V-A:SER:385:CA:3406, H-A:TYR:484:OH:4347, H-A:GLY:454:N:4049, H-B:ALA:541:N:9862, V-B:ILE:538:C:9829"]

$$$$
RR28_Rahimova_2017
     RDKit          3D

 82 85  0  0  0  0  0  0  0  0999 V2000
  127.6610  137.4330   62.1110 C   0  0  0  0  0  0  0  0  0  0  0  0
  127.5150  135.9270   62.2980 C   0  0  0  0  0  0  0  0  0  0  0  0
  127.4560  135.4590   63.4340 O   0  0  0  0  0  0  0  0  0  0  0  0
  127.4590  135.1870   61.1720 N   0  0  0  0  0  0  0  0  0  0  0  0
  127.3280  133.7180   61.0470 C   0  0  0  0  0  0  0  0  0  0  0  0
  128.7570  133.1040   61.0010 C   0  0  0  0  0  0  0  0  0  0  0  0
  129.3480  132.8290   59.7590 C   0  0  0  0  0  0  0  0  0  0  0  0
  130.6230  132.2760   59.6800 C   0  0  0  0  0  0  0  0  0  0  0  0
  131.3370  131.9850   60.8440 C   0  0  0  0  0  0  0  0  0  0  0  0
  132.7330  131.3740   60.7380 C   0  0  0  0  0  0  0  0  0  0  0  0
  133.1620  131.3050   59.4760 F   0  0  0  0  0  0  0  0  0  0  0  0
  133.6100  132.1010   61.4310 F   0  0  0  0  0  0  0  0  0  0  0  0
  132.7100  130.1380   61.2380 F   0  0  0  0  0  0  0  0  0  0  0  0
  130.7580  132.2530   62.0880 C   0  0  0  0  0  0  0  0  0  0  0  0
  129.4830  132.8060   62.1650 C   0  0  0  0  0  0  0  0  0  0  0  0
  126.4420  133.3480   59.8040 C   0  0  0  0  0  0  0  0  0  0  0  0
  124.9670  133.8020   59.9450 C   0  0  0  0  0  0  0  0  0  0  0  0
  124.4440  133.1500   61.1570 N   0  0  0  0  0  0  0  0  0  0  0  0
  123.7900  131.9600   61.0690 C   0  0  0  0  0  0  0  0  0  0  0  0
  123.4630  131.4710   59.9850 O   0  0  0  0  0  0  0  0  0  0  0  0
  123.2970  131.2800   62.3700 C   0  0  0  0  0  0  0  0  0  0  0  0
  123.8200  129.8400   62.6230 C   0  0  0  0  0  0  0  0  0  0  0  0
  123.8630  129.4090   64.1080 C   0  0  0  0  0  0  0  0  0  0  0  0
  122.8590  129.6100   64.7980 O   0  0  0  0  0  0  0  0  0  0  0  0
  124.9330  128.7070   64.5780 N   0  0  0  0  0  0  0  0  0  0  0  0
  126.2490  128.7120   63.9290 C   0  0  0  0  0  0  0  0  0  0  0  0
  127.0020  129.9480   64.4700 C   0  0  0  0  0  0  0  0  0  0  0  0
  127.1410  130.0000   66.0320 C   0  0  0  0  0  0  0  0  0  0  0  0
  127.5010  131.3740   66.4410 N   0  0  0  0  0  0  0  0  0  0  0  0
  128.2170  132.2860   65.7530 C   0  0  0  0  0  0  0  0  0  0  0  0
  128.4470  133.6260   66.4440 C   0  0  0  0  0  0  0  0  0  0  0  0
  128.6810  132.0930   64.6290 O   0  0  0  0  0  0  0  0  0  0  0  0
  128.3280  129.0630   66.4280 C   0  0  0  0  0  0  0  0  0  0  0  0
  128.8070  128.9560   67.7440 C   0  0  0  0  0  0  0  0  0  0  0  0
  129.8670  128.1080   68.0550 C   0  0  0  0  0  0  0  0  0  0  0  0
  130.4790  127.3480   67.0560 C   0  0  0  0  0  0  0  0  0  0  0  0
  131.6410  126.4100   67.3820 C   0  0  0  0  0  0  0  0  0  0  0  0
  132.1910  125.9370   66.2630 F   0  0  0  0  0  0  0  0  0  0  0  0
  132.5680  127.0840   68.0620 F   0  0  0  0  0  0  0  0  0  0  0  0
  131.2540  125.3690   68.1210 F   0  0  0  0  0  0  0  0  0  0  0  0
  130.0200  127.4500   65.7420 C   0  0  0  0  0  0  0  0  0  0  0  0
  128.9610  128.2970   65.4350 C   0  0  0  0  0  0  0  0  0  0  0  0
  125.7690  129.5730   66.6840 C   0  0  0  0  0  0  0  0  0  0  0  0
  125.0330  128.3850   66.0070 C   0  0  0  0  0  0  0  0  0  0  0  0
  125.0980  133.6070   62.3920 C   0  0  0  0  0  0  0  0  0  0  0  0
  126.5830  133.1700   62.3080 C   0  0  0  0  0  0  0  0  0  0  0  0
  127.7084  137.9218   63.0953 H   0  0  0  0  0  0  0  0  0  0  0  0
  128.5839  137.6452   61.5514 H   0  0  0  0  0  0  0  0  0  0  0  0
  126.7960  137.8186   61.5514 H   0  0  0  0  0  0  0  0  0  0  0  0
  127.5380  135.6800   60.2950 H   0  0  0  0  0  0  0  0  0  0  0  0
  128.7961  133.0535   58.8343 H   0  0  0  0  0  0  0  0  0  0  0  0
  131.0698  132.0675   58.6967 H   0  0  0  0  0  0  0  0  0  0  0  0
  131.3127  132.0257   63.0103 H   0  0  0  0  0  0  0  0  0  0  0  0
  129.0388  133.0121   63.1500 H   0  0  0  0  0  0  0  0  0  0  0  0
  126.8718  133.8295   58.9133 H   0  0  0  0  0  0  0  0  0  0  0  0
  126.4386  132.2511   59.7216 H   0  0  0  0  0  0  0  0  0  0  0  0
  124.9142  134.8958   60.0488 H   0  0  0  0  0  0  0  0  0  0  0  0
  124.3785  133.5246   59.0581 H   0  0  0  0  0  0  0  0  0  0  0  0
  123.6114  131.9065   63.2177 H   0  0  0  0  0  0  0  0  0  0  0  0
  122.2064  131.1858   62.2617 H   0  0  0  0  0  0  0  0  0  0  0  0
  123.1649  129.1399   62.0838 H   0  0  0  0  0  0  0  0  0  0  0  0
  124.8616  129.8259   62.2696 H   0  0  0  0  0  0  0  0  0  0  0  0
  126.7991  127.7928   64.1788 H   0  0  0  0  0  0  0  0  0  0  0  0
  126.1517  128.7540   62.8341 H   0  0  0  0  0  0  0  0  0  0  0  0
  128.0127  129.9504   64.0359 H   0  0  0  0  0  0  0  0  0  0  0  0
  126.4049  130.8258   64.1821 H   0  0  0  0  0  0  0  0  0  0  0  0
  127.1980  131.6330   67.3680 H   0  0  0  0  0  0  0  0  0  0  0  0
  128.4228  133.4850   67.5347 H   0  0  0  0  0  0  0  0  0  0  0  0
  129.4272  134.0278   66.1479 H   0  0  0  0  0  0  0  0  0  0  0  0
  127.6568  134.3317   66.1479 H   0  0  0  0  0  0  0  0  0  0  0  0
  128.3377  129.5511   68.5412 H   0  0  0  0  0  0  0  0  0  0  0  0
  130.2241  128.0365   69.0930 H   0  0  0  0  0  0  0  0  0  0  0  0
  130.4974  126.8586   64.9469 H   0  0  0  0  0  0  0  0  0  0  0  0
  128.6120  128.3687   64.3943 H   0  0  0  0  0  0  0  0  0  0  0  0
  125.9658  129.2947   67.7299 H   0  0  0  0  0  0  0  0  0  0  0  0
  125.1025  130.4401   66.5661 H   0  0  0  0  0  0  0  0  0  0  0  0
  125.6051  127.4559   66.1467 H   0  0  0  0  0  0  0  0  0  0  0  0
  124.0367  128.2347   66.4484 H   0  0  0  0  0  0  0  0  0  0  0  0
  125.0306  134.7020   62.4721 H   0  0  0  0  0  0  0  0  0  0  0  0
  124.6109  133.1728   63.2775 H   0  0  0  0  0  0  0  0  0  0  0  0
  127.1040  133.5351   63.2054 H   0  0  0  0  0  0  0  0  0  0  0  0
  126.5920  132.0724   62.2356 H   0  0  0  0  0  0  0  0  0  0  0  0
  1  2  1  0
  2  3  2  0
  2  4  1  0
  4  5  1  0
  5  6  1  0
  6  7  2  0
  7  8  1  0
  8  9  2  0
  9 10  1  0
 10 11  1  0
 10 12  1  0
 10 13  1  0
  9 14  1  0
 14 15  2  0
  5 16  1  0
 16 17  1  0
 17 18  1  0
 18 19  1  0
 19 20  2  0
 19 21  1  0
 21 22  1  0
 22 23  1  0
 23 24  2  0
 23 25  1  0
 25 26  1  0
 26 27  1  0
 27 28  1  0
 28 29  1  0
 29 30  1  0
 30 31  1  0
 30 32  2  0
 28 33  1  0
 33 34  2  0
 34 35  1  0
 35 36  2  0
 36 37  1  0
 37 38  1  0
 37 39  1  0
 37 40  1  0
 36 41  1  0
 41 42  2  0
 28 43  1  0
 43 44  1  0
 18 45  1  0
 45 46  1  0
 46  5  1  0
 15  6  1  0
 44 25  1  0
 42 33  1  0
  1 47  1  0
  1 48  1  0
  1 49  1  0
  4 50  1  0
  7 51  1  0
  8 52  1  0
 14 53  1  0
 15 54  1  0
 16 55  1  0
 16 56  1  0
 17 57  1  0
 17 58  1  0
 21 59  1  0
 21 60  1  0
 22 61  1  0
 22 62  1  0
 26 63  1  0
 26 64  1  0
 27 65  1  0
 27 66  1  0
 29 67  1  0
 31 68  1  0
 31 69  1  0
 31 70  1  0
 34 71  1  0
 35 72  1  0
 41 73  1  0
 42 74  1  0
 43 75  1  0
 43 76  1  0
 44 77  1  0
 44 78  1  0
 45 79  1  0
 45 80  1  0
 46 81  1  0
 46 82  1  0
M  END
>  <Binding energies>  (1) 
[-9.32]

>  <Ligand effiencies>  (1) 
[-0.19416666666666668]

>  <Interactions>  (1) 
["V-A:HIS:456:CE1:4069, V-A:HIS:456:CD2:4067, V-B:ARG:545:CD:9894, V-B:GLU:543:CD:9879, V-B:ARG:545:CG:9893, V-B:ASP:366:CG:8183, V-A:TYR:484:CZ:4346, V-A:ARG:545:CD:4922, V-A:ARG:545:CG:4921, V-B:LEU:475:CD1:9228, V-B:ARG:545:CZ:9897, V-A:ASP:366:CG:3212, V-A:GLU:543:CD:4907, V-A:GLU:543:CG:4906, V-A:ASP:366:CB:3211, V-A:GLU:543:CB:4905, H-B:TYR:484:OH:9318, V-A:ASN:362:C:3171, V-A:LEU:363:CA:3184, V-A:ASN:362:CA:3173, V-A:PRO:540:CA:4882, V-A:TYR:539:CD1:4872, V-A:ASN:362:CB:3175, V-A:PRO:540:CB:4884, V-A:TYR:539:C:4866, V-A:TYR:539:CE1:4874, V-A:TYR:484:CE2:4345, H-A:TYR:539:O:4867, V-A:ALA:541:CB:4891, V-B:LEU:475:CD2:9229, H-B:GLY:454:N:9020, V-B:TYR:484:CZ:9317, H-B:ARG:545:NH2:9899, V-B:ILE:369:CG2:8207, H-B:ARG:545:NE:9895, H-B:ARG:545:NH1:9898, V-B:TYR:484:CE2:9316, V-B:SER:385:CB:8379, V-A:GLU:543:CA:4903, V-B:PRO:482:CB:9296, V-B:PRO:482:CG:9297"]

$$$$
RR29_Rahimova_2017
     RDKit          3D

 35 36  0  0  0  0  0  0  0  0999 V2000
  128.2770  126.2340   71.3680 C   0  0  0  0  0  0  0  0  0  0  0  0
  128.5520  126.5120   69.8970 C   0  0  0  0  0  0  0  0  0  0  0  0
  127.7470  127.7120   69.3490 C   0  0  0  0  0  0  0  0  0  0  0  0
  126.2350  127.4090   69.3020 C   0  0  0  0  0  0  0  0  0  0  0  0
  125.5240  128.1930   68.2090 C   0  0  0  0  0  0  0  0  0  0  0  0
  124.3380  128.8950   68.5050 C   0  0  0  0  0  0  0  0  0  0  0  0
  123.6670  129.6250   67.5130 C   0  0  0  0  0  0  0  0  0  0  0  0
  124.2090  129.6180   66.2330 C   0  0  0  0  0  0  0  0  0  0  0  0
  125.3570  128.9370   65.9400 C   0  0  0  0  0  0  0  0  0  0  0  0
  126.0490  128.2140   66.9060 C   0  0  0  0  0  0  0  0  0  0  0  0
  125.6730  129.1310   64.6320 O   0  0  0  0  0  0  0  0  0  0  0  0
  124.5660  129.7800   64.0670 C   0  0  0  0  0  0  0  0  0  0  0  0
  123.7700  130.2600   65.1180 O   0  0  0  0  0  0  0  0  0  0  0  0
  129.3800  125.7580   69.2740 N   0  0  0  0  0  0  0  0  0  0  0  0
  129.5660  125.9540   67.9230 N   0  0  0  0  0  0  0  0  0  0  0  0
  130.4090  126.8620   67.4050 C   0  0  0  0  0  0  0  0  0  0  0  0
  131.1860  127.6760   68.1200 N   0  0  0  0  0  0  0  0  0  0  0  0
  130.4760  126.9580   66.0850 N   0  0  0  0  0  0  0  0  0  0  0  0
  128.9156  126.8796   71.9888 H   0  0  0  0  0  0  0  0  0  0  0  0
  127.2198  126.4424   71.5891 H   0  0  0  0  0  0  0  0  0  0  0  0
  128.4968  125.1791   71.5891 H   0  0  0  0  0  0  0  0  0  0  0  0
  127.9164  128.5824   70.0000 H   0  0  0  0  0  0  0  0  0  0  0  0
  128.0887  127.9154   68.3234 H   0  0  0  0  0  0  0  0  0  0  0  0
  126.0950  126.3341   69.1148 H   0  0  0  0  0  0  0  0  0  0  0  0
  125.8012  127.7077   70.2677 H   0  0  0  0  0  0  0  0  0  0  0  0
  123.9334  128.8700   69.5276 H   0  0  0  0  0  0  0  0  0  0  0  0
  122.7461  130.1823   67.7395 H   0  0  0  0  0  0  0  0  0  0  0  0
  126.9763  127.6767   66.6581 H   0  0  0  0  0  0  0  0  0  0  0  0
  124.9033  130.6182   63.4396 H   0  0  0  0  0  0  0  0  0  0  0  0
  123.9926  129.0847   63.4363 H   0  0  0  0  0  0  0  0  0  0  0  0
  129.0050  125.3890   67.3010 H   0  0  0  0  0  0  0  0  0  0  0  0
  132.0020  128.0990   67.7010 H   0  0  0  0  0  0  0  0  0  0  0  0
  130.9590  127.8580   69.0870 H   0  0  0  0  0  0  0  0  0  0  0  0
  129.7150  126.6210   65.5140 H   0  0  0  0  0  0  0  0  0  0  0  0
  131.2870  127.3750   65.6520 H   0  0  0  0  0  0  0  0  0  0  0  0
  1  2  1  0
  2  3  1  0
  3  4  1  0
  4  5  1  0
  5  6  2  0
  6  7  1  0
  7  8  2  0
  8  9  1  0
  9 10  2  0
  9 11  1  0
 11 12  1  0
 12 13  1  0
  2 14  2  0
 14 15  1  0
 15 16  1  0
 16 17  1  0
 16 18  2  0
 10  5  1  0
 13  8  1  0
  1 19  1  0
  1 20  1  0
  1 21  1  0
  3 22  1  0
  3 23  1  0
  4 24  1  0
  4 25  1  0
  6 26  1  0
  7 27  1  0
 10 28  1  0
 12 29  1  0
 12 30  1  0
 15 31  1  0
 17 32  1  0
 17 33  1  0
 18 34  1  0
 18 35  1  0
M  CHG  1  18   1
M  END
>  <Binding energies>  (1) 
[-8.07]

>  <Ligand effiencies>  (1) 
[-0.3508695652173913]

>  <Interactions>  (1) 
["V-B:GLU:543:CB:9877, V-A:HIS:456:CE1:4069, V-B:GLU:543:C:9873, V-B:ARG:545:CA:9890, V-B:ARG:545:CD:9894, V-B:GLU:543:CD:9879, V-B:HIS:456:CE1:9040, V-B:ARG:545:CG:9893, V-B:ARG:545:CZ:9897, V-B:ARG:545:CB:9892, H-B:GLU:543:OE2:9881, V-A:GLU:543:CD:4907, V-A:GLU:543:CB:4905, V-B:GLU:543:CG:9878, V-A:TYR:484:CE2:4345, H-B:GLY:454:N:9020, H-B:ARG:545:NH2:9899, H-A:GLU:543:OE2:4909, H-A:GLU:543:OE1:4908, H-A:HIS:456:NE2:4070"]

$$$$
RR29_Rahimova_2017-again1
     RDKit          3D

 34 35  0  0  0  0  0  0  0  0999 V2000
  129.2730  122.8260   63.6630 C   0  0  0  0  0  0  0  0  0  0  0  0
  128.1760  123.2220   62.6860 C   0  0  0  0  0  0  0  0  0  0  0  0
  128.6870  124.0520   61.4920 C   0  0  0  0  0  0  0  0  0  0  0  0
  129.0440  123.1530   60.2900 C   0  0  0  0  0  0  0  0  0  0  0  0
  127.9920  123.2140   59.1920 C   0  0  0  0  0  0  0  0  0  0  0  0
  126.8770  124.0620   59.3350 C   0  0  0  0  0  0  0  0  0  0  0  0
  125.8970  124.1370   58.3350 C   0  0  0  0  0  0  0  0  0  0  0  0
  126.0640  123.3380   57.2090 C   0  0  0  0  0  0  0  0  0  0  0  0
  127.1440  122.5110   57.0670 C   0  0  0  0  0  0  0  0  0  0  0  0
  128.1350  122.4260   58.0380 C   0  0  0  0  0  0  0  0  0  0  0  0
  127.0690  121.8790   55.8670 O   0  0  0  0  0  0  0  0  0  0  0  0
  125.7960  122.1760   55.3610 C   0  0  0  0  0  0  0  0  0  0  0  0
  125.2810  123.2490   56.1030 O   0  0  0  0  0  0  0  0  0  0  0  0
  126.9620  122.8680   62.9270 N   0  0  0  0  0  0  0  0  0  0  0  0
  126.0550  123.2500   62.0860 N   0  0  0  0  0  0  0  0  0  0  0  0
  124.9170  123.5980   62.5650 C   0  0  0  0  0  0  0  0  0  0  0  0
  124.5080  123.6190   63.9280 N   0  0  0  0  0  0  0  0  0  0  0  0
  123.8710  124.0330   61.7230 N   0  0  0  0  0  0  0  0  0  0  0  0
  128.9110  122.9567   64.6935 H   0  0  0  0  0  0  0  0  0  0  0  0
  129.5456  121.7727   63.5010 H   0  0  0  0  0  0  0  0  0  0  0  0
  130.1555  123.4623   63.5010 H   0  0  0  0  0  0  0  0  0  0  0  0
  127.9028  124.7609   61.1877 H   0  0  0  0  0  0  0  0  0  0  0  0
  129.5963  124.5852   61.8063 H   0  0  0  0  0  0  0  0  0  0  0  0
  130.0080  123.4828   59.8753 H   0  0  0  0  0  0  0  0  0  0  0  0
  129.0961  122.1147   60.6495 H   0  0  0  0  0  0  0  0  0  0  0  0
  126.7734  124.6738   60.2433 H   0  0  0  0  0  0  0  0  0  0  0  0
  125.0279  124.8034   58.4374 H   0  0  0  0  0  0  0  0  0  0  0  0
  129.0030  121.7632   57.9070 H   0  0  0  0  0  0  0  0  0  0  0  0
  125.8708  122.4562   54.2999 H   0  0  0  0  0  0  0  0  0  0  0  0
  125.1356  121.3000   55.4419 H   0  0  0  0  0  0  0  0  0  0  0  0
  125.1240  123.3340   64.6760 H   0  0  0  0  0  0  0  0  0  0  0  0
  123.5850  123.9070   64.2130 H   0  0  0  0  0  0  0  0  0  0  0  0
  123.9750  124.0810   60.7200 H   0  0  0  0  0  0  0  0  0  0  0  0
  122.9680  124.3080   62.0780 H   0  0  0  0  0  0  0  0  0  0  0  0
  1  2  1  0
  2  3  1  0
  3  4  1  0
  4  5  1  0
  5  6  2  0
  6  7  1  0
  7  8  2  0
  8  9  1  0
  9 10  2  0
  9 11  1  0
 11 12  1  0
 12 13  1  0
  2 14  2  0
 14 15  1  0
 15 16  2  0
 16 17  1  0
 16 18  1  0
 10  5  1  0
 13  8  1  0
  1 19  1  0
  1 20  1  0
  1 21  1  0
  3 22  1  0
  3 23  1  0
  4 24  1  0
  4 25  1  0
  6 26  1  0
  7 27  1  0
 10 28  1  0
 12 29  1  0
 12 30  1  0
 17 31  1  0
 17 32  1  0
 18 33  1  0
 18 34  1  0
M  END
>  <Binding energies>  (1) 
[-7.89]

>  <Ligand effiencies>  (1) 
[-0.35863636363636364]

>  <Interactions>  (1) 
["V-B:GLU:543:CD:9879, V-B:ASP:366:CG:8183, V-B:PRO:540:N:9855, H-B:TYR:531:OH:9766, V-B:PRO:540:CB:9856, V-B:TYR:539:CD2:9845, V-B:TYR:539:C:9838, V-B:MET:535:CE:9806, H-B:TYR:539:N:9841, V-B:TYR:531:CE2:9764, V-B:PRO:540:CA:9854, V-B:TYR:539:CE2:9847, V-B:ARG:545:CZ:9897, V-B:ILE:538:CB:9833, V-B:ALA:541:CB:9863, V-B:TYR:539:CZ:9848, V-B:MET:535:CG:9804, V-B:TYR:539:CA:9840, V-B:TYR:539:CD1:9844, V-B:ILE:538:CD1:9836, V-B:TYR:539:CG:9843, V-B:ILE:538:CG2:9834, V-B:ILE:538:CA:9831, H-B:GLU:543:OE1:9880, V-B:ALA:541:C:9859, V-B:GLU:543:CG:9878, H-B:ASP:366:OD1:8184, H-B:ALA:541:N:9862, V-B:ILE:538:C:9829, V-B:ASN:362:CB:8146, H-B:ALA:541:O:9860, V-B:ASN:362:CG:8147, H-B:ASN:362:O:8143"]

$$$$
RR2_Rahimova_2017
     RDKit          3D

 76 80  0  0  0  0  0  0  0  0999 V2000
  130.3020  127.0030   67.4680 C   0  0  0  0  0  0  0  0  0  0  0  0
  129.5150  128.0520   68.0200 O   0  0  0  0  0  0  0  0  0  0  0  0
  128.3160  128.3850   67.4170 C   0  0  0  0  0  0  0  0  0  0  0  0
  127.0560  128.1820   67.9960 C   0  0  0  0  0  0  0  0  0  0  0  0
  125.9010  128.5470   67.3110 C   0  0  0  0  0  0  0  0  0  0  0  0
  125.9760  129.1190   66.0340 C   0  0  0  0  0  0  0  0  0  0  0  0
  124.7020  129.5010   65.3060 C   0  0  0  0  0  0  0  0  0  0  0  0
  123.6540  129.6800   65.9360 O   0  0  0  0  0  0  0  0  0  0  0  0
  124.8010  129.6100   63.9600 N   0  0  0  0  0  0  0  0  0  0  0  0
  123.6420  129.8660   63.2360 N   0  0  0  0  0  0  0  0  0  0  0  0
  123.2160  131.1420   63.1450 C   0  0  0  0  0  0  0  0  0  0  0  0
  123.6690  132.0850   63.8010 O   0  0  0  0  0  0  0  0  0  0  0  0
  122.1000  131.3960   62.1220 C   0  0  0  0  0  0  0  0  0  0  0  0
  122.6260  131.3290   60.3700 S   0  0  0  0  0  0  0  0  0  0  0  0
  124.1980  130.5390   60.5320 C   0  0  0  0  0  0  0  0  0  0  0  0
  124.3440  129.2380   60.5530 N   0  0  0  0  0  0  0  0  0  0  0  0
  125.6900  128.9730   60.7640 N   0  0  0  0  0  0  0  0  0  0  0  0
  126.3130  130.1250   60.8320 C   0  0  0  0  0  0  0  0  0  0  0  0
  127.7880  130.2510   61.0370 C   0  0  0  0  0  0  0  0  0  0  0  0
  128.6670  129.8170   60.0410 C   0  0  0  0  0  0  0  0  0  0  0  0
  130.0420  129.9230   60.2250 C   0  0  0  0  0  0  0  0  0  0  0  0
  130.5520  130.4810   61.4030 C   0  0  0  0  0  0  0  0  0  0  0  0
  131.9280  130.6030   61.6480 N   0  0  0  0  0  0  0  0  0  0  0  0
  132.9850  131.8190   60.8980 S   0  0  0  0  0  0  0  0  0  0  0  0
  134.2250  131.1150   60.5470 O   0  0  0  0  0  0  0  0  0  0  0  0
  133.0110  133.0000   61.7690 O   0  0  0  0  0  0  0  0  0  0  0  0
  132.1830  132.2500   59.3550 C   0  0  0  0  0  0  0  0  0  0  0  0
  132.8580  132.1150   58.1400 C   0  0  0  0  0  0  0  0  0  0  0  0
  132.2230  132.4700   56.9540 C   0  0  0  0  0  0  0  0  0  0  0  0
  130.9130  132.9540   56.9820 C   0  0  0  0  0  0  0  0  0  0  0  0
  130.2260  133.3550   55.6880 C   0  0  0  0  0  0  0  0  0  0  0  0
  130.2420  133.0920   58.1990 C   0  0  0  0  0  0  0  0  0  0  0  0
  130.8760  132.7390   59.3860 C   0  0  0  0  0  0  0  0  0  0  0  0
  129.6730  130.9160   62.3960 C   0  0  0  0  0  0  0  0  0  0  0  0
  128.2980  130.8050   62.2150 C   0  0  0  0  0  0  0  0  0  0  0  0
  125.4160  131.1720   60.6960 N   0  0  0  0  0  0  0  0  0  0  0  0
  125.6710  132.5580   60.7550 C   0  0  0  0  0  0  0  0  0  0  0  0
  126.5820  133.0600   61.6850 C   0  0  0  0  0  0  0  0  0  0  0  0
  126.8330  134.4280   61.7350 C   0  0  0  0  0  0  0  0  0  0  0  0
  126.1800  135.3020   60.8650 C   0  0  0  0  0  0  0  0  0  0  0  0
  126.4930  136.6420   60.9910 O   0  0  0  0  0  0  0  0  0  0  0  0
  127.5020  137.0360   61.9150 C   0  0  0  0  0  0  0  0  0  0  0  0
  125.2650  134.7880   59.9310 C   0  0  0  0  0  0  0  0  0  0  0  0
  125.0120  133.4210   59.8760 C   0  0  0  0  0  0  0  0  0  0  0  0
  127.2410  129.3250   65.4630 C   0  0  0  0  0  0  0  0  0  0  0  0
  128.3960  128.9610   66.1510 C   0  0  0  0  0  0  0  0  0  0  0  0
  130.7463  126.4108   68.2816 H   0  0  0  0  0  0  0  0  0  0  0  0
  129.6656  126.3546   66.8478 H   0  0  0  0  0  0  0  0  0  0  0  0
  131.1025  127.4326   66.8478 H   0  0  0  0  0  0  0  0  0  0  0  0
  126.9796  127.7319   68.9968 H   0  0  0  0  0  0  0  0  0  0  0  0
  124.9180  128.3847   67.7773 H   0  0  0  0  0  0  0  0  0  0  0  0
  125.4560  129.0510   63.4320 H   0  0  0  0  0  0  0  0  0  0  0  0
  123.4420  129.1620   62.5390 H   0  0  0  0  0  0  0  0  0  0  0  0
  121.3192  130.6360   62.2731 H   0  0  0  0  0  0  0  0  0  0  0  0
  121.7495  132.4236   62.2985 H   0  0  0  0  0  0  0  0  0  0  0  0
  128.2703  129.3900   59.1081 H   0  0  0  0  0  0  0  0  0  0  0  0
  130.7295  129.5677   59.4433 H   0  0  0  0  0  0  0  0  0  0  0  0
  132.3430  129.9710   62.3170 H   0  0  0  0  0  0  0  0  0  0  0  0
  133.8880  131.7294   58.1207 H   0  0  0  0  0  0  0  0  0  0  0  0
  132.7522  132.3696   55.9949 H   0  0  0  0  0  0  0  0  0  0  0  0
  129.2971  133.8972   55.9188 H   0  0  0  0  0  0  0  0  0  0  0  0
  130.8944  134.0048   55.1041 H   0  0  0  0  0  0  0  0  0  0  0  0
  129.9889  132.4534   55.1041 H   0  0  0  0  0  0  0  0  0  0  0  0
  129.2127  133.4796   58.2190 H   0  0  0  0  0  0  0  0  0  0  0  0
  130.3490  132.8449   60.3457 H   0  0  0  0  0  0  0  0  0  0  0  0
  130.0693  131.3488   63.3264 H   0  0  0  0  0  0  0  0  0  0  0  0
  127.6109  131.1537   63.0001 H   0  0  0  0  0  0  0  0  0  0  0  0
  127.0994  132.3777   62.3755 H   0  0  0  0  0  0  0  0  0  0  0  0
  127.5525  134.8238   62.4668 H   0  0  0  0  0  0  0  0  0  0  0  0
  127.1349  136.8927   62.9420 H   0  0  0  0  0  0  0  0  0  0  0  0
  128.4020  136.4233   61.7585 H   0  0  0  0  0  0  0  0  0  0  0  0
  127.7486  138.0965   61.7585 H   0  0  0  0  0  0  0  0  0  0  0  0
  124.7464  135.4692   59.2403 H   0  0  0  0  0  0  0  0  0  0  0  0
  124.2957  133.0212   59.1431 H   0  0  0  0  0  0  0  0  0  0  0  0
  127.3212  129.7777   64.4637 H   0  0  0  0  0  0  0  0  0  0  0  0
  129.3806  129.1299   65.6905 H   0  0  0  0  0  0  0  0  0  0  0  0
  1  2  1  0
  2  3  1  0
  3  4  2  0
  4  5  1  0
  5  6  2  0
  6  7  1  0
  7  8  2  0
  7  9  1  0
  9 10  1  0
 10 11  1  0
 11 12  2  0
 11 13  1  0
 13 14  1  0
 14 15  1  0
 15 16  2  0
 16 17  1  0
 17 18  2  0
 18 19  1  0
 19 20  2  0
 20 21  1  0
 21 22  2  0
 22 23  1  0
 23 24  1  0
 24 25  2  0
 24 26  2  0
 24 27  1  0
 27 28  2  0
 28 29  1  0
 29 30  2  0
 30 31  1  0
 30 32  1  0
 32 33  2  0
 22 34  1  0
 34 35  2  0
 18 36  1  0
 36 37  1  0
 37 38  2  0
 38 39  1  0
 39 40  2  0
 40 41  1  0
 41 42  1  0
 40 43  1  0
 43 44  2  0
  6 45  1  0
 45 46  2  0
 46  3  1  0
 36 15  1  0
 44 37  1  0
 35 19  1  0
 33 27  1  0
  1 47  1  0
  1 48  1  0
  1 49  1  0
  4 50  1  0
  5 51  1  0
  9 52  1  0
 10 53  1  0
 13 54  1  0
 13 55  1  0
 20 56  1  0
 21 57  1  0
 23 58  1  0
 28 59  1  0
 29 60  1  0
 31 61  1  0
 31 62  1  0
 31 63  1  0
 32 64  1  0
 33 65  1  0
 34 66  1  0
 35 67  1  0
 38 68  1  0
 39 69  1  0
 42 70  1  0
 42 71  1  0
 42 72  1  0
 43 73  1  0
 44 74  1  0
 45 75  1  0
 46 76  1  0
M  END
>  <Binding energies>  (1) 
[-10.44]

>  <Ligand effiencies>  (1) 
[-0.21306122448979592]

>  <Interactions>  (1) 
["V-A:HIS:456:CE1:4069, V-B:GLU:543:CD:9879, V-B:HIS:456:CE1:9040, V-B:ARG:545:CG:9893, V-B:ASP:366:CG:8183, V-B:GLY:453:C:9012, V-B:ARG:545:CZ:9897, V-B:GLY:454:CA:9019, V-A:GLU:543:CD:4907, V-A:GLU:543:CG:4906, H-B:TYR:484:OH:9318, V-A:ASN:362:C:3171, V-A:TYR:531:CE2:4792, V-A:LEU:363:CA:3184, V-A:LEU:363:CD1:3188, V-A:PRO:540:CA:4882, V-A:TYR:531:CZ:4793, V-A:TYR:539:CD1:4872, V-A:ASN:362:CB:3175, V-A:PRO:540:N:4883, V-A:PRO:540:CB:4884, V-A:TYR:539:C:4866, V-A:TYR:539:CE1:4874, V-A:ILE:538:CB:4861, V-A:ILE:538:CA:4859, H-B:ASP:366:OD2:8185, H-B:ASP:366:OD1:8184, H-A:ALA:541:N:4890, V-B:GLY:453:CA:9014, H-B:GLY:454:N:9020, V-B:ILE:369:CG1:8208, V-B:ILE:369:CG2:8207, H-A:GLU:543:OE2:4909, H-A:ASP:366:OD2:3214, H-A:LEU:363:N:3185, H-B:ARG:545:NE:9895, H-B:SER:385:OG:8380, H-B:HIS:383:NE2:8364, V-B:PRO:482:CB:9296, V-B:PRO:482:CG:9297"]

$$$$
RR30_Rahimova_2017
     RDKit          3D

 29 30  0  0  0  0  0  0  0  0999 V2000
  123.3990  123.1840   61.7220 C   0  0  0  0  0  0  0  0  0  0  0  0
  124.6580  123.7670   61.0640 C   0  0  0  0  0  0  0  0  0  0  0  0
  125.9250  123.3370   61.7700 C   0  0  0  0  0  0  0  0  0  0  0  0
  126.1560  123.2820   63.0580 N   0  0  0  0  0  0  0  0  0  0  0  0
  127.4680  122.8360   63.1930 N   0  0  0  0  0  0  0  0  0  0  0  0
  127.9200  122.6690   61.9760 C   0  0  0  0  0  0  0  0  0  0  0  0
  129.5180  122.1030   61.4900 S   0  0  0  0  0  0  0  0  0  0  0  0
  130.0640  123.5270   60.4950 C   0  0  0  0  0  0  0  0  0  0  0  0
  129.3330  123.6090   59.1520 C   0  0  0  0  0  0  0  0  0  0  0  0
  129.5660  124.5540   58.3960 O   0  0  0  0  0  0  0  0  0  0  0  0
  128.4370  122.6270   58.9070 N   0  0  0  0  0  0  0  0  0  0  0  0
  127.6550  122.4900   57.7690 C   0  0  0  0  0  0  0  0  0  0  0  0
  128.0260  122.1040   56.5690 N   0  0  0  0  0  0  0  0  0  0  0  0
  126.9680  122.0870   55.6690 N   0  0  0  0  0  0  0  0  0  0  0  0
  125.8250  122.4560   56.2020 C   0  0  0  0  0  0  0  0  0  0  0  0
  124.5320  122.5210   55.4230 C   0  0  0  0  0  0  0  0  0  0  0  0
  125.9640  122.8620   57.8910 S   0  0  0  0  0  0  0  0  0  0  0  0
  126.9950  122.9630   61.0260 O   0  0  0  0  0  0  0  0  0  0  0  0
  123.5016  123.2315   62.8162 H   0  0  0  0  0  0  0  0  0  0  0  0
  122.5193  123.7664   61.4106 H   0  0  0  0  0  0  0  0  0  0  0  0
  123.2741  122.1364   61.4106 H   0  0  0  0  0  0  0  0  0  0  0  0
  124.7017  123.4257   60.0192 H   0  0  0  0  0  0  0  0  0  0  0  0
  124.5935  124.8634   61.1255 H   0  0  0  0  0  0  0  0  0  0  0  0
  129.8696  124.4499   61.0610 H   0  0  0  0  0  0  0  0  0  0  0  0
  131.1372  123.4026   60.2881 H   0  0  0  0  0  0  0  0  0  0  0  0
  128.3100  121.9200   59.6170 H   0  0  0  0  0  0  0  0  0  0  0  0
  123.6842  122.5636   56.1226 H   0  0  0  0  0  0  0  0  0  0  0  0
  124.5303  123.4204   54.7896 H   0  0  0  0  0  0  0  0  0  0  0  0
  124.4401  121.6263   54.7896 H   0  0  0  0  0  0  0  0  0  0  0  0
  1  2  1  0
  2  3  1  0
  3  4  2  0
  4  5  1  0
  5  6  2  0
  6  7  1  0
  7  8  1  0
  8  9  1  0
  9 10  2  0
  9 11  1  0
 11 12  1  0
 12 13  2  0
 13 14  1  0
 14 15  2  0
 15 16  1  0
 15 17  1  0
  6 18  1  0
 18  3  1  0
 17 12  1  0
  1 19  1  0
  1 20  1  0
  1 21  1  0
  2 22  1  0
  2 23  1  0
  8 24  1  0
  8 25  1  0
 11 26  1  0
 16 27  1  0
 16 28  1  0
 16 29  1  0
M  END
>  <Binding energies>  (1) 
[-7.1]

>  <Ligand effiencies>  (1) 
[-0.3736842105263158]

>  <Interactions>  (1) 
["V-B:TYR:531:CZ:9765, V-B:PRO:540:N:9855, V-B:PRO:540:CB:9856, V-B:TYR:539:CD2:9845, V-B:TYR:539:C:9838, V-B:MET:535:CE:9806, H-B:TYR:539:N:9841, V-B:TYR:531:CE2:9764, V-B:PRO:540:CA:9854, V-B:LEU:363:CD1:8159, V-B:TYR:539:CE2:9847, V-B:ILE:538:CB:9833, V-B:ALA:541:CB:9863, V-B:TYR:539:CZ:9848, V-B:TYR:539:CA:9840, V-B:ILE:538:CD1:9836, V-B:TYR:539:CG:9843, V-B:ILE:538:CG2:9834, V-B:ILE:538:CA:9831, V-B:PRO:540:CD:9858, H-B:ALA:541:N:9862, V-B:ALA:541:CA:9861, V-B:PRO:540:C:9852, V-B:ASN:362:CB:8146, H-B:TYR:539:O:9839, V-B:ASN:362:C:8142"]

$$$$
RR31_Rahimova_2017
     RDKit          3D

 44 45  0  0  0  0  0  0  0  0999 V2000
  132.2070  117.3170   59.2170 C   0  0  0  0  0  0  0  0  0  0  0  0
  132.3400  118.5730   60.0680 C   0  0  0  0  0  0  0  0  0  0  0  0
  133.4490  119.4020   59.8900 C   0  0  0  0  0  0  0  0  0  0  0  0
  133.5980  120.5600   60.6500 C   0  0  0  0  0  0  0  0  0  0  0  0
  132.6380  120.9300   61.6050 C   0  0  0  0  0  0  0  0  0  0  0  0
  132.7780  122.0820   62.3820 N   0  0  0  0  0  0  0  0  0  0  0  0
  132.6780  122.0500   63.8540 C   0  0  0  0  0  0  0  0  0  0  0  0
  132.4470  123.4360   64.5010 C   0  0  0  0  0  0  0  0  0  0  0  0
  133.4930  124.3810   64.1010 N   0  0  0  0  0  0  0  0  0  0  0  0
  133.3210  125.6950   64.7280 C   0  0  0  0  0  0  0  0  0  0  0  0
  131.9460  125.8660   65.4040 C   0  0  0  0  0  0  0  0  0  0  0  0
  130.9480  126.6220   64.5130 C   0  0  0  0  0  0  0  0  0  0  0  0
  129.7550  127.0980   65.3490 N   0  0  0  0  0  0  0  0  0  0  0  0
  133.4280  124.5160   62.6470 C   0  0  0  0  0  0  0  0  0  0  0  0
  133.6950  123.1590   61.9570 C   0  0  0  0  0  0  0  0  0  0  0  0
  131.5320  120.0840   61.7800 C   0  0  0  0  0  0  0  0  0  0  0  0
  131.3720  118.9170   61.0240 C   0  0  0  0  0  0  0  0  0  0  0  0
  130.1500  118.0380   61.2640 C   0  0  0  0  0  0  0  0  0  0  0  0
  132.1140  116.4383   59.8722 H   0  0  0  0  0  0  0  0  0  0  0  0
  131.3123  117.3973   58.5821 H   0  0  0  0  0  0  0  0  0  0  0  0
  133.0986  117.2082   58.5821 H   0  0  0  0  0  0  0  0  0  0  0  0
  134.2121  119.1385   59.1429 H   0  0  0  0  0  0  0  0  0  0  0  0
  134.4832  121.1954   60.4991 H   0  0  0  0  0  0  0  0  0  0  0  0
  131.8376  121.3958   64.1291 H   0  0  0  0  0  0  0  0  0  0  0  0
  133.6438  121.6812   64.2299 H   0  0  0  0  0  0  0  0  0  0  0  0
  131.4690  123.8245   64.1806 H   0  0  0  0  0  0  0  0  0  0  0  0
  132.4758  123.3223   65.5947 H   0  0  0  0  0  0  0  0  0  0  0  0
  134.1042  125.8251   65.4893 H   0  0  0  0  0  0  0  0  0  0  0  0
  133.3918  126.4507   63.9318 H   0  0  0  0  0  0  0  0  0  0  0  0
  131.5359  124.8703   65.6285 H   0  0  0  0  0  0  0  0  0  0  0  0
  132.0928  126.4561   66.3206 H   0  0  0  0  0  0  0  0  0  0  0  0
  131.4480  127.4924   64.0632 H   0  0  0  0  0  0  0  0  0  0  0  0
  130.5883  125.9481   63.7215 H   0  0  0  0  0  0  0  0  0  0  0  0
  129.8730  128.0690   65.6020 H   0  0  0  0  0  0  0  0  0  0  0  0
  129.6800  126.5480   66.1930 H   0  0  0  0  0  0  0  0  0  0  0  0
  128.8980  127.0020   64.8220 H   0  0  0  0  0  0  0  0  0  0  0  0
  132.4277  124.8745   62.3625 H   0  0  0  0  0  0  0  0  0  0  0  0
  134.1978  125.2327   62.3248 H   0  0  0  0  0  0  0  0  0  0  0  0
  133.5890  123.2958   60.8707 H   0  0  0  0  0  0  0  0  0  0  0  0
  134.7097  122.8476   62.2459 H   0  0  0  0  0  0  0  0  0  0  0  0
  130.7713  120.3448   62.5306 H   0  0  0  0  0  0  0  0  0  0  0  0
  129.9886  117.9219   62.3459 H   0  0  0  0  0  0  0  0  0  0  0  0
  129.2653  118.5080   60.8097 H   0  0  0  0  0  0  0  0  0  0  0  0
  130.3142  117.0498   60.8097 H   0  0  0  0  0  0  0  0  0  0  0  0
  1  2  1  0
  2  3  2  0
  3  4  1  0
  4  5  2  0
  5  6  1  0
  6  7  1  0
  7  8  1  0
  8  9  1  0
  9 10  1  0
 10 11  1  0
 11 12  1  0
 12 13  1  0
  9 14  1  0
 14 15  1  0
  5 16  1  0
 16 17  2  0
 17 18  1  0
 17  2  1  0
 15  6  1  0
  1 19  1  0
  1 20  1  0
  1 21  1  0
  3 22  1  0
  4 23  1  0
  7 24  1  0
  7 25  1  0
  8 26  1  0
  8 27  1  0
 10 28  1  0
 10 29  1  0
 11 30  1  0
 11 31  1  0
 12 32  1  0
 12 33  1  0
 13 34  1  0
 13 35  1  0
 13 36  1  0
 14 37  1  0
 14 38  1  0
 15 39  1  0
 15 40  1  0
 16 41  1  0
 18 42  1  0
 18 43  1  0
 18 44  1  0
M  CHG  1  13   1
M  END
>  <Binding energies>  (1) 
[-7.85]

>  <Ligand effiencies>  (1) 
[-0.3738095238095238]

>  <Interactions>  (1) 
["V-B:GLU:543:CD:9879, V-A:ARG:545:CZ:4925, V-B:TYR:539:CD2:9845, V-B:TYR:539:C:9838, V-B:TYR:539:CE2:9847, V-A:LEU:475:CD2:4258, V-A:PRO:482:CG:4326, V-B:ALA:541:CB:9863, V-A:ASP:366:CG:3212, H-B:GLU:543:OE2:9881, V-A:ILE:369:CG2:3236, V-B:TYR:539:CB:9842, V-A:ILE:369:CD1:3238, V-A:HIS:383:CE1:3393, V-A:PRO:482:CB:4325, V-A:GLU:543:CD:4907, H-B:GLU:543:OE1:9880, V-A:GLY:454:CA:4048, V-A:SER:385:CA:3406, H-A:TYR:484:OH:4347, H-A:GLY:454:N:4049, H-A:GLU:543:OE2:4909, H-A:GLU:543:OE1:4908, V-A:LEU:373:CD1:3279, V-A:HIS:383:CG:3389"]

$$$$
RR32_Rahimova_2017
     RDKit          3D

 37 39  0  0  0  0  0  0  0  0999 V2000
  123.6350  124.1400   59.0730 C   0  0  0  0  0  0  0  0  0  0  0  0
  125.0680  123.6310   58.9510 C   0  0  0  0  0  0  0  0  0  0  0  0
  125.8750  123.6550   60.0880 C   0  0  0  0  0  0  0  0  0  0  0  0
  127.1870  123.1950   60.0160 C   0  0  0  0  0  0  0  0  0  0  0  0
  127.9850  123.2200   61.1460 N   0  0  0  0  0  0  0  0  0  0  0  0
  127.3230  123.4970   62.4340 C   0  0  0  0  0  0  0  0  0  0  0  0
  128.3170  123.6830   63.6040 C   0  0  0  0  0  0  0  0  0  0  0  0
  129.1500  122.4900   63.7550 N   0  0  0  0  0  0  0  0  0  0  0  0
  130.0660  122.6520   64.8780 C   0  0  0  0  0  0  0  0  0  0  0  0
  129.8980  122.3020   62.5140 C   0  0  0  0  0  0  0  0  0  0  0  0
  128.9280  122.0990   61.3270 C   0  0  0  0  0  0  0  0  0  0  0  0
  127.7330  122.7170   58.8670 N   0  0  0  0  0  0  0  0  0  0  0  0
  126.9710  122.6850   57.7400 C   0  0  0  0  0  0  0  0  0  0  0  0
  127.5670  122.1840   56.5570 C   0  0  0  0  0  0  0  0  0  0  0  0
  126.8360  122.1270   55.3750 C   0  0  0  0  0  0  0  0  0  0  0  0
  125.5160  122.5590   55.3410 C   0  0  0  0  0  0  0  0  0  0  0  0
  124.9010  123.0570   56.4860 C   0  0  0  0  0  0  0  0  0  0  0  0
  125.6110  123.1350   57.7200 C   0  0  0  0  0  0  0  0  0  0  0  0
  123.3687  124.2346   60.1361 H   0  0  0  0  0  0  0  0  0  0  0  0
  123.5521  125.1226   58.5854 H   0  0  0  0  0  0  0  0  0  0  0  0
  122.9509  123.4299   58.5854 H   0  0  0  0  0  0  0  0  0  0  0  0
  125.4759  124.0365   61.0394 H   0  0  0  0  0  0  0  0  0  0  0  0
  126.7290  124.4170   62.3307 H   0  0  0  0  0  0  0  0  0  0  0  0
  126.6970  122.6247   62.6733 H   0  0  0  0  0  0  0  0  0  0  0  0
  128.9602  124.5516   63.3995 H   0  0  0  0  0  0  0  0  0  0  0  0
  127.7508  123.8449   64.5331 H   0  0  0  0  0  0  0  0  0  0  0  0
  129.5099  122.5536   65.8219 H   0  0  0  0  0  0  0  0  0  0  0  0
  130.8460  121.8779   64.8296 H   0  0  0  0  0  0  0  0  0  0  0  0
  130.5331  123.6467   64.8296 H   0  0  0  0  0  0  0  0  0  0  0  0
  130.5193  123.1903   62.3269 H   0  0  0  0  0  0  0  0  0  0  0  0
  130.5345  121.4102   62.6120 H   0  0  0  0  0  0  0  0  0  0  0  0
  129.5204  121.9889   60.4067 H   0  0  0  0  0  0  0  0  0  0  0  0
  128.3300  121.2017   61.5444 H   0  0  0  0  0  0  0  0  0  0  0  0
  128.6113  121.8389   56.5730 H   0  0  0  0  0  0  0  0  0  0  0  0
  127.3065  121.7370   54.4604 H   0  0  0  0  0  0  0  0  0  0  0  0
  124.9507  122.5069   54.3988 H   0  0  0  0  0  0  0  0  0  0  0  0
  123.8551  123.3943   56.4383 H   0  0  0  0  0  0  0  0  0  0  0  0
  1  2  1  0
  2  3  2  0
  3  4  1  0
  4  5  1  0
  5  6  1  0
  6  7  1  0
  7  8  1  0
  8  9  1  0
  8 10  1  0
 10 11  1  0
  4 12  2  0
 12 13  1  0
 13 14  2  0
 14 15  1  0
 15 16  2  0
 16 17  1  0
 17 18  2  0
 18  2  1  0
 11  5  1  0
 18 13  1  0
  1 19  1  0
  1 20  1  0
  1 21  1  0
  3 22  1  0
  6 23  1  0
  6 24  1  0
  7 25  1  0
  7 26  1  0
  9 27  1  0
  9 28  1  0
  9 29  1  0
 10 30  1  0
 10 31  1  0
 11 32  1  0
 11 33  1  0
 14 34  1  0
 15 35  1  0
 16 36  1  0
 17 37  1  0
M  END
>  <Binding energies>  (1) 
[-6.59]

>  <Ligand effiencies>  (1) 
[-0.3661111111111111]

>  <Interactions>  (1) 
["V-B:GLU:543:CD:9879, V-B:ASP:366:CG:8183, V-B:LEU:363:CB:8157, V-B:TYR:531:CZ:9765, V-B:ASP:366:CB:8182, V-B:PRO:540:N:9855, V-B:LEU:363:CA:8155, V-B:PRO:540:CB:9856, V-B:TYR:539:CD2:9845, V-B:TYR:539:C:9838, V-B:MET:535:CE:9806, V-B:TYR:531:CE2:9764, V-B:PRO:540:CA:9854, V-B:LEU:363:CD1:8159, V-B:TYR:539:CE2:9847, V-A:LEU:475:CD2:4258, V-B:ALA:541:CB:9863, V-B:TYR:539:CZ:9848, V-B:TYR:539:CE1:9846, V-B:MET:535:CG:9804, V-B:TYR:539:CA:9840, V-B:TYR:539:CD1:9844, V-B:ILE:538:CD1:9836, V-B:TYR:539:CG:9843, V-B:ILE:538:CG2:9834, V-B:ILE:538:CA:9831, V-B:GLU:543:CG:9878, V-A:TYR:484:CE2:4345, V-B:PRO:540:CD:9858, V-B:ILE:538:C:9829, V-A:LEU:475:CD1:4257"]

$$$$
RR32_Rahimova_2017-again1
     RDKit          3D

 38 40  0  0  0  0  0  0  0  0999 V2000
  133.8720  121.5980   61.0880 C   0  0  0  0  0  0  0  0  0  0  0  0
  132.4830  121.0850   61.4410 C   0  0  0  0  0  0  0  0  0  0  0  0
  131.6080  121.8790   62.1830 C   0  0  0  0  0  0  0  0  0  0  0  0
  130.3300  121.4070   62.5020 C   0  0  0  0  0  0  0  0  0  0  0  0
  129.4400  122.1820   63.2540 N   0  0  0  0  0  0  0  0  0  0  0  0
  129.7190  122.4720   64.6740 C   0  0  0  0  0  0  0  0  0  0  0  0
  130.6160  123.7190   64.8610 C   0  0  0  0  0  0  0  0  0  0  0  0
  129.8860  124.9410   64.2710 N   0  0  0  0  0  0  0  0  0  0  0  0
  130.7440  126.2130   64.4150 C   0  0  0  0  0  0  0  0  0  0  0  0
  129.5720  124.6600   62.7870 C   0  0  0  0  0  0  0  0  0  0  0  0
  128.7400  123.3590   62.6970 C   0  0  0  0  0  0  0  0  0  0  0  0
  129.9190  120.1650   62.1260 N   0  0  0  0  0  0  0  0  0  0  0  0
  130.7490  119.3690   61.3990 C   0  0  0  0  0  0  0  0  0  0  0  0
  130.2830  118.0900   61.0120 C   0  0  0  0  0  0  0  0  0  0  0  0
  131.0980  117.2440   60.2650 C   0  0  0  0  0  0  0  0  0  0  0  0
  132.3770  117.6440   59.8910 C   0  0  0  0  0  0  0  0  0  0  0  0
  132.8650  118.8950   60.2590 C   0  0  0  0  0  0  0  0  0  0  0  0
  132.0610  119.7880   61.0210 C   0  0  0  0  0  0  0  0  0  0  0  0
  134.4322  121.8049   62.0118 H   0  0  0  0  0  0  0  0  0  0  0  0
  134.4049  120.8374   60.4986 H   0  0  0  0  0  0  0  0  0  0  0  0
  133.7826  122.5224   60.4986 H   0  0  0  0  0  0  0  0  0  0  0  0
  131.9235  122.8781   62.5179 H   0  0  0  0  0  0  0  0  0  0  0  0
  128.7643  122.6436   65.1928 H   0  0  0  0  0  0  0  0  0  0  0  0
  130.2576  121.6083   65.0911 H   0  0  0  0  0  0  0  0  0  0  0  0
  130.8058  123.8820   65.9322 H   0  0  0  0  0  0  0  0  0  0  0  0
  131.5777  123.5712   64.3478 H   0  0  0  0  0  0  0  0  0  0  0  0
  129.0140  125.0630   64.7650 H   0  0  0  0  0  0  0  0  0  0  0  0
  130.8940  126.4353   65.4818 H   0  0  0  0  0  0  0  0  0  0  0  0
  131.7198  126.0536   63.9330 H   0  0  0  0  0  0  0  0  0  0  0  0
  130.2307  127.0581   63.9330 H   0  0  0  0  0  0  0  0  0  0  0  0
  128.9973  125.4975   62.3647 H   0  0  0  0  0  0  0  0  0  0  0  0
  130.5075  124.5481   62.2193 H   0  0  0  0  0  0  0  0  0  0  0  0
  127.8023  123.5041   63.2535 H   0  0  0  0  0  0  0  0  0  0  0  0
  128.5599  123.1585   61.6305 H   0  0  0  0  0  0  0  0  0  0  0  0
  129.2736  117.7633   61.3024 H   0  0  0  0  0  0  0  0  0  0  0  0
  130.7279  116.2516   59.9681 H   0  0  0  0  0  0  0  0  0  0  0  0
  133.0087  116.9654   59.2989 H   0  0  0  0  0  0  0  0  0  0  0  0
  133.8797  119.1952   59.9584 H   0  0  0  0  0  0  0  0  0  0  0  0
  1  2  1  0
  2  3  2  0
  3  4  1  0
  4  5  1  0
  5  6  1  0
  6  7  1  0
  7  8  1  0
  8  9  1  0
  8 10  1  0
 10 11  1  0
  4 12  2  0
 12 13  1  0
 13 14  2  0
 14 15  1  0
 15 16  2  0
 16 17  1  0
 17 18  2  0
 18  2  1  0
 11  5  1  0
 18 13  1  0
  1 19  1  0
  1 20  1  0
  1 21  1  0
  3 22  1  0
  6 23  1  0
  6 24  1  0
  7 25  1  0
  7 26  1  0
  8 27  1  0
  9 28  1  0
  9 29  1  0
  9 30  1  0
 10 31  1  0
 10 32  1  0
 11 33  1  0
 11 34  1  0
 14 35  1  0
 15 36  1  0
 16 37  1  0
 17 38  1  0
M  CHG  1   8   1
M  END
>  <Binding energies>  (1) 
[-7.07]

>  <Ligand effiencies>  (1) 
[-0.3721052631578948]

>  <Interactions>  (1) 
["V-B:GLU:543:CD:9879, V-B:TYR:539:CD2:9845, V-B:TYR:539:C:9838, V-A:LEU:475:CD2:4258, V-A:PRO:482:CG:4326, V-B:ALA:541:CB:9863, H-B:GLU:543:OE2:9881, V-A:ILE:369:CG2:3236, V-B:TYR:539:CB:9842, V-A:ILE:369:CD1:3238, V-A:HIS:383:CE1:3393, V-A:PRO:482:CB:4325, H-B:GLU:543:OE1:9880, V-A:SER:385:CA:3406, V-A:LEU:475:CD1:4257"]

$$$$
RR32_Rahimova_2017-again2
     RDKit          3D

 39 41  0  0  0  0  0  0  0  0999 V2000
  134.0530  121.6230   61.4560 C   0  0  0  0  0  0  0  0  0  0  0  0
  132.6150  121.1300   61.5500 C   0  0  0  0  0  0  0  0  0  0  0  0
  131.6380  121.9270   62.1530 C   0  0  0  0  0  0  0  0  0  0  0  0
  130.3110  121.4890   62.2540 C   0  0  0  0  0  0  0  0  0  0  0  0
  129.2630  122.2770   62.8530 N   0  0  0  0  0  0  0  0  0  0  0  0
  129.2220  122.4990   64.3230 C   0  0  0  0  0  0  0  0  0  0  0  0
  130.1130  123.7060   64.7210 C   0  0  0  0  0  0  0  0  0  0  0  0
  129.6120  124.9780   63.9950 N   0  0  0  0  0  0  0  0  0  0  0  0
  130.5090  126.1890   64.3220 C   0  0  0  0  0  0  0  0  0  0  0  0
  129.5480  124.7320   62.4690 C   0  0  0  0  0  0  0  0  0  0  0  0
  128.6850  123.4740   62.1900 C   0  0  0  0  0  0  0  0  0  0  0  0
  130.0060  120.2790   61.7420 N   0  0  0  0  0  0  0  0  0  0  0  0
  130.8980  119.4280   61.1310 C   0  0  0  0  0  0  0  0  0  0  0  0
  130.4720  118.1780   60.6290 C   0  0  0  0  0  0  0  0  0  0  0  0
  131.4010  117.3440   60.0130 C   0  0  0  0  0  0  0  0  0  0  0  0
  132.7330  117.7330   59.8910 C   0  0  0  0  0  0  0  0  0  0  0  0
  133.1670  118.9640   60.3830 C   0  0  0  0  0  0  0  0  0  0  0  0
  132.2550  119.8520   61.0200 C   0  0  0  0  0  0  0  0  0  0  0  0
  134.4597  121.7624   62.4685 H   0  0  0  0  0  0  0  0  0  0  0  0
  134.6602  120.8817   60.9158 H   0  0  0  0  0  0  0  0  0  0  0  0
  134.0776  122.5809   60.9158 H   0  0  0  0  0  0  0  0  0  0  0  0
  131.9151  122.9130   62.5543 H   0  0  0  0  0  0  0  0  0  0  0  0
  128.1846  122.6996   64.6290 H   0  0  0  0  0  0  0  0  0  0  0  0
  129.6014  121.5980   64.8273 H   0  0  0  0  0  0  0  0  0  0  0  0
  130.0585  123.8591   65.8089 H   0  0  0  0  0  0  0  0  0  0  0  0
  131.1548  123.5044   64.4311 H   0  0  0  0  0  0  0  0  0  0  0  0
  128.6720  125.1660   64.3160 H   0  0  0  0  0  0  0  0  0  0  0  0
  130.5914  126.3002   65.4133 H   0  0  0  0  0  0  0  0  0  0  0  0
  131.5095  126.0307   63.8930 H   0  0  0  0  0  0  0  0  0  0  0  0
  130.0660  127.0999   63.8930 H   0  0  0  0  0  0  0  0  0  0  0  0
  129.0966  125.6047   61.9744 H   0  0  0  0  0  0  0  0  0  0  0  0
  130.5641  124.5770   62.0771 H   0  0  0  0  0  0  0  0  0  0  0  0
  127.6680  123.6425   62.5739 H   0  0  0  0  0  0  0  0  0  0  0  0
  128.6615  123.2976   61.1045 H   0  0  0  0  0  0  0  0  0  0  0  0
  129.0450  119.9770   61.8080 H   0  0  0  0  0  0  0  0  0  0  0  0
  129.4208  117.8680   60.7236 H   0  0  0  0  0  0  0  0  0  0  0  0
  131.0801  116.3685   59.6188 H   0  0  0  0  0  0  0  0  0  0  0  0
  133.4520  117.0606   59.4002 H   0  0  0  0  0  0  0  0  0  0  0  0
  134.2236  119.2511   60.2778 H   0  0  0  0  0  0  0  0  0  0  0  0
  1  2  1  0
  2  3  2  0
  3  4  1  0
  4  5  1  0
  5  6  1  0
  6  7  1  0
  7  8  1  0
  8  9  1  0
  8 10  1  0
 10 11  1  0
  4 12  2  0
 12 13  1  0
 13 14  2  0
 14 15  1  0
 15 16  2  0
 16 17  1  0
 17 18  2  0
 18  2  1  0
 11  5  1  0
 18 13  1  0
  1 19  1  0
  1 20  1  0
  1 21  1  0
  3 22  1  0
  6 23  1  0
  6 24  1  0
  7 25  1  0
  7 26  1  0
  8 27  1  0
  9 28  1  0
  9 29  1  0
  9 30  1  0
 10 31  1  0
 10 32  1  0
 11 33  1  0
 11 34  1  0
 12 35  1  0
 14 36  1  0
 15 37  1  0
 16 38  1  0
 17 39  1  0
M  CHG  2   8   1  12   1
M  END
>  <Binding energies>  (1) 
[-7.19]

>  <Ligand effiencies>  (1) 
[-0.35950000000000004]

>  <Interactions>  (1) 
["V-B:GLU:543:CD:9879, V-B:TYR:539:CD2:9845, V-B:TYR:539:C:9838, V-A:LEU:475:CD2:4258, V-B:ALA:541:CB:9863, V-A:SER:385:CB:3408, H-B:GLU:543:OE2:9881, V-A:ILE:369:CG2:3236, V-B:TYR:539:CB:9842, V-A:ILE:369:CD1:3238, V-A:HIS:383:CE1:3393, H-B:GLU:543:OE1:9880, V-A:SER:385:CA:3406, V-B:GLU:543:CG:9878, V-A:SER:385:C:3404, H-B:TYR:539:O:9839, V-A:VAL:384:C:3396"]

$$$$
RR33_Rahimova_2017
     RDKit          3D

 36 37  0  0  0  0  0  0  0  0999 V2000
  132.7310  118.0210   59.1190 C   0  0  0  0  0  0  0  0  0  0  0  0
  132.8700  118.7180   60.4750 C   0  0  0  0  0  0  0  0  0  0  0  0
  133.6630  119.8900   60.3080 O   0  0  0  0  0  0  0  0  0  0  0  0
  133.4280  120.9880   61.1130 C   0  0  0  0  0  0  0  0  0  0  0  0
  133.4770  120.7710   62.4900 C   0  0  0  0  0  0  0  0  0  0  0  0
  133.2500  121.8170   63.3800 C   0  0  0  0  0  0  0  0  0  0  0  0
  132.9690  123.1010   62.9040 C   0  0  0  0  0  0  0  0  0  0  0  0
  132.7240  124.2230   63.8610 C   0  0  0  0  0  0  0  0  0  0  0  0
  133.4450  124.5560   64.9080 N   0  0  0  0  0  0  0  0  0  0  0  0
  132.8340  125.6070   65.4340 C   0  0  0  0  0  0  0  0  0  0  0  0
  133.3840  126.2900   66.6680 C   0  0  0  0  0  0  0  0  0  0  0  0
  134.3490  125.4340   67.3410 N   0  0  0  0  0  0  0  0  0  0  0  0
  135.7060  125.8700   67.0570 C   0  0  0  0  0  0  0  0  0  0  0  0
  131.7080  125.9170   64.6810 C   0  0  0  0  0  0  0  0  0  0  0  0
  130.6280  126.9690   64.7480 C   0  0  0  0  0  0  0  0  0  0  0  0
  131.6420  125.0220   63.6680 O   0  0  0  0  0  0  0  0  0  0  0  0
  132.9220  123.3240   61.5240 C   0  0  0  0  0  0  0  0  0  0  0  0
  133.1490  122.2770   60.6330 C   0  0  0  0  0  0  0  0  0  0  0  0
  132.5181  116.9532   59.2757 H   0  0  0  0  0  0  0  0  0  0  0  0
  131.9067  118.4801   58.5535 H   0  0  0  0  0  0  0  0  0  0  0  0
  133.6683  118.1288   58.5535 H   0  0  0  0  0  0  0  0  0  0  0  0
  131.8746  118.9954   60.8522 H   0  0  0  0  0  0  0  0  0  0  0  0
  133.3501  118.0407   61.1966 H   0  0  0  0  0  0  0  0  0  0  0  0
  133.6969  119.7647   62.8759 H   0  0  0  0  0  0  0  0  0  0  0  0
  133.2920  121.6322   64.4636 H   0  0  0  0  0  0  0  0  0  0  0  0
  133.8772  127.2278   66.3724 H   0  0  0  0  0  0  0  0  0  0  0  0
  132.5529  126.4977   67.3580 H   0  0  0  0  0  0  0  0  0  0  0  0
  134.2350  124.4840   67.0160 H   0  0  0  0  0  0  0  0  0  0  0  0
  136.2413  126.0420   68.0024 H   0  0  0  0  0  0  0  0  0  0  0  0
  136.2266  125.0939   66.4768 H   0  0  0  0  0  0  0  0  0  0  0  0
  135.6772  126.8041   66.4768 H   0  0  0  0  0  0  0  0  0  0  0  0
  130.3986  127.1925   65.8003 H   0  0  0  0  0  0  0  0  0  0  0  0
  130.9758  127.8840   64.2462 H   0  0  0  0  0  0  0  0  0  0  0  0
  129.7224  126.5973   64.2462 H   0  0  0  0  0  0  0  0  0  0  0  0
  132.7046  124.3316   61.1399 H   0  0  0  0  0  0  0  0  0  0  0  0
  133.1094  122.4614   59.5493 H   0  0  0  0  0  0  0  0  0  0  0  0
  1  2  1  0
  2  3  1  0
  3  4  1  0
  4  5  2  0
  5  6  1  0
  6  7  2  0
  7  8  1  0
  8  9  2  0
  9 10  1  0
 10 11  1  0
 11 12  1  0
 12 13  1  0
 10 14  2  0
 14 15  1  0
 14 16  1  0
  7 17  1  0
 17 18  2  0
 18  4  1  0
 16  8  1  0
  1 19  1  0
  1 20  1  0
  1 21  1  0
  2 22  1  0
  2 23  1  0
  5 24  1  0
  6 25  1  0
 11 26  1  0
 11 27  1  0
 12 28  1  0
 13 29  1  0
 13 30  1  0
 13 31  1  0
 15 32  1  0
 15 33  1  0
 15 34  1  0
 17 35  1  0
 18 36  1  0
M  END
>  <Binding energies>  (1) 
[-5.3]

>  <Ligand effiencies>  (1) 
[-0.2789473684210526]

>  <Interactions>  (1) 
["V-A:ARG:545:CZ:4925, V-A:ARG:545:CD:4922, V-B:TYR:539:CD2:9845, V-A:ARG:545:CG:4921, V-B:TYR:539:CE2:9847, V-A:LEU:475:CD2:4258, V-A:SER:385:CB:3408, V-A:ILE:369:CG2:3236, V-B:TYR:539:CB:9842, V-B:TYR:539:CG:9843, V-A:ILE:369:CD1:3238, V-A:GLU:543:CD:4907, V-A:GLY:454:CA:4048, V-A:SER:385:CA:3406, H-A:TYR:484:OH:4347, H-A:GLY:454:N:4049, V-A:GLY:453:C:4041, V-A:LEU:373:CG:3278, V-A:LEU:373:CD2:3280, V-A:SER:385:C:3404, V-A:ARG:545:CB:4920, V-A:ILE:455:C:4051, V-A:GLY:453:CA:4043, H-A:ILE:455:O:4052, V-A:LEU:373:CD1:3279, H-A:ILE:455:N:4054"]

$$$$
RR33_Rahimova_2017-again1
     RDKit          3D

 37 38  0  0  0  0  0  0  0  0999 V2000
  132.7970  118.3490   59.2120 C   0  0  0  0  0  0  0  0  0  0  0  0
  132.9180  119.0680   60.5590 C   0  0  0  0  0  0  0  0  0  0  0  0
  133.5620  120.3220   60.3540 O   0  0  0  0  0  0  0  0  0  0  0  0
  133.3050  121.3670   61.2220 C   0  0  0  0  0  0  0  0  0  0  0  0
  133.3190  121.0630   62.5830 C   0  0  0  0  0  0  0  0  0  0  0  0
  133.0730  122.0500   63.5330 C   0  0  0  0  0  0  0  0  0  0  0  0
  132.8070  123.3630   63.1320 C   0  0  0  0  0  0  0  0  0  0  0  0
  132.5430  124.4260   64.1490 C   0  0  0  0  0  0  0  0  0  0  0  0
  131.4580  125.1580   64.2830 N   0  0  0  0  0  0  0  0  0  0  0  0
  131.6930  125.9520   65.3170 C   0  0  0  0  0  0  0  0  0  0  0  0
  130.6630  126.9640   65.7780 C   0  0  0  0  0  0  0  0  0  0  0  0
  129.5270  127.0340   64.7440 N   0  0  0  0  0  0  0  0  0  0  0  0
  129.7490  128.0990   63.6600 C   0  0  0  0  0  0  0  0  0  0  0  0
  132.9640  125.6950   65.8180 C   0  0  0  0  0  0  0  0  0  0  0  0
  133.8050  126.2430   66.9440 C   0  0  0  0  0  0  0  0  0  0  0  0
  133.5050  124.7100   65.0640 O   0  0  0  0  0  0  0  0  0  0  0  0
  132.7910  123.6720   61.7680 C   0  0  0  0  0  0  0  0  0  0  0  0
  133.0390  122.6840   60.8190 C   0  0  0  0  0  0  0  0  0  0  0  0
  132.6167  117.2775   59.3832 H   0  0  0  0  0  0  0  0  0  0  0  0
  131.9580  118.7756   58.6427 H   0  0  0  0  0  0  0  0  0  0  0  0
  133.7294  118.4775   58.6427 H   0  0  0  0  0  0  0  0  0  0  0  0
  131.9159  119.2319   60.9819 H   0  0  0  0  0  0  0  0  0  0  0  0
  133.5065  118.4555   61.2579 H   0  0  0  0  0  0  0  0  0  0  0  0
  133.5265  120.0331   62.9089 H   0  0  0  0  0  0  0  0  0  0  0  0
  133.0879  121.7963   64.6032 H   0  0  0  0  0  0  0  0  0  0  0  0
  130.2555  126.6568   66.7524 H   0  0  0  0  0  0  0  0  0  0  0  0
  131.1344  127.9529   65.8775 H   0  0  0  0  0  0  0  0  0  0  0  0
  129.4320  126.1310   64.3030 H   0  0  0  0  0  0  0  0  0  0  0  0
  128.6630  127.2360   65.2280 H   0  0  0  0  0  0  0  0  0  0  0  0
  129.9514  129.0699   64.1358 H   0  0  0  0  0  0  0  0  0  0  0  0
  130.6066  127.8117   63.0339 H   0  0  0  0  0  0  0  0  0  0  0  0
  128.8481  128.1782   63.0339 H   0  0  0  0  0  0  0  0  0  0  0  0
  133.3608  125.9536   67.9078 H   0  0  0  0  0  0  0  0  0  0  0  0
  134.8241  125.8350   66.8726 H   0  0  0  0  0  0  0  0  0  0  0  0
  133.8434  127.3400   66.8726 H   0  0  0  0  0  0  0  0  0  0  0  0
  132.5812  124.7018   61.4431 H   0  0  0  0  0  0  0  0  0  0  0  0
  133.0263  122.9372   59.7486 H   0  0  0  0  0  0  0  0  0  0  0  0
  1  2  1  0
  2  3  1  0
  3  4  1  0
  4  5  2  0
  5  6  1  0
  6  7  2  0
  7  8  1  0
  8  9  2  0
  9 10  1  0
 10 11  1  0
 11 12  1  0
 12 13  1  0
 10 14  2  0
 14 15  1  0
 14 16  1  0
  7 17  1  0
 17 18  2  0
 18  4  1  0
 16  8  1  0
  1 19  1  0
  1 20  1  0
  1 21  1  0
  2 22  1  0
  2 23  1  0
  5 24  1  0
  6 25  1  0
 11 26  1  0
 11 27  1  0
 12 28  1  0
 12 29  1  0
 13 30  1  0
 13 31  1  0
 13 32  1  0
 15 33  1  0
 15 34  1  0
 15 35  1  0
 17 36  1  0
 18 37  1  0
M  CHG  1  12   1
M  END
>  <Binding energies>  (1) 
[-6.49]

>  <Ligand effiencies>  (1) 
[-0.3245]

>  <Interactions>  (1) 
["V-B:GLU:543:CD:9879, V-A:ARG:545:CZ:4925, V-A:ARG:545:CD:4922, V-B:TYR:539:CD2:9845, V-A:ARG:545:CG:4921, V-B:TYR:539:CE2:9847, V-A:LEU:475:CD2:4258, V-A:SER:385:CB:3408, H-B:GLU:543:OE2:9881, V-A:ILE:369:CG2:3236, V-B:TYR:539:CG:9843, V-A:ILE:369:CD1:3238, V-A:GLU:543:CD:4907, H-B:GLU:543:OE1:9880, V-A:GLY:454:CA:4048, V-A:SER:385:CA:3406, H-A:TYR:484:OH:4347, H-A:GLY:454:N:4049, V-A:LEU:373:CG:3278, V-A:LEU:373:CD2:3280, V-A:SER:385:C:3404"]

$$$$
RR3_Rahimova_2017
     RDKit          3D

 63 69  0  0  0  0  0  0  0  0999 V2000
  131.5600  133.7380   55.8930 C   0  0  0  0  0  0  0  0  0  0  0  0
  132.3720  133.3540   56.9540 C   0  0  0  0  0  0  0  0  0  0  0  0
  131.8360  132.6070   57.9980 C   0  0  0  0  0  0  0  0  0  0  0  0
  130.4840  132.2330   57.9950 C   0  0  0  0  0  0  0  0  0  0  0  0
  129.9080  131.4280   59.1190 C   0  0  0  0  0  0  0  0  0  0  0  0
  128.5220  131.3490   59.3120 C   0  0  0  0  0  0  0  0  0  0  0  0
  127.9880  130.6030   60.3590 C   0  0  0  0  0  0  0  0  0  0  0  0
  128.8300  129.9240   61.2430 C   0  0  0  0  0  0  0  0  0  0  0  0
  128.2620  129.1240   62.3740 C   0  0  0  0  0  0  0  0  0  0  0  0
  128.3380  129.5850   63.6180 N   0  0  0  0  0  0  0  0  0  0  0  0
  127.7280  128.7100   64.3800 C   0  0  0  0  0  0  0  0  0  0  0  0
  127.5730  128.8170   65.8280 C   0  0  0  0  0  0  0  0  0  0  0  0
  126.4890  129.3690   66.4880 C   0  0  0  0  0  0  0  0  0  0  0  0
  126.6740  129.2960   67.8440 N   0  0  0  0  0  0  0  0  0  0  0  0
  127.8830  128.6990   68.1210 C   0  0  0  0  0  0  0  0  0  0  0  0
  128.5010  128.4100   69.3430 C   0  0  0  0  0  0  0  0  0  0  0  0
  129.7490  127.7900   69.2900 C   0  0  0  0  0  0  0  0  0  0  0  0
  130.3590  127.4700   68.0820 C   0  0  0  0  0  0  0  0  0  0  0  0
  129.7440  127.7570   66.8650 C   0  0  0  0  0  0  0  0  0  0  0  0
  128.4840  128.3830   66.8620 C   0  0  0  0  0  0  0  0  0  0  0  0
  127.2520  127.6640   63.6380 N   0  0  0  0  0  0  0  0  0  0  0  0
  127.6000  127.8850   62.3310 C   0  0  0  0  0  0  0  0  0  0  0  0
  127.2970  126.9160   61.2360 C   0  0  0  0  0  0  0  0  0  0  0  0
  126.5640  125.7600   61.5070 C   0  0  0  0  0  0  0  0  0  0  0  0
  126.2920  124.8480   60.4920 C   0  0  0  0  0  0  0  0  0  0  0  0
  126.7400  125.0710   59.1820 C   0  0  0  0  0  0  0  0  0  0  0  0
  126.4620  124.0790   58.0980 C   0  0  0  0  0  0  0  0  0  0  0  0
  125.1460  123.7970   57.7010 C   0  0  0  0  0  0  0  0  0  0  0  0
  124.8870  122.8770   56.6880 C   0  0  0  0  0  0  0  0  0  0  0  0
  125.9450  122.2270   56.0590 C   0  0  0  0  0  0  0  0  0  0  0  0
  127.2570  122.4920   56.4360 C   0  0  0  0  0  0  0  0  0  0  0  0
  127.5120  123.4120   57.4490 C   0  0  0  0  0  0  0  0  0  0  0  0
  127.4600  126.2450   58.9200 C   0  0  0  0  0  0  0  0  0  0  0  0
  127.7350  127.1600   59.9320 C   0  0  0  0  0  0  0  0  0  0  0  0
  130.2110  129.9850   61.0510 C   0  0  0  0  0  0  0  0  0  0  0  0
  130.7430  130.7320   60.0030 C   0  0  0  0  0  0  0  0  0  0  0  0
  129.6830  132.6320   56.9150 C   0  0  0  0  0  0  0  0  0  0  0  0
  130.2160  133.3800   55.8690 C   0  0  0  0  0  0  0  0  0  0  0  0
  131.9830  134.3287   55.0671 H   0  0  0  0  0  0  0  0  0  0  0  0
  133.4342  133.6397   56.9680 H   0  0  0  0  0  0  0  0  0  0  0  0
  132.4807  132.3057   58.8368 H   0  0  0  0  0  0  0  0  0  0  0  0
  127.8473  131.8835   58.6271 H   0  0  0  0  0  0  0  0  0  0  0  0
  126.8973  130.5479   60.4909 H   0  0  0  0  0  0  0  0  0  0  0  0
  125.6066  129.8035   65.9955 H   0  0  0  0  0  0  0  0  0  0  0  0
  125.9930  129.6430   68.5040 H   0  0  0  0  0  0  0  0  0  0  0  0
  128.0239  128.6606   70.3019 H   0  0  0  0  0  0  0  0  0  0  0  0
  130.2655  127.5472   70.2304 H   0  0  0  0  0  0  0  0  0  0  0  0
  131.3446  126.9816   68.0872 H   0  0  0  0  0  0  0  0  0  0  0  0
  130.2381  127.4970   65.9172 H   0  0  0  0  0  0  0  0  0  0  0  0
  126.7580  126.8580   63.9940 H   0  0  0  0  0  0  0  0  0  0  0  0
  126.1997  125.5689   62.5272 H   0  0  0  0  0  0  0  0  0  0  0  0
  125.7170  123.9385   60.7205 H   0  0  0  0  0  0  0  0  0  0  0  0
  124.3080  124.3093   58.1963 H   0  0  0  0  0  0  0  0  0  0  0  0
  123.8507  122.6649   56.3862 H   0  0  0  0  0  0  0  0  0  0  0  0
  125.7421  121.4996   55.2592 H   0  0  0  0  0  0  0  0  0  0  0  0
  128.0901  121.9766   55.9357 H   0  0  0  0  0  0  0  0  0  0  0  0
  128.5511  123.6190   57.7448 H   0  0  0  0  0  0  0  0  0  0  0  0
  127.8134  126.4463   57.8979 H   0  0  0  0  0  0  0  0  0  0  0  0
  128.2983  128.0771   59.7047 H   0  0  0  0  0  0  0  0  0  0  0  0
  130.8826  129.4403   61.7309 H   0  0  0  0  0  0  0  0  0  0  0  0
  131.8337  130.7762   59.8674 H   0  0  0  0  0  0  0  0  0  0  0  0
  128.6199  132.3502   56.8943 H   0  0  0  0  0  0  0  0  0  0  0  0
  129.5774  133.6865   55.0274 H   0  0  0  0  0  0  0  0  0  0  0  0
  1  2  2  0
  2  3  1  0
  3  4  2  0
  4  5  1  0
  5  6  2  0
  6  7  1  0
  7  8  2  0
  8  9  1  0
  9 10  1  0
 10 11  2  0
 11 12  1  0
 12 13  2  0
 13 14  1  0
 14 15  1  0
 15 16  2  0
 16 17  1  0
 17 18  2  0
 18 19  1  0
 19 20  2  0
 11 21  1  0
 21 22  1  0
 22 23  1  0
 23 24  2  0
 24 25  1  0
 25 26  2  0
 26 27  1  0
 27 28  2  0
 28 29  1  0
 29 30  2  0
 30 31  1  0
 31 32  2  0
 26 33  1  0
 33 34  2  0
  8 35  1  0
 35 36  2  0
  4 37  1  0
 37 38  2  0
 38  1  1  0
 36  5  1  0
 22  9  2  0
 34 23  1  0
 20 12  1  0
 32 27  1  0
 20 15  1  0
  1 39  1  0
  2 40  1  0
  3 41  1  0
  6 42  1  0
  7 43  1  0
 13 44  1  0
 14 45  1  0
 16 46  1  0
 17 47  1  0
 18 48  1  0
 19 49  1  0
 21 50  1  0
 24 51  1  0
 25 52  1  0
 28 53  1  0
 29 54  1  0
 30 55  1  0
 31 56  1  0
 32 57  1  0
 33 58  1  0
 34 59  1  0
 35 60  1  0
 36 61  1  0
 37 62  1  0
 38 63  1  0
M  END
>  <Binding energies>  (1) 
[-10.6]

>  <Ligand effiencies>  (1) 
[-0.265]

>  <Interactions>  (1) 
["V-A:HIS:456:CE1:4069, V-B:GLU:543:CD:9879, V-B:HIS:456:CE1:9040, V-B:PRO:540:N:9855, V-B:PRO:540:CB:9856, V-B:TYR:539:C:9838, V-B:MET:535:CE:9806, V-B:TYR:531:CE2:9764, V-B:LEU:363:CD1:8159, V-B:TYR:539:CE1:9846, H-B:GLU:543:OE2:9881, V-B:TYR:539:CD1:9844, V-B:ILE:538:CD1:9836, V-B:TYR:539:CG:9843, V-B:ILE:538:CG2:9834, V-B:ILE:538:CA:9831, V-A:GLU:543:CD:4907, H-B:GLU:543:OE1:9880, H-B:TYR:484:OH:9318, V-A:TYR:531:CE2:4792, V-A:LEU:363:CD1:3188, V-A:PRO:540:CA:4882, V-A:TYR:539:CD1:4872, V-A:PRO:540:CD:4886, V-A:ILE:538:CG2:4862, V-A:PRO:540:N:4883, V-A:PRO:540:CB:4884, V-A:TYR:539:CE1:4874, V-A:ILE:538:CB:4861, V-A:ILE:538:CA:4859, V-B:PRO:540:CD:9858, V-B:ILE:538:C:9829, V-B:TYR:484:CZ:9317, V-B:TYR:484:CE2:9316, V-A:ILE:538:C:4857"]

$$$$
RR4_Rahimova_2017
     RDKit          3D

 66 70  0  0  0  0  0  0  0  0999 V2000
  128.7720  128.9460   75.9260 C   0  0  0  0  0  0  0  0  0  0  0  0
  129.9230  128.7660   75.1080 O   0  0  0  0  0  0  0  0  0  0  0  0
  129.7630  128.6110   73.7440 C   0  0  0  0  0  0  0  0  0  0  0  0
  130.5940  129.3730   72.9260 C   0  0  0  0  0  0  0  0  0  0  0  0
  130.5050  129.2810   71.5410 C   0  0  0  0  0  0  0  0  0  0  0  0
  129.5770  128.4240   70.9300 C   0  0  0  0  0  0  0  0  0  0  0  0
  129.4820  128.3280   69.4350 C   0  0  0  0  0  0  0  0  0  0  0  0
  128.6510  129.1560   68.6730 C   0  0  0  0  0  0  0  0  0  0  0  0
  128.6010  129.0300   67.2790 C   0  0  0  0  0  0  0  0  0  0  0  0
  127.7120  129.9680   66.5300 C   0  0  0  0  0  0  0  0  0  0  0  0
  126.4390  129.5550   66.1240 C   0  0  0  0  0  0  0  0  0  0  0  0
  125.5990  130.4270   65.4360 C   0  0  0  0  0  0  0  0  0  0  0  0
  126.0110  131.7270   65.1460 C   0  0  0  0  0  0  0  0  0  0  0  0
  125.1120  132.5210   64.4600 O   0  0  0  0  0  0  0  0  0  0  0  0
  124.2970  131.9340   63.4510 C   0  0  0  0  0  0  0  0  0  0  0  0
  127.2860  132.1470   65.5560 C   0  0  0  0  0  0  0  0  0  0  0  0
  128.1230  131.2740   66.2450 C   0  0  0  0  0  0  0  0  0  0  0  0
  129.3890  128.0260   66.6630 C   0  0  0  0  0  0  0  0  0  0  0  0
  129.3750  127.8520   65.2080 C   0  0  0  0  0  0  0  0  0  0  0  0
  129.3630  127.7140   64.0590 N   0  0  0  0  0  0  0  0  0  0  0  0
  130.1830  127.2050   67.4960 C   0  0  0  0  0  0  0  0  0  0  0  0
  131.2230  125.8900   66.8980 S   0  0  0  0  0  0  0  0  0  0  0  0
  132.0080  126.4590   65.3530 C   0  0  0  0  0  0  0  0  0  0  0  0
  132.6520  125.3450   64.5180 C   0  0  0  0  0  0  0  0  0  0  0  0
  133.8710  125.3300   64.3270 O   0  0  0  0  0  0  0  0  0  0  0  0
  131.7830  124.4340   64.0220 N   0  0  0  0  0  0  0  0  0  0  0  0
  132.0550  123.3120   63.2350 C   0  0  0  0  0  0  0  0  0  0  0  0
  133.6610  122.8950   62.7000 S   0  0  0  0  0  0  0  0  0  0  0  0
  133.0780  121.4940   61.8560 C   0  0  0  0  0  0  0  0  0  0  0  0
  131.6860  121.3590   61.9820 C   0  0  0  0  0  0  0  0  0  0  0  0
  131.1110  122.3800   62.7760 C   0  0  0  0  0  0  0  0  0  0  0  0
  129.6850  122.4580   63.0770 C   0  0  0  0  0  0  0  0  0  0  0  0
  128.5540  122.5190   63.3150 N   0  0  0  0  0  0  0  0  0  0  0  0
  130.9360  120.1770   61.3570 C   0  0  0  0  0  0  0  0  0  0  0  0
  131.9180  119.0470   60.9750 C   0  0  0  0  0  0  0  0  0  0  0  0
  133.1620  119.5820   60.2440 C   0  0  0  0  0  0  0  0  0  0  0  0
  134.0020  120.5180   61.1400 C   0  0  0  0  0  0  0  0  0  0  0  0
  130.2370  127.3700   68.8380 N   0  0  0  0  0  0  0  0  0  0  0  0
  128.7460  127.6570   71.7630 C   0  0  0  0  0  0  0  0  0  0  0  0
  128.8330  127.7470   73.1490 C   0  0  0  0  0  0  0  0  0  0  0  0
  129.0643  128.9003   76.9855 H   0  0  0  0  0  0  0  0  0  0  0  0
  128.3199  129.9258   75.7123 H   0  0  0  0  0  0  0  0  0  0  0  0
  128.0423  128.1510   75.7123 H   0  0  0  0  0  0  0  0  0  0  0  0
  131.3283  130.0546   73.3801 H   0  0  0  0  0  0  0  0  0  0  0  0
  131.1731  129.8901   70.9143 H   0  0  0  0  0  0  0  0  0  0  0  0
  128.0305  129.9138   69.1737 H   0  0  0  0  0  0  0  0  0  0  0  0
  126.0987  128.5336   66.3498 H   0  0  0  0  0  0  0  0  0  0  0  0
  124.6021  130.0873   65.1187 H   0  0  0  0  0  0  0  0  0  0  0  0
  123.4907  131.3533   63.9228 H   0  0  0  0  0  0  0  0  0  0  0  0
  123.8604  132.7264   62.8253 H   0  0  0  0  0  0  0  0  0  0  0  0
  124.9102  131.2688   62.8253 H   0  0  0  0  0  0  0  0  0  0  0  0
  127.6248  133.1693   65.3321 H   0  0  0  0  0  0  0  0  0  0  0  0
  129.1176  131.6147   66.5685 H   0  0  0  0  0  0  0  0  0  0  0  0
  131.2392  126.9489   64.7374 H   0  0  0  0  0  0  0  0  0  0  0  0
  132.8212  127.1386   65.6476 H   0  0  0  0  0  0  0  0  0  0  0  0
  130.8090  124.5640   64.2550 H   0  0  0  0  0  0  0  0  0  0  0  0
  130.2044  119.7899   62.0815 H   0  0  0  0  0  0  0  0  0  0  0  0
  130.4251  120.5240   60.4467 H   0  0  0  0  0  0  0  0  0  0  0  0
  132.2399  118.5321   61.8922 H   0  0  0  0  0  0  0  0  0  0  0  0
  131.3946  118.3601   60.2936 H   0  0  0  0  0  0  0  0  0  0  0  0
  133.7865  118.7304   59.9361 H   0  0  0  0  0  0  0  0  0  0  0  0
  132.8213  120.1612   59.3731 H   0  0  0  0  0  0  0  0  0  0  0  0
  134.5512  119.9203   61.8824 H   0  0  0  0  0  0  0  0  0  0  0  0
  134.7179  121.0768   60.5193 H   0  0  0  0  0  0  0  0  0  0  0  0
  128.0128  126.9725   71.3115 H   0  0  0  0  0  0  0  0  0  0  0  0
  128.1694  127.1378   73.7802 H   0  0  0  0  0  0  0  0  0  0  0  0
  1  2  1  0
  2  3  1  0
  3  4  2  0
  4  5  1  0
  5  6  2  0
  6  7  1  0
  7  8  2  0
  8  9  1  0
  9 10  1  0
 10 11  2  0
 11 12  1  0
 12 13  2  0
 13 14  1  0
 14 15  1  0
 13 16  1  0
 16 17  2  0
  9 18  2  0
 18 19  1  0
 19 20  3  0
 18 21  1  0
 21 22  1  0
 22 23  1  0
 23 24  1  0
 24 25  2  0
 24 26  1  0
 26 27  1  0
 27 28  1  0
 28 29  1  0
 29 30  2  0
 30 31  1  0
 31 32  1  0
 32 33  3  0
 30 34  1  0
 34 35  1  0
 35 36  1  0
 36 37  1  0
 21 38  2  0
  6 39  1  0
 39 40  2  0
 40  3  1  0
 38  7  1  0
 17 10  1  0
 31 27  2  0
 37 29  1  0
  1 41  1  0
  1 42  1  0
  1 43  1  0
  4 44  1  0
  5 45  1  0
  8 46  1  0
 11 47  1  0
 12 48  1  0
 15 49  1  0
 15 50  1  0
 15 51  1  0
 16 52  1  0
 17 53  1  0
 23 54  1  0
 23 55  1  0
 26 56  1  0
 34 57  1  0
 34 58  1  0
 35 59  1  0
 35 60  1  0
 36 61  1  0
 36 62  1  0
 37 63  1  0
 37 64  1  0
 39 65  1  0
 40 66  1  0
M  END
>  <Binding energies>  (1) 
[-10.21]

>  <Ligand effiencies>  (1) 
[-0.24902439024390247]

>  <Interactions>  (1) 
["V-A:HIS:456:CE1:4069, V-B:GLU:543:CD:9879, V-B:HIS:456:CE1:9040, V-A:ARG:545:CZ:4925, V-B:TYR:539:CD2:9845, V-B:TYR:539:CE2:9847, V-B:LEU:475:CD1:9228, V-A:GLY:544:CA:4913, V-A:GLY:544:C:4911, V-B:GLY:454:CA:9019, V-A:LEU:475:CD2:4258, V-B:ALA:541:CB:9863, V-A:SER:385:CB:3408, H-B:GLU:543:OE2:9881, V-A:ILE:369:CG2:3236, V-A:ILE:369:CD1:3238, V-A:GLU:543:CD:4907, V-A:GLU:543:CG:4906, V-A:GLY:454:CA:4048, V-A:SER:385:CA:3406, V-A:GLU:543:CB:4905, H-A:TYR:484:OH:4347, H-A:GLY:454:N:4049, H-B:ALA:541:N:9862, V-B:TYR:484:CZ:9317, H-A:ARG:545:NH2:4927, V-A:GLU:543:C:4901, V-B:TYR:484:CE2:9316, H-A:ARG:545:NH1:4926, V-A:SER:385:C:3404, H-A:LYS:547:NZ:4950, V-B:HIS:456:CD2:9038"]

$$$$
RR5_Rahimova_2017
     RDKit          3D

 77 82  0  0  0  0  0  0  0  0999 V2000
  129.0670  126.6460   60.1200 O   0  0  0  0  0  0  0  0  0  0  0  0
  129.2920  125.6320   59.4600 C   0  0  0  0  0  0  0  0  0  0  0  0
  130.7450  125.1750   59.2350 C   0  0  0  0  0  0  0  0  0  0  0  0
  131.7190  126.3300   58.8070 C   0  0  2  0  0  0  0  0  0  0  0  0
  131.0630  127.6150   58.4960 N   0  0  0  0  0  0  0  0  0  0  0  0
  130.3040  127.7850   57.3460 C   0  0  0  0  0  0  0  0  0  0  0  0
  130.0460  126.9250   56.5000 O   0  0  0  0  0  0  0  0  0  0  0  0
  129.8970  129.0650   57.2920 O   0  0  0  0  0  0  0  0  0  0  0  0
  129.2530  129.6870   58.4000 C   0  0  0  0  0  0  0  0  0  0  0  0
  129.7940  131.1180   58.6180 C   0  0  0  0  0  0  0  0  0  0  0  0
  131.1830  131.1570   59.2290 C   0  0  0  0  0  0  0  0  0  0  0  0
  131.6390  130.6210   60.4370 C   0  0  0  0  0  0  0  0  0  0  0  0
  132.9810  130.7570   60.7950 C   0  0  0  0  0  0  0  0  0  0  0  0
  133.8670  131.4290   59.9520 C   0  0  0  0  0  0  0  0  0  0  0  0
  133.4140  131.9670   58.7460 C   0  0  0  0  0  0  0  0  0  0  0  0
  132.0710  131.8300   58.3890 C   0  0  0  0  0  0  0  0  0  0  0  0
  131.3320  132.2960   57.2060 C   0  0  0  0  0  0  0  0  0  0  0  0
  131.7490  133.0220   56.0880 C   0  0  0  0  0  0  0  0  0  0  0  0
  130.8230  133.3600   55.1000 C   0  0  0  0  0  0  0  0  0  0  0  0
  129.4880  132.9710   55.2280 C   0  0  0  0  0  0  0  0  0  0  0  0
  129.0770  132.2420   56.3440 C   0  0  0  0  0  0  0  0  0  0  0  0
  130.0000  131.8990   57.3340 C   0  0  0  0  0  0  0  0  0  0  0  0
  132.6000  125.8910   57.6110 C   0  0  0  0  0  0  0  0  0  0  0  0
  132.6450  126.4610   56.5390 O   0  0  0  0  0  0  0  0  0  0  0  0
  133.3250  124.7860   57.9550 O   0  0  0  0  0  0  0  0  0  0  0  0
  128.3410  124.8370   58.9210 N   0  0  0  0  0  0  0  0  0  0  0  0
  126.8480  124.8920   58.8950 C   0  0  0  0  0  0  0  0  0  0  0  0
  126.5040  123.8970   57.7360 C   0  0  0  0  0  0  0  0  0  0  0  0
  127.4990  123.1200   57.1180 C   0  0  0  0  0  0  0  0  0  0  0  0
  127.1810  122.2370   56.0890 C   0  0  0  0  0  0  0  0  0  0  0  0
  125.8650  122.1230   55.6540 C   0  0  0  0  0  0  0  0  0  0  0  0
  124.8610  122.8780   56.2490 C   0  0  0  0  0  0  0  0  0  0  0  0
  125.1780  123.7530   57.2840 C   0  0  0  0  0  0  0  0  0  0  0  0
  126.3380  124.3940   60.2880 C   0  0  0  0  0  0  0  0  0  0  0  0
  124.9980  124.0300   60.4960 C   0  0  0  0  0  0  0  0  0  0  0  0
  124.5610  123.6080   61.7490 C   0  0  0  0  0  0  0  0  0  0  0  0
  125.4580  123.5460   62.8110 C   0  0  0  0  0  0  0  0  0  0  0  0
  126.7910  123.8980   62.6290 C   0  0  0  0  0  0  0  0  0  0  0  0
  127.2270  124.3110   61.3740 C   0  0  0  0  0  0  0  0  0  0  0  0
  126.4740  126.3740   58.5540 C   0  0  0  0  0  0  0  0  0  0  0  0
  125.6790  127.1390   59.4270 C   0  0  0  0  0  0  0  0  0  0  0  0
  125.3370  128.4550   59.1270 C   0  0  0  0  0  0  0  0  0  0  0  0
  125.7900  129.0330   57.9470 C   0  0  0  0  0  0  0  0  0  0  0  0
  126.5890  128.3070   57.0710 C   0  0  0  0  0  0  0  0  0  0  0  0
  126.9290  126.9920   57.3750 C   0  0  0  0  0  0  0  0  0  0  0  0
  131.1188  124.7368   60.1722 H   0  0  0  0  0  0  0  0  0  0  0  0
  130.7263  124.4513   58.4068 H   0  0  0  0  0  0  0  0  0  0  0  0
  132.3397  126.5156   59.6960 H   0  0  0  0  0  0  0  0  0  0  0  0
  131.3150  128.4260   59.0430 H   0  0  0  0  0  0  0  0  0  0  0  0
  128.1712  129.7362   58.2070 H   0  0  0  0  0  0  0  0  0  0  0  0
  129.4547  129.0928   59.3035 H   0  0  0  0  0  0  0  0  0  0  0  0
  129.0161  131.5459   59.2674 H   0  0  0  0  0  0  0  0  0  0  0  0
  130.9414  130.0932   61.1039 H   0  0  0  0  0  0  0  0  0  0  0  0
  133.3413  130.3334   61.7441 H   0  0  0  0  0  0  0  0  0  0  0  0
  134.9238  131.5350   60.2381 H   0  0  0  0  0  0  0  0  0  0  0  0
  134.1116  132.4962   58.0803 H   0  0  0  0  0  0  0  0  0  0  0  0
  132.8014  133.3257   55.9868 H   0  0  0  0  0  0  0  0  0  0  0  0
  131.1454  133.9340   54.2187 H   0  0  0  0  0  0  0  0  0  0  0  0
  128.7600  133.2396   54.4483 H   0  0  0  0  0  0  0  0  0  0  0  0
  128.0249  131.9371   56.4442 H   0  0  0  0  0  0  0  0  0  0  0  0
  134.2260  124.8260   57.6290 H   0  0  0  0  0  0  0  0  0  0  0  0
  128.7040  124.1040   58.3290 H   0  0  0  0  0  0  0  0  0  0  0  0
  128.5432  123.2106   57.4517 H   0  0  0  0  0  0  0  0  0  0  0  0
  127.9701  121.6303   55.6207 H   0  0  0  0  0  0  0  0  0  0  0  0
  125.6174  121.4318   54.8349 H   0  0  0  0  0  0  0  0  0  0  0  0
  123.8209  122.7844   55.9035 H   0  0  0  0  0  0  0  0  0  0  0  0
  124.3788  124.3424   57.7572 H   0  0  0  0  0  0  0  0  0  0  0  0
  124.2852  124.0787   59.6596 H   0  0  0  0  0  0  0  0  0  0  0  0
  123.5089  123.3242   61.8990 H   0  0  0  0  0  0  0  0  0  0  0  0
  125.1103  123.2163   63.8012 H   0  0  0  0  0  0  0  0  0  0  0  0
  127.4962  123.8502   63.4719 H   0  0  0  0  0  0  0  0  0  0  0  0
  128.2845  124.5769   61.2291 H   0  0  0  0  0  0  0  0  0  0  0  0
  125.3207  126.6889   60.3646 H   0  0  0  0  0  0  0  0  0  0  0  0
  124.7108  129.0348   59.8211 H   0  0  0  0  0  0  0  0  0  0  0  0
  125.5149  130.0702   57.7050 H   0  0  0  0  0  0  0  0  0  0  0  0
  126.9511  128.7701   56.1412 H   0  0  0  0  0  0  0  0  0  0  0  0
  127.5658  126.4250   56.6800 H   0  0  0  0  0  0  0  0  0  0  0  0
  1  2  2  0
  2  3  1  0
  3  4  1  0
  4  5  1  0
  5  6  1  0
  6  7  2  0
  6  8  1  0
  8  9  1  0
  9 10  1  0
 10 11  1  0
 11 12  2  0
 12 13  1  0
 13 14  2  0
 14 15  1  0
 15 16  2  0
 16 17  1  0
 17 18  2  0
 18 19  1  0
 19 20  2  0
 20 21  1  0
 21 22  2  0
  4 23  1  0
 23 24  2  0
 23 25  1  0
  2 26  1  0
 26 27  1  0
 27 28  1  0
 28 29  2  0
 29 30  1  0
 30 31  2  0
 31 32  1  0
 32 33  2  0
 27 34  1  0
 34 35  2  0
 35 36  1  0
 36 37  2  0
 37 38  1  0
 38 39  2  0
 27 40  1  0
 40 41  2  0
 41 42  1  0
 42 43  2  0
 43 44  1  0
 44 45  2  0
 22 10  1  0
 33 28  1  0
 39 34  1  0
 45 40  1  0
 16 11  1  0
 22 17  1  0
  3 46  1  0
  3 47  1  0
  4 48  1  1
  5 49  1  0
  9 50  1  0
  9 51  1  0
 10 52  1  0
 12 53  1  0
 13 54  1  0
 14 55  1  0
 15 56  1  0
 18 57  1  0
 19 58  1  0
 20 59  1  0
 21 60  1  0
 25 61  1  0
 26 62  1  0
 29 63  1  0
 30 64  1  0
 31 65  1  0
 32 66  1  0
 33 67  1  0
 35 68  1  0
 36 69  1  0
 37 70  1  0
 38 71  1  0
 39 72  1  0
 41 73  1  0
 42 74  1  0
 43 75  1  0
 44 76  1  0
 45 77  1  0
M  END
>  <Binding energies>  (1) 
[-12.01]

>  <Ligand effiencies>  (1) 
[-0.2502083333333333]

>  <Interactions>  (1) 
["V-B:GLU:543:CD:9879, V-B:ASP:366:CG:8183, V-B:TYR:531:CZ:9765, V-B:ASP:366:CB:8182, V-B:PRO:540:CB:9856, V-B:TYR:539:C:9838, V-B:MET:535:CE:9806, V-B:TYR:531:CE2:9764, V-B:PRO:540:CA:9854, V-B:LEU:363:CD1:8159, V-B:TYR:539:CE2:9847, V-B:ILE:538:CB:9833, H-B:TYR:539:OH:9849, V-A:ASP:366:CG:3212, V-B:TYR:539:CE1:9846, V-B:MET:535:CG:9804, V-B:TYR:539:CA:9840, V-B:TYR:539:CD1:9844, V-B:ILE:538:CD1:9836, V-B:TYR:539:CG:9843, V-B:ILE:538:CG2:9834, V-B:ILE:538:CA:9831, V-A:ASP:366:CB:3211, V-B:ALA:541:C:9859, V-A:ASN:362:C:3171, V-A:TYR:531:CE2:4792, V-A:LEU:363:CA:3184, H-A:TYR:531:OH:4794, V-A:LEU:363:CD1:3188, V-A:PRO:540:CA:4882, V-A:TYR:531:CZ:4793, V-A:TYR:539:CD1:4872, V-A:ILE:538:CG2:4862, V-A:PRO:540:CB:4884, V-A:TYR:539:CE1:4874, V-A:ILE:538:CB:4861, V-A:ILE:538:CA:4859, V-A:ASP:366:C:3207, V-A:LEU:363:CB:3186, V-B:PRO:540:CD:9858, V-B:ILE:538:C:9829, H-A:ASP:366:OD2:3214, V-A:TYR:539:CZ:4876, V-A:ASP:366:CA:3209, H-A:ASP:366:O:3208"]

$$$$
RR5_Rahimova_2017-again1
     RDKit          3D

 76 81  0  0  0  0  0  0  0  0999 V2000
  128.9670  124.3930   60.4610 O   0  0  0  0  0  0  0  0  0  0  0  0
  128.5420  123.2820   60.1460 C   0  0  0  0  0  0  0  0  0  0  0  0
  127.3330  123.1910   59.1920 C   0  0  0  0  0  0  0  0  0  0  0  0
  127.5100  123.8220   57.7720 C   0  0  2  0  0  0  0  0  0  0  0  0
  126.8190  125.1280   57.7340 N   0  0  0  0  0  0  0  0  0  0  0  0
  127.3870  126.2710   58.2860 C   0  0  0  0  0  0  0  0  0  0  0  0
  128.4710  126.3430   58.8710 O   0  0  0  0  0  0  0  0  0  0  0  0
  126.5540  127.3090   58.0800 O   0  0  0  0  0  0  0  0  0  0  0  0
  125.6600  127.7420   59.1000 C   0  0  0  0  0  0  0  0  0  0  0  0
  125.6870  129.2790   59.2110 C   0  0  0  0  0  0  0  0  0  0  0  0
  125.1200  129.9850   57.9920 C   0  0  0  0  0  0  0  0  0  0  0  0
  125.5340  129.9320   56.6580 C   0  0  0  0  0  0  0  0  0  0  0  0
  124.8470  130.6620   55.6860 C   0  0  0  0  0  0  0  0  0  0  0  0
  123.7510  131.4490   56.0450 C   0  0  0  0  0  0  0  0  0  0  0  0
  123.3390  131.5090   57.3770 C   0  0  0  0  0  0  0  0  0  0  0  0
  124.0270  130.7770   58.3470 C   0  0  0  0  0  0  0  0  0  0  0  0
  123.8230  130.6650   59.7990 C   0  0  0  0  0  0  0  0  0  0  0  0
  122.8820  131.2580   60.6430 C   0  0  0  0  0  0  0  0  0  0  0  0
  122.9160  130.9900   62.0120 C   0  0  0  0  0  0  0  0  0  0  0  0
  123.8860  130.1320   62.5340 C   0  0  0  0  0  0  0  0  0  0  0  0
  124.8250  129.5390   61.6880 C   0  0  0  0  0  0  0  0  0  0  0  0
  124.7910  129.8030   60.3150 C   0  0  0  0  0  0  0  0  0  0  0  0
  127.0060  122.8560   56.6260 C   0  0  0  0  0  0  0  0  0  0  0  0
  126.0130  123.2810   55.9910 O   0  0  0  0  0  0  0  0  0  0  0  0
  127.6610  121.8010   56.4460 O   0  0  0  0  0  0  0  0  0  0  0  0
  129.1610  122.1340   60.4960 N   0  0  0  0  0  0  0  0  0  0  0  0
  130.3410  121.9250   61.3740 C   0  0  0  0  0  0  0  0  0  0  0  0
  130.8630  120.4600   61.2330 C   0  0  0  0  0  0  0  0  0  0  0  0
  132.1090  120.1910   60.6400 C   0  0  0  0  0  0  0  0  0  0  0  0
  132.5820  118.8880   60.5230 C   0  0  0  0  0  0  0  0  0  0  0  0
  131.8160  117.8310   61.0040 C   0  0  0  0  0  0  0  0  0  0  0  0
  130.5810  118.0690   61.5990 C   0  0  0  0  0  0  0  0  0  0  0  0
  130.1090  119.3740   61.7130 C   0  0  0  0  0  0  0  0  0  0  0  0
  131.5910  122.7960   61.0280 C   0  0  0  0  0  0  0  0  0  0  0  0
  131.6360  123.5570   59.8470 C   0  0  0  0  0  0  0  0  0  0  0  0
  132.7480  124.3330   59.5340 C   0  0  0  0  0  0  0  0  0  0  0  0
  133.8340  124.3630   60.4040 C   0  0  0  0  0  0  0  0  0  0  0  0
  133.8110  123.6260   61.5850 C   0  0  0  0  0  0  0  0  0  0  0  0
  132.6960  122.8520   61.8940 C   0  0  0  0  0  0  0  0  0  0  0  0
  129.7920  122.1780   62.8210 C   0  0  0  0  0  0  0  0  0  0  0  0
  128.4690  122.5960   63.0470 C   0  0  0  0  0  0  0  0  0  0  0  0
  127.9920  122.7980   64.3390 C   0  0  0  0  0  0  0  0  0  0  0  0
  128.8280  122.5730   65.4270 C   0  0  0  0  0  0  0  0  0  0  0  0
  130.1340  122.1370   65.2330 C   0  0  0  0  0  0  0  0  0  0  0  0
  130.6090  121.9360   63.9400 C   0  0  0  0  0  0  0  0  0  0  0  0
  127.0951  122.1257   59.0561 H   0  0  0  0  0  0  0  0  0  0  0  0
  126.5394  123.7811   59.6738 H   0  0  0  0  0  0  0  0  0  0  0  0
  128.5826  123.9779   57.5841 H   0  0  0  0  0  0  0  0  0  0  0  0
  125.9440  125.1980   57.2350 H   0  0  0  0  0  0  0  0  0  0  0  0
  124.6398  127.4130   58.8532 H   0  0  0  0  0  0  0  0  0  0  0  0
  125.9719  127.3063   60.0607 H   0  0  0  0  0  0  0  0  0  0  0  0
  126.7563  129.4821   59.3702 H   0  0  0  0  0  0  0  0  0  0  0  0
  126.4000  129.3159   56.3743 H   0  0  0  0  0  0  0  0  0  0  0  0
  125.1699  130.6170   54.6354 H   0  0  0  0  0  0  0  0  0  0  0  0
  123.2115  132.0225   55.2769 H   0  0  0  0  0  0  0  0  0  0  0  0
  122.4766  132.1298   57.6614 H   0  0  0  0  0  0  0  0  0  0  0  0
  122.1176  131.9331   60.2308 H   0  0  0  0  0  0  0  0  0  0  0  0
  122.1773  131.4555   62.6811 H   0  0  0  0  0  0  0  0  0  0  0  0
  123.9104  129.9229   63.6137 H   0  0  0  0  0  0  0  0  0  0  0  0
  125.5903  128.8652   62.1006 H   0  0  0  0  0  0  0  0  0  0  0  0
  128.6890  121.2800   60.2360 H   0  0  0  0  0  0  0  0  0  0  0  0
  132.7198  121.0243   60.2624 H   0  0  0  0  0  0  0  0  0  0  0  0
  133.5572  118.6943   60.0523 H   0  0  0  0  0  0  0  0  0  0  0  0
  132.1892  116.8002   60.9133 H   0  0  0  0  0  0  0  0  0  0  0  0
  129.9798  117.2294   61.9779 H   0  0  0  0  0  0  0  0  0  0  0  0
  129.1327  119.5582   62.1851 H   0  0  0  0  0  0  0  0  0  0  0  0
  130.7780  123.5388   59.1588 H   0  0  0  0  0  0  0  0  0  0  0  0
  132.7686  124.9197   58.6037 H   0  0  0  0  0  0  0  0  0  0  0  0
  134.7157  124.9726   60.1570 H   0  0  0  0  0  0  0  0  0  0  0  0
  134.6703  123.6552   62.2711 H   0  0  0  0  0  0  0  0  0  0  0  0
  132.6798  122.2753   62.8306 H   0  0  0  0  0  0  0  0  0  0  0  0
  127.8007  122.7660   62.1900 H   0  0  0  0  0  0  0  0  0  0  0  0
  126.9570  123.1345   64.4987 H   0  0  0  0  0  0  0  0  0  0  0  0
  128.4538  122.7410   66.4477 H   0  0  0  0  0  0  0  0  0  0  0  0
  130.7888  121.9518   66.0972 H   0  0  0  0  0  0  0  0  0  0  0  0
  131.6399  121.5822   63.7911 H   0  0  0  0  0  0  0  0  0  0  0  0
  1  2  2  0
  2  3  1  0
  3  4  1  0
  4  5  1  0
  5  6  1  0
  6  7  2  0
  6  8  1  0
  8  9  1  0
  9 10  1  0
 10 11  1  0
 11 12  2  0
 12 13  1  0
 13 14  2  0
 14 15  1  0
 15 16  2  0
 16 17  1  0
 17 18  2  0
 18 19  1  0
 19 20  2  0
 20 21  1  0
 21 22  2  0
  4 23  1  0
 23 24  2  0
 23 25  1  0
  2 26  1  0
 26 27  1  0
 27 28  1  0
 28 29  2  0
 29 30  1  0
 30 31  2  0
 31 32  1  0
 32 33  2  0
 27 34  1  0
 34 35  2  0
 35 36  1  0
 36 37  2  0
 37 38  1  0
 38 39  2  0
 27 40  1  0
 40 41  2  0
 41 42  1  0
 42 43  2  0
 43 44  1  0
 44 45  2  0
 22 10  1  0
 33 28  1  0
 39 34  1  0
 45 40  1  0
 16 11  1  0
 22 17  1  0
  3 46  1  0
  3 47  1  0
  4 48  1  6
  5 49  1  0
  9 50  1  0
  9 51  1  0
 10 52  1  0
 12 53  1  0
 13 54  1  0
 14 55  1  0
 15 56  1  0
 18 57  1  0
 19 58  1  0
 20 59  1  0
 21 60  1  0
 26 61  1  0
 29 62  1  0
 30 63  1  0
 31 64  1  0
 32 65  1  0
 33 66  1  0
 35 67  1  0
 36 68  1  0
 37 69  1  0
 38 70  1  0
 39 71  1  0
 41 72  1  0
 42 73  1  0
 43 74  1  0
 44 75  1  0
 45 76  1  0
M  CHG  1  25  -1
M  END
>  <Binding energies>  (1) 
[-12.25]

>  <Ligand effiencies>  (1) 
[-0.26063829787234044]

>  <Interactions>  (1) 
["V-B:GLU:543:CD:9879, V-B:ASP:366:CG:8183, V-B:ASP:366:CB:8182, V-B:PRO:540:N:9855, V-A:TYR:484:CZ:4346, H-B:TYR:531:OH:9766, V-B:PRO:540:CB:9856, V-B:TYR:539:CD2:9845, V-B:TYR:539:C:9838, V-B:MET:535:CE:9806, H-B:TYR:539:N:9841, V-B:PRO:540:CA:9854, V-B:TYR:539:CE2:9847, V-A:ILE:369:CB:3235, V-A:LEU:475:CD2:4258, V-A:PRO:482:CG:4326, V-B:ALA:541:CB:9863, V-B:TYR:539:CZ:9848, V-A:ASP:366:CG:3212, V-A:ILE:369:CG2:3236, V-A:ILE:369:CD1:3238, V-A:HIS:383:CE1:3393, V-A:PRO:482:CB:4325, V-A:ASP:366:CB:3211, V-A:SER:385:CA:3406, V-B:ALA:541:C:9859, V-B:GLU:543:CG:9878, V-A:TYR:484:CE2:4345, V-B:ASP:366:CA:8180, V-B:ILE:369:CG1:8208, V-B:ILE:369:CG2:8207, V-B:ILE:369:CB:8206, V-B:ALA:541:CA:9861, V-B:TYR:531:CE1:9763, V-B:ASN:370:CB:8215, V-B:ASN:370:CA:8213, V-B:ASP:366:C:8178, V-B:ILE:369:C:8202, V-A:LEU:475:CD1:4257, V-A:ASP:366:CA:3209, H-B:TYR:539:O:9839"]

$$$$
RR6_Rahimova_2017
     RDKit          3D

 63 66  0  0  0  0  0  0  0  0999 V2000
  130.0380  133.2810   55.0690 C   0  0  0  0  0  0  0  0  0  0  0  0
  130.6140  133.7840   56.2660 O   0  0  0  0  0  0  0  0  0  0  0  0
  131.6520  133.1460   56.8640 C   0  0  0  0  0  0  0  0  0  0  0  0
  132.7310  132.9290   56.3030 O   0  0  0  0  0  0  0  0  0  0  0  0
  131.3590  132.7300   58.2760 C   0  0  0  0  0  0  0  0  0  0  0  0
  132.3110  132.0720   59.0700 C   0  0  0  0  0  0  0  0  0  0  0  0
  132.0050  131.6920   60.3760 C   0  0  0  0  0  0  0  0  0  0  0  0
  130.7360  131.9610   60.9080 C   0  0  0  0  0  0  0  0  0  0  0  0
  130.3140  131.5970   62.2000 N   0  0  0  0  0  0  0  0  0  0  0  0
  129.0600  131.4320   62.6770 C   0  0  0  0  0  0  0  0  0  0  0  0
  128.0250  131.5700   62.0250 O   0  0  0  0  0  0  0  0  0  0  0  0
  128.9580  131.1070   64.1710 C   0  0  0  0  0  0  0  0  0  0  0  0
  127.9310  129.6440   64.5340 S   0  0  0  0  0  0  0  0  0  0  0  0
  128.9880  128.4640   65.3480 C   0  0  0  0  0  0  0  0  0  0  0  0
  128.9520  128.5240   66.7010 N   0  0  0  0  0  0  0  0  0  0  0  0
  129.6930  127.6540   67.4330 C   0  0  0  0  0  0  0  0  0  0  0  0
  129.5490  127.7460   68.9240 C   0  0  0  0  0  0  0  0  0  0  0  0
  130.0690  128.8400   69.6340 C   0  0  0  0  0  0  0  0  0  0  0  0
  129.9470  128.9180   71.0190 C   0  0  0  0  0  0  0  0  0  0  0  0
  129.2970  127.9040   71.7210 C   0  0  0  0  0  0  0  0  0  0  0  0
  129.1740  127.9890   73.2310 C   0  0  0  0  0  0  0  0  0  0  0  0
  128.7720  126.8110   71.0340 C   0  0  0  0  0  0  0  0  0  0  0  0
  128.8960  126.7380   69.6510 C   0  0  0  0  0  0  0  0  0  0  0  0
  130.5060  126.7040   66.8070 C   0  0  0  0  0  0  0  0  0  0  0  0
  130.5640  126.6260   65.4080 C   0  0  0  0  0  0  0  0  0  0  0  0
  131.4380  125.5760   64.8060 C   0  0  0  0  0  0  0  0  0  0  0  0
  132.6950  125.9150   64.2960 C   0  0  0  0  0  0  0  0  0  0  0  0
  133.5240  124.9390   63.7470 C   0  0  0  0  0  0  0  0  0  0  0  0
  133.1150  123.6070   63.7020 C   0  0  0  0  0  0  0  0  0  0  0  0
  134.0020  122.7090   63.1420 O   0  0  0  0  0  0  0  0  0  0  0  0
  133.5640  121.8750   62.0740 C   0  0  0  0  0  0  0  0  0  0  0  0
  131.8560  123.2610   64.2170 C   0  0  0  0  0  0  0  0  0  0  0  0
  131.0310  124.2390   64.7660 C   0  0  0  0  0  0  0  0  0  0  0  0
  129.7870  127.5360   64.6500 C   0  0  0  0  0  0  0  0  0  0  0  0
  129.8230  127.5280   63.1840 C   0  0  0  0  0  0  0  0  0  0  0  0
  129.8510  127.5200   62.0280 N   0  0  0  0  0  0  0  0  0  0  0  0
  129.7930  132.6300   60.1270 C   0  0  0  0  0  0  0  0  0  0  0  0
  130.0990  133.0070   58.8220 C   0  0  0  0  0  0  0  0  0  0  0  0
  129.2310  132.5763   55.3183 H   0  0  0  0  0  0  0  0  0  0  0  0
  129.6277  134.1151   54.4808 H   0  0  0  0  0  0  0  0  0  0  0  0
  130.8092  132.7621   54.4808 H   0  0  0  0  0  0  0  0  0  0  0  0
  133.3075  131.8542   58.6582 H   0  0  0  0  0  0  0  0  0  0  0  0
  132.7605  131.1802   60.9902 H   0  0  0  0  0  0  0  0  0  0  0  0
  131.0590  131.5330   62.8780 H   0  0  0  0  0  0  0  0  0  0  0  0
  129.9718  130.9241   64.5567 H   0  0  0  0  0  0  0  0  0  0  0  0
  128.4740  131.9680   64.6552 H   0  0  0  0  0  0  0  0  0  0  0  0
  130.5800  129.6470   69.0884 H   0  0  0  0  0  0  0  0  0  0  0  0
  130.3639  129.7805   71.5596 H   0  0  0  0  0  0  0  0  0  0  0  0
  129.9933  127.4228   73.6981 H   0  0  0  0  0  0  0  0  0  0  0  0
  129.2304  129.0418   73.5448 H   0  0  0  0  0  0  0  0  0  0  0  0
  128.2092  127.5640   73.5448 H   0  0  0  0  0  0  0  0  0  0  0  0
  128.2606  126.0077   71.5847 H   0  0  0  0  0  0  0  0  0  0  0  0
  128.4744  125.8740   69.1164 H   0  0  0  0  0  0  0  0  0  0  0  0
  131.1051  126.0120   67.4171 H   0  0  0  0  0  0  0  0  0  0  0  0
  133.0324  126.9615   64.3285 H   0  0  0  0  0  0  0  0  0  0  0  0
  134.5086  125.2216   63.3461 H   0  0  0  0  0  0  0  0  0  0  0  0
  133.0896  120.9717   62.4850 H   0  0  0  0  0  0  0  0  0  0  0  0
  132.8369  122.4222   61.4560 H   0  0  0  0  0  0  0  0  0  0  0  0
  134.4272  121.5870   61.4560 H   0  0  0  0  0  0  0  0  0  0  0  0
  131.5201  122.2140   64.1868 H   0  0  0  0  0  0  0  0  0  0  0  0
  130.0486  123.9568   65.1726 H   0  0  0  0  0  0  0  0  0  0  0  0
  128.8019  132.8610   60.5447 H   0  0  0  0  0  0  0  0  0  0  0  0
  129.3442  133.5273   58.2140 H   0  0  0  0  0  0  0  0  0  0  0  0
  1  2  1  0
  2  3  1  0
  3  4  2  0
  3  5  1  0
  5  6  2  0
  6  7  1  0
  7  8  2  0
  8  9  1  0
  9 10  1  0
 10 11  2  0
 10 12  1  0
 12 13  1  0
 13 14  1  0
 14 15  2  0
 15 16  1  0
 16 17  1  0
 17 18  2  0
 18 19  1  0
 19 20  2  0
 20 21  1  0
 20 22  1  0
 22 23  2  0
 16 24  2  0
 24 25  1  0
 25 26  1  0
 26 27  2  0
 27 28  1  0
 28 29  2  0
 29 30  1  0
 30 31  1  0
 29 32  1  0
 32 33  2  0
 25 34  2  0
 34 35  1  0
 35 36  3  0
  8 37  1  0
 37 38  2  0
 38  5  1  0
 34 14  1  0
 23 17  1  0
 33 26  1  0
  1 39  1  0
  1 40  1  0
  1 41  1  0
  6 42  1  0
  7 43  1  0
  9 44  1  0
 12 45  1  0
 12 46  1  0
 18 47  1  0
 19 48  1  0
 21 49  1  0
 21 50  1  0
 21 51  1  0
 22 52  1  0
 23 53  1  0
 24 54  1  0
 27 55  1  0
 28 56  1  0
 31 57  1  0
 31 58  1  0
 31 59  1  0
 32 60  1  0
 33 61  1  0
 37 62  1  0
 38 63  1  0
M  END
>  <Binding energies>  (1) 
[-9.47]

>  <Ligand effiencies>  (1) 
[-0.24282051282051284]

>  <Interactions>  (1) 
["V-B:GLU:543:CB:9877, V-A:HIS:456:CE1:4069, V-B:HIS:456:CE1:9040, V-A:ARG:545:CZ:4925, V-A:ILE:369:CD1:3238, V-A:GLU:543:CD:4907, V-A:GLU:543:CG:4906, V-A:GLY:454:CA:4048, V-A:GLU:543:CB:4905, H-A:GLY:454:N:4049, H-A:TYR:531:OH:4794, V-A:LEU:363:CD1:3188, V-A:PRO:540:CA:4882, V-A:PRO:540:CD:4886, V-A:ILE:538:CG2:4862, V-A:PRO:540:N:4883, V-A:PRO:540:CB:4884, V-A:TYR:539:C:4866, H-A:TYR:539:N:4869, V-A:ILE:538:CB:4861, V-A:ILE:538:CA:4859, H-A:GLU:543:OE2:4909, V-A:GLU:543:C:4901"]

$$$$
RR7_Rahimova_2017
     RDKit          3D

 80 86  0  0  0  0  0  0  0  0999 V2000
  132.4320  124.4650   59.2600 C   0  0  0  0  0  0  0  0  0  0  0  0
  131.4590  124.8410   58.2910 O   0  0  0  0  0  0  0  0  0  0  0  0
  130.9690  126.1330   58.2960 C   0  0  0  0  0  0  0  0  0  0  0  0
  130.8720  126.7570   59.5380 C   0  0  0  0  0  0  0  0  0  0  0  0
  130.3950  128.0600   59.6430 C   0  0  0  0  0  0  0  0  0  0  0  0
  129.9890  128.7680   58.5020 C   0  0  0  0  0  0  0  0  0  0  0  0
  129.4810  130.2410   58.5850 C   0  0  0  0  0  0  0  0  0  0  0  0
  128.0410  130.1700   58.6830 O   0  0  0  0  0  0  0  0  0  0  0  0
  127.4150  128.9860   59.1890 C   0  0  0  0  0  0  0  0  0  0  0  0
  126.7050  128.2620   58.0330 C   0  0  1  0  0  0  0  0  0  0  0  0
  127.4000  127.0350   57.8260 O   0  0  0  0  0  0  0  0  0  0  0  0
  126.5610  125.9270   57.9790 C   0  0  1  0  0  0  0  0  0  0  0  0
  127.3060  124.8090   58.5270 N   0  0  0  0  0  0  0  0  0  0  0  0
  128.1230  123.9180   57.8540 C   0  0  0  0  0  0  0  0  0  0  0  0
  128.6420  122.9660   58.5900 N   0  0  0  0  0  0  0  0  0  0  0  0
  128.1140  123.1900   59.8330 C   0  0  0  0  0  0  0  0  0  0  0  0
  128.2650  122.5120   61.0580 C   0  0  0  0  0  0  0  0  0  0  0  0
  129.1110  121.3880   61.1070 N   0  0  0  0  0  0  0  0  0  0  0  0
  130.4630  121.3400   61.1740 C   0  0  0  0  0  0  0  0  0  0  0  0
  131.1930  122.3340   61.1850 O   0  0  0  0  0  0  0  0  0  0  0  0
  131.0690  119.9530   61.2050 C   0  0  0  0  0  0  0  0  0  0  0  0
  130.3200  118.8800   61.7110 C   0  0  0  0  0  0  0  0  0  0  0  0
  130.8550  117.5960   61.7440 C   0  0  0  0  0  0  0  0  0  0  0  0
  132.1430  117.3730   61.2670 C   0  0  0  0  0  0  0  0  0  0  0  0
  132.9010  118.4230   60.7570 C   0  0  0  0  0  0  0  0  0  0  0  0
  132.3670  119.7090   60.7250 C   0  0  0  0  0  0  0  0  0  0  0  0
  127.5870  122.9600   62.1570 N   0  0  0  0  0  0  0  0  0  0  0  0
  126.7910  124.0500   62.0100 C   0  0  0  0  0  0  0  0  0  0  0  0
  126.5760  124.7790   60.8820 N   0  0  0  0  0  0  0  0  0  0  0  0
  127.2580  124.3210   59.8230 C   0  0  0  0  0  0  0  0  0  0  0  0
  125.4050  126.4150   58.8440 C   0  0  0  0  0  0  0  0  0  0  0  0
  125.2590  127.8350   58.3250 C   0  0  2  0  0  0  0  0  0  0  0  0
  124.4340  127.8980   57.1740 O   0  0  0  0  0  0  0  0  0  0  0  0
  129.9860  130.9690   59.8600 C   0  0  0  0  0  0  0  0  0  0  0  0
  131.3310  130.8630   60.2500 C   0  0  0  0  0  0  0  0  0  0  0  0
  131.7910  131.4990   61.3980 C   0  0  0  0  0  0  0  0  0  0  0  0
  130.9100  132.2500   62.1700 C   0  0  0  0  0  0  0  0  0  0  0  0
  129.5730  132.3690   61.8030 C   0  0  0  0  0  0  0  0  0  0  0  0
  129.1130  131.7310   60.6540 C   0  0  0  0  0  0  0  0  0  0  0  0
  129.8750  131.1620   57.3950 C   0  0  0  0  0  0  0  0  0  0  0  0
  129.0680  131.2250   56.2490 C   0  0  0  0  0  0  0  0  0  0  0  0
  129.4170  132.0380   55.1750 C   0  0  0  0  0  0  0  0  0  0  0  0
  130.5860  132.7910   55.2320 C   0  0  0  0  0  0  0  0  0  0  0  0
  131.4080  132.7340   56.3530 C   0  0  0  0  0  0  0  0  0  0  0  0
  131.0570  131.9200   57.4260 C   0  0  0  0  0  0  0  0  0  0  0  0
  130.1020  128.1400   57.2530 C   0  0  0  0  0  0  0  0  0  0  0  0
  130.5800  126.8370   57.1480 C   0  0  0  0  0  0  0  0  0  0  0  0
  132.0242  124.6226   60.2694 H   0  0  0  0  0  0  0  0  0  0  0  0
  132.6880  123.4032   59.1296 H   0  0  0  0  0  0  0  0  0  0  0  0
  133.3355  125.0787   59.1296 H   0  0  0  0  0  0  0  0  0  0  0  0
  131.1757  126.2139   60.4451 H   0  0  0  0  0  0  0  0  0  0  0  0
  130.3357  128.5399   60.6310 H   0  0  0  0  0  0  0  0  0  0  0  0
  128.1770  128.3240   59.6262 H   0  0  0  0  0  0  0  0  0  0  0  0
  126.6828  129.2552   59.9645 H   0  0  0  0  0  0  0  0  0  0  0  0
  126.6968  128.9688   57.1902 H   0  0  0  0  0  0  0  0  0  0  0  0
  126.1586  125.5392   57.0315 H   0  0  0  0  0  0  0  0  0  0  0  0
  128.3231  124.0029   56.7757 H   0  0  0  0  0  0  0  0  0  0  0  0
  128.6290  120.5010   61.0850 H   0  0  0  0  0  0  0  0  0  0  0  0
  129.3005  119.0554   62.0850 H   0  0  0  0  0  0  0  0  0  0  0  0
  130.2623  116.7608   62.1454 H   0  0  0  0  0  0  0  0  0  0  0  0
  132.5659  116.3579   61.2932 H   0  0  0  0  0  0  0  0  0  0  0  0
  133.9179  118.2379   60.3806 H   0  0  0  0  0  0  0  0  0  0  0  0
  132.9653  120.5391   60.3213 H   0  0  0  0  0  0  0  0  0  0  0  0
  126.2558  124.3836   62.9112 H   0  0  0  0  0  0  0  0  0  0  0  0
  124.4926  125.8241   58.6753 H   0  0  0  0  0  0  0  0  0  0  0  0
  125.5754  126.3359   59.9278 H   0  0  0  0  0  0  0  0  0  0  0  0
  124.7624  128.5024   59.0447 H   0  0  0  0  0  0  0  0  0  0  0  0
  124.8430  127.3820   56.4750 H   0  0  0  0  0  0  0  0  0  0  0  0
  132.0287  130.2701   59.6404 H   0  0  0  0  0  0  0  0  0  0  0  0
  132.8465  131.4088   61.6944 H   0  0  0  0  0  0  0  0  0  0  0  0
  131.2734  132.7538   63.0778 H   0  0  0  0  0  0  0  0  0  0  0  0
  128.8824  132.9646   62.4180 H   0  0  0  0  0  0  0  0  0  0  0  0
  128.0557  131.8246   60.3653 H   0  0  0  0  0  0  0  0  0  0  0  0
  128.1479  130.6242   56.1989 H   0  0  0  0  0  0  0  0  0  0  0  0
  128.7720  132.0853   54.2852 H   0  0  0  0  0  0  0  0  0  0  0  0
  130.8620  133.4359   54.3847 H   0  0  0  0  0  0  0  0  0  0  0  0
  132.3318  133.3300   56.3911 H   0  0  0  0  0  0  0  0  0  0  0  0
  131.7125  131.8698   58.3079 H   0  0  0  0  0  0  0  0  0  0  0  0
  129.8087  128.6849   56.3436 H   0  0  0  0  0  0  0  0  0  0  0  0
  130.6528  126.3579   56.1605 H   0  0  0  0  0  0  0  0  0  0  0  0
  1  2  1  0
  2  3  1  0
  3  4  2  0
  4  5  1  0
  5  6  2  0
  6  7  1  0
  7  8  1  0
  8  9  1  0
  9 10  1  0
 10 11  1  0
 11 12  1  0
 12 13  1  0
 13 14  1  0
 14 15  2  0
 15 16  1  0
 16 17  2  0
 17 18  1  0
 18 19  1  0
 19 20  2  0
 19 21  1  0
 21 22  2  0
 22 23  1  0
 23 24  2  0
 24 25  1  0
 25 26  2  0
 17 27  1  0
 27 28  2  0
 28 29  1  0
 29 30  2  0
 12 31  1  0
 31 32  1  0
 32 33  1  0
  7 34  1  0
 34 35  2  0
 35 36  1  0
 36 37  2  0
 37 38  1  0
 38 39  2  0
  7 40  1  0
 40 41  2  0
 41 42  1  0
 42 43  2  0
 43 44  1  0
 44 45  2  0
  6 46  1  0
 46 47  2  0
 47  3  1  0
 32 10  1  0
 39 34  1  0
 45 40  1  0
 30 13  1  0
 30 16  1  0
 26 21  1  0
  1 48  1  0
  1 49  1  0
  1 50  1  0
  4 51  1  0
  5 52  1  0
  9 53  1  0
  9 54  1  0
 10 55  1  6
 12 56  1  6
 14 57  1  0
 18 58  1  0
 22 59  1  0
 23 60  1  0
 24 61  1  0
 25 62  1  0
 26 63  1  0
 28 64  1  0
 31 65  1  0
 31 66  1  0
 32 67  1  1
 33 68  1  0
 35 69  1  0
 36 70  1  0
 37 71  1  0
 38 72  1  0
 39 73  1  0
 41 74  1  0
 42 75  1  0
 43 76  1  0
 44 77  1  0
 45 78  1  0
 46 79  1  0
 47 80  1  0
M  END
>  <Binding energies>  (1) 
[-10.59]

>  <Ligand effiencies>  (1) 
[-0.21612244897959185]

>  <Interactions>  (1) 
["V-B:ASP:366:CG:8183, V-B:ASP:366:CB:8182, H-B:TYR:531:OH:9766, V-B:TYR:539:CD2:9845, V-B:TYR:539:C:9838, V-B:MET:535:CE:9806, V-B:PRO:540:CA:9854, V-B:TYR:539:CE2:9847, V-A:LEU:475:CD2:4258, V-A:PRO:482:CG:4326, V-B:ALA:541:CB:9863, H-B:TYR:539:OH:9849, V-B:TYR:539:CZ:9848, V-A:ASP:366:CG:3212, V-A:SER:385:CB:3408, V-A:THR:477:CG2:4272, V-A:HIS:383:CE1:3393, V-A:PRO:482:CB:4325, V-A:SER:385:CA:3406, V-A:TYR:531:CE2:4792, V-A:PRO:540:CA:4882, V-A:TYR:531:CZ:4793, V-A:ILE:538:CG2:4862, V-A:MET:535:CG:4832, H-B:ALA:541:N:9862, V-A:ALA:541:CB:4891, V-B:PRO:540:C:9852, H-B:TYR:539:O:9839"]

$$$$
RR8_A_Rahimova_2017
     RDKit          3D

 73 77  0  0  0  0  0  0  0  0999 V2000
  125.3980  125.3350   61.5750 O   0  0  0  0  0  0  0  0  0  0  0  0
  125.8130  124.2160   61.2550 C   0  0  0  0  0  0  0  0  0  0  0  0
  126.2110  123.2550   62.1450 O   0  0  0  0  0  0  0  0  0  0  0  0
  127.3980  123.4790   62.8530 C   0  0  1  0  0  0  0  0  0  0  0  0
  127.5510  122.5700   63.9050 O   0  0  0  0  0  0  0  0  0  0  0  0
  128.9070  122.1620   64.0590 C   0  0  2  0  0  0  0  0  0  0  0  0
  129.3460  122.4530   65.5050 C   0  0  0  0  0  0  0  0  0  0  0  0
  130.6350  123.0510   65.4810 O   0  0  0  0  0  0  0  0  0  0  0  0
  131.6760  122.1660   65.0890 C   0  0  0  0  0  0  0  0  0  0  0  0
  132.6770  122.9020   64.2110 C   0  0  0  0  0  0  0  0  0  0  0  0
  132.8030  124.2900   64.3130 C   0  0  0  0  0  0  0  0  0  0  0  0
  133.7240  124.9660   63.5150 C   0  0  0  0  0  0  0  0  0  0  0  0
  134.5180  124.2520   62.6200 C   0  0  0  0  0  0  0  0  0  0  0  0
  134.4020  122.8680   62.5160 C   0  0  0  0  0  0  0  0  0  0  0  0
  133.4830  122.1910   63.3150 C   0  0  0  0  0  0  0  0  0  0  0  0
  129.6520  122.9480   62.9720 C   0  0  1  0  0  0  0  0  0  0  0  0
  130.6830  122.1930   62.3400 O   0  0  0  0  0  0  0  0  0  0  0  0
  130.2800  121.4200   61.2150 C   0  0  0  0  0  0  0  0  0  0  0  0
  131.1270  120.1590   61.1210 C   0  0  0  0  0  0  0  0  0  0  0  0
  132.4570  120.2450   60.6980 C   0  0  0  0  0  0  0  0  0  0  0  0
  133.2340  119.0950   60.6010 C   0  0  0  0  0  0  0  0  0  0  0  0
  132.6790  117.8580   60.9250 C   0  0  0  0  0  0  0  0  0  0  0  0
  131.3530  117.7610   61.3400 C   0  0  0  0  0  0  0  0  0  0  0  0
  130.5750  118.9120   61.4350 C   0  0  0  0  0  0  0  0  0  0  0  0
  128.5780  123.2070   61.9310 C   0  0  2  0  0  0  0  0  0  0  0  0
  128.9320  124.3170   61.1100 O   0  0  0  0  0  0  0  0  0  0  0  0
  130.1010  125.0270   61.5030 C   0  0  0  0  0  0  0  0  0  0  0  0
  131.1590  124.9270   60.4150 C   0  0  0  0  0  0  0  0  0  0  0  0
  131.1710  125.8440   59.3590 C   0  0  0  0  0  0  0  0  0  0  0  0
  132.1480  125.7540   58.3700 C   0  0  0  0  0  0  0  0  0  0  0  0
  133.1120  124.7510   58.4410 C   0  0  0  0  0  0  0  0  0  0  0  0
  133.1100  123.8370   59.4930 C   0  0  0  0  0  0  0  0  0  0  0  0
  132.1330  123.9260   60.4830 C   0  0  0  0  0  0  0  0  0  0  0  0
  125.9230  123.7630   59.8270 C   0  0  0  0  0  0  0  0  0  0  0  0
  127.1060  123.2100   59.3130 C   0  0  0  0  0  0  0  0  0  0  0  0
  127.1760  122.8000   57.9850 C   0  0  0  0  0  0  0  0  0  0  0  0
  126.0700  122.9340   57.1360 C   0  0  0  0  0  0  0  0  0  0  0  0
  126.1460  122.4960   55.7210 N   0  0  0  0  0  0  0  0  0  0  0  0
  125.2810  122.8790   54.9390 O   0  0  0  0  0  0  0  0  0  0  0  0
  127.0720  121.7660   55.3810 O   0  0  0  0  0  0  0  0  0  0  0  0
  124.8910  123.4890   57.6490 C   0  0  0  0  0  0  0  0  0  0  0  0
  124.8180  123.8990   58.9770 C   0  0  0  0  0  0  0  0  0  0  0  0
  127.3594  124.5122   63.2285 H   0  0  0  0  0  0  0  0  0  0  0  0
  129.1040  121.0881   63.9252 H   0  0  0  0  0  0  0  0  0  0  0  0
  128.6286  123.1398   65.9780 H   0  0  0  0  0  0  0  0  0  0  0  0
  129.3793  121.5165   66.0810 H   0  0  0  0  0  0  0  0  0  0  0  0
  132.1876  121.7849   65.9851 H   0  0  0  0  0  0  0  0  0  0  0  0
  131.2448  121.3274   64.5226 H   0  0  0  0  0  0  0  0  0  0  0  0
  132.1754  124.8488   65.0229 H   0  0  0  0  0  0  0  0  0  0  0  0
  133.8237  126.0588   63.5914 H   0  0  0  0  0  0  0  0  0  0  0  0
  135.2436  124.7866   61.9894 H   0  0  0  0  0  0  0  0  0  0  0  0
  135.0328  122.3122   61.8066 H   0  0  0  0  0  0  0  0  0  0  0  0
  133.3910  121.0973   63.2414 H   0  0  0  0  0  0  0  0  0  0  0  0
  130.1326  123.8390   63.4022 H   0  0  0  0  0  0  0  0  0  0  0  0
  129.2217  121.1409   61.3248 H   0  0  0  0  0  0  0  0  0  0  0  0
  130.4152  122.0154   60.3000 H   0  0  0  0  0  0  0  0  0  0  0  0
  132.8896  121.2233   60.4416 H   0  0  0  0  0  0  0  0  0  0  0  0
  134.2810  119.1616   60.2703 H   0  0  0  0  0  0  0  0  0  0  0  0
  133.2945  116.9493   60.8522 H   0  0  0  0  0  0  0  0  0  0  0  0
  130.9226  116.7804   61.5914 H   0  0  0  0  0  0  0  0  0  0  0  0
  129.5256  118.8409   61.7571 H   0  0  0  0  0  0  0  0  0  0  0  0
  128.3939  122.4047   61.2014 H   0  0  0  0  0  0  0  0  0  0  0  0
  129.8469  126.0844   61.6683 H   0  0  0  0  0  0  0  0  0  0  0  0
  130.4950  124.5890   62.4320 H   0  0  0  0  0  0  0  0  0  0  0  0
  130.4092  126.6360   59.3094 H   0  0  0  0  0  0  0  0  0  0  0  0
  132.1581  126.4719   57.5366 H   0  0  0  0  0  0  0  0  0  0  0  0
  133.8824  124.6797   57.6590 H   0  0  0  0  0  0  0  0  0  0  0  0
  133.8759  123.0490   59.5418 H   0  0  0  0  0  0  0  0  0  0  0  0
  132.1281  123.2092   61.3174 H   0  0  0  0  0  0  0  0  0  0  0  0
  127.9850  123.0997   59.9651 H   0  0  0  0  0  0  0  0  0  0  0  0
  128.1098  122.3661   57.5979 H   0  0  0  0  0  0  0  0  0  0  0  0
  124.0134  123.6021   56.9955 H   0  0  0  0  0  0  0  0  0  0  0  0
  123.8840  124.3338   59.3626 H   0  0  0  0  0  0  0  0  0  0  0  0
  1  2  2  0
  2  3  1  0
  3  4  1  0
  4  5  1  0
  5  6  1  0
  6  7  1  0
  7  8  1  0
  8  9  1  0
  9 10  1  0
 10 11  2  0
 11 12  1  0
 12 13  2  0
 13 14  1  0
 14 15  2  0
  6 16  1  0
 16 17  1  0
 17 18  1  0
 18 19  1  0
 19 20  2  0
 20 21  1  0
 21 22  2  0
 22 23  1  0
 23 24  2  0
 16 25  1  0
 25 26  1  0
 26 27  1  0
 27 28  1  0
 28 29  2  0
 29 30  1  0
 30 31  2  0
 31 32  1  0
 32 33  2  0
  2 34  1  0
 34 35  2  0
 35 36  1  0
 36 37  2  0
 37 38  1  0
 38 39  2  0
 38 40  1  0
 37 41  1  0
 41 42  2  0
 25  4  1  0
 33 28  1  0
 42 34  1  0
 15 10  1  0
 24 19  1  0
  4 43  1  1
  6 44  1  6
  7 45  1  0
  7 46  1  0
  9 47  1  0
  9 48  1  0
 11 49  1  0
 12 50  1  0
 13 51  1  0
 14 52  1  0
 15 53  1  0
 16 54  1  1
 18 55  1  0
 18 56  1  0
 20 57  1  0
 21 58  1  0
 22 59  1  0
 23 60  1  0
 24 61  1  0
 25 62  1  6
 27 63  1  0
 27 64  1  0
 29 65  1  0
 30 66  1  0
 31 67  1  0
 32 68  1  0
 33 69  1  0
 35 70  1  0
 36 71  1  0
 41 72  1  0
 42 73  1  0
M  CHG  2  38   1  40  -1
M  END
>  <Binding energies>  (1) 
[-11.36]

>  <Ligand effiencies>  (1) 
[-0.2704761904761905]

>  <Interactions>  (1) 
["V-B:GLU:543:CD:9879, V-A:ARG:545:CZ:4925, V-B:PRO:540:N:9855, V-A:TYR:484:CZ:4346, H-B:TYR:531:OH:9766, V-B:PRO:540:CB:9856, V-B:TYR:539:CD2:9845, V-B:TYR:539:C:9838, V-B:MET:535:CE:9806, H-B:TYR:539:N:9841, V-B:PRO:540:CA:9854, V-B:LEU:363:CD1:8159, V-B:TYR:539:CE2:9847, V-A:ILE:369:CB:3235, V-A:LEU:475:CD2:4258, V-B:ALA:541:CB:9863, V-B:TYR:539:CZ:9848, V-A:ASP:366:CG:3212, V-A:SER:385:CB:3408, V-B:MET:535:CG:9804, V-A:ILE:369:CG2:3236, V-B:ILE:538:CD1:9836, V-A:ILE:369:CD1:3238, V-A:HIS:383:CE1:3393, V-B:ILE:538:CA:9831, V-A:ASP:366:CB:3211, V-A:GLY:454:CA:4048, V-A:SER:385:CA:3406, V-B:ALA:541:C:9859, H-A:TYR:484:OH:4347, V-B:GLU:543:CG:9878, V-A:ASP:366:C:3207, V-A:TYR:484:CE2:4345, V-B:PRO:540:CD:9858, H-B:ALA:541:N:9862, H-B:ARG:545:NH2:9899, V-B:ALA:541:CA:9861, V-A:GLY:453:C:4041, V-A:LEU:475:CG:4256, V-A:LEU:475:CD1:4257, V-A:ASP:366:CA:3209, V-A:VAL:384:C:3396, V-A:GLY:453:CA:4043"]

$$$$
RR8_B_Rahimova_2017
     RDKit          3D

 73 77  0  0  0  0  0  0  0  0999 V2000
  129.3410  127.2090   63.5600 O   0  0  0  0  0  0  0  0  0  0  0  0
  130.0660  126.2140   63.6530 C   0  0  0  0  0  0  0  0  0  0  0  0
  129.9280  125.0840   62.8940 O   0  0  0  0  0  0  0  0  0  0  0  0
  129.1290  124.0410   63.3970 C   0  0  2  0  0  0  0  0  0  0  0  0
  129.8590  123.1760   64.2210 O   0  0  0  0  0  0  0  0  0  0  0  0
  130.4100  122.0890   63.4800 C   0  0  2  0  0  0  0  0  0  0  0  0
  131.9410  122.0790   63.6450 C   0  0  0  0  0  0  0  0  0  0  0  0
  132.5500  122.1880   62.3640 O   0  0  0  0  0  0  0  0  0  0  0  0
  133.3040  123.3730   62.1600 C   0  0  0  0  0  0  0  0  0  0  0  0
  132.9120  123.9930   60.8270 C   0  0  0  0  0  0  0  0  0  0  0  0
  133.8080  123.9570   59.7550 C   0  0  0  0  0  0  0  0  0  0  0  0
  133.4660  124.5440   58.5390 C   0  0  0  0  0  0  0  0  0  0  0  0
  132.2250  125.1640   58.4000 C   0  0  0  0  0  0  0  0  0  0  0  0
  131.3250  125.1980   59.4620 C   0  0  0  0  0  0  0  0  0  0  0  0
  131.6690  124.6140   60.6790 C   0  0  0  0  0  0  0  0  0  0  0  0
  129.9030  122.3090   62.0500 C   0  0  1  0  0  0  0  0  0  0  0  0
  129.6390  121.0480   61.4280 O   0  0  0  0  0  0  0  0  0  0  0  0
  130.2720  119.8980   61.9960 C   0  0  0  0  0  0  0  0  0  0  0  0
  131.1620  119.1730   60.9910 C   0  0  0  0  0  0  0  0  0  0  0  0
  130.7490  117.9560   60.4400 C   0  0  0  0  0  0  0  0  0  0  0  0
  131.5480  117.3130   59.4990 C   0  0  0  0  0  0  0  0  0  0  0  0
  132.7590  117.8860   59.1140 C   0  0  0  0  0  0  0  0  0  0  0  0
  133.1780  119.0960   59.6620 C   0  0  0  0  0  0  0  0  0  0  0  0
  132.3770  119.7420   60.6020 C   0  0  0  0  0  0  0  0  0  0  0  0
  128.6530  123.1620   62.2410 C   0  0  2  0  0  0  0  0  0  0  0  0
  128.3600  123.8870   61.0500 O   0  0  0  0  0  0  0  0  0  0  0  0
  126.9910  123.9260   60.6770 C   0  0  0  0  0  0  0  0  0  0  0  0
  126.8770  123.4620   59.2350 C   0  0  0  0  0  0  0  0  0  0  0  0
  125.6680  123.5900   58.5460 C   0  0  0  0  0  0  0  0  0  0  0  0
  125.5710  123.1430   57.2300 C   0  0  0  0  0  0  0  0  0  0  0  0
  126.6790  122.5710   56.6100 C   0  0  0  0  0  0  0  0  0  0  0  0
  127.8880  122.4430   57.2920 C   0  0  0  0  0  0  0  0  0  0  0  0
  127.9870  122.8890   58.6060 C   0  0  0  0  0  0  0  0  0  0  0  0
  131.1850  126.1030   64.6480 C   0  0  0  0  0  0  0  0  0  0  0  0
  130.9960  126.3890   66.0080 C   0  0  0  0  0  0  0  0  0  0  0  0
  132.0530  126.2860   66.9060 C   0  0  0  0  0  0  0  0  0  0  0  0
  133.3270  125.9040   66.4670 C   0  0  0  0  0  0  0  0  0  0  0  0
  134.4590  125.8210   67.4220 N   0  0  0  0  0  0  0  0  0  0  0  0
  135.5650  125.4990   66.9970 O   0  0  0  0  0  0  0  0  0  0  0  0
  134.2510  126.0810   68.6050 O   0  0  0  0  0  0  0  0  0  0  0  0
  133.5140  125.6130   65.1100 C   0  0  0  0  0  0  0  0  0  0  0  0
  132.4560  125.7080   64.2120 C   0  0  0  0  0  0  0  0  0  0  0  0
  128.3076  124.5179   63.9518 H   0  0  0  0  0  0  0  0  0  0  0  0
  130.1018  121.0894   63.8203 H   0  0  0  0  0  0  0  0  0  0  0  0
  132.2490  122.9284   64.2723 H   0  0  0  0  0  0  0  0  0  0  0  0
  132.2550  121.1403   64.1249 H   0  0  0  0  0  0  0  0  0  0  0  0
  133.0965  124.0853   62.9721 H   0  0  0  0  0  0  0  0  0  0  0  0
  134.3771  123.1313   62.1535 H   0  0  0  0  0  0  0  0  0  0  0  0
  134.7846  123.4644   59.8717 H   0  0  0  0  0  0  0  0  0  0  0  0
  134.1701  124.5186   57.6943 H   0  0  0  0  0  0  0  0  0  0  0  0
  131.9541  125.6311   57.4416 H   0  0  0  0  0  0  0  0  0  0  0  0
  130.3459  125.6843   59.3404 H   0  0  0  0  0  0  0  0  0  0  0  0
  130.9632  124.6417   61.5223 H   0  0  0  0  0  0  0  0  0  0  0  0
  130.6229  122.8069   61.3837 H   0  0  0  0  0  0  0  0  0  0  0  0
  130.8889  120.2184   62.8486 H   0  0  0  0  0  0  0  0  0  0  0  0
  129.4825  119.2002   62.3120 H   0  0  0  0  0  0  0  0  0  0  0  0
  129.7937  117.5073   60.7499 H   0  0  0  0  0  0  0  0  0  0  0  0
  131.2253  116.3569   59.0611 H   0  0  0  0  0  0  0  0  0  0  0  0
  133.3899  117.3776   58.3701 H   0  0  0  0  0  0  0  0  0  0  0  0
  134.1364  119.5396   59.3544 H   0  0  0  0  0  0  0  0  0  0  0  0
  132.7012  120.6989   61.0371 H   0  0  0  0  0  0  0  0  0  0  0  0
  127.7134  122.6291   62.4489 H   0  0  0  0  0  0  0  0  0  0  0  0
  126.4084  123.2592   61.3296 H   0  0  0  0  0  0  0  0  0  0  0  0
  126.5992  124.9488   60.7785 H   0  0  0  0  0  0  0  0  0  0  0  0
  124.7959  124.0421   59.0410 H   0  0  0  0  0  0  0  0  0  0  0  0
  124.6221  123.2416   56.6824 H   0  0  0  0  0  0  0  0  0  0  0  0
  126.5994  122.2166   55.5717 H   0  0  0  0  0  0  0  0  0  0  0  0
  128.7589  121.9919   56.7940 H   0  0  0  0  0  0  0  0  0  0  0  0
  128.9380  122.7910   59.1501 H   0  0  0  0  0  0  0  0  0  0  0  0
  130.0032  126.6974   66.3675 H   0  0  0  0  0  0  0  0  0  0  0  0
  131.8869  126.5066   67.9708 H   0  0  0  0  0  0  0  0  0  0  0  0
  134.5074  125.3063   64.7507 H   0  0  0  0  0  0  0  0  0  0  0  0
  132.6190  125.4709   63.1503 H   0  0  0  0  0  0  0  0  0  0  0  0
  1  2  2  0
  2  3  1  0
  3  4  1  0
  4  5  1  0
  5  6  1  0
  6  7  1  0
  7  8  1  0
  8  9  1  0
  9 10  1  0
 10 11  2  0
 11 12  1  0
 12 13  2  0
 13 14  1  0
 14 15  2  0
  6 16  1  0
 16 17  1  0
 17 18  1  0
 18 19  1  0
 19 20  2  0
 20 21  1  0
 21 22  2  0
 22 23  1  0
 23 24  2  0
 16 25  1  0
 25 26  1  0
 26 27  1  0
 27 28  1  0
 28 29  2  0
 29 30  1  0
 30 31  2  0
 31 32  1  0
 32 33  2  0
  2 34  1  0
 34 35  2  0
 35 36  1  0
 36 37  2  0
 37 38  1  0
 38 39  2  0
 38 40  1  0
 37 41  1  0
 41 42  2  0
 25  4  1  0
 33 28  1  0
 42 34  1  0
 15 10  1  0
 24 19  1  0
  4 43  1  1
  6 44  1  1
  7 45  1  0
  7 46  1  0
  9 47  1  0
  9 48  1  0
 11 49  1  0
 12 50  1  0
 13 51  1  0
 14 52  1  0
 15 53  1  0
 16 54  1  6
 18 55  1  0
 18 56  1  0
 20 57  1  0
 21 58  1  0
 22 59  1  0
 23 60  1  0
 24 61  1  0
 25 62  1  1
 27 63  1  0
 27 64  1  0
 29 65  1  0
 30 66  1  0
 31 67  1  0
 32 68  1  0
 33 69  1  0
 35 70  1  0
 36 71  1  0
 41 72  1  0
 42 73  1  0
M  CHG  2  38   1  40  -1
M  END
>  <Binding energies>  (1) 
[-11.07]

>  <Ligand effiencies>  (1) 
[-0.26357142857142857]

>  <Interactions>  (1) 
["V-A:HIS:456:CE1:4069, V-B:GLU:543:CD:9879, H-A:HIS:456:ND1:4066, V-A:ARG:545:CZ:4925, V-B:PRO:540:N:9855, V-A:ARG:545:CD:4922, V-B:PRO:540:CB:9856, V-B:TYR:539:CD2:9845, V-B:TYR:539:C:9838, V-B:MET:535:CE:9806, V-B:PRO:540:CA:9854, V-B:LEU:363:CD1:8159, V-A:ARG:545:CG:4921, V-B:TYR:539:CE2:9847, V-A:ILE:369:CB:3235, V-A:LEU:475:CD2:4258, V-B:ALA:541:CB:9863, V-A:ILE:369:CG1:3237, V-B:TYR:539:CZ:9848, V-A:ASP:366:CG:3212, V-B:TYR:539:CE1:9846, V-B:TYR:539:CA:9840, V-B:TYR:539:CD1:9844, V-A:ILE:369:CG2:3236, V-B:TYR:539:CB:9842, V-B:TYR:539:CG:9843, V-A:ILE:369:CD1:3238, V-A:HIS:383:CE1:3393, V-A:ASP:366:CB:3211, V-A:SER:385:CA:3406, H-A:TYR:484:OH:4347, H-A:GLY:454:N:4049, V-A:ASP:366:C:3207, V-A:LEU:373:CG:3278, V-A:LEU:373:CD2:3280, V-A:ASP:366:CA:3209, V-A:ARG:545:CB:4920, V-A:ILE:455:C:4051, V-A:LEU:373:CD1:3279, H-A:ILE:455:N:4054"]

$$$$
RR9_Rahimova_2017
     RDKit          3D

 64 68  0  0  0  0  0  0  0  0999 V2000
  129.4170  122.6800   73.3510 C   0  0  0  0  0  0  0  0  0  0  0  0
  129.9390  124.1080   73.5370 C   0  0  0  0  0  0  0  0  0  0  0  0
  128.8270  124.9890   73.6640 O   0  0  0  0  0  0  0  0  0  0  0  0
  128.3450  125.6390   72.5440 C   0  0  0  0  0  0  0  0  0  0  0  0
  127.1250  126.2980   72.6820 C   0  0  0  0  0  0  0  0  0  0  0  0
  126.5610  126.9780   71.6070 C   0  0  0  0  0  0  0  0  0  0  0  0
  127.2030  127.0190   70.3610 C   0  0  0  0  0  0  0  0  0  0  0  0
  126.5980  127.7460   69.1970 C   0  0  0  0  0  0  0  0  0  0  0  0
  127.3480  128.0580   68.0530 C   0  0  0  0  0  0  0  0  0  0  0  0
  126.7720  128.7290   66.9590 C   0  0  0  0  0  0  0  0  0  0  0  0
  127.6010  128.9440   65.7220 C   0  0  0  0  0  0  0  0  0  0  0  0
  127.3330  129.8610   64.9460 O   0  0  0  0  0  0  0  0  0  0  0  0
  128.6060  128.0670   65.5310 N   0  0  0  0  0  0  0  0  0  0  0  0
  129.4640  127.9890   64.3440 C   0  0  0  0  0  0  0  0  0  0  0  0
  130.1600  126.6170   64.1890 C   0  0  0  0  0  0  0  0  0  0  0  0
  131.3390  126.3910   65.1280 C   0  0  0  0  0  0  0  0  0  0  0  0
  131.1800  126.5550   66.5080 C   0  0  0  0  0  0  0  0  0  0  0  0
  132.2500  126.3140   67.3650 C   0  0  0  0  0  0  0  0  0  0  0  0
  133.4770  125.9150   66.8410 C   0  0  0  0  0  0  0  0  0  0  0  0
  133.6450  125.7530   65.4670 C   0  0  0  0  0  0  0  0  0  0  0  0
  132.5740  125.9930   64.6090 C   0  0  0  0  0  0  0  0  0  0  0  0
  125.4110  129.0980   67.0960 C   0  0  0  0  0  0  0  0  0  0  0  0
  124.3930  129.7940   66.3450 C   0  0  0  0  0  0  0  0  0  0  0  0
  124.4990  130.5020   65.0340 C   0  0  0  0  0  0  0  0  0  0  0  0
  124.1250  129.8550   63.8530 C   0  0  0  0  0  0  0  0  0  0  0  0
  124.2390  130.5120   62.6300 C   0  0  0  0  0  0  0  0  0  0  0  0
  124.7240  131.8200   62.5850 C   0  0  0  0  0  0  0  0  0  0  0  0
  124.8660  132.5290   61.2500 C   0  0  0  0  0  0  0  0  0  0  0  0
  125.1000  132.4680   63.7620 C   0  0  0  0  0  0  0  0  0  0  0  0
  124.9830  131.8120   64.9830 C   0  0  0  0  0  0  0  0  0  0  0  0
  123.2480  129.7720   66.9890 N   0  0  0  0  0  0  0  0  0  0  0  0
  123.4460  129.1490   68.1620 N   0  0  0  0  0  0  0  0  0  0  0  0
  124.7480  128.7260   68.2900 C   0  0  0  0  0  0  0  0  0  0  0  0
  125.2830  128.0820   69.3260 N   0  0  0  0  0  0  0  0  0  0  0  0
  128.4300  126.3520   70.2290 C   0  0  0  0  0  0  0  0  0  0  0  0
  128.9970  125.6720   71.3040 C   0  0  0  0  0  0  0  0  0  0  0  0
  129.2488  122.2199   74.3359 H   0  0  0  0  0  0  0  0  0  0  0  0
  128.4701  122.7057   72.7918 H   0  0  0  0  0  0  0  0  0  0  0  0
  130.1572  122.0889   72.7918 H   0  0  0  0  0  0  0  0  0  0  0  0
  130.5580  124.1603   74.4448 H   0  0  0  0  0  0  0  0  0  0  0  0
  130.5500  124.3991   72.6699 H   0  0  0  0  0  0  0  0  0  0  0  0
  126.6028  126.2805   73.6500 H   0  0  0  0  0  0  0  0  0  0  0  0
  125.5968  127.4913   71.7366 H   0  0  0  0  0  0  0  0  0  0  0  0
  128.4093  127.7717   68.0107 H   0  0  0  0  0  0  0  0  0  0  0  0
  128.8040  127.4020   66.2640 H   0  0  0  0  0  0  0  0  0  0  0  0
  128.8459  128.1709   63.4525 H   0  0  0  0  0  0  0  0  0  0  0  0
  130.2533  128.7465   64.4589 H   0  0  0  0  0  0  0  0  0  0  0  0
  129.4144  125.8311   64.3800 H   0  0  0  0  0  0  0  0  0  0  0  0
  130.5668  126.5888   63.1674 H   0  0  0  0  0  0  0  0  0  0  0  0
  130.2096  126.8743   66.9159 H   0  0  0  0  0  0  0  0  0  0  0  0
  132.1270  126.4381   68.4510 H   0  0  0  0  0  0  0  0  0  0  0  0
  134.3225  125.7257   67.5187 H   0  0  0  0  0  0  0  0  0  0  0  0
  134.6179  125.4374   65.0622 H   0  0  0  0  0  0  0  0  0  0  0  0
  132.7004  125.8693   63.5233 H   0  0  0  0  0  0  0  0  0  0  0  0
  123.7400  128.8252   63.8893 H   0  0  0  0  0  0  0  0  0  0  0  0
  123.9472  130.0006   61.7009 H   0  0  0  0  0  0  0  0  0  0  0  0
  125.0794  133.5944   61.4215 H   0  0  0  0  0  0  0  0  0  0  0  0
  125.6914  132.0768   60.6806 H   0  0  0  0  0  0  0  0  0  0  0  0
  123.9301  132.4295   60.6806 H   0  0  0  0  0  0  0  0  0  0  0  0
  125.4885  133.4964   63.7244 H   0  0  0  0  0  0  0  0  0  0  0  0
  125.2724  132.3260   65.9114 H   0  0  0  0  0  0  0  0  0  0  0  0
  122.6880  129.0380   68.8200 H   0  0  0  0  0  0  0  0  0  0  0  0
  128.9525  126.3663   69.2611 H   0  0  0  0  0  0  0  0  0  0  0  0
  129.9616  125.1582   71.1791 H   0  0  0  0  0  0  0  0  0  0  0  0
  1  2  1  0
  2  3  1  0
  3  4  1  0
  4  5  2  0
  5  6  1  0
  6  7  2  0
  7  8  1  0
  8  9  2  0
  9 10  1  0
 10 11  1  0
 11 12  2  0
 11 13  1  0
 13 14  1  0
 14 15  1  0
 15 16  1  0
 16 17  2  0
 17 18  1  0
 18 19  2  0
 19 20  1  0
 20 21  2  0
 10 22  2  0
 22 23  1  0
 23 24  1  0
 24 25  2  0
 25 26  1  0
 26 27  2  0
 27 28  1  0
 27 29  1  0
 29 30  2  0
 23 31  2  0
 31 32  1  0
 32 33  1  0
 33 34  2  0
  7 35  1  0
 35 36  2  0
 36  4  1  0
 34  8  1  0
 21 16  1  0
 33 22  1  0
 30 24  1  0
  1 37  1  0
  1 38  1  0
  1 39  1  0
  2 40  1  0
  2 41  1  0
  5 42  1  0
  6 43  1  0
  9 44  1  0
 13 45  1  0
 14 46  1  0
 14 47  1  0
 15 48  1  0
 15 49  1  0
 17 50  1  0
 18 51  1  0
 19 52  1  0
 20 53  1  0
 21 54  1  0
 25 55  1  0
 26 56  1  0
 28 57  1  0
 28 58  1  0
 28 59  1  0
 29 60  1  0
 30 61  1  0
 32 62  1  0
 35 63  1  0
 36 64  1  0
M  END
>  <Binding energies>  (1) 
[-10.0]

>  <Ligand effiencies>  (1) 
[-0.2631578947368421]

>  <Interactions>  (1) 
["V-B:GLU:543:CB:9877, V-A:HIS:456:CE1:4069, V-B:GLU:543:C:9873, V-B:GLY:544:C:9883, V-A:HIS:456:CD2:4067, V-B:ARG:545:CA:9890, V-B:ARG:545:CD:9894, V-B:GLU:543:CD:9879, V-B:HIS:456:CE1:9040, V-B:ARG:545:CG:9893, V-A:ARG:545:CZ:4925, V-A:TYR:484:CZ:4346, V-A:ARG:545:CD:4922, V-A:ARG:545:CG:4921, V-B:LEU:475:CD1:9228, V-B:ARG:545:CZ:9897, V-B:ARG:545:CB:9892, V-B:GLY:544:CA:9885, H-B:LYS:547:NZ:9922, V-B:GLY:454:CA:9019, H-B:GLU:543:OE2:9881, V-A:GLU:543:CD:4907, H-B:GLU:543:OE1:9880, H-B:TYR:484:OH:9318, H-B:GLY:454:N:9020, H-B:HIS:456:ND1:9037, V-B:LYS:547:CE:9921, H-B:ILE:455:O:9023, H-B:ILE:455:N:9025, V-A:TYR:484:CG:4341, V-A:TYR:484:CD2:4343, V-A:TYR:484:CB:4340, V-B:ILE:455:C:9022"]

$$$$
