1a_Grossjean_2025
     RDKit          3D

 26 27  0  0  0  0  0  0  0  0999 V2000
  123.3300  124.8540   57.6200 C   0  0  0  0  0  0  0  0  0  0  0  0
  124.4860  123.8880   57.8970 C   0  0  0  0  0  0  0  0  0  0  0  0
  125.3750  123.8820   56.7870 O   0  0  0  0  0  0  0  0  0  0  0  0
  126.3750  122.9670   56.6950 C   0  0  0  0  0  0  0  0  0  0  0  0
  126.2980  121.9430   56.0090 O   0  0  0  0  0  0  0  0  0  0  0  0
  127.5770  123.3170   57.5240 C   0  0  0  0  0  0  0  0  0  0  0  0
  127.9270  122.4930   58.6020 C   0  0  0  0  0  0  0  0  0  0  0  0
  129.0330  122.7930   59.3920 C   0  0  0  0  0  0  0  0  0  0  0  0
  129.8100  123.9200   59.1230 C   0  0  0  0  0  0  0  0  0  0  0  0
  130.9030  124.1280   59.9880 N   0  0  0  0  0  0  0  0  0  0  0  0
  132.2140  124.2850   59.7070 C   0  0  0  0  0  0  0  0  0  0  0  0
  132.7110  124.2750   58.5800 O   0  0  0  0  0  0  0  0  0  0  0  0
  133.1240  124.4900   60.9200 C   0  0  0  0  0  0  0  0  0  0  0  0
  133.5810  122.9170   61.7080 S   0  0  0  0  0  0  0  0  0  0  0  0
  132.1380  121.8770   61.7010 C   0  0  0  0  0  0  0  0  0  0  0  0
  131.0290  122.4750   62.2040 N   0  0  0  0  0  0  0  0  0  0  0  0
  129.8740  121.7710   62.2510 C   0  0  0  0  0  0  0  0  0  0  0  0
  128.6800  122.5010   62.8380 C   0  0  0  0  0  0  0  0  0  0  0  0
  129.7740  120.4590   61.7930 C   0  0  0  0  0  0  0  0  0  0  0  0
  130.9060  119.8390   61.2530 C   0  0  0  0  0  0  0  0  0  0  0  0
  130.7690  118.4060   60.7440 C   0  0  0  0  0  0  0  0  0  0  0  0
  132.1230  120.5560   61.1910 C   0  0  0  0  0  0  0  0  0  0  0  0
  133.3090  119.9450   60.5850 C   0  0  0  0  0  0  0  0  0  0  0  0
  134.2440  119.4610   60.1060 N   0  0  0  0  0  0  0  0  0  0  0  0
  129.4720  124.7460   58.0410 C   0  0  0  0  0  0  0  0  0  0  0  0
  128.3650  124.4460   57.2520 C   0  0  0  0  0  0  0  0  0  0  0  0
  1  2  1  0
  2  3  1  0
  3  4  1  0
  4  5  2  0
  4  6  1  0
  6  7  2  0
  7  8  1  0
  8  9  2  0
  9 10  1  0
 10 11  1  0
 11 12  2  0
 11 13  1  0
 13 14  1  0
 14 15  1  0
 15 16  2  0
 16 17  1  0
 17 18  1  0
 17 19  2  0
 19 20  1  0
 20 21  1  0
 20 22  2  0
 22 23  1  0
 23 24  3  0
  9 25  1  0
 25 26  2  0
 26  6  1  0
 22 15  1  0
M  END
>  <Binding energies>  (1) 
[-8.18]

>  <Ligand effiencies>  (1) 
[-0.30296296296296293]

>  <Interactions>  (1) 
["V-B:ASP:366:CG:8183, V-B:TYR:531:CZ:9765, V-B:ASP:366:CB:8182, V-B:PRO:540:N:9855, V-B:LEU:363:CA:8155, H-B:TYR:531:OH:9766, V-B:PRO:540:CB:9856, V-B:TYR:539:CD2:9845, V-B:TYR:539:C:9838, V-B:MET:535:CE:9806, H-B:TYR:539:N:9841, V-B:TYR:531:CE2:9764, V-B:PRO:540:CA:9854, V-B:LEU:363:CD1:8159, V-B:TYR:539:CE2:9847, V-A:LEU:475:CD2:4258, V-B:ALA:541:CB:9863, H-B:TYR:539:OH:9849, V-B:TYR:539:CZ:9848, V-A:ASP:366:CG:3212, V-A:ILE:369:CG2:3236, V-B:TYR:539:CB:9842, V-B:TYR:539:CG:9843, V-A:ILE:369:CD1:3238, V-A:SER:385:CA:3406, V-B:ALA:541:CA:9861"]

$$$$
1aa_Ghoteimi_2023
     RDKit          3D

 40 43  0  0  0  0  0  0  0  0999 V2000
  133.1250  120.0890   60.3820 C   0  0  0  0  0  0  0  0  0  0  0  0
  132.6970  121.5430   60.5970 C   0  0  0  0  0  0  0  0  0  0  0  0
  133.1450  122.3360   59.5040 O   0  0  0  0  0  0  0  0  0  0  0  0
  133.0430  123.6890   59.5310 C   0  0  0  0  0  0  0  0  0  0  0  0
  133.1900  124.4030   58.5340 O   0  0  0  0  0  0  0  0  0  0  0  0
  132.7330  124.2340   60.8960 C   0  0  0  0  0  0  0  0  0  0  0  0
  131.4560  124.7060   61.2350 C   0  0  0  0  0  0  0  0  0  0  0  0
  131.1980  125.2060   62.5090 C   0  0  0  0  0  0  0  0  0  0  0  0
  132.2170  125.2390   63.4720 C   0  0  0  0  0  0  0  0  0  0  0  0
  132.0740  125.7210   64.7860 N   0  0  0  0  0  0  0  0  0  0  0  0
  133.0080  126.0020   65.7230 C   0  0  0  0  0  0  0  0  0  0  0  0
  134.2230  125.8780   65.5650 O   0  0  0  0  0  0  0  0  0  0  0  0
  132.5090  126.5150   67.0830 C   0  0  0  0  0  0  0  0  0  0  0  0
  131.1600  126.0910   67.3150 O   0  0  0  0  0  0  0  0  0  0  0  0
  130.2220  126.9790   67.8220 C   0  0  0  0  0  0  0  0  0  0  0  0
  130.0430  127.0220   69.1710 N   0  0  0  0  0  0  0  0  0  0  0  0
  129.1230  127.8690   69.7040 C   0  0  0  0  0  0  0  0  0  0  0  0
  128.9880  127.8580   71.2000 C   0  0  0  0  0  0  0  0  0  0  0  0
  128.0580  127.0210   71.8340 C   0  0  0  0  0  0  0  0  0  0  0  0
  127.9300  127.0110   73.2200 C   0  0  0  0  0  0  0  0  0  0  0  0
  128.7260  127.8330   74.0140 C   0  0  0  0  0  0  0  0  0  0  0  0
  128.5290  127.7550   75.3800 O   0  0  0  0  0  0  0  0  0  0  0  0
  127.9370  128.8580   76.0590 C   0  0  0  0  0  0  0  0  0  0  0  0
  129.6640  128.6710   73.3950 C   0  0  0  0  0  0  0  0  0  0  0  0
  129.7910  128.6790   72.0090 C   0  0  0  0  0  0  0  0  0  0  0  0
  128.3700  128.7150   68.8800 C   0  0  0  0  0  0  0  0  0  0  0  0
  128.5430  128.6980   67.4900 C   0  0  0  0  0  0  0  0  0  0  0  0
  127.7160  129.6320   66.6670 C   0  0  0  0  0  0  0  0  0  0  0  0
  126.4510  129.2410   66.2180 C   0  0  0  0  0  0  0  0  0  0  0  0
  125.6710  130.1090   65.4600 C   0  0  0  0  0  0  0  0  0  0  0  0
  126.1340  131.3840   65.1390 C   0  0  0  0  0  0  0  0  0  0  0  0
  125.2920  132.1760   64.3820 O   0  0  0  0  0  0  0  0  0  0  0  0
  124.3770  131.5570   63.4860 C   0  0  0  0  0  0  0  0  0  0  0  0
  127.4000  131.7830   65.5940 C   0  0  0  0  0  0  0  0  0  0  0  0
  128.1800  130.9140   66.3520 C   0  0  0  0  0  0  0  0  0  0  0  0
  129.4890  127.7990   66.9460 C   0  0  0  0  0  0  0  0  0  0  0  0
  129.7070  127.6790   65.5030 C   0  0  0  0  0  0  0  0  0  0  0  0
  129.8800  127.5840   64.3630 N   0  0  0  0  0  0  0  0  0  0  0  0
  133.4890  124.7730   63.1370 C   0  0  0  0  0  0  0  0  0  0  0  0
  133.7460  124.2740   61.8630 C   0  0  0  0  0  0  0  0  0  0  0  0
  1  2  1  0
  2  3  1  0
  3  4  1  0
  4  5  2  0
  4  6  1  0
  6  7  2  0
  7  8  1  0
  8  9  2  0
  9 10  1  0
 10 11  1  0
 11 12  2  0
 11 13  1  0
 13 14  1  0
 14 15  1  0
 15 16  2  0
 16 17  1  0
 17 18  1  0
 18 19  2  0
 19 20  1  0
 20 21  2  0
 21 22  1  0
 22 23  1  0
 21 24  1  0
 24 25  2  0
 17 26  2  0
 26 27  1  0
 27 28  1  0
 28 29  2  0
 29 30  1  0
 30 31  2  0
 31 32  1  0
 32 33  1  0
 31 34  1  0
 34 35  2  0
 27 36  2  0
 36 37  1  0
 37 38  3  0
  9 39  1  0
 39 40  2  0
 40  6  1  0
 36 15  1  0
 25 18  1  0
 35 28  1  0
M  END
>  <Binding energies>  (2) 
[-8.38]

>  <Ligand effiencies>  (2) 
[-0.20439024390243904]

>  <Interactions>  (2) 
["V-A:HIS:456:CE1:4069, V-B:GLU:543:CD:9879, V-B:HIS:456:CE1:9040, V-A:ARG:545:CZ:4925, V-A:ARG:545:CD:4922, V-B:TYR:539:CD2:9845, V-A:ARG:545:CG:4921, V-B:TYR:539:CE2:9847, H-B:LYS:547:NZ:9922, V-B:GLY:454:CA:9019, V-A:ILE:369:CB:3235, H-B:TYR:539:OH:9849, V-A:ASP:366:CG:3212, H-B:GLU:543:OE2:9881, V-A:ILE:369:CG2:3236, V-A:ILE:369:CD1:3238, V-A:GLU:543:CD:4907, V-A:GLU:543:CG:4906, V-A:SER:385:CA:3406, V-A:GLU:543:CB:4905, H-A:TYR:484:OH:4347, H-A:GLY:454:N:4049, V-B:TYR:484:CZ:9317, H-A:ARG:545:NH2:4927, V-B:TYR:484:CE2:9316, H-A:ARG:545:NH1:4926, H-A:ARG:545:NE:4923, V-B:LYS:547:CE:9921, V-B:HIS:456:CD2:9038"]

$$$$
1b_Grossjean_2025
     RDKit          3D

 25 26  0  0  0  0  0  0  0  0999 V2000
  124.6470  123.9390   58.0190 C   0  0  0  0  0  0  0  0  0  0  0  0
  125.5000  123.8580   56.8850 O   0  0  0  0  0  0  0  0  0  0  0  0
  126.4680  122.9090   56.8060 C   0  0  0  0  0  0  0  0  0  0  0  0
  126.3720  121.8960   56.1060 O   0  0  0  0  0  0  0  0  0  0  0  0
  127.6720  123.2170   57.6490 C   0  0  0  0  0  0  0  0  0  0  0  0
  127.9570  122.5050   58.8240 C   0  0  0  0  0  0  0  0  0  0  0  0
  129.0800  122.8160   59.5840 C   0  0  0  0  0  0  0  0  0  0  0  0
  129.9410  123.8410   59.1890 C   0  0  0  0  0  0  0  0  0  0  0  0
  131.0440  124.0690   60.0340 N   0  0  0  0  0  0  0  0  0  0  0  0
  132.3390  124.3020   59.7310 C   0  0  0  0  0  0  0  0  0  0  0  0
  132.8080  124.3650   58.5940 O   0  0  0  0  0  0  0  0  0  0  0  0
  133.2660  124.5110   60.9300 C   0  0  0  0  0  0  0  0  0  0  0  0
  133.7410  122.9390   61.7100 S   0  0  0  0  0  0  0  0  0  0  0  0
  132.2890  121.9110   61.7620 C   0  0  0  0  0  0  0  0  0  0  0  0
  131.2360  122.4850   62.3970 N   0  0  0  0  0  0  0  0  0  0  0  0
  130.0790  121.7900   62.4930 C   0  0  0  0  0  0  0  0  0  0  0  0
  128.9400  122.5000   63.2030 C   0  0  0  0  0  0  0  0  0  0  0  0
  129.9270  120.5060   61.9760 C   0  0  0  0  0  0  0  0  0  0  0  0
  131.0130  119.8980   61.3390 C   0  0  0  0  0  0  0  0  0  0  0  0
  130.8290  118.4820   60.7940 C   0  0  0  0  0  0  0  0  0  0  0  0
  132.2330  120.6030   61.2270 C   0  0  0  0  0  0  0  0  0  0  0  0
  133.3970  119.9700   60.6030 C   0  0  0  0  0  0  0  0  0  0  0  0
  134.3150  119.4670   60.1090 N   0  0  0  0  0  0  0  0  0  0  0  0
  129.6630  124.5570   58.0150 C   0  0  0  0  0  0  0  0  0  0  0  0
  128.5400  124.2450   57.2560 C   0  0  0  0  0  0  0  0  0  0  0  0
  1  2  1  0
  2  3  1  0
  3  4  2  0
  3  5  1  0
  5  6  2  0
  6  7  1  0
  7  8  2  0
  8  9  1  0
  9 10  1  0
 10 11  2  0
 10 12  1  0
 12 13  1  0
 13 14  1  0
 14 15  2  0
 15 16  1  0
 16 17  1  0
 16 18  2  0
 18 19  1  0
 19 20  1  0
 19 21  2  0
 21 22  1  0
 22 23  3  0
  8 24  1  0
 24 25  2  0
 25  5  1  0
 21 14  1  0
M  END
>  <Binding energies>  (3) 
[-7.75]

>  <Ligand effiencies>  (3) 
[-0.2980769230769231]

>  <Interactions>  (3) 
["V-B:PRO:540:N:9855, H-B:TYR:531:OH:9766, V-B:PRO:540:CB:9856, V-B:TYR:539:CD2:9845, V-B:TYR:539:C:9838, V-B:MET:535:CE:9806, H-B:TYR:539:N:9841, V-B:PRO:540:CA:9854, V-B:LEU:363:CD1:8159, V-B:TYR:539:CE2:9847, V-A:LEU:475:CD2:4258, V-B:ALA:541:CB:9863, H-B:TYR:539:OH:9849, V-B:TYR:539:CZ:9848, V-A:ASP:366:CG:3212, V-A:ILE:369:CG2:3236, V-B:TYR:539:CB:9842, V-A:ILE:369:CD1:3238, V-A:ASP:366:CB:3211, V-A:SER:385:CA:3406, V-B:ALA:541:CA:9861"]

$$$$
1c_Grossjean_2025
     RDKit          3D

 23 24  0  0  0  0  0  0  0  0999 V2000
  125.0510  122.2990   55.7060 C   0  0  0  0  0  0  0  0  0  0  0  0
  126.4180  122.0960   56.0460 O   0  0  0  0  0  0  0  0  0  0  0  0
  126.9000  122.6100   57.2350 C   0  0  0  0  0  0  0  0  0  0  0  0
  125.9730  123.2520   58.0560 C   0  0  0  0  0  0  0  0  0  0  0  0
  126.3620  123.8020   59.2740 C   0  0  0  0  0  0  0  0  0  0  0  0
  127.6980  123.7070   59.6920 C   0  0  0  0  0  0  0  0  0  0  0  0
  128.2000  124.2360   60.8970 N   0  0  0  0  0  0  0  0  0  0  0  0
  127.9760  123.8360   62.1670 C   0  0  0  0  0  0  0  0  0  0  0  0
  127.2730  122.8830   62.5030 O   0  0  0  0  0  0  0  0  0  0  0  0
  128.6800  124.6600   63.2470 C   0  0  0  0  0  0  0  0  0  0  0  0
  129.6260  123.6110   64.3900 S   0  0  0  0  0  0  0  0  0  0  0  0
  130.8440  122.7120   63.4510 C   0  0  0  0  0  0  0  0  0  0  0  0
  130.3320  121.6460   62.7840 N   0  0  0  0  0  0  0  0  0  0  0  0
  131.1640  120.8850   62.0350 C   0  0  0  0  0  0  0  0  0  0  0  0
  130.5180  119.7180   61.3120 C   0  0  0  0  0  0  0  0  0  0  0  0
  132.5280  121.1450   61.9280 C   0  0  0  0  0  0  0  0  0  0  0  0
  133.0710  122.2260   62.6300 C   0  0  0  0  0  0  0  0  0  0  0  0
  134.5720  122.4800   62.5100 C   0  0  0  0  0  0  0  0  0  0  0  0
  132.2210  123.0340   63.4210 C   0  0  0  0  0  0  0  0  0  0  0  0
  132.7800  124.1370   64.2060 C   0  0  0  0  0  0  0  0  0  0  0  0
  133.2220  125.0080   64.8250 N   0  0  0  0  0  0  0  0  0  0  0  0
  128.6300  123.0760   58.8680 C   0  0  0  0  0  0  0  0  0  0  0  0
  128.2380  122.5280   57.6500 C   0  0  0  0  0  0  0  0  0  0  0  0
  1  2  1  0
  2  3  1  0
  3  4  2  0
  4  5  1  0
  5  6  2  0
  6  7  1  0
  7  8  1  0
  8  9  2  0
  8 10  1  0
 10 11  1  0
 11 12  1  0
 12 13  2  0
 13 14  1  0
 14 15  1  0
 14 16  2  0
 16 17  1  0
 17 18  1  0
 17 19  2  0
 19 20  1  0
 20 21  3  0
  6 22  1  0
 22 23  2  0
 23  3  1  0
 19 12  1  0
M  END
>  <Binding energies>  (4) 
[-7.28]

>  <Ligand effiencies>  (4) 
[-0.30333333333333334]

>  <Interactions>  (4) 
["V-B:GLU:543:CD:9879, V-B:PRO:540:N:9855, V-B:PRO:540:CB:9856, V-B:TYR:539:CD2:9845, V-B:TYR:539:C:9838, V-B:MET:535:CE:9806, H-B:TYR:539:N:9841, V-B:TYR:531:CE2:9764, V-B:PRO:540:CA:9854, V-B:LEU:363:CD1:8159, V-B:TYR:539:CE2:9847, V-A:LEU:475:CD2:4258, V-B:ILE:538:CB:9833, V-B:ALA:541:CB:9863, V-B:TYR:539:CZ:9848, V-B:TYR:539:CE1:9846, V-B:TYR:539:CA:9840, V-B:TYR:539:CD1:9844, V-B:ILE:538:CD1:9836, V-B:TYR:539:CG:9843, V-B:ILE:538:CG2:9834, V-A:ILE:369:CD1:3238, V-B:ILE:538:CA:9831, V-A:GLY:454:CA:4048, H-A:TYR:484:OH:4347, H-A:GLY:454:N:4049, V-B:PRO:540:CD:9858, H-B:ALA:541:N:9862, V-A:GLY:453:C:4041, V-A:SER:385:C:3404"]

$$$$
1d_Grossjean_2025
     RDKit          3D

 21 22  0  0  0  0  0  0  0  0999 V2000
  124.1340  123.2520   63.2430 C   0  0  0  0  0  0  0  0  0  0  0  0
  124.7640  123.3910   61.8710 C   0  0  0  0  0  0  0  0  0  0  0  0
  123.9960  123.6510   60.7380 C   0  0  0  0  0  0  0  0  0  0  0  0
  124.6330  123.7800   59.4990 C   0  0  0  0  0  0  0  0  0  0  0  0
  123.7720  124.0810   58.2740 C   0  0  0  0  0  0  0  0  0  0  0  0
  126.0380  123.6350   59.4260 C   0  0  0  0  0  0  0  0  0  0  0  0
  126.7310  123.8130   58.1480 C   0  0  0  0  0  0  0  0  0  0  0  0
  127.2760  123.9550   57.1370 N   0  0  0  0  0  0  0  0  0  0  0  0
  126.7340  123.3470   60.6230 C   0  0  0  0  0  0  0  0  0  0  0  0
  128.4980  123.1320   60.7140 S   0  0  0  0  0  0  0  0  0  0  0  0
  128.8980  122.6460   62.4200 C   0  0  0  0  0  0  0  0  0  0  0  0
  130.0330  121.6220   62.4770 C   0  0  0  0  0  0  0  0  0  0  0  0
  130.9220  121.7570   63.3170 O   0  0  0  0  0  0  0  0  0  0  0  0
  129.9440  120.6120   61.5850 N   0  0  0  0  0  0  0  0  0  0  0  0
  130.8140  119.5290   61.3600 C   0  0  0  0  0  0  0  0  0  0  0  0
  130.2880  118.2620   61.6290 C   0  0  0  0  0  0  0  0  0  0  0  0
  131.0630  117.1230   61.4340 C   0  0  0  0  0  0  0  0  0  0  0  0
  132.3670  117.2480   60.9620 C   0  0  0  0  0  0  0  0  0  0  0  0
  132.9010  118.5030   60.6810 C   0  0  0  0  0  0  0  0  0  0  0  0
  132.1290  119.6450   60.8760 C   0  0  0  0  0  0  0  0  0  0  0  0
  126.1090  123.2450   61.8230 N   0  0  0  0  0  0  0  0  0  0  0  0
  1  2  1  0
  2  3  2  0
  3  4  1  0
  4  5  1  0
  4  6  2  0
  6  7  1  0
  7  8  3  0
  6  9  1  0
  9 10  1  0
 10 11  1  0
 11 12  1  0
 12 13  2  0
 12 14  1  0
 14 15  1  0
 15 16  2  0
 16 17  1  0
 17 18  2  0
 18 19  1  0
 19 20  2  0
  9 21  2  0
 21  2  1  0
 20 15  1  0
M  END
>  <Binding energies>  (5) 
[-7.93]

>  <Ligand effiencies>  (5) 
[-0.3604545454545454]

>  <Interactions>  (5) 
["V-B:ASP:366:CG:8183, V-B:LEU:363:CA:8155, H-B:TYR:531:OH:9766, V-B:PRO:540:CB:9856, V-B:TYR:539:CD2:9845, V-B:PRO:540:CA:9854, V-B:LEU:363:CD1:8159, V-B:TYR:539:CE2:9847, V-B:ARG:545:CZ:9897, V-A:LEU:475:CD2:4258, V-A:PRO:482:CG:4326, V-B:ALA:541:CB:9863, V-A:SER:385:CB:3408, V-A:THR:477:CG2:4272, V-A:HIS:383:CE1:3393, V-A:PRO:482:CB:4325, V-A:SER:385:CA:3406, V-B:ALA:541:C:9859, H-B:ALA:541:N:9862, V-B:PRO:540:C:9852, V-B:ASN:362:CB:8146, H-B:TYR:539:O:9839, V-B:ASN:362:CG:8147"]

$$$$
1e_Grossjean_2025
     RDKit          3D

 22 23  0  0  0  0  0  0  0  0999 V2000
  123.7580  123.9980   58.4290 C   0  0  0  0  0  0  0  0  0  0  0  0
  125.0810  123.4450   57.9330 C   0  0  0  0  0  0  0  0  0  0  0  0
  125.2310  122.9700   56.6270 C   0  0  0  0  0  0  0  0  0  0  0  0
  126.4770  122.4740   56.2420 C   0  0  0  0  0  0  0  0  0  0  0  0
  127.5300  122.4630   57.1590 C   0  0  0  0  0  0  0  0  0  0  0  0
  127.3120  122.9580   58.4500 C   0  0  0  0  0  0  0  0  0  0  0  0
  128.4060  122.9100   59.3320 N   0  0  0  0  0  0  0  0  0  0  0  0
  128.3960  122.7970   60.6790 C   0  0  0  0  0  0  0  0  0  0  0  0
  127.3820  122.7270   61.3740 O   0  0  0  0  0  0  0  0  0  0  0  0
  129.7680  122.7890   61.3560 C   0  0  0  0  0  0  0  0  0  0  0  0
  129.9930  121.3310   62.4190 S   0  0  0  0  0  0  0  0  0  0  0  0
  130.8160  120.0610   61.4780 C   0  0  0  0  0  0  0  0  0  0  0  0
  130.1010  118.9100   61.3840 N   0  0  0  0  0  0  0  0  0  0  0  0
  130.6250  117.8700   60.6940 C   0  0  0  0  0  0  0  0  0  0  0  0
  129.7660  116.6230   60.6260 C   0  0  0  0  0  0  0  0  0  0  0  0
  131.8770  117.9280   60.0850 C   0  0  0  0  0  0  0  0  0  0  0  0
  132.6330  119.0990   60.1960 C   0  0  0  0  0  0  0  0  0  0  0  0
  134.0100  119.1300   59.5350 C   0  0  0  0  0  0  0  0  0  0  0  0
  132.1070  120.1970   60.9150 C   0  0  0  0  0  0  0  0  0  0  0  0
  132.9110  121.4090   61.0900 C   0  0  0  0  0  0  0  0  0  0  0  0
  133.5470  122.3660   61.2270 N   0  0  0  0  0  0  0  0  0  0  0  0
  126.0940  123.4410   58.8350 N   0  0  0  0  0  0  0  0  0  0  0  0
  1  2  1  0
  2  3  2  0
  3  4  1  0
  4  5  2  0
  5  6  1  0
  6  7  1  0
  7  8  1  0
  8  9  2  0
  8 10  1  0
 10 11  1  0
 11 12  1  0
 12 13  2  0
 13 14  1  0
 14 15  1  0
 14 16  2  0
 16 17  1  0
 17 18  1  0
 17 19  2  0
 19 20  1  0
 20 21  3  0
  6 22  2  0
 22  2  1  0
 19 12  1  0
M  END
>  <Binding energies>  (6) 
[-8.09]

>  <Ligand effiencies>  (6) 
[-0.3517391304347826]

>  <Interactions>  (6) 
["V-B:LEU:363:CB:8157, V-B:PRO:540:N:9855, V-B:LEU:363:CA:8155, V-B:PRO:540:CB:9856, V-B:TYR:539:CD2:9845, V-B:TYR:539:C:9838, V-B:MET:535:CE:9806, V-B:TYR:531:CE2:9764, V-B:PRO:540:CA:9854, V-B:LEU:363:CD1:8159, V-B:TYR:539:CE2:9847, V-A:LEU:475:CD2:4258, V-A:PRO:482:CG:4326, V-B:ALA:541:CB:9863, V-B:VAL:344:CG1:7971, V-B:TYR:539:CA:9840, V-B:TYR:539:CD1:9844, V-A:ILE:369:CG2:3236, V-B:TYR:539:CB:9842, V-B:TYR:539:CG:9843, V-A:HIS:383:CE1:3393, V-A:PRO:482:CB:4325, V-B:ILE:538:CA:9831, V-A:SER:385:CA:3406, V-B:PRO:540:CD:9858, H-B:ALA:541:N:9862, V-A:LEU:373:CD2:3280, V-A:VAL:384:C:3396"]

$$$$
1f_Grossjean_2025
     RDKit          3D

 21 22  0  0  0  0  0  0  0  0999 V2000
  129.7080  116.8100   60.5900 C   0  0  0  0  0  0  0  0  0  0  0  0
  130.6340  118.0050   60.7120 C   0  0  0  0  0  0  0  0  0  0  0  0
  131.8920  118.0170   60.1140 C   0  0  0  0  0  0  0  0  0  0  0  0
  132.7070  119.1430   60.2710 C   0  0  0  0  0  0  0  0  0  0  0  0
  134.0900  119.1250   59.6210 C   0  0  0  0  0  0  0  0  0  0  0  0
  132.2330  120.2420   61.0230 C   0  0  0  0  0  0  0  0  0  0  0  0
  133.0940  121.4070   61.2450 C   0  0  0  0  0  0  0  0  0  0  0  0
  133.7750  122.3250   61.4190 N   0  0  0  0  0  0  0  0  0  0  0  0
  130.9310  120.1540   61.5710 C   0  0  0  0  0  0  0  0  0  0  0  0
  130.1660  121.4350   62.5440 S   0  0  0  0  0  0  0  0  0  0  0  0
  129.7720  122.8380   61.4440 C   0  0  0  0  0  0  0  0  0  0  0  0
  128.4340  122.7180   60.6990 C   0  0  0  0  0  0  0  0  0  0  0  0
  127.3910  122.5040   61.3180 O   0  0  0  0  0  0  0  0  0  0  0  0
  128.5260  122.8410   59.3580 N   0  0  0  0  0  0  0  0  0  0  0  0
  127.5140  122.7930   58.3800 C   0  0  0  0  0  0  0  0  0  0  0  0
  126.2070  123.2950   58.5270 C   0  0  0  0  0  0  0  0  0  0  0  0
  125.3010  123.1830   57.4690 C   0  0  0  0  0  0  0  0  0  0  0  0
  125.7250  122.5760   56.2870 C   0  0  0  0  0  0  0  0  0  0  0  0
  126.9800  122.0890   56.1180 N   0  0  0  0  0  0  0  0  0  0  0  0
  127.8490  122.2050   57.1550 C   0  0  0  0  0  0  0  0  0  0  0  0
  130.1580  119.0480   61.4330 N   0  0  0  0  0  0  0  0  0  0  0  0
  1  2  1  0
  2  3  2  0
  3  4  1  0
  4  5  1  0
  4  6  2  0
  6  7  1  0
  7  8  3  0
  6  9  1  0
  9 10  1  0
 10 11  1  0
 11 12  1  0
 12 13  2  0
 12 14  1  0
 14 15  1  0
 15 16  2  0
 16 17  1  0
 17 18  2  0
 18 19  1  0
 19 20  2  0
  9 21  2  0
 21  2  1  0
 20 15  1  0
M  END
>  <Binding energies>  (7) 
[-8.16]

>  <Ligand effiencies>  (7) 
[-0.3709090909090909]

>  <Interactions>  (7) 
["V-B:PRO:540:N:9855, V-B:PRO:540:CB:9856, V-B:TYR:539:CD2:9845, V-B:TYR:539:C:9838, V-B:MET:535:CE:9806, H-B:TYR:539:N:9841, V-B:PRO:540:CA:9854, V-B:LEU:363:CD1:8159, V-B:TYR:539:CE2:9847, V-A:LEU:475:CD2:4258, V-A:PRO:482:CG:4326, V-B:ALA:541:CB:9863, V-B:TYR:539:CZ:9848, V-B:VAL:344:CG1:7971, V-B:TYR:539:CE1:9846, V-B:TYR:539:CA:9840, V-B:TYR:539:CD1:9844, V-A:ILE:369:CG2:3236, V-B:TYR:539:CB:9842, V-B:TYR:539:CG:9843, V-A:HIS:383:CE1:3393, V-A:PRO:482:CB:4325, V-A:SER:385:CA:3406, V-B:PRO:540:CD:9858, H-B:ALA:541:N:9862, V-A:LEU:373:CD2:3280, H-B:TYR:539:O:9839, V-A:VAL:384:C:3396"]

$$$$
1g_Grossjean_2025
     RDKit          3D

 22 23  0  0  0  0  0  0  0  0999 V2000
  130.7610  126.9150   67.2030 C   0  0  0  0  0  0  0  0  0  0  0  0
  131.2620  125.9160   66.1770 C   0  0  0  0  0  0  0  0  0  0  0  0
  132.4300  126.1400   65.4510 C   0  0  0  0  0  0  0  0  0  0  0  0
  132.8340  125.1900   64.5060 C   0  0  0  0  0  0  0  0  0  0  0  0
  134.1100  125.4640   63.7110 C   0  0  0  0  0  0  0  0  0  0  0  0
  132.0550  124.0260   64.3180 C   0  0  0  0  0  0  0  0  0  0  0  0
  132.4310  123.0440   63.2980 C   0  0  0  0  0  0  0  0  0  0  0  0
  132.7300  122.2710   62.4900 N   0  0  0  0  0  0  0  0  0  0  0  0
  130.8990  123.8700   65.1170 C   0  0  0  0  0  0  0  0  0  0  0  0
  129.8120  122.4660   65.0190 S   0  0  0  0  0  0  0  0  0  0  0  0
  128.4750  122.8980   63.8650 C   0  0  0  0  0  0  0  0  0  0  0  0
  128.6960  122.2910   62.4790 C   0  0  0  0  0  0  0  0  0  0  0  0
  127.7800  122.2870   61.6540 O   0  0  0  0  0  0  0  0  0  0  0  0
  129.9150  121.7770   62.2420 N   0  0  0  0  0  0  0  0  0  0  0  0
  130.3610  121.2020   60.9730 C   0  0  0  0  0  0  0  0  0  0  0  0
  130.9720  119.8090   61.0950 C   0  0  0  0  0  0  0  0  0  0  0  0
  130.2160  118.7600   61.6280 C   0  0  0  0  0  0  0  0  0  0  0  0
  130.7730  117.4890   61.7380 C   0  0  0  0  0  0  0  0  0  0  0  0
  132.0810  117.2690   61.3110 C   0  0  0  0  0  0  0  0  0  0  0  0
  132.8370  118.3090   60.7750 C   0  0  0  0  0  0  0  0  0  0  0  0
  132.2820  119.5810   60.6650 C   0  0  0  0  0  0  0  0  0  0  0  0
  130.5010  124.8070   66.0150 N   0  0  0  0  0  0  0  0  0  0  0  0
  1  2  1  0
  2  3  2  0
  3  4  1  0
  4  5  1  0
  4  6  2  0
  6  7  1  0
  7  8  3  0
  6  9  1  0
  9 10  1  0
 10 11  1  0
 11 12  1  0
 12 13  2  0
 12 14  1  0
 14 15  1  0
 15 16  1  0
 16 17  2  0
 17 18  1  0
 18 19  2  0
 19 20  1  0
 20 21  2  0
  9 22  2  0
 22  2  1  0
 21 16  1  0
M  END
>  <Binding energies>  (8) 
[-7.02]

>  <Ligand effiencies>  (8) 
[-0.30521739130434783]

>  <Interactions>  (8) 
["V-A:HIS:456:CE1:4069, V-B:GLU:543:CD:9879, V-A:ARG:545:CZ:4925, V-A:TYR:484:CZ:4346, V-B:TYR:539:CD2:9845, V-B:TYR:539:CE2:9847, V-A:LEU:475:CD2:4258, V-A:PRO:482:CG:4326, V-B:ALA:541:CB:9863, V-A:ASP:366:CG:3212, V-A:SER:385:CB:3408, V-A:THR:477:CG2:4272, V-A:HIS:383:CE1:3393, V-A:PRO:482:CB:4325, V-A:GLU:543:CD:4907, V-A:SER:385:CA:3406, H-A:TYR:484:OH:4347, V-B:GLU:543:CG:9878, V-A:TYR:484:CE2:4345, H-B:ALA:541:N:9862, V-B:ALA:541:CA:9861, V-A:GLY:453:C:4041, V-A:GLY:453:CA:4043"]

$$$$
1h_Grossjean_2025
     RDKit          3D

 28 29  0  0  0  0  0  0  0  0999 V2000
  133.0860  131.5630   61.6750 C   0  0  0  0  0  0  0  0  0  0  0  0
  132.9200  131.4530   60.2660 O   0  0  0  0  0  0  0  0  0  0  0  0
  131.8100  132.0220   59.6670 C   0  0  0  0  0  0  0  0  0  0  0  0
  130.5350  132.0580   60.2530 C   0  0  0  0  0  0  0  0  0  0  0  0
  129.4570  132.6370   59.5840 C   0  0  0  0  0  0  0  0  0  0  0  0
  128.0810  132.6900   60.2420 C   0  0  0  0  0  0  0  0  0  0  0  0
  128.1180  132.9880   61.6740 N   0  0  0  0  0  0  0  0  0  0  0  0
  128.4110  132.1030   62.6450 C   0  0  0  0  0  0  0  0  0  0  0  0
  128.7100  130.9290   62.4310 O   0  0  0  0  0  0  0  0  0  0  0  0
  128.3500  132.6230   64.0810 C   0  0  0  0  0  0  0  0  0  0  0  0
  126.6570  132.5920   64.7450 S   0  0  0  0  0  0  0  0  0  0  0  0
  125.5240  132.8250   63.3840 C   0  0  0  0  0  0  0  0  0  0  0  0
  125.8000  133.8690   62.5590 N   0  0  0  0  0  0  0  0  0  0  0  0
  124.9840  134.1000   61.5050 C   0  0  0  0  0  0  0  0  0  0  0  0
  125.3590  135.2800   60.6280 C   0  0  0  0  0  0  0  0  0  0  0  0
  123.8680  133.3120   61.2300 C   0  0  0  0  0  0  0  0  0  0  0  0
  123.5720  132.2350   62.0730 C   0  0  0  0  0  0  0  0  0  0  0  0
  122.3470  131.3830   61.7530 C   0  0  0  0  0  0  0  0  0  0  0  0
  124.4120  131.9760   63.1810 C   0  0  0  0  0  0  0  0  0  0  0  0
  124.1250  130.8570   64.0820 C   0  0  0  0  0  0  0  0  0  0  0  0
  123.8980  129.9730   64.7940 N   0  0  0  0  0  0  0  0  0  0  0  0
  129.6560  133.2190   58.3310 C   0  0  0  0  0  0  0  0  0  0  0  0
  130.9210  133.2030   57.7230 C   0  0  0  0  0  0  0  0  0  0  0  0
  131.1900  133.7580   56.4850 O   0  0  0  0  0  0  0  0  0  0  0  0
  130.4350  133.3410   55.3530 C   0  0  0  0  0  0  0  0  0  0  0  0
  131.9880  132.5910   58.3970 C   0  0  0  0  0  0  0  0  0  0  0  0
  133.2330  132.5720   57.8170 O   0  0  0  0  0  0  0  0  0  0  0  0
  133.7470  131.2670   57.5930 C   0  0  0  0  0  0  0  0  0  0  0  0
  1  2  1  0
  2  3  1  0
  3  4  2  0
  4  5  1  0
  5  6  1  0
  6  7  1  0
  7  8  1  0
  8  9  2  0
  8 10  1  0
 10 11  1  0
 11 12  1  0
 12 13  2  0
 13 14  1  0
 14 15  1  0
 14 16  2  0
 16 17  1  0
 17 18  1  0
 17 19  2  0
 19 20  1  0
 20 21  3  0
  5 22  2  0
 22 23  1  0
 23 24  1  0
 24 25  1  0
 23 26  2  0
 26 27  1  0
 27 28  1  0
 26  3  1  0
 19 12  1  0
M  END
>  <Binding energies>  (9) 
[-6.67]

>  <Ligand effiencies>  (9) 
[-0.23]

>  <Interactions>  (9) 
["V-B:LEU:475:CD1:9228, V-B:GLY:454:CA:9019, V-A:GLU:543:CG:4906, H-B:TYR:484:OH:9318, V-A:ASN:362:C:3171, V-A:TYR:531:CE2:4792, V-A:LEU:363:CA:3184, V-A:LEU:363:CD1:3188, V-A:PRO:540:CA:4882, V-A:TYR:531:CZ:4793, V-A:TYR:539:CD1:4872, V-A:PRO:540:CD:4886, V-A:ASN:362:CB:3175, V-A:ILE:538:CG2:4862, V-A:PRO:540:N:4883, V-A:PRO:540:CB:4884, V-A:TYR:539:C:4866, V-A:TYR:539:CE1:4874, H-A:TYR:539:N:4869, V-A:ILE:538:CB:4861, V-A:ILE:538:CA:4859, H-A:TYR:539:O:4867, V-A:ALA:541:CB:4891, H-B:GLY:454:N:9020, V-B:ILE:369:CG1:8208, V-B:ILE:369:CG2:8207, V-B:ILE:369:CB:8206, V-B:SER:385:CB:8379"]

$$$$
1i_Grossjean_2025
     RDKit          3D

 20 21  0  0  0  0  0  0  0  0999 V2000
  129.7930  116.7550   60.6900 C   0  0  0  0  0  0  0  0  0  0  0  0
  130.6770  117.9840   60.7800 C   0  0  0  0  0  0  0  0  0  0  0  0
  131.9690  117.9940   60.2580 C   0  0  0  0  0  0  0  0  0  0  0  0
  132.7350  119.1600   60.3600 C   0  0  0  0  0  0  0  0  0  0  0  0
  134.1420  119.1520   59.7650 C   0  0  0  0  0  0  0  0  0  0  0  0
  132.1830  120.2970   60.9960 C   0  0  0  0  0  0  0  0  0  0  0  0
  132.9490  121.5430   61.0700 C   0  0  0  0  0  0  0  0  0  0  0  0
  133.5550  122.5280   61.1260 N   0  0  0  0  0  0  0  0  0  0  0  0
  130.8730  120.1880   61.5190 C   0  0  0  0  0  0  0  0  0  0  0  0
  130.0260  121.5150   62.3490 S   0  0  0  0  0  0  0  0  0  0  0  0
  129.7810  122.8510   61.1410 C   0  0  0  0  0  0  0  0  0  0  0  0
  128.4810  122.6820   60.3510 C   0  0  0  0  0  0  0  0  0  0  0  0
  127.4260  122.4970   60.9590 O   0  0  0  0  0  0  0  0  0  0  0  0
  128.6020  122.7570   59.0070 N   0  0  0  0  0  0  0  0  0  0  0  0
  127.5920  122.6340   58.0640 C   0  0  0  0  0  0  0  0  0  0  0  0
  126.3230  123.1860   58.2330 C   0  0  0  0  0  0  0  0  0  0  0  0
  125.6310  122.8450   57.0940 C   0  0  0  0  0  0  0  0  0  0  0  0
  126.4400  122.1240   56.2820 O   0  0  0  0  0  0  0  0  0  0  0  0
  127.6810  121.9950   56.9090 N   0  0  0  0  0  0  0  0  0  0  0  0
  130.1300  119.0590   61.3960 N   0  0  0  0  0  0  0  0  0  0  0  0
  1  2  1  0
  2  3  2  0
  3  4  1  0
  4  5  1  0
  4  6  2  0
  6  7  1  0
  7  8  3  0
  6  9  1  0
  9 10  1  0
 10 11  1  0
 11 12  1  0
 12 13  2  0
 12 14  1  0
 14 15  1  0
 15 16  1  0
 16 17  2  0
 17 18  1  0
 18 19  1  0
  9 20  2  0
 20  2  1  0
 19 15  2  0
M  END
>  <Binding energies>  (10) 
[-7.85]

>  <Ligand effiencies>  (10) 
[-0.3738095238095238]

>  <Interactions>  (10) 
["V-B:PRO:540:N:9855, V-B:PRO:540:CB:9856, V-B:TYR:539:CD2:9845, V-B:TYR:539:C:9838, H-B:TYR:539:N:9841, V-B:PRO:540:CA:9854, V-B:LEU:363:CD1:8159, V-B:TYR:539:CE2:9847, V-A:LEU:475:CD2:4258, V-A:PRO:482:CG:4326, V-B:ALA:541:CB:9863, V-B:VAL:344:CG1:7971, V-A:ILE:369:CG2:3236, V-B:TYR:539:CB:9842, V-A:HIS:383:CE1:3393, V-A:PRO:482:CB:4325, V-A:SER:385:CA:3406, V-B:PRO:540:CD:9858, H-B:ALA:541:N:9862, V-A:LEU:373:CD2:3280, H-B:TYR:539:O:9839, V-A:VAL:384:C:3396"]

$$$$
1k_Grossjean_2025
     RDKit          3D

 25 25  0  0  0  0  0  0  0  0999 V2000
  132.6050  124.6970   59.3040 C   0  0  0  0  0  0  0  0  0  0  0  0
  133.1780  124.7620   58.0080 O   0  0  0  0  0  0  0  0  0  0  0  0
  132.7710  125.9040   57.2650 C   0  0  0  0  0  0  0  0  0  0  0  0
  131.3090  126.2340   57.5930 C   0  0  0  0  0  0  0  0  0  0  0  0
  130.9020  127.3720   56.8440 O   0  0  0  0  0  0  0  0  0  0  0  0
  129.6460  127.9020   57.2470 C   0  0  0  0  0  0  0  0  0  0  0  0
  129.0140  128.6630   56.0740 C   0  0  0  0  0  0  0  0  0  0  0  0
  128.7650  130.0080   56.4610 O   0  0  0  0  0  0  0  0  0  0  0  0
  128.4000  130.8550   55.3790 C   0  0  0  0  0  0  0  0  0  0  0  0
  129.2080  132.1640   55.4530 C   0  0  0  0  0  0  0  0  0  0  0  0
  130.4650  132.0470   56.1940 N   0  0  0  0  0  0  0  0  0  0  0  0
  131.3990  133.0090   56.2930 C   0  0  0  0  0  0  0  0  0  0  0  0
  131.2850  134.1150   55.7600 O   0  0  0  0  0  0  0  0  0  0  0  0
  132.6420  132.6430   57.1180 C   0  0  0  0  0  0  0  0  0  0  0  0
  132.4410  131.2410   58.2710 S   0  0  0  0  0  0  0  0  0  0  0  0
  131.0200  131.5380   59.3140 C   0  0  0  0  0  0  0  0  0  0  0  0
  129.8070  131.3850   58.7210 N   0  0  0  0  0  0  0  0  0  0  0  0
  128.6900  131.6040   59.4510 C   0  0  0  0  0  0  0  0  0  0  0  0
  127.3760  131.4230   58.7160 C   0  0  0  0  0  0  0  0  0  0  0  0
  128.7310  131.9730   60.7940 C   0  0  0  0  0  0  0  0  0  0  0  0
  129.9730  132.1260   61.4190 C   0  0  0  0  0  0  0  0  0  0  0  0
  129.9950  132.5310   62.8910 C   0  0  0  0  0  0  0  0  0  0  0  0
  131.1520  131.9060   60.6720 C   0  0  0  0  0  0  0  0  0  0  0  0
  132.4670  132.0630   61.3000 C   0  0  0  0  0  0  0  0  0  0  0  0
  133.5050  132.1870   61.7970 N   0  0  0  0  0  0  0  0  0  0  0  0
  1  2  1  0
  2  3  1  0
  3  4  1  0
  4  5  1  0
  5  6  1  0
  6  7  1  0
  7  8  1  0
  8  9  1  0
  9 10  1  0
 10 11  1  0
 11 12  1  0
 12 13  2  0
 12 14  1  0
 14 15  1  0
 15 16  1  0
 16 17  2  0
 17 18  1  0
 18 19  1  0
 18 20  2  0
 20 21  1  0
 21 22  1  0
 21 23  2  0
 23 24  1  0
 24 25  3  0
 23 16  1  0
M  END
>  <Binding energies>  (11) 
[-5.79]

>  <Ligand effiencies>  (11) 
[-0.2226923076923077]

>  <Interactions>  (11) 
["V-B:TYR:539:CE2:9847, H-B:TYR:539:OH:9849, V-A:ASP:366:CG:3212, V-A:GLU:543:CD:4907, V-A:GLU:543:CG:4906, V-A:ASP:366:CB:3211, V-A:TYR:531:CE2:4792, H-A:TYR:531:OH:4794, V-A:LEU:363:CD1:3188, V-A:PRO:540:CA:4882, V-A:TYR:531:CZ:4793, V-A:PRO:540:CB:4884, V-A:TYR:539:CE1:4874, H-A:TYR:539:N:4869, V-A:ASP:366:C:3207, V-A:MET:535:CE:4834, V-A:ALA:541:CB:4891, V-A:TYR:539:CZ:4876, V-A:ALA:541:CA:4889, V-A:ASP:366:CA:3209"]

$$$$
1l_Grossjean_2025
     RDKit          3D

 17 17  0  0  0  0  0  0  0  0999 V2000
  124.8800  122.4120   56.3900 C   0  0  0  0  0  0  0  0  0  0  0  0
  125.8490  123.1790   55.6900 O   0  0  0  0  0  0  0  0  0  0  0  0
  126.7610  123.7290   56.5900 N   0  0  0  0  0  0  0  0  0  0  0  0
  127.6480  122.9180   57.1990 C   0  0  0  0  0  0  0  0  0  0  0  0
  127.8630  121.7540   56.8490 O   0  0  0  0  0  0  0  0  0  0  0  0
  128.4070  123.5480   58.3750 C   0  0  0  0  0  0  0  0  0  0  0  0
  127.5770  124.9750   59.1530 S   0  0  0  0  0  0  0  0  0  0  0  0
  125.8580  124.5560   59.3920 C   0  0  0  0  0  0  0  0  0  0  0  0
  125.0190  124.9110   58.3840 N   0  0  0  0  0  0  0  0  0  0  0  0
  123.7010  124.6240   58.5000 C   0  0  0  0  0  0  0  0  0  0  0  0
  122.8290  125.0510   57.3350 C   0  0  0  0  0  0  0  0  0  0  0  0
  123.1680  123.9780   59.6120 C   0  0  0  0  0  0  0  0  0  0  0  0
  124.0220  123.6060   60.6560 C   0  0  0  0  0  0  0  0  0  0  0  0
  123.4150  122.8960   61.8650 C   0  0  0  0  0  0  0  0  0  0  0  0
  125.4000  123.8960   60.5560 C   0  0  0  0  0  0  0  0  0  0  0  0
  126.3190  123.5180   61.6350 C   0  0  0  0  0  0  0  0  0  0  0  0
  127.0420  123.2190   62.4860 N   0  0  0  0  0  0  0  0  0  0  0  0
  1  2  1  0
  2  3  1  0
  3  4  1  0
  4  5  2  0
  4  6  1  0
  6  7  1  0
  7  8  1  0
  8  9  2  0
  9 10  1  0
 10 11  1  0
 10 12  2  0
 12 13  1  0
 13 14  1  0
 13 15  2  0
 15 16  1  0
 16 17  3  0
 15  8  1  0
M  END
>  <Binding energies>  (12) 
[-6.33]

>  <Ligand effiencies>  (12) 
[-0.3516666666666667]

>  <Interactions>  (12) 
["V-B:ASP:366:CG:8183, V-B:LEU:363:CB:8157, V-B:TYR:531:CZ:9765, V-B:ASP:366:CB:8182, V-B:PRO:540:N:9855, V-B:LEU:363:CA:8155, H-B:TYR:531:OH:9766, V-B:PRO:540:CB:9856, V-B:TYR:539:CD2:9845, V-B:TYR:539:C:9838, V-B:MET:535:CE:9806, H-B:TYR:539:N:9841, V-B:TYR:531:CE2:9764, V-B:PRO:540:CA:9854, V-B:LEU:363:CD1:8159, V-B:TYR:539:CE2:9847, V-B:TYR:539:CZ:9848, V-B:ILE:538:CD1:9836, V-B:ILE:538:CG2:9834, V-B:PRO:540:CG:9857, V-B:PRO:540:CD:9858, H-B:ALA:541:N:9862, V-B:ASN:362:CB:8146, V-B:ASN:362:CG:8147, V-B:ASN:362:C:8142, V-B:LEU:363:C:8153, V-B:TYR:531:CD2:9762"]

$$$$
1m_Grossjean_2025
     RDKit          3D

 20 20  0  0  0  0  0  0  0  0999 V2000
  129.7450  116.9030   60.6250 C   0  0  0  0  0  0  0  0  0  0  0  0
  130.5280  117.7550   59.8020 O   0  0  0  0  0  0  0  0  0  0  0  0
  131.8400  117.9410   60.0580 C   0  0  0  0  0  0  0  0  0  0  0  0
  132.7630  117.2550   59.6080 O   0  0  0  0  0  0  0  0  0  0  0  0
  132.0680  119.1450   60.9950 C   0  0  0  0  0  0  0  0  0  0  0  0
  130.9080  120.0470   61.0570 N   0  0  0  0  0  0  0  0  0  0  0  0
  130.8190  121.1620   61.8070 C   0  0  0  0  0  0  0  0  0  0  0  0
  131.7220  121.5420   62.5550 O   0  0  0  0  0  0  0  0  0  0  0  0
  129.5020  121.9390   61.6830 C   0  0  0  0  0  0  0  0  0  0  0  0
  128.9580  122.2470   59.9680 S   0  0  0  0  0  0  0  0  0  0  0  0
  127.3170  122.9350   60.0260 C   0  0  0  0  0  0  0  0  0  0  0  0
  126.8830  123.1970   61.2850 N   0  0  0  0  0  0  0  0  0  0  0  0
  125.6500  123.7280   61.4520 C   0  0  0  0  0  0  0  0  0  0  0  0
  125.2420  124.0110   62.8850 C   0  0  0  0  0  0  0  0  0  0  0  0
  124.8000  124.0070   60.3830 C   0  0  0  0  0  0  0  0  0  0  0  0
  125.2270  123.7160   59.0830 C   0  0  0  0  0  0  0  0  0  0  0  0
  124.2730  124.0160   57.9280 C   0  0  0  0  0  0  0  0  0  0  0  0
  126.5110  123.1600   58.8840 C   0  0  0  0  0  0  0  0  0  0  0  0
  126.9580  122.8020   57.5360 C   0  0  0  0  0  0  0  0  0  0  0  0
  127.3100  122.5210   56.4710 N   0  0  0  0  0  0  0  0  0  0  0  0
  1  2  1  0
  2  3  1  0
  3  4  2  0
  3  5  1  0
  5  6  1  0
  6  7  1  0
  7  8  2  0
  7  9  1  0
  9 10  1  0
 10 11  1  0
 11 12  2  0
 12 13  1  0
 13 14  1  0
 13 15  2  0
 15 16  1  0
 16 17  1  0
 16 18  2  0
 18 19  1  0
 19 20  3  0
 18 11  1  0
M  END
>  <Binding energies>  (13) 
[-6.62]

>  <Ligand effiencies>  (13) 
[-0.31523809523809526]

>  <Interactions>  (13) 
["V-B:GLU:543:CD:9879, V-B:PRO:540:N:9855, V-B:PRO:540:CB:9856, V-B:TYR:539:CD2:9845, V-B:TYR:539:C:9838, V-B:MET:535:CE:9806, H-B:TYR:539:N:9841, V-B:PRO:540:CA:9854, V-B:LEU:363:CD1:8159, V-B:TYR:539:CE2:9847, V-B:ARG:545:CZ:9897, V-A:LEU:475:CD2:4258, V-A:PRO:482:CG:4326, V-B:ALA:541:CB:9863, V-B:VAL:344:CG1:7971, V-B:TYR:539:CB:9842, V-A:HIS:383:CE1:3393, V-A:PRO:482:CB:4325, H-B:ALA:541:N:9862, V-B:PRO:540:C:9852, H-A:HIS:383:ND1:3390, H-B:TYR:539:O:9839"]

$$$$
1n_Grossjean_2025
     RDKit          3D

 27 28  0  0  0  0  0  0  0  0999 V2000
  129.0560  132.6660   54.9920 C   0  0  0  0  0  0  0  0  0  0  0  0
  130.2860  133.5660   55.1480 C   0  0  0  0  0  0  0  0  0  0  0  0
  130.5360  133.7890   56.5300 O   0  0  0  0  0  0  0  0  0  0  0  0
  131.6590  133.3110   57.1260 C   0  0  0  0  0  0  0  0  0  0  0  0
  132.7020  133.9630   57.2320 O   0  0  0  0  0  0  0  0  0  0  0  0
  131.5020  131.9140   57.6540 C   0  0  0  0  0  0  0  0  0  0  0  0
  130.2400  131.3290   57.8420 C   0  0  0  0  0  0  0  0  0  0  0  0
  130.1290  130.0330   58.3360 C   0  0  0  0  0  0  0  0  0  0  0  0
  131.2700  129.2980   58.6600 C   0  0  0  0  0  0  0  0  0  0  0  0
  131.0420  128.0000   59.1570 N   0  0  0  0  0  0  0  0  0  0  0  0
  130.1120  127.0890   58.7980 C   0  0  0  0  0  0  0  0  0  0  0  0
  129.2620  127.2450   57.9220 O   0  0  0  0  0  0  0  0  0  0  0  0
  130.1530  125.7620   59.5670 C   0  0  0  0  0  0  0  0  0  0  0  0
  130.0180  124.5270   58.6510 C   0  0  0  0  0  0  0  0  0  0  0  0
  128.9950  123.1890   59.3340 S   0  0  0  0  0  0  0  0  0  0  0  0
  127.4390  123.2040   58.4700 C   0  0  0  0  0  0  0  0  0  0  0  0
  127.5180  122.7290   57.2020 N   0  0  0  0  0  0  0  0  0  0  0  0
  126.3910  122.6780   56.4540 C   0  0  0  0  0  0  0  0  0  0  0  0
  126.5540  122.1250   55.0520 C   0  0  0  0  0  0  0  0  0  0  0  0
  125.1520  123.1010   56.9320 C   0  0  0  0  0  0  0  0  0  0  0  0
  125.0640  123.6120   58.2310 C   0  0  0  0  0  0  0  0  0  0  0  0
  123.6990  124.0820   58.7280 C   0  0  0  0  0  0  0  0  0  0  0  0
  126.2300  123.6800   59.0280 C   0  0  0  0  0  0  0  0  0  0  0  0
  126.1700  124.2590   60.3720 C   0  0  0  0  0  0  0  0  0  0  0  0
  126.1210  124.7180   61.4330 N   0  0  0  0  0  0  0  0  0  0  0  0
  132.5350  129.8720   58.4650 C   0  0  0  0  0  0  0  0  0  0  0  0
  132.6440  131.1680   57.9670 C   0  0  0  0  0  0  0  0  0  0  0  0
  1  2  1  0
  2  3  1  0
  3  4  1  0
  4  5  2  0
  4  6  1  0
  6  7  2  0
  7  8  1  0
  8  9  2  0
  9 10  1  0
 10 11  1  0
 11 12  2  0
 11 13  1  0
 13 14  1  0
 14 15  1  0
 15 16  1  0
 16 17  2  0
 17 18  1  0
 18 19  1  0
 18 20  2  0
 20 21  1  0
 21 22  1  0
 21 23  2  0
 23 24  1  0
 24 25  3  0
  9 26  1  0
 26 27  2  0
 27  6  1  0
 23 16  1  0
M  END
>  <Binding energies>  (14) 
[-8.31]

>  <Ligand effiencies>  (14) 
[-0.2967857142857143]

>  <Interactions>  (14) 
["V-B:ASP:366:CG:8183, V-B:LEU:363:CB:8157, V-B:ASP:366:CB:8182, V-B:PRO:540:N:9855, V-B:LEU:363:CA:8155, V-B:PRO:540:CB:9856, V-B:TYR:539:C:9838, V-B:MET:535:CE:9806, V-B:TYR:531:CE2:9764, V-B:PRO:540:CA:9854, V-B:LEU:363:CD1:8159, V-B:TYR:539:CE2:9847, V-B:ILE:538:CB:9833, V-B:TYR:539:CZ:9848, V-A:ASP:366:CG:3212, V-B:MET:535:CG:9804, V-B:ILE:538:CD1:9836, V-B:ILE:538:CA:9831, V-A:ASP:366:CB:3211, V-A:TYR:531:CE2:4792, V-A:PRO:540:CA:4882, V-A:TYR:531:CZ:4793, V-A:PRO:540:CD:4886, V-A:ILE:538:CG2:4862, V-A:PRO:540:N:4883, V-A:PRO:540:CB:4884, V-A:TYR:539:C:4866, V-A:TYR:539:CE1:4874, H-A:TYR:539:N:4869, V-A:MET:535:CG:4832, V-A:ILE:538:CB:4861, V-A:ILE:538:CA:4859, V-B:ILE:538:C:9829, H-A:ASP:366:OD2:3214, V-A:TYR:539:CZ:4876, V-A:ILE:538:C:4857, V-B:VAL:537:C:9821"]

$$$$
1q_Grossjean_2025
     RDKit          3D

 21 21  0  0  0  0  0  0  0  0999 V2000
  131.7780  126.2120   64.1580 C   0  0  0  0  0  0  0  0  0  0  0  0
  132.0060  125.1800   63.2100 O   0  0  0  0  0  0  0  0  0  0  0  0
  133.2690  124.8240   62.8690 C   0  0  0  0  0  0  0  0  0  0  0  0
  134.2480  124.8570   63.6160 O   0  0  0  0  0  0  0  0  0  0  0  0
  133.4220  124.3800   61.3980 C   0  0  0  0  0  0  0  0  0  0  0  0
  132.2250  124.6540   60.5880 N   0  0  0  0  0  0  0  0  0  0  0  0
  132.1460  124.5780   59.2460 C   0  0  0  0  0  0  0  0  0  0  0  0
  133.0990  124.2590   58.5320 O   0  0  0  0  0  0  0  0  0  0  0  0
  130.7760  124.9000   58.6330 C   0  0  0  0  0  0  0  0  0  0  0  0
  129.5790  124.5540   59.5410 C   0  0  0  0  0  0  0  0  0  0  0  0
  128.9210  122.8820   59.2720 S   0  0  0  0  0  0  0  0  0  0  0  0
  127.3560  123.0160   58.4310 C   0  0  0  0  0  0  0  0  0  0  0  0
  127.3920  122.5710   57.1500 N   0  0  0  0  0  0  0  0  0  0  0  0
  126.2620  122.6250   56.4080 C   0  0  0  0  0  0  0  0  0  0  0  0
  126.3860  122.1250   54.9800 C   0  0  0  0  0  0  0  0  0  0  0  0
  125.0560  123.1100   56.9090 C   0  0  0  0  0  0  0  0  0  0  0  0
  125.0000  123.5470   58.2360 C   0  0  0  0  0  0  0  0  0  0  0  0
  123.6610  124.0580   58.7680 C   0  0  0  0  0  0  0  0  0  0  0  0
  126.1670  123.4990   59.0320 C   0  0  0  0  0  0  0  0  0  0  0  0
  126.1120  123.8990   60.4390 C   0  0  0  0  0  0  0  0  0  0  0  0
  126.0650  124.2170   61.5510 N   0  0  0  0  0  0  0  0  0  0  0  0
  1  2  1  0
  2  3  1  0
  3  4  2  0
  3  5  1  0
  5  6  1  0
  6  7  1  0
  7  8  2  0
  7  9  1  0
  9 10  1  0
 10 11  1  0
 11 12  1  0
 12 13  2  0
 13 14  1  0
 14 15  1  0
 14 16  2  0
 16 17  1  0
 17 18  1  0
 17 19  2  0
 19 20  1  0
 20 21  3  0
 19 12  1  0
M  END
>  <Binding energies>  (15) 
[-6.21]

>  <Ligand effiencies>  (15) 
[-0.2822727272727273]

>  <Interactions>  (15) 
["V-B:ASP:366:CG:8183, V-B:LEU:363:CB:8157, V-A:ARG:545:CZ:4925, V-B:ASP:366:CB:8182, V-B:PRO:540:N:9855, V-B:LEU:363:CA:8155, V-B:PRO:540:CB:9856, V-B:TYR:539:C:9838, V-B:MET:535:CE:9806, H-B:TYR:539:N:9841, V-B:TYR:531:CE2:9764, V-B:PRO:540:CA:9854, V-B:LEU:363:CD1:8159, V-B:TYR:539:CE2:9847, V-B:ILE:538:CB:9833, H-B:TYR:539:OH:9849, V-B:TYR:539:CZ:9848, V-A:ASP:366:CG:3212, V-B:MET:535:CG:9804, V-B:ILE:538:CD1:9836, V-B:ILE:538:CG2:9834, V-A:ILE:369:CD1:3238, V-B:ILE:538:CA:9831, H-A:GLY:454:N:4049, V-B:PRO:540:CD:9858, V-B:ILE:538:C:9829, H-A:ASP:366:OD2:3214, V-B:VAL:537:C:9821"]

$$$$
2a_Grossjean_2025
     RDKit          3D

 29 30  0  0  0  0  0  0  0  0999 V2000
  123.3820  124.7630   57.9970 C   0  0  0  0  0  0  0  0  0  0  0  0
  124.8000  124.2440   58.2520 C   0  0  0  0  0  0  0  0  0  0  0  0
  125.4410  123.9960   57.0070 O   0  0  0  0  0  0  0  0  0  0  0  0
  126.3640  123.0090   56.8780 C   0  0  0  0  0  0  0  0  0  0  0  0
  126.2050  122.0170   56.1590 O   0  0  0  0  0  0  0  0  0  0  0  0
  127.6100  123.2550   57.6810 C   0  0  0  0  0  0  0  0  0  0  0  0
  127.9020  122.5210   58.8400 C   0  0  0  0  0  0  0  0  0  0  0  0
  129.0640  122.7750   59.5620 C   0  0  0  0  0  0  0  0  0  0  0  0
  129.9520  123.7690   59.1490 C   0  0  0  0  0  0  0  0  0  0  0  0
  131.0850  123.9490   59.9630 N   0  0  0  0  0  0  0  0  0  0  0  0
  132.3570  124.2530   59.6250 C   0  0  0  0  0  0  0  0  0  0  0  0
  132.7740  124.4100   58.4770 O   0  0  0  0  0  0  0  0  0  0  0  0
  133.3340  124.4040   60.7970 C   0  0  0  0  0  0  0  0  0  0  0  0
  133.7000  122.8280   61.6370 S   0  0  0  0  0  0  0  0  0  0  0  0
  132.2110  121.8430   61.7510 C   0  0  0  0  0  0  0  0  0  0  0  0
  131.1440  122.4540   62.3270 N   0  0  0  0  0  0  0  0  0  0  0  0
  129.9880  121.7650   62.4570 C   0  0  0  0  0  0  0  0  0  0  0  0
  128.8500  122.5050   63.1350 C   0  0  0  0  0  0  0  0  0  0  0  0
  129.8420  120.4530   62.0160 C   0  0  0  0  0  0  0  0  0  0  0  0
  130.9290  119.8040   61.4100 C   0  0  0  0  0  0  0  0  0  0  0  0
  130.7510  118.3520   60.9260 C   0  0  0  0  0  0  0  0  0  0  0  0
  131.0430  118.2630   59.6280 F   0  0  0  0  0  0  0  0  0  0  0  0
  131.5610  117.5420   61.6090 F   0  0  0  0  0  0  0  0  0  0  0  0
  129.5040  117.9040   61.0900 F   0  0  0  0  0  0  0  0  0  0  0  0
  132.1490  120.5150   61.2700 C   0  0  0  0  0  0  0  0  0  0  0  0
  133.3170  119.8840   60.6470 C   0  0  0  0  0  0  0  0  0  0  0  0
  134.2390  119.3870   60.1550 N   0  0  0  0  0  0  0  0  0  0  0  0
  129.6700  124.5020   57.9870 C   0  0  0  0  0  0  0  0  0  0  0  0
  128.5090  124.2430   57.2630 C   0  0  0  0  0  0  0  0  0  0  0  0
  1  2  1  0
  2  3  1  0
  3  4  1  0
  4  5  2  0
  4  6  1  0
  6  7  2  0
  7  8  1  0
  8  9  2  0
  9 10  1  0
 10 11  1  0
 11 12  2  0
 11 13  1  0
 13 14  1  0
 14 15  1  0
 15 16  2  0
 16 17  1  0
 17 18  1  0
 17 19  2  0
 19 20  1  0
 20 21  1  0
 21 22  1  0
 21 23  1  0
 21 24  1  0
 20 25  2  0
 25 26  1  0
 26 27  3  0
  9 28  1  0
 28 29  2  0
 29  6  1  0
 25 15  1  0
M  END
>  <Binding energies>  (16) 
[-7.83]

>  <Ligand effiencies>  (16) 
[-0.261]

>  <Interactions>  (16) 
["V-B:ASP:366:CG:8183, V-B:TYR:531:CZ:9765, V-B:ASP:366:CB:8182, V-B:PRO:540:N:9855, V-B:LEU:363:CA:8155, H-B:TYR:531:OH:9766, V-B:PRO:540:CB:9856, V-B:TYR:539:CD2:9845, V-B:TYR:539:C:9838, V-B:MET:535:CE:9806, H-B:TYR:539:N:9841, V-B:TYR:531:CE2:9764, V-B:PRO:540:CA:9854, V-B:LEU:363:CD1:8159, V-B:TYR:539:CE2:9847, V-A:LEU:475:CD2:4258, V-A:PRO:482:CG:4326, V-B:ALA:541:CB:9863, H-B:TYR:539:OH:9849, V-B:TYR:539:CZ:9848, V-A:ASP:366:CG:3212, V-A:SER:385:CB:3408, V-B:TYR:539:CA:9840, V-A:ILE:369:CG2:3236, V-B:TYR:539:CB:9842, V-B:TYR:539:CG:9843, V-A:ILE:369:CD1:3238, V-A:HIS:383:CE1:3393, V-A:PRO:482:CB:4325, V-A:ASP:366:CB:3211, V-A:SER:385:CA:3406, V-B:ALA:541:CA:9861, H-A:SER:385:N:3407"]

$$$$
2b_Grossjean_2025
     RDKit          3D

 28 29  0  0  0  0  0  0  0  0999 V2000
  124.5210  123.9950   58.0130 C   0  0  0  0  0  0  0  0  0  0  0  0
  125.4170  123.9880   56.9100 O   0  0  0  0  0  0  0  0  0  0  0  0
  126.3700  123.0290   56.7900 C   0  0  0  0  0  0  0  0  0  0  0  0
  126.2410  122.0270   56.0790 O   0  0  0  0  0  0  0  0  0  0  0  0
  127.5970  123.3060   57.6090 C   0  0  0  0  0  0  0  0  0  0  0  0
  127.9310  122.5320   58.7300 C   0  0  0  0  0  0  0  0  0  0  0  0
  129.0750  122.8160   59.4700 C   0  0  0  0  0  0  0  0  0  0  0  0
  129.9100  123.8720   59.1040 C   0  0  0  0  0  0  0  0  0  0  0  0
  131.0360  124.0750   59.9250 N   0  0  0  0  0  0  0  0  0  0  0  0
  132.3230  124.2950   59.5830 C   0  0  0  0  0  0  0  0  0  0  0  0
  132.7590  124.3320   58.4310 O   0  0  0  0  0  0  0  0  0  0  0  0
  133.2870  124.4920   60.7570 C   0  0  0  0  0  0  0  0  0  0  0  0
  133.6730  122.9410   61.6350 S   0  0  0  0  0  0  0  0  0  0  0  0
  132.2160  121.9080   61.7180 C   0  0  0  0  0  0  0  0  0  0  0  0
  131.1120  122.4890   62.2530 N   0  0  0  0  0  0  0  0  0  0  0  0
  129.9750  121.7640   62.3520 C   0  0  0  0  0  0  0  0  0  0  0  0
  128.7910  122.4810   62.9710 C   0  0  0  0  0  0  0  0  0  0  0  0
  129.8860  120.4440   61.9190 C   0  0  0  0  0  0  0  0  0  0  0  0
  131.0130  119.8260   61.3570 C   0  0  0  0  0  0  0  0  0  0  0  0
  130.8960  118.3660   60.8780 C   0  0  0  0  0  0  0  0  0  0  0  0
  129.6520  117.9230   61.0640 F   0  0  0  0  0  0  0  0  0  0  0  0
  131.1950  118.2830   59.5810 F   0  0  0  0  0  0  0  0  0  0  0  0
  131.7170  117.5410   61.5320 F   0  0  0  0  0  0  0  0  0  0  0  0
  132.2140  120.5720   61.2530 C   0  0  0  0  0  0  0  0  0  0  0  0
  133.4240  119.9740   60.6790 C   0  0  0  0  0  0  0  0  0  0  0  0
  134.3780  119.5020   60.2260 N   0  0  0  0  0  0  0  0  0  0  0  0
  129.5790  124.6560   57.9900 C   0  0  0  0  0  0  0  0  0  0  0  0
  128.4340  124.3720   57.2520 C   0  0  0  0  0  0  0  0  0  0  0  0
  1  2  1  0
  2  3  1  0
  3  4  2  0
  3  5  1  0
  5  6  2  0
  6  7  1  0
  7  8  2  0
  8  9  1  0
  9 10  1  0
 10 11  2  0
 10 12  1  0
 12 13  1  0
 13 14  1  0
 14 15  2  0
 15 16  1  0
 16 17  1  0
 16 18  2  0
 18 19  1  0
 19 20  1  0
 20 21  1  0
 20 22  1  0
 20 23  1  0
 19 24  2  0
 24 25  1  0
 25 26  3  0
  8 27  1  0
 27 28  2  0
 28  5  1  0
 24 14  1  0
M  END
>  <Binding energies>  (17) 
[-7.6]

>  <Ligand effiencies>  (17) 
[-0.26206896551724135]

>  <Interactions>  (17) 
["V-B:PRO:540:N:9855, H-B:TYR:531:OH:9766, V-B:PRO:540:CB:9856, V-B:TYR:539:CD2:9845, V-B:TYR:539:C:9838, V-B:MET:535:CE:9806, H-B:TYR:539:N:9841, V-B:PRO:540:CA:9854, V-B:LEU:363:CD1:8159, V-B:TYR:539:CE2:9847, V-A:LEU:475:CD2:4258, V-A:PRO:482:CG:4326, V-B:ALA:541:CB:9863, H-B:TYR:539:OH:9849, V-B:TYR:539:CZ:9848, V-A:ASP:366:CG:3212, V-A:SER:385:CB:3408, V-A:ILE:369:CG2:3236, V-B:TYR:539:CB:9842, V-B:TYR:539:CG:9843, V-A:ILE:369:CD1:3238, V-A:HIS:383:CE1:3393, V-A:PRO:482:CB:4325, V-A:ASP:366:CB:3211, V-A:SER:385:CA:3406, V-B:ALA:541:CA:9861, H-A:SER:385:N:3407"]

$$$$
2c_Grossjean_2025
     RDKit          3D

 26 27  0  0  0  0  0  0  0  0999 V2000
  125.6980  122.3580   56.4380 C   0  0  0  0  0  0  0  0  0  0  0  0
  126.3680  123.6070   56.5800 O   0  0  0  0  0  0  0  0  0  0  0  0
  127.4700  123.6900   57.4090 C   0  0  0  0  0  0  0  0  0  0  0  0
  128.2780  124.8160   57.2600 C   0  0  0  0  0  0  0  0  0  0  0  0
  129.4110  124.9880   58.0500 C   0  0  0  0  0  0  0  0  0  0  0  0
  129.7560  124.0160   59.0010 C   0  0  0  0  0  0  0  0  0  0  0  0
  130.8690  124.1110   59.8550 N   0  0  0  0  0  0  0  0  0  0  0  0
  132.1640  124.3160   59.5320 C   0  0  0  0  0  0  0  0  0  0  0  0
  132.5940  124.4040   58.3810 O   0  0  0  0  0  0  0  0  0  0  0  0
  133.1240  124.4010   60.7290 C   0  0  0  0  0  0  0  0  0  0  0  0
  133.5430  122.8050   61.5130 S   0  0  0  0  0  0  0  0  0  0  0  0
  132.0830  121.7750   61.5830 C   0  0  0  0  0  0  0  0  0  0  0  0
  130.9670  122.3690   62.0790 N   0  0  0  0  0  0  0  0  0  0  0  0
  129.8290  121.6480   62.1700 C   0  0  0  0  0  0  0  0  0  0  0  0
  128.6320  122.3780   62.7490 C   0  0  0  0  0  0  0  0  0  0  0  0
  129.7480  120.3170   61.7660 C   0  0  0  0  0  0  0  0  0  0  0  0
  130.8850  119.6850   61.2440 C   0  0  0  0  0  0  0  0  0  0  0  0
  130.7790  118.2130   60.7990 C   0  0  0  0  0  0  0  0  0  0  0  0
  131.6320  117.4630   61.4990 F   0  0  0  0  0  0  0  0  0  0  0  0
  129.5410  117.7620   60.9990 F   0  0  0  0  0  0  0  0  0  0  0  0
  131.0650  118.0440   59.5060 F   0  0  0  0  0  0  0  0  0  0  0  0
  132.0890  120.4280   61.1470 C   0  0  0  0  0  0  0  0  0  0  0  0
  133.3100  119.8180   60.6110 C   0  0  0  0  0  0  0  0  0  0  0  0
  134.2730  119.3350   60.1870 N   0  0  0  0  0  0  0  0  0  0  0  0
  128.9410  122.8940   59.1650 C   0  0  0  0  0  0  0  0  0  0  0  0
  127.8090  122.7270   58.3740 C   0  0  0  0  0  0  0  0  0  0  0  0
  1  2  1  0
  2  3  1  0
  3  4  2  0
  4  5  1  0
  5  6  2  0
  6  7  1  0
  7  8  1  0
  8  9  2  0
  8 10  1  0
 10 11  1  0
 11 12  1  0
 12 13  2  0
 13 14  1  0
 14 15  1  0
 14 16  2  0
 16 17  1  0
 17 18  1  0
 18 19  1  0
 18 20  1  0
 18 21  1  0
 17 22  2  0
 22 23  1  0
 23 24  3  0
  6 25  1  0
 25 26  2  0
 26  3  1  0
 22 12  1  0
M  END
>  <Binding energies>  (18) 
[-6.62]

>  <Ligand effiencies>  (18) 
[-0.2451851851851852]

>  <Interactions>  (18) 
["V-B:PRO:540:N:9855, H-B:TYR:531:OH:9766, V-B:TYR:539:CD2:9845, V-B:TYR:539:C:9838, V-B:MET:535:CE:9806, V-B:PRO:540:CA:9854, V-B:LEU:363:CD1:8159, V-B:TYR:539:CE2:9847, V-A:LEU:475:CD2:4258, V-A:PRO:482:CG:4326, V-B:ALA:541:CB:9863, H-B:TYR:539:OH:9849, V-B:TYR:539:CZ:9848, V-A:ASP:366:CG:3212, V-A:SER:385:CB:3408, V-B:TYR:539:CA:9840, V-A:ILE:369:CG2:3236, V-B:TYR:539:CB:9842, V-B:TYR:539:CG:9843, V-A:ILE:369:CD1:3238, V-A:HIS:383:CE1:3393, V-A:PRO:482:CB:4325, V-A:SER:385:CA:3406, V-B:PRO:540:CD:9858, V-B:ALA:541:CA:9861, H-A:SER:385:N:3407"]

$$$$
2d_Ghoteimi_2023
     RDKit          3D

 38 42  0  0  0  0  0  0  0  0999 V2000
  134.2670  125.7960   67.7580 C   0  0  0  0  0  0  0  0  0  0  0  0
  133.0720  126.5610   67.7380 O   0  0  0  0  0  0  0  0  0  0  0  0
  132.2900  126.5830   66.6390 C   0  0  0  0  0  0  0  0  0  0  0  0
  132.6930  126.5660   65.4720 O   0  0  0  0  0  0  0  0  0  0  0  0
  130.8010  126.6250   67.0150 C   0  0  0  0  0  0  0  0  0  0  0  0
  129.8340  127.5580   65.7790 S   0  0  0  0  0  0  0  0  0  0  0  0
  130.1840  126.8830   64.1680 C   0  0  0  0  0  0  0  0  0  0  0  0
  130.3140  127.8310   63.2080 N   0  0  0  0  0  0  0  0  0  0  0  0
  130.5750  127.4600   61.9290 C   0  0  0  0  0  0  0  0  0  0  0  0
  130.6870  128.5590   60.9230 C   0  0  0  0  0  0  0  0  0  0  0  0
  131.1510  129.8240   61.2980 C   0  0  0  0  0  0  0  0  0  0  0  0
  131.2580  130.8530   60.3660 C   0  0  0  0  0  0  0  0  0  0  0  0
  130.9140  130.6490   59.0210 C   0  0  0  0  0  0  0  0  0  0  0  0
  130.9990  131.6770   58.0740 N   0  0  0  0  0  0  0  0  0  0  0  0
  129.8450  132.5490   57.7760 C   0  0  0  0  0  0  0  0  0  0  0  0
  130.0020  133.3570   56.4720 C   0  0  0  0  0  0  0  0  0  0  0  0
  131.2050  134.1080   56.5090 O   0  0  0  0  0  0  0  0  0  0  0  0
  132.3400  133.2680   56.6380 C   0  0  0  0  0  0  0  0  0  0  0  0
  132.2500  132.4510   57.9440 C   0  0  0  0  0  0  0  0  0  0  0  0
  130.4370  129.3840   58.6520 C   0  0  0  0  0  0  0  0  0  0  0  0
  130.3280  128.3570   59.5840 C   0  0  0  0  0  0  0  0  0  0  0  0
  130.7180  126.1130   61.5850 C   0  0  0  0  0  0  0  0  0  0  0  0
  130.6220  125.1160   62.5640 C   0  0  0  0  0  0  0  0  0  0  0  0
  130.8130  123.7000   62.1280 C   0  0  0  0  0  0  0  0  0  0  0  0
  129.7090  122.8650   61.9500 C   0  0  0  0  0  0  0  0  0  0  0  0
  129.8750  121.5480   61.5320 C   0  0  0  0  0  0  0  0  0  0  0  0
  131.1550  121.0270   61.2830 C   0  0  0  0  0  0  0  0  0  0  0  0
  131.3450  119.7110   60.8500 N   0  0  0  0  0  0  0  0  0  0  0  0
  130.6220  118.5850   61.4720 C   0  0  0  0  0  0  0  0  0  0  0  0
  130.6810  117.2840   60.6430 C   0  0  0  0  0  0  0  0  0  0  0  0
  132.0310  116.9360   60.3810 O   0  0  0  0  0  0  0  0  0  0  0  0
  132.7030  117.9530   59.6530 C   0  0  0  0  0  0  0  0  0  0  0  0
  132.6980  119.2700   60.4580 C   0  0  0  0  0  0  0  0  0  0  0  0
  132.2570  121.8780   61.4470 C   0  0  0  0  0  0  0  0  0  0  0  0
  132.0900  123.1950   61.8640 C   0  0  0  0  0  0  0  0  0  0  0  0
  130.3520  125.5050   63.8990 C   0  0  0  0  0  0  0  0  0  0  0  0
  130.2620  124.5000   64.9630 C   0  0  0  0  0  0  0  0  0  0  0  0
  130.1910  123.7030   65.8000 N   0  0  0  0  0  0  0  0  0  0  0  0
  1  2  1  0
  2  3  1  0
  3  4  2  0
  3  5  1  0
  5  6  1  0
  6  7  1  0
  7  8  2  0
  8  9  1  0
  9 10  1  0
 10 11  2  0
 11 12  1  0
 12 13  2  0
 13 14  1  0
 14 15  1  0
 15 16  1  0
 16 17  1  0
 17 18  1  0
 18 19  1  0
 13 20  1  0
 20 21  2  0
  9 22  2  0
 22 23  1  0
 23 24  1  0
 24 25  2  0
 25 26  1  0
 26 27  2  0
 27 28  1  0
 28 29  1  0
 29 30  1  0
 30 31  1  0
 31 32  1  0
 32 33  1  0
 27 34  1  0
 34 35  2  0
 23 36  2  0
 36 37  1  0
 37 38  3  0
 36  7  1  0
 21 10  1  0
 35 24  1  0
 19 14  1  0
 33 28  1  0
M  END
>  <Binding energies>  (19) 
[-9.0]

>  <Ligand effiencies>  (19) 
[-0.23684210526315788]

>  <Interactions>  (19) 
["V-A:HIS:456:CE1:4069, V-B:GLU:543:CD:9879, V-A:TYR:484:CZ:4346, V-A:ARG:545:CD:4922, V-B:TYR:539:CD2:9845, V-A:ARG:545:CG:4921, V-B:TYR:539:CE2:9847, V-A:LEU:475:CD2:4258, V-A:PRO:482:CG:4326, V-B:ALA:541:CB:9863, V-B:TYR:539:CB:9842, V-A:HIS:383:CE1:3393, V-A:GLU:543:CD:4907, V-A:SER:385:CA:3406, H-A:TYR:484:OH:4347, V-A:TYR:531:CE2:4792, V-A:LEU:363:CD1:3188, V-A:PRO:540:CA:4882, V-A:TYR:539:CD1:4872, V-A:PRO:540:CD:4886, V-A:PRO:540:N:4883, V-A:PRO:540:CB:4884, V-A:TYR:539:C:4866, V-A:TYR:539:CE1:4874, H-A:TYR:539:N:4869, H-A:ARG:545:NH2:4927, H-A:ARG:545:NE:4923, H-A:HIS:383:ND1:3390, V-A:ARG:545:CB:4920, V-A:ILE:455:C:4051"]

$$$$
2d_Grossjean_2025
     RDKit          3D

 24 25  0  0  0  0  0  0  0  0999 V2000
  124.0810  123.2420   63.1760 C   0  0  0  0  0  0  0  0  0  0  0  0
  124.8800  123.4480   61.9040 C   0  0  0  0  0  0  0  0  0  0  0  0
  124.2560  123.6260   60.6710 C   0  0  0  0  0  0  0  0  0  0  0  0
  125.0390  123.8180   59.5230 C   0  0  0  0  0  0  0  0  0  0  0  0
  124.3310  124.0240   58.1700 C   0  0  0  0  0  0  0  0  0  0  0  0
  123.0090  124.0100   58.3400 F   0  0  0  0  0  0  0  0  0  0  0  0
  124.6860  125.1970   57.6420 F   0  0  0  0  0  0  0  0  0  0  0  0
  124.6320  123.0770   57.2800 F   0  0  0  0  0  0  0  0  0  0  0  0
  126.4510  123.8160   59.6580 C   0  0  0  0  0  0  0  0  0  0  0  0
  127.3130  124.0580   58.4970 C   0  0  0  0  0  0  0  0  0  0  0  0
  127.9920  124.2510   57.5800 N   0  0  0  0  0  0  0  0  0  0  0  0
  126.9970  123.6020   60.9450 C   0  0  0  0  0  0  0  0  0  0  0  0
  128.7450  123.5370   61.2880 S   0  0  0  0  0  0  0  0  0  0  0  0
  129.0160  122.5000   62.7620 C   0  0  0  0  0  0  0  0  0  0  0  0
  130.1130  121.4500   62.5630 C   0  0  0  0  0  0  0  0  0  0  0  0
  131.1940  121.5990   63.1330 O   0  0  0  0  0  0  0  0  0  0  0  0
  129.8040  120.4340   61.7300 N   0  0  0  0  0  0  0  0  0  0  0  0
  130.5860  119.3270   61.3510 C   0  0  0  0  0  0  0  0  0  0  0  0
  131.8690  119.6150   60.8800 C   0  0  0  0  0  0  0  0  0  0  0  0
  132.7160  118.5870   60.4750 C   0  0  0  0  0  0  0  0  0  0  0  0
  132.2750  117.2670   60.5330 C   0  0  0  0  0  0  0  0  0  0  0  0
  130.9930  116.9680   60.9880 C   0  0  0  0  0  0  0  0  0  0  0  0
  130.1450  117.9930   61.3940 C   0  0  0  0  0  0  0  0  0  0  0  0
  126.2250  123.4400   62.0480 N   0  0  0  0  0  0  0  0  0  0  0  0
  1  2  1  0
  2  3  2  0
  3  4  1  0
  4  5  1  0
  5  6  1  0
  5  7  1  0
  5  8  1  0
  4  9  2  0
  9 10  1  0
 10 11  3  0
  9 12  1  0
 12 13  1  0
 13 14  1  0
 14 15  1  0
 15 16  2  0
 15 17  1  0
 17 18  1  0
 18 19  2  0
 19 20  1  0
 20 21  2  0
 21 22  1  0
 22 23  2  0
 12 24  2  0
 24  2  1  0
 23 18  1  0
M  END
>  <Binding energies>  (20) 
[-7.43]

>  <Ligand effiencies>  (20) 
[-0.29719999999999996]

>  <Interactions>  (20) 
["V-B:LEU:363:CB:8157, V-B:TYR:531:CZ:9765, V-B:ASP:366:CB:8182, V-B:LEU:363:CA:8155, V-B:PRO:540:CB:9856, V-B:TYR:539:CD2:9845, V-B:TYR:531:CE2:9764, V-B:PRO:540:CA:9854, V-B:LEU:363:CD1:8159, V-B:TYR:539:CE2:9847, V-B:ARG:545:CZ:9897, V-A:LEU:475:CD2:4258, V-A:PRO:482:CG:4326, V-B:ALA:541:CB:9863, V-A:SER:385:CB:3408, V-A:HIS:383:CE1:3393, V-A:PRO:482:CB:4325, V-A:SER:385:CA:3406, V-B:ALA:541:C:9859, V-B:PRO:540:CG:9857, V-B:PRO:540:CD:9858, H-B:ALA:541:N:9862, V-B:ASN:362:CB:8146, H-B:TYR:539:O:9839, V-B:ASN:362:CG:8147, V-B:LEU:363:CG:8158, V-B:LEU:363:C:8153"]

$$$$
2e_Grossjean_2025
     RDKit          3D

 25 26  0  0  0  0  0  0  0  0999 V2000
  130.2280  132.4470   61.8330 C   0  0  0  0  0  0  0  0  0  0  0  0
  131.2390  132.2220   60.7250 C   0  0  0  0  0  0  0  0  0  0  0  0
  132.5990  132.0580   60.9980 C   0  0  0  0  0  0  0  0  0  0  0  0
  133.4700  131.8430   59.9280 C   0  0  0  0  0  0  0  0  0  0  0  0
  132.9650  131.7980   58.6260 C   0  0  0  0  0  0  0  0  0  0  0  0
  131.5920  131.9810   58.4230 C   0  0  0  0  0  0  0  0  0  0  0  0
  131.1330  131.8840   57.0980 N   0  0  0  0  0  0  0  0  0  0  0  0
  130.6140  132.8610   56.3220 C   0  0  0  0  0  0  0  0  0  0  0  0
  130.5280  134.0470   56.6430 O   0  0  0  0  0  0  0  0  0  0  0  0
  130.0630  132.4130   54.9650 C   0  0  0  0  0  0  0  0  0  0  0  0
  128.2650  132.1270   55.0180 S   0  0  0  0  0  0  0  0  0  0  0  0
  128.0350  130.7470   56.1170 C   0  0  0  0  0  0  0  0  0  0  0  0
  129.1810  130.2440   56.6400 N   0  0  0  0  0  0  0  0  0  0  0  0
  129.1000  129.1650   57.4510 C   0  0  0  0  0  0  0  0  0  0  0  0
  130.4180  128.6550   58.0010 C   0  0  0  0  0  0  0  0  0  0  0  0
  127.8910  128.5480   57.7650 C   0  0  0  0  0  0  0  0  0  0  0  0
  126.6970  129.0510   57.2250 C   0  0  0  0  0  0  0  0  0  0  0  0
  125.3710  128.3450   57.5650 C   0  0  0  0  0  0  0  0  0  0  0  0
  125.6030  127.0820   57.9230 F   0  0  0  0  0  0  0  0  0  0  0  0
  124.7640  128.9760   58.5700 F   0  0  0  0  0  0  0  0  0  0  0  0
  124.5230  128.3200   56.5350 F   0  0  0  0  0  0  0  0  0  0  0  0
  126.7640  130.1840   56.3780 C   0  0  0  0  0  0  0  0  0  0  0  0
  125.5570  130.7400   55.7580 C   0  0  0  0  0  0  0  0  0  0  0  0
  124.6030  131.1770   55.2690 N   0  0  0  0  0  0  0  0  0  0  0  0
  130.7340  132.1830   59.4650 N   0  0  0  0  0  0  0  0  0  0  0  0
  1  2  1  0
  2  3  2  0
  3  4  1  0
  4  5  2  0
  5  6  1  0
  6  7  1  0
  7  8  1  0
  8  9  2  0
  8 10  1  0
 10 11  1  0
 11 12  1  0
 12 13  2  0
 13 14  1  0
 14 15  1  0
 14 16  2  0
 16 17  1  0
 17 18  1  0
 18 19  1  0
 18 20  1  0
 18 21  1  0
 17 22  2  0
 22 23  1  0
 23 24  3  0
  6 25  2  0
 25  2  1  0
 22 12  1  0
M  END
>  <Binding energies>  (21) 
[-6.48]

>  <Ligand effiencies>  (21) 
[-0.24923076923076926]

>  <Interactions>  (21) 
["V-B:ASP:366:CG:8183, V-B:TYR:531:CZ:9765, V-B:ASP:366:CB:8182, V-A:ASN:362:C:3171, V-A:TYR:531:CE2:4792, V-A:LEU:363:CA:3184, H-A:TYR:531:OH:4794, V-A:PRO:540:CA:4882, V-A:TYR:531:CZ:4793, V-A:PRO:540:CB:4884, V-A:TYR:539:CE1:4874, H-A:TYR:539:N:4869, V-A:MET:535:CG:4832, V-A:ALA:541:CB:4891, V-B:TYR:531:CE1:9763, V-B:TYR:531:CD1:9761, H-A:TYR:539:OH:4877"]

$$$$
2f_Grossjean_2025
     RDKit          3D

 24 25  0  0  0  0  0  0  0  0999 V2000
  133.4020  124.0250   60.5110 C   0  0  0  0  0  0  0  0  0  0  0  0
  132.6410  122.7430   60.7880 C   0  0  0  0  0  0  0  0  0  0  0  0
  133.1560  121.4970   60.4360 C   0  0  0  0  0  0  0  0  0  0  0  0
  132.4090  120.3400   60.7060 C   0  0  0  0  0  0  0  0  0  0  0  0
  132.9900  118.9730   60.2990 C   0  0  0  0  0  0  0  0  0  0  0  0
  132.2170  118.4040   59.3720 F   0  0  0  0  0  0  0  0  0  0  0  0
  134.2170  119.1310   59.8000 F   0  0  0  0  0  0  0  0  0  0  0  0
  133.0790  118.1220   61.3230 F   0  0  0  0  0  0  0  0  0  0  0  0
  131.1470  120.4800   61.3400 C   0  0  0  0  0  0  0  0  0  0  0  0
  130.3060  119.3070   61.5920 C   0  0  0  0  0  0  0  0  0  0  0  0
  129.6410  118.3800   61.7910 N   0  0  0  0  0  0  0  0  0  0  0  0
  130.7160  121.7830   61.6850 C   0  0  0  0  0  0  0  0  0  0  0  0
  129.1700  122.1430   62.4940 S   0  0  0  0  0  0  0  0  0  0  0  0
  128.2140  123.2620   61.4150 C   0  0  0  0  0  0  0  0  0  0  0  0
  128.1080  122.8190   59.9480 C   0  0  0  0  0  0  0  0  0  0  0  0
  129.0350  122.2170   59.4050 O   0  0  0  0  0  0  0  0  0  0  0  0
  126.9510  123.1640   59.3420 N   0  0  0  0  0  0  0  0  0  0  0  0
  126.5220  122.9120   58.0250 C   0  0  0  0  0  0  0  0  0  0  0  0
  125.2250  123.1450   57.5300 C   0  0  0  0  0  0  0  0  0  0  0  0
  124.9320  122.8550   56.1970 C   0  0  0  0  0  0  0  0  0  0  0  0
  125.9450  122.3410   55.3870 C   0  0  0  0  0  0  0  0  0  0  0  0
  127.2050  122.1150   55.8370 N   0  0  0  0  0  0  0  0  0  0  0  0
  127.4750  122.4030   57.1360 C   0  0  0  0  0  0  0  0  0  0  0  0
  131.4420  122.8910   61.3960 N   0  0  0  0  0  0  0  0  0  0  0  0
  1  2  1  0
  2  3  2  0
  3  4  1  0
  4  5  1  0
  5  6  1  0
  5  7  1  0
  5  8  1  0
  4  9  2  0
  9 10  1  0
 10 11  3  0
  9 12  1  0
 12 13  1  0
 13 14  1  0
 14 15  1  0
 15 16  2  0
 15 17  1  0
 17 18  1  0
 18 19  2  0
 19 20  1  0
 20 21  2  0
 21 22  1  0
 22 23  2  0
 12 24  2  0
 24  2  1  0
 23 18  1  0
M  END
>  <Binding energies>  (22) 
[-7.2]

>  <Ligand effiencies>  (22) 
[-0.28800000000000003]

>  <Interactions>  (22) 
["V-B:TYR:531:CZ:9765, V-B:PRO:540:N:9855, V-B:PRO:540:CB:9856, V-B:TYR:539:CD2:9845, V-B:TYR:539:C:9838, V-B:MET:535:CE:9806, H-B:TYR:539:N:9841, V-B:TYR:531:CE2:9764, V-B:PRO:540:CA:9854, V-B:LEU:363:CD1:8159, V-B:TYR:539:CE2:9847, V-A:LEU:475:CD2:4258, V-B:ILE:538:CB:9833, V-B:ALA:541:CB:9863, V-A:ASP:366:CG:3212, V-A:SER:385:CB:3408, V-B:MET:535:CG:9804, V-B:TYR:539:CA:9840, V-B:TYR:539:CD1:9844, V-A:ILE:369:CG2:3236, V-B:ILE:538:CD1:9836, V-B:TYR:539:CB:9842, V-B:TYR:539:CG:9843, V-B:ILE:538:CG2:9834, V-A:ILE:369:CD1:3238, V-B:ILE:538:CA:9831, V-A:SER:385:CA:3406, V-B:PRO:540:CD:9858, H-B:ALA:541:N:9862, V-B:ILE:538:C:9829, V-A:LEU:373:CD2:3280, V-A:VAL:384:C:3396"]

$$$$
2g_Grossjean_2025
     RDKit          3D

 25 26  0  0  0  0  0  0  0  0999 V2000
  133.5820  123.9800   60.8590 C   0  0  0  0  0  0  0  0  0  0  0  0
  132.8030  122.6920   61.0500 C   0  0  0  0  0  0  0  0  0  0  0  0
  133.2960  121.4680   60.6040 C   0  0  0  0  0  0  0  0  0  0  0  0
  132.5330  120.3060   60.7990 C   0  0  0  0  0  0  0  0  0  0  0  0
  133.0900  118.9620   60.2900 C   0  0  0  0  0  0  0  0  0  0  0  0
  134.3270  119.1240   59.8160 F   0  0  0  0  0  0  0  0  0  0  0  0
  133.1220  118.0790   61.2890 F   0  0  0  0  0  0  0  0  0  0  0  0
  132.3530  118.4360   59.3090 F   0  0  0  0  0  0  0  0  0  0  0  0
  131.2820  120.4180   61.4560 C   0  0  0  0  0  0  0  0  0  0  0  0
  130.4210  119.2450   61.6340 C   0  0  0  0  0  0  0  0  0  0  0  0
  129.7430  118.3180   61.7740 N   0  0  0  0  0  0  0  0  0  0  0  0
  130.8760  121.6990   61.9030 C   0  0  0  0  0  0  0  0  0  0  0  0
  129.3520  122.0140   62.7650 S   0  0  0  0  0  0  0  0  0  0  0  0
  128.6410  123.5490   62.0790 C   0  0  0  0  0  0  0  0  0  0  0  0
  127.2260  123.3990   61.5020 C   0  0  0  0  0  0  0  0  0  0  0  0
  126.2850  123.0170   62.2010 O   0  0  0  0  0  0  0  0  0  0  0  0
  127.0980  123.7060   60.1990 N   0  0  0  0  0  0  0  0  0  0  0  0
  125.8530  123.6500   59.4310 C   0  0  0  0  0  0  0  0  0  0  0  0
  126.0190  123.1530   57.9990 C   0  0  0  0  0  0  0  0  0  0  0  0
  127.2910  122.8270   57.5190 C   0  0  0  0  0  0  0  0  0  0  0  0
  127.4410  122.3370   56.2240 C   0  0  0  0  0  0  0  0  0  0  0  0
  126.3190  122.1660   55.4170 C   0  0  0  0  0  0  0  0  0  0  0  0
  125.0470  122.4770   55.8940 C   0  0  0  0  0  0  0  0  0  0  0  0
  124.8960  122.9660   57.1890 C   0  0  0  0  0  0  0  0  0  0  0  0
  131.6160  122.8150   61.6850 N   0  0  0  0  0  0  0  0  0  0  0  0
  1  2  1  0
  2  3  2  0
  3  4  1  0
  4  5  1  0
  5  6  1  0
  5  7  1  0
  5  8  1  0
  4  9  2  0
  9 10  1  0
 10 11  3  0
  9 12  1  0
 12 13  1  0
 13 14  1  0
 14 15  1  0
 15 16  2  0
 15 17  1  0
 17 18  1  0
 18 19  1  0
 19 20  2  0
 20 21  1  0
 21 22  2  0
 22 23  1  0
 23 24  2  0
 12 25  2  0
 25  2  1  0
 24 19  1  0
M  END
>  <Binding energies>  (23) 
[-7.4]

>  <Ligand effiencies>  (23) 
[-0.2846153846153846]

>  <Interactions>  (23) 
["V-B:PRO:540:N:9855, V-B:PRO:540:CB:9856, V-B:TYR:539:CD2:9845, V-B:TYR:539:C:9838, V-B:MET:535:CE:9806, V-B:TYR:531:CE2:9764, V-B:PRO:540:CA:9854, V-B:LEU:363:CD1:8159, V-B:TYR:539:CE2:9847, V-A:LEU:475:CD2:4258, V-B:ILE:538:CB:9833, V-B:ALA:541:CB:9863, V-A:ASP:366:CG:3212, V-A:SER:385:CB:3408, V-B:TYR:539:CE1:9846, V-B:MET:535:CG:9804, V-B:TYR:539:CA:9840, V-B:TYR:539:CD1:9844, V-A:ILE:369:CG2:3236, V-B:ILE:538:CD1:9836, V-B:TYR:539:CB:9842, V-B:TYR:539:CG:9843, V-B:ILE:538:CG2:9834, V-A:ILE:369:CD1:3238, V-B:ILE:538:CA:9831, V-A:SER:385:CA:3406, V-B:PRO:540:CG:9857, V-B:PRO:540:CD:9858, H-B:ALA:541:N:9862, V-B:ILE:538:C:9829, V-A:LEU:373:CD2:3280, V-A:SER:385:C:3404, V-A:VAL:384:C:3396"]

$$$$
2h_Grossjean_2025
     RDKit          3D

 31 32  0  0  0  0  0  0  0  0999 V2000
  135.7030  124.0570   76.7940 C   0  0  0  0  0  0  0  0  0  0  0  0
  134.3580  124.3930   77.1160 O   0  0  0  0  0  0  0  0  0  0  0  0
  133.6720  125.2860   76.3130 C   0  0  0  0  0  0  0  0  0  0  0  0
  134.2660  126.3920   75.6840 C   0  0  0  0  0  0  0  0  0  0  0  0
  133.5110  127.2440   74.8820 C   0  0  0  0  0  0  0  0  0  0  0  0
  132.1480  127.0130   74.6910 C   0  0  0  0  0  0  0  0  0  0  0  0
  131.3440  127.9500   73.7910 C   0  0  0  0  0  0  0  0  0  0  0  0
  130.0400  127.4130   73.4000 N   0  0  0  0  0  0  0  0  0  0  0  0
  129.3360  127.8080   72.3240 C   0  0  0  0  0  0  0  0  0  0  0  0
  129.6850  128.7350   71.5910 O   0  0  0  0  0  0  0  0  0  0  0  0
  128.0490  127.0170   72.0490 C   0  0  0  0  0  0  0  0  0  0  0  0
  128.0380  126.0860   70.4800 S   0  0  0  0  0  0  0  0  0  0  0  0
  127.4430  127.2000   69.2260 C   0  0  0  0  0  0  0  0  0  0  0  0
  126.1740  127.6270   69.4330 N   0  0  0  0  0  0  0  0  0  0  0  0
  125.6160  128.4630   68.5300 C   0  0  0  0  0  0  0  0  0  0  0  0
  124.1910  128.8940   68.8220 C   0  0  0  0  0  0  0  0  0  0  0  0
  126.2940  128.9080   67.3970 C   0  0  0  0  0  0  0  0  0  0  0  0
  127.6160  128.4930   67.1760 C   0  0  0  0  0  0  0  0  0  0  0  0
  128.3530  129.0020   65.9220 C   0  0  0  0  0  0  0  0  0  0  0  0
  129.2480  128.0990   65.5220 F   0  0  0  0  0  0  0  0  0  0  0  0
  127.5300  129.2310   64.8960 F   0  0  0  0  0  0  0  0  0  0  0  0
  128.9840  130.1450   66.1940 F   0  0  0  0  0  0  0  0  0  0  0  0
  128.2180  127.6210   68.1190 C   0  0  0  0  0  0  0  0  0  0  0  0
  129.6150  127.2050   67.9650 C   0  0  0  0  0  0  0  0  0  0  0  0
  130.7190  126.8810   67.8440 N   0  0  0  0  0  0  0  0  0  0  0  0
  131.5350  125.9260   75.3320 C   0  0  0  0  0  0  0  0  0  0  0  0
  130.1920  125.6940   75.1510 O   0  0  0  0  0  0  0  0  0  0  0  0
  129.8930  124.4820   74.4700 C   0  0  0  0  0  0  0  0  0  0  0  0
  132.3030  125.0560   76.1250 C   0  0  0  0  0  0  0  0  0  0  0  0
  131.7090  123.9800   76.7390 O   0  0  0  0  0  0  0  0  0  0  0  0
  130.9040  124.3210   77.8600 C   0  0  0  0  0  0  0  0  0  0  0  0
  1  2  1  0
  2  3  1  0
  3  4  2  0
  4  5  1  0
  5  6  2  0
  6  7  1  0
  7  8  1  0
  8  9  1  0
  9 10  2  0
  9 11  1  0
 11 12  1  0
 12 13  1  0
 13 14  2  0
 14 15  1  0
 15 16  1  0
 15 17  2  0
 17 18  1  0
 18 19  1  0
 19 20  1  0
 19 21  1  0
 19 22  1  0
 18 23  2  0
 23 24  1  0
 24 25  3  0
  6 26  1  0
 26 27  1  0
 27 28  1  0
 26 29  2  0
 29 30  1  0
 30 31  1  0
 29  3  1  0
 23 13  1  0
M  END
>  <Binding energies>  (24) 
[-6.29]

>  <Ligand effiencies>  (24) 
[-0.1965625]

>  <Interactions>  (24) 
["V-B:GLU:543:CB:9877, V-A:HIS:456:CE1:4069, V-A:HIS:456:C:4060, V-B:ARG:545:CA:9890, V-A:HIS:456:CB:4064, H-A:LYS:471:NZ:4220, V-A:VAL:457:C:4072, V-B:ARG:545:CD:9894, V-B:GLU:543:CD:9879, V-B:HIS:456:CE1:9040, V-A:HIS:456:CG:4065, V-B:ARG:545:CG:9893, V-B:ARG:545:CB:9892, H-B:LYS:547:NZ:9922, V-A:GLU:543:CD:4907, V-A:GLU:543:CG:4906, V-A:GLU:543:CB:4905, H-B:HIS:456:ND1:9037, V-B:LYS:547:CE:9921, V-A:VAL:458:CG2:4086, V-A:LYS:471:CE:4219, V-A:ASP:473:CG:4239, V-A:LYS:471:CD:4218, V-A:VAL:457:CA:4074, V-B:ILE:455:C:9022, V-A:LYS:471:CG:4217, V-A:LYS:471:C:4212, V-A:LYS:471:CB:4216"]

$$$$
2i_Grossjean_2025
     RDKit          3D

 23 24  0  0  0  0  0  0  0  0999 V2000
  133.1560  124.1760   60.3530 C   0  0  0  0  0  0  0  0  0  0  0  0
  132.4660  122.8540   60.6320 C   0  0  0  0  0  0  0  0  0  0  0  0
  133.1030  121.6360   60.4040 C   0  0  0  0  0  0  0  0  0  0  0  0
  132.4230  120.4410   60.6800 C   0  0  0  0  0  0  0  0  0  0  0  0
  133.1420  119.1030   60.4220 C   0  0  0  0  0  0  0  0  0  0  0  0
  134.4170  119.3250   60.0970 F   0  0  0  0  0  0  0  0  0  0  0  0
  133.1000  118.3420   61.5160 F   0  0  0  0  0  0  0  0  0  0  0  0
  132.5910  118.4040   59.4270 F   0  0  0  0  0  0  0  0  0  0  0  0
  131.1000  120.5150   61.1850 C   0  0  0  0  0  0  0  0  0  0  0  0
  130.3440  119.2970   61.4920 C   0  0  0  0  0  0  0  0  0  0  0  0
  129.7470  118.3350   61.7350 N   0  0  0  0  0  0  0  0  0  0  0  0
  130.5300  121.7930   61.3840 C   0  0  0  0  0  0  0  0  0  0  0  0
  128.8700  122.0090   62.0080 S   0  0  0  0  0  0  0  0  0  0  0  0
  128.0450  123.2720   60.9920 C   0  0  0  0  0  0  0  0  0  0  0  0
  127.9740  122.8740   59.5160 C   0  0  0  0  0  0  0  0  0  0  0  0
  129.0020  122.5050   58.9450 O   0  0  0  0  0  0  0  0  0  0  0  0
  126.7600  122.9860   58.9350 N   0  0  0  0  0  0  0  0  0  0  0  0
  126.4460  122.7040   57.6160 C   0  0  0  0  0  0  0  0  0  0  0  0
  125.2760  122.9700   56.8900 C   0  0  0  0  0  0  0  0  0  0  0  0
  125.5250  122.4730   55.6310 C   0  0  0  0  0  0  0  0  0  0  0  0
  126.7740  121.9490   55.6000 O   0  0  0  0  0  0  0  0  0  0  0  0
  127.3460  122.1080   56.8640 N   0  0  0  0  0  0  0  0  0  0  0  0
  131.2060  122.9390   61.1120 N   0  0  0  0  0  0  0  0  0  0  0  0
  1  2  1  0
  2  3  2  0
  3  4  1  0
  4  5  1  0
  5  6  1  0
  5  7  1  0
  5  8  1  0
  4  9  2  0
  9 10  1  0
 10 11  3  0
  9 12  1  0
 12 13  1  0
 13 14  1  0
 14 15  1  0
 15 16  2  0
 15 17  1  0
 17 18  1  0
 18 19  1  0
 19 20  2  0
 20 21  1  0
 21 22  1  0
 12 23  2  0
 23  2  1  0
 22 18  2  0
M  END
>  <Binding energies>  (25) 
[-7.24]

>  <Ligand effiencies>  (25) 
[-0.3016666666666667]

>  <Interactions>  (25) 
["V-B:PRO:540:N:9855, V-B:PRO:540:CB:9856, V-B:TYR:539:CD2:9845, V-B:TYR:539:C:9838, V-B:MET:535:CE:9806, H-B:TYR:539:N:9841, V-B:TYR:531:CE2:9764, V-B:PRO:540:CA:9854, V-B:LEU:363:CD1:8159, V-B:TYR:539:CE2:9847, V-A:LEU:475:CD2:4258, V-B:ALA:541:CB:9863, V-A:ASP:366:CG:3212, V-A:SER:385:CB:3408, V-B:MET:535:CG:9804, V-A:ILE:369:CG2:3236, V-B:ILE:538:CD1:9836, V-B:TYR:539:CB:9842, V-B:TYR:539:CG:9843, V-B:ILE:538:CG2:9834, V-A:ILE:369:CD1:3238, V-B:ILE:538:CA:9831, V-A:SER:385:CA:3406, V-B:PRO:540:CD:9858, H-B:ALA:541:N:9862, V-A:LEU:373:CD2:3280, V-A:SER:385:C:3404, V-A:VAL:384:C:3396"]

$$$$
2k_Grossjean_2025
     RDKit          3D

 28 28  0  0  0  0  0  0  0  0999 V2000
  128.2150  137.9800   61.3740 C   0  0  0  0  0  0  0  0  0  0  0  0
  127.1310  137.1390   61.0140 O   0  0  0  0  0  0  0  0  0  0  0  0
  127.1270  135.8940   61.7020 C   0  0  0  0  0  0  0  0  0  0  0  0
  126.2130  134.9020   60.9720 C   0  0  0  0  0  0  0  0  0  0  0  0
  127.0160  133.9570   60.2800 O   0  0  0  0  0  0  0  0  0  0  0  0
  128.1510  133.5070   61.0110 C   0  0  0  0  0  0  0  0  0  0  0  0
  129.2030  133.0060   60.0130 C   0  0  0  0  0  0  0  0  0  0  0  0
  128.6270  131.9410   59.2720 O   0  0  0  0  0  0  0  0  0  0  0  0
  128.3420  132.2360   57.9130 C   0  0  0  0  0  0  0  0  0  0  0  0
  129.1930  131.3190   57.0140 C   0  0  0  0  0  0  0  0  0  0  0  0
  130.6330  131.5410   57.1710 N   0  0  0  0  0  0  0  0  0  0  0  0
  131.2400  132.7420   57.2190 C   0  0  0  0  0  0  0  0  0  0  0  0
  130.6310  133.8120   57.1630 O   0  0  0  0  0  0  0  0  0  0  0  0
  132.7710  132.7100   57.3280 C   0  0  0  0  0  0  0  0  0  0  0  0
  133.4330  131.8840   58.8160 S   0  0  0  0  0  0  0  0  0  0  0  0
  132.3620  130.5260   59.2670 C   0  0  0  0  0  0  0  0  0  0  0  0
  132.3230  129.4910   58.3900 N   0  0  0  0  0  0  0  0  0  0  0  0
  131.5310  128.4310   58.6650 C   0  0  0  0  0  0  0  0  0  0  0  0
  131.5320  127.3220   57.6300 C   0  0  0  0  0  0  0  0  0  0  0  0
  130.7590  128.3490   59.8210 C   0  0  0  0  0  0  0  0  0  0  0  0
  130.7910  129.4040   60.7460 C   0  0  0  0  0  0  0  0  0  0  0  0
  129.9350  129.2950   62.0230 C   0  0  0  0  0  0  0  0  0  0  0  0
  129.5330  130.4830   62.4780 F   0  0  0  0  0  0  0  0  0  0  0  0
  128.8430  128.5680   61.7800 F   0  0  0  0  0  0  0  0  0  0  0  0
  130.6360  128.7100   62.9940 F   0  0  0  0  0  0  0  0  0  0  0  0
  131.6120  130.5260   60.4670 C   0  0  0  0  0  0  0  0  0  0  0  0
  131.6800  131.6570   61.3970 C   0  0  0  0  0  0  0  0  0  0  0  0
  131.7340  132.5500   62.1320 N   0  0  0  0  0  0  0  0  0  0  0  0
  1  2  1  0
  2  3  1  0
  3  4  1  0
  4  5  1  0
  5  6  1  0
  6  7  1  0
  7  8  1  0
  8  9  1  0
  9 10  1  0
 10 11  1  0
 11 12  1  0
 12 13  2  0
 12 14  1  0
 14 15  1  0
 15 16  1  0
 16 17  2  0
 17 18  1  0
 18 19  1  0
 18 20  2  0
 20 21  1  0
 21 22  1  0
 22 23  1  0
 22 24  1  0
 22 25  1  0
 21 26  2  0
 26 27  1  0
 27 28  3  0
 26 16  1  0
M  END
>  <Binding energies>  (26) 
[-5.01]

>  <Ligand effiencies>  (26) 
[-0.17275862068965517]

>  <Interactions>  (26) 
["V-A:ASP:366:CG:3212, V-A:GLU:543:CD:4907, V-A:ASP:366:CB:3211, V-A:TYR:531:CE2:4792, H-A:TYR:531:OH:4794, V-A:LEU:363:CD1:3188, V-A:PRO:540:CA:4882, V-A:TYR:531:CZ:4793, V-A:TYR:539:CD1:4872, V-A:PRO:540:N:4883, V-A:PRO:540:CB:4884, V-A:TYR:539:C:4866, V-A:TYR:539:CE1:4874, H-A:TYR:539:N:4869, H-A:ALA:541:N:4890, V-A:TYR:539:CA:4868, V-A:TYR:539:CB:4870, H-B:SER:385:OG:8380, H-B:HIS:383:NE2:8364, V-B:PRO:482:CB:9296, V-B:PRO:482:CG:9297, V-B:PRO:482:CD:9298"]

$$$$
3aa_Grossjean_2025
     RDKit          3D

 34 36  0  0  0  0  0  0  0  0999 V2000
  123.6980  124.7490   57.6730 C   0  0  0  0  0  0  0  0  0  0  0  0
  124.8890  123.9150   58.1560 C   0  0  0  0  0  0  0  0  0  0  0  0
  125.8760  123.8630   57.1330 O   0  0  0  0  0  0  0  0  0  0  0  0
  126.8120  122.8790   57.1160 C   0  0  0  0  0  0  0  0  0  0  0  0
  126.6760  121.8210   56.4930 O   0  0  0  0  0  0  0  0  0  0  0  0
  128.0240  123.1980   57.9430 C   0  0  0  0  0  0  0  0  0  0  0  0
  128.9570  124.1700   57.5510 C   0  0  0  0  0  0  0  0  0  0  0  0
  130.0680  124.4440   58.3440 C   0  0  0  0  0  0  0  0  0  0  0  0
  130.2660  123.7600   59.5450 C   0  0  0  0  0  0  0  0  0  0  0  0
  131.4190  124.1160   60.2730 N   0  0  0  0  0  0  0  0  0  0  0  0
  132.7000  124.2250   59.8580 C   0  0  0  0  0  0  0  0  0  0  0  0
  133.1030  123.9980   58.7160 O   0  0  0  0  0  0  0  0  0  0  0  0
  133.7050  124.6570   60.9260 C   0  0  0  0  0  0  0  0  0  0  0  0
  133.9930  123.3450   62.1520 S   0  0  0  0  0  0  0  0  0  0  0  0
  132.4270  122.5550   62.4480 C   0  0  0  0  0  0  0  0  0  0  0  0
  132.2890  121.3670   61.8120 N   0  0  0  0  0  0  0  0  0  0  0  0
  131.1380  120.6590   61.9510 C   0  0  0  0  0  0  0  0  0  0  0  0
  131.0680  119.3480   61.2280 C   0  0  0  0  0  0  0  0  0  0  0  0
  130.0300  118.4400   61.4930 C   0  0  0  0  0  0  0  0  0  0  0  0
  129.9580  117.2200   60.8250 C   0  0  0  0  0  0  0  0  0  0  0  0
  130.9250  116.8920   59.8810 C   0  0  0  0  0  0  0  0  0  0  0  0
  131.9620  117.7750   59.5990 C   0  0  0  0  0  0  0  0  0  0  0  0
  132.0300  118.9950   60.2670 C   0  0  0  0  0  0  0  0  0  0  0  0
  130.0940  121.1350   62.7500 C   0  0  0  0  0  0  0  0  0  0  0  0
  130.2060  122.3720   63.4040 C   0  0  0  0  0  0  0  0  0  0  0  0
  129.0290  122.8670   64.2650 C   0  0  0  0  0  0  0  0  0  0  0  0
  127.9170  122.1530   64.0820 F   0  0  0  0  0  0  0  0  0  0  0  0
  129.3420  122.7920   65.5590 F   0  0  0  0  0  0  0  0  0  0  0  0
  128.7470  124.1350   63.9620 F   0  0  0  0  0  0  0  0  0  0  0  0
  131.4010  123.1140   63.2420 C   0  0  0  0  0  0  0  0  0  0  0  0
  131.5520  124.4370   63.8550 C   0  0  0  0  0  0  0  0  0  0  0  0
  131.6710  125.4830   64.3380 N   0  0  0  0  0  0  0  0  0  0  0  0
  129.3440  122.7780   59.9370 C   0  0  0  0  0  0  0  0  0  0  0  0
  128.2360  122.5040   59.1420 C   0  0  0  0  0  0  0  0  0  0  0  0
  1  2  1  0
  2  3  1  0
  3  4  1  0
  4  5  2  0
  4  6  1  0
  6  7  2  0
  7  8  1  0
  8  9  2  0
  9 10  1  0
 10 11  1  0
 11 12  2  0
 11 13  1  0
 13 14  1  0
 14 15  1  0
 15 16  2  0
 16 17  1  0
 17 18  1  0
 18 19  2  0
 19 20  1  0
 20 21  2  0
 21 22  1  0
 22 23  2  0
 17 24  2  0
 24 25  1  0
 25 26  1  0
 26 27  1  0
 26 28  1  0
 26 29  1  0
 25 30  2  0
 30 31  1  0
 31 32  3  0
  9 33  1  0
 33 34  2  0
 34  6  1  0
 30 15  1  0
 23 18  1  0
M  END
>  <Binding energies>  (27) 
[-8.61]

>  <Ligand effiencies>  (27) 
[-0.246]

>  <Interactions>  (27) 
["V-B:GLU:543:CD:9879, V-B:TYR:531:CZ:9765, V-B:ASP:366:CB:8182, V-B:PRO:540:N:9855, V-A:TYR:484:CZ:4346, V-B:LEU:363:CA:8155, H-B:TYR:531:OH:9766, V-B:PRO:540:CB:9856, V-B:TYR:539:CD2:9845, V-B:TYR:539:C:9838, V-B:MET:535:CE:9806, H-B:TYR:539:N:9841, V-B:TYR:531:CE2:9764, V-B:PRO:540:CA:9854, V-B:LEU:363:CD1:8159, V-B:TYR:539:CE2:9847, V-A:LEU:475:CD2:4258, V-A:PRO:482:CG:4326, V-B:ALA:541:CB:9863, H-B:TYR:539:OH:9849, V-B:TYR:539:CZ:9848, V-A:ASP:366:CG:3212, V-B:VAL:344:CG1:7971, V-B:TYR:539:CB:9842, V-B:TYR:539:CG:9843, V-A:ILE:369:CD1:3238, V-A:HIS:383:CE1:3393, V-A:PRO:482:CB:4325, V-A:ASP:366:CB:3211, V-B:ALA:541:C:9859, V-B:GLU:543:CG:9878, V-A:TYR:484:CE2:4345, V-B:ALA:541:CA:9861, V-A:LEU:475:CD1:4257"]

$$$$
3ad_Grossjean_2025
     RDKit          3D

 29 31  0  0  0  0  0  0  0  0999 V2000
  124.1820  131.8590   56.1100 N   0  0  0  0  0  0  0  0  0  0  0  0
  125.0890  131.1490   56.2210 C   0  0  0  0  0  0  0  0  0  0  0  0
  126.2350  130.2460   56.3640 C   0  0  0  0  0  0  0  0  0  0  0  0
  126.0920  128.9880   56.9970 C   0  0  0  0  0  0  0  0  0  0  0  0
  124.7410  128.4720   57.5280 C   0  0  0  0  0  0  0  0  0  0  0  0
  123.7580  128.5780   56.6320 F   0  0  0  0  0  0  0  0  0  0  0  0
  124.8450  127.1840   57.8620 F   0  0  0  0  0  0  0  0  0  0  0  0
  124.3750  129.1690   58.6050 F   0  0  0  0  0  0  0  0  0  0  0  0
  127.2300  128.1820   57.1510 C   0  0  0  0  0  0  0  0  0  0  0  0
  128.4760  128.6200   56.6880 C   0  0  0  0  0  0  0  0  0  0  0  0
  129.7260  127.8060   56.8390 C   0  0  0  0  0  0  0  0  0  0  0  0
  130.5150  127.9120   57.9950 C   0  0  0  0  0  0  0  0  0  0  0  0
  131.6760  127.1580   58.1420 C   0  0  0  0  0  0  0  0  0  0  0  0
  132.0650  126.2840   57.1310 C   0  0  0  0  0  0  0  0  0  0  0  0
  131.2990  126.1590   55.9770 C   0  0  0  0  0  0  0  0  0  0  0  0
  130.1380  126.9140   55.8340 C   0  0  0  0  0  0  0  0  0  0  0  0
  128.6090  129.8300   56.0870 N   0  0  0  0  0  0  0  0  0  0  0  0
  127.5210  130.6160   55.9090 C   0  0  0  0  0  0  0  0  0  0  0  0
  127.8800  132.1560   55.0940 S   0  0  0  0  0  0  0  0  0  0  0  0
  129.6810  132.2390   54.8660 C   0  0  0  0  0  0  0  0  0  0  0  0
  130.4100  132.6220   56.1560 C   0  0  0  0  0  0  0  0  0  0  0  0
  130.6310  133.8110   56.3880 O   0  0  0  0  0  0  0  0  0  0  0  0
  130.7590  131.5900   56.9530 N   0  0  0  0  0  0  0  0  0  0  0  0
  131.4180  131.5940   58.1960 C   0  0  0  0  0  0  0  0  0  0  0  0
  132.7550  131.1860   58.1750 C   0  0  0  0  0  0  0  0  0  0  0  0
  133.4980  131.1490   59.3520 C   0  0  0  0  0  0  0  0  0  0  0  0
  132.9030  131.5170   60.5550 C   0  0  0  0  0  0  0  0  0  0  0  0
  131.5700  131.9180   60.5920 C   0  0  0  0  0  0  0  0  0  0  0  0
  130.8230  131.9560   59.4170 C   0  0  0  0  0  0  0  0  0  0  0  0
  1  2  3  0
  2  3  1  0
  3  4  2  0
  4  5  1  0
  5  6  1  0
  5  7  1  0
  5  8  1  0
  4  9  1  0
  9 10  2  0
 10 11  1  0
 11 12  2  0
 12 13  1  0
 13 14  2  0
 14 15  1  0
 15 16  2  0
 10 17  1  0
 17 18  2  0
 18 19  1  0
 19 20  1  0
 20 21  1  0
 21 22  2  0
 21 23  1  0
 23 24  1  0
 24 25  2  0
 25 26  1  0
 26 27  2  0
 27 28  1  0
 28 29  2  0
 18  3  1  0
 29 24  1  0
 16 11  1  0
M  END
>  <Binding energies>  (28) 
[-7.55]

>  <Ligand effiencies>  (28) 
[-0.25166666666666665]

>  <Interactions>  (28) 
["V-B:ASP:366:CG:8183, V-B:TYR:531:CZ:9765, V-B:ASP:366:CB:8182, V-B:MET:535:CE:9806, V-A:ASP:366:CG:3212, V-A:ASP:366:CB:3211, V-A:ASN:362:C:3171, V-A:TYR:531:CE2:4792, V-A:LEU:363:CA:3184, H-A:TYR:531:OH:4794, V-A:PRO:540:CA:4882, V-A:TYR:531:CZ:4793, V-A:PRO:540:CB:4884, V-A:TYR:539:CE1:4874, H-A:TYR:539:N:4869, V-A:MET:535:CG:4832, V-A:MET:535:CE:4834, V-A:TYR:531:CE1:4791, V-A:MET:535:CB:4831, V-B:ASP:366:CA:8180, V-A:TYR:539:CZ:4876, V-B:TYR:531:CE1:9763, V-B:ASP:366:C:8178, V-B:TYR:531:CD1:9761, H-A:TYR:539:OH:4877"]

$$$$
3ai_Grossjean_2025
     RDKit          3D

 28 30  0  0  0  0  0  0  0  0999 V2000
  129.9830  125.8430   64.0080 N   0  0  0  0  0  0  0  0  0  0  0  0
  130.2510  124.8130   63.5550 C   0  0  0  0  0  0  0  0  0  0  0  0
  130.5920  123.5070   62.9810 C   0  0  0  0  0  0  0  0  0  0  0  0
  131.9340  123.0540   62.9590 C   0  0  0  0  0  0  0  0  0  0  0  0
  133.0960  123.8650   63.5650 C   0  0  0  0  0  0  0  0  0  0  0  0
  133.1000  125.1400   63.1670 F   0  0  0  0  0  0  0  0  0  0  0  0
  133.0090  123.8590   64.8960 F   0  0  0  0  0  0  0  0  0  0  0  0
  134.2640  123.3330   63.2050 F   0  0  0  0  0  0  0  0  0  0  0  0
  132.2150  121.8190   62.3550 C   0  0  0  0  0  0  0  0  0  0  0  0
  131.1870  121.0590   61.7880 C   0  0  0  0  0  0  0  0  0  0  0  0
  131.4310  119.7390   61.1210 C   0  0  0  0  0  0  0  0  0  0  0  0
  130.5450  118.6660   61.3110 C   0  0  0  0  0  0  0  0  0  0  0  0
  130.7630  117.4380   60.6910 C   0  0  0  0  0  0  0  0  0  0  0  0
  131.8720  117.2670   59.8690 C   0  0  0  0  0  0  0  0  0  0  0  0
  132.7640  118.3150   59.6630 C   0  0  0  0  0  0  0  0  0  0  0  0
  132.5430  119.5410   60.2840 C   0  0  0  0  0  0  0  0  0  0  0  0
  129.9040  121.5010   61.8040 N   0  0  0  0  0  0  0  0  0  0  0  0
  129.6040  122.6790   62.4020 C   0  0  0  0  0  0  0  0  0  0  0  0
  127.8710  123.0830   62.3450 S   0  0  0  0  0  0  0  0  0  0  0  0
  127.5930  124.1550   60.8940 C   0  0  0  0  0  0  0  0  0  0  0  0
  127.6680  123.4420   59.5360 C   0  0  0  0  0  0  0  0  0  0  0  0
  128.7240  122.9380   59.1460 O   0  0  0  0  0  0  0  0  0  0  0  0
  126.5070  123.4260   58.8430 N   0  0  0  0  0  0  0  0  0  0  0  0
  126.2780  122.8510   57.5990 C   0  0  0  0  0  0  0  0  0  0  0  0
  125.0700  122.9720   56.9150 C   0  0  0  0  0  0  0  0  0  0  0  0
  125.2480  122.2700   55.7450 C   0  0  0  0  0  0  0  0  0  0  0  0
  126.5000  121.7530   55.7250 O   0  0  0  0  0  0  0  0  0  0  0  0
  127.1430  122.1300   56.9050 N   0  0  0  0  0  0  0  0  0  0  0  0
  1  2  3  0
  2  3  1  0
  3  4  2  0
  4  5  1  0
  5  6  1  0
  5  7  1  0
  5  8  1  0
  4  9  1  0
  9 10  2  0
 10 11  1  0
 11 12  2  0
 12 13  1  0
 13 14  2  0
 14 15  1  0
 15 16  2  0
 10 17  1  0
 17 18  2  0
 18 19  1  0
 19 20  1  0
 20 21  1  0
 21 22  2  0
 21 23  1  0
 23 24  1  0
 24 25  1  0
 25 26  2  0
 26 27  1  0
 27 28  1  0
 18  3  1  0
 28 24  2  0
 16 11  1  0
M  END
>  <Binding energies>  (29) 
[-8.53]

>  <Ligand effiencies>  (29) 
[-0.2941379310344827]

>  <Interactions>  (29) 
["V-B:PRO:540:N:9855, V-A:TYR:484:CZ:4346, V-B:PRO:540:CB:9856, V-B:TYR:539:CD2:9845, V-B:TYR:539:C:9838, H-B:TYR:539:N:9841, V-B:TYR:531:CE2:9764, V-B:PRO:540:CA:9854, V-B:LEU:363:CD1:8159, V-B:TYR:539:CE2:9847, V-A:LEU:475:CD2:4258, V-B:ILE:538:CB:9833, V-B:ALA:541:CB:9863, V-A:ASP:366:CG:3212, V-B:ILE:538:CD1:9836, V-B:TYR:539:CB:9842, V-B:ILE:538:CG2:9834, V-A:ILE:369:CD1:3238, V-A:HIS:383:CE1:3393, V-B:ILE:538:CA:9831, V-A:GLY:454:CA:4048, V-B:PRO:540:CD:9858, H-B:ALA:541:N:9862, V-A:GLY:453:C:4041"]

$$$$
3aj_Grossjean_2025
     RDKit          3D

 28 30  0  0  0  0  0  0  0  0999 V2000
  132.5570  122.0540   64.4210 N   0  0  0  0  0  0  0  0  0  0  0  0
  131.7640  122.2360   63.5990 C   0  0  0  0  0  0  0  0  0  0  0  0
  130.7570  122.4690   62.5600 C   0  0  0  0  0  0  0  0  0  0  0  0
  129.4090  122.7350   62.9040 C   0  0  0  0  0  0  0  0  0  0  0  0
  128.9290  122.8390   64.3650 C   0  0  0  0  0  0  0  0  0  0  0  0
  129.3260  121.8080   65.1150 F   0  0  0  0  0  0  0  0  0  0  0  0
  129.4070  123.9510   64.9240 F   0  0  0  0  0  0  0  0  0  0  0  0
  127.5970  122.8720   64.4070 F   0  0  0  0  0  0  0  0  0  0  0  0
  128.4740  122.9030   61.8710 C   0  0  0  0  0  0  0  0  0  0  0  0
  128.8710  122.8040   60.5340 C   0  0  0  0  0  0  0  0  0  0  0  0
  127.9130  122.9650   59.3940 C   0  0  0  0  0  0  0  0  0  0  0  0
  128.2390  122.4960   58.1120 C   0  0  0  0  0  0  0  0  0  0  0  0
  127.3510  122.6380   57.0480 C   0  0  0  0  0  0  0  0  0  0  0  0
  126.1220  123.2560   57.2540 C   0  0  0  0  0  0  0  0  0  0  0  0
  125.7740  123.7290   58.5150 C   0  0  0  0  0  0  0  0  0  0  0  0
  126.6640  123.5820   59.5760 C   0  0  0  0  0  0  0  0  0  0  0  0
  130.1630  122.5420   60.2090 N   0  0  0  0  0  0  0  0  0  0  0  0
  131.0890  122.3990   61.1870 C   0  0  0  0  0  0  0  0  0  0  0  0
  132.7290  122.0830   60.5720 S   0  0  0  0  0  0  0  0  0  0  0  0
  133.5030  123.6910   60.1900 C   0  0  0  0  0  0  0  0  0  0  0  0
  132.9230  124.4170   58.9670 C   0  0  0  0  0  0  0  0  0  0  0  0
  133.6330  124.6760   57.9920 O   0  0  0  0  0  0  0  0  0  0  0  0
  131.6110  124.7280   59.0640 N   0  0  0  0  0  0  0  0  0  0  0  0
  130.8390  125.3740   58.1080 C   0  0  0  0  0  0  0  0  0  0  0  0
  129.5280  125.3890   58.0040 N   0  0  0  0  0  0  0  0  0  0  0  0
  129.1300  126.1090   56.9740 C   0  0  0  0  0  0  0  0  0  0  0  0
  130.1350  126.7000   56.2120 C   0  0  0  0  0  0  0  0  0  0  0  0
  131.6790  126.2800   56.8900 S   0  0  0  0  0  0  0  0  0  0  0  0
  1  2  3  0
  2  3  1  0
  3  4  2  0
  4  5  1  0
  5  6  1  0
  5  7  1  0
  5  8  1  0
  4  9  1  0
  9 10  2  0
 10 11  1  0
 11 12  2  0
 12 13  1  0
 13 14  2  0
 14 15  1  0
 15 16  2  0
 10 17  1  0
 17 18  2  0
 18 19  1  0
 19 20  1  0
 20 21  1  0
 21 22  2  0
 21 23  1  0
 23 24  1  0
 24 25  2  0
 25 26  1  0
 26 27  2  0
 27 28  1  0
 18  3  1  0
 28 24  1  0
 16 11  1  0
M  END
>  <Binding energies>  (30) 
[-7.0]

>  <Ligand effiencies>  (30) 
[-0.2413793103448276]

>  <Interactions>  (30) 
["V-B:GLU:543:CD:9879, V-B:PRO:540:N:9855, V-B:PRO:540:CB:9856, V-B:TYR:539:CD2:9845, V-B:TYR:539:C:9838, V-B:MET:535:CE:9806, V-B:PRO:540:CA:9854, V-B:TYR:539:CE2:9847, V-A:ILE:369:CB:3235, V-A:LEU:475:CD2:4258, V-B:ALA:541:CB:9863, H-B:TYR:539:OH:9849, V-B:TYR:539:CZ:9848, V-A:ASP:366:CG:3212, V-A:ILE:369:CG2:3236, V-B:TYR:539:CG:9843, V-A:ILE:369:CD1:3238, V-A:ASP:366:CB:3211, V-B:ALA:541:C:9859, H-A:TYR:484:OH:4347, V-B:GLU:543:CG:9878, V-A:TYR:531:CE1:4791, V-A:TYR:484:CE2:4345, V-B:ALA:541:CA:9861, V-A:LEU:475:CD1:4257"]

$$$$
3ak_Grossjean_2025
     RDKit          3D

 33 34  0  0  0  0  0  0  0  0999 V2000
  129.9490  126.1730   56.8680 C   0  0  0  0  0  0  0  0  0  0  0  0
  131.0640  126.6900   56.1580 O   0  0  0  0  0  0  0  0  0  0  0  0
  132.2880  126.5790   56.8710 C   0  0  0  0  0  0  0  0  0  0  0  0
  132.0920  125.6240   58.0550 C   0  0  0  0  0  0  0  0  0  0  0  0
  133.1320  124.6510   58.0420 O   0  0  0  0  0  0  0  0  0  0  0  0
  133.5030  124.1310   59.3160 C   0  0  0  0  0  0  0  0  0  0  0  0
  132.3080  123.8760   60.2530 C   0  0  0  0  0  0  0  0  0  0  0  0
  132.5120  122.6540   60.9490 O   0  0  0  0  0  0  0  0  0  0  0  0
  133.8390  122.4790   61.4300 C   0  0  0  0  0  0  0  0  0  0  0  0
  133.9680  123.0530   62.8520 C   0  0  0  0  0  0  0  0  0  0  0  0
  132.6930  123.4880   63.4260 N   0  0  0  0  0  0  0  0  0  0  0  0
  132.5370  124.4090   64.3970 C   0  0  0  0  0  0  0  0  0  0  0  0
  133.4850  125.0090   64.9050 O   0  0  0  0  0  0  0  0  0  0  0  0
  131.1170  124.7260   64.8960 C   0  0  0  0  0  0  0  0  0  0  0  0
  129.9220  123.3390   64.8980 S   0  0  0  0  0  0  0  0  0  0  0  0
  129.7000  122.7720   63.2190 C   0  0  0  0  0  0  0  0  0  0  0  0
  130.2720  121.5790   62.9220 N   0  0  0  0  0  0  0  0  0  0  0  0
  130.1640  121.0670   61.6700 C   0  0  0  0  0  0  0  0  0  0  0  0
  130.8260  119.7440   61.4300 C   0  0  0  0  0  0  0  0  0  0  0  0
  132.1300  119.6760   60.9160 C   0  0  0  0  0  0  0  0  0  0  0  0
  132.7520  118.4500   60.6950 C   0  0  0  0  0  0  0  0  0  0  0  0
  132.0750  117.2710   60.9880 C   0  0  0  0  0  0  0  0  0  0  0  0
  130.7840  117.3090   61.5010 C   0  0  0  0  0  0  0  0  0  0  0  0
  130.1660  118.5370   61.7220 C   0  0  0  0  0  0  0  0  0  0  0  0
  129.4510  121.7480   60.6760 C   0  0  0  0  0  0  0  0  0  0  0  0
  128.8480  122.9830   60.9570 C   0  0  0  0  0  0  0  0  0  0  0  0
  128.0740  123.7030   59.8360 C   0  0  0  0  0  0  0  0  0  0  0  0
  128.6610  124.8650   59.5500 F   0  0  0  0  0  0  0  0  0  0  0  0
  128.0510  122.9480   58.7370 F   0  0  0  0  0  0  0  0  0  0  0  0
  126.8070  123.9650   60.1670 F   0  0  0  0  0  0  0  0  0  0  0  0
  128.9740  123.5150   62.2630 C   0  0  0  0  0  0  0  0  0  0  0  0
  128.3650  124.8020   62.6130 C   0  0  0  0  0  0  0  0  0  0  0  0
  127.8850  125.8190   62.8900 N   0  0  0  0  0  0  0  0  0  0  0  0
  1  2  1  0
  2  3  1  0
  3  4  1  0
  4  5  1  0
  5  6  1  0
  6  7  1  0
  7  8  1  0
  8  9  1  0
  9 10  1  0
 10 11  1  0
 11 12  1  0
 12 13  2  0
 12 14  1  0
 14 15  1  0
 15 16  1  0
 16 17  2  0
 17 18  1  0
 18 19  1  0
 19 20  2  0
 20 21  1  0
 21 22  2  0
 22 23  1  0
 23 24  2  0
 18 25  2  0
 25 26  1  0
 26 27  1  0
 27 28  1  0
 27 29  1  0
 27 30  1  0
 26 31  2  0
 31 32  1  0
 32 33  3  0
 31 16  1  0
 24 19  1  0
M  END
>  <Binding energies>  (31) 
[-7.36]

>  <Ligand effiencies>  (31) 
[-0.21647058823529414]

>  <Interactions>  (31) 
["V-B:GLU:543:CD:9879, V-B:PRO:540:N:9855, V-B:TYR:539:CD2:9845, V-B:TYR:539:C:9838, V-B:MET:535:CE:9806, V-B:PRO:540:CA:9854, V-B:TYR:539:CE2:9847, V-A:ILE:369:CB:3235, V-A:LEU:475:CD2:4258, V-A:PRO:482:CG:4326, V-B:ALA:541:CB:9863, H-B:TYR:539:OH:9849, V-B:TYR:539:CZ:9848, V-A:ASP:366:CG:3212, V-A:SER:385:CB:3408, V-A:ILE:369:CG2:3236, V-A:ILE:369:CD1:3238, V-A:HIS:383:CE1:3393, V-A:PRO:482:CB:4325, V-A:ASP:366:CB:3211, V-A:GLY:454:CA:4048, V-A:SER:385:CA:3406, H-A:TYR:484:OH:4347, H-A:GLY:454:N:4049, H-A:TYR:531:OH:4794, V-A:TYR:531:CZ:4793, V-A:ASP:366:C:3207, V-A:TYR:531:CE1:4791, V-A:ASP:366:CA:3209"]

$$$$
3bk_Grossjean_2025
     RDKit          3D

 30 31  0  0  0  0  0  0  0  0999 V2000
  124.3780  123.9610   57.8210 C   0  0  0  0  0  0  0  0  0  0  0  0
  124.8600  123.6700   56.5180 O   0  0  0  0  0  0  0  0  0  0  0  0
  125.1770  122.2980   56.3250 C   0  0  0  0  0  0  0  0  0  0  0  0
  126.3780  122.1750   55.3770 C   0  0  0  0  0  0  0  0  0  0  0  0
  127.5650  122.0080   56.1390 O   0  0  0  0  0  0  0  0  0  0  0  0
  127.3970  122.2650   57.5270 C   0  0  0  0  0  0  0  0  0  0  0  0
  128.0430  123.6120   57.8730 C   0  0  0  0  0  0  0  0  0  0  0  0
  129.3520  123.3910   58.3820 O   0  0  0  0  0  0  0  0  0  0  0  0
  129.3820  123.0400   59.7590 C   0  0  0  0  0  0  0  0  0  0  0  0
  129.5730  124.3080   60.6050 C   0  0  0  0  0  0  0  0  0  0  0  0
  129.2660  124.0860   62.0190 N   0  0  0  0  0  0  0  0  0  0  0  0
  128.3470  123.2270   62.4930 C   0  0  0  0  0  0  0  0  0  0  0  0
  127.6560  122.5010   61.7760 O   0  0  0  0  0  0  0  0  0  0  0  0
  128.1980  123.1580   64.0140 C   0  0  0  0  0  0  0  0  0  0  0  0
  129.6430  122.3820   64.8050 S   0  0  0  0  0  0  0  0  0  0  0  0
  130.9940  122.3460   63.6390 C   0  0  0  0  0  0  0  0  0  0  0  0
  131.0530  121.2550   62.8340 N   0  0  0  0  0  0  0  0  0  0  0  0
  132.0500  121.1400   61.9170 C   0  0  0  0  0  0  0  0  0  0  0  0
  132.0290  119.9150   61.0540 C   0  0  0  0  0  0  0  0  0  0  0  0
  133.0830  119.6430   60.1670 C   0  0  0  0  0  0  0  0  0  0  0  0
  133.0650  118.5090   59.3590 C   0  0  0  0  0  0  0  0  0  0  0  0
  131.9910  117.6280   59.4270 C   0  0  0  0  0  0  0  0  0  0  0  0
  130.9360  117.8720   60.3000 C   0  0  0  0  0  0  0  0  0  0  0  0
  130.9570  119.0060   61.1080 C   0  0  0  0  0  0  0  0  0  0  0  0
  133.0210  122.1390   61.7840 C   0  0  0  0  0  0  0  0  0  0  0  0
  132.9770  123.2690   62.6080 C   0  0  0  0  0  0  0  0  0  0  0  0
  134.0570  124.3350   62.4300 C   0  0  0  0  0  0  0  0  0  0  0  0
  131.9440  123.3870   63.5610 C   0  0  0  0  0  0  0  0  0  0  0  0
  131.8700  124.5610   64.4360 C   0  0  0  0  0  0  0  0  0  0  0  0
  131.8120  125.4880   65.1260 N   0  0  0  0  0  0  0  0  0  0  0  0
  1  2  1  0
  2  3  1  0
  3  4  1  0
  4  5  1  0
  5  6  1  0
  6  7  1  0
  7  8  1  0
  8  9  1  0
  9 10  1  0
 10 11  1  0
 11 12  1  0
 12 13  2  0
 12 14  1  0
 14 15  1  0
 15 16  1  0
 16 17  2  0
 17 18  1  0
 18 19  1  0
 19 20  2  0
 20 21  1  0
 21 22  2  0
 22 23  1  0
 23 24  2  0
 18 25  2  0
 25 26  1  0
 26 27  1  0
 26 28  2  0
 28 29  1  0
 29 30  3  0
 28 16  1  0
 24 19  1  0
M  END
>  <Binding energies>  (32) 
[-8.05]

>  <Ligand effiencies>  (32) 
[-0.25967741935483873]

>  <Interactions>  (32) 
["V-B:GLU:543:CD:9879, V-B:PRO:540:N:9855, H-B:TYR:531:OH:9766, V-B:PRO:540:CB:9856, V-B:TYR:539:CD2:9845, V-B:TYR:539:C:9838, V-B:MET:535:CE:9806, H-B:TYR:539:N:9841, V-B:TYR:531:CE2:9764, V-B:PRO:540:CA:9854, V-B:LEU:363:CD1:8159, V-B:TYR:539:CE2:9847, V-A:LEU:475:CD2:4258, V-B:ALA:541:CB:9863, H-B:TYR:539:OH:9849, V-A:ASP:366:CG:3212, V-B:MET:535:CG:9804, V-B:TYR:539:CA:9840, V-A:ILE:369:CG2:3236, V-B:ILE:538:CD1:9836, V-B:TYR:539:CB:9842, V-B:TYR:539:CG:9843, V-B:ILE:538:CG2:9834, V-A:ILE:369:CD1:3238, V-A:HIS:383:CE1:3393, V-B:ILE:538:CA:9831, V-A:SER:385:CA:3406, H-A:TYR:484:OH:4347, V-B:GLU:543:CG:9878, V-B:PRO:540:CD:9858, H-B:ALA:541:N:9862, V-B:ILE:538:C:9829, V-A:LEU:373:CG:3278, V-A:LEU:373:CD2:3280"]

$$$$
3cb_Grossjean_2025
     RDKit          3D

 30 32  0  0  0  0  0  0  0  0999 V2000
  124.1750  131.7790   63.4450 C   0  0  0  0  0  0  0  0  0  0  0  0
  124.4870  131.2590   64.7290 O   0  0  0  0  0  0  0  0  0  0  0  0
  124.1220  129.9990   65.0810 C   0  0  0  0  0  0  0  0  0  0  0  0
  123.1930  129.3860   64.5470 O   0  0  0  0  0  0  0  0  0  0  0  0
  124.9610  129.4260   66.1870 C   0  0  0  0  0  0  0  0  0  0  0  0
  126.3210  129.1310   66.0130 C   0  0  0  0  0  0  0  0  0  0  0  0
  127.0700  128.6030   67.0600 C   0  0  0  0  0  0  0  0  0  0  0  0
  126.4790  128.3530   68.2990 C   0  0  0  0  0  0  0  0  0  0  0  0
  127.3300  127.8210   69.2880 N   0  0  0  0  0  0  0  0  0  0  0  0
  127.0960  126.8630   70.2110 C   0  0  0  0  0  0  0  0  0  0  0  0
  126.0370  126.2470   70.3350 O   0  0  0  0  0  0  0  0  0  0  0  0
  128.2890  126.5590   71.1310 C   0  0  0  0  0  0  0  0  0  0  0  0
  127.9240  126.6390   72.9180 S   0  0  0  0  0  0  0  0  0  0  0  0
  129.3620  126.0600   73.7940 C   0  0  0  0  0  0  0  0  0  0  0  0
  129.3160  124.7380   74.0910 N   0  0  0  0  0  0  0  0  0  0  0  0
  130.3550  124.1870   74.7560 C   0  0  0  0  0  0  0  0  0  0  0  0
  130.2420  122.7020   75.0440 C   0  0  0  0  0  0  0  0  0  0  0  0
  131.4680  124.9230   75.1520 C   0  0  0  0  0  0  0  0  0  0  0  0
  131.5300  126.2940   74.8700 C   0  0  0  0  0  0  0  0  0  0  0  0
  132.7430  127.0430   75.3210 C   0  0  0  0  0  0  0  0  0  0  0  0
  133.8810  127.0950   74.5070 C   0  0  0  0  0  0  0  0  0  0  0  0
  135.0120  127.7990   74.9130 C   0  0  0  0  0  0  0  0  0  0  0  0
  135.0080  128.4590   76.1390 C   0  0  0  0  0  0  0  0  0  0  0  0
  133.8830  128.4240   76.9580 C   0  0  0  0  0  0  0  0  0  0  0  0
  132.7530  127.7210   76.5480 C   0  0  0  0  0  0  0  0  0  0  0  0
  130.4410  126.8910   74.1840 C   0  0  0  0  0  0  0  0  0  0  0  0
  130.4100  128.3370   73.9450 C   0  0  0  0  0  0  0  0  0  0  0  0
  130.3860  129.4790   73.7560 N   0  0  0  0  0  0  0  0  0  0  0  0
  125.1200  128.6490   68.4830 C   0  0  0  0  0  0  0  0  0  0  0  0
  124.3710  129.1780   67.4350 C   0  0  0  0  0  0  0  0  0  0  0  0
  1  2  1  0
  2  3  1  0
  3  4  2  0
  3  5  1  0
  5  6  2  0
  6  7  1  0
  7  8  2  0
  8  9  1  0
  9 10  1  0
 10 11  2  0
 10 12  1  0
 12 13  1  0
 13 14  1  0
 14 15  2  0
 15 16  1  0
 16 17  1  0
 16 18  2  0
 18 19  1  0
 19 20  1  0
 20 21  2  0
 21 22  1  0
 22 23  2  0
 23 24  1  0
 24 25  2  0
 19 26  2  0
 26 27  1  0
 27 28  3  0
  8 29  1  0
 29 30  2  0
 30  5  1  0
 26 14  1  0
 25 20  1  0
M  END
>  <Binding energies>  (33) 
[-8.6]

>  <Ligand effiencies>  (33) 
[-0.27741935483870966]

>  <Interactions>  (33) 
["V-B:GLU:543:CB:9877, V-A:HIS:456:CE1:4069, V-B:GLU:543:C:9873, V-A:HIS:456:CA:4062, V-A:HIS:456:CB:4064, V-A:VAL:457:C:4072, V-B:ARG:545:CD:9894, V-B:GLU:543:CD:9879, V-B:HIS:456:CE1:9040, V-A:HIS:456:CG:4065, V-B:ARG:545:CG:9893, V-B:ARG:545:CZ:9897, H-B:LYS:547:NZ:9922, V-B:GLY:454:CA:9019, H-B:TYR:484:OH:9318, H-B:GLY:454:N:9020, H-B:ARG:545:NH2:9899, H-B:ARG:545:NE:9895, H-B:ARG:545:NH1:9898, V-A:LYS:547:CD:4948, V-A:VAL:458:CG2:4086, V-A:LYS:547:CE:4949, H-A:LYS:547:NZ:4950, H-B:ARG:545:N:9891, V-A:LYS:547:CB:4946, V-A:LYS:547:CG:4947, V-A:ARG:545:C:4916, H-B:GLY:544:N:9886"]

$$$$
3ch_Grossjean_2025
     RDKit          3D

 32 34  0  0  0  0  0  0  0  0999 V2000
  134.1540  124.3570   62.2370 C   0  0  0  0  0  0  0  0  0  0  0  0
  134.1600  124.7810   63.5960 O   0  0  0  0  0  0  0  0  0  0  0  0
  132.9990  125.2780   64.1610 C   0  0  0  0  0  0  0  0  0  0  0  0
  131.7430  125.2450   63.5330 C   0  0  0  0  0  0  0  0  0  0  0  0
  130.6060  125.7600   64.1720 C   0  0  0  0  0  0  0  0  0  0  0  0
  129.3080  125.7660   63.6270 N   0  0  0  0  0  0  0  0  0  0  0  0
  128.9030  126.0460   62.3680 C   0  0  0  0  0  0  0  0  0  0  0  0
  129.6400  126.3470   61.4300 O   0  0  0  0  0  0  0  0  0  0  0  0
  127.3990  125.9280   62.1190 C   0  0  0  0  0  0  0  0  0  0  0  0
  126.8310  124.2020   62.1540 S   0  0  0  0  0  0  0  0  0  0  0  0
  128.1960  123.2450   62.7770 C   0  0  0  0  0  0  0  0  0  0  0  0
  128.3070  123.2610   64.1290 N   0  0  0  0  0  0  0  0  0  0  0  0
  129.3180  122.5700   64.7020 C   0  0  0  0  0  0  0  0  0  0  0  0
  129.3860  122.6340   66.2160 C   0  0  0  0  0  0  0  0  0  0  0  0
  130.2480  121.8460   63.9610 C   0  0  0  0  0  0  0  0  0  0  0  0
  130.1460  121.8110   62.5630 C   0  0  0  0  0  0  0  0  0  0  0  0
  131.1730  121.0300   61.8080 C   0  0  0  0  0  0  0  0  0  0  0  0
  130.8950  119.7230   61.3910 C   0  0  0  0  0  0  0  0  0  0  0  0
  131.8490  118.9860   60.6940 C   0  0  0  0  0  0  0  0  0  0  0  0
  133.0900  119.5540   60.4150 C   0  0  0  0  0  0  0  0  0  0  0  0
  133.3840  120.8500   60.8290 C   0  0  0  0  0  0  0  0  0  0  0  0
  132.4270  121.5840   61.5260 C   0  0  0  0  0  0  0  0  0  0  0  0
  129.0790  122.5150   61.9470 C   0  0  0  0  0  0  0  0  0  0  0  0
  128.8690  122.4370   60.4990 C   0  0  0  0  0  0  0  0  0  0  0  0
  128.7030  122.3770   59.3550 N   0  0  0  0  0  0  0  0  0  0  0  0
  130.7380  126.3290   65.4400 C   0  0  0  0  0  0  0  0  0  0  0  0
  131.9820  126.3770   66.0870 C   0  0  0  0  0  0  0  0  0  0  0  0
  132.1790  126.9200   67.3450 O   0  0  0  0  0  0  0  0  0  0  0  0
  131.0580  127.3770   68.0940 C   0  0  0  0  0  0  0  0  0  0  0  0
  133.1050  125.8500   65.4360 C   0  0  0  0  0  0  0  0  0  0  0  0
  134.3270  125.8740   66.0660 O   0  0  0  0  0  0  0  0  0  0  0  0
  134.3070  125.3550   67.3890 C   0  0  0  0  0  0  0  0  0  0  0  0
  1  2  1  0
  2  3  1  0
  3  4  2  0
  4  5  1  0
  5  6  1  0
  6  7  1  0
  7  8  2  0
  7  9  1  0
  9 10  1  0
 10 11  1  0
 11 12  2  0
 12 13  1  0
 13 14  1  0
 13 15  2  0
 15 16  1  0
 16 17  1  0
 17 18  2  0
 18 19  1  0
 19 20  2  0
 20 21  1  0
 21 22  2  0
 16 23  2  0
 23 24  1  0
 24 25  3  0
  5 26  2  0
 26 27  1  0
 27 28  1  0
 28 29  1  0
 27 30  2  0
 30 31  1  0
 31 32  1  0
 30  3  1  0
 23 11  1  0
 22 17  1  0
M  END
>  <Binding energies>  (34) 
[-7.7]

>  <Ligand effiencies>  (34) 
[-0.23333333333333334]

>  <Interactions>  (34) 
["V-B:GLU:543:CB:9877, V-A:HIS:456:CE1:4069, V-B:GLU:543:CD:9879, V-A:ARG:545:CZ:4925, V-A:TYR:484:CZ:4346, V-A:ARG:545:CD:4922, V-B:TYR:539:CD2:9845, V-B:TYR:539:C:9838, V-B:PRO:540:CA:9854, V-A:ARG:545:CG:4921, V-B:TYR:539:CE2:9847, V-A:LEU:475:CD2:4258, V-B:ALA:541:CB:9863, V-A:ASP:366:CG:3212, H-B:GLU:543:OE2:9881, V-A:ILE:369:CG2:3236, V-A:ILE:369:CD1:3238, V-A:GLU:543:CD:4907, H-B:GLU:543:OE1:9880, V-A:GLY:454:CA:4048, V-A:SER:385:CA:3406, V-A:GLU:543:CB:4905, H-A:TYR:484:OH:4347, H-A:GLY:454:N:4049, V-B:GLU:543:CG:9878, V-A:TYR:484:CE2:4345, H-A:ARG:545:NH1:4926, V-A:LEU:475:CD1:4257, H-A:ARG:545:NE:4923, V-A:TYR:484:CD2:4343, V-A:ILE:455:C:4051"]

$$$$
3ci_Grossjean_2025
     RDKit          3D

 25 27  0  0  0  0  0  0  0  0999 V2000
  134.7210  124.3620   62.8360 C   0  0  0  0  0  0  0  0  0  0  0  0
  133.3570  123.7990   62.4810 C   0  0  0  0  0  0  0  0  0  0  0  0
  133.1940  122.4790   62.0730 C   0  0  0  0  0  0  0  0  0  0  0  0
  131.9120  122.0000   61.7720 C   0  0  0  0  0  0  0  0  0  0  0  0
  131.7830  120.5720   61.3530 C   0  0  0  0  0  0  0  0  0  0  0  0
  132.7550  119.9730   60.5410 C   0  0  0  0  0  0  0  0  0  0  0  0
  132.6260  118.6440   60.1460 C   0  0  0  0  0  0  0  0  0  0  0  0
  131.5180  117.9090   60.5570 C   0  0  0  0  0  0  0  0  0  0  0  0
  130.5380  118.4910   61.3570 C   0  0  0  0  0  0  0  0  0  0  0  0
  130.6710  119.8200   61.7500 C   0  0  0  0  0  0  0  0  0  0  0  0
  130.8150  122.8930   61.8840 C   0  0  0  0  0  0  0  0  0  0  0  0
  129.4560  122.4610   61.5410 C   0  0  0  0  0  0  0  0  0  0  0  0
  128.3840  122.1180   61.2710 N   0  0  0  0  0  0  0  0  0  0  0  0
  131.0690  124.2190   62.3120 C   0  0  0  0  0  0  0  0  0  0  0  0
  129.7600  125.4210   62.5090 S   0  0  0  0  0  0  0  0  0  0  0  0
  130.0160  126.3500   64.0560 C   0  0  0  0  0  0  0  0  0  0  0  0
  131.0280  125.6920   65.0010 C   0  0  0  0  0  0  0  0  0  0  0  0
  130.8510  124.5240   65.3530 O   0  0  0  0  0  0  0  0  0  0  0  0
  132.0570  126.4740   65.3950 N   0  0  0  0  0  0  0  0  0  0  0  0
  133.1170  126.1180   66.2180 C   0  0  0  0  0  0  0  0  0  0  0  0
  133.0940  126.2860   67.6020 C   0  0  0  0  0  0  0  0  0  0  0  0
  134.3140  125.8210   68.0390 C   0  0  0  0  0  0  0  0  0  0  0  0
  135.0320  125.3930   66.9730 O   0  0  0  0  0  0  0  0  0  0  0  0
  134.2630  125.5880   65.8240 N   0  0  0  0  0  0  0  0  0  0  0  0
  132.3210  124.6590   62.5970 N   0  0  0  0  0  0  0  0  0  0  0  0
  1  2  1  0
  2  3  2  0
  3  4  1  0
  4  5  1  0
  5  6  2  0
  6  7  1  0
  7  8  2  0
  8  9  1  0
  9 10  2  0
  4 11  2  0
 11 12  1  0
 12 13  3  0
 11 14  1  0
 14 15  1  0
 15 16  1  0
 16 17  1  0
 17 18  2  0
 17 19  1  0
 19 20  1  0
 20 21  1  0
 21 22  2  0
 22 23  1  0
 23 24  1  0
 14 25  2  0
 25  2  1  0
 10  5  1  0
 24 20  2  0
M  END
>  <Binding energies>  (35) 
[-8.5]

>  <Ligand effiencies>  (35) 
[-0.3269230769230769]

>  <Interactions>  (35) 
["V-A:HIS:456:CE1:4069, V-A:HIS:456:CD2:4067, V-A:ARG:545:CZ:4925, V-A:TYR:484:CZ:4346, V-A:ARG:545:CD:4922, V-B:TYR:539:CD2:9845, V-A:ARG:545:CG:4921, V-B:TYR:539:CE2:9847, V-A:LEU:475:CD2:4258, V-B:ALA:541:CB:9863, V-A:ASP:366:CG:3212, V-A:ILE:369:CG2:3236, V-A:ILE:369:CD1:3238, V-A:HIS:383:CE1:3393, V-A:GLU:543:CD:4907, V-A:GLY:454:CA:4048, V-A:SER:385:CA:3406, H-A:TYR:484:OH:4347, H-A:GLY:454:N:4049, H-B:ALA:541:N:9862, H-A:GLU:543:OE2:4909, V-A:GLY:453:C:4041, H-A:GLU:543:OE1:4908, H-A:ARG:545:NH1:4926, H-A:ARG:545:NE:4923, V-A:ARG:545:CB:4920, V-A:ILE:455:C:4051, V-A:GLY:453:CA:4043, H-A:ILE:455:N:4054"]

$$$$
3ck_Grossjean_2025
     RDKit          3D

 30 31  0  0  0  0  0  0  0  0999 V2000
  125.4550  122.1490   55.8150 C   0  0  0  0  0  0  0  0  0  0  0  0
  126.8450  121.8650   55.8430 O   0  0  0  0  0  0  0  0  0  0  0  0
  127.5260  122.4770   56.9300 C   0  0  0  0  0  0  0  0  0  0  0  0
  126.5100  122.9070   57.9950 C   0  0  0  0  0  0  0  0  0  0  0  0
  127.1740  123.0570   59.2440 O   0  0  0  0  0  0  0  0  0  0  0  0
  128.4820  123.6040   59.1400 C   0  0  0  0  0  0  0  0  0  0  0  0
  129.4290  122.8130   60.0510 C   0  0  0  0  0  0  0  0  0  0  0  0
  129.4530  123.4400   61.3250 O   0  0  0  0  0  0  0  0  0  0  0  0
  128.7660  122.7360   62.3480 C   0  0  0  0  0  0  0  0  0  0  0  0
  129.0290  123.4140   63.7060 C   0  0  0  0  0  0  0  0  0  0  0  0
  130.1210  124.3910   63.6760 N   0  0  0  0  0  0  0  0  0  0  0  0
  130.7510  124.8960   64.7520 C   0  0  0  0  0  0  0  0  0  0  0  0
  130.4860  124.5620   65.9090 O   0  0  0  0  0  0  0  0  0  0  0  0
  131.8470  125.9310   64.4520 C   0  0  0  0  0  0  0  0  0  0  0  0
  133.4460  125.2410   63.9020 S   0  0  0  0  0  0  0  0  0  0  0  0
  133.1680  124.1580   62.5080 C   0  0  0  0  0  0  0  0  0  0  0  0
  133.3270  124.7250   61.2860 N   0  0  0  0  0  0  0  0  0  0  0  0
  133.1280  123.9650   60.1860 C   0  0  0  0  0  0  0  0  0  0  0  0
  133.3220  124.6670   58.8560 C   0  0  0  0  0  0  0  0  0  0  0  0
  132.7650  122.6220   60.2570 C   0  0  0  0  0  0  0  0  0  0  0  0
  132.5890  122.0180   61.5090 C   0  0  0  0  0  0  0  0  0  0  0  0
  132.1760  120.5830   61.5370 C   0  0  0  0  0  0  0  0  0  0  0  0
  133.1250  119.5740   61.3300 C   0  0  0  0  0  0  0  0  0  0  0  0
  132.7450  118.2330   61.3450 C   0  0  0  0  0  0  0  0  0  0  0  0
  131.4120  117.8980   61.5600 C   0  0  0  0  0  0  0  0  0  0  0  0
  130.4550  118.8900   61.7590 C   0  0  0  0  0  0  0  0  0  0  0  0
  130.8370  120.2280   61.7440 C   0  0  0  0  0  0  0  0  0  0  0  0
  132.8060  122.8010   62.6720 C   0  0  0  0  0  0  0  0  0  0  0  0
  132.6770  122.2100   64.0090 C   0  0  0  0  0  0  0  0  0  0  0  0
  132.5760  121.7440   65.0630 N   0  0  0  0  0  0  0  0  0  0  0  0
  1  2  1  0
  2  3  1  0
  3  4  1  0
  4  5  1  0
  5  6  1  0
  6  7  1  0
  7  8  1  0
  8  9  1  0
  9 10  1  0
 10 11  1  0
 11 12  1  0
 12 13  2  0
 12 14  1  0
 14 15  1  0
 15 16  1  0
 16 17  2  0
 17 18  1  0
 18 19  1  0
 18 20  2  0
 20 21  1  0
 21 22  1  0
 22 23  2  0
 23 24  1  0
 24 25  2  0
 25 26  1  0
 26 27  2  0
 21 28  2  0
 28 29  1  0
 29 30  3  0
 28 16  1  0
 27 22  1  0
M  END
>  <Binding energies>  (36) 
[-7.25]

>  <Ligand effiencies>  (36) 
[-0.23387096774193547]

>  <Interactions>  (36) 
["V-B:GLU:543:CD:9879, V-B:PRO:540:N:9855, V-B:PRO:540:CB:9856, V-B:TYR:539:CD2:9845, V-B:TYR:539:C:9838, V-B:MET:535:CE:9806, H-B:TYR:539:N:9841, V-B:TYR:531:CE2:9764, V-B:PRO:540:CA:9854, V-B:LEU:363:CD1:8159, V-B:TYR:539:CE2:9847, V-A:ILE:369:CB:3235, V-A:LEU:475:CD2:4258, V-B:ILE:538:CB:9833, V-B:ALA:541:CB:9863, V-A:ASP:366:CG:3212, V-A:SER:385:CB:3408, V-B:TYR:539:CE1:9846, V-B:TYR:539:CA:9840, V-B:TYR:539:CD1:9844, V-A:ILE:369:CG2:3236, V-B:ILE:538:CD1:9836, V-B:TYR:539:CG:9843, V-B:ILE:538:CG2:9834, V-A:ILE:369:CD1:3238, V-A:PRO:482:CB:4325, V-B:ILE:538:CA:9831, V-A:ASP:366:CB:3211, V-A:GLY:454:CA:4048, V-A:SER:385:CA:3406, H-A:TYR:484:OH:4347, H-A:GLY:454:N:4049, V-B:PRO:540:CD:9858, V-B:ILE:538:C:9829, H-A:ARG:545:NH2:4927, V-A:ASP:366:CA:3209"]

$$$$
4aa_Grossjean_2025
     RDKit          3D

 26 28  0  0  0  0  0  0  0  0999 V2000
  124.0400  124.7010   57.6910 C   0  0  0  0  0  0  0  0  0  0  0  0
  124.6600  123.3070   57.5520 C   0  0  0  0  0  0  0  0  0  0  0  0
  125.5430  123.2920   56.4380 O   0  0  0  0  0  0  0  0  0  0  0  0
  126.7760  122.7300   56.5270 C   0  0  0  0  0  0  0  0  0  0  0  0
  127.1810  121.8500   55.7600 O   0  0  0  0  0  0  0  0  0  0  0  0
  127.5980  123.2820   57.6560 C   0  0  0  0  0  0  0  0  0  0  0  0
  127.8750  122.4690   58.7630 C   0  0  0  0  0  0  0  0  0  0  0  0
  128.6300  122.9530   59.8270 C   0  0  0  0  0  0  0  0  0  0  0  0
  129.1320  124.2550   59.8030 C   0  0  0  0  0  0  0  0  0  0  0  0
  129.8750  124.6440   60.9350 N   0  0  0  0  0  0  0  0  0  0  0  0
  130.4970  125.8160   61.2100 C   0  0  0  0  0  0  0  0  0  0  0  0
  130.5440  126.7730   60.4370 O   0  0  0  0  0  0  0  0  0  0  0  0
  131.1570  125.8810   62.5150 C   0  0  0  0  0  0  0  0  0  0  0  0
  132.8210  125.3210   62.7000 S   0  0  0  0  0  0  0  0  0  0  0  0
  132.8010  125.6780   64.4120 C   0  0  0  0  0  0  0  0  0  0  0  0
  133.8610  125.4570   65.1910 N   0  0  0  0  0  0  0  0  0  0  0  0
  133.7110  125.7740   66.5010 C   0  0  0  0  0  0  0  0  0  0  0  0
  134.9270  125.5100   67.3720 C   0  0  0  0  0  0  0  0  0  0  0  0
  132.5420  126.3020   67.0430 C   0  0  0  0  0  0  0  0  0  0  0  0
  131.4330  126.5340   66.2220 C   0  0  0  0  0  0  0  0  0  0  0  0
  130.1780  127.1130   66.8590 C   0  0  0  0  0  0  0  0  0  0  0  0
  131.5490  126.2110   64.8430 C   0  0  0  0  0  0  0  0  0  0  0  0
  130.6280  126.3120   63.7420 C   0  0  0  0  0  0  0  0  0  0  0  0
  129.3520  126.7930   63.8980 N   0  0  0  0  0  0  0  0  0  0  0  0
  128.8560  125.0790   58.7030 C   0  0  0  0  0  0  0  0  0  0  0  0
  128.0970  124.5940   57.6400 C   0  0  0  0  0  0  0  0  0  0  0  0
  1  2  1  0
  2  3  1  0
  3  4  1  0
  4  5  2  0
  4  6  1  0
  6  7  2  0
  7  8  1  0
  8  9  2  0
  9 10  1  0
 10 11  1  0
 11 12  2  0
 11 13  1  0
 13 14  1  0
 14 15  1  0
 15 16  2  0
 16 17  1  0
 17 18  1  0
 17 19  2  0
 19 20  1  0
 20 21  1  0
 20 22  2  0
 22 23  1  0
 23 24  1  0
  9 25  1  0
 25 26  2  0
 26  6  1  0
 23 13  2  0
 22 15  1  0
M  END
>  <Binding energies>  (37) 
[-8.26]

>  <Ligand effiencies>  (37) 
[-0.2848275862068965]

>  <Interactions>  (37) 
["V-A:HIS:456:CE1:4069, V-B:GLU:543:CD:9879, V-B:TYR:531:CZ:9765, V-A:ARG:545:CZ:4925, V-B:ASP:366:CB:8182, V-B:PRO:540:N:9855, H-B:TYR:531:OH:9766, V-A:ARG:545:CD:4922, V-B:PRO:540:CB:9856, V-B:TYR:539:CD2:9845, V-B:TYR:539:C:9838, V-B:MET:535:CE:9806, H-B:TYR:539:N:9841, V-B:TYR:531:CE2:9764, V-B:PRO:540:CA:9854, V-B:LEU:363:CD1:8159, V-A:ARG:545:CG:4921, V-B:TYR:539:CE2:9847, V-A:ASP:366:CG:3212, H-B:GLU:543:OE2:9881, V-A:GLU:543:CD:4907, H-B:GLU:543:OE1:9880, V-A:GLY:454:CA:4048, H-A:TYR:484:OH:4347, H-A:GLY:454:N:4049, H-A:ARG:545:NH2:4927, V-A:GLY:453:C:4041, H-A:ARG:545:NH1:4926, H-A:ARG:545:NE:4923, V-A:ILE:455:C:4051, V-A:GLY:453:CA:4043, V-A:GLY:454:C:4046"]

$$$$
4ab_Grossjean_2025
     RDKit          3D

 25 27  0  0  0  0  0  0  0  0999 V2000
  124.8520  123.5620   57.3910 C   0  0  0  0  0  0  0  0  0  0  0  0
  125.7360  123.3530   56.2990 O   0  0  0  0  0  0  0  0  0  0  0  0
  126.9180  122.7080   56.4710 C   0  0  0  0  0  0  0  0  0  0  0  0
  127.2830  121.7570   55.7710 O   0  0  0  0  0  0  0  0  0  0  0  0
  127.7360  123.2600   57.6020 C   0  0  0  0  0  0  0  0  0  0  0  0
  127.7880  122.5590   58.8140 C   0  0  0  0  0  0  0  0  0  0  0  0
  128.5370  123.0460   59.8830 C   0  0  0  0  0  0  0  0  0  0  0  0
  129.2530  124.2360   59.7600 C   0  0  0  0  0  0  0  0  0  0  0  0
  129.9680  124.6390   60.9040 N   0  0  0  0  0  0  0  0  0  0  0  0
  130.4730  125.8520   61.2360 C   0  0  0  0  0  0  0  0  0  0  0  0
  130.4110  126.8490   60.5160 O   0  0  0  0  0  0  0  0  0  0  0  0
  131.1430  125.9140   62.5360 C   0  0  0  0  0  0  0  0  0  0  0  0
  132.8030  125.3380   62.7110 S   0  0  0  0  0  0  0  0  0  0  0  0
  132.7990  125.7010   64.4220 C   0  0  0  0  0  0  0  0  0  0  0  0
  133.8610  125.4710   65.1950 N   0  0  0  0  0  0  0  0  0  0  0  0
  133.7260  125.7950   66.5040 C   0  0  0  0  0  0  0  0  0  0  0  0
  134.9440  125.5200   67.3670 C   0  0  0  0  0  0  0  0  0  0  0  0
  132.5680  126.3410   67.0520 C   0  0  0  0  0  0  0  0  0  0  0  0
  131.4550  126.5810   66.2380 C   0  0  0  0  0  0  0  0  0  0  0  0
  130.2130  127.1770   66.8830 C   0  0  0  0  0  0  0  0  0  0  0  0
  131.5570  126.2500   64.8590 C   0  0  0  0  0  0  0  0  0  0  0  0
  130.6290  126.3550   63.7650 C   0  0  0  0  0  0  0  0  0  0  0  0
  129.3590  126.8490   63.9280 N   0  0  0  0  0  0  0  0  0  0  0  0
  129.2030  124.9490   58.5520 C   0  0  0  0  0  0  0  0  0  0  0  0
  128.4520  124.4610   57.4850 C   0  0  0  0  0  0  0  0  0  0  0  0
  1  2  1  0
  2  3  1  0
  3  4  2  0
  3  5  1  0
  5  6  2  0
  6  7  1  0
  7  8  2  0
  8  9  1  0
  9 10  1  0
 10 11  2  0
 10 12  1  0
 12 13  1  0
 13 14  1  0
 14 15  2  0
 15 16  1  0
 16 17  1  0
 16 18  2  0
 18 19  1  0
 19 20  1  0
 19 21  2  0
 21 22  1  0
 22 23  1  0
  8 24  1  0
 24 25  2  0
 25  5  1  0
 22 12  2  0
 21 14  1  0
M  END
>  <Binding energies>  (38) 
[-8.0]

>  <Ligand effiencies>  (38) 
[-0.2857142857142857]

>  <Interactions>  (38) 
["V-A:HIS:456:CE1:4069, V-B:GLU:543:CD:9879, V-A:ARG:545:CZ:4925, V-B:PRO:540:N:9855, H-B:TYR:531:OH:9766, V-A:ARG:545:CD:4922, V-B:PRO:540:CB:9856, V-B:TYR:539:CD2:9845, V-B:TYR:539:C:9838, V-B:MET:535:CE:9806, H-B:TYR:539:N:9841, V-B:TYR:531:CE2:9764, V-B:PRO:540:CA:9854, V-B:LEU:363:CD1:8159, V-A:ARG:545:CG:4921, V-B:TYR:539:CE2:9847, V-A:ASP:366:CG:3212, H-B:GLU:543:OE2:9881, V-A:GLU:543:CD:4907, H-B:GLU:543:OE1:9880, V-A:GLY:454:CA:4048, H-A:TYR:484:OH:4347, H-A:GLY:454:N:4049, H-A:ARG:545:NH2:4927, V-A:GLY:453:C:4041, H-A:ARG:545:NH1:4926, H-A:ARG:545:NE:4923, V-A:ILE:455:C:4051, V-A:GLY:453:CA:4043, V-A:GLY:454:C:4046"]

$$$$
4ac_Grossjean_2025
     RDKit          3D

 23 25  0  0  0  0  0  0  0  0999 V2000
  133.6710  125.8880   66.7520 C   0  0  0  0  0  0  0  0  0  0  0  0
  133.9300  125.4810   65.4130 O   0  0  0  0  0  0  0  0  0  0  0  0
  132.8690  125.1990   64.5760 C   0  0  0  0  0  0  0  0  0  0  0  0
  133.1880  124.7060   63.3110 C   0  0  0  0  0  0  0  0  0  0  0  0
  132.1840  124.3930   62.3980 C   0  0  0  0  0  0  0  0  0  0  0  0
  130.8430  124.5610   62.7440 C   0  0  0  0  0  0  0  0  0  0  0  0
  129.8990  124.2310   61.7540 N   0  0  0  0  0  0  0  0  0  0  0  0
  128.6010  123.8710   61.8930 C   0  0  0  0  0  0  0  0  0  0  0  0
  128.0350  123.7390   62.9800 O   0  0  0  0  0  0  0  0  0  0  0  0
  127.8790  123.6270   60.6410 C   0  0  0  0  0  0  0  0  0  0  0  0
  128.7010  122.8880   59.2670 S   0  0  0  0  0  0  0  0  0  0  0  0
  127.2490  122.9650   58.2950 C   0  0  0  0  0  0  0  0  0  0  0  0
  127.2150  122.5210   57.0390 N   0  0  0  0  0  0  0  0  0  0  0  0
  126.0280  122.6390   56.3970 C   0  0  0  0  0  0  0  0  0  0  0  0
  126.0100  122.1260   54.9690 C   0  0  0  0  0  0  0  0  0  0  0  0
  124.8850  123.1880   56.9760 C   0  0  0  0  0  0  0  0  0  0  0  0
  124.9240  123.6550   58.2950 C   0  0  0  0  0  0  0  0  0  0  0  0
  123.6510  124.2460   58.8820 C   0  0  0  0  0  0  0  0  0  0  0  0
  126.1520  123.5450   59.0000 C   0  0  0  0  0  0  0  0  0  0  0  0
  126.5380  123.9110   60.3370 C   0  0  0  0  0  0  0  0  0  0  0  0
  125.6600  124.4880   61.2200 N   0  0  0  0  0  0  0  0  0  0  0  0
  130.5140  125.0690   64.0100 C   0  0  0  0  0  0  0  0  0  0  0  0
  131.5200  125.3810   64.9200 C   0  0  0  0  0  0  0  0  0  0  0  0
  1  2  1  0
  2  3  1  0
  3  4  2  0
  4  5  1  0
  5  6  2  0
  6  7  1  0
  7  8  1  0
  8  9  2  0
  8 10  1  0
 10 11  1  0
 11 12  1  0
 12 13  2  0
 13 14  1  0
 14 15  1  0
 14 16  2  0
 16 17  1  0
 17 18  1  0
 17 19  2  0
 19 20  1  0
 20 21  1  0
  6 22  1  0
 22 23  2  0
 23  3  1  0
 20 10  2  0
 19 12  1  0
M  END
>  <Binding energies>  (39) 
[-7.37]

>  <Ligand effiencies>  (39) 
[-0.2834615384615385]

>  <Interactions>  (39) 
["V-B:ASP:366:CG:8183, V-B:TYR:531:CZ:9765, V-A:ARG:545:CZ:4925, V-B:ASP:366:CB:8182, V-B:PRO:540:N:9855, V-B:LEU:363:CA:8155, V-A:ARG:545:CD:4922, V-B:PRO:540:CB:9856, V-B:TYR:539:CD2:9845, V-B:TYR:539:C:9838, V-B:MET:535:CE:9806, H-B:TYR:539:N:9841, V-B:TYR:531:CE2:9764, V-B:PRO:540:CA:9854, V-B:LEU:363:CD1:8159, V-A:ARG:545:CG:4921, V-B:TYR:539:CE2:9847, V-B:ILE:538:CB:9833, V-B:MET:535:CG:9804, V-B:ILE:538:CD1:9836, V-B:ILE:538:CG2:9834, V-B:ILE:538:CA:9831, H-B:GLU:543:OE1:9880, H-A:TYR:484:OH:4347, H-A:GLY:454:N:4049, H-B:ASP:366:OD1:8184, V-B:PRO:540:CD:9858, V-B:ILE:538:C:9829, H-A:ARG:545:NE:4923, V-B:ILE:538:CG1:9835"]

$$$$
4ad_Grossjean_2025
     RDKit          3D

 21 23  0  0  0  0  0  0  0  0999 V2000
  126.1010  122.1330   54.6710 C   0  0  0  0  0  0  0  0  0  0  0  0
  126.0090  122.5940   56.1140 C   0  0  0  0  0  0  0  0  0  0  0  0
  124.8560  123.2090   56.5980 C   0  0  0  0  0  0  0  0  0  0  0  0
  124.7940  123.6280   57.9330 C   0  0  0  0  0  0  0  0  0  0  0  0
  123.5160  124.2970   58.4150 C   0  0  0  0  0  0  0  0  0  0  0  0
  125.9330  123.4020   58.7520 C   0  0  0  0  0  0  0  0  0  0  0  0
  126.2090  123.6960   60.1330 C   0  0  0  0  0  0  0  0  0  0  0  0
  125.2880  124.3060   60.9480 N   0  0  0  0  0  0  0  0  0  0  0  0
  127.4880  123.3020   60.5560 C   0  0  0  0  0  0  0  0  0  0  0  0
  128.1000  123.4600   61.8770 C   0  0  0  0  0  0  0  0  0  0  0  0
  127.5900  122.9390   62.8710 O   0  0  0  0  0  0  0  0  0  0  0  0
  129.2400  124.1930   61.9050 N   0  0  0  0  0  0  0  0  0  0  0  0
  130.0390  124.5640   63.0040 C   0  0  0  0  0  0  0  0  0  0  0  0
  130.9310  123.5910   63.4670 C   0  0  0  0  0  0  0  0  0  0  0  0
  131.7720  123.8650   64.5420 C   0  0  0  0  0  0  0  0  0  0  0  0
  131.7280  125.1160   65.1510 C   0  0  0  0  0  0  0  0  0  0  0  0
  130.8540  126.0980   64.6910 C   0  0  0  0  0  0  0  0  0  0  0  0
  130.0110  125.8270   63.6170 C   0  0  0  0  0  0  0  0  0  0  0  0
  128.3890  122.5460   59.2410 S   0  0  0  0  0  0  0  0  0  0  0  0
  127.0510  122.7630   58.1350 C   0  0  0  0  0  0  0  0  0  0  0  0
  127.1120  122.3630   56.8640 N   0  0  0  0  0  0  0  0  0  0  0  0
  1  2  1  0
  2  3  2  0
  3  4  1  0
  4  5  1  0
  4  6  2  0
  6  7  1  0
  7  8  1  0
  7  9  2  0
  9 10  1  0
 10 11  2  0
 10 12  1  0
 12 13  1  0
 13 14  2  0
 14 15  1  0
 15 16  2  0
 16 17  1  0
 17 18  2  0
  9 19  1  0
 19 20  1  0
 20 21  2  0
 21  2  1  0
 20  6  1  0
 18 13  1  0
M  END
>  <Binding energies>  (40) 
[-6.94]

>  <Ligand effiencies>  (40) 
[-0.2891666666666667]

>  <Interactions>  (40) 
["V-B:ASP:366:CG:8183, V-B:LEU:363:CB:8157, V-B:TYR:531:CZ:9765, V-B:ASP:366:CB:8182, V-B:PRO:540:N:9855, V-B:LEU:363:CA:8155, V-B:PRO:540:CB:9856, V-B:TYR:539:CD2:9845, V-B:TYR:539:C:9838, V-B:MET:535:CE:9806, H-B:TYR:539:N:9841, V-B:TYR:531:CE2:9764, V-B:PRO:540:CA:9854, V-B:LEU:363:CD1:8159, V-B:TYR:539:CE2:9847, V-B:ILE:538:CB:9833, V-B:MET:535:CG:9804, V-B:ILE:538:CD1:9836, V-B:ILE:538:CG2:9834, V-B:ILE:538:CA:9831, H-B:ASP:366:OD1:8184, H-B:ALA:541:N:9862, V-B:ILE:538:C:9829, V-B:ILE:538:CG1:9835, V-B:VAL:537:C:9821"]

$$$$
4ae_Grossjean_2025
     RDKit          3D

 22 24  0  0  0  0  0  0  0  0999 V2000
  121.5100  131.5170   62.4960 C   0  0  0  0  0  0  0  0  0  0  0  0
  122.8230  130.7630   62.4330 C   0  0  0  0  0  0  0  0  0  0  0  0
  123.4740  130.5270   61.2190 C   0  0  0  0  0  0  0  0  0  0  0  0
  124.6760  129.8190   61.2380 C   0  0  0  0  0  0  0  0  0  0  0  0
  125.1920  129.3670   62.4550 C   0  0  0  0  0  0  0  0  0  0  0  0
  124.4940  129.6450   63.6340 C   0  0  0  0  0  0  0  0  0  0  0  0
  125.0530  129.1480   64.8240 N   0  0  0  0  0  0  0  0  0  0  0  0
  124.8580  129.5770   66.0970 C   0  0  0  0  0  0  0  0  0  0  0  0
  124.1270  130.5210   66.3980 O   0  0  0  0  0  0  0  0  0  0  0  0
  125.5910  128.8370   67.1270 C   0  0  0  0  0  0  0  0  0  0  0  0
  124.8260  128.4680   68.6730 S   0  0  0  0  0  0  0  0  0  0  0  0
  126.2750  127.6840   69.2580 C   0  0  0  0  0  0  0  0  0  0  0  0
  126.3440  127.1490   70.4770 N   0  0  0  0  0  0  0  0  0  0  0  0
  127.5260  126.5770   70.8100 C   0  0  0  0  0  0  0  0  0  0  0  0
  127.5860  125.9800   72.2040 C   0  0  0  0  0  0  0  0  0  0  0  0
  128.6290  126.5240   69.9590 C   0  0  0  0  0  0  0  0  0  0  0  0
  128.5520  127.0860   68.6790 C   0  0  0  0  0  0  0  0  0  0  0  0
  129.7820  127.0070   67.7880 C   0  0  0  0  0  0  0  0  0  0  0  0
  127.3280  127.6980   68.2950 C   0  0  0  0  0  0  0  0  0  0  0  0
  126.9110  128.3590   67.0870 C   0  0  0  0  0  0  0  0  0  0  0  0
  127.7430  128.5030   66.0060 N   0  0  0  0  0  0  0  0  0  0  0  0
  123.3140  130.3320   63.6230 N   0  0  0  0  0  0  0  0  0  0  0  0
  1  2  1  0
  2  3  2  0
  3  4  1  0
  4  5  2  0
  5  6  1  0
  6  7  1  0
  7  8  1  0
  8  9  2  0
  8 10  1  0
 10 11  1  0
 11 12  1  0
 12 13  2  0
 13 14  1  0
 14 15  1  0
 14 16  2  0
 16 17  1  0
 17 18  1  0
 17 19  2  0
 19 20  1  0
 20 21  1  0
  6 22  2  0
 22  2  1  0
 20 10  2  0
 19 12  1  0
M  END
>  <Binding energies>  (41) 
[-7.24]

>  <Ligand effiencies>  (41) 
[-0.2896]

>  <Interactions>  (41) 
["V-B:GLU:543:CB:9877, V-A:HIS:456:CE1:4069, V-B:GLU:543:C:9873, V-B:GLY:544:C:9883, V-B:ARG:545:CA:9890, V-B:ARG:545:CD:9894, V-B:GLU:543:CD:9879, V-B:HIS:456:CE1:9040, V-B:ARG:545:CG:9893, V-B:ASP:366:CG:8183, V-B:ASP:366:CB:8182, V-B:GLY:453:C:9012, V-B:ARG:545:CZ:9897, V-B:ARG:545:CB:9892, V-B:GLY:544:CA:9885, H-B:GLU:543:OE2:9881, H-B:GLU:543:OE1:9880, H-B:TYR:484:OH:9318, V-B:GLY:453:CA:9014, H-B:GLY:454:N:9020, H-B:HIS:456:ND1:9037, V-B:ILE:369:CG1:8208, H-B:ARG:545:N:9891"]

$$$$
4af_Grossjean_2025
     RDKit          3D

 21 23  0  0  0  0  0  0  0  0999 V2000
  126.3660  122.1220   54.9270 C   0  0  0  0  0  0  0  0  0  0  0  0
  126.1860  122.5870   56.3610 C   0  0  0  0  0  0  0  0  0  0  0  0
  124.9990  123.1850   56.7770 C   0  0  0  0  0  0  0  0  0  0  0  0
  124.8560  123.6090   58.1040 C   0  0  0  0  0  0  0  0  0  0  0  0
  123.5420  124.2570   58.5100 C   0  0  0  0  0  0  0  0  0  0  0  0
  125.9520  123.4080   58.9860 C   0  0  0  0  0  0  0  0  0  0  0  0
  126.1460  123.7150   60.3780 C   0  0  0  0  0  0  0  0  0  0  0  0
  125.1750  124.3190   61.1360 N   0  0  0  0  0  0  0  0  0  0  0  0
  127.4050  123.3420   60.8740 C   0  0  0  0  0  0  0  0  0  0  0  0
  127.9450  123.5310   62.2220 C   0  0  0  0  0  0  0  0  0  0  0  0
  127.5070  122.8790   63.1700 O   0  0  0  0  0  0  0  0  0  0  0  0
  128.9440  124.4420   62.3240 N   0  0  0  0  0  0  0  0  0  0  0  0
  129.6360  124.8870   63.4660 C   0  0  0  0  0  0  0  0  0  0  0  0
  130.1620  126.1790   63.6490 C   0  0  0  0  0  0  0  0  0  0  0  0
  130.8460  126.4860   64.8260 C   0  0  0  0  0  0  0  0  0  0  0  0
  130.9920  125.4920   65.7940 C   0  0  0  0  0  0  0  0  0  0  0  0
  130.5010  124.2360   65.6390 N   0  0  0  0  0  0  0  0  0  0  0  0
  129.8390  123.9530   64.4890 C   0  0  0  0  0  0  0  0  0  0  0  0
  128.3910  122.5960   59.6150 S   0  0  0  0  0  0  0  0  0  0  0  0
  127.1120  122.7840   58.4360 C   0  0  0  0  0  0  0  0  0  0  0  0
  127.2510  122.3780   57.1730 N   0  0  0  0  0  0  0  0  0  0  0  0
  1  2  1  0
  2  3  2  0
  3  4  1  0
  4  5  1  0
  4  6  2  0
  6  7  1  0
  7  8  1  0
  7  9  2  0
  9 10  1  0
 10 11  2  0
 10 12  1  0
 12 13  1  0
 13 14  2  0
 14 15  1  0
 15 16  2  0
 16 17  1  0
 17 18  2  0
  9 19  1  0
 19 20  1  0
 20 21  2  0
 21  2  1  0
 20  6  1  0
 18 13  1  0
M  END
>  <Binding energies>  (42) 
[-7.28]

>  <Ligand effiencies>  (42) 
[-0.30333333333333334]

>  <Interactions>  (42) 
["V-B:GLU:543:CD:9879, V-B:ASP:366:CG:8183, V-B:LEU:363:CB:8157, V-B:TYR:531:CZ:9765, V-B:ASP:366:CB:8182, V-B:PRO:540:N:9855, V-B:LEU:363:CA:8155, V-B:PRO:540:CB:9856, V-B:TYR:539:CD2:9845, V-B:TYR:539:C:9838, V-B:MET:535:CE:9806, H-B:TYR:539:N:9841, V-B:TYR:531:CE2:9764, V-B:PRO:540:CA:9854, V-B:LEU:363:CD1:8159, V-B:TYR:539:CE2:9847, V-B:ILE:538:CB:9833, V-B:MET:535:CG:9804, V-B:ILE:538:CD1:9836, V-B:ILE:538:CG2:9834, V-B:ILE:538:CA:9831, H-A:TYR:484:OH:4347, H-B:ASP:366:OD1:8184, V-B:PRO:540:CD:9858, H-B:ALA:541:N:9862, V-B:ILE:538:C:9829, V-B:VAL:537:C:9821"]

$$$$
4ag_Grossjean_2025
     RDKit          3D

 22 24  0  0  0  0  0  0  0  0999 V2000
  122.5650  125.0770   57.5660 C   0  0  0  0  0  0  0  0  0  0  0  0
  123.9030  124.4330   57.8780 C   0  0  0  0  0  0  0  0  0  0  0  0
  124.6530  123.8180   56.8770 C   0  0  0  0  0  0  0  0  0  0  0  0
  125.8850  123.2300   57.1860 C   0  0  0  0  0  0  0  0  0  0  0  0
  126.6670  122.5720   56.0590 C   0  0  0  0  0  0  0  0  0  0  0  0
  126.3260  123.2870   58.5350 C   0  0  0  0  0  0  0  0  0  0  0  0
  127.5110  122.7990   59.1880 C   0  0  0  0  0  0  0  0  0  0  0  0
  128.4990  122.1290   58.5110 N   0  0  0  0  0  0  0  0  0  0  0  0
  127.5540  123.0680   60.5640 C   0  0  0  0  0  0  0  0  0  0  0  0
  128.6040  122.7290   61.5240 C   0  0  0  0  0  0  0  0  0  0  0  0
  128.8570  123.4600   62.4840 O   0  0  0  0  0  0  0  0  0  0  0  0
  129.2830  121.5870   61.2830 N   0  0  0  0  0  0  0  0  0  0  0  0
  130.3500  121.0430   62.1210 C   0  0  0  0  0  0  0  0  0  0  0  0
  131.0640  119.8420   61.5120 C   0  0  0  0  0  0  0  0  0  0  0  0
  130.4110  118.6080   61.4390 C   0  0  0  0  0  0  0  0  0  0  0  0
  131.0520  117.5150   60.8610 C   0  0  0  0  0  0  0  0  0  0  0  0
  132.3390  117.6620   60.3470 C   0  0  0  0  0  0  0  0  0  0  0  0
  132.9890  118.8930   60.4030 C   0  0  0  0  0  0  0  0  0  0  0  0
  132.3490  119.9860   60.9810 C   0  0  0  0  0  0  0  0  0  0  0  0
  126.1200  123.9510   61.0880 S   0  0  0  0  0  0  0  0  0  0  0  0
  125.4670  123.9460   59.4650 C   0  0  0  0  0  0  0  0  0  0  0  0
  124.2930  124.5080   59.1730 N   0  0  0  0  0  0  0  0  0  0  0  0
  1  2  1  0
  2  3  2  0
  3  4  1  0
  4  5  1  0
  4  6  2  0
  6  7  1  0
  7  8  1  0
  7  9  2  0
  9 10  1  0
 10 11  2  0
 10 12  1  0
 12 13  1  0
 13 14  1  0
 14 15  2  0
 15 16  1  0
 16 17  2  0
 17 18  1  0
 18 19  2  0
  9 20  1  0
 20 21  1  0
 21 22  2  0
 22  2  1  0
 21  6  1  0
 19 14  1  0
M  END
>  <Binding energies>  (43) 
[-7.5]

>  <Ligand effiencies>  (43) 
[-0.3]

>  <Interactions>  (43) 
["V-B:ASP:366:CG:8183, V-B:LEU:363:CB:8157, V-B:TYR:531:CZ:9765, V-B:ASP:366:CB:8182, V-B:PRO:540:N:9855, V-B:LEU:363:CA:8155, V-B:PRO:540:CB:9856, V-B:TYR:539:CD2:9845, V-B:TYR:539:C:9838, V-B:MET:535:CE:9806, V-B:TYR:531:CE2:9764, V-B:PRO:540:CA:9854, V-B:LEU:363:CD1:8159, V-B:TYR:539:CE2:9847, V-A:LEU:475:CD2:4258, V-A:PRO:482:CG:4326, V-B:ALA:541:CB:9863, V-B:TYR:539:CZ:9848, V-A:SER:385:CB:3408, V-B:TYR:539:CA:9840, V-B:TYR:539:CD1:9844, V-B:TYR:539:CG:9843, V-A:HIS:383:CE1:3393, V-A:PRO:482:CB:4325, V-B:ILE:538:CA:9831, V-A:SER:385:CA:3406, H-B:TYR:539:O:9839, V-B:LEU:363:CG:8158, V-B:LEU:363:C:8153"]

$$$$
4ah_Grossjean_2025
     RDKit          3D

 28 30  0  0  0  0  0  0  0  0999 V2000
  134.2200  122.2840   62.4570 C   0  0  0  0  0  0  0  0  0  0  0  0
  134.0910  123.4770   63.2210 O   0  0  0  0  0  0  0  0  0  0  0  0
  132.8770  123.7750   63.8150 C   0  0  0  0  0  0  0  0  0  0  0  0
  131.7170  123.0000   63.6600 C   0  0  0  0  0  0  0  0  0  0  0  0
  130.5250  123.3630   64.2890 C   0  0  0  0  0  0  0  0  0  0  0  0
  129.2880  122.4830   64.1470 C   0  0  0  0  0  0  0  0  0  0  0  0
  128.6910  122.5240   62.8120 N   0  0  0  0  0  0  0  0  0  0  0  0
  127.7920  123.4360   62.3860 C   0  0  0  0  0  0  0  0  0  0  0  0
  127.3490  124.3240   63.1170 O   0  0  0  0  0  0  0  0  0  0  0  0
  127.3330  123.2870   61.0050 C   0  0  0  0  0  0  0  0  0  0  0  0
  128.3400  122.4500   59.8220 S   0  0  0  0  0  0  0  0  0  0  0  0
  127.1710  122.7440   58.5540 C   0  0  0  0  0  0  0  0  0  0  0  0
  127.3610  122.3170   57.3060 N   0  0  0  0  0  0  0  0  0  0  0  0
  126.3780  122.6090   56.4200 C   0  0  0  0  0  0  0  0  0  0  0  0
  126.6160  122.1160   55.0050 C   0  0  0  0  0  0  0  0  0  0  0  0
  125.2210  123.3100   56.7500 C   0  0  0  0  0  0  0  0  0  0  0  0
  125.0240  123.7600   58.0610 C   0  0  0  0  0  0  0  0  0  0  0  0
  123.7450  124.5220   58.3730 C   0  0  0  0  0  0  0  0  0  0  0  0
  126.0350  123.4740   59.0190 C   0  0  0  0  0  0  0  0  0  0  0  0
  126.1600  123.7820   60.4180 C   0  0  0  0  0  0  0  0  0  0  0  0
  125.2030  124.4870   61.1030 N   0  0  0  0  0  0  0  0  0  0  0  0
  130.4940  124.4950   65.1030 C   0  0  0  0  0  0  0  0  0  0  0  0
  131.6370  125.2920   65.2720 C   0  0  0  0  0  0  0  0  0  0  0  0
  131.6730  126.4350   66.0520 O   0  0  0  0  0  0  0  0  0  0  0  0
  130.4530  126.9850   66.5390 C   0  0  0  0  0  0  0  0  0  0  0  0
  132.8200  124.9250   64.6170 C   0  0  0  0  0  0  0  0  0  0  0  0
  133.9520  125.6860   64.7880 O   0  0  0  0  0  0  0  0  0  0  0  0
  134.3460  125.8400   66.1450 C   0  0  0  0  0  0  0  0  0  0  0  0
  1  2  1  0
  2  3  1  0
  3  4  2  0
  4  5  1  0
  5  6  1  0
  6  7  1  0
  7  8  1  0
  8  9  2  0
  8 10  1  0
 10 11  1  0
 11 12  1  0
 12 13  2  0
 13 14  1  0
 14 15  1  0
 14 16  2  0
 16 17  1  0
 17 18  1  0
 17 19  2  0
 19 20  1  0
 20 21  1  0
  5 22  2  0
 22 23  1  0
 23 24  1  0
 24 25  1  0
 23 26  2  0
 26 27  1  0
 27 28  1  0
 26  3  1  0
 20 10  2  0
 19 12  1  0
M  END
>  <Binding energies>  (44) 
[-7.33]

>  <Ligand effiencies>  (44) 
[-0.2364516129032258]

>  <Interactions>  (44) 
["V-B:GLU:543:CD:9879, V-B:ASP:366:CG:8183, V-B:TYR:531:CZ:9765, V-A:ARG:545:CZ:4925, V-B:ASP:366:CB:8182, V-B:PRO:540:N:9855, V-B:LEU:363:CA:8155, V-A:ARG:545:CD:4922, V-B:PRO:540:CB:9856, V-B:TYR:539:CD2:9845, V-B:TYR:539:C:9838, V-B:MET:535:CE:9806, H-B:TYR:539:N:9841, V-B:TYR:531:CE2:9764, V-B:PRO:540:CA:9854, V-B:LEU:363:CD1:8159, V-A:ARG:545:CG:4921, V-B:TYR:539:CE2:9847, V-B:ILE:538:CB:9833, V-B:ALA:541:CB:9863, V-B:MET:535:CG:9804, V-B:ILE:538:CD1:9836, V-A:ILE:369:CD1:3238, V-B:ILE:538:CA:9831, V-A:GLU:543:CD:4907, H-B:GLU:543:OE1:9880, V-A:GLY:454:CA:4048, H-A:TYR:484:OH:4347, H-A:GLY:454:N:4049, H-B:ASP:366:OD1:8184, V-B:PRO:540:CD:9858, V-B:ILE:538:C:9829, H-A:ARG:545:NH2:4927, V-B:ALA:541:CA:9861, V-A:GLY:453:C:4041, H-A:ARG:545:NH1:4926, H-A:ARG:545:NE:4923, H-B:TYR:539:O:9839, V-A:GLY:453:CA:4043, V-B:VAL:537:C:9821"]

$$$$
4ai_Grossjean_2025
     RDKit          3D

 20 22  0  0  0  0  0  0  0  0999 V2000
  126.4340  122.1370   54.9020 C   0  0  0  0  0  0  0  0  0  0  0  0
  126.1910  122.6150   56.3220 C   0  0  0  0  0  0  0  0  0  0  0  0
  124.9960  123.2400   56.6730 C   0  0  0  0  0  0  0  0  0  0  0  0
  124.7900  123.6680   57.9890 C   0  0  0  0  0  0  0  0  0  0  0  0
  123.4690  124.3430   58.3240 C   0  0  0  0  0  0  0  0  0  0  0  0
  125.8300  123.4400   58.9310 C   0  0  0  0  0  0  0  0  0  0  0  0
  125.9520  123.7410   60.3320 C   0  0  0  0  0  0  0  0  0  0  0  0
  124.9570  124.3730   61.0340 N   0  0  0  0  0  0  0  0  0  0  0  0
  127.1660  123.3250   60.9010 C   0  0  0  0  0  0  0  0  0  0  0  0
  127.6240  123.4780   62.2840 C   0  0  0  0  0  0  0  0  0  0  0  0
  126.8760  123.2150   63.2270 O   0  0  0  0  0  0  0  0  0  0  0  0
  128.9040  123.9030   62.4280 N   0  0  0  0  0  0  0  0  0  0  0  0
  129.5920  124.1220   63.6140 C   0  0  0  0  0  0  0  0  0  0  0  0
  130.3660  125.2590   63.8480 C   0  0  0  0  0  0  0  0  0  0  0  0
  130.8730  125.0930   65.1160 C   0  0  0  0  0  0  0  0  0  0  0  0
  130.4280  123.9190   65.6210 O   0  0  0  0  0  0  0  0  0  0  0  0
  129.6160  123.3120   64.6610 N   0  0  0  0  0  0  0  0  0  0  0  0
  128.2080  122.5660   59.6950 S   0  0  0  0  0  0  0  0  0  0  0  0
  127.0050  122.7900   58.4450 C   0  0  0  0  0  0  0  0  0  0  0  0
  127.2050  122.3830   57.1910 N   0  0  0  0  0  0  0  0  0  0  0  0
  1  2  1  0
  2  3  2  0
  3  4  1  0
  4  5  1  0
  4  6  2  0
  6  7  1  0
  7  8  1  0
  7  9  2  0
  9 10  1  0
 10 11  2  0
 10 12  1  0
 12 13  1  0
 13 14  1  0
 14 15  2  0
 15 16  1  0
 16 17  1  0
  9 18  1  0
 18 19  1  0
 19 20  2  0
 20  2  1  0
 19  6  1  0
 17 13  2  0
M  END
>  <Binding energies>  (45) 
[-7.13]

>  <Ligand effiencies>  (45) 
[-0.31]

>  <Interactions>  (45) 
["V-B:GLU:543:CD:9879, V-B:ASP:366:CG:8183, V-B:LEU:363:CB:8157, V-B:TYR:531:CZ:9765, V-B:ASP:366:CB:8182, V-B:PRO:540:N:9855, V-B:LEU:363:CA:8155, V-B:PRO:540:CB:9856, V-B:TYR:539:CD2:9845, V-B:TYR:539:C:9838, V-B:MET:535:CE:9806, H-B:TYR:539:N:9841, V-B:TYR:531:CE2:9764, V-B:PRO:540:CA:9854, V-B:LEU:363:CD1:8159, V-B:TYR:539:CE2:9847, V-B:ILE:538:CB:9833, V-B:MET:535:CG:9804, V-B:ILE:538:CD1:9836, V-B:ILE:538:CG2:9834, V-B:ILE:538:CA:9831, H-A:TYR:484:OH:4347, H-B:ASP:366:OD1:8184, V-B:PRO:540:CD:9858, H-B:ALA:541:N:9862, V-B:ILE:538:C:9829, V-B:VAL:537:C:9821"]

$$$$
4aj_Grossjean_2025
     RDKit          3D

 20 22  0  0  0  0  0  0  0  0999 V2000
  126.3470  122.1290   54.6830 C   0  0  0  0  0  0  0  0  0  0  0  0
  126.1020  122.5990   56.1050 C   0  0  0  0  0  0  0  0  0  0  0  0
  124.9180  123.2440   56.4530 C   0  0  0  0  0  0  0  0  0  0  0  0
  124.7150  123.6740   57.7700 C   0  0  0  0  0  0  0  0  0  0  0  0
  123.4050  124.3740   58.1000 C   0  0  0  0  0  0  0  0  0  0  0  0
  125.7470  123.4280   58.7140 C   0  0  0  0  0  0  0  0  0  0  0  0
  125.8710  123.7270   60.1160 C   0  0  0  0  0  0  0  0  0  0  0  0
  124.8850  124.3750   60.8160 N   0  0  0  0  0  0  0  0  0  0  0  0
  127.0770  123.2930   60.6870 C   0  0  0  0  0  0  0  0  0  0  0  0
  127.5340  123.4390   62.0700 C   0  0  0  0  0  0  0  0  0  0  0  0
  127.0080  124.2600   62.8240 O   0  0  0  0  0  0  0  0  0  0  0  0
  128.5430  122.6120   62.4400 N   0  0  0  0  0  0  0  0  0  0  0  0
  129.1470  122.5400   63.6880 C   0  0  0  0  0  0  0  0  0  0  0  0
  128.5640  122.5340   64.8680 N   0  0  0  0  0  0  0  0  0  0  0  0
  129.4480  122.4510   65.8440 C   0  0  0  0  0  0  0  0  0  0  0  0
  130.7850  122.3880   65.4610 C   0  0  0  0  0  0  0  0  0  0  0  0
  130.8770  122.4410   63.7250 S   0  0  0  0  0  0  0  0  0  0  0  0
  128.1050  122.5090   59.4860 S   0  0  0  0  0  0  0  0  0  0  0  0
  126.9110  122.7560   58.2320 C   0  0  0  0  0  0  0  0  0  0  0  0
  127.1070  122.3450   56.9790 N   0  0  0  0  0  0  0  0  0  0  0  0
  1  2  1  0
  2  3  2  0
  3  4  1  0
  4  5  1  0
  4  6  2  0
  6  7  1  0
  7  8  1  0
  7  9  2  0
  9 10  1  0
 10 11  2  0
 10 12  1  0
 12 13  1  0
 13 14  2  0
 14 15  1  0
 15 16  2  0
 16 17  1  0
  9 18  1  0
 18 19  1  0
 19 20  2  0
 20  2  1  0
 19  6  1  0
 17 13  1  0
M  END
>  <Binding energies>  (46) 
[-6.75]

>  <Ligand effiencies>  (46) 
[-0.29347826086956524]

>  <Interactions>  (46) 
["V-B:GLU:543:CD:9879, V-B:ASP:366:CG:8183, V-B:LEU:363:CB:8157, V-B:TYR:531:CZ:9765, V-B:ASP:366:CB:8182, V-B:PRO:540:N:9855, V-A:TYR:484:CZ:4346, V-B:LEU:363:CA:8155, V-B:PRO:540:CB:9856, V-B:TYR:539:CD2:9845, V-B:TYR:539:C:9838, V-B:MET:535:CE:9806, H-B:TYR:539:N:9841, V-B:TYR:531:CE2:9764, V-B:PRO:540:CA:9854, V-B:LEU:363:CD1:8159, V-B:TYR:539:CE2:9847, V-A:LEU:475:CD2:4258, V-B:ILE:538:CB:9833, V-B:ALA:541:CB:9863, V-B:MET:535:CG:9804, V-B:ILE:538:CD1:9836, V-B:ILE:538:CG2:9834, V-B:ILE:538:CA:9831, V-B:GLU:543:CG:9878, V-A:TYR:484:CE2:4345, H-B:ASP:366:OD1:8184, V-B:PRO:540:CD:9858, V-B:ILE:538:C:9829, V-B:ALA:541:CA:9861, V-A:LEU:475:CG:4256, V-A:LEU:475:CD1:4257, H-B:TYR:539:O:9839, V-B:ILE:538:CG1:9835, V-B:VAL:537:C:9821"]

$$$$
4ak_Grossjean_2025
     RDKit          3D

 25 26  0  0  0  0  0  0  0  0999 V2000
  131.9570  116.8690   62.0270 C   0  0  0  0  0  0  0  0  0  0  0  0
  132.1820  117.2350   60.6750 O   0  0  0  0  0  0  0  0  0  0  0  0
  131.5880  118.4770   60.3180 C   0  0  0  0  0  0  0  0  0  0  0  0
  130.5210  118.8510   61.3550 C   0  0  0  0  0  0  0  0  0  0  0  0
  130.6280  120.2340   61.6640 O   0  0  0  0  0  0  0  0  0  0  0  0
  131.6010  120.9220   60.8890 C   0  0  0  0  0  0  0  0  0  0  0  0
  132.4950  121.7510   61.8180 C   0  0  0  0  0  0  0  0  0  0  0  0
  131.7300  122.8030   62.3900 O   0  0  0  0  0  0  0  0  0  0  0  0
  131.3470  122.5680   63.7390 C   0  0  0  0  0  0  0  0  0  0  0  0
  129.8110  122.5540   63.8370 C   0  0  0  0  0  0  0  0  0  0  0  0
  129.1400  122.6140   62.5390 N   0  0  0  0  0  0  0  0  0  0  0  0
  127.9460  123.1960   62.3040 C   0  0  0  0  0  0  0  0  0  0  0  0
  127.3040  123.7650   63.1870 O   0  0  0  0  0  0  0  0  0  0  0  0
  127.4540  123.1220   60.9290 C   0  0  0  0  0  0  0  0  0  0  0  0
  128.4070  122.3130   59.6850 S   0  0  0  0  0  0  0  0  0  0  0  0
  127.1920  122.6470   58.4720 C   0  0  0  0  0  0  0  0  0  0  0  0
  127.3370  122.2610   57.2040 N   0  0  0  0  0  0  0  0  0  0  0  0
  126.3220  122.5850   56.3640 C   0  0  0  0  0  0  0  0  0  0  0  0
  126.5050  122.1370   54.9260 C   0  0  0  0  0  0  0  0  0  0  0  0
  125.1790  123.2760   56.7600 C   0  0  0  0  0  0  0  0  0  0  0  0
  125.0300  123.6790   58.0930 C   0  0  0  0  0  0  0  0  0  0  0  0
  123.7670  124.4340   58.4760 C   0  0  0  0  0  0  0  0  0  0  0  0
  126.0740  123.3580   59.0020 C   0  0  0  0  0  0  0  0  0  0  0  0
  126.2470  123.6110   60.4070 C   0  0  0  0  0  0  0  0  0  0  0  0
  125.3070  124.2760   61.1540 N   0  0  0  0  0  0  0  0  0  0  0  0
  1  2  1  0
  2  3  1  0
  3  4  1  0
  4  5  1  0
  5  6  1  0
  6  7  1  0
  7  8  1  0
  8  9  1  0
  9 10  1  0
 10 11  1  0
 11 12  1  0
 12 13  2  0
 12 14  1  0
 14 15  1  0
 15 16  1  0
 16 17  2  0
 17 18  1  0
 18 19  1  0
 18 20  2  0
 20 21  1  0
 21 22  1  0
 21 23  2  0
 23 24  1  0
 24 25  1  0
 24 14  2  0
 23 16  1  0
M  END
>  <Binding energies>  (47) 
[-5.89]

>  <Ligand effiencies>  (47) 
[-0.21035714285714285]

>  <Interactions>  (47) 
["V-B:ASP:366:CG:8183, V-B:TYR:531:CZ:9765, V-B:ASP:366:CB:8182, V-B:PRO:540:N:9855, V-B:LEU:363:CA:8155, V-B:PRO:540:CB:9856, V-B:TYR:539:CD2:9845, V-B:TYR:539:C:9838, V-B:MET:535:CE:9806, H-B:TYR:539:N:9841, V-B:TYR:531:CE2:9764, V-B:PRO:540:CA:9854, V-B:LEU:363:CD1:8159, V-B:TYR:539:CE2:9847, V-A:LEU:475:CD2:4258, V-B:ILE:538:CB:9833, V-B:ALA:541:CB:9863, V-A:SER:385:CB:3408, V-A:THR:477:CG2:4272, V-B:MET:535:CG:9804, V-B:ILE:538:CD1:9836, V-B:TYR:539:CB:9842, V-A:HIS:383:CE1:3393, V-A:PRO:482:CB:4325, V-B:ILE:538:CA:9831, H-B:GLU:543:OE1:9880, H-B:ASP:366:OD1:8184, V-B:PRO:540:CD:9858, V-B:ILE:538:C:9829, V-B:PRO:540:C:9852, H-A:HIS:383:ND1:3390, V-B:VAL:537:C:9821"]

$$$$
4al_Grossjean_2025
     RDKit          3D

 16 17  0  0  0  0  0  0  0  0999 V2000
  129.3890  124.5280   63.2440 C   0  0  0  0  0  0  0  0  0  0  0  0
  128.8940  123.6590   62.2360 O   0  0  0  0  0  0  0  0  0  0  0  0
  127.5670  123.3830   62.1430 C   0  0  0  0  0  0  0  0  0  0  0  0
  126.8210  123.2500   63.1160 O   0  0  0  0  0  0  0  0  0  0  0  0
  127.1020  123.2560   60.7450 C   0  0  0  0  0  0  0  0  0  0  0  0
  128.1350  122.4860   59.5390 S   0  0  0  0  0  0  0  0  0  0  0  0
  126.9340  122.7340   58.2920 C   0  0  0  0  0  0  0  0  0  0  0  0
  127.1300  122.3360   57.0350 N   0  0  0  0  0  0  0  0  0  0  0  0
  126.1200  122.5880   56.1650 C   0  0  0  0  0  0  0  0  0  0  0  0
  126.3650  122.1280   54.7400 C   0  0  0  0  0  0  0  0  0  0  0  0
  124.9320  123.2220   56.5210 C   0  0  0  0  0  0  0  0  0  0  0  0
  124.7280  123.6370   57.8420 C   0  0  0  0  0  0  0  0  0  0  0  0
  123.4150  124.3240   58.1820 C   0  0  0  0  0  0  0  0  0  0  0  0
  125.7650  123.3900   58.7810 C   0  0  0  0  0  0  0  0  0  0  0  0
  125.8900  123.6750   60.1840 C   0  0  0  0  0  0  0  0  0  0  0  0
  124.9040  124.3030   60.9000 N   0  0  0  0  0  0  0  0  0  0  0  0
  1  2  1  0
  2  3  1  0
  3  4  2  0
  3  5  1  0
  5  6  1  0
  6  7  1  0
  7  8  2  0
  8  9  1  0
  9 10  1  0
  9 11  2  0
 11 12  1  0
 12 13  1  0
 12 14  2  0
 14 15  1  0
 15 16  1  0
 15  5  2  0
 14  7  1  0
M  END
>  <Binding energies>  (48) 
[-5.92]

>  <Ligand effiencies>  (48) 
[-0.3288888888888889]

>  <Interactions>  (48) 
["V-B:GLU:543:CD:9879, V-B:ASP:366:CG:8183, V-B:LEU:363:CB:8157, V-B:TYR:531:CZ:9765, V-B:ASP:366:CB:8182, V-B:PRO:540:N:9855, V-B:LEU:363:CA:8155, V-B:PRO:540:CB:9856, V-B:TYR:539:CD2:9845, V-B:TYR:539:C:9838, V-B:MET:535:CE:9806, H-B:TYR:539:N:9841, V-B:TYR:531:CE2:9764, V-B:PRO:540:CA:9854, V-B:LEU:363:CD1:8159, V-B:TYR:539:CE2:9847, V-B:ILE:538:CB:9833, V-B:MET:535:CG:9804, V-B:ILE:538:CD1:9836, V-B:ILE:538:CG2:9834, V-B:ILE:538:CA:9831, H-B:ASP:366:OD1:8184, V-B:PRO:540:CD:9858, H-B:ALA:541:N:9862, V-B:ILE:538:C:9829, V-B:PRO:540:C:9852, V-B:ILE:538:CG1:9835, V-B:VAL:537:C:9821"]

$$$$
4bc_Grossjean_2025
     RDKit          3D

 26 28  0  0  0  0  0  0  0  0999 V2000
  123.5940  129.6170   67.3420 C   0  0  0  0  0  0  0  0  0  0  0  0
  123.4190  129.6060   65.9300 O   0  0  0  0  0  0  0  0  0  0  0  0
  124.4710  129.9800   65.1170 C   0  0  0  0  0  0  0  0  0  0  0  0
  124.1420  130.4260   63.8370 C   0  0  0  0  0  0  0  0  0  0  0  0
  125.1360  130.8240   62.9470 C   0  0  0  0  0  0  0  0  0  0  0  0
  126.4780  130.7890   63.3300 C   0  0  0  0  0  0  0  0  0  0  0  0
  127.4120  131.1950   62.3600 N   0  0  0  0  0  0  0  0  0  0  0  0
  128.2370  132.2710   62.3610 C   0  0  0  0  0  0  0  0  0  0  0  0
  128.2610  133.1170   63.2560 O   0  0  0  0  0  0  0  0  0  0  0  0
  129.1250  132.3840   61.2000 C   0  0  0  0  0  0  0  0  0  0  0  0
  128.5360  133.0940   59.6990 S   0  0  0  0  0  0  0  0  0  0  0  0
  130.0850  132.8560   58.9250 C   0  0  0  0  0  0  0  0  0  0  0  0
  130.2960  133.2260   57.6620 N   0  0  0  0  0  0  0  0  0  0  0  0
  131.5340  132.9890   57.1720 C   0  0  0  0  0  0  0  0  0  0  0  0
  131.7550  133.4220   55.7350 C   0  0  0  0  0  0  0  0  0  0  0  0
  132.5580  132.3950   57.9080 C   0  0  0  0  0  0  0  0  0  0  0  0
  132.3410  132.0030   59.2380 C   0  0  0  0  0  0  0  0  0  0  0  0
  133.4980  131.3510   60.0060 C   0  0  0  0  0  0  0  0  0  0  0  0
  133.0980  130.3670   60.8130 F   0  0  0  0  0  0  0  0  0  0  0  0
  134.3730  130.8330   59.1450 F   0  0  0  0  0  0  0  0  0  0  0  0
  134.1090  132.2640   60.7610 F   0  0  0  0  0  0  0  0  0  0  0  0
  131.0460  132.2410   59.7860 C   0  0  0  0  0  0  0  0  0  0  0  0
  130.4660  131.9860   61.0830 C   0  0  0  0  0  0  0  0  0  0  0  0
  131.1700  131.4050   62.1060 N   0  0  0  0  0  0  0  0  0  0  0  0
  126.8180  130.3290   64.6120 C   0  0  0  0  0  0  0  0  0  0  0  0
  125.8220  129.9320   65.4980 C   0  0  0  0  0  0  0  0  0  0  0  0
  1  2  1  0
  2  3  1  0
  3  4  2  0
  4  5  1  0
  5  6  2  0
  6  7  1  0
  7  8  1  0
  8  9  2  0
  8 10  1  0
 10 11  1  0
 11 12  1  0
 12 13  2  0
 13 14  1  0
 14 15  1  0
 14 16  2  0
 16 17  1  0
 17 18  1  0
 18 19  1  0
 18 20  1  0
 18 21  1  0
 17 22  2  0
 22 23  1  0
 23 24  1  0
  6 25  1  0
 25 26  2  0
 26  3  1  0
 23 10  2  0
 22 12  1  0
M  END
>  <Binding energies>  (49) 
[-6.81]

>  <Ligand effiencies>  (49) 
[-0.23482758620689653]

>  <Interactions>  (49) 
["V-B:ARG:545:CD:9894, V-B:ARG:545:CG:9893, V-B:ARG:545:CZ:9897, V-B:GLY:454:CA:9019, V-A:ASP:366:CG:3212, V-A:GLU:543:CD:4907, V-A:ASP:366:CB:3211, V-A:ASN:362:C:3171, V-A:TYR:531:CE2:4792, V-A:LEU:363:CA:3184, V-A:ASN:362:CA:3173, V-A:LEU:363:C:3182, V-A:LEU:363:CD1:3188, V-A:PRO:540:CA:4882, V-A:TYR:539:CD1:4872, V-A:ASN:362:CB:3175, V-A:ILE:538:CG2:4862, V-A:PRO:540:N:4883, V-A:PRO:540:CB:4884, V-A:TYR:539:C:4866, V-A:TYR:539:CE1:4874, V-A:ILE:538:CB:4861, V-A:ILE:538:CA:4859, V-A:LEU:363:CB:3186, H-B:GLY:454:N:9020, H-A:GLU:543:OE2:4909, H-A:ASP:366:OD2:3214, H-B:ARG:545:NE:9895"]

$$$$
4bf_Grossjean_2025
     RDKit          3D

 24 26  0  0  0  0  0  0  0  0999 V2000
  126.5000  122.1160   54.9000 C   0  0  0  0  0  0  0  0  0  0  0  0
  126.3120  122.6440   56.3120 C   0  0  0  0  0  0  0  0  0  0  0  0
  125.1790  123.3730   56.6600 C   0  0  0  0  0  0  0  0  0  0  0  0
  125.0200  123.8580   57.9670 C   0  0  0  0  0  0  0  0  0  0  0  0
  123.7570  124.6590   58.3030 C   0  0  0  0  0  0  0  0  0  0  0  0
  122.9160  124.7640   57.2720 F   0  0  0  0  0  0  0  0  0  0  0  0
  123.0970  124.0650   59.2980 F   0  0  0  0  0  0  0  0  0  0  0  0
  124.0920  125.8960   58.6720 F   0  0  0  0  0  0  0  0  0  0  0  0
  126.0600  123.5700   58.9010 C   0  0  0  0  0  0  0  0  0  0  0  0
  126.2450  123.8940   60.2940 C   0  0  0  0  0  0  0  0  0  0  0  0
  125.3260  124.6150   61.0140 N   0  0  0  0  0  0  0  0  0  0  0  0
  127.4410  123.4040   60.8440 C   0  0  0  0  0  0  0  0  0  0  0  0
  127.9570  123.5730   62.2060 C   0  0  0  0  0  0  0  0  0  0  0  0
  127.5060  122.9030   63.1350 O   0  0  0  0  0  0  0  0  0  0  0  0
  128.9490  124.4880   62.3410 N   0  0  0  0  0  0  0  0  0  0  0  0
  129.6180  124.9190   63.5020 C   0  0  0  0  0  0  0  0  0  0  0  0
  130.1020  126.2190   63.7290 C   0  0  0  0  0  0  0  0  0  0  0  0
  130.7640  126.5120   64.9230 C   0  0  0  0  0  0  0  0  0  0  0  0
  130.9320  125.4930   65.8610 C   0  0  0  0  0  0  0  0  0  0  0  0
  130.4820  124.2290   65.6630 N   0  0  0  0  0  0  0  0  0  0  0  0
  129.8400  123.9600   64.4980 C   0  0  0  0  0  0  0  0  0  0  0  0
  128.3810  122.5250   59.6410 S   0  0  0  0  0  0  0  0  0  0  0  0
  127.1690  122.8120   58.4150 C   0  0  0  0  0  0  0  0  0  0  0  0
  127.3150  122.3530   57.1730 N   0  0  0  0  0  0  0  0  0  0  0  0
  1  2  1  0
  2  3  2  0
  3  4  1  0
  4  5  1  0
  5  6  1  0
  5  7  1  0
  5  8  1  0
  4  9  2  0
  9 10  1  0
 10 11  1  0
 10 12  2  0
 12 13  1  0
 13 14  2  0
 13 15  1  0
 15 16  1  0
 16 17  2  0
 17 18  1  0
 18 19  2  0
 19 20  1  0
 20 21  2  0
 12 22  1  0
 22 23  1  0
 23 24  2  0
 24  2  1  0
 23  9  1  0
 21 16  1  0
M  END
>  <Binding energies>  (50) 
[-6.78]

>  <Ligand effiencies>  (50) 
[-0.2511111111111111]

>  <Interactions>  (50) 
["V-B:GLU:543:CD:9879, V-B:ASP:366:CG:8183, V-B:LEU:363:CB:8157, V-B:TYR:531:CZ:9765, V-B:ASP:366:CB:8182, V-B:PRO:540:N:9855, V-B:LEU:363:CA:8155, V-B:PRO:540:CB:9856, V-B:TYR:539:CD2:9845, V-B:TYR:539:C:9838, V-B:MET:535:CE:9806, H-B:TYR:539:N:9841, V-B:TYR:531:CE2:9764, V-B:PRO:540:CA:9854, V-B:LEU:363:CD1:8159, V-B:TYR:539:CE2:9847, V-B:ILE:538:CB:9833, V-B:MET:535:CG:9804, V-B:ILE:538:CD1:9836, V-B:ILE:538:CG2:9834, V-B:ILE:538:CA:9831, V-A:GLU:543:CD:4907, H-B:GLU:543:OE1:9880, H-A:TYR:484:OH:4347, H-B:ASP:366:OD1:8184, H-B:ALA:541:N:9862, V-B:ILE:538:C:9829, V-B:VAL:537:C:9821, V-B:ASN:362:C:8142, V-B:LEU:363:CG:8158, V-B:TYR:531:CD2:9762"]

$$$$
4bh_Grossjean_2025
     RDKit          3D

 31 33  0  0  0  0  0  0  0  0999 V2000
  130.5650  126.6500   67.0860 C   0  0  0  0  0  0  0  0  0  0  0  0
  131.5000  126.4260   66.0370 O   0  0  0  0  0  0  0  0  0  0  0  0
  131.4370  125.2520   65.3090 C   0  0  0  0  0  0  0  0  0  0  0  0
  130.2740  124.4790   65.1690 C   0  0  0  0  0  0  0  0  0  0  0  0
  130.2820  123.3020   64.4210 C   0  0  0  0  0  0  0  0  0  0  0  0
  128.9990  122.4990   64.2420 C   0  0  0  0  0  0  0  0  0  0  0  0
  128.4630  122.5490   62.8820 N   0  0  0  0  0  0  0  0  0  0  0  0
  127.8010  123.5920   62.3400 C   0  0  0  0  0  0  0  0  0  0  0  0
  127.5440  124.6170   62.9760 O   0  0  0  0  0  0  0  0  0  0  0  0
  127.3590  123.4240   60.9550 C   0  0  0  0  0  0  0  0  0  0  0  0
  128.3490  122.5150   59.8180 S   0  0  0  0  0  0  0  0  0  0  0  0
  127.2170  122.8220   58.5210 C   0  0  0  0  0  0  0  0  0  0  0  0
  127.4220  122.3480   57.2930 N   0  0  0  0  0  0  0  0  0  0  0  0
  126.4750  122.6500   56.3750 C   0  0  0  0  0  0  0  0  0  0  0  0
  126.7290  122.1020   54.9820 C   0  0  0  0  0  0  0  0  0  0  0  0
  125.3380  123.4040   56.6520 C   0  0  0  0  0  0  0  0  0  0  0  0
  125.1180  123.9070   57.9440 C   0  0  0  0  0  0  0  0  0  0  0  0
  123.8510  124.7300   58.2030 C   0  0  0  0  0  0  0  0  0  0  0  0
  123.0990  124.2370   59.1890 F   0  0  0  0  0  0  0  0  0  0  0  0
  124.1830  125.9760   58.5410 F   0  0  0  0  0  0  0  0  0  0  0  0
  123.0990  124.7580   57.1030 F   0  0  0  0  0  0  0  0  0  0  0  0
  126.0990  123.6100   58.9360 C   0  0  0  0  0  0  0  0  0  0  0  0
  126.2160  123.9510   60.3330 C   0  0  0  0  0  0  0  0  0  0  0  0
  125.2880  124.7140   60.9920 N   0  0  0  0  0  0  0  0  0  0  0  0
  131.4570  122.9040   63.7790 C   0  0  0  0  0  0  0  0  0  0  0  0
  132.6370  123.6530   63.9070 C   0  0  0  0  0  0  0  0  0  0  0  0
  133.8380  123.3120   63.3120 O   0  0  0  0  0  0  0  0  0  0  0  0
  134.2420  123.9820   62.1220 C   0  0  0  0  0  0  0  0  0  0  0  0
  132.6140  124.8230   64.6810 C   0  0  0  0  0  0  0  0  0  0  0  0
  133.7580  125.5770   64.8000 O   0  0  0  0  0  0  0  0  0  0  0  0
  134.1560  125.8130   66.1430 C   0  0  0  0  0  0  0  0  0  0  0  0
  1  2  1  0
  2  3  1  0
  3  4  2  0
  4  5  1  0
  5  6  1  0
  6  7  1  0
  7  8  1  0
  8  9  2  0
  8 10  1  0
 10 11  1  0
 11 12  1  0
 12 13  2  0
 13 14  1  0
 14 15  1  0
 14 16  2  0
 16 17  1  0
 17 18  1  0
 18 19  1  0
 18 20  1  0
 18 21  1  0
 17 22  2  0
 22 23  1  0
 23 24  1  0
  5 25  2  0
 25 26  1  0
 26 27  1  0
 27 28  1  0
 26 29  2  0
 29 30  1  0
 30 31  1  0
 29  3  1  0
 23 10  2  0
 22 12  1  0
M  END
>  <Binding energies>  (51) 
[-6.85]

>  <Ligand effiencies>  (51) 
[-0.2014705882352941]

>  <Interactions>  (51) 
["V-B:GLU:543:CD:9879, V-B:ASP:366:CG:8183, V-B:LEU:363:CB:8157, V-B:TYR:531:CZ:9765, V-A:ARG:545:CZ:4925, V-B:ASP:366:CB:8182, V-B:PRO:540:N:9855, V-B:LEU:363:CA:8155, V-A:ARG:545:CD:4922, V-B:PRO:540:CB:9856, V-B:TYR:539:CD2:9845, V-B:TYR:539:C:9838, V-B:MET:535:CE:9806, H-B:TYR:539:N:9841, V-B:TYR:531:CE2:9764, V-B:PRO:540:CA:9854, V-B:LEU:363:CD1:8159, V-A:ARG:545:CG:4921, V-B:TYR:539:CE2:9847, V-A:LEU:475:CD2:4258, V-B:ILE:538:CB:9833, V-B:ALA:541:CB:9863, V-A:ASP:366:CG:3212, V-B:MET:535:CG:9804, V-B:TYR:539:CD1:9844, V-B:ILE:538:CD1:9836, V-A:ILE:369:CD1:3238, V-B:ILE:538:CA:9831, H-B:GLU:543:OE1:9880, V-A:GLY:454:CA:4048, H-A:TYR:484:OH:4347, H-A:GLY:454:N:4049, V-B:GLU:543:CG:9878, H-B:ASP:366:OD1:8184, V-B:ILE:538:C:9829, H-A:ARG:545:NH2:4927, V-B:ALA:541:CA:9861, V-A:GLY:453:C:4041, H-A:ARG:545:NH1:4926, H-A:ARG:545:NE:4923, H-B:TYR:539:O:9839, V-A:GLY:453:CA:4043, V-B:VAL:537:C:9821, V-B:ASN:362:C:8142, V-B:TYR:531:CD2:9762"]

$$$$
4bi_Grossjean_2025
     RDKit          3D

 23 25  0  0  0  0  0  0  0  0999 V2000
  126.7330  122.1240   54.8980 C   0  0  0  0  0  0  0  0  0  0  0  0
  126.4550  122.6440   56.2960 C   0  0  0  0  0  0  0  0  0  0  0  0
  125.2930  123.3580   56.5780 C   0  0  0  0  0  0  0  0  0  0  0  0
  125.0470  123.8290   57.8790 C   0  0  0  0  0  0  0  0  0  0  0  0
  123.7510  124.6030   58.1430 C   0  0  0  0  0  0  0  0  0  0  0  0
  123.9640  125.8770   58.4810 F   0  0  0  0  0  0  0  0  0  0  0  0
  122.9930  124.6030   57.0460 F   0  0  0  0  0  0  0  0  0  0  0  0
  123.0790  124.0320   59.1430 F   0  0  0  0  0  0  0  0  0  0  0  0
  126.0310  123.5470   58.8720 C   0  0  0  0  0  0  0  0  0  0  0  0
  126.1260  123.8630   60.2760 C   0  0  0  0  0  0  0  0  0  0  0  0
  125.1640  124.5780   60.9420 N   0  0  0  0  0  0  0  0  0  0  0  0
  127.2850  123.3690   60.8990 C   0  0  0  0  0  0  0  0  0  0  0  0
  127.7040  123.5150   62.2950 C   0  0  0  0  0  0  0  0  0  0  0  0
  126.9260  123.2580   63.2160 O   0  0  0  0  0  0  0  0  0  0  0  0
  128.9840  123.9240   62.4790 N   0  0  0  0  0  0  0  0  0  0  0  0
  129.6410  124.1310   63.6860 C   0  0  0  0  0  0  0  0  0  0  0  0
  130.4020  125.2680   63.9530 C   0  0  0  0  0  0  0  0  0  0  0  0
  130.8750  125.0900   65.2330 C   0  0  0  0  0  0  0  0  0  0  0  0
  130.4220  123.9060   65.7120 O   0  0  0  0  0  0  0  0  0  0  0  0
  129.6410  123.3080   64.7210 N   0  0  0  0  0  0  0  0  0  0  0  0
  128.3100  122.5130   59.7490 S   0  0  0  0  0  0  0  0  0  0  0  0
  127.1770  122.8050   58.4510 C   0  0  0  0  0  0  0  0  0  0  0  0
  127.4050  122.3590   57.2160 N   0  0  0  0  0  0  0  0  0  0  0  0
  1  2  1  0
  2  3  2  0
  3  4  1  0
  4  5  1  0
  5  6  1  0
  5  7  1  0
  5  8  1  0
  4  9  2  0
  9 10  1  0
 10 11  1  0
 10 12  2  0
 12 13  1  0
 13 14  2  0
 13 15  1  0
 15 16  1  0
 16 17  1  0
 17 18  2  0
 18 19  1  0
 19 20  1  0
 12 21  1  0
 21 22  1  0
 22 23  2  0
 23  2  1  0
 22  9  1  0
 20 16  2  0
M  END
>  <Binding energies>  (52) 
[-6.53]

>  <Ligand effiencies>  (52) 
[-0.25115384615384617]

>  <Interactions>  (52) 
["V-B:GLU:543:CD:9879, V-B:ASP:366:CG:8183, V-B:LEU:363:CB:8157, V-B:TYR:531:CZ:9765, V-B:ASP:366:CB:8182, V-B:PRO:540:N:9855, V-B:LEU:363:CA:8155, V-B:PRO:540:CB:9856, V-B:TYR:539:CD2:9845, V-B:TYR:539:C:9838, V-B:MET:535:CE:9806, H-B:TYR:539:N:9841, V-B:TYR:531:CE2:9764, V-B:PRO:540:CA:9854, V-B:LEU:363:CD1:8159, V-B:TYR:539:CE2:9847, V-B:ILE:538:CB:9833, V-B:MET:535:CG:9804, V-B:ILE:538:CD1:9836, V-B:ILE:538:CA:9831, H-A:TYR:484:OH:4347, H-B:ASP:366:OD1:8184, H-B:ALA:541:N:9862, V-B:ILE:538:C:9829, V-B:VAL:537:C:9821, V-B:ASN:362:C:8142, V-B:LEU:363:CG:8158, V-B:TYR:531:CD2:9762"]

$$$$
4bj_Grossjean_2025
     RDKit          3D

 23 25  0  0  0  0  0  0  0  0999 V2000
  133.2680  125.3680   65.1050 C   0  0  0  0  0  0  0  0  0  0  0  0
  132.5090  124.4970   64.1210 C   0  0  0  0  0  0  0  0  0  0  0  0
  133.0500  123.3000   63.6580 C   0  0  0  0  0  0  0  0  0  0  0  0
  132.3400  122.5070   62.7430 C   0  0  0  0  0  0  0  0  0  0  0  0
  132.9780  121.1990   62.2590 C   0  0  0  0  0  0  0  0  0  0  0  0
  132.0920  120.2120   62.1080 F   0  0  0  0  0  0  0  0  0  0  0  0
  133.5650  121.3940   61.0790 F   0  0  0  0  0  0  0  0  0  0  0  0
  133.8870  120.7890   63.1420 F   0  0  0  0  0  0  0  0  0  0  0  0
  131.0610  122.9800   62.3240 C   0  0  0  0  0  0  0  0  0  0  0  0
  130.0690  122.4560   61.4170 C   0  0  0  0  0  0  0  0  0  0  0  0
  130.2370  121.2760   60.7370 N   0  0  0  0  0  0  0  0  0  0  0  0
  128.9200  123.2540   61.3000 C   0  0  0  0  0  0  0  0  0  0  0  0
  127.7340  123.0300   60.4700 C   0  0  0  0  0  0  0  0  0  0  0  0
  126.6240  122.8740   60.9850 O   0  0  0  0  0  0  0  0  0  0  0  0
  127.9510  123.0250   59.1320 N   0  0  0  0  0  0  0  0  0  0  0  0
  127.0040  122.8470   58.1340 C   0  0  0  0  0  0  0  0  0  0  0  0
  127.1080  122.1250   57.0390 N   0  0  0  0  0  0  0  0  0  0  0  0
  126.0080  122.1790   56.3150 C   0  0  0  0  0  0  0  0  0  0  0  0
  124.9760  122.9610   56.8220 C   0  0  0  0  0  0  0  0  0  0  0  0
  125.4850  123.6630   58.3290 S   0  0  0  0  0  0  0  0  0  0  0  0
  129.0420  124.7000   62.2990 S   0  0  0  0  0  0  0  0  0  0  0  0
  130.6210  124.2210   62.8790 C   0  0  0  0  0  0  0  0  0  0  0  0
  131.2990  124.9720   63.7450 N   0  0  0  0  0  0  0  0  0  0  0  0
  1  2  1  0
  2  3  2  0
  3  4  1  0
  4  5  1  0
  5  6  1  0
  5  7  1  0
  5  8  1  0
  4  9  2  0
  9 10  1  0
 10 11  1  0
 10 12  2  0
 12 13  1  0
 13 14  2  0
 13 15  1  0
 15 16  1  0
 16 17  2  0
 17 18  1  0
 18 19  2  0
 19 20  1  0
 12 21  1  0
 21 22  1  0
 22 23  2  0
 23  2  1  0
 22  9  1  0
 20 16  1  0
M  END
>  <Binding energies>  (53) 
[-6.04]

>  <Ligand effiencies>  (53) 
[-0.2323076923076923]

>  <Interactions>  (53) 
["V-A:ARG:545:CZ:4925, V-B:PRO:540:N:9855, V-B:PRO:540:CB:9856, V-B:TYR:539:CD2:9845, V-B:TYR:539:C:9838, V-B:MET:535:CE:9806, H-B:TYR:539:N:9841, V-B:TYR:531:CE2:9764, V-B:PRO:540:CA:9854, V-B:LEU:363:CD1:8159, V-B:TYR:539:CE2:9847, V-A:LEU:475:CD2:4258, V-A:SER:385:CB:3408, V-A:ILE:369:CG2:3236, V-B:ILE:538:CG2:9834, V-A:ILE:369:CD1:3238, V-B:ILE:538:CA:9831, V-A:GLY:454:CA:4048, V-A:SER:385:CA:3406, V-B:PRO:540:CD:9858, H-B:ALA:541:N:9862, V-B:ILE:538:C:9829, V-A:SER:385:C:3404, H-B:TYR:539:O:9839"]

$$$$
4bk_Grossjean_2025
     RDKit          3D

 28 29  0  0  0  0  0  0  0  0999 V2000
  130.5500  117.3060   60.1690 C   0  0  0  0  0  0  0  0  0  0  0  0
  131.9480  117.5330   60.2620 O   0  0  0  0  0  0  0  0  0  0  0  0
  132.2800  118.7790   60.8610 C   0  0  0  0  0  0  0  0  0  0  0  0
  131.0030  119.6000   61.0780 C   0  0  0  0  0  0  0  0  0  0  0  0
  131.3140  120.9840   61.0080 O   0  0  0  0  0  0  0  0  0  0  0  0
  132.7070  121.2630   61.0560 C   0  0  0  0  0  0  0  0  0  0  0  0
  132.9470  122.5160   61.9090 C   0  0  0  0  0  0  0  0  0  0  0  0
  131.6960  123.0730   62.2880 O   0  0  0  0  0  0  0  0  0  0  0  0
  131.3170  122.7760   63.6270 C   0  0  0  0  0  0  0  0  0  0  0  0
  129.7830  122.7140   63.7210 C   0  0  0  0  0  0  0  0  0  0  0  0
  129.1120  122.7630   62.4210 N   0  0  0  0  0  0  0  0  0  0  0  0
  127.8520  123.1950   62.2100 C   0  0  0  0  0  0  0  0  0  0  0  0
  127.1380  123.6190   63.1200 O   0  0  0  0  0  0  0  0  0  0  0  0
  127.3760  123.1430   60.8270 C   0  0  0  0  0  0  0  0  0  0  0  0
  128.3170  122.2980   59.6000 S   0  0  0  0  0  0  0  0  0  0  0  0
  127.1280  122.6650   58.3730 C   0  0  0  0  0  0  0  0  0  0  0  0
  127.2830  122.2620   57.1120 N   0  0  0  0  0  0  0  0  0  0  0  0
  126.2950  122.6050   56.2530 C   0  0  0  0  0  0  0  0  0  0  0  0
  126.4910  122.1340   54.8230 C   0  0  0  0  0  0  0  0  0  0  0  0
  125.1680  123.3350   56.6210 C   0  0  0  0  0  0  0  0  0  0  0  0
  125.0000  123.7640   57.9470 C   0  0  0  0  0  0  0  0  0  0  0  0
  123.7450  124.5680   58.3030 C   0  0  0  0  0  0  0  0  0  0  0  0
  123.0370  124.0190   59.2930 F   0  0  0  0  0  0  0  0  0  0  0  0
  124.0900  125.7950   58.6910 F   0  0  0  0  0  0  0  0  0  0  0  0
  122.9460  124.6510   57.2400 F   0  0  0  0  0  0  0  0  0  0  0  0
  126.0230  123.4180   58.8790 C   0  0  0  0  0  0  0  0  0  0  0  0
  126.1930  123.6710   60.2880 C   0  0  0  0  0  0  0  0  0  0  0  0
  125.2770  124.3690   61.0330 N   0  0  0  0  0  0  0  0  0  0  0  0
  1  2  1  0
  2  3  1  0
  3  4  1  0
  4  5  1  0
  5  6  1  0
  6  7  1  0
  7  8  1  0
  8  9  1  0
  9 10  1  0
 10 11  1  0
 11 12  1  0
 12 13  2  0
 12 14  1  0
 14 15  1  0
 15 16  1  0
 16 17  2  0
 17 18  1  0
 18 19  1  0
 18 20  2  0
 20 21  1  0
 21 22  1  0
 22 23  1  0
 22 24  1  0
 22 25  1  0
 21 26  2  0
 26 27  1  0
 27 28  1  0
 27 14  2  0
 26 16  1  0
M  END
>  <Binding energies>  (54) 
[-5.47]

>  <Ligand effiencies>  (54) 
[-0.1764516129032258]

>  <Interactions>  (54) 
["V-B:ASP:366:CG:8183, V-B:LEU:363:CB:8157, V-B:TYR:531:CZ:9765, V-B:ASP:366:CB:8182, V-B:PRO:540:N:9855, V-B:LEU:363:CA:8155, V-B:PRO:540:CB:9856, V-B:TYR:539:CD2:9845, V-B:TYR:539:C:9838, V-B:MET:535:CE:9806, H-B:TYR:539:N:9841, V-B:TYR:531:CE2:9764, V-B:PRO:540:CA:9854, V-B:LEU:363:CD1:8159, V-B:TYR:539:CE2:9847, V-A:LEU:475:CD2:4258, V-B:ILE:538:CB:9833, V-B:ALA:541:CB:9863, V-A:SER:385:CB:3408, V-B:VAL:344:CG1:7971, V-B:MET:535:CG:9804, V-A:ILE:369:CG2:3236, V-B:ILE:538:CD1:9836, V-B:TYR:539:CB:9842, V-A:HIS:383:CE1:3393, V-B:ILE:538:CA:9831, H-B:GLU:543:OE1:9880, V-A:SER:385:CA:3406, H-B:ASP:366:OD1:8184, H-B:ALA:541:N:9862, V-B:ILE:538:C:9829, V-B:PRO:540:C:9852, H-A:HIS:383:ND1:3390, V-B:VAL:537:C:9821, V-B:ASN:362:C:8142, V-B:LEU:363:CG:8158, V-B:TYR:531:CD2:9762"]

$$$$
4cd_Grossjean_2025
     RDKit          3D

 29 32  0  0  0  0  0  0  0  0999 V2000
  132.7900  126.0230   62.8690 N   0  0  0  0  0  0  0  0  0  0  0  0
  132.2400  124.8740   63.3800 C   0  0  0  0  0  0  0  0  0  0  0  0
  131.7360  124.7780   64.6870 C   0  0  0  0  0  0  0  0  0  0  0  0
  131.7040  125.8070   65.7320 C   0  0  0  0  0  0  0  0  0  0  0  0
  132.7370  126.1440   66.3110 O   0  0  0  0  0  0  0  0  0  0  0  0
  130.4840  126.3380   65.9870 N   0  0  0  0  0  0  0  0  0  0  0  0
  130.1050  127.2930   66.9490 C   0  0  0  0  0  0  0  0  0  0  0  0
  129.1250  128.2070   66.5520 C   0  0  0  0  0  0  0  0  0  0  0  0
  128.6740  129.1820   67.4370 C   0  0  0  0  0  0  0  0  0  0  0  0
  129.1990  129.2400   68.7250 C   0  0  0  0  0  0  0  0  0  0  0  0
  130.1660  128.3270   69.1380 C   0  0  0  0  0  0  0  0  0  0  0  0
  130.6200  127.3500   68.2550 C   0  0  0  0  0  0  0  0  0  0  0  0
  131.0960  123.1670   65.0050 S   0  0  0  0  0  0  0  0  0  0  0  0
  131.5150  122.6340   63.3950 C   0  0  0  0  0  0  0  0  0  0  0  0
  131.2660  121.3910   62.9880 N   0  0  0  0  0  0  0  0  0  0  0  0
  131.6410  121.0650   61.7230 C   0  0  0  0  0  0  0  0  0  0  0  0
  131.3500  119.6560   61.2940 C   0  0  0  0  0  0  0  0  0  0  0  0
  130.2020  118.9880   61.7510 C   0  0  0  0  0  0  0  0  0  0  0  0
  129.9260  117.6820   61.3570 C   0  0  0  0  0  0  0  0  0  0  0  0
  130.7960  117.0230   60.4950 C   0  0  0  0  0  0  0  0  0  0  0  0
  131.9380  117.6630   60.0240 C   0  0  0  0  0  0  0  0  0  0  0  0
  132.2090  118.9690   60.4190 C   0  0  0  0  0  0  0  0  0  0  0  0
  132.2440  121.9920   60.8680 C   0  0  0  0  0  0  0  0  0  0  0  0
  132.5080  123.3070   61.2870 C   0  0  0  0  0  0  0  0  0  0  0  0
  133.1760  124.2710   60.2990 C   0  0  0  0  0  0  0  0  0  0  0  0
  134.3450  124.7440   60.7380 F   0  0  0  0  0  0  0  0  0  0  0  0
  133.4060  123.6470   59.1440 F   0  0  0  0  0  0  0  0  0  0  0  0
  132.3790  125.3180   60.0830 F   0  0  0  0  0  0  0  0  0  0  0  0
  132.1310  123.6560   62.6150 C   0  0  0  0  0  0  0  0  0  0  0  0
  1  2  1  0
  2  3  2  0
  3  4  1  0
  4  5  2  0
  4  6  1  0
  6  7  1  0
  7  8  2  0
  8  9  1  0
  9 10  2  0
 10 11  1  0
 11 12  2  0
  3 13  1  0
 13 14  1  0
 14 15  2  0
 15 16  1  0
 16 17  1  0
 17 18  2  0
 18 19  1  0
 19 20  2  0
 20 21  1  0
 21 22  2  0
 16 23  2  0
 23 24  1  0
 24 25  1  0
 25 26  1  0
 25 27  1  0
 25 28  1  0
 24 29  2  0
 29  2  1  0
 12  7  1  0
 29 14  1  0
 22 17  1  0
M  END
>  <Binding energies>  (55) 
[-7.85]

>  <Ligand effiencies>  (55) 
[-0.2453125]

>  <Interactions>  (55) 
["V-A:HIS:456:CE1:4069, V-B:GLU:543:CD:9879, V-B:HIS:456:CE1:9040, V-A:ARG:545:CZ:4925, V-A:TYR:484:CZ:4346, V-B:TYR:539:CD2:9845, V-B:TYR:539:C:9838, V-B:TYR:539:CE2:9847, V-A:ILE:369:CB:3235, V-A:LEU:475:CD2:4258, V-A:PRO:482:CG:4326, V-B:ALA:541:CB:9863, V-A:ILE:369:CG1:3237, V-B:TYR:539:CZ:9848, V-A:ASP:366:CG:3212, V-B:VAL:344:CG1:7971, H-B:GLU:543:OE2:9881, V-A:ILE:369:CG2:3236, V-B:TYR:539:CB:9842, V-A:ILE:369:CD1:3238, V-A:HIS:383:CE1:3393, V-A:PRO:482:CB:4325, V-A:GLU:543:CD:4907, V-A:GLU:543:CG:4906, V-A:ASP:366:CB:3211, V-A:GLU:543:CB:4905, H-A:TYR:484:OH:4347, V-A:TYR:484:CE2:4345, H-A:ASP:366:OD2:3214, H-A:ASP:366:OD1:3213, H-A:ARG:545:NE:4923, V-A:ASP:366:CA:3209"]

$$$$
4cg_Grossjean_2025
     RDKit          3D

 30 33  0  0  0  0  0  0  0  0999 V2000
  129.3380  125.3780   63.7560 N   0  0  0  0  0  0  0  0  0  0  0  0
  130.3830  124.4900   63.7720 C   0  0  0  0  0  0  0  0  0  0  0  0
  131.5110  124.6450   64.5900 C   0  0  0  0  0  0  0  0  0  0  0  0
  131.7840  125.6880   65.5780 C   0  0  0  0  0  0  0  0  0  0  0  0
  132.8800  126.2500   65.6330 O   0  0  0  0  0  0  0  0  0  0  0  0
  130.7830  125.9620   66.4420 N   0  0  0  0  0  0  0  0  0  0  0  0
  130.8250  126.9770   67.4930 C   0  0  0  0  0  0  0  0  0  0  0  0
  129.5060  127.1280   68.2430 C   0  0  0  0  0  0  0  0  0  0  0  0
  128.5780  128.0870   67.8280 C   0  0  0  0  0  0  0  0  0  0  0  0
  127.3590  128.2080   68.4900 C   0  0  0  0  0  0  0  0  0  0  0  0
  127.0690  127.3620   69.5580 C   0  0  0  0  0  0  0  0  0  0  0  0
  127.9830  126.3930   69.9670 C   0  0  0  0  0  0  0  0  0  0  0  0
  129.2010  126.2720   69.3040 C   0  0  0  0  0  0  0  0  0  0  0  0
  132.6480  123.3170   64.3760 S   0  0  0  0  0  0  0  0  0  0  0  0
  131.6170  122.5750   63.1750 C   0  0  0  0  0  0  0  0  0  0  0  0
  131.9570  121.4370   62.5760 N   0  0  0  0  0  0  0  0  0  0  0  0
  131.0910  120.9320   61.6590 C   0  0  0  0  0  0  0  0  0  0  0  0
  131.5050  119.6470   61.0000 C   0  0  0  0  0  0  0  0  0  0  0  0
  132.7030  119.5630   60.2720 C   0  0  0  0  0  0  0  0  0  0  0  0
  133.0900  118.3760   59.6580 C   0  0  0  0  0  0  0  0  0  0  0  0
  132.2810  117.2490   59.7630 C   0  0  0  0  0  0  0  0  0  0  0  0
  131.0880  117.3040   60.4750 C   0  0  0  0  0  0  0  0  0  0  0  0
  130.7050  118.4940   61.0870 C   0  0  0  0  0  0  0  0  0  0  0  0
  129.8960  121.5840   61.3360 C   0  0  0  0  0  0  0  0  0  0  0  0
  129.5270  122.7860   61.9610 C   0  0  0  0  0  0  0  0  0  0  0  0
  128.2040  123.4470   61.5580 C   0  0  0  0  0  0  0  0  0  0  0  0
  127.5820  122.8110   60.5640 F   0  0  0  0  0  0  0  0  0  0  0  0
  127.3740  123.4670   62.6020 F   0  0  0  0  0  0  0  0  0  0  0  0
  128.4300  124.6960   61.1530 F   0  0  0  0  0  0  0  0  0  0  0  0
  130.4220  123.3160   62.9350 C   0  0  0  0  0  0  0  0  0  0  0  0
  1  2  1  0
  2  3  2  0
  3  4  1  0
  4  5  2  0
  4  6  1  0
  6  7  1  0
  7  8  1  0
  8  9  2  0
  9 10  1  0
 10 11  2  0
 11 12  1  0
 12 13  2  0
  3 14  1  0
 14 15  1  0
 15 16  2  0
 16 17  1  0
 17 18  1  0
 18 19  2  0
 19 20  1  0
 20 21  2  0
 21 22  1  0
 22 23  2  0
 17 24  2  0
 24 25  1  0
 25 26  1  0
 26 27  1  0
 26 28  1  0
 26 29  1  0
 25 30  2  0
 30  2  1  0
 13  8  1  0
 30 15  1  0
 23 18  1  0
M  END
>  <Binding energies>  (56) 
[-8.24]

>  <Ligand effiencies>  (56) 
[-0.2496969696969697]

>  <Interactions>  (56) 
["V-B:GLU:543:CB:9877, V-A:HIS:456:CE1:4069, V-B:GLU:543:C:9873, V-B:GLU:543:CD:9879, V-B:HIS:456:CE1:9040, V-B:PRO:540:N:9855, V-B:PRO:540:CB:9856, V-B:TYR:539:CD2:9845, V-B:PRO:540:CA:9854, V-B:TYR:539:CE2:9847, V-A:LEU:475:CD2:4258, V-B:ALA:541:CB:9863, H-B:GLU:543:OE2:9881, V-A:ILE:369:CG2:3236, V-B:TYR:539:CB:9842, V-A:HIS:383:CE1:3393, V-A:GLU:543:CD:4907, H-B:GLU:543:OE1:9880, V-A:GLY:454:CA:4048, V-A:SER:385:CA:3406, H-A:TYR:484:OH:4347, H-A:ARG:545:NH2:4927, V-A:LEU:373:CD2:3280, H-A:ARG:545:NE:4923, V-B:PRO:540:C:9852, V-A:VAL:384:C:3396, V-A:HIS:383:CG:3389"]

$$$$
4ch_Grossjean_2025
     RDKit          3D

 36 39  0  0  0  0  0  0  0  0999 V2000
  128.2560  130.2580   64.6560 C   0  0  0  0  0  0  0  0  0  0  0  0
  127.3330  129.8780   65.6720 O   0  0  0  0  0  0  0  0  0  0  0  0
  127.7080  128.9330   66.6090 C   0  0  0  0  0  0  0  0  0  0  0  0
  128.9690  128.3160   66.6400 C   0  0  0  0  0  0  0  0  0  0  0  0
  129.2790  127.3690   67.6170 C   0  0  0  0  0  0  0  0  0  0  0  0
  130.6440  126.6900   67.6180 C   0  0  0  0  0  0  0  0  0  0  0  0
  130.8510  125.7580   66.5080 N   0  0  0  0  0  0  0  0  0  0  0  0
  131.9710  125.6650   65.7620 C   0  0  0  0  0  0  0  0  0  0  0  0
  132.9670  126.3620   65.9710 O   0  0  0  0  0  0  0  0  0  0  0  0
  131.9540  124.6560   64.7020 C   0  0  0  0  0  0  0  0  0  0  0  0
  131.2800  123.0600   65.0150 S   0  0  0  0  0  0  0  0  0  0  0  0
  131.6000  122.5550   63.3740 C   0  0  0  0  0  0  0  0  0  0  0  0
  131.2950  121.3310   62.9510 N   0  0  0  0  0  0  0  0  0  0  0  0
  131.5760  121.0310   61.6560 C   0  0  0  0  0  0  0  0  0  0  0  0
  131.2250  119.6390   61.2130 C   0  0  0  0  0  0  0  0  0  0  0  0
  130.0890  118.9880   61.7220 C   0  0  0  0  0  0  0  0  0  0  0  0
  129.7580  117.6970   61.3160 C   0  0  0  0  0  0  0  0  0  0  0  0
  130.5620  117.0370   60.3930 C   0  0  0  0  0  0  0  0  0  0  0  0
  131.6940  117.6580   59.8750 C   0  0  0  0  0  0  0  0  0  0  0  0
  132.0220  118.9470   60.2860 C   0  0  0  0  0  0  0  0  0  0  0  0
  132.1770  121.9560   60.7980 C   0  0  0  0  0  0  0  0  0  0  0  0
  132.5050  123.2500   61.2330 C   0  0  0  0  0  0  0  0  0  0  0  0
  133.1630  124.2150   60.2400 C   0  0  0  0  0  0  0  0  0  0  0  0
  134.3020  124.7410   60.6960 F   0  0  0  0  0  0  0  0  0  0  0  0
  133.4460  123.5730   59.1080 F   0  0  0  0  0  0  0  0  0  0  0  0
  132.3350  125.2250   59.9760 F   0  0  0  0  0  0  0  0  0  0  0  0
  132.2030  123.5790   62.5850 C   0  0  0  0  0  0  0  0  0  0  0  0
  132.3830  124.7760   63.3710 C   0  0  0  0  0  0  0  0  0  0  0  0
  132.9340  125.9240   62.8620 N   0  0  0  0  0  0  0  0  0  0  0  0
  128.3180  127.0190   68.5660 C   0  0  0  0  0  0  0  0  0  0  0  0
  127.0480  127.6190   68.5580 C   0  0  0  0  0  0  0  0  0  0  0  0
  126.0490  127.3220   69.4680 O   0  0  0  0  0  0  0  0  0  0  0  0
  126.3800  126.6390   70.6720 C   0  0  0  0  0  0  0  0  0  0  0  0
  126.7580  128.5790   67.5780 C   0  0  0  0  0  0  0  0  0  0  0  0
  125.5150  129.1620   67.5500 O   0  0  0  0  0  0  0  0  0  0  0  0
  124.7450  128.8310   66.4020 C   0  0  0  0  0  0  0  0  0  0  0  0
  1  2  1  0
  2  3  1  0
  3  4  2  0
  4  5  1  0
  5  6  1  0
  6  7  1  0
  7  8  1  0
  8  9  2  0
  8 10  1  0
 10 11  1  0
 11 12  1  0
 12 13  2  0
 13 14  1  0
 14 15  1  0
 15 16  2  0
 16 17  1  0
 17 18  2  0
 18 19  1  0
 19 20  2  0
 14 21  2  0
 21 22  1  0
 22 23  1  0
 23 24  1  0
 23 25  1  0
 23 26  1  0
 22 27  2  0
 27 28  1  0
 28 29  1  0
  5 30  2  0
 30 31  1  0
 31 32  1  0
 32 33  1  0
 31 34  2  0
 34 35  1  0
 35 36  1  0
 34  3  1  0
 28 10  2  0
 27 12  1  0
 20 15  1  0
M  END
>  <Binding energies>  (57) 
[-7.68]

>  <Ligand effiencies>  (57) 
[-0.19692307692307692]

>  <Interactions>  (57) 
["V-B:GLU:543:CB:9877, V-A:HIS:456:CE1:4069, V-B:GLU:543:C:9873, V-B:GLY:544:C:9883, V-B:ARG:545:CA:9890, V-B:ARG:545:CD:9894, V-B:GLU:543:CD:9879, V-B:HIS:456:CE1:9040, V-B:ARG:545:CG:9893, V-A:ARG:545:CZ:4925, V-A:TYR:484:CZ:4346, V-B:TYR:539:CD2:9845, V-B:TYR:539:C:9838, V-B:TYR:539:CE2:9847, V-B:ARG:545:CZ:9897, V-B:GLY:544:CA:9885, V-A:ILE:369:CB:3235, V-A:LEU:475:CD2:4258, V-A:PRO:482:CG:4326, V-B:ALA:541:CB:9863, V-A:ILE:369:CG1:3237, V-B:TYR:539:CZ:9848, V-A:ASP:366:CG:3212, V-B:VAL:344:CG1:7971, H-B:GLU:543:OE2:9881, V-A:ILE:369:CG2:3236, V-B:TYR:539:CB:9842, V-A:ILE:369:CD1:3238, V-A:HIS:383:CE1:3393, V-A:PRO:482:CB:4325, V-A:GLU:543:CD:4907, V-A:GLU:543:CG:4906, V-A:ASP:366:CB:3211, H-B:TYR:484:OH:9318, H-A:TYR:484:OH:4347, V-A:TYR:484:CE2:4345, H-B:HIS:456:ND1:9037, H-A:ARG:545:NH2:4927, H-A:ASP:366:OD2:3214, H-A:ASP:366:OD1:3213, H-A:ARG:545:NE:4923, V-A:ASP:366:CA:3209, H-B:ARG:545:N:9891"]

$$$$
4cj_Grossjean_2025
     RDKit          3D

 28 31  0  0  0  0  0  0  0  0999 V2000
  132.1630  125.3590   61.5050 N   0  0  0  0  0  0  0  0  0  0  0  0
  130.9680  124.6900   61.5820 C   0  0  0  0  0  0  0  0  0  0  0  0
  130.4410  124.1950   62.7860 C   0  0  0  0  0  0  0  0  0  0  0  0
  131.0050  124.2840   64.1350 C   0  0  0  0  0  0  0  0  0  0  0  0
  130.6580  123.4940   65.0170 O   0  0  0  0  0  0  0  0  0  0  0  0
  131.9030  125.2810   64.3270 N   0  0  0  0  0  0  0  0  0  0  0  0
  132.5790  125.5800   65.5020 C   0  0  0  0  0  0  0  0  0  0  0  0
  133.8600  125.4230   65.7580 N   0  0  0  0  0  0  0  0  0  0  0  0
  134.1620  125.8160   66.9800 C   0  0  0  0  0  0  0  0  0  0  0  0
  133.1090  126.3080   67.7460 C   0  0  0  0  0  0  0  0  0  0  0  0
  131.6480  126.2480   66.8040 S   0  0  0  0  0  0  0  0  0  0  0  0
  128.8880  123.4040   62.5240 S   0  0  0  0  0  0  0  0  0  0  0  0
  128.9580  123.7380   60.8090 C   0  0  0  0  0  0  0  0  0  0  0  0
  127.9820  123.3590   59.9880 N   0  0  0  0  0  0  0  0  0  0  0  0
  128.1200  123.6700   58.6740 C   0  0  0  0  0  0  0  0  0  0  0  0
  126.9940  123.2400   57.7770 C   0  0  0  0  0  0  0  0  0  0  0  0
  127.2500  122.5200   56.5990 C   0  0  0  0  0  0  0  0  0  0  0  0
  126.2110  122.1230   55.7590 C   0  0  0  0  0  0  0  0  0  0  0  0
  124.8980  122.4450   56.0870 C   0  0  0  0  0  0  0  0  0  0  0  0
  124.6180  123.1590   57.2460 C   0  0  0  0  0  0  0  0  0  0  0  0
  125.6590  123.5530   58.0830 C   0  0  0  0  0  0  0  0  0  0  0  0
  129.2480  124.3370   58.1860 C   0  0  0  0  0  0  0  0  0  0  0  0
  130.2850  124.7390   59.0430 C   0  0  0  0  0  0  0  0  0  0  0  0
  131.4930  125.4690   58.4430 C   0  0  0  0  0  0  0  0  0  0  0  0
  132.6470  124.8360   58.6560 F   0  0  0  0  0  0  0  0  0  0  0  0
  131.3380  125.5850   57.1240 F   0  0  0  0  0  0  0  0  0  0  0  0
  131.5990  126.6840   58.9820 F   0  0  0  0  0  0  0  0  0  0  0  0
  130.1420  124.4350   60.4270 C   0  0  0  0  0  0  0  0  0  0  0  0
  1  2  1  0
  2  3  2  0
  3  4  1  0
  4  5  2  0
  4  6  1  0
  6  7  1  0
  7  8  2  0
  8  9  1  0
  9 10  2  0
 10 11  1  0
  3 12  1  0
 12 13  1  0
 13 14  2  0
 14 15  1  0
 15 16  1  0
 16 17  2  0
 17 18  1  0
 18 19  2  0
 19 20  1  0
 20 21  2  0
 15 22  2  0
 22 23  1  0
 23 24  1  0
 24 25  1  0
 24 26  1  0
 24 27  1  0
 23 28  2  0
 28  2  1  0
 11  7  1  0
 28 13  1  0
 21 16  1  0
M  END
>  <Binding energies>  (58) 
[-7.61]

>  <Ligand effiencies>  (58) 
[-0.24548387096774194]

>  <Interactions>  (58) 
["V-A:HIS:456:CE1:4069, V-A:ARG:545:CZ:4925, V-B:PRO:540:N:9855, V-A:TYR:484:CZ:4346, V-A:ARG:545:CD:4922, V-B:PRO:540:CB:9856, V-B:TYR:539:C:9838, V-B:MET:535:CE:9806, V-B:TYR:531:CE2:9764, V-B:PRO:540:CA:9854, V-B:LEU:363:CD1:8159, V-A:ARG:545:CG:4921, V-B:TYR:539:CE2:9847, V-B:TYR:539:CZ:9848, V-A:ASP:366:CG:3212, V-B:MET:535:CG:9804, V-B:TYR:539:CD1:9844, V-B:ILE:538:CD1:9836, V-B:TYR:539:CG:9843, V-B:ILE:538:CG2:9834, V-B:ILE:538:CA:9831, V-A:ASP:366:CB:3211, H-A:TYR:484:OH:4347, H-A:GLY:454:N:4049, V-B:PRO:540:CD:9858, V-B:ILE:538:C:9829, H-A:ASP:366:OD2:3214, H-A:ASP:366:OD1:3213, H-A:ARG:545:NE:4923"]

$$$$
4ck_Grossjean_2025
     RDKit          3D

 33 35  0  0  0  0  0  0  0  0999 V2000
  127.8980  122.4920   56.9970 C   0  0  0  0  0  0  0  0  0  0  0  0
  127.4340  121.7970   55.8500 O   0  0  0  0  0  0  0  0  0  0  0  0
  126.1730  122.2570   55.3830 C   0  0  0  0  0  0  0  0  0  0  0  0
  125.1540  122.1720   56.5260 C   0  0  0  0  0  0  0  0  0  0  0  0
  125.2480  123.3460   57.3200 O   0  0  0  0  0  0  0  0  0  0  0  0
  124.0780  123.6110   58.0820 C   0  0  0  0  0  0  0  0  0  0  0  0
  123.7900  125.1180   58.0540 C   0  0  0  0  0  0  0  0  0  0  0  0
  125.0230  125.8170   57.9520 O   0  0  0  0  0  0  0  0  0  0  0  0
  124.9190  127.2090   58.2240 C   0  0  0  0  0  0  0  0  0  0  0  0
  126.0730  127.6420   59.1410 C   0  0  0  0  0  0  0  0  0  0  0  0
  126.7900  126.4960   59.7020 N   0  0  0  0  0  0  0  0  0  0  0  0
  127.2660  126.4000   60.9610 C   0  0  0  0  0  0  0  0  0  0  0  0
  127.1120  127.2900   61.7990 O   0  0  0  0  0  0  0  0  0  0  0  0
  127.9740  125.1610   61.2840 C   0  0  0  0  0  0  0  0  0  0  0  0
  128.2170  123.9330   60.0450 S   0  0  0  0  0  0  0  0  0  0  0  0
  129.1110  122.9250   61.1580 C   0  0  0  0  0  0  0  0  0  0  0  0
  129.6100  121.7500   60.7850 N   0  0  0  0  0  0  0  0  0  0  0  0
  130.2890  121.0360   61.7200 C   0  0  0  0  0  0  0  0  0  0  0  0
  130.8550  119.7230   61.2620 C   0  0  0  0  0  0  0  0  0  0  0  0
  130.1400  118.5280   61.4450 C   0  0  0  0  0  0  0  0  0  0  0  0
  130.6600  117.3070   61.0240 C   0  0  0  0  0  0  0  0  0  0  0  0
  131.9070  117.2620   60.4110 C   0  0  0  0  0  0  0  0  0  0  0  0
  132.6350  118.4310   60.2120 C   0  0  0  0  0  0  0  0  0  0  0  0
  132.1110  119.6510   60.6340 C   0  0  0  0  0  0  0  0  0  0  0  0
  130.4720  121.5110   63.0230 C   0  0  0  0  0  0  0  0  0  0  0  0
  129.9490  122.7490   63.4280 C   0  0  0  0  0  0  0  0  0  0  0  0
  130.1840  123.2070   64.8730 C   0  0  0  0  0  0  0  0  0  0  0  0
  130.7150  124.4280   64.9560 F   0  0  0  0  0  0  0  0  0  0  0  0
  129.0260  123.2300   65.5310 F   0  0  0  0  0  0  0  0  0  0  0  0
  131.0200  122.3660   65.4810 F   0  0  0  0  0  0  0  0  0  0  0  0
  129.2330  123.5050   62.4560 C   0  0  0  0  0  0  0  0  0  0  0  0
  128.5780  124.7900   62.4950 C   0  0  0  0  0  0  0  0  0  0  0  0
  128.5460  125.5740   63.6200 N   0  0  0  0  0  0  0  0  0  0  0  0
  1  2  1  0
  2  3  1  0
  3  4  1  0
  4  5  1  0
  5  6  1  0
  6  7  1  0
  7  8  1  0
  8  9  1  0
  9 10  1  0
 10 11  1  0
 11 12  1  0
 12 13  2  0
 12 14  1  0
 14 15  1  0
 15 16  1  0
 16 17  2  0
 17 18  1  0
 18 19  1  0
 19 20  2  0
 20 21  1  0
 21 22  2  0
 22 23  1  0
 23 24  2  0
 18 25  2  0
 25 26  1  0
 26 27  1  0
 27 28  1  0
 27 29  1  0
 27 30  1  0
 26 31  2  0
 31 32  1  0
 32 33  1  0
 32 14  2  0
 31 16  1  0
 24 19  1  0
M  END
>  <Binding energies>  (59) 
[-6.5]

>  <Ligand effiencies>  (59) 
[-0.18055555555555555]

>  <Interactions>  (59) 
["V-B:GLU:543:CB:9877, V-B:GLU:543:CD:9879, V-B:ASP:366:CG:8183, V-B:TYR:531:CZ:9765, V-B:ASP:366:CB:8182, V-B:PRO:540:N:9855, V-A:TYR:484:CZ:4346, H-B:TYR:531:OH:9766, V-B:PRO:540:CB:9856, V-B:TYR:539:CD2:9845, V-B:TYR:539:C:9838, V-B:MET:535:CE:9806, H-B:TYR:539:N:9841, V-B:TYR:531:CE2:9764, V-B:LEU:363:CD1:8159, V-B:TYR:539:CE2:9847, V-A:LEU:475:CD2:4258, V-B:ILE:538:CB:9833, V-A:PRO:482:CG:4326, V-B:ALA:541:CB:9863, V-B:TYR:539:CZ:9848, V-B:TYR:539:CE1:9846, V-B:MET:535:CG:9804, V-B:TYR:539:CA:9840, H-B:GLU:543:OE2:9881, V-B:TYR:539:CD1:9844, V-B:ILE:538:CD1:9836, V-B:TYR:539:CG:9843, V-B:ILE:538:CG2:9834, V-A:HIS:383:CE1:3393, V-A:PRO:482:CB:4325, V-B:ILE:538:CA:9831, H-B:GLU:543:OE1:9880, V-A:SER:385:CA:3406, V-B:GLU:543:CG:9878, V-A:TYR:484:CE2:4345, V-B:PRO:540:CG:9857, V-B:PRO:540:CD:9858, V-B:ILE:538:C:9829, V-A:LEU:475:CG:4256, V-A:LEU:475:CD1:4257"]

$$$$
4dd_Grossjean_2025
     RDKit          3D

 26 29  0  0  0  0  0  0  0  0999 V2000
  133.8360  124.0870   60.5230 C   0  0  0  0  0  0  0  0  0  0  0  0
  132.9440  123.1730   61.3500 C   0  0  0  0  0  0  0  0  0  0  0  0
  132.6750  121.8900   60.8570 C   0  0  0  0  0  0  0  0  0  0  0  0
  131.8620  121.0010   61.5700 C   0  0  0  0  0  0  0  0  0  0  0  0
  131.5530  119.6240   61.0640 C   0  0  0  0  0  0  0  0  0  0  0  0
  130.4170  118.9300   61.5120 C   0  0  0  0  0  0  0  0  0  0  0  0
  130.1220  117.6520   61.0440 C   0  0  0  0  0  0  0  0  0  0  0  0
  130.9640  117.0470   60.1180 C   0  0  0  0  0  0  0  0  0  0  0  0
  132.0940  117.7100   59.6550 C   0  0  0  0  0  0  0  0  0  0  0  0
  132.3840  118.9890   60.1240 C   0  0  0  0  0  0  0  0  0  0  0  0
  131.2910  121.3440   62.7580 N   0  0  0  0  0  0  0  0  0  0  0  0
  131.5520  122.5620   63.2310 C   0  0  0  0  0  0  0  0  0  0  0  0
  130.8990  123.1250   64.7530 S   0  0  0  0  0  0  0  0  0  0  0  0
  131.7050  124.6860   64.5750 C   0  0  0  0  0  0  0  0  0  0  0  0
  131.5700  125.7120   65.6100 C   0  0  0  0  0  0  0  0  0  0  0  0
  132.3890  126.6280   65.6970 O   0  0  0  0  0  0  0  0  0  0  0  0
  130.4990  125.5730   66.4290 N   0  0  0  0  0  0  0  0  0  0  0  0
  130.1140  126.3440   67.5410 C   0  0  0  0  0  0  0  0  0  0  0  0
  129.3540  125.6830   68.5100 C   0  0  0  0  0  0  0  0  0  0  0  0
  128.9370  126.3560   69.6550 C   0  0  0  0  0  0  0  0  0  0  0  0
  129.2870  127.6910   69.8360 C   0  0  0  0  0  0  0  0  0  0  0  0
  130.0540  128.3590   68.8850 C   0  0  0  0  0  0  0  0  0  0  0  0
  130.4730  127.6890   67.7390 C   0  0  0  0  0  0  0  0  0  0  0  0
  132.4360  124.7430   63.3780 C   0  0  0  0  0  0  0  0  0  0  0  0
  133.1590  125.8390   62.9770 N   0  0  0  0  0  0  0  0  0  0  0  0
  132.3670  123.5390   62.5930 C   0  0  0  0  0  0  0  0  0  0  0  0
  1  2  1  0
  2  3  2  0
  3  4  1  0
  4  5  1  0
  5  6  2  0
  6  7  1  0
  7  8  2  0
  8  9  1  0
  9 10  2  0
  4 11  2  0
 11 12  1  0
 12 13  1  0
 13 14  1  0
 14 15  1  0
 15 16  2  0
 15 17  1  0
 17 18  1  0
 18 19  2  0
 19 20  1  0
 20 21  2  0
 21 22  1  0
 22 23  2  0
 14 24  2  0
 24 25  1  0
 24 26  1  0
 26  2  1  0
 10  5  1  0
 26 12  2  0
 23 18  1  0
M  END
>  <Binding energies>  (60) 
[-8.75]

>  <Ligand effiencies>  (60) 
[-0.3017241379310345]

>  <Interactions>  (60) 
["V-B:GLU:543:CB:9877, V-A:HIS:456:CE1:4069, V-B:GLU:543:CD:9879, V-B:HIS:456:CE1:9040, V-A:ARG:545:CZ:4925, V-A:TYR:484:CZ:4346, V-B:TYR:539:CD2:9845, V-B:TYR:539:C:9838, V-B:TYR:539:CE2:9847, V-A:ILE:369:CB:3235, V-A:LEU:475:CD2:4258, V-A:PRO:482:CG:4326, V-B:ALA:541:CB:9863, V-A:ILE:369:CG1:3237, V-A:ASP:366:CG:3212, V-B:VAL:344:CG1:7971, H-B:GLU:543:OE2:9881, V-A:ILE:369:CG2:3236, V-B:TYR:539:CB:9842, V-A:ILE:369:CD1:3238, V-A:HIS:383:CE1:3393, V-A:PRO:482:CB:4325, V-A:GLU:543:CD:4907, V-A:ASP:366:CB:3211, V-A:GLU:543:CB:4905, H-A:TYR:484:OH:4347, V-B:GLU:543:CG:9878, V-A:TYR:484:CE2:4345, H-A:ARG:545:NH2:4927, H-A:ASP:366:OD2:3214, H-A:ASP:366:OD1:3213, H-A:ARG:545:NE:4923"]

$$$$
4dg_Grossjean_2025
     RDKit          3D

 27 30  0  0  0  0  0  0  0  0999 V2000
  133.7940  124.0240   60.5150 C   0  0  0  0  0  0  0  0  0  0  0  0
  132.8930  123.1800   61.4050 C   0  0  0  0  0  0  0  0  0  0  0  0
  132.5500  121.8960   60.9680 C   0  0  0  0  0  0  0  0  0  0  0  0
  131.7240  121.0690   61.7400 C   0  0  0  0  0  0  0  0  0  0  0  0
  131.3390  119.6860   61.2980 C   0  0  0  0  0  0  0  0  0  0  0  0
  132.1480  118.9630   60.4060 C   0  0  0  0  0  0  0  0  0  0  0  0
  131.7940  117.6820   59.9890 C   0  0  0  0  0  0  0  0  0  0  0  0
  130.6220  117.1020   60.4620 C   0  0  0  0  0  0  0  0  0  0  0  0
  129.8000  117.7960   61.3440 C   0  0  0  0  0  0  0  0  0  0  0  0
  130.1570  119.0770   61.7570 C   0  0  0  0  0  0  0  0  0  0  0  0
  131.2380  121.4670   62.9470 N   0  0  0  0  0  0  0  0  0  0  0  0
  131.5640  122.6900   63.3650 C   0  0  0  0  0  0  0  0  0  0  0  0
  131.0020  123.3270   64.8920 S   0  0  0  0  0  0  0  0  0  0  0  0
  131.8530  124.8470   64.6220 C   0  0  0  0  0  0  0  0  0  0  0  0
  131.7510  125.9300   65.5980 C   0  0  0  0  0  0  0  0  0  0  0  0
  132.7540  126.4140   66.1270 O   0  0  0  0  0  0  0  0  0  0  0  0
  130.5000  126.3320   65.9040 N   0  0  0  0  0  0  0  0  0  0  0  0
  130.1600  127.4090   66.8320 C   0  0  0  0  0  0  0  0  0  0  0  0
  129.5900  126.9110   68.1550 C   0  0  0  0  0  0  0  0  0  0  0  0
  129.5190  125.5370   68.4070 C   0  0  0  0  0  0  0  0  0  0  0  0
  129.0280  125.0790   69.6270 C   0  0  0  0  0  0  0  0  0  0  0  0
  128.6200  125.9950   70.5940 C   0  0  0  0  0  0  0  0  0  0  0  0
  128.7030  127.3650   70.3570 C   0  0  0  0  0  0  0  0  0  0  0  0
  129.1950  127.8230   69.1370 C   0  0  0  0  0  0  0  0  0  0  0  0
  132.5230  124.8440   63.3890 C   0  0  0  0  0  0  0  0  0  0  0  0
  133.2550  125.9020   62.9150 N   0  0  0  0  0  0  0  0  0  0  0  0
  132.3820  123.6140   62.6550 C   0  0  0  0  0  0  0  0  0  0  0  0
  1  2  1  0
  2  3  2  0
  3  4  1  0
  4  5  1  0
  5  6  2  0
  6  7  1  0
  7  8  2  0
  8  9  1  0
  9 10  2  0
  4 11  2  0
 11 12  1  0
 12 13  1  0
 13 14  1  0
 14 15  1  0
 15 16  2  0
 15 17  1  0
 17 18  1  0
 18 19  1  0
 19 20  2  0
 20 21  1  0
 21 22  2  0
 22 23  1  0
 23 24  2  0
 14 25  2  0
 25 26  1  0
 25 27  1  0
 27  2  1  0
 10  5  1  0
 27 12  2  0
 24 19  1  0
M  END
>  <Binding energies>  (61) 
[-8.75]

>  <Ligand effiencies>  (61) 
[-0.2916666666666667]

>  <Interactions>  (61) 
["V-B:GLU:543:CB:9877, V-A:HIS:456:CE1:4069, V-B:GLU:543:C:9873, V-A:HIS:456:CD2:4067, V-B:GLU:543:CD:9879, V-B:HIS:456:CE1:9040, V-A:ARG:545:CZ:4925, V-A:TYR:484:CZ:4346, V-B:TYR:539:CD2:9845, V-B:TYR:539:C:9838, V-B:TYR:539:CE2:9847, V-B:GLU:543:CA:9875, V-A:ILE:369:CB:3235, V-A:LEU:475:CD2:4258, V-A:PRO:482:CG:4326, V-B:ALA:541:CB:9863, V-A:ILE:369:CG1:3237, V-A:ASP:366:CG:3212, V-B:VAL:344:CG1:7971, H-B:GLU:543:OE2:9881, V-A:ILE:369:CG2:3236, V-B:TYR:539:CB:9842, V-A:ILE:369:CD1:3238, V-A:HIS:383:CE1:3393, V-A:PRO:482:CB:4325, V-A:GLU:543:CD:4907, H-A:TYR:484:OH:4347, V-B:GLU:543:CG:9878, V-A:TYR:484:CE2:4345, H-A:ARG:545:NH2:4927, H-A:ASP:366:OD2:3214, H-A:ASP:366:OD1:3213, H-A:ARG:545:NE:4923, V-A:TYR:484:CD2:4343"]

$$$$
4dj_Grossjean_2025
     RDKit          3D

 25 28  0  0  0  0  0  0  0  0999 V2000
  133.8200  124.0770   60.4200 C   0  0  0  0  0  0  0  0  0  0  0  0
  132.9650  123.1810   61.3040 C   0  0  0  0  0  0  0  0  0  0  0  0
  132.6630  121.8940   60.8430 C   0  0  0  0  0  0  0  0  0  0  0  0
  131.8790  121.0210   61.6070 C   0  0  0  0  0  0  0  0  0  0  0  0
  131.5440  119.6330   61.1410 C   0  0  0  0  0  0  0  0  0  0  0  0
  132.3740  118.9580   60.2310 C   0  0  0  0  0  0  0  0  0  0  0  0
  132.0700  117.6720   59.7950 C   0  0  0  0  0  0  0  0  0  0  0  0
  130.9220  117.0400   60.2620 C   0  0  0  0  0  0  0  0  0  0  0  0
  130.0800  117.6850   61.1610 C   0  0  0  0  0  0  0  0  0  0  0  0
  130.3890  118.9700   61.5950 C   0  0  0  0  0  0  0  0  0  0  0  0
  131.3940  121.3750   62.8290 N   0  0  0  0  0  0  0  0  0  0  0  0
  131.6800  122.5990   63.2680 C   0  0  0  0  0  0  0  0  0  0  0  0
  131.1140  123.1860   64.8160 S   0  0  0  0  0  0  0  0  0  0  0  0
  131.9050  124.7440   64.5680 C   0  0  0  0  0  0  0  0  0  0  0  0
  131.8040  125.7940   65.5820 C   0  0  0  0  0  0  0  0  0  0  0  0
  132.8150  126.3680   65.9980 O   0  0  0  0  0  0  0  0  0  0  0  0
  130.5500  126.0670   66.0170 N   0  0  0  0  0  0  0  0  0  0  0  0
  130.1820  127.0090   66.9680 C   0  0  0  0  0  0  0  0  0  0  0  0
  130.6240  127.1260   68.2030 N   0  0  0  0  0  0  0  0  0  0  0  0
  130.0560  128.1390   68.8270 C   0  0  0  0  0  0  0  0  0  0  0  0
  129.1290  128.8720   68.0940 C   0  0  0  0  0  0  0  0  0  0  0  0
  129.0010  128.1890   66.5000 S   0  0  0  0  0  0  0  0  0  0  0  0
  132.5680  124.7830   63.3320 C   0  0  0  0  0  0  0  0  0  0  0  0
  133.2650  125.8730   62.8740 N   0  0  0  0  0  0  0  0  0  0  0  0
  132.4560  123.5680   62.5710 C   0  0  0  0  0  0  0  0  0  0  0  0
  1  2  1  0
  2  3  2  0
  3  4  1  0
  4  5  1  0
  5  6  2  0
  6  7  1  0
  7  8  2  0
  8  9  1  0
  9 10  2  0
  4 11  2  0
 11 12  1  0
 12 13  1  0
 13 14  1  0
 14 15  1  0
 15 16  2  0
 15 17  1  0
 17 18  1  0
 18 19  2  0
 19 20  1  0
 20 21  2  0
 21 22  1  0
 14 23  2  0
 23 24  1  0
 23 25  1  0
 25  2  1  0
 10  5  1  0
 25 12  2  0
 22 18  1  0
M  END
>  <Binding energies>  (62) 
[-8.27]

>  <Ligand effiencies>  (62) 
[-0.2953571428571428]

>  <Interactions>  (62) 
["V-A:HIS:456:CE1:4069, V-B:GLU:543:CD:9879, V-A:ARG:545:CZ:4925, V-A:TYR:484:CZ:4346, V-B:TYR:539:CD2:9845, V-B:TYR:539:C:9838, V-B:TYR:539:CE2:9847, V-A:ILE:369:CB:3235, V-A:LEU:475:CD2:4258, V-A:PRO:482:CG:4326, V-B:ALA:541:CB:9863, V-A:ILE:369:CG1:3237, V-A:ASP:366:CG:3212, V-B:VAL:344:CG1:7971, H-B:GLU:543:OE2:9881, V-A:ILE:369:CG2:3236, V-B:TYR:539:CB:9842, V-A:ILE:369:CD1:3238, V-A:HIS:383:CE1:3393, V-A:PRO:482:CB:4325, V-A:GLU:543:CD:4907, V-A:GLU:543:CG:4906, V-A:ASP:366:CB:3211, V-A:GLU:543:CB:4905, H-A:TYR:484:OH:4347, H-A:ARG:545:NH2:4927, H-A:ASP:366:OD2:3214, H-A:ASP:366:OD1:3213, H-A:ARG:545:NE:4923"]

$$$$
4ea_Grossjean_2025
     RDKit          3D

 31 34  0  0  0  0  0  0  0  0999 V2000
  124.2710  124.3580   57.7310 C   0  0  0  0  0  0  0  0  0  0  0  0
  124.8580  123.0230   57.2650 C   0  0  0  0  0  0  0  0  0  0  0  0
  125.9160  123.2660   56.3480 O   0  0  0  0  0  0  0  0  0  0  0  0
  127.1230  122.6620   56.4920 C   0  0  0  0  0  0  0  0  0  0  0  0
  127.5220  121.7550   55.7550 O   0  0  0  0  0  0  0  0  0  0  0  0
  127.9250  123.2070   57.6380 C   0  0  0  0  0  0  0  0  0  0  0  0
  127.7720  122.6400   58.9100 C   0  0  0  0  0  0  0  0  0  0  0  0
  128.5010  123.1230   59.9930 C   0  0  0  0  0  0  0  0  0  0  0  0
  129.3970  124.1800   59.8290 C   0  0  0  0  0  0  0  0  0  0  0  0
  130.0780  124.5840   60.9930 N   0  0  0  0  0  0  0  0  0  0  0  0
  130.4110  125.8240   61.4310 C   0  0  0  0  0  0  0  0  0  0  0  0
  130.1460  126.8650   60.8310 O   0  0  0  0  0  0  0  0  0  0  0  0
  131.1290  125.8620   62.7080 C   0  0  0  0  0  0  0  0  0  0  0  0
  132.8230  125.3700   62.7950 S   0  0  0  0  0  0  0  0  0  0  0  0
  132.8790  125.6960   64.5120 C   0  0  0  0  0  0  0  0  0  0  0  0
  133.9880  125.5060   65.2290 N   0  0  0  0  0  0  0  0  0  0  0  0
  133.9000  125.7960   66.5500 C   0  0  0  0  0  0  0  0  0  0  0  0
  135.1720  125.5730   67.3470 C   0  0  0  0  0  0  0  0  0  0  0  0
  132.7420  126.2680   67.1650 C   0  0  0  0  0  0  0  0  0  0  0  0
  131.5820  126.4660   66.4090 C   0  0  0  0  0  0  0  0  0  0  0  0
  130.3590  126.9680   67.0760 C   0  0  0  0  0  0  0  0  0  0  0  0
  129.8200  126.2780   68.1660 C   0  0  0  0  0  0  0  0  0  0  0  0
  128.6710  126.7500   68.7960 C   0  0  0  0  0  0  0  0  0  0  0  0
  128.0590  127.9120   68.3320 C   0  0  0  0  0  0  0  0  0  0  0  0
  128.5850  128.6040   67.2430 C   0  0  0  0  0  0  0  0  0  0  0  0
  129.7340  128.1310   66.6150 C   0  0  0  0  0  0  0  0  0  0  0  0
  131.6330  126.1730   65.0180 C   0  0  0  0  0  0  0  0  0  0  0  0
  130.6520  126.2580   63.9670 C   0  0  0  0  0  0  0  0  0  0  0  0
  129.3700  126.6900   64.1960 N   0  0  0  0  0  0  0  0  0  0  0  0
  129.5570  124.7550   58.5580 C   0  0  0  0  0  0  0  0  0  0  0  0
  128.8270  124.2710   57.4760 C   0  0  0  0  0  0  0  0  0  0  0  0
  1  2  1  0
  2  3  1  0
  3  4  1  0
  4  5  2  0
  4  6  1  0
  6  7  2  0
  7  8  1  0
  8  9  2  0
  9 10  1  0
 10 11  1  0
 11 12  2  0
 11 13  1  0
 13 14  1  0
 14 15  1  0
 15 16  2  0
 16 17  1  0
 17 18  1  0
 17 19  2  0
 19 20  1  0
 20 21  1  0
 21 22  2  0
 22 23  1  0
 23 24  2  0
 24 25  1  0
 25 26  2  0
 20 27  2  0
 27 28  1  0
 28 29  1  0
  9 30  1  0
 30 31  2  0
 31  6  1  0
 28 13  2  0
 27 15  1  0
 26 21  1  0
M  END
>  <Binding energies>  (63) 
[-9.34]

>  <Ligand effiencies>  (63) 
[-0.2747058823529412]

>  <Interactions>  (63) 
["V-B:GLU:543:CB:9877, V-A:HIS:456:CE1:4069, V-B:GLU:543:CD:9879, V-B:HIS:456:CE1:9040, V-B:TYR:531:CZ:9765, V-A:ARG:545:CZ:4925, V-B:PRO:540:N:9855, H-B:TYR:531:OH:9766, V-A:ARG:545:CD:4922, V-B:PRO:540:CB:9856, V-B:TYR:539:CD2:9845, V-B:TYR:539:C:9838, V-B:MET:535:CE:9806, H-B:TYR:539:N:9841, V-B:TYR:531:CE2:9764, V-B:PRO:540:CA:9854, V-B:LEU:363:CD1:8159, V-A:ARG:545:CG:4921, V-B:TYR:539:CE2:9847, V-B:TYR:539:CZ:9848, V-A:ASP:366:CG:3212, H-B:GLU:543:OE2:9881, V-A:GLU:543:CD:4907, V-A:GLU:543:CG:4906, H-B:GLU:543:OE1:9880, V-A:GLY:454:CA:4048, V-A:GLU:543:CB:4905, H-A:TYR:484:OH:4347, H-A:GLY:454:N:4049, V-B:PRO:540:CG:9857, V-B:PRO:540:CD:9858, H-A:ARG:545:NH2:4927, V-A:GLY:453:C:4041, H-A:ARG:545:NH1:4926, H-A:ARG:545:NE:4923, V-A:ARG:545:CB:4920, V-A:ILE:455:C:4051, V-A:GLY:453:CA:4043, V-A:GLY:454:C:4046, V-A:ILE:455:CA:4053"]

$$$$
4eb_Grossjean_2025
     RDKit          3D

 30 33  0  0  0  0  0  0  0  0999 V2000
  124.9490  123.5160   57.4430 C   0  0  0  0  0  0  0  0  0  0  0  0
  125.8400  123.3200   56.3550 O   0  0  0  0  0  0  0  0  0  0  0  0
  127.0360  122.7010   56.5350 C   0  0  0  0  0  0  0  0  0  0  0  0
  127.4350  121.7760   55.8230 O   0  0  0  0  0  0  0  0  0  0  0  0
  127.8240  123.2560   57.6860 C   0  0  0  0  0  0  0  0  0  0  0  0
  127.9410  122.5020   58.8610 C   0  0  0  0  0  0  0  0  0  0  0  0
  128.6640  122.9890   59.9460 C   0  0  0  0  0  0  0  0  0  0  0  0
  129.2850  124.2370   59.8800 C   0  0  0  0  0  0  0  0  0  0  0  0
  129.9890  124.6260   61.0360 N   0  0  0  0  0  0  0  0  0  0  0  0
  130.4180  125.8500   61.4330 C   0  0  0  0  0  0  0  0  0  0  0  0
  130.2440  126.8870   60.7920 O   0  0  0  0  0  0  0  0  0  0  0  0
  131.1290  125.8790   62.7140 C   0  0  0  0  0  0  0  0  0  0  0  0
  132.8210  125.3840   62.8060 S   0  0  0  0  0  0  0  0  0  0  0  0
  132.8680  125.6970   64.5270 C   0  0  0  0  0  0  0  0  0  0  0  0
  133.9720  125.5010   65.2490 N   0  0  0  0  0  0  0  0  0  0  0  0
  133.8770  125.7810   66.5710 C   0  0  0  0  0  0  0  0  0  0  0  0
  135.1450  125.5500   67.3730 C   0  0  0  0  0  0  0  0  0  0  0  0
  132.7160  126.2480   67.1830 C   0  0  0  0  0  0  0  0  0  0  0  0
  131.5600  126.4530   66.4210 C   0  0  0  0  0  0  0  0  0  0  0  0
  130.3330  126.9510   67.0860 C   0  0  0  0  0  0  0  0  0  0  0  0
  129.7790  126.2440   68.1560 C   0  0  0  0  0  0  0  0  0  0  0  0
  128.6260  126.7120   68.7830 C   0  0  0  0  0  0  0  0  0  0  0  0
  128.0270  127.8870   68.3350 C   0  0  0  0  0  0  0  0  0  0  0  0
  128.5710  128.5970   67.2670 C   0  0  0  0  0  0  0  0  0  0  0  0
  129.7230  128.1280   66.6420 C   0  0  0  0  0  0  0  0  0  0  0  0
  131.6190  126.1710   65.0290 C   0  0  0  0  0  0  0  0  0  0  0  0
  130.6450  126.2650   63.9730 C   0  0  0  0  0  0  0  0  0  0  0  0
  129.3610  126.6960   64.1970 N   0  0  0  0  0  0  0  0  0  0  0  0
  129.1740  124.9990   58.7080 C   0  0  0  0  0  0  0  0  0  0  0  0
  128.4500  124.5110   57.6240 C   0  0  0  0  0  0  0  0  0  0  0  0
  1  2  1  0
  2  3  1  0
  3  4  2  0
  3  5  1  0
  5  6  2  0
  6  7  1  0
  7  8  2  0
  8  9  1  0
  9 10  1  0
 10 11  2  0
 10 12  1  0
 12 13  1  0
 13 14  1  0
 14 15  2  0
 15 16  1  0
 16 17  1  0
 16 18  2  0
 18 19  1  0
 19 20  1  0
 20 21  2  0
 21 22  1  0
 22 23  2  0
 23 24  1  0
 24 25  2  0
 19 26  2  0
 26 27  1  0
 27 28  1  0
  8 29  1  0
 29 30  2  0
 30  5  1  0
 27 12  2  0
 26 14  1  0
 25 20  1  0
M  END
>  <Binding energies>  (64) 
[-9.09]

>  <Ligand effiencies>  (64) 
[-0.27545454545454545]

>  <Interactions>  (64) 
["V-B:GLU:543:CB:9877, V-A:HIS:456:CE1:4069, V-B:GLU:543:CD:9879, V-B:HIS:456:CE1:9040, V-A:ARG:545:CZ:4925, V-B:PRO:540:N:9855, V-A:TYR:484:CZ:4346, H-B:TYR:531:OH:9766, V-A:ARG:545:CD:4922, V-B:PRO:540:CB:9856, V-B:TYR:539:CD2:9845, V-B:TYR:539:C:9838, V-B:MET:535:CE:9806, H-B:TYR:539:N:9841, V-B:TYR:531:CE2:9764, V-B:PRO:540:CA:9854, V-B:LEU:363:CD1:8159, V-A:ARG:545:CG:4921, V-B:TYR:539:CE2:9847, V-A:ASP:366:CG:3212, H-B:GLU:543:OE2:9881, V-A:GLU:543:CD:4907, V-A:GLU:543:CG:4906, H-B:GLU:543:OE1:9880, V-A:GLY:454:CA:4048, V-A:GLU:543:CB:4905, H-A:TYR:484:OH:4347, H-A:GLY:454:N:4049, H-A:ARG:545:NH2:4927, V-A:GLY:453:C:4041, H-A:ARG:545:NH1:4926, H-A:ARG:545:NE:4923, V-A:ARG:545:CB:4920, V-A:ILE:455:C:4051, V-A:GLY:453:CA:4043, V-A:GLY:454:C:4046, V-A:ILE:455:CA:4053"]

$$$$
8b_Ghoteimi_2023
     RDKit          3D

 34 38  0  0  0  0  0  0  0  0999 V2000
  124.2880  132.3460   63.6390 C   0  0  0  0  0  0  0  0  0  0  0  0
  124.5920  131.3170   64.5750 O   0  0  0  0  0  0  0  0  0  0  0  0
  125.1580  130.1400   64.1240 C   0  0  0  0  0  0  0  0  0  0  0  0
  124.7350  129.6840   62.8770 C   0  0  0  0  0  0  0  0  0  0  0  0
  125.2500  128.5080   62.3420 C   0  0  0  0  0  0  0  0  0  0  0  0
  126.2030  127.7540   63.0420 C   0  0  0  0  0  0  0  0  0  0  0  0
  126.7580  126.4870   62.4730 C   0  0  0  0  0  0  0  0  0  0  0  0
  126.3510  125.9990   61.2270 C   0  0  0  0  0  0  0  0  0  0  0  0
  126.8860  124.8120   60.7170 C   0  0  0  0  0  0  0  0  0  0  0  0
  126.4270  124.3170   59.3990 C   0  0  0  0  0  0  0  0  0  0  0  0
  127.3410  124.1310   58.3600 C   0  0  0  0  0  0  0  0  0  0  0  0
  126.9080  123.6570   57.1250 C   0  0  0  0  0  0  0  0  0  0  0  0
  125.5610  123.3650   56.9080 C   0  0  0  0  0  0  0  0  0  0  0  0
  125.2240  122.8970   55.6520 O   0  0  0  0  0  0  0  0  0  0  0  0
  126.1820  122.1520   54.9090 C   0  0  0  0  0  0  0  0  0  0  0  0
  124.6440  123.5570   57.9530 C   0  0  0  0  0  0  0  0  0  0  0  0
  125.0770  124.0300   59.1890 C   0  0  0  0  0  0  0  0  0  0  0  0
  127.8560  124.1270   61.4960 C   0  0  0  0  0  0  0  0  0  0  0  0
  128.6010  122.9130   61.2820 C   0  0  0  0  0  0  0  0  0  0  0  0
  128.4570  122.1540   60.1490 N   0  0  0  0  0  0  0  0  0  0  0  0
  129.4760  122.5910   62.3320 C   0  0  0  0  0  0  0  0  0  0  0  0
  130.3790  121.4430   62.4450 C   0  0  0  0  0  0  0  0  0  0  0  0
  131.3150  121.4560   63.2480 O   0  0  0  0  0  0  0  0  0  0  0  0
  130.1060  120.4040   61.6160 N   0  0  0  0  0  0  0  0  0  0  0  0
  130.7900  119.2000   61.5160 C   0  0  0  0  0  0  0  0  0  0  0  0
  132.1010  119.1060   61.0520 C   0  0  0  0  0  0  0  0  0  0  0  0
  132.4040  117.7650   61.1020 C   0  0  0  0  0  0  0  0  0  0  0  0
  131.3330  117.0860   61.5760 O   0  0  0  0  0  0  0  0  0  0  0  0
  130.3150  118.0070   61.8370 N   0  0  0  0  0  0  0  0  0  0  0  0
  129.3980  123.7950   63.6190 S   0  0  0  0  0  0  0  0  0  0  0  0
  128.1980  124.7190   62.7460 C   0  0  0  0  0  0  0  0  0  0  0  0
  127.6870  125.8480   63.2350 N   0  0  0  0  0  0  0  0  0  0  0  0
  126.6260  128.2200   64.2950 C   0  0  0  0  0  0  0  0  0  0  0  0
  126.1120  129.3970   64.8330 C   0  0  0  0  0  0  0  0  0  0  0  0
  1  2  1  0
  2  3  1  0
  3  4  2  0
  4  5  1  0
  5  6  2  0
  6  7  1  0
  7  8  2  0
  8  9  1  0
  9 10  1  0
 10 11  2  0
 11 12  1  0
 12 13  2  0
 13 14  1  0
 14 15  1  0
 13 16  1  0
 16 17  2  0
  9 18  2  0
 18 19  1  0
 19 20  1  0
 19 21  2  0
 21 22  1  0
 22 23  2  0
 22 24  1  0
 24 25  1  0
 25 26  1  0
 26 27  2  0
 27 28  1  0
 28 29  1  0
 21 30  1  0
 30 31  1  0
 31 32  2  0
  6 33  1  0
 33 34  2  0
 34  3  1  0
 32  7  1  0
 17 10  1  0
 31 18  1  0
 29 25  2  0
M  END
>  <Binding energies>  (65) 
[-8.09]

>  <Ligand effiencies>  (65) 
[-0.21864864864864864]

>  <Interactions>  (65) 
["V-B:GLU:543:CD:9879, V-B:ASP:366:CG:8183, V-B:TYR:531:CZ:9765, V-B:PRO:540:N:9855, H-B:TYR:531:OH:9766, V-B:PRO:540:CB:9856, V-B:TYR:539:CD2:9845, V-B:TYR:539:C:9838, V-B:MET:535:CE:9806, V-B:TYR:531:CE2:9764, V-B:PRO:540:CA:9854, V-B:LEU:363:CD1:8159, V-B:TYR:539:CE2:9847, V-B:LEU:475:CD1:9228, V-B:ARG:545:CZ:9897, V-B:GLY:454:CA:9019, V-A:LEU:475:CD2:4258, V-B:ILE:538:CB:9833, V-B:ALA:541:CB:9863, V-A:SER:385:CB:3408, V-B:MET:535:CG:9804, V-B:ILE:538:CD1:9836, V-B:ILE:538:CG2:9834, V-B:ILE:538:CA:9831, V-A:SER:385:CA:3406, V-B:ILE:538:C:9829, H-B:GLY:454:N:9020, V-B:PRO:540:C:9852, H-A:HIS:383:ND1:3390, H-B:TYR:539:O:9839, V-B:ILE:538:CG1:9835, V-B:VAL:537:C:9821"]

$$$$
9d_Ghoteimi_2023
     RDKit          3D

 38 43  0  0  0  0  0  0  0  0999 V2000
  135.3030  125.0810   76.4190 C   0  0  0  0  0  0  0  0  0  0  0  0
  134.0830  125.7360   76.7360 O   0  0  0  0  0  0  0  0  0  0  0  0
  133.7060  126.8620   76.0750 C   0  0  0  0  0  0  0  0  0  0  0  0
  134.2530  127.9590   76.2130 O   0  0  0  0  0  0  0  0  0  0  0  0
  132.5600  126.6400   75.1660 C   0  0  0  0  0  0  0  0  0  0  0  0
  131.9890  127.9520   74.1360 S   0  0  0  0  0  0  0  0  0  0  0  0
  130.7590  126.9240   73.4400 C   0  0  0  0  0  0  0  0  0  0  0  0
  129.9410  127.3640   72.4850 N   0  0  0  0  0  0  0  0  0  0  0  0
  129.0300  126.4810   71.9980 C   0  0  0  0  0  0  0  0  0  0  0  0
  128.1390  126.9890   70.9090 C   0  0  0  0  0  0  0  0  0  0  0  0
  128.6390  127.8520   69.9280 C   0  0  0  0  0  0  0  0  0  0  0  0
  127.8170  128.3320   68.9120 C   0  0  0  0  0  0  0  0  0  0  0  0
  126.4670  127.9560   68.8320 C   0  0  0  0  0  0  0  0  0  0  0  0
  125.6250  128.4440   67.8270 N   0  0  0  0  0  0  0  0  0  0  0  0
  124.4260  129.2440   68.1500 C   0  0  0  0  0  0  0  0  0  0  0  0
  123.4420  129.3970   66.9720 C   0  0  0  0  0  0  0  0  0  0  0  0
  124.1160  129.9250   65.8420 O   0  0  0  0  0  0  0  0  0  0  0  0
  125.1660  129.0710   65.4180 C   0  0  0  0  0  0  0  0  0  0  0  0
  126.2050  128.9050   66.5480 C   0  0  0  0  0  0  0  0  0  0  0  0
  125.9680  127.1020   69.8270 C   0  0  0  0  0  0  0  0  0  0  0  0
  126.7890  126.6250   70.8450 C   0  0  0  0  0  0  0  0  0  0  0  0
  128.9190  125.1770   72.4880 C   0  0  0  0  0  0  0  0  0  0  0  0
  129.7640  124.7170   73.5040 C   0  0  0  0  0  0  0  0  0  0  0  0
  129.5840  123.3300   74.0080 C   0  0  0  0  0  0  0  0  0  0  0  0
  130.6550  122.4340   74.0260 C   0  0  0  0  0  0  0  0  0  0  0  0
  130.4870  121.1410   74.5170 C   0  0  0  0  0  0  0  0  0  0  0  0
  129.2460  120.7170   75.0180 C   0  0  0  0  0  0  0  0  0  0  0  0
  129.0500  119.4230   75.5060 N   0  0  0  0  0  0  0  0  0  0  0  0
  127.8400  118.6800   75.1030 C   0  0  0  0  0  0  0  0  0  0  0  0
  127.9350  117.1650   75.3820 C   0  0  0  0  0  0  0  0  0  0  0  0
  128.2350  116.9400   76.7520 O   0  0  0  0  0  0  0  0  0  0  0  0
  129.4700  117.5350   77.1230 C   0  0  0  0  0  0  0  0  0  0  0  0
  129.4100  119.0590   76.8900 C   0  0  0  0  0  0  0  0  0  0  0  0
  128.1780  121.6250   74.9930 C   0  0  0  0  0  0  0  0  0  0  0  0
  128.3460  122.9160   74.5010 C   0  0  0  0  0  0  0  0  0  0  0  0
  130.7520  125.6120   74.0000 C   0  0  0  0  0  0  0  0  0  0  0  0
  131.8070  125.4760   74.9700 C   0  0  0  0  0  0  0  0  0  0  0  0
  132.0650  124.3010   75.6290 N   0  0  0  0  0  0  0  0  0  0  0  0
  1  2  1  0
  2  3  1  0
  3  4  2  0
  3  5  1  0
  5  6  1  0
  6  7  1  0
  7  8  2  0
  8  9  1  0
  9 10  1  0
 10 11  2  0
 11 12  1  0
 12 13  2  0
 13 14  1  0
 14 15  1  0
 15 16  1  0
 16 17  1  0
 17 18  1  0
 18 19  1  0
 13 20  1  0
 20 21  2  0
  9 22  2  0
 22 23  1  0
 23 24  1  0
 24 25  2  0
 25 26  1  0
 26 27  2  0
 27 28  1  0
 28 29  1  0
 29 30  1  0
 30 31  1  0
 31 32  1  0
 32 33  1  0
 27 34  1  0
 34 35  2  0
 23 36  2  0
 36 37  1  0
 37 38  1  0
 37  5  2  0
 36  7  1  0
 21 10  1  0
 35 24  1  0
 19 14  1  0
 33 28  1  0
M  END
>  <Binding energies>  (66) 
[-9.13]

>  <Ligand effiencies>  (66) 
[-0.22825]

>  <Interactions>  (66) 
["V-B:GLU:543:CB:9877, V-A:HIS:456:CE1:4069, V-B:GLU:543:C:9873, V-B:GLY:544:C:9883, V-A:HIS:456:CD2:4067, V-A:HIS:456:C:4060, V-B:ARG:545:CA:9890, V-A:HIS:456:CB:4064, V-A:VAL:457:C:4072, V-B:ARG:545:CD:9894, V-B:GLU:543:CD:9879, V-B:HIS:456:CE1:9040, V-A:HIS:456:CG:4065, V-B:ARG:545:CG:9893, H-A:HIS:456:ND1:4066, V-B:ARG:545:CZ:9897, V-A:GLY:544:C:4911, H-B:TYR:484:OH:9318, H-B:GLY:454:N:9020, V-B:TYR:484:CZ:9317, H-A:ASP:473:OD2:4241, V-B:LYS:547:CE:9921, V-A:VAL:458:CG2:4086, V-A:TYR:484:CG:4341, V-A:TYR:484:CB:4340, V-A:ASP:473:CG:4239, V-A:VAL:457:CA:4074, V-A:PRO:486:CD:4365, V-A:ASP:485:CG:4355"]

$$$$
RR10_Rahimova_2017
     RDKit          3D

 34 38  0  0  0  0  0  0  0  0999 V2000
  124.5810  135.5350   59.4990 C   0  0  0  0  0  0  0  0  0  0  0  0
  125.2660  135.0940   60.8040 C   0  0  1  0  0  0  0  0  0  0  0  0
  125.6880  133.6060   60.7590 C   0  0  0  0  0  0  0  0  0  0  0  0
  126.3420  133.1760   62.0920 C   0  0  0  0  0  0  0  0  0  0  0  0
  127.5780  134.0450   62.4440 C   0  0  1  0  0  0  0  0  0  0  0  0
  128.6760  133.7920   61.5020 N   0  0  0  0  0  0  0  0  0  0  0  0
  129.7930  133.0930   61.7750 C   0  0  0  0  0  0  0  0  0  0  0  0
  130.0020  132.5610   62.8680 O   0  0  0  0  0  0  0  0  0  0  0  0
  130.8400  132.9890   60.6460 C   0  0  1  0  0  0  0  0  0  0  0  0
  131.8140  131.8220   60.9550 C   0  0  0  0  0  0  0  0  0  0  0  0
  132.8080  131.6540   59.7810 C   0  0  0  0  0  0  0  0  0  0  0  0
  132.0960  131.5350   58.4130 C   0  0  0  0  0  0  0  0  0  0  0  0
  131.1340  132.6540   58.2230 N   0  0  0  0  0  0  0  0  0  0  0  0
  130.4830  132.7900   56.5810 S   0  0  0  0  0  0  0  0  0  0  0  0
  131.5800  132.5520   55.6340 O   0  0  0  0  0  0  0  0  0  0  0  0
  129.6990  134.0290   56.5070 O   0  0  0  0  0  0  0  0  0  0  0  0
  129.3510  131.4100   56.4130 C   0  0  0  0  0  0  0  0  0  0  0  0
  128.2900  131.5010   55.5060 C   0  0  0  0  0  0  0  0  0  0  0  0
  127.3710  130.4620   55.3300 C   0  0  0  0  0  0  0  0  0  0  0  0
  127.5670  129.3180   56.1080 C   0  0  0  0  0  0  0  0  0  0  0  0
  126.8990  128.1220   56.2270 N   0  0  0  0  0  0  0  0  0  0  0  0
  127.5570  127.3600   57.1700 C   0  0  0  0  0  0  0  0  0  0  0  0
  127.1170  125.9850   57.5810 C   0  0  0  0  0  0  0  0  0  0  0  0
  127.9810  124.8900   57.4370 C   0  0  0  0  0  0  0  0  0  0  0  0
  127.5750  123.6150   57.8220 C   0  0  0  0  0  0  0  0  0  0  0  0
  126.3020  123.4270   58.3520 C   0  0  0  0  0  0  0  0  0  0  0  0
  125.4320  124.5030   58.5020 C   0  0  0  0  0  0  0  0  0  0  0  0
  125.8390  125.7780   58.1170 C   0  0  0  0  0  0  0  0  0  0  0  0
  128.6060  127.9830   57.6600 N   0  0  0  0  0  0  0  0  0  0  0  0
  128.6370  129.1960   57.0260 C   0  0  0  0  0  0  0  0  0  0  0  0
  129.5440  130.2540   57.1790 C   0  0  0  0  0  0  0  0  0  0  0  0
  130.1160  132.7490   59.2990 C   0  0  0  0  0  0  0  0  0  0  0  0
  127.1430  135.5350   62.4670 C   0  0  0  0  0  0  0  0  0  0  0  0
  126.4960  135.9710   61.1340 C   0  0  0  0  0  0  0  0  0  0  0  0
  2  1  1  6
  2  3  1  0
  3  4  1  0
  4  5  1  0
  5  6  1  6
  6  7  1  0
  7  8  2  0
  9  7  1  1
  9 10  1  0
 10 11  1  0
 11 12  1  0
 12 13  1  0
 13 14  1  0
 14 15  2  0
 14 16  2  0
 14 17  1  0
 17 18  2  0
 18 19  1  0
 19 20  2  0
 20 21  1  0
 21 22  1  0
 22 23  1  0
 23 24  2  0
 24 25  1  0
 25 26  2  0
 26 27  1  0
 27 28  2  0
 22 29  2  0
 29 30  1  0
 30 31  2  0
 13 32  1  0
  5 33  1  0
 33 34  1  0
 34  2  1  0
 32  9  1  0
 31 17  1  0
 30 20  1  0
 28 23  1  0
M  END
>  <Binding energies>  (67) 
[-10.57]

>  <Ligand effiencies>  (67) 
[-0.2936111111111111]

>  <Interactions>  (67) 
["V-B:TYR:531:CZ:9765, V-B:PRO:540:N:9855, H-B:TYR:531:OH:9766, V-B:PRO:540:CB:9856, V-B:MET:535:CE:9806, V-B:PRO:540:CA:9854, V-B:LEU:475:CD1:9228, V-A:PRO:540:C:4880, H-A:TYR:531:OH:4794, V-A:PRO:540:CA:4882, V-A:TYR:539:CD1:4872, V-A:PRO:540:N:4883, V-A:PRO:540:CB:4884, V-A:TYR:539:C:4866, V-A:TYR:539:CE1:4874, H-A:TYR:539:N:4869, V-A:MET:535:CE:4834, H-A:ALA:541:N:4890, H-A:TYR:539:O:4867, V-A:ALA:541:CB:4891, V-B:ILE:369:CG2:8207, V-A:TYR:539:CZ:4876, V-B:TYR:531:CE1:9763, V-A:ALA:541:CA:4889, V-B:SER:385:CB:8379"]

$$$$
RR12_Rahimova_2017
     RDKit          3D

 26 28  0  0  0  0  0  0  0  0999 V2000
  123.7750  123.2740   62.0250 C   0  0  0  0  0  0  0  0  0  0  0  0
  125.2610  123.4500   61.6850 C   0  0  0  0  0  0  0  0  0  0  0  0
  125.4930  124.4730   60.5580 C   0  0  0  0  0  0  0  0  0  0  0  0
  126.4190  123.9430   59.5610 N   0  0  0  0  0  0  0  0  0  0  0  0
  127.7950  123.8140   59.6720 C   0  0  0  0  0  0  0  0  0  0  0  0
  128.5940  124.2640   60.8830 C   0  0  0  0  0  0  0  0  0  0  0  0
  129.9330  123.5150   61.0140 C   0  0  0  0  0  0  0  0  0  0  0  0
  129.7720  121.9860   60.9130 C   0  0  0  0  0  0  0  0  0  0  0  0
  131.0080  121.2450   61.1630 N   0  0  0  0  0  0  0  0  0  0  0  0
  132.2500  121.7320   60.9870 C   0  0  0  0  0  0  0  0  0  0  0  0
  132.4760  122.8760   60.5860 O   0  0  0  0  0  0  0  0  0  0  0  0
  133.3950  120.7690   61.3250 C   0  0  0  0  0  0  0  0  0  0  0  0
  132.8550  119.5400   61.8130 O   0  0  0  0  0  0  0  0  0  0  0  0
  132.2600  118.6620   60.9270 C   0  0  0  0  0  0  0  0  0  0  0  0
  131.1000  118.0240   61.3700 C   0  0  0  0  0  0  0  0  0  0  0  0
  130.4280  117.1250   60.5460 C   0  0  0  0  0  0  0  0  0  0  0  0
  130.9180  116.8620   59.2700 C   0  0  0  0  0  0  0  0  0  0  0  0
  132.0760  117.4880   58.8130 C   0  0  0  0  0  0  0  0  0  0  0  0
  132.7470  118.3860   59.6380 C   0  0  0  0  0  0  0  0  0  0  0  0
  128.3530  123.2770   58.6150 N   0  0  0  0  0  0  0  0  0  0  0  0
  127.3150  123.0090   57.7670 C   0  0  0  0  0  0  0  0  0  0  0  0
  127.3440  122.4190   56.4950 C   0  0  0  0  0  0  0  0  0  0  0  0
  126.1340  122.2450   55.8230 C   0  0  0  0  0  0  0  0  0  0  0  0
  124.9240  122.6430   56.3940 C   0  0  0  0  0  0  0  0  0  0  0  0
  124.8620  123.2340   57.6580 C   0  0  0  0  0  0  0  0  0  0  0  0
  126.0780  123.4100   58.3310 C   0  0  0  0  0  0  0  0  0  0  0  0
  1  2  1  0
  2  3  1  0
  3  4  1  0
  4  5  1  0
  5  6  1  0
  6  7  1  0
  7  8  1  0
  8  9  1  0
  9 10  1  0
 10 11  2  0
 10 12  1  0
 12 13  1  0
 13 14  1  0
 14 15  2  0
 15 16  1  0
 16 17  2  0
 17 18  1  0
 18 19  2  0
  5 20  2  0
 20 21  1  0
 21 22  2  0
 22 23  1  0
 23 24  2  0
 24 25  1  0
 25 26  2  0
 26  4  1  0
 19 14  1  0
 26 21  1  0
M  END
>  <Binding energies>  (68) 
[-7.45]

>  <Ligand effiencies>  (68) 
[-0.2759259259259259]

>  <Interactions>  (68) 
["V-B:PRO:540:N:9855, V-B:PRO:540:CB:9856, V-B:TYR:539:CD2:9845, V-B:TYR:539:C:9838, V-B:MET:535:CE:9806, V-B:TYR:531:CE2:9764, V-B:PRO:540:CA:9854, V-B:LEU:363:CD1:8159, V-B:TYR:539:CE2:9847, V-A:LEU:475:CD2:4258, V-A:PRO:482:CG:4326, V-A:SER:385:CB:3408, V-B:VAL:344:CG1:7971, V-B:TYR:539:CE1:9846, V-B:MET:535:CG:9804, V-B:TYR:539:CA:9840, V-B:TYR:539:CD1:9844, V-A:ILE:369:CG2:3236, V-B:ILE:538:CD1:9836, V-B:TYR:539:CB:9842, V-B:TYR:539:CG:9843, V-B:ILE:538:CG2:9834, V-A:HIS:383:CE1:3393, V-A:PRO:482:CB:4325, V-B:ILE:538:CA:9831, V-A:SER:385:CA:3406, V-B:PRO:540:CD:9858, V-B:ILE:538:C:9829, V-A:LEU:373:CG:3278, V-A:LEU:373:CD2:3280, V-B:PRO:540:C:9852, V-B:ASN:362:CB:8146, H-B:TYR:539:O:9839, V-A:LEU:373:CD1:3279, V-A:HIS:383:CG:3389"]

$$$$
RR13_Rahimova_2017
     RDKit          3D

 48 54  0  0  0  0  0  0  0  0999 V2000
  127.6020  131.3420   59.4840 Cl  0  0  0  0  0  0  0  0  0  0  0  0
  127.9080  131.2360   61.1850 C   0  0  0  0  0  0  0  0  0  0  0  0
  126.8460  131.4960   62.0540 C   0  0  0  0  0  0  0  0  0  0  0  0
  127.0330  131.4490   63.4330 C   0  0  0  0  0  0  0  0  0  0  0  0
  128.2880  131.1420   63.9530 C   0  0  0  0  0  0  0  0  0  0  0  0
  129.3520  130.8820   63.0920 C   0  0  0  0  0  0  0  0  0  0  0  0
  129.1800  130.9130   61.6990 C   0  0  0  0  0  0  0  0  0  0  0  0
  130.3820  130.6450   60.7660 C   0  0  1  0  0  0  0  0  0  0  0  0
  131.6090  131.4640   61.1980 C   0  0  0  0  0  0  0  0  0  0  0  0
  131.6890  132.2730   62.2310 N   0  0  0  0  0  0  0  0  0  0  0  0
  132.9750  132.8040   62.2000 N   0  0  0  0  0  0  0  0  0  0  0  0
  133.6650  132.3110   61.1110 N   0  0  0  0  0  0  0  0  0  0  0  0
  132.7940  131.5060   60.4940 N   0  0  0  0  0  0  0  0  0  0  0  0
  133.1890  130.7650   59.3020 C   0  0  0  0  0  0  0  0  0  0  0  0
  133.5180  131.7380   58.1540 C   0  0  0  0  0  0  0  0  0  0  0  0
  132.2650  132.2710   57.4760 C   0  0  0  0  0  0  0  0  0  0  0  0
  132.3720  133.2420   56.4770 C   0  0  0  0  0  0  0  0  0  0  0  0
  131.2240  133.7350   55.8620 C   0  0  0  0  0  0  0  0  0  0  0  0
  129.9730  133.2550   56.2490 C   0  0  0  0  0  0  0  0  0  0  0  0
  129.8610  132.2880   57.2450 C   0  0  0  0  0  0  0  0  0  0  0  0
  131.0080  131.7940   57.8600 C   0  0  0  0  0  0  0  0  0  0  0  0
  130.6930  129.2050   60.6030 N   0  0  0  0  0  0  0  0  0  0  0  0
  129.9050  128.6270   59.4990 C   0  0  0  0  0  0  0  0  0  0  0  0
  130.3200  127.1610   59.2370 C   0  0  0  0  0  0  0  0  0  0  0  0
  130.0780  126.3310   60.4290 N   0  0  0  0  0  0  0  0  0  0  0  0
  130.3860  124.9010   60.1960 C   0  0  1  0  0  0  0  0  0  0  0  0
  129.3160  124.1100   59.4110 C   0  0  0  0  0  0  0  0  0  0  0  0
  129.2220  124.3540   58.0340 C   0  0  0  0  0  0  0  0  0  0  0  0
  128.2970  123.6730   57.2430 C   0  0  0  0  0  0  0  0  0  0  0  0
  127.4450  122.7370   57.8210 C   0  0  0  0  0  0  0  0  0  0  0  0
  127.5110  122.4920   59.1900 C   0  0  0  0  0  0  0  0  0  0  0  0
  128.4320  123.1710   59.9920 C   0  0  0  0  0  0  0  0  0  0  0  0
  128.3890  122.8460   61.6930 Cl  0  0  0  0  0  0  0  0  0  0  0  0
  131.7670  124.6760   59.5760 C   0  0  0  0  0  0  0  0  0  0  0  0
  132.1500  125.1010   58.3940 N   0  0  0  0  0  0  0  0  0  0  0  0
  133.4710  124.6900   58.2500 N   0  0  0  0  0  0  0  0  0  0  0  0
  133.8840  124.0180   59.3830 N   0  0  0  0  0  0  0  0  0  0  0  0
  132.8220  124.0400   60.1960 N   0  0  0  0  0  0  0  0  0  0  0  0
  132.8880  123.3930   61.5020 C   0  0  0  0  0  0  0  0  0  0  0  0
  131.6980  122.4340   61.6880 C   0  0  0  0  0  0  0  0  0  0  0  0
  132.0140  121.0270   61.2070 C   0  0  0  0  0  0  0  0  0  0  0  0
  131.0650  120.0110   61.3480 C   0  0  0  0  0  0  0  0  0  0  0  0
  131.3520  118.7240   60.9010 C   0  0  0  0  0  0  0  0  0  0  0  0
  132.5880  118.4570   60.3150 C   0  0  0  0  0  0  0  0  0  0  0  0
  133.5390  119.4660   60.1710 C   0  0  0  0  0  0  0  0  0  0  0  0
  133.2520  120.7530   60.6160 C   0  0  0  0  0  0  0  0  0  0  0  0
  130.8730  126.9090   61.5280 C   0  0  0  0  0  0  0  0  0  0  0  0
  130.4460  128.3720   61.7930 C   0  0  0  0  0  0  0  0  0  0  0  0
  1  2  1  0
  2  3  2  0
  3  4  1  0
  4  5  2  0
  5  6  1  0
  6  7  2  0
  7  8  1  0
  8  9  1  0
  9 10  2  0
 10 11  1  0
 11 12  2  0
 12 13  1  0
 13 14  1  0
 14 15  1  0
 15 16  1  0
 16 17  2  0
 17 18  1  0
 18 19  2  0
 19 20  1  0
 20 21  2  0
  8 22  1  1
 22 23  1  0
 23 24  1  0
 24 25  1  0
 26 25  1  6
 26 27  1  0
 27 28  2  0
 28 29  1  0
 29 30  2  0
 30 31  1  0
 31 32  2  0
 32 33  1  0
 26 34  1  0
 34 35  2  0
 35 36  1  0
 36 37  2  0
 37 38  1  0
 38 39  1  0
 39 40  1  0
 40 41  1  0
 41 42  2  0
 42 43  1  0
 43 44  2  0
 44 45  1  0
 45 46  2  0
 25 47  1  0
 47 48  1  0
  7  2  1  0
 13  9  1  0
 21 16  1  0
 48 22  1  0
 32 27  1  0
 38 34  1  0
 46 41  1  0
M  END
>  <Binding energies>  (69) 
[-13.64]

>  <Ligand effiencies>  (69) 
[-0.2841666666666667]

>  <Interactions>  (69) 
["V-B:PRO:540:N:9855, V-B:PRO:540:CB:9856, V-B:TYR:539:CD2:9845, V-B:TYR:539:C:9838, V-B:MET:535:CE:9806, V-B:PRO:540:CA:9854, V-B:TYR:539:CE2:9847, V-A:LEU:475:CD2:4258, H-B:TYR:539:OH:9849, V-B:TYR:539:CZ:9848, V-A:ASP:366:CG:3212, V-A:ILE:369:CG2:3236, V-A:ILE:369:CD1:3238, V-A:GLU:543:CD:4907, V-A:GLU:543:CG:4906, V-A:ASP:366:CB:3211, V-A:SER:385:CA:3406, V-A:TYR:531:CE2:4792, V-A:LEU:363:CA:3184, V-A:LEU:363:CD1:3188, V-A:PRO:540:CA:4882, V-A:TYR:539:CD1:4872, V-A:PRO:540:CD:4886, V-A:ILE:538:CG2:4862, V-A:PRO:540:N:4883, V-A:PRO:540:CB:4884, V-A:TYR:539:CE1:4874, V-A:ILE:538:CB:4861, V-A:ILE:538:CA:4859, V-A:LEU:363:CB:3186, H-A:ALA:541:N:4890, H-A:LEU:363:N:3185, V-A:ILE:538:C:4857"]

$$$$
RR14_Rahimova_2017
     RDKit          3D

 39 43  0  0  0  0  0  0  0  0999 V2000
  131.1640  117.3930   59.8680 C   0  0  0  0  0  0  0  0  0  0  0  0
  131.2410  118.1050   61.0980 O   0  0  0  0  0  0  0  0  0  0  0  0
  131.4890  119.4640   61.0750 C   0  0  0  0  0  0  0  0  0  0  0  0
  132.7920  119.8530   60.7620 C   0  0  0  0  0  0  0  0  0  0  0  0
  133.1420  121.2000   60.7380 C   0  0  0  0  0  0  0  0  0  0  0  0
  132.1870  122.1750   61.0360 C   0  0  0  0  0  0  0  0  0  0  0  0
  132.5830  123.6460   61.0760 C   0  0  0  0  0  0  0  0  0  0  0  0
  132.6890  124.2530   59.7490 N   0  0  0  0  0  0  0  0  0  0  0  0
  133.7250  123.9620   58.9530 N   0  0  0  0  0  0  0  0  0  0  0  0
  133.5190  124.7210   57.8180 N   0  0  0  0  0  0  0  0  0  0  0  0
  132.3550  125.4710   57.9490 N   0  0  0  0  0  0  0  0  0  0  0  0
  131.8720  125.1760   59.1320 C   0  0  0  0  0  0  0  0  0  0  0  0
  130.6090  125.7720   59.7390 C   0  0  0  0  0  0  0  0  0  0  0  0
  129.7660  126.4430   58.7350 N   0  0  0  0  0  0  0  0  0  0  0  0
  128.6780  125.5760   58.2640 C   0  0  0  0  0  0  0  0  0  0  0  0
  128.2910  124.4740   59.2740 C   0  0  0  0  0  0  0  0  0  0  0  0
  128.3500  123.0480   58.6880 C   0  0  0  0  0  0  0  0  0  0  0  0
  127.1690  122.6990   57.8910 N   0  0  0  0  0  0  0  0  0  0  0  0
  127.5410  122.5040   56.4840 C   0  0  0  0  0  0  0  0  0  0  0  0
  126.3110  122.1860   55.6080 C   0  0  0  0  0  0  0  0  0  0  0  0
  125.3210  123.1960   55.7700 O   0  0  0  0  0  0  0  0  0  0  0  0
  124.8780  123.3050   57.1180 C   0  0  0  0  0  0  0  0  0  0  0  0
  126.0650  123.6590   58.0390 C   0  0  0  0  0  0  0  0  0  0  0  0
  129.2250  127.6950   59.2850 C   0  0  0  0  0  0  0  0  0  0  0  0
  129.6980  128.9820   58.6140 C   0  0  0  0  0  0  0  0  0  0  0  0
  130.8860  129.5470   58.9430 C   0  0  0  0  0  0  0  0  0  0  0  0
  131.3490  130.8130   58.3380 C   0  0  0  0  0  0  0  0  0  0  0  0
  132.5810  131.4160   58.6410 C   0  0  0  0  0  0  0  0  0  0  0  0
  133.5500  130.7940   59.6380 C   0  0  0  0  0  0  0  0  0  0  0  0
  132.9250  132.6140   58.0100 C   0  0  0  0  0  0  0  0  0  0  0  0
  132.0620  133.2080   57.0900 C   0  0  0  0  0  0  0  0  0  0  0  0
  130.8350  132.6140   56.7800 C   0  0  0  0  0  0  0  0  0  0  0  0
  129.9140  133.2860   55.7690 C   0  0  0  0  0  0  0  0  0  0  0  0
  130.4790  131.4110   57.4080 C   0  0  0  0  0  0  0  0  0  0  0  0
  129.2490  130.7770   57.1290 N   0  0  0  0  0  0  0  0  0  0  0  0
  128.7840  129.6180   57.6590 C   0  0  0  0  0  0  0  0  0  0  0  0
  127.6790  129.1840   57.3360 O   0  0  0  0  0  0  0  0  0  0  0  0
  130.8740  121.7970   61.3220 C   0  0  0  0  0  0  0  0  0  0  0  0
  130.5260  120.4500   61.3460 C   0  0  0  0  0  0  0  0  0  0  0  0
  1  2  1  0
  2  3  1  0
  3  4  2  0
  4  5  1  0
  5  6  2  0
  6  7  1  0
  7  8  1  0
  8  9  1  0
  9 10  2  0
 10 11  1  0
 11 12  2  0
 12 13  1  0
 13 14  1  0
 14 15  1  0
 15 16  1  0
 16 17  1  0
 17 18  1  0
 18 19  1  0
 19 20  1  0
 20 21  1  0
 21 22  1  0
 22 23  1  0
 14 24  1  0
 24 25  1  0
 25 26  2  0
 26 27  1  0
 27 28  2  0
 28 29  1  0
 28 30  1  0
 30 31  2  0
 31 32  1  0
 32 33  1  0
 32 34  2  0
 34 35  1  0
 35 36  1  0
 36 37  2  0
  6 38  1  0
 38 39  2  0
 39  3  1  0
 12  8  1  0
 23 18  1  0
 36 25  1  0
 34 27  1  0
M  END
>  <Binding energies>  (70) 
[-11.27]

>  <Ligand effiencies>  (70) 
[-0.28175]

>  <Interactions>  (70) 
["H-B:TYR:531:OH:9766, V-B:PRO:540:CB:9856, V-B:TYR:539:CD2:9845, V-B:TYR:539:C:9838, V-B:MET:535:CE:9806, V-B:TYR:531:CE2:9764, V-B:PRO:540:CA:9854, V-B:LEU:363:CD1:8159, V-B:TYR:539:CE2:9847, V-A:LEU:475:CD2:4258, V-B:ALA:541:CB:9863, H-B:TYR:539:OH:9849, V-B:TYR:539:CZ:9848, V-A:ASP:366:CG:3212, V-B:TYR:539:CE1:9846, V-B:MET:535:CG:9804, V-B:TYR:539:CD1:9844, V-A:ILE:369:CG2:3236, V-B:ILE:538:CD1:9836, V-B:TYR:539:CB:9842, V-B:TYR:539:CG:9843, V-B:ILE:538:CG2:9834, V-A:HIS:383:CE1:3393, V-B:ILE:538:CA:9831, V-A:ASP:366:CB:3211, V-A:SER:385:CA:3406, V-A:ASN:362:C:3171, V-A:LEU:363:CA:3184, V-A:LEU:363:CD1:3188, V-A:PRO:540:CA:4882, V-A:TYR:539:CD1:4872, V-A:PRO:540:CD:4886, V-A:PRO:540:N:4883, V-A:PRO:540:CB:4884, V-A:TYR:539:CE1:4874, V-A:ILE:538:CA:4859, V-B:ILE:538:C:9829"]

$$$$
RR15_Rahimova_2017
     RDKit          3D

 45 49  0  0  0  0  0  0  0  0999 V2000
  125.5940  122.2080   55.2230 C   0  0  0  0  0  0  0  0  0  0  0  0
  126.3550  123.2720   55.7850 O   0  0  0  0  0  0  0  0  0  0  0  0
  126.6610  123.2510   57.1350 C   0  0  0  0  0  0  0  0  0  0  0  0
  127.9090  122.8570   57.6430 C   0  0  0  0  0  0  0  0  0  0  0  0
  128.1520  122.8580   59.0140 C   0  0  0  0  0  0  0  0  0  0  0  0
  127.1570  123.2480   59.9170 C   0  0  0  0  0  0  0  0  0  0  0  0
  127.4170  123.2420   61.3980 C   0  0  0  0  0  0  0  0  0  0  0  0
  126.5040  122.8770   62.2880 N   0  0  0  0  0  0  0  0  0  0  0  0
  127.1020  123.0100   63.5240 N   0  0  0  0  0  0  0  0  0  0  0  0
  128.3410  123.4080   63.2330 N   0  0  0  0  0  0  0  0  0  0  0  0
  129.2830  123.8300   64.2690 C   0  0  0  0  0  0  0  0  0  0  0  0
  130.4600  122.8520   64.5120 C   0  0  0  0  0  0  0  0  0  0  0  0
  130.2500  121.8440   65.1910 O   0  0  0  0  0  0  0  0  0  0  0  0
  131.6810  123.1100   63.9510 N   0  0  0  0  0  0  0  0  0  0  0  0
  132.5200  122.0240   63.4050 C   0  0  0  0  0  0  0  0  0  0  0  0
  132.2000  121.6750   61.9360 C   0  0  0  0  0  0  0  0  0  0  0  0
  131.1300  120.5730   61.7480 C   0  0  0  0  0  0  0  0  0  0  0  0
  131.4390  119.6270   60.6710 N   0  0  0  0  0  0  0  0  0  0  0  0
  132.8580  119.6180   60.2860 C   0  0  0  0  0  0  0  0  0  0  0  0
  133.1450  118.5480   59.2120 C   0  0  0  0  0  0  0  0  0  0  0  0
  132.7000  117.2710   59.6580 O   0  0  0  0  0  0  0  0  0  0  0  0
  131.3030  117.2500   59.9330 C   0  0  0  0  0  0  0  0  0  0  0  0
  130.9670  118.2830   61.0300 C   0  0  0  0  0  0  0  0  0  0  0  0
  132.1810  124.4900   63.6650 C   0  0  2  0  0  0  0  0  0  0  0  0
  133.3290  124.5460   62.6090 C   0  0  0  0  0  0  0  0  0  0  0  0
  134.5040  124.6670   62.9540 O   0  0  0  0  0  0  0  0  0  0  0  0
  132.9460  124.4130   61.3270 N   0  0  0  0  0  0  0  0  0  0  0  0
  133.8470  124.3320   60.1820 C   0  0  0  0  0  0  0  0  0  0  0  0
  133.0610  124.2340   58.8620 C   0  0  2  0  0  0  0  0  0  0  0  0
  133.0640  125.5050   57.9950 C   0  0  0  0  0  0  0  0  0  0  0  0
  131.7210  126.1430   58.2530 C   0  0  0  0  0  0  0  0  0  0  0  0
  130.8440  124.9210   58.4610 C   0  0  0  0  0  0  0  0  0  0  0  0
  131.6840  124.0660   59.2280 O   0  0  0  0  0  0  0  0  0  0  0  0
  132.3800  125.2690   64.9600 C   0  0  0  0  0  0  0  0  0  0  0  0
  131.2520  125.8250   65.5750 C   0  0  0  0  0  0  0  0  0  0  0  0
  131.3730  126.5470   66.7590 C   0  0  0  0  0  0  0  0  0  0  0  0
  132.6270  126.7170   67.3390 C   0  0  0  0  0  0  0  0  0  0  0  0
  132.7450  127.4170   68.4900 F   0  0  0  0  0  0  0  0  0  0  0  0
  133.7600  126.1690   66.7430 C   0  0  0  0  0  0  0  0  0  0  0  0
  133.6370  125.4480   65.5580 C   0  0  0  0  0  0  0  0  0  0  0  0
  128.5700  123.6040   61.9290 N   0  0  0  0  0  0  0  0  0  0  0  0
  125.9130  123.6430   59.4070 C   0  0  0  0  0  0  0  0  0  0  0  0
  125.6540  123.6510   58.0250 C   0  0  0  0  0  0  0  0  0  0  0  0
  124.4440  124.0350   57.4740 O   0  0  0  0  0  0  0  0  0  0  0  0
  123.4600  124.6500   58.2980 C   0  0  0  0  0  0  0  0  0  0  0  0
  1  2  1  0
  2  3  1  0
  3  4  2  0
  4  5  1  0
  5  6  2  0
  6  7  1  0
  7  8  1  0
  8  9  2  0
  9 10  1  0
 10 11  1  0
 11 12  1  0
 12 13  2  0
 12 14  1  0
 14 15  1  0
 15 16  1  0
 16 17  1  0
 17 18  1  0
 18 19  1  0
 19 20  1  0
 20 21  1  0
 21 22  1  0
 22 23  1  0
 24 14  1  1
 24 25  1  0
 25 26  2  0
 25 27  1  0
 27 28  1  0
 29 28  1  1
 29 30  1  0
 30 31  1  0
 31 32  1  0
 32 33  1  0
 24 34  1  0
 34 35  2  0
 35 36  1  0
 36 37  2  0
 37 38  1  0
 37 39  1  0
 39 40  2  0
 10 41  1  0
  6 42  1  0
 42 43  2  0
 43 44  1  0
 44 45  1  0
 43  3  1  0
 41  7  2  0
 23 18  1  0
 33 29  1  0
 40 34  1  0
M  END
>  <Binding energies>  (71) 
[-11.61]

>  <Ligand effiencies>  (71) 
[-0.2523913043478261]

>  <Interactions>  (71) 
["V-A:HIS:456:CE1:4069, V-B:GLU:543:CD:9879, V-B:ASP:366:CG:8183, V-A:ARG:545:CZ:4925, V-B:ASP:366:CB:8182, V-B:PRO:540:N:9855, V-B:LEU:363:CA:8155, H-B:TYR:531:OH:9766, V-A:ARG:545:CD:4922, V-B:PRO:540:CB:9856, V-B:TYR:539:CD2:9845, V-B:TYR:539:C:9838, V-B:MET:535:CE:9806, V-B:TYR:531:CE2:9764, V-B:PRO:540:CA:9854, V-B:LEU:363:CD1:8159, V-A:ARG:545:CG:4921, V-B:TYR:539:CE2:9847, V-A:ILE:369:CB:3235, V-A:LEU:475:CD2:4258, V-B:ILE:538:CB:9833, V-B:ALA:541:CB:9863, H-B:TYR:539:OH:9849, V-A:ILE:369:CG1:3237, V-B:TYR:539:CZ:9848, V-A:ASP:366:CG:3212, V-B:MET:535:CG:9804, V-A:ILE:369:CG2:3236, V-B:ILE:538:CD1:9836, V-B:TYR:539:CB:9842, V-B:TYR:539:CG:9843, V-B:ILE:538:CG2:9834, V-A:ILE:369:CD1:3238, V-A:HIS:383:CE1:3393, V-B:ILE:538:CA:9831, V-A:GLU:543:CD:4907, V-A:ASP:366:CB:3211, V-A:GLY:454:CA:4048, V-A:SER:385:CA:3406, H-A:TYR:484:OH:4347, H-A:GLY:454:N:4049, V-B:GLU:543:CG:9878, V-A:ASP:366:C:3207, H-B:ALA:541:N:9862, V-B:ILE:538:C:9829, H-A:ASP:366:OD2:3214, V-A:LEU:373:CG:3278, V-A:LEU:373:CD2:3280, V-A:ASP:366:CA:3209, H-A:HIS:383:ND1:3390, V-A:ARG:545:CB:4920, V-B:ILE:538:CG1:9835, V-A:ARG:545:CA:4918"]

$$$$
RR17_Rahimova_2017
     RDKit          3D

 38 41  0  0  0  0  0  0  0  0999 V2000
  129.2190  133.2560   61.7260 C   0  0  0  0  0  0  0  0  0  0  0  0
  130.1660  132.5150   62.6740 C   0  0  0  0  0  0  0  0  0  0  0  0
  131.3870  132.2530   61.9870 O   0  0  0  0  0  0  0  0  0  0  0  0
  131.4430  131.2130   61.0770 C   0  0  0  0  0  0  0  0  0  0  0  0
  130.6210  130.1170   61.3340 C   0  0  0  0  0  0  0  0  0  0  0  0
  130.6100  129.0220   60.4760 C   0  0  0  0  0  0  0  0  0  0  0  0
  131.4270  129.0010   59.3360 C   0  0  0  0  0  0  0  0  0  0  0  0
  131.3930  127.8070   58.4270 C   0  0  0  0  0  0  0  0  0  0  0  0
  132.2680  127.5930   57.5830 O   0  0  0  0  0  0  0  0  0  0  0  0
  130.1920  126.8450   58.5770 C   0  0  0  0  0  0  0  0  0  0  0  0
  130.4900  125.2390   57.7560 S   0  0  0  0  0  0  0  0  0  0  0  0
  131.8560  124.6530   58.7180 C   0  0  0  0  0  0  0  0  0  0  0  0
  133.1200  124.7390   58.3760 N   0  0  0  0  0  0  0  0  0  0  0  0
  133.8770  124.1760   59.3960 N   0  0  0  0  0  0  0  0  0  0  0  0
  133.0410  123.7730   60.3190 C   0  0  0  0  0  0  0  0  0  0  0  0
  133.4510  123.1060   61.6230 C   0  0  0  0  0  0  0  0  0  0  0  0
  133.9540  121.7440   61.4570 N   0  0  0  0  0  0  0  0  0  0  0  0
  133.1280  120.6290   61.2290 C   0  0  0  0  0  0  0  0  0  0  0  0
  131.8310  120.6760   61.7390 C   0  0  0  0  0  0  0  0  0  0  0  0
  130.9630  119.6040   61.5550 C   0  0  0  0  0  0  0  0  0  0  0  0
  131.3820  118.4700   60.8520 C   0  0  0  0  0  0  0  0  0  0  0  0
  130.4190  117.2990   60.6640 C   0  0  0  0  0  0  0  0  0  0  0  0
  130.4210  116.8390   59.4110 F   0  0  0  0  0  0  0  0  0  0  0  0
  130.7480  116.2910   61.4730 F   0  0  0  0  0  0  0  0  0  0  0  0
  129.1820  117.6990   60.9610 F   0  0  0  0  0  0  0  0  0  0  0  0
  132.6800  118.4250   60.3330 C   0  0  0  0  0  0  0  0  0  0  0  0
  133.5470  119.4970   60.5170 C   0  0  0  0  0  0  0  0  0  0  0  0
  131.7380  124.0350   59.9470 N   0  0  0  0  0  0  0  0  0  0  0  0
  130.5660  123.7630   60.6690 C   0  0  0  0  0  0  0  0  0  0  0  0
  130.3110  124.4580   61.8510 C   0  0  0  0  0  0  0  0  0  0  0  0
  129.1500  124.1860   62.5690 C   0  0  0  0  0  0  0  0  0  0  0  0
  128.2420  123.2190   62.1070 C   0  0  0  0  0  0  0  0  0  0  0  0
  127.0670  122.8850   62.7520 O   0  0  0  0  0  0  0  0  0  0  0  0
  125.9780  123.8020   62.7330 C   0  0  0  0  0  0  0  0  0  0  0  0
  128.5160  122.5320   60.9230 C   0  0  0  0  0  0  0  0  0  0  0  0
  129.6740  122.8000   60.1990 C   0  0  0  0  0  0  0  0  0  0  0  0
  132.2530  130.1050   59.0780 C   0  0  0  0  0  0  0  0  0  0  0  0
  132.2610  131.2000   59.9390 C   0  0  0  0  0  0  0  0  0  0  0  0
  1  2  1  0
  2  3  1  0
  3  4  1  0
  4  5  2  0
  5  6  1  0
  6  7  2  0
  7  8  1  0
  8  9  2  0
  8 10  1  0
 10 11  1  0
 11 12  1  0
 12 13  2  0
 13 14  1  0
 14 15  2  0
 15 16  1  0
 16 17  1  0
 17 18  1  0
 18 19  2  0
 19 20  1  0
 20 21  2  0
 21 22  1  0
 22 23  1  0
 22 24  1  0
 22 25  1  0
 21 26  1  0
 26 27  2  0
 15 28  1  0
 28 29  1  0
 29 30  2  0
 30 31  1  0
 31 32  2  0
 32 33  1  0
 33 34  1  0
 32 35  1  0
 35 36  2  0
  7 37  1  0
 37 38  2  0
 38  4  1  0
 28 12  1  0
 36 29  1  0
 27 18  1  0
M  END
>  <Binding energies>  (72) 
[-9.16]

>  <Ligand effiencies>  (72) 
[-0.23487179487179488]

>  <Interactions>  (72) 
["V-B:GLU:543:CD:9879, V-B:TYR:539:CD2:9845, V-B:TYR:539:C:9838, V-B:PRO:540:CA:9854, V-B:TYR:539:CE2:9847, V-A:LEU:475:CD2:4258, V-A:PRO:482:CG:4326, V-B:ALA:541:CB:9863, H-B:TYR:539:OH:9849, V-B:TYR:539:CZ:9848, V-A:ASP:366:CG:3212, V-A:SER:385:CB:3408, V-B:VAL:344:CG1:7971, V-B:TYR:539:CA:9840, V-A:ILE:369:CG2:3236, V-B:TYR:539:CB:9842, V-B:TYR:539:CG:9843, V-A:ILE:369:CD1:3238, V-A:HIS:383:CE1:3393, V-A:PRO:482:CB:4325, V-A:GLU:543:CD:4907, V-A:ASP:366:CB:3211, V-A:SER:385:CA:3406, H-A:TYR:531:OH:4794, V-A:PRO:540:CA:4882, H-B:ALA:541:N:9862, H-A:ALA:541:N:4890, V-A:ALA:541:CB:4891, V-A:ALA:541:CA:4889, V-B:PRO:540:C:9852, H-A:SER:385:O:3405"]

$$$$
RR19_Rahimova_2017
     RDKit          3D

 46 51  0  0  0  0  0  0  0  0999 V2000
  128.8930  128.2000   56.5980 O   0  0  0  0  0  0  0  0  0  0  0  0
  129.3030  128.3990   57.7450 C   0  0  0  0  0  0  0  0  0  0  0  0
  130.0800  127.5560   58.4720 N   0  0  0  0  0  0  0  0  0  0  0  0
  130.7940  126.4290   58.1480 C   0  0  0  0  0  0  0  0  0  0  0  0
  131.1050  125.8760   56.5780 S   0  0  0  0  0  0  0  0  0  0  0  0
  131.2150  125.8270   59.3080 N   0  0  0  0  0  0  0  0  0  0  0  0
  132.0530  124.7900   59.5600 C   0  0  0  0  0  0  0  0  0  0  0  0
  132.8020  124.2410   58.7490 O   0  0  0  0  0  0  0  0  0  0  0  0
  132.0000  124.2810   61.0220 C   0  0  2  0  0  0  0  0  0  0  0  0
  133.1070  124.8550   61.9540 C   0  0  0  0  0  0  0  0  0  0  0  0
  132.6340  125.2840   63.3330 C   0  0  0  0  0  0  0  0  0  0  0  0
  133.5400  125.3810   64.4120 C   0  0  0  0  0  0  0  0  0  0  0  0
  133.1060  125.8500   65.6440 C   0  0  0  0  0  0  0  0  0  0  0  0
  131.7840  126.2440   65.8180 C   0  0  0  0  0  0  0  0  0  0  0  0
  130.8890  126.1820   64.7570 C   0  0  0  0  0  0  0  0  0  0  0  0
  131.3040  125.7180   63.5170 C   0  0  0  0  0  0  0  0  0  0  0  0
  131.9580  122.7940   61.0750 N   0  0  0  0  0  0  0  0  0  0  0  0
  130.7860  122.1250   61.2760 C   0  0  0  0  0  0  0  0  0  0  0  0
  129.6700  122.6130   61.4600 O   0  0  0  0  0  0  0  0  0  0  0  0
  131.1380  120.6850   61.2200 C   0  0  0  0  0  0  0  0  0  0  0  0
  130.3470  119.5440   61.3630 C   0  0  0  0  0  0  0  0  0  0  0  0
  130.9560  118.2890   61.2540 C   0  0  0  0  0  0  0  0  0  0  0  0
  132.3320  118.1900   61.0050 C   0  0  0  0  0  0  0  0  0  0  0  0
  133.1070  119.3470   60.8640 C   0  0  0  0  0  0  0  0  0  0  0  0
  132.4810  120.5890   60.9780 C   0  0  0  0  0  0  0  0  0  0  0  0
  133.0250  121.9650   60.8700 C   0  0  0  0  0  0  0  0  0  0  0  0
  134.1900  122.2870   60.6350 O   0  0  0  0  0  0  0  0  0  0  0  0
  128.9150  129.7100   58.4790 C   0  0  2  0  0  0  0  0  0  0  0  0
  128.2280  130.7660   57.5650 C   0  0  0  0  0  0  0  0  0  0  0  0
  129.1940  131.7380   56.9130 C   0  0  0  0  0  0  0  0  0  0  0  0
  129.8100  132.7480   57.6840 C   0  0  0  0  0  0  0  0  0  0  0  0
  130.7690  133.5720   57.1090 C   0  0  0  0  0  0  0  0  0  0  0  0
  131.1470  133.3890   55.7850 C   0  0  0  0  0  0  0  0  0  0  0  0
  130.5780  132.3740   55.0260 C   0  0  0  0  0  0  0  0  0  0  0  0
  129.6160  131.5400   55.5810 C   0  0  0  0  0  0  0  0  0  0  0  0
  130.0390  130.3090   59.2550 N   0  0  0  0  0  0  0  0  0  0  0  0
  129.8210  131.0660   60.3660 C   0  0  0  0  0  0  0  0  0  0  0  0
  128.7340  131.3700   60.8600 O   0  0  0  0  0  0  0  0  0  0  0  0
  131.1690  131.4460   60.8540 C   0  0  0  0  0  0  0  0  0  0  0  0
  131.5610  132.2190   61.9490 C   0  0  0  0  0  0  0  0  0  0  0  0
  132.9280  132.4140   62.1760 C   0  0  0  0  0  0  0  0  0  0  0  0
  133.8760  131.8390   61.3180 C   0  0  0  0  0  0  0  0  0  0  0  0
  133.4630  131.0650   60.2280 C   0  0  0  0  0  0  0  0  0  0  0  0
  132.0940  130.8840   60.0180 C   0  0  0  0  0  0  0  0  0  0  0  0
  131.3640  130.1300   58.9710 C   0  0  0  0  0  0  0  0  0  0  0  0
  131.8480  129.4800   58.0440 O   0  0  0  0  0  0  0  0  0  0  0  0
  1  2  2  0
  2  3  1  0
  3  4  1  0
  4  5  2  0
  4  6  1  0
  6  7  1  0
  7  8  2  0
  7  9  1  0
  9 10  1  1
 10 11  1  0
 11 12  2  0
 12 13  1  0
 13 14  2  0
 14 15  1  0
 15 16  2  0
  9 17  1  0
 17 18  1  0
 18 19  2  0
 18 20  1  0
 20 21  2  0
 21 22  1  0
 22 23  2  0
 23 24  1  0
 24 25  2  0
 25 26  1  0
 26 27  2  0
  2 28  1  0
 28 29  1  6
 29 30  1  0
 30 31  2  0
 31 32  1  0
 32 33  2  0
 33 34  1  0
 34 35  2  0
 28 36  1  0
 36 37  1  0
 37 38  2  0
 37 39  1  0
 39 40  2  0
 40 41  1  0
 41 42  2  0
 42 43  1  0
 43 44  2  0
 44 45  1  0
 45 46  2  0
 16 11  1  0
 26 17  1  0
 35 30  1  0
 45 36  1  0
 25 20  1  0
 44 39  1  0
M  END
>  <Binding energies>  (73) 
[-11.84]

>  <Ligand effiencies>  (73) 
[-0.24666666666666667]

>  <Interactions>  (73) 
["V-A:ARG:545:CZ:4925, V-B:TYR:539:CD2:9845, V-B:TYR:539:C:9838, V-B:MET:535:CE:9806, V-B:TYR:539:CE2:9847, V-A:LEU:475:CD2:4258, V-B:ALA:541:CB:9863, H-B:TYR:539:OH:9849, V-B:TYR:539:CZ:9848, V-A:ASP:366:CG:3212, V-A:SER:385:CB:3408, V-A:ILE:369:CG2:3236, V-A:ILE:369:CD1:3238, V-A:ASP:366:CB:3211, V-A:SER:385:CA:3406, V-A:ASN:362:C:3171, V-A:TYR:531:CE2:4792, V-A:PRO:540:C:4880, V-A:LEU:363:CA:3184, V-A:ASN:362:CA:3173, H-A:TYR:531:OH:4794, V-A:PRO:540:CA:4882, V-A:TYR:531:CZ:4793, V-A:TYR:539:CD1:4872, V-A:PRO:540:CD:4886, V-A:ASN:362:CB:3175, V-A:ILE:538:CG2:4862, V-A:PRO:540:N:4883, V-A:PRO:540:CB:4884, V-A:TYR:539:C:4866, V-A:TYR:539:CE1:4874, V-A:MET:535:CG:4832, V-A:ILE:538:CB:4861, V-A:ILE:538:CA:4859, V-A:MET:535:CE:4834, H-A:ASP:366:OD2:3214, V-A:TYR:539:CA:4868"]

$$$$
RR1_Rahimova_2017
     RDKit          3D

 41 44  0  0  0  0  0  0  0  0999 V2000
  124.2690  129.7450   63.8850 C   0  0  0  0  0  0  0  0  0  0  0  0
  123.9020  129.9570   65.2430 O   0  0  0  0  0  0  0  0  0  0  0  0
  124.6490  129.3680   66.2440 C   0  0  0  0  0  0  0  0  0  0  0  0
  124.2080  129.2010   67.5670 C   0  0  0  0  0  0  0  0  0  0  0  0
  125.0360  128.6000   68.5110 C   0  0  0  0  0  0  0  0  0  0  0  0
  126.3080  128.1530   68.1530 C   0  0  0  0  0  0  0  0  0  0  0  0
  127.0860  127.6010   69.1890 N   0  0  0  0  0  0  0  0  0  0  0  0
  126.6910  127.0690   70.3650 C   0  0  0  0  0  0  0  0  0  0  0  0
  125.5270  127.0430   70.7670 O   0  0  0  0  0  0  0  0  0  0  0  0
  127.8270  126.4770   71.2140 C   0  0  0  0  0  0  0  0  0  0  0  0
  127.5490  126.4970   73.0190 S   0  0  0  0  0  0  0  0  0  0  0  0
  129.2100  126.8150   73.5150 C   0  0  0  0  0  0  0  0  0  0  0  0
  129.8820  126.0700   74.3560 N   0  0  0  0  0  0  0  0  0  0  0  0
  131.0700  126.6630   74.4260 C   0  0  0  0  0  0  0  0  0  0  0  0
  132.1850  126.1300   75.2800 C   0  0  0  0  0  0  0  0  0  0  0  0
  133.4830  126.6600   75.2080 C   0  0  0  0  0  0  0  0  0  0  0  0
  134.5000  126.1420   76.0130 C   0  0  0  0  0  0  0  0  0  0  0  0
  134.1920  125.0960   76.8810 C   0  0  0  0  0  0  0  0  0  0  0  0
  132.9490  124.5600   76.9760 N   0  0  0  0  0  0  0  0  0  0  0  0
  131.9740  125.0780   76.1860 C   0  0  0  0  0  0  0  0  0  0  0  0
  131.2040  127.7490   73.6880 N   0  0  0  0  0  0  0  0  0  0  0  0
  130.0080  127.8500   73.1020 N   0  0  0  0  0  0  0  0  0  0  0  0
  129.7310  128.9340   72.1590 C   0  0  0  0  0  0  0  0  0  0  0  0
  130.4960  128.8460   70.8260 C   0  0  0  0  0  0  0  0  0  0  0  0
  131.6380  129.3070   70.7200 O   0  0  0  0  0  0  0  0  0  0  0  0
  129.8240  128.2450   69.8250 N   0  0  0  0  0  0  0  0  0  0  0  0
  130.5020  127.9980   68.6390 N   0  0  0  0  0  0  0  0  0  0  0  0
  130.2420  126.8410   67.9930 C   0  0  0  0  0  0  0  0  0  0  0  0
  129.3670  126.0380   68.3360 O   0  0  0  0  0  0  0  0  0  0  0  0
  131.0860  126.5710   66.7640 C   0  0  0  0  0  0  0  0  0  0  0  0
  130.5100  126.6440   65.4910 C   0  0  0  0  0  0  0  0  0  0  0  0
  131.2630  126.3890   64.3510 C   0  0  0  0  0  0  0  0  0  0  0  0
  132.6210  126.0440   64.4490 C   0  0  0  0  0  0  0  0  0  0  0  0
  133.4220  125.7650   63.3560 O   0  0  0  0  0  0  0  0  0  0  0  0
  133.5930  124.4150   62.9380 C   0  0  0  0  0  0  0  0  0  0  0  0
  133.2150  125.9580   65.7150 C   0  0  0  0  0  0  0  0  0  0  0  0
  134.5510  125.5950   65.7590 O   0  0  0  0  0  0  0  0  0  0  0  0
  135.2560  125.6520   66.9940 C   0  0  0  0  0  0  0  0  0  0  0  0
  132.4440  126.2260   66.8600 C   0  0  0  0  0  0  0  0  0  0  0  0
  126.7520  128.3170   66.8320 C   0  0  0  0  0  0  0  0  0  0  0  0
  125.9210  128.9170   65.8900 C   0  0  0  0  0  0  0  0  0  0  0  0
  1  2  1  0
  2  3  1  0
  3  4  2  0
  4  5  1  0
  5  6  2  0
  6  7  1  0
  7  8  1  0
  8  9  2  0
  8 10  1  0
 10 11  1  0
 11 12  1  0
 12 13  2  0
 13 14  1  0
 14 15  1  0
 15 16  2  0
 16 17  1  0
 17 18  2  0
 18 19  1  0
 19 20  2  0
 14 21  2  0
 21 22  1  0
 22 23  1  0
 23 24  1  0
 24 25  2  0
 24 26  1  0
 26 27  1  0
 27 28  1  0
 28 29  2  0
 28 30  1  0
 30 31  2  0
 31 32  1  0
 32 33  2  0
 33 34  1  0
 34 35  1  0
 33 36  1  0
 36 37  1  0
 37 38  1  0
 36 39  2  0
  6 40  1  0
 40 41  2  0
 41  3  1  0
 22 12  1  0
 39 30  1  0
 20 15  1  0
M  END
>  <Binding energies>  (74) 
[-9.67]

>  <Ligand effiencies>  (74) 
[-0.21977272727272726]

>  <Interactions>  (74) 
["V-B:GLU:543:CB:9877, V-A:HIS:456:CE1:4069, V-B:GLU:543:C:9873, V-B:GLY:544:C:9883, V-A:HIS:456:C:4060, V-A:HIS:456:CB:4064, H-A:LYS:471:NZ:4220, V-A:VAL:457:C:4072, V-B:ARG:545:CD:9894, V-B:GLU:543:CD:9879, V-B:HIS:456:CE1:9040, V-A:HIS:456:CG:4065, V-B:ARG:545:CG:9893, H-A:HIS:456:ND1:4066, V-A:ARG:545:CZ:4925, V-A:ARG:545:CD:4922, V-A:ARG:545:CG:4921, V-B:ARG:545:CZ:9897, V-B:ARG:545:CB:9892, H-B:LYS:547:NZ:9922, V-A:ASP:366:CG:3212, H-B:GLU:543:OE2:9881, V-A:GLU:543:CD:4907, V-A:GLY:454:CA:4048, V-A:GLU:543:CB:4905, H-A:TYR:484:OH:4347, H-A:GLY:454:N:4049, H-B:GLY:454:N:9020, H-B:HIS:456:ND1:9037, H-A:ARG:545:NH2:4927, V-A:GLY:453:C:4041, H-A:GLU:543:OE1:4908, V-A:GLU:543:C:4901, H-A:ARG:545:NH1:4926, H-A:ARG:545:NE:4923, H-A:GLY:544:N:4914, V-A:VAL:458:CG2:4086, H-A:ARG:545:N:4919, H-B:ARG:545:N:9891, V-A:LYS:471:CD:4218, V-A:ILE:455:C:4051, V-A:GLY:453:CA:4043, H-A:HIS:456:NE2:4070, V-A:GLY:454:C:4046"]

$$$$
RR22_Rahimova_2017
     RDKit          3D

 31 36  0  0  0  0  0  0  0  0999 V2000
  125.9750  123.1430   62.1270 O   0  0  0  0  0  0  0  0  0  0  0  0
  127.1030  123.5500   61.8570 C   0  0  0  0  0  0  0  0  0  0  0  0
  128.1690  123.7210   62.7220 N   0  0  0  0  0  0  0  0  0  0  0  0
  129.4430  124.1490   62.2320 C   0  0  1  0  0  0  0  0  0  0  0  0
  129.7610  125.3210   62.9890 O   0  0  0  0  0  0  0  0  0  0  0  0
  130.9250  125.3170   63.7580 C   0  0  0  0  0  0  0  0  0  0  0  0
  131.0190  126.2940   64.7500 C   0  0  0  0  0  0  0  0  0  0  0  0
  132.1700  126.3790   65.5330 C   0  0  0  0  0  0  0  0  0  0  0  0
  133.2270  125.4940   65.3190 C   0  0  0  0  0  0  0  0  0  0  0  0
  133.1340  124.5170   64.3260 C   0  0  0  0  0  0  0  0  0  0  0  0
  131.9760  124.4040   63.5500 C   0  0  0  0  0  0  0  0  0  0  0  0
  131.7940  123.4110   62.4250 C   0  0  1  0  0  0  0  0  0  0  0  0
  132.4350  122.0380   62.4390 C   0  0  0  0  0  0  0  0  0  0  0  0
  131.3970  121.2570   61.6260 C   0  0  0  0  0  0  0  0  0  0  0  0
  131.6920  119.9530   60.9990 C   0  0  0  0  0  0  0  0  0  0  0  0
  130.8270  118.8630   61.1780 C   0  0  0  0  0  0  0  0  0  0  0  0
  131.1090  117.6370   60.5830 C   0  0  0  0  0  0  0  0  0  0  0  0
  132.2550  117.4920   59.8060 C   0  0  0  0  0  0  0  0  0  0  0  0
  133.1230  118.5640   59.6180 C   0  0  0  0  0  0  0  0  0  0  0  0
  132.8420  119.7920   60.2110 C   0  0  0  0  0  0  0  0  0  0  0  0
  130.2750  121.8710   61.5990 N   0  0  0  0  0  0  0  0  0  0  0  0
  130.4110  123.0480   62.3530 N   0  0  0  0  0  0  0  0  0  0  0  0
  129.2290  124.5920   60.7920 C   0  0  0  0  0  0  0  0  0  0  0  0
  130.1130  125.3660   60.1200 C   0  0  0  0  0  0  0  0  0  0  0  0
  130.0410  125.8480   58.7270 C   0  0  0  0  0  0  0  0  0  0  0  0
  128.8350  125.9820   58.0230 C   0  0  0  0  0  0  0  0  0  0  0  0
  128.8440  126.4440   56.7060 C   0  0  0  0  0  0  0  0  0  0  0  0
  130.0700  126.7570   56.1190 C   0  0  0  0  0  0  0  0  0  0  0  0
  131.2520  126.6290   56.7720 N   0  0  0  0  0  0  0  0  0  0  0  0
  131.2220  126.1790   58.0530 C   0  0  0  0  0  0  0  0  0  0  0  0
  127.6560  124.0430   60.1960 S   0  0  0  0  0  0  0  0  0  0  0  0
  1  2  2  0
  2  3  1  0
  4  3  1  1
  4  5  1  0
  5  6  1  0
  6  7  2  0
  7  8  1  0
  8  9  2  0
  9 10  1  0
 10 11  2  0
 11 12  1  0
 12 13  1  1
 13 14  1  0
 14 15  1  0
 15 16  2  0
 16 17  1  0
 17 18  2  0
 18 19  1  0
 19 20  2  0
 14 21  2  0
 21 22  1  0
  4 23  1  0
 23 24  2  0
 24 25  1  0
 25 26  2  0
 26 27  1  0
 27 28  2  0
 28 29  1  0
 29 30  2  0
 23 31  1  0
 31  2  1  0
 22  4  1  0
 30 25  1  0
 11  6  1  0
 22 12  1  0
 20 15  1  0
M  END
>  <Binding energies>  (75) 
[-9.22]

>  <Ligand effiencies>  (75) 
[-0.288125]

>  <Interactions>  (75) 
["V-B:GLU:543:CD:9879, V-A:ARG:545:CZ:4925, V-B:TYR:539:CD2:9845, V-B:MET:535:CE:9806, V-B:PRO:540:CA:9854, V-B:TYR:539:CE2:9847, V-A:LEU:475:CD2:4258, H-B:TYR:539:OH:9849, H-B:GLU:543:OE2:9881, V-A:ILE:369:CG2:3236, V-B:TYR:539:CB:9842, V-A:HIS:383:CE1:3393, V-A:GLU:543:CD:4907, H-B:GLU:543:OE1:9880, V-A:GLY:454:CA:4048, V-A:SER:385:CA:3406, H-A:TYR:531:OH:4794, V-A:MET:535:CE:4834, H-B:ALA:541:N:9862, V-A:LEU:373:CD2:3280, H-B:ALA:541:O:9860, V-A:VAL:384:C:3396"]

$$$$
RR24_Rahimova_2017
     RDKit          3D

 43 49  0  0  0  0  0  0  0  0999 V2000
  133.7810  130.7080   60.1360 C   0  0  0  0  0  0  0  0  0  0  0  0
  132.8030  131.8660   60.3800 C   0  0  2  0  0  0  0  0  0  0  0  0
  131.8280  131.6050   61.5660 C   0  0  0  0  0  0  0  0  0  0  0  0
  131.3750  132.5240   62.2570 O   0  0  0  0  0  0  0  0  0  0  0  0
  131.5710  130.2770   61.7500 O   0  0  0  0  0  0  0  0  0  0  0  0
  130.3490  129.7630   61.3800 C   0  0  0  0  0  0  0  0  0  0  0  0
  130.2870  128.8140   60.3570 C   0  0  0  0  0  0  0  0  0  0  0  0
  129.0580  128.2800   59.9810 C   0  0  0  0  0  0  0  0  0  0  0  0
  127.8880  128.6850   60.6300 C   0  0  0  0  0  0  0  0  0  0  0  0
  126.5350  128.1080   60.1970 C   0  0  1  0  0  0  0  0  0  0  0  0
  125.7730  129.0670   59.2530 C   0  0  0  0  0  0  0  0  0  0  0  0
  125.2620  128.6730   58.0730 C   0  0  0  0  0  0  0  0  0  0  0  0
  125.3820  127.3830   57.6170 N   0  0  0  0  0  0  0  0  0  0  0  0
  126.0380  126.4240   58.3520 C   0  0  0  0  0  0  0  0  0  0  0  0
  126.0610  125.1990   57.7660 N   0  0  0  0  0  0  0  0  0  0  0  0
  126.7310  124.1460   58.3070 C   0  0  0  0  0  0  0  0  0  0  0  0
  126.9890  123.1690   57.6010 O   0  0  0  0  0  0  0  0  0  0  0  0
  127.2030  124.3750   59.5900 N   0  0  0  0  0  0  0  0  0  0  0  0
  127.8600  123.2330   60.2590 C   0  0  0  0  0  0  0  0  0  0  0  0
  127.2330  125.5760   60.2770 C   0  0  0  0  0  0  0  0  0  0  0  0
  127.7180  125.7190   61.4030 O   0  0  0  0  0  0  0  0  0  0  0  0
  126.6060  126.6900   59.5570 C   0  0  0  0  0  0  0  0  0  0  0  0
  124.6010  129.7790   57.3990 C   0  0  0  0  0  0  0  0  0  0  0  0
  123.9350  129.8880   56.1780 C   0  0  0  0  0  0  0  0  0  0  0  0
  123.3960  131.1210   55.8040 C   0  0  0  0  0  0  0  0  0  0  0  0
  123.5220  132.2300   56.6460 C   0  0  0  0  0  0  0  0  0  0  0  0
  124.1910  132.1140   57.8680 C   0  0  0  0  0  0  0  0  0  0  0  0
  124.7290  130.8800   58.2360 C   0  0  0  0  0  0  0  0  0  0  0  0
  125.4700  130.4800   59.4510 C   0  0  0  0  0  0  0  0  0  0  0  0
  125.7870  131.1480   60.4340 O   0  0  0  0  0  0  0  0  0  0  0  0
  127.9560  129.6220   61.6660 C   0  0  0  0  0  0  0  0  0  0  0  0
  129.1850  130.1550   62.0440 C   0  0  0  0  0  0  0  0  0  0  0  0
  132.0880  132.2680   59.1340 N   0  0  0  0  0  0  0  0  0  0  0  0
  132.7260  132.3240   57.9310 C   0  0  0  0  0  0  0  0  0  0  0  0
  133.9120  132.0770   57.7020 O   0  0  0  0  0  0  0  0  0  0  0  0
  131.6920  132.7460   56.9540 C   0  0  0  0  0  0  0  0  0  0  0  0
  131.7720  132.9690   55.5780 C   0  0  0  0  0  0  0  0  0  0  0  0
  130.6160  133.3650   54.8960 C   0  0  0  0  0  0  0  0  0  0  0  0
  129.4090  133.5290   55.5880 C   0  0  0  0  0  0  0  0  0  0  0  0
  129.3490  133.2990   56.9670 C   0  0  0  0  0  0  0  0  0  0  0  0
  130.5130  132.9070   57.6300 C   0  0  0  0  0  0  0  0  0  0  0  0
  130.7600  132.5920   59.0590 C   0  0  0  0  0  0  0  0  0  0  0  0
  129.9420  132.6140   59.9790 O   0  0  0  0  0  0  0  0  0  0  0  0
  2  1  1  6
  2  3  1  0
  3  4  2  0
  3  5  1  0
  5  6  1  0
  6  7  2  0
  7  8  1  0
  8  9  2  0
 10  9  1  6
 10 11  1  0
 11 12  2  0
 12 13  1  0
 13 14  1  0
 14 15  1  0
 15 16  1  0
 16 17  2  0
 16 18  1  0
 18 19  1  0
 18 20  1  0
 20 21  2  0
 20 22  1  0
 12 23  1  0
 23 24  2  0
 24 25  1  0
 25 26  2  0
 26 27  1  0
 27 28  2  0
 28 29  1  0
 29 30  2  0
  9 31  1  0
 31 32  2  0
  2 33  1  0
 33 34  1  0
 34 35  2  0
 34 36  1  0
 36 37  2  0
 37 38  1  0
 38 39  2  0
 39 40  1  0
 40 41  2  0
 41 42  1  0
 42 43  2  0
 32  6  1  0
 42 33  1  0
 22 10  1  0
 28 23  1  0
 41 36  1  0
 29 11  1  0
 22 14  2  0
M  END
>  <Binding energies>  (76) 
[-10.46]

>  <Ligand effiencies>  (76) 
[-0.23244444444444445]

>  <Interactions>  (76) 
["V-B:TYR:531:CZ:9765, V-B:ASP:366:CB:8182, H-B:TYR:531:OH:9766, V-B:PRO:540:CA:9854, V-A:ASP:366:CG:3212, V-A:ASP:366:CB:3211, V-A:ASN:362:C:3171, V-A:TYR:531:CE2:4792, V-A:LEU:363:CA:3184, V-A:LEU:363:CD1:3188, V-A:PRO:540:CA:4882, V-A:TYR:531:CZ:4793, V-A:TYR:539:CD1:4872, V-A:ILE:538:CG2:4862, V-A:PRO:540:N:4883, V-A:PRO:540:CB:4884, V-A:TYR:539:C:4866, V-A:TYR:539:CE1:4874, V-A:MET:535:CG:4832, V-A:ILE:538:CB:4861, V-A:ILE:538:CA:4859, H-A:ALA:541:N:4890, H-A:ARG:545:NH2:4927, V-B:ILE:369:CG2:8207, V-B:ILE:369:CB:8206, V-A:TYR:539:CZ:4876, V-B:TYR:531:CE1:9763, V-B:ASN:370:CB:8215, V-B:ASN:370:CA:8213, V-B:ASP:366:C:8178, V-B:TYR:531:CD1:9761, V-B:ILE:369:C:8202, V-A:TYR:539:CD2:4873, V-A:TYR:539:CE2:4875, V-A:TYR:539:CG:4871, V-B:ASN:370:CG:8216"]

$$$$
RR25_Rahimova_2017
     RDKit          3D

 39 44  0  0  0  0  0  0  0  0999 V2000
  124.2680  128.9060   68.5640 O   0  0  0  0  0  0  0  0  0  0  0  0
  125.3750  128.7880   68.0370 C   0  0  0  0  0  0  0  0  0  0  0  0
  126.4160  128.4750   68.8760 O   0  0  0  0  0  0  0  0  0  0  0  0
  127.6450  128.0740   68.3830 C   0  0  0  0  0  0  0  0  0  0  0  0
  128.4240  127.2740   69.2180 C   0  0  0  0  0  0  0  0  0  0  0  0
  129.6760  126.8410   68.7890 C   0  0  0  0  0  0  0  0  0  0  0  0
  130.1680  127.2020   67.5260 C   0  0  0  0  0  0  0  0  0  0  0  0
  131.4990  126.7320   67.0680 N   0  0  0  0  0  0  0  0  0  0  0  0
  131.5680  126.0890   66.0230 O   0  0  0  0  0  0  0  0  0  0  0  0
  132.4840  127.0020   67.7490 O   0  0  0  0  0  0  0  0  0  0  0  0
  129.3730  128.0180   66.7050 C   0  0  0  0  0  0  0  0  0  0  0  0
  128.1180  128.4680   67.1240 C   0  0  0  0  0  0  0  0  0  0  0  0
  127.2160  129.3420   66.2710 C   0  0  0  0  0  0  0  0  0  0  0  0
  125.7290  128.9730   66.5320 C   0  0  2  0  0  0  0  0  0  0  0  0
  124.7710  129.9160   65.7480 C   0  0  0  0  0  0  0  0  0  0  0  0
  123.7510  130.2720   66.3460 O   0  0  0  0  0  0  0  0  0  0  0  0
  125.0940  130.4250   64.5210 N   0  0  0  0  0  0  0  0  0  0  0  0
  126.1130  129.8120   63.6430 C   0  0  0  0  0  0  0  0  0  0  0  0
  126.8800  130.9310   62.9070 C   0  0  0  0  0  0  0  0  0  0  0  0
  125.9650  131.8190   62.1830 N   0  0  0  0  0  0  0  0  0  0  0  0
  126.6980  132.8030   61.3750 C   0  0  0  0  0  0  0  0  0  0  0  0
  128.0580  133.2080   62.0060 C   0  0  0  0  0  0  0  0  0  0  0  0
  129.2740  132.8960   61.2000 N   0  0  0  0  0  0  0  0  0  0  0  0
  130.3740  132.4930   61.9270 C   0  0  0  0  0  0  0  0  0  0  0  0
  130.3820  132.4250   63.1610 O   0  0  0  0  0  0  0  0  0  0  0  0
  131.5810  132.1170   61.0890 C   0  0  0  0  0  0  0  0  0  0  0  0
  132.7470  131.6690   61.7240 C   0  0  0  0  0  0  0  0  0  0  0  0
  133.8710  131.3070   60.9840 C   0  0  0  0  0  0  0  0  0  0  0  0
  133.8670  131.3780   59.5920 C   0  0  0  0  0  0  0  0  0  0  0  0
  132.7120  131.8260   58.9070 C   0  0  0  0  0  0  0  0  0  0  0  0
  132.6390  131.9200   57.4970 C   0  0  0  0  0  0  0  0  0  0  0  0
  131.4680  132.3660   56.8860 C   0  0  0  0  0  0  0  0  0  0  0  0
  130.3560  132.7260   57.6450 C   0  0  0  0  0  0  0  0  0  0  0  0
  130.3830  132.6480   59.0430 C   0  0  0  0  0  0  0  0  0  0  0  0
  131.5700  132.1940   59.6730 C   0  0  0  0  0  0  0  0  0  0  0  0
  129.1490  133.0400   59.8340 C   0  0  0  0  0  0  0  0  0  0  0  0
  128.1170  133.4370   59.2830 O   0  0  0  0  0  0  0  0  0  0  0  0
  125.0510  132.4660   63.1260 C   0  0  0  0  0  0  0  0  0  0  0  0
  124.2020  131.4310   63.9010 C   0  0  0  0  0  0  0  0  0  0  0  0
  1  2  2  0
  2  3  1  0
  3  4  1  0
  4  5  2  0
  5  6  1  0
  6  7  2  0
  7  8  1  0
  8  9  2  0
  8 10  1  0
  7 11  1  0
 11 12  2  0
 12 13  1  0
 13 14  1  0
 14 15  1  1
 15 16  2  0
 15 17  1  0
 17 18  1  0
 18 19  1  0
 19 20  1  0
 20 21  1  0
 21 22  1  0
 22 23  1  0
 23 24  1  0
 24 25  2  0
 24 26  1  0
 26 27  2  0
 27 28  1  0
 28 29  2  0
 29 30  1  0
 30 31  2  0
 31 32  1  0
 32 33  2  0
 33 34  1  0
 34 35  2  0
 34 36  1  0
 36 37  2  0
 20 38  1  0
 38 39  1  0
 14  2  1  0
 39 17  1  0
 12  4  1  0
 36 23  1  0
 35 26  1  0
 35 30  1  0
M  CHG  2   8   1  10  -1
M  END
>  <Binding energies>  (77) 
[-11.01]

>  <Ligand effiencies>  (77) 
[-0.2823076923076923]

>  <Interactions>  (77) 
["V-B:GLU:543:CB:9877, V-A:HIS:456:CE1:4069, V-B:GLU:543:CD:9879, V-B:HIS:456:CE1:9040, V-B:ARG:545:CG:9893, V-B:LEU:475:CD1:9228, V-B:GLY:454:CA:9019, V-A:GLU:543:CD:4907, V-A:GLU:543:CG:4906, V-A:ASP:366:CB:3211, H-B:TYR:484:OH:9318, H-A:TYR:484:OH:4347, V-A:ASN:362:C:3171, V-A:TYR:531:CE2:4792, V-A:LEU:363:CA:3184, V-A:ASN:362:CA:3173, V-A:LEU:363:CD1:3188, V-A:PRO:540:CA:4882, V-A:TYR:531:CZ:4793, V-A:TYR:539:CD1:4872, V-A:ASN:362:CB:3175, V-A:PRO:540:N:4883, V-A:PRO:540:CB:4884, V-A:TYR:539:C:4866, H-A:ALA:541:N:4890, V-A:ALA:541:CB:4891, H-B:GLY:454:N:9020, H-B:HIS:456:ND1:9037, H-A:ARG:545:NE:4923, H-B:ILE:455:N:9025"]

$$$$
RR27_Rahimova_2017
     RDKit          3D

 39 44  0  0  0  0  0  0  0  0999 V2000
  127.3020  122.5090   60.2750 O   0  0  0  0  0  0  0  0  0  0  0  0
  127.2740  123.7420   60.2170 C   0  0  0  0  0  0  0  0  0  0  0  0
  127.4940  124.4220   58.8340 C   0  0  0  0  0  0  0  0  0  0  0  0
  126.8380  123.6540   57.6710 C   0  0  0  0  0  0  0  0  0  0  0  0
  127.5800  122.8200   56.8220 C   0  0  0  0  0  0  0  0  0  0  0  0
  126.9540  122.1390   55.7820 C   0  0  0  0  0  0  0  0  0  0  0  0
  125.5840  122.2890   55.5860 C   0  0  0  0  0  0  0  0  0  0  0  0
  124.8350  123.1150   56.4190 C   0  0  0  0  0  0  0  0  0  0  0  0
  125.4610  123.7960   57.4590 C   0  0  0  0  0  0  0  0  0  0  0  0
  128.9720  124.7980   58.6110 C   0  0  0  0  0  0  0  0  0  0  0  0
  129.9810  124.3700   59.4840 C   0  0  0  0  0  0  0  0  0  0  0  0
  131.3060  124.7370   59.2590 C   0  0  0  0  0  0  0  0  0  0  0  0
  131.6240  125.5380   58.1660 C   0  0  0  0  0  0  0  0  0  0  0  0
  130.6300  125.9800   57.2970 C   0  0  0  0  0  0  0  0  0  0  0  0
  129.3070  125.6130   57.5230 C   0  0  0  0  0  0  0  0  0  0  0  0
  126.9090  124.5000   61.2900 N   0  0  0  0  0  0  0  0  0  0  0  0
  127.1000  125.9560   61.3570 C   0  0  0  0  0  0  0  0  0  0  0  0
  128.5220  126.1970   61.9110 C   0  0  0  0  0  0  0  0  0  0  0  0
  128.7660  125.4800   63.2770 C   0  0  0  0  0  0  0  0  0  0  0  0
  130.2040  125.5950   63.8180 C   0  0  0  0  0  0  0  0  0  0  0  0
  130.3450  126.1580   65.0530 N   0  0  0  0  0  0  0  0  0  0  0  0
  131.5930  126.2580   65.5890 C   0  0  0  0  0  0  0  0  0  0  0  0
  131.8600  126.7980   66.8200 O   0  0  0  0  0  0  0  0  0  0  0  0
  132.6880  125.7780   64.8450 C   0  0  0  0  0  0  0  0  0  0  0  0
  134.0300  125.7200   65.0780 N   0  0  0  0  0  0  0  0  0  0  0  0
  134.6160  125.1420   63.9680 N   0  0  0  0  0  0  0  0  0  0  0  0
  133.6510  124.8430   63.0720 N   0  0  0  0  0  0  0  0  0  0  0  0
  133.9930  124.2410   61.7860 C   0  0  0  0  0  0  0  0  0  0  0  0
  133.3850  122.8610   61.5750 C   0  0  0  0  0  0  0  0  0  0  0  0
  134.2110  121.7510   61.3720 C   0  0  0  0  0  0  0  0  0  0  0  0
  133.6540  120.4840   61.1900 C   0  0  0  0  0  0  0  0  0  0  0  0
  132.2690  120.3200   61.2140 C   0  0  0  0  0  0  0  0  0  0  0  0
  131.4390  121.4220   61.4260 C   0  0  0  0  0  0  0  0  0  0  0  0
  129.7260  121.2170   61.4840 Cl  0  0  0  0  0  0  0  0  0  0  0  0
  131.9960  122.6900   61.6010 C   0  0  0  0  0  0  0  0  0  0  0  0
  132.4180  125.2280   63.5740 C   0  0  0  0  0  0  0  0  0  0  0  0
  131.2060  125.1240   63.0220 N   0  0  0  0  0  0  0  0  0  0  0  0
  128.2210  124.0190   63.2740 C   0  0  0  0  0  0  0  0  0  0  0  0
  126.8180  123.8930   62.6270 C   0  0  0  0  0  0  0  0  0  0  0  0
  1  2  2  0
  2  3  1  0
  3  4  1  0
  4  5  2  0
  5  6  1  0
  6  7  2  0
  7  8  1  0
  8  9  2  0
  3 10  1  0
 10 11  2  0
 11 12  1  0
 12 13  2  0
 13 14  1  0
 14 15  2  0
  2 16  1  0
 16 17  1  0
 17 18  1  0
 18 19  1  0
 19 20  1  0
 20 21  2  0
 21 22  1  0
 22 23  1  0
 22 24  2  0
 24 25  1  0
 25 26  2  0
 26 27  1  0
 27 28  1  0
 28 29  1  0
 29 30  2  0
 30 31  1  0
 31 32  2  0
 32 33  1  0
 33 34  1  0
 33 35  2  0
 27 36  1  0
 36 37  2  0
 19 38  1  0
 38 39  1  0
  9  4  1  0
 15 10  1  0
 39 16  1  0
 37 20  1  0
 36 24  1  0
 35 29  1  0
M  END
>  <Binding energies>  (78) 
[-10.66]

>  <Ligand effiencies>  (78) 
[-0.2665]

>  <Interactions>  (78) 
["V-B:GLU:543:CD:9879, V-B:TYR:531:CZ:9765, V-A:ARG:545:CZ:4925, V-B:TYR:539:CD2:9845, V-B:MET:535:CE:9806, V-B:TYR:531:CE2:9764, V-B:PRO:540:CA:9854, V-B:LEU:363:CD1:8159, V-B:TYR:539:CE2:9847, V-A:LEU:475:CD2:4258, V-B:ILE:538:CB:9833, V-B:ALA:541:CB:9863, V-B:TYR:539:CZ:9848, V-A:ASP:366:CG:3212, V-A:SER:385:CB:3408, V-B:TYR:539:CE1:9846, V-B:MET:535:CG:9804, V-B:TYR:539:CD1:9844, V-A:ILE:369:CG2:3236, V-B:ILE:538:CD1:9836, V-B:TYR:539:CG:9843, V-B:ILE:538:CG2:9834, V-A:ILE:369:CD1:3238, V-B:ILE:538:CA:9831, V-A:ASP:366:CB:3211, V-A:SER:385:CA:3406, H-A:TYR:484:OH:4347, H-A:GLY:454:N:4049, V-B:GLU:543:CG:9878, V-B:PRO:540:CD:9858, H-B:ALA:541:N:9862, V-B:ILE:538:C:9829, H-A:ARG:545:NH2:4927, H-A:GLU:543:OE2:4909, H-A:GLU:543:OE1:4908, H-A:ARG:545:NH1:4926, H-A:ARG:545:NE:4923, V-A:SER:385:C:3404"]

$$$$
RR28_Rahimova_2017
     RDKit          3D

 46 49  0  0  0  0  0  0  0  0999 V2000
  127.6610  137.4330   62.1110 C   0  0  0  0  0  0  0  0  0  0  0  0
  127.5150  135.9270   62.2980 C   0  0  0  0  0  0  0  0  0  0  0  0
  127.4560  135.4590   63.4340 O   0  0  0  0  0  0  0  0  0  0  0  0
  127.4590  135.1870   61.1720 N   0  0  0  0  0  0  0  0  0  0  0  0
  127.3280  133.7180   61.0470 C   0  0  0  0  0  0  0  0  0  0  0  0
  128.7570  133.1040   61.0010 C   0  0  0  0  0  0  0  0  0  0  0  0
  129.3480  132.8290   59.7590 C   0  0  0  0  0  0  0  0  0  0  0  0
  130.6230  132.2760   59.6800 C   0  0  0  0  0  0  0  0  0  0  0  0
  131.3370  131.9850   60.8440 C   0  0  0  0  0  0  0  0  0  0  0  0
  132.7330  131.3740   60.7380 C   0  0  0  0  0  0  0  0  0  0  0  0
  133.1620  131.3050   59.4760 F   0  0  0  0  0  0  0  0  0  0  0  0
  133.6100  132.1010   61.4310 F   0  0  0  0  0  0  0  0  0  0  0  0
  132.7100  130.1380   61.2380 F   0  0  0  0  0  0  0  0  0  0  0  0
  130.7580  132.2530   62.0880 C   0  0  0  0  0  0  0  0  0  0  0  0
  129.4830  132.8060   62.1650 C   0  0  0  0  0  0  0  0  0  0  0  0
  126.4420  133.3480   59.8040 C   0  0  0  0  0  0  0  0  0  0  0  0
  124.9670  133.8020   59.9450 C   0  0  0  0  0  0  0  0  0  0  0  0
  124.4440  133.1500   61.1570 N   0  0  0  0  0  0  0  0  0  0  0  0
  123.7900  131.9600   61.0690 C   0  0  0  0  0  0  0  0  0  0  0  0
  123.4630  131.4710   59.9850 O   0  0  0  0  0  0  0  0  0  0  0  0
  123.2970  131.2800   62.3700 C   0  0  0  0  0  0  0  0  0  0  0  0
  123.8200  129.8400   62.6230 C   0  0  0  0  0  0  0  0  0  0  0  0
  123.8630  129.4090   64.1080 C   0  0  0  0  0  0  0  0  0  0  0  0
  122.8590  129.6100   64.7980 O   0  0  0  0  0  0  0  0  0  0  0  0
  124.9330  128.7070   64.5780 N   0  0  0  0  0  0  0  0  0  0  0  0
  126.2490  128.7120   63.9290 C   0  0  0  0  0  0  0  0  0  0  0  0
  127.0020  129.9480   64.4700 C   0  0  0  0  0  0  0  0  0  0  0  0
  127.1410  130.0000   66.0320 C   0  0  0  0  0  0  0  0  0  0  0  0
  127.5010  131.3740   66.4410 N   0  0  0  0  0  0  0  0  0  0  0  0
  128.2170  132.2860   65.7530 C   0  0  0  0  0  0  0  0  0  0  0  0
  128.4470  133.6260   66.4440 C   0  0  0  0  0  0  0  0  0  0  0  0
  128.6810  132.0930   64.6290 O   0  0  0  0  0  0  0  0  0  0  0  0
  128.3280  129.0630   66.4280 C   0  0  0  0  0  0  0  0  0  0  0  0
  128.8070  128.9560   67.7440 C   0  0  0  0  0  0  0  0  0  0  0  0
  129.8670  128.1080   68.0550 C   0  0  0  0  0  0  0  0  0  0  0  0
  130.4790  127.3480   67.0560 C   0  0  0  0  0  0  0  0  0  0  0  0
  131.6410  126.4100   67.3820 C   0  0  0  0  0  0  0  0  0  0  0  0
  132.1910  125.9370   66.2630 F   0  0  0  0  0  0  0  0  0  0  0  0
  132.5680  127.0840   68.0620 F   0  0  0  0  0  0  0  0  0  0  0  0
  131.2540  125.3690   68.1210 F   0  0  0  0  0  0  0  0  0  0  0  0
  130.0200  127.4500   65.7420 C   0  0  0  0  0  0  0  0  0  0  0  0
  128.9610  128.2970   65.4350 C   0  0  0  0  0  0  0  0  0  0  0  0
  125.7690  129.5730   66.6840 C   0  0  0  0  0  0  0  0  0  0  0  0
  125.0330  128.3850   66.0070 C   0  0  0  0  0  0  0  0  0  0  0  0
  125.0980  133.6070   62.3920 C   0  0  0  0  0  0  0  0  0  0  0  0
  126.5830  133.1700   62.3080 C   0  0  0  0  0  0  0  0  0  0  0  0
  1  2  1  0
  2  3  2  0
  2  4  1  0
  4  5  1  0
  5  6  1  0
  6  7  2  0
  7  8  1  0
  8  9  2  0
  9 10  1  0
 10 11  1  0
 10 12  1  0
 10 13  1  0
  9 14  1  0
 14 15  2  0
  5 16  1  0
 16 17  1  0
 17 18  1  0
 18 19  1  0
 19 20  2  0
 19 21  1  0
 21 22  1  0
 22 23  1  0
 23 24  2  0
 23 25  1  0
 25 26  1  0
 26 27  1  0
 27 28  1  0
 28 29  1  0
 29 30  1  0
 30 31  1  0
 30 32  2  0
 28 33  1  0
 33 34  2  0
 34 35  1  0
 35 36  2  0
 36 37  1  0
 37 38  1  0
 37 39  1  0
 37 40  1  0
 36 41  1  0
 41 42  2  0
 28 43  1  0
 43 44  1  0
 18 45  1  0
 45 46  1  0
 46  5  1  0
 15  6  1  0
 44 25  1  0
 42 33  1  0
M  END
>  <Binding energies>  (79) 
[-9.32]

>  <Ligand effiencies>  (79) 
[-0.19416666666666668]

>  <Interactions>  (79) 
["V-A:HIS:456:CE1:4069, V-A:HIS:456:CD2:4067, V-B:ARG:545:CD:9894, V-B:GLU:543:CD:9879, V-B:ARG:545:CG:9893, V-B:ASP:366:CG:8183, V-A:TYR:484:CZ:4346, V-A:ARG:545:CD:4922, V-A:ARG:545:CG:4921, V-B:LEU:475:CD1:9228, V-B:ARG:545:CZ:9897, V-A:ASP:366:CG:3212, V-A:GLU:543:CD:4907, V-A:GLU:543:CG:4906, V-A:ASP:366:CB:3211, V-A:GLU:543:CB:4905, H-B:TYR:484:OH:9318, V-A:ASN:362:C:3171, V-A:LEU:363:CA:3184, V-A:ASN:362:CA:3173, V-A:PRO:540:CA:4882, V-A:TYR:539:CD1:4872, V-A:ASN:362:CB:3175, V-A:PRO:540:CB:4884, V-A:TYR:539:C:4866, V-A:TYR:539:CE1:4874, V-A:TYR:484:CE2:4345, H-A:TYR:539:O:4867, V-A:ALA:541:CB:4891, V-B:LEU:475:CD2:9229, H-B:GLY:454:N:9020, V-B:TYR:484:CZ:9317, H-B:ARG:545:NH2:9899, V-B:ILE:369:CG2:8207, H-B:ARG:545:NE:9895, H-B:ARG:545:NH1:9898, V-B:TYR:484:CE2:9316, V-B:SER:385:CB:8379, V-A:GLU:543:CA:4903, V-B:PRO:482:CB:9296, V-B:PRO:482:CG:9297"]

$$$$
RR29_Rahimova_2017
     RDKit          3D

 18 19  0  0  0  0  0  0  0  0999 V2000
  128.2770  126.2340   71.3680 C   0  0  0  0  0  0  0  0  0  0  0  0
  128.5520  126.5120   69.8970 C   0  0  0  0  0  0  0  0  0  0  0  0
  127.7470  127.7120   69.3490 C   0  0  0  0  0  0  0  0  0  0  0  0
  126.2350  127.4090   69.3020 C   0  0  0  0  0  0  0  0  0  0  0  0
  125.5240  128.1930   68.2090 C   0  0  0  0  0  0  0  0  0  0  0  0
  124.3380  128.8950   68.5050 C   0  0  0  0  0  0  0  0  0  0  0  0
  123.6670  129.6250   67.5130 C   0  0  0  0  0  0  0  0  0  0  0  0
  124.2090  129.6180   66.2330 C   0  0  0  0  0  0  0  0  0  0  0  0
  125.3570  128.9370   65.9400 C   0  0  0  0  0  0  0  0  0  0  0  0
  126.0490  128.2140   66.9060 C   0  0  0  0  0  0  0  0  0  0  0  0
  125.6730  129.1310   64.6320 O   0  0  0  0  0  0  0  0  0  0  0  0
  124.5660  129.7800   64.0670 C   0  0  0  0  0  0  0  0  0  0  0  0
  123.7700  130.2600   65.1180 O   0  0  0  0  0  0  0  0  0  0  0  0
  129.3800  125.7580   69.2740 N   0  0  0  0  0  0  0  0  0  0  0  0
  129.5660  125.9540   67.9230 N   0  0  0  0  0  0  0  0  0  0  0  0
  130.4090  126.8620   67.4050 C   0  0  0  0  0  0  0  0  0  0  0  0
  131.1860  127.6760   68.1200 N   0  0  0  0  0  0  0  0  0  0  0  0
  130.4760  126.9580   66.0850 N   0  0  0  0  0  0  0  0  0  0  0  0
  1  2  1  0
  2  3  1  0
  3  4  1  0
  4  5  1  0
  5  6  2  0
  6  7  1  0
  7  8  2  0
  8  9  1  0
  9 10  2  0
  9 11  1  0
 11 12  1  0
 12 13  1  0
  2 14  2  0
 14 15  1  0
 15 16  1  0
 16 17  1  0
 16 18  2  0
 10  5  1  0
 13  8  1  0
M  CHG  1  18   1
M  END
>  <Binding energies>  (80) 
[-8.07]

>  <Ligand effiencies>  (80) 
[-0.3508695652173913]

>  <Interactions>  (80) 
["V-B:GLU:543:CB:9877, V-A:HIS:456:CE1:4069, V-B:GLU:543:C:9873, V-B:ARG:545:CA:9890, V-B:ARG:545:CD:9894, V-B:GLU:543:CD:9879, V-B:HIS:456:CE1:9040, V-B:ARG:545:CG:9893, V-B:ARG:545:CZ:9897, V-B:ARG:545:CB:9892, H-B:GLU:543:OE2:9881, V-A:GLU:543:CD:4907, V-A:GLU:543:CB:4905, V-B:GLU:543:CG:9878, V-A:TYR:484:CE2:4345, H-B:GLY:454:N:9020, H-B:ARG:545:NH2:9899, H-A:GLU:543:OE2:4909, H-A:GLU:543:OE1:4908, H-A:HIS:456:NE2:4070"]

$$$$
RR30_Rahimova_2017
     RDKit          3D

 18 19  0  0  0  0  0  0  0  0999 V2000
  123.3990  123.1840   61.7220 C   0  0  0  0  0  0  0  0  0  0  0  0
  124.6580  123.7670   61.0640 C   0  0  0  0  0  0  0  0  0  0  0  0
  125.9250  123.3370   61.7700 C   0  0  0  0  0  0  0  0  0  0  0  0
  126.1560  123.2820   63.0580 N   0  0  0  0  0  0  0  0  0  0  0  0
  127.4680  122.8360   63.1930 N   0  0  0  0  0  0  0  0  0  0  0  0
  127.9200  122.6690   61.9760 C   0  0  0  0  0  0  0  0  0  0  0  0
  129.5180  122.1030   61.4900 S   0  0  0  0  0  0  0  0  0  0  0  0
  130.0640  123.5270   60.4950 C   0  0  0  0  0  0  0  0  0  0  0  0
  129.3330  123.6090   59.1520 C   0  0  0  0  0  0  0  0  0  0  0  0
  129.5660  124.5540   58.3960 O   0  0  0  0  0  0  0  0  0  0  0  0
  128.4370  122.6270   58.9070 N   0  0  0  0  0  0  0  0  0  0  0  0
  127.6550  122.4900   57.7690 C   0  0  0  0  0  0  0  0  0  0  0  0
  128.0260  122.1040   56.5690 N   0  0  0  0  0  0  0  0  0  0  0  0
  126.9680  122.0870   55.6690 N   0  0  0  0  0  0  0  0  0  0  0  0
  125.8250  122.4560   56.2020 C   0  0  0  0  0  0  0  0  0  0  0  0
  124.5320  122.5210   55.4230 C   0  0  0  0  0  0  0  0  0  0  0  0
  125.9640  122.8620   57.8910 S   0  0  0  0  0  0  0  0  0  0  0  0
  126.9950  122.9630   61.0260 O   0  0  0  0  0  0  0  0  0  0  0  0
  1  2  1  0
  2  3  1  0
  3  4  2  0
  4  5  1  0
  5  6  2  0
  6  7  1  0
  7  8  1  0
  8  9  1  0
  9 10  2  0
  9 11  1  0
 11 12  1  0
 12 13  2  0
 13 14  1  0
 14 15  2  0
 15 16  1  0
 15 17  1  0
  6 18  1  0
 18  3  1  0
 17 12  1  0
M  END
>  <Binding energies>  (81) 
[-7.1]

>  <Ligand effiencies>  (81) 
[-0.3736842105263158]

>  <Interactions>  (81) 
["V-B:TYR:531:CZ:9765, V-B:PRO:540:N:9855, V-B:PRO:540:CB:9856, V-B:TYR:539:CD2:9845, V-B:TYR:539:C:9838, V-B:MET:535:CE:9806, H-B:TYR:539:N:9841, V-B:TYR:531:CE2:9764, V-B:PRO:540:CA:9854, V-B:LEU:363:CD1:8159, V-B:TYR:539:CE2:9847, V-B:ILE:538:CB:9833, V-B:ALA:541:CB:9863, V-B:TYR:539:CZ:9848, V-B:TYR:539:CA:9840, V-B:ILE:538:CD1:9836, V-B:TYR:539:CG:9843, V-B:ILE:538:CG2:9834, V-B:ILE:538:CA:9831, V-B:PRO:540:CD:9858, H-B:ALA:541:N:9862, V-B:ALA:541:CA:9861, V-B:PRO:540:C:9852, V-B:ASN:362:CB:8146, H-B:TYR:539:O:9839, V-B:ASN:362:C:8142"]

$$$$
RR31_Rahimova_2017
     RDKit          3D

 18 19  0  0  0  0  0  0  0  0999 V2000
  132.2070  117.3170   59.2170 C   0  0  0  0  0  0  0  0  0  0  0  0
  132.3400  118.5730   60.0680 C   0  0  0  0  0  0  0  0  0  0  0  0
  133.4490  119.4020   59.8900 C   0  0  0  0  0  0  0  0  0  0  0  0
  133.5980  120.5600   60.6500 C   0  0  0  0  0  0  0  0  0  0  0  0
  132.6380  120.9300   61.6050 C   0  0  0  0  0  0  0  0  0  0  0  0
  132.7780  122.0820   62.3820 N   0  0  0  0  0  0  0  0  0  0  0  0
  132.6780  122.0500   63.8540 C   0  0  0  0  0  0  0  0  0  0  0  0
  132.4470  123.4360   64.5010 C   0  0  0  0  0  0  0  0  0  0  0  0
  133.4930  124.3810   64.1010 N   0  0  0  0  0  0  0  0  0  0  0  0
  133.3210  125.6950   64.7280 C   0  0  0  0  0  0  0  0  0  0  0  0
  131.9460  125.8660   65.4040 C   0  0  0  0  0  0  0  0  0  0  0  0
  130.9480  126.6220   64.5130 C   0  0  0  0  0  0  0  0  0  0  0  0
  129.7550  127.0980   65.3490 N   0  0  0  0  0  0  0  0  0  0  0  0
  133.4280  124.5160   62.6470 C   0  0  0  0  0  0  0  0  0  0  0  0
  133.6950  123.1590   61.9570 C   0  0  0  0  0  0  0  0  0  0  0  0
  131.5320  120.0840   61.7800 C   0  0  0  0  0  0  0  0  0  0  0  0
  131.3720  118.9170   61.0240 C   0  0  0  0  0  0  0  0  0  0  0  0
  130.1500  118.0380   61.2640 C   0  0  0  0  0  0  0  0  0  0  0  0
  1  2  1  0
  2  3  2  0
  3  4  1  0
  4  5  2  0
  5  6  1  0
  6  7  1  0
  7  8  1  0
  8  9  1  0
  9 10  1  0
 10 11  1  0
 11 12  1  0
 12 13  1  0
  9 14  1  0
 14 15  1  0
  5 16  1  0
 16 17  2  0
 17 18  1  0
 17  2  1  0
 15  6  1  0
M  CHG  1  13   1
M  END
>  <Binding energies>  (82) 
[-7.85]

>  <Ligand effiencies>  (82) 
[-0.3738095238095238]

>  <Interactions>  (82) 
["V-B:GLU:543:CD:9879, V-A:ARG:545:CZ:4925, V-B:TYR:539:CD2:9845, V-B:TYR:539:C:9838, V-B:TYR:539:CE2:9847, V-A:LEU:475:CD2:4258, V-A:PRO:482:CG:4326, V-B:ALA:541:CB:9863, V-A:ASP:366:CG:3212, H-B:GLU:543:OE2:9881, V-A:ILE:369:CG2:3236, V-B:TYR:539:CB:9842, V-A:ILE:369:CD1:3238, V-A:HIS:383:CE1:3393, V-A:PRO:482:CB:4325, V-A:GLU:543:CD:4907, H-B:GLU:543:OE1:9880, V-A:GLY:454:CA:4048, V-A:SER:385:CA:3406, H-A:TYR:484:OH:4347, H-A:GLY:454:N:4049, H-A:GLU:543:OE2:4909, H-A:GLU:543:OE1:4908, V-A:LEU:373:CD1:3279, V-A:HIS:383:CG:3389"]

$$$$
RR32_Rahimova_2017
     RDKit          3D

 18 20  0  0  0  0  0  0  0  0999 V2000
  123.6350  124.1400   59.0730 C   0  0  0  0  0  0  0  0  0  0  0  0
  125.0680  123.6310   58.9510 C   0  0  0  0  0  0  0  0  0  0  0  0
  125.8750  123.6550   60.0880 C   0  0  0  0  0  0  0  0  0  0  0  0
  127.1870  123.1950   60.0160 C   0  0  0  0  0  0  0  0  0  0  0  0
  127.9850  123.2200   61.1460 N   0  0  0  0  0  0  0  0  0  0  0  0
  127.3230  123.4970   62.4340 C   0  0  0  0  0  0  0  0  0  0  0  0
  128.3170  123.6830   63.6040 C   0  0  0  0  0  0  0  0  0  0  0  0
  129.1500  122.4900   63.7550 N   0  0  0  0  0  0  0  0  0  0  0  0
  130.0660  122.6520   64.8780 C   0  0  0  0  0  0  0  0  0  0  0  0
  129.8980  122.3020   62.5140 C   0  0  0  0  0  0  0  0  0  0  0  0
  128.9280  122.0990   61.3270 C   0  0  0  0  0  0  0  0  0  0  0  0
  127.7330  122.7170   58.8670 N   0  0  0  0  0  0  0  0  0  0  0  0
  126.9710  122.6850   57.7400 C   0  0  0  0  0  0  0  0  0  0  0  0
  127.5670  122.1840   56.5570 C   0  0  0  0  0  0  0  0  0  0  0  0
  126.8360  122.1270   55.3750 C   0  0  0  0  0  0  0  0  0  0  0  0
  125.5160  122.5590   55.3410 C   0  0  0  0  0  0  0  0  0  0  0  0
  124.9010  123.0570   56.4860 C   0  0  0  0  0  0  0  0  0  0  0  0
  125.6110  123.1350   57.7200 C   0  0  0  0  0  0  0  0  0  0  0  0
  1  2  1  0
  2  3  2  0
  3  4  1  0
  4  5  1  0
  5  6  1  0
  6  7  1  0
  7  8  1  0
  8  9  1  0
  8 10  1  0
 10 11  1  0
  4 12  2  0
 12 13  1  0
 13 14  2  0
 14 15  1  0
 15 16  2  0
 16 17  1  0
 17 18  2  0
 18  2  1  0
 11  5  1  0
 18 13  1  0
M  END
>  <Binding energies>  (83) 
[-6.59]

>  <Ligand effiencies>  (83) 
[-0.3661111111111111]

>  <Interactions>  (83) 
["V-B:GLU:543:CD:9879, V-B:ASP:366:CG:8183, V-B:LEU:363:CB:8157, V-B:TYR:531:CZ:9765, V-B:ASP:366:CB:8182, V-B:PRO:540:N:9855, V-B:LEU:363:CA:8155, V-B:PRO:540:CB:9856, V-B:TYR:539:CD2:9845, V-B:TYR:539:C:9838, V-B:MET:535:CE:9806, V-B:TYR:531:CE2:9764, V-B:PRO:540:CA:9854, V-B:LEU:363:CD1:8159, V-B:TYR:539:CE2:9847, V-A:LEU:475:CD2:4258, V-B:ALA:541:CB:9863, V-B:TYR:539:CZ:9848, V-B:TYR:539:CE1:9846, V-B:MET:535:CG:9804, V-B:TYR:539:CA:9840, V-B:TYR:539:CD1:9844, V-B:ILE:538:CD1:9836, V-B:TYR:539:CG:9843, V-B:ILE:538:CG2:9834, V-B:ILE:538:CA:9831, V-B:GLU:543:CG:9878, V-A:TYR:484:CE2:4345, V-B:PRO:540:CD:9858, V-B:ILE:538:C:9829, V-A:LEU:475:CD1:4257"]

$$$$
RR5_Rahimova_2017
     RDKit          3D

 45 50  0  0  0  0  0  0  0  0999 V2000
  129.0670  126.6460   60.1200 O   0  0  0  0  0  0  0  0  0  0  0  0
  129.2920  125.6320   59.4600 C   0  0  0  0  0  0  0  0  0  0  0  0
  130.7450  125.1750   59.2350 C   0  0  0  0  0  0  0  0  0  0  0  0
  131.7190  126.3300   58.8070 C   0  0  2  0  0  0  0  0  0  0  0  0
  131.0630  127.6150   58.4960 N   0  0  0  0  0  0  0  0  0  0  0  0
  130.3040  127.7850   57.3460 C   0  0  0  0  0  0  0  0  0  0  0  0
  130.0460  126.9250   56.5000 O   0  0  0  0  0  0  0  0  0  0  0  0
  129.8970  129.0650   57.2920 O   0  0  0  0  0  0  0  0  0  0  0  0
  129.2530  129.6870   58.4000 C   0  0  0  0  0  0  0  0  0  0  0  0
  129.7940  131.1180   58.6180 C   0  0  0  0  0  0  0  0  0  0  0  0
  131.1830  131.1570   59.2290 C   0  0  0  0  0  0  0  0  0  0  0  0
  131.6390  130.6210   60.4370 C   0  0  0  0  0  0  0  0  0  0  0  0
  132.9810  130.7570   60.7950 C   0  0  0  0  0  0  0  0  0  0  0  0
  133.8670  131.4290   59.9520 C   0  0  0  0  0  0  0  0  0  0  0  0
  133.4140  131.9670   58.7460 C   0  0  0  0  0  0  0  0  0  0  0  0
  132.0710  131.8300   58.3890 C   0  0  0  0  0  0  0  0  0  0  0  0
  131.3320  132.2960   57.2060 C   0  0  0  0  0  0  0  0  0  0  0  0
  131.7490  133.0220   56.0880 C   0  0  0  0  0  0  0  0  0  0  0  0
  130.8230  133.3600   55.1000 C   0  0  0  0  0  0  0  0  0  0  0  0
  129.4880  132.9710   55.2280 C   0  0  0  0  0  0  0  0  0  0  0  0
  129.0770  132.2420   56.3440 C   0  0  0  0  0  0  0  0  0  0  0  0
  130.0000  131.8990   57.3340 C   0  0  0  0  0  0  0  0  0  0  0  0
  132.6000  125.8910   57.6110 C   0  0  0  0  0  0  0  0  0  0  0  0
  132.6450  126.4610   56.5390 O   0  0  0  0  0  0  0  0  0  0  0  0
  133.3250  124.7860   57.9550 O   0  0  0  0  0  0  0  0  0  0  0  0
  128.3410  124.8370   58.9210 N   0  0  0  0  0  0  0  0  0  0  0  0
  126.8480  124.8920   58.8950 C   0  0  0  0  0  0  0  0  0  0  0  0
  126.5040  123.8970   57.7360 C   0  0  0  0  0  0  0  0  0  0  0  0
  127.4990  123.1200   57.1180 C   0  0  0  0  0  0  0  0  0  0  0  0
  127.1810  122.2370   56.0890 C   0  0  0  0  0  0  0  0  0  0  0  0
  125.8650  122.1230   55.6540 C   0  0  0  0  0  0  0  0  0  0  0  0
  124.8610  122.8780   56.2490 C   0  0  0  0  0  0  0  0  0  0  0  0
  125.1780  123.7530   57.2840 C   0  0  0  0  0  0  0  0  0  0  0  0
  126.3380  124.3940   60.2880 C   0  0  0  0  0  0  0  0  0  0  0  0
  124.9980  124.0300   60.4960 C   0  0  0  0  0  0  0  0  0  0  0  0
  124.5610  123.6080   61.7490 C   0  0  0  0  0  0  0  0  0  0  0  0
  125.4580  123.5460   62.8110 C   0  0  0  0  0  0  0  0  0  0  0  0
  126.7910  123.8980   62.6290 C   0  0  0  0  0  0  0  0  0  0  0  0
  127.2270  124.3110   61.3740 C   0  0  0  0  0  0  0  0  0  0  0  0
  126.4740  126.3740   58.5540 C   0  0  0  0  0  0  0  0  0  0  0  0
  125.6790  127.1390   59.4270 C   0  0  0  0  0  0  0  0  0  0  0  0
  125.3370  128.4550   59.1270 C   0  0  0  0  0  0  0  0  0  0  0  0
  125.7900  129.0330   57.9470 C   0  0  0  0  0  0  0  0  0  0  0  0
  126.5890  128.3070   57.0710 C   0  0  0  0  0  0  0  0  0  0  0  0
  126.9290  126.9920   57.3750 C   0  0  0  0  0  0  0  0  0  0  0  0
  1  2  2  0
  2  3  1  0
  4  3  1  6
  4  5  1  0
  5  6  1  0
  6  7  2  0
  6  8  1  0
  8  9  1  0
  9 10  1  0
 10 11  1  0
 11 12  2  0
 12 13  1  0
 13 14  2  0
 14 15  1  0
 15 16  2  0
 16 17  1  0
 17 18  2  0
 18 19  1  0
 19 20  2  0
 20 21  1  0
 21 22  2  0
  4 23  1  0
 23 24  2  0
 23 25  1  0
  2 26  1  0
 26 27  1  0
 27 28  1  0
 28 29  2  0
 29 30  1  0
 30 31  2  0
 31 32  1  0
 32 33  2  0
 27 34  1  0
 34 35  2  0
 35 36  1  0
 36 37  2  0
 37 38  1  0
 38 39  2  0
 27 40  1  0
 40 41  2  0
 41 42  1  0
 42 43  2  0
 43 44  1  0
 44 45  2  0
 22 10  1  0
 33 28  1  0
 39 34  1  0
 45 40  1  0
 16 11  1  0
 22 17  1  0
M  END
>  <Binding energies>  (84) 
[-12.01]

>  <Ligand effiencies>  (84) 
[-0.2502083333333333]

>  <Interactions>  (84) 
["V-B:GLU:543:CD:9879, V-B:ASP:366:CG:8183, V-B:TYR:531:CZ:9765, V-B:ASP:366:CB:8182, V-B:PRO:540:CB:9856, V-B:TYR:539:C:9838, V-B:MET:535:CE:9806, V-B:TYR:531:CE2:9764, V-B:PRO:540:CA:9854, V-B:LEU:363:CD1:8159, V-B:TYR:539:CE2:9847, V-B:ILE:538:CB:9833, H-B:TYR:539:OH:9849, V-A:ASP:366:CG:3212, V-B:TYR:539:CE1:9846, V-B:MET:535:CG:9804, V-B:TYR:539:CA:9840, V-B:TYR:539:CD1:9844, V-B:ILE:538:CD1:9836, V-B:TYR:539:CG:9843, V-B:ILE:538:CG2:9834, V-B:ILE:538:CA:9831, V-A:ASP:366:CB:3211, V-B:ALA:541:C:9859, V-A:ASN:362:C:3171, V-A:TYR:531:CE2:4792, V-A:LEU:363:CA:3184, H-A:TYR:531:OH:4794, V-A:LEU:363:CD1:3188, V-A:PRO:540:CA:4882, V-A:TYR:531:CZ:4793, V-A:TYR:539:CD1:4872, V-A:ILE:538:CG2:4862, V-A:PRO:540:CB:4884, V-A:TYR:539:CE1:4874, V-A:ILE:538:CB:4861, V-A:ILE:538:CA:4859, V-A:ASP:366:C:3207, V-A:LEU:363:CB:3186, V-B:PRO:540:CD:9858, V-B:ILE:538:C:9829, H-A:ASP:366:OD2:3214, V-A:TYR:539:CZ:4876, V-A:ASP:366:CA:3209, H-A:ASP:366:O:3208"]

$$$$
