1a_Ghoteimi_2023
     RDKit          3D

 67 70  0  0  0  0  0  0  0  0999 V2000
  133.4840  131.0940   58.4770 C   0  0  0  0  0  0  0  0  0  0  0  0
  132.7060  130.5680   57.2680 C   0  0  0  0  0  0  0  0  0  0  0  0
  133.0440  131.3360   56.1190 O   0  0  0  0  0  0  0  0  0  0  0  0
  132.2180  132.3110   55.6590 C   0  0  0  0  0  0  0  0  0  0  0  0
  132.6190  133.3330   55.0950 O   0  0  0  0  0  0  0  0  0  0  0  0
  130.7650  132.0180   55.9010 C   0  0  0  0  0  0  0  0  0  0  0  0
  130.0930  132.4860   57.0400 C   0  0  0  0  0  0  0  0  0  0  0  0
  128.7460  132.1960   57.2390 C   0  0  0  0  0  0  0  0  0  0  0  0
  128.0430  131.4320   56.2950 C   0  0  0  0  0  0  0  0  0  0  0  0
  126.6840  131.0760   56.3960 N   0  0  0  0  0  0  0  0  0  0  0  0
  126.0100  130.0590   55.8170 C   0  0  0  0  0  0  0  0  0  0  0  0
  126.4980  129.2110   55.0690 O   0  0  0  0  0  0  0  0  0  0  0  0
  124.5200  129.9850   56.1470 C   0  0  0  0  0  0  0  0  0  0  0  0
  124.1790  130.5420   57.8430 S   0  0  0  0  0  0  0  0  0  0  0  0
  125.0200  129.4030   58.9180 C   0  0  0  0  0  0  0  0  0  0  0  0
  125.3470  128.2290   58.3260 N   0  0  0  0  0  0  0  0  0  0  0  0
  125.9990  127.2720   59.0390 C   0  0  0  0  0  0  0  0  0  0  0  0
  126.3440  126.0080   58.3070 C   0  0  0  0  0  0  0  0  0  0  0  0
  127.5140  125.9080   57.5350 C   0  0  0  0  0  0  0  0  0  0  0  0
  127.8320  124.7340   56.8580 C   0  0  0  0  0  0  0  0  0  0  0  0
  126.9930  123.6250   56.9290 C   0  0  0  0  0  0  0  0  0  0  0  0
  127.3890  122.5020   56.2280 O   0  0  0  0  0  0  0  0  0  0  0  0
  127.0790  122.4040   54.8420 C   0  0  0  0  0  0  0  0  0  0  0  0
  125.8200  123.7100   57.6920 C   0  0  0  0  0  0  0  0  0  0  0  0
  125.5050  124.8850   58.3670 C   0  0  0  0  0  0  0  0  0  0  0  0
  126.3340  127.4890   60.3810 C   0  0  0  0  0  0  0  0  0  0  0  0
  125.9840  128.6850   61.0210 C   0  0  0  0  0  0  0  0  0  0  0  0
  126.3460  128.8330   62.4630 C   0  0  0  0  0  0  0  0  0  0  0  0
  127.6840  128.8260   62.8710 C   0  0  0  0  0  0  0  0  0  0  0  0
  128.0140  128.9790   64.2150 C   0  0  0  0  0  0  0  0  0  0  0  0
  127.0170  129.1500   65.1750 C   0  0  0  0  0  0  0  0  0  0  0  0
  127.4380  129.2960   66.4820 O   0  0  0  0  0  0  0  0  0  0  0  0
  128.5220  128.5030   66.9540 C   0  0  0  0  0  0  0  0  0  0  0  0
  125.6740  129.1670   64.7680 C   0  0  0  0  0  0  0  0  0  0  0  0
  125.3460  129.0120   63.4240 C   0  0  0  0  0  0  0  0  0  0  0  0
  125.3100  129.6790   60.2710 C   0  0  0  0  0  0  0  0  0  0  0  0
  124.9310  130.9570   60.8820 C   0  0  0  0  0  0  0  0  0  0  0  0
  124.6330  131.9650   61.3650 N   0  0  0  0  0  0  0  0  0  0  0  0
  128.7090  130.9620   55.1630 C   0  0  0  0  0  0  0  0  0  0  0  0
  130.0560  131.2530   54.9650 C   0  0  0  0  0  0  0  0  0  0  0  0
  132.9918  130.7612   59.4028 H   0  0  0  0  0  0  0  0  0  0  0  0
  134.5126  130.7053   58.4485 H   0  0  0  0  0  0  0  0  0  0  0  0
  133.5065  132.1934   58.4485 H   0  0  0  0  0  0  0  0  0  0  0  0
  132.9664  129.5135   57.0944 H   0  0  0  0  0  0  0  0  0  0  0  0
  131.6262  130.6507   57.4611 H   0  0  0  0  0  0  0  0  0  0  0  0
  130.6359  133.0882   57.7834 H   0  0  0  0  0  0  0  0  0  0  0  0
  128.2317  132.5665   58.1380 H   0  0  0  0  0  0  0  0  0  0  0  0
  126.1520  131.6590   57.0260 H   0  0  0  0  0  0  0  0  0  0  0  0
  123.9668  130.6248   55.4436 H   0  0  0  0  0  0  0  0  0  0  0  0
  124.2011  128.9359   56.0599 H   0  0  0  0  0  0  0  0  0  0  0  0
  128.1904  126.7726   57.4645 H   0  0  0  0  0  0  0  0  0  0  0  0
  128.7547  124.6819   56.2614 H   0  0  0  0  0  0  0  0  0  0  0  0
  126.0364  122.0744   54.7219 H   0  0  0  0  0  0  0  0  0  0  0  0
  127.2098  123.3873   54.3666 H   0  0  0  0  0  0  0  0  0  0  0  0
  127.7512  121.6746   54.3666 H   0  0  0  0  0  0  0  0  0  0  0  0
  125.1455  122.8435   57.7573 H   0  0  0  0  0  0  0  0  0  0  0  0
  124.5796  124.9346   58.9596 H   0  0  0  0  0  0  0  0  0  0  0  0
  126.8777  126.7122   60.9387 H   0  0  0  0  0  0  0  0  0  0  0  0
  128.4816  128.6986   62.1243 H   0  0  0  0  0  0  0  0  0  0  0  0
  129.0701  128.9649   64.5222 H   0  0  0  0  0  0  0  0  0  0  0  0
  128.5237  128.5018   68.0540 H   0  0  0  0  0  0  0  0  0  0  0  0
  128.4097  127.4724   66.5864 H   0  0  0  0  0  0  0  0  0  0  0  0
  129.4702  128.9221   66.5864 H   0  0  0  0  0  0  0  0  0  0  0  0
  124.8773  129.3034   65.5141 H   0  0  0  0  0  0  0  0  0  0  0  0
  124.2904  129.0305   63.1151 H   0  0  0  0  0  0  0  0  0  0  0  0
  128.1661  130.3573   54.4216 H   0  0  0  0  0  0  0  0  0  0  0  0
  130.5682  130.8792   54.0661 H   0  0  0  0  0  0  0  0  0  0  0  0
  1  2  1  0
  2  3  1  0
  3  4  1  0
  4  5  2  0
  4  6  1  0
  6  7  2  0
  7  8  1  0
  8  9  2  0
  9 10  1  0
 10 11  1  0
 11 12  2  0
 11 13  1  0
 13 14  1  0
 14 15  1  0
 15 16  2  0
 16 17  1  0
 17 18  1  0
 18 19  2  0
 19 20  1  0
 20 21  2  0
 21 22  1  0
 22 23  1  0
 21 24  1  0
 24 25  2  0
 17 26  2  0
 26 27  1  0
 27 28  1  0
 28 29  2  0
 29 30  1  0
 30 31  2  0
 31 32  1  0
 32 33  1  0
 31 34  1  0
 34 35  2  0
 27 36  2  0
 36 37  1  0
 37 38  3  0
  9 39  1  0
 39 40  2  0
 40  6  1  0
 36 15  1  0
 25 18  1  0
 35 28  1  0
  1 41  1  0
  1 42  1  0
  1 43  1  0
  2 44  1  0
  2 45  1  0
  7 46  1  0
  8 47  1  0
 10 48  1  0
 13 49  1  0
 13 50  1  0
 19 51  1  0
 20 52  1  0
 23 53  1  0
 23 54  1  0
 23 55  1  0
 24 56  1  0
 25 57  1  0
 26 58  1  0
 29 59  1  0
 30 60  1  0
 33 61  1  0
 33 62  1  0
 33 63  1  0
 34 64  1  0
 35 65  1  0
 39 66  1  0
 40 67  1  0
M  END
>  <Binding energies>  (1) 
[-9.78]

>  <Ligand effiencies>  (1) 
[-0.23853658536585365]

>  <Interactions>  (1) 
["V-A:TYR:539:CZ:4877, V-A:ASP:366:CG:3213, V-B:MET:535:CE:9807, V-A:PRO:540:CA:4883, V-A:ASP:366:CB:3212, H-B:LYS:534:NZ:9795, V-A:GLU:543:CD:4908, H-B:TYR:484:OH:9320, V-A:GLU:543:CG:4907, H-A:TYR:531:OH:4795, V-A:TYR:539:CE1:4875, V-B:ARG:545:CZ:9898, H-A:TYR:539:OH:4878, H-B:TYR:531:OH:9767, V-B:TYR:539:CD1:9845, V-B:TYR:539:CE1:9847, V-B:ASP:366:CG:8185, H-B:TYR:539:N:9842, V-B:ASP:366:CB:8184, V-B:ASP:366:CA:8182, V-A:TYR:539:CD1:4873, V-A:TYR:539:C:4867, V-B:TYR:531:CZ:9766, V-B:ILE:538:CA:9832, V-B:ILE:538:CD1:9837, V-A:TYR:539:CE2:4876, V-A:PRO:540:CD:4887, V-A:TYR:531:CE2:4793, V-A:PRO:540:CB:4885, V-A:LEU:363:CD1:3189, V-A:ILE:538:CB:4862, V-A:PRO:540:N:4884, V-A:ILE:538:CG2:4863, V-B:ILE:538:C:9830, V-B:TYR:531:CE1:9764, V-B:HIS:456:CE1:9042, V-A:LEU:363:CA:3185, V-B:TYR:531:CD1:9762, V-A:GLU:543:CB:4906, V-B:VAL:537:C:9822"]

$$$$
1a_Grossjean_2025
     RDKit          3D

 45 46  0  0  0  0  0  0  0  0999 V2000
  124.8930  122.5470   56.0880 C   0  0  0  0  0  0  0  0  0  0  0  0
  126.3950  122.6730   55.8170 C   0  0  0  0  0  0  0  0  0  0  0  0
  127.1210  122.0720   56.8810 O   0  0  0  0  0  0  0  0  0  0  0  0
  127.6450  122.8230   57.8850 C   0  0  0  0  0  0  0  0  0  0  0  0
  127.9940  122.3540   58.9730 O   0  0  0  0  0  0  0  0  0  0  0  0
  127.7400  124.2820   57.5470 C   0  0  0  0  0  0  0  0  0  0  0  0
  126.7030  125.1430   57.9310 C   0  0  0  0  0  0  0  0  0  0  0  0
  126.7600  126.5000   57.6280 C   0  0  0  0  0  0  0  0  0  0  0  0
  127.8510  127.0250   56.9340 C   0  0  0  0  0  0  0  0  0  0  0  0
  127.8030  128.4100   56.6790 N   0  0  0  0  0  0  0  0  0  0  0  0
  127.1390  129.0940   55.7230 C   0  0  0  0  0  0  0  0  0  0  0  0
  126.4160  128.5960   54.8590 O   0  0  0  0  0  0  0  0  0  0  0  0
  127.3280  130.6120   55.7530 C   0  0  0  0  0  0  0  0  0  0  0  0
  127.6520  131.2300   57.4310 S   0  0  0  0  0  0  0  0  0  0  0  0
  129.3370  130.8260   57.8330 C   0  0  0  0  0  0  0  0  0  0  0  0
  129.4590  129.9260   58.8410 N   0  0  0  0  0  0  0  0  0  0  0  0
  130.7000  129.5510   59.2320 C   0  0  0  0  0  0  0  0  0  0  0  0
  130.7590  128.5530   60.3730 C   0  0  0  0  0  0  0  0  0  0  0  0
  131.8580  130.0440   58.6340 C   0  0  0  0  0  0  0  0  0  0  0  0
  131.7430  130.9560   57.5790 C   0  0  0  0  0  0  0  0  0  0  0  0
  133.0250  131.4700   56.9280 C   0  0  0  0  0  0  0  0  0  0  0  0
  130.4570  131.3600   57.1510 C   0  0  0  0  0  0  0  0  0  0  0  0
  130.3110  132.2760   56.0170 C   0  0  0  0  0  0  0  0  0  0  0  0
  130.1980  133.0000   55.1210 N   0  0  0  0  0  0  0  0  0  0  0  0
  128.8980  126.1730   56.5520 C   0  0  0  0  0  0  0  0  0  0  0  0
  128.8390  124.8150   56.8560 C   0  0  0  0  0  0  0  0  0  0  0  0
  124.7163  122.5322   57.1736 H   0  0  0  0  0  0  0  0  0  0  0  0
  124.3669  123.4042   55.6425 H   0  0  0  0  0  0  0  0  0  0  0  0
  124.5170  121.6142   55.6425 H   0  0  0  0  0  0  0  0  0  0  0  0
  126.6410  122.1653   54.8727 H   0  0  0  0  0  0  0  0  0  0  0  0
  126.6661  123.7365   55.7432 H   0  0  0  0  0  0  0  0  0  0  0  0
  125.8361  124.7425   58.4769 H   0  0  0  0  0  0  0  0  0  0  0  0
  125.9392  127.1636   57.9377 H   0  0  0  0  0  0  0  0  0  0  0  0
  128.3260  128.9660   57.3390 H   0  0  0  0  0  0  0  0  0  0  0  0
  128.1789  130.8759   55.1078 H   0  0  0  0  0  0  0  0  0  0  0  0
  126.3964  131.0755   55.3963 H   0  0  0  0  0  0  0  0  0  0  0  0
  130.7272  129.0905   61.3322 H   0  0  0  0  0  0  0  0  0  0  0  0
  129.8997  127.8694   60.3071 H   0  0  0  0  0  0  0  0  0  0  0  0
  131.6929  127.9755   60.3071 H   0  0  0  0  0  0  0  0  0  0  0  0
  132.8487  129.7208   58.9863 H   0  0  0  0  0  0  0  0  0  0  0  0
  133.7432  131.7580   57.7098 H   0  0  0  0  0  0  0  0  0  0  0  0
  133.4619  130.6775   56.3026 H   0  0  0  0  0  0  0  0  0  0  0  0
  132.7934  132.3448   56.3026 H   0  0  0  0  0  0  0  0  0  0  0  0
  129.7665  126.5778   56.0118 H   0  0  0  0  0  0  0  0  0  0  0  0
  129.6629  124.1530   56.5511 H   0  0  0  0  0  0  0  0  0  0  0  0
  1  2  1  0
  2  3  1  0
  3  4  1  0
  4  5  2  0
  4  6  1  0
  6  7  2  0
  7  8  1  0
  8  9  2  0
  9 10  1  0
 10 11  1  0
 11 12  2  0
 11 13  1  0
 13 14  1  0
 14 15  1  0
 15 16  2  0
 16 17  1  0
 17 18  1  0
 17 19  2  0
 19 20  1  0
 20 21  1  0
 20 22  2  0
 22 23  1  0
 23 24  3  0
  9 25  1  0
 25 26  2  0
 26  6  1  0
 22 15  1  0
  1 27  1  0
  1 28  1  0
  1 29  1  0
  2 30  1  0
  2 31  1  0
  7 32  1  0
  8 33  1  0
 10 34  1  0
 13 35  1  0
 13 36  1  0
 18 37  1  0
 18 38  1  0
 18 39  1  0
 19 40  1  0
 21 41  1  0
 21 42  1  0
 21 43  1  0
 25 44  1  0
 26 45  1  0
M  END
>  <Binding energies>  (1) 
[-7.54]

>  <Ligand effiencies>  (1) 
[-0.27925925925925926]

>  <Interactions>  (1) 
["V-A:TYR:539:CZ:4877, V-A:ASP:366:CG:3213, V-B:MET:535:CE:9807, V-B:TYR:539:CE2:9848, H-B:LYS:534:NZ:9795, V-B:TYR:539:CZ:9849, V-B:TYR:539:CD2:9846, H-B:TYR:531:OH:9767, V-B:TYR:539:C:9839, H-B:TYR:539:N:9842, V-B:PRO:540:CA:9855, V-B:PRO:540:N:9856, V-A:TYR:539:C:4867, V-B:LEU:363:CD1:8161, V-B:TYR:531:CE2:9765, V-B:ILE:538:CA:9832, V-B:ILE:538:CD1:9837, V-A:PRO:540:CB:4885, V-A:LEU:363:CD1:3189, H-A:TYR:539:N:4870, V-A:PRO:540:N:4884, V-B:PRO:540:CD:9859, V-B:ILE:538:CG2:9835"]

$$$$
1aa_Ghoteimi_2023
     RDKit          3D

 67 70  0  0  0  0  0  0  0  0999 V2000
  123.3040  136.7330   56.7290 C   0  0  0  0  0  0  0  0  0  0  0  0
  124.2380  137.4250   57.7260 C   0  0  0  0  0  0  0  0  0  0  0  0
  124.3440  136.6330   58.9030 O   0  0  0  0  0  0  0  0  0  0  0  0
  125.4110  136.7520   59.7340 C   0  0  0  0  0  0  0  0  0  0  0  0
  125.9270  137.8350   60.0280 O   0  0  0  0  0  0  0  0  0  0  0  0
  125.9020  135.4350   60.2630 C   0  0  0  0  0  0  0  0  0  0  0  0
  127.1900  135.2840   60.7980 C   0  0  0  0  0  0  0  0  0  0  0  0
  127.6190  134.0500   61.2820 C   0  0  0  0  0  0  0  0  0  0  0  0
  126.7610  132.9410   61.2390 C   0  0  0  0  0  0  0  0  0  0  0  0
  127.0840  131.6500   61.6960 N   0  0  0  0  0  0  0  0  0  0  0  0
  127.5410  131.2350   62.9000 C   0  0  0  0  0  0  0  0  0  0  0  0
  127.7580  131.9710   63.8620 O   0  0  0  0  0  0  0  0  0  0  0  0
  127.8040  129.7300   63.0720 C   0  0  0  0  0  0  0  0  0  0  0  0
  127.3150  129.0020   61.9380 O   0  0  0  0  0  0  0  0  0  0  0  0
  127.9250  127.8180   61.5480 C   0  0  0  0  0  0  0  0  0  0  0  0
  129.0120  127.3950   62.2520 N   0  0  0  0  0  0  0  0  0  0  0  0
  129.6440  126.2480   61.8920 C   0  0  0  0  0  0  0  0  0  0  0  0
  130.8330  125.8490   62.7190 C   0  0  0  0  0  0  0  0  0  0  0  0
  130.7780  125.8750   64.1210 C   0  0  0  0  0  0  0  0  0  0  0  0
  131.8790  125.5080   64.8900 C   0  0  0  0  0  0  0  0  0  0  0  0
  133.0660  125.1030   64.2840 C   0  0  0  0  0  0  0  0  0  0  0  0
  134.1060  124.7580   65.1260 O   0  0  0  0  0  0  0  0  0  0  0  0
  133.9370  124.9030   66.5320 C   0  0  0  0  0  0  0  0  0  0  0  0
  133.1340  125.0660   62.8850 C   0  0  0  0  0  0  0  0  0  0  0  0
  132.0320  125.4330   62.1180 C   0  0  0  0  0  0  0  0  0  0  0  0
  129.1780  125.4830   60.8160 C   0  0  0  0  0  0  0  0  0  0  0  0
  128.0560  125.8890   60.0820 C   0  0  0  0  0  0  0  0  0  0  0  0
  127.6020  125.0250   58.9530 C   0  0  0  0  0  0  0  0  0  0  0  0
  126.3460  124.4120   58.9970 C   0  0  0  0  0  0  0  0  0  0  0  0
  125.9120  123.6120   57.9430 C   0  0  0  0  0  0  0  0  0  0  0  0
  126.7190  123.4130   56.8240 C   0  0  0  0  0  0  0  0  0  0  0  0
  126.2070  122.6040   55.8280 O   0  0  0  0  0  0  0  0  0  0  0  0
  124.8580  122.1600   55.9200 C   0  0  0  0  0  0  0  0  0  0  0  0
  127.9770  124.0320   56.7730 C   0  0  0  0  0  0  0  0  0  0  0  0
  128.4100  124.8310   57.8270 C   0  0  0  0  0  0  0  0  0  0  0  0
  127.4180  127.0960   60.4550 C   0  0  0  0  0  0  0  0  0  0  0  0
  126.2660  127.6230   59.7210 C   0  0  0  0  0  0  0  0  0  0  0  0
  125.3550  128.0410   59.1420 N   0  0  0  0  0  0  0  0  0  0  0  0
  125.4800  133.0880   60.7050 C   0  0  0  0  0  0  0  0  0  0  0  0
  125.0540  134.3210   60.2220 C   0  0  0  0  0  0  0  0  0  0  0  0
  122.5379  136.1654   57.2775 H   0  0  0  0  0  0  0  0  0  0  0  0
  122.8169  137.4899   56.0967 H   0  0  0  0  0  0  0  0  0  0  0  0
  123.8863  136.0466   56.0967 H   0  0  0  0  0  0  0  0  0  0  0  0
  125.2335  137.5450   57.2737 H   0  0  0  0  0  0  0  0  0  0  0  0
  123.8316  138.4140   57.9843 H   0  0  0  0  0  0  0  0  0  0  0  0
  127.8684  136.1491   60.8358 H   0  0  0  0  0  0  0  0  0  0  0  0
  128.6317  133.9452   61.6984 H   0  0  0  0  0  0  0  0  0  0  0  0
  126.9430  130.9240   61.0070 H   0  0  0  0  0  0  0  0  0  0  0  0
  128.8863  129.5607   63.1716 H   0  0  0  0  0  0  0  0  0  0  0  0
  127.2806  129.3781   63.9733 H   0  0  0  0  0  0  0  0  0  0  0  0
  129.8500  126.1904   64.6204 H   0  0  0  0  0  0  0  0  0  0  0  0
  131.8108  125.5382   65.9875 H   0  0  0  0  0  0  0  0  0  0  0  0
  134.6709  124.2733   67.0564 H   0  0  0  0  0  0  0  0  0  0  0  0
  134.0896  125.9555   66.8130 H   0  0  0  0  0  0  0  0  0  0  0  0
  132.9199  124.5922   66.8130 H   0  0  0  0  0  0  0  0  0  0  0  0
  134.0628  124.7454   62.3904 H   0  0  0  0  0  0  0  0  0  0  0  0
  132.1016  125.3965   61.0208 H   0  0  0  0  0  0  0  0  0  0  0  0
  129.6986  124.5530   60.5440 H   0  0  0  0  0  0  0  0  0  0  0  0
  125.6956  124.5629   59.8712 H   0  0  0  0  0  0  0  0  0  0  0  0
  124.9232  123.1327   57.9940 H   0  0  0  0  0  0  0  0  0  0  0  0
  124.5741  122.0666   56.9786 H   0  0  0  0  0  0  0  0  0  0  0  0
  124.1978  122.8883   55.4262 H   0  0  0  0  0  0  0  0  0  0  0  0
  124.7594  121.1820   55.4262 H   0  0  0  0  0  0  0  0  0  0  0  0
  128.6242  123.8851   55.8957 H   0  0  0  0  0  0  0  0  0  0  0  0
  129.3966  125.3146   57.7745 H   0  0  0  0  0  0  0  0  0  0  0  0
  124.8022  132.2225   60.6658 H   0  0  0  0  0  0  0  0  0  0  0  0
  124.0416  134.4221   59.8039 H   0  0  0  0  0  0  0  0  0  0  0  0
  1  2  1  0
  2  3  1  0
  3  4  1  0
  4  5  2  0
  4  6  1  0
  6  7  2  0
  7  8  1  0
  8  9  2  0
  9 10  1  0
 10 11  1  0
 11 12  2  0
 11 13  1  0
 13 14  1  0
 14 15  1  0
 15 16  2  0
 16 17  1  0
 17 18  1  0
 18 19  2  0
 19 20  1  0
 20 21  2  0
 21 22  1  0
 22 23  1  0
 21 24  1  0
 24 25  2  0
 17 26  2  0
 26 27  1  0
 27 28  1  0
 28 29  2  0
 29 30  1  0
 30 31  2  0
 31 32  1  0
 32 33  1  0
 31 34  1  0
 34 35  2  0
 27 36  2  0
 36 37  1  0
 37 38  3  0
  9 39  1  0
 39 40  2  0
 40  6  1  0
 36 15  1  0
 25 18  1  0
 35 28  1  0
  1 41  1  0
  1 42  1  0
  1 43  1  0
  2 44  1  0
  2 45  1  0
  7 46  1  0
  8 47  1  0
 10 48  1  0
 13 49  1  0
 13 50  1  0
 19 51  1  0
 20 52  1  0
 23 53  1  0
 23 54  1  0
 23 55  1  0
 24 56  1  0
 25 57  1  0
 26 58  1  0
 29 59  1  0
 30 60  1  0
 33 61  1  0
 33 62  1  0
 33 63  1  0
 34 64  1  0
 35 65  1  0
 39 66  1  0
 40 67  1  0
M  END
>  <Binding energies>  (1) 
[-8.05]

>  <Ligand effiencies>  (1) 
[-0.19634146341463415]

>  <Interactions>  (1) 
["V-A:TYR:539:CZ:4877, V-A:ALA:541:CB:4892, V-B:MET:535:CE:9807, V-B:ILE:369:CG2:8209, V-B:LEU:475:CD2:9231, V-A:GLU:543:CD:4908, V-B:TYR:539:CZ:9849, H-B:TYR:484:OH:9320, V-A:TYR:539:CE1:4875, V-A:ARG:545:CZ:4926, V-A:TYR:484:CZ:4347, V-B:ASP:366:CG:8185, H-B:TYR:539:N:9842, V-B:PRO:540:CB:9857, V-B:PRO:540:CA:9855, V-B:PRO:540:N:9856, V-A:TYR:539:CD1:4873, V-B:LEU:363:CD1:8161, V-B:TYR:531:CE2:9765, V-B:ILE:538:CA:9832, V-B:ILE:538:CD1:9837, V-A:TYR:539:CG:4872, V-B:PRO:540:CD:9859, H-A:GLY:454:N:4050, V-B:ILE:538:CG2:9835, H-A:TYR:484:OH:4348, V-B:SER:385:CB:8381, V-B:HIS:383:CD2:8364, V-A:TYR:539:CB:4871, V-B:ILE:538:CB:9834, V-A:TYR:484:CE2:4346, H-B:SER:385:OG:8382, H-B:HIS:383:NE2:8366, H-A:ARG:545:NE:4924, V-A:GLY:454:CA:4049, V-A:ARG:545:CD:4923, V-A:HIS:456:CE1:4070, V-A:ARG:545:CG:4922, H-A:ILE:455:N:4055, V-B:ASN:372:CB:8239, V-A:ILE:455:C:4052"]

$$$$
1b_Ghoteimi_2023
     RDKit          3D

 54 57  0  0  0  0  0  0  0  0999 V2000
  128.2330  128.5490   67.3380 C   0  0  0  0  0  0  0  0  0  0  0  0
  127.1110  128.9970   66.5880 O   0  0  0  0  0  0  0  0  0  0  0  0
  127.1310  128.8800   65.2110 C   0  0  0  0  0  0  0  0  0  0  0  0
  125.9190  129.0700   64.5500 C   0  0  0  0  0  0  0  0  0  0  0  0
  125.8420  128.9700   63.1650 C   0  0  0  0  0  0  0  0  0  0  0  0
  126.9790  128.6810   62.3950 C   0  0  0  0  0  0  0  0  0  0  0  0
  126.8920  128.5720   60.8980 C   0  0  0  0  0  0  0  0  0  0  0  0
  126.8670  127.3460   60.2240 C   0  0  0  0  0  0  0  0  0  0  0  0
  126.7810  127.2990   58.8270 C   0  0  0  0  0  0  0  0  0  0  0  0
  126.7640  125.9560   58.1750 C   0  0  0  0  0  0  0  0  0  0  0  0
  127.8130  125.5640   57.3380 C   0  0  0  0  0  0  0  0  0  0  0  0
  127.7970  124.3160   56.7220 C   0  0  0  0  0  0  0  0  0  0  0  0
  126.7320  123.4380   56.9250 C   0  0  0  0  0  0  0  0  0  0  0  0
  126.8010  122.2220   56.2720 O   0  0  0  0  0  0  0  0  0  0  0  0
  127.1030  122.1980   54.8810 C   0  0  0  0  0  0  0  0  0  0  0  0
  125.6730  123.8310   57.7570 C   0  0  0  0  0  0  0  0  0  0  0  0
  125.6920  125.0790   58.3720 C   0  0  0  0  0  0  0  0  0  0  0  0
  126.7090  128.5220   58.1150 C   0  0  0  0  0  0  0  0  0  0  0  0
  126.5220  128.5260   56.6610 C   0  0  0  0  0  0  0  0  0  0  0  0
  126.3740  128.5280   55.5130 N   0  0  0  0  0  0  0  0  0  0  0  0
  126.7610  129.7240   58.8550 C   0  0  0  0  0  0  0  0  0  0  0  0
  126.6910  131.3490   58.1290 S   0  0  0  0  0  0  0  0  0  0  0  0
  128.2000  131.5830   57.1310 C   0  0  0  0  0  0  0  0  0  0  0  0
  129.4880  131.7940   57.9400 C   0  0  0  0  0  0  0  0  0  0  0  0
  130.4870  132.2910   57.4160 O   0  0  0  0  0  0  0  0  0  0  0  0
  129.4150  131.3930   59.2290 N   0  0  0  0  0  0  0  0  0  0  0  0
  130.4180  131.4630   60.1890 C   0  0  0  0  0  0  0  0  0  0  0  0
  131.7170  131.0060   59.9680 C   0  0  0  0  0  0  0  0  0  0  0  0
  132.3870  131.2520   61.1450 C   0  0  0  0  0  0  0  0  0  0  0  0
  131.5370  131.8300   62.0270 O   0  0  0  0  0  0  0  0  0  0  0  0
  130.2920  131.9580   61.4100 N   0  0  0  0  0  0  0  0  0  0  0  0
  126.8290  129.7400   60.2080 N   0  0  0  0  0  0  0  0  0  0  0  0
  128.1950  128.4900   63.0710 C   0  0  0  0  0  0  0  0  0  0  0  0
  128.2750  128.5870   64.4570 C   0  0  0  0  0  0  0  0  0  0  0  0
  128.0143  128.6363   68.4125 H   0  0  0  0  0  0  0  0  0  0  0  0
  128.4433  127.4980   67.0908 H   0  0  0  0  0  0  0  0  0  0  0  0
  129.1094  129.1662   67.0908 H   0  0  0  0  0  0  0  0  0  0  0  0
  125.0134  129.3016   65.1300 H   0  0  0  0  0  0  0  0  0  0  0  0
  124.8738  129.1199   62.6649 H   0  0  0  0  0  0  0  0  0  0  0  0
  126.9154  126.4088   60.7978 H   0  0  0  0  0  0  0  0  0  0  0  0
  128.6576  126.2472   57.1649 H   0  0  0  0  0  0  0  0  0  0  0  0
  128.6314  124.0194   56.0694 H   0  0  0  0  0  0  0  0  0  0  0  0
  128.1909  122.1115   54.7434 H   0  0  0  0  0  0  0  0  0  0  0  0
  126.6046  121.3366   54.4124 H   0  0  0  0  0  0  0  0  0  0  0  0
  126.7469  123.1273   54.4124 H   0  0  0  0  0  0  0  0  0  0  0  0
  124.8250  123.1504   57.9237 H   0  0  0  0  0  0  0  0  0  0  0  0
  124.8553  125.3792   59.0199 H   0  0  0  0  0  0  0  0  0  0  0  0
  128.3347  130.6907   56.5020 H   0  0  0  0  0  0  0  0  0  0  0  0
  128.0458  132.5062   56.5531 H   0  0  0  0  0  0  0  0  0  0  0  0
  128.5370  131.0100   59.5460 H   0  0  0  0  0  0  0  0  0  0  0  0
  132.1189  130.5483   59.0520 H   0  0  0  0  0  0  0  0  0  0  0  0
  133.4440  131.0167   61.3384 H   0  0  0  0  0  0  0  0  0  0  0  0
  129.1023  128.2591   62.4935 H   0  0  0  0  0  0  0  0  0  0  0  0
  129.2398  128.4331   64.9624 H   0  0  0  0  0  0  0  0  0  0  0  0
  1  2  1  0
  2  3  1  0
  3  4  2  0
  4  5  1  0
  5  6  2  0
  6  7  1  0
  7  8  2  0
  8  9  1  0
  9 10  1  0
 10 11  2  0
 11 12  1  0
 12 13  2  0
 13 14  1  0
 14 15  1  0
 13 16  1  0
 16 17  2  0
  9 18  2  0
 18 19  1  0
 19 20  3  0
 18 21  1  0
 21 22  1  0
 22 23  1  0
 23 24  1  0
 24 25  2  0
 24 26  1  0
 26 27  1  0
 27 28  1  0
 28 29  2  0
 29 30  1  0
 30 31  1  0
 21 32  2  0
  6 33  1  0
 33 34  2  0
 34  3  1  0
 32  7  1  0
 17 10  1  0
 31 27  2  0
  1 35  1  0
  1 36  1  0
  1 37  1  0
  4 38  1  0
  5 39  1  0
  8 40  1  0
 11 41  1  0
 12 42  1  0
 15 43  1  0
 15 44  1  0
 15 45  1  0
 16 46  1  0
 17 47  1  0
 23 48  1  0
 23 49  1  0
 26 50  1  0
 28 51  1  0
 29 52  1  0
 33 53  1  0
 34 54  1  0
M  END
>  <Binding energies>  (1) 
[-8.13]

>  <Ligand effiencies>  (1) 
[-0.23228571428571432]

>  <Interactions>  (1) 
["V-B:MET:535:CE:9807, V-A:PRO:540:CA:4883, H-B:LYS:534:NZ:9795, V-A:GLU:543:CD:4908, H-A:ALA:541:N:4891, H-B:TYR:484:OH:9320, V-A:GLU:543:CG:4907, V-A:TYR:539:CE1:4875, V-B:ARG:545:CZ:9898, H-B:TYR:531:OH:9767, V-B:TYR:539:CD1:9845, V-B:TYR:539:CG:9844, V-B:TYR:539:CE1:9847, V-B:ASP:366:CG:8185, H-B:TYR:539:N:9842, V-A:TYR:539:CD1:4873, V-A:TYR:539:C:4867, V-B:TYR:531:CZ:9766, V-B:GLU:543:CD:9880, V-B:ILE:538:CA:9832, V-B:ILE:538:CD1:9837, V-A:PRO:540:CB:4885, V-B:ILE:538:C:9830, V-B:TYR:531:CE1:9764, V-B:HIS:456:CE1:9042, V-A:GLU:543:CB:4906, V-B:VAL:537:C:9822"]

$$$$
1b_Grossjean_2025
     RDKit          3D

 42 43  0  0  0  0  0  0  0  0999 V2000
  124.1670  123.8830   57.7700 C   0  0  0  0  0  0  0  0  0  0  0  0
  124.4540  122.6640   57.0980 O   0  0  0  0  0  0  0  0  0  0  0  0
  125.6040  122.5090   56.3940 C   0  0  0  0  0  0  0  0  0  0  0  0
  125.6430  122.0660   55.2420 O   0  0  0  0  0  0  0  0  0  0  0  0
  126.8270  122.9380   57.1530 C   0  0  0  0  0  0  0  0  0  0  0  0
  127.0680  122.5200   58.4700 C   0  0  0  0  0  0  0  0  0  0  0  0
  128.2110  122.9370   59.1460 C   0  0  0  0  0  0  0  0  0  0  0  0
  129.1350  123.7770   58.5240 C   0  0  0  0  0  0  0  0  0  0  0  0
  130.2520  124.1360   59.3020 N   0  0  0  0  0  0  0  0  0  0  0  0
  131.3790  124.7950   58.9550 C   0  0  0  0  0  0  0  0  0  0  0  0
  131.6390  125.2260   57.8330 O   0  0  0  0  0  0  0  0  0  0  0  0
  132.3860  125.0100   60.0860 C   0  0  0  0  0  0  0  0  0  0  0  0
  133.0930  123.4450   60.6830 S   0  0  0  0  0  0  0  0  0  0  0  0
  131.7340  122.3520   61.0430 C   0  0  0  0  0  0  0  0  0  0  0  0
  130.7410  122.9340   61.7600 N   0  0  0  0  0  0  0  0  0  0  0  0
  129.6570  122.1930   62.0890 C   0  0  0  0  0  0  0  0  0  0  0  0
  128.5800  122.9140   62.8790 C   0  0  0  0  0  0  0  0  0  0  0  0
  129.5250  120.8530   61.7300 C   0  0  0  0  0  0  0  0  0  0  0  0
  130.5540  120.2390   61.0100 C   0  0  0  0  0  0  0  0  0  0  0  0
  130.3940  118.7650   60.6420 C   0  0  0  0  0  0  0  0  0  0  0  0
  131.6960  120.9920   60.6550 C   0  0  0  0  0  0  0  0  0  0  0  0
  132.8050  120.3580   59.9390 C   0  0  0  0  0  0  0  0  0  0  0  0
  133.6800  119.8540   59.3730 N   0  0  0  0  0  0  0  0  0  0  0  0
  128.9010  124.2000   57.2070 C   0  0  0  0  0  0  0  0  0  0  0  0
  127.7580  123.7820   56.5320 C   0  0  0  0  0  0  0  0  0  0  0  0
  124.2053  123.7202   58.8572 H   0  0  0  0  0  0  0  0  0  0  0  0
  124.9110  124.6420   57.4865 H   0  0  0  0  0  0  0  0  0  0  0  0
  123.1625  124.2303   57.4865 H   0  0  0  0  0  0  0  0  0  0  0  0
  126.3480  121.8574   58.9726 H   0  0  0  0  0  0  0  0  0  0  0  0
  128.3871  122.6016   60.1787 H   0  0  0  0  0  0  0  0  0  0  0  0
  130.1920  123.8380   60.2650 H   0  0  0  0  0  0  0  0  0  0  0  0
  133.2017  125.6493   59.7173 H   0  0  0  0  0  0  0  0  0  0  0  0
  131.8551  125.4826   60.9255 H   0  0  0  0  0  0  0  0  0  0  0  0
  128.7684  122.7879   63.9554 H   0  0  0  0  0  0  0  0  0  0  0  0
  128.5952  123.9847   62.6271 H   0  0  0  0  0  0  0  0  0  0  0  0
  127.5959  122.4920   62.6271 H   0  0  0  0  0  0  0  0  0  0  0  0
  128.6242  120.2866   62.0091 H   0  0  0  0  0  0  0  0  0  0  0  0
  130.3286  118.1628   61.5602 H   0  0  0  0  0  0  0  0  0  0  0  0
  129.4762  118.6323   60.0504 H   0  0  0  0  0  0  0  0  0  0  0  0
  131.2620  118.4385   60.0504 H   0  0  0  0  0  0  0  0  0  0  0  0
  129.6222  124.8632   56.7070 H   0  0  0  0  0  0  0  0  0  0  0  0
  127.5832  124.1178   55.4992 H   0  0  0  0  0  0  0  0  0  0  0  0
  1  2  1  0
  2  3  1  0
  3  4  2  0
  3  5  1  0
  5  6  2  0
  6  7  1  0
  7  8  2  0
  8  9  1  0
  9 10  1  0
 10 11  2  0
 10 12  1  0
 12 13  1  0
 13 14  1  0
 14 15  2  0
 15 16  1  0
 16 17  1  0
 16 18  2  0
 18 19  1  0
 19 20  1  0
 19 21  2  0
 21 22  1  0
 22 23  3  0
  8 24  1  0
 24 25  2  0
 25  5  1  0
 21 14  1  0
  1 26  1  0
  1 27  1  0
  1 28  1  0
  6 29  1  0
  7 30  1  0
  9 31  1  0
 12 32  1  0
 12 33  1  0
 17 34  1  0
 17 35  1  0
 17 36  1  0
 18 37  1  0
 20 38  1  0
 20 39  1  0
 20 40  1  0
 24 41  1  0
 25 42  1  0
M  END
>  <Binding energies>  (1) 
[-7.14]

>  <Ligand effiencies>  (1) 
[-0.2746153846153846]

>  <Interactions>  (1) 
["V-A:ASP:366:CG:3213, V-B:MET:535:CE:9807, V-B:TYR:539:CE2:9848, V-B:TYR:539:CZ:9849, V-A:ILE:369:CG2:3237, V-B:TYR:539:CD2:9846, V-A:LEU:475:CD2:4259, H-B:TYR:531:OH:9767, V-A:TYR:484:CZ:4347, V-B:TYR:539:CE1:9847, H-B:TYR:539:OH:9850, V-B:TYR:539:C:9839, V-A:TYR:484:CE1:4345, H-B:TYR:539:N:9842, V-B:PRO:540:CB:9857, V-B:PRO:540:CA:9855, V-B:PRO:540:N:9856, V-B:LEU:363:CD1:8161, V-B:TYR:531:CZ:9766, V-B:TYR:531:CE2:9765, V-B:GLU:543:CD:9880, V-B:GLU:543:CG:9879, V-B:PRO:540:CD:9859, V-B:ALA:541:CB:9864, H-A:TYR:484:OH:4348, V-B:LEU:363:CA:8157, V-A:SER:385:CB:3409"]

$$$$
1c_Ghoteimi_2023
     RDKit          3D

 54 57  0  0  0  0  0  0  0  0999 V2000
  127.4760  138.4960   59.4980 C   0  0  0  0  0  0  0  0  0  0  0  0
  126.4490  137.8740   60.2610 O   0  0  0  0  0  0  0  0  0  0  0  0
  126.4830  136.5050   60.4510 C   0  0  0  0  0  0  0  0  0  0  0  0
  125.3500  135.7930   60.0680 C   0  0  0  0  0  0  0  0  0  0  0  0
  125.2960  134.4100   60.2260 C   0  0  0  0  0  0  0  0  0  0  0  0
  126.3750  133.6990   60.7740 C   0  0  0  0  0  0  0  0  0  0  0  0
  126.3190  132.2090   60.9510 C   0  0  0  0  0  0  0  0  0  0  0  0
  126.6030  131.5810   62.1680 C   0  0  0  0  0  0  0  0  0  0  0  0
  126.5110  130.1900   62.2920 C   0  0  0  0  0  0  0  0  0  0  0  0
  126.7630  129.5930   63.6370 C   0  0  0  0  0  0  0  0  0  0  0  0
  125.6990  129.1730   64.4400 C   0  0  0  0  0  0  0  0  0  0  0  0
  125.9340  128.6370   65.7020 C   0  0  0  0  0  0  0  0  0  0  0  0
  127.2360  128.5140   66.1870 C   0  0  0  0  0  0  0  0  0  0  0  0
  127.3750  127.9710   67.4500 O   0  0  0  0  0  0  0  0  0  0  0  0
  128.6540  127.5100   67.8710 C   0  0  0  0  0  0  0  0  0  0  0  0
  128.3070  128.9400   65.3870 C   0  0  0  0  0  0  0  0  0  0  0  0
  128.0690  129.4760   64.1250 C   0  0  0  0  0  0  0  0  0  0  0  0
  126.1530  129.4340   61.1500 C   0  0  0  0  0  0  0  0  0  0  0  0
  126.0730  127.9700   61.2060 C   0  0  0  0  0  0  0  0  0  0  0  0
  126.0090  126.8160   61.2510 N   0  0  0  0  0  0  0  0  0  0  0  0
  125.8630  130.1330   59.9600 C   0  0  0  0  0  0  0  0  0  0  0  0
  125.2390  129.3280   58.5010 S   0  0  0  0  0  0  0  0  0  0  0  0
  125.1330  130.6490   57.2500 C   0  0  0  0  0  0  0  0  0  0  0  0
  126.4510  130.8330   56.4890 C   0  0  0  0  0  0  0  0  0  0  0  0
  126.5570  130.3950   55.3430 O   0  0  0  0  0  0  0  0  0  0  0  0
  127.4060  131.5220   57.1510 N   0  0  0  0  0  0  0  0  0  0  0  0
  128.6180  131.9560   56.6390 C   0  0  0  0  0  0  0  0  0  0  0  0
  129.7400  132.1710   57.2920 N   0  0  0  0  0  0  0  0  0  0  0  0
  130.7100  132.5410   56.4780 C   0  0  0  0  0  0  0  0  0  0  0  0
  130.3810  132.6300   55.1290 C   0  0  0  0  0  0  0  0  0  0  0  0
  128.7070  132.2080   54.9260 S   0  0  0  0  0  0  0  0  0  0  0  0
  125.9360  131.4820   59.8690 N   0  0  0  0  0  0  0  0  0  0  0  0
  127.5130  134.4270   61.1510 C   0  0  0  0  0  0  0  0  0  0  0  0
  127.5710  135.8090   60.9960 C   0  0  0  0  0  0  0  0  0  0  0  0
  128.2165  138.9445   60.1766 H   0  0  0  0  0  0  0  0  0  0  0  0
  127.9681  137.7440   58.8637 H   0  0  0  0  0  0  0  0  0  0  0  0
  127.0375  139.2805   58.8637 H   0  0  0  0  0  0  0  0  0  0  0  0
  124.4902  136.3268   59.6370 H   0  0  0  0  0  0  0  0  0  0  0  0
  124.3919  133.8656   59.9159 H   0  0  0  0  0  0  0  0  0  0  0  0
  126.9017  132.1865   63.0364 H   0  0  0  0  0  0  0  0  0  0  0  0
  124.6670  129.2671   64.0710 H   0  0  0  0  0  0  0  0  0  0  0  0
  125.0870  128.3078   66.3219 H   0  0  0  0  0  0  0  0  0  0  0  0
  128.6949  127.4953   68.9701 H   0  0  0  0  0  0  0  0  0  0  0  0
  128.8233  126.4943   67.4841 H   0  0  0  0  0  0  0  0  0  0  0  0
  129.4324  128.1842   67.4841 H   0  0  0  0  0  0  0  0  0  0  0  0
  129.3384  128.8500   65.7586 H   0  0  0  0  0  0  0  0  0  0  0  0
  128.9146  129.8104   63.5061 H   0  0  0  0  0  0  0  0  0  0  0  0
  124.3413  130.3928   56.5305 H   0  0  0  0  0  0  0  0  0  0  0  0
  124.9101  131.5913   57.7719 H   0  0  0  0  0  0  0  0  0  0  0  0
  127.1950  131.8210   58.0910 H   0  0  0  0  0  0  0  0  0  0  0  0
  131.7221  132.7665   56.8452 H   0  0  0  0  0  0  0  0  0  0  0  0
  131.0691  132.9205   54.3214 H   0  0  0  0  0  0  0  0  0  0  0  0
  128.3765  133.8954   61.5775 H   0  0  0  0  0  0  0  0  0  0  0  0
  128.4741  136.3572   61.3024 H   0  0  0  0  0  0  0  0  0  0  0  0
  1  2  1  0
  2  3  1  0
  3  4  2  0
  4  5  1  0
  5  6  2  0
  6  7  1  0
  7  8  2  0
  8  9  1  0
  9 10  1  0
 10 11  2  0
 11 12  1  0
 12 13  2  0
 13 14  1  0
 14 15  1  0
 13 16  1  0
 16 17  2  0
  9 18  2  0
 18 19  1  0
 19 20  3  0
 18 21  1  0
 21 22  1  0
 22 23  1  0
 23 24  1  0
 24 25  2  0
 24 26  1  0
 26 27  1  0
 27 28  2  0
 28 29  1  0
 29 30  2  0
 30 31  1  0
 21 32  2  0
  6 33  1  0
 33 34  2  0
 34  3  1  0
 32  7  1  0
 17 10  1  0
 31 27  1  0
  1 35  1  0
  1 36  1  0
  1 37  1  0
  4 38  1  0
  5 39  1  0
  8 40  1  0
 11 41  1  0
 12 42  1  0
 15 43  1  0
 15 44  1  0
 15 45  1  0
 16 46  1  0
 17 47  1  0
 23 48  1  0
 23 49  1  0
 26 50  1  0
 29 51  1  0
 30 52  1  0
 33 53  1  0
 34 54  1  0
M  END
>  <Binding energies>  (1) 
[-7.82]

>  <Ligand effiencies>  (1) 
[-0.22342857142857145]

>  <Interactions>  (1) 
["V-A:TYR:539:CZ:4877, V-A:ALA:541:CB:4892, V-B:LEU:475:CD2:9231, V-A:PRO:540:CA:4883, H-B:LYS:534:NZ:9795, V-A:GLU:543:CD:4908, V-A:GLU:543:CG:4907, V-A:TYR:539:CE1:4875, V-B:ARG:545:CZ:9898, H-A:TYR:539:OH:4878, V-B:ASP:366:CG:8185, V-A:TYR:539:CD1:4873, V-A:TYR:539:C:4867, V-B:GLU:543:CD:9880, V-A:TYR:539:CE2:4876, V-A:PRO:540:CD:4887, V-A:PRO:540:CB:4885, V-A:TYR:539:CD2:4874, V-A:ILE:538:CA:4860, V-A:ILE:538:CB:4862, V-A:PRO:540:N:4884, V-A:ILE:538:CG2:4863, V-B:SER:385:CB:8381, V-B:HIS:456:CE1:9042, H-B:ARG:545:NH2:9900, V-B:HIS:383:CD2:8364, V-A:TYR:539:CB:4871, V-B:PRO:482:CB:9298, V-B:PRO:482:CG:9299, V-A:GLU:543:CB:4906, V-A:VAL:344:CG1:3001, H-B:SER:385:OG:8382, H-B:HIS:383:NE2:8366, V-A:HIS:456:CE1:4070, V-B:HIS:383:CE1:8365"]

$$$$
1c_Grossjean_2025
     RDKit          3D

 40 41  0  0  0  0  0  0  0  0999 V2000
  132.2430  132.4860   55.4260 C   0  0  0  0  0  0  0  0  0  0  0  0
  130.9400  132.9800   55.1350 O   0  0  0  0  0  0  0  0  0  0  0  0
  129.8810  132.6020   55.9390 C   0  0  0  0  0  0  0  0  0  0  0  0
  128.7210  132.1880   55.2860 C   0  0  0  0  0  0  0  0  0  0  0  0
  127.6010  131.7870   56.0090 C   0  0  0  0  0  0  0  0  0  0  0  0
  127.6350  131.7900   57.4120 C   0  0  0  0  0  0  0  0  0  0  0  0
  126.5590  131.4150   58.2390 N   0  0  0  0  0  0  0  0  0  0  0  0
  125.3640  130.8820   57.9040 C   0  0  0  0  0  0  0  0  0  0  0  0
  125.0020  130.6030   56.7610 O   0  0  0  0  0  0  0  0  0  0  0  0
  124.4150  130.6110   59.0730 C   0  0  0  0  0  0  0  0  0  0  0  0
  123.9300  132.1440   59.9200 S   0  0  0  0  0  0  0  0  0  0  0  0
  125.4070  132.9740   60.4710 C   0  0  0  0  0  0  0  0  0  0  0  0
  126.3280  132.1350   61.0110 N   0  0  0  0  0  0  0  0  0  0  0  0
  127.4930  132.6530   61.4650 C   0  0  0  0  0  0  0  0  0  0  0  0
  128.4760  131.6530   62.0460 C   0  0  0  0  0  0  0  0  0  0  0  0
  127.7830  134.0140   61.4110 C   0  0  0  0  0  0  0  0  0  0  0  0
  126.8310  134.8900   60.8790 C   0  0  0  0  0  0  0  0  0  0  0  0
  127.1650  136.3810   60.8470 C   0  0  0  0  0  0  0  0  0  0  0  0
  125.6060  134.3730   60.4000 C   0  0  0  0  0  0  0  0  0  0  0  0
  124.5750  135.2810   59.8900 C   0  0  0  0  0  0  0  0  0  0  0  0
  123.7630  135.9980   59.4870 N   0  0  0  0  0  0  0  0  0  0  0  0
  128.7900  132.2140   58.0690 C   0  0  0  0  0  0  0  0  0  0  0  0
  129.9080  132.6150   57.3420 C   0  0  0  0  0  0  0  0  0  0  0  0
  132.3804  132.4339   56.5161 H   0  0  0  0  0  0  0  0  0  0  0  0
  132.3593  131.4814   54.9934 H   0  0  0  0  0  0  0  0  0  0  0  0
  132.9961  133.1610   54.9934 H   0  0  0  0  0  0  0  0  0  0  0  0
  128.6903  132.1781   54.1865 H   0  0  0  0  0  0  0  0  0  0  0  0
  126.6902  131.4681   55.4811 H   0  0  0  0  0  0  0  0  0  0  0  0
  126.7370  131.5210   59.2270 H   0  0  0  0  0  0  0  0  0  0  0  0
  123.5111  130.1149   58.6898 H   0  0  0  0  0  0  0  0  0  0  0  0
  124.9403  129.9720   59.7980 H   0  0  0  0  0  0  0  0  0  0  0  0
  128.4352  131.6945   63.1445 H   0  0  0  0  0  0  0  0  0  0  0  0
  128.2121  130.6403   61.7073 H   0  0  0  0  0  0  0  0  0  0  0  0
  129.4931  131.8995   61.7073 H   0  0  0  0  0  0  0  0  0  0  0  0
  128.7464  134.3945   61.7812 H   0  0  0  0  0  0  0  0  0  0  0  0
  127.2499  136.7599   61.8762 H   0  0  0  0  0  0  0  0  0  0  0  0
  128.1192  136.5318   60.3209 H   0  0  0  0  0  0  0  0  0  0  0  0
  126.3663  136.9245   60.3209 H   0  0  0  0  0  0  0  0  0  0  0  0
  128.8180  132.2317   59.1685 H   0  0  0  0  0  0  0  0  0  0  0  0
  130.8158  132.9432   57.8695 H   0  0  0  0  0  0  0  0  0  0  0  0
  1  2  1  0
  2  3  1  0
  3  4  2  0
  4  5  1  0
  5  6  2  0
  6  7  1  0
  7  8  1  0
  8  9  2  0
  8 10  1  0
 10 11  1  0
 11 12  1  0
 12 13  2  0
 13 14  1  0
 14 15  1  0
 14 16  2  0
 16 17  1  0
 17 18  1  0
 17 19  2  0
 19 20  1  0
 20 21  3  0
  6 22  1  0
 22 23  2  0
 23  3  1  0
 19 12  1  0
  1 24  1  0
  1 25  1  0
  1 26  1  0
  4 27  1  0
  5 28  1  0
  7 29  1  0
 10 30  1  0
 10 31  1  0
 15 32  1  0
 15 33  1  0
 15 34  1  0
 16 35  1  0
 18 36  1  0
 18 37  1  0
 18 38  1  0
 22 39  1  0
 23 40  1  0
M  END
>  <Binding energies>  (1) 
[-6.68]

>  <Ligand effiencies>  (1) 
[-0.2783333333333333]

>  <Interactions>  (1) 
["V-A:TYR:539:CZ:4877, V-A:ALA:541:CB:4892, V-B:ILE:369:CG2:8209, V-B:LEU:475:CD2:9231, V-A:PRO:540:CA:4883, V-A:TYR:539:CE1:4875, H-A:TYR:539:OH:4878, V-B:ASP:366:CB:8184, V-B:ASP:366:CA:8182, V-A:TYR:539:CD1:4873, V-A:TYR:539:C:4867, V-A:TYR:539:CE2:4876, V-A:PRO:540:CD:4887, V-A:TYR:531:CE2:4793, V-A:LEU:363:CD1:3189, V-A:TYR:539:CD2:4874, V-A:ILE:538:CB:4862, H-A:TYR:539:N:4870, V-A:PRO:540:N:4884, V-A:TYR:539:CG:4872, V-A:ILE:538:CG2:4863, V-B:SER:385:CB:8381, V-B:SER:385:CA:8379, V-B:PRO:482:CB:9298, V-B:PRO:482:CG:9299, V-A:TYR:539:CA:4869, H-B:SER:385:OG:8382"]

$$$$
1d_Ghoteimi_2023
     RDKit          3D

 50 52  0  0  0  0  0  0  0  0999 V2000
  124.7000  122.7380   56.8540 C   0  0  0  0  0  0  0  0  0  0  0  0
  125.9770  122.1170   56.8460 O   0  0  0  0  0  0  0  0  0  0  0  0
  127.0110  122.6840   56.1910 C   0  0  0  0  0  0  0  0  0  0  0  0
  127.1610  122.7310   54.9690 O   0  0  0  0  0  0  0  0  0  0  0  0
  128.0380  123.2910   57.1430 C   0  0  0  0  0  0  0  0  0  0  0  0
  127.2430  124.6920   57.9850 S   0  0  0  0  0  0  0  0  0  0  0  0
  128.5150  125.8920   58.3130 C   0  0  0  0  0  0  0  0  0  0  0  0
  129.3270  125.5580   59.3440 N   0  0  0  0  0  0  0  0  0  0  0  0
  130.3400  126.3870   59.7060 C   0  0  0  0  0  0  0  0  0  0  0  0
  131.1960  125.9410   60.8550 C   0  0  0  0  0  0  0  0  0  0  0  0
  130.8620  126.2610   62.1800 C   0  0  0  0  0  0  0  0  0  0  0  0
  131.6610  125.8520   63.2430 C   0  0  0  0  0  0  0  0  0  0  0  0
  132.8190  125.1120   63.0170 C   0  0  0  0  0  0  0  0  0  0  0  0
  133.5530  124.7520   64.1310 O   0  0  0  0  0  0  0  0  0  0  0  0
  133.1710  125.2590   65.4050 C   0  0  0  0  0  0  0  0  0  0  0  0
  133.1670  124.7840   61.6990 C   0  0  0  0  0  0  0  0  0  0  0  0
  132.3640  125.1950   60.6380 C   0  0  0  0  0  0  0  0  0  0  0  0
  130.5610  127.5840   59.0150 C   0  0  0  0  0  0  0  0  0  0  0  0
  129.7280  127.9610   57.9540 C   0  0  0  0  0  0  0  0  0  0  0  0
  130.0170  129.2560   57.2650 C   0  0  0  0  0  0  0  0  0  0  0  0
  130.4270  130.3700   58.0040 C   0  0  0  0  0  0  0  0  0  0  0  0
  130.6980  131.5790   57.3680 C   0  0  0  0  0  0  0  0  0  0  0  0
  130.5710  131.6970   55.9850 C   0  0  0  0  0  0  0  0  0  0  0  0
  130.8540  132.9360   55.4420 O   0  0  0  0  0  0  0  0  0  0  0  0
  132.2040  133.3860   55.4030 C   0  0  0  0  0  0  0  0  0  0  0  0
  130.1720  130.5780   55.2380 C   0  0  0  0  0  0  0  0  0  0  0  0
  129.9030  129.3700   55.8750 C   0  0  0  0  0  0  0  0  0  0  0  0
  128.6570  127.1040   57.6000 C   0  0  0  0  0  0  0  0  0  0  0  0
  127.6930  127.4980   56.5680 C   0  0  0  0  0  0  0  0  0  0  0  0
  126.9320  127.8100   55.7540 N   0  0  0  0  0  0  0  0  0  0  0  0
  124.3755  122.8958   57.8931 H   0  0  0  0  0  0  0  0  0  0  0  0
  124.7604  123.7073   56.3375 H   0  0  0  0  0  0  0  0  0  0  0  0
  123.9748  122.0919   56.3375 H   0  0  0  0  0  0  0  0  0  0  0  0
  128.3551  122.5400   57.8816 H   0  0  0  0  0  0  0  0  0  0  0  0
  128.9278  123.6262   56.5899 H   0  0  0  0  0  0  0  0  0  0  0  0
  129.9523  126.8456   62.3817 H   0  0  0  0  0  0  0  0  0  0  0  0
  131.3753  126.1157   64.2720 H   0  0  0  0  0  0  0  0  0  0  0  0
  133.6312  124.6482   66.1957 H   0  0  0  0  0  0  0  0  0  0  0  0
  133.5106  126.3008   65.5019 H   0  0  0  0  0  0  0  0  0  0  0  0
  132.0760  125.2198   65.5019 H   0  0  0  0  0  0  0  0  0  0  0  0
  134.0780  124.1997   61.5022 H   0  0  0  0  0  0  0  0  0  0  0  0
  132.6512  124.9295   59.6099 H   0  0  0  0  0  0  0  0  0  0  0  0
  131.3975  128.2353   59.3082 H   0  0  0  0  0  0  0  0  0  0  0  0
  130.5363  130.2909   59.0957 H   0  0  0  0  0  0  0  0  0  0  0  0
  131.0151  132.4485   57.9624 H   0  0  0  0  0  0  0  0  0  0  0  0
  132.5787  133.5109   56.4297 H   0  0  0  0  0  0  0  0  0  0  0  0
  132.8223  132.6454   54.8746 H   0  0  0  0  0  0  0  0  0  0  0  0
  132.2542  134.3495   54.8746 H   0  0  0  0  0  0  0  0  0  0  0  0
  130.0715  130.6558   54.1454 H   0  0  0  0  0  0  0  0  0  0  0  0
  129.5979  128.4966   55.2800 H   0  0  0  0  0  0  0  0  0  0  0  0
  1  2  1  0
  2  3  1  0
  3  4  2  0
  3  5  1  0
  5  6  1  0
  6  7  1  0
  7  8  2  0
  8  9  1  0
  9 10  1  0
 10 11  2  0
 11 12  1  0
 12 13  2  0
 13 14  1  0
 14 15  1  0
 13 16  1  0
 16 17  2  0
  9 18  2  0
 18 19  1  0
 19 20  1  0
 20 21  2  0
 21 22  1  0
 22 23  2  0
 23 24  1  0
 24 25  1  0
 23 26  1  0
 26 27  2  0
 19 28  2  0
 28 29  1  0
 29 30  3  0
 28  7  1  0
 17 10  1  0
 27 20  1  0
  1 31  1  0
  1 32  1  0
  1 33  1  0
  5 34  1  0
  5 35  1  0
 11 36  1  0
 12 37  1  0
 15 38  1  0
 15 39  1  0
 15 40  1  0
 16 41  1  0
 17 42  1  0
 18 43  1  0
 21 44  1  0
 22 45  1  0
 25 46  1  0
 25 47  1  0
 25 48  1  0
 26 49  1  0
 27 50  1  0
M  END
>  <Binding energies>  (1) 
[-7.95]

>  <Ligand effiencies>  (1) 
[-0.265]

>  <Interactions>  (1) 
["V-A:ASP:366:CG:3213, V-B:MET:535:CE:9807, V-A:PRO:540:CA:4883, V-B:TYR:539:CE2:9848, V-A:GLU:543:CD:4908, V-B:TYR:539:CZ:9849, V-B:TYR:539:CD2:9846, V-A:ARG:545:CZ:4926, H-B:TYR:531:OH:9767, V-B:TYR:539:CD1:9845, V-A:TYR:484:CZ:4347, V-B:TYR:539:CE1:9847, H-B:TYR:539:N:9842, V-B:PRO:540:CB:9857, V-B:PRO:540:N:9856, V-B:LEU:363:CD1:8161, V-B:TYR:531:CE2:9765, V-A:PRO:540:CD:4887, V-A:PRO:540:CB:4885, V-A:LEU:363:CD1:3189, V-A:ILE:538:CA:4860, V-A:ILE:538:CB:4862, H-A:TYR:539:N:4870, V-A:PRO:540:N:4884, V-A:ILE:538:CG2:4863, V-B:PRO:540:CG:9858, V-B:PRO:540:CD:9859, H-A:GLY:454:N:4050, H-A:TYR:484:OH:4348, V-A:PRO:540:CG:4886, H-A:ARG:545:NH2:4928, V-A:TYR:484:CE2:4346, V-A:ILE:538:C:4858, H-A:ARG:545:NE:4924, V-A:ARG:545:CD:4923, V-A:ARG:545:CG:4922, V-A:ILE:538:CG1:4864, V-A:ILE:538:CD1:4865"]

$$$$
1d_Grossjean_2025
     RDKit          3D

 36 37  0  0  0  0  0  0  0  0999 V2000
  132.7360  124.7380   60.9340 C   0  0  0  0  0  0  0  0  0  0  0  0
  132.0910  123.3660   60.9740 C   0  0  0  0  0  0  0  0  0  0  0  0
  132.6830  122.2630   60.3630 C   0  0  0  0  0  0  0  0  0  0  0  0
  132.0480  121.0200   60.4420 C   0  0  0  0  0  0  0  0  0  0  0  0
  132.7240  119.8220   59.7780 C   0  0  0  0  0  0  0  0  0  0  0  0
  130.8170  120.9140   61.1300 C   0  0  0  0  0  0  0  0  0  0  0  0
  130.1580  119.6140   61.2660 C   0  0  0  0  0  0  0  0  0  0  0  0
  129.6390  118.5840   61.3710 N   0  0  0  0  0  0  0  0  0  0  0  0
  130.2770  122.0910   61.6990 C   0  0  0  0  0  0  0  0  0  0  0  0
  128.7420  122.1420   62.5960 S   0  0  0  0  0  0  0  0  0  0  0  0
  127.8340  123.6160   62.0370 C   0  0  0  0  0  0  0  0  0  0  0  0
  126.7570  123.2720   61.0070 C   0  0  0  0  0  0  0  0  0  0  0  0
  125.6590  122.8720   61.3960 O   0  0  0  0  0  0  0  0  0  0  0  0
  127.1070  123.4670   59.7170 N   0  0  0  0  0  0  0  0  0  0  0  0
  126.3730  123.2380   58.5380 C   0  0  0  0  0  0  0  0  0  0  0  0
  125.0320  123.6310   58.5740 C   0  0  0  0  0  0  0  0  0  0  0  0
  124.2170  123.4540   57.4590 C   0  0  0  0  0  0  0  0  0  0  0  0
  124.7460  122.8900   56.3010 C   0  0  0  0  0  0  0  0  0  0  0  0
  126.0820  122.5020   56.2490 C   0  0  0  0  0  0  0  0  0  0  0  0
  126.8990  122.6760   57.3630 C   0  0  0  0  0  0  0  0  0  0  0  0
  130.9120  123.2890   61.6350 N   0  0  0  0  0  0  0  0  0  0  0  0
  132.9036  125.0945   61.9611 H   0  0  0  0  0  0  0  0  0  0  0  0
  133.6989  124.6752   60.4060 H   0  0  0  0  0  0  0  0  0  0  0  0
  132.0733  125.4394   60.4060 H   0  0  0  0  0  0  0  0  0  0  0  0
  133.6370  122.3686   59.8257 H   0  0  0  0  0  0  0  0  0  0  0  0
  133.1078  119.1418   60.5526 H   0  0  0  0  0  0  0  0  0  0  0  0
  131.9933  119.2894   59.1516 H   0  0  0  0  0  0  0  0  0  0  0  0
  133.5577  120.1721   59.1516 H   0  0  0  0  0  0  0  0  0  0  0  0
  127.3547  124.0885   62.9071 H   0  0  0  0  0  0  0  0  0  0  0  0
  128.5542  124.2967   61.5596 H   0  0  0  0  0  0  0  0  0  0  0  0
  128.0290  123.8470   59.5600 H   0  0  0  0  0  0  0  0  0  0  0  0
  124.6185  124.0824   59.4879 H   0  0  0  0  0  0  0  0  0  0  0  0
  123.1604  123.7582   57.4928 H   0  0  0  0  0  0  0  0  0  0  0  0
  124.1028  122.7498   55.4197 H   0  0  0  0  0  0  0  0  0  0  0  0
  126.4915  122.0587   55.3293 H   0  0  0  0  0  0  0  0  0  0  0  0
  127.9558  122.3735   57.3230 H   0  0  0  0  0  0  0  0  0  0  0  0
  1  2  1  0
  2  3  2  0
  3  4  1  0
  4  5  1  0
  4  6  2  0
  6  7  1  0
  7  8  3  0
  6  9  1  0
  9 10  1  0
 10 11  1  0
 11 12  1  0
 12 13  2  0
 12 14  1  0
 14 15  1  0
 15 16  2  0
 16 17  1  0
 17 18  2  0
 18 19  1  0
 19 20  2  0
  9 21  2  0
 21  2  1  0
 20 15  1  0
  1 22  1  0
  1 23  1  0
  1 24  1  0
  3 25  1  0
  5 26  1  0
  5 27  1  0
  5 28  1  0
 11 29  1  0
 11 30  1  0
 14 31  1  0
 16 32  1  0
 17 33  1  0
 18 34  1  0
 19 35  1  0
 20 36  1  0
M  END
>  <Binding energies>  (1) 
[-7.6]

>  <Ligand effiencies>  (1) 
[-0.34545454545454546]

>  <Interactions>  (1) 
["V-A:ASP:366:CG:3213, V-B:TYR:539:CE2:9848, V-A:ILE:369:CG2:3237, V-B:TYR:539:CD2:9846, V-A:LEU:475:CD2:4259, V-B:TYR:539:C:9839, V-B:PRO:540:CB:9857, V-B:PRO:540:CA:9855, H-B:ALA:541:N:9863, V-B:PRO:540:N:9856, V-B:LEU:363:CD1:8161, V-B:TYR:531:CZ:9766, V-B:TYR:531:CE2:9765, V-B:GLU:543:CD:9880, V-B:ILE:538:CA:9832, V-B:ILE:538:CD1:9837, V-B:GLU:543:CG:9879, V-B:PRO:540:CD:9859, V-A:LEU:475:CD1:4258, V-B:ALA:541:CB:9864, V-B:ILE:538:CG2:9835, H-A:TYR:484:OH:4348, V-A:SER:385:CB:3409, V-A:SER:385:CA:3407"]

$$$$
1e_Grossjean_2025
     RDKit          3D

 38 39  0  0  0  0  0  0  0  0999 V2000
  123.0970  129.5850   67.0420 C   0  0  0  0  0  0  0  0  0  0  0  0
  124.2600  129.3840   66.0890 C   0  0  0  0  0  0  0  0  0  0  0  0
  125.4990  128.9160   66.5350 C   0  0  0  0  0  0  0  0  0  0  0  0
  126.5230  128.7580   65.6000 C   0  0  0  0  0  0  0  0  0  0  0  0
  126.2890  129.0690   64.2590 C   0  0  0  0  0  0  0  0  0  0  0  0
  125.0220  129.5280   63.8790 C   0  0  0  0  0  0  0  0  0  0  0  0
  124.8500  129.8350   62.5180 N   0  0  0  0  0  0  0  0  0  0  0  0
  123.7210  130.2070   61.8760 C   0  0  0  0  0  0  0  0  0  0  0  0
  122.6150  130.3290   62.4050 O   0  0  0  0  0  0  0  0  0  0  0  0
  123.8610  130.4580   60.3730 C   0  0  0  0  0  0  0  0  0  0  0  0
  123.7770  132.2280   59.9690 S   0  0  0  0  0  0  0  0  0  0  0  0
  125.2560  133.0210   60.5660 C   0  0  0  0  0  0  0  0  0  0  0  0
  126.1280  132.1630   61.1550 N   0  0  0  0  0  0  0  0  0  0  0  0
  127.2890  132.6500   61.6510 C   0  0  0  0  0  0  0  0  0  0  0  0
  128.2160  131.6310   62.2860 C   0  0  0  0  0  0  0  0  0  0  0  0
  127.6220  134.0010   61.5930 C   0  0  0  0  0  0  0  0  0  0  0  0
  126.7210  134.8990   61.0120 C   0  0  0  0  0  0  0  0  0  0  0  0
  127.1020  136.3780   60.9780 C   0  0  0  0  0  0  0  0  0  0  0  0
  125.5000  134.4130   60.4900 C   0  0  0  0  0  0  0  0  0  0  0  0
  124.5200  135.3480   59.9310 C   0  0  0  0  0  0  0  0  0  0  0  0
  123.7480  136.0880   59.4890 N   0  0  0  0  0  0  0  0  0  0  0  0
  124.0170  129.6890   64.7890 N   0  0  0  0  0  0  0  0  0  0  0  0
  123.4579  129.5226   68.0792 H   0  0  0  0  0  0  0  0  0  0  0  0
  122.6478  130.5741   66.8689 H   0  0  0  0  0  0  0  0  0  0  0  0
  122.3419  128.8040   66.8689 H   0  0  0  0  0  0  0  0  0  0  0  0
  125.6630  128.6781   67.5964 H   0  0  0  0  0  0  0  0  0  0  0  0
  127.5097  128.3902   65.9179 H   0  0  0  0  0  0  0  0  0  0  0  0
  127.0884  128.9551   63.5120 H   0  0  0  0  0  0  0  0  0  0  0  0
  125.6740  129.7080   61.9480 H   0  0  0  0  0  0  0  0  0  0  0  0
  124.8301  130.0620   60.0354 H   0  0  0  0  0  0  0  0  0  0  0  0
  123.0265  129.9529   59.8645 H   0  0  0  0  0  0  0  0  0  0  0  0
  128.1479  131.7058   63.3813 H   0  0  0  0  0  0  0  0  0  0  0  0
  127.9218  130.6197   61.9686 H   0  0  0  0  0  0  0  0  0  0  0  0
  129.2505  131.8285   61.9686 H   0  0  0  0  0  0  0  0  0  0  0  0
  128.5806  134.3569   61.9986 H   0  0  0  0  0  0  0  0  0  0  0  0
  127.1992  136.7553   62.0067 H   0  0  0  0  0  0  0  0  0  0  0  0
  128.0603  136.4978   60.4514 H   0  0  0  0  0  0  0  0  0  0  0  0
  126.3208  136.9459   60.4514 H   0  0  0  0  0  0  0  0  0  0  0  0
  1  2  1  0
  2  3  2  0
  3  4  1  0
  4  5  2  0
  5  6  1  0
  6  7  1  0
  7  8  1  0
  8  9  2  0
  8 10  1  0
 10 11  1  0
 11 12  1  0
 12 13  2  0
 13 14  1  0
 14 15  1  0
 14 16  2  0
 16 17  1  0
 17 18  1  0
 17 19  2  0
 19 20  1  0
 20 21  3  0
  6 22  2  0
 22  2  1  0
 19 12  1  0
  1 23  1  0
  1 24  1  0
  1 25  1  0
  3 26  1  0
  4 27  1  0
  5 28  1  0
  7 29  1  0
 10 30  1  0
 10 31  1  0
 15 32  1  0
 15 33  1  0
 15 34  1  0
 16 35  1  0
 18 36  1  0
 18 37  1  0
 18 38  1  0
M  END
>  <Binding energies>  (1) 
[-7.37]

>  <Ligand effiencies>  (1) 
[-0.3204347826086957]

>  <Interactions>  (1) 
["V-A:ALA:541:CB:4892, V-B:ILE:369:CG2:8209, V-B:LEU:475:CD2:9231, H-B:GLY:454:N:9022, H-B:TYR:484:OH:9320, V-A:TYR:539:CE1:4875, V-B:ARG:545:CZ:9898, V-B:ASP:366:CG:8185, V-B:ASP:366:CB:8184, V-B:ASP:366:CA:8182, V-A:TYR:539:CD1:4873, V-B:GLU:543:CD:9880, V-B:GLY:454:CA:9021, V-B:SER:385:CB:8381, V-B:SER:385:CA:8379, V-B:ARG:545:CD:9895, H-B:ARG:545:NE:9896, V-B:ARG:545:CG:9894, V-B:TYR:484:CZ:9319, V-B:HIS:456:CE1:9042, V-B:GLY:453:C:9014, V-B:PRO:482:CB:9298, V-B:PRO:482:CG:9299, V-B:ILE:455:C:9024, H-B:ARG:545:NH1:9899, V-B:GLY:453:CA:9016, H-B:SER:385:OG:8382, V-B:ARG:545:CB:9893"]

$$$$
1f_Grossjean_2025
     RDKit          3D

 35 36  0  0  0  0  0  0  0  0999 V2000
  129.5670  125.4280   57.5190 C   0  0  0  0  0  0  0  0  0  0  0  0
  130.5090  124.7050   58.4640 C   0  0  0  0  0  0  0  0  0  0  0  0
  131.8880  124.8800   58.3940 C   0  0  0  0  0  0  0  0  0  0  0  0
  132.7070  124.1770   59.2840 C   0  0  0  0  0  0  0  0  0  0  0  0
  134.2190  124.3710   59.1760 C   0  0  0  0  0  0  0  0  0  0  0  0
  132.1160  123.3150   60.2350 C   0  0  0  0  0  0  0  0  0  0  0  0
  132.9600  122.5270   61.1380 C   0  0  0  0  0  0  0  0  0  0  0  0
  133.6280  121.9070   61.8500 N   0  0  0  0  0  0  0  0  0  0  0  0
  130.7040  123.2200   60.2530 C   0  0  0  0  0  0  0  0  0  0  0  0
  129.7840  122.1880   61.3760 S   0  0  0  0  0  0  0  0  0  0  0  0
  128.3070  123.1090   61.9270 C   0  0  0  0  0  0  0  0  0  0  0  0
  127.1010  123.0240   60.9800 C   0  0  0  0  0  0  0  0  0  0  0  0
  125.9640  122.8720   61.4280 O   0  0  0  0  0  0  0  0  0  0  0  0
  127.4110  123.1010   59.6680 N   0  0  0  0  0  0  0  0  0  0  0  0
  126.5670  123.0660   58.5410 C   0  0  0  0  0  0  0  0  0  0  0  0
  125.2540  123.5710   58.4840 C   0  0  0  0  0  0  0  0  0  0  0  0
  124.5270  123.4720   57.2950 C   0  0  0  0  0  0  0  0  0  0  0  0
  125.1310  122.8730   56.1900 C   0  0  0  0  0  0  0  0  0  0  0  0
  126.3960  122.3830   56.2170 N   0  0  0  0  0  0  0  0  0  0  0  0
  127.0900  122.4860   57.3800 C   0  0  0  0  0  0  0  0  0  0  0  0
  129.9200  123.8880   59.3690 N   0  0  0  0  0  0  0  0  0  0  0  0
  128.8271  125.9959   58.1022 H   0  0  0  0  0  0  0  0  0  0  0  0
  130.1424  126.1186   56.8849 H   0  0  0  0  0  0  0  0  0  0  0  0
  129.0487  124.6936   56.8849 H   0  0  0  0  0  0  0  0  0  0  0  0
  132.3273  125.5609   57.6500 H   0  0  0  0  0  0  0  0  0  0  0  0
  134.6545  124.4269   60.1846 H   0  0  0  0  0  0  0  0  0  0  0  0
  134.6597  123.5220   58.6328 H   0  0  0  0  0  0  0  0  0  0  0  0
  134.4311  125.3037   58.6328 H   0  0  0  0  0  0  0  0  0  0  0  0
  128.0015  122.7107   62.9058 H   0  0  0  0  0  0  0  0  0  0  0  0
  128.5991  124.1690   61.9599 H   0  0  0  0  0  0  0  0  0  0  0  0
  128.3930  123.1830   59.4470 H   0  0  0  0  0  0  0  0  0  0  0  0
  124.8031  124.0408   59.3705 H   0  0  0  0  0  0  0  0  0  0  0  0
  123.4991  123.8587   57.2318 H   0  0  0  0  0  0  0  0  0  0  0  0
  124.5566  122.7943   55.2552 H   0  0  0  0  0  0  0  0  0  0  0  0
  128.1169  122.0929   57.4108 H   0  0  0  0  0  0  0  0  0  0  0  0
  1  2  1  0
  2  3  2  0
  3  4  1  0
  4  5  1  0
  4  6  2  0
  6  7  1  0
  7  8  3  0
  6  9  1  0
  9 10  1  0
 10 11  1  0
 11 12  1  0
 12 13  2  0
 12 14  1  0
 14 15  1  0
 15 16  2  0
 16 17  1  0
 17 18  2  0
 18 19  1  0
 19 20  2  0
  9 21  2  0
 21  2  1  0
 20 15  1  0
  1 22  1  0
  1 23  1  0
  1 24  1  0
  3 25  1  0
  5 26  1  0
  5 27  1  0
  5 28  1  0
 11 29  1  0
 11 30  1  0
 14 31  1  0
 16 32  1  0
 17 33  1  0
 18 34  1  0
 20 35  1  0
M  END
>  <Binding energies>  (1) 
[-7.15]

>  <Ligand effiencies>  (1) 
[-0.325]

>  <Interactions>  (1) 
["V-A:ASP:366:CA:3210, V-A:ILE:369:CB:3236, V-A:ASP:366:CG:3213, V-B:TYR:539:CE2:9848, V-A:ASP:366:CB:3212, V-B:TYR:539:CZ:9849, V-A:ASP:366:C:3208, V-A:ILE:369:CG2:3237, V-B:TYR:539:CD2:9846, V-A:LEU:475:CD2:4259, V-B:TYR:539:CG:9844, V-B:TYR:539:C:9839, H-B:TYR:539:N:9842, V-B:PRO:540:CB:9857, V-B:PRO:540:CA:9855, H-B:ALA:541:N:9863, V-B:PRO:540:N:9856, V-A:ILE:369:CD1:3239, V-B:LEU:363:CD1:8161, V-B:TYR:531:CZ:9766, V-B:TYR:531:CE2:9765, V-B:GLU:543:CD:9880, V-B:ILE:538:CD1:9837, V-B:PRO:540:C:9853, V-B:TYR:539:CA:9841, V-B:PRO:540:CD:9859, H-A:GLY:454:N:4050, V-A:ILE:369:CG1:3238"]

$$$$
1g_Grossjean_2025
     RDKit          3D

 39 40  0  0  0  0  0  0  0  0999 V2000
  127.2750  122.5310   54.9610 C   0  0  0  0  0  0  0  0  0  0  0  0
  126.8380  122.8560   56.3770 C   0  0  0  0  0  0  0  0  0  0  0  0
  125.5000  123.0810   56.6940 C   0  0  0  0  0  0  0  0  0  0  0  0
  125.1590  123.3940   58.0140 C   0  0  0  0  0  0  0  0  0  0  0  0
  123.6870  123.6510   58.3350 C   0  0  0  0  0  0  0  0  0  0  0  0
  126.1750  123.4650   58.9930 C   0  0  0  0  0  0  0  0  0  0  0  0
  125.8480  123.8420   60.3710 C   0  0  0  0  0  0  0  0  0  0  0  0
  125.5860  124.1410   61.4580 N   0  0  0  0  0  0  0  0  0  0  0  0
  127.5030  123.1970   58.5860 C   0  0  0  0  0  0  0  0  0  0  0  0
  128.9000  123.2330   59.6870 S   0  0  0  0  0  0  0  0  0  0  0  0
  128.5300  122.1080   61.0660 C   0  0  0  0  0  0  0  0  0  0  0  0
  129.7320  121.2360   61.4310 C   0  0  0  0  0  0  0  0  0  0  0  0
  130.2460  121.3300   62.5470 O   0  0  0  0  0  0  0  0  0  0  0  0
  130.1700  120.3960   60.4770 N   0  0  0  0  0  0  0  0  0  0  0  0
  131.2620  119.4350   60.6290 C   0  0  0  0  0  0  0  0  0  0  0  0
  131.0690  118.1380   59.8490 C   0  0  0  0  0  0  0  0  0  0  0  0
  130.0230  117.2720   60.1830 C   0  0  0  0  0  0  0  0  0  0  0  0
  129.8460  116.0880   59.4700 C   0  0  0  0  0  0  0  0  0  0  0  0
  130.7130  115.7770   58.4250 C   0  0  0  0  0  0  0  0  0  0  0  0
  131.7540  116.6370   58.0850 C   0  0  0  0  0  0  0  0  0  0  0  0
  131.9330  117.8200   58.7970 C   0  0  0  0  0  0  0  0  0  0  0  0
  127.8280  122.9170   57.2980 N   0  0  0  0  0  0  0  0  0  0  0  0
  128.1573  121.8748   54.9911 H   0  0  0  0  0  0  0  0  0  0  0  0
  126.4563  122.0206   54.4326 H   0  0  0  0  0  0  0  0  0  0  0  0
  127.5282  123.4620   54.4326 H   0  0  0  0  0  0  0  0  0  0  0  0
  124.7235  123.0135   55.9178 H   0  0  0  0  0  0  0  0  0  0  0  0
  123.5484  123.6752   59.4260 H   0  0  0  0  0  0  0  0  0  0  0  0
  123.3810  124.6161   57.9050 H   0  0  0  0  0  0  0  0  0  0  0  0
  123.0721  122.8466   57.9050 H   0  0  0  0  0  0  0  0  0  0  0  0
  128.2442  122.7049   61.9446 H   0  0  0  0  0  0  0  0  0  0  0  0
  127.7107  121.4441   60.7530 H   0  0  0  0  0  0  0  0  0  0  0  0
  129.6760  120.3700   59.5970 H   0  0  0  0  0  0  0  0  0  0  0  0
  132.1909  119.9110   60.2818 H   0  0  0  0  0  0  0  0  0  0  0  0
  131.2948  119.1608   61.6938 H   0  0  0  0  0  0  0  0  0  0  0  0
  129.3406  117.5253   61.0078 H   0  0  0  0  0  0  0  0  0  0  0  0
  129.0261  115.4026   59.7309 H   0  0  0  0  0  0  0  0  0  0  0  0
  130.5738  114.8421   57.8624 H   0  0  0  0  0  0  0  0  0  0  0  0
  132.4323  116.3827   57.2572 H   0  0  0  0  0  0  0  0  0  0  0  0
  132.7532  118.5035   58.5321 H   0  0  0  0  0  0  0  0  0  0  0  0
  1  2  1  0
  2  3  2  0
  3  4  1  0
  4  5  1  0
  4  6  2  0
  6  7  1  0
  7  8  3  0
  6  9  1  0
  9 10  1  0
 10 11  1  0
 11 12  1  0
 12 13  2  0
 12 14  1  0
 14 15  1  0
 15 16  1  0
 16 17  2  0
 17 18  1  0
 18 19  2  0
 19 20  1  0
 20 21  2  0
  9 22  2  0
 22  2  1  0
 21 16  1  0
  1 23  1  0
  1 24  1  0
  1 25  1  0
  3 26  1  0
  5 27  1  0
  5 28  1  0
  5 29  1  0
 11 30  1  0
 11 31  1  0
 14 32  1  0
 15 33  1  0
 15 34  1  0
 17 35  1  0
 18 36  1  0
 19 37  1  0
 20 38  1  0
 21 39  1  0
M  END
>  <Binding energies>  (1) 
[-9.26]

>  <Ligand effiencies>  (1) 
[-0.4026086956521739]

>  <Interactions>  (1) 
["V-B:MET:535:CE:9807, V-B:TYR:539:CE2:9848, V-B:TYR:539:CZ:9849, V-B:TYR:539:CD2:9846, V-A:LEU:475:CD2:4259, V-B:TYR:539:CD1:9845, V-B:TYR:539:CG:9844, V-B:TYR:539:CE1:9847, V-B:TYR:539:C:9839, V-B:ASP:366:CG:8185, V-B:PRO:540:CB:9857, V-B:PRO:540:CA:9855, V-B:PRO:540:N:9856, V-B:LEU:363:CD1:8161, V-B:ILE:538:CA:9832, V-B:ILE:538:CD1:9837, V-B:TYR:539:CB:9843, V-B:ALA:541:CB:9864, H-A:TYR:484:OH:4348, V-B:ILE:538:C:9830, H-B:ARG:545:NH2:9900, V-B:LEU:363:CA:8157, V-B:LEU:363:CB:8159, H-B:TYR:539:O:9840, V-A:SER:385:CB:3409, V-B:VAL:344:CG2:7974, V-B:VAL:344:CG1:7973, V-A:LEU:373:CD1:3280, V-A:PRO:482:CB:4326, V-A:HIS:383:CE1:3394, V-A:PRO:482:CG:4327, V-A:LEU:373:CD2:3281, V-B:ILE:343:CG2:7964, V-B:ILE:343:CB:7963"]

$$$$
1h_Grossjean_2025
     RDKit          3D

 51 52  0  0  0  0  0  0  0  0999 V2000
  123.0970  130.7060   61.5100 C   0  0  0  0  0  0  0  0  0  0  0  0
  123.3240  130.3260   62.8630 O   0  0  0  0  0  0  0  0  0  0  0  0
  124.4530  129.5940   63.1820 C   0  0  0  0  0  0  0  0  0  0  0  0
  125.2080  128.8690   62.2470 C   0  0  0  0  0  0  0  0  0  0  0  0
  126.3300  128.1410   62.6440 C   0  0  0  0  0  0  0  0  0  0  0  0
  127.1550  127.3760   61.6130 C   0  0  0  0  0  0  0  0  0  0  0  0
  126.8880  125.9380   61.5870 N   0  0  0  0  0  0  0  0  0  0  0  0
  126.6930  125.2040   60.4770 C   0  0  0  0  0  0  0  0  0  0  0  0
  126.7420  125.6640   59.3360 O   0  0  0  0  0  0  0  0  0  0  0  0
  126.3880  123.7210   60.6860 C   0  0  0  0  0  0  0  0  0  0  0  0
  127.3180  123.0250   62.0850 S   0  0  0  0  0  0  0  0  0  0  0  0
  129.0450  123.4130   61.8490 C   0  0  0  0  0  0  0  0  0  0  0  0
  129.3530  124.7360   61.8210 N   0  0  0  0  0  0  0  0  0  0  0  0
  130.6460  125.1000   61.6500 C   0  0  0  0  0  0  0  0  0  0  0  0
  130.9120  126.5940   61.6330 C   0  0  0  0  0  0  0  0  0  0  0  0
  131.6750  124.1740   61.4990 C   0  0  0  0  0  0  0  0  0  0  0  0
  131.3700  122.8090   61.5240 C   0  0  0  0  0  0  0  0  0  0  0  0
  132.5130  121.8100   61.3590 C   0  0  0  0  0  0  0  0  0  0  0  0
  130.0260  122.4060   61.7020 C   0  0  0  0  0  0  0  0  0  0  0  0
  129.6770  120.9830   61.7300 C   0  0  0  0  0  0  0  0  0  0  0  0
  129.4010  119.8590   61.7520 N   0  0  0  0  0  0  0  0  0  0  0  0
  126.7280  128.1630   63.9810 C   0  0  0  0  0  0  0  0  0  0  0  0
  125.9950  128.8840   64.9370 C   0  0  0  0  0  0  0  0  0  0  0  0
  126.3290  128.9490   66.2780 O   0  0  0  0  0  0  0  0  0  0  0  0
  127.6960  128.8550   66.6640 C   0  0  0  0  0  0  0  0  0  0  0  0
  124.8530  129.5870   64.5270 C   0  0  0  0  0  0  0  0  0  0  0  0
  124.1300  130.3020   65.4500 O   0  0  0  0  0  0  0  0  0  0  0  0
  123.6080  129.5150   66.5120 C   0  0  0  0  0  0  0  0  0  0  0  0
  122.5330  131.6501   61.4840 H   0  0  0  0  0  0  0  0  0  0  0  0
  124.0623  130.8414   61.0003 H   0  0  0  0  0  0  0  0  0  0  0  0
  122.5202  129.9202   61.0003 H   0  0  0  0  0  0  0  0  0  0  0  0
  124.9113  128.8748   61.1878 H   0  0  0  0  0  0  0  0  0  0  0  0
  126.9324  127.7874   60.6174 H   0  0  0  0  0  0  0  0  0  0  0  0
  128.2111  127.4990   61.8951 H   0  0  0  0  0  0  0  0  0  0  0  0
  126.8170  125.4830   62.4850 H   0  0  0  0  0  0  0  0  0  0  0  0
  125.3119  123.6038   60.8815 H   0  0  0  0  0  0  0  0  0  0  0  0
  126.6882  123.1808   59.7760 H   0  0  0  0  0  0  0  0  0  0  0  0
  130.9783  126.9664   62.6659 H   0  0  0  0  0  0  0  0  0  0  0  0
  131.8595  126.7918   61.1104 H   0  0  0  0  0  0  0  0  0  0  0  0
  130.0910  127.1067   61.1104 H   0  0  0  0  0  0  0  0  0  0  0  0
  132.7131  124.5111   61.3620 H   0  0  0  0  0  0  0  0  0  0  0  0
  132.8718  121.4964   62.3504 H   0  0  0  0  0  0  0  0  0  0  0  0
  132.1542  120.9307   60.8039 H   0  0  0  0  0  0  0  0  0  0  0  0
  133.3363  122.2832   60.8039 H   0  0  0  0  0  0  0  0  0  0  0  0
  127.6267  127.6089   64.2898 H   0  0  0  0  0  0  0  0  0  0  0  0
  127.7675  128.8501   67.7617 H   0  0  0  0  0  0  0  0  0  0  0  0
  128.1268  127.9251   66.2643 H   0  0  0  0  0  0  0  0  0  0  0  0
  128.2500  129.7172   66.2643 H   0  0  0  0  0  0  0  0  0  0  0  0
  123.9017  129.9578   67.4752 H   0  0  0  0  0  0  0  0  0  0  0  0
  122.5107  129.4855   66.4414 H   0  0  0  0  0  0  0  0  0  0  0  0
  124.0076  128.4926   66.4414 H   0  0  0  0  0  0  0  0  0  0  0  0
  1  2  1  0
  2  3  1  0
  3  4  2  0
  4  5  1  0
  5  6  1  0
  6  7  1  0
  7  8  1  0
  8  9  2  0
  8 10  1  0
 10 11  1  0
 11 12  1  0
 12 13  2  0
 13 14  1  0
 14 15  1  0
 14 16  2  0
 16 17  1  0
 17 18  1  0
 17 19  2  0
 19 20  1  0
 20 21  3  0
  5 22  2  0
 22 23  1  0
 23 24  1  0
 24 25  1  0
 23 26  2  0
 26 27  1  0
 27 28  1  0
 26  3  1  0
 19 12  1  0
  1 29  1  0
  1 30  1  0
  1 31  1  0
  4 32  1  0
  6 33  1  0
  6 34  1  0
  7 35  1  0
 10 36  1  0
 10 37  1  0
 15 38  1  0
 15 39  1  0
 15 40  1  0
 16 41  1  0
 18 42  1  0
 18 43  1  0
 18 44  1  0
 22 45  1  0
 25 46  1  0
 25 47  1  0
 25 48  1  0
 28 49  1  0
 28 50  1  0
 28 51  1  0
M  END
>  <Binding energies>  (1) 
[-6.34]

>  <Ligand effiencies>  (1) 
[-0.2186206896551724]

>  <Interactions>  (1) 
["V-B:ILE:369:CD1:8211, H-B:GLY:454:N:9022, H-B:TYR:484:OH:9320, V-B:ARG:545:CZ:9898, V-A:LEU:475:CD2:4259, V-B:ASP:366:CG:8185, V-B:PRO:540:CB:9857, V-B:PRO:540:CA:9855, H-B:ALA:541:N:9863, H-B:GLU:543:OE2:9882, V-B:GLU:543:CD:9880, H-B:GLU:543:OE1:9881, V-B:ALA:541:CB:9864, V-B:GLY:454:CA:9021, V-B:ARG:545:CD:9895, V-B:ARG:545:CG:9894, V-B:HIS:456:CE1:9042, V-B:GLY:453:C:9014, V-B:GLY:453:CA:9016, V-A:GLU:543:CB:4906"]

$$$$
1i_Grossjean_2025
     RDKit          3D

 32 33  0  0  0  0  0  0  0  0999 V2000
  131.8990  125.1010   60.5320 C   0  0  0  0  0  0  0  0  0  0  0  0
  131.5670  123.6220   60.5910 C   0  0  0  0  0  0  0  0  0  0  0  0
  132.4910  122.6510   60.2100 C   0  0  0  0  0  0  0  0  0  0  0  0
  132.1320  121.3020   60.2950 C   0  0  0  0  0  0  0  0  0  0  0  0
  133.1670  120.2550   59.8870 C   0  0  0  0  0  0  0  0  0  0  0  0
  130.8410  120.9570   60.7580 C   0  0  0  0  0  0  0  0  0  0  0  0
  130.4630  119.5490   60.9020 C   0  0  0  0  0  0  0  0  0  0  0  0
  130.1670  118.4360   61.0170 N   0  0  0  0  0  0  0  0  0  0  0  0
  129.9600  122.0100   61.1000 C   0  0  0  0  0  0  0  0  0  0  0  0
  128.3040  121.7590   61.6980 S   0  0  0  0  0  0  0  0  0  0  0  0
  127.3840  123.3040   61.4360 C   0  0  0  0  0  0  0  0  0  0  0  0
  127.1440  123.5870   59.9510 C   0  0  0  0  0  0  0  0  0  0  0  0
  126.8390  124.7260   59.5950 O   0  0  0  0  0  0  0  0  0  0  0  0
  127.2950  122.5280   59.1260 N   0  0  0  0  0  0  0  0  0  0  0  0
  127.1330  122.5070   57.7480 C   0  0  0  0  0  0  0  0  0  0  0  0
  128.0130  123.1370   56.8690 C   0  0  0  0  0  0  0  0  0  0  0  0
  127.5080  122.8830   55.6140 C   0  0  0  0  0  0  0  0  0  0  0  0
  126.3820  122.1420   55.7310 O   0  0  0  0  0  0  0  0  0  0  0  0
  126.1530  121.9100   57.0890 N   0  0  0  0  0  0  0  0  0  0  0  0
  130.3250  123.3150   61.0330 N   0  0  0  0  0  0  0  0  0  0  0  0
  131.9881  125.4978   61.5540 H   0  0  0  0  0  0  0  0  0  0  0  0
  132.8512  125.2421   59.9996 H   0  0  0  0  0  0  0  0  0  0  0  0
  131.0985  125.6355   59.9996 H   0  0  0  0  0  0  0  0  0  0  0  0
  133.4882  122.9413   59.8477 H   0  0  0  0  0  0  0  0  0  0  0  0
  133.6101  119.8067   60.7885 H   0  0  0  0  0  0  0  0  0  0  0  0
  132.6793  119.4708   59.2894 H   0  0  0  0  0  0  0  0  0  0  0  0
  133.9568  120.7336   59.2894 H   0  0  0  0  0  0  0  0  0  0  0  0
  126.4114  123.2281   61.9442 H   0  0  0  0  0  0  0  0  0  0  0  0
  127.9850  124.1295   61.8451 H   0  0  0  0  0  0  0  0  0  0  0  0
  127.5180  121.6380   59.5490 H   0  0  0  0  0  0  0  0  0  0  0  0
  128.9154  123.7124   57.1234 H   0  0  0  0  0  0  0  0  0  0  0  0
  127.9494  123.2274   54.6671 H   0  0  0  0  0  0  0  0  0  0  0  0
  1  2  1  0
  2  3  2  0
  3  4  1  0
  4  5  1  0
  4  6  2  0
  6  7  1  0
  7  8  3  0
  6  9  1  0
  9 10  1  0
 10 11  1  0
 11 12  1  0
 12 13  2  0
 12 14  1  0
 14 15  1  0
 15 16  1  0
 16 17  2  0
 17 18  1  0
 18 19  1  0
  9 20  2  0
 20  2  1  0
 19 15  2  0
  1 21  1  0
  1 22  1  0
  1 23  1  0
  3 24  1  0
  5 25  1  0
  5 26  1  0
  5 27  1  0
 11 28  1  0
 11 29  1  0
 14 30  1  0
 16 31  1  0
 17 32  1  0
M  END
>  <Binding energies>  (1) 
[-7.01]

>  <Ligand effiencies>  (1) 
[-0.3338095238095238]

>  <Interactions>  (1) 
["V-A:ASP:366:CG:3213, V-B:MET:535:CE:9807, V-B:TYR:539:CE2:9848, V-B:TYR:539:CZ:9849, V-A:ILE:369:CG2:3237, V-B:TYR:539:CD2:9846, V-A:LEU:475:CD2:4259, V-B:TYR:539:CD1:9845, V-B:TYR:539:CG:9844, V-B:TYR:539:CE1:9847, V-B:TYR:539:C:9839, H-B:TYR:539:N:9842, V-B:PRO:540:CB:9857, V-B:PRO:540:CA:9855, H-B:ALA:541:N:9863, V-B:PRO:540:N:9856, V-B:TYR:539:CA:9841, V-B:PRO:540:CD:9859, H-B:TYR:539:O:9840, V-A:SER:385:CB:3409, V-A:SER:385:CA:3407, V-A:SER:385:C:3405"]

$$$$
1j_Grossjean_2025
     RDKit          3D

 32 33  0  0  0  0  0  0  0  0999 V2000
  132.5970  125.1100   61.1590 C   0  0  0  0  0  0  0  0  0  0  0  0
  132.0630  123.6920   61.0690 C   0  0  0  0  0  0  0  0  0  0  0  0
  132.8310  122.6550   60.5430 C   0  0  0  0  0  0  0  0  0  0  0  0
  132.2900  121.3660   60.4980 C   0  0  0  0  0  0  0  0  0  0  0  0
  133.1590  120.2420   59.9330 C   0  0  0  0  0  0  0  0  0  0  0  0
  130.9790  121.1490   60.9760 C   0  0  0  0  0  0  0  0  0  0  0  0
  130.4130  119.7970   60.9870 C   0  0  0  0  0  0  0  0  0  0  0  0
  129.9700  118.7290   60.9940 N   0  0  0  0  0  0  0  0  0  0  0  0
  130.2620  122.2650   61.4680 C   0  0  0  0  0  0  0  0  0  0  0  0
  128.6030  122.1750   62.1060 S   0  0  0  0  0  0  0  0  0  0  0  0
  127.5410  123.1810   61.0280 C   0  0  0  0  0  0  0  0  0  0  0  0
  127.6440  122.7550   59.5620 C   0  0  0  0  0  0  0  0  0  0  0  0
  128.6120  122.0900   59.1930 O   0  0  0  0  0  0  0  0  0  0  0  0
  126.6290  123.1570   58.7660 N   0  0  0  0  0  0  0  0  0  0  0  0
  126.4920  122.9070   57.4080 C   0  0  0  0  0  0  0  0  0  0  0  0
  125.6120  122.1300   56.8150 N   0  0  0  0  0  0  0  0  0  0  0  0
  125.7730  122.1280   55.5060 C   0  0  0  0  0  0  0  0  0  0  0  0
  126.8040  122.9200   55.0110 C   0  0  0  0  0  0  0  0  0  0  0  0
  127.6010  123.7060   56.3410 S   0  0  0  0  0  0  0  0  0  0  0  0
  130.8030  123.5080   61.5290 N   0  0  0  0  0  0  0  0  0  0  0  0
  132.7043  125.3950   62.2160 H   0  0  0  0  0  0  0  0  0  0  0  0
  133.5774  125.1648   60.6631 H   0  0  0  0  0  0  0  0  0  0  0  0
  131.8963  125.7978   60.6631 H   0  0  0  0  0  0  0  0  0  0  0  0
  133.8474  122.8473   60.1688 H   0  0  0  0  0  0  0  0  0  0  0  0
  133.6018  119.6693   60.7612 H   0  0  0  0  0  0  0  0  0  0  0  0
  132.5396  119.5747   59.3157 H   0  0  0  0  0  0  0  0  0  0  0  0
  133.9607  120.6734   59.3157 H   0  0  0  0  0  0  0  0  0  0  0  0
  126.4969  123.0724   61.3568 H   0  0  0  0  0  0  0  0  0  0  0  0
  127.8751  124.2264   61.1021 H   0  0  0  0  0  0  0  0  0  0  0  0
  125.9030  123.7210   59.1830 H   0  0  0  0  0  0  0  0  0  0  0  0
  125.1280  121.5332   54.8426 H   0  0  0  0  0  0  0  0  0  0  0  0
  127.0716  123.0309   53.9498 H   0  0  0  0  0  0  0  0  0  0  0  0
  1  2  1  0
  2  3  2  0
  3  4  1  0
  4  5  1  0
  4  6  2  0
  6  7  1  0
  7  8  3  0
  6  9  1  0
  9 10  1  0
 10 11  1  0
 11 12  1  0
 12 13  2  0
 12 14  1  0
 14 15  1  0
 15 16  2  0
 16 17  1  0
 17 18  2  0
 18 19  1  0
  9 20  2  0
 20  2  1  0
 19 15  1  0
  1 21  1  0
  1 22  1  0
  1 23  1  0
  3 24  1  0
  5 25  1  0
  5 26  1  0
  5 27  1  0
 11 28  1  0
 11 29  1  0
 14 30  1  0
 17 31  1  0
 18 32  1  0
M  END
>  <Binding energies>  (1) 
[-6.75]

>  <Ligand effiencies>  (1) 
[-0.32142857142857145]

>  <Interactions>  (1) 
["V-A:ASP:366:CG:3213, V-B:MET:535:CE:9807, V-B:TYR:539:CE2:9848, V-B:TYR:539:CZ:9849, V-A:ILE:369:CG2:3237, V-B:TYR:539:CD2:9846, V-A:LEU:475:CD2:4259, H-B:ASP:366:OD2:8187, V-B:TYR:539:CE1:9847, V-B:TYR:539:C:9839, H-B:TYR:539:N:9842, V-B:PRO:540:CB:9857, V-B:PRO:540:CA:9855, H-B:ALA:541:N:9863, V-B:PRO:540:N:9856, V-B:ILE:538:CA:9832, V-B:ILE:538:CD1:9837, V-B:PRO:540:CD:9859, V-B:ILE:538:CG2:9835, H-A:TYR:484:OH:4348, V-B:ILE:538:C:9830, V-A:SER:385:CB:3409, V-A:SER:385:CA:3407, V-A:SER:385:C:3405, V-B:ILE:538:CB:9834"]

$$$$
1k_Grossjean_2025
     RDKit          3D

 50 50  0  0  0  0  0  0  0  0999 V2000
  124.5660  122.5400   56.7970 C   0  0  0  0  0  0  0  0  0  0  0  0
  125.3420  121.9240   55.7820 O   0  0  0  0  0  0  0  0  0  0  0  0
  126.1760  122.8330   55.0760 C   0  0  0  0  0  0  0  0  0  0  0  0
  127.5530  122.8950   55.7520 C   0  0  0  0  0  0  0  0  0  0  0  0
  127.5300  122.1200   56.9430 O   0  0  0  0  0  0  0  0  0  0  0  0
  128.1210  122.7710   58.0600 C   0  0  0  0  0  0  0  0  0  0  0  0
  127.5800  124.2030   58.1590 C   0  0  0  0  0  0  0  0  0  0  0  0
  128.6400  125.1270   57.9460 O   0  0  0  0  0  0  0  0  0  0  0  0
  128.2560  126.4850   58.1120 C   0  0  0  0  0  0  0  0  0  0  0  0
  127.5040  126.9670   56.8570 C   0  0  0  0  0  0  0  0  0  0  0  0
  127.7950  128.3510   56.4830 N   0  0  0  0  0  0  0  0  0  0  0  0
  127.2260  129.0140   55.4610 C   0  0  0  0  0  0  0  0  0  0  0  0
  126.3760  128.5120   54.7230 O   0  0  0  0  0  0  0  0  0  0  0  0
  127.7070  130.4600   55.2590 C   0  0  0  0  0  0  0  0  0  0  0  0
  127.9060  131.4470   56.7830 S   0  0  0  0  0  0  0  0  0  0  0  0
  129.4010  130.9390   57.6200 C   0  0  0  0  0  0  0  0  0  0  0  0
  129.2360  130.0770   58.6570 N   0  0  0  0  0  0  0  0  0  0  0  0
  130.3260  129.6600   59.3400 C   0  0  0  0  0  0  0  0  0  0  0  0
  130.0600  128.7060   60.4880 C   0  0  0  0  0  0  0  0  0  0  0  0
  131.6180  130.0730   59.0190 C   0  0  0  0  0  0  0  0  0  0  0  0
  131.8020  130.9550   57.9500 C   0  0  0  0  0  0  0  0  0  0  0  0
  133.2250  131.3960   57.6150 C   0  0  0  0  0  0  0  0  0  0  0  0
  130.6760  131.4060   57.2260 C   0  0  0  0  0  0  0  0  0  0  0  0
  130.8390  132.3330   56.1020 C   0  0  0  0  0  0  0  0  0  0  0  0
  130.9690  133.0660   55.2160 N   0  0  0  0  0  0  0  0  0  0  0  0
  124.9467  122.2378   57.7838 H   0  0  0  0  0  0  0  0  0  0  0  0
  124.6332  123.6334   56.6972 H   0  0  0  0  0  0  0  0  0  0  0  0
  123.5164  122.2265   56.6972 H   0  0  0  0  0  0  0  0  0  0  0  0
  126.2928  122.4920   54.0367 H   0  0  0  0  0  0  0  0  0  0  0  0
  125.7180  123.8331   55.0845 H   0  0  0  0  0  0  0  0  0  0  0  0
  128.3158  122.4943   55.0682 H   0  0  0  0  0  0  0  0  0  0  0  0
  127.7945  123.9395   55.9982 H   0  0  0  0  0  0  0  0  0  0  0  0
  127.8729  122.2204   58.9794 H   0  0  0  0  0  0  0  0  0  0  0  0
  129.2134  122.7984   57.9341 H   0  0  0  0  0  0  0  0  0  0  0  0
  126.8026  124.3547   57.3956 H   0  0  0  0  0  0  0  0  0  0  0  0
  127.1494  124.3636   59.1584 H   0  0  0  0  0  0  0  0  0  0  0  0
  127.5988  126.5749   58.9895 H   0  0  0  0  0  0  0  0  0  0  0  0
  129.1540  127.1029   58.2594 H   0  0  0  0  0  0  0  0  0  0  0  0
  127.7825  126.3156   56.0155 H   0  0  0  0  0  0  0  0  0  0  0  0
  126.4304  126.9202   57.0921 H   0  0  0  0  0  0  0  0  0  0  0  0
  128.4860  128.8290   57.0430 H   0  0  0  0  0  0  0  0  0  0  0  0
  128.6812  130.4243   54.7495 H   0  0  0  0  0  0  0  0  0  0  0  0
  126.9186  130.9605   54.6777 H   0  0  0  0  0  0  0  0  0  0  0  0
  130.2066  129.2317   61.4431 H   0  0  0  0  0  0  0  0  0  0  0  0
  129.0251  128.3383   60.4269 H   0  0  0  0  0  0  0  0  0  0  0  0
  130.7554  127.8559   60.4269 H   0  0  0  0  0  0  0  0  0  0  0  0
  132.4800  129.7104   59.5982 H   0  0  0  0  0  0  0  0  0  0  0  0
  133.7840  131.5692   58.5464 H   0  0  0  0  0  0  0  0  0  0  0  0
  133.7239  130.6103   57.0286 H   0  0  0  0  0  0  0  0  0  0  0  0
  133.1922  132.3261   57.0286 H   0  0  0  0  0  0  0  0  0  0  0  0
  1  2  1  0
  2  3  1  0
  3  4  1  0
  4  5  1  0
  5  6  1  0
  6  7  1  0
  7  8  1  0
  8  9  1  0
  9 10  1  0
 10 11  1  0
 11 12  1  0
 12 13  2  0
 12 14  1  0
 14 15  1  0
 15 16  1  0
 16 17  2  0
 17 18  1  0
 18 19  1  0
 18 20  2  0
 20 21  1  0
 21 22  1  0
 21 23  2  0
 23 24  1  0
 24 25  3  0
 23 16  1  0
  1 26  1  0
  1 27  1  0
  1 28  1  0
  3 29  1  0
  3 30  1  0
  4 31  1  0
  4 32  1  0
  6 33  1  0
  6 34  1  0
  7 35  1  0
  7 36  1  0
  9 37  1  0
  9 38  1  0
 10 39  1  0
 10 40  1  0
 11 41  1  0
 14 42  1  0
 14 43  1  0
 19 44  1  0
 19 45  1  0
 19 46  1  0
 20 47  1  0
 22 48  1  0
 22 49  1  0
 22 50  1  0
M  END
>  <Binding energies>  (1) 
[-6.24]

>  <Ligand effiencies>  (1) 
[-0.24000000000000002]

>  <Interactions>  (1) 
["V-A:ASP:366:CG:3213, V-B:MET:535:CE:9807, V-A:PRO:540:CA:4883, V-B:TYR:539:CE2:9848, H-B:LYS:534:NZ:9795, V-B:TYR:539:CZ:9849, V-B:TYR:539:CD2:9846, H-B:TYR:531:OH:9767, V-B:TYR:539:CD1:9845, V-B:TYR:539:CG:9844, V-B:TYR:539:CE1:9847, V-B:TYR:539:C:9839, H-B:TYR:539:N:9842, V-B:PRO:540:CB:9857, V-B:PRO:540:N:9856, V-A:TYR:539:C:4867, V-B:LEU:363:CD1:8161, V-B:TYR:531:CE2:9765, V-B:ILE:538:CA:9832, V-B:ILE:538:CD1:9837, V-A:PRO:540:CB:4885, V-A:LEU:363:CD1:3189, H-A:TYR:539:N:4870, V-A:PRO:540:N:4884, V-B:PRO:540:CG:9858, V-B:PRO:540:CD:9859, V-B:ILE:538:CG2:9835, V-A:LEU:363:CA:3185"]

$$$$
1l_Grossjean_2025
     RDKit          3D

 30 30  0  0  0  0  0  0  0  0999 V2000
  127.1210  119.5810   71.6400 C   0  0  0  0  0  0  0  0  0  0  0  0
  127.4930  120.9390   71.8260 O   0  0  0  0  0  0  0  0  0  0  0  0
  128.5430  121.0230   72.7390 N   0  0  0  0  0  0  0  0  0  0  0  0
  129.1090  122.2230   72.9750 C   0  0  0  0  0  0  0  0  0  0  0  0
  128.6170  123.2940   72.6100 O   0  0  0  0  0  0  0  0  0  0  0  0
  130.4280  122.1780   73.7590 C   0  0  0  0  0  0  0  0  0  0  0  0
  130.5350  123.3480   75.1570 S   0  0  0  0  0  0  0  0  0  0  0  0
  131.0900  124.9210   74.5230 C   0  0  0  0  0  0  0  0  0  0  0  0
  130.1440  125.6770   73.9080 N   0  0  0  0  0  0  0  0  0  0  0  0
  130.4970  126.8820   73.4020 C   0  0  0  0  0  0  0  0  0  0  0  0
  129.3860  127.6670   72.7320 C   0  0  0  0  0  0  0  0  0  0  0  0
  131.7940  127.3820   73.4880 C   0  0  0  0  0  0  0  0  0  0  0  0
  132.7770  126.6140   74.1200 C   0  0  0  0  0  0  0  0  0  0  0  0
  134.1930  127.1820   74.2030 C   0  0  0  0  0  0  0  0  0  0  0  0
  132.4310  125.3530   74.6530 C   0  0  0  0  0  0  0  0  0  0  0  0
  133.4410  124.5260   75.3210 C   0  0  0  0  0  0  0  0  0  0  0  0
  134.2400  123.8760   75.8480 N   0  0  0  0  0  0  0  0  0  0  0  0
  126.9891  119.0994   72.6201 H   0  0  0  0  0  0  0  0  0  0  0  0
  126.1767  119.5332   71.0779 H   0  0  0  0  0  0  0  0  0  0  0  0
  127.9091  119.0586   71.0779 H   0  0  0  0  0  0  0  0  0  0  0  0
  129.0270  120.1430   72.8470 H   0  0  0  0  0  0  0  0  0  0  0  0
  130.5547  121.1599   74.1556 H   0  0  0  0  0  0  0  0  0  0  0  0
  131.2167  122.4721   73.0509 H   0  0  0  0  0  0  0  0  0  0  0  0
  128.7431  128.1212   73.5004 H   0  0  0  0  0  0  0  0  0  0  0  0
  129.8228  128.4581   72.1048 H   0  0  0  0  0  0  0  0  0  0  0  0
  128.7862  126.9911   72.1048 H   0  0  0  0  0  0  0  0  0  0  0  0
  132.0416  128.3667   73.0649 H   0  0  0  0  0  0  0  0  0  0  0  0
  134.4805  127.2973   75.2585 H   0  0  0  0  0  0  0  0  0  0  0  0
  134.8933  126.4952   73.7051 H   0  0  0  0  0  0  0  0  0  0  0  0
  134.2246  128.1624   73.7051 H   0  0  0  0  0  0  0  0  0  0  0  0
  1  2  1  0
  2  3  1  0
  3  4  1  0
  4  5  2  0
  4  6  1  0
  6  7  1  0
  7  8  1  0
  8  9  2  0
  9 10  1  0
 10 11  1  0
 10 12  2  0
 12 13  1  0
 13 14  1  0
 13 15  2  0
 15 16  1  0
 16 17  3  0
 15  8  1  0
  1 18  1  0
  1 19  1  0
  1 20  1  0
  3 21  1  0
  6 22  1  0
  6 23  1  0
 11 24  1  0
 11 25  1  0
 11 26  1  0
 12 27  1  0
 14 28  1  0
 14 29  1  0
 14 30  1  0
M  END
>  <Binding energies>  (1) 
[-6.23]

>  <Ligand effiencies>  (1) 
[-0.34611111111111115]

>  <Interactions>  (1) 
["V-A:VAL:457:C:4073, V-A:HIS:456:CD2:4068, V-A:TYR:484:CB:4341, H-A:TYR:484:O:4338, V-A:ASP:473:CG:4240, V-A:LYS:471:CD:4219, V-A:VAL:458:CG2:4087, V-A:HIS:456:CG:4066, V-B:LYS:547:CE:9922, V-A:HIS:456:C:4061, V-A:TYR:484:C:4337, V-A:HIS:456:CB:4065, V-B:GLY:544:CA:9886, H-B:LYS:547:NZ:9923, V-B:HIS:456:CD2:9040, V-A:GLY:544:C:4912, V-B:GLU:543:C:9874, V-A:ASP:473:CB:4239, H-B:GLY:544:N:9887, V-A:TYR:484:CA:4339"]

$$$$
1m_Grossjean_2025
     RDKit          3D

 35 35  0  0  0  0  0  0  0  0999 V2000
  131.3900  126.1640   61.6540 C   0  0  0  0  0  0  0  0  0  0  0  0
  132.3080  125.1760   61.2090 O   0  0  0  0  0  0  0  0  0  0  0  0
  132.9370  124.3760   62.0950 C   0  0  0  0  0  0  0  0  0  0  0  0
  133.8410  124.7240   62.8610 O   0  0  0  0  0  0  0  0  0  0  0  0
  132.3810  122.9380   62.0530 C   0  0  0  0  0  0  0  0  0  0  0  0
  131.1190  122.8360   61.3040 N   0  0  0  0  0  0  0  0  0  0  0  0
  130.1000  122.0040   61.5910 C   0  0  0  0  0  0  0  0  0  0  0  0
  130.1280  121.2060   62.5300 O   0  0  0  0  0  0  0  0  0  0  0  0
  128.8840  122.1020   60.6600 C   0  0  0  0  0  0  0  0  0  0  0  0
  129.0770  123.2760   59.2750 S   0  0  0  0  0  0  0  0  0  0  0  0
  127.5930  123.2170   58.2930 C   0  0  0  0  0  0  0  0  0  0  0  0
  127.8190  122.9350   56.9840 N   0  0  0  0  0  0  0  0  0  0  0  0
  126.7620  122.8590   56.1430 C   0  0  0  0  0  0  0  0  0  0  0  0
  127.0910  122.5210   54.7010 C   0  0  0  0  0  0  0  0  0  0  0  0
  125.4500  123.0690   56.5620 C   0  0  0  0  0  0  0  0  0  0  0  0
  125.2080  123.3860   57.9030 C   0  0  0  0  0  0  0  0  0  0  0  0
  123.7640  123.6280   58.3360 C   0  0  0  0  0  0  0  0  0  0  0  0
  126.2960  123.4730   58.8010 C   0  0  0  0  0  0  0  0  0  0  0  0
  126.0700  123.8520   60.1970 C   0  0  0  0  0  0  0  0  0  0  0  0
  125.8910  124.1510   61.3000 N   0  0  0  0  0  0  0  0  0  0  0  0
  131.3742  126.1810   62.7538 H   0  0  0  0  0  0  0  0  0  0  0  0
  131.7004  127.1495   61.2765 H   0  0  0  0  0  0  0  0  0  0  0  0
  130.3844  125.9268   61.2765 H   0  0  0  0  0  0  0  0  0  0  0  0
  133.1272  122.2866   61.5746 H   0  0  0  0  0  0  0  0  0  0  0  0
  132.1764  122.6318   63.0895 H   0  0  0  0  0  0  0  0  0  0  0  0
  131.0310  123.4420   60.5010 H   0  0  0  0  0  0  0  0  0  0  0  0
  128.6932  121.1038   60.2391 H   0  0  0  0  0  0  0  0  0  0  0  0
  128.0523  122.4788   61.2734 H   0  0  0  0  0  0  0  0  0  0  0  0
  127.8580  121.7330   54.6749 H   0  0  0  0  0  0  0  0  0  0  0  0
  126.1832  122.1660   54.1913 H   0  0  0  0  0  0  0  0  0  0  0  0
  127.4703  123.4189   54.1913 H   0  0  0  0  0  0  0  0  0  0  0  0
  124.6165  122.9868   55.8489 H   0  0  0  0  0  0  0  0  0  0  0  0
  123.7073  123.6375   59.4345 H   0  0  0  0  0  0  0  0  0  0  0  0
  123.4206  124.5962   57.9427 H   0  0  0  0  0  0  0  0  0  0  0  0
  123.1237  122.8246   57.9427 H   0  0  0  0  0  0  0  0  0  0  0  0
  1  2  1  0
  2  3  1  0
  3  4  2  0
  3  5  1  0
  5  6  1  0
  6  7  1  0
  7  8  2  0
  7  9  1  0
  9 10  1  0
 10 11  1  0
 11 12  2  0
 12 13  1  0
 13 14  1  0
 13 15  2  0
 15 16  1  0
 16 17  1  0
 16 18  2  0
 18 19  1  0
 19 20  3  0
 18 11  1  0
  1 21  1  0
  1 22  1  0
  1 23  1  0
  5 24  1  0
  5 25  1  0
  6 26  1  0
  9 27  1  0
  9 28  1  0
 14 29  1  0
 14 30  1  0
 14 31  1  0
 15 32  1  0
 17 33  1  0
 17 34  1  0
 17 35  1  0
M  END
>  <Binding energies>  (1) 
[-6.58]

>  <Ligand effiencies>  (1) 
[-0.31333333333333335]

>  <Interactions>  (1) 
["V-B:MET:535:CE:9807, V-B:TYR:539:CD2:9846, V-A:LEU:475:CD2:4259, V-B:TYR:539:CD1:9845, V-B:TYR:539:CE1:9847, V-B:TYR:539:C:9839, V-B:ASP:366:CG:8185, V-B:PRO:540:CB:9857, V-B:PRO:540:CA:9855, V-B:PRO:540:N:9856, V-B:LEU:363:CD1:8161, V-B:TYR:531:CE2:9765, V-B:ILE:538:CA:9832, V-B:ILE:538:CD1:9837, H-A:GLY:454:N:4050, H-A:TYR:484:OH:4348, V-B:ILE:538:C:9830, H-B:ARG:545:NH2:9900, V-B:LEU:363:CA:8157, V-B:LEU:363:CB:8159, H-A:ARG:545:NH2:4928, V-B:VAL:537:C:9822"]

$$$$
1n_Grossjean_2025
     RDKit          3D

 48 49  0  0  0  0  0  0  0  0999 V2000
  124.7600  122.5280   56.1770 C   0  0  0  0  0  0  0  0  0  0  0  0
  126.2120  122.7350   55.7330 C   0  0  0  0  0  0  0  0  0  0  0  0
  127.0850  122.1130   56.6680 O   0  0  0  0  0  0  0  0  0  0  0  0
  127.5140  122.7730   57.7740 C   0  0  0  0  0  0  0  0  0  0  0  0
  127.9230  122.2040   58.7900 O   0  0  0  0  0  0  0  0  0  0  0  0
  127.4530  124.2670   57.6340 C   0  0  0  0  0  0  0  0  0  0  0  0
  126.4070  125.0230   58.1850 C   0  0  0  0  0  0  0  0  0  0  0  0
  126.3790  126.4060   58.0340 C   0  0  0  0  0  0  0  0  0  0  0  0
  127.3870  127.0610   57.3260 C   0  0  0  0  0  0  0  0  0  0  0  0
  127.2570  128.4610   57.2300 N   0  0  0  0  0  0  0  0  0  0  0  0
  126.8920  129.2240   56.1780 C   0  0  0  0  0  0  0  0  0  0  0  0
  126.5860  128.8020   55.0620 O   0  0  0  0  0  0  0  0  0  0  0  0
  126.8640  130.7370   56.4330 C   0  0  0  0  0  0  0  0  0  0  0  0
  126.8800  131.0970   57.9350 C   0  0  0  0  0  0  0  0  0  0  0  0
  127.8970  132.5450   58.3520 S   0  0  0  0  0  0  0  0  0  0  0  0
  129.6010  132.0330   58.3230 C   0  0  0  0  0  0  0  0  0  0  0  0
  130.0650  131.6220   59.5300 N   0  0  0  0  0  0  0  0  0  0  0  0
  131.3460  131.1940   59.6240 C   0  0  0  0  0  0  0  0  0  0  0  0
  131.7900  130.7400   61.0010 C   0  0  0  0  0  0  0  0  0  0  0  0
  132.2100  131.1630   58.5320 C   0  0  0  0  0  0  0  0  0  0  0  0
  131.7480  131.6050   57.2870 C   0  0  0  0  0  0  0  0  0  0  0  0
  132.7170  131.5750   56.1070 C   0  0  0  0  0  0  0  0  0  0  0  0
  130.4150  132.0610   57.1660 C   0  0  0  0  0  0  0  0  0  0  0  0
  129.9260  132.5750   55.8860 C   0  0  0  0  0  0  0  0  0  0  0  0
  129.5420  132.9820   54.8730 N   0  0  0  0  0  0  0  0  0  0  0  0
  128.4410  126.3140   56.7810 C   0  0  0  0  0  0  0  0  0  0  0  0
  128.4690  124.9310   56.9360 C   0  0  0  0  0  0  0  0  0  0  0  0
  124.7101  122.5209   57.2758 H   0  0  0  0  0  0  0  0  0  0  0  0
  124.1371  123.3464   55.7869 H   0  0  0  0  0  0  0  0  0  0  0  0
  124.3906  121.5681   55.7869 H   0  0  0  0  0  0  0  0  0  0  0  0
  126.3593  122.2871   54.7392 H   0  0  0  0  0  0  0  0  0  0  0  0
  126.4317  123.8118   55.6851 H   0  0  0  0  0  0  0  0  0  0  0  0
  125.6029  124.5184   58.7406 H   0  0  0  0  0  0  0  0  0  0  0  0
  125.5562  126.9870   58.4760 H   0  0  0  0  0  0  0  0  0  0  0  0
  127.4300  128.9510   58.0950 H   0  0  0  0  0  0  0  0  0  0  0  0
  127.7454  131.1893   55.9549 H   0  0  0  0  0  0  0  0  0  0  0  0
  125.9242  131.1240   56.0122 H   0  0  0  0  0  0  0  0  0  0  0  0
  125.8461  131.3009   58.2505 H   0  0  0  0  0  0  0  0  0  0  0  0
  127.3278  130.2390   58.4577 H   0  0  0  0  0  0  0  0  0  0  0  0
  131.2389  131.3035   61.7683 H   0  0  0  0  0  0  0  0  0  0  0  0
  131.5845  129.6656   61.1168 H   0  0  0  0  0  0  0  0  0  0  0  0
  132.8687  130.9215   61.1168 H   0  0  0  0  0  0  0  0  0  0  0  0
  133.2408  130.7964   58.6464 H   0  0  0  0  0  0  0  0  0  0  0  0
  133.7506  131.5430   56.4820 H   0  0  0  0  0  0  0  0  0  0  0  0
  132.5214  130.6825   55.4945 H   0  0  0  0  0  0  0  0  0  0  0  0
  132.5770  132.4779   55.4945 H   0  0  0  0  0  0  0  0  0  0  0  0
  129.2467  126.8215   56.2303 H   0  0  0  0  0  0  0  0  0  0  0  0
  129.2995  124.3527   56.5049 H   0  0  0  0  0  0  0  0  0  0  0  0
  1  2  1  0
  2  3  1  0
  3  4  1  0
  4  5  2  0
  4  6  1  0
  6  7  2  0
  7  8  1  0
  8  9  2  0
  9 10  1  0
 10 11  1  0
 11 12  2  0
 11 13  1  0
 13 14  1  0
 14 15  1  0
 15 16  1  0
 16 17  2  0
 17 18  1  0
 18 19  1  0
 18 20  2  0
 20 21  1  0
 21 22  1  0
 21 23  2  0
 23 24  1  0
 24 25  3  0
  9 26  1  0
 26 27  2  0
 27  6  1  0
 23 16  1  0
  1 28  1  0
  1 29  1  0
  1 30  1  0
  2 31  1  0
  2 32  1  0
  7 33  1  0
  8 34  1  0
 10 35  1  0
 13 36  1  0
 13 37  1  0
 14 38  1  0
 14 39  1  0
 19 40  1  0
 19 41  1  0
 19 42  1  0
 20 43  1  0
 22 44  1  0
 22 45  1  0
 22 46  1  0
 26 47  1  0
 27 48  1  0
M  END
>  <Binding energies>  (1) 
[-8.42]

>  <Ligand effiencies>  (1) 
[-0.3007142857142857]

>  <Interactions>  (1) 
["V-A:TYR:539:CZ:4877, V-B:MET:535:CE:9807, V-A:PRO:540:CA:4883, V-B:TYR:539:CE2:9848, H-B:LYS:534:NZ:9795, V-A:GLU:543:CD:4908, V-A:TYR:539:CE1:4875, V-B:TYR:539:CD2:9846, H-B:TYR:531:OH:9767, V-B:TYR:539:CG:9844, V-B:TYR:539:C:9839, H-B:TYR:539:N:9842, V-B:PRO:540:CA:9855, V-B:PRO:540:N:9856, V-A:TYR:539:C:4867, V-B:LEU:363:CD1:8161, V-B:TYR:531:CE2:9765, V-B:ILE:538:CA:9832, V-B:ILE:538:CD1:9837, V-A:TYR:531:CE2:4793, V-A:PRO:540:CB:4885, V-A:LEU:363:CD1:3189, H-A:TYR:539:N:4870, V-A:PRO:540:N:4884, V-B:PRO:540:CD:9859, V-B:ILE:538:CG2:9835, V-A:TYR:531:CZ:4794"]

$$$$
1o_Grossjean_2025
     RDKit          3D

 45 46  0  0  0  0  0  0  0  0999 V2000
  133.0450  131.1020   57.1740 C   0  0  0  0  0  0  0  0  0  0  0  0
  132.7100  131.6040   55.8880 O   0  0  0  0  0  0  0  0  0  0  0  0
  131.8010  132.6020   55.7430 C   0  0  0  0  0  0  0  0  0  0  0  0
  132.0970  133.7450   55.3810 O   0  0  0  0  0  0  0  0  0  0  0  0
  130.3960  132.1780   56.0630 C   0  0  0  0  0  0  0  0  0  0  0  0
  129.7460  132.5870   57.2360 C   0  0  0  0  0  0  0  0  0  0  0  0
  128.4420  132.1770   57.5020 C   0  0  0  0  0  0  0  0  0  0  0  0
  127.7640  131.3490   56.6070 C   0  0  0  0  0  0  0  0  0  0  0  0
  126.4480  131.0030   56.9690 N   0  0  0  0  0  0  0  0  0  0  0  0
  125.5340  130.2600   56.3060 C   0  0  0  0  0  0  0  0  0  0  0  0
  125.7260  129.6930   55.2300 O   0  0  0  0  0  0  0  0  0  0  0  0
  124.1720  130.1140   56.9990 C   0  0  0  0  0  0  0  0  0  0  0  0
  123.6630  131.4270   57.6280 C   0  0  0  0  0  0  0  0  0  0  0  0
  123.7250  131.4480   59.4440 S   0  0  0  0  0  0  0  0  0  0  0  0
  125.3250  132.0480   59.9470 C   0  0  0  0  0  0  0  0  0  0  0  0
  126.2660  131.0730   60.0310 N   0  0  0  0  0  0  0  0  0  0  0  0
  127.5240  131.4110   60.3960 C   0  0  0  0  0  0  0  0  0  0  0  0
  128.5230  130.2700   60.4530 C   0  0  0  0  0  0  0  0  0  0  0  0
  127.8920  132.7190   60.7020 C   0  0  0  0  0  0  0  0  0  0  0  0
  126.9250  133.7280   60.6440 C   0  0  0  0  0  0  0  0  0  0  0  0
  127.3500  135.1520   60.9980 C   0  0  0  0  0  0  0  0  0  0  0  0
  125.6030  133.3980   60.2690 C   0  0  0  0  0  0  0  0  0  0  0  0
  124.5640  134.4310   60.2600 C   0  0  0  0  0  0  0  0  0  0  0  0
  123.7450  135.2490   60.2520 N   0  0  0  0  0  0  0  0  0  0  0  0
  128.4070  130.9400   55.4280 C   0  0  0  0  0  0  0  0  0  0  0  0
  129.7100  131.3510   55.1640 C   0  0  0  0  0  0  0  0  0  0  0  0
  132.6103  131.7534   57.9465 H   0  0  0  0  0  0  0  0  0  0  0  0
  132.6450  130.0834   57.2856 H   0  0  0  0  0  0  0  0  0  0  0  0
  134.1391  131.0805   57.2856 H   0  0  0  0  0  0  0  0  0  0  0  0
  130.2703  133.2370   57.9520 H   0  0  0  0  0  0  0  0  0  0  0  0
  127.9429  132.5084   58.4245 H   0  0  0  0  0  0  0  0  0  0  0  0
  126.1650  131.3490   57.8740 H   0  0  0  0  0  0  0  0  0  0  0  0
  123.4362  129.7753   56.2547 H   0  0  0  0  0  0  0  0  0  0  0  0
  124.2988  129.3891   57.8166 H   0  0  0  0  0  0  0  0  0  0  0  0
  124.2824  132.2542   57.2510 H   0  0  0  0  0  0  0  0  0  0  0  0
  122.6050  131.5271   57.3441 H   0  0  0  0  0  0  0  0  0  0  0  0
  128.7387  130.0236   61.5031 H   0  0  0  0  0  0  0  0  0  0  0  0
  128.1015  129.3880   59.9486 H   0  0  0  0  0  0  0  0  0  0  0  0
  129.4529  130.5713   59.9486 H   0  0  0  0  0  0  0  0  0  0  0  0
  128.9283  132.9552   60.9852 H   0  0  0  0  0  0  0  0  0  0  0  0
  127.3833  135.2635   62.0918 H   0  0  0  0  0  0  0  0  0  0  0  0
  128.3470  135.3521   60.5785 H   0  0  0  0  0  0  0  0  0  0  0  0
  126.6257  135.8658   60.5785 H   0  0  0  0  0  0  0  0  0  0  0  0
  127.8797  130.2932   54.7113 H   0  0  0  0  0  0  0  0  0  0  0  0
  130.2069  131.0229   54.2391 H   0  0  0  0  0  0  0  0  0  0  0  0
  1  2  1  0
  2  3  1  0
  3  4  2  0
  3  5  1  0
  5  6  2  0
  6  7  1  0
  7  8  2  0
  8  9  1  0
  9 10  1  0
 10 11  2  0
 10 12  1  0
 12 13  1  0
 13 14  1  0
 14 15  1  0
 15 16  2  0
 16 17  1  0
 17 18  1  0
 17 19  2  0
 19 20  1  0
 20 21  1  0
 20 22  2  0
 22 23  1  0
 23 24  3  0
  8 25  1  0
 25 26  2  0
 26  5  1  0
 22 15  1  0
  1 27  1  0
  1 28  1  0
  1 29  1  0
  6 30  1  0
  7 31  1  0
  9 32  1  0
 12 33  1  0
 12 34  1  0
 13 35  1  0
 13 36  1  0
 18 37  1  0
 18 38  1  0
 18 39  1  0
 19 40  1  0
 21 41  1  0
 21 42  1  0
 21 43  1  0
 25 44  1  0
 26 45  1  0
M  END
>  <Binding energies>  (1) 
[-7.15]

>  <Ligand effiencies>  (1) 
[-0.26481481481481484]

>  <Interactions>  (1) 
["V-A:TYR:539:CZ:4877, V-A:ALA:541:CB:4892, V-B:ILE:369:CG2:8209, V-B:LEU:475:CD2:9231, V-A:PRO:540:CA:4883, H-B:LYS:534:NZ:9795, H-A:TYR:531:OH:4795, V-A:TYR:539:CE1:4875, H-A:TYR:539:OH:4878, V-B:ASP:366:CB:8184, V-B:ASP:366:CA:8182, V-A:TYR:539:CD1:4873, V-A:TYR:539:C:4867, V-A:PRO:540:CD:4887, V-A:PRO:540:CB:4885, V-A:LEU:363:CD1:3189, V-A:ILE:538:CB:4862, H-A:TYR:539:N:4870, V-A:PRO:540:N:4884, V-A:TYR:539:CG:4872, V-A:ILE:538:CG2:4863, V-B:ASP:366:C:8180, V-B:ILE:369:CB:8208, V-B:TYR:531:CE1:9764, V-A:TYR:539:CA:4869, H-B:SER:385:OG:8382"]

$$$$
1p_Grossjean_2025
     RDKit          3D

 35 36  0  0  0  0  0  0  0  0999 V2000
  129.1550  128.2390   73.9670 C   0  0  0  0  0  0  0  0  0  0  0  0
  127.8620  128.8240   74.5030 C   0  0  0  0  0  0  0  0  0  0  0  0
  126.6350  128.2010   74.2830 C   0  0  0  0  0  0  0  0  0  0  0  0
  125.4720  128.7910   74.7890 C   0  0  0  0  0  0  0  0  0  0  0  0
  124.1370  128.0990   74.5220 C   0  0  0  0  0  0  0  0  0  0  0  0
  125.5710  129.9980   75.5170 C   0  0  0  0  0  0  0  0  0  0  0  0
  124.3650  130.6610   76.0150 C   0  0  0  0  0  0  0  0  0  0  0  0
  123.4100  131.1850   76.4090 N   0  0  0  0  0  0  0  0  0  0  0  0
  126.8610  130.5480   75.7120 C   0  0  0  0  0  0  0  0  0  0  0  0
  127.1640  132.0520   76.6110 S   0  0  0  0  0  0  0  0  0  0  0  0
  128.0440  133.1710   75.4830 C   0  0  0  0  0  0  0  0  0  0  0  0
  127.5360  133.1140   74.0290 C   0  0  0  0  0  0  0  0  0  0  0  0
  128.6530  133.2440   72.9830 C   0  0  0  0  0  0  0  0  0  0  0  0
  129.0380  132.2420   72.3780 O   0  0  0  0  0  0  0  0  0  0  0  0
  129.1320  134.4940   72.7920 N   0  0  0  0  0  0  0  0  0  0  0  0
  130.1340  134.8850   71.9130 C   0  0  0  0  0  0  0  0  0  0  0  0
  131.3120  135.5060   72.3270 C   0  0  0  0  0  0  0  0  0  0  0  0
  132.0270  135.7250   71.1720 C   0  0  0  0  0  0  0  0  0  0  0  0
  131.3160  135.2630   70.1170 O   0  0  0  0  0  0  0  0  0  0  0  0
  130.1170  134.7330   70.5990 N   0  0  0  0  0  0  0  0  0  0  0  0
  127.9800  129.9780   75.1990 N   0  0  0  0  0  0  0  0  0  0  0  0
  129.8014  127.9466   74.8077 H   0  0  0  0  0  0  0  0  0  0  0  0
  128.9304  127.3548   73.3523 H   0  0  0  0  0  0  0  0  0  0  0  0
  129.6708  128.9914   73.3523 H   0  0  0  0  0  0  0  0  0  0  0  0
  126.5818  127.2580   73.7191 H   0  0  0  0  0  0  0  0  0  0  0  0
  123.6555  127.8494   75.4790 H   0  0  0  0  0  0  0  0  0  0  0  0
  123.4836  128.7720   73.9473 H   0  0  0  0  0  0  0  0  0  0  0  0
  124.3103  127.1772   73.9473 H   0  0  0  0  0  0  0  0  0  0  0  0
  127.9243  134.2003   75.8521 H   0  0  0  0  0  0  0  0  0  0  0  0
  129.0957  132.8489   75.4679 H   0  0  0  0  0  0  0  0  0  0  0  0
  127.0263  132.1513   73.8760 H   0  0  0  0  0  0  0  0  0  0  0  0
  126.8609  133.9711   73.8889 H   0  0  0  0  0  0  0  0  0  0  0  0
  128.7330  135.2330   73.3520 H   0  0  0  0  0  0  0  0  0  0  0  0
  131.6061  135.7648   73.3549 H   0  0  0  0  0  0  0  0  0  0  0  0
  133.0177  136.1995   71.1151 H   0  0  0  0  0  0  0  0  0  0  0  0
  1  2  1  0
  2  3  2  0
  3  4  1  0
  4  5  1  0
  4  6  2  0
  6  7  1  0
  7  8  3  0
  6  9  1  0
  9 10  1  0
 10 11  1  0
 11 12  1  0
 12 13  1  0
 13 14  2  0
 13 15  1  0
 15 16  1  0
 16 17  1  0
 17 18  2  0
 18 19  1  0
 19 20  1  0
  9 21  2  0
 21  2  1  0
 20 16  2  0
  1 22  1  0
  1 23  1  0
  1 24  1  0
  3 25  1  0
  5 26  1  0
  5 27  1  0
  5 28  1  0
 11 29  1  0
 11 30  1  0
 12 31  1  0
 12 32  1  0
 15 33  1  0
 17 34  1  0
 18 35  1  0
M  END
>  <Binding energies>  (1) 
[-7.67]

>  <Ligand effiencies>  (1) 
[-0.34863636363636363]

>  <Interactions>  (1) 
["V-B:VAL:458:CG2:9059, V-B:HIS:456:C:9033, H-B:ASP:473:OD2:9214, V-B:ASP:473:CB:9211, V-B:HIS:456:CB:9037, V-B:TYR:484:CA:9311, V-B:TYR:484:CB:9313, V-A:VAL:542:CG1:4899, V-B:ASP:473:CG:9212, H-A:LYS:547:NZ:4951, V-B:VAL:457:C:9045, V-B:HIS:456:CG:9038, V-B:HIS:456:CD2:9040, V-B:VAL:457:CA:9047, V-B:HIS:456:CA:9035, H-B:LEU:472:N:9201, V-B:TYR:484:C:9309, H-B:TYR:484:N:9312, H-B:TYR:484:O:9310, H-A:GLY:544:N:4915, H-B:VAL:457:N:9048, V-B:ARG:545:C:9889, H-B:VAL:458:N:9056"]

$$$$
1q_Grossjean_2025
     RDKit          3D

 38 38  0  0  0  0  0  0  0  0999 V2000
  130.8470  137.6800   72.2190 C   0  0  0  0  0  0  0  0  0  0  0  0
  130.8000  136.2800   72.4550 O   0  0  0  0  0  0  0  0  0  0  0  0
  130.7980  135.4070   71.4180 C   0  0  0  0  0  0  0  0  0  0  0  0
  131.2430  135.6330   70.2910 O   0  0  0  0  0  0  0  0  0  0  0  0
  130.1420  134.0480   71.7410 C   0  0  0  0  0  0  0  0  0  0  0  0
  129.1850  134.1230   72.8560 N   0  0  0  0  0  0  0  0  0  0  0  0
  128.4990  133.0880   73.3780 C   0  0  0  0  0  0  0  0  0  0  0  0
  128.6070  131.9320   72.9650 O   0  0  0  0  0  0  0  0  0  0  0  0
  127.5670  133.4230   74.5510 C   0  0  0  0  0  0  0  0  0  0  0  0
  128.2270  133.3030   75.9390 C   0  0  0  0  0  0  0  0  0  0  0  0
  128.3310  131.5940   76.5490 S   0  0  0  0  0  0  0  0  0  0  0  0
  126.8810  130.7100   76.0120 C   0  0  0  0  0  0  0  0  0  0  0  0
  125.7190  131.3380   76.3270 N   0  0  0  0  0  0  0  0  0  0  0  0
  124.5480  130.7600   75.9720 C   0  0  0  0  0  0  0  0  0  0  0  0
  123.2930  131.5130   76.3740 C   0  0  0  0  0  0  0  0  0  0  0  0
  124.4850  129.5500   75.2840 C   0  0  0  0  0  0  0  0  0  0  0  0
  125.6750  128.9070   74.9310 C   0  0  0  0  0  0  0  0  0  0  0  0
  125.5790  127.5900   74.1620 C   0  0  0  0  0  0  0  0  0  0  0  0
  126.9110  129.4920   75.2890 C   0  0  0  0  0  0  0  0  0  0  0  0
  128.1670  128.8610   74.8790 C   0  0  0  0  0  0  0  0  0  0  0  0
  129.1570  128.3600   74.5520 N   0  0  0  0  0  0  0  0  0  0  0  0
  130.8649  138.2136   73.1808 H   0  0  0  0  0  0  0  0  0  0  0  0
  131.7539  137.9251   71.6467 H   0  0  0  0  0  0  0  0  0  0  0  0
  129.9586  137.9854   71.6467 H   0  0  0  0  0  0  0  0  0  0  0  0
  129.6102  133.6937   70.8457 H   0  0  0  0  0  0  0  0  0  0  0  0
  130.9443  133.3581   72.0414 H   0  0  0  0  0  0  0  0  0  0  0  0
  129.0200  135.0440   73.2360 H   0  0  0  0  0  0  0  0  0  0  0  0
  127.2134  134.4571   74.4258 H   0  0  0  0  0  0  0  0  0  0  0  0
  126.7505  132.6863   74.5253 H   0  0  0  0  0  0  0  0  0  0  0  0
  129.2460  133.7126   75.8763 H   0  0  0  0  0  0  0  0  0  0  0  0
  127.5952  133.8604   76.6462 H   0  0  0  0  0  0  0  0  0  0  0  0
  123.2254  131.5536   77.4712 H   0  0  0  0  0  0  0  0  0  0  0  0
  123.3341  132.5357   75.9711 H   0  0  0  0  0  0  0  0  0  0  0  0
  122.4100  130.9954   75.9711 H   0  0  0  0  0  0  0  0  0  0  0  0
  123.5127  129.1070   75.0223 H   0  0  0  0  0  0  0  0  0  0  0  0
  125.5180  126.7535   74.8737 H   0  0  0  0  0  0  0  0  0  0  0  0
  124.6792  127.5995   73.5294 H   0  0  0  0  0  0  0  0  0  0  0  0
  126.4707  127.4690   73.5294 H   0  0  0  0  0  0  0  0  0  0  0  0
  1  2  1  0
  2  3  1  0
  3  4  2  0
  3  5  1  0
  5  6  1  0
  6  7  1  0
  7  8  2  0
  7  9  1  0
  9 10  1  0
 10 11  1  0
 11 12  1  0
 12 13  2  0
 13 14  1  0
 14 15  1  0
 14 16  2  0
 16 17  1  0
 17 18  1  0
 17 19  2  0
 19 20  1  0
 20 21  3  0
 19 12  1  0
  1 22  1  0
  1 23  1  0
  1 24  1  0
  5 25  1  0
  5 26  1  0
  6 27  1  0
  9 28  1  0
  9 29  1  0
 10 30  1  0
 10 31  1  0
 15 32  1  0
 15 33  1  0
 15 34  1  0
 16 35  1  0
 18 36  1  0
 18 37  1  0
 18 38  1  0
M  END
>  <Binding energies>  (1) 
[-6.52]

>  <Ligand effiencies>  (1) 
[-0.29636363636363633]

>  <Interactions>  (1) 
["V-B:LYS:547:CE:9922, V-B:VAL:458:CG2:9059, V-A:GLY:544:CA:4914, V-B:HIS:456:C:9033, V-A:GLU:543:C:4902, V-B:ASP:473:CB:9211, V-B:HIS:456:CB:9037, V-B:SER:483:CB:9305, V-B:TYR:484:CA:9311, V-B:TYR:484:CB:9313, V-B:ASP:473:CG:9212, V-B:LYS:471:CB:9189, H-A:LYS:547:NZ:4951, V-B:LYS:471:C:9185, V-B:LEU:472:CA:9200, V-B:LYS:471:CA:9187, V-B:LYS:547:CD:9921, V-B:VAL:457:C:9045, V-B:HIS:456:CG:9038, V-B:HIS:456:CD2:9040, V-B:VAL:457:CA:9047, V-B:HIS:456:CA:9035, V-B:LEU:472:C:9198, V-B:TYR:484:C:9309, H-B:TYR:484:N:9312, H-B:TYR:484:O:9310, V-B:LYS:547:CG:9920"]

$$$$
2a_Ghoteimi_2023
     RDKit          3D

 85 90  0  0  0  0  0  0  0  0999 V2000
  132.8400  131.1750   57.7720 C   0  0  0  0  0  0  0  0  0  0  0  0
  133.8180  131.1210   58.9490 C   0  0  0  0  0  0  0  0  0  0  0  0
  133.3050  131.8960   60.0250 O   0  0  0  0  0  0  0  0  0  0  0  0
  132.7370  131.3060   61.1080 C   0  0  0  0  0  0  0  0  0  0  0  0
  133.3810  130.6870   61.9610 O   0  0  0  0  0  0  0  0  0  0  0  0
  131.2470  131.4870   61.1680 C   0  0  0  0  0  0  0  0  0  0  0  0
  130.4360  131.3530   60.0320 C   0  0  0  0  0  0  0  0  0  0  0  0
  129.0590  131.5260   60.1230 C   0  0  0  0  0  0  0  0  0  0  0  0
  128.4620  131.8300   61.3470 C   0  0  0  0  0  0  0  0  0  0  0  0
  127.0630  131.9870   61.3230 N   0  0  0  0  0  0  0  0  0  0  0  0
  126.2830  132.6650   60.4520 C   0  0  0  0  0  0  0  0  0  0  0  0
  126.6960  133.3360   59.5060 O   0  0  0  0  0  0  0  0  0  0  0  0
  124.7770  132.5930   60.7330 C   0  0  0  0  0  0  0  0  0  0  0  0
  124.3440  131.8300   62.3300 S   0  0  0  0  0  0  0  0  0  0  0  0
  125.1960  130.2700   62.3630 C   0  0  0  0  0  0  0  0  0  0  0  0
  125.7340  129.9650   63.5670 N   0  0  0  0  0  0  0  0  0  0  0  0
  126.4190  128.8040   63.7170 C   0  0  0  0  0  0  0  0  0  0  0  0
  126.9930  128.5380   65.0710 C   0  0  0  0  0  0  0  0  0  0  0  0
  126.2040  128.0180   66.1050 C   0  0  0  0  0  0  0  0  0  0  0  0
  126.7420  127.7840   67.3670 C   0  0  0  0  0  0  0  0  0  0  0  0
  128.0900  128.0530   67.6430 C   0  0  0  0  0  0  0  0  0  0  0  0
  128.6090  127.8410   68.9240 N   0  0  0  0  0  0  0  0  0  0  0  0
  130.0020  128.1980   69.2600 C   0  0  0  0  0  0  0  0  0  0  0  0
  130.2870  128.2370   70.7770 C   0  0  0  0  0  0  0  0  0  0  0  0
  129.9210  127.0020   71.3710 O   0  0  0  0  0  0  0  0  0  0  0  0
  128.5400  126.7320   71.1980 C   0  0  0  0  0  0  0  0  0  0  0  0
  128.1990  126.6480   69.6950 C   0  0  0  0  0  0  0  0  0  0  0  0
  128.8730  128.5860   66.6060 C   0  0  0  0  0  0  0  0  0  0  0  0
  128.3370  128.8180   65.3440 C   0  0  0  0  0  0  0  0  0  0  0  0
  126.5660  127.9090   62.6530 C   0  0  0  0  0  0  0  0  0  0  0  0
  126.0180  128.2030   61.3970 C   0  0  0  0  0  0  0  0  0  0  0  0
  126.2180  127.2060   60.3030 C   0  0  0  0  0  0  0  0  0  0  0  0
  126.2400  127.6220   58.9690 C   0  0  0  0  0  0  0  0  0  0  0  0
  126.4070  126.6990   57.9410 C   0  0  0  0  0  0  0  0  0  0  0  0
  126.5590  125.3310   58.2160 C   0  0  0  0  0  0  0  0  0  0  0  0
  126.7090  124.3860   57.1980 N   0  0  0  0  0  0  0  0  0  0  0  0
  125.7370  123.2790   57.0890 C   0  0  0  0  0  0  0  0  0  0  0  0
  125.7850  122.5570   55.7260 C   0  0  0  0  0  0  0  0  0  0  0  0
  127.1020  122.0980   55.4650 O   0  0  0  0  0  0  0  0  0  0  0  0
  128.0330  123.1690   55.4260 C   0  0  0  0  0  0  0  0  0  0  0  0
  128.0420  123.9100   56.7790 C   0  0  0  0  0  0  0  0  0  0  0  0
  126.5240  124.9210   59.5560 C   0  0  0  0  0  0  0  0  0  0  0  0
  126.3560  125.8440   60.5850 C   0  0  0  0  0  0  0  0  0  0  0  0
  125.3040  129.4170   61.2420 C   0  0  0  0  0  0  0  0  0  0  0  0
  124.6600  129.7530   59.9690 C   0  0  0  0  0  0  0  0  0  0  0  0
  124.1540  130.0170   58.9620 N   0  0  0  0  0  0  0  0  0  0  0  0
  129.2670  131.9740   62.4870 C   0  0  0  0  0  0  0  0  0  0  0  0
  130.6460  131.7990   62.3950 C   0  0  0  0  0  0  0  0  0  0  0  0
  131.8099  131.2319   58.1536 H   0  0  0  0  0  0  0  0  0  0  0  0
  133.0533  132.0627   57.1585 H   0  0  0  0  0  0  0  0  0  0  0  0
  132.9543  130.2692   57.1585 H   0  0  0  0  0  0  0  0  0  0  0  0
  133.9428  130.0778   59.2749 H   0  0  0  0  0  0  0  0  0  0  0  0
  134.7920  131.5255   58.6364 H   0  0  0  0  0  0  0  0  0  0  0  0
  130.8924  131.1092   59.0613 H   0  0  0  0  0  0  0  0  0  0  0  0
  128.4355  131.4223   59.2227 H   0  0  0  0  0  0  0  0  0  0  0  0
  126.5850  131.5410   62.0910 H   0  0  0  0  0  0  0  0  0  0  0  0
  124.3756  133.6171   60.7211 H   0  0  0  0  0  0  0  0  0  0  0  0
  124.3424  131.9525   59.9514 H   0  0  0  0  0  0  0  0  0  0  0  0
  125.1442  127.7914   65.9169 H   0  0  0  0  0  0  0  0  0  0  0  0
  126.0980  127.3807   68.1623 H   0  0  0  0  0  0  0  0  0  0  0  0
  130.6708  127.4553   68.8005 H   0  0  0  0  0  0  0  0  0  0  0  0
  130.1738  129.2142   68.8756 H   0  0  0  0  0  0  0  0  0  0  0  0
  131.3596  128.4168   70.9417 H   0  0  0  0  0  0  0  0  0  0  0  0
  129.6987  129.0462   71.2344 H   0  0  0  0  0  0  0  0  0  0  0  0
  128.2933  125.7749   71.6809 H   0  0  0  0  0  0  0  0  0  0  0  0
  127.9550  127.5439   71.6546 H   0  0  0  0  0  0  0  0  0  0  0  0
  128.7083  125.7695   69.2721 H   0  0  0  0  0  0  0  0  0  0  0  0
  127.1040  126.5765   69.6177 H   0  0  0  0  0  0  0  0  0  0  0  0
  129.9300  128.8244   66.7956 H   0  0  0  0  0  0  0  0  0  0  0  0
  128.9781  129.2272   64.5493 H   0  0  0  0  0  0  0  0  0  0  0  0
  127.1154  126.9678   62.8026 H   0  0  0  0  0  0  0  0  0  0  0  0
  126.1242  128.6893   58.7293 H   0  0  0  0  0  0  0  0  0  0  0  0
  126.4201  127.0466   56.8975 H   0  0  0  0  0  0  0  0  0  0  0  0
  125.9525  122.5459   57.8803 H   0  0  0  0  0  0  0  0  0  0  0  0
  124.7327  123.7158   57.1913 H   0  0  0  0  0  0  0  0  0  0  0  0
  125.0972  121.6987   55.7442 H   0  0  0  0  0  0  0  0  0  0  0  0
  125.4846  123.2597   54.9349 H   0  0  0  0  0  0  0  0  0  0  0  0
  129.0379  122.7708   55.2221 H   0  0  0  0  0  0  0  0  0  0  0  0
  127.7418  123.8718   54.6314 H   0  0  0  0  0  0  0  0  0  0  0  0
  128.4248  123.2242   57.5491 H   0  0  0  0  0  0  0  0  0  0  0  0
  128.6795  124.7982   56.6575 H   0  0  0  0  0  0  0  0  0  0  0  0
  126.6309  123.8534   59.7985 H   0  0  0  0  0  0  0  0  0  0  0  0
  126.3317  125.4982   61.6290 H   0  0  0  0  0  0  0  0  0  0  0  0
  128.8086  132.2254   63.4548 H   0  0  0  0  0  0  0  0  0  0  0  0
  131.2696  131.9068   63.2947 H   0  0  0  0  0  0  0  0  0  0  0  0
  1  2  1  0
  2  3  1  0
  3  4  1  0
  4  5  2  0
  4  6  1  0
  6  7  2  0
  7  8  1  0
  8  9  2  0
  9 10  1  0
 10 11  1  0
 11 12  2  0
 11 13  1  0
 13 14  1  0
 14 15  1  0
 15 16  2  0
 16 17  1  0
 17 18  1  0
 18 19  2  0
 19 20  1  0
 20 21  2  0
 21 22  1  0
 22 23  1  0
 23 24  1  0
 24 25  1  0
 25 26  1  0
 26 27  1  0
 21 28  1  0
 28 29  2  0
 17 30  2  0
 30 31  1  0
 31 32  1  0
 32 33  2  0
 33 34  1  0
 34 35  2  0
 35 36  1  0
 36 37  1  0
 37 38  1  0
 38 39  1  0
 39 40  1  0
 40 41  1  0
 35 42  1  0
 42 43  2  0
 31 44  2  0
 44 45  1  0
 45 46  3  0
  9 47  1  0
 47 48  2  0
 48  6  1  0
 44 15  1  0
 29 18  1  0
 43 32  1  0
 27 22  1  0
 41 36  1  0
  1 49  1  0
  1 50  1  0
  1 51  1  0
  2 52  1  0
  2 53  1  0
  7 54  1  0
  8 55  1  0
 10 56  1  0
 13 57  1  0
 13 58  1  0
 19 59  1  0
 20 60  1  0
 23 61  1  0
 23 62  1  0
 24 63  1  0
 24 64  1  0
 26 65  1  0
 26 66  1  0
 27 67  1  0
 27 68  1  0
 28 69  1  0
 29 70  1  0
 30 71  1  0
 33 72  1  0
 34 73  1  0
 37 74  1  0
 37 75  1  0
 38 76  1  0
 38 77  1  0
 40 78  1  0
 40 79  1  0
 41 80  1  0
 41 81  1  0
 42 82  1  0
 43 83  1  0
 47 84  1  0
 48 85  1  0
M  END
>  <Binding energies>  (1) 
[-8.73]

>  <Ligand effiencies>  (1) 
[-0.17816326530612245]

>  <Interactions>  (1) 
["V-A:ALA:541:CB:4892, V-A:ASP:366:CG:3213, V-B:MET:535:CE:9807, V-A:PRO:540:CA:4883, V-B:TYR:539:CE2:9848, V-A:ASP:366:CB:3212, V-A:GLU:543:CD:4908, V-B:TYR:539:CZ:9849, H-A:ALA:541:N:4891, H-B:GLY:454:N:9022, H-B:TYR:484:OH:9320, V-A:GLU:543:CG:4907, V-B:ARG:545:CZ:9898, V-B:TYR:539:CD1:9845, V-B:TYR:539:CG:9844, V-B:TYR:539:CE1:9847, V-B:ASP:366:CG:8185, H-B:TYR:539:N:9842, V-B:ASP:366:CB:8184, V-B:ASP:366:CA:8182, V-B:GLU:543:CD:9880, V-B:ILE:538:CA:9832, V-B:ILE:538:CD1:9837, V-A:HIS:456:CD2:4068, V-A:PRO:540:CB:4885, V-A:LEU:363:CD1:3189, V-A:GLY:544:CA:4914, V-A:GLU:543:C:4902, V-B:ILE:538:CG2:9835, V-B:ARG:545:CD:9895, V-B:ARG:545:CG:9894, V-B:HIS:456:CE1:9042, V-A:ALA:541:CA:4890, V-A:LEU:363:CB:3187, V-A:LEU:363:CA:3185, H-A:ARG:545:NH2:4928, V-A:ASN:362:CB:3176, V-A:GLU:543:CB:4906, V-A:HIS:456:CE1:4070, V-B:GLU:543:CB:9878, V-B:HIS:456:CD2:9040, V-A:ASN:362:C:3172, V-A:ALA:541:C:4888, H-A:ASN:362:ND2:3179, V-A:GLY:544:C:4912"]

$$$$
2a_Grossjean_2025
     RDKit          3D

 45 46  0  0  0  0  0  0  0  0999 V2000
  124.8680  122.5740   56.1460 C   0  0  0  0  0  0  0  0  0  0  0  0
  126.3700  122.7410   55.8960 C   0  0  0  0  0  0  0  0  0  0  0  0
  127.0940  122.1230   56.9530 O   0  0  0  0  0  0  0  0  0  0  0  0
  127.5450  122.8470   58.0100 C   0  0  0  0  0  0  0  0  0  0  0  0
  128.0000  122.3380   59.0390 O   0  0  0  0  0  0  0  0  0  0  0  0
  127.4550  124.3300   57.7930 C   0  0  0  0  0  0  0  0  0  0  0  0
  128.3900  125.0230   57.0100 C   0  0  0  0  0  0  0  0  0  0  0  0
  128.2780  126.3990   56.8290 C   0  0  0  0  0  0  0  0  0  0  0  0
  127.2390  127.1100   57.4300 C   0  0  0  0  0  0  0  0  0  0  0  0
  127.2330  128.4970   57.1910 N   0  0  0  0  0  0  0  0  0  0  0  0
  126.9340  129.1820   56.0660 C   0  0  0  0  0  0  0  0  0  0  0  0
  126.6210  128.6820   54.9860 O   0  0  0  0  0  0  0  0  0  0  0  0
  127.0050  130.7090   56.1850 C   0  0  0  0  0  0  0  0  0  0  0  0
  127.7740  131.2770   57.7380 S   0  0  0  0  0  0  0  0  0  0  0  0
  129.3980  130.5440   57.9110 C   0  0  0  0  0  0  0  0  0  0  0  0
  129.4590  129.4230   58.6750 N   0  0  0  0  0  0  0  0  0  0  0  0
  130.6560  128.8220   58.8590 C   0  0  0  0  0  0  0  0  0  0  0  0
  130.6490  127.5920   59.7460 C   0  0  0  0  0  0  0  0  0  0  0  0
  131.8320  129.3020   58.2900 C   0  0  0  0  0  0  0  0  0  0  0  0
  131.7910  130.4540   57.4890 C   0  0  0  0  0  0  0  0  0  0  0  0
  133.1010  130.9710   56.8660 C   0  0  0  0  0  0  0  0  0  0  0  0
  133.9520  129.9610   56.6850 F   0  0  0  0  0  0  0  0  0  0  0  0
  132.8500  131.5430   55.6870 F   0  0  0  0  0  0  0  0  0  0  0  0
  133.7130  131.8790   57.6300 F   0  0  0  0  0  0  0  0  0  0  0  0
  130.5420  131.0960   57.2910 C   0  0  0  0  0  0  0  0  0  0  0  0
  130.4420  132.3050   56.4660 C   0  0  0  0  0  0  0  0  0  0  0  0
  130.3630  133.2590   55.8160 N   0  0  0  0  0  0  0  0  0  0  0  0
  126.2960  126.4230   58.2070 C   0  0  0  0  0  0  0  0  0  0  0  0
  126.4060  125.0460   58.3840 C   0  0  0  0  0  0  0  0  0  0  0  0
  124.6767  122.5527   57.2290 H   0  0  0  0  0  0  0  0  0  0  0  0
  124.3251  123.4173   55.6943 H   0  0  0  0  0  0  0  0  0  0  0  0
  124.5236  121.6320   55.6943 H   0  0  0  0  0  0  0  0  0  0  0  0
  126.6384  122.2669   54.9404 H   0  0  0  0  0  0  0  0  0  0  0  0
  126.6199  123.8114   55.8547 H   0  0  0  0  0  0  0  0  0  0  0  0
  129.2177  124.4754   56.5355 H   0  0  0  0  0  0  0  0  0  0  0  0
  129.0143  126.9295   56.2074 H   0  0  0  0  0  0  0  0  0  0  0  0
  127.4430  129.0550   58.0040 H   0  0  0  0  0  0  0  0  0  0  0  0
  127.5939  131.0979   55.3412 H   0  0  0  0  0  0  0  0  0  0  0  0
  125.9712  131.0846   56.1772 H   0  0  0  0  0  0  0  0  0  0  0  0
  130.6508  127.9012   60.8016 H   0  0  0  0  0  0  0  0  0  0  0  0
  129.7475  126.9964   59.5399 H   0  0  0  0  0  0  0  0  0  0  0  0
  131.5437  126.9862   59.5399 H   0  0  0  0  0  0  0  0  0  0  0  0
  132.7856  128.7829   58.4665 H   0  0  0  0  0  0  0  0  0  0  0  0
  125.4676  126.9725   58.6778 H   0  0  0  0  0  0  0  0  0  0  0  0
  125.6610  124.5148   58.9946 H   0  0  0  0  0  0  0  0  0  0  0  0
  1  2  1  0
  2  3  1  0
  3  4  1  0
  4  5  2  0
  4  6  1  0
  6  7  2  0
  7  8  1  0
  8  9  2  0
  9 10  1  0
 10 11  1  0
 11 12  2  0
 11 13  1  0
 13 14  1  0
 14 15  1  0
 15 16  2  0
 16 17  1  0
 17 18  1  0
 17 19  2  0
 19 20  1  0
 20 21  1  0
 21 22  1  0
 21 23  1  0
 21 24  1  0
 20 25  2  0
 25 26  1  0
 26 27  3  0
  9 28  1  0
 28 29  2  0
 29  6  1  0
 25 15  1  0
  1 30  1  0
  1 31  1  0
  1 32  1  0
  2 33  1  0
  2 34  1  0
  7 35  1  0
  8 36  1  0
 10 37  1  0
 13 38  1  0
 13 39  1  0
 18 40  1  0
 18 41  1  0
 18 42  1  0
 19 43  1  0
 28 44  1  0
 29 45  1  0
M  END
>  <Binding energies>  (1) 
[-7.13]

>  <Ligand effiencies>  (1) 
[-0.23766666666666666]

>  <Interactions>  (1) 
["V-A:TYR:539:CZ:4877, V-A:ASP:366:CG:3213, V-B:MET:535:CE:9807, V-A:PRO:540:CA:4883, V-B:TYR:539:CE2:9848, V-A:ASP:366:CB:3212, H-B:LYS:534:NZ:9795, V-A:TYR:539:CE1:4875, V-B:TYR:539:CD2:9846, H-B:TYR:531:OH:9767, V-B:TYR:539:C:9839, V-B:ASP:366:CG:8185, H-B:TYR:539:N:9842, V-B:PRO:540:CA:9855, V-B:PRO:540:N:9856, V-A:TYR:539:C:4867, V-B:LEU:363:CD1:8161, V-B:TYR:531:CE2:9765, V-B:ILE:538:CA:9832, V-B:ILE:538:CD1:9837, V-A:TYR:531:CE2:4793, V-A:PRO:540:CB:4885, V-A:LEU:363:CD1:3189, H-A:TYR:539:N:4870, V-A:PRO:540:N:4884, V-B:PRO:540:CD:9859, V-B:ILE:538:CG2:9835, V-A:PRO:540:CG:4886, V-A:LEU:363:CB:3187, V-A:LEU:363:CA:3185, V-A:TYR:531:CZ:4794, V-A:LEU:363:CG:3188"]

$$$$
2aa_Ghoteimi_2023
     RDKit          3D

 85 90  0  0  0  0  0  0  0  0999 V2000
  124.4550  137.8730   56.9970 C   0  0  0  0  0  0  0  0  0  0  0  0
  124.1280  137.0900   58.2720 C   0  0  0  0  0  0  0  0  0  0  0  0
  124.9360  137.5690   59.3390 O   0  0  0  0  0  0  0  0  0  0  0  0
  126.0350  136.8840   59.7490 C   0  0  0  0  0  0  0  0  0  0  0  0
  127.1810  137.3450   59.7030 O   0  0  0  0  0  0  0  0  0  0  0  0
  125.7170  135.5160   60.2810 C   0  0  0  0  0  0  0  0  0  0  0  0
  124.3960  135.0650   60.4230 C   0  0  0  0  0  0  0  0  0  0  0  0
  124.1340  133.7900   60.9140 C   0  0  0  0  0  0  0  0  0  0  0  0
  125.1820  132.9430   61.2810 C   0  0  0  0  0  0  0  0  0  0  0  0
  124.8030  131.6750   61.7620 N   0  0  0  0  0  0  0  0  0  0  0  0
  123.6350  131.2690   62.3060 C   0  0  0  0  0  0  0  0  0  0  0  0
  122.6380  131.9790   62.4540 O   0  0  0  0  0  0  0  0  0  0  0  0
  123.6060  129.7950   62.7290 C   0  0  0  0  0  0  0  0  0  0  0  0
  124.1090  129.6670   64.0640 O   0  0  0  0  0  0  0  0  0  0  0  0
  125.4740  129.5440   64.2850 C   0  0  0  0  0  0  0  0  0  0  0  0
  126.3170  129.8040   63.2470 N   0  0  0  0  0  0  0  0  0  0  0  0
  127.6570  129.6960   63.4300 C   0  0  0  0  0  0  0  0  0  0  0  0
  128.5200  129.9920   62.2450 C   0  0  0  0  0  0  0  0  0  0  0  0
  129.0670  131.2660   62.0590 C   0  0  0  0  0  0  0  0  0  0  0  0
  129.8770  131.5450   60.9610 C   0  0  0  0  0  0  0  0  0  0  0  0
  130.1810  130.5540   60.0130 C   0  0  0  0  0  0  0  0  0  0  0  0
  130.9820  130.8210   58.8980 N   0  0  0  0  0  0  0  0  0  0  0  0
  130.4680  131.5920   57.7470 C   0  0  0  0  0  0  0  0  0  0  0  0
  131.3470  131.4840   56.4830 C   0  0  0  0  0  0  0  0  0  0  0  0
  132.6820  131.8550   56.7860 O   0  0  0  0  0  0  0  0  0  0  0  0
  133.2430  131.0090   57.7780 C   0  0  0  0  0  0  0  0  0  0  0  0
  132.4210  131.1030   59.0810 C   0  0  0  0  0  0  0  0  0  0  0  0
  129.6120  129.2850   60.1930 C   0  0  0  0  0  0  0  0  0  0  0  0
  128.8010  129.0080   61.2890 C   0  0  0  0  0  0  0  0  0  0  0  0
  128.1880  129.3080   64.6630 C   0  0  0  0  0  0  0  0  0  0  0  0
  127.3430  129.0240   65.7440 C   0  0  0  0  0  0  0  0  0  0  0  0
  127.9690  128.5880   67.0290 C   0  0  0  0  0  0  0  0  0  0  0  0
  127.5620  127.4030   67.6460 C   0  0  0  0  0  0  0  0  0  0  0  0
  128.1270  127.0010   68.8530 C   0  0  0  0  0  0  0  0  0  0  0  0
  129.1050  127.7820   69.4870 C   0  0  0  0  0  0  0  0  0  0  0  0
  129.6880  127.3970   70.6980 N   0  0  0  0  0  0  0  0  0  0  0  0
  128.8650  126.9820   71.8500 C   0  0  0  0  0  0  0  0  0  0  0  0
  129.6710  126.2650   72.9540 C   0  0  0  0  0  0  0  0  0  0  0  0
  130.7520  127.0830   73.3740 O   0  0  0  0  0  0  0  0  0  0  0  0
  131.6360  127.3710   72.3020 C   0  0  0  0  0  0  0  0  0  0  0  0
  130.8830  128.1180   71.1820 C   0  0  0  0  0  0  0  0  0  0  0  0
  129.5120  128.9670   68.8580 C   0  0  0  0  0  0  0  0  0  0  0  0
  128.9490  129.3680   67.6500 C   0  0  0  0  0  0  0  0  0  0  0  0
  125.9490  129.1600   65.5520 C   0  0  0  0  0  0  0  0  0  0  0  0
  124.9930  128.9330   66.6380 C   0  0  0  0  0  0  0  0  0  0  0  0
  124.2380  128.7540   67.4970 N   0  0  0  0  0  0  0  0  0  0  0  0
  126.5050  133.3840   61.1350 C   0  0  0  0  0  0  0  0  0  0  0  0
  126.7650  134.6590   60.6400 C   0  0  0  0  0  0  0  0  0  0  0  0
  124.8660  138.8571   57.2663 H   0  0  0  0  0  0  0  0  0  0  0  0
  125.1957  137.3160   56.4045 H   0  0  0  0  0  0  0  0  0  0  0  0
  123.5382  138.0082   56.4045 H   0  0  0  0  0  0  0  0  0  0  0  0
  123.0663  137.2272   58.5251 H   0  0  0  0  0  0  0  0  0  0  0  0
  124.3294  136.0209   58.1092 H   0  0  0  0  0  0  0  0  0  0  0  0
  123.5611  135.7246   60.1440 H   0  0  0  0  0  0  0  0  0  0  0  0
  123.0938  133.4465   61.0139 H   0  0  0  0  0  0  0  0  0  0  0  0
  125.5070  130.9610   61.6410 H   0  0  0  0  0  0  0  0  0  0  0  0
  122.5713  129.4237   62.6907 H   0  0  0  0  0  0  0  0  0  0  0  0
  124.2346  129.2066   62.0444 H   0  0  0  0  0  0  0  0  0  0  0  0
  128.8542  132.0592   62.7908 H   0  0  0  0  0  0  0  0  0  0  0  0
  130.2856  132.5584   60.8340 H   0  0  0  0  0  0  0  0  0  0  0  0
  129.4617  131.2210   57.5025 H   0  0  0  0  0  0  0  0  0  0  0  0
  130.4650  132.6506   58.0459 H   0  0  0  0  0  0  0  0  0  0  0  0
  131.3316  130.4470   56.1164 H   0  0  0  0  0  0  0  0  0  0  0  0
  130.9516  132.1595   55.7101 H   0  0  0  0  0  0  0  0  0  0  0  0
  133.2353  129.9700   57.4170 H   0  0  0  0  0  0  0  0  0  0  0  0
  134.2764  131.3270   57.9802 H   0  0  0  0  0  0  0  0  0  0  0  0
  132.8280  130.3780   59.8013 H   0  0  0  0  0  0  0  0  0  0  0  0
  132.5021  132.1404   59.4378 H   0  0  0  0  0  0  0  0  0  0  0  0
  129.8104  128.4944   59.4544 H   0  0  0  0  0  0  0  0  0  0  0  0
  128.3741  128.0010   61.4064 H   0  0  0  0  0  0  0  0  0  0  0  0
  129.2780  129.2249   64.7859 H   0  0  0  0  0  0  0  0  0  0  0  0
  126.7873  126.7812   67.1735 H   0  0  0  0  0  0  0  0  0  0  0  0
  127.8021  126.0577   69.3163 H   0  0  0  0  0  0  0  0  0  0  0  0
  128.3981  127.8778   72.2854 H   0  0  0  0  0  0  0  0  0  0  0  0
  128.1201  126.2649   71.4747 H   0  0  0  0  0  0  0  0  0  0  0  0
  129.0131  126.0618   73.8118 H   0  0  0  0  0  0  0  0  0  0  0  0
  130.0671  125.3192   72.5557 H   0  0  0  0  0  0  0  0  0  0  0  0
  132.4603  128.0002   72.6689 H   0  0  0  0  0  0  0  0  0  0  0  0
  132.0358  126.4280   71.9009 H   0  0  0  0  0  0  0  0  0  0  0  0
  130.5665  129.0982   71.5680 H   0  0  0  0  0  0  0  0  0  0  0  0
  131.5740  128.2103   70.3311 H   0  0  0  0  0  0  0  0  0  0  0  0
  130.2884  129.5896   69.3266 H   0  0  0  0  0  0  0  0  0  0  0  0
  129.2779  130.3065   67.1799 H   0  0  0  0  0  0  0  0  0  0  0  0
  127.3385  132.7217   61.4119 H   0  0  0  0  0  0  0  0  0  0  0  0
  127.8058  134.9973   60.5295 H   0  0  0  0  0  0  0  0  0  0  0  0
  1  2  1  0
  2  3  1  0
  3  4  1  0
  4  5  2  0
  4  6  1  0
  6  7  2  0
  7  8  1  0
  8  9  2  0
  9 10  1  0
 10 11  1  0
 11 12  2  0
 11 13  1  0
 13 14  1  0
 14 15  1  0
 15 16  2  0
 16 17  1  0
 17 18  1  0
 18 19  2  0
 19 20  1  0
 20 21  2  0
 21 22  1  0
 22 23  1  0
 23 24  1  0
 24 25  1  0
 25 26  1  0
 26 27  1  0
 21 28  1  0
 28 29  2  0
 17 30  2  0
 30 31  1  0
 31 32  1  0
 32 33  2  0
 33 34  1  0
 34 35  2  0
 35 36  1  0
 36 37  1  0
 37 38  1  0
 38 39  1  0
 39 40  1  0
 40 41  1  0
 35 42  1  0
 42 43  2  0
 31 44  2  0
 44 45  1  0
 45 46  3  0
  9 47  1  0
 47 48  2  0
 48  6  1  0
 44 15  1  0
 29 18  1  0
 43 32  1  0
 27 22  1  0
 41 36  1  0
  1 49  1  0
  1 50  1  0
  1 51  1  0
  2 52  1  0
  2 53  1  0
  7 54  1  0
  8 55  1  0
 10 56  1  0
 13 57  1  0
 13 58  1  0
 19 59  1  0
 20 60  1  0
 23 61  1  0
 23 62  1  0
 24 63  1  0
 24 64  1  0
 26 65  1  0
 26 66  1  0
 27 67  1  0
 27 68  1  0
 28 69  1  0
 29 70  1  0
 30 71  1  0
 33 72  1  0
 34 73  1  0
 37 74  1  0
 37 75  1  0
 38 76  1  0
 38 77  1  0
 40 78  1  0
 40 79  1  0
 41 80  1  0
 41 81  1  0
 42 82  1  0
 43 83  1  0
 47 84  1  0
 48 85  1  0
M  END
>  <Binding energies>  (1) 
[-8.73]

>  <Ligand effiencies>  (1) 
[-0.17816326530612245]

>  <Interactions>  (1) 
["V-A:ALA:541:CB:4892, V-B:ILE:369:CG2:8209, V-B:LEU:475:CD2:9231, V-A:PRO:540:CA:4883, V-A:ASP:366:CB:3212, V-A:GLU:543:CD:4908, V-B:ILE:369:CD1:8211, H-B:GLY:454:N:9022, H-B:TYR:484:OH:9320, V-A:GLU:543:CG:4907, H-A:TYR:531:OH:4795, V-A:TYR:539:CE1:4875, V-B:ARG:545:CZ:9898, V-B:ASP:366:CG:8185, V-A:TYR:539:CD1:4873, V-B:GLU:543:CD:9880, V-A:HIS:456:CD2:4068, V-A:HIS:456:CG:4066, V-B:LYS:547:CE:9922, V-A:HIS:456:CB:4065, V-A:PRO:540:CB:4885, V-A:LEU:363:CD1:3189, V-A:PRO:540:N:4884, V-A:TYR:539:CG:4872, V-A:GLY:544:CA:4914, V-A:GLU:543:C:4902, V-A:GLU:543:CA:4904, V-B:GLY:454:CA:9021, V-B:SER:385:CB:8381, V-B:SER:385:CA:8379, V-B:ARG:545:CD:9895, H-B:ARG:545:NE:9896, V-B:ARG:545:CG:9894, H-B:HIS:456:ND1:9039, V-B:TYR:484:CZ:9319, V-B:HIS:456:CE1:9042, H-B:ARG:545:NH2:9900, V-A:LEU:363:CA:3185, V-B:HIS:383:CD2:8364, V-B:GLY:453:C:9014, V-A:TYR:539:CB:4871, H-B:ARG:545:NH1:9899, V-B:GLY:453:CA:9016, V-A:GLU:543:CB:4906, H-B:SER:385:OG:8382, H-B:HIS:383:NE2:8366, V-A:HIS:456:CE1:4070, V-B:GLU:543:CB:9878, V-B:HIS:456:CD2:9040, V-A:GLY:544:C:4912, V-B:HIS:383:CG:8362, V-A:ILE:343:CD1:2994"]

$$$$
2b_Ghoteimi_2023
     RDKit          3D

 72 77  0  0  0  0  0  0  0  0999 V2000
  125.1730  130.4840   58.8360 N   0  0  0  0  0  0  0  0  0  0  0  0
  125.5060  130.1360   59.8880 C   0  0  0  0  0  0  0  0  0  0  0  0
  125.9290  129.6890   61.2190 C   0  0  0  0  0  0  0  0  0  0  0  0
  126.3450  128.3510   61.4300 C   0  0  0  0  0  0  0  0  0  0  0  0
  126.3890  127.3150   60.3560 C   0  0  0  0  0  0  0  0  0  0  0  0
  126.3700  125.9580   60.6840 C   0  0  0  0  0  0  0  0  0  0  0  0
  126.4120  124.9890   59.6860 C   0  0  0  0  0  0  0  0  0  0  0  0
  126.4920  125.3500   58.3320 C   0  0  0  0  0  0  0  0  0  0  0  0
  126.5230  124.3970   57.3130 N   0  0  0  0  0  0  0  0  0  0  0  0
  127.8200  123.8220   56.9040 C   0  0  0  0  0  0  0  0  0  0  0  0
  127.7640  123.0890   55.5470 C   0  0  0  0  0  0  0  0  0  0  0  0
  126.7500  122.0960   55.5700 O   0  0  0  0  0  0  0  0  0  0  0  0
  125.4710  122.6580   55.8200 C   0  0  0  0  0  0  0  0  0  0  0  0
  125.4680  123.3710   57.1880 C   0  0  0  0  0  0  0  0  0  0  0  0
  126.5140  126.7150   58.0130 C   0  0  0  0  0  0  0  0  0  0  0  0
  126.4680  127.6850   59.0100 C   0  0  0  0  0  0  0  0  0  0  0  0
  126.7450  127.9720   62.7180 C   0  0  0  0  0  0  0  0  0  0  0  0
  126.7610  128.9070   63.7570 C   0  0  0  0  0  0  0  0  0  0  0  0
  127.2080  128.5610   65.1420 C   0  0  0  0  0  0  0  0  0  0  0  0
  128.5390  128.7510   65.5310 C   0  0  0  0  0  0  0  0  0  0  0  0
  128.9580  128.4470   66.8230 C   0  0  0  0  0  0  0  0  0  0  0  0
  128.0640  127.9280   67.7730 C   0  0  0  0  0  0  0  0  0  0  0  0
  128.4630  127.6460   69.0840 N   0  0  0  0  0  0  0  0  0  0  0  0
  127.9660  126.4310   69.7600 C   0  0  0  0  0  0  0  0  0  0  0  0
  128.1630  126.4500   71.2920 C   0  0  0  0  0  0  0  0  0  0  0  0
  129.5280  126.6830   71.6030 O   0  0  0  0  0  0  0  0  0  0  0  0
  129.9710  127.9310   71.0950 C   0  0  0  0  0  0  0  0  0  0  0  0
  129.8260  127.9590   69.5590 C   0  0  0  0  0  0  0  0  0  0  0  0
  126.7300  127.7460   67.3810 C   0  0  0  0  0  0  0  0  0  0  0  0
  126.3110  128.0540   66.0900 C   0  0  0  0  0  0  0  0  0  0  0  0
  126.3640  130.1890   63.5520 N   0  0  0  0  0  0  0  0  0  0  0  0
  125.9410  130.5700   62.3240 C   0  0  0  0  0  0  0  0  0  0  0  0
  125.4530  132.2790   62.2370 S   0  0  0  0  0  0  0  0  0  0  0  0
  126.1890  132.9840   60.7310 C   0  0  0  0  0  0  0  0  0  0  0  0
  127.7130  133.0740   60.8230 C   0  0  0  0  0  0  0  0  0  0  0  0
  128.2450  134.1740   60.9840 O   0  0  0  0  0  0  0  0  0  0  0  0
  128.3730  131.9000   60.7120 N   0  0  0  0  0  0  0  0  0  0  0  0
  129.7440  131.6960   60.7710 C   0  0  0  0  0  0  0  0  0  0  0  0
  130.4900  131.2230   59.6920 C   0  0  0  0  0  0  0  0  0  0  0  0
  131.7850  131.1620   60.1510 C   0  0  0  0  0  0  0  0  0  0  0  0
  131.8180  131.5770   61.4390 O   0  0  0  0  0  0  0  0  0  0  0  0
  130.5170  131.9160   61.8220 N   0  0  0  0  0  0  0  0  0  0  0  0
  126.3215  125.6524   61.7396 H   0  0  0  0  0  0  0  0  0  0  0  0
  126.3821  123.9247   59.9623 H   0  0  0  0  0  0  0  0  0  0  0  0
  128.5551  124.6370   56.8302 H   0  0  0  0  0  0  0  0  0  0  0  0
  128.0998  123.0778   57.6642 H   0  0  0  0  0  0  0  0  0  0  0  0
  127.5442  123.8149   54.7503 H   0  0  0  0  0  0  0  0  0  0  0  0
  128.7348  122.6076   55.3577 H   0  0  0  0  0  0  0  0  0  0  0  0
  125.2313  123.3846   55.0297 H   0  0  0  0  0  0  0  0  0  0  0  0
  124.7187  121.8555   55.8287 H   0  0  0  0  0  0  0  0  0  0  0  0
  124.4906  123.8562   57.3270 H   0  0  0  0  0  0  0  0  0  0  0  0
  125.6635  122.6068   57.9547 H   0  0  0  0  0  0  0  0  0  0  0  0
  126.5684  127.0240   56.9587 H   0  0  0  0  0  0  0  0  0  0  0  0
  126.4940  128.7503   58.7371 H   0  0  0  0  0  0  0  0  0  0  0  0
  127.0482  126.9327   62.9128 H   0  0  0  0  0  0  0  0  0  0  0  0
  129.2646  129.1464   64.8049 H   0  0  0  0  0  0  0  0  0  0  0  0
  130.0078  128.6163   67.1046 H   0  0  0  0  0  0  0  0  0  0  0  0
  126.8911  126.3309   69.5490 H   0  0  0  0  0  0  0  0  0  0  0  0
  128.5499  125.5840   69.3706 H   0  0  0  0  0  0  0  0  0  0  0  0
  127.5481  127.2509   71.7284 H   0  0  0  0  0  0  0  0  0  0  0  0
  127.8589  125.4778   71.7072 H   0  0  0  0  0  0  0  0  0  0  0  0
  129.3649  128.7379   71.5326 H   0  0  0  0  0  0  0  0  0  0  0  0
  131.0292  128.0727   71.3597 H   0  0  0  0  0  0  0  0  0  0  0  0
  130.0950  128.9646   69.2034 H   0  0  0  0  0  0  0  0  0  0  0  0
  130.4917  127.1797   69.1597 H   0  0  0  0  0  0  0  0  0  0  0  0
  126.0022  127.3531   68.1062 H   0  0  0  0  0  0  0  0  0  0  0  0
  125.2589  127.8967   65.8101 H   0  0  0  0  0  0  0  0  0  0  0  0
  125.9224  132.3474   59.8745 H   0  0  0  0  0  0  0  0  0  0  0  0
  125.7963  134.0041   60.6077 H   0  0  0  0  0  0  0  0  0  0  0  0
  127.8160  131.0660   60.5980 H   0  0  0  0  0  0  0  0  0  0  0  0
  130.1222  130.9563   58.6902 H   0  0  0  0  0  0  0  0  0  0  0  0
  132.6546  130.8293   59.5653 H   0  0  0  0  0  0  0  0  0  0  0  0
  1  2  3  0
  2  3  1  0
  3  4  2  0
  4  5  1  0
  5  6  2  0
  6  7  1  0
  7  8  2  0
  8  9  1  0
  9 10  1  0
 10 11  1  0
 11 12  1  0
 12 13  1  0
 13 14  1  0
  8 15  1  0
 15 16  2  0
  4 17  1  0
 17 18  2  0
 18 19  1  0
 19 20  2  0
 20 21  1  0
 21 22  2  0
 22 23  1  0
 23 24  1  0
 24 25  1  0
 25 26  1  0
 26 27  1  0
 27 28  1  0
 22 29  1  0
 29 30  2  0
 18 31  1  0
 31 32  2  0
 32 33  1  0
 33 34  1  0
 34 35  1  0
 35 36  2  0
 35 37  1  0
 37 38  1  0
 38 39  1  0
 39 40  2  0
 40 41  1  0
 41 42  1  0
 32  3  1  0
 42 38  2  0
 16  5  1  0
 30 19  1  0
 14  9  1  0
 28 23  1  0
  6 43  1  0
  7 44  1  0
 10 45  1  0
 10 46  1  0
 11 47  1  0
 11 48  1  0
 13 49  1  0
 13 50  1  0
 14 51  1  0
 14 52  1  0
 15 53  1  0
 16 54  1  0
 17 55  1  0
 20 56  1  0
 21 57  1  0
 24 58  1  0
 24 59  1  0
 25 60  1  0
 25 61  1  0
 27 62  1  0
 27 63  1  0
 28 64  1  0
 28 65  1  0
 29 66  1  0
 30 67  1  0
 34 68  1  0
 34 69  1  0
 37 70  1  0
 39 71  1  0
 40 72  1  0
M  END
>  <Binding energies>  (1) 
[-9.05]

>  <Ligand effiencies>  (1) 
[-0.21046511627906977]

>  <Interactions>  (1) 
["V-A:ALA:541:CB:4892, V-B:MET:535:CE:9807, V-A:PRO:540:CA:4883, V-A:GLU:543:CD:4908, V-B:TYR:539:CZ:9849, H-A:ALA:541:N:4891, H-B:TYR:484:OH:9320, V-A:GLU:543:CG:4907, V-B:TYR:539:CD1:9845, V-B:TYR:539:CE1:9847, V-B:ASP:366:CG:8185, H-B:TYR:539:N:9842, V-B:PRO:540:CB:9857, V-B:TYR:531:CE2:9765, V-B:GLU:543:CD:9880, V-B:ILE:538:CA:9832, V-B:ILE:538:CD1:9837, V-A:HIS:456:CD2:4068, V-A:PRO:540:CB:4885, V-B:ILE:538:CG2:9835, V-B:ARG:545:CG:9894, V-B:HIS:456:CE1:9042, V-A:GLU:543:CB:4906, V-A:HIS:456:CE1:4070, V-B:GLU:543:CB:9878, V-B:HIS:456:CD2:9040, V-B:GLY:544:C:9884, V-B:GLU:543:C:9874"]

$$$$
2b_Grossjean_2025
     RDKit          3D

 42 43  0  0  0  0  0  0  0  0999 V2000
  128.6290  132.6180   57.1210 C   0  0  0  0  0  0  0  0  0  0  0  0
  129.3720  133.0010   55.9720 O   0  0  0  0  0  0  0  0  0  0  0  0
  130.6710  132.6350   55.8240 C   0  0  0  0  0  0  0  0  0  0  0  0
  131.5430  133.3870   55.3780 O   0  0  0  0  0  0  0  0  0  0  0  0
  130.9410  131.2220   56.2550 C   0  0  0  0  0  0  0  0  0  0  0  0
  131.9890  130.9000   57.1290 C   0  0  0  0  0  0  0  0  0  0  0  0
  132.2140  129.5790   57.5070 C   0  0  0  0  0  0  0  0  0  0  0  0
  131.3960  128.5570   57.0270 C   0  0  0  0  0  0  0  0  0  0  0  0
  131.7160  127.2580   57.4670 N   0  0  0  0  0  0  0  0  0  0  0  0
  132.3560  126.2610   56.8200 C   0  0  0  0  0  0  0  0  0  0  0  0
  132.7700  126.3140   55.6610 O   0  0  0  0  0  0  0  0  0  0  0  0
  132.5450  124.9740   57.6280 C   0  0  0  0  0  0  0  0  0  0  0  0
  131.7940  125.0530   59.2880 S   0  0  0  0  0  0  0  0  0  0  0  0
  130.3780  123.9640   59.3690 C   0  0  0  0  0  0  0  0  0  0  0  0
  130.3750  123.0770   60.3970 N   0  0  0  0  0  0  0  0  0  0  0  0
  129.3370  122.2200   60.5170 C   0  0  0  0  0  0  0  0  0  0  0  0
  129.4160  121.2530   61.6840 C   0  0  0  0  0  0  0  0  0  0  0  0
  128.2620  122.2120   59.6330 C   0  0  0  0  0  0  0  0  0  0  0  0
  128.2410  123.1250   58.5670 C   0  0  0  0  0  0  0  0  0  0  0  0
  127.0420  123.1070   57.6000 C   0  0  0  0  0  0  0  0  0  0  0  0
  127.3690  122.4620   56.4790 F   0  0  0  0  0  0  0  0  0  0  0  0
  126.0040  122.4880   58.1670 F   0  0  0  0  0  0  0  0  0  0  0  0
  126.6370  124.3320   57.2550 F   0  0  0  0  0  0  0  0  0  0  0  0
  129.3260  124.0270   58.4250 C   0  0  0  0  0  0  0  0  0  0  0  0
  129.3590  124.9970   57.3270 C   0  0  0  0  0  0  0  0  0  0  0  0
  129.3840  125.7640   56.4600 N   0  0  0  0  0  0  0  0  0  0  0  0
  130.3510  128.8690   56.1450 C   0  0  0  0  0  0  0  0  0  0  0  0
  130.1280  130.1900   55.7670 C   0  0  0  0  0  0  0  0  0  0  0  0
  129.1827  132.9034   58.0276 H   0  0  0  0  0  0  0  0  0  0  0  0
  127.6530  133.1254   57.1124 H   0  0  0  0  0  0  0  0  0  0  0  0
  128.4761  131.5287   57.1124 H   0  0  0  0  0  0  0  0  0  0  0  0
  132.6386  131.6974   57.5192 H   0  0  0  0  0  0  0  0  0  0  0  0
  133.0431  129.3399   58.1892 H   0  0  0  0  0  0  0  0  0  0  0  0
  131.3680  127.0370   58.3880 H   0  0  0  0  0  0  0  0  0  0  0  0
  132.0840  124.1426   57.0746 H   0  0  0  0  0  0  0  0  0  0  0  0
  133.6268  124.8290   57.7646 H   0  0  0  0  0  0  0  0  0  0  0  0
  129.3702  121.8142   62.6290 H   0  0  0  0  0  0  0  0  0  0  0  0
  128.5724  120.5488   61.6344 H   0  0  0  0  0  0  0  0  0  0  0  0
  130.3627  120.6951   61.6344 H   0  0  0  0  0  0  0  0  0  0  0  0
  127.4369  121.4972   59.7684 H   0  0  0  0  0  0  0  0  0  0  0  0
  129.7069  128.0688   55.7515 H   0  0  0  0  0  0  0  0  0  0  0  0
  129.3043  130.4266   55.0774 H   0  0  0  0  0  0  0  0  0  0  0  0
  1  2  1  0
  2  3  1  0
  3  4  2  0
  3  5  1  0
  5  6  2  0
  6  7  1  0
  7  8  2  0
  8  9  1  0
  9 10  1  0
 10 11  2  0
 10 12  1  0
 12 13  1  0
 13 14  1  0
 14 15  2  0
 15 16  1  0
 16 17  1  0
 16 18  2  0
 18 19  1  0
 19 20  1  0
 20 21  1  0
 20 22  1  0
 20 23  1  0
 19 24  2  0
 24 25  1  0
 25 26  3  0
  8 27  1  0
 27 28  2  0
 28  5  1  0
 24 14  1  0
  1 29  1  0
  1 30  1  0
  1 31  1  0
  6 32  1  0
  7 33  1  0
  9 34  1  0
 12 35  1  0
 12 36  1  0
 17 37  1  0
 17 38  1  0
 17 39  1  0
 18 40  1  0
 27 41  1  0
 28 42  1  0
M  END
>  <Binding energies>  (1) 
[-6.78]

>  <Ligand effiencies>  (1) 
[-0.23379310344827586]

>  <Interactions>  (1) 
["V-A:ASP:366:CA:3210, V-A:ASP:366:CG:3213, V-B:TYR:539:CE2:9848, V-A:ASP:366:CB:3212, V-B:TYR:539:CZ:9849, H-A:TYR:531:OH:4795, V-A:TYR:539:CE1:4875, V-B:TYR:539:CD2:9846, V-B:TYR:539:CD1:9845, V-B:TYR:539:CG:9844, V-B:TYR:539:CE1:9847, H-B:TYR:539:OH:9850, V-B:TYR:539:C:9839, V-B:PRO:540:CB:9857, V-B:PRO:540:CA:9855, V-B:PRO:540:N:9856, V-A:TYR:539:CD1:4873, V-A:TYR:539:C:4867, H-A:ASP:366:OD1:3214, V-A:PRO:540:CD:4887, V-A:TYR:539:CD2:4874, V-A:ILE:538:CB:4862, H-A:TYR:539:N:4870, V-A:PRO:540:N:4884, V-A:TYR:539:CG:4872, V-B:PRO:540:CG:9858, V-B:TYR:539:CA:9841, V-B:PRO:540:CD:9859, V-B:ALA:541:CB:9864"]

$$$$
2c_Ghoteimi_2023
     RDKit          3D

 72 77  0  0  0  0  0  0  0  0999 V2000
  125.3280  130.4010   58.5440 N   0  0  0  0  0  0  0  0  0  0  0  0
  125.6380  130.0580   59.6050 C   0  0  0  0  0  0  0  0  0  0  0  0
  126.0330  129.6180   60.9460 C   0  0  0  0  0  0  0  0  0  0  0  0
  126.4390  128.2800   61.1770 C   0  0  0  0  0  0  0  0  0  0  0  0
  126.4950  127.2330   60.1130 C   0  0  0  0  0  0  0  0  0  0  0  0
  126.3750  125.8830   60.4480 C   0  0  0  0  0  0  0  0  0  0  0  0
  126.4220  124.9020   59.4620 C   0  0  0  0  0  0  0  0  0  0  0  0
  126.6060  125.2420   58.1120 C   0  0  0  0  0  0  0  0  0  0  0  0
  126.6360  124.2750   57.1040 N   0  0  0  0  0  0  0  0  0  0  0  0
  127.9310  123.6920   56.7010 C   0  0  0  0  0  0  0  0  0  0  0  0
  127.8710  122.9510   55.3490 C   0  0  0  0  0  0  0  0  0  0  0  0
  126.8570  121.9580   55.3830 O   0  0  0  0  0  0  0  0  0  0  0  0
  125.5790  122.5220   55.6290 C   0  0  0  0  0  0  0  0  0  0  0  0
  125.5780  123.2530   56.9880 C   0  0  0  0  0  0  0  0  0  0  0  0
  126.7300  126.6000   57.7860 C   0  0  0  0  0  0  0  0  0  0  0  0
  126.6800  127.5810   58.7720 C   0  0  0  0  0  0  0  0  0  0  0  0
  126.8100  127.9100   62.4760 C   0  0  0  0  0  0  0  0  0  0  0  0
  126.8030  128.8510   63.5100 C   0  0  0  0  0  0  0  0  0  0  0  0
  127.2060  128.5110   64.9080 C   0  0  0  0  0  0  0  0  0  0  0  0
  128.5420  128.6080   65.3100 C   0  0  0  0  0  0  0  0  0  0  0  0
  128.9240  128.2970   66.6130 C   0  0  0  0  0  0  0  0  0  0  0  0
  127.9820  127.8660   67.5610 C   0  0  0  0  0  0  0  0  0  0  0  0
  128.3440  127.5750   68.8810 N   0  0  0  0  0  0  0  0  0  0  0  0
  127.8640  126.3310   69.5180 C   0  0  0  0  0  0  0  0  0  0  0  0
  128.0090  126.3270   71.0540 C   0  0  0  0  0  0  0  0  0  0  0  0
  129.3540  126.5910   71.4160 O   0  0  0  0  0  0  0  0  0  0  0  0
  129.7790  127.8610   70.9460 C   0  0  0  0  0  0  0  0  0  0  0  0
  129.6820  127.9150   69.4060 C   0  0  0  0  0  0  0  0  0  0  0  0
  126.6420  127.7820   67.1570 C   0  0  0  0  0  0  0  0  0  0  0  0
  126.2620  128.0950   65.8540 C   0  0  0  0  0  0  0  0  0  0  0  0
  126.4160  130.1330   63.2860 N   0  0  0  0  0  0  0  0  0  0  0  0
  126.0230  130.5070   62.0450 C   0  0  0  0  0  0  0  0  0  0  0  0
  125.5400  132.2150   61.9360 S   0  0  0  0  0  0  0  0  0  0  0  0
  126.8880  133.1120   61.1080 C   0  0  0  0  0  0  0  0  0  0  0  0
  128.2390  132.4210   61.2990 C   0  0  0  0  0  0  0  0  0  0  0  0
  128.4590  131.8030   62.3420 O   0  0  0  0  0  0  0  0  0  0  0  0
  129.1110  132.5540   60.2760 N   0  0  0  0  0  0  0  0  0  0  0  0
  130.3860  132.0130   60.1980 C   0  0  0  0  0  0  0  0  0  0  0  0
  131.2500  131.8370   61.1730 N   0  0  0  0  0  0  0  0  0  0  0  0
  132.3670  131.2880   60.7390 C   0  0  0  0  0  0  0  0  0  0  0  0
  132.4250  131.0060   59.3770 C   0  0  0  0  0  0  0  0  0  0  0  0
  130.9290  131.4900   58.6360 S   0  0  0  0  0  0  0  0  0  0  0  0
  126.2421  125.5922   61.5005 H   0  0  0  0  0  0  0  0  0  0  0  0
  126.3134  123.8444   59.7444 H   0  0  0  0  0  0  0  0  0  0  0  0
  128.6699  124.5030   56.6224 H   0  0  0  0  0  0  0  0  0  0  0  0
  128.2082  122.9523   57.4665 H   0  0  0  0  0  0  0  0  0  0  0  0
  127.6481  123.6717   54.5484 H   0  0  0  0  0  0  0  0  0  0  0  0
  128.8413  122.4692   55.1585 H   0  0  0  0  0  0  0  0  0  0  0  0
  125.3368  123.2381   54.8299 H   0  0  0  0  0  0  0  0  0  0  0  0
  124.8277  121.7189   55.6502 H   0  0  0  0  0  0  0  0  0  0  0  0
  124.6026  123.7444   57.1190 H   0  0  0  0  0  0  0  0  0  0  0  0
  125.7700  122.4971   57.7637 H   0  0  0  0  0  0  0  0  0  0  0  0
  126.8689  126.8945   56.7353 H   0  0  0  0  0  0  0  0  0  0  0  0
  126.7870  128.6397   58.4934 H   0  0  0  0  0  0  0  0  0  0  0  0
  127.1089  126.8720   62.6840 H   0  0  0  0  0  0  0  0  0  0  0  0
  129.3029  128.9349   64.5861 H   0  0  0  0  0  0  0  0  0  0  0  0
  129.9807  128.3906   66.9040 H   0  0  0  0  0  0  0  0  0  0  0  0
  126.8005  126.2009   69.2689 H   0  0  0  0  0  0  0  0  0  0  0  0
  128.4876  125.5106   69.1333 H   0  0  0  0  0  0  0  0  0  0  0  0
  127.3576  127.1025   71.4832 H   0  0  0  0  0  0  0  0  0  0  0  0
  127.7188  125.3390   71.4409 H   0  0  0  0  0  0  0  0  0  0  0  0
  129.1375  128.6427   71.3788 H   0  0  0  0  0  0  0  0  0  0  0  0
  130.8240  128.0259   71.2475 H   0  0  0  0  0  0  0  0  0  0  0  0
  129.9346  128.9341   69.0781 H   0  0  0  0  0  0  0  0  0  0  0  0
  130.3810  127.1614   69.0142 H   0  0  0  0  0  0  0  0  0  0  0  0
  125.8779  127.4635   67.8813 H   0  0  0  0  0  0  0  0  0  0  0  0
  125.2040  128.0140   65.5641 H   0  0  0  0  0  0  0  0  0  0  0  0
  126.6677  133.1695   60.0318 H   0  0  0  0  0  0  0  0  0  0  0  0
  126.9534  134.1148   61.5552 H   0  0  0  0  0  0  0  0  0  0  0  0
  128.8070  133.0790   59.4680 H   0  0  0  0  0  0  0  0  0  0  0  0
  133.2059  131.0653   61.4148 H   0  0  0  0  0  0  0  0  0  0  0  0
  133.2791  130.5507   58.8544 H   0  0  0  0  0  0  0  0  0  0  0  0
  1  2  3  0
  2  3  1  0
  3  4  2  0
  4  5  1  0
  5  6  2  0
  6  7  1  0
  7  8  2  0
  8  9  1  0
  9 10  1  0
 10 11  1  0
 11 12  1  0
 12 13  1  0
 13 14  1  0
  8 15  1  0
 15 16  2  0
  4 17  1  0
 17 18  2  0
 18 19  1  0
 19 20  2  0
 20 21  1  0
 21 22  2  0
 22 23  1  0
 23 24  1  0
 24 25  1  0
 25 26  1  0
 26 27  1  0
 27 28  1  0
 22 29  1  0
 29 30  2  0
 18 31  1  0
 31 32  2  0
 32 33  1  0
 33 34  1  0
 34 35  1  0
 35 36  2  0
 35 37  1  0
 37 38  1  0
 38 39  2  0
 39 40  1  0
 40 41  2  0
 41 42  1  0
 32  3  1  0
 42 38  1  0
 16  5  1  0
 30 19  1  0
 14  9  1  0
 28 23  1  0
  6 43  1  0
  7 44  1  0
 10 45  1  0
 10 46  1  0
 11 47  1  0
 11 48  1  0
 13 49  1  0
 13 50  1  0
 14 51  1  0
 14 52  1  0
 15 53  1  0
 16 54  1  0
 17 55  1  0
 20 56  1  0
 21 57  1  0
 24 58  1  0
 24 59  1  0
 25 60  1  0
 25 61  1  0
 27 62  1  0
 27 63  1  0
 28 64  1  0
 28 65  1  0
 29 66  1  0
 30 67  1  0
 34 68  1  0
 34 69  1  0
 37 70  1  0
 40 71  1  0
 41 72  1  0
M  END
>  <Binding energies>  (1) 
[-8.92]

>  <Ligand effiencies>  (1) 
[-0.20744186046511628]

>  <Interactions>  (1) 
["V-A:ALA:541:CB:4892, V-A:ASP:366:CG:3213, V-B:MET:535:CE:9807, V-B:LEU:475:CD2:9231, V-A:PRO:540:CA:4883, V-B:TYR:539:CE2:9848, V-A:GLU:543:CD:4908, V-B:TYR:539:CZ:9849, H-A:ALA:541:N:4891, H-B:TYR:484:OH:9320, V-A:GLU:543:CG:4907, V-B:ARG:545:CZ:9898, V-B:TYR:539:CD1:9845, V-B:TYR:539:CG:9844, V-B:TYR:539:CE1:9847, V-B:ASP:366:CG:8185, H-B:TYR:539:N:9842, V-A:PRO:540:C:4881, V-B:GLU:543:CD:9880, V-B:ILE:538:CA:9832, V-B:ILE:538:CD1:9837, V-A:HIS:456:CD2:4068, V-A:PRO:540:CB:4885, V-B:ILE:538:CG2:9835, V-B:ARG:545:CG:9894, V-B:HIS:456:CE1:9042, H-A:TYR:539:O:4868, V-B:ILE:538:CB:9834, V-A:GLU:543:CB:4906, V-A:HIS:456:CE1:4070, V-B:GLU:543:CB:9878, V-B:HIS:456:CD2:9040, V-B:GLY:544:C:9884, V-B:GLU:543:C:9874"]

$$$$
2c_Grossjean_2025
     RDKit          3D

 40 41  0  0  0  0  0  0  0  0999 V2000
  132.2090  132.6050   55.3910 C   0  0  0  0  0  0  0  0  0  0  0  0
  130.8740  133.0040   55.0980 O   0  0  0  0  0  0  0  0  0  0  0  0
  129.8550  132.6240   55.9490 C   0  0  0  0  0  0  0  0  0  0  0  0
  128.6610  132.2240   55.3510 C   0  0  0  0  0  0  0  0  0  0  0  0
  127.5760  131.8240   56.1260 C   0  0  0  0  0  0  0  0  0  0  0  0
  127.6750  131.8310   57.5250 C   0  0  0  0  0  0  0  0  0  0  0  0
  126.6410  131.4270   58.3890 N   0  0  0  0  0  0  0  0  0  0  0  0
  125.4070  130.9760   58.0740 C   0  0  0  0  0  0  0  0  0  0  0  0
  124.9610  130.8970   56.9280 O   0  0  0  0  0  0  0  0  0  0  0  0
  124.5350  130.5870   59.2770 C   0  0  0  0  0  0  0  0  0  0  0  0
  124.2070  131.9260   60.4760 S   0  0  0  0  0  0  0  0  0  0  0  0
  125.7220  132.8200   60.7980 C   0  0  0  0  0  0  0  0  0  0  0  0
  126.7780  132.0640   61.1950 N   0  0  0  0  0  0  0  0  0  0  0  0
  127.9530  132.6730   61.4650 C   0  0  0  0  0  0  0  0  0  0  0  0
  129.0770  131.7630   61.9180 C   0  0  0  0  0  0  0  0  0  0  0  0
  128.1300  134.0490   61.3430 C   0  0  0  0  0  0  0  0  0  0  0  0
  127.0570  134.8490   60.9270 C   0  0  0  0  0  0  0  0  0  0  0  0
  127.2700  136.3700   60.7960 C   0  0  0  0  0  0  0  0  0  0  0  0
  128.5540  136.6700   60.9970 F   0  0  0  0  0  0  0  0  0  0  0  0
  126.9150  136.7790   59.5770 F   0  0  0  0  0  0  0  0  0  0  0  0
  126.5510  137.0690   61.6790 F   0  0  0  0  0  0  0  0  0  0  0  0
  125.8160  134.2240   60.6460 C   0  0  0  0  0  0  0  0  0  0  0  0
  124.6580  135.0110   60.2090 C   0  0  0  0  0  0  0  0  0  0  0  0
  123.7450  135.6330   59.8640 N   0  0  0  0  0  0  0  0  0  0  0  0
  128.8730  132.2140   58.1290 C   0  0  0  0  0  0  0  0  0  0  0  0
  129.9560  132.6130   57.3500 C   0  0  0  0  0  0  0  0  0  0  0  0
  132.3483  132.5634   56.4813 H   0  0  0  0  0  0  0  0  0  0  0  0
  132.3978  131.6112   54.9590 H   0  0  0  0  0  0  0  0  0  0  0  0
  132.9122  133.3322   54.9590 H   0  0  0  0  0  0  0  0  0  0  0  0
  128.5752  132.2244   54.2544 H   0  0  0  0  0  0  0  0  0  0  0  0
  126.6420  131.5028   55.6417 H   0  0  0  0  0  0  0  0  0  0  0  0
  126.8380  131.5540   59.3710 H   0  0  0  0  0  0  0  0  0  0  0  0
  123.5675  130.2311   58.8933 H   0  0  0  0  0  0  0  0  0  0  0  0
  125.1026  129.8216   59.8266 H   0  0  0  0  0  0  0  0  0  0  0  0
  129.1080  131.7379   63.0173 H   0  0  0  0  0  0  0  0  0  0  0  0
  128.9043  130.7472   61.5328 H   0  0  0  0  0  0  0  0  0  0  0  0
  130.0346  132.1433   61.5328 H   0  0  0  0  0  0  0  0  0  0  0  0
  129.1048  134.5046   61.5715 H   0  0  0  0  0  0  0  0  0  0  0  0
  128.9623  132.2007   59.2253 H   0  0  0  0  0  0  0  0  0  0  0  0
  130.8947  132.9209   57.8338 H   0  0  0  0  0  0  0  0  0  0  0  0
  1  2  1  0
  2  3  1  0
  3  4  2  0
  4  5  1  0
  5  6  2  0
  6  7  1  0
  7  8  1  0
  8  9  2  0
  8 10  1  0
 10 11  1  0
 11 12  1  0
 12 13  2  0
 13 14  1  0
 14 15  1  0
 14 16  2  0
 16 17  1  0
 17 18  1  0
 18 19  1  0
 18 20  1  0
 18 21  1  0
 17 22  2  0
 22 23  1  0
 23 24  3  0
  6 25  1  0
 25 26  2  0
 26  3  1  0
 22 12  1  0
  1 27  1  0
  1 28  1  0
  1 29  1  0
  4 30  1  0
  5 31  1  0
  7 32  1  0
 10 33  1  0
 10 34  1  0
 15 35  1  0
 15 36  1  0
 15 37  1  0
 16 38  1  0
 25 39  1  0
 26 40  1  0
M  END
>  <Binding energies>  (1) 
[-6.42]

>  <Ligand effiencies>  (1) 
[-0.23777777777777778]

>  <Interactions>  (1) 
["V-A:TYR:539:CZ:4877, V-A:ALA:541:CB:4892, V-B:ILE:369:CG2:8209, V-B:LEU:475:CD2:9231, V-A:PRO:540:CA:4883, V-A:TYR:539:CE1:4875, H-A:TYR:539:OH:4878, V-B:ASP:366:CB:8184, V-B:ASP:366:CA:8182, V-A:TYR:539:CD1:4873, V-A:TYR:539:C:4867, V-A:PRO:540:C:4881, V-A:TYR:539:CE2:4876, V-A:PRO:540:CD:4887, V-A:TYR:531:CE2:4793, V-A:PRO:540:CB:4885, V-A:LEU:363:CD1:3189, V-A:TYR:539:CD2:4874, V-A:ILE:538:CB:4862, H-A:TYR:539:N:4870, V-A:PRO:540:N:4884, V-A:TYR:539:CG:4872, V-A:ILE:538:CG2:4863, V-B:SER:385:CA:8379, V-A:ALA:541:CA:4890, V-A:TYR:539:CB:4871, V-B:PRO:482:CB:9298, V-B:PRO:482:CG:9299, V-A:TYR:539:CA:4869, H-B:SER:385:OG:8382, V-B:LEU:475:CD1:9230, V-B:LEU:475:CG:9229"]

$$$$
2d_Ghoteimi_2023
     RDKit          3D

 68 72  0  0  0  0  0  0  0  0999 V2000
  128.5850  132.3820   59.8070 C   0  0  0  0  0  0  0  0  0  0  0  0
  127.5240  133.3130   59.9560 O   0  0  0  0  0  0  0  0  0  0  0  0
  127.4630  134.1160   61.0380 C   0  0  0  0  0  0  0  0  0  0  0  0
  127.6230  135.3400   61.0320 O   0  0  0  0  0  0  0  0  0  0  0  0
  127.1570  133.3140   62.3120 C   0  0  0  0  0  0  0  0  0  0  0  0
  125.6340  132.3270   62.1210 S   0  0  0  0  0  0  0  0  0  0  0  0
  126.0680  130.6020   62.2190 C   0  0  0  0  0  0  0  0  0  0  0  0
  126.4250  130.2100   63.4660 N   0  0  0  0  0  0  0  0  0  0  0  0
  126.7880  128.9210   63.6860 C   0  0  0  0  0  0  0  0  0  0  0  0
  127.1870  128.5680   65.0830 C   0  0  0  0  0  0  0  0  0  0  0  0
  126.2410  128.0800   65.9920 C   0  0  0  0  0  0  0  0  0  0  0  0
  126.6050  127.7490   67.2940 C   0  0  0  0  0  0  0  0  0  0  0  0
  127.9320  127.8830   67.7320 C   0  0  0  0  0  0  0  0  0  0  0  0
  128.3110  127.5720   69.0430 N   0  0  0  0  0  0  0  0  0  0  0  0
  127.8250  126.3520   69.7180 C   0  0  0  0  0  0  0  0  0  0  0  0
  128.0350  126.3670   71.2460 C   0  0  0  0  0  0  0  0  0  0  0  0
  129.4030  126.5980   71.5440 O   0  0  0  0  0  0  0  0  0  0  0  0
  129.8440  127.8450   71.0340 C   0  0  0  0  0  0  0  0  0  0  0  0
  129.6820  127.8780   69.5000 C   0  0  0  0  0  0  0  0  0  0  0  0
  128.8730  128.3850   66.8220 C   0  0  0  0  0  0  0  0  0  0  0  0
  128.5090  128.7180   65.5210 C   0  0  0  0  0  0  0  0  0  0  0  0
  126.7950  127.9870   62.6470 C   0  0  0  0  0  0  0  0  0  0  0  0
  126.3980  128.3570   61.3570 C   0  0  0  0  0  0  0  0  0  0  0  0
  126.4040  127.2990   60.3030 C   0  0  0  0  0  0  0  0  0  0  0  0
  126.3870  125.9500   60.6610 C   0  0  0  0  0  0  0  0  0  0  0  0
  126.3790  124.9570   59.6870 C   0  0  0  0  0  0  0  0  0  0  0  0
  126.3920  125.2850   58.3220 C   0  0  0  0  0  0  0  0  0  0  0  0
  126.3720  124.3050   57.3260 N   0  0  0  0  0  0  0  0  0  0  0  0
  125.2630  123.3370   57.2210 C   0  0  0  0  0  0  0  0  0  0  0  0
  125.2290  122.5820   55.8750 C   0  0  0  0  0  0  0  0  0  0  0  0
  126.4780  121.9490   55.6430 O   0  0  0  0  0  0  0  0  0  0  0  0
  127.5410  122.8880   55.5960 C   0  0  0  0  0  0  0  0  0  0  0  0
  127.6350  123.6480   56.9360 C   0  0  0  0  0  0  0  0  0  0  0  0
  126.3910  126.6420   57.9710 C   0  0  0  0  0  0  0  0  0  0  0  0
  126.3980  127.6360   58.9460 C   0  0  0  0  0  0  0  0  0  0  0  0
  126.0160  129.7030   61.1280 C   0  0  0  0  0  0  0  0  0  0  0  0
  125.5740  130.1350   59.7990 C   0  0  0  0  0  0  0  0  0  0  0  0
  125.2250  130.4720   58.7470 N   0  0  0  0  0  0  0  0  0  0  0  0
  128.9409  132.0697   60.7999 H   0  0  0  0  0  0  0  0  0  0  0  0
  128.2258  131.5023   59.2528 H   0  0  0  0  0  0  0  0  0  0  0  0
  129.4105  132.8525   59.2528 H   0  0  0  0  0  0  0  0  0  0  0  0
  127.9989  132.6377   62.5211 H   0  0  0  0  0  0  0  0  0  0  0  0
  127.0119  134.0210   63.1421 H   0  0  0  0  0  0  0  0  0  0  0  0
  125.1956  127.9564   65.6730 H   0  0  0  0  0  0  0  0  0  0  0  0
  125.8402  127.3763   67.9913 H   0  0  0  0  0  0  0  0  0  0  0  0
  126.7488  126.2479   69.5158 H   0  0  0  0  0  0  0  0  0  0  0  0
  128.4087  125.5087   69.3202 H   0  0  0  0  0  0  0  0  0  0  0  0
  127.4249  127.1674   71.6900 H   0  0  0  0  0  0  0  0  0  0  0  0
  127.7332  125.3945   71.6623 H   0  0  0  0  0  0  0  0  0  0  0  0
  129.2455  128.6528   71.4805 H   0  0  0  0  0  0  0  0  0  0  0  0
  130.9057  127.9820   71.2868 H   0  0  0  0  0  0  0  0  0  0  0  0
  129.9511  128.8832   69.1435 H   0  0  0  0  0  0  0  0  0  0  0  0
  130.3403  127.0982   69.0894 H   0  0  0  0  0  0  0  0  0  0  0  0
  129.9170  128.5179   67.1420 H   0  0  0  0  0  0  0  0  0  0  0  0
  129.2699  129.1044   64.8269 H   0  0  0  0  0  0  0  0  0  0  0  0
  127.1149  126.9532   62.8443 H   0  0  0  0  0  0  0  0  0  0  0  0
  126.3799  125.6692   61.7245 H   0  0  0  0  0  0  0  0  0  0  0  0
  126.3623  123.8998   59.9905 H   0  0  0  0  0  0  0  0  0  0  0  0
  125.3665  122.5999   58.0310 H   0  0  0  0  0  0  0  0  0  0  0  0
  124.3264  123.9093   57.2943 H   0  0  0  0  0  0  0  0  0  0  0  0
  124.4347  121.8215   55.9036 H   0  0  0  0  0  0  0  0  0  0  0  0
  125.0303  123.2979   55.0638 H   0  0  0  0  0  0  0  0  0  0  0  0
  128.4870  122.3581   55.4109 H   0  0  0  0  0  0  0  0  0  0  0  0
  127.3511  123.6075   54.7859 H   0  0  0  0  0  0  0  0  0  0  0  0
  127.9140  122.9329   57.7239 H   0  0  0  0  0  0  0  0  0  0  0  0
  128.3877  124.4400   56.8086 H   0  0  0  0  0  0  0  0  0  0  0  0
  126.3846  126.9262   56.9084 H   0  0  0  0  0  0  0  0  0  0  0  0
  126.3988  128.6944   58.6464 H   0  0  0  0  0  0  0  0  0  0  0  0
  1  2  1  0
  2  3  1  0
  3  4  2  0
  3  5  1  0
  5  6  1  0
  6  7  1  0
  7  8  2  0
  8  9  1  0
  9 10  1  0
 10 11  2  0
 11 12  1  0
 12 13  2  0
 13 14  1  0
 14 15  1  0
 15 16  1  0
 16 17  1  0
 17 18  1  0
 18 19  1  0
 13 20  1  0
 20 21  2  0
  9 22  2  0
 22 23  1  0
 23 24  1  0
 24 25  2  0
 25 26  1  0
 26 27  2  0
 27 28  1  0
 28 29  1  0
 29 30  1  0
 30 31  1  0
 31 32  1  0
 32 33  1  0
 27 34  1  0
 34 35  2  0
 23 36  2  0
 36 37  1  0
 37 38  3  0
 36  7  1  0
 21 10  1  0
 35 24  1  0
 19 14  1  0
 33 28  1  0
  1 39  1  0
  1 40  1  0
  1 41  1  0
  5 42  1  0
  5 43  1  0
 11 44  1  0
 12 45  1  0
 15 46  1  0
 15 47  1  0
 16 48  1  0
 16 49  1  0
 18 50  1  0
 18 51  1  0
 19 52  1  0
 19 53  1  0
 20 54  1  0
 21 55  1  0
 22 56  1  0
 25 57  1  0
 26 58  1  0
 29 59  1  0
 29 60  1  0
 30 61  1  0
 30 62  1  0
 32 63  1  0
 32 64  1  0
 33 65  1  0
 33 66  1  0
 34 67  1  0
 35 68  1  0
M  END
>  <Binding energies>  (1) 
[-7.09]

>  <Ligand effiencies>  (1) 
[-0.18657894736842104]

>  <Interactions>  (1) 
["V-A:ALA:541:CB:4892, V-B:MET:535:CE:9807, V-B:LEU:475:CD2:9231, V-A:PRO:540:CA:4883, V-A:GLU:543:CD:4908, V-B:TYR:539:CZ:9849, H-B:TYR:484:OH:9320, V-A:GLU:543:CG:4907, V-B:ARG:545:CZ:9898, V-B:TYR:539:CD1:9845, V-B:TYR:539:CG:9844, V-B:TYR:539:CE1:9847, V-B:ASP:366:CG:8185, H-B:TYR:539:N:9842, V-B:PRO:540:CB:9857, V-B:LEU:363:CD1:8161, V-B:TYR:531:CE2:9765, V-B:GLU:543:CD:9880, V-B:ILE:538:CA:9832, V-B:ILE:538:CD1:9837, V-A:HIS:456:CD2:4068, V-B:PRO:540:CD:9859, V-B:ILE:538:CG2:9835, V-B:ARG:545:CG:9894, V-B:HIS:456:CE1:9042, V-A:GLU:543:CB:4906, V-A:HIS:456:CE1:4070, V-B:GLU:543:CB:9878, H-B:LYS:547:NZ:9923, V-B:HIS:456:CD2:9040, V-B:GLY:544:C:9884, V-B:GLU:543:C:9874"]

$$$$
2d_Grossjean_2025
     RDKit          3D

 36 37  0  0  0  0  0  0  0  0999 V2000
  133.1920  125.1510   64.2290 C   0  0  0  0  0  0  0  0  0  0  0  0
  132.5010  124.9880   62.8890 C   0  0  0  0  0  0  0  0  0  0  0  0
  133.2220  124.7350   61.7230 C   0  0  0  0  0  0  0  0  0  0  0  0
  132.5370  124.5870   60.5080 C   0  0  0  0  0  0  0  0  0  0  0  0
  133.3500  124.2970   59.2310 C   0  0  0  0  0  0  0  0  0  0  0  0
  133.0840  123.0670   58.7910 F   0  0  0  0  0  0  0  0  0  0  0  0
  133.0320  125.1750   58.2780 F   0  0  0  0  0  0  0  0  0  0  0  0
  134.6670  124.3780   59.4280 F   0  0  0  0  0  0  0  0  0  0  0  0
  131.1240  124.7080   60.5070 C   0  0  0  0  0  0  0  0  0  0  0  0
  130.3590  124.5150   59.2720 C   0  0  0  0  0  0  0  0  0  0  0  0
  129.7550  124.3620   58.2970 N   0  0  0  0  0  0  0  0  0  0  0  0
  130.4790  124.9900   61.7340 C   0  0  0  0  0  0  0  0  0  0  0  0
  128.7180  125.2050   61.9070 S   0  0  0  0  0  0  0  0  0  0  0  0
  127.9470  123.5680   62.1260 C   0  0  0  0  0  0  0  0  0  0  0  0
  126.8640  123.2710   61.0840 C   0  0  0  0  0  0  0  0  0  0  0  0
  125.7590  122.8800   61.4640 O   0  0  0  0  0  0  0  0  0  0  0  0
  127.2310  123.4400   59.7970 N   0  0  0  0  0  0  0  0  0  0  0  0
  126.4730  123.2560   58.6250 C   0  0  0  0  0  0  0  0  0  0  0  0
  127.1640  122.7510   57.5210 C   0  0  0  0  0  0  0  0  0  0  0  0
  126.5020  122.5400   56.3150 C   0  0  0  0  0  0  0  0  0  0  0  0
  125.1460  122.8440   56.2100 C   0  0  0  0  0  0  0  0  0  0  0  0
  124.4500  123.3600   57.2990 C   0  0  0  0  0  0  0  0  0  0  0  0
  125.1090  123.5710   58.5070 C   0  0  0  0  0  0  0  0  0  0  0  0
  131.1540  125.1090   62.9030 N   0  0  0  0  0  0  0  0  0  0  0  0
  132.4671  124.9800   65.0385 H   0  0  0  0  0  0  0  0  0  0  0  0
  134.0112  124.4215   64.3102 H   0  0  0  0  0  0  0  0  0  0  0  0
  133.5988  126.1698   64.3102 H   0  0  0  0  0  0  0  0  0  0  0  0
  134.3184  124.6522   61.7555 H   0  0  0  0  0  0  0  0  0  0  0  0
  128.7294  122.7989   62.0471 H   0  0  0  0  0  0  0  0  0  0  0  0
  127.4630  123.5623   63.1138 H   0  0  0  0  0  0  0  0  0  0  0  0
  128.1990  123.6790   59.6350 H   0  0  0  0  0  0  0  0  0  0  0  0
  128.2360  122.5191   57.6051 H   0  0  0  0  0  0  0  0  0  0  0  0
  127.0464  122.1353   55.4491 H   0  0  0  0  0  0  0  0  0  0  0  0
  124.6213  122.6746   55.2581 H   0  0  0  0  0  0  0  0  0  0  0  0
  123.3808  123.6008   57.2054 H   0  0  0  0  0  0  0  0  0  0  0  0
  124.5625  123.9837   59.3678 H   0  0  0  0  0  0  0  0  0  0  0  0
  1  2  1  0
  2  3  2  0
  3  4  1  0
  4  5  1  0
  5  6  1  0
  5  7  1  0
  5  8  1  0
  4  9  2  0
  9 10  1  0
 10 11  3  0
  9 12  1  0
 12 13  1  0
 13 14  1  0
 14 15  1  0
 15 16  2  0
 15 17  1  0
 17 18  1  0
 18 19  2  0
 19 20  1  0
 20 21  2  0
 21 22  1  0
 22 23  2  0
 12 24  2  0
 24  2  1  0
 23 18  1  0
  1 25  1  0
  1 26  1  0
  1 27  1  0
  3 28  1  0
 14 29  1  0
 14 30  1  0
 17 31  1  0
 19 32  1  0
 20 33  1  0
 21 34  1  0
 22 35  1  0
 23 36  1  0
M  END
>  <Binding energies>  (1) 
[-6.39]

>  <Ligand effiencies>  (1) 
[-0.2556]

>  <Interactions>  (1) 
["V-A:ASP:366:CA:3210, V-A:ILE:369:CB:3236, V-A:ASP:366:CG:3213, V-B:TYR:539:CE2:9848, V-A:ASP:366:CB:3212, V-B:TYR:539:CZ:9849, V-A:ASP:366:C:3208, V-A:ILE:369:CG2:3237, V-B:TYR:539:CD2:9846, V-A:ARG:545:CZ:4926, V-A:TYR:484:CZ:4347, H-B:TYR:539:OH:9850, V-B:TYR:539:C:9839, V-B:PRO:540:CB:9857, V-B:PRO:540:CA:9855, H-B:ALA:541:N:9863, V-B:PRO:540:N:9856, V-A:ILE:369:CD1:3239, V-B:LEU:363:CD1:8161, V-B:TYR:531:CZ:9766, V-B:TYR:531:CE2:9765, V-B:GLU:543:CD:9880, V-B:ILE:538:CA:9832, V-B:ILE:538:CD1:9837, V-B:GLU:543:CG:9879, V-B:PRO:540:CD:9859, H-A:TYR:484:OH:4348, V-A:TYR:484:CE2:4346, V-A:ILE:369:CG1:3238"]

$$$$
2e_Grossjean_2025
     RDKit          3D

 38 39  0  0  0  0  0  0  0  0999 V2000
  123.2470  129.5960   67.0170 C   0  0  0  0  0  0  0  0  0  0  0  0
  124.3480  129.4120   65.9900 C   0  0  0  0  0  0  0  0  0  0  0  0
  125.4910  128.6590   66.2700 C   0  0  0  0  0  0  0  0  0  0  0  0
  126.4570  128.5240   65.2720 C   0  0  0  0  0  0  0  0  0  0  0  0
  126.2600  129.1380   64.0330 C   0  0  0  0  0  0  0  0  0  0  0  0
  125.0960  129.8860   63.8230 C   0  0  0  0  0  0  0  0  0  0  0  0
  124.9290  130.4460   62.5450 N   0  0  0  0  0  0  0  0  0  0  0  0
  123.8110  130.4700   61.7850 C   0  0  0  0  0  0  0  0  0  0  0  0
  122.7070  130.0520   62.1390 O   0  0  0  0  0  0  0  0  0  0  0  0
  123.9800  131.0250   60.3670 C   0  0  0  0  0  0  0  0  0  0  0  0
  123.6690  132.8180   60.2940 S   0  0  0  0  0  0  0  0  0  0  0  0
  125.2340  133.5870   60.6490 C   0  0  0  0  0  0  0  0  0  0  0  0
  126.1120  132.7990   61.3170 N   0  0  0  0  0  0  0  0  0  0  0  0
  127.3100  133.3200   61.6670 C   0  0  0  0  0  0  0  0  0  0  0  0
  128.2430  132.3850   62.4110 C   0  0  0  0  0  0  0  0  0  0  0  0
  127.6740  134.6330   61.3730 C   0  0  0  0  0  0  0  0  0  0  0  0
  126.7730  135.4640   60.6900 C   0  0  0  0  0  0  0  0  0  0  0  0
  127.1820  136.9190   60.3930 C   0  0  0  0  0  0  0  0  0  0  0  0
  126.7880  137.2630   59.1660 F   0  0  0  0  0  0  0  0  0  0  0  0
  126.6140  137.7410   61.2760 F   0  0  0  0  0  0  0  0  0  0  0  0
  128.5020  137.1070   60.4580 F   0  0  0  0  0  0  0  0  0  0  0  0
  125.5160  134.9310   60.3130 C   0  0  0  0  0  0  0  0  0  0  0  0
  124.5190  135.7560   59.6230 C   0  0  0  0  0  0  0  0  0  0  0  0
  123.7320  136.4090   59.0800 N   0  0  0  0  0  0  0  0  0  0  0  0
  124.1430  130.0160   64.7910 N   0  0  0  0  0  0  0  0  0  0  0  0
  123.6734  129.5247   68.0285 H   0  0  0  0  0  0  0  0  0  0  0  0
  122.7826  130.5842   66.8837 H   0  0  0  0  0  0  0  0  0  0  0  0
  122.4865  128.8125   66.8837 H   0  0  0  0  0  0  0  0  0  0  0  0
  125.6262  128.1842   67.2530 H   0  0  0  0  0  0  0  0  0  0  0  0
  127.3684  127.9374   65.4600 H   0  0  0  0  0  0  0  0  0  0  0  0
  127.0089  129.0351   63.2339 H   0  0  0  0  0  0  0  0  0  0  0  0
  125.7410  130.9170   62.1760 H   0  0  0  0  0  0  0  0  0  0  0  0
  125.0083  130.8290   60.0292 H   0  0  0  0  0  0  0  0  0  0  0  0
  123.2457  130.5263   59.7174 H   0  0  0  0  0  0  0  0  0  0  0  0
  128.1091  132.5191   63.4946 H   0  0  0  0  0  0  0  0  0  0  0  0
  128.0127  131.3443   62.1391 H   0  0  0  0  0  0  0  0  0  0  0  0
  129.2842  132.6131   62.1391 H   0  0  0  0  0  0  0  0  0  0  0  0
  128.6606  135.0150   61.6743 H   0  0  0  0  0  0  0  0  0  0  0  0
  1  2  1  0
  2  3  2  0
  3  4  1  0
  4  5  2  0
  5  6  1  0
  6  7  1  0
  7  8  1  0
  8  9  2  0
  8 10  1  0
 10 11  1  0
 11 12  1  0
 12 13  2  0
 13 14  1  0
 14 15  1  0
 14 16  2  0
 16 17  1  0
 17 18  1  0
 18 19  1  0
 18 20  1  0
 18 21  1  0
 17 22  2  0
 22 23  1  0
 23 24  3  0
  6 25  2  0
 25  2  1  0
 22 12  1  0
  1 26  1  0
  1 27  1  0
  1 28  1  0
  3 29  1  0
  4 30  1  0
  5 31  1  0
  7 32  1  0
 10 33  1  0
 10 34  1  0
 15 35  1  0
 15 36  1  0
 15 37  1  0
 16 38  1  0
M  END
>  <Binding energies>  (1) 
[-7.38]

>  <Ligand effiencies>  (1) 
[-0.28384615384615386]

>  <Interactions>  (1) 
["V-A:ALA:541:CB:4892, V-B:ILE:369:CG2:8209, V-B:LEU:475:CD2:9231, V-B:ILE:369:CD1:8211, H-B:GLY:454:N:9022, H-B:TYR:484:OH:9320, V-A:TYR:539:CE1:4875, V-B:ARG:545:CZ:9898, V-B:ASP:366:CG:8185, V-A:TYR:539:CD1:4873, V-A:TYR:539:C:4867, V-A:PRO:540:C:4881, V-B:GLU:543:CD:9880, V-A:PRO:540:N:4884, V-A:TYR:539:CG:4872, V-B:GLY:454:CA:9021, V-B:SER:385:CB:8381, V-B:SER:385:CA:8379, V-B:ARG:545:CD:9895, V-B:ARG:545:CG:9894, V-B:TYR:484:CZ:9319, V-B:TYR:484:CE1:9317, V-B:HIS:456:CE1:9042, V-B:HIS:383:CD2:8364, V-B:GLY:453:C:9014, V-A:TYR:539:CB:4871, V-B:PRO:482:CB:9298, V-B:PRO:482:CG:9299, V-B:ILE:455:C:9024, H-B:ARG:545:NH1:9899, V-B:GLY:453:CA:9016, V-A:TYR:539:CA:4869, H-B:SER:385:OG:8382, V-B:LEU:475:CG:9229, V-B:ARG:545:CB:9893"]

$$$$
2f_Grossjean_2025
     RDKit          3D

 35 36  0  0  0  0  0  0  0  0999 V2000
  133.2000  123.2980   60.1450 C   0  0  0  0  0  0  0  0  0  0  0  0
  132.2460  122.1680   60.4810 C   0  0  0  0  0  0  0  0  0  0  0  0
  132.4230  120.8860   59.9650 C   0  0  0  0  0  0  0  0  0  0  0  0
  131.5080  119.8750   60.2990 C   0  0  0  0  0  0  0  0  0  0  0  0
  131.7140  118.4670   59.7090 C   0  0  0  0  0  0  0  0  0  0  0  0
  132.0430  117.6080   60.6760 F   0  0  0  0  0  0  0  0  0  0  0  0
  130.5910  118.0500   59.1240 F   0  0  0  0  0  0  0  0  0  0  0  0
  132.6840  118.4270   58.7920 F   0  0  0  0  0  0  0  0  0  0  0  0
  130.4290  120.1950   61.1620 C   0  0  0  0  0  0  0  0  0  0  0  0
  129.4170  119.1900   61.4940 C   0  0  0  0  0  0  0  0  0  0  0  0
  128.6170  118.3950   61.7570 N   0  0  0  0  0  0  0  0  0  0  0  0
  130.3440  121.5180   61.6590 C   0  0  0  0  0  0  0  0  0  0  0  0
  129.0660  122.0910   62.7600 S   0  0  0  0  0  0  0  0  0  0  0  0
  128.2820  123.5550   62.0030 C   0  0  0  0  0  0  0  0  0  0  0  0
  127.1330  123.2480   61.0310 C   0  0  0  0  0  0  0  0  0  0  0  0
  126.0190  122.9350   61.4540 O   0  0  0  0  0  0  0  0  0  0  0  0
  127.4660  123.3360   59.7250 N   0  0  0  0  0  0  0  0  0  0  0  0
  126.6680  123.1340   58.5830 C   0  0  0  0  0  0  0  0  0  0  0  0
  125.3320  123.5500   58.4360 C   0  0  0  0  0  0  0  0  0  0  0  0
  124.6540  123.2890   57.2440 C   0  0  0  0  0  0  0  0  0  0  0  0
  125.3320  122.6220   56.2230 C   0  0  0  0  0  0  0  0  0  0  0  0
  126.6220  122.2180   56.3360 N   0  0  0  0  0  0  0  0  0  0  0  0
  127.2680  122.4790   57.5010 C   0  0  0  0  0  0  0  0  0  0  0  0
  131.2250  122.4860   61.3080 N   0  0  0  0  0  0  0  0  0  0  0  0
  133.5789  123.7468   61.0751 H   0  0  0  0  0  0  0  0  0  0  0  0
  134.0428  122.9040   59.5581 H   0  0  0  0  0  0  0  0  0  0  0  0
  132.6703  124.0628   59.5581 H   0  0  0  0  0  0  0  0  0  0  0  0
  133.2727  120.6678   59.3014 H   0  0  0  0  0  0  0  0  0  0  0  0
  127.8849  124.1857   62.8120 H   0  0  0  0  0  0  0  0  0  0  0  0
  129.0642  124.0484   61.4074 H   0  0  0  0  0  0  0  0  0  0  0  0
  128.4340  123.5460   59.5240 H   0  0  0  0  0  0  0  0  0  0  0  0
  124.8242  124.0783   59.2564 H   0  0  0  0  0  0  0  0  0  0  0  0
  123.6078  123.6024   57.1124 H   0  0  0  0  0  0  0  0  0  0  0  0
  124.7966  122.4146   55.2847 H   0  0  0  0  0  0  0  0  0  0  0  0
  128.3160  122.1597   57.5999 H   0  0  0  0  0  0  0  0  0  0  0  0
  1  2  1  0
  2  3  2  0
  3  4  1  0
  4  5  1  0
  5  6  1  0
  5  7  1  0
  5  8  1  0
  4  9  2  0
  9 10  1  0
 10 11  3  0
  9 12  1  0
 12 13  1  0
 13 14  1  0
 14 15  1  0
 15 16  2  0
 15 17  1  0
 17 18  1  0
 18 19  2  0
 19 20  1  0
 20 21  2  0
 21 22  1  0
 22 23  2  0
 12 24  2  0
 24  2  1  0
 23 18  1  0
  1 25  1  0
  1 26  1  0
  1 27  1  0
  3 28  1  0
 14 29  1  0
 14 30  1  0
 17 31  1  0
 19 32  1  0
 20 33  1  0
 21 34  1  0
 23 35  1  0
M  END
>  <Binding energies>  (1) 
[-6.99]

>  <Ligand effiencies>  (1) 
[-0.2796]

>  <Interactions>  (1) 
["V-B:TYR:539:CE2:9848, V-A:ILE:369:CG2:3237, V-B:TYR:539:CD2:9846, V-A:LEU:475:CD2:4259, V-B:TYR:539:CG:9844, V-B:TYR:539:C:9839, H-B:TYR:539:N:9842, V-B:PRO:540:CB:9857, V-B:PRO:540:CA:9855, H-B:ALA:541:N:9863, V-B:PRO:540:N:9856, V-A:ILE:369:CD1:3239, V-B:LEU:363:CD1:8161, V-B:TYR:531:CZ:9766, V-B:TYR:531:CE2:9765, V-B:GLU:543:CD:9880, V-B:ILE:538:CD1:9837, V-B:PRO:540:C:9853, V-B:TYR:539:CA:9841, V-B:PRO:540:CD:9859, V-B:TYR:539:CB:9843, V-A:LEU:475:CD1:4258, V-B:ALA:541:CB:9864, V-B:ILE:538:CG2:9835, H-A:TYR:484:OH:4348, V-A:SER:385:CB:3409, V-A:SER:385:CA:3407, V-A:LEU:373:CD1:3280, V-A:PRO:482:CB:4326, V-A:LEU:475:CG:4257"]

$$$$
2g_Grossjean_2025
     RDKit          3D

 39 40  0  0  0  0  0  0  0  0999 V2000
  127.4870  122.5930   55.2830 C   0  0  0  0  0  0  0  0  0  0  0  0
  126.9910  122.9290   56.6760 C   0  0  0  0  0  0  0  0  0  0  0  0
  125.6340  123.0810   56.9500 C   0  0  0  0  0  0  0  0  0  0  0  0
  125.2250  123.3990   58.2540 C   0  0  0  0  0  0  0  0  0  0  0  0
  123.7200  123.5720   58.5360 C   0  0  0  0  0  0  0  0  0  0  0  0
  123.0330  122.5470   58.0290 F   0  0  0  0  0  0  0  0  0  0  0  0
  123.5100  123.6230   59.8520 F   0  0  0  0  0  0  0  0  0  0  0  0
  123.2190  124.6890   58.0040 F   0  0  0  0  0  0  0  0  0  0  0  0
  126.2150  123.5480   59.2580 C   0  0  0  0  0  0  0  0  0  0  0  0
  125.8470  123.9360   60.6230 C   0  0  0  0  0  0  0  0  0  0  0  0
  125.5550  124.2420   61.7000 N   0  0  0  0  0  0  0  0  0  0  0  0
  127.5690  123.3450   58.8930 C   0  0  0  0  0  0  0  0  0  0  0  0
  128.9330  123.4680   60.0300 S   0  0  0  0  0  0  0  0  0  0  0  0
  128.7310  122.1460   61.2730 C   0  0  0  0  0  0  0  0  0  0  0  0
  129.9840  121.2910   61.5090 C   0  0  0  0  0  0  0  0  0  0  0  0
  130.7060  121.4670   62.4920 O   0  0  0  0  0  0  0  0  0  0  0  0
  130.2310  120.3560   60.5730 N   0  0  0  0  0  0  0  0  0  0  0  0
  131.3550  119.4190   60.5830 C   0  0  0  0  0  0  0  0  0  0  0  0
  131.0940  118.1160   59.8350 C   0  0  0  0  0  0  0  0  0  0  0  0
  130.0060  117.3140   60.1930 C   0  0  0  0  0  0  0  0  0  0  0  0
  129.7440  116.1420   59.4870 C   0  0  0  0  0  0  0  0  0  0  0  0
  130.5630  115.7820   58.4200 C   0  0  0  0  0  0  0  0  0  0  0  0
  131.6410  116.5840   58.0500 C   0  0  0  0  0  0  0  0  0  0  0  0
  131.9040  117.7550   58.7550 C   0  0  0  0  0  0  0  0  0  0  0  0
  127.9470  123.0610   57.6230 N   0  0  0  0  0  0  0  0  0  0  0  0
  128.3957  121.9774   55.3559 H   0  0  0  0  0  0  0  0  0  0  0  0
  126.7088  122.0353   54.7413 H   0  0  0  0  0  0  0  0  0  0  0  0
  127.7163  123.5225   54.7413 H   0  0  0  0  0  0  0  0  0  0  0  0
  124.8891  122.9528   56.1508 H   0  0  0  0  0  0  0  0  0  0  0  0
  128.4504  122.6137   62.2282 H   0  0  0  0  0  0  0  0  0  0  0  0
  127.9601  121.4662   60.8812 H   0  0  0  0  0  0  0  0  0  0  0  0
  129.5780  120.2570   59.8090 H   0  0  0  0  0  0  0  0  0  0  0  0
  132.2206  119.9147   60.1193 H   0  0  0  0  0  0  0  0  0  0  0  0
  131.5294  119.1483   61.6348 H   0  0  0  0  0  0  0  0  0  0  0  0
  129.3575  117.6082   61.0314 H   0  0  0  0  0  0  0  0  0  0  0  0
  128.8942  115.5040   59.7711 H   0  0  0  0  0  0  0  0  0  0  0  0
  130.3571  114.8556   57.8637 H   0  0  0  0  0  0  0  0  0  0  0  0
  132.2814  116.2928   57.2043 H   0  0  0  0  0  0  0  0  0  0  0  0
  132.7488  118.3958   58.4622 H   0  0  0  0  0  0  0  0  0  0  0  0
  1  2  1  0
  2  3  2  0
  3  4  1  0
  4  5  1  0
  5  6  1  0
  5  7  1  0
  5  8  1  0
  4  9  2  0
  9 10  1  0
 10 11  3  0
  9 12  1  0
 12 13  1  0
 13 14  1  0
 14 15  1  0
 15 16  2  0
 15 17  1  0
 17 18  1  0
 18 19  1  0
 19 20  2  0
 20 21  1  0
 21 22  2  0
 22 23  1  0
 23 24  2  0
 12 25  2  0
 25  2  1  0
 24 19  1  0
  1 26  1  0
  1 27  1  0
  1 28  1  0
  3 29  1  0
 14 30  1  0
 14 31  1  0
 17 32  1  0
 18 33  1  0
 18 34  1  0
 20 35  1  0
 21 36  1  0
 22 37  1  0
 23 38  1  0
 24 39  1  0
M  END
>  <Binding energies>  (1) 
[-8.4]

>  <Ligand effiencies>  (1) 
[-0.3230769230769231]

>  <Interactions>  (1) 
["V-B:MET:535:CE:9807, V-B:TYR:539:CE2:9848, V-B:TYR:539:CZ:9849, V-B:TYR:539:CD2:9846, V-A:LEU:475:CD2:4259, V-B:TYR:539:CD1:9845, V-B:TYR:539:CG:9844, V-B:TYR:539:CE1:9847, V-B:TYR:539:C:9839, V-B:ASP:366:CG:8185, V-B:PRO:540:CB:9857, V-B:PRO:540:CA:9855, V-B:ASP:366:CB:8184, V-B:PRO:540:N:9856, V-B:LEU:363:CD1:8161, V-B:TYR:531:CZ:9766, V-B:TYR:531:CE2:9765, V-B:ILE:538:CA:9832, V-B:PRO:540:CG:9858, V-B:PRO:540:CD:9859, V-B:TYR:539:CB:9843, V-B:ALA:541:CB:9864, H-A:TYR:484:OH:4348, H-B:ARG:545:NH2:9900, V-B:LEU:363:CA:8157, V-B:LEU:363:CB:8159, H-B:TYR:539:O:9840, V-A:SER:385:CB:3409, V-B:LEU:363:CG:8160, V-B:VAL:344:CG2:7974, V-B:VAL:344:CG1:7973, V-A:LEU:373:CD1:3280, V-A:PRO:482:CB:4326, V-A:HIS:383:CE1:3394, V-A:PRO:482:CG:4327, V-A:LEU:373:CD2:3281, V-B:ILE:343:CG2:7964, V-B:LEU:363:C:8155, V-B:ASN:362:C:8144, V-B:ILE:343:CB:7963, V-B:LEU:363:CD2:8162"]

$$$$
2h_Grossjean_2025
     RDKit          3D

 51 52  0  0  0  0  0  0  0  0999 V2000
  126.1340  132.5850   60.5310 C   0  0  0  0  0  0  0  0  0  0  0  0
  125.8790  131.6170   59.5190 O   0  0  0  0  0  0  0  0  0  0  0  0
  126.6840  131.5810   58.3950 C   0  0  0  0  0  0  0  0  0  0  0  0
  127.8600  132.3340   58.2490 C   0  0  0  0  0  0  0  0  0  0  0  0
  128.6240  132.2390   57.0890 C   0  0  0  0  0  0  0  0  0  0  0  0
  128.2340  131.3920   56.0500 C   0  0  0  0  0  0  0  0  0  0  0  0
  129.1000  131.2890   54.7960 C   0  0  0  0  0  0  0  0  0  0  0  0
  130.5330  131.2050   55.0780 N   0  0  0  0  0  0  0  0  0  0  0  0
  131.2930  132.2240   55.5180 C   0  0  0  0  0  0  0  0  0  0  0  0
  130.8690  133.3730   55.6540 O   0  0  0  0  0  0  0  0  0  0  0  0
  132.7470  131.8670   55.8570 C   0  0  0  0  0  0  0  0  0  0  0  0
  132.9980  131.1510   57.5160 S   0  0  0  0  0  0  0  0  0  0  0  0
  131.5990  130.0990   57.8390 C   0  0  0  0  0  0  0  0  0  0  0  0
  131.3570  129.1960   56.8570 N   0  0  0  0  0  0  0  0  0  0  0  0
  130.3050  128.3590   56.9920 C   0  0  0  0  0  0  0  0  0  0  0  0
  130.0900  127.3820   55.8520 C   0  0  0  0  0  0  0  0  0  0  0  0
  129.4620  128.3820   58.1010 C   0  0  0  0  0  0  0  0  0  0  0  0
  129.7090  129.2950   59.1370 C   0  0  0  0  0  0  0  0  0  0  0  0
  128.7710  129.3000   60.3600 C   0  0  0  0  0  0  0  0  0  0  0  0
  129.3460  128.6550   61.3760 F   0  0  0  0  0  0  0  0  0  0  0  0
  128.4790  130.5320   60.7830 F   0  0  0  0  0  0  0  0  0  0  0  0
  127.6210  128.6960   60.0590 F   0  0  0  0  0  0  0  0  0  0  0  0
  130.8140  130.1760   59.0140 C   0  0  0  0  0  0  0  0  0  0  0  0
  131.1490  131.1080   60.0940 C   0  0  0  0  0  0  0  0  0  0  0  0
  131.4140  131.8400   60.9500 N   0  0  0  0  0  0  0  0  0  0  0  0
  127.0490  130.6510   56.1730 C   0  0  0  0  0  0  0  0  0  0  0  0
  126.6560  129.8170   55.1530 O   0  0  0  0  0  0  0  0  0  0  0  0
  126.9600  128.4450   55.3670 C   0  0  0  0  0  0  0  0  0  0  0  0
  126.2890  130.7340   57.3520 C   0  0  0  0  0  0  0  0  0  0  0  0
  125.1370  129.9950   57.4820 O   0  0  0  0  0  0  0  0  0  0  0  0
  123.9430  130.7500   57.3320 C   0  0  0  0  0  0  0  0  0  0  0  0
  126.0119  132.1213   61.5210 H   0  0  0  0  0  0  0  0  0  0  0  0
  127.1621  132.9621   60.4270 H   0  0  0  0  0  0  0  0  0  0  0  0
  125.4251  133.4196   60.4270 H   0  0  0  0  0  0  0  0  0  0  0  0
  128.1808  133.0055   59.0590 H   0  0  0  0  0  0  0  0  0  0  0  0
  129.5425  132.8362   56.9903 H   0  0  0  0  0  0  0  0  0  0  0  0
  128.8016  130.3876   54.2406 H   0  0  0  0  0  0  0  0  0  0  0  0
  128.9391  132.2102   54.2168 H   0  0  0  0  0  0  0  0  0  0  0  0
  130.9440  130.2840   55.0230 H   0  0  0  0  0  0  0  0  0  0  0  0
  133.1017  131.1381   55.1135 H   0  0  0  0  0  0  0  0  0  0  0  0
  133.3075  132.8134   55.8425 H   0  0  0  0  0  0  0  0  0  0  0  0
  129.8705  126.3845   56.2604 H   0  0  0  0  0  0  0  0  0  0  0  0
  129.2446  127.7195   55.2344 H   0  0  0  0  0  0  0  0  0  0  0  0
  130.9989  127.3334   55.2344 H   0  0  0  0  0  0  0  0  0  0  0  0
  128.6095  127.6897   58.1637 H   0  0  0  0  0  0  0  0  0  0  0  0
  127.0046  128.2435   56.4475 H   0  0  0  0  0  0  0  0  0  0  0  0
  126.1784  127.8206   54.9096 H   0  0  0  0  0  0  0  0  0  0  0  0
  127.9322  128.2092   54.9096 H   0  0  0  0  0  0  0  0  0  0  0  0
  123.5423  131.0034   58.3246 H   0  0  0  0  0  0  0  0  0  0  0  0
  124.1611  131.6747   56.7776 H   0  0  0  0  0  0  0  0  0  0  0  0
  123.2011  130.1565   56.7776 H   0  0  0  0  0  0  0  0  0  0  0  0
  1  2  1  0
  2  3  1  0
  3  4  2  0
  4  5  1  0
  5  6  2  0
  6  7  1  0
  7  8  1  0
  8  9  1  0
  9 10  2  0
  9 11  1  0
 11 12  1  0
 12 13  1  0
 13 14  2  0
 14 15  1  0
 15 16  1  0
 15 17  2  0
 17 18  1  0
 18 19  1  0
 19 20  1  0
 19 21  1  0
 19 22  1  0
 18 23  2  0
 23 24  1  0
 24 25  3  0
  6 26  1  0
 26 27  1  0
 27 28  1  0
 26 29  2  0
 29 30  1  0
 30 31  1  0
 29  3  1  0
 23 13  1  0
  1 32  1  0
  1 33  1  0
  1 34  1  0
  4 35  1  0
  5 36  1  0
  7 37  1  0
  7 38  1  0
  8 39  1  0
 11 40  1  0
 11 41  1  0
 16 42  1  0
 16 43  1  0
 16 44  1  0
 17 45  1  0
 28 46  1  0
 28 47  1  0
 28 48  1  0
 31 49  1  0
 31 50  1  0
 31 51  1  0
M  END
>  <Binding energies>  (1) 
[-5.79]

>  <Ligand effiencies>  (1) 
[-0.1809375]

>  <Interactions>  (1) 
["V-A:TYR:539:CZ:4877, V-B:MET:535:CE:9807, V-A:PRO:540:CA:4883, H-B:LYS:534:NZ:9795, V-A:GLU:543:CD:4908, H-A:ALA:541:N:4891, H-A:TYR:531:OH:4795, V-A:TYR:539:CE1:4875, V-B:ASP:366:CB:8184, V-B:ASP:366:CA:8182, V-A:TYR:539:CD1:4873, V-A:TYR:539:C:4867, V-B:TYR:531:CZ:9766, V-A:TYR:531:CE2:4793, V-A:PRO:540:CB:4885, V-A:LEU:363:CD1:3189, V-A:ILE:538:CB:4862, H-A:TYR:539:N:4870, V-A:TYR:539:CG:4872, V-B:ASP:366:C:8180, V-B:TYR:531:CE1:9764, V-A:TYR:531:CZ:4794"]

$$$$
2i_Grossjean_2025
     RDKit          3D

 32 33  0  0  0  0  0  0  0  0999 V2000
  130.3070  125.6940   58.1910 C   0  0  0  0  0  0  0  0  0  0  0  0
  130.3380  124.5750   59.2150 C   0  0  0  0  0  0  0  0  0  0  0  0
  131.5260  123.9390   59.5660 C   0  0  0  0  0  0  0  0  0  0  0  0
  131.5020  122.9110   60.5200 C   0  0  0  0  0  0  0  0  0  0  0  0
  132.8260  122.2180   60.8960 C   0  0  0  0  0  0  0  0  0  0  0  0
  133.8490  122.8350   60.3010 F   0  0  0  0  0  0  0  0  0  0  0  0
  133.0050  122.2590   62.2170 F   0  0  0  0  0  0  0  0  0  0  0  0
  132.8610  120.9360   60.5260 F   0  0  0  0  0  0  0  0  0  0  0  0
  130.2580  122.5530   61.0980 C   0  0  0  0  0  0  0  0  0  0  0  0
  130.1760  121.4860   62.1010 C   0  0  0  0  0  0  0  0  0  0  0  0
  130.1100  120.6450   62.8930 N   0  0  0  0  0  0  0  0  0  0  0  0
  129.1000  123.2490   60.6820 C   0  0  0  0  0  0  0  0  0  0  0  0
  127.4800  122.8790   61.3340 S   0  0  0  0  0  0  0  0  0  0  0  0
  126.2980  124.0590   60.6140 C   0  0  0  0  0  0  0  0  0  0  0  0
  125.8610  123.6550   59.2050 C   0  0  0  0  0  0  0  0  0  0  0  0
  124.6590  123.6230   58.9360 O   0  0  0  0  0  0  0  0  0  0  0  0
  126.8570  123.3310   58.3510 N   0  0  0  0  0  0  0  0  0  0  0  0
  126.7170  122.9200   57.0360 C   0  0  0  0  0  0  0  0  0  0  0  0
  127.4810  123.2400   55.9040 C   0  0  0  0  0  0  0  0  0  0  0  0
  126.8890  122.5450   54.8750 C   0  0  0  0  0  0  0  0  0  0  0  0
  125.8360  121.8440   55.3610 O   0  0  0  0  0  0  0  0  0  0  0  0
  125.7450  122.0880   56.7330 N   0  0  0  0  0  0  0  0  0  0  0  0
  129.1450  124.2420   59.7570 N   0  0  0  0  0  0  0  0  0  0  0  0
  130.2801  126.6642   58.7087 H   0  0  0  0  0  0  0  0  0  0  0  0
  131.2070  125.6395   57.5609 H   0  0  0  0  0  0  0  0  0  0  0  0
  129.4114  125.5897   57.5609 H   0  0  0  0  0  0  0  0  0  0  0  0
  132.4753  124.2402   59.0990 H   0  0  0  0  0  0  0  0  0  0  0  0
  125.4089  124.1080   61.2599 H   0  0  0  0  0  0  0  0  0  0  0  0
  126.7978  125.0364   60.5444 H   0  0  0  0  0  0  0  0  0  0  0  0
  127.8030  123.3570   58.7020 H   0  0  0  0  0  0  0  0  0  0  0  0
  128.3591  123.9004   55.8509 H   0  0  0  0  0  0  0  0  0  0  0  0
  127.2178  122.5564   53.8254 H   0  0  0  0  0  0  0  0  0  0  0  0
  1  2  1  0
  2  3  2  0
  3  4  1  0
  4  5  1  0
  5  6  1  0
  5  7  1  0
  5  8  1  0
  4  9  2  0
  9 10  1  0
 10 11  3  0
  9 12  1  0
 12 13  1  0
 13 14  1  0
 14 15  1  0
 15 16  2  0
 15 17  1  0
 17 18  1  0
 18 19  1  0
 19 20  2  0
 20 21  1  0
 21 22  1  0
 12 23  2  0
 23  2  1  0
 22 18  2  0
  1 24  1  0
  1 25  1  0
  1 26  1  0
  3 27  1  0
 14 28  1  0
 14 29  1  0
 17 30  1  0
 19 31  1  0
 20 32  1  0
M  END
>  <Binding energies>  (1) 
[-6.53]

>  <Ligand effiencies>  (1) 
[-0.27208333333333334]

>  <Interactions>  (1) 
["V-A:ILE:369:CB:3236, V-B:MET:535:CE:9807, V-B:TYR:539:CE2:9848, V-B:TYR:539:CZ:9849, V-A:ILE:369:CG2:3237, V-B:TYR:539:CD2:9846, V-A:LEU:475:CD2:4259, V-B:TYR:539:CD1:9845, V-A:TYR:484:CZ:4347, V-B:TYR:539:CE1:9847, V-B:TYR:539:C:9839, V-A:TYR:484:CE1:4345, H-B:TYR:539:N:9842, V-B:PRO:540:CB:9857, V-B:PRO:540:CA:9855, H-B:ALA:541:N:9863, V-B:PRO:540:N:9856, V-A:ILE:369:CD1:3239, V-B:ILE:538:CA:9832, V-B:ILE:538:CD1:9837, V-B:ALA:541:CB:9864, H-A:TYR:484:OH:4348, V-B:ILE:538:C:9830, V-A:SER:385:CB:3409, V-A:GLY:454:CA:4049, V-A:ILE:369:CG1:3238"]

$$$$
2j_Grossjean_2025
     RDKit          3D

 32 33  0  0  0  0  0  0  0  0999 V2000
  129.9200  125.7220   58.2440 C   0  0  0  0  0  0  0  0  0  0  0  0
  130.0360  124.5940   59.2510 C   0  0  0  0  0  0  0  0  0  0  0  0
  131.2550  123.9760   59.5170 C   0  0  0  0  0  0  0  0  0  0  0  0
  131.3120  122.9390   60.4600 C   0  0  0  0  0  0  0  0  0  0  0  0
  132.6690  122.2660   60.7430 C   0  0  0  0  0  0  0  0  0  0  0  0
  132.9230  122.2840   62.0520 F   0  0  0  0  0  0  0  0  0  0  0  0
  132.6480  121.0010   60.3230 F   0  0  0  0  0  0  0  0  0  0  0  0
  133.6850  122.8760   60.1280 F   0  0  0  0  0  0  0  0  0  0  0  0
  130.1150  122.5530   61.1150 C   0  0  0  0  0  0  0  0  0  0  0  0
  130.1160  121.4750   62.1090 C   0  0  0  0  0  0  0  0  0  0  0  0
  130.1170  120.6250   62.8940 N   0  0  0  0  0  0  0  0  0  0  0  0
  128.9200  123.2350   60.7830 C   0  0  0  0  0  0  0  0  0  0  0  0
  127.3550  122.8340   61.5450 S   0  0  0  0  0  0  0  0  0  0  0  0
  126.0800  123.9460   60.8590 C   0  0  0  0  0  0  0  0  0  0  0  0
  125.6420  123.6180   59.4240 C   0  0  0  0  0  0  0  0  0  0  0  0
  124.4510  123.6550   59.1050 O   0  0  0  0  0  0  0  0  0  0  0  0
  126.6490  123.2860   58.5860 N   0  0  0  0  0  0  0  0  0  0  0  0
  126.5350  122.9480   57.2440 C   0  0  0  0  0  0  0  0  0  0  0  0
  125.5750  122.2610   56.6640 N   0  0  0  0  0  0  0  0  0  0  0  0
  125.7870  122.1290   55.3690 C   0  0  0  0  0  0  0  0  0  0  0  0
  126.9450  122.7180   54.8720 C   0  0  0  0  0  0  0  0  0  0  0  0
  127.7960  123.4850   56.1800 S   0  0  0  0  0  0  0  0  0  0  0  0
  128.8870  124.2380   59.8690 N   0  0  0  0  0  0  0  0  0  0  0  0
  129.8215  126.6798   58.7760 H   0  0  0  0  0  0  0  0  0  0  0  0
  130.8206  125.7441   57.6128 H   0  0  0  0  0  0  0  0  0  0  0  0
  129.0337  125.5603   57.6128 H   0  0  0  0  0  0  0  0  0  0  0  0
  132.1662  124.2984   58.9918 H   0  0  0  0  0  0  0  0  0  0  0  0
  125.1936  123.8914   61.5080 H   0  0  0  0  0  0  0  0  0  0  0  0
  126.5312  124.9485   60.8229 H   0  0  0  0  0  0  0  0  0  0  0  0
  127.5860  123.2790   58.9630 H   0  0  0  0  0  0  0  0  0  0  0  0
  125.0874  121.5837   54.7185 H   0  0  0  0  0  0  0  0  0  0  0  0
  127.2699  122.7013   53.8212 H   0  0  0  0  0  0  0  0  0  0  0  0
  1  2  1  0
  2  3  2  0
  3  4  1  0
  4  5  1  0
  5  6  1  0
  5  7  1  0
  5  8  1  0
  4  9  2  0
  9 10  1  0
 10 11  3  0
  9 12  1  0
 12 13  1  0
 13 14  1  0
 14 15  1  0
 15 16  2  0
 15 17  1  0
 17 18  1  0
 18 19  2  0
 19 20  1  0
 20 21  2  0
 21 22  1  0
 12 23  2  0
 23  2  1  0
 22 18  1  0
  1 24  1  0
  1 25  1  0
  1 26  1  0
  3 27  1  0
 14 28  1  0
 14 29  1  0
 17 30  1  0
 20 31  1  0
 21 32  1  0
M  END
>  <Binding energies>  (1) 
[-5.85]

>  <Ligand effiencies>  (1) 
[-0.24375]

>  <Interactions>  (1) 
["V-A:ILE:369:CB:3236, V-B:MET:535:CE:9807, V-B:TYR:539:CE2:9848, V-B:TYR:539:CZ:9849, V-A:ILE:369:CG2:3237, V-B:TYR:539:CD2:9846, V-A:LEU:475:CD2:4259, V-B:TYR:539:CD1:9845, V-A:TYR:484:CZ:4347, V-B:TYR:539:CE1:9847, V-B:TYR:539:C:9839, V-A:TYR:484:CE1:4345, H-B:TYR:539:N:9842, V-B:PRO:540:CB:9857, V-B:PRO:540:CA:9855, H-B:ALA:541:N:9863, V-B:PRO:540:N:9856, V-A:ILE:369:CD1:3239, V-B:ILE:538:CA:9832, V-B:ILE:538:CD1:9837, V-B:PRO:540:CD:9859, V-B:ALA:541:CB:9864, V-B:ILE:538:CG2:9835, H-A:TYR:484:OH:4348, V-B:ILE:538:C:9830, V-B:ILE:538:CB:9834, V-A:GLY:454:CA:4049, V-B:ILE:538:CG1:9836"]

$$$$
2k_Grossjean_2025
     RDKit          3D

 50 50  0  0  0  0  0  0  0  0999 V2000
  125.0490  122.9230   56.7670 C   0  0  0  0  0  0  0  0  0  0  0  0
  126.1840  122.0790   56.6520 O   0  0  0  0  0  0  0  0  0  0  0  0
  127.4180  122.7620   56.8360 C   0  0  0  0  0  0  0  0  0  0  0  0
  127.9120  122.5610   58.2740 C   0  0  0  0  0  0  0  0  0  0  0  0
  127.2430  123.4780   59.1260 O   0  0  0  0  0  0  0  0  0  0  0  0
  127.9830  124.6590   59.4110 C   0  0  0  0  0  0  0  0  0  0  0  0
  128.1690  124.7610   60.9300 C   0  0  0  0  0  0  0  0  0  0  0  0
  129.5100  125.1540   61.1790 O   0  0  0  0  0  0  0  0  0  0  0  0
  129.6760  126.1160   62.2100 C   0  0  0  0  0  0  0  0  0  0  0  0
  130.9560  125.7860   63.0000 C   0  0  0  0  0  0  0  0  0  0  0  0
  131.8320  124.8420   62.3010 N   0  0  0  0  0  0  0  0  0  0  0  0
  133.0980  124.5430   62.6490 C   0  0  0  0  0  0  0  0  0  0  0  0
  133.6610  125.0230   63.6350 O   0  0  0  0  0  0  0  0  0  0  0  0
  133.8310  123.5660   61.7190 C   0  0  0  0  0  0  0  0  0  0  0  0
  132.8700  122.9860   60.2780 S   0  0  0  0  0  0  0  0  0  0  0  0
  131.5990  121.8560   60.8280 C   0  0  0  0  0  0  0  0  0  0  0  0
  130.6310  122.3950   61.6120 N   0  0  0  0  0  0  0  0  0  0  0  0
  129.6390  121.5980   62.0680 C   0  0  0  0  0  0  0  0  0  0  0  0
  128.6040  122.2720   62.9470 C   0  0  0  0  0  0  0  0  0  0  0  0
  129.5620  120.2430   61.7570 C   0  0  0  0  0  0  0  0  0  0  0  0
  130.5470  119.6660   60.9410 C   0  0  0  0  0  0  0  0  0  0  0  0
  130.4430  118.1660   60.6020 C   0  0  0  0  0  0  0  0  0  0  0  0
  131.3870  117.4350   61.1980 F   0  0  0  0  0  0  0  0  0  0  0  0
  129.2610  117.6900   60.9950 F   0  0  0  0  0  0  0  0  0  0  0  0
  130.5670  117.9860   59.2870 F   0  0  0  0  0  0  0  0  0  0  0  0
  131.5980  120.4890   60.4620 C   0  0  0  0  0  0  0  0  0  0  0  0
  132.6560  119.9380   59.6100 C   0  0  0  0  0  0  0  0  0  0  0  0
  133.4900  119.5020   58.9360 N   0  0  0  0  0  0  0  0  0  0  0  0
  124.8232  123.0909   57.8304 H   0  0  0  0  0  0  0  0  0  0  0  0
  125.2579  123.8869   56.2799 H   0  0  0  0  0  0  0  0  0  0  0  0
  124.1861  122.4454   56.2799 H   0  0  0  0  0  0  0  0  0  0  0  0
  128.1648  122.3629   56.1339 H   0  0  0  0  0  0  0  0  0  0  0  0
  127.2709  123.8359   56.6486 H   0  0  0  0  0  0  0  0  0  0  0  0
  127.6958  121.5321   58.5976 H   0  0  0  0  0  0  0  0  0  0  0  0
  128.9972  122.7344   58.3213 H   0  0  0  0  0  0  0  0  0  0  0  0
  128.9657  124.6091   58.9192 H   0  0  0  0  0  0  0  0  0  0  0  0
  127.4436  125.5417   59.0369 H   0  0  0  0  0  0  0  0  0  0  0  0
  127.4771  125.5104   61.3419 H   0  0  0  0  0  0  0  0  0  0  0  0
  127.9579  123.7931   61.4081 H   0  0  0  0  0  0  0  0  0  0  0  0
  129.7635  127.1194   61.7679 H   0  0  0  0  0  0  0  0  0  0  0  0
  128.8066  126.0937   62.8835 H   0  0  0  0  0  0  0  0  0  0  0  0
  131.5123  126.7192   63.1720 H   0  0  0  0  0  0  0  0  0  0  0  0
  130.6477  125.3123   63.9437 H   0  0  0  0  0  0  0  0  0  0  0  0
  131.4400  124.3910   61.4870 H   0  0  0  0  0  0  0  0  0  0  0  0
  134.7352  124.0679   61.3442 H   0  0  0  0  0  0  0  0  0  0  0  0
  134.0406  122.6713   62.3236 H   0  0  0  0  0  0  0  0  0  0  0  0
  128.8576  122.1069   64.0046 H   0  0  0  0  0  0  0  0  0  0  0  0
  128.5918  123.3517   62.7371 H   0  0  0  0  0  0  0  0  0  0  0  0
  127.6116  121.8465   62.7371 H   0  0  0  0  0  0  0  0  0  0  0  0
  128.7362  119.6302   62.1476 H   0  0  0  0  0  0  0  0  0  0  0  0
  1  2  1  0
  2  3  1  0
  3  4  1  0
  4  5  1  0
  5  6  1  0
  6  7  1  0
  7  8  1  0
  8  9  1  0
  9 10  1  0
 10 11  1  0
 11 12  1  0
 12 13  2  0
 12 14  1  0
 14 15  1  0
 15 16  1  0
 16 17  2  0
 17 18  1  0
 18 19  1  0
 18 20  2  0
 20 21  1  0
 21 22  1  0
 22 23  1  0
 22 24  1  0
 22 25  1  0
 21 26  2  0
 26 27  1  0
 27 28  3  0
 26 16  1  0
  1 29  1  0
  1 30  1  0
  1 31  1  0
  3 32  1  0
  3 33  1  0
  4 34  1  0
  4 35  1  0
  6 36  1  0
  6 37  1  0
  7 38  1  0
  7 39  1  0
  9 40  1  0
  9 41  1  0
 10 42  1  0
 10 43  1  0
 11 44  1  0
 14 45  1  0
 14 46  1  0
 19 47  1  0
 19 48  1  0
 19 49  1  0
 20 50  1  0
M  END
>  <Binding energies>  (1) 
[-5.78]

>  <Ligand effiencies>  (1) 
[-0.19931034482758622]

>  <Interactions>  (1) 
["V-B:TYR:539:CE2:9848, V-A:GLU:543:CD:4908, V-B:TYR:539:CZ:9849, V-A:ILE:369:CG2:3237, V-B:TYR:539:CD2:9846, V-A:ARG:545:CZ:4926, V-A:LEU:475:CD2:4259, V-B:TYR:539:CD1:9845, V-B:TYR:539:CG:9844, V-A:TYR:484:CZ:4347, V-B:TYR:539:CE1:9847, V-B:TYR:539:C:9839, V-A:TYR:484:CE1:4345, H-B:TYR:539:N:9842, V-B:PRO:540:CB:9857, V-B:PRO:540:CA:9855, V-B:PRO:540:N:9856, V-A:ILE:369:CD1:3239, V-B:LEU:363:CD1:8161, V-B:TYR:531:CE2:9765, V-B:GLU:543:CD:9880, V-B:GLU:543:CG:9879, V-B:TYR:539:CA:9841, V-B:PRO:540:CD:9859, V-B:TYR:539:CB:9843, V-A:LEU:475:CD1:4258, V-B:ALA:541:CB:9864, H-A:GLY:454:N:4050, H-A:TYR:484:OH:4348, H-A:ARG:545:NH2:4928, V-A:SER:385:CB:3409, V-A:PRO:482:CB:4326, V-A:LEU:475:CG:4257, V-A:PRO:482:CG:4327, H-A:ARG:545:NE:4924, V-A:GLY:454:CA:4049, H-A:ARG:545:NH1:4927"]

$$$$
3aa_Grossjean_2025
     RDKit          3D

 52 54  0  0  0  0  0  0  0  0999 V2000
  124.5740  132.7380   61.7750 C   0  0  0  0  0  0  0  0  0  0  0  0
  123.7870  131.5770   62.3910 C   0  0  0  0  0  0  0  0  0  0  0  0
  124.3460  131.2440   63.6550 O   0  0  0  0  0  0  0  0  0  0  0  0
  124.5700  129.9500   64.0010 C   0  0  0  0  0  0  0  0  0  0  0  0
  123.8230  129.3050   64.7420 O   0  0  0  0  0  0  0  0  0  0  0  0
  125.8280  129.3850   63.4050 C   0  0  0  0  0  0  0  0  0  0  0  0
  127.0790  129.5480   64.0180 C   0  0  0  0  0  0  0  0  0  0  0  0
  128.2250  129.0070   63.4400 C   0  0  0  0  0  0  0  0  0  0  0  0
  128.1440  128.2890   62.2460 C   0  0  0  0  0  0  0  0  0  0  0  0
  129.3610  127.7810   61.7490 N   0  0  0  0  0  0  0  0  0  0  0  0
  129.7060  127.4560   60.4840 C   0  0  0  0  0  0  0  0  0  0  0  0
  128.9680  127.5330   59.5010 O   0  0  0  0  0  0  0  0  0  0  0  0
  131.1350  126.9450   60.3010 C   0  0  0  0  0  0  0  0  0  0  0  0
  131.2590  125.7660   58.9220 S   0  0  0  0  0  0  0  0  0  0  0  0
  130.2170  124.3810   59.3250 C   0  0  0  0  0  0  0  0  0  0  0  0
  129.1780  124.2160   58.4720 N   0  0  0  0  0  0  0  0  0  0  0  0
  128.3030  123.1960   58.6660 C   0  0  0  0  0  0  0  0  0  0  0  0
  127.1890  123.0720   57.6700 C   0  0  0  0  0  0  0  0  0  0  0  0
  125.8550  123.2720   58.0610 C   0  0  0  0  0  0  0  0  0  0  0  0
  124.8150  123.1590   57.1420 C   0  0  0  0  0  0  0  0  0  0  0  0
  125.0960  122.8430   55.8170 C   0  0  0  0  0  0  0  0  0  0  0  0
  126.4090  122.6430   55.4040 C   0  0  0  0  0  0  0  0  0  0  0  0
  127.4470  122.7590   56.3250 C   0  0  0  0  0  0  0  0  0  0  0  0
  128.4620  122.3060   59.7320 C   0  0  0  0  0  0  0  0  0  0  0  0
  129.5210  122.4670   60.6400 C   0  0  0  0  0  0  0  0  0  0  0  0
  129.6560  121.4720   61.8080 C   0  0  0  0  0  0  0  0  0  0  0  0
  128.8920  120.3880   61.6560 F   0  0  0  0  0  0  0  0  0  0  0  0
  130.9180  121.0580   61.9160 F   0  0  0  0  0  0  0  0  0  0  0  0
  129.2950  122.0610   62.9490 F   0  0  0  0  0  0  0  0  0  0  0  0
  130.4210  123.5420   60.4420 C   0  0  0  0  0  0  0  0  0  0  0  0
  131.5100  123.7930   61.3910 C   0  0  0  0  0  0  0  0  0  0  0  0
  132.3700  123.9920   62.1400 N   0  0  0  0  0  0  0  0  0  0  0  0
  126.8980  128.1330   61.6210 C   0  0  0  0  0  0  0  0  0  0  0  0
  125.7540  128.6760   62.1980 C   0  0  0  0  0  0  0  0  0  0  0  0
  124.9964  133.3611   62.5771 H   0  0  0  0  0  0  0  0  0  0  0  0
  125.3888  132.3393   61.1528 H   0  0  0  0  0  0  0  0  0  0  0  0
  123.9019  133.3472   61.1528 H   0  0  0  0  0  0  0  0  0  0  0  0
  122.7362  131.8748   62.5217 H   0  0  0  0  0  0  0  0  0  0  0  0
  123.8402  130.7034   61.7247 H   0  0  0  0  0  0  0  0  0  0  0  0
  127.1556  130.1072   64.9622 H   0  0  0  0  0  0  0  0  0  0  0  0
  129.2008  129.1467   63.9281 H   0  0  0  0  0  0  0  0  0  0  0  0
  130.0520  127.5930   62.4610 H   0  0  0  0  0  0  0  0  0  0  0  0
  131.7959  127.8006   60.0985 H   0  0  0  0  0  0  0  0  0  0  0  0
  131.4330  126.4250   61.2234 H   0  0  0  0  0  0  0  0  0  0  0  0
  125.6285  123.5215   59.1081 H   0  0  0  0  0  0  0  0  0  0  0  0
  123.7750  123.3191   57.4628 H   0  0  0  0  0  0  0  0  0  0  0  0
  124.2747  122.7507   55.0911 H   0  0  0  0  0  0  0  0  0  0  0  0
  126.6264  122.3944   54.3548 H   0  0  0  0  0  0  0  0  0  0  0  0
  128.4845  122.6032   55.9944 H   0  0  0  0  0  0  0  0  0  0  0  0
  127.7534  121.4745   59.8604 H   0  0  0  0  0  0  0  0  0  0  0  0
  126.8250  127.5803   60.6728 H   0  0  0  0  0  0  0  0  0  0  0  0
  124.7809  128.5474   61.7015 H   0  0  0  0  0  0  0  0  0  0  0  0
  1  2  1  0
  2  3  1  0
  3  4  1  0
  4  5  2  0
  4  6  1  0
  6  7  2  0
  7  8  1  0
  8  9  2  0
  9 10  1  0
 10 11  1  0
 11 12  2  0
 11 13  1  0
 13 14  1  0
 14 15  1  0
 15 16  2  0
 16 17  1  0
 17 18  1  0
 18 19  2  0
 19 20  1  0
 20 21  2  0
 21 22  1  0
 22 23  2  0
 17 24  2  0
 24 25  1  0
 25 26  1  0
 26 27  1  0
 26 28  1  0
 26 29  1  0
 25 30  2  0
 30 31  1  0
 31 32  3  0
  9 33  1  0
 33 34  2  0
 34  6  1  0
 30 15  1  0
 23 18  1  0
  1 35  1  0
  1 36  1  0
  1 37  1  0
  2 38  1  0
  2 39  1  0
  7 40  1  0
  8 41  1  0
 10 42  1  0
 13 43  1  0
 13 44  1  0
 19 45  1  0
 20 46  1  0
 21 47  1  0
 22 48  1  0
 23 49  1  0
 24 50  1  0
 33 51  1  0
 34 52  1  0
M  END
>  <Binding energies>  (1) 
[-8.22]

>  <Ligand effiencies>  (1) 
[-0.23485714285714288]

>  <Interactions>  (1) 
["V-A:ASP:366:CG:3213, V-B:MET:535:CE:9807, V-B:LEU:475:CD2:9231, V-B:TYR:539:CE2:9848, V-A:GLU:543:CD:4908, V-B:TYR:539:CZ:9849, V-B:ILE:369:CD1:8211, H-B:GLY:454:N:9022, H-B:TYR:484:OH:9320, V-A:GLU:543:CG:4907, V-B:ARG:545:CZ:9898, V-B:TYR:539:CD2:9846, V-A:LEU:475:CD2:4259, V-B:TYR:539:CD1:9845, V-B:TYR:539:CG:9844, V-A:TYR:484:CZ:4347, V-B:TYR:539:CE1:9847, V-B:TYR:539:C:9839, V-A:TYR:484:CE1:4345, V-B:ASP:366:CG:8185, V-B:PRO:540:CB:9857, V-B:PRO:540:CA:9855, V-B:PRO:540:N:9856, V-B:LEU:363:CD1:8161, V-B:TYR:531:CZ:9766, V-B:TYR:531:CE2:9765, V-B:ILE:538:CA:9832, V-B:ILE:538:CD1:9837, V-B:PRO:540:C:9853, H-A:GLU:543:OE1:4909, V-B:GLU:543:CG:9879, V-B:PRO:540:CD:9859, H-A:GLU:543:OE2:4910, V-B:ALA:541:CB:9864, V-B:ILE:538:CG2:9835, V-B:GLY:454:CA:9021, H-A:TYR:484:OH:4348, V-B:ILE:538:C:9830, H-B:ARG:545:NE:9896, H-B:ARG:545:NH2:9900, V-B:GLY:453:C:9014, H-B:ARG:545:NH1:9899, V-B:ALA:541:CA:9862"]

$$$$
3ab_Grossjean_2025
     RDKit          3D

 49 51  0  0  0  0  0  0  0  0999 V2000
  124.2830  131.8340   62.5260 C   0  0  0  0  0  0  0  0  0  0  0  0
  124.4710  131.2780   63.8210 O   0  0  0  0  0  0  0  0  0  0  0  0
  124.6120  129.9390   63.9920 C   0  0  0  0  0  0  0  0  0  0  0  0
  123.8200  129.2490   64.6400 O   0  0  0  0  0  0  0  0  0  0  0  0
  125.8280  129.3790   63.3110 C   0  0  0  0  0  0  0  0  0  0  0  0
  125.7410  128.6650   62.1060 C   0  0  0  0  0  0  0  0  0  0  0  0
  126.8850  128.1570   61.4970 C   0  0  0  0  0  0  0  0  0  0  0  0
  128.1430  128.3550   62.0860 C   0  0  0  0  0  0  0  0  0  0  0  0
  129.3630  127.8930   61.5570 N   0  0  0  0  0  0  0  0  0  0  0  0
  129.6140  127.2340   60.4060 C   0  0  0  0  0  0  0  0  0  0  0  0
  128.7690  126.8910   59.5790 O   0  0  0  0  0  0  0  0  0  0  0  0
  131.0850  126.9020   60.1480 C   0  0  0  0  0  0  0  0  0  0  0  0
  131.2850  125.6330   58.8610 S   0  0  0  0  0  0  0  0  0  0  0  0
  130.2160  124.2730   59.2810 C   0  0  0  0  0  0  0  0  0  0  0  0
  129.1800  124.1140   58.4230 N   0  0  0  0  0  0  0  0  0  0  0  0
  128.2870  123.1090   58.6190 C   0  0  0  0  0  0  0  0  0  0  0  0
  127.1720  122.9990   57.6230 C   0  0  0  0  0  0  0  0  0  0  0  0
  127.4330  122.6590   56.2860 C   0  0  0  0  0  0  0  0  0  0  0  0
  126.4020  122.5550   55.3570 C   0  0  0  0  0  0  0  0  0  0  0  0
  125.0890  122.7910   55.7530 C   0  0  0  0  0  0  0  0  0  0  0  0
  124.8030  123.1330   57.0710 C   0  0  0  0  0  0  0  0  0  0  0  0
  125.8370  123.2370   57.9960 C   0  0  0  0  0  0  0  0  0  0  0  0
  128.4110  122.2460   59.7140 C   0  0  0  0  0  0  0  0  0  0  0  0
  129.4630  122.4030   60.6270 C   0  0  0  0  0  0  0  0  0  0  0  0
  129.5600  121.4350   61.8220 C   0  0  0  0  0  0  0  0  0  0  0  0
  130.8060  121.0090   62.0430 F   0  0  0  0  0  0  0  0  0  0  0  0
  129.1400  122.0350   62.9360 F   0  0  0  0  0  0  0  0  0  0  0  0
  128.8020  120.3600   61.5990 F   0  0  0  0  0  0  0  0  0  0  0  0
  130.3930  123.4510   60.4160 C   0  0  0  0  0  0  0  0  0  0  0  0
  131.4780  123.6940   61.3700 C   0  0  0  0  0  0  0  0  0  0  0  0
  132.3340  123.8830   62.1260 N   0  0  0  0  0  0  0  0  0  0  0  0
  128.2330  129.0700   63.2820 C   0  0  0  0  0  0  0  0  0  0  0  0
  127.0880  129.5750   63.8900 C   0  0  0  0  0  0  0  0  0  0  0  0
  123.9319  132.8722   62.6202 H   0  0  0  0  0  0  0  0  0  0  0  0
  125.2366  131.8177   61.9780 H   0  0  0  0  0  0  0  0  0  0  0  0
  123.5350  131.2423   61.9780 H   0  0  0  0  0  0  0  0  0  0  0  0
  124.7585  128.5051   61.6378 H   0  0  0  0  0  0  0  0  0  0  0  0
  126.8026  127.5994   60.5524 H   0  0  0  0  0  0  0  0  0  0  0  0
  130.1590  128.0580   62.1560 H   0  0  0  0  0  0  0  0  0  0  0  0
  131.6041  127.8172   59.8272 H   0  0  0  0  0  0  0  0  0  0  0  0
  131.5117  126.5072   61.0818 H   0  0  0  0  0  0  0  0  0  0  0  0
  128.4691  122.4718   55.9676 H   0  0  0  0  0  0  0  0  0  0  0  0
  126.6242  122.2872   54.3135 H   0  0  0  0  0  0  0  0  0  0  0  0
  124.2730  122.7067   55.0202 H   0  0  0  0  0  0  0  0  0  0  0  0
  123.7641  123.3203   57.3802 H   0  0  0  0  0  0  0  0  0  0  0  0
  125.6066  123.5099   59.0364 H   0  0  0  0  0  0  0  0  0  0  0  0
  127.6778  121.4389   59.8591 H   0  0  0  0  0  0  0  0  0  0  0  0
  129.2162  129.2352   63.7468 H   0  0  0  0  0  0  0  0  0  0  0  0
  127.1732  130.1332   64.8340 H   0  0  0  0  0  0  0  0  0  0  0  0
  1  2  1  0
  2  3  1  0
  3  4  2  0
  3  5  1  0
  5  6  2  0
  6  7  1  0
  7  8  2  0
  8  9  1  0
  9 10  1  0
 10 11  2  0
 10 12  1  0
 12 13  1  0
 13 14  1  0
 14 15  2  0
 15 16  1  0
 16 17  1  0
 17 18  2  0
 18 19  1  0
 19 20  2  0
 20 21  1  0
 21 22  2  0
 16 23  2  0
 23 24  1  0
 24 25  1  0
 25 26  1  0
 25 27  1  0
 25 28  1  0
 24 29  2  0
 29 30  1  0
 30 31  3  0
  8 32  1  0
 32 33  2  0
 33  5  1  0
 29 14  1  0
 22 17  1  0
  1 34  1  0
  1 35  1  0
  1 36  1  0
  6 37  1  0
  7 38  1  0
  9 39  1  0
 12 40  1  0
 12 41  1  0
 18 42  1  0
 19 43  1  0
 20 44  1  0
 21 45  1  0
 22 46  1  0
 23 47  1  0
 32 48  1  0
 33 49  1  0
M  END
>  <Binding energies>  (1) 
[-8.13]

>  <Ligand effiencies>  (1) 
[-0.23911764705882355]

>  <Interactions>  (1) 
["V-A:ASP:366:CG:3213, V-B:MET:535:CE:9807, V-B:TYR:539:CE2:9848, V-A:GLU:543:CD:4908, V-B:TYR:539:CZ:9849, H-B:GLY:454:N:9022, H-B:TYR:484:OH:9320, V-A:GLU:543:CG:4907, V-B:ARG:545:CZ:9898, V-B:TYR:539:CD2:9846, V-A:LEU:475:CD2:4259, V-B:TYR:539:CD1:9845, V-B:TYR:539:CG:9844, V-A:TYR:484:CZ:4347, V-B:TYR:539:CE1:9847, V-B:TYR:539:C:9839, V-A:TYR:484:CE1:4345, V-B:ASP:366:CG:8185, V-B:PRO:540:CB:9857, V-B:PRO:540:CA:9855, V-B:PRO:540:N:9856, V-B:LEU:363:CD1:8161, V-B:TYR:531:CZ:9766, V-B:TYR:531:CE2:9765, V-B:ILE:538:CA:9832, V-B:ILE:538:CD1:9837, V-B:PRO:540:C:9853, H-A:GLU:543:OE1:4909, V-B:GLU:543:CG:9879, V-B:PRO:540:CD:9859, H-A:GLU:543:OE2:4910, V-B:ALA:541:CB:9864, V-B:ILE:538:CG2:9835, V-B:GLY:454:CA:9021, H-A:TYR:484:OH:4348, V-B:ILE:538:C:9830, H-B:ARG:545:NE:9896, H-B:ARG:545:NH2:9900, H-B:ARG:545:NH1:9899, V-B:ALA:541:CA:9862"]

$$$$
3ac_Grossjean_2025
     RDKit          3D

 47 49  0  0  0  0  0  0  0  0999 V2000
  125.2190  130.0310   55.9890 C   0  0  0  0  0  0  0  0  0  0  0  0
  126.1320  129.5550   55.0050 O   0  0  0  0  0  0  0  0  0  0  0  0
  127.2510  128.8510   55.4080 C   0  0  0  0  0  0  0  0  0  0  0  0
  127.1130  128.0600   56.5480 C   0  0  0  0  0  0  0  0  0  0  0  0
  128.1840  127.3130   57.0260 C   0  0  0  0  0  0  0  0  0  0  0  0
  129.4180  127.3530   56.3730 C   0  0  0  0  0  0  0  0  0  0  0  0
  130.4350  126.5480   56.9190 N   0  0  0  0  0  0  0  0  0  0  0  0
  131.6260  126.2020   56.3840 C   0  0  0  0  0  0  0  0  0  0  0  0
  132.0560  126.5870   55.2960 O   0  0  0  0  0  0  0  0  0  0  0  0
  132.4800  125.2580   57.2310 C   0  0  0  0  0  0  0  0  0  0  0  0
  132.1120  125.4040   59.0070 S   0  0  0  0  0  0  0  0  0  0  0  0
  130.8590  124.2100   59.4320 C   0  0  0  0  0  0  0  0  0  0  0  0
  129.8540  124.1470   58.5250 N   0  0  0  0  0  0  0  0  0  0  0  0
  128.8280  123.2760   58.7120 C   0  0  0  0  0  0  0  0  0  0  0  0
  127.7530  123.2740   57.6660 C   0  0  0  0  0  0  0  0  0  0  0  0
  128.0790  123.2170   56.3010 C   0  0  0  0  0  0  0  0  0  0  0  0
  127.0860  123.2080   55.3260 C   0  0  0  0  0  0  0  0  0  0  0  0
  125.7480  123.2590   55.7030 C   0  0  0  0  0  0  0  0  0  0  0  0
  125.3980  123.3220   57.0470 C   0  0  0  0  0  0  0  0  0  0  0  0
  126.3940  123.3300   58.0200 C   0  0  0  0  0  0  0  0  0  0  0  0
  128.7840  122.4520   59.8400 C   0  0  0  0  0  0  0  0  0  0  0  0
  129.8000  122.5140   60.8050 C   0  0  0  0  0  0  0  0  0  0  0  0
  129.7100  121.5910   62.0370 C   0  0  0  0  0  0  0  0  0  0  0  0
  129.1140  122.1760   63.0790 F   0  0  0  0  0  0  0  0  0  0  0  0
  129.0070  120.4960   61.7420 F   0  0  0  0  0  0  0  0  0  0  0  0
  130.9340  121.2290   62.4220 F   0  0  0  0  0  0  0  0  0  0  0  0
  130.8660  123.4280   60.6100 C   0  0  0  0  0  0  0  0  0  0  0  0
  131.9080  123.5830   61.6260 C   0  0  0  0  0  0  0  0  0  0  0  0
  132.7310  123.7060   62.4310 N   0  0  0  0  0  0  0  0  0  0  0  0
  129.5630  128.1410   55.2210 C   0  0  0  0  0  0  0  0  0  0  0  0
  128.4890  128.8870   54.7450 C   0  0  0  0  0  0  0  0  0  0  0  0
  125.6193  129.8223   56.9921 H   0  0  0  0  0  0  0  0  0  0  0  0
  125.0815  131.1156   55.8675 H   0  0  0  0  0  0  0  0  0  0  0  0
  124.2511  129.5228   55.8675 H   0  0  0  0  0  0  0  0  0  0  0  0
  126.1476  128.0266   57.0742 H   0  0  0  0  0  0  0  0  0  0  0  0
  128.0588  126.6878   57.9224 H   0  0  0  0  0  0  0  0  0  0  0  0
  130.2570  126.2310   57.8600 H   0  0  0  0  0  0  0  0  0  0  0  0
  132.2855  124.2231   56.9130 H   0  0  0  0  0  0  0  0  0  0  0  0
  133.5349  125.5316   57.0814 H   0  0  0  0  0  0  0  0  0  0  0  0
  129.1357  123.1789   55.9979 H   0  0  0  0  0  0  0  0  0  0  0  0
  127.3582  123.1607   54.2612 H   0  0  0  0  0  0  0  0  0  0  0  0
  124.9623  123.2494   54.9332 H   0  0  0  0  0  0  0  0  0  0  0  0
  124.3388  123.3653   57.3405 H   0  0  0  0  0  0  0  0  0  0  0  0
  126.1128  123.3809   59.0822 H   0  0  0  0  0  0  0  0  0  0  0  0
  127.9472  121.7503   59.9719 H   0  0  0  0  0  0  0  0  0  0  0  0
  130.5276  128.1691   54.6931 H   0  0  0  0  0  0  0  0  0  0  0  0
  128.6100  129.5080   53.8451 H   0  0  0  0  0  0  0  0  0  0  0  0
  1  2  1  0
  2  3  1  0
  3  4  2  0
  4  5  1  0
  5  6  2  0
  6  7  1  0
  7  8  1  0
  8  9  2  0
  8 10  1  0
 10 11  1  0
 11 12  1  0
 12 13  2  0
 13 14  1  0
 14 15  1  0
 15 16  2  0
 16 17  1  0
 17 18  2  0
 18 19  1  0
 19 20  2  0
 14 21  2  0
 21 22  1  0
 22 23  1  0
 23 24  1  0
 23 25  1  0
 23 26  1  0
 22 27  2  0
 27 28  1  0
 28 29  3  0
  6 30  1  0
 30 31  2  0
 31  3  1  0
 27 12  1  0
 20 15  1  0
  1 32  1  0
  1 33  1  0
  1 34  1  0
  4 35  1  0
  5 36  1  0
  7 37  1  0
 10 38  1  0
 10 39  1  0
 16 40  1  0
 17 41  1  0
 18 42  1  0
 19 43  1  0
 20 44  1  0
 21 45  1  0
 30 46  1  0
 31 47  1  0
M  END
>  <Binding energies>  (1) 
[-7.93]

>  <Ligand effiencies>  (1) 
[-0.2478125]

>  <Interactions>  (1) 
["V-A:ASP:366:CA:3210, V-A:TYR:539:CZ:4877, V-B:MET:535:CE:9807, V-B:TYR:539:CE2:9848, V-A:ASP:366:CB:3212, H-B:LYS:534:NZ:9795, V-B:TYR:539:CZ:9849, H-A:TYR:531:OH:4795, V-B:TYR:539:CD2:9846, V-A:LEU:475:CD2:4259, V-B:TYR:539:CD1:9845, V-B:TYR:539:CG:9844, V-A:TYR:484:CZ:4347, V-B:TYR:539:CE1:9847, H-B:TYR:539:OH:9850, V-B:TYR:539:C:9839, V-A:TYR:484:CE1:4345, V-B:PRO:540:CB:9857, V-B:PRO:540:CA:9855, V-B:PRO:540:N:9856, V-B:TYR:531:CZ:9766, V-B:TYR:531:CE2:9765, V-B:GLU:543:CD:9880, V-B:ILE:538:CD1:9837, V-B:PRO:540:C:9853, V-B:GLU:543:CG:9879, V-B:ALA:541:CB:9864, H-A:GLY:454:N:4050, H-A:TYR:484:OH:4348, V-B:TYR:531:CE1:9764, V-A:MET:535:CE:4835, V-B:ALA:541:CA:9862"]

$$$$
3ad_Grossjean_2025
     RDKit          3D

 43 45  0  0  0  0  0  0  0  0999 V2000
  130.4850  125.2630   62.4010 N   0  0  0  0  0  0  0  0  0  0  0  0
  130.6130  124.1720   62.0360 C   0  0  0  0  0  0  0  0  0  0  0  0
  130.7790  122.7900   61.5740 C   0  0  0  0  0  0  0  0  0  0  0  0
  131.9960  122.3650   60.9860 C   0  0  0  0  0  0  0  0  0  0  0  0
  133.2170  123.2920   60.8370 C   0  0  0  0  0  0  0  0  0  0  0  0
  132.9770  124.3430   60.0510 F   0  0  0  0  0  0  0  0  0  0  0  0
  133.5820  123.7580   62.0330 F   0  0  0  0  0  0  0  0  0  0  0  0
  134.2400  122.6210   60.3050 F   0  0  0  0  0  0  0  0  0  0  0  0
  132.0870  121.0460   60.5170 C   0  0  0  0  0  0  0  0  0  0  0  0
  130.9960  120.1780   60.6290 C   0  0  0  0  0  0  0  0  0  0  0  0
  131.0340  118.7630   60.1310 C   0  0  0  0  0  0  0  0  0  0  0  0
  130.1430  117.8020   60.6320 C   0  0  0  0  0  0  0  0  0  0  0  0
  130.1720  116.4880   60.1740 C   0  0  0  0  0  0  0  0  0  0  0  0
  131.0980  116.1160   59.2030 C   0  0  0  0  0  0  0  0  0  0  0  0
  131.9900  117.0500   58.6880 C   0  0  0  0  0  0  0  0  0  0  0  0
  131.9560  118.3640   59.1490 C   0  0  0  0  0  0  0  0  0  0  0  0
  129.8300  120.5920   61.1870 N   0  0  0  0  0  0  0  0  0  0  0  0
  129.7250  121.8550   61.6650 C   0  0  0  0  0  0  0  0  0  0  0  0
  128.1340  122.2190   62.3720 S   0  0  0  0  0  0  0  0  0  0  0  0
  127.5500  123.7670   61.6190 C   0  0  0  0  0  0  0  0  0  0  0  0
  126.6840  123.5180   60.3820 C   0  0  0  0  0  0  0  0  0  0  0  0
  125.4590  123.5750   60.4880 O   0  0  0  0  0  0  0  0  0  0  0  0
  127.3610  123.2470   59.2460 N   0  0  0  0  0  0  0  0  0  0  0  0
  126.8780  122.9870   57.9500 C   0  0  0  0  0  0  0  0  0  0  0  0
  127.8490  122.9140   56.9450 C   0  0  0  0  0  0  0  0  0  0  0  0
  127.4780  122.6660   55.6270 C   0  0  0  0  0  0  0  0  0  0  0  0
  126.1350  122.4940   55.3080 C   0  0  0  0  0  0  0  0  0  0  0  0
  125.1570  122.5710   56.2970 C   0  0  0  0  0  0  0  0  0  0  0  0
  125.5230  122.8200   57.6170 C   0  0  0  0  0  0  0  0  0  0  0  0
  133.0221  120.6922   60.0583 H   0  0  0  0  0  0  0  0  0  0  0  0
  129.4097  118.0917   61.3991 H   0  0  0  0  0  0  0  0  0  0  0  0
  129.4665  115.7467   60.5774 H   0  0  0  0  0  0  0  0  0  0  0  0
  131.1240  115.0775   58.8413 H   0  0  0  0  0  0  0  0  0  0  0  0
  132.7192  116.7526   57.9200 H   0  0  0  0  0  0  0  0  0  0  0  0
  132.6619  119.1006   58.7378 H   0  0  0  0  0  0  0  0  0  0  0  0
  126.9561  124.3201   62.3616 H   0  0  0  0  0  0  0  0  0  0  0  0
  128.4325  124.3425   61.3028 H   0  0  0  0  0  0  0  0  0  0  0  0
  128.3650  123.1820   59.3320 H   0  0  0  0  0  0  0  0  0  0  0  0
  128.9104  123.0533   57.1980 H   0  0  0  0  0  0  0  0  0  0  0  0
  128.2442  122.6062   54.8400 H   0  0  0  0  0  0  0  0  0  0  0  0
  125.8429  122.2956   54.2662 H   0  0  0  0  0  0  0  0  0  0  0  0
  124.0972  122.4353   56.0354 H   0  0  0  0  0  0  0  0  0  0  0  0
  124.7520  122.8860   58.3988 H   0  0  0  0  0  0  0  0  0  0  0  0
  1  2  3  0
  2  3  1  0
  3  4  2  0
  4  5  1  0
  5  6  1  0
  5  7  1  0
  5  8  1  0
  4  9  1  0
  9 10  2  0
 10 11  1  0
 11 12  2  0
 12 13  1  0
 13 14  2  0
 14 15  1  0
 15 16  2  0
 10 17  1  0
 17 18  2  0
 18 19  1  0
 19 20  1  0
 20 21  1  0
 21 22  2  0
 21 23  1  0
 23 24  1  0
 24 25  2  0
 25 26  1  0
 26 27  2  0
 27 28  1  0
 28 29  2  0
 18  3  1  0
 29 24  1  0
 16 11  1  0
  9 30  1  0
 12 31  1  0
 13 32  1  0
 14 33  1  0
 15 34  1  0
 16 35  1  0
 20 36  1  0
 20 37  1  0
 23 38  1  0
 25 39  1  0
 26 40  1  0
 27 41  1  0
 28 42  1  0
 29 43  1  0
M  END
>  <Binding energies>  (1) 
[-9.0]

>  <Ligand effiencies>  (1) 
[-0.3]

>  <Interactions>  (1) 
["V-A:ILE:369:CB:3236, V-A:ASP:366:CG:3213, V-B:MET:535:CE:9807, V-B:TYR:539:CE2:9848, V-B:TYR:539:CZ:9849, V-A:ILE:369:CG2:3237, V-B:TYR:539:CD2:9846, V-A:LEU:475:CD2:4259, V-B:TYR:539:CD1:9845, V-B:TYR:539:CG:9844, V-B:TYR:539:CE1:9847, V-B:TYR:539:C:9839, V-B:PRO:540:CB:9857, V-B:PRO:540:CA:9855, H-B:ALA:541:N:9863, V-B:PRO:540:N:9856, V-A:ILE:369:CD1:3239, V-B:LEU:363:CD1:8161, V-B:TYR:531:CE2:9765, V-B:GLU:543:CD:9880, V-B:ILE:538:CA:9832, V-B:ILE:538:CD1:9837, V-B:PRO:540:CG:9858, V-B:PRO:540:CD:9859, V-B:TYR:539:CB:9843, V-B:ALA:541:CB:9864, V-B:ILE:538:CG2:9835, H-A:TYR:484:OH:4348, V-B:ILE:538:C:9830, V-A:SER:385:CB:3409, V-B:ILE:538:CB:9834, V-A:LEU:373:CD1:3280, V-A:PRO:482:CB:4326, V-A:HIS:383:CE1:3394, V-A:PRO:482:CG:4327, V-A:LEU:373:CD2:3281, V-A:GLY:454:CA:4049, V-A:ILE:369:CG1:3238"]

$$$$
3af_Grossjean_2025
     RDKit          3D

 42 44  0  0  0  0  0  0  0  0999 V2000
  130.7880  125.4540   62.4620 N   0  0  0  0  0  0  0  0  0  0  0  0
  130.8810  124.3570   62.1030 C   0  0  0  0  0  0  0  0  0  0  0  0
  131.0000  122.9690   61.6490 C   0  0  0  0  0  0  0  0  0  0  0  0
  132.1640  122.5270   60.9750 C   0  0  0  0  0  0  0  0  0  0  0  0
  133.3780  123.4420   60.7230 C   0  0  0  0  0  0  0  0  0  0  0  0
  134.0580  123.7210   61.8380 F   0  0  0  0  0  0  0  0  0  0  0  0
  134.2230  122.8550   59.8740 F   0  0  0  0  0  0  0  0  0  0  0  0
  132.9770  124.6020   60.2020 F   0  0  0  0  0  0  0  0  0  0  0  0
  132.2090  121.2030   60.5110 C   0  0  0  0  0  0  0  0  0  0  0  0
  131.1220  120.3470   60.7130 C   0  0  0  0  0  0  0  0  0  0  0  0
  131.1090  118.9300   60.2220 C   0  0  0  0  0  0  0  0  0  0  0  0
  130.2040  117.9950   60.7520 C   0  0  0  0  0  0  0  0  0  0  0  0
  130.1860  116.6790   60.2980 C   0  0  0  0  0  0  0  0  0  0  0  0
  131.0740  116.2790   59.3050 C   0  0  0  0  0  0  0  0  0  0  0  0
  131.9770  117.1860   58.7610 C   0  0  0  0  0  0  0  0  0  0  0  0
  131.9920  118.5010   59.2170 C   0  0  0  0  0  0  0  0  0  0  0  0
  130.0060  120.7760   61.3570 N   0  0  0  0  0  0  0  0  0  0  0  0
  129.9480  122.0430   61.8340 C   0  0  0  0  0  0  0  0  0  0  0  0
  128.4150  122.4160   62.6600 S   0  0  0  0  0  0  0  0  0  0  0  0
  127.6420  123.8200   61.8020 C   0  0  0  0  0  0  0  0  0  0  0  0
  126.6460  123.3590   60.7390 C   0  0  0  0  0  0  0  0  0  0  0  0
  125.5430  122.9420   61.0920 O   0  0  0  0  0  0  0  0  0  0  0  0
  127.0810  123.4440   59.4630 N   0  0  0  0  0  0  0  0  0  0  0  0
  126.4260  123.0980   58.2650 C   0  0  0  0  0  0  0  0  0  0  0  0
  125.0550  123.2740   57.9990 C   0  0  0  0  0  0  0  0  0  0  0  0
  124.5360  122.8820   56.7630 C   0  0  0  0  0  0  0  0  0  0  0  0
  125.4010  122.3230   55.8220 C   0  0  0  0  0  0  0  0  0  0  0  0
  126.7250  122.1440   56.0530 N   0  0  0  0  0  0  0  0  0  0  0  0
  127.2140  122.5300   57.2590 C   0  0  0  0  0  0  0  0  0  0  0  0
  133.1037  120.8371   59.9860 H   0  0  0  0  0  0  0  0  0  0  0  0
  129.4995  118.3073   61.5370 H   0  0  0  0  0  0  0  0  0  0  0  0
  129.4721  115.9582   60.7231 H   0  0  0  0  0  0  0  0  0  0  0  0
  131.0620  115.2387   58.9477 H   0  0  0  0  0  0  0  0  0  0  0  0
  132.6759  116.8658   57.9743 H   0  0  0  0  0  0  0  0  0  0  0  0
  132.7068  119.2159   58.7835 H   0  0  0  0  0  0  0  0  0  0  0  0
  127.1127  124.4403   62.5402 H   0  0  0  0  0  0  0  0  0  0  0  0
  128.4361  124.3922   61.3001 H   0  0  0  0  0  0  0  0  0  0  0  0
  128.0100  123.8150   59.3340 H   0  0  0  0  0  0  0  0  0  0  0  0
  124.3963  123.7176   58.7601 H   0  0  0  0  0  0  0  0  0  0  0  0
  123.4674  123.0113   56.5362 H   0  0  0  0  0  0  0  0  0  0  0  0
  124.9907  122.0137   54.8494 H   0  0  0  0  0  0  0  0  0  0  0  0
  128.2870  122.3885   57.4554 H   0  0  0  0  0  0  0  0  0  0  0  0
  1  2  3  0
  2  3  1  0
  3  4  2  0
  4  5  1  0
  5  6  1  0
  5  7  1  0
  5  8  1  0
  4  9  1  0
  9 10  2  0
 10 11  1  0
 11 12  2  0
 12 13  1  0
 13 14  2  0
 14 15  1  0
 15 16  2  0
 10 17  1  0
 17 18  2  0
 18 19  1  0
 19 20  1  0
 20 21  1  0
 21 22  2  0
 21 23  1  0
 23 24  1  0
 24 25  2  0
 25 26  1  0
 26 27  2  0
 27 28  1  0
 28 29  2  0
 18  3  1  0
 29 24  1  0
 16 11  1  0
  9 30  1  0
 12 31  1  0
 13 32  1  0
 14 33  1  0
 15 34  1  0
 16 35  1  0
 20 36  1  0
 20 37  1  0
 23 38  1  0
 25 39  1  0
 26 40  1  0
 27 41  1  0
 29 42  1  0
M  END
>  <Binding energies>  (1) 
[-9.15]

>  <Ligand effiencies>  (1) 
[-0.305]

>  <Interactions>  (1) 
["V-A:ILE:369:CB:3236, V-A:ASP:366:CG:3213, V-B:TYR:539:CE2:9848, V-A:ILE:369:CG2:3237, V-B:TYR:539:CD2:9846, V-A:LEU:475:CD2:4259, V-B:TYR:539:CG:9844, V-B:TYR:539:C:9839, H-B:TYR:539:N:9842, V-B:PRO:540:CB:9857, V-B:PRO:540:CA:9855, H-B:ALA:541:N:9863, V-B:PRO:540:N:9856, V-A:ILE:369:CD1:3239, V-B:LEU:363:CD1:8161, V-B:TYR:531:CE2:9765, V-B:GLU:543:CD:9880, V-B:ILE:538:CA:9832, V-B:ILE:538:CD1:9837, V-B:TYR:539:CA:9841, V-B:PRO:540:CD:9859, V-B:TYR:539:CB:9843, V-A:LEU:475:CD1:4258, V-B:ILE:538:CG2:9835, H-A:TYR:484:OH:4348, V-B:ILE:538:C:9830, V-A:SER:385:CB:3409, V-B:ILE:538:CB:9834, V-A:LEU:373:CD1:3280, V-A:PRO:482:CB:4326, V-A:HIS:383:CE1:3394, V-A:PRO:482:CG:4327, V-A:LEU:373:CD2:3281, V-A:GLY:454:CA:4049, V-A:GLY:453:C:4042, V-A:ILE:369:CG1:3238"]

$$$$
3ag_Grossjean_2025
     RDKit          3D

 46 48  0  0  0  0  0  0  0  0999 V2000
  132.2170  125.1910   61.5680 N   0  0  0  0  0  0  0  0  0  0  0  0
  131.3830  124.8690   60.8320 C   0  0  0  0  0  0  0  0  0  0  0  0
  130.3300  124.4630   59.8970 C   0  0  0  0  0  0  0  0  0  0  0  0
  130.4390  124.7510   58.5140 C   0  0  0  0  0  0  0  0  0  0  0  0
  131.6730  125.4440   57.9030 C   0  0  0  0  0  0  0  0  0  0  0  0
  131.9680  126.5990   58.5030 F   0  0  0  0  0  0  0  0  0  0  0  0
  132.7390  124.6500   58.0130 F   0  0  0  0  0  0  0  0  0  0  0  0
  131.4610  125.7070   56.6130 F   0  0  0  0  0  0  0  0  0  0  0  0
  129.3800  124.3890   57.6680 C   0  0  0  0  0  0  0  0  0  0  0  0
  128.2390  123.7690   58.1890 C   0  0  0  0  0  0  0  0  0  0  0  0
  127.0790  123.3630   57.3320 C   0  0  0  0  0  0  0  0  0  0  0  0
  125.7720  123.3700   57.8460 C   0  0  0  0  0  0  0  0  0  0  0  0
  124.6890  122.9940   57.0560 C   0  0  0  0  0  0  0  0  0  0  0  0
  124.8990  122.6060   55.7360 C   0  0  0  0  0  0  0  0  0  0  0  0
  126.1840  122.5880   55.2040 C   0  0  0  0  0  0  0  0  0  0  0  0
  127.2640  122.9630   55.9970 C   0  0  0  0  0  0  0  0  0  0  0  0
  128.1440  123.4830   59.5130 N   0  0  0  0  0  0  0  0  0  0  0  0
  129.1630  123.8050   60.3460 C   0  0  0  0  0  0  0  0  0  0  0  0
  128.8660  123.3540   62.0410 S   0  0  0  0  0  0  0  0  0  0  0  0
  129.0730  121.5520   62.1660 C   0  0  0  0  0  0  0  0  0  0  0  0
  130.4030  121.0810   61.5750 C   0  0  0  0  0  0  0  0  0  0  0  0
  131.4270  121.7400   61.7650 O   0  0  0  0  0  0  0  0  0  0  0  0
  130.3710  119.9380   60.8690 N   0  0  0  0  0  0  0  0  0  0  0  0
  131.5270  119.2900   60.2500 C   0  0  0  0  0  0  0  0  0  0  0  0
  131.1890  118.0170   59.4810 C   0  0  0  0  0  0  0  0  0  0  0  0
  130.0710  117.2620   59.8460 C   0  0  0  0  0  0  0  0  0  0  0  0
  129.7420  116.1150   59.1280 C   0  0  0  0  0  0  0  0  0  0  0  0
  130.5260  115.7320   58.0420 C   0  0  0  0  0  0  0  0  0  0  0  0
  131.6340  116.4880   57.6640 C   0  0  0  0  0  0  0  0  0  0  0  0
  131.9630  117.6360   58.3810 C   0  0  0  0  0  0  0  0  0  0  0  0
  129.4471  124.5937   56.5893 H   0  0  0  0  0  0  0  0  0  0  0  0
  125.6014  123.6772   58.8884 H   0  0  0  0  0  0  0  0  0  0  0  0
  123.6713  123.0035   57.4735 H   0  0  0  0  0  0  0  0  0  0  0  0
  124.0438  122.3119   55.1098 H   0  0  0  0  0  0  0  0  0  0  0  0
  126.3457  122.2786   54.1609 H   0  0  0  0  0  0  0  0  0  0  0  0
  128.2787  122.9462   55.5726 H   0  0  0  0  0  0  0  0  0  0  0  0
  129.0348  121.2637   63.2269 H   0  0  0  0  0  0  0  0  0  0  0  0
  128.2622  121.0783   61.5931 H   0  0  0  0  0  0  0  0  0  0  0  0
  129.4880  119.4570   60.7710 H   0  0  0  0  0  0  0  0  0  0  0  0
  131.9899  120.0029   59.5517 H   0  0  0  0  0  0  0  0  0  0  0  0
  132.2022  118.9971   61.0675 H   0  0  0  0  0  0  0  0  0  0  0  0
  129.4514  117.5735   60.6998 H   0  0  0  0  0  0  0  0  0  0  0  0
  128.8671  115.5142   59.4170 H   0  0  0  0  0  0  0  0  0  0  0  0
  130.2679  114.8240   57.4773 H   0  0  0  0  0  0  0  0  0  0  0  0
  132.2459  116.1796   56.8035 H   0  0  0  0  0  0  0  0  0  0  0  0
  132.8309  118.2421   58.0820 H   0  0  0  0  0  0  0  0  0  0  0  0
  1  2  3  0
  2  3  1  0
  3  4  2  0
  4  5  1  0
  5  6  1  0
  5  7  1  0
  5  8  1  0
  4  9  1  0
  9 10  2  0
 10 11  1  0
 11 12  2  0
 12 13  1  0
 13 14  2  0
 14 15  1  0
 15 16  2  0
 10 17  1  0
 17 18  2  0
 18 19  1  0
 19 20  1  0
 20 21  1  0
 21 22  2  0
 21 23  1  0
 23 24  1  0
 24 25  1  0
 25 26  2  0
 26 27  1  0
 27 28  2  0
 28 29  1  0
 29 30  2  0
 18  3  1  0
 30 25  1  0
 16 11  1  0
  9 31  1  0
 12 32  1  0
 13 33  1  0
 14 34  1  0
 15 35  1  0
 16 36  1  0
 20 37  1  0
 20 38  1  0
 23 39  1  0
 24 40  1  0
 24 41  1  0
 26 42  1  0
 27 43  1  0
 28 44  1  0
 29 45  1  0
 30 46  1  0
M  END
>  <Binding energies>  (1) 
[-9.32]

>  <Ligand effiencies>  (1) 
[-0.3006451612903226]

>  <Interactions>  (1) 
["V-A:ASP:366:CA:3210, V-A:ASP:366:CG:3213, V-B:MET:535:CE:9807, V-B:TYR:539:CE2:9848, V-A:ASP:366:CB:3212, V-B:TYR:539:CZ:9849, V-B:TYR:539:CD2:9846, V-A:LEU:475:CD2:4259, V-B:TYR:539:CD1:9845, V-B:TYR:539:CG:9844, V-B:TYR:539:CE1:9847, V-B:TYR:539:C:9839, V-A:TYR:484:CE1:4345, V-B:PRO:540:CB:9857, V-B:PRO:540:CA:9855, V-B:PRO:540:N:9856, V-B:LEU:363:CD1:8161, V-B:TYR:531:CZ:9766, V-B:TYR:531:CE2:9765, V-B:ILE:538:CA:9832, V-B:ILE:538:CD1:9837, V-B:TYR:539:CA:9841, V-B:PRO:540:CD:9859, V-B:TYR:539:CB:9843, V-B:ALA:541:CB:9864, V-B:ILE:538:CG2:9835, H-A:TYR:484:OH:4348, V-B:ILE:538:C:9830, H-B:TYR:539:O:9840, H-A:ARG:545:NH2:4928, V-A:SER:385:CB:3409, V-B:ILE:538:CB:9834, V-B:VAL:344:CG2:7974, V-B:VAL:344:CG1:7973, V-A:LEU:373:CD1:3280, V-A:PRO:482:CB:4326, V-A:HIS:383:CE1:3394, V-A:PRO:482:CG:4327, V-A:LEU:373:CD2:3281, V-B:ILE:343:CG2:7964, V-B:ILE:343:CB:7963"]

$$$$
3ai_Grossjean_2025
     RDKit          3D

 39 41  0  0  0  0  0  0  0  0999 V2000
  130.3860  125.3170   62.3210 N   0  0  0  0  0  0  0  0  0  0  0  0
  130.5180  124.2200   61.9800 C   0  0  0  0  0  0  0  0  0  0  0  0
  130.6880  122.8290   61.5470 C   0  0  0  0  0  0  0  0  0  0  0  0
  131.9350  122.3690   61.0590 C   0  0  0  0  0  0  0  0  0  0  0  0
  133.1840  123.2680   60.9930 C   0  0  0  0  0  0  0  0  0  0  0  0
  134.2550  122.6320   60.5130 F   0  0  0  0  0  0  0  0  0  0  0  0
  132.9500  124.3150   60.2000 F   0  0  0  0  0  0  0  0  0  0  0  0
  133.4970  123.7100   62.2110 F   0  0  0  0  0  0  0  0  0  0  0  0
  132.0320  121.0430   60.6120 C   0  0  0  0  0  0  0  0  0  0  0  0
  130.9170  120.2000   60.6500 C   0  0  0  0  0  0  0  0  0  0  0  0
  130.9610  118.7780   60.1760 C   0  0  0  0  0  0  0  0  0  0  0  0
  130.0680  117.8240   60.6890 C   0  0  0  0  0  0  0  0  0  0  0  0
  130.1010  116.5030   60.2510 C   0  0  0  0  0  0  0  0  0  0  0  0
  131.0280  116.1180   59.2880 C   0  0  0  0  0  0  0  0  0  0  0  0
  131.9220  117.0450   58.7620 C   0  0  0  0  0  0  0  0  0  0  0  0
  131.8870  118.3640   59.2020 C   0  0  0  0  0  0  0  0  0  0  0  0
  129.7210  120.6470   61.1110 N   0  0  0  0  0  0  0  0  0  0  0  0
  129.6080  121.9170   61.5700 C   0  0  0  0  0  0  0  0  0  0  0  0
  127.9740  122.3160   62.1550 S   0  0  0  0  0  0  0  0  0  0  0  0
  127.1470  123.3120   60.8680 C   0  0  0  0  0  0  0  0  0  0  0  0
  127.4830  122.9130   59.4240 C   0  0  0  0  0  0  0  0  0  0  0  0
  128.5900  122.4520   59.1380 O   0  0  0  0  0  0  0  0  0  0  0  0
  126.4820  123.1120   58.5370 N   0  0  0  0  0  0  0  0  0  0  0  0
  126.4980  122.8400   57.1750 C   0  0  0  0  0  0  0  0  0  0  0  0
  127.4700  123.3400   56.3090 C   0  0  0  0  0  0  0  0  0  0  0  0
  127.1330  122.8490   55.0690 C   0  0  0  0  0  0  0  0  0  0  0  0
  126.0160  122.0920   55.1820 O   0  0  0  0  0  0  0  0  0  0  0  0
  125.6240  122.0930   56.5210 N   0  0  0  0  0  0  0  0  0  0  0  0
  132.9911  120.6640   60.2292 H   0  0  0  0  0  0  0  0  0  0  0  0
  129.3312  118.1248   61.4484 H   0  0  0  0  0  0  0  0  0  0  0  0
  129.3966  115.7664   60.6649 H   0  0  0  0  0  0  0  0  0  0  0  0
  131.0543  115.0747   58.9404 H   0  0  0  0  0  0  0  0  0  0  0  0
  132.6538  116.7361   58.0010 H   0  0  0  0  0  0  0  0  0  0  0  0
  132.5942  119.0942   58.7818 H   0  0  0  0  0  0  0  0  0  0  0  0
  126.0601  123.2128   61.0055 H   0  0  0  0  0  0  0  0  0  0  0  0
  127.5107  124.3423   60.9951 H   0  0  0  0  0  0  0  0  0  0  0  0
  125.6190  123.4980   58.8910 H   0  0  0  0  0  0  0  0  0  0  0  0
  128.3223  123.9874   56.5627 H   0  0  0  0  0  0  0  0  0  0  0  0
  127.6826  123.0406   54.1356 H   0  0  0  0  0  0  0  0  0  0  0  0
  1  2  3  0
  2  3  1  0
  3  4  2  0
  4  5  1  0
  5  6  1  0
  5  7  1  0
  5  8  1  0
  4  9  1  0
  9 10  2  0
 10 11  1  0
 11 12  2  0
 12 13  1  0
 13 14  2  0
 14 15  1  0
 15 16  2  0
 10 17  1  0
 17 18  2  0
 18 19  1  0
 19 20  1  0
 20 21  1  0
 21 22  2  0
 21 23  1  0
 23 24  1  0
 24 25  1  0
 25 26  2  0
 26 27  1  0
 27 28  1  0
 18  3  1  0
 28 24  2  0
 16 11  1  0
  9 29  1  0
 12 30  1  0
 13 31  1  0
 14 32  1  0
 15 33  1  0
 16 34  1  0
 20 35  1  0
 20 36  1  0
 23 37  1  0
 25 38  1  0
 26 39  1  0
M  END
>  <Binding energies>  (1) 
[-9.12]

>  <Ligand effiencies>  (1) 
[-0.31448275862068964]

>  <Interactions>  (1) 
["V-A:ILE:369:CB:3236, V-A:ASP:366:CG:3213, V-B:MET:535:CE:9807, V-B:TYR:539:CE2:9848, V-B:TYR:539:CZ:9849, V-A:ILE:369:CG2:3237, V-B:TYR:539:CD2:9846, V-A:LEU:475:CD2:4259, V-B:TYR:539:CD1:9845, V-B:TYR:539:CG:9844, H-B:ASP:366:OD2:8187, V-B:TYR:539:CE1:9847, V-B:TYR:539:C:9839, H-B:TYR:539:N:9842, V-B:PRO:540:CB:9857, V-B:PRO:540:CA:9855, H-B:ALA:541:N:9863, V-B:PRO:540:N:9856, V-A:ILE:369:CD1:3239, V-B:ILE:538:CA:9832, V-B:ILE:538:CD1:9837, V-B:TYR:539:CB:9843, H-A:TYR:484:OH:4348, V-A:SER:385:CB:3409, V-A:LEU:373:CD1:3280, V-A:PRO:482:CB:4326, V-A:HIS:383:CE1:3394, V-A:PRO:482:CG:4327, V-A:LEU:373:CD2:3281, V-A:GLY:454:CA:4049, V-A:ILE:369:CG1:3238"]

$$$$
3aj_Grossjean_2025
     RDKit          3D

 39 41  0  0  0  0  0  0  0  0999 V2000
  130.3930  125.3040   62.3130 N   0  0  0  0  0  0  0  0  0  0  0  0
  130.5270  124.2080   61.9670 C   0  0  0  0  0  0  0  0  0  0  0  0
  130.7000  122.8210   61.5280 C   0  0  0  0  0  0  0  0  0  0  0  0
  131.9470  122.3680   61.0340 C   0  0  0  0  0  0  0  0  0  0  0  0
  133.1930  123.2720   60.9670 C   0  0  0  0  0  0  0  0  0  0  0  0
  133.5640  123.7310   62.1640 F   0  0  0  0  0  0  0  0  0  0  0  0
  134.2230  122.5940   60.4590 F   0  0  0  0  0  0  0  0  0  0  0  0
  132.9490  124.3300   60.1930 F   0  0  0  0  0  0  0  0  0  0  0  0
  132.0480  121.0430   60.5820 C   0  0  0  0  0  0  0  0  0  0  0  0
  130.9350  120.1960   60.6180 C   0  0  0  0  0  0  0  0  0  0  0  0
  130.9850  118.7780   60.1390 C   0  0  0  0  0  0  0  0  0  0  0  0
  131.8880  118.3920   59.1370 C   0  0  0  0  0  0  0  0  0  0  0  0
  131.9420  117.0730   58.6890 C   0  0  0  0  0  0  0  0  0  0  0  0
  131.0900  116.1220   59.2410 C   0  0  0  0  0  0  0  0  0  0  0  0
  130.1870  116.4790   60.2360 C   0  0  0  0  0  0  0  0  0  0  0  0
  130.1370  117.7970   60.6810 C   0  0  0  0  0  0  0  0  0  0  0  0
  129.7390  120.6380   61.0850 N   0  0  0  0  0  0  0  0  0  0  0  0
  129.6230  121.9050   61.5500 C   0  0  0  0  0  0  0  0  0  0  0  0
  127.9910  122.2970   62.1420 S   0  0  0  0  0  0  0  0  0  0  0  0
  127.4230  123.7950   61.2680 C   0  0  0  0  0  0  0  0  0  0  0  0
  126.3980  123.5460   60.1520 C   0  0  0  0  0  0  0  0  0  0  0  0
  125.1890  123.6380   60.3730 O   0  0  0  0  0  0  0  0  0  0  0  0
  126.9360  123.2290   58.9530 N   0  0  0  0  0  0  0  0  0  0  0  0
  126.2440  122.9630   57.7780 C   0  0  0  0  0  0  0  0  0  0  0  0
  126.6630  122.2870   56.7300 N   0  0  0  0  0  0  0  0  0  0  0  0
  125.7390  122.2260   55.7910 C   0  0  0  0  0  0  0  0  0  0  0  0
  124.5340  122.8660   56.0710 C   0  0  0  0  0  0  0  0  0  0  0  0
  124.6290  123.5830   57.6510 S   0  0  0  0  0  0  0  0  0  0  0  0
  133.0080  120.6683   60.1972 H   0  0  0  0  0  0  0  0  0  0  0  0
  132.5634  119.1413   58.6984 H   0  0  0  0  0  0  0  0  0  0  0  0
  132.6552  116.7855   57.9024 H   0  0  0  0  0  0  0  0  0  0  0  0
  131.1310  115.0810   58.8880 H   0  0  0  0  0  0  0  0  0  0  0  0
  129.5152  115.7235   60.6695 H   0  0  0  0  0  0  0  0  0  0  0  0
  129.4223  118.0752   61.4695 H   0  0  0  0  0  0  0  0  0  0  0  0
  126.9654  124.4686   62.0075 H   0  0  0  0  0  0  0  0  0  0  0  0
  128.3116  124.2214   60.7796 H   0  0  0  0  0  0  0  0  0  0  0  0
  127.9420  123.1880   58.8890 H   0  0  0  0  0  0  0  0  0  0  0  0
  125.9102  121.6995   54.8405 H   0  0  0  0  0  0  0  0  0  0  0  0
  123.6631  122.9104   55.4005 H   0  0  0  0  0  0  0  0  0  0  0  0
  1  2  3  0
  2  3  1  0
  3  4  2  0
  4  5  1  0
  5  6  1  0
  5  7  1  0
  5  8  1  0
  4  9  1  0
  9 10  2  0
 10 11  1  0
 11 12  2  0
 12 13  1  0
 13 14  2  0
 14 15  1  0
 15 16  2  0
 10 17  1  0
 17 18  2  0
 18 19  1  0
 19 20  1  0
 20 21  1  0
 21 22  2  0
 21 23  1  0
 23 24  1  0
 24 25  2  0
 25 26  1  0
 26 27  2  0
 27 28  1  0
 18  3  1  0
 28 24  1  0
 16 11  1  0
  9 29  1  0
 12 30  1  0
 13 31  1  0
 14 32  1  0
 15 33  1  0
 16 34  1  0
 20 35  1  0
 20 36  1  0
 23 37  1  0
 26 38  1  0
 27 39  1  0
M  END
>  <Binding energies>  (1) 
[-8.56]

>  <Ligand effiencies>  (1) 
[-0.29517241379310344]

>  <Interactions>  (1) 
["V-A:ILE:369:CB:3236, V-A:ASP:366:CG:3213, V-B:TYR:539:CE2:9848, V-A:ILE:369:CG2:3237, V-B:TYR:539:CD2:9846, V-A:LEU:475:CD2:4259, V-B:TYR:539:CG:9844, V-B:TYR:539:C:9839, H-B:TYR:539:N:9842, V-B:PRO:540:CB:9857, V-B:PRO:540:CA:9855, H-B:ALA:541:N:9863, V-B:PRO:540:N:9856, V-A:ILE:369:CD1:3239, V-B:LEU:363:CD1:8161, V-B:TYR:531:CZ:9766, V-B:TYR:531:CE2:9765, V-B:ILE:538:CA:9832, V-B:ILE:538:CD1:9837, V-B:PRO:540:CD:9859, V-B:TYR:539:CB:9843, V-B:ILE:538:CG2:9835, H-A:TYR:484:OH:4348, V-B:ILE:538:C:9830, V-A:SER:385:CB:3409, V-B:ILE:538:CB:9834, V-A:LEU:373:CD1:3280, V-A:PRO:482:CB:4326, V-A:HIS:383:CE1:3394, V-A:PRO:482:CG:4327, V-A:LEU:373:CD2:3281, V-A:GLY:454:CA:4049, V-A:ILE:369:CG1:3238"]

$$$$
3ak_Grossjean_2025
     RDKit          3D

 57 58  0  0  0  0  0  0  0  0999 V2000
  125.1760  122.6200   55.8560 C   0  0  0  0  0  0  0  0  0  0  0  0
  126.4060  122.1390   56.3740 O   0  0  0  0  0  0  0  0  0  0  0  0
  126.9300  122.9400   57.4230 C   0  0  0  0  0  0  0  0  0  0  0  0
  127.1830  124.3570   56.8920 C   0  0  0  0  0  0  0  0  0  0  0  0
  126.5380  125.2940   57.7470 O   0  0  0  0  0  0  0  0  0  0  0  0
  127.3570  126.3610   58.2190 C   0  0  0  0  0  0  0  0  0  0  0  0
  126.5660  127.5080   58.8730 C   0  0  0  0  0  0  0  0  0  0  0  0
  126.5390  128.6200   57.9900 O   0  0  0  0  0  0  0  0  0  0  0  0
  125.2290  129.0760   57.6760 C   0  0  0  0  0  0  0  0  0  0  0  0
  125.3020  130.3230   56.7760 C   0  0  0  0  0  0  0  0  0  0  0  0
  126.6590  130.6480   56.3340 N   0  0  0  0  0  0  0  0  0  0  0  0
  127.3410  130.0250   55.3540 C   0  0  0  0  0  0  0  0  0  0  0  0
  126.8670  129.0970   54.6970 O   0  0  0  0  0  0  0  0  0  0  0  0
  128.7730  130.4880   55.0380 C   0  0  0  0  0  0  0  0  0  0  0  0
  129.2520  132.1440   55.6560 S   0  0  0  0  0  0  0  0  0  0  0  0
  129.2000  132.1270   57.4410 C   0  0  0  0  0  0  0  0  0  0  0  0
  128.0330  132.5350   57.9980 N   0  0  0  0  0  0  0  0  0  0  0  0
  127.8990  132.5630   59.3490 C   0  0  0  0  0  0  0  0  0  0  0  0
  126.5750  133.0260   59.8780 C   0  0  0  0  0  0  0  0  0  0  0  0
  125.5070  132.1280   60.0280 C   0  0  0  0  0  0  0  0  0  0  0  0
  124.2770  132.5520   60.5230 C   0  0  0  0  0  0  0  0  0  0  0  0
  124.0980  133.8850   60.8770 C   0  0  0  0  0  0  0  0  0  0  0  0
  125.1390  134.7950   60.7410 C   0  0  0  0  0  0  0  0  0  0  0  0
  126.3690  134.3680   60.2470 C   0  0  0  0  0  0  0  0  0  0  0  0
  128.9470  132.1580   60.1820 C   0  0  0  0  0  0  0  0  0  0  0  0
  130.1640  131.7300   59.6320 C   0  0  0  0  0  0  0  0  0  0  0  0
  131.2970  131.2940   60.5820 C   0  0  0  0  0  0  0  0  0  0  0  0
  132.4430  131.8720   60.2220 F   0  0  0  0  0  0  0  0  0  0  0  0
  131.0070  131.6520   61.8340 F   0  0  0  0  0  0  0  0  0  0  0  0
  131.4960  129.9740   60.5800 F   0  0  0  0  0  0  0  0  0  0  0  0
  130.3010  131.7130   58.2230 C   0  0  0  0  0  0  0  0  0  0  0  0
  131.5510  131.2750   57.5920 C   0  0  0  0  0  0  0  0  0  0  0  0
  132.5370  130.9310   57.0940 N   0  0  0  0  0  0  0  0  0  0  0  0
  124.5054  122.8822   56.6876 H   0  0  0  0  0  0  0  0  0  0  0  0
  125.3615  123.5118   55.2394 H   0  0  0  0  0  0  0  0  0  0  0  0
  124.7073  121.8389   55.2394 H   0  0  0  0  0  0  0  0  0  0  0  0
  126.2080  122.9804   58.2519 H   0  0  0  0  0  0  0  0  0  0  0  0
  127.8731  122.5057   57.7861 H   0  0  0  0  0  0  0  0  0  0  0  0
  128.2646  124.5569   56.8750 H   0  0  0  0  0  0  0  0  0  0  0  0
  126.7830  124.4484   55.8714 H   0  0  0  0  0  0  0  0  0  0  0  0
  128.0597  125.9563   58.9622 H   0  0  0  0  0  0  0  0  0  0  0  0
  127.8693  126.7840   57.3423 H   0  0  0  0  0  0  0  0  0  0  0  0
  125.5375  127.1757   59.0776 H   0  0  0  0  0  0  0  0  0  0  0  0
  127.0490  127.7981   59.8177 H   0  0  0  0  0  0  0  0  0  0  0  0
  124.6833  128.2792   57.1494 H   0  0  0  0  0  0  0  0  0  0  0  0
  124.7062  129.3361   58.6082 H   0  0  0  0  0  0  0  0  0  0  0  0
  124.6794  130.1468   55.8865 H   0  0  0  0  0  0  0  0  0  0  0  0
  124.9452  131.1741   57.3745 H   0  0  0  0  0  0  0  0  0  0  0  0
  127.1100  131.4140   56.8130 H   0  0  0  0  0  0  0  0  0  0  0  0
  129.4657  129.7545   55.4764 H   0  0  0  0  0  0  0  0  0  0  0  0
  128.8195  130.5621   53.9415 H   0  0  0  0  0  0  0  0  0  0  0  0
  125.6440  131.0725   59.7501 H   0  0  0  0  0  0  0  0  0  0  0  0
  123.4498  131.8355   60.6337 H   0  0  0  0  0  0  0  0  0  0  0  0
  123.1260  134.2210   61.2672 H   0  0  0  0  0  0  0  0  0  0  0  0
  124.9923  135.8482   61.0223 H   0  0  0  0  0  0  0  0  0  0  0  0
  127.1918  135.0907   60.1437 H   0  0  0  0  0  0  0  0  0  0  0  0
  128.8160  132.1753   61.2740 H   0  0  0  0  0  0  0  0  0  0  0  0
  1  2  1  0
  2  3  1  0
  3  4  1  0
  4  5  1  0
  5  6  1  0
  6  7  1  0
  7  8  1  0
  8  9  1  0
  9 10  1  0
 10 11  1  0
 11 12  1  0
 12 13  2  0
 12 14  1  0
 14 15  1  0
 15 16  1  0
 16 17  2  0
 17 18  1  0
 18 19  1  0
 19 20  2  0
 20 21  1  0
 21 22  2  0
 22 23  1  0
 23 24  2  0
 18 25  2  0
 25 26  1  0
 26 27  1  0
 27 28  1  0
 27 29  1  0
 27 30  1  0
 26 31  2  0
 31 32  1  0
 32 33  3  0
 31 16  1  0
 24 19  1  0
  1 34  1  0
  1 35  1  0
  1 36  1  0
  3 37  1  0
  3 38  1  0
  4 39  1  0
  4 40  1  0
  6 41  1  0
  6 42  1  0
  7 43  1  0
  7 44  1  0
  9 45  1  0
  9 46  1  0
 10 47  1  0
 10 48  1  0
 11 49  1  0
 14 50  1  0
 14 51  1  0
 20 52  1  0
 21 53  1  0
 22 54  1  0
 23 55  1  0
 24 56  1  0
 25 57  1  0
M  END
>  <Binding energies>  (1) 
[-6.69]

>  <Ligand effiencies>  (1) 
[-0.19676470588235295]

>  <Interactions>  (1) 
["V-A:TYR:539:CZ:4877, V-A:ALA:541:CB:4892, V-A:ASP:366:CG:3213, V-B:MET:535:CE:9807, V-B:ILE:369:CG2:8209, V-B:LEU:475:CD2:9231, V-A:PRO:540:CA:4883, H-B:LYS:534:NZ:9795, V-A:GLU:543:CD:4908, V-B:ILE:369:CD1:8211, V-A:GLU:543:CG:4907, H-A:TYR:531:OH:4795, V-A:TYR:539:CE1:4875, H-B:TYR:531:OH:9767, V-B:TYR:539:C:9839, V-B:ASP:366:CG:8185, H-B:TYR:539:N:9842, V-B:PRO:540:CA:9855, V-B:ASP:366:CB:8184, V-B:PRO:540:N:9856, V-A:TYR:539:CD1:4873, V-A:TYR:539:C:4867, V-A:PRO:540:C:4881, V-B:LEU:363:CD1:8161, V-B:TYR:531:CE2:9765, V-B:ILE:538:CA:9832, V-B:ILE:538:CD1:9837, V-A:PRO:540:CB:4885, V-A:PRO:540:N:4884, V-B:PRO:540:CD:9859, V-B:ILE:538:CG2:9835, V-A:ALA:541:CA:4890"]

$$$$
3bc_Grossjean_2025
     RDKit          3D

 47 49  0  0  0  0  0  0  0  0999 V2000
  131.9810  116.1180   57.4760 C   0  0  0  0  0  0  0  0  0  0  0  0
  132.4320  116.5440   58.7570 O   0  0  0  0  0  0  0  0  0  0  0  0
  131.6220  117.3670   59.5160 C   0  0  0  0  0  0  0  0  0  0  0  0
  131.9450  118.7240   59.5210 C   0  0  0  0  0  0  0  0  0  0  0  0
  131.1870  119.6320   60.2570 C   0  0  0  0  0  0  0  0  0  0  0  0
  130.0960  119.1900   61.0070 C   0  0  0  0  0  0  0  0  0  0  0  0
  129.3830  120.1810   61.7080 N   0  0  0  0  0  0  0  0  0  0  0  0
  129.8280  121.3440   62.2270 C   0  0  0  0  0  0  0  0  0  0  0  0
  130.9850  121.7590   62.1300 O   0  0  0  0  0  0  0  0  0  0  0  0
  128.7570  122.1790   62.9430 C   0  0  0  0  0  0  0  0  0  0  0  0
  128.6350  123.9170   62.3980 S   0  0  0  0  0  0  0  0  0  0  0  0
  129.1430  123.9890   60.6950 C   0  0  0  0  0  0  0  0  0  0  0  0
  128.1630  123.6540   59.8190 N   0  0  0  0  0  0  0  0  0  0  0  0
  128.4150  123.6700   58.4840 C   0  0  0  0  0  0  0  0  0  0  0  0
  127.2850  123.2660   57.5840 C   0  0  0  0  0  0  0  0  0  0  0  0
  125.9640  123.2480   58.0570 C   0  0  0  0  0  0  0  0  0  0  0  0
  124.9090  122.8750   57.2270 C   0  0  0  0  0  0  0  0  0  0  0  0
  125.1650  122.5120   55.9090 C   0  0  0  0  0  0  0  0  0  0  0  0
  126.4660  122.5180   55.4160 C   0  0  0  0  0  0  0  0  0  0  0  0
  127.5170  122.8910   56.2500 C   0  0  0  0  0  0  0  0  0  0  0  0
  129.6750  124.0270   57.9950 C   0  0  0  0  0  0  0  0  0  0  0  0
  130.6910  124.3970   58.8840 C   0  0  0  0  0  0  0  0  0  0  0  0
  132.0470  124.7960   58.3040 C   0  0  0  0  0  0  0  0  0  0  0  0
  130.4290  124.3930   60.2710 C   0  0  0  0  0  0  0  0  0  0  0  0
  131.4610  124.8230   61.2170 C   0  0  0  0  0  0  0  0  0  0  0  0
  132.2780  125.1640   61.9620 N   0  0  0  0  0  0  0  0  0  0  0  0
  129.7560  117.8290   60.9970 C   0  0  0  0  0  0  0  0  0  0  0  0
  130.5160  116.9250   60.2590 C   0  0  0  0  0  0  0  0  0  0  0  0
  131.1863  115.3673   57.5980 H   0  0  0  0  0  0  0  0  0  0  0  0
  131.5874  116.9816   56.9200 H   0  0  0  0  0  0  0  0  0  0  0  0
  132.8208  115.6758   56.9200 H   0  0  0  0  0  0  0  0  0  0  0  0
  132.8069  119.0807   58.9380 H   0  0  0  0  0  0  0  0  0  0  0  0
  131.4490  120.7003   60.2470 H   0  0  0  0  0  0  0  0  0  0  0  0
  128.3890  120.0110   61.7740 H   0  0  0  0  0  0  0  0  0  0  0  0
  127.7816  121.6996   62.7731 H   0  0  0  0  0  0  0  0  0  0  0  0
  129.0518  122.2108   64.0023 H   0  0  0  0  0  0  0  0  0  0  0  0
  125.7582  123.5328   59.0994 H   0  0  0  0  0  0  0  0  0  0  0  0
  123.8787  122.8676   57.6122 H   0  0  0  0  0  0  0  0  0  0  0  0
  124.3332  122.2182   55.2519 H   0  0  0  0  0  0  0  0  0  0  0  0
  126.6634  122.2296   54.3730 H   0  0  0  0  0  0  0  0  0  0  0  0
  128.5449  122.8921   55.8582 H   0  0  0  0  0  0  0  0  0  0  0  0
  129.8680  124.0172   56.9121 H   0  0  0  0  0  0  0  0  0  0  0  0
  132.7501  125.0029   59.1243 H   0  0  0  0  0  0  0  0  0  0  0  0
  132.4371  123.9746   57.6851 H   0  0  0  0  0  0  0  0  0  0  0  0
  131.9301  125.6978   57.6851 H   0  0  0  0  0  0  0  0  0  0  0  0
  128.8880  117.4754   61.5728 H   0  0  0  0  0  0  0  0  0  0  0  0
  130.2480  115.8581   60.2583 H   0  0  0  0  0  0  0  0  0  0  0  0
  1  2  1  0
  2  3  1  0
  3  4  2  0
  4  5  1  0
  5  6  2  0
  6  7  1  0
  7  8  1  0
  8  9  2  0
  8 10  1  0
 10 11  1  0
 11 12  1  0
 12 13  2  0
 13 14  1  0
 14 15  1  0
 15 16  2  0
 16 17  1  0
 17 18  2  0
 18 19  1  0
 19 20  2  0
 14 21  2  0
 21 22  1  0
 22 23  1  0
 22 24  2  0
 24 25  1  0
 25 26  3  0
  6 27  1  0
 27 28  2  0
 28  3  1  0
 24 12  1  0
 20 15  1  0
  1 29  1  0
  1 30  1  0
  1 31  1  0
  4 32  1  0
  5 33  1  0
  7 34  1  0
 10 35  1  0
 10 36  1  0
 16 37  1  0
 17 38  1  0
 18 39  1  0
 19 40  1  0
 20 41  1  0
 21 42  1  0
 23 43  1  0
 23 44  1  0
 23 45  1  0
 27 46  1  0
 28 47  1  0
M  END
>  <Binding energies>  (1) 
[-8.17]

>  <Ligand effiencies>  (1) 
[-0.28172413793103446]

>  <Interactions>  (1) 
["V-B:MET:535:CE:9807, V-B:TYR:539:CE2:9848, V-B:TYR:539:CZ:9849, V-B:TYR:539:CD2:9846, V-A:LEU:475:CD2:4259, V-B:TYR:539:CD1:9845, V-B:TYR:539:CG:9844, V-A:TYR:484:CZ:4347, V-B:TYR:539:CE1:9847, V-B:TYR:539:C:9839, V-A:TYR:484:CE1:4345, V-B:PRO:540:CB:9857, V-B:PRO:540:CA:9855, V-B:PRO:540:N:9856, V-B:LEU:363:CD1:8161, V-B:TYR:531:CE2:9765, V-B:GLU:543:CD:9880, V-B:ILE:538:CA:9832, V-B:ILE:538:CD1:9837, V-B:PRO:540:C:9853, V-B:GLU:543:CG:9879, V-B:PRO:540:CG:9858, V-B:PRO:540:CD:9859, V-B:TYR:539:CB:9843, V-A:LEU:475:CD1:4258, V-B:ALA:541:CB:9864, V-B:ILE:538:CG2:9835, H-A:TYR:484:OH:4348, V-B:ILE:538:C:9830, H-B:TYR:539:O:9840, H-A:ARG:545:NH2:4928, V-A:SER:385:CB:3409, V-A:LEU:373:CD1:3280, V-A:PRO:482:CB:4326, V-A:HIS:383:CE1:3394, V-A:PRO:482:CG:4327, V-A:LEU:373:CD2:3281, H-A:SER:385:OG:3410, H-B:PRO:540:O:9854, V-A:LEU:373:CG:3279, V-B:ILE:343:CG2:7964, H-A:HIS:383:ND1:3391, V-B:ILE:343:CB:7963"]

$$$$
3bd_Grossjean_2025
     RDKit          3D

 43 45  0  0  0  0  0  0  0  0999 V2000
  133.5320  123.2410   60.4500 C   0  0  0  0  0  0  0  0  0  0  0  0
  132.3170  122.3700   60.7690 C   0  0  0  0  0  0  0  0  0  0  0  0
  132.3110  121.0490   60.3070 C   0  0  0  0  0  0  0  0  0  0  0  0
  131.2150  120.2210   60.5750 C   0  0  0  0  0  0  0  0  0  0  0  0
  131.1450  118.7950   60.1140 C   0  0  0  0  0  0  0  0  0  0  0  0
  131.9830  118.3310   59.0880 C   0  0  0  0  0  0  0  0  0  0  0  0
  131.9220  117.0090   58.6540 C   0  0  0  0  0  0  0  0  0  0  0  0
  131.0190  116.1300   59.2440 C   0  0  0  0  0  0  0  0  0  0  0  0
  130.1760  116.5650   60.2600 C   0  0  0  0  0  0  0  0  0  0  0  0
  130.2390  117.8880   60.6900 C   0  0  0  0  0  0  0  0  0  0  0  0
  130.1560  120.6790   61.2930 N   0  0  0  0  0  0  0  0  0  0  0  0
  130.1450  121.9580   61.7470 C   0  0  0  0  0  0  0  0  0  0  0  0
  128.6920  122.4400   62.6650 S   0  0  0  0  0  0  0  0  0  0  0  0
  127.9300  123.8530   61.8130 C   0  0  0  0  0  0  0  0  0  0  0  0
  126.9580  123.4070   60.7200 C   0  0  0  0  0  0  0  0  0  0  0  0
  125.8440  122.9920   61.0430 O   0  0  0  0  0  0  0  0  0  0  0  0
  127.4190  123.4950   59.4540 N   0  0  0  0  0  0  0  0  0  0  0  0
  126.7610  123.1890   58.2480 C   0  0  0  0  0  0  0  0  0  0  0  0
  127.5810  122.8410   57.1710 C   0  0  0  0  0  0  0  0  0  0  0  0
  127.0200  122.5300   55.9350 C   0  0  0  0  0  0  0  0  0  0  0  0
  125.6380  122.5780   55.7720 C   0  0  0  0  0  0  0  0  0  0  0  0
  124.8120  122.9380   56.8340 C   0  0  0  0  0  0  0  0  0  0  0  0
  125.3690  123.2470   58.0710 C   0  0  0  0  0  0  0  0  0  0  0  0
  131.2130  122.8490   61.5060 C   0  0  0  0  0  0  0  0  0  0  0  0
  131.1900  124.2270   62.0040 C   0  0  0  0  0  0  0  0  0  0  0  0
  131.1740  125.3150   62.3970 N   0  0  0  0  0  0  0  0  0  0  0  0
  133.9993  123.5760   61.3877 H   0  0  0  0  0  0  0  0  0  0  0  0
  134.2588  122.6569   59.8664 H   0  0  0  0  0  0  0  0  0  0  0  0
  133.2122  124.1168   59.8664 H   0  0  0  0  0  0  0  0  0  0  0  0
  133.1665  120.6620   59.7340 H   0  0  0  0  0  0  0  0  0  0  0  0
  132.6990  119.0222   58.6195 H   0  0  0  0  0  0  0  0  0  0  0  0
  132.5850  116.6612   57.8481 H   0  0  0  0  0  0  0  0  0  0  0  0
  130.9720  115.0848   58.9044 H   0  0  0  0  0  0  0  0  0  0  0  0
  129.4623  115.8673   60.7223 H   0  0  0  0  0  0  0  0  0  0  0  0
  129.5690  118.2286   61.4932 H   0  0  0  0  0  0  0  0  0  0  0  0
  127.3821  124.4586   62.5499 H   0  0  0  0  0  0  0  0  0  0  0  0
  128.7325  124.4355   61.3368 H   0  0  0  0  0  0  0  0  0  0  0  0
  128.3860  123.7660   59.3470 H   0  0  0  0  0  0  0  0  0  0  0  0
  128.6730  122.8127   57.3001 H   0  0  0  0  0  0  0  0  0  0  0  0
  127.6661  122.2475   55.0907 H   0  0  0  0  0  0  0  0  0  0  0  0
  125.1949  122.3295   54.7963 H   0  0  0  0  0  0  0  0  0  0  0  0
  123.7215  122.9780   56.6951 H   0  0  0  0  0  0  0  0  0  0  0  0
  124.7193  123.5366   58.9100 H   0  0  0  0  0  0  0  0  0  0  0  0
  1  2  1  0
  2  3  2  0
  3  4  1  0
  4  5  1  0
  5  6  2  0
  6  7  1  0
  7  8  2  0
  8  9  1  0
  9 10  2  0
  4 11  2  0
 11 12  1  0
 12 13  1  0
 13 14  1  0
 14 15  1  0
 15 16  2  0
 15 17  1  0
 17 18  1  0
 18 19  2  0
 19 20  1  0
 20 21  2  0
 21 22  1  0
 22 23  2  0
 12 24  2  0
 24 25  1  0
 25 26  3  0
 24  2  1  0
 10  5  1  0
 23 18  1  0
  1 27  1  0
  1 28  1  0
  1 29  1  0
  3 30  1  0
  6 31  1  0
  7 32  1  0
  8 33  1  0
  9 34  1  0
 10 35  1  0
 14 36  1  0
 14 37  1  0
 17 38  1  0
 19 39  1  0
 20 40  1  0
 21 41  1  0
 22 42  1  0
 23 43  1  0
M  END
>  <Binding energies>  (1) 
[-9.54]

>  <Ligand effiencies>  (1) 
[-0.3533333333333333]

>  <Interactions>  (1) 
["V-B:MET:535:CE:9807, V-B:TYR:539:CE2:9848, V-B:TYR:539:CZ:9849, V-A:ILE:369:CG2:3237, V-B:TYR:539:CD2:9846, V-A:LEU:475:CD2:4259, V-B:TYR:539:CD1:9845, V-B:TYR:539:CG:9844, V-B:TYR:539:CE1:9847, V-B:TYR:539:C:9839, V-B:PRO:540:CB:9857, V-B:PRO:540:CA:9855, H-B:ALA:541:N:9863, V-B:PRO:540:N:9856, V-A:ILE:369:CD1:3239, V-B:LEU:363:CD1:8161, V-B:TYR:531:CE2:9765, V-B:GLU:543:CD:9880, V-B:ILE:538:CA:9832, V-B:ILE:538:CD1:9837, V-B:PRO:540:CD:9859, V-B:TYR:539:CB:9843, V-B:ILE:538:CG2:9835, H-A:TYR:484:OH:4348, V-A:SER:385:CB:3409, V-B:VAL:344:CG1:7973, V-A:LEU:373:CD1:3280, V-A:PRO:482:CB:4326, V-A:HIS:383:CE1:3394, V-A:PRO:482:CG:4327, V-A:LEU:373:CD2:3281"]

$$$$
3be_Grossjean_2025
     RDKit          3D

 45 47  0  0  0  0  0  0  0  0999 V2000
  127.2530  122.4310   55.0990 C   0  0  0  0  0  0  0  0  0  0  0  0
  126.5000  122.8520   56.3460 C   0  0  0  0  0  0  0  0  0  0  0  0
  125.1120  123.0110   56.3440 C   0  0  0  0  0  0  0  0  0  0  0  0
  124.4870  123.4030   57.5270 C   0  0  0  0  0  0  0  0  0  0  0  0
  125.2550  123.6230   58.6730 C   0  0  0  0  0  0  0  0  0  0  0  0
  126.6410  123.4420   58.6080 C   0  0  0  0  0  0  0  0  0  0  0  0
  127.3600  123.6900   59.7920 N   0  0  0  0  0  0  0  0  0  0  0  0
  127.0360  123.3620   61.0620 C   0  0  0  0  0  0  0  0  0  0  0  0
  126.0060  122.7710   61.3910 O   0  0  0  0  0  0  0  0  0  0  0  0
  128.0700  123.7830   62.1180 C   0  0  0  0  0  0  0  0  0  0  0  0
  128.9840  122.4110   62.9000 S   0  0  0  0  0  0  0  0  0  0  0  0
  130.3430  121.9750   61.8370 C   0  0  0  0  0  0  0  0  0  0  0  0
  130.3070  120.6890   61.4090 N   0  0  0  0  0  0  0  0  0  0  0  0
  131.2830  120.2210   60.5860 C   0  0  0  0  0  0  0  0  0  0  0  0
  131.1770  118.7840   60.1700 C   0  0  0  0  0  0  0  0  0  0  0  0
  130.2750  117.9170   60.8060 C   0  0  0  0  0  0  0  0  0  0  0  0
  130.1740  116.5820   60.4270 C   0  0  0  0  0  0  0  0  0  0  0  0
  130.9770  116.0930   59.4030 C   0  0  0  0  0  0  0  0  0  0  0  0
  131.8800  116.9290   58.7570 C   0  0  0  0  0  0  0  0  0  0  0  0
  131.9790  118.2640   59.1400 C   0  0  0  0  0  0  0  0  0  0  0  0
  132.3320  121.0500   60.1740 C   0  0  0  0  0  0  0  0  0  0  0  0
  132.3700  122.3860   60.5860 C   0  0  0  0  0  0  0  0  0  0  0  0
  133.5250  123.2580   60.0970 C   0  0  0  0  0  0  0  0  0  0  0  0
  131.3510  122.8780   61.4300 C   0  0  0  0  0  0  0  0  0  0  0  0
  131.3420  124.2870   61.8290 C   0  0  0  0  0  0  0  0  0  0  0  0
  131.3380  125.4010   62.1440 N   0  0  0  0  0  0  0  0  0  0  0  0
  127.2590  123.0620   57.4510 N   0  0  0  0  0  0  0  0  0  0  0  0
  128.1795  121.9130   55.3875 H   0  0  0  0  0  0  0  0  0  0  0  0
  126.6246  121.7534   54.5024 H   0  0  0  0  0  0  0  0  0  0  0  0
  127.5012  123.3212   54.5024 H   0  0  0  0  0  0  0  0  0  0  0  0
  124.5261  122.8311   55.4306 H   0  0  0  0  0  0  0  0  0  0  0  0
  123.3958  123.5382   57.5578 H   0  0  0  0  0  0  0  0  0  0  0  0
  124.7768  123.9342   59.6135 H   0  0  0  0  0  0  0  0  0  0  0  0
  128.2180  124.2050   59.6630 H   0  0  0  0  0  0  0  0  0  0  0  0
  128.8012  124.4463   61.6329 H   0  0  0  0  0  0  0  0  0  0  0  0
  127.5021  124.2703   62.9242 H   0  0  0  0  0  0  0  0  0  0  0  0
  129.6377  118.2990   61.6171 H   0  0  0  0  0  0  0  0  0  0  0  0
  129.4614  115.9161   60.9357 H   0  0  0  0  0  0  0  0  0  0  0  0
  130.8972  115.0379   59.1022 H   0  0  0  0  0  0  0  0  0  0  0  0
  132.5134  116.5379   57.9471 H   0  0  0  0  0  0  0  0  0  0  0  0
  132.6965  118.9221   58.6281 H   0  0  0  0  0  0  0  0  0  0  0  0
  133.1266  120.6512   59.5263 H   0  0  0  0  0  0  0  0  0  0  0  0
  134.0672  123.6673   60.9621 H   0  0  0  0  0  0  0  0  0  0  0  0
  134.2109  122.6505   59.4884 H   0  0  0  0  0  0  0  0  0  0  0  0
  133.1286  124.0841   59.4884 H   0  0  0  0  0  0  0  0  0  0  0  0
  1  2  1  0
  2  3  2  0
  3  4  1  0
  4  5  2  0
  5  6  1  0
  6  7  1  0
  7  8  1  0
  8  9  2  0
  8 10  1  0
 10 11  1  0
 11 12  1  0
 12 13  2  0
 13 14  1  0
 14 15  1  0
 15 16  2  0
 16 17  1  0
 17 18  2  0
 18 19  1  0
 19 20  2  0
 14 21  2  0
 21 22  1  0
 22 23  1  0
 22 24  2  0
 24 25  1  0
 25 26  3  0
  6 27  2  0
 27  2  1  0
 24 12  1  0
 20 15  1  0
  1 28  1  0
  1 29  1  0
  1 30  1  0
  3 31  1  0
  4 32  1  0
  5 33  1  0
  7 34  1  0
 10 35  1  0
 10 36  1  0
 16 37  1  0
 17 38  1  0
 18 39  1  0
 19 40  1  0
 20 41  1  0
 21 42  1  0
 23 43  1  0
 23 44  1  0
 23 45  1  0
M  END
>  <Binding energies>  (1) 
[-9.72]

>  <Ligand effiencies>  (1) 
[-0.34714285714285714]

>  <Interactions>  (1) 
["V-A:ILE:369:CB:3236, V-B:MET:535:CE:9807, V-B:TYR:539:CE2:9848, V-B:TYR:539:CZ:9849, V-A:ILE:369:CG2:3237, V-B:TYR:539:CD2:9846, V-A:LEU:475:CD2:4259, V-B:TYR:539:CD1:9845, V-B:TYR:539:CG:9844, V-B:TYR:539:CE1:9847, V-B:PRO:540:CB:9857, V-B:PRO:540:CA:9855, H-B:ALA:541:N:9863, V-B:PRO:540:N:9856, V-A:ILE:369:CD1:3239, V-B:LEU:363:CD1:8161, V-B:TYR:531:CZ:9766, V-B:TYR:531:CE2:9765, V-B:GLU:543:CD:9880, V-B:ILE:538:CA:9832, V-B:ILE:538:CD1:9837, V-B:GLU:543:CG:9879, V-B:TYR:539:CB:9843, V-A:LEU:475:CD1:4258, H-A:TYR:484:OH:4348, V-B:ILE:538:C:9830, V-A:SER:385:CB:3409, V-B:VAL:344:CG1:7973, V-A:LEU:373:CD1:3280, V-A:PRO:482:CB:4326, V-A:HIS:383:CE1:3394, V-A:PRO:482:CG:4327, V-A:LEU:373:CD2:3281"]

$$$$
3bf_Grossjean_2025
     RDKit          3D

 42 44  0  0  0  0  0  0  0  0999 V2000
  133.5240  123.2650   60.3850 C   0  0  0  0  0  0  0  0  0  0  0  0
  132.3320  122.3820   60.7470 C   0  0  0  0  0  0  0  0  0  0  0  0
  132.3160  121.0680   60.2700 C   0  0  0  0  0  0  0  0  0  0  0  0
  131.2490  120.2200   60.5910 C   0  0  0  0  0  0  0  0  0  0  0  0
  131.1830  118.7950   60.1300 C   0  0  0  0  0  0  0  0  0  0  0  0
  130.3050  117.8860   60.7390 C   0  0  0  0  0  0  0  0  0  0  0  0
  130.2380  116.5610   60.3170 C   0  0  0  0  0  0  0  0  0  0  0  0
  131.0520  116.1260   59.2760 C   0  0  0  0  0  0  0  0  0  0  0  0
  131.9320  117.0070   58.6570 C   0  0  0  0  0  0  0  0  0  0  0  0
  131.9970  118.3310   59.0830 C   0  0  0  0  0  0  0  0  0  0  0  0
  130.2200  120.6580   61.3640 N   0  0  0  0  0  0  0  0  0  0  0  0
  130.2090  121.9370   61.8130 C   0  0  0  0  0  0  0  0  0  0  0  0
  128.7830  122.3330   62.8020 S   0  0  0  0  0  0  0  0  0  0  0  0
  127.9020  123.7140   61.9990 C   0  0  0  0  0  0  0  0  0  0  0  0
  126.8630  123.3000   60.9450 C   0  0  0  0  0  0  0  0  0  0  0  0
  125.7430  122.9160   61.2840 O   0  0  0  0  0  0  0  0  0  0  0  0
  127.2780  123.4260   59.6660 N   0  0  0  0  0  0  0  0  0  0  0  0
  126.5840  123.1260   58.4790 C   0  0  0  0  0  0  0  0  0  0  0  0
  125.2440  123.5200   58.4060 C   0  0  0  0  0  0  0  0  0  0  0  0
  124.5040  123.2630   57.2500 C   0  0  0  0  0  0  0  0  0  0  0  0
  125.1350  122.6180   56.1860 C   0  0  0  0  0  0  0  0  0  0  0  0
  126.4360  122.2340   56.2240 N   0  0  0  0  0  0  0  0  0  0  0  0
  127.1420  122.4910   57.3560 C   0  0  0  0  0  0  0  0  0  0  0  0
  131.2610  122.8400   61.5440 C   0  0  0  0  0  0  0  0  0  0  0  0
  131.2820  124.1980   62.0960 C   0  0  0  0  0  0  0  0  0  0  0  0
  131.2990  125.2710   62.5290 N   0  0  0  0  0  0  0  0  0  0  0  0
  134.0078  123.6234   61.3056 H   0  0  0  0  0  0  0  0  0  0  0  0
  134.2461  122.6822   59.7943 H   0  0  0  0  0  0  0  0  0  0  0  0
  133.1768  124.1256   59.7943 H   0  0  0  0  0  0  0  0  0  0  0  0
  133.1414  120.7004   59.6427 H   0  0  0  0  0  0  0  0  0  0  0  0
  129.6596  118.2254   61.5626 H   0  0  0  0  0  0  0  0  0  0  0  0
  129.5441  115.8607   60.8048 H   0  0  0  0  0  0  0  0  0  0  0  0
  130.9992  115.0796   58.9408 H   0  0  0  0  0  0  0  0  0  0  0  0
  132.5741  116.6594   57.8343 H   0  0  0  0  0  0  0  0  0  0  0  0
  132.6962  119.0242   58.5924 H   0  0  0  0  0  0  0  0  0  0  0  0
  127.3837  124.2882   62.7811 H   0  0  0  0  0  0  0  0  0  0  0  0
  128.6671  124.2949   61.4631 H   0  0  0  0  0  0  0  0  0  0  0  0
  128.1920  123.8310   59.5260 H   0  0  0  0  0  0  0  0  0  0  0  0
  124.7735  124.0318   59.2584 H   0  0  0  0  0  0  0  0  0  0  0  0
  123.4478  123.5622   57.1799 H   0  0  0  0  0  0  0  0  0  0  0  0
  124.5523  122.4116   55.2762 H   0  0  0  0  0  0  0  0  0  0  0  0
  128.1988  122.1882   57.3955 H   0  0  0  0  0  0  0  0  0  0  0  0
  1  2  1  0
  2  3  2  0
  3  4  1  0
  4  5  1  0
  5  6  2  0
  6  7  1  0
  7  8  2  0
  8  9  1  0
  9 10  2  0
  4 11  2  0
 11 12  1  0
 12 13  1  0
 13 14  1  0
 14 15  1  0
 15 16  2  0
 15 17  1  0
 17 18  1  0
 18 19  2  0
 19 20  1  0
 20 21  2  0
 21 22  1  0
 22 23  2  0
 12 24  2  0
 24 25  1  0
 25 26  3  0
 24  2  1  0
 10  5  1  0
 23 18  1  0
  1 27  1  0
  1 28  1  0
  1 29  1  0
  3 30  1  0
  6 31  1  0
  7 32  1  0
  8 33  1  0
  9 34  1  0
 10 35  1  0
 14 36  1  0
 14 37  1  0
 17 38  1  0
 19 39  1  0
 20 40  1  0
 21 41  1  0
 23 42  1  0
M  END
>  <Binding energies>  (1) 
[-9.84]

>  <Ligand effiencies>  (1) 
[-0.36444444444444446]

>  <Interactions>  (1) 
["V-B:TYR:539:CE2:9848, V-A:ILE:369:CG2:3237, V-B:TYR:539:CD2:9846, V-A:LEU:475:CD2:4259, V-B:TYR:539:CG:9844, V-B:TYR:539:C:9839, H-B:TYR:539:N:9842, V-B:PRO:540:CB:9857, V-B:PRO:540:CA:9855, H-B:ALA:541:N:9863, V-B:PRO:540:N:9856, V-A:ILE:369:CD1:3239, V-B:LEU:363:CD1:8161, V-B:TYR:531:CZ:9766, V-B:TYR:531:CE2:9765, V-B:GLU:543:CD:9880, V-B:ILE:538:CD1:9837, V-B:GLU:543:CG:9879, V-B:TYR:539:CA:9841, V-B:PRO:540:CD:9859, V-B:TYR:539:CB:9843, V-A:LEU:475:CD1:4258, V-B:ILE:538:CG2:9835, H-A:TYR:484:OH:4348, V-A:SER:385:CB:3409, V-A:LEU:373:CD1:3280, V-A:PRO:482:CB:4326, V-A:HIS:383:CE1:3394, V-A:PRO:482:CG:4327, V-A:LEU:373:CD2:3281"]

$$$$
3bg_Grossjean_2025
     RDKit          3D

 46 48  0  0  0  0  0  0  0  0999 V2000
  131.8140  125.4380   57.8950 C   0  0  0  0  0  0  0  0  0  0  0  0
  130.5380  124.8130   58.4550 C   0  0  0  0  0  0  0  0  0  0  0  0
  129.5440  124.4190   57.5530 C   0  0  0  0  0  0  0  0  0  0  0  0
  128.3600  123.8340   58.0240 C   0  0  0  0  0  0  0  0  0  0  0  0
  127.2580  123.3790   57.1080 C   0  0  0  0  0  0  0  0  0  0  0  0
  127.5240  123.0210   55.7760 C   0  0  0  0  0  0  0  0  0  0  0  0
  126.5100  122.5810   54.9310 C   0  0  0  0  0  0  0  0  0  0  0  0
  125.2050  122.4950   55.4050 C   0  0  0  0  0  0  0  0  0  0  0  0
  124.9100  122.8540   56.7140 C   0  0  0  0  0  0  0  0  0  0  0  0
  125.9270  123.2950   57.5560 C   0  0  0  0  0  0  0  0  0  0  0  0
  128.1740  123.6270   59.3550 N   0  0  0  0  0  0  0  0  0  0  0  0
  129.1310  124.0010   60.2430 C   0  0  0  0  0  0  0  0  0  0  0  0
  128.7770  123.6420   61.9570 S   0  0  0  0  0  0  0  0  0  0  0  0
  128.4670  121.8520   62.1140 C   0  0  0  0  0  0  0  0  0  0  0  0
  129.7660  121.0420   62.0590 C   0  0  0  0  0  0  0  0  0  0  0  0
  130.5010  120.9950   63.0460 O   0  0  0  0  0  0  0  0  0  0  0  0
  130.0430  120.4330   60.8930 N   0  0  0  0  0  0  0  0  0  0  0  0
  131.3020  119.7650   60.5610 C   0  0  0  0  0  0  0  0  0  0  0  0
  131.0680  118.4050   59.9160 C   0  0  0  0  0  0  0  0  0  0  0  0
  130.0220  117.5890   60.3610 C   0  0  0  0  0  0  0  0  0  0  0  0
  129.8140  116.3420   59.7790 C   0  0  0  0  0  0  0  0  0  0  0  0
  130.6450  115.9180   58.7430 C   0  0  0  0  0  0  0  0  0  0  0  0
  131.6760  116.7330   58.2800 C   0  0  0  0  0  0  0  0  0  0  0  0
  131.8840  117.9810   58.8640 C   0  0  0  0  0  0  0  0  0  0  0  0
  130.3360  124.6100   59.8360 C   0  0  0  0  0  0  0  0  0  0  0  0
  131.3620  125.0050   60.8040 C   0  0  0  0  0  0  0  0  0  0  0  0
  132.1730  125.3170   61.5680 N   0  0  0  0  0  0  0  0  0  0  0  0
  132.4619  125.7553   58.7254 H   0  0  0  0  0  0  0  0  0  0  0  0
  132.3447  124.6978   57.2781 H   0  0  0  0  0  0  0  0  0  0  0  0
  131.5545  126.3110   57.2781 H   0  0  0  0  0  0  0  0  0  0  0  0
  129.6914  124.5683   56.4732 H   0  0  0  0  0  0  0  0  0  0  0  0
  128.5532  123.0898   55.3938 H   0  0  0  0  0  0  0  0  0  0  0  0
  126.7394  122.3022   53.8920 H   0  0  0  0  0  0  0  0  0  0  0  0
  124.4032  122.1411   54.7403 H   0  0  0  0  0  0  0  0  0  0  0  0
  123.8761  122.7900   57.0841 H   0  0  0  0  0  0  0  0  0  0  0  0
  125.6857  123.5829   58.5899 H   0  0  0  0  0  0  0  0  0  0  0  0
  127.9683  121.6601   63.0755 H   0  0  0  0  0  0  0  0  0  0  0  0
  127.8337  121.5397   61.2705 H   0  0  0  0  0  0  0  0  0  0  0  0
  129.3830  120.5320   60.1360 H   0  0  0  0  0  0  0  0  0  0  0  0
  131.8674  120.3983   59.8615 H   0  0  0  0  0  0  0  0  0  0  0  0
  131.8626  119.6087   61.4944 H   0  0  0  0  0  0  0  0  0  0  0  0
  129.3633  117.9335   61.1718 H   0  0  0  0  0  0  0  0  0  0  0  0
  128.9987  115.6947   60.1344 H   0  0  0  0  0  0  0  0  0  0  0  0
  130.4851  114.9301   58.2865 H   0  0  0  0  0  0  0  0  0  0  0  0
  132.3225  116.3929   57.4576 H   0  0  0  0  0  0  0  0  0  0  0  0
  132.6907  118.6324   58.4968 H   0  0  0  0  0  0  0  0  0  0  0  0
  1  2  1  0
  2  3  2  0
  3  4  1  0
  4  5  1  0
  5  6  2  0
  6  7  1  0
  7  8  2  0
  8  9  1  0
  9 10  2  0
  4 11  2  0
 11 12  1  0
 12 13  1  0
 13 14  1  0
 14 15  1  0
 15 16  2  0
 15 17  1  0
 17 18  1  0
 18 19  1  0
 19 20  2  0
 20 21  1  0
 21 22  2  0
 22 23  1  0
 23 24  2  0
 12 25  2  0
 25 26  1  0
 26 27  3  0
 25  2  1  0
 10  5  1  0
 24 19  1  0
  1 28  1  0
  1 29  1  0
  1 30  1  0
  3 31  1  0
  6 32  1  0
  7 33  1  0
  8 34  1  0
  9 35  1  0
 10 36  1  0
 14 37  1  0
 14 38  1  0
 17 39  1  0
 18 40  1  0
 18 41  1  0
 20 42  1  0
 21 43  1  0
 22 44  1  0
 23 45  1  0
 24 46  1  0
M  END
>  <Binding energies>  (1) 
[-9.3]

>  <Ligand effiencies>  (1) 
[-0.3321428571428572]

>  <Interactions>  (1) 
["V-B:MET:535:CE:9807, V-B:TYR:539:CE2:9848, V-A:ASP:366:CB:3212, V-B:TYR:539:CZ:9849, V-B:TYR:539:CD2:9846, V-A:LEU:475:CD2:4259, V-B:TYR:539:CD1:9845, V-B:TYR:539:CG:9844, V-B:TYR:539:CE1:9847, V-B:TYR:539:C:9839, V-A:TYR:484:CE1:4345, V-B:PRO:540:CB:9857, V-B:PRO:540:CA:9855, V-B:PRO:540:N:9856, V-B:LEU:363:CD1:8161, V-B:TYR:531:CE2:9765, V-B:ILE:538:CA:9832, V-B:ILE:538:CD1:9837, V-B:PRO:540:C:9853, V-B:PRO:540:CD:9859, V-B:TYR:539:CB:9843, V-B:ALA:541:CB:9864, V-B:ILE:538:CG2:9835, H-A:TYR:484:OH:4348, V-B:ILE:538:C:9830, H-B:TYR:539:O:9840, H-A:ARG:545:NH2:4928, V-A:SER:385:CB:3409, V-B:ILE:538:CB:9834, V-B:ALA:541:CA:9862, V-B:VAL:344:CG1:7973, V-A:LEU:373:CD1:3280, V-A:PRO:482:CB:4326, V-A:HIS:383:CE1:3394, V-A:PRO:482:CG:4327, V-A:LEU:373:CD2:3281, V-B:ILE:343:CG2:7964, V-B:ILE:538:CG1:9836"]

$$$$
3bk_Grossjean_2025
     RDKit          3D

 57 58  0  0  0  0  0  0  0  0999 V2000
  125.1030  122.7550   56.3170 C   0  0  0  0  0  0  0  0  0  0  0  0
  126.3780  122.1590   56.1280 O   0  0  0  0  0  0  0  0  0  0  0  0
  127.4010  123.0970   55.8210 C   0  0  0  0  0  0  0  0  0  0  0  0
  128.1770  123.4480   57.0980 C   0  0  0  0  0  0  0  0  0  0  0  0
  128.6120  124.7990   57.0280 O   0  0  0  0  0  0  0  0  0  0  0  0
  129.9620  124.9900   57.4300 C   0  0  0  0  0  0  0  0  0  0  0  0
  130.5960  126.0890   56.5690 C   0  0  0  0  0  0  0  0  0  0  0  0
  129.5910  126.7070   55.7760 O   0  0  0  0  0  0  0  0  0  0  0  0
  129.1830  127.9820   56.2550 C   0  0  0  0  0  0  0  0  0  0  0  0
  127.9990  127.8110   57.2170 C   0  0  0  0  0  0  0  0  0  0  0  0
  127.0140  128.8860   57.0860 N   0  0  0  0  0  0  0  0  0  0  0  0
  126.2960  129.1570   55.9820 C   0  0  0  0  0  0  0  0  0  0  0  0
  126.3730  128.5050   54.9390 O   0  0  0  0  0  0  0  0  0  0  0  0
  125.3200  130.3310   56.0750 C   0  0  0  0  0  0  0  0  0  0  0  0
  124.8840  130.7210   57.7990 S   0  0  0  0  0  0  0  0  0  0  0  0
  126.2710  131.5260   58.5820 C   0  0  0  0  0  0  0  0  0  0  0  0
  127.4320  131.5240   57.8790 N   0  0  0  0  0  0  0  0  0  0  0  0
  128.5430  132.1110   58.3970 C   0  0  0  0  0  0  0  0  0  0  0  0
  129.7760  132.0830   57.5460 C   0  0  0  0  0  0  0  0  0  0  0  0
  130.9700  131.5260   58.0300 C   0  0  0  0  0  0  0  0  0  0  0  0
  132.1200  131.5020   57.2450 C   0  0  0  0  0  0  0  0  0  0  0  0
  132.0920  132.0370   55.9620 C   0  0  0  0  0  0  0  0  0  0  0  0
  130.9200  132.5920   55.4560 C   0  0  0  0  0  0  0  0  0  0  0  0
  129.7720  132.6120   56.2430 C   0  0  0  0  0  0  0  0  0  0  0  0
  128.5080  132.7280   59.6530 C   0  0  0  0  0  0  0  0  0  0  0  0
  127.3200  132.7380   60.3930 C   0  0  0  0  0  0  0  0  0  0  0  0
  127.3250  133.4210   61.7600 C   0  0  0  0  0  0  0  0  0  0  0  0
  126.1680  132.1260   59.8560 C   0  0  0  0  0  0  0  0  0  0  0  0
  124.9090  132.1220   60.6070 C   0  0  0  0  0  0  0  0  0  0  0  0
  123.9150  132.1190   61.2000 N   0  0  0  0  0  0  0  0  0  0  0  0
  124.8988  122.8504   57.3937 H   0  0  0  0  0  0  0  0  0  0  0  0
  125.0916  123.7518   55.8519 H   0  0  0  0  0  0  0  0  0  0  0  0
  124.3309  122.1245   55.8519 H   0  0  0  0  0  0  0  0  0  0  0  0
  128.0893  122.6597   55.0828 H   0  0  0  0  0  0  0  0  0  0  0  0
  126.9478  124.0094   55.4062 H   0  0  0  0  0  0  0  0  0  0  0  0
  127.5229  123.3176   57.9727 H   0  0  0  0  0  0  0  0  0  0  0  0
  129.0495  122.7848   57.1925 H   0  0  0  0  0  0  0  0  0  0  0  0
  129.9916  125.2891   58.4881 H   0  0  0  0  0  0  0  0  0  0  0  0
  130.5214  124.0517   57.3008 H   0  0  0  0  0  0  0  0  0  0  0  0
  131.0636  126.8417   57.2207 H   0  0  0  0  0  0  0  0  0  0  0  0
  131.3606  125.6467   55.9135 H   0  0  0  0  0  0  0  0  0  0  0  0
  130.0201  128.4600   56.7848 H   0  0  0  0  0  0  0  0  0  0  0  0
  128.8787  128.6128   55.4067 H   0  0  0  0  0  0  0  0  0  0  0  0
  127.5055  126.8516   57.0028 H   0  0  0  0  0  0  0  0  0  0  0  0
  128.3936  127.8408   58.2433 H   0  0  0  0  0  0  0  0  0  0  0  0
  126.8450  129.4340   57.9170 H   0  0  0  0  0  0  0  0  0  0  0  0
  125.7851  131.2166   55.6173 H   0  0  0  0  0  0  0  0  0  0  0  0
  124.3974  130.0483   55.5470 H   0  0  0  0  0  0  0  0  0  0  0  0
  130.9978  131.1021   59.0446 H   0  0  0  0  0  0  0  0  0  0  0  0
  133.0477  131.0611   57.6388 H   0  0  0  0  0  0  0  0  0  0  0  0
  133.0013  132.0216   55.3432 H   0  0  0  0  0  0  0  0  0  0  0  0
  130.9011  133.0125   54.4397 H   0  0  0  0  0  0  0  0  0  0  0  0
  128.8467  133.0487   55.8392 H   0  0  0  0  0  0  0  0  0  0  0  0
  129.4130  133.2044   60.0579 H   0  0  0  0  0  0  0  0  0  0  0  0
  127.3194  132.6572   62.5515 H   0  0  0  0  0  0  0  0  0  0  0  0
  128.2277  134.0422   61.8562 H   0  0  0  0  0  0  0  0  0  0  0  0
  126.4315  134.0553   61.8562 H   0  0  0  0  0  0  0  0  0  0  0  0
  1  2  1  0
  2  3  1  0
  3  4  1  0
  4  5  1  0
  5  6  1  0
  6  7  1  0
  7  8  1  0
  8  9  1  0
  9 10  1  0
 10 11  1  0
 11 12  1  0
 12 13  2  0
 12 14  1  0
 14 15  1  0
 15 16  1  0
 16 17  2  0
 17 18  1  0
 18 19  1  0
 19 20  2  0
 20 21  1  0
 21 22  2  0
 22 23  1  0
 23 24  2  0
 18 25  2  0
 25 26  1  0
 26 27  1  0
 26 28  2  0
 28 29  1  0
 29 30  3  0
 28 16  1  0
 24 19  1  0
  1 31  1  0
  1 32  1  0
  1 33  1  0
  3 34  1  0
  3 35  1  0
  4 36  1  0
  4 37  1  0
  6 38  1  0
  6 39  1  0
  7 40  1  0
  7 41  1  0
  9 42  1  0
  9 43  1  0
 10 44  1  0
 10 45  1  0
 11 46  1  0
 14 47  1  0
 14 48  1  0
 20 49  1  0
 21 50  1  0
 22 51  1  0
 23 52  1  0
 24 53  1  0
 25 54  1  0
 27 55  1  0
 27 56  1  0
 27 57  1  0
M  END
>  <Binding energies>  (1) 
[-7.07]

>  <Ligand effiencies>  (1) 
[-0.22806451612903228]

>  <Interactions>  (1) 
["V-A:TYR:539:CZ:4877, V-A:ALA:541:CB:4892, V-B:MET:535:CE:9807, V-B:LEU:475:CD2:9231, V-A:PRO:540:CA:4883, V-B:TYR:539:CE2:9848, H-B:LYS:534:NZ:9795, V-B:TYR:539:CZ:9849, V-A:TYR:539:CE1:4875, H-A:TYR:539:OH:4878, V-B:TYR:539:CD2:9846, H-B:TYR:531:OH:9767, V-B:TYR:539:CD1:9845, V-B:TYR:539:CE1:9847, H-B:TYR:539:N:9842, V-A:TYR:539:CD1:4873, V-A:TYR:539:C:4867, V-B:LEU:363:CD1:8161, V-B:TYR:531:CZ:9766, V-B:TYR:531:CE2:9765, V-B:ILE:538:CD1:9837, V-A:PRO:540:CB:4885, V-A:LEU:363:CD1:3189, V-A:ILE:538:CA:4860, V-A:ILE:538:CB:4862, V-A:PRO:540:N:4884, V-A:ILE:538:CG2:4863, V-B:PRO:540:CD:9859, V-B:ILE:538:CG2:9835, V-B:TYR:531:CE1:9764, V-A:TYR:539:CA:4869"]

$$$$
3ca_Grossjean_2025
     RDKit          3D

 52 54  0  0  0  0  0  0  0  0999 V2000
  124.3770  123.7300   57.2580 C   0  0  0  0  0  0  0  0  0  0  0  0
  124.1450  122.2760   56.8400 C   0  0  0  0  0  0  0  0  0  0  0  0
  125.3680  121.7150   56.3780 O   0  0  0  0  0  0  0  0  0  0  0  0
  126.3500  122.4990   55.8660 C   0  0  0  0  0  0  0  0  0  0  0  0
  126.4190  122.8130   54.6740 O   0  0  0  0  0  0  0  0  0  0  0  0
  127.3430  122.9540   56.8970 C   0  0  0  0  0  0  0  0  0  0  0  0
  128.3220  123.8900   56.5380 C   0  0  0  0  0  0  0  0  0  0  0  0
  129.2560  124.3310   57.4710 C   0  0  0  0  0  0  0  0  0  0  0  0
  129.2370  123.8410   58.7780 C   0  0  0  0  0  0  0  0  0  0  0  0
  130.2250  124.3540   59.6400 N   0  0  0  0  0  0  0  0  0  0  0  0
  131.4950  124.7250   59.3700 C   0  0  0  0  0  0  0  0  0  0  0  0
  132.0270  124.6940   58.2610 O   0  0  0  0  0  0  0  0  0  0  0  0
  132.2950  125.2410   60.5710 C   0  0  0  0  0  0  0  0  0  0  0  0
  132.5250  123.9860   61.8740 S   0  0  0  0  0  0  0  0  0  0  0  0
  131.2860  122.7070   61.7090 C   0  0  0  0  0  0  0  0  0  0  0  0
  130.0450  123.0310   62.1520 N   0  0  0  0  0  0  0  0  0  0  0  0
  129.0540  122.1200   62.0400 C   0  0  0  0  0  0  0  0  0  0  0  0
  127.6930  122.5630   62.5390 C   0  0  0  0  0  0  0  0  0  0  0  0
  129.2590  120.8520   61.5020 C   0  0  0  0  0  0  0  0  0  0  0  0
  130.5360  120.4870   61.0550 C   0  0  0  0  0  0  0  0  0  0  0  0
  130.7110  119.1120   60.4980 C   0  0  0  0  0  0  0  0  0  0  0  0
  129.9060  118.0600   60.9530 C   0  0  0  0  0  0  0  0  0  0  0  0
  130.0690  116.7740   60.4470 C   0  0  0  0  0  0  0  0  0  0  0  0
  131.0440  116.5320   59.4820 C   0  0  0  0  0  0  0  0  0  0  0  0
  131.8580  117.5640   59.0230 C   0  0  0  0  0  0  0  0  0  0  0  0
  131.6920  118.8500   59.5330 C   0  0  0  0  0  0  0  0  0  0  0  0
  131.5810  121.4400   61.1510 C   0  0  0  0  0  0  0  0  0  0  0  0
  132.9260  121.1340   60.6520 C   0  0  0  0  0  0  0  0  0  0  0  0
  133.9870  120.8910   60.2580 N   0  0  0  0  0  0  0  0  0  0  0  0
  128.2550  122.9090   59.1480 C   0  0  0  0  0  0  0  0  0  0  0  0
  127.3200  122.4710   58.2140 C   0  0  0  0  0  0  0  0  0  0  0  0
  124.3880  123.7986   58.3558 H   0  0  0  0  0  0  0  0  0  0  0  0
  125.3418  124.0767   56.8593 H   0  0  0  0  0  0  0  0  0  0  0  0
  123.5680  124.3597   56.8593 H   0  0  0  0  0  0  0  0  0  0  0  0
  123.7802  121.7000   57.7032 H   0  0  0  0  0  0  0  0  0  0  0  0
  123.3975  122.2408   56.0337 H   0  0  0  0  0  0  0  0  0  0  0  0
  128.3527  124.2797   55.5098 H   0  0  0  0  0  0  0  0  0  0  0  0
  130.0146  125.0710   57.1763 H   0  0  0  0  0  0  0  0  0  0  0  0
  129.9100  124.5070   60.5860 H   0  0  0  0  0  0  0  0  0  0  0  0
  133.2855  125.5644   60.2184 H   0  0  0  0  0  0  0  0  0  0  0  0
  131.7228  126.0699   61.0130 H   0  0  0  0  0  0  0  0  0  0  0  0
  127.6884  122.5645   63.6390 H   0  0  0  0  0  0  0  0  0  0  0  0
  127.4794  123.5770   62.1701 H   0  0  0  0  0  0  0  0  0  0  0  0
  126.9235  121.8690   62.1701 H   0  0  0  0  0  0  0  0  0  0  0  0
  128.4231  120.1408   61.4283 H   0  0  0  0  0  0  0  0  0  0  0  0
  129.1382  118.2520   61.7170 H   0  0  0  0  0  0  0  0  0  0  0  0
  129.4315  115.9531   60.8070 H   0  0  0  0  0  0  0  0  0  0  0  0
  131.1719  115.5165   59.0790 H   0  0  0  0  0  0  0  0  0  0  0  0
  132.6274  117.3654   58.2624 H   0  0  0  0  0  0  0  0  0  0  0  0
  132.3366  119.6662   59.1749 H   0  0  0  0  0  0  0  0  0  0  0  0
  128.2240  122.5239   60.1779 H   0  0  0  0  0  0  0  0  0  0  0  0
  126.5552  121.7386   58.5118 H   0  0  0  0  0  0  0  0  0  0  0  0
  1  2  1  0
  2  3  1  0
  3  4  1  0
  4  5  2  0
  4  6  1  0
  6  7  2  0
  7  8  1  0
  8  9  2  0
  9 10  1  0
 10 11  1  0
 11 12  2  0
 11 13  1  0
 13 14  1  0
 14 15  1  0
 15 16  2  0
 16 17  1  0
 17 18  1  0
 17 19  2  0
 19 20  1  0
 20 21  1  0
 21 22  2  0
 22 23  1  0
 23 24  2  0
 24 25  1  0
 25 26  2  0
 20 27  2  0
 27 28  1  0
 28 29  3  0
  9 30  1  0
 30 31  2  0
 31  6  1  0
 27 15  1  0
 26 21  1  0
  1 32  1  0
  1 33  1  0
  1 34  1  0
  2 35  1  0
  2 36  1  0
  7 37  1  0
  8 38  1  0
 10 39  1  0
 13 40  1  0
 13 41  1  0
 18 42  1  0
 18 43  1  0
 18 44  1  0
 19 45  1  0
 22 46  1  0
 23 47  1  0
 24 48  1  0
 25 49  1  0
 26 50  1  0
 30 51  1  0
 31 52  1  0
M  END
>  <Binding energies>  (1) 
[-9.09]

>  <Ligand effiencies>  (1) 
[-0.2840625]

>  <Interactions>  (1) 
["V-A:ASP:366:CG:3213, V-B:MET:535:CE:9807, V-B:TYR:539:CE2:9848, V-B:TYR:539:CZ:9849, V-A:ILE:369:CG2:3237, V-B:TYR:539:CD2:9846, V-A:LEU:475:CD2:4259, V-B:TYR:539:CG:9844, V-B:TYR:539:CE1:9847, H-B:TYR:539:OH:9850, V-B:TYR:539:C:9839, H-B:TYR:539:N:9842, V-B:PRO:540:CB:9857, V-B:PRO:540:CA:9855, V-B:PRO:540:N:9856, V-B:LEU:363:CD1:8161, V-B:TYR:531:CZ:9766, V-B:TYR:531:CE2:9765, V-B:GLU:543:CD:9880, V-B:ILE:538:CA:9832, V-B:ILE:538:CD1:9837, V-B:PRO:540:C:9853, V-B:GLU:543:CG:9879, V-B:PRO:540:CG:9858, V-B:PRO:540:CD:9859, V-B:TYR:539:CB:9843, V-A:LEU:475:CD1:4258, V-B:ALA:541:CB:9864, V-B:ILE:538:CG2:9835, H-A:TYR:484:OH:4348, V-B:ILE:538:C:9830, V-A:SER:385:CB:3409, V-B:LEU:363:CG:8160, V-B:ALA:541:CA:9862, V-A:LEU:373:CD1:3280, V-A:PRO:482:CB:4326, V-A:HIS:383:CE1:3394, V-A:PRO:482:CG:4327"]

$$$$
3cb_Grossjean_2025
     RDKit          3D

 49 51  0  0  0  0  0  0  0  0999 V2000
  130.5240  115.7630   58.2790 C   0  0  0  0  0  0  0  0  0  0  0  0
  129.8540  116.5400   59.2610 O   0  0  0  0  0  0  0  0  0  0  0  0
  130.4450  116.8270   60.4490 C   0  0  0  0  0  0  0  0  0  0  0  0
  130.7140  115.9730   61.2990 O   0  0  0  0  0  0  0  0  0  0  0  0
  130.7370  118.2900   60.6280 C   0  0  0  0  0  0  0  0  0  0  0  0
  131.8440  118.9060   60.0260 C   0  0  0  0  0  0  0  0  0  0  0  0
  132.0840  120.2640   60.2110 C   0  0  0  0  0  0  0  0  0  0  0  0
  131.2310  121.0340   61.0020 C   0  0  0  0  0  0  0  0  0  0  0  0
  131.5670  122.3980   61.1180 N   0  0  0  0  0  0  0  0  0  0  0  0
  132.4350  123.1420   60.3980 C   0  0  0  0  0  0  0  0  0  0  0  0
  133.1040  122.7260   59.4510 O   0  0  0  0  0  0  0  0  0  0  0  0
  132.5310  124.6110   60.8380 C   0  0  0  0  0  0  0  0  0  0  0  0
  131.0910  125.6420   60.3970 S   0  0  0  0  0  0  0  0  0  0  0  0
  129.6900  124.5620   60.1910 C   0  0  0  0  0  0  0  0  0  0  0  0
  129.2950  123.9650   61.3420 N   0  0  0  0  0  0  0  0  0  0  0  0
  128.2390  123.1220   61.3060 C   0  0  0  0  0  0  0  0  0  0  0  0
  127.8460  122.5010   62.6330 C   0  0  0  0  0  0  0  0  0  0  0  0
  127.5460  122.8390   60.1330 C   0  0  0  0  0  0  0  0  0  0  0  0
  127.9460  123.4320   58.9280 C   0  0  0  0  0  0  0  0  0  0  0  0
  127.1730  123.0910   57.6950 C   0  0  0  0  0  0  0  0  0  0  0  0
  125.7720  123.0870   57.7210 C   0  0  0  0  0  0  0  0  0  0  0  0
  125.0430  122.7820   56.5740 C   0  0  0  0  0  0  0  0  0  0  0  0
  125.7140  122.4820   55.3920 C   0  0  0  0  0  0  0  0  0  0  0  0
  127.1050  122.4880   55.3460 C   0  0  0  0  0  0  0  0  0  0  0  0
  127.8310  122.7960   56.4940 C   0  0  0  0  0  0  0  0  0  0  0  0
  129.0610  124.3090   58.9470 C   0  0  0  0  0  0  0  0  0  0  0  0
  129.5810  124.8830   57.7020 C   0  0  0  0  0  0  0  0  0  0  0  0
  129.9920  125.3370   56.7200 N   0  0  0  0  0  0  0  0  0  0  0  0
  130.1190  120.4260   61.6040 C   0  0  0  0  0  0  0  0  0  0  0  0
  129.8790  119.0670   61.4180 C   0  0  0  0  0  0  0  0  0  0  0  0
  131.1653  115.0193   58.7747 H   0  0  0  0  0  0  0  0  0  0  0  0
  129.7826  115.2474   57.6509 H   0  0  0  0  0  0  0  0  0  0  0  0
  131.1430  116.4205   57.6509 H   0  0  0  0  0  0  0  0  0  0  0  0
  132.5277  118.3109   59.4028 H   0  0  0  0  0  0  0  0  0  0  0  0
  132.9539  120.7345   59.7294 H   0  0  0  0  0  0  0  0  0  0  0  0
  131.0540  122.8880   61.8370 H   0  0  0  0  0  0  0  0  0  0  0  0
  132.6447  124.6331   61.9319 H   0  0  0  0  0  0  0  0  0  0  0  0
  133.3913  125.0377   60.3016 H   0  0  0  0  0  0  0  0  0  0  0  0
  128.2362  123.1175   63.4562 H   0  0  0  0  0  0  0  0  0  0  0  0
  126.7495  122.4479   62.7025 H   0  0  0  0  0  0  0  0  0  0  0  0
  128.2674  121.4873   62.7025 H   0  0  0  0  0  0  0  0  0  0  0  0
  126.6870  122.1521   60.1516 H   0  0  0  0  0  0  0  0  0  0  0  0
  125.2433  123.3268   58.6553 H   0  0  0  0  0  0  0  0  0  0  0  0
  123.9434  122.7782   56.6021 H   0  0  0  0  0  0  0  0  0  0  0  0
  125.1397  122.2380   54.4861 H   0  0  0  0  0  0  0  0  0  0  0  0
  127.6282  122.2507   54.4079 H   0  0  0  0  0  0  0  0  0  0  0  0
  128.9303  122.8077   56.4573 H   0  0  0  0  0  0  0  0  0  0  0  0
  129.4353  121.0242   62.2243 H   0  0  0  0  0  0  0  0  0  0  0  0
  129.0064  118.5982   61.8964 H   0  0  0  0  0  0  0  0  0  0  0  0
  1  2  1  0
  2  3  1  0
  3  4  2  0
  3  5  1  0
  5  6  2  0
  6  7  1  0
  7  8  2  0
  8  9  1  0
  9 10  1  0
 10 11  2  0
 10 12  1  0
 12 13  1  0
 13 14  1  0
 14 15  2  0
 15 16  1  0
 16 17  1  0
 16 18  2  0
 18 19  1  0
 19 20  1  0
 20 21  2  0
 21 22  1  0
 22 23  2  0
 23 24  1  0
 24 25  2  0
 19 26  2  0
 26 27  1  0
 27 28  3  0
  8 29  1  0
 29 30  2  0
 30  5  1  0
 26 14  1  0
 25 20  1  0
  1 31  1  0
  1 32  1  0
  1 33  1  0
  6 34  1  0
  7 35  1  0
  9 36  1  0
 12 37  1  0
 12 38  1  0
 17 39  1  0
 17 40  1  0
 17 41  1  0
 18 42  1  0
 21 43  1  0
 22 44  1  0
 23 45  1  0
 24 46  1  0
 25 47  1  0
 29 48  1  0
 30 49  1  0
M  END
>  <Binding energies>  (1) 
[-8.68]

>  <Ligand effiencies>  (1) 
[-0.27999999999999997]

>  <Interactions>  (1) 
["V-A:ASP:366:CG:3213, V-B:MET:535:CE:9807, V-B:TYR:539:CE2:9848, V-B:TYR:539:CZ:9849, V-B:TYR:539:CD2:9846, V-A:LEU:475:CD2:4259, V-B:TYR:539:CD1:9845, V-B:TYR:539:CG:9844, V-B:TYR:539:CE1:9847, H-B:TYR:539:OH:9850, V-B:TYR:539:C:9839, V-B:PRO:540:CB:9857, V-B:PRO:540:CA:9855, V-B:PRO:540:N:9856, V-B:LEU:363:CD1:8161, V-B:TYR:531:CE2:9765, V-B:GLU:543:CD:9880, V-B:ILE:538:CA:9832, V-B:ILE:538:CD1:9837, V-B:GLU:543:CG:9879, V-B:PRO:540:CD:9859, V-B:TYR:539:CB:9843, V-A:LEU:475:CD1:4258, V-B:ALA:541:CB:9864, V-B:ILE:538:CG2:9835, H-A:TYR:484:OH:4348, V-B:ILE:538:C:9830, V-A:SER:385:CB:3409, V-B:ILE:538:CB:9834, V-B:ALA:541:CA:9862, V-B:VAL:344:CG1:7973, V-A:PRO:482:CB:4326, V-A:LEU:475:CG:4257, V-A:HIS:383:CE1:3394, V-A:PRO:482:CG:4327, V-B:ILE:343:CG2:7964, V-B:ILE:343:CB:7963"]

$$$$
3ce_Grossjean_2025
     RDKit          3D

 45 47  0  0  0  0  0  0  0  0999 V2000
  123.7210  129.6160   66.4630 C   0  0  0  0  0  0  0  0  0  0  0  0
  124.5430  129.4690   65.1970 C   0  0  0  0  0  0  0  0  0  0  0  0
  125.8710  129.0360   65.2330 C   0  0  0  0  0  0  0  0  0  0  0  0
  126.5630  128.9150   64.0280 C   0  0  0  0  0  0  0  0  0  0  0  0
  125.9190  129.2260   62.8280 C   0  0  0  0  0  0  0  0  0  0  0  0
  124.5900  129.6630   62.8640 C   0  0  0  0  0  0  0  0  0  0  0  0
  123.9870  129.9430   61.6260 N   0  0  0  0  0  0  0  0  0  0  0  0
  123.7190  131.1500   61.0810 C   0  0  0  0  0  0  0  0  0  0  0  0
  123.9770  132.2350   61.6040 O   0  0  0  0  0  0  0  0  0  0  0  0
  123.0520  131.1230   59.7060 C   0  0  0  0  0  0  0  0  0  0  0  0
  124.1300  130.3870   58.4420 S   0  0  0  0  0  0  0  0  0  0  0  0
  125.6720  131.2660   58.5530 C   0  0  0  0  0  0  0  0  0  0  0  0
  125.8040  132.0080   59.6790 N   0  0  0  0  0  0  0  0  0  0  0  0
  126.9500  132.7020   59.8660 C   0  0  0  0  0  0  0  0  0  0  0  0
  127.0360  133.5000   61.1530 C   0  0  0  0  0  0  0  0  0  0  0  0
  127.9910  132.6930   58.9420 C   0  0  0  0  0  0  0  0  0  0  0  0
  127.8630  131.9530   57.7590 C   0  0  0  0  0  0  0  0  0  0  0  0
  128.9960  131.9950   56.7870 C   0  0  0  0  0  0  0  0  0  0  0  0
  130.2390  131.4490   57.1300 C   0  0  0  0  0  0  0  0  0  0  0  0
  131.3010  131.4900   56.2310 C   0  0  0  0  0  0  0  0  0  0  0  0
  131.1280  132.0850   54.9840 C   0  0  0  0  0  0  0  0  0  0  0  0
  129.9010  132.6420   54.6310 C   0  0  0  0  0  0  0  0  0  0  0  0
  128.8400  132.5980   55.5320 C   0  0  0  0  0  0  0  0  0  0  0  0
  126.6730  131.2110   57.5540 C   0  0  0  0  0  0  0  0  0  0  0  0
  126.4880  130.4050   56.3420 C   0  0  0  0  0  0  0  0  0  0  0  0
  126.3440  129.7700   55.3860 N   0  0  0  0  0  0  0  0  0  0  0  0
  123.9040  129.7770   64.0400 N   0  0  0  0  0  0  0  0  0  0  0  0
  124.3745  129.4991   67.3401 H   0  0  0  0  0  0  0  0  0  0  0  0
  123.2543  130.6119   66.4836 H   0  0  0  0  0  0  0  0  0  0  0  0
  122.9381  128.8436   66.4836 H   0  0  0  0  0  0  0  0  0  0  0  0
  126.3592  128.7962   66.1891 H   0  0  0  0  0  0  0  0  0  0  0  0
  127.6097  128.5767   64.0227 H   0  0  0  0  0  0  0  0  0  0  0  0
  126.4487  129.1288   61.8689 H   0  0  0  0  0  0  0  0  0  0  0  0
  123.8180  129.1350   61.0440 H   0  0  0  0  0  0  0  0  0  0  0  0
  122.1266  130.5320   59.7716 H   0  0  0  0  0  0  0  0  0  0  0  0
  122.8405  132.1611   59.4101 H   0  0  0  0  0  0  0  0  0  0  0  0
  126.9625  132.8180   62.0129 H   0  0  0  0  0  0  0  0  0  0  0  0
  127.9969  134.0341   61.1897 H   0  0  0  0  0  0  0  0  0  0  0  0
  126.2110  134.2266   61.1897 H   0  0  0  0  0  0  0  0  0  0  0  0
  128.9100  133.2643   59.1396 H   0  0  0  0  0  0  0  0  0  0  0  0
  130.3773  130.9842   58.1173 H   0  0  0  0  0  0  0  0  0  0  0  0
  132.2731  131.0540   56.5046 H   0  0  0  0  0  0  0  0  0  0  0  0
  131.9664  132.1154   54.2725 H   0  0  0  0  0  0  0  0  0  0  0  0
  129.7708  133.1140   53.6460 H   0  0  0  0  0  0  0  0  0  0  0  0
  127.8714  133.0404   55.2560 H   0  0  0  0  0  0  0  0  0  0  0  0
  1  2  1  0
  2  3  2  0
  3  4  1  0
  4  5  2  0
  5  6  1  0
  6  7  1  0
  7  8  1  0
  8  9  2  0
  8 10  1  0
 10 11  1  0
 11 12  1  0
 12 13  2  0
 13 14  1  0
 14 15  1  0
 14 16  2  0
 16 17  1  0
 17 18  1  0
 18 19  2  0
 19 20  1  0
 20 21  2  0
 21 22  1  0
 22 23  2  0
 17 24  2  0
 24 25  1  0
 25 26  3  0
  6 27  2  0
 27  2  1  0
 24 12  1  0
 23 18  1  0
  1 28  1  0
  1 29  1  0
  1 30  1  0
  3 31  1  0
  4 32  1  0
  5 33  1  0
  7 34  1  0
 10 35  1  0
 10 36  1  0
 15 37  1  0
 15 38  1  0
 15 39  1  0
 16 40  1  0
 19 41  1  0
 20 42  1  0
 21 43  1  0
 22 44  1  0
 23 45  1  0
M  END
>  <Binding energies>  (1) 
[-8.89]

>  <Ligand effiencies>  (1) 
[-0.3175]

>  <Interactions>  (1) 
["V-A:TYR:539:CZ:4877, V-B:ILE:369:CG2:8209, V-B:LEU:475:CD2:9231, H-B:LYS:534:NZ:9795, V-B:ILE:369:CD1:8211, H-B:GLY:454:N:9022, H-B:TYR:484:OH:9320, V-A:TYR:539:CE1:4875, V-B:ARG:545:CZ:9898, H-B:ASP:366:OD2:8187, V-B:ASP:366:CG:8185, V-B:ASP:366:CB:8184, V-B:ASP:366:CA:8182, V-A:TYR:539:CD1:4873, V-A:TYR:539:C:4867, V-A:TYR:539:CE2:4876, V-A:TYR:539:CD2:4874, V-A:ILE:538:CA:4860, V-A:ILE:538:CB:4862, V-A:TYR:539:CG:4872, V-A:ILE:538:CG2:4863, V-B:ILE:369:CB:8208, H-B:ASP:366:OD1:8186, V-B:GLY:454:CA:9021, V-B:ARG:545:CD:9895, V-B:ARG:545:CG:9894, V-B:TYR:484:CE1:9317, V-B:HIS:456:CE1:9042, H-B:ARG:545:NH2:9900, V-B:GLY:453:C:9014, H-B:ARG:545:NH1:9899, V-B:GLY:453:CA:9016, V-A:ILE:538:C:4858, V-B:ILE:369:CG1:8210"]

$$$$
3ch_Grossjean_2025
     RDKit          3D

 55 57  0  0  0  0  0  0  0  0999 V2000
  125.9050  132.1390   60.7740 C   0  0  0  0  0  0  0  0  0  0  0  0
  125.5310  130.7650   60.7580 O   0  0  0  0  0  0  0  0  0  0  0  0
  125.7480  129.9860   61.8800 C   0  0  0  0  0  0  0  0  0  0  0  0
  126.8030  129.0670   62.0050 C   0  0  0  0  0  0  0  0  0  0  0  0
  126.9670  128.3160   63.1780 C   0  0  0  0  0  0  0  0  0  0  0  0
  127.9930  127.3770   63.3980 N   0  0  0  0  0  0  0  0  0  0  0  0
  128.8900  126.8610   62.5300 C   0  0  0  0  0  0  0  0  0  0  0  0
  128.9770  127.1490   61.3360 O   0  0  0  0  0  0  0  0  0  0  0  0
  129.8910  125.8720   63.1260 C   0  0  0  0  0  0  0  0  0  0  0  0
  129.4720  124.1490   62.7320 S   0  0  0  0  0  0  0  0  0  0  0  0
  129.2550  124.0850   60.9670 C   0  0  0  0  0  0  0  0  0  0  0  0
  130.3640  124.4230   60.2640 N   0  0  0  0  0  0  0  0  0  0  0  0
  130.3010  124.4130   58.9130 C   0  0  0  0  0  0  0  0  0  0  0  0
  131.5750  124.8060   58.1900 C   0  0  0  0  0  0  0  0  0  0  0  0
  129.1440  124.0720   58.2180 C   0  0  0  0  0  0  0  0  0  0  0  0
  127.9890  123.7120   58.9270 C   0  0  0  0  0  0  0  0  0  0  0  0
  126.7670  123.3630   58.1390 C   0  0  0  0  0  0  0  0  0  0  0  0
  126.8660  122.5220   57.0240 C   0  0  0  0  0  0  0  0  0  0  0  0
  125.7340  122.1990   56.2800 C   0  0  0  0  0  0  0  0  0  0  0  0
  124.4960  122.7220   56.6470 C   0  0  0  0  0  0  0  0  0  0  0  0
  124.3820  123.5650   57.7490 C   0  0  0  0  0  0  0  0  0  0  0  0
  125.5170  123.8870   58.4900 C   0  0  0  0  0  0  0  0  0  0  0  0
  128.0450  123.6990   60.3440 C   0  0  0  0  0  0  0  0  0  0  0  0
  126.8980  123.2400   61.1330 C   0  0  0  0  0  0  0  0  0  0  0  0
  125.9920  122.8800   61.7570 N   0  0  0  0  0  0  0  0  0  0  0  0
  126.0530  128.4770   64.2210 C   0  0  0  0  0  0  0  0  0  0  0  0
  124.9900  129.3870   64.1190 C   0  0  0  0  0  0  0  0  0  0  0  0
  124.0550  129.6000   65.1180 O   0  0  0  0  0  0  0  0  0  0  0  0
  124.3890  129.2890   66.4670 C   0  0  0  0  0  0  0  0  0  0  0  0
  124.8470  130.1330   62.9420 C   0  0  0  0  0  0  0  0  0  0  0  0
  123.8200  131.0410   62.8360 O   0  0  0  0  0  0  0  0  0  0  0  0
  122.6720  130.5410   62.1650 C   0  0  0  0  0  0  0  0  0  0  0  0
  125.9982  132.4815   61.8151 H   0  0  0  0  0  0  0  0  0  0  0  0
  126.8694  132.2625   60.2596 H   0  0  0  0  0  0  0  0  0  0  0  0
  125.1362  132.7343   60.2596 H   0  0  0  0  0  0  0  0  0  0  0  0
  127.5095  128.9347   61.1723 H   0  0  0  0  0  0  0  0  0  0  0  0
  128.0860  127.0850   64.3600 H   0  0  0  0  0  0  0  0  0  0  0  0
  130.8905  126.0942   62.7240 H   0  0  0  0  0  0  0  0  0  0  0  0
  129.8652  125.9838   64.2200 H   0  0  0  0  0  0  0  0  0  0  0  0
  132.3554  125.0467   58.9269 H   0  0  0  0  0  0  0  0  0  0  0  0
  131.9115  123.9699   57.5594 H   0  0  0  0  0  0  0  0  0  0  0  0
  131.3820  125.6864   57.5594 H   0  0  0  0  0  0  0  0  0  0  0  0
  129.1359  124.0849   57.1181 H   0  0  0  0  0  0  0  0  0  0  0  0
  127.8451  122.1134   56.7336 H   0  0  0  0  0  0  0  0  0  0  0  0
  125.8169  121.5345   55.4073 H   0  0  0  0  0  0  0  0  0  0  0  0
  123.6008  122.4666   56.0610 H   0  0  0  0  0  0  0  0  0  0  0  0
  123.4014  123.9745   58.0331 H   0  0  0  0  0  0  0  0  0  0  0  0
  125.4304  124.5580   59.3574 H   0  0  0  0  0  0  0  0  0  0  0  0
  126.1682  127.8805   65.1380 H   0  0  0  0  0  0  0  0  0  0  0  0
  123.7560  129.8784   67.1467 H   0  0  0  0  0  0  0  0  0  0  0  0
  124.2224  128.2169   66.6482 H   0  0  0  0  0  0  0  0  0  0  0  0
  125.4465  129.5315   66.6482 H   0  0  0  0  0  0  0  0  0  0  0  0
  121.9266  130.2163   62.9059 H   0  0  0  0  0  0  0  0  0  0  0  0
  122.2416  131.3332   61.5348 H   0  0  0  0  0  0  0  0  0  0  0  0
  122.9589  129.6863   61.5348 H   0  0  0  0  0  0  0  0  0  0  0  0
  1  2  1  0
  2  3  1  0
  3  4  2  0
  4  5  1  0
  5  6  1  0
  6  7  1  0
  7  8  2  0
  7  9  1  0
  9 10  1  0
 10 11  1  0
 11 12  2  0
 12 13  1  0
 13 14  1  0
 13 15  2  0
 15 16  1  0
 16 17  1  0
 17 18  2  0
 18 19  1  0
 19 20  2  0
 20 21  1  0
 21 22  2  0
 16 23  2  0
 23 24  1  0
 24 25  3  0
  5 26  2  0
 26 27  1  0
 27 28  1  0
 28 29  1  0
 27 30  2  0
 30 31  1  0
 31 32  1  0
 30  3  1  0
 23 11  1  0
 22 17  1  0
  1 33  1  0
  1 34  1  0
  1 35  1  0
  4 36  1  0
  6 37  1  0
  9 38  1  0
  9 39  1  0
 14 40  1  0
 14 41  1  0
 14 42  1  0
 15 43  1  0
 18 44  1  0
 19 45  1  0
 20 46  1  0
 21 47  1  0
 22 48  1  0
 26 49  1  0
 29 50  1  0
 29 51  1  0
 29 52  1  0
 32 53  1  0
 32 54  1  0
 32 55  1  0
M  END
>  <Binding energies>  (1) 
[-8.32]

>  <Ligand effiencies>  (1) 
[-0.25212121212121213]

>  <Interactions>  (1) 
["V-B:TYR:539:CE2:9848, V-A:GLU:543:CD:4908, V-B:TYR:539:CZ:9849, V-B:ILE:369:CD1:8211, H-B:GLY:454:N:9022, H-B:TYR:484:OH:9320, V-B:ARG:545:CZ:9898, V-B:TYR:539:CD2:9846, V-B:TYR:539:C:9839, V-B:PRO:540:CB:9857, V-B:PRO:540:CA:9855, H-B:ALA:541:N:9863, V-B:PRO:540:N:9856, V-B:LEU:363:CD1:8161, H-B:GLU:543:OE2:9882, V-B:TYR:531:CE2:9765, V-B:GLU:543:CD:9880, H-B:GLU:543:OE1:9881, V-B:ILE:538:CA:9832, V-B:ILE:538:CD1:9837, V-B:PRO:540:CG:9858, V-B:TYR:539:CA:9841, V-B:PRO:540:CD:9859, V-B:ILE:538:CG2:9835, H-A:TYR:484:OH:4348, V-B:ILE:538:C:9830, V-B:ARG:545:CD:9895, H-B:ARG:545:NE:9896, V-B:ARG:545:CG:9894, V-B:TYR:484:CZ:9319, V-B:TYR:484:CE1:9317, V-B:HIS:456:CE1:9042, V-B:GLY:453:C:9014, H-B:ARG:545:NH1:9899, V-B:GLY:453:CA:9016"]

$$$$
3ci_Grossjean_2025
     RDKit          3D

 39 41  0  0  0  0  0  0  0  0999 V2000
  129.6130  121.2730   61.7670 C   0  0  0  0  0  0  0  0  0  0  0  0
  129.5030  122.2080   60.5770 C   0  0  0  0  0  0  0  0  0  0  0  0
  128.4050  122.1770   59.7220 C   0  0  0  0  0  0  0  0  0  0  0  0
  128.3410  123.0720   58.6450 C   0  0  0  0  0  0  0  0  0  0  0  0
  127.1370  123.0130   57.7630 C   0  0  0  0  0  0  0  0  0  0  0  0
  125.8730  123.3700   58.2510 C   0  0  0  0  0  0  0  0  0  0  0  0
  124.7520  123.3050   57.4270 C   0  0  0  0  0  0  0  0  0  0  0  0
  124.8900  122.8750   56.1100 C   0  0  0  0  0  0  0  0  0  0  0  0
  126.1380  122.5080   55.6120 C   0  0  0  0  0  0  0  0  0  0  0  0
  127.2560  122.5750   56.4380 C   0  0  0  0  0  0  0  0  0  0  0  0
  129.4150  123.9790   58.4580 C   0  0  0  0  0  0  0  0  0  0  0  0
  129.4230  124.9090   57.3230 C   0  0  0  0  0  0  0  0  0  0  0  0
  129.4280  125.6440   56.4280 N   0  0  0  0  0  0  0  0  0  0  0  0
  130.4910  123.9460   59.3770 C   0  0  0  0  0  0  0  0  0  0  0  0
  131.8850  125.0590   59.2490 S   0  0  0  0  0  0  0  0  0  0  0  0
  133.3630  124.2670   59.9650 C   0  0  0  0  0  0  0  0  0  0  0  0
  133.2630  124.0500   61.4790 C   0  0  0  0  0  0  0  0  0  0  0  0
  133.1830  122.9010   61.9180 O   0  0  0  0  0  0  0  0  0  0  0  0
  133.2550  125.1710   62.2330 N   0  0  0  0  0  0  0  0  0  0  0  0
  133.2020  125.2530   63.6180 C   0  0  0  0  0  0  0  0  0  0  0  0
  132.0230  125.5000   64.3200 C   0  0  0  0  0  0  0  0  0  0  0  0
  132.3910  125.5060   65.6470 C   0  0  0  0  0  0  0  0  0  0  0  0
  133.7230  125.2740   65.7370 O   0  0  0  0  0  0  0  0  0  0  0  0
  134.2260  125.1160   64.4450 N   0  0  0  0  0  0  0  0  0  0  0  0
  130.5310  123.0690   60.4120 N   0  0  0  0  0  0  0  0  0  0  0  0
  129.5445  121.8548   62.6980 H   0  0  0  0  0  0  0  0  0  0  0  0
  128.7951  120.5382   61.7328 H   0  0  0  0  0  0  0  0  0  0  0  0
  130.5791  120.7481   61.7328 H   0  0  0  0  0  0  0  0  0  0  0  0
  127.5926  121.4547   59.8904 H   0  0  0  0  0  0  0  0  0  0  0  0
  125.7652  123.7043   59.2934 H   0  0  0  0  0  0  0  0  0  0  0  0
  123.7633  123.5918   57.8145 H   0  0  0  0  0  0  0  0  0  0  0  0
  124.0060  122.8247   55.4573 H   0  0  0  0  0  0  0  0  0  0  0  0
  126.2393  122.1670   54.5711 H   0  0  0  0  0  0  0  0  0  0  0  0
  128.2414  122.2815   56.0470 H   0  0  0  0  0  0  0  0  0  0  0  0
  133.5039  123.2893   59.4810 H   0  0  0  0  0  0  0  0  0  0  0  0
  134.2121  124.9438   59.7889 H   0  0  0  0  0  0  0  0  0  0  0  0
  133.3200  126.0540   61.7490 H   0  0  0  0  0  0  0  0  0  0  0  0
  131.0168  125.6562   63.9040 H   0  0  0  0  0  0  0  0  0  0  0  0
  131.7129  125.6723   66.4970 H   0  0  0  0  0  0  0  0  0  0  0  0
  1  2  1  0
  2  3  2  0
  3  4  1  0
  4  5  1  0
  5  6  2  0
  6  7  1  0
  7  8  2  0
  8  9  1  0
  9 10  2  0
  4 11  2  0
 11 12  1  0
 12 13  3  0
 11 14  1  0
 14 15  1  0
 15 16  1  0
 16 17  1  0
 17 18  2  0
 17 19  1  0
 19 20  1  0
 20 21  1  0
 21 22  2  0
 22 23  1  0
 23 24  1  0
 14 25  2  0
 25  2  1  0
 10  5  1  0
 24 20  2  0
  1 26  1  0
  1 27  1  0
  1 28  1  0
  3 29  1  0
  6 30  1  0
  7 31  1  0
  8 32  1  0
  9 33  1  0
 10 34  1  0
 16 35  1  0
 16 36  1  0
 19 37  1  0
 21 38  1  0
 22 39  1  0
M  END
>  <Binding energies>  (1) 
[-8.47]

>  <Ligand effiencies>  (1) 
[-0.3257692307692308]

>  <Interactions>  (1) 
["V-A:ASP:366:CG:3213, V-B:TYR:539:CE2:9848, V-A:GLU:543:CD:4908, V-B:TYR:539:CZ:9849, V-A:ILE:369:CG2:3237, V-B:TYR:539:CD2:9846, V-A:ARG:545:CZ:4926, V-A:LEU:475:CD2:4259, V-B:TYR:539:CD1:9845, V-B:TYR:539:CG:9844, V-A:TYR:484:CZ:4347, V-B:TYR:539:CE1:9847, H-B:TYR:539:OH:9850, V-B:TYR:539:C:9839, V-B:PRO:540:CB:9857, V-B:PRO:540:CA:9855, V-B:PRO:540:N:9856, V-A:ILE:369:CD1:3239, V-B:LEU:363:CD1:8161, V-B:TYR:531:CZ:9766, V-B:TYR:531:CE2:9765, V-B:ILE:538:CA:9832, V-B:ILE:538:CD1:9837, H-A:ASP:366:OD1:3214, H-A:ASP:366:OD2:3215, V-B:PRO:540:CD:9859, V-B:ALA:541:CB:9864, H-A:GLY:454:N:4050, V-B:ILE:538:CG2:9835, H-A:TYR:484:OH:4348, V-B:ILE:538:C:9830, H-A:ARG:545:NH2:4928, V-A:TYR:484:CE2:4346, H-A:ARG:545:NE:4924, H-A:ARG:545:NH1:4927, V-A:ARG:545:CD:4923, V-A:HIS:456:CE1:4070"]

$$$$
3cj_Grossjean_2025
     RDKit          3D

 39 41  0  0  0  0  0  0  0  0999 V2000
  131.4990  126.1720   56.5460 C   0  0  0  0  0  0  0  0  0  0  0  0
  130.5470  125.3780   57.4200 C   0  0  0  0  0  0  0  0  0  0  0  0
  129.3320  124.9040   56.9300 C   0  0  0  0  0  0  0  0  0  0  0  0
  128.4940  124.1540   57.7660 C   0  0  0  0  0  0  0  0  0  0  0  0
  127.2330  123.6120   57.1810 C   0  0  0  0  0  0  0  0  0  0  0  0
  126.0300  123.6820   57.8930 C   0  0  0  0  0  0  0  0  0  0  0  0
  124.8570  123.1640   57.3520 C   0  0  0  0  0  0  0  0  0  0  0  0
  124.8840  122.5670   56.0950 C   0  0  0  0  0  0  0  0  0  0  0  0
  126.0740  122.4810   55.3780 C   0  0  0  0  0  0  0  0  0  0  0  0
  127.2470  123.0000   55.9220 C   0  0  0  0  0  0  0  0  0  0  0  0
  128.9010  123.9310   59.1050 C   0  0  0  0  0  0  0  0  0  0  0  0
  128.0550  123.1790   60.0360 C   0  0  0  0  0  0  0  0  0  0  0  0
  127.3860  122.5840   60.7710 N   0  0  0  0  0  0  0  0  0  0  0  0
  130.1520  124.4450   59.5150 C   0  0  0  0  0  0  0  0  0  0  0  0
  130.8430  124.1230   61.1240 S   0  0  0  0  0  0  0  0  0  0  0  0
  131.9790  122.7220   60.8730 C   0  0  0  0  0  0  0  0  0  0  0  0
  131.2970  121.3780   61.1470 C   0  0  0  0  0  0  0  0  0  0  0  0
  130.4800  121.2880   62.0660 O   0  0  0  0  0  0  0  0  0  0  0  0
  131.6320  120.3760   60.3050 N   0  0  0  0  0  0  0  0  0  0  0  0
  131.0640  119.1140   60.2540 C   0  0  0  0  0  0  0  0  0  0  0  0
  130.0720  118.6440   60.9790 N   0  0  0  0  0  0  0  0  0  0  0  0
  129.7700  117.4070   60.6400 C   0  0  0  0  0  0  0  0  0  0  0  0
  130.5280  116.8450   59.6160 C   0  0  0  0  0  0  0  0  0  0  0  0
  131.7000  118.0100   59.0760 S   0  0  0  0  0  0  0  0  0  0  0  0
  130.9640  125.1460   58.6850 N   0  0  0  0  0  0  0  0  0  0  0  0
  132.1881  126.7467   57.1823 H   0  0  0  0  0  0  0  0  0  0  0  0
  132.0749  125.4828   55.9109 H   0  0  0  0  0  0  0  0  0  0  0  0
  130.9244  126.8623   55.9109 H   0  0  0  0  0  0  0  0  0  0  0  0
  129.0324  125.1172   55.8933 H   0  0  0  0  0  0  0  0  0  0  0  0
  126.0115  124.1502   58.8882 H   0  0  0  0  0  0  0  0  0  0  0  0
  123.9138  123.2261   57.9147 H   0  0  0  0  0  0  0  0  0  0  0  0
  123.9572  122.1597   55.6646 H   0  0  0  0  0  0  0  0  0  0  0  0
  126.0882  122.0054   54.3862 H   0  0  0  0  0  0  0  0  0  0  0  0
  128.1893  122.9285   55.3591 H   0  0  0  0  0  0  0  0  0  0  0  0
  132.3349  122.7347   59.8322 H   0  0  0  0  0  0  0  0  0  0  0  0
  132.8154  122.8303   61.5792 H   0  0  0  0  0  0  0  0  0  0  0  0
  132.3030  120.5850   59.5810 H   0  0  0  0  0  0  0  0  0  0  0  0
  128.9636  116.8491   61.1384 H   0  0  0  0  0  0  0  0  0  0  0  0
  130.4051  115.8285   59.2139 H   0  0  0  0  0  0  0  0  0  0  0  0
  1  2  1  0
  2  3  2  0
  3  4  1  0
  4  5  1  0
  5  6  2  0
  6  7  1  0
  7  8  2  0
  8  9  1  0
  9 10  2  0
  4 11  2  0
 11 12  1  0
 12 13  3  0
 11 14  1  0
 14 15  1  0
 15 16  1  0
 16 17  1  0
 17 18  2  0
 17 19  1  0
 19 20  1  0
 20 21  2  0
 21 22  1  0
 22 23  2  0
 23 24  1  0
 14 25  2  0
 25  2  1  0
 10  5  1  0
 24 20  1  0
  1 26  1  0
  1 27  1  0
  1 28  1  0
  3 29  1  0
  6 30  1  0
  7 31  1  0
  8 32  1  0
  9 33  1  0
 10 34  1  0
 16 35  1  0
 16 36  1  0
 19 37  1  0
 22 38  1  0
 23 39  1  0
M  END
>  <Binding energies>  (1) 
[-8.01]

>  <Ligand effiencies>  (1) 
[-0.3080769230769231]

>  <Interactions>  (1) 
["V-B:MET:535:CE:9807, V-B:TYR:539:CE2:9848, V-B:TYR:539:CZ:9849, V-B:TYR:539:CD2:9846, V-A:LEU:475:CD2:4259, V-B:TYR:539:CD1:9845, V-B:TYR:539:CG:9844, V-B:TYR:539:CE1:9847, V-B:TYR:539:C:9839, V-B:PRO:540:CB:9857, V-B:PRO:540:CA:9855, H-B:ALA:541:N:9863, V-B:PRO:540:N:9856, V-B:LEU:363:CD1:8161, V-B:TYR:531:CE2:9765, V-B:ILE:538:CA:9832, V-B:ILE:538:CD1:9837, V-B:PRO:540:CD:9859, V-B:TYR:539:CB:9843, V-B:ILE:538:CG2:9835, H-A:TYR:484:OH:4348, V-B:ILE:538:C:9830, V-A:SER:385:CB:3409, V-B:ILE:538:CB:9834, V-A:LEU:373:CD1:3280, V-A:PRO:482:CB:4326, V-A:PRO:482:CG:4327"]

$$$$
3ck_Grossjean_2025
     RDKit          3D

 57 58  0  0  0  0  0  0  0  0999 V2000
  130.4980  115.9990   58.4080 C   0  0  0  0  0  0  0  0  0  0  0  0
  130.0420  116.6930   59.5580 O   0  0  0  0  0  0  0  0  0  0  0  0
  130.8720  117.7860   59.9260 C   0  0  0  0  0  0  0  0  0  0  0  0
  131.9680  117.9760   58.8700 C   0  0  0  0  0  0  0  0  0  0  0  0
  132.6590  119.1930   59.1230 O   0  0  0  0  0  0  0  0  0  0  0  0
  132.1390  119.9340   60.2190 C   0  0  0  0  0  0  0  0  0  0  0  0
  133.1320  121.0420   60.5910 C   0  0  0  0  0  0  0  0  0  0  0  0
  132.4390  122.2820   60.5950 O   0  0  0  0  0  0  0  0  0  0  0  0
  132.8880  123.2180   59.6270 C   0  0  0  0  0  0  0  0  0  0  0  0
  133.2900  124.5300   60.3280 C   0  0  0  0  0  0  0  0  0  0  0  0
  132.2930  125.0170   61.2860 N   0  0  0  0  0  0  0  0  0  0  0  0
  132.4560  125.0900   62.6190 C   0  0  0  0  0  0  0  0  0  0  0  0
  133.5010  124.7700   63.1900 O   0  0  0  0  0  0  0  0  0  0  0  0
  131.2430  125.6110   63.4070 C   0  0  0  0  0  0  0  0  0  0  0  0
  129.7620  125.9850   62.4070 S   0  0  0  0  0  0  0  0  0  0  0  0
  129.2340  124.5000   61.5660 C   0  0  0  0  0  0  0  0  0  0  0  0
  129.6450  123.3330   62.1220 N   0  0  0  0  0  0  0  0  0  0  0  0
  129.2860  122.1700   61.5360 C   0  0  0  0  0  0  0  0  0  0  0  0
  129.7850  120.9080   62.2130 C   0  0  0  0  0  0  0  0  0  0  0  0
  128.5090  122.1210   60.3810 C   0  0  0  0  0  0  0  0  0  0  0  0
  128.0780  123.3130   59.7850 C   0  0  0  0  0  0  0  0  0  0  0  0
  127.2670  123.2120   58.5350 C   0  0  0  0  0  0  0  0  0  0  0  0
  125.8850  123.4330   58.5730 C   0  0  0  0  0  0  0  0  0  0  0  0
  125.1210  123.3310   57.4120 C   0  0  0  0  0  0  0  0  0  0  0  0
  125.7370  123.0010   56.2090 C   0  0  0  0  0  0  0  0  0  0  0  0
  127.1100  122.7710   56.1560 C   0  0  0  0  0  0  0  0  0  0  0  0
  127.8700  122.8730   57.3170 C   0  0  0  0  0  0  0  0  0  0  0  0
  128.4380  124.5410   60.3970 C   0  0  0  0  0  0  0  0  0  0  0  0
  127.9790  125.8190   59.8410 C   0  0  0  0  0  0  0  0  0  0  0  0
  127.6170  126.8270   59.4030 N   0  0  0  0  0  0  0  0  0  0  0  0
  131.0776  115.1169   58.7179 H   0  0  0  0  0  0  0  0  0  0  0  0
  129.6344  115.6778   57.8072 H   0  0  0  0  0  0  0  0  0  0  0  0
  131.1356  116.6641   57.8072 H   0  0  0  0  0  0  0  0  0  0  0  0
  130.2649  118.7009   59.9927 H   0  0  0  0  0  0  0  0  0  0  0  0
  131.3359  117.5809   60.9021 H   0  0  0  0  0  0  0  0  0  0  0  0
  132.6752  117.1349   58.9191 H   0  0  0  0  0  0  0  0  0  0  0  0
  131.5129  118.0120   57.8692 H   0  0  0  0  0  0  0  0  0  0  0  0
  131.1752  120.3826   59.9363 H   0  0  0  0  0  0  0  0  0  0  0  0
  131.9887  119.2663   61.0801 H   0  0  0  0  0  0  0  0  0  0  0  0
  133.5497  120.8466   61.5897 H   0  0  0  0  0  0  0  0  0  0  0  0
  133.9557  121.0716   59.8626 H   0  0  0  0  0  0  0  0  0  0  0  0
  133.7576  122.8057   59.0942 H   0  0  0  0  0  0  0  0  0  0  0  0
  132.0792  123.4191   58.9090 H   0  0  0  0  0  0  0  0  0  0  0  0
  134.2345  124.3608   60.8659 H   0  0  0  0  0  0  0  0  0  0  0  0
  133.3838  125.2967   59.5448 H   0  0  0  0  0  0  0  0  0  0  0  0
  131.4110  125.3140   60.8950 H   0  0  0  0  0  0  0  0  0  0  0  0
  130.9673  124.8477   64.1495 H   0  0  0  0  0  0  0  0  0  0  0  0
  131.5579  126.5666   63.8516 H   0  0  0  0  0  0  0  0  0  0  0  0
  129.7354  121.0334   63.3047 H   0  0  0  0  0  0  0  0  0  0  0  0
  129.1555  120.0574   61.9127 H   0  0  0  0  0  0  0  0  0  0  0  0
  130.8260  120.7179   61.9127 H   0  0  0  0  0  0  0  0  0  0  0  0
  128.2354  121.1514   59.9393 H   0  0  0  0  0  0  0  0  0  0  0  0
  125.3988  123.6889   59.5260 H   0  0  0  0  0  0  0  0  0  0  0  0
  124.0363  123.5105   57.4466 H   0  0  0  0  0  0  0  0  0  0  0  0
  125.1349  122.9210   55.2919 H   0  0  0  0  0  0  0  0  0  0  0  0
  127.5906  122.5102   55.2015 H   0  0  0  0  0  0  0  0  0  0  0  0
  128.9533  122.6859   57.2781 H   0  0  0  0  0  0  0  0  0  0  0  0
  1  2  1  0
  2  3  1  0
  3  4  1  0
  4  5  1  0
  5  6  1  0
  6  7  1  0
  7  8  1  0
  8  9  1  0
  9 10  1  0
 10 11  1  0
 11 12  1  0
 12 13  2  0
 12 14  1  0
 14 15  1  0
 15 16  1  0
 16 17  2  0
 17 18  1  0
 18 19  1  0
 18 20  2  0
 20 21  1  0
 21 22  1  0
 22 23  2  0
 23 24  1  0
 24 25  2  0
 25 26  1  0
 26 27  2  0
 21 28  2  0
 28 29  1  0
 29 30  3  0
 28 16  1  0
 27 22  1  0
  1 31  1  0
  1 32  1  0
  1 33  1  0
  3 34  1  0
  3 35  1  0
  4 36  1  0
  4 37  1  0
  6 38  1  0
  6 39  1  0
  7 40  1  0
  7 41  1  0
  9 42  1  0
  9 43  1  0
 10 44  1  0
 10 45  1  0
 11 46  1  0
 14 47  1  0
 14 48  1  0
 19 49  1  0
 19 50  1  0
 19 51  1  0
 20 52  1  0
 23 53  1  0
 24 54  1  0
 25 55  1  0
 26 56  1  0
 27 57  1  0
M  END
>  <Binding energies>  (1) 
[-7.11]

>  <Ligand effiencies>  (1) 
[-0.22935483870967743]

>  <Interactions>  (1) 
["V-A:ASP:366:CG:3213, V-B:MET:535:CE:9807, V-B:TYR:539:CE2:9848, V-A:GLU:543:CD:4908, V-B:TYR:539:CZ:9849, V-A:ILE:369:CG2:3237, V-B:TYR:539:CD2:9846, V-A:ARG:545:CZ:4926, V-A:LEU:475:CD2:4259, V-B:TYR:539:CD1:9845, V-B:TYR:539:CG:9844, V-B:TYR:539:CE1:9847, V-B:TYR:539:C:9839, V-A:TYR:484:CE1:4345, V-B:PRO:540:CB:9857, V-B:PRO:540:CA:9855, V-B:PRO:540:N:9856, V-B:TYR:539:CB:9843, V-B:ALA:541:CB:9864, H-A:GLY:454:N:4050, H-A:TYR:484:OH:4348, H-A:ARG:545:NH2:4928, V-A:SER:385:CB:3409, V-B:VAL:344:CG1:7973, V-A:LEU:373:CD1:3280, V-A:HIS:383:CE1:3394, V-B:ILE:343:CG2:7964, V-B:ILE:343:CB:7963"]

$$$$
4aa_Grossjean_2025
     RDKit          3D

 45 47  0  0  0  0  0  0  0  0999 V2000
  132.9260  131.5630   56.7650 C   0  0  0  0  0  0  0  0  0  0  0  0
  132.2070  131.9410   55.4660 C   0  0  0  0  0  0  0  0  0  0  0  0
  131.2940  133.0000   55.7230 O   0  0  0  0  0  0  0  0  0  0  0  0
  129.9520  132.7970   55.6680 C   0  0  0  0  0  0  0  0  0  0  0  0
  129.2750  132.9960   54.6540 O   0  0  0  0  0  0  0  0  0  0  0  0
  129.3720  132.3110   56.9640 C   0  0  0  0  0  0  0  0  0  0  0  0
  128.0320  131.9040   57.0040 C   0  0  0  0  0  0  0  0  0  0  0  0
  127.4630  131.4540   58.1920 C   0  0  0  0  0  0  0  0  0  0  0  0
  128.2230  131.3920   59.3610 C   0  0  0  0  0  0  0  0  0  0  0  0
  127.5460  130.9290   60.5060 N   0  0  0  0  0  0  0  0  0  0  0  0
  127.0270  129.7080   60.7800 C   0  0  0  0  0  0  0  0  0  0  0  0
  127.0320  128.7610   59.9930 O   0  0  0  0  0  0  0  0  0  0  0  0
  126.4120  129.5730   62.1020 C   0  0  0  0  0  0  0  0  0  0  0  0
  124.6880  129.8840   62.3190 S   0  0  0  0  0  0  0  0  0  0  0  0
  124.7990  129.5690   64.0360 C   0  0  0  0  0  0  0  0  0  0  0  0
  123.7360  129.6460   64.8370 N   0  0  0  0  0  0  0  0  0  0  0  0
  123.9600  129.3820   66.1480 C   0  0  0  0  0  0  0  0  0  0  0  0
  122.7380  129.4800   67.0440 C   0  0  0  0  0  0  0  0  0  0  0  0
  125.2060  129.0440   66.6690 C   0  0  0  0  0  0  0  0  0  0  0  0
  126.3190  128.9630   65.8250 C   0  0  0  0  0  0  0  0  0  0  0  0
  127.6590  128.5890   66.4400 C   0  0  0  0  0  0  0  0  0  0  0  0
  126.1260  129.2370   64.4440 C   0  0  0  0  0  0  0  0  0  0  0  0
  127.0260  129.2500   63.3220 C   0  0  0  0  0  0  0  0  0  0  0  0
  128.3630  128.9670   63.4540 N   0  0  0  0  0  0  0  0  0  0  0  0
  129.5640  131.8020   59.3330 C   0  0  0  0  0  0  0  0  0  0  0  0
  130.1300  132.2560   58.1440 C   0  0  0  0  0  0  0  0  0  0  0  0
  132.3198  131.8817   57.6258 H   0  0  0  0  0  0  0  0  0  0  0  0
  133.0693  130.4730   56.8010 H   0  0  0  0  0  0  0  0  0  0  0  0
  133.9052  132.0629   56.8010 H   0  0  0  0  0  0  0  0  0  0  0  0
  132.9458  132.2665   54.7189 H   0  0  0  0  0  0  0  0  0  0  0  0
  131.6588  131.0681   55.0819 H   0  0  0  0  0  0  0  0  0  0  0  0
  127.4239  131.9404   56.0881 H   0  0  0  0  0  0  0  0  0  0  0  0
  126.4074  131.1452   58.2096 H   0  0  0  0  0  0  0  0  0  0  0  0
  127.4230  131.6300   61.2240 H   0  0  0  0  0  0  0  0  0  0  0  0
  123.0529  129.4547   68.0977 H   0  0  0  0  0  0  0  0  0  0  0  0
  122.2097  130.4234   66.8417 H   0  0  0  0  0  0  0  0  0  0  0  0
  122.0661  128.6329   66.8417 H   0  0  0  0  0  0  0  0  0  0  0  0
  125.3155  128.8406   67.7445 H   0  0  0  0  0  0  0  0  0  0  0  0
  127.5781  128.6116   67.5368 H   0  0  0  0  0  0  0  0  0  0  0  0
  127.9425  127.5774   66.1140 H   0  0  0  0  0  0  0  0  0  0  0  0
  128.4254  129.3076   66.1140 H   0  0  0  0  0  0  0  0  0  0  0  0
  128.6880  128.1630   63.9710 H   0  0  0  0  0  0  0  0  0  0  0  0
  129.0690  129.5580   63.0390 H   0  0  0  0  0  0  0  0  0  0  0  0
  130.1692  131.7650   60.2508 H   0  0  0  0  0  0  0  0  0  0  0  0
  131.1826  132.5749   58.1297 H   0  0  0  0  0  0  0  0  0  0  0  0
  1  2  1  0
  2  3  1  0
  3  4  1  0
  4  5  2  0
  4  6  1  0
  6  7  2  0
  7  8  1  0
  8  9  2  0
  9 10  1  0
 10 11  1  0
 11 12  2  0
 11 13  1  0
 13 14  1  0
 14 15  1  0
 15 16  2  0
 16 17  1  0
 17 18  1  0
 17 19  2  0
 19 20  1  0
 20 21  1  0
 20 22  2  0
 22 23  1  0
 23 24  1  0
  9 25  1  0
 25 26  2  0
 26  6  1  0
 23 13  2  0
 22 15  1  0
  1 27  1  0
  1 28  1  0
  1 29  1  0
  2 30  1  0
  2 31  1  0
  7 32  1  0
  8 33  1  0
 10 34  1  0
 18 35  1  0
 18 36  1  0
 18 37  1  0
 19 38  1  0
 21 39  1  0
 21 40  1  0
 21 41  1  0
 24 42  1  0
 24 43  1  0
 25 44  1  0
 26 45  1  0
M  END
>  <Binding energies>  (1) 
[-7.38]

>  <Ligand effiencies>  (1) 
[-0.25448275862068964]

>  <Interactions>  (1) 
["V-A:TYR:539:CZ:4877, V-A:PRO:540:CA:4883, V-A:GLU:543:CD:4908, H-B:GLY:454:N:9022, H-B:TYR:484:OH:9320, V-A:GLU:543:CG:4907, V-A:TYR:539:CE1:4875, V-B:ARG:545:CZ:9898, V-A:TYR:539:CD1:4873, V-A:TYR:539:C:4867, H-B:GLU:543:OE2:9882, V-B:GLU:543:CD:9880, V-A:TYR:531:CE2:4793, V-A:PRO:540:CB:4885, V-A:LEU:363:CD1:3189, V-A:ILE:538:CA:4860, H-A:TYR:539:N:4870, V-A:PRO:540:N:4884, V-A:TYR:539:CG:4872, H-A:GLU:543:OE1:4909, V-A:ILE:538:CG2:4863, H-A:GLU:543:OE2:4910, V-B:GLY:454:CA:9021, V-B:ARG:545:CD:9895, H-B:ARG:545:NE:9896, V-B:ARG:545:CG:9894, V-B:TYR:484:CZ:9319, V-B:TYR:484:CE1:9317, V-B:HIS:456:CE1:9042, V-B:GLY:453:C:9014, V-B:ILE:455:C:9024, H-B:ARG:545:NH1:9899, V-B:GLY:453:CA:9016, V-A:TYR:539:CA:4869, V-A:TYR:531:CZ:4794, V-B:ARG:545:CB:9893"]

$$$$
4ab_Grossjean_2025
     RDKit          3D

 42 44  0  0  0  0  0  0  0  0999 V2000
  132.6740  132.0370   55.4950 C   0  0  0  0  0  0  0  0  0  0  0  0
  131.7210  133.0420   55.8100 O   0  0  0  0  0  0  0  0  0  0  0  0
  130.3900  132.8010   55.6990 C   0  0  0  0  0  0  0  0  0  0  0  0
  129.7440  133.0080   54.6660 O   0  0  0  0  0  0  0  0  0  0  0  0
  129.7780  132.2660   56.9620 C   0  0  0  0  0  0  0  0  0  0  0  0
  128.4360  132.5550   57.2460 C   0  0  0  0  0  0  0  0  0  0  0  0
  127.8400  132.0740   58.4090 C   0  0  0  0  0  0  0  0  0  0  0  0
  128.5680  131.2910   59.3050 C   0  0  0  0  0  0  0  0  0  0  0  0
  127.8690  130.8660   60.4510 N   0  0  0  0  0  0  0  0  0  0  0  0
  126.9350  129.8940   60.5940 C   0  0  0  0  0  0  0  0  0  0  0  0
  126.4960  129.2130   59.6670 O   0  0  0  0  0  0  0  0  0  0  0  0
  126.4360  129.7040   61.9570 C   0  0  0  0  0  0  0  0  0  0  0  0
  124.7360  129.9950   62.3320 S   0  0  0  0  0  0  0  0  0  0  0  0
  124.9930  129.6140   64.0200 C   0  0  0  0  0  0  0  0  0  0  0  0
  124.0030  129.6540   64.9120 N   0  0  0  0  0  0  0  0  0  0  0  0
  124.3370  129.3380   66.1870 C   0  0  0  0  0  0  0  0  0  0  0  0
  123.1970  129.3950   67.1870 C   0  0  0  0  0  0  0  0  0  0  0  0
  125.6230  128.9830   66.5860 C   0  0  0  0  0  0  0  0  0  0  0  0
  126.6610  128.9430   65.6470 C   0  0  0  0  0  0  0  0  0  0  0  0
  128.0480  128.5510   66.1320 C   0  0  0  0  0  0  0  0  0  0  0  0
  126.3500  129.2710   64.3000 C   0  0  0  0  0  0  0  0  0  0  0  0
  127.1520  129.3370   63.1080 C   0  0  0  0  0  0  0  0  0  0  0  0
  128.4960  129.0580   63.1140 N   0  0  0  0  0  0  0  0  0  0  0  0
  129.9130  131.0010   59.0320 C   0  0  0  0  0  0  0  0  0  0  0  0
  130.5080  131.4850   57.8690 C   0  0  0  0  0  0  0  0  0  0  0  0
  133.0783  131.6107   56.4250 H   0  0  0  0  0  0  0  0  0  0  0  0
  132.1892  131.2430   54.9080 H   0  0  0  0  0  0  0  0  0  0  0  0
  133.4926  132.4790   54.9080 H   0  0  0  0  0  0  0  0  0  0  0  0
  127.8492  133.1665   56.5447 H   0  0  0  0  0  0  0  0  0  0  0  0
  126.7878  132.3132   58.6226 H   0  0  0  0  0  0  0  0  0  0  0  0
  128.0980  131.3810   61.2880 H   0  0  0  0  0  0  0  0  0  0  0  0
  123.6041  129.3746   68.2087 H   0  0  0  0  0  0  0  0  0  0  0  0
  122.6251  130.3229   67.0386 H   0  0  0  0  0  0  0  0  0  0  0  0
  122.5354  128.5288   67.0386 H   0  0  0  0  0  0  0  0  0  0  0  0
  125.8234  128.7341   67.6385 H   0  0  0  0  0  0  0  0  0  0  0  0
  128.0641  128.5464   67.2319 H   0  0  0  0  0  0  0  0  0  0  0  0
  128.2973  127.5472   65.7575 H   0  0  0  0  0  0  0  0  0  0  0  0
  128.7858  129.2758   65.7575 H   0  0  0  0  0  0  0  0  0  0  0  0
  129.1810  129.7310   62.8050 H   0  0  0  0  0  0  0  0  0  0  0  0
  128.8440  128.1610   63.4250 H   0  0  0  0  0  0  0  0  0  0  0  0
  130.4980  130.3913   59.7363 H   0  0  0  0  0  0  0  0  0  0  0  0
  131.5625  131.2517   57.6600 H   0  0  0  0  0  0  0  0  0  0  0  0
  1  2  1  0
  2  3  1  0
  3  4  2  0
  3  5  1  0
  5  6  2  0
  6  7  1  0
  7  8  2  0
  8  9  1  0
  9 10  1  0
 10 11  2  0
 10 12  1  0
 12 13  1  0
 13 14  1  0
 14 15  2  0
 15 16  1  0
 16 17  1  0
 16 18  2  0
 18 19  1  0
 19 20  1  0
 19 21  2  0
 21 22  1  0
 22 23  1  0
  8 24  1  0
 24 25  2  0
 25  5  1  0
 22 12  2  0
 21 14  1  0
  1 26  1  0
  1 27  1  0
  1 28  1  0
  6 29  1  0
  7 30  1  0
  9 31  1  0
 17 32  1  0
 17 33  1  0
 17 34  1  0
 18 35  1  0
 20 36  1  0
 20 37  1  0
 20 38  1  0
 23 39  1  0
 23 40  1  0
 24 41  1  0
 25 42  1  0
M  END
>  <Binding energies>  (1) 
[-7.0]

>  <Ligand effiencies>  (1) 
[-0.25]

>  <Interactions>  (1) 
["V-A:TYR:539:CZ:4877, V-A:PRO:540:CA:4883, V-A:GLU:543:CD:4908, H-B:GLY:454:N:9022, H-B:TYR:484:OH:9320, V-A:GLU:543:CG:4907, V-A:TYR:539:CE1:4875, V-B:ARG:545:CZ:9898, V-A:TYR:539:CD1:4873, V-A:TYR:539:C:4867, H-B:GLU:543:OE2:9882, V-B:GLU:543:CD:9880, V-A:PRO:540:CD:4887, V-A:TYR:531:CE2:4793, V-A:LEU:363:CD1:3189, V-A:TYR:539:CD2:4874, V-A:ILE:538:CA:4860, V-A:ILE:538:CB:4862, H-A:TYR:539:N:4870, V-A:PRO:540:N:4884, V-A:TYR:539:CG:4872, H-A:GLU:543:OE1:4909, V-A:ILE:538:CG2:4863, H-A:GLU:543:OE2:4910, V-B:ARG:545:CD:9895, H-B:ARG:545:NE:9896, V-B:ARG:545:CG:9894, V-B:TYR:484:CZ:9319, V-B:HIS:456:CE1:9042, V-B:GLY:453:C:9014, V-B:ILE:455:C:9024, H-B:ARG:545:NH1:9899, V-B:GLY:453:CA:9016, V-A:GLU:543:CB:4906, V-A:TYR:539:CA:4869, V-A:TYR:531:CZ:4794, V-B:ARG:545:CB:9893"]

$$$$
4ac_Grossjean_2025
     RDKit          3D

 40 42  0  0  0  0  0  0  0  0999 V2000
  131.8020  132.6240   55.5000 C   0  0  0  0  0  0  0  0  0  0  0  0
  130.4150  132.9460   55.5410 O   0  0  0  0  0  0  0  0  0  0  0  0
  129.6530  132.5080   56.6070 C   0  0  0  0  0  0  0  0  0  0  0  0
  130.3360  132.2500   57.7950 C   0  0  0  0  0  0  0  0  0  0  0  0
  129.6520  131.8060   58.9240 C   0  0  0  0  0  0  0  0  0  0  0  0
  128.2690  131.6230   58.8800 C   0  0  0  0  0  0  0  0  0  0  0  0
  127.6650  131.1600   60.0640 N   0  0  0  0  0  0  0  0  0  0  0  0
  126.7900  130.1400   60.2370 C   0  0  0  0  0  0  0  0  0  0  0  0
  126.3440  129.4510   59.3180 O   0  0  0  0  0  0  0  0  0  0  0  0
  126.3790  129.8950   61.6220 C   0  0  0  0  0  0  0  0  0  0  0  0
  124.7040  130.1510   62.1130 S   0  0  0  0  0  0  0  0  0  0  0  0
  125.0640  129.6750   63.7580 C   0  0  0  0  0  0  0  0  0  0  0  0
  124.1280  129.6550   64.7080 N   0  0  0  0  0  0  0  0  0  0  0  0
  124.5380  129.2670   65.9390 C   0  0  0  0  0  0  0  0  0  0  0  0
  123.4590  129.2500   67.0050 C   0  0  0  0  0  0  0  0  0  0  0  0
  125.8500  128.9040   66.2410 C   0  0  0  0  0  0  0  0  0  0  0  0
  126.8300  128.9270   65.2410 C   0  0  0  0  0  0  0  0  0  0  0  0
  128.2460  128.5230   65.6190 C   0  0  0  0  0  0  0  0  0  0  0  0
  126.4350  129.3270   63.9360 C   0  0  0  0  0  0  0  0  0  0  0  0
  127.1630  129.4590   62.7020 C   0  0  0  0  0  0  0  0  0  0  0  0
  128.5030  129.1810   62.6090 N   0  0  0  0  0  0  0  0  0  0  0  0
  127.5760  131.8690   57.6850 C   0  0  0  0  0  0  0  0  0  0  0  0
  128.2640  132.3130   56.5580 C   0  0  0  0  0  0  0  0  0  0  0  0
  132.1881  132.5344   56.5261 H   0  0  0  0  0  0  0  0  0  0  0  0
  131.9414  131.6696   54.9711 H   0  0  0  0  0  0  0  0  0  0  0  0
  132.3476  133.4194   54.9711 H   0  0  0  0  0  0  0  0  0  0  0  0
  131.4250  132.3985   57.8409 H   0  0  0  0  0  0  0  0  0  0  0  0
  130.2033  131.5989   59.8531 H   0  0  0  0  0  0  0  0  0  0  0  0
  127.9010  131.6910   60.8900 H   0  0  0  0  0  0  0  0  0  0  0  0
  123.9269  129.2574   68.0005 H   0  0  0  0  0  0  0  0  0  0  0  0
  122.8197  130.1382   66.8938 H   0  0  0  0  0  0  0  0  0  0  0  0
  122.8480  128.3421   66.8938 H   0  0  0  0  0  0  0  0  0  0  0  0
  126.1151  128.5997   67.2643 H   0  0  0  0  0  0  0  0  0  0  0  0
  128.3395  128.4963   66.7147 H   0  0  0  0  0  0  0  0  0  0  0  0
  128.4651  127.5265   65.2079 H   0  0  0  0  0  0  0  0  0  0  0  0
  128.9579  129.2539   65.2079 H   0  0  0  0  0  0  0  0  0  0  0  0
  129.2070  129.8760   62.8100 H   0  0  0  0  0  0  0  0  0  0  0  0
  128.8310  128.2640   62.3370 H   0  0  0  0  0  0  0  0  0  0  0  0
  126.4884  131.7111   57.6380 H   0  0  0  0  0  0  0  0  0  0  0  0
  127.7160  132.5117   55.6252 H   0  0  0  0  0  0  0  0  0  0  0  0
  1  2  1  0
  2  3  1  0
  3  4  2  0
  4  5  1  0
  5  6  2  0
  6  7  1  0
  7  8  1  0
  8  9  2  0
  8 10  1  0
 10 11  1  0
 11 12  1  0
 12 13  2  0
 13 14  1  0
 14 15  1  0
 14 16  2  0
 16 17  1  0
 17 18  1  0
 17 19  2  0
 19 20  1  0
 20 21  1  0
  6 22  1  0
 22 23  2  0
 23  3  1  0
 20 10  2  0
 19 12  1  0
  1 24  1  0
  1 25  1  0
  1 26  1  0
  4 27  1  0
  5 28  1  0
  7 29  1  0
 15 30  1  0
 15 31  1  0
 15 32  1  0
 16 33  1  0
 18 34  1  0
 18 35  1  0
 18 36  1  0
 21 37  1  0
 21 38  1  0
 22 39  1  0
 23 40  1  0
M  END
>  <Binding energies>  (1) 
[-6.76]

>  <Ligand effiencies>  (1) 
[-0.26]

>  <Interactions>  (1) 
["V-A:TYR:539:CZ:4877, V-A:PRO:540:CA:4883, V-A:GLU:543:CD:4908, H-B:GLY:454:N:9022, H-B:TYR:484:OH:9320, V-A:GLU:543:CG:4907, V-A:TYR:539:CE1:4875, V-B:ARG:545:CZ:9898, V-A:TYR:539:CD1:4873, V-A:TYR:539:C:4867, V-B:GLU:543:CD:9880, V-A:TYR:539:CE2:4876, V-A:PRO:540:CD:4887, V-A:PRO:540:CB:4885, V-A:LEU:363:CD1:3189, V-A:TYR:539:CD2:4874, V-A:ILE:538:CB:4862, H-A:TYR:539:N:4870, V-A:PRO:540:N:4884, V-A:TYR:539:CG:4872, H-A:GLU:543:OE1:4909, V-A:ILE:538:CG2:4863, V-B:ARG:545:CD:9895, H-B:ARG:545:NE:9896, V-B:ARG:545:CG:9894, V-B:TYR:484:CZ:9319, V-B:HIS:456:CE1:9042, V-B:ILE:455:C:9024, H-B:ARG:545:NH1:9899, V-B:GLY:453:CA:9016, V-A:GLU:543:CB:4906, V-B:ARG:545:CB:9893"]

$$$$
4ad_Grossjean_2025
     RDKit          3D

 36 38  0  0  0  0  0  0  0  0999 V2000
  130.4640  132.6380   54.6280 C   0  0  0  0  0  0  0  0  0  0  0  0
  130.6790  132.1970   56.0640 C   0  0  0  0  0  0  0  0  0  0  0  0
  131.9110  131.7040   56.4860 C   0  0  0  0  0  0  0  0  0  0  0  0
  132.0860  131.3010   57.8160 C   0  0  0  0  0  0  0  0  0  0  0  0
  133.4490  130.7660   58.2290 C   0  0  0  0  0  0  0  0  0  0  0  0
  130.9750  131.4150   58.6940 C   0  0  0  0  0  0  0  0  0  0  0  0
  130.8040  131.1040   60.0880 C   0  0  0  0  0  0  0  0  0  0  0  0
  131.8230  130.5940   60.8530 N   0  0  0  0  0  0  0  0  0  0  0  0
  129.5160  131.3690   60.5790 C   0  0  0  0  0  0  0  0  0  0  0  0
  128.9940  131.1580   61.9300 C   0  0  0  0  0  0  0  0  0  0  0  0
  129.4390  131.8010   62.8830 O   0  0  0  0  0  0  0  0  0  0  0  0
  128.0060  130.2340   62.0340 N   0  0  0  0  0  0  0  0  0  0  0  0
  127.3300  129.7710   63.1790 C   0  0  0  0  0  0  0  0  0  0  0  0
  125.9360  129.7130   63.0840 C   0  0  0  0  0  0  0  0  0  0  0  0
  125.1780  129.2590   64.1590 C   0  0  0  0  0  0  0  0  0  0  0  0
  125.8140  128.8550   65.3300 C   0  0  0  0  0  0  0  0  0  0  0  0
  127.2020  128.8950   65.4330 C   0  0  0  0  0  0  0  0  0  0  0  0
  127.9630  129.3490   64.3590 C   0  0  0  0  0  0  0  0  0  0  0  0
  128.4750  132.0230   59.3130 S   0  0  0  0  0  0  0  0  0  0  0  0
  129.7670  131.9350   58.1380 C   0  0  0  0  0  0  0  0  0  0  0  0
  129.5990  132.3200   56.8720 N   0  0  0  0  0  0  0  0  0  0  0  0
  129.9820  133.6267   54.6163 H   0  0  0  0  0  0  0  0  0  0  0  0
  131.4344  132.6971   54.1134 H   0  0  0  0  0  0  0  0  0  0  0  0
  129.8198  131.9099   54.1134 H   0  0  0  0  0  0  0  0  0  0  0  0
  132.7469  131.6310   55.7748 H   0  0  0  0  0  0  0  0  0  0  0  0
  133.5154  130.7399   59.3267 H   0  0  0  0  0  0  0  0  0  0  0  0
  133.5804  129.7496   57.8295 H   0  0  0  0  0  0  0  0  0  0  0  0
  134.2367  131.4217   57.8295 H   0  0  0  0  0  0  0  0  0  0  0  0
  131.7270  130.4560   61.8480 H   0  0  0  0  0  0  0  0  0  0  0  0
  132.7080  130.3310   60.4400 H   0  0  0  0  0  0  0  0  0  0  0  0
  127.6900  129.8230   61.1680 H   0  0  0  0  0  0  0  0  0  0  0  0
  125.4367  130.0275   62.1557 H   0  0  0  0  0  0  0  0  0  0  0  0
  124.0813  129.2194   64.0841 H   0  0  0  0  0  0  0  0  0  0  0  0
  125.2144  128.5010   66.1815 H   0  0  0  0  0  0  0  0  0  0  0  0
  127.6959  128.5689   66.3602 H   0  0  0  0  0  0  0  0  0  0  0  0
  129.0600  129.3770   64.4350 H   0  0  0  0  0  0  0  0  0  0  0  0
  1  2  1  0
  2  3  2  0
  3  4  1  0
  4  5  1  0
  4  6  2  0
  6  7  1  0
  7  8  1  0
  7  9  2  0
  9 10  1  0
 10 11  2  0
 10 12  1  0
 12 13  1  0
 13 14  2  0
 14 15  1  0
 15 16  2  0
 16 17  1  0
 17 18  2  0
  9 19  1  0
 19 20  1  0
 20 21  2  0
 21  2  1  0
 20  6  1  0
 18 13  1  0
  1 22  1  0
  1 23  1  0
  1 24  1  0
  3 25  1  0
  5 26  1  0
  5 27  1  0
  5 28  1  0
  8 29  1  0
  8 30  1  0
 12 31  1  0
 14 32  1  0
 15 33  1  0
 16 34  1  0
 17 35  1  0
 18 36  1  0
M  END
>  <Binding energies>  (1) 
[-6.88]

>  <Ligand effiencies>  (1) 
[-0.2866666666666667]

>  <Interactions>  (1) 
["V-A:ASP:366:CG:3213, V-A:PRO:540:CA:4883, V-A:ASP:366:CB:3212, V-A:GLU:543:CD:4908, V-A:GLU:543:CG:4907, V-B:ARG:545:CZ:9898, V-A:TYR:539:C:4867, H-A:ASP:366:OD1:3214, V-A:PRO:540:CB:4885, V-A:LEU:363:CD1:3189, V-A:ILE:538:CA:4860, V-A:ILE:538:CB:4862, V-A:PRO:540:N:4884, H-A:GLU:543:OE1:4909, V-A:ILE:538:CG2:4863, V-A:LEU:363:CA:3185, V-A:ILE:538:C:4858"]

$$$$
4ae_Grossjean_2025
     RDKit          3D

 38 40  0  0  0  0  0  0  0  0999 V2000
  128.2750  128.6890   66.6930 C   0  0  0  0  0  0  0  0  0  0  0  0
  127.4570  129.0300   65.4630 C   0  0  0  0  0  0  0  0  0  0  0  0
  126.0670  128.8900   65.4470 C   0  0  0  0  0  0  0  0  0  0  0  0
  125.3810  129.2160   64.2760 C   0  0  0  0  0  0  0  0  0  0  0  0
  126.0930  129.6660   63.1620 C   0  0  0  0  0  0  0  0  0  0  0  0
  127.4830  129.7910   63.2490 C   0  0  0  0  0  0  0  0  0  0  0  0
  128.1460  130.2300   62.0890 N   0  0  0  0  0  0  0  0  0  0  0  0
  129.0940  131.1930   61.9660 C   0  0  0  0  0  0  0  0  0  0  0  0
  129.5220  131.8570   62.9110 O   0  0  0  0  0  0  0  0  0  0  0  0
  129.5930  131.4110   60.6070 C   0  0  0  0  0  0  0  0  0  0  0  0
  128.5230  132.0430   59.3550 S   0  0  0  0  0  0  0  0  0  0  0  0
  129.7930  131.9580   58.1580 C   0  0  0  0  0  0  0  0  0  0  0  0
  129.5960  132.3270   56.8920 N   0  0  0  0  0  0  0  0  0  0  0  0
  130.6610  132.2060   56.0640 C   0  0  0  0  0  0  0  0  0  0  0  0
  130.4120  132.6240   54.6260 C   0  0  0  0  0  0  0  0  0  0  0  0
  131.9080  131.7340   56.4680 C   0  0  0  0  0  0  0  0  0  0  0  0
  132.1120  131.3490   57.7980 C   0  0  0  0  0  0  0  0  0  0  0  0
  133.4900  130.8360   58.1910 C   0  0  0  0  0  0  0  0  0  0  0  0
  131.0170  131.4590   58.6970 C   0  0  0  0  0  0  0  0  0  0  0  0
  130.8760  131.1560   60.0960 C   0  0  0  0  0  0  0  0  0  0  0  0
  131.9130  130.6630   60.8470 N   0  0  0  0  0  0  0  0  0  0  0  0
  128.1620  129.4680   64.3890 N   0  0  0  0  0  0  0  0  0  0  0  0
  127.6962  128.9303   67.5967 H   0  0  0  0  0  0  0  0  0  0  0  0
  128.5156  127.6156   66.6874 H   0  0  0  0  0  0  0  0  0  0  0  0
  129.2068  129.2736   66.6874 H   0  0  0  0  0  0  0  0  0  0  0  0
  125.5265  128.5316   66.3355 H   0  0  0  0  0  0  0  0  0  0  0  0
  124.2862  129.1191   64.2308 H   0  0  0  0  0  0  0  0  0  0  0  0
  125.5677  129.9186   62.2291 H   0  0  0  0  0  0  0  0  0  0  0  0
  127.8310  129.7970   61.2330 H   0  0  0  0  0  0  0  0  0  0  0  0
  129.8491  133.5689   54.6111 H   0  0  0  0  0  0  0  0  0  0  0  0
  131.3749  132.7626   54.1125 H   0  0  0  0  0  0  0  0  0  0  0  0
  129.8316  131.8433   54.1125 H   0  0  0  0  0  0  0  0  0  0  0  0
  132.7316  131.6640   55.7422 H   0  0  0  0  0  0  0  0  0  0  0  0
  133.5710  130.8058   59.2876 H   0  0  0  0  0  0  0  0  0  0  0  0
  133.6341  129.8240   57.7847 H   0  0  0  0  0  0  0  0  0  0  0  0
  134.2608  131.5074   57.7847 H   0  0  0  0  0  0  0  0  0  0  0  0
  132.7760  130.3500   60.4260 H   0  0  0  0  0  0  0  0  0  0  0  0
  131.8460  130.5960   61.8540 H   0  0  0  0  0  0  0  0  0  0  0  0
  1  2  1  0
  2  3  2  0
  3  4  1  0
  4  5  2  0
  5  6  1  0
  6  7  1  0
  7  8  1  0
  8  9  2  0
  8 10  1  0
 10 11  1  0
 11 12  1  0
 12 13  2  0
 13 14  1  0
 14 15  1  0
 14 16  2  0
 16 17  1  0
 17 18  1  0
 17 19  2  0
 19 20  1  0
 20 21  1  0
  6 22  2  0
 22  2  1  0
 20 10  2  0
 19 12  1  0
  1 23  1  0
  1 24  1  0
  1 25  1  0
  3 26  1  0
  4 27  1  0
  5 28  1  0
  7 29  1  0
 15 30  1  0
 15 31  1  0
 15 32  1  0
 16 33  1  0
 18 34  1  0
 18 35  1  0
 18 36  1  0
 21 37  1  0
 21 38  1  0
M  END
>  <Binding energies>  (1) 
[-7.07]

>  <Ligand effiencies>  (1) 
[-0.2828]

>  <Interactions>  (1) 
["V-A:ASP:366:CG:3213, V-A:PRO:540:CA:4883, V-A:ASP:366:CB:3212, V-A:GLU:543:CD:4908, H-A:ALA:541:N:4891, H-B:TYR:484:OH:9320, V-A:GLU:543:CG:4907, V-B:ARG:545:CZ:9898, V-A:TYR:539:C:4867, H-A:ASP:366:OD1:3214, V-A:PRO:540:CB:4885, V-A:LEU:363:CD1:3189, V-A:ILE:538:CA:4860, V-A:ILE:538:CB:4862, V-A:PRO:540:N:4884, H-A:GLU:543:OE1:4909, V-A:ILE:538:CG2:4863, V-B:HIS:456:CE1:9042, V-A:LEU:363:CA:3185, V-A:GLU:543:CB:4906, V-A:ILE:538:C:4858"]

$$$$
4af_Grossjean_2025
     RDKit          3D

 35 37  0  0  0  0  0  0  0  0999 V2000
  130.0090  132.6270   54.6740 C   0  0  0  0  0  0  0  0  0  0  0  0
  130.1740  132.2480   56.1340 C   0  0  0  0  0  0  0  0  0  0  0  0
  131.3940  131.7830   56.6210 C   0  0  0  0  0  0  0  0  0  0  0  0
  131.5220  131.4360   57.9720 C   0  0  0  0  0  0  0  0  0  0  0  0
  132.8730  130.9320   58.4560 C   0  0  0  0  0  0  0  0  0  0  0  0
  130.3790  131.5760   58.8040 C   0  0  0  0  0  0  0  0  0  0  0  0
  130.1590  131.3160   60.2020 C   0  0  0  0  0  0  0  0  0  0  0  0
  131.1510  130.8410   61.0220 N   0  0  0  0  0  0  0  0  0  0  0  0
  128.8530  131.5940   60.6350 C   0  0  0  0  0  0  0  0  0  0  0  0
  128.2790  131.4190   61.9710 C   0  0  0  0  0  0  0  0  0  0  0  0
  128.6490  132.1250   62.9090 O   0  0  0  0  0  0  0  0  0  0  0  0
  127.3300  130.4570   62.0720 N   0  0  0  0  0  0  0  0  0  0  0  0
  126.6260  130.0100   63.2060 C   0  0  0  0  0  0  0  0  0  0  0  0
  127.1620  129.2240   64.2420 C   0  0  0  0  0  0  0  0  0  0  0  0
  126.3460  128.8330   65.3060 C   0  0  0  0  0  0  0  0  0  0  0  0
  125.0100  129.2340   65.3070 C   0  0  0  0  0  0  0  0  0  0  0  0
  124.4670  129.9850   64.3160 N   0  0  0  0  0  0  0  0  0  0  0  0
  125.2720  130.3570   63.2890 C   0  0  0  0  0  0  0  0  0  0  0  0
  127.8530  132.1870   59.3060 S   0  0  0  0  0  0  0  0  0  0  0  0
  129.1890  132.0630   58.1840 C   0  0  0  0  0  0  0  0  0  0  0  0
  129.0640  132.3950   56.8980 N   0  0  0  0  0  0  0  0  0  0  0  0
  129.5708  133.6335   54.6037 H   0  0  0  0  0  0  0  0  0  0  0  0
  130.9918  132.6196   54.1799 H   0  0  0  0  0  0  0  0  0  0  0  0
  129.3448  131.9026   54.1799 H   0  0  0  0  0  0  0  0  0  0  0  0
  132.2563  131.6885   55.9446 H   0  0  0  0  0  0  0  0  0  0  0  0
  132.8895  130.9259   59.5559 H   0  0  0  0  0  0  0  0  0  0  0  0
  133.0394  129.9113   58.0811 H   0  0  0  0  0  0  0  0  0  0  0  0
  133.6672  131.5943   58.0811 H   0  0  0  0  0  0  0  0  0  0  0  0
  130.9460  130.4100   61.9130 H   0  0  0  0  0  0  0  0  0  0  0  0
  132.1250  130.9050   60.7590 H   0  0  0  0  0  0  0  0  0  0  0  0
  127.0780  129.9880   61.2140 H   0  0  0  0  0  0  0  0  0  0  0  0
  128.2185  128.9188   64.2144 H   0  0  0  0  0  0  0  0  0  0  0  0
  126.7488  128.2212   66.1266 H   0  0  0  0  0  0  0  0  0  0  0  0
  124.3692  128.9283   66.1472 H   0  0  0  0  0  0  0  0  0  0  0  0
  124.8384  130.9626   62.4796 H   0  0  0  0  0  0  0  0  0  0  0  0
  1  2  1  0
  2  3  2  0
  3  4  1  0
  4  5  1  0
  4  6  2  0
  6  7  1  0
  7  8  1  0
  7  9  2  0
  9 10  1  0
 10 11  2  0
 10 12  1  0
 12 13  1  0
 13 14  2  0
 14 15  1  0
 15 16  2  0
 16 17  1  0
 17 18  2  0
  9 19  1  0
 19 20  1  0
 20 21  2  0
 21  2  1  0
 20  6  1  0
 18 13  1  0
  1 22  1  0
  1 23  1  0
  1 24  1  0
  3 25  1  0
  5 26  1  0
  5 27  1  0
  5 28  1  0
  8 29  1  0
  8 30  1  0
 12 31  1  0
 14 32  1  0
 15 33  1  0
 16 34  1  0
 18 35  1  0
M  END
>  <Binding energies>  (1) 
[-6.69]

>  <Ligand effiencies>  (1) 
[-0.27875]

>  <Interactions>  (1) 
["V-A:ASP:366:CG:3213, V-A:PRO:540:CA:4883, V-A:ASP:366:CB:3212, V-A:GLU:543:CD:4908, H-B:GLY:454:N:9022, H-B:TYR:484:OH:9320, V-B:ARG:545:CZ:9898, V-A:TYR:539:CD1:4873, V-A:TYR:539:C:4867, H-A:ASP:366:OD1:3214, V-A:PRO:540:CB:4885, V-A:ILE:538:CA:4860, V-A:ILE:538:CB:4862, V-A:PRO:540:N:4884, H-A:GLU:543:OE1:4909, V-A:ILE:538:CG2:4863, V-B:ARG:545:CD:9895, V-A:ILE:538:C:4858"]

$$$$
4ag_Grossjean_2025
     RDKit          3D

 39 41  0  0  0  0  0  0  0  0999 V2000
  126.0410  127.9330   61.0740 C   0  0  0  0  0  0  0  0  0  0  0  0
  126.6610  126.5970   60.7090 C   0  0  0  0  0  0  0  0  0  0  0  0
  126.5850  126.1040   59.4070 C   0  0  0  0  0  0  0  0  0  0  0  0
  127.1640  124.8700   59.0910 C   0  0  0  0  0  0  0  0  0  0  0  0
  127.0560  124.3750   57.6570 C   0  0  0  0  0  0  0  0  0  0  0  0
  127.8170  124.1580   60.1320 C   0  0  0  0  0  0  0  0  0  0  0  0
  128.5020  122.8940   60.1610 C   0  0  0  0  0  0  0  0  0  0  0  0
  128.6350  122.1060   59.0450 N   0  0  0  0  0  0  0  0  0  0  0  0
  129.0100  122.5500   61.4220 C   0  0  0  0  0  0  0  0  0  0  0  0
  129.7620  121.3550   61.8040 C   0  0  0  0  0  0  0  0  0  0  0  0
  130.8450  121.4360   62.3880 O   0  0  0  0  0  0  0  0  0  0  0  0
  129.2100  120.1710   61.4620 N   0  0  0  0  0  0  0  0  0  0  0  0
  129.7700  118.8560   61.7650 C   0  0  0  0  0  0  0  0  0  0  0  0
  130.3510  118.1360   60.5540 C   0  0  0  0  0  0  0  0  0  0  0  0
  131.4560  118.6760   59.8880 C   0  0  0  0  0  0  0  0  0  0  0  0
  132.0040  118.0080   58.7950 C   0  0  0  0  0  0  0  0  0  0  0  0
  131.4530  116.7980   58.3800 C   0  0  0  0  0  0  0  0  0  0  0  0
  130.3630  116.2460   59.0480 C   0  0  0  0  0  0  0  0  0  0  0  0
  129.8150  116.9130   60.1410 C   0  0  0  0  0  0  0  0  0  0  0  0
  128.6600  123.8000   62.6160 S   0  0  0  0  0  0  0  0  0  0  0  0
  127.8270  124.7710   61.4220 C   0  0  0  0  0  0  0  0  0  0  0  0
  127.2770  125.9470   61.7260 N   0  0  0  0  0  0  0  0  0  0  0  0
  125.9962  128.0295   62.1688 H   0  0  0  0  0  0  0  0  0  0  0  0
  126.6534  128.7471   60.6589 H   0  0  0  0  0  0  0  0  0  0  0  0
  125.0240  127.9909   60.6589 H   0  0  0  0  0  0  0  0  0  0  0  0
  126.0698  126.6853   58.6281 H   0  0  0  0  0  0  0  0  0  0  0  0
  126.8215  123.3003   57.6568 H   0  0  0  0  0  0  0  0  0  0  0  0
  126.2567  124.9248   57.1385 H   0  0  0  0  0  0  0  0  0  0  0  0
  128.0117  124.5419   57.1385 H   0  0  0  0  0  0  0  0  0  0  0  0
  128.4930  122.4720   58.1140 H   0  0  0  0  0  0  0  0  0  0  0  0
  128.8850  121.1300   59.1180 H   0  0  0  0  0  0  0  0  0  0  0  0
  128.2940  120.1780   61.0370 H   0  0  0  0  0  0  0  0  0  0  0  0
  130.5706  118.9839   62.5084 H   0  0  0  0  0  0  0  0  0  0  0  0
  128.9417  118.2353   62.1373 H   0  0  0  0  0  0  0  0  0  0  0  0
  131.8921  119.6273   60.2269 H   0  0  0  0  0  0  0  0  0  0  0  0
  132.8672  118.4340   58.2626 H   0  0  0  0  0  0  0  0  0  0  0  0
  131.8837  116.2726   57.5149 H   0  0  0  0  0  0  0  0  0  0  0  0
  129.9370  115.2883   58.7142 H   0  0  0  0  0  0  0  0  0  0  0  0
  128.9603  116.4773   60.6792 H   0  0  0  0  0  0  0  0  0  0  0  0
  1  2  1  0
  2  3  2  0
  3  4  1  0
  4  5  1  0
  4  6  2  0
  6  7  1  0
  7  8  1  0
  7  9  2  0
  9 10  1  0
 10 11  2  0
 10 12  1  0
 12 13  1  0
 13 14  1  0
 14 15  2  0
 15 16  1  0
 16 17  2  0
 17 18  1  0
 18 19  2  0
  9 20  1  0
 20 21  1  0
 21 22  2  0
 22  2  1  0
 21  6  1  0
 19 14  1  0
  1 23  1  0
  1 24  1  0
  1 25  1  0
  3 26  1  0
  5 27  1  0
  5 28  1  0
  5 29  1  0
  8 30  1  0
  8 31  1  0
 12 32  1  0
 13 33  1  0
 13 34  1  0
 15 35  1  0
 16 36  1  0
 17 37  1  0
 18 38  1  0
 19 39  1  0
M  END
>  <Binding energies>  (1) 
[-6.89]

>  <Ligand effiencies>  (1) 
[-0.2756]

>  <Interactions>  (1) 
["V-B:TYR:539:CE2:9848, V-B:TYR:539:CD2:9846, V-A:LEU:475:CD2:4259, V-B:TYR:539:CG:9844, V-B:TYR:539:C:9839, V-B:ASP:366:CG:8185, V-B:PRO:540:CA:9855, V-B:PRO:540:N:9856, V-B:GLU:543:CD:9880, V-B:PRO:540:C:9853, V-B:GLU:543:CG:9879, V-B:TYR:539:CB:9843, V-A:LEU:475:CD1:4258, V-B:ALA:541:CB:9864, H-A:TYR:484:OH:4348, H-B:ARG:545:NH2:9900, H-B:TYR:539:O:9840, V-A:SER:385:CB:3409, V-B:VAL:344:CG1:7973, V-A:LEU:373:CD1:3280, V-A:PRO:482:CB:4326, V-A:LEU:475:CG:4257, V-A:HIS:383:CE1:3394, V-A:PRO:482:CG:4327, V-A:LEU:373:CD2:3281, H-B:PRO:540:O:9854"]

$$$$
4ah_Grossjean_2025
     RDKit          3D

 51 53  0  0  0  0  0  0  0  0999 V2000
  123.1840  130.4410   61.8130 C   0  0  0  0  0  0  0  0  0  0  0  0
  123.3280  130.3040   63.2220 O   0  0  0  0  0  0  0  0  0  0  0  0
  124.5230  129.8380   63.7400 C   0  0  0  0  0  0  0  0  0  0  0  0
  125.7440  129.8720   63.0480 C   0  0  0  0  0  0  0  0  0  0  0  0
  126.9110  129.3820   63.6340 C   0  0  0  0  0  0  0  0  0  0  0  0
  128.2370  129.4700   62.8850 C   0  0  0  0  0  0  0  0  0  0  0  0
  128.8300  128.1660   62.5890 N   0  0  0  0  0  0  0  0  0  0  0  0
  128.1410  127.0410   62.3010 C   0  0  0  0  0  0  0  0  0  0  0  0
  126.9100  126.9990   62.2970 O   0  0  0  0  0  0  0  0  0  0  0  0
  128.9450  125.8500   62.0320 C   0  0  0  0  0  0  0  0  0  0  0  0
  128.1790  124.3870   61.4080 S   0  0  0  0  0  0  0  0  0  0  0  0
  129.7050  123.5300   61.4210 C   0  0  0  0  0  0  0  0  0  0  0  0
  129.8060  122.2630   61.0210 N   0  0  0  0  0  0  0  0  0  0  0  0
  131.0450  121.7170   61.0780 C   0  0  0  0  0  0  0  0  0  0  0  0
  131.1360  120.2720   60.6220 C   0  0  0  0  0  0  0  0  0  0  0  0
  132.1730  122.4020   61.5210 C   0  0  0  0  0  0  0  0  0  0  0  0
  132.0650  123.7330   61.9430 C   0  0  0  0  0  0  0  0  0  0  0  0
  133.3250  124.4390   62.4180 C   0  0  0  0  0  0  0  0  0  0  0  0
  130.7800  124.3390   61.8980 C   0  0  0  0  0  0  0  0  0  0  0  0
  130.3160  125.6540   62.2510 C   0  0  0  0  0  0  0  0  0  0  0  0
  131.1540  126.6200   62.7480 N   0  0  0  0  0  0  0  0  0  0  0  0
  126.8700  128.8770   64.9340 C   0  0  0  0  0  0  0  0  0  0  0  0
  125.6630  128.8250   65.6480 C   0  0  0  0  0  0  0  0  0  0  0  0
  125.5460  128.3250   66.9320 O   0  0  0  0  0  0  0  0  0  0  0  0
  126.4570  127.3250   67.3770 C   0  0  0  0  0  0  0  0  0  0  0  0
  124.4950  129.3030   65.0370 C   0  0  0  0  0  0  0  0  0  0  0  0
  123.3090  129.2760   65.7310 O   0  0  0  0  0  0  0  0  0  0  0  0
  123.3620  129.9270   66.9930 C   0  0  0  0  0  0  0  0  0  0  0  0
  122.4029  131.1841   61.5948 H   0  0  0  0  0  0  0  0  0  0  0  0
  124.1380  130.7731   61.3775 H   0  0  0  0  0  0  0  0  0  0  0  0
  122.8998  129.4717   61.3775 H   0  0  0  0  0  0  0  0  0  0  0  0
  125.7808  130.2902   62.0313 H   0  0  0  0  0  0  0  0  0  0  0  0
  128.0655  129.9977   61.9352 H   0  0  0  0  0  0  0  0  0  0  0  0
  128.9421  130.0040   63.5390 H   0  0  0  0  0  0  0  0  0  0  0  0
  129.8340  128.1480   62.4930 H   0  0  0  0  0  0  0  0  0  0  0  0
  131.1776  119.6120   61.5010 H   0  0  0  0  0  0  0  0  0  0  0  0
  130.2518  120.0220   60.0173 H   0  0  0  0  0  0  0  0  0  0  0  0
  132.0446  120.1349   60.0173 H   0  0  0  0  0  0  0  0  0  0  0  0
  133.1502  121.8973   61.5396 H   0  0  0  0  0  0  0  0  0  0  0  0
  133.3462  124.4509   63.5177 H   0  0  0  0  0  0  0  0  0  0  0  0
  134.2092  123.9049   62.0400 H   0  0  0  0  0  0  0  0  0  0  0  0
  133.3312  125.4720   62.0400 H   0  0  0  0  0  0  0  0  0  0  0  0
  131.4490  126.6260   63.7130 H   0  0  0  0  0  0  0  0  0  0  0  0
  131.5020  127.3650   62.1590 H   0  0  0  0  0  0  0  0  0  0  0  0
  127.7957  128.5150   65.4053 H   0  0  0  0  0  0  0  0  0  0  0  0
  126.4733  127.3071   68.4767 H   0  0  0  0  0  0  0  0  0  0  0  0
  126.1367  126.3429   66.9990 H   0  0  0  0  0  0  0  0  0  0  0  0
  127.4646  127.5526   66.9990 H   0  0  0  0  0  0  0  0  0  0  0  0
  123.3009  129.1770   67.7953 H   0  0  0  0  0  0  0  0  0  0  0  0
  124.3082  130.4811   67.0803 H   0  0  0  0  0  0  0  0  0  0  0  0
  122.5179  130.6269   67.0803 H   0  0  0  0  0  0  0  0  0  0  0  0
  1  2  1  0
  2  3  1  0
  3  4  2  0
  4  5  1  0
  5  6  1  0
  6  7  1  0
  7  8  1  0
  8  9  2  0
  8 10  1  0
 10 11  1  0
 11 12  1  0
 12 13  2  0
 13 14  1  0
 14 15  1  0
 14 16  2  0
 16 17  1  0
 17 18  1  0
 17 19  2  0
 19 20  1  0
 20 21  1  0
  5 22  2  0
 22 23  1  0
 23 24  1  0
 24 25  1  0
 23 26  2  0
 26 27  1  0
 27 28  1  0
 26  3  1  0
 20 10  2  0
 19 12  1  0
  1 29  1  0
  1 30  1  0
  1 31  1  0
  4 32  1  0
  6 33  1  0
  6 34  1  0
  7 35  1  0
 15 36  1  0
 15 37  1  0
 15 38  1  0
 16 39  1  0
 18 40  1  0
 18 41  1  0
 18 42  1  0
 21 43  1  0
 21 44  1  0
 22 45  1  0
 25 46  1  0
 25 47  1  0
 25 48  1  0
 28 49  1  0
 28 50  1  0
 28 51  1  0
M  END
>  <Binding energies>  (1) 
[-6.87]

>  <Ligand effiencies>  (1) 
[-0.22161290322580646]

>  <Interactions>  (1) 
["V-B:TYR:539:CE2:9848, V-A:GLU:543:CD:4908, V-B:ILE:369:CD1:8211, H-B:GLY:454:N:9022, H-B:TYR:484:OH:9320, V-A:GLU:543:CG:4907, V-B:ARG:545:CZ:9898, V-B:TYR:539:CD2:9846, V-A:ARG:545:CZ:4926, V-A:LEU:475:CD2:4259, V-B:ASP:366:CG:8185, V-B:GLU:543:CD:9880, H-A:ASP:366:OD1:3214, H-A:GLU:543:OE1:4909, H-A:GLU:543:OE2:4910, V-B:GLY:454:CA:9021, V-B:ARG:545:CD:9895, H-B:ARG:545:NE:9896, V-B:ARG:545:CG:9894, H-B:HIS:456:ND1:9039, V-B:TYR:484:CZ:9319, V-B:TYR:484:CE1:9317, V-B:HIS:456:CE1:9042, H-B:ARG:545:NH2:9900, V-B:GLY:453:C:9014, V-B:ILE:455:C:9024, H-B:ARG:545:NH1:9899, V-B:GLY:453:CA:9016, V-B:GLU:543:CB:9878, V-B:GLY:454:C:9019"]

$$$$
4ai_Grossjean_2025
     RDKit          3D

 32 34  0  0  0  0  0  0  0  0999 V2000
  123.3720  131.3110   76.4270 C   0  0  0  0  0  0  0  0  0  0  0  0
  124.7740  131.8470   76.1980 C   0  0  0  0  0  0  0  0  0  0  0  0
  125.5980  132.1830   77.2700 C   0  0  0  0  0  0  0  0  0  0  0  0
  126.8880  132.6700   77.0360 C   0  0  0  0  0  0  0  0  0  0  0  0
  127.7500  133.0200   78.2390 C   0  0  0  0  0  0  0  0  0  0  0  0
  127.3120  132.8030   75.6850 C   0  0  0  0  0  0  0  0  0  0  0  0
  128.5420  133.2590   75.0960 C   0  0  0  0  0  0  0  0  0  0  0  0
  129.6030  133.6860   75.8540 N   0  0  0  0  0  0  0  0  0  0  0  0
  128.5510  133.2190   73.6930 C   0  0  0  0  0  0  0  0  0  0  0  0
  129.6230  133.6150   72.7770 C   0  0  0  0  0  0  0  0  0  0  0  0
  130.3490  132.7680   72.2540 O   0  0  0  0  0  0  0  0  0  0  0  0
  129.7310  134.9490   72.5520 N   0  0  0  0  0  0  0  0  0  0  0  0
  130.6440  135.5940   71.7270 C   0  0  0  0  0  0  0  0  0  0  0  0
  131.5310  136.5680   72.1880 C   0  0  0  0  0  0  0  0  0  0  0  0
  132.2470  136.9530   71.0780 C   0  0  0  0  0  0  0  0  0  0  0  0
  131.8160  136.2480   70.0060 O   0  0  0  0  0  0  0  0  0  0  0  0
  130.8000  135.3890   70.4290 N   0  0  0  0  0  0  0  0  0  0  0  0
  127.0100  132.6330   73.0620 S   0  0  0  0  0  0  0  0  0  0  0  0
  126.3730  132.4260   74.6790 C   0  0  0  0  0  0  0  0  0  0  0  0
  125.1420  131.9620   74.8980 N   0  0  0  0  0  0  0  0  0  0  0  0
  123.1795  131.2374   77.5075 H   0  0  0  0  0  0  0  0  0  0  0  0
  122.6396  131.9926   75.9697 H   0  0  0  0  0  0  0  0  0  0  0  0
  123.2811  130.3147   75.9697 H   0  0  0  0  0  0  0  0  0  0  0  0
  125.2337  132.0652   78.3012 H   0  0  0  0  0  0  0  0  0  0  0  0
  127.1977  132.7958   79.1635 H   0  0  0  0  0  0  0  0  0  0  0  0
  128.6758  132.4265   78.2118 H   0  0  0  0  0  0  0  0  0  0  0  0
  128.0000  134.0909   78.2118 H   0  0  0  0  0  0  0  0  0  0  0  0
  129.6210  133.5730   76.8570 H   0  0  0  0  0  0  0  0  0  0  0  0
  130.4030  134.1350   75.4310 H   0  0  0  0  0  0  0  0  0  0  0  0
  129.0730  135.5500   73.0240 H   0  0  0  0  0  0  0  0  0  0  0  0
  131.6351  136.9459   73.2158 H   0  0  0  0  0  0  0  0  0  0  0  0
  133.0426  137.7125   71.0640 H   0  0  0  0  0  0  0  0  0  0  0  0
  1  2  1  0
  2  3  2  0
  3  4  1  0
  4  5  1  0
  4  6  2  0
  6  7  1  0
  7  8  1  0
  7  9  2  0
  9 10  1  0
 10 11  2  0
 10 12  1  0
 12 13  1  0
 13 14  1  0
 14 15  2  0
 15 16  1  0
 16 17  1  0
  9 18  1  0
 18 19  1  0
 19 20  2  0
 20  2  1  0
 19  6  1  0
 17 13  2  0
  1 21  1  0
  1 22  1  0
  1 23  1  0
  3 24  1  0
  5 25  1  0
  5 26  1  0
  5 27  1  0
  8 28  1  0
  8 29  1  0
 12 30  1  0
 14 31  1  0
 15 32  1  0
M  END
>  <Binding energies>  (1) 
[-6.67]

>  <Ligand effiencies>  (1) 
[-0.29]

>  <Interactions>  (1) 
["V-B:VAL:458:CG2:9059, V-B:HIS:456:C:9033, V-B:LYS:471:CD:9191, V-B:ASP:473:CB:9211, V-B:HIS:456:CB:9037, V-B:SER:483:CB:9305, V-B:TYR:484:CA:9311, V-B:TYR:484:CB:9313, V-A:VAL:542:CG1:4899, V-B:ASP:473:CG:9212, V-B:LYS:471:CB:9189, V-B:TYR:484:CG:9314, H-A:LYS:547:NZ:4951, V-A:LYS:547:CE:4950, V-B:LYS:471:C:9185, V-B:LEU:472:CA:9200, V-B:LYS:471:CA:9187, V-B:VAL:457:C:9045, V-B:HIS:456:CG:9038, V-B:HIS:456:CD2:9040, V-B:VAL:457:CA:9047, V-B:TYR:484:C:9309, H-B:TYR:484:N:9312, H-B:TYR:484:O:9310, H-A:GLY:544:N:4915"]

$$$$
4aj_Grossjean_2025
     RDKit          3D

 32 34  0  0  0  0  0  0  0  0999 V2000
  129.5960  126.5710   63.1220 C   0  0  0  0  0  0  0  0  0  0  0  0
  130.4980  125.4560   62.6270 C   0  0  0  0  0  0  0  0  0  0  0  0
  131.8840  125.5970   62.6370 C   0  0  0  0  0  0  0  0  0  0  0  0
  132.6970  124.5580   62.1700 C   0  0  0  0  0  0  0  0  0  0  0  0
  134.2040  124.7610   62.2010 C   0  0  0  0  0  0  0  0  0  0  0  0
  132.0610  123.3790   61.6980 C   0  0  0  0  0  0  0  0  0  0  0  0
  132.5760  122.1480   61.1600 C   0  0  0  0  0  0  0  0  0  0  0  0
  133.9200  121.9210   61.0100 N   0  0  0  0  0  0  0  0  0  0  0  0
  131.5840  121.2170   60.8160 C   0  0  0  0  0  0  0  0  0  0  0  0
  131.7490  119.8810   60.2390 C   0  0  0  0  0  0  0  0  0  0  0  0
  132.8470  119.5070   59.8210 O   0  0  0  0  0  0  0  0  0  0  0  0
  130.6310  119.1150   60.2170 N   0  0  0  0  0  0  0  0  0  0  0  0
  130.5190  117.8170   59.7380 C   0  0  0  0  0  0  0  0  0  0  0  0
  129.6710  116.8850   60.1200 N   0  0  0  0  0  0  0  0  0  0  0  0
  129.8450  115.7660   59.4440 C   0  0  0  0  0  0  0  0  0  0  0  0
  130.8580  115.7740   58.4890 C   0  0  0  0  0  0  0  0  0  0  0  0
  131.6150  117.3390   58.4820 S   0  0  0  0  0  0  0  0  0  0  0  0
  129.9710  121.8560   61.1380 S   0  0  0  0  0  0  0  0  0  0  0  0
  130.6340  123.3580   61.7430 C   0  0  0  0  0  0  0  0  0  0  0  0
  129.8560  124.3460   62.1860 N   0  0  0  0  0  0  0  0  0  0  0  0
  129.5908  126.5774   64.2220 H   0  0  0  0  0  0  0  0  0  0  0  0
  129.9699  127.5369   62.7515 H   0  0  0  0  0  0  0  0  0  0  0  0
  128.5733  126.4071   62.7515 H   0  0  0  0  0  0  0  0  0  0  0  0
  132.3395  126.5253   63.0121 H   0  0  0  0  0  0  0  0  0  0  0  0
  134.5464  124.8071   63.2453 H   0  0  0  0  0  0  0  0  0  0  0  0
  134.6977  123.9212   61.6900 H   0  0  0  0  0  0  0  0  0  0  0  0
  134.4579  125.7015   61.6900 H   0  0  0  0  0  0  0  0  0  0  0  0
  134.6060  122.6420   61.1800 H   0  0  0  0  0  0  0  0  0  0  0  0
  134.2710  121.0180   60.7210 H   0  0  0  0  0  0  0  0  0  0  0  0
  129.7850  119.5190   60.5910 H   0  0  0  0  0  0  0  0  0  0  0  0
  129.2243  114.8760   59.6247 H   0  0  0  0  0  0  0  0  0  0  0  0
  131.1346  114.9273   57.8435 H   0  0  0  0  0  0  0  0  0  0  0  0
  1  2  1  0
  2  3  2  0
  3  4  1  0
  4  5  1  0
  4  6  2  0
  6  7  1  0
  7  8  1  0
  7  9  2  0
  9 10  1  0
 10 11  2  0
 10 12  1  0
 12 13  1  0
 13 14  2  0
 14 15  1  0
 15 16  2  0
 16 17  1  0
  9 18  1  0
 18 19  1  0
 19 20  2  0
 20  2  1  0
 19  6  1  0
 17 13  1  0
  1 21  1  0
  1 22  1  0
  1 23  1  0
  3 24  1  0
  5 25  1  0
  5 26  1  0
  5 27  1  0
  8 28  1  0
  8 29  1  0
 12 30  1  0
 15 31  1  0
 16 32  1  0
M  END
>  <Binding energies>  (1) 
[-6.51]

>  <Ligand effiencies>  (1) 
[-0.28304347826086956]

>  <Interactions>  (1) 
["V-A:ASP:366:CG:3213, V-B:TYR:539:CE2:9848, V-A:GLU:543:CD:4908, V-A:ILE:369:CG2:3237, V-B:TYR:539:CD2:9846, V-A:ARG:545:CZ:4926, V-A:LEU:475:CD2:4259, V-B:TYR:539:CG:9844, V-B:TYR:539:C:9839, V-A:ILE:369:CD1:3239, V-B:GLU:543:CD:9880, V-B:TYR:539:CB:9843, H-A:TYR:484:OH:4348, H-B:TYR:539:O:9840, V-A:SER:385:CB:3409, V-B:VAL:344:CG2:7974, V-B:VAL:344:CG1:7973, V-A:LEU:373:CD1:3280, V-A:HIS:383:CE1:3394, V-A:PRO:482:CG:4327, V-A:LEU:373:CD2:3281, V-A:GLY:454:CA:4049, V-A:GLY:453:C:4042, V-A:GLY:453:CA:4044, H-A:SER:385:O:3406, V-B:ILE:343:CG2:7964"]

$$$$
4ak_Grossjean_2025
     RDKit          3D

 50 51  0  0  0  0  0  0  0  0999 V2000
  130.2070  128.0760   73.1000 C   0  0  0  0  0  0  0  0  0  0  0  0
  130.1360  128.4610   74.4640 O   0  0  0  0  0  0  0  0  0  0  0  0
  129.5100  127.4920   75.2950 C   0  0  0  0  0  0  0  0  0  0  0  0
  128.2920  128.1190   75.9840 C   0  0  0  0  0  0  0  0  0  0  0  0
  127.1120  127.7510   75.2820 O   0  0  0  0  0  0  0  0  0  0  0  0
  126.4170  128.8510   74.7110 C   0  0  0  0  0  0  0  0  0  0  0  0
  124.9290  128.5010   74.5850 C   0  0  0  0  0  0  0  0  0  0  0  0
  124.2060  129.1460   75.6250 O   0  0  0  0  0  0  0  0  0  0  0  0
  124.9280  130.1890   76.2670 C   0  0  0  0  0  0  0  0  0  0  0  0
  124.5570  131.5370   75.6220 C   0  0  0  0  0  0  0  0  0  0  0  0
  125.6890  132.2170   74.9930 N   0  0  0  0  0  0  0  0  0  0  0  0
  126.9380  132.2810   75.4960 C   0  0  0  0  0  0  0  0  0  0  0  0
  127.2520  131.7350   76.5550 O   0  0  0  0  0  0  0  0  0  0  0  0
  127.9120  133.0310   74.7060 C   0  0  0  0  0  0  0  0  0  0  0  0
  128.1800  132.6310   73.0100 S   0  0  0  0  0  0  0  0  0  0  0  0
  129.3720  133.9020   72.8510 C   0  0  0  0  0  0  0  0  0  0  0  0
  130.0090  134.1320   71.7020 N   0  0  0  0  0  0  0  0  0  0  0  0
  130.9100  135.1450   71.7140 C   0  0  0  0  0  0  0  0  0  0  0  0
  131.6230  135.3920   70.3970 C   0  0  0  0  0  0  0  0  0  0  0  0
  131.1850  135.9240   72.8350 C   0  0  0  0  0  0  0  0  0  0  0  0
  130.5140  135.6800   74.0400 C   0  0  0  0  0  0  0  0  0  0  0  0
  130.8520  136.5550   75.2370 C   0  0  0  0  0  0  0  0  0  0  0  0
  129.5630  134.6260   74.0660 C   0  0  0  0  0  0  0  0  0  0  0  0
  128.7140  134.1120   75.1070 C   0  0  0  0  0  0  0  0  0  0  0  0
  128.7030  134.6410   76.3730 N   0  0  0  0  0  0  0  0  0  0  0  0
  130.4061  126.9962   73.0337 H   0  0  0  0  0  0  0  0  0  0  0  0
  129.2517  128.3038   72.6045 H   0  0  0  0  0  0  0  0  0  0  0  0
  131.0182  128.6296   72.6045 H   0  0  0  0  0  0  0  0  0  0  0  0
  129.1853  126.6383   74.6821 H   0  0  0  0  0  0  0  0  0  0  0  0
  130.2242  127.1462   76.0568 H   0  0  0  0  0  0  0  0  0  0  0  0
  128.2302  127.7573   77.0210 H   0  0  0  0  0  0  0  0  0  0  0  0
  128.3931  129.2143   75.9845 H   0  0  0  0  0  0  0  0  0  0  0  0
  126.5333  129.7341   75.3565 H   0  0  0  0  0  0  0  0  0  0  0  0
  126.8293  129.0702   73.7151 H   0  0  0  0  0  0  0  0  0  0  0  0
  124.5525  128.8420   73.6093 H   0  0  0  0  0  0  0  0  0  0  0  0
  124.7981  127.4118   74.6653 H   0  0  0  0  0  0  0  0  0  0  0  0
  124.6703  130.2100   77.3362 H   0  0  0  0  0  0  0  0  0  0  0  0
  126.0079  130.0121   76.1555 H   0  0  0  0  0  0  0  0  0  0  0  0
  123.7902  131.3558   74.8545 H   0  0  0  0  0  0  0  0  0  0  0  0
  124.1954  132.1917   76.4287 H   0  0  0  0  0  0  0  0  0  0  0  0
  125.4990  132.6810   74.1160 H   0  0  0  0  0  0  0  0  0  0  0  0
  132.6455  135.7462   70.5944 H   0  0  0  0  0  0  0  0  0  0  0  0
  131.6641  134.4557   69.8211 H   0  0  0  0  0  0  0  0  0  0  0  0
  131.0761  136.1531   69.8211 H   0  0  0  0  0  0  0  0  0  0  0  0
  131.9296  136.7314   72.7741 H   0  0  0  0  0  0  0  0  0  0  0  0
  130.6393  136.0045   76.1653 H   0  0  0  0  0  0  0  0  0  0  0  0
  131.9184  136.8231   75.2058 H   0  0  0  0  0  0  0  0  0  0  0  0
  130.2428  137.4703   75.2058 H   0  0  0  0  0  0  0  0  0  0  0  0
  129.3610  134.3460   77.0800 H   0  0  0  0  0  0  0  0  0  0  0  0
  128.0340  135.3490   76.6390 H   0  0  0  0  0  0  0  0  0  0  0  0
  1  2  1  0
  2  3  1  0
  3  4  1  0
  4  5  1  0
  5  6  1  0
  6  7  1  0
  7  8  1  0
  8  9  1  0
  9 10  1  0
 10 11  1  0
 11 12  1  0
 12 13  2  0
 12 14  1  0
 14 15  1  0
 15 16  1  0
 16 17  2  0
 17 18  1  0
 18 19  1  0
 18 20  2  0
 20 21  1  0
 21 22  1  0
 21 23  2  0
 23 24  1  0
 24 25  1  0
 24 14  2  0
 23 16  1  0
  1 26  1  0
  1 27  1  0
  1 28  1  0
  3 29  1  0
  3 30  1  0
  4 31  1  0
  4 32  1  0
  6 33  1  0
  6 34  1  0
  7 35  1  0
  7 36  1  0
  9 37  1  0
  9 38  1  0
 10 39  1  0
 10 40  1  0
 11 41  1  0
 19 42  1  0
 19 43  1  0
 19 44  1  0
 20 45  1  0
 22 46  1  0
 22 47  1  0
 22 48  1  0
 25 49  1  0
 25 50  1  0
M  END
>  <Binding energies>  (1) 
[-5.55]

>  <Ligand effiencies>  (1) 
[-0.1982142857142857]

>  <Interactions>  (1) 
["V-B:LYS:547:CE:9922, V-B:VAL:458:CG2:9059, V-A:VAL:542:C:4894, V-B:HIS:456:C:9033, V-A:GLU:543:C:4902, H-B:ASP:473:OD2:9214, V-B:ASP:473:CB:9211, V-B:HIS:456:CB:9037, V-B:SER:483:CB:9305, V-B:TYR:484:CB:9313, V-A:VAL:542:CG1:4899, V-B:ASP:473:CG:9212, H-A:LYS:547:NZ:4951, V-A:LYS:547:CE:4950, H-B:ASP:473:OD1:9213, H-B:LYS:547:NZ:9923, V-B:HIS:456:CG:9038, V-B:HIS:456:CD2:9040, V-B:HIS:456:CA:9035, V-A:VAL:542:CB:4898, H-B:VAL:457:N:9048, H-B:VAL:458:N:9056, H-B:HIS:456:O:9034"]

$$$$
4al_Grossjean_2025
     RDKit          3D

 28 29  0  0  0  0  0  0  0  0999 V2000
  128.9680  125.6010   62.4040 C   0  0  0  0  0  0  0  0  0  0  0  0
  129.2910  124.2330   62.2060 O   0  0  0  0  0  0  0  0  0  0  0  0
  128.3140  123.2980   62.0760 C   0  0  0  0  0  0  0  0  0  0  0  0
  127.9110  122.5880   63.0000 O   0  0  0  0  0  0  0  0  0  0  0  0
  127.7770  123.2140   60.7000 C   0  0  0  0  0  0  0  0  0  0  0  0
  128.8240  122.7050   59.3740 S   0  0  0  0  0  0  0  0  0  0  0  0
  127.5170  122.8700   58.2240 C   0  0  0  0  0  0  0  0  0  0  0  0
  127.6820  122.6080   56.9270 N   0  0  0  0  0  0  0  0  0  0  0  0
  126.5890  122.7750   56.1410 C   0  0  0  0  0  0  0  0  0  0  0  0
  126.7980  122.4710   54.6690 C   0  0  0  0  0  0  0  0  0  0  0  0
  125.3490  123.1950   56.6190 C   0  0  0  0  0  0  0  0  0  0  0  0
  125.1790  123.4700   57.9800 C   0  0  0  0  0  0  0  0  0  0  0  0
  123.8080  123.9250   58.4530 C   0  0  0  0  0  0  0  0  0  0  0  0
  126.3030  123.3050   58.8340 C   0  0  0  0  0  0  0  0  0  0  0  0
  126.4820  123.4930   60.2470 C   0  0  0  0  0  0  0  0  0  0  0  0
  125.4670  123.9090   61.0710 N   0  0  0  0  0  0  0  0  0  0  0  0
  128.9178  125.8136   63.4821 H   0  0  0  0  0  0  0  0  0  0  0  0
  129.7421  126.2311   61.9417 H   0  0  0  0  0  0  0  0  0  0  0  0
  127.9938  125.8184   61.9417 H   0  0  0  0  0  0  0  0  0  0  0  0
  127.4184  121.5686   54.5655 H   0  0  0  0  0  0  0  0  0  0  0  0
  125.8234  122.3032   54.1873 H   0  0  0  0  0  0  0  0  0  0  0  0
  127.3037  123.3209   54.1873 H   0  0  0  0  0  0  0  0  0  0  0  0
  124.5031  123.3104   55.9253 H   0  0  0  0  0  0  0  0  0  0  0  0
  123.7836  123.9331   59.5527 H   0  0  0  0  0  0  0  0  0  0  0  0
  123.6070  124.9380   58.0743 H   0  0  0  0  0  0  0  0  0  0  0  0
  123.0412  123.2332   58.0743 H   0  0  0  0  0  0  0  0  0  0  0  0
  124.6170  124.3160   60.7080 H   0  0  0  0  0  0  0  0  0  0  0  0
  125.5370  123.8220   62.0760 H   0  0  0  0  0  0  0  0  0  0  0  0
  1  2  1  0
  2  3  1  0
  3  4  2  0
  3  5  1  0
  5  6  1  0
  6  7  1  0
  7  8  2  0
  8  9  1  0
  9 10  1  0
  9 11  2  0
 11 12  1  0
 12 13  1  0
 12 14  2  0
 14 15  1  0
 15 16  1  0
 15  5  2  0
 14  7  1  0
  1 17  1  0
  1 18  1  0
  1 19  1  0
 10 20  1  0
 10 21  1  0
 10 22  1  0
 11 23  1  0
 13 24  1  0
 13 25  1  0
 13 26  1  0
 16 27  1  0
 16 28  1  0
M  END
>  <Binding energies>  (1) 
[-5.92]

>  <Ligand effiencies>  (1) 
[-0.3288888888888889]

>  <Interactions>  (1) 
["V-B:MET:535:CE:9807, V-B:TYR:539:CE2:9848, V-B:TYR:539:CD2:9846, V-B:TYR:539:CD1:9845, H-B:ASP:366:OD2:8187, V-B:TYR:539:CE1:9847, V-B:TYR:539:C:9839, V-B:ASP:366:CG:8185, H-B:TYR:539:N:9842, V-B:PRO:540:CB:9857, V-B:PRO:540:CA:9855, H-B:ALA:541:N:9863, V-B:ASP:366:CB:8184, V-B:PRO:540:N:9856, V-B:LEU:363:CD1:8161, V-B:TYR:531:CZ:9766, V-B:TYR:531:CE2:9765, V-B:GLU:543:CD:9880, H-B:GLU:543:OE1:9881, V-B:ILE:538:CA:9832, V-B:ILE:538:CD1:9837, H-A:TYR:484:OH:4348, V-B:ILE:538:C:9830, V-B:LEU:363:CA:8157, V-B:LEU:363:CB:8159, V-B:VAL:537:C:9822"]

$$$$
4ba_Grossjean_2025
     RDKit          3D

 44 46  0  0  0  0  0  0  0  0999 V2000
  132.7750  131.1550   56.4840 C   0  0  0  0  0  0  0  0  0  0  0  0
  132.2120  132.5300   56.0790 C   0  0  0  0  0  0  0  0  0  0  0  0
  130.6800  132.5860   55.9100 C   0  0  0  0  0  0  0  0  0  0  0  0
  130.2000  132.9940   54.8500 O   0  0  0  0  0  0  0  0  0  0  0  0
  129.8340  132.1300   57.0640 C   0  0  0  0  0  0  0  0  0  0  0  0
  130.4350  131.8950   58.3070 C   0  0  0  0  0  0  0  0  0  0  0  0
  129.6750  131.4700   59.3920 C   0  0  0  0  0  0  0  0  0  0  0  0
  128.3000  131.2750   59.2600 C   0  0  0  0  0  0  0  0  0  0  0  0
  127.6300  130.8360   60.4180 N   0  0  0  0  0  0  0  0  0  0  0  0
  127.1280  129.6140   60.7250 C   0  0  0  0  0  0  0  0  0  0  0  0
  127.1480  128.6470   59.9630 O   0  0  0  0  0  0  0  0  0  0  0  0
  126.5140  129.5060   62.0510 C   0  0  0  0  0  0  0  0  0  0  0  0
  124.7890  129.8010   62.2560 S   0  0  0  0  0  0  0  0  0  0  0  0
  124.9020  129.5400   63.9800 C   0  0  0  0  0  0  0  0  0  0  0  0
  123.8320  129.6350   64.7680 N   0  0  0  0  0  0  0  0  0  0  0  0
  124.0420  129.4120   66.0850 C   0  0  0  0  0  0  0  0  0  0  0  0
  122.8120  129.5340   66.9660 C   0  0  0  0  0  0  0  0  0  0  0  0
  125.2850  129.0970   66.6280 C   0  0  0  0  0  0  0  0  0  0  0  0
  126.4170  128.9950   65.8030 C   0  0  0  0  0  0  0  0  0  0  0  0
  127.7620  128.6430   66.4450 C   0  0  0  0  0  0  0  0  0  0  0  0
  128.6280  128.1050   65.5840 F   0  0  0  0  0  0  0  0  0  0  0  0
  128.3270  129.7430   66.9450 F   0  0  0  0  0  0  0  0  0  0  0  0
  127.5750  127.7600   67.4270 F   0  0  0  0  0  0  0  0  0  0  0  0
  126.2290  129.2300   64.4080 C   0  0  0  0  0  0  0  0  0  0  0  0
  127.1310  129.2270   63.2820 C   0  0  0  0  0  0  0  0  0  0  0  0
  128.4730  128.9720   63.4090 N   0  0  0  0  0  0  0  0  0  0  0  0
  127.6910  131.5020   58.0170 C   0  0  0  0  0  0  0  0  0  0  0  0
  128.4530  131.9260   56.9320 C   0  0  0  0  0  0  0  0  0  0  0  0
  132.8057  131.0800   57.5810 H   0  0  0  0  0  0  0  0  0  0  0  0
  132.1296  130.3611   56.0801 H   0  0  0  0  0  0  0  0  0  0  0  0
  133.7919  131.0417   56.0801 H   0  0  0  0  0  0  0  0  0  0  0  0
  132.4960  133.2564   56.8547 H   0  0  0  0  0  0  0  0  0  0  0  0
  132.6376  132.7560   55.0902 H   0  0  0  0  0  0  0  0  0  0  0  0
  131.5178  132.0479   58.4265 H   0  0  0  0  0  0  0  0  0  0  0  0
  130.1619  131.2864   60.3611 H   0  0  0  0  0  0  0  0  0  0  0  0
  127.4980  131.5540   61.1140 H   0  0  0  0  0  0  0  0  0  0  0  0
  123.1139  129.5041   68.0233 H   0  0  0  0  0  0  0  0  0  0  0  0
  122.3040  130.4869   66.7566 H   0  0  0  0  0  0  0  0  0  0  0  0
  122.1267  128.6994   66.7566 H   0  0  0  0  0  0  0  0  0  0  0  0
  125.3809  128.9269   67.7105 H   0  0  0  0  0  0  0  0  0  0  0  0
  128.8200  128.0690   63.6990 H   0  0  0  0  0  0  0  0  0  0  0  0
  129.1640  129.6850   63.2230 H   0  0  0  0  0  0  0  0  0  0  0  0
  126.6087  131.3446   57.8993 H   0  0  0  0  0  0  0  0  0  0  0  0
  127.9669  132.1028   55.9612 H   0  0  0  0  0  0  0  0  0  0  0  0
  1  2  1  0
  2  3  1  0
  3  4  2  0
  3  5  1  0
  5  6  2  0
  6  7  1  0
  7  8  2  0
  8  9  1  0
  9 10  1  0
 10 11  2  0
 10 12  1  0
 12 13  1  0
 13 14  1  0
 14 15  2  0
 15 16  1  0
 16 17  1  0
 16 18  2  0
 18 19  1  0
 19 20  1  0
 20 21  1  0
 20 22  1  0
 20 23  1  0
 19 24  2  0
 24 25  1  0
 25 26  1  0
  8 27  1  0
 27 28  2  0
 28  5  1  0
 25 12  2  0
 24 14  1  0
  1 29  1  0
  1 30  1  0
  1 31  1  0
  2 32  1  0
  2 33  1  0
  6 34  1  0
  7 35  1  0
  9 36  1  0
 17 37  1  0
 17 38  1  0
 17 39  1  0
 18 40  1  0
 26 41  1  0
 26 42  1  0
 27 43  1  0
 28 44  1  0
M  END
>  <Binding energies>  (1) 
[-7.2]

>  <Ligand effiencies>  (1) 
[-0.23225806451612904]

>  <Interactions>  (1) 
["V-A:PRO:540:CA:4883, V-A:GLU:543:CD:4908, H-B:GLY:454:N:9022, H-B:TYR:484:OH:9320, V-A:GLU:543:CG:4907, V-A:TYR:539:CE1:4875, V-B:ARG:545:CZ:9898, V-A:TYR:539:CD1:4873, V-A:TYR:539:C:4867, H-B:GLU:543:OE2:9882, V-B:GLU:543:CD:9880, V-A:PRO:540:CD:4887, V-A:TYR:531:CE2:4793, V-A:PRO:540:CB:4885, V-A:LEU:363:CD1:3189, H-A:TYR:539:N:4870, V-A:PRO:540:N:4884, H-A:GLU:543:OE1:4909, H-A:GLU:543:OE2:4910, V-A:GLU:543:CA:4904, V-B:GLY:454:CA:9021, V-A:PRO:540:CG:4886, V-B:ARG:545:CD:9895, H-B:ARG:545:NE:9896, V-B:ARG:545:CG:9894, V-B:TYR:484:CZ:9319, V-B:TYR:484:CE1:9317, V-B:HIS:456:CE1:9042, V-B:GLY:453:C:9014, V-B:ILE:455:C:9024, H-B:ARG:545:NH1:9899, V-B:GLY:453:CA:9016, V-A:GLU:543:CB:4906, V-A:TYR:531:CZ:4794, V-B:TYR:484:CE2:9318, V-B:ARG:545:CB:9893"]

$$$$
4bb_Grossjean_2025
     RDKit          3D

 41 43  0  0  0  0  0  0  0  0999 V2000
  132.3700  132.4850   56.0030 C   0  0  0  0  0  0  0  0  0  0  0  0
  130.8480  132.5870   55.8790 C   0  0  0  0  0  0  0  0  0  0  0  0
  130.3800  133.0230   54.8260 O   0  0  0  0  0  0  0  0  0  0  0  0
  130.0100  132.1620   57.0470 C   0  0  0  0  0  0  0  0  0  0  0  0
  130.6300  131.5980   58.1690 C   0  0  0  0  0  0  0  0  0  0  0  0
  129.8750  131.1950   59.2660 C   0  0  0  0  0  0  0  0  0  0  0  0
  128.4870  131.3550   59.2670 C   0  0  0  0  0  0  0  0  0  0  0  0
  127.8220  130.9100   60.4270 N   0  0  0  0  0  0  0  0  0  0  0  0
  127.1800  129.7410   60.6690 C   0  0  0  0  0  0  0  0  0  0  0  0
  127.0520  128.8390   59.8430 O   0  0  0  0  0  0  0  0  0  0  0  0
  126.6000  129.6140   62.0090 C   0  0  0  0  0  0  0  0  0  0  0  0
  124.8780  129.8930   62.2590 S   0  0  0  0  0  0  0  0  0  0  0  0
  125.0330  129.6050   63.9770 C   0  0  0  0  0  0  0  0  0  0  0  0
  123.9800  129.6720   64.7900 N   0  0  0  0  0  0  0  0  0  0  0  0
  124.2250  129.4300   66.0990 C   0  0  0  0  0  0  0  0  0  0  0  0
  123.0130  129.5090   67.0080 C   0  0  0  0  0  0  0  0  0  0  0  0
  125.4850  129.1270   66.6080 C   0  0  0  0  0  0  0  0  0  0  0  0
  126.5970  129.0560   65.7550 C   0  0  0  0  0  0  0  0  0  0  0  0
  127.9640  128.7190   66.3620 C   0  0  0  0  0  0  0  0  0  0  0  0
  128.7830  128.1120   65.4990 F   0  0  0  0  0  0  0  0  0  0  0  0
  128.5670  129.8390   66.7640 F   0  0  0  0  0  0  0  0  0  0  0  0
  127.8080  127.9050   67.4050 F   0  0  0  0  0  0  0  0  0  0  0  0
  126.3740  129.3060   64.3680 C   0  0  0  0  0  0  0  0  0  0  0  0
  127.2470  129.3230   63.2210 C   0  0  0  0  0  0  0  0  0  0  0  0
  128.5920  129.0690   63.3100 N   0  0  0  0  0  0  0  0  0  0  0  0
  127.8590  131.9120   58.1440 C   0  0  0  0  0  0  0  0  0  0  0  0
  128.6160  132.3130   57.0460 C   0  0  0  0  0  0  0  0  0  0  0  0
  132.6508  132.4662   57.0664 H   0  0  0  0  0  0  0  0  0  0  0  0
  132.7165  131.5616   55.5159 H   0  0  0  0  0  0  0  0  0  0  0  0
  132.8366  133.3539   55.5159 H   0  0  0  0  0  0  0  0  0  0  0  0
  131.7227  131.4726   58.1831 H   0  0  0  0  0  0  0  0  0  0  0  0
  130.3741  130.7475   60.1382 H   0  0  0  0  0  0  0  0  0  0  0  0
  127.8090  131.5850   61.1780 H   0  0  0  0  0  0  0  0  0  0  0  0
  123.3402  129.4877   68.0580 H   0  0  0  0  0  0  0  0  0  0  0  0
  122.4684  130.4445   66.8125 H   0  0  0  0  0  0  0  0  0  0  0  0
  122.3516  128.6521   66.8125 H   0  0  0  0  0  0  0  0  0  0  0  0
  125.6095  128.9422   67.6852 H   0  0  0  0  0  0  0  0  0  0  0  0
  128.9500  128.1490   63.5270 H   0  0  0  0  0  0  0  0  0  0  0  0
  129.2770  129.7990   63.1620 H   0  0  0  0  0  0  0  0  0  0  0  0
  126.7657  132.0326   58.1302 H   0  0  0  0  0  0  0  0  0  0  0  0
  128.1159  132.7521   56.1702 H   0  0  0  0  0  0  0  0  0  0  0  0
  1  2  1  0
  2  3  2  0
  2  4  1  0
  4  5  2  0
  5  6  1  0
  6  7  2  0
  7  8  1  0
  8  9  1  0
  9 10  2  0
  9 11  1  0
 11 12  1  0
 12 13  1  0
 13 14  2  0
 14 15  1  0
 15 16  1  0
 15 17  2  0
 17 18  1  0
 18 19  1  0
 19 20  1  0
 19 21  1  0
 19 22  1  0
 18 23  2  0
 23 24  1  0
 24 25  1  0
  7 26  1  0
 26 27  2  0
 27  4  1  0
 24 11  2  0
 23 13  1  0
  1 28  1  0
  1 29  1  0
  1 30  1  0
  5 31  1  0
  6 32  1  0
  8 33  1  0
 16 34  1  0
 16 35  1  0
 16 36  1  0
 17 37  1  0
 25 38  1  0
 25 39  1  0
 26 40  1  0
 27 41  1  0
M  END
>  <Binding energies>  (1) 
[-7.02]

>  <Ligand effiencies>  (1) 
[-0.23399999999999999]

>  <Interactions>  (1) 
["V-A:PRO:540:CA:4883, V-A:GLU:543:CD:4908, H-B:GLY:454:N:9022, H-B:TYR:484:OH:9320, V-A:GLU:543:CG:4907, V-A:TYR:539:CE1:4875, V-B:ARG:545:CZ:9898, V-A:TYR:539:CD1:4873, V-A:TYR:539:C:4867, H-B:GLU:543:OE2:9882, V-B:GLU:543:CD:9880, V-A:PRO:540:CD:4887, V-A:PRO:540:CB:4885, V-A:LEU:363:CD1:3189, V-A:ILE:538:CB:4862, H-A:TYR:539:N:4870, V-A:PRO:540:N:4884, V-A:TYR:539:CG:4872, H-A:GLU:543:OE1:4909, H-A:GLU:543:OE2:4910, V-A:GLU:543:CA:4904, V-B:GLY:454:CA:9021, V-A:PRO:540:CG:4886, V-B:ARG:545:CD:9895, H-B:ARG:545:NE:9896, V-B:ARG:545:CG:9894, V-B:TYR:484:CZ:9319, V-B:TYR:484:CE1:9317, V-B:HIS:456:CE1:9042, V-B:GLY:453:C:9014, V-B:ILE:455:C:9024, H-B:ARG:545:NH1:9899, V-B:GLY:453:CA:9016, V-A:GLU:543:CB:4906, V-B:TYR:484:CE2:9318, V-B:ARG:545:CB:9893"]

$$$$
4bc_Grossjean_2025
     RDKit          3D

 40 42  0  0  0  0  0  0  0  0999 V2000
  134.9650  128.1350   74.1240 C   0  0  0  0  0  0  0  0  0  0  0  0
  133.6690  127.9890   74.6940 O   0  0  0  0  0  0  0  0  0  0  0  0
  133.0670  126.7460   74.6880 C   0  0  0  0  0  0  0  0  0  0  0  0
  131.7050  126.7150   74.3880 C   0  0  0  0  0  0  0  0  0  0  0  0
  131.0120  125.5080   74.3580 C   0  0  0  0  0  0  0  0  0  0  0  0
  131.6770  124.3090   74.6200 C   0  0  0  0  0  0  0  0  0  0  0  0
  130.8930  123.1420   74.5820 N   0  0  0  0  0  0  0  0  0  0  0  0
  129.8360  122.8450   73.7870 C   0  0  0  0  0  0  0  0  0  0  0  0
  129.3630  123.6200   72.9550 O   0  0  0  0  0  0  0  0  0  0  0  0
  129.2590  121.5100   73.9780 C   0  0  0  0  0  0  0  0  0  0  0  0
  129.7450  120.5240   75.3550 S   0  0  0  0  0  0  0  0  0  0  0  0
  128.6840  119.2270   74.8580 C   0  0  0  0  0  0  0  0  0  0  0  0
  128.5920  118.0970   75.5580 N   0  0  0  0  0  0  0  0  0  0  0  0
  127.7390  117.1650   75.0740 C   0  0  0  0  0  0  0  0  0  0  0  0
  127.6440  115.8890   75.8890 C   0  0  0  0  0  0  0  0  0  0  0  0
  126.9840  117.3340   73.9150 C   0  0  0  0  0  0  0  0  0  0  0  0
  127.0780  118.5220   73.1730 C   0  0  0  0  0  0  0  0  0  0  0  0
  126.2290  118.6600   71.9040 C   0  0  0  0  0  0  0  0  0  0  0  0
  125.4370  119.7340   71.9210 F   0  0  0  0  0  0  0  0  0  0  0  0
  127.0250  118.7670   70.8400 F   0  0  0  0  0  0  0  0  0  0  0  0
  125.4480  117.5890   71.7640 F   0  0  0  0  0  0  0  0  0  0  0  0
  127.9670  119.5260   73.6580 C   0  0  0  0  0  0  0  0  0  0  0  0
  128.3170  120.8420   73.1810 C   0  0  0  0  0  0  0  0  0  0  0  0
  127.7710  121.3870   72.0460 N   0  0  0  0  0  0  0  0  0  0  0  0
  133.0440  124.3320   74.9360 C   0  0  0  0  0  0  0  0  0  0  0  0
  133.7330  125.5410   74.9660 C   0  0  0  0  0  0  0  0  0  0  0  0
  135.7116  128.2191   74.9275 H   0  0  0  0  0  0  0  0  0  0  0  0
  135.1931  127.2569   73.5020 H   0  0  0  0  0  0  0  0  0  0  0  0
  134.9920  129.0419   73.5020 H   0  0  0  0  0  0  0  0  0  0  0  0
  131.1733  127.6536   74.1730 H   0  0  0  0  0  0  0  0  0  0  0  0
  129.9366  125.4991   74.1270 H   0  0  0  0  0  0  0  0  0  0  0  0
  131.1430  122.4470   75.2700 H   0  0  0  0  0  0  0  0  0  0  0  0
  127.6624  116.1362   76.9607 H   0  0  0  0  0  0  0  0  0  0  0  0
  126.7047  115.3695   75.6486 H   0  0  0  0  0  0  0  0  0  0  0  0
  128.4960  115.2361   75.6486 H   0  0  0  0  0  0  0  0  0  0  0  0
  126.3103  116.5317   73.5795 H   0  0  0  0  0  0  0  0  0  0  0  0
  127.2460  120.8330   71.3860 H   0  0  0  0  0  0  0  0  0  0  0  0
  127.8750  122.3700   71.8350 H   0  0  0  0  0  0  0  0  0  0  0  0
  133.5718  123.3933   75.1603 H   0  0  0  0  0  0  0  0  0  0  0  0
  134.8058  125.5529   75.2089 H   0  0  0  0  0  0  0  0  0  0  0  0
  1  2  1  0
  2  3  1  0
  3  4  2  0
  4  5  1  0
  5  6  2  0
  6  7  1  0
  7  8  1  0
  8  9  2  0
  8 10  1  0
 10 11  1  0
 11 12  1  0
 12 13  2  0
 13 14  1  0
 14 15  1  0
 14 16  2  0
 16 17  1  0
 17 18  1  0
 18 19  1  0
 18 20  1  0
 18 21  1  0
 17 22  2  0
 22 23  1  0
 23 24  1  0
  6 25  1  0
 25 26  2  0
 26  3  1  0
 23 10  2  0
 22 12  1  0
  1 27  1  0
  1 28  1  0
  1 29  1  0
  4 30  1  0
  5 31  1  0
  7 32  1  0
 15 33  1  0
 15 34  1  0
 15 35  1  0
 16 36  1  0
 24 37  1  0
 24 38  1  0
 25 39  1  0
 26 40  1  0
M  END
>  <Binding energies>  (1) 
[-6.32]

>  <Ligand effiencies>  (1) 
[-0.21793103448275863]

>  <Interactions>  (1) 
["V-A:VAL:457:C:4073, V-A:HIS:456:CD2:4068, V-A:TYR:484:CB:4341, H-A:TYR:484:O:4338, V-A:ASP:473:CG:4240, V-A:VAL:458:CG2:4087, V-A:HIS:456:CG:4066, H-B:GLU:543:O:9875, V-B:LYS:547:CE:9922, V-A:HIS:456:C:4061, V-B:VAL:542:CG1:9871, V-A:TYR:484:C:4337, V-A:HIS:456:CB:4065, V-B:GLY:544:CA:9886, H-A:ASP:473:OD1:4241, V-A:LYS:547:CG:4948, V-A:LYS:547:CD:4949, V-A:LYS:547:CA:4945, V-A:ILE:546:C:4934, H-B:LYS:547:NZ:9923, V-A:LYS:547:CB:4947, V-A:GLY:544:C:4912, V-B:GLU:543:C:9874, V-B:VAL:542:C:9866, V-B:VAL:542:CB:9870, V-A:SER:483:CB:4333, V-A:ARG:545:C:4917, V-A:TYR:484:CA:4339, V-A:ILE:546:CA:4936, H-B:VAL:542:O:9867, V-A:SER:483:C:4329, V-A:SER:483:CA:4331"]

$$$$
4bd_Grossjean_2025
     RDKit          3D

 36 38  0  0  0  0  0  0  0  0999 V2000
  127.7090  115.9900   76.0030 C   0  0  0  0  0  0  0  0  0  0  0  0
  127.8040  117.2560   75.1710 C   0  0  0  0  0  0  0  0  0  0  0  0
  127.0890  117.3910   73.9840 C   0  0  0  0  0  0  0  0  0  0  0  0
  127.1890  118.5660   73.2230 C   0  0  0  0  0  0  0  0  0  0  0  0
  126.3860  118.6670   71.9220 C   0  0  0  0  0  0  0  0  0  0  0  0
  127.1590  118.7490   70.8360 F   0  0  0  0  0  0  0  0  0  0  0  0
  125.6150  117.5890   71.7820 F   0  0  0  0  0  0  0  0  0  0  0  0
  125.6200  119.7570   71.9480 F   0  0  0  0  0  0  0  0  0  0  0  0
  128.0430  119.5950   73.7200 C   0  0  0  0  0  0  0  0  0  0  0  0
  128.3890  120.9070   73.2290 C   0  0  0  0  0  0  0  0  0  0  0  0
  127.8750  121.4190   72.0660 N   0  0  0  0  0  0  0  0  0  0  0  0
  129.2950  121.6050   74.0450 C   0  0  0  0  0  0  0  0  0  0  0  0
  129.8670  122.9390   73.8410 C   0  0  0  0  0  0  0  0  0  0  0  0
  129.3890  123.7060   73.0040 O   0  0  0  0  0  0  0  0  0  0  0  0
  130.9220  123.2470   74.6360 N   0  0  0  0  0  0  0  0  0  0  0  0
  131.7120  124.4110   74.6630 C   0  0  0  0  0  0  0  0  0  0  0  0
  133.0150  124.2560   75.1440 C   0  0  0  0  0  0  0  0  0  0  0  0
  133.8780  125.3470   75.2010 C   0  0  0  0  0  0  0  0  0  0  0  0
  133.4410  126.5950   74.7670 C   0  0  0  0  0  0  0  0  0  0  0  0
  132.1500  126.7610   74.2720 C   0  0  0  0  0  0  0  0  0  0  0  0
  131.2840  125.6720   74.2140 C   0  0  0  0  0  0  0  0  0  0  0  0
  129.7430  120.6540   75.4590 S   0  0  0  0  0  0  0  0  0  0  0  0
  128.7210  119.3300   74.9500 C   0  0  0  0  0  0  0  0  0  0  0  0
  128.6220  118.2130   75.6680 N   0  0  0  0  0  0  0  0  0  0  0  0
  127.7286  116.2510   77.0714 H   0  0  0  0  0  0  0  0  0  0  0  0
  126.7692  115.4680   75.7703 H   0  0  0  0  0  0  0  0  0  0  0  0
  128.5604  115.3335   75.7703 H   0  0  0  0  0  0  0  0  0  0  0  0
  126.4413  116.5711   73.6403 H   0  0  0  0  0  0  0  0  0  0  0  0
  127.3780  120.8440   71.4010 H   0  0  0  0  0  0  0  0  0  0  0  0
  127.9720  122.3990   71.8360 H   0  0  0  0  0  0  0  0  0  0  0  0
  131.1770  122.5550   75.3250 H   0  0  0  0  0  0  0  0  0  0  0  0
  133.3605  123.2669   75.4793 H   0  0  0  0  0  0  0  0  0  0  0  0
  134.9005  125.2232   75.5873 H   0  0  0  0  0  0  0  0  0  0  0  0
  134.1214  127.4580   74.8154 H   0  0  0  0  0  0  0  0  0  0  0  0
  131.8149  127.7505   73.9275 H   0  0  0  0  0  0  0  0  0  0  0  0
  130.2659  125.7987   73.8171 H   0  0  0  0  0  0  0  0  0  0  0  0
  1  2  1  0
  2  3  2  0
  3  4  1  0
  4  5  1  0
  5  6  1  0
  5  7  1  0
  5  8  1  0
  4  9  2  0
  9 10  1  0
 10 11  1  0
 10 12  2  0
 12 13  1  0
 13 14  2  0
 13 15  1  0
 15 16  1  0
 16 17  2  0
 17 18  1  0
 18 19  2  0
 19 20  1  0
 20 21  2  0
 12 22  1  0
 22 23  1  0
 23 24  2  0
 24  2  1  0
 23  9  1  0
 21 16  1  0
  1 25  1  0
  1 26  1  0
  1 27  1  0
  3 28  1  0
 11 29  1  0
 11 30  1  0
 15 31  1  0
 17 32  1  0
 18 33  1  0
 19 34  1  0
 20 35  1  0
 21 36  1  0
M  END
>  <Binding energies>  (1) 
[-6.31]

>  <Ligand effiencies>  (1) 
[-0.2337037037037037]

>  <Interactions>  (1) 
["V-A:PRO:486:CD:4366, V-A:HIS:456:CD2:4068, V-A:TYR:484:CB:4341, H-A:TYR:484:O:4338, V-A:ASP:473:CG:4240, V-A:VAL:458:CG2:4087, V-A:HIS:456:CG:4066, H-B:GLU:543:O:9875, V-B:LYS:547:CE:9922, V-A:HIS:456:C:4061, V-B:VAL:542:CG1:9871, V-A:TYR:484:C:4337, V-A:HIS:456:CB:4065, V-B:GLY:544:CA:9886, H-A:ASP:473:OD1:4241, H-B:LYS:547:NZ:9923, V-B:GLU:543:C:9874, V-B:VAL:542:C:9866, V-B:VAL:542:CB:9870, V-A:SER:483:CB:4333, V-A:TYR:484:CA:4339, H-B:VAL:542:O:9867, V-A:SER:483:C:4329, V-A:SER:483:CA:4331"]

$$$$
4be_Grossjean_2025
     RDKit          3D

 38 40  0  0  0  0  0  0  0  0999 V2000
  125.5200  128.1610   74.9490 C   0  0  0  0  0  0  0  0  0  0  0  0
  125.2990  129.6130   75.3280 C   0  0  0  0  0  0  0  0  0  0  0  0
  124.1600  130.0200   76.0260 C   0  0  0  0  0  0  0  0  0  0  0  0
  124.0210  131.3730   76.3390 C   0  0  0  0  0  0  0  0  0  0  0  0
  125.0140  132.2760   75.9510 C   0  0  0  0  0  0  0  0  0  0  0  0
  126.1330  131.7990   75.2590 C   0  0  0  0  0  0  0  0  0  0  0  0
  127.0930  132.7600   74.8910 N   0  0  0  0  0  0  0  0  0  0  0  0
  128.0770  132.6680   73.9620 C   0  0  0  0  0  0  0  0  0  0  0  0
  128.2720  131.6700   73.2660 O   0  0  0  0  0  0  0  0  0  0  0  0
  128.9380  133.8480   73.8390 C   0  0  0  0  0  0  0  0  0  0  0  0
  128.9990  135.0380   75.1380 S   0  0  0  0  0  0  0  0  0  0  0  0
  130.1260  136.0270   74.2390 C   0  0  0  0  0  0  0  0  0  0  0  0
  130.5980  137.1690   74.7360 N   0  0  0  0  0  0  0  0  0  0  0  0
  131.4650  137.8460   73.9490 C   0  0  0  0  0  0  0  0  0  0  0  0
  131.9880  139.1460   74.5320 C   0  0  0  0  0  0  0  0  0  0  0  0
  131.8700  137.4100   72.6900 C   0  0  0  0  0  0  0  0  0  0  0  0
  131.3770  136.2070   72.1610 C   0  0  0  0  0  0  0  0  0  0  0  0
  131.8540  135.7670   70.7730 C   0  0  0  0  0  0  0  0  0  0  0  0
  130.8620  135.3250   69.9960 F   0  0  0  0  0  0  0  0  0  0  0  0
  132.4230  136.7950   70.1440 F   0  0  0  0  0  0  0  0  0  0  0  0
  132.7400  134.7790   70.8920 F   0  0  0  0  0  0  0  0  0  0  0  0
  130.4570  135.4710   72.9640 C   0  0  0  0  0  0  0  0  0  0  0  0
  129.7520  134.2290   72.7610 C   0  0  0  0  0  0  0  0  0  0  0  0
  129.8760  133.4860   71.6150 N   0  0  0  0  0  0  0  0  0  0  0  0
  126.2730  130.4780   74.9450 N   0  0  0  0  0  0  0  0  0  0  0  0
  125.6124  127.5538   75.8616 H   0  0  0  0  0  0  0  0  0  0  0  0
  124.6660  127.8029   74.3553 H   0  0  0  0  0  0  0  0  0  0  0  0
  126.4418  128.0732   74.3553 H   0  0  0  0  0  0  0  0  0  0  0  0
  123.3907  129.2916   76.3221 H   0  0  0  0  0  0  0  0  0  0  0  0
  123.1354  131.7261   76.8876 H   0  0  0  0  0  0  0  0  0  0  0  0
  124.9177  133.3463   76.1860 H   0  0  0  0  0  0  0  0  0  0  0  0
  127.0590  133.6140   75.4260 H   0  0  0  0  0  0  0  0  0  0  0  0
  131.9657  139.0905   75.6304 H   0  0  0  0  0  0  0  0  0  0  0  0
  133.0219  139.3097   74.1941 H   0  0  0  0  0  0  0  0  0  0  0  0
  131.3555  139.9801   74.1941 H   0  0  0  0  0  0  0  0  0  0  0  0
  132.5812  138.0126   72.1060 H   0  0  0  0  0  0  0  0  0  0  0  0
  129.4130  132.5950   71.5010 H   0  0  0  0  0  0  0  0  0  0  0  0
  130.4440  133.8040   70.8420 H   0  0  0  0  0  0  0  0  0  0  0  0
  1  2  1  0
  2  3  2  0
  3  4  1  0
  4  5  2  0
  5  6  1  0
  6  7  1  0
  7  8  1  0
  8  9  2  0
  8 10  1  0
 10 11  1  0
 11 12  1  0
 12 13  2  0
 13 14  1  0
 14 15  1  0
 14 16  2  0
 16 17  1  0
 17 18  1  0
 18 19  1  0
 18 20  1  0
 18 21  1  0
 17 22  2  0
 22 23  1  0
 23 24  1  0
  6 25  2  0
 25  2  1  0
 23 10  2  0
 22 12  1  0
  1 26  1  0
  1 27  1  0
  1 28  1  0
  3 29  1  0
  4 30  1  0
  5 31  1  0
  7 32  1  0
 15 33  1  0
 15 34  1  0
 15 35  1  0
 16 36  1  0
 24 37  1  0
 24 38  1  0
M  END
>  <Binding energies>  (1) 
[-6.5]

>  <Ligand effiencies>  (1) 
[-0.23214285714285715]

>  <Interactions>  (1) 
["V-B:VAL:458:CG2:9059, V-A:VAL:542:C:4894, V-A:GLY:544:CA:4914, V-B:TYR:484:CD2:9316, V-B:HIS:456:C:9033, V-A:GLU:543:C:4902, V-B:SER:483:CA:9303, H-B:ASP:473:OD2:9214, V-B:ASP:473:CB:9211, V-B:HIS:456:CB:9037, V-B:SER:483:CB:9305, V-B:TYR:484:CA:9311, V-B:TYR:484:CB:9313, V-A:VAL:542:CG1:4899, V-B:ASP:473:CG:9212, V-B:LYS:471:CB:9189, V-B:TYR:484:CG:9314, H-A:LYS:547:NZ:4951, H-B:ASP:473:OD1:9213, V-B:LYS:471:C:9185, V-B:LYS:547:CD:9921, V-B:VAL:457:C:9045, V-B:HIS:456:CD2:9040, V-B:VAL:457:CA:9047, V-B:TYR:484:C:9309, V-A:VAL:542:CB:4898, V-B:SER:483:C:9301, H-A:GLU:543:O:4903, H-A:VAL:542:O:4895"]

$$$$
4bf_Grossjean_2025
     RDKit          3D

 35 37  0  0  0  0  0  0  0  0999 V2000
  129.5090  132.9690   54.6640 C   0  0  0  0  0  0  0  0  0  0  0  0
  129.7270  132.4770   56.0840 C   0  0  0  0  0  0  0  0  0  0  0  0
  130.9140  131.8510   56.4520 C   0  0  0  0  0  0  0  0  0  0  0  0
  131.1000  131.3980   57.7680 C   0  0  0  0  0  0  0  0  0  0  0  0
  132.4230  130.7120   58.1260 C   0  0  0  0  0  0  0  0  0  0  0  0
  132.9840  131.2040   59.2340 F   0  0  0  0  0  0  0  0  0  0  0  0
  132.2160  129.4100   58.3280 F   0  0  0  0  0  0  0  0  0  0  0  0
  133.2980  130.8700   57.1320 F   0  0  0  0  0  0  0  0  0  0  0  0
  130.0310  131.6100   58.6880 C   0  0  0  0  0  0  0  0  0  0  0  0
  129.8600  131.2900   60.0840 C   0  0  0  0  0  0  0  0  0  0  0  0
  130.8290  130.6580   60.8220 N   0  0  0  0  0  0  0  0  0  0  0  0
  128.6220  131.6840   60.6170 C   0  0  0  0  0  0  0  0  0  0  0  0
  128.1080  131.4900   61.9770 C   0  0  0  0  0  0  0  0  0  0  0  0
  128.5020  132.1990   62.9030 O   0  0  0  0  0  0  0  0  0  0  0  0
  127.1850  130.5070   62.1130 N   0  0  0  0  0  0  0  0  0  0  0  0
  126.5390  130.0390   63.2730 C   0  0  0  0  0  0  0  0  0  0  0  0
  127.1330  129.2490   64.2730 C   0  0  0  0  0  0  0  0  0  0  0  0
  126.3730  128.8370   65.3710 C   0  0  0  0  0  0  0  0  0  0  0  0
  125.0340  129.2230   65.4380 C   0  0  0  0  0  0  0  0  0  0  0  0
  124.4360  129.9780   64.4830 N   0  0  0  0  0  0  0  0  0  0  0  0
  125.1870  130.3700   63.4230 C   0  0  0  0  0  0  0  0  0  0  0  0
  127.6230  132.4650   59.3940 S   0  0  0  0  0  0  0  0  0  0  0  0
  128.8670  132.2650   58.1820 C   0  0  0  0  0  0  0  0  0  0  0  0
  128.6950  132.6940   56.9330 N   0  0  0  0  0  0  0  0  0  0  0  0
  129.0635  133.9744   54.6887 H   0  0  0  0  0  0  0  0  0  0  0  0
  130.4739  133.0083   54.1374 H   0  0  0  0  0  0  0  0  0  0  0  0
  128.8316  132.2806   54.1374 H   0  0  0  0  0  0  0  0  0  0  0  0
  131.7114  131.7102   55.7075 H   0  0  0  0  0  0  0  0  0  0  0  0
  130.7860  130.6100   61.8300 H   0  0  0  0  0  0  0  0  0  0  0  0
  131.6230  130.2160   60.3790 H   0  0  0  0  0  0  0  0  0  0  0  0
  126.9050  130.0400   61.2630 H   0  0  0  0  0  0  0  0  0  0  0  0
  128.1903  128.9568   64.1915 H   0  0  0  0  0  0  0  0  0  0  0  0
  126.8208  128.2217   66.1653 H   0  0  0  0  0  0  0  0  0  0  0  0
  124.4368  128.9007   66.3037 H   0  0  0  0  0  0  0  0  0  0  0  0
  124.7090  130.9790   62.6416 H   0  0  0  0  0  0  0  0  0  0  0  0
  1  2  1  0
  2  3  2  0
  3  4  1  0
  4  5  1  0
  5  6  1  0
  5  7  1  0
  5  8  1  0
  4  9  2  0
  9 10  1  0
 10 11  1  0
 10 12  2  0
 12 13  1  0
 13 14  2  0
 13 15  1  0
 15 16  1  0
 16 17  2  0
 17 18  1  0
 18 19  2  0
 19 20  1  0
 20 21  2  0
 12 22  1  0
 22 23  1  0
 23 24  2  0
 24  2  1  0
 23  9  1  0
 21 16  1  0
  1 25  1  0
  1 26  1  0
  1 27  1  0
  3 28  1  0
 11 29  1  0
 11 30  1  0
 15 31  1  0
 17 32  1  0
 18 33  1  0
 19 34  1  0
 21 35  1  0
M  END
>  <Binding energies>  (1) 
[-6.13]

>  <Ligand effiencies>  (1) 
[-0.22703703703703704]

>  <Interactions>  (1) 
["V-A:ASP:366:CG:3213, V-A:PRO:540:CA:4883, V-A:ASP:366:CB:3212, H-B:GLY:454:N:9022, H-B:TYR:484:OH:9320, V-A:TYR:539:CE1:4875, V-B:ARG:545:CZ:9898, V-A:TYR:539:CD1:4873, V-A:TYR:539:C:4867, H-A:ASP:366:OD1:3214, V-A:TYR:539:CE2:4876, V-A:PRO:540:CB:4885, V-A:LEU:363:CD1:3189, V-A:TYR:539:CD2:4874, V-A:ILE:538:CA:4860, V-A:ILE:538:CB:4862, V-A:PRO:540:N:4884, V-A:TYR:539:CG:4872, H-A:GLU:543:OE1:4909, V-B:ARG:545:CD:9895, V-B:TYR:484:CZ:9319, V-A:LEU:363:CA:3185, V-A:ILE:538:C:4858"]

$$$$
4bg_Grossjean_2025
     RDKit          3D

 39 41  0  0  0  0  0  0  0  0999 V2000
  123.7790  132.4820   62.1290 C   0  0  0  0  0  0  0  0  0  0  0  0
  124.2560  131.3960   61.1820 C   0  0  0  0  0  0  0  0  0  0  0  0
  124.0140  131.4810   59.8140 C   0  0  0  0  0  0  0  0  0  0  0  0
  124.4560  130.4670   58.9490 C   0  0  0  0  0  0  0  0  0  0  0  0
  124.1660  130.6030   57.4510 C   0  0  0  0  0  0  0  0  0  0  0  0
  123.7540  129.4620   56.8930 F   0  0  0  0  0  0  0  0  0  0  0  0
  123.2080  131.5100   57.2590 F   0  0  0  0  0  0  0  0  0  0  0  0
  125.2690  130.9850   56.8100 F   0  0  0  0  0  0  0  0  0  0  0  0
  125.1530  129.3690   59.5360 C   0  0  0  0  0  0  0  0  0  0  0  0
  125.7360  128.1700   58.9850 C   0  0  0  0  0  0  0  0  0  0  0  0
  125.6890  127.8670   57.6480 N   0  0  0  0  0  0  0  0  0  0  0  0
  126.3610  127.3490   59.9360 C   0  0  0  0  0  0  0  0  0  0  0  0
  127.0200  126.0580   59.7350 C   0  0  0  0  0  0  0  0  0  0  0  0
  128.2430  125.9390   59.8250 O   0  0  0  0  0  0  0  0  0  0  0  0
  126.2040  125.0120   59.4880 N   0  0  0  0  0  0  0  0  0  0  0  0
  126.6390  123.6370   59.2410 C   0  0  0  0  0  0  0  0  0  0  0  0
  126.5030  123.2060   57.7870 C   0  0  0  0  0  0  0  0  0  0  0  0
  125.2490  122.8650   57.2710 C   0  0  0  0  0  0  0  0  0  0  0  0
  125.1210  122.5090   55.9310 C   0  0  0  0  0  0  0  0  0  0  0  0
  126.2450  122.5080   55.1070 C   0  0  0  0  0  0  0  0  0  0  0  0
  127.4940  122.8630   55.6100 C   0  0  0  0  0  0  0  0  0  0  0  0
  127.6220  123.2180   56.9500 C   0  0  0  0  0  0  0  0  0  0  0  0
  126.2140  128.0200   61.5580 S   0  0  0  0  0  0  0  0  0  0  0  0
  125.3420  129.4080   60.9510 C   0  0  0  0  0  0  0  0  0  0  0  0
  124.9180  130.3720   61.7680 N   0  0  0  0  0  0  0  0  0  0  0  0
  123.9240  132.1519   63.1682 H   0  0  0  0  0  0  0  0  0  0  0  0
  124.3560  133.4018   61.9525 H   0  0  0  0  0  0  0  0  0  0  0  0
  122.7113  132.6794   61.9525 H   0  0  0  0  0  0  0  0  0  0  0  0
  123.4729  132.3483   59.4077 H   0  0  0  0  0  0  0  0  0  0  0  0
  126.2250  128.3800   56.9640 H   0  0  0  0  0  0  0  0  0  0  0  0
  125.1040  127.1190   57.2990 H   0  0  0  0  0  0  0  0  0  0  0  0
  125.2210  125.1970   59.3490 H   0  0  0  0  0  0  0  0  0  0  0  0
  127.6961  123.5492   59.5322 H   0  0  0  0  0  0  0  0  0  0  0  0
  125.9854  122.9806   59.8343 H   0  0  0  0  0  0  0  0  0  0  0  0
  124.3636  122.8780   57.9236 H   0  0  0  0  0  0  0  0  0  0  0  0
  124.1376  122.2299   55.5248 H   0  0  0  0  0  0  0  0  0  0  0  0
  126.1445  122.2240   54.0490 H   0  0  0  0  0  0  0  0  0  0  0  0
  128.3753  122.8629   54.9517 H   0  0  0  0  0  0  0  0  0  0  0  0
  128.6047  123.5082   57.3503 H   0  0  0  0  0  0  0  0  0  0  0  0
  1  2  1  0
  2  3  2  0
  3  4  1  0
  4  5  1  0
  5  6  1  0
  5  7  1  0
  5  8  1  0
  4  9  2  0
  9 10  1  0
 10 11  1  0
 10 12  2  0
 12 13  1  0
 13 14  2  0
 13 15  1  0
 15 16  1  0
 16 17  1  0
 17 18  2  0
 18 19  1  0
 19 20  2  0
 20 21  1  0
 21 22  2  0
 12 23  1  0
 23 24  1  0
 24 25  2  0
 25  2  1  0
 24  9  1  0
 22 17  1  0
  1 26  1  0
  1 27  1  0
  1 28  1  0
  3 29  1  0
 11 30  1  0
 11 31  1  0
 15 32  1  0
 16 33  1  0
 16 34  1  0
 18 35  1  0
 19 36  1  0
 20 37  1  0
 21 38  1  0
 22 39  1  0
M  END
>  <Binding energies>  (1) 
[-6.63]

>  <Ligand effiencies>  (1) 
[-0.2367857142857143]

>  <Interactions>  (1) 
["V-A:TYR:539:CZ:4877, V-B:MET:535:CE:9807, V-B:ILE:369:CG2:8209, V-B:LEU:475:CD2:9231, V-B:TYR:539:CE2:9848, V-B:TYR:539:CZ:9849, V-B:ILE:369:CD1:8211, V-A:TYR:539:CE1:4875, H-B:TYR:531:OH:9767, V-B:TYR:539:CD1:9845, V-B:TYR:539:CG:9844, H-B:ASP:366:OD2:8187, V-B:TYR:539:CE1:9847, V-B:ASP:366:CG:8185, V-B:PRO:540:CB:9857, V-B:PRO:540:CA:9855, V-B:ASP:366:CB:8184, V-B:ASP:366:CA:8182, V-B:PRO:540:N:9856, V-B:LEU:363:CD1:8161, V-B:TYR:531:CZ:9766, V-B:TYR:531:CE2:9765, V-B:ILE:538:CA:9832, V-B:ILE:538:CD1:9837, V-B:PRO:540:CD:9859, V-B:ASP:366:C:8180, V-B:ILE:369:CB:8208, V-B:ILE:538:CG2:9835, V-B:GLY:454:CA:9021, V-B:ILE:538:C:9830, V-B:TYR:531:CE1:9764, V-B:ILE:538:CB:9834, V-B:ILE:369:C:8204"]

$$$$
4bh_Grossjean_2025
     RDKit          3D

 51 53  0  0  0  0  0  0  0  0999 V2000
  126.4960  127.2970   67.3780 C   0  0  0  0  0  0  0  0  0  0  0  0
  125.5780  128.2870   66.9280 O   0  0  0  0  0  0  0  0  0  0  0  0
  125.7020  128.7970   65.6490 C   0  0  0  0  0  0  0  0  0  0  0  0
  126.9090  128.8370   64.9340 C   0  0  0  0  0  0  0  0  0  0  0  0
  126.9620  129.3690   63.6460 C   0  0  0  0  0  0  0  0  0  0  0  0
  128.2730  129.3620   62.8680 C   0  0  0  0  0  0  0  0  0  0  0  0
  128.7750  128.0180   62.5810 N   0  0  0  0  0  0  0  0  0  0  0  0
  128.0280  126.9800   62.1520 C   0  0  0  0  0  0  0  0  0  0  0  0
  126.8080  127.0610   61.9970 O   0  0  0  0  0  0  0  0  0  0  0  0
  128.7440  125.7240   61.9230 C   0  0  0  0  0  0  0  0  0  0  0  0
  127.8460  124.2330   61.6560 S   0  0  0  0  0  0  0  0  0  0  0  0
  129.3270  123.3130   61.5320 C   0  0  0  0  0  0  0  0  0  0  0  0
  129.3130  122.0000   61.3080 N   0  0  0  0  0  0  0  0  0  0  0  0
  130.5220  121.3980   61.2300 C   0  0  0  0  0  0  0  0  0  0  0  0
  130.4830  119.9010   60.9760 C   0  0  0  0  0  0  0  0  0  0  0  0
  131.7330  122.0700   61.3670 C   0  0  0  0  0  0  0  0  0  0  0  0
  131.7550  123.4540   61.6050 C   0  0  0  0  0  0  0  0  0  0  0  0
  133.1110  124.1510   61.7470 C   0  0  0  0  0  0  0  0  0  0  0  0
  134.1450  123.3160   61.6210 F   0  0  0  0  0  0  0  0  0  0  0  0
  133.2380  125.0870   60.8060 F   0  0  0  0  0  0  0  0  0  0  0  0
  133.2020  124.7210   62.9480 F   0  0  0  0  0  0  0  0  0  0  0  0
  130.4960  124.1190   61.6960 C   0  0  0  0  0  0  0  0  0  0  0  0
  130.1280  125.4940   61.9320 C   0  0  0  0  0  0  0  0  0  0  0  0
  131.0520  126.4860   62.1380 N   0  0  0  0  0  0  0  0  0  0  0  0
  125.7910  129.8410   63.0490 C   0  0  0  0  0  0  0  0  0  0  0  0
  124.5710  129.8210   63.7420 C   0  0  0  0  0  0  0  0  0  0  0  0
  123.3770  130.2840   63.2180 O   0  0  0  0  0  0  0  0  0  0  0  0
  123.2530  130.4540   61.8100 C   0  0  0  0  0  0  0  0  0  0  0  0
  124.5410  129.3010   65.0440 C   0  0  0  0  0  0  0  0  0  0  0  0
  123.3490  129.2580   65.7280 O   0  0  0  0  0  0  0  0  0  0  0  0
  123.3860  129.9030   66.9940 C   0  0  0  0  0  0  0  0  0  0  0  0
  126.5095  127.2824   68.4778 H   0  0  0  0  0  0  0  0  0  0  0  0
  126.1854  126.3110   67.0020 H   0  0  0  0  0  0  0  0  0  0  0  0
  127.5026  127.5324   67.0020 H   0  0  0  0  0  0  0  0  0  0  0  0
  127.8262  128.4431   65.3961 H   0  0  0  0  0  0  0  0  0  0  0  0
  128.1141  129.8853   61.9136 H   0  0  0  0  0  0  0  0  0  0  0  0
  129.0250  129.8604   63.4974 H   0  0  0  0  0  0  0  0  0  0  0  0
  129.7780  127.9050   62.6060 H   0  0  0  0  0  0  0  0  0  0  0  0
  130.4691  119.3663   61.9372 H   0  0  0  0  0  0  0  0  0  0  0  0
  129.5780  119.6497   60.4034 H   0  0  0  0  0  0  0  0  0  0  0  0
  131.3737  119.6029   60.4034 H   0  0  0  0  0  0  0  0  0  0  0  0
  132.6787  121.5138   61.2884 H   0  0  0  0  0  0  0  0  0  0  0  0
  131.0710  127.0300   62.9900 H   0  0  0  0  0  0  0  0  0  0  0  0
  131.7440  126.7130   61.4380 H   0  0  0  0  0  0  0  0  0  0  0  0
  125.8255  130.2336   62.0220 H   0  0  0  0  0  0  0  0  0  0  0  0
  122.6166  131.3265   61.6007 H   0  0  0  0  0  0  0  0  0  0  0  0
  124.2489  130.6127   61.3707 H   0  0  0  0  0  0  0  0  0  0  0  0
  122.7977  129.5542   61.3707 H   0  0  0  0  0  0  0  0  0  0  0  0
  123.3426  129.1471   67.7920 H   0  0  0  0  0  0  0  0  0  0  0  0
  124.3187  130.4791   67.0849 H   0  0  0  0  0  0  0  0  0  0  0  0
  122.5253  130.5820   67.0849 H   0  0  0  0  0  0  0  0  0  0  0  0
  1  2  1  0
  2  3  1  0
  3  4  2  0
  4  5  1  0
  5  6  1  0
  6  7  1  0
  7  8  1  0
  8  9  2  0
  8 10  1  0
 10 11  1  0
 11 12  1  0
 12 13  2  0
 13 14  1  0
 14 15  1  0
 14 16  2  0
 16 17  1  0
 17 18  1  0
 18 19  1  0
 18 20  1  0
 18 21  1  0
 17 22  2  0
 22 23  1  0
 23 24  1  0
  5 25  2  0
 25 26  1  0
 26 27  1  0
 27 28  1  0
 26 29  2  0
 29 30  1  0
 30 31  1  0
 29  3  1  0
 23 10  2  0
 22 12  1  0
  1 32  1  0
  1 33  1  0
  1 34  1  0
  4 35  1  0
  6 36  1  0
  6 37  1  0
  7 38  1  0
 15 39  1  0
 15 40  1  0
 15 41  1  0
 16 42  1  0
 24 43  1  0
 24 44  1  0
 25 45  1  0
 28 46  1  0
 28 47  1  0
 28 48  1  0
 31 49  1  0
 31 50  1  0
 31 51  1  0
M  END
>  <Binding energies>  (1) 
[-6.45]

>  <Ligand effiencies>  (1) 
[-0.18970588235294117]

>  <Interactions>  (1) 
["V-A:ASP:366:CG:3213, V-A:ASP:366:CB:3212, V-A:GLU:543:CD:4908, V-B:ILE:369:CD1:8211, H-B:GLY:454:N:9022, V-A:GLU:543:CG:4907, V-B:ARG:545:CZ:9898, V-B:TYR:539:CD2:9846, V-A:ARG:545:CZ:4926, V-A:LEU:475:CD2:4259, V-B:ASP:366:CG:8185, V-A:ILE:369:CD1:3239, V-B:GLU:543:CD:9880, H-A:ASP:366:OD1:3214, H-A:GLU:543:OE1:4909, H-A:ASP:366:OD2:3215, H-A:GLU:543:OE2:4910, V-B:GLY:454:CA:9021, V-B:ARG:545:CD:9895, H-B:ARG:545:NE:9896, V-B:ARG:545:CG:9894, H-B:HIS:456:ND1:9039, V-B:TYR:484:CZ:9319, V-B:TYR:484:CE1:9317, V-B:HIS:456:CE1:9042, H-B:ARG:545:NH2:9900, V-B:GLY:453:C:9014, V-B:ILE:455:C:9024, H-B:ARG:545:NH1:9899, V-B:GLY:453:CA:9016, V-A:GLY:454:CA:4049, V-A:GLY:453:C:4042, V-B:GLU:543:CB:9878, V-B:GLY:454:C:9019"]

$$$$
4bi_Grossjean_2025
     RDKit          3D

 32 34  0  0  0  0  0  0  0  0999 V2000
  123.3870  131.3570   76.4220 C   0  0  0  0  0  0  0  0  0  0  0  0
  124.7980  131.8710   76.2030 C   0  0  0  0  0  0  0  0  0  0  0  0
  125.6280  132.1710   77.2800 C   0  0  0  0  0  0  0  0  0  0  0  0
  126.9340  132.6420   77.0620 C   0  0  0  0  0  0  0  0  0  0  0  0
  127.8130  132.9500   78.2790 C   0  0  0  0  0  0  0  0  0  0  0  0
  127.4590  132.2620   79.3660 F   0  0  0  0  0  0  0  0  0  0  0  0
  129.0810  132.6430   78.0090 F   0  0  0  0  0  0  0  0  0  0  0  0
  127.7280  134.2460   78.5810 F   0  0  0  0  0  0  0  0  0  0  0  0
  127.3530  132.7980   75.7070 C   0  0  0  0  0  0  0  0  0  0  0  0
  128.5850  133.2490   75.1080 C   0  0  0  0  0  0  0  0  0  0  0  0
  129.6670  133.6500   75.8480 N   0  0  0  0  0  0  0  0  0  0  0  0
  128.5790  133.2330   73.7030 C   0  0  0  0  0  0  0  0  0  0  0  0
  129.6450  133.6340   72.7800 C   0  0  0  0  0  0  0  0  0  0  0  0
  130.3700  132.7890   72.2520 O   0  0  0  0  0  0  0  0  0  0  0  0
  129.7470  134.9670   72.5520 N   0  0  0  0  0  0  0  0  0  0  0  0
  130.6510  135.6160   71.7210 C   0  0  0  0  0  0  0  0  0  0  0  0
  131.5510  136.5780   72.1780 C   0  0  0  0  0  0  0  0  0  0  0  0
  132.2550  136.9690   71.0620 C   0  0  0  0  0  0  0  0  0  0  0  0
  131.8030  136.2770   69.9890 O   0  0  0  0  0  0  0  0  0  0  0  0
  130.7860  135.4230   70.4200 N   0  0  0  0  0  0  0  0  0  0  0  0
  127.0270  132.6800   73.0780 S   0  0  0  0  0  0  0  0  0  0  0  0
  126.4040  132.4560   74.6960 C   0  0  0  0  0  0  0  0  0  0  0  0
  125.1670  132.0070   74.9080 N   0  0  0  0  0  0  0  0  0  0  0  0
  123.1867  131.2840   77.5011 H   0  0  0  0  0  0  0  0  0  0  0  0
  122.6684  132.0511   75.9618 H   0  0  0  0  0  0  0  0  0  0  0  0
  123.2832  130.3633   75.9618 H   0  0  0  0  0  0  0  0  0  0  0  0
  125.2592  132.0385   78.3078 H   0  0  0  0  0  0  0  0  0  0  0  0
  130.1450  133.0210   76.4790 H   0  0  0  0  0  0  0  0  0  0  0  0
  130.0220  134.5940   75.7930 H   0  0  0  0  0  0  0  0  0  0  0  0
  129.0900  135.5660   73.0300 H   0  0  0  0  0  0  0  0  0  0  0  0
  131.6721  136.9450   73.2079 H   0  0  0  0  0  0  0  0  0  0  0  0
  133.0562  137.7225   71.0443 H   0  0  0  0  0  0  0  0  0  0  0  0
  1  2  1  0
  2  3  2  0
  3  4  1  0
  4  5  1  0
  5  6  1  0
  5  7  1  0
  5  8  1  0
  4  9  2  0
  9 10  1  0
 10 11  1  0
 10 12  2  0
 12 13  1  0
 13 14  2  0
 13 15  1  0
 15 16  1  0
 16 17  1  0
 17 18  2  0
 18 19  1  0
 19 20  1  0
 12 21  1  0
 21 22  1  0
 22 23  2  0
 23  2  1  0
 22  9  1  0
 20 16  2  0
  1 24  1  0
  1 25  1  0
  1 26  1  0
  3 27  1  0
 11 28  1  0
 11 29  1  0
 15 30  1  0
 17 31  1  0
 18 32  1  0
M  END
>  <Binding energies>  (1) 
[-6.34]

>  <Ligand effiencies>  (1) 
[-0.24384615384615385]

>  <Interactions>  (1) 
["V-B:VAL:458:CG2:9059, V-B:HIS:456:C:9033, V-B:LYS:471:CD:9191, V-B:ASP:473:CB:9211, V-B:HIS:456:CB:9037, V-B:SER:483:CB:9305, V-B:TYR:484:CA:9311, V-B:TYR:484:CB:9313, V-A:VAL:542:CG1:4899, V-B:ASP:473:CG:9212, V-B:LYS:471:CB:9189, V-B:TYR:484:CG:9314, H-A:LYS:547:NZ:4951, V-A:LYS:547:CE:4950, V-B:LYS:471:C:9185, V-B:LEU:472:CA:9200, V-B:LYS:471:CA:9187, V-B:VAL:457:C:9045, V-B:HIS:456:CG:9038, V-B:HIS:456:CD2:9040, V-B:VAL:457:CA:9047, V-B:TYR:484:C:9309, V-B:LYS:471:CE:9192, H-B:TYR:484:N:9312, H-B:TYR:484:O:9310, H-A:GLY:544:N:4915, V-B:LYS:471:CG:9190"]

$$$$
4bj_Grossjean_2025
     RDKit          3D

 32 34  0  0  0  0  0  0  0  0999 V2000
  129.5250  132.9980   54.6310 C   0  0  0  0  0  0  0  0  0  0  0  0
  129.9070  132.4380   55.9890 C   0  0  0  0  0  0  0  0  0  0  0  0
  131.1350  131.8110   56.1870 C   0  0  0  0  0  0  0  0  0  0  0  0
  131.4730  131.2910   57.4470 C   0  0  0  0  0  0  0  0  0  0  0  0
  132.8340  130.6070   57.6150 C   0  0  0  0  0  0  0  0  0  0  0  0
  132.7330  129.3010   57.8730 F   0  0  0  0  0  0  0  0  0  0  0  0
  133.5470  130.7400   56.4970 F   0  0  0  0  0  0  0  0  0  0  0  0
  133.4960  131.1650   58.6290 F   0  0  0  0  0  0  0  0  0  0  0  0
  130.5140  131.4400   58.4920 C   0  0  0  0  0  0  0  0  0  0  0  0
  130.5040  131.0420   59.8790 C   0  0  0  0  0  0  0  0  0  0  0  0
  131.5490  130.3740   60.4660 N   0  0  0  0  0  0  0  0  0  0  0  0
  129.3380  131.4050   60.5720 C   0  0  0  0  0  0  0  0  0  0  0  0
  128.9930  131.1530   61.9730 C   0  0  0  0  0  0  0  0  0  0  0  0
  129.4780  131.8390   62.8760 O   0  0  0  0  0  0  0  0  0  0  0  0
  128.1110  130.1450   62.1840 N   0  0  0  0  0  0  0  0  0  0  0  0
  127.6140  129.7140   63.4060 C   0  0  0  0  0  0  0  0  0  0  0  0
  128.2350  129.6830   64.5650 N   0  0  0  0  0  0  0  0  0  0  0  0
  127.4560  129.2170   65.5210 C   0  0  0  0  0  0  0  0  0  0  0  0
  126.1670  128.8550   65.1420 C   0  0  0  0  0  0  0  0  0  0  0  0
  125.9770  129.1420   63.4370 S   0  0  0  0  0  0  0  0  0  0  0  0
  128.1990  132.2360   59.5140 S   0  0  0  0  0  0  0  0  0  0  0  0
  129.2960  132.1070   58.1580 C   0  0  0  0  0  0  0  0  0  0  0  0
  128.9780  132.5960   56.9600 N   0  0  0  0  0  0  0  0  0  0  0  0
  128.9098  133.8998   54.7661 H   0  0  0  0  0  0  0  0  0  0  0  0
  130.4361  133.2561   54.0713 H   0  0  0  0  0  0  0  0  0  0  0  0
  128.9522  132.2439   54.0713 H   0  0  0  0  0  0  0  0  0  0  0  0
  131.8445  131.7226   55.3511 H   0  0  0  0  0  0  0  0  0  0  0  0
  131.5020  130.0360   61.4160 H   0  0  0  0  0  0  0  0  0  0  0  0
  132.4090  130.2020   59.9640 H   0  0  0  0  0  0  0  0  0  0  0  0
  127.7680  129.6520   61.3730 H   0  0  0  0  0  0  0  0  0  0  0  0
  127.8052  129.1198   66.5596 H   0  0  0  0  0  0  0  0  0  0  0  0
  125.3933  128.4524   65.8123 H   0  0  0  0  0  0  0  0  0  0  0  0
  1  2  1  0
  2  3  2  0
  3  4  1  0
  4  5  1  0
  5  6  1  0
  5  7  1  0
  5  8  1  0
  4  9  2  0
  9 10  1  0
 10 11  1  0
 10 12  2  0
 12 13  1  0
 13 14  2  0
 13 15  1  0
 15 16  1  0
 16 17  2  0
 17 18  1  0
 18 19  2  0
 19 20  1  0
 12 21  1  0
 21 22  1  0
 22 23  2  0
 23  2  1  0
 22  9  1  0
 20 16  1  0
  1 24  1  0
  1 25  1  0
  1 26  1  0
  3 27  1  0
 11 28  1  0
 11 29  1  0
 15 30  1  0
 18 31  1  0
 19 32  1  0
M  END
>  <Binding energies>  (1) 
[-5.78]

>  <Ligand effiencies>  (1) 
[-0.22230769230769232]

>  <Interactions>  (1) 
["V-A:ASP:366:CG:3213, V-A:PRO:540:CA:4883, V-A:ASP:366:CB:3212, V-A:GLU:543:CD:4908, H-B:TYR:484:OH:9320, V-A:GLU:543:CG:4907, V-B:ARG:545:CZ:9898, V-A:TYR:539:C:4867, H-A:ASP:366:OD1:3214, V-A:TYR:539:CE2:4876, V-A:TYR:531:CE2:4793, V-A:PRO:540:CB:4885, V-A:LEU:363:CD1:3189, V-A:TYR:539:CD2:4874, V-A:ILE:538:CA:4860, V-A:ILE:538:CB:4862, V-A:PRO:540:N:4884, V-A:TYR:539:CG:4872, H-A:GLU:543:OE1:4909, V-A:ILE:538:CG2:4863, V-B:TYR:484:CZ:9319, V-A:LEU:363:CA:3185, V-A:ILE:538:C:4858, V-A:TYR:531:CZ:4794"]

$$$$
4bk_Grossjean_2025
     RDKit          3D

 50 51  0  0  0  0  0  0  0  0999 V2000
  126.4080  126.0560   58.5640 C   0  0  0  0  0  0  0  0  0  0  0  0
  127.3570  125.0590   58.9120 O   0  0  0  0  0  0  0  0  0  0  0  0
  127.7170  124.2170   57.8240 C   0  0  0  0  0  0  0  0  0  0  0  0
  127.2800  122.7780   58.1240 C   0  0  0  0  0  0  0  0  0  0  0  0
  126.9450  122.1220   56.9090 O   0  0  0  0  0  0  0  0  0  0  0  0
  125.9030  122.7590   56.1810 C   0  0  0  0  0  0  0  0  0  0  0  0
  124.5930  122.6600   56.9750 C   0  0  0  0  0  0  0  0  0  0  0  0
  124.5790  123.6600   57.9850 O   0  0  0  0  0  0  0  0  0  0  0  0
  123.3910  123.6710   58.7670 C   0  0  0  0  0  0  0  0  0  0  0  0
  123.7620  123.6200   60.2590 C   0  0  0  0  0  0  0  0  0  0  0  0
  125.2040  123.5830   60.5050 N   0  0  0  0  0  0  0  0  0  0  0  0
  125.7870  123.2350   61.6710 C   0  0  0  0  0  0  0  0  0  0  0  0
  125.1360  122.8880   62.6570 O   0  0  0  0  0  0  0  0  0  0  0  0
  127.2500  123.2830   61.6990 C   0  0  0  0  0  0  0  0  0  0  0  0
  128.1820  121.7890   61.7550 S   0  0  0  0  0  0  0  0  0  0  0  0
  129.6880  122.6770   61.7330 C   0  0  0  0  0  0  0  0  0  0  0  0
  130.8640  122.0520   61.7640 N   0  0  0  0  0  0  0  0  0  0  0  0
  131.9600  122.8460   61.7410 C   0  0  0  0  0  0  0  0  0  0  0  0
  133.2890  122.1120   61.7740 C   0  0  0  0  0  0  0  0  0  0  0  0
  131.9080  124.2360   61.6900 C   0  0  0  0  0  0  0  0  0  0  0  0
  130.6720  124.9010   61.6590 C   0  0  0  0  0  0  0  0  0  0  0  0
  130.6650  126.4320   61.6070 C   0  0  0  0  0  0  0  0  0  0  0  0
  129.9680  126.9160   60.5770 F   0  0  0  0  0  0  0  0  0  0  0  0
  130.1210  126.9190   62.7220 F   0  0  0  0  0  0  0  0  0  0  0  0
  131.9130  126.8850   61.4930 F   0  0  0  0  0  0  0  0  0  0  0  0
  129.4960  124.0930   61.6810 C   0  0  0  0  0  0  0  0  0  0  0  0
  128.0890  124.4070   61.6580 C   0  0  0  0  0  0  0  0  0  0  0  0
  127.6170  125.6930   61.6030 N   0  0  0  0  0  0  0  0  0  0  0  0
  125.9877  126.4976   59.4796 H   0  0  0  0  0  0  0  0  0  0  0  0
  126.9011  126.8407   57.9714 H   0  0  0  0  0  0  0  0  0  0  0  0
  125.6000  125.6022   57.9714 H   0  0  0  0  0  0  0  0  0  0  0  0
  127.2187  124.5681   56.9083 H   0  0  0  0  0  0  0  0  0  0  0  0
  128.8075  124.2468   57.6829 H   0  0  0  0  0  0  0  0  0  0  0  0
  128.1033  122.2398   58.6164 H   0  0  0  0  0  0  0  0  0  0  0  0
  126.4026  122.7919   58.7874 H   0  0  0  0  0  0  0  0  0  0  0  0
  126.1584  123.8174   56.0246 H   0  0  0  0  0  0  0  0  0  0  0  0
  125.7803  122.2647   55.2060 H   0  0  0  0  0  0  0  0  0  0  0  0
  123.7401  122.8107   56.2969 H   0  0  0  0  0  0  0  0  0  0  0  0
  124.5181  121.6658   57.4398 H   0  0  0  0  0  0  0  0  0  0  0  0
  122.8242  124.5909   58.5608 H   0  0  0  0  0  0  0  0  0  0  0  0
  122.7742  122.7968   58.5113 H   0  0  0  0  0  0  0  0  0  0  0  0
  123.3485  124.5130   60.7505 H   0  0  0  0  0  0  0  0  0  0  0  0
  123.3426  122.6868   60.6631 H   0  0  0  0  0  0  0  0  0  0  0  0
  125.7950  123.8570   59.7340 H   0  0  0  0  0  0  0  0  0  0  0  0
  133.5902  121.9457   62.8188 H   0  0  0  0  0  0  0  0  0  0  0  0
  133.1855  121.1431   61.2635 H   0  0  0  0  0  0  0  0  0  0  0  0
  134.0540  122.7155   61.2635 H   0  0  0  0  0  0  0  0  0  0  0  0
  132.8417  124.8174   61.6739 H   0  0  0  0  0  0  0  0  0  0  0  0
  127.6030  126.2230   60.7420 H   0  0  0  0  0  0  0  0  0  0  0  0
  127.2590  126.1570   62.4270 H   0  0  0  0  0  0  0  0  0  0  0  0
  1  2  1  0
  2  3  1  0
  3  4  1  0
  4  5  1  0
  5  6  1  0
  6  7  1  0
  7  8  1  0
  8  9  1  0
  9 10  1  0
 10 11  1  0
 11 12  1  0
 12 13  2  0
 12 14  1  0
 14 15  1  0
 15 16  1  0
 16 17  2  0
 17 18  1  0
 18 19  1  0
 18 20  2  0
 20 21  1  0
 21 22  1  0
 22 23  1  0
 22 24  1  0
 22 25  1  0
 21 26  2  0
 26 27  1  0
 27 28  1  0
 27 14  2  0
 26 16  1  0
  1 29  1  0
  1 30  1  0
  1 31  1  0
  3 32  1  0
  3 33  1  0
  4 34  1  0
  4 35  1  0
  6 36  1  0
  6 37  1  0
  7 38  1  0
  7 39  1  0
  9 40  1  0
  9 41  1  0
 10 42  1  0
 10 43  1  0
 11 44  1  0
 19 45  1  0
 19 46  1  0
 19 47  1  0
 20 48  1  0
 28 49  1  0
 28 50  1  0
M  END
>  <Binding energies>  (1) 
[-4.95]

>  <Ligand effiencies>  (1) 
[-0.15967741935483873]

>  <Interactions>  (1) 
["V-A:ASP:366:CG:3213, V-A:GLU:543:CD:4908, V-A:ARG:545:CZ:4926, V-A:LEU:475:CD2:4259, H-B:TYR:531:OH:9767, H-B:ASP:366:OD2:8187, V-B:TYR:539:C:9839, V-B:ASP:366:CG:8185, H-B:TYR:539:N:9842, V-B:PRO:540:CB:9857, V-B:PRO:540:CA:9855, H-B:ALA:541:N:9863, V-B:ASP:366:CB:8184, V-B:PRO:540:N:9856, V-B:LEU:363:CD1:8161, H-B:GLU:543:OE2:9882, V-B:GLU:543:CD:9880, H-B:GLU:543:OE1:9881, V-B:ILE:538:CD1:9837, V-B:PRO:540:C:9853, V-B:PRO:540:CG:9858, V-B:PRO:540:CD:9859, V-B:ALA:541:CB:9864, H-A:TYR:484:OH:4348, H-B:ARG:545:NH2:9900, V-B:ASN:362:CB:8148, V-B:LEU:363:CA:8157, V-B:LEU:363:CB:8159, V-B:ALA:541:CA:9862, V-A:GLY:454:CA:4049, V-B:ASN:362:C:8144"]

$$$$
4ca_Grossjean_2025
     RDKit          3D

 52 55  0  0  0  0  0  0  0  0999 V2000
  124.0960  134.1380   60.9220 C   0  0  0  0  0  0  0  0  0  0  0  0
  124.8730  132.9810   61.5580 C   0  0  0  0  0  0  0  0  0  0  0  0
  124.1130  132.4320   62.6270 O   0  0  0  0  0  0  0  0  0  0  0  0
  123.5450  131.2020   62.5240 C   0  0  0  0  0  0  0  0  0  0  0  0
  122.3250  131.0200   62.4600 O   0  0  0  0  0  0  0  0  0  0  0  0
  124.5490  130.0860   62.4930 C   0  0  0  0  0  0  0  0  0  0  0  0
  124.9370  129.5490   61.2580 C   0  0  0  0  0  0  0  0  0  0  0  0
  125.8690  128.5170   61.1970 C   0  0  0  0  0  0  0  0  0  0  0  0
  126.4260  127.9960   62.3650 C   0  0  0  0  0  0  0  0  0  0  0  0
  127.3650  126.9610   62.1870 N   0  0  0  0  0  0  0  0  0  0  0  0
  128.6870  127.0230   61.8910 C   0  0  0  0  0  0  0  0  0  0  0  0
  129.3200  128.0720   61.7720 O   0  0  0  0  0  0  0  0  0  0  0  0
  129.3530  125.7280   61.7340 C   0  0  0  0  0  0  0  0  0  0  0  0
  128.4040  124.2740   61.4370 S   0  0  0  0  0  0  0  0  0  0  0  0
  129.8500  123.2970   61.3370 C   0  0  0  0  0  0  0  0  0  0  0  0
  129.7880  121.9880   61.1040 N   0  0  0  0  0  0  0  0  0  0  0  0
  130.9650  121.3140   61.0290 C   0  0  0  0  0  0  0  0  0  0  0  0
  130.8620  119.8410   60.7550 C   0  0  0  0  0  0  0  0  0  0  0  0
  129.8770  119.0610   61.3810 C   0  0  0  0  0  0  0  0  0  0  0  0
  129.7810  117.6930   61.1350 C   0  0  0  0  0  0  0  0  0  0  0  0
  130.6720  117.0850   60.2580 C   0  0  0  0  0  0  0  0  0  0  0  0
  131.6590  117.8340   59.6260 C   0  0  0  0  0  0  0  0  0  0  0  0
  131.7520  119.2010   59.8750 C   0  0  0  0  0  0  0  0  0  0  0  0
  132.1960  121.9540   61.2120 C   0  0  0  0  0  0  0  0  0  0  0  0
  132.2710  123.3320   61.4630 C   0  0  0  0  0  0  0  0  0  0  0  0
  133.6540  123.9690   61.6490 C   0  0  0  0  0  0  0  0  0  0  0  0
  134.6320  123.0700   61.7740 F   0  0  0  0  0  0  0  0  0  0  0  0
  133.9450  124.7320   60.5970 F   0  0  0  0  0  0  0  0  0  0  0  0
  133.6600  124.7180   62.7520 F   0  0  0  0  0  0  0  0  0  0  0  0
  131.0440  124.0520   61.5260 C   0  0  0  0  0  0  0  0  0  0  0  0
  130.7290  125.4420   61.7480 C   0  0  0  0  0  0  0  0  0  0  0  0
  131.6920  126.3960   61.9580 N   0  0  0  0  0  0  0  0  0  0  0  0
  126.0480  128.5310   63.6050 C   0  0  0  0  0  0  0  0  0  0  0  0
  125.1170  129.5650   63.6650 C   0  0  0  0  0  0  0  0  0  0  0  0
  123.6700  134.7724   61.7133 H   0  0  0  0  0  0  0  0  0  0  0  0
  124.7757  134.7369   60.2980 H   0  0  0  0  0  0  0  0  0  0  0  0
  123.2844  133.7355   60.2980 H   0  0  0  0  0  0  0  0  0  0  0  0
  125.0575  132.2036   60.8020 H   0  0  0  0  0  0  0  0  0  0  0  0
  125.8340  133.3522   61.9436 H   0  0  0  0  0  0  0  0  0  0  0  0
  124.5014  129.9463   60.3293 H   0  0  0  0  0  0  0  0  0  0  0  0
  126.1686  128.1092   60.2203 H   0  0  0  0  0  0  0  0  0  0  0  0
  126.9850  126.0350   62.3120 H   0  0  0  0  0  0  0  0  0  0  0  0
  129.1701  119.5371   62.0764 H   0  0  0  0  0  0  0  0  0  0  0  0
  129.0028  117.0960   61.6330 H   0  0  0  0  0  0  0  0  0  0  0  0
  130.5960  116.0051   60.0627 H   0  0  0  0  0  0  0  0  0  0  0  0
  132.3624  117.3491   58.9331 H   0  0  0  0  0  0  0  0  0  0  0  0
  132.5350  119.7898   59.3747 H   0  0  0  0  0  0  0  0  0  0  0  0
  133.1232  121.3647   61.1579 H   0  0  0  0  0  0  0  0  0  0  0  0
  132.6780  126.1780   61.9140 H   0  0  0  0  0  0  0  0  0  0  0  0
  131.4480  127.3550   62.1620 H   0  0  0  0  0  0  0  0  0  0  0  0
  126.4875  128.1333   64.5316 H   0  0  0  0  0  0  0  0  0  0  0  0
  124.8240  129.9775   64.6417 H   0  0  0  0  0  0  0  0  0  0  0  0
  1  2  1  0
  2  3  1  0
  3  4  1  0
  4  5  2  0
  4  6  1  0
  6  7  2  0
  7  8  1  0
  8  9  2  0
  9 10  1  0
 10 11  1  0
 11 12  2  0
 11 13  1  0
 13 14  1  0
 14 15  1  0
 15 16  2  0
 16 17  1  0
 17 18  1  0
 18 19  2  0
 19 20  1  0
 20 21  2  0
 21 22  1  0
 22 23  2  0
 17 24  2  0
 24 25  1  0
 25 26  1  0
 26 27  1  0
 26 28  1  0
 26 29  1  0
 25 30  2  0
 30 31  1  0
 31 32  1  0
  9 33  1  0
 33 34  2  0
 34  6  1  0
 31 13  2  0
 30 15  1  0
 23 18  1  0
  1 35  1  0
  1 36  1  0
  1 37  1  0
  2 38  1  0
  2 39  1  0
  7 40  1  0
  8 41  1  0
 10 42  1  0
 19 43  1  0
 20 44  1  0
 21 45  1  0
 22 46  1  0
 23 47  1  0
 24 48  1  0
 32 49  1  0
 32 50  1  0
 33 51  1  0
 34 52  1  0
M  END
>  <Binding energies>  (1) 
[-7.35]

>  <Ligand effiencies>  (1) 
[-0.19864864864864865]

>  <Interactions>  (1) 
["V-A:ASP:366:CA:3210, V-A:ASP:366:CG:3213, V-B:ILE:369:CG2:8209, V-B:LEU:475:CD2:9231, V-B:TYR:539:CE2:9848, V-A:ASP:366:CB:3212, V-A:GLU:543:CD:4908, V-B:ILE:369:CD1:8211, H-B:GLY:454:N:9022, V-B:ARG:545:CZ:9898, V-B:TYR:539:CD2:9846, V-A:ARG:545:CZ:4926, V-A:LEU:475:CD2:4259, V-B:TYR:539:CG:9844, V-B:TYR:539:C:9839, V-B:ASP:366:CG:8185, V-A:ILE:369:CD1:3239, H-B:GLU:543:OE2:9882, V-B:GLU:543:CD:9880, H-B:GLU:543:OE1:9881, H-A:ASP:366:OD1:3214, H-A:GLU:543:OE1:4909, H-A:ASP:366:OD2:3215, H-A:GLU:543:OE2:4910, V-B:TYR:539:CB:9843, V-A:LEU:475:CD1:4258, V-B:ALA:541:CB:9864, V-B:GLY:454:CA:9021, V-B:SER:385:CA:8379, V-B:SER:385:C:8377, V-B:GLY:453:C:9014, V-A:SER:385:CB:3409, V-B:GLY:453:CA:9016, V-A:PRO:482:CB:4326, V-A:LEU:475:CG:4257, V-A:PRO:482:CG:4327, V-A:GLY:454:CA:4049, V-A:GLY:453:C:4042, V-A:GLY:453:CA:4044"]

$$$$
4cb_Grossjean_2025
     RDKit          3D

 49 52  0  0  0  0  0  0  0  0999 V2000
  124.0720  133.3400   61.4550 C   0  0  0  0  0  0  0  0  0  0  0  0
  124.1410  132.4540   62.5640 O   0  0  0  0  0  0  0  0  0  0  0  0
  123.5620  131.2280   62.5150 C   0  0  0  0  0  0  0  0  0  0  0  0
  122.3400  131.0510   62.4990 O   0  0  0  0  0  0  0  0  0  0  0  0
  124.5570  130.1020   62.4810 C   0  0  0  0  0  0  0  0  0  0  0  0
  124.9640  129.5860   61.2440 C   0  0  0  0  0  0  0  0  0  0  0  0
  125.8910  128.5490   61.1800 C   0  0  0  0  0  0  0  0  0  0  0  0
  126.4230  128.0030   62.3480 C   0  0  0  0  0  0  0  0  0  0  0  0
  127.3630  126.9690   62.1660 N   0  0  0  0  0  0  0  0  0  0  0  0
  128.6840  127.0330   61.8700 C   0  0  0  0  0  0  0  0  0  0  0  0
  129.3170  128.0830   61.7530 O   0  0  0  0  0  0  0  0  0  0  0  0
  129.3510  125.7380   61.7090 C   0  0  0  0  0  0  0  0  0  0  0  0
  128.4010  124.2770   61.4490 S   0  0  0  0  0  0  0  0  0  0  0  0
  129.8480  123.3030   61.3250 C   0  0  0  0  0  0  0  0  0  0  0  0
  129.7870  121.9920   61.1080 N   0  0  0  0  0  0  0  0  0  0  0  0
  130.9650  121.3210   61.0170 C   0  0  0  0  0  0  0  0  0  0  0  0
  130.8630  119.8450   60.7650 C   0  0  0  0  0  0  0  0  0  0  0  0
  131.7430  119.2060   59.8770 C   0  0  0  0  0  0  0  0  0  0  0  0
  131.6520  117.8370   59.6360 C   0  0  0  0  0  0  0  0  0  0  0  0
  130.6770  117.0860   60.2830 C   0  0  0  0  0  0  0  0  0  0  0  0
  129.7910  117.6940   61.1670 C   0  0  0  0  0  0  0  0  0  0  0  0
  129.8840  119.0630   61.4030 C   0  0  0  0  0  0  0  0  0  0  0  0
  132.1960  121.9680   61.1660 C   0  0  0  0  0  0  0  0  0  0  0  0
  132.2720  123.3490   61.3990 C   0  0  0  0  0  0  0  0  0  0  0  0
  133.6550  123.9950   61.5510 C   0  0  0  0  0  0  0  0  0  0  0  0
  133.7310  124.8300   62.5900 F   0  0  0  0  0  0  0  0  0  0  0  0
  134.5750  123.0480   61.7330 F   0  0  0  0  0  0  0  0  0  0  0  0
  133.9510  124.6930   60.4550 F   0  0  0  0  0  0  0  0  0  0  0  0
  131.0430  124.0650   61.4800 C   0  0  0  0  0  0  0  0  0  0  0  0
  130.7280  125.4570   61.6930 C   0  0  0  0  0  0  0  0  0  0  0  0
  131.6920  126.4170   61.8660 N   0  0  0  0  0  0  0  0  0  0  0  0
  126.0240  128.5160   63.5910 C   0  0  0  0  0  0  0  0  0  0  0  0
  125.0980  129.5540   63.6530 C   0  0  0  0  0  0  0  0  0  0  0  0
  123.9914  134.3755   61.8174 H   0  0  0  0  0  0  0  0  0  0  0  0
  124.9810  133.2349   60.8446 H   0  0  0  0  0  0  0  0  0  0  0  0
  123.1902  133.0954   60.8446 H   0  0  0  0  0  0  0  0  0  0  0  0
  124.5478  130.0035   60.3153 H   0  0  0  0  0  0  0  0  0  0  0  0
  126.2060  128.1576   60.2014 H   0  0  0  0  0  0  0  0  0  0  0  0
  126.9820  126.0420   62.2860 H   0  0  0  0  0  0  0  0  0  0  0  0
  132.5166  119.7958   59.3634 H   0  0  0  0  0  0  0  0  0  0  0  0
  132.3488  117.3520   58.9365 H   0  0  0  0  0  0  0  0  0  0  0  0
  130.6056  116.0046   60.0949 H   0  0  0  0  0  0  0  0  0  0  0  0
  129.0211  117.0962   61.6767 H   0  0  0  0  0  0  0  0  0  0  0  0
  129.1799  119.5407   62.1001 H   0  0  0  0  0  0  0  0  0  0  0  0
  133.1241  121.3814   61.0990 H   0  0  0  0  0  0  0  0  0  0  0  0
  132.6740  126.2160   61.7410 H   0  0  0  0  0  0  0  0  0  0  0  0
  131.4520  127.3640   62.1230 H   0  0  0  0  0  0  0  0  0  0  0  0
  126.4432  128.0977   64.5180 H   0  0  0  0  0  0  0  0  0  0  0  0
  124.7875  129.9484   64.6318 H   0  0  0  0  0  0  0  0  0  0  0  0
  1  2  1  0
  2  3  1  0
  3  4  2  0
  3  5  1  0
  5  6  2  0
  6  7  1  0
  7  8  2  0
  8  9  1  0
  9 10  1  0
 10 11  2  0
 10 12  1  0
 12 13  1  0
 13 14  1  0
 14 15  2  0
 15 16  1  0
 16 17  1  0
 17 18  2  0
 18 19  1  0
 19 20  2  0
 20 21  1  0
 21 22  2  0
 16 23  2  0
 23 24  1  0
 24 25  1  0
 25 26  1  0
 25 27  1  0
 25 28  1  0
 24 29  2  0
 29 30  1  0
 30 31  1  0
  8 32  1  0
 32 33  2  0
 33  5  1  0
 30 12  2  0
 29 14  1  0
 22 17  1  0
  1 34  1  0
  1 35  1  0
  1 36  1  0
  6 37  1  0
  7 38  1  0
  9 39  1  0
 18 40  1  0
 19 41  1  0
 20 42  1  0
 21 43  1  0
 22 44  1  0
 23 45  1  0
 31 46  1  0
 31 47  1  0
 32 48  1  0
 33 49  1  0
M  END
>  <Binding energies>  (1) 
[-7.19]

>  <Ligand effiencies>  (1) 
[-0.19972222222222225]

>  <Interactions>  (1) 
["V-A:ASP:366:CA:3210, V-A:ASP:366:CG:3213, V-B:LEU:475:CD2:9231, V-B:TYR:539:CE2:9848, V-A:ASP:366:CB:3212, V-A:GLU:543:CD:4908, V-B:ILE:369:CD1:8211, H-B:GLY:454:N:9022, V-B:ARG:545:CZ:9898, V-B:TYR:539:CD2:9846, V-A:ARG:545:CZ:4926, V-A:LEU:475:CD2:4259, V-B:TYR:539:CG:9844, V-B:TYR:539:C:9839, V-B:ASP:366:CG:8185, V-A:ILE:369:CD1:3239, H-B:GLU:543:OE2:9882, V-B:GLU:543:CD:9880, H-B:GLU:543:OE1:9881, H-A:ASP:366:OD1:3214, H-A:GLU:543:OE1:4909, H-A:ASP:366:OD2:3215, H-A:GLU:543:OE2:4910, V-B:TYR:539:CB:9843, V-A:LEU:475:CD1:4258, V-B:ALA:541:CB:9864, V-B:GLY:454:CA:9021, V-B:GLY:453:C:9014, V-A:SER:385:CB:3409, V-B:GLY:453:CA:9016, V-A:PRO:482:CB:4326, V-A:LEU:475:CG:4257, V-A:PRO:482:CG:4327, V-A:GLY:454:CA:4049, V-A:GLY:453:C:4042, V-A:GLY:453:CA:4044"]

$$$$
4cc_Grossjean_2025
     RDKit          3D

 47 50  0  0  0  0  0  0  0  0999 V2000
  123.7460  132.1240   62.1930 C   0  0  0  0  0  0  0  0  0  0  0  0
  123.7650  131.1420   63.2240 O   0  0  0  0  0  0  0  0  0  0  0  0
  124.6710  130.1030   63.1490 C   0  0  0  0  0  0  0  0  0  0  0  0
  124.9680  129.6270   61.8720 C   0  0  0  0  0  0  0  0  0  0  0  0
  125.8720  128.5830   61.6960 C   0  0  0  0  0  0  0  0  0  0  0  0
  126.4860  127.9910   62.8020 C   0  0  0  0  0  0  0  0  0  0  0  0
  127.3960  126.9540   62.5260 N   0  0  0  0  0  0  0  0  0  0  0  0
  128.6460  127.0260   62.0090 C   0  0  0  0  0  0  0  0  0  0  0  0
  129.2130  128.0820   61.7240 O   0  0  0  0  0  0  0  0  0  0  0  0
  129.3160  125.7390   61.7990 C   0  0  0  0  0  0  0  0  0  0  0  0
  128.3680  124.2820   61.5030 S   0  0  0  0  0  0  0  0  0  0  0  0
  129.8160  123.3140   61.3680 C   0  0  0  0  0  0  0  0  0  0  0  0
  129.7570  122.0060   61.1250 N   0  0  0  0  0  0  0  0  0  0  0  0
  130.9360  121.3390   61.0270 C   0  0  0  0  0  0  0  0  0  0  0  0
  130.8380  119.8660   60.7550 C   0  0  0  0  0  0  0  0  0  0  0  0
  129.8480  119.0850   61.3750 C   0  0  0  0  0  0  0  0  0  0  0  0
  129.7520  117.7180   61.1290 C   0  0  0  0  0  0  0  0  0  0  0  0
  130.6480  117.1090   60.2570 C   0  0  0  0  0  0  0  0  0  0  0  0
  131.6410  117.8580   59.6330 C   0  0  0  0  0  0  0  0  0  0  0  0
  131.7340  119.2250   59.8820 C   0  0  0  0  0  0  0  0  0  0  0  0
  132.1660  121.9830   61.1910 C   0  0  0  0  0  0  0  0  0  0  0  0
  132.2400  123.3610   61.4500 C   0  0  0  0  0  0  0  0  0  0  0  0
  133.6220  124.0030   61.6120 C   0  0  0  0  0  0  0  0  0  0  0  0
  133.7150  124.7830   62.6920 F   0  0  0  0  0  0  0  0  0  0  0  0
  134.5500  123.0540   61.7250 F   0  0  0  0  0  0  0  0  0  0  0  0
  133.8950  124.7600   60.5490 F   0  0  0  0  0  0  0  0  0  0  0  0
  131.0100  124.0730   61.5450 C   0  0  0  0  0  0  0  0  0  0  0  0
  130.6910  125.4580   61.7940 C   0  0  0  0  0  0  0  0  0  0  0  0
  131.6540  126.4130   62.0050 N   0  0  0  0  0  0  0  0  0  0  0  0
  126.2020  128.4720   64.0890 C   0  0  0  0  0  0  0  0  0  0  0  0
  125.2980  129.5170   64.2590 C   0  0  0  0  0  0  0  0  0  0  0  0
  123.7266  133.1276   62.6429 H   0  0  0  0  0  0  0  0  0  0  0  0
  124.6463  132.0189   61.5698 H   0  0  0  0  0  0  0  0  0  0  0  0
  122.8504  131.9841   61.5698 H   0  0  0  0  0  0  0  0  0  0  0  0
  124.4831  130.0810   60.9952 H   0  0  0  0  0  0  0  0  0  0  0  0
  126.1034  128.2232   60.6826 H   0  0  0  0  0  0  0  0  0  0  0  0
  127.0700  126.0330   62.7790 H   0  0  0  0  0  0  0  0  0  0  0  0
  129.1371  119.5615   62.0661 H   0  0  0  0  0  0  0  0  0  0  0  0
  128.9703  117.1219   61.6225 H   0  0  0  0  0  0  0  0  0  0  0  0
  130.5714  116.0296   60.0595 H   0  0  0  0  0  0  0  0  0  0  0  0
  132.3495  117.3723   58.9459 H   0  0  0  0  0  0  0  0  0  0  0  0
  132.5214  119.8127   59.3875 H   0  0  0  0  0  0  0  0  0  0  0  0
  133.0947  121.3983   61.1156 H   0  0  0  0  0  0  0  0  0  0  0  0
  131.4190  127.3830   62.1580 H   0  0  0  0  0  0  0  0  0  0  0  0
  132.6360  126.1760   62.0110 H   0  0  0  0  0  0  0  0  0  0  0  0
  126.6940  128.0231   64.9644 H   0  0  0  0  0  0  0  0  0  0  0  0
  125.0737  129.8859   65.2707 H   0  0  0  0  0  0  0  0  0  0  0  0
  1  2  1  0
  2  3  1  0
  3  4  2  0
  4  5  1  0
  5  6  2  0
  6  7  1  0
  7  8  1  0
  8  9  2  0
  8 10  1  0
 10 11  1  0
 11 12  1  0
 12 13  2  0
 13 14  1  0
 14 15  1  0
 15 16  2  0
 16 17  1  0
 17 18  2  0
 18 19  1  0
 19 20  2  0
 14 21  2  0
 21 22  1  0
 22 23  1  0
 23 24  1  0
 23 25  1  0
 23 26  1  0
 22 27  2  0
 27 28  1  0
 28 29  1  0
  6 30  1  0
 30 31  2  0
 31  3  1  0
 28 10  2  0
 27 12  1  0
 20 15  1  0
  1 32  1  0
  1 33  1  0
  1 34  1  0
  4 35  1  0
  5 36  1  0
  7 37  1  0
 16 38  1  0
 17 39  1  0
 18 40  1  0
 19 41  1  0
 20 42  1  0
 21 43  1  0
 29 44  1  0
 29 45  1  0
 30 46  1  0
 31 47  1  0
M  END
>  <Binding energies>  (1) 
[-7.48]

>  <Ligand effiencies>  (1) 
[-0.22]

>  <Interactions>  (1) 
["V-A:ASP:366:CA:3210, V-A:ASP:366:CG:3213, V-B:TYR:539:CE2:9848, V-A:ASP:366:CB:3212, V-A:GLU:543:CD:4908, V-B:ILE:369:CD1:8211, H-B:GLY:454:N:9022, H-B:TYR:484:OH:9320, V-B:ARG:545:CZ:9898, V-B:TYR:539:CD2:9846, V-A:ARG:545:CZ:4926, V-A:LEU:475:CD2:4259, V-B:TYR:539:CG:9844, V-B:TYR:539:C:9839, V-B:ASP:366:CG:8185, V-A:ILE:369:CD1:3239, H-B:GLU:543:OE2:9882, V-B:GLU:543:CD:9880, H-B:GLU:543:OE1:9881, H-A:ASP:366:OD1:3214, H-A:GLU:543:OE1:4909, H-A:ASP:366:OD2:3215, H-A:GLU:543:OE2:4910, V-B:TYR:539:CB:9843, V-A:LEU:475:CD1:4258, V-B:ALA:541:CB:9864, V-B:GLY:454:CA:9021, V-A:SER:385:CB:3409, V-A:PRO:482:CB:4326, V-A:PRO:482:CG:4327, V-A:GLY:454:CA:4049, V-A:GLY:453:C:4042, V-A:GLY:453:CA:4044"]

$$$$
4cd_Grossjean_2025
     RDKit          3D

 43 46  0  0  0  0  0  0  0  0999 V2000
  131.6220  126.4930   61.9400 N   0  0  0  0  0  0  0  0  0  0  0  0
  130.6610  125.5290   61.7690 C   0  0  0  0  0  0  0  0  0  0  0  0
  129.2840  125.7970   61.8250 C   0  0  0  0  0  0  0  0  0  0  0  0
  128.6120  127.0750   62.0790 C   0  0  0  0  0  0  0  0  0  0  0  0
  129.2040  128.1410   61.9080 O   0  0  0  0  0  0  0  0  0  0  0  0
  127.3250  126.9820   62.4950 N   0  0  0  0  0  0  0  0  0  0  0  0
  126.4280  127.9990   62.8690 C   0  0  0  0  0  0  0  0  0  0  0  0
  126.2910  128.2200   64.2430 C   0  0  0  0  0  0  0  0  0  0  0  0
  125.4370  129.2140   64.7120 C   0  0  0  0  0  0  0  0  0  0  0  0
  124.7230  129.9950   63.8070 C   0  0  0  0  0  0  0  0  0  0  0  0
  124.8600  129.7940   62.4360 C   0  0  0  0  0  0  0  0  0  0  0  0
  125.7130  128.8000   61.9620 C   0  0  0  0  0  0  0  0  0  0  0  0
  128.3400  124.3340   61.5530 S   0  0  0  0  0  0  0  0  0  0  0  0
  129.7900  123.3760   61.3770 C   0  0  0  0  0  0  0  0  0  0  0  0
  129.7340  122.0680   61.1390 N   0  0  0  0  0  0  0  0  0  0  0  0
  130.9160  121.4050   61.0310 C   0  0  0  0  0  0  0  0  0  0  0  0
  130.8210  119.9310   60.7650 C   0  0  0  0  0  0  0  0  0  0  0  0
  129.8290  119.1520   61.3820 C   0  0  0  0  0  0  0  0  0  0  0  0
  129.7340  117.7840   61.1400 C   0  0  0  0  0  0  0  0  0  0  0  0
  130.6340  117.1740   60.2720 C   0  0  0  0  0  0  0  0  0  0  0  0
  131.6240  117.9220   59.6450 C   0  0  0  0  0  0  0  0  0  0  0  0
  131.7130  119.2890   59.8880 C   0  0  0  0  0  0  0  0  0  0  0  0
  132.1450  122.0610   61.1430 C   0  0  0  0  0  0  0  0  0  0  0  0
  132.2150  123.4420   61.3900 C   0  0  0  0  0  0  0  0  0  0  0  0
  133.5960  124.0980   61.5060 C   0  0  0  0  0  0  0  0  0  0  0  0
  133.6790  124.9720   62.5120 F   0  0  0  0  0  0  0  0  0  0  0  0
  134.5230  123.1630   61.7110 F   0  0  0  0  0  0  0  0  0  0  0  0
  133.8770  124.7570   60.3810 F   0  0  0  0  0  0  0  0  0  0  0  0
  130.9830  124.1450   61.5180 C   0  0  0  0  0  0  0  0  0  0  0  0
  132.6060  126.2910   61.8300 H   0  0  0  0  0  0  0  0  0  0  0  0
  131.3770  127.4440   62.1780 H   0  0  0  0  0  0  0  0  0  0  0  0
  126.9370  126.0510   62.5340 H   0  0  0  0  0  0  0  0  0  0  0  0
  126.8605  127.6058   64.9561 H   0  0  0  0  0  0  0  0  0  0  0  0
  125.3266  129.3819   65.7935 H   0  0  0  0  0  0  0  0  0  0  0  0
  124.0449  130.7775   64.1783 H   0  0  0  0  0  0  0  0  0  0  0  0
  124.2956  130.4191   61.7284 H   0  0  0  0  0  0  0  0  0  0  0  0
  125.8269  128.6422   60.8794 H   0  0  0  0  0  0  0  0  0  0  0  0
  129.1148  119.6305   62.0682 H   0  0  0  0  0  0  0  0  0  0  0  0
  128.9512  117.1886   61.6327 H   0  0  0  0  0  0  0  0  0  0  0  0
  130.5618  116.0932   60.0806 H   0  0  0  0  0  0  0  0  0  0  0  0
  132.3337  117.4353   58.9599 H   0  0  0  0  0  0  0  0  0  0  0  0
  132.4946  119.8776   59.3854 H   0  0  0  0  0  0  0  0  0  0  0  0
  133.0757  121.4846   61.0356 H   0  0  0  0  0  0  0  0  0  0  0  0
  1  2  1  0
  2  3  2  0
  3  4  1  0
  4  5  2  0
  4  6  1  0
  6  7  1  0
  7  8  2  0
  8  9  1  0
  9 10  2  0
 10 11  1  0
 11 12  2  0
  3 13  1  0
 13 14  1  0
 14 15  2  0
 15 16  1  0
 16 17  1  0
 17 18  2  0
 18 19  1  0
 19 20  2  0
 20 21  1  0
 21 22  2  0
 16 23  2  0
 23 24  1  0
 24 25  1  0
 25 26  1  0
 25 27  1  0
 25 28  1  0
 24 29  2  0
 29  2  1  0
 12  7  1  0
 29 14  1  0
 22 17  1  0
  1 30  1  0
  1 31  1  0
  6 32  1  0
  8 33  1  0
  9 34  1  0
 10 35  1  0
 11 36  1  0
 12 37  1  0
 18 38  1  0
 19 39  1  0
 20 40  1  0
 21 41  1  0
 22 42  1  0
 23 43  1  0
M  END
>  <Binding energies>  (1) 
[-7.24]

>  <Ligand effiencies>  (1) 
[-0.22625]

>  <Interactions>  (1) 
["V-A:ASP:366:CA:3210, V-A:ASP:366:CG:3213, V-B:TYR:539:CE2:9848, V-A:ASP:366:CB:3212, V-A:GLU:543:CD:4908, V-B:ARG:545:CZ:9898, V-B:TYR:539:CD2:9846, V-A:ARG:545:CZ:4926, V-A:LEU:475:CD2:4259, V-B:TYR:539:CG:9844, V-B:TYR:539:C:9839, V-B:ASP:366:CG:8185, V-A:ILE:369:CD1:3239, H-B:GLU:543:OE2:9882, V-B:GLU:543:CD:9880, H-B:GLU:543:OE1:9881, H-A:ASP:366:OD1:3214, H-A:GLU:543:OE1:4909, H-A:ASP:366:OD2:3215, H-A:GLU:543:OE2:4910, V-B:TYR:539:CB:9843, V-A:LEU:475:CD1:4258, V-B:ALA:541:CB:9864, V-A:SER:385:CB:3409, V-A:PRO:482:CB:4326, V-A:PRO:482:CG:4327, V-A:GLY:454:CA:4049, V-A:GLY:453:C:4042, V-A:GLY:453:CA:4044"]

$$$$
4ce_Grossjean_2025
     RDKit          3D

 45 48  0  0  0  0  0  0  0  0999 V2000
  124.3320  129.4030   65.9490 C   0  0  0  0  0  0  0  0  0  0  0  0
  124.9360  129.3490   64.5580 C   0  0  0  0  0  0  0  0  0  0  0  0
  124.6420  130.3180   63.5960 C   0  0  0  0  0  0  0  0  0  0  0  0
  125.2400  130.2090   62.3400 C   0  0  0  0  0  0  0  0  0  0  0  0
  126.1090  129.1480   62.0790 C   0  0  0  0  0  0  0  0  0  0  0  0
  126.3550  128.2080   63.0870 C   0  0  0  0  0  0  0  0  0  0  0  0
  127.2580  127.1760   62.7730 N   0  0  0  0  0  0  0  0  0  0  0  0
  128.4990  127.2690   62.2330 C   0  0  0  0  0  0  0  0  0  0  0  0
  129.0410  128.3370   61.9440 O   0  0  0  0  0  0  0  0  0  0  0  0
  129.1830  125.9940   62.0060 C   0  0  0  0  0  0  0  0  0  0  0  0
  128.2590  124.4980   61.9000 S   0  0  0  0  0  0  0  0  0  0  0  0
  129.7090  123.5710   61.6010 C   0  0  0  0  0  0  0  0  0  0  0  0
  129.6650  122.2540   61.4140 N   0  0  0  0  0  0  0  0  0  0  0  0
  130.8430  121.6210   61.1740 C   0  0  0  0  0  0  0  0  0  0  0  0
  130.7580  120.1380   60.9620 C   0  0  0  0  0  0  0  0  0  0  0  0
  129.7560  119.3810   61.5920 C   0  0  0  0  0  0  0  0  0  0  0  0
  129.6750  118.0030   61.4050 C   0  0  0  0  0  0  0  0  0  0  0  0
  130.5960  117.3630   60.5830 C   0  0  0  0  0  0  0  0  0  0  0  0
  131.5980  118.0890   59.9480 C   0  0  0  0  0  0  0  0  0  0  0  0
  131.6770  119.4660   60.1390 C   0  0  0  0  0  0  0  0  0  0  0  0
  132.0600  122.3090   61.1430 C   0  0  0  0  0  0  0  0  0  0  0  0
  132.1190  123.6970   61.3450 C   0  0  0  0  0  0  0  0  0  0  0  0
  133.4850  124.3880   61.2960 C   0  0  0  0  0  0  0  0  0  0  0  0
  133.6760  125.2450   62.3020 F   0  0  0  0  0  0  0  0  0  0  0  0
  134.4550  123.4750   61.3610 F   0  0  0  0  0  0  0  0  0  0  0  0
  133.6040  125.0740   60.1600 F   0  0  0  0  0  0  0  0  0  0  0  0
  130.8880  124.3740   61.5820 C   0  0  0  0  0  0  0  0  0  0  0  0
  130.5560  125.7580   61.8190 C   0  0  0  0  0  0  0  0  0  0  0  0
  131.5000  126.7510   61.8550 N   0  0  0  0  0  0  0  0  0  0  0  0
  125.7770  128.3100   64.3200 N   0  0  0  0  0  0  0  0  0  0  0  0
  125.1330  129.3314   66.6996 H   0  0  0  0  0  0  0  0  0  0  0  0
  123.7926  130.3530   66.0779 H   0  0  0  0  0  0  0  0  0  0  0  0
  123.6326  128.5638   66.0779 H   0  0  0  0  0  0  0  0  0  0  0  0
  123.9556  131.1471   63.8230 H   0  0  0  0  0  0  0  0  0  0  0  0
  125.0279  130.9549   61.5599 H   0  0  0  0  0  0  0  0  0  0  0  0
  126.5932  129.0520   61.0960 H   0  0  0  0  0  0  0  0  0  0  0  0
  126.9430  126.2500   63.0210 H   0  0  0  0  0  0  0  0  0  0  0  0
  129.0250  119.8837   62.2423 H   0  0  0  0  0  0  0  0  0  0  0  0
  128.8855  117.4233   61.9057 H   0  0  0  0  0  0  0  0  0  0  0  0
  130.5316  116.2750   60.4339 H   0  0  0  0  0  0  0  0  0  0  0  0
  132.3241  117.5782   59.2985 H   0  0  0  0  0  0  0  0  0  0  0  0
  132.4721  120.0370   59.6372 H   0  0  0  0  0  0  0  0  0  0  0  0
  132.9897  121.7515   60.9566 H   0  0  0  0  0  0  0  0  0  0  0  0
  132.4760  126.5690   61.6670 H   0  0  0  0  0  0  0  0  0  0  0  0
  131.2500  127.7060   62.0740 H   0  0  0  0  0  0  0  0  0  0  0  0
  1  2  1  0
  2  3  2  0
  3  4  1  0
  4  5  2  0
  5  6  1  0
  6  7  1  0
  7  8  1  0
  8  9  2  0
  8 10  1  0
 10 11  1  0
 11 12  1  0
 12 13  2  0
 13 14  1  0
 14 15  1  0
 15 16  2  0
 16 17  1  0
 17 18  2  0
 18 19  1  0
 19 20  2  0
 14 21  2  0
 21 22  1  0
 22 23  1  0
 23 24  1  0
 23 25  1  0
 23 26  1  0
 22 27  2  0
 27 28  1  0
 28 29  1  0
  6 30  2  0
 30  2  1  0
 28 10  2  0
 27 12  1  0
 20 15  1  0
  1 31  1  0
  1 32  1  0
  1 33  1  0
  3 34  1  0
  4 35  1  0
  5 36  1  0
  7 37  1  0
 16 38  1  0
 17 39  1  0
 18 40  1  0
 19 41  1  0
 20 42  1  0
 21 43  1  0
 29 44  1  0
 29 45  1  0
M  END
>  <Binding energies>  (1) 
[-7.43]

>  <Ligand effiencies>  (1) 
[-0.22515151515151513]

>  <Interactions>  (1) 
["V-A:ASP:366:CA:3210, V-A:ASP:366:CG:3213, V-B:TYR:539:CE2:9848, V-A:ASP:366:CB:3212, V-A:GLU:543:CD:4908, V-B:ARG:545:CZ:9898, V-B:TYR:539:CD2:9846, V-A:ARG:545:CZ:4926, V-A:LEU:475:CD2:4259, V-A:ILE:369:CD1:3239, H-B:GLU:543:OE2:9882, V-B:GLU:543:CD:9880, H-B:GLU:543:OE1:9881, H-A:ASP:366:OD1:3214, H-A:GLU:543:OE1:4909, H-A:ASP:366:OD2:3215, H-A:GLU:543:OE2:4910, V-A:LEU:475:CD1:4258, V-B:ALA:541:CB:9864, V-B:ARG:545:CD:9895, H-B:ARG:545:NE:9896, V-B:ARG:545:CG:9894, V-B:TYR:484:CZ:9319, H-B:ARG:545:NH2:9900, V-A:SER:385:CB:3409, V-A:PRO:482:CB:4326, V-A:LEU:475:CG:4257, V-A:PRO:482:CG:4327, V-A:GLY:454:CA:4049, V-A:GLY:453:C:4042, V-A:ILE:369:CG1:3238"]

$$$$
4cf_Grossjean_2025
     RDKit          3D

 42 45  0  0  0  0  0  0  0  0999 V2000
  127.3910  127.3640   63.1700 N   0  0  0  0  0  0  0  0  0  0  0  0
  127.8960  128.2870   62.2910 C   0  0  0  0  0  0  0  0  0  0  0  0
  128.9400  128.0060   61.3940 C   0  0  0  0  0  0  0  0  0  0  0  0
  129.6960  126.7610   61.2340 C   0  0  0  0  0  0  0  0  0  0  0  0
  129.1350  125.7300   60.8580 O   0  0  0  0  0  0  0  0  0  0  0  0
  131.0190  126.8450   61.5140 N   0  0  0  0  0  0  0  0  0  0  0  0
  132.0040  125.8380   61.5100 C   0  0  0  0  0  0  0  0  0  0  0  0
  132.4700  125.1570   60.3690 C   0  0  0  0  0  0  0  0  0  0  0  0
  133.4440  124.1650   60.5080 C   0  0  0  0  0  0  0  0  0  0  0  0
  133.9280  123.8770   61.7840 C   0  0  0  0  0  0  0  0  0  0  0  0
  133.4910  124.5140   62.8990 N   0  0  0  0  0  0  0  0  0  0  0  0
  132.5420  125.4750   62.7490 C   0  0  0  0  0  0  0  0  0  0  0  0
  129.3320  129.4150   60.4120 S   0  0  0  0  0  0  0  0  0  0  0  0
  128.1050  130.3700   61.2120 C   0  0  0  0  0  0  0  0  0  0  0  0
  127.8970  131.6450   60.8890 N   0  0  0  0  0  0  0  0  0  0  0  0
  126.9320  132.3090   61.5780 C   0  0  0  0  0  0  0  0  0  0  0  0
  126.7240  133.7460   61.1980 C   0  0  0  0  0  0  0  0  0  0  0  0
  127.7400  134.6950   61.3950 C   0  0  0  0  0  0  0  0  0  0  0  0
  127.5560  136.0300   61.0440 C   0  0  0  0  0  0  0  0  0  0  0  0
  126.3470  136.4350   60.4860 C   0  0  0  0  0  0  0  0  0  0  0  0
  125.3250  135.5160   60.2770 C   0  0  0  0  0  0  0  0  0  0  0  0
  125.5140  134.1820   60.6290 C   0  0  0  0  0  0  0  0  0  0  0  0
  126.1680  131.6860   62.5680 C   0  0  0  0  0  0  0  0  0  0  0  0
  126.3770  130.3410   62.9130 C   0  0  0  0  0  0  0  0  0  0  0  0
  125.5060  129.7210   64.0120 C   0  0  0  0  0  0  0  0  0  0  0  0
  124.9480  128.5640   63.6490 F   0  0  0  0  0  0  0  0  0  0  0  0
  126.2480  129.4830   65.0940 F   0  0  0  0  0  0  0  0  0  0  0  0
  124.5180  130.5570   64.3310 F   0  0  0  0  0  0  0  0  0  0  0  0
  127.3980  129.6390   62.2100 C   0  0  0  0  0  0  0  0  0  0  0  0
  126.7460  126.6440   62.8760 H   0  0  0  0  0  0  0  0  0  0  0  0
  127.6490  127.3720   64.1470 H   0  0  0  0  0  0  0  0  0  0  0  0
  131.3630  127.7610   61.7600 H   0  0  0  0  0  0  0  0  0  0  0  0
  132.0698  125.4044   59.3747 H   0  0  0  0  0  0  0  0  0  0  0  0
  133.8215  123.6221   59.6289 H   0  0  0  0  0  0  0  0  0  0  0  0
  134.6981  123.0989   61.8909 H   0  0  0  0  0  0  0  0  0  0  0  0
  132.1783  125.9940   63.6481 H   0  0  0  0  0  0  0  0  0  0  0  0
  128.6976  134.3785   61.8341 H   0  0  0  0  0  0  0  0  0  0  0  0
  128.3620  136.7606   61.2069 H   0  0  0  0  0  0  0  0  0  0  0  0
  126.1991  137.4891   60.2085 H   0  0  0  0  0  0  0  0  0  0  0  0
  124.3714  135.8411   59.8356 H   0  0  0  0  0  0  0  0  0  0  0  0
  124.7038  133.4576   60.4593 H   0  0  0  0  0  0  0  0  0  0  0  0
  125.3871  132.2606   63.0876 H   0  0  0  0  0  0  0  0  0  0  0  0
  1  2  1  0
  2  3  2  0
  3  4  1  0
  4  5  2  0
  4  6  1  0
  6  7  1  0
  7  8  2  0
  8  9  1  0
  9 10  2  0
 10 11  1  0
 11 12  2  0
  3 13  1  0
 13 14  1  0
 14 15  2  0
 15 16  1  0
 16 17  1  0
 17 18  2  0
 18 19  1  0
 19 20  2  0
 20 21  1  0
 21 22  2  0
 16 23  2  0
 23 24  1  0
 24 25  1  0
 25 26  1  0
 25 27  1  0
 25 28  1  0
 24 29  2  0
 29  2  1  0
 12  7  1  0
 29 14  1  0
 22 17  1  0
  1 30  1  0
  1 31  1  0
  6 32  1  0
  8 33  1  0
  9 34  1  0
 10 35  1  0
 12 36  1  0
 18 37  1  0
 19 38  1  0
 20 39  1  0
 21 40  1  0
 22 41  1  0
 23 42  1  0
M  END
>  <Binding energies>  (1) 
[-7.35]

>  <Ligand effiencies>  (1) 
[-0.2296875]

>  <Interactions>  (1) 
["V-A:ALA:541:CB:4892, V-A:ASP:366:CG:3213, V-B:LEU:475:CD2:9231, V-A:GLU:543:CD:4908, V-A:TYR:539:CE1:4875, V-B:ARG:545:CZ:9898, V-A:ARG:545:CZ:4926, V-A:ILE:369:CD1:3239, V-A:TYR:539:CD1:4873, V-A:TYR:539:C:4867, H-B:GLU:543:OE2:9882, V-B:GLU:543:CD:9880, H-B:GLU:543:OE1:9881, H-A:ASP:366:OD1:3214, H-A:GLU:543:OE1:4909, H-A:GLU:543:OE2:4910, H-A:GLY:454:N:4050, V-B:GLY:454:CA:9021, H-A:TYR:484:OH:4348, V-B:TYR:484:CZ:9319, V-B:GLY:453:C:9014, H-A:ARG:545:NH2:4928, V-B:PRO:482:CB:9298, V-B:PRO:482:CG:9299, V-A:GLY:454:CA:4049, V-A:GLY:453:C:4042"]

$$$$
4cg_Grossjean_2025
     RDKit          3D

 46 49  0  0  0  0  0  0  0  0999 V2000
  130.9830  126.6040   62.7190 N   0  0  0  0  0  0  0  0  0  0  0  0
  130.1150  125.6000   62.3720 C   0  0  0  0  0  0  0  0  0  0  0  0
  128.7270  125.7790   62.2920 C   0  0  0  0  0  0  0  0  0  0  0  0
  127.9520  127.0020   62.4970 C   0  0  0  0  0  0  0  0  0  0  0  0
  126.7520  127.0560   62.2200 O   0  0  0  0  0  0  0  0  0  0  0  0
  128.6370  128.0660   62.9660 N   0  0  0  0  0  0  0  0  0  0  0  0
  128.0650  129.3770   63.2660 C   0  0  0  0  0  0  0  0  0  0  0  0
  126.8290  129.3110   64.1550 C   0  0  0  0  0  0  0  0  0  0  0  0
  125.5820  129.6770   63.6400 C   0  0  0  0  0  0  0  0  0  0  0  0
  124.4460  129.5870   64.4400 C   0  0  0  0  0  0  0  0  0  0  0  0
  124.5580  129.1230   65.7480 C   0  0  0  0  0  0  0  0  0  0  0  0
  125.7960  128.7410   66.2620 C   0  0  0  0  0  0  0  0  0  0  0  0
  126.9320  128.8280   65.4630 C   0  0  0  0  0  0  0  0  0  0  0  0
  127.9150  124.2950   61.8000 S   0  0  0  0  0  0  0  0  0  0  0  0
  129.4380  123.4390   61.7260 C   0  0  0  0  0  0  0  0  0  0  0  0
  129.4950  122.1550   61.3840 N   0  0  0  0  0  0  0  0  0  0  0  0
  130.7230  121.5740   61.3500 C   0  0  0  0  0  0  0  0  0  0  0  0
  130.7540  120.1230   60.9610 C   0  0  0  0  0  0  0  0  0  0  0  0
  131.7640  119.6230   60.1230 C   0  0  0  0  0  0  0  0  0  0  0  0
  131.7970  118.2800   59.7590 C   0  0  0  0  0  0  0  0  0  0  0  0
  130.8150  117.4130   60.2280 C   0  0  0  0  0  0  0  0  0  0  0  0
  129.8020  117.8820   61.0570 C   0  0  0  0  0  0  0  0  0  0  0  0
  129.7730  119.2260   61.4180 C   0  0  0  0  0  0  0  0  0  0  0  0
  131.8840  122.2830   61.6780 C   0  0  0  0  0  0  0  0  0  0  0  0
  131.8350  123.6370   62.0420 C   0  0  0  0  0  0  0  0  0  0  0  0
  133.1450  124.3530   62.3900 C   0  0  0  0  0  0  0  0  0  0  0  0
  133.2380  124.6750   63.6820 F   0  0  0  0  0  0  0  0  0  0  0  0
  134.1800  123.5650   62.0990 F   0  0  0  0  0  0  0  0  0  0  0  0
  133.2410  125.4820   61.6900 F   0  0  0  0  0  0  0  0  0  0  0  0
  130.5530  124.2600   62.0660 C   0  0  0  0  0  0  0  0  0  0  0  0
  131.2110  127.3570   62.0850 H   0  0  0  0  0  0  0  0  0  0  0  0
  131.4190  126.6290   63.6300 H   0  0  0  0  0  0  0  0  0  0  0  0
  129.5990  127.9280   63.2400 H   0  0  0  0  0  0  0  0  0  0  0  0
  128.8291  129.9820   63.7761 H   0  0  0  0  0  0  0  0  0  0  0  0
  127.7525  129.8207   62.3092 H   0  0  0  0  0  0  0  0  0  0  0  0
  125.4983  130.0358   62.6035 H   0  0  0  0  0  0  0  0  0  0  0  0
  123.4643  129.8812   64.0404 H   0  0  0  0  0  0  0  0  0  0  0  0
  123.6612  129.0573   66.3816 H   0  0  0  0  0  0  0  0  0  0  0  0
  125.8747  128.3722   67.2953 H   0  0  0  0  0  0  0  0  0  0  0  0
  127.9097  128.5172   65.8600 H   0  0  0  0  0  0  0  0  0  0  0  0
  132.5421  120.3042   59.7480 H   0  0  0  0  0  0  0  0  0  0  0  0
  132.5965  117.9054   59.1029 H   0  0  0  0  0  0  0  0  0  0  0  0
  130.8402  116.3513   59.9415 H   0  0  0  0  0  0  0  0  0  0  0  0
  129.0270  117.1940   61.4259 H   0  0  0  0  0  0  0  0  0  0  0  0
  128.9683  119.5926   62.0723 H   0  0  0  0  0  0  0  0  0  0  0  0
  132.8555  121.7678   61.6498 H   0  0  0  0  0  0  0  0  0  0  0  0
  1  2  1  0
  2  3  2  0
  3  4  1  0
  4  5  2  0
  4  6  1  0
  6  7  1  0
  7  8  1  0
  8  9  2  0
  9 10  1  0
 10 11  2  0
 11 12  1  0
 12 13  2  0
  3 14  1  0
 14 15  1  0
 15 16  2  0
 16 17  1  0
 17 18  1  0
 18 19  2  0
 19 20  1  0
 20 21  2  0
 21 22  1  0
 22 23  2  0
 17 24  2  0
 24 25  1  0
 25 26  1  0
 26 27  1  0
 26 28  1  0
 26 29  1  0
 25 30  2  0
 30  2  1  0
 13  8  1  0
 30 15  1  0
 23 18  1  0
  1 31  1  0
  1 32  1  0
  6 33  1  0
  7 34  1  0
  7 35  1  0
  9 36  1  0
 10 37  1  0
 11 38  1  0
 12 39  1  0
 13 40  1  0
 19 41  1  0
 20 42  1  0
 21 43  1  0
 22 44  1  0
 23 45  1  0
 24 46  1  0
M  END
>  <Binding energies>  (1) 
[-7.74]

>  <Ligand effiencies>  (1) 
[-0.23454545454545456]

>  <Interactions>  (1) 
["V-A:ASP:366:CG:3213, V-B:TYR:539:CE2:9848, V-A:GLU:543:CD:4908, V-A:GLU:543:CG:4907, V-B:ARG:545:CZ:9898, V-B:TYR:539:CD2:9846, V-A:ARG:545:CZ:4926, V-A:LEU:475:CD2:4259, V-A:TYR:484:CZ:4347, V-B:TYR:539:C:9839, V-A:ILE:369:CD1:3239, H-B:GLU:543:OE2:9882, V-B:GLU:543:CD:9880, H-A:ASP:366:OD1:3214, H-A:GLU:543:OE1:4909, H-A:GLU:543:OE2:4910, V-B:TYR:539:CB:9843, V-A:LEU:475:CD1:4258, V-B:ALA:541:CB:9864, V-B:ARG:545:CD:9895, V-B:ARG:545:CG:9894, V-B:TYR:484:CZ:9319, V-B:HIS:456:CE1:9042, H-B:ARG:545:NH2:9900, V-A:SER:385:CB:3409, V-A:PRO:482:CB:4326, V-A:PRO:482:CG:4327, V-A:GLY:454:CA:4049, V-A:GLY:453:C:4042, V-A:GLY:453:CA:4044"]

$$$$
4ch_Grossjean_2025
     RDKit          3D

 58 61  0  0  0  0  0  0  0  0999 V2000
  123.1770  130.4180   61.8510 C   0  0  0  0  0  0  0  0  0  0  0  0
  123.4020  130.3770   63.2560 O   0  0  0  0  0  0  0  0  0  0  0  0
  124.5830  129.8420   63.7390 C   0  0  0  0  0  0  0  0  0  0  0  0
  125.7940  129.8460   63.0270 C   0  0  0  0  0  0  0  0  0  0  0  0
  126.9490  129.2890   63.5780 C   0  0  0  0  0  0  0  0  0  0  0  0
  128.2470  129.2770   62.7790 C   0  0  0  0  0  0  0  0  0  0  0  0
  128.7820  127.9400   62.5210 N   0  0  0  0  0  0  0  0  0  0  0  0
  128.0480  126.8420   62.2400 C   0  0  0  0  0  0  0  0  0  0  0  0
  126.8190  126.8730   62.1450 O   0  0  0  0  0  0  0  0  0  0  0  0
  128.8010  125.6080   62.0160 C   0  0  0  0  0  0  0  0  0  0  0  0
  127.9500  124.1100   61.6490 S   0  0  0  0  0  0  0  0  0  0  0  0
  129.4570  123.2370   61.5130 C   0  0  0  0  0  0  0  0  0  0  0  0
  129.4830  121.9370   61.2320 N   0  0  0  0  0  0  0  0  0  0  0  0
  130.7030  121.3440   61.1410 C   0  0  0  0  0  0  0  0  0  0  0  0
  130.6970  119.8750   60.8290 C   0  0  0  0  0  0  0  0  0  0  0  0
  129.7610  119.0160   61.4280 C   0  0  0  0  0  0  0  0  0  0  0  0
  129.7520  117.6520   61.1440 C   0  0  0  0  0  0  0  0  0  0  0  0
  130.6810  117.1270   60.2540 C   0  0  0  0  0  0  0  0  0  0  0  0
  131.6220  117.9540   59.6490 C   0  0  0  0  0  0  0  0  0  0  0  0
  131.6290  119.3160   59.9380 C   0  0  0  0  0  0  0  0  0  0  0  0
  131.8870  122.0570   61.3490 C   0  0  0  0  0  0  0  0  0  0  0  0
  131.8720  123.4290   61.6470 C   0  0  0  0  0  0  0  0  0  0  0  0
  133.2070  124.1490   61.8640 C   0  0  0  0  0  0  0  0  0  0  0  0
  134.2620  123.3350   61.7780 F   0  0  0  0  0  0  0  0  0  0  0  0
  133.3620  125.1000   60.9430 F   0  0  0  0  0  0  0  0  0  0  0  0
  133.2300  124.7030   63.0760 F   0  0  0  0  0  0  0  0  0  0  0  0
  130.5990  124.0630   61.7320 C   0  0  0  0  0  0  0  0  0  0  0  0
  130.1920  125.4190   62.0070 C   0  0  0  0  0  0  0  0  0  0  0  0
  131.0870  126.4300   62.2480 N   0  0  0  0  0  0  0  0  0  0  0  0
  126.8960  128.7060   64.8440 C   0  0  0  0  0  0  0  0  0  0  0  0
  125.6980  128.6870   65.5780 C   0  0  0  0  0  0  0  0  0  0  0  0
  125.5740  128.1290   66.8370 O   0  0  0  0  0  0  0  0  0  0  0  0
  126.6600  127.3880   67.3840 C   0  0  0  0  0  0  0  0  0  0  0  0
  124.5500  129.2650   65.0160 C   0  0  0  0  0  0  0  0  0  0  0  0
  123.3690  129.2390   65.7160 O   0  0  0  0  0  0  0  0  0  0  0  0
  123.4420  129.8510   66.9970 C   0  0  0  0  0  0  0  0  0  0  0  0
  122.1120  130.6121   61.6557 H   0  0  0  0  0  0  0  0  0  0  0  0
  123.7836  131.2204   61.4058 H   0  0  0  0  0  0  0  0  0  0  0  0
  123.4616  129.4532   61.4058 H   0  0  0  0  0  0  0  0  0  0  0  0
  125.8324  130.2936   62.0229 H   0  0  0  0  0  0  0  0  0  0  0  0
  128.0607  129.7663   61.8116 H   0  0  0  0  0  0  0  0  0  0  0  0
  128.9965  129.8046   63.3872 H   0  0  0  0  0  0  0  0  0  0  0  0
  129.7790  127.8300   62.6370 H   0  0  0  0  0  0  0  0  0  0  0  0
  129.0231  119.4268   62.1328 H   0  0  0  0  0  0  0  0  0  0  0  0
  129.0123  116.9933   61.6225 H   0  0  0  0  0  0  0  0  0  0  0  0
  130.6723  116.0508   60.0264 H   0  0  0  0  0  0  0  0  0  0  0  0
  132.3566  117.5341   58.9461 H   0  0  0  0  0  0  0  0  0  0  0  0
  132.3771  119.9659   59.4605 H   0  0  0  0  0  0  0  0  0  0  0  0
  132.8511  121.5321   61.2777 H   0  0  0  0  0  0  0  0  0  0  0  0
  131.0470  126.9910   63.0880 H   0  0  0  0  0  0  0  0  0  0  0  0
  131.8230  126.6470   61.5910 H   0  0  0  0  0  0  0  0  0  0  0  0
  127.8032  128.2556   65.2731 H   0  0  0  0  0  0  0  0  0  0  0  0
  126.6106  127.4217   68.4824 H   0  0  0  0  0  0  0  0  0  0  0  0
  126.5980  126.3430   67.0461 H   0  0  0  0  0  0  0  0  0  0  0  0
  127.6104  127.8268   67.0461 H   0  0  0  0  0  0  0  0  0  0  0  0
  123.3501  129.0809   67.7771 H   0  0  0  0  0  0  0  0  0  0  0  0
  124.4080  130.3665   67.1026 H   0  0  0  0  0  0  0  0  0  0  0  0
  122.6244  130.5792   67.1026 H   0  0  0  0  0  0  0  0  0  0  0  0
  1  2  1  0
  2  3  1  0
  3  4  2  0
  4  5  1  0
  5  6  1  0
  6  7  1  0
  7  8  1  0
  8  9  2  0
  8 10  1  0
 10 11  1  0
 11 12  1  0
 12 13  2  0
 13 14  1  0
 14 15  1  0
 15 16  2  0
 16 17  1  0
 17 18  2  0
 18 19  1  0
 19 20  2  0
 14 21  2  0
 21 22  1  0
 22 23  1  0
 23 24  1  0
 23 25  1  0
 23 26  1  0
 22 27  2  0
 27 28  1  0
 28 29  1  0
  5 30  2  0
 30 31  1  0
 31 32  1  0
 32 33  1  0
 31 34  2  0
 34 35  1  0
 35 36  1  0
 34  3  1  0
 28 10  2  0
 27 12  1  0
 20 15  1  0
  1 37  1  0
  1 38  1  0
  1 39  1  0
  4 40  1  0
  6 41  1  0
  6 42  1  0
  7 43  1  0
 16 44  1  0
 17 45  1  0
 18 46  1  0
 19 47  1  0
 20 48  1  0
 21 49  1  0
 29 50  1  0
 29 51  1  0
 30 52  1  0
 33 53  1  0
 33 54  1  0
 33 55  1  0
 36 56  1  0
 36 57  1  0
 36 58  1  0
M  END
>  <Binding energies>  (1) 
[-8.41]

>  <Ligand effiencies>  (1) 
[-0.21564102564102564]

>  <Interactions>  (1) 
["V-A:ASP:366:CG:3213, V-B:TYR:539:CE2:9848, V-A:ASP:366:CB:3212, V-A:GLU:543:CD:4908, V-B:ILE:369:CD1:8211, H-B:GLY:454:N:9022, V-B:ARG:545:CZ:9898, V-B:TYR:539:CD2:9846, V-A:ARG:545:CZ:4926, V-A:LEU:475:CD2:4259, V-B:TYR:539:CG:9844, V-B:TYR:539:C:9839, V-B:ASP:366:CG:8185, V-A:ILE:369:CD1:3239, V-B:GLU:543:CD:9880, H-A:ASP:366:OD1:3214, H-A:GLU:543:OE1:4909, H-A:ASP:366:OD2:3215, H-A:GLU:543:OE2:4910, V-B:TYR:539:CB:9843, V-A:LEU:475:CD1:4258, V-B:ALA:541:CB:9864, V-B:GLY:454:CA:9021, V-B:ARG:545:CD:9895, H-B:ARG:545:NE:9896, V-B:ARG:545:CG:9894, H-B:HIS:456:ND1:9039, V-B:TYR:484:CZ:9319, V-B:TYR:484:CE1:9317, V-B:HIS:456:CE1:9042, H-B:ARG:545:NH2:9900, V-B:GLY:453:C:9014, V-A:SER:385:CB:3409, V-B:ILE:455:C:9024, H-B:ARG:545:NH1:9899, V-B:GLY:453:CA:9016, V-A:PRO:482:CB:4326, V-A:PRO:482:CG:4327, V-A:GLY:454:CA:4049, V-A:GLY:453:C:4042, V-B:GLU:543:CB:9878, V-A:GLY:453:CA:4044, V-B:GLY:454:C:9019"]

$$$$
4ci_Grossjean_2025
     RDKit          3D

 39 42  0  0  0  0  0  0  0  0999 V2000
  130.2420  127.1570   62.2180 N   0  0  0  0  0  0  0  0  0  0  0  0
  129.4590  126.0760   61.9100 C   0  0  0  0  0  0  0  0  0  0  0  0
  128.0710  126.1620   61.7100 C   0  0  0  0  0  0  0  0  0  0  0  0
  127.2120  127.3480   61.7700 C   0  0  0  0  0  0  0  0  0  0  0  0
  127.0770  128.0770   60.7840 O   0  0  0  0  0  0  0  0  0  0  0  0
  126.6110  127.5740   62.9650 N   0  0  0  0  0  0  0  0  0  0  0  0
  125.7570  128.6170   63.2980 C   0  0  0  0  0  0  0  0  0  0  0  0
  125.2510  129.5180   62.3620 C   0  0  0  0  0  0  0  0  0  0  0  0
  124.4610  130.3810   63.0840 C   0  0  0  0  0  0  0  0  0  0  0  0
  124.4880  130.0180   64.3900 O   0  0  0  0  0  0  0  0  0  0  0  0
  125.3130  128.8990   64.5120 N   0  0  0  0  0  0  0  0  0  0  0  0
  127.3840  124.5870   61.3210 S   0  0  0  0  0  0  0  0  0  0  0  0
  128.9530  123.8240   61.4370 C   0  0  0  0  0  0  0  0  0  0  0  0
  129.1080  122.5180   61.2300 N   0  0  0  0  0  0  0  0  0  0  0  0
  130.3650  122.0160   61.3380 C   0  0  0  0  0  0  0  0  0  0  0  0
  130.5080  120.5390   61.1050 C   0  0  0  0  0  0  0  0  0  0  0  0
  129.6330  119.6260   61.7160 C   0  0  0  0  0  0  0  0  0  0  0  0
  129.7590  118.2550   61.5030 C   0  0  0  0  0  0  0  0  0  0  0  0
  130.7670  117.7770   60.6730 C   0  0  0  0  0  0  0  0  0  0  0  0
  131.6500  118.6580   60.0590 C   0  0  0  0  0  0  0  0  0  0  0  0
  131.5210  120.0270   60.2760 C   0  0  0  0  0  0  0  0  0  0  0  0
  131.4570  122.8250   61.6710 C   0  0  0  0  0  0  0  0  0  0  0  0
  131.3050  124.2040   61.8900 C   0  0  0  0  0  0  0  0  0  0  0  0
  132.5450  125.0310   62.2500 C   0  0  0  0  0  0  0  0  0  0  0  0
  132.4640  125.5990   63.4550 F   0  0  0  0  0  0  0  0  0  0  0  0
  133.6220  124.2460   62.2510 F   0  0  0  0  0  0  0  0  0  0  0  0
  132.7110  126.0070   61.3570 F   0  0  0  0  0  0  0  0  0  0  0  0
  129.9920  124.7420   61.7660 C   0  0  0  0  0  0  0  0  0  0  0  0
  130.9830  127.1040   62.9030 H   0  0  0  0  0  0  0  0  0  0  0  0
  130.1080  128.0500   61.7610 H   0  0  0  0  0  0  0  0  0  0  0  0
  126.8010  126.9160   63.7060 H   0  0  0  0  0  0  0  0  0  0  0  0
  125.4426  129.5348   61.2789 H   0  0  0  0  0  0  0  0  0  0  0  0
  123.8976  131.2296   62.6688 H   0  0  0  0  0  0  0  0  0  0  0  0
  128.8346  119.9998   62.3739 H   0  0  0  0  0  0  0  0  0  0  0  0
  129.0644  117.5540   61.9891 H   0  0  0  0  0  0  0  0  0  0  0  0
  130.8664  116.6951   60.5011 H   0  0  0  0  0  0  0  0  0  0  0  0
  132.4470  118.2750   59.4047 H   0  0  0  0  0  0  0  0  0  0  0  0
  132.2239  120.7199   59.7904 H   0  0  0  0  0  0  0  0  0  0  0  0
  132.4550  122.3717   61.7632 H   0  0  0  0  0  0  0  0  0  0  0  0
  1  2  1  0
  2  3  2  0
  3  4  1  0
  4  5  2  0
  4  6  1  0
  6  7  1  0
  7  8  1  0
  8  9  2  0
  9 10  1  0
 10 11  1  0
  3 12  1  0
 12 13  1  0
 13 14  2  0
 14 15  1  0
 15 16  1  0
 16 17  2  0
 17 18  1  0
 18 19  2  0
 19 20  1  0
 20 21  2  0
 15 22  2  0
 22 23  1  0
 23 24  1  0
 24 25  1  0
 24 26  1  0
 24 27  1  0
 23 28  2  0
 28  2  1  0
 11  7  2  0
 28 13  1  0
 21 16  1  0
  1 29  1  0
  1 30  1  0
  6 31  1  0
  8 32  1  0
  9 33  1  0
 17 34  1  0
 18 35  1  0
 19 36  1  0
 20 37  1  0
 21 38  1  0
 22 39  1  0
M  END
>  <Binding energies>  (1) 
[-7.39]

>  <Ligand effiencies>  (1) 
[-0.23838709677419354]

>  <Interactions>  (1) 
["V-A:ASP:366:CG:3213, V-B:TYR:539:CE2:9848, V-A:GLU:543:CD:4908, H-B:GLY:454:N:9022, H-B:TYR:484:OH:9320, V-B:ARG:545:CZ:9898, V-B:TYR:539:CD2:9846, V-A:ARG:545:CZ:4926, V-A:LEU:475:CD2:4259, H-B:GLU:543:OE2:9882, V-B:GLU:543:CD:9880, H-B:GLU:543:OE1:9881, H-A:GLU:543:OE1:4909, H-A:GLU:543:OE2:4910, V-A:LEU:475:CD1:4258, V-B:ALA:541:CB:9864, H-B:ARG:545:NE:9896, H-B:ARG:545:NH2:9900, V-A:SER:385:CB:3409, V-A:PRO:482:CB:4326, V-A:LEU:475:CG:4257, V-A:PRO:482:CG:4327, V-A:GLY:454:CA:4049"]

$$$$
4cj_Grossjean_2025
     RDKit          3D

 39 42  0  0  0  0  0  0  0  0999 V2000
  123.5320  129.9950   59.5730 N   0  0  0  0  0  0  0  0  0  0  0  0
  124.8090  130.4140   59.8500 C   0  0  0  0  0  0  0  0  0  0  0  0
  125.2960  130.5840   61.1570 C   0  0  0  0  0  0  0  0  0  0  0  0
  124.6010  130.3610   62.4270 C   0  0  0  0  0  0  0  0  0  0  0  0
  123.3950  130.5980   62.5370 O   0  0  0  0  0  0  0  0  0  0  0  0
  125.3740  129.8960   63.4400 N   0  0  0  0  0  0  0  0  0  0  0  0
  124.9640  129.6030   64.7340 C   0  0  0  0  0  0  0  0  0  0  0  0
  123.8510  129.9710   65.3300 N   0  0  0  0  0  0  0  0  0  0  0  0
  123.7870  129.5100   66.5640 C   0  0  0  0  0  0  0  0  0  0  0  0
  124.8700  128.7480   66.9930 C   0  0  0  0  0  0  0  0  0  0  0  0
  126.0280  128.6330   65.7010 S   0  0  0  0  0  0  0  0  0  0  0  0
  126.9750  131.1170   61.1460 S   0  0  0  0  0  0  0  0  0  0  0  0
  127.0120  131.1100   59.3990 C   0  0  0  0  0  0  0  0  0  0  0  0
  128.1100  131.4460   58.7270 N   0  0  0  0  0  0  0  0  0  0  0  0
  128.0470  131.4040   57.3710 C   0  0  0  0  0  0  0  0  0  0  0  0
  129.3080  131.7760   56.6440 C   0  0  0  0  0  0  0  0  0  0  0  0
  129.2600  132.2620   55.3270 C   0  0  0  0  0  0  0  0  0  0  0  0
  130.4250  132.6040   54.6450 C   0  0  0  0  0  0  0  0  0  0  0  0
  131.6590  132.4610   55.2720 C   0  0  0  0  0  0  0  0  0  0  0  0
  131.7340  131.9810   56.5740 C   0  0  0  0  0  0  0  0  0  0  0  0
  130.5670  131.6420   57.2520 C   0  0  0  0  0  0  0  0  0  0  0  0
  126.8750  131.0490   56.6970 C   0  0  0  0  0  0  0  0  0  0  0  0
  125.7100  130.6940   57.3960 C   0  0  0  0  0  0  0  0  0  0  0  0
  124.4600  130.3120   56.5940 C   0  0  0  0  0  0  0  0  0  0  0  0
  124.0180  129.0830   56.8670 F   0  0  0  0  0  0  0  0  0  0  0  0
  123.4710  131.1620   56.8700 F   0  0  0  0  0  0  0  0  0  0  0  0
  124.7290  130.3590   55.2890 F   0  0  0  0  0  0  0  0  0  0  0  0
  125.7710  130.7170   58.8190 C   0  0  0  0  0  0  0  0  0  0  0  0
  122.9130  129.6520   60.2940 H   0  0  0  0  0  0  0  0  0  0  0  0
  123.1640  130.0220   58.6320 H   0  0  0  0  0  0  0  0  0  0  0  0
  126.3540  129.7520   63.2470 H   0  0  0  0  0  0  0  0  0  0  0  0
  122.9264  129.7160   67.2173 H   0  0  0  0  0  0  0  0  0  0  0  0
  124.9761  128.2922   67.9885 H   0  0  0  0  0  0  0  0  0  0  0  0
  128.2869  132.3742   54.8265 H   0  0  0  0  0  0  0  0  0  0  0  0
  130.3700  132.9856   53.6148 H   0  0  0  0  0  0  0  0  0  0  0  0
  132.5802  132.7294   54.7341 H   0  0  0  0  0  0  0  0  0  0  0  0
  132.7113  131.8695   57.0664 H   0  0  0  0  0  0  0  0  0  0  0  0
  130.6317  131.2624   58.2824 H   0  0  0  0  0  0  0  0  0  0  0  0
  126.8651  131.0477   55.5970 H   0  0  0  0  0  0  0  0  0  0  0  0
  1  2  1  0
  2  3  2  0
  3  4  1  0
  4  5  2  0
  4  6  1  0
  6  7  1  0
  7  8  2  0
  8  9  1  0
  9 10  2  0
 10 11  1  0
  3 12  1  0
 12 13  1  0
 13 14  2  0
 14 15  1  0
 15 16  1  0
 16 17  2  0
 17 18  1  0
 18 19  2  0
 19 20  1  0
 20 21  2  0
 15 22  2  0
 22 23  1  0
 23 24  1  0
 24 25  1  0
 24 26  1  0
 24 27  1  0
 23 28  2  0
 28  2  1  0
 11  7  1  0
 28 13  1  0
 21 16  1  0
  1 29  1  0
  1 30  1  0
  6 31  1  0
  9 32  1  0
 10 33  1  0
 17 34  1  0
 18 35  1  0
 19 36  1  0
 20 37  1  0
 21 38  1  0
 22 39  1  0
M  END
>  <Binding energies>  (1) 
[-7.0]

>  <Ligand effiencies>  (1) 
[-0.22580645161290322]

>  <Interactions>  (1) 
["V-A:TYR:539:CZ:4877, V-B:ILE:369:CG2:8209, V-A:PRO:540:CA:4883, H-B:ASP:366:O:8181, H-B:GLY:454:N:9022, H-B:TYR:484:OH:9320, V-A:TYR:539:CE1:4875, V-B:ARG:545:CZ:9898, H-B:ASP:366:OD2:8187, V-B:ASP:366:CG:8185, V-B:ASP:366:CB:8184, V-B:ASP:366:CA:8182, V-B:TYR:531:CZ:9766, V-B:GLU:543:CD:9880, V-A:PRO:540:CB:4885, V-A:TYR:539:CD2:4874, V-A:ILE:538:CA:4860, V-A:ILE:538:CB:4862, V-A:PRO:540:N:4884, V-A:ILE:538:CG2:4863, V-B:ASP:366:C:8180, H-B:ASP:366:OD1:8186, V-B:ARG:545:CD:9895, V-B:TYR:531:CE1:9764, V-B:ARG:545:CG:9894, V-B:TYR:484:CE1:9317, V-B:HIS:456:CE1:9042, V-B:GLY:453:C:9014, V-B:TYR:531:CD1:9762, V-B:ASN:370:CB:8217, V-B:GLY:453:CA:9016, V-A:ILE:538:C:4858, V-B:ARG:545:CB:9893, V-B:ASN:370:CG:8218"]

$$$$
4ck_Grossjean_2025
     RDKit          3D

 57 59  0  0  0  0  0  0  0  0999 V2000
  125.7820  129.2440   56.1750 C   0  0  0  0  0  0  0  0  0  0  0  0
  126.3730  128.7820   54.9700 O   0  0  0  0  0  0  0  0  0  0  0  0
  127.7790  128.9810   54.9180 C   0  0  0  0  0  0  0  0  0  0  0  0
  128.0730  130.4860   54.9430 C   0  0  0  0  0  0  0  0  0  0  0  0
  129.0330  130.7550   55.9540 O   0  0  0  0  0  0  0  0  0  0  0  0
  128.7270  131.9010   56.7370 C   0  0  0  0  0  0  0  0  0  0  0  0
  129.8170  132.9600   56.5260 C   0  0  0  0  0  0  0  0  0  0  0  0
  130.5700  132.6170   55.3710 O   0  0  0  0  0  0  0  0  0  0  0  0
  131.9330  133.0180   55.4320 C   0  0  0  0  0  0  0  0  0  0  0  0
  132.7420  131.9730   56.2150 C   0  0  0  0  0  0  0  0  0  0  0  0
  131.9140  130.8470   56.6470 N   0  0  0  0  0  0  0  0  0  0  0  0
  131.9950  130.2180   57.8380 C   0  0  0  0  0  0  0  0  0  0  0  0
  132.7830  130.5620   58.7210 O   0  0  0  0  0  0  0  0  0  0  0  0
  131.0750  129.0970   58.0330 C   0  0  0  0  0  0  0  0  0  0  0  0
  130.2740  128.3600   56.6470 S   0  0  0  0  0  0  0  0  0  0  0  0
  129.4900  127.1810   57.6720 C   0  0  0  0  0  0  0  0  0  0  0  0
  128.6760  126.2560   57.1710 N   0  0  0  0  0  0  0  0  0  0  0  0
  128.1120  125.3830   58.0460 C   0  0  0  0  0  0  0  0  0  0  0  0
  127.2130  124.3400   57.4460 C   0  0  0  0  0  0  0  0  0  0  0  0
  127.6260  123.5880   56.3350 C   0  0  0  0  0  0  0  0  0  0  0  0
  126.7960  122.6200   55.7720 C   0  0  0  0  0  0  0  0  0  0  0  0
  125.5370  122.3910   56.3160 C   0  0  0  0  0  0  0  0  0  0  0  0
  125.1050  123.1190   57.4200 C   0  0  0  0  0  0  0  0  0  0  0  0
  125.9380  124.0840   57.9800 C   0  0  0  0  0  0  0  0  0  0  0  0
  128.3760  125.4380   59.4180 C   0  0  0  0  0  0  0  0  0  0  0  0
  129.2320  126.4110   59.9580 C   0  0  0  0  0  0  0  0  0  0  0  0
  129.4740  126.4160   61.4730 C   0  0  0  0  0  0  0  0  0  0  0  0
  129.0170  127.5170   62.0720 F   0  0  0  0  0  0  0  0  0  0  0  0
  128.8600  125.3740   62.0310 F   0  0  0  0  0  0  0  0  0  0  0  0
  130.7820  126.3410   61.7200 F   0  0  0  0  0  0  0  0  0  0  0  0
  129.8270  127.3330   59.0500 C   0  0  0  0  0  0  0  0  0  0  0  0
  130.7430  128.4340   59.2250 C   0  0  0  0  0  0  0  0  0  0  0  0
  131.2400  128.8010   60.4490 N   0  0  0  0  0  0  0  0  0  0  0  0
  126.3230  128.8211   57.0344 H   0  0  0  0  0  0  0  0  0  0  0  0
  125.8357  130.3421   56.2122 H   0  0  0  0  0  0  0  0  0  0  0  0
  124.7294  128.9269   56.2122 H   0  0  0  0  0  0  0  0  0  0  0  0
  128.2518  128.4987   55.7862 H   0  0  0  0  0  0  0  0  0  0  0  0
  128.1823  128.5395   53.9948 H   0  0  0  0  0  0  0  0  0  0  0  0
  128.4690  130.8003   53.9660 H   0  0  0  0  0  0  0  0  0  0  0  0
  127.1471  131.0411   55.1540 H   0  0  0  0  0  0  0  0  0  0  0  0
  127.7530  132.3085   56.4282 H   0  0  0  0  0  0  0  0  0  0  0  0
  128.6828  131.6220   57.8001 H   0  0  0  0  0  0  0  0  0  0  0  0
  129.3517  133.9466   56.3846 H   0  0  0  0  0  0  0  0  0  0  0  0
  130.4770  132.9979   57.4052 H   0  0  0  0  0  0  0  0  0  0  0  0
  132.3356  133.1037   54.4119 H   0  0  0  0  0  0  0  0  0  0  0  0
  132.0055  133.9915   55.9389 H   0  0  0  0  0  0  0  0  0  0  0  0
  133.5488  131.5934   55.5708 H   0  0  0  0  0  0  0  0  0  0  0  0
  133.1457  132.4613   57.1142 H   0  0  0  0  0  0  0  0  0  0  0  0
  131.1840  130.5650   56.0100 H   0  0  0  0  0  0  0  0  0  0  0  0
  128.6212  123.7656   55.9015 H   0  0  0  0  0  0  0  0  0  0  0  0
  127.1355  122.0398   54.9013 H   0  0  0  0  0  0  0  0  0  0  0  0
  124.8790  121.6301   55.8710 H   0  0  0  0  0  0  0  0  0  0  0  0
  124.1093  122.9330   57.8488 H   0  0  0  0  0  0  0  0  0  0  0  0
  125.5929  124.6553   58.8544 H   0  0  0  0  0  0  0  0  0  0  0  0
  127.9036  124.7043   60.0876 H   0  0  0  0  0  0  0  0  0  0  0  0
  130.8150  128.4950   61.3130 H   0  0  0  0  0  0  0  0  0  0  0  0
  132.0580  129.3900   60.5290 H   0  0  0  0  0  0  0  0  0  0  0  0
  1  2  1  0
  2  3  1  0
  3  4  1  0
  4  5  1  0
  5  6  1  0
  6  7  1  0
  7  8  1  0
  8  9  1  0
  9 10  1  0
 10 11  1  0
 11 12  1  0
 12 13  2  0
 12 14  1  0
 14 15  1  0
 15 16  1  0
 16 17  2  0
 17 18  1  0
 18 19  1  0
 19 20  2  0
 20 21  1  0
 21 22  2  0
 22 23  1  0
 23 24  2  0
 18 25  2  0
 25 26  1  0
 26 27  1  0
 27 28  1  0
 27 29  1  0
 27 30  1  0
 26 31  2  0
 31 32  1  0
 32 33  1  0
 32 14  2  0
 31 16  1  0
 24 19  1  0
  1 34  1  0
  1 35  1  0
  1 36  1  0
  3 37  1  0
  3 38  1  0
  4 39  1  0
  4 40  1  0
  6 41  1  0
  6 42  1  0
  7 43  1  0
  7 44  1  0
  9 45  1  0
  9 46  1  0
 10 47  1  0
 10 48  1  0
 11 49  1  0
 20 50  1  0
 21 51  1  0
 22 52  1  0
 23 53  1  0
 24 54  1  0
 25 55  1  0
 33 56  1  0
 33 57  1  0
M  END
>  <Binding energies>  (1) 
[-6.23]

>  <Ligand effiencies>  (1) 
[-0.17305555555555557]

>  <Interactions>  (1) 
["V-A:ASP:366:CG:3213, V-B:MET:535:CE:9807, V-A:PRO:540:CA:4883, H-B:LYS:534:NZ:9795, V-A:GLU:543:CD:4908, V-B:TYR:539:CZ:9849, H-A:TYR:531:OH:4795, H-B:TYR:531:OH:9767, V-B:TYR:539:CD1:9845, V-B:TYR:539:CE1:9847, V-B:PRO:540:CB:9857, V-B:PRO:540:CA:9855, V-B:PRO:540:N:9856, V-A:TYR:539:C:4867, V-B:LEU:363:CD1:8161, V-B:TYR:531:CZ:9766, V-B:GLU:543:CD:9880, V-B:ILE:538:CA:9832, V-B:ILE:538:CD1:9837, H-A:ASP:366:OD1:3214, V-A:PRO:540:CD:4887, V-A:TYR:531:CE2:4793, V-A:PRO:540:CB:4885, V-A:LEU:363:CD1:3189, V-A:ILE:538:CA:4860, V-A:ILE:538:CB:4862, H-A:TYR:539:N:4870, V-A:PRO:540:N:4884, V-A:TYR:539:CG:4872, H-A:GLU:543:OE1:4909, V-A:ILE:538:CG2:4863, V-B:PRO:540:CD:9859, V-B:ILE:538:CG2:9835, V-A:PRO:540:CG:4886, V-B:TYR:531:CE1:9764, V-A:TYR:539:CA:4869"]

$$$$
4dd_Grossjean_2025
     RDKit          3D

 43 46  0  0  0  0  0  0  0  0999 V2000
  133.4730  124.3590   61.3840 C   0  0  0  0  0  0  0  0  0  0  0  0
  132.1140  123.6740   61.3800 C   0  0  0  0  0  0  0  0  0  0  0  0
  132.0730  122.2880   61.1820 C   0  0  0  0  0  0  0  0  0  0  0  0
  130.8550  121.5990   61.1680 C   0  0  0  0  0  0  0  0  0  0  0  0
  130.7810  120.1160   60.9530 C   0  0  0  0  0  0  0  0  0  0  0  0
  131.7110  119.4610   60.1290 C   0  0  0  0  0  0  0  0  0  0  0  0
  131.6500  118.0850   59.9270 C   0  0  0  0  0  0  0  0  0  0  0  0
  130.6520  117.3410   60.5480 C   0  0  0  0  0  0  0  0  0  0  0  0
  129.7190  117.9630   61.3700 C   0  0  0  0  0  0  0  0  0  0  0  0
  129.7850  119.3400   61.5710 C   0  0  0  0  0  0  0  0  0  0  0  0
  129.6650  122.2400   61.3320 N   0  0  0  0  0  0  0  0  0  0  0  0
  129.7030  123.5570   61.5270 C   0  0  0  0  0  0  0  0  0  0  0  0
  128.2500  124.5010   61.7700 S   0  0  0  0  0  0  0  0  0  0  0  0
  129.1880  125.9880   61.9330 C   0  0  0  0  0  0  0  0  0  0  0  0
  128.5160  127.2630   62.1900 C   0  0  0  0  0  0  0  0  0  0  0  0
  129.1000  128.3310   61.9950 O   0  0  0  0  0  0  0  0  0  0  0  0
  127.2400  127.1680   62.6360 N   0  0  0  0  0  0  0  0  0  0  0  0
  126.3470  128.1840   63.0230 C   0  0  0  0  0  0  0  0  0  0  0  0
  125.7470  128.8990   61.9820 C   0  0  0  0  0  0  0  0  0  0  0  0
  124.8370  129.9150   62.2610 C   0  0  0  0  0  0  0  0  0  0  0  0
  124.5200  130.2120   63.5840 C   0  0  0  0  0  0  0  0  0  0  0  0
  125.1000  129.5000   64.6300 C   0  0  0  0  0  0  0  0  0  0  0  0
  126.0110  128.4830   64.3540 C   0  0  0  0  0  0  0  0  0  0  0  0
  130.5620  125.7360   61.7950 C   0  0  0  0  0  0  0  0  0  0  0  0
  131.5280  126.7090   61.8720 N   0  0  0  0  0  0  0  0  0  0  0  0
  130.8820  124.3530   61.5650 C   0  0  0  0  0  0  0  0  0  0  0  0
  133.7980  124.5228   62.4221 H   0  0  0  0  0  0  0  0  0  0  0  0
  134.2059  123.7226   60.8664 H   0  0  0  0  0  0  0  0  0  0  0  0
  133.3974  125.3267   60.8664 H   0  0  0  0  0  0  0  0  0  0  0  0
  133.0115  121.7332   61.0354 H   0  0  0  0  0  0  0  0  0  0  0  0
  132.5011  120.0454   59.6348 H   0  0  0  0  0  0  0  0  0  0  0  0
  132.3875  117.5883   59.2794 H   0  0  0  0  0  0  0  0  0  0  0  0
  130.6007  116.2539   60.3877 H   0  0  0  0  0  0  0  0  0  0  0  0
  128.9321  117.3704   61.8595 H   0  0  0  0  0  0  0  0  0  0  0  0
  129.0460  119.8278   62.2237 H   0  0  0  0  0  0  0  0  0  0  0  0
  126.8580  126.2350   62.6920 H   0  0  0  0  0  0  0  0  0  0  0  0
  125.9951  128.6577   60.9379 H   0  0  0  0  0  0  0  0  0  0  0  0
  124.3708  130.4802   61.4405 H   0  0  0  0  0  0  0  0  0  0  0  0
  123.8040  131.0174   63.8047 H   0  0  0  0  0  0  0  0  0  0  0  0
  124.8397  129.7397   65.6715 H   0  0  0  0  0  0  0  0  0  0  0  0
  126.4671  127.9143   65.1777 H   0  0  0  0  0  0  0  0  0  0  0  0
  132.4970  126.5160   61.6650 H   0  0  0  0  0  0  0  0  0  0  0  0
  131.2970  127.6570   62.1350 H   0  0  0  0  0  0  0  0  0  0  0  0
  1  2  1  0
  2  3  2  0
  3  4  1  0
  4  5  1  0
  5  6  2  0
  6  7  1  0
  7  8  2  0
  8  9  1  0
  9 10  2  0
  4 11  2  0
 11 12  1  0
 12 13  1  0
 13 14  1  0
 14 15  1  0
 15 16  2  0
 15 17  1  0
 17 18  1  0
 18 19  2  0
 19 20  1  0
 20 21  2  0
 21 22  1  0
 22 23  2  0
 14 24  2  0
 24 25  1  0
 24 26  1  0
 26  2  1  0
 10  5  1  0
 26 12  2  0
 23 18  1  0
  1 27  1  0
  1 28  1  0
  1 29  1  0
  3 30  1  0
  6 31  1  0
  7 32  1  0
  8 33  1  0
  9 34  1  0
 10 35  1  0
 17 36  1  0
 19 37  1  0
 20 38  1  0
 21 39  1  0
 22 40  1  0
 23 41  1  0
 25 42  1  0
 25 43  1  0
M  END
>  <Binding energies>  (1) 
[-7.48]

>  <Ligand effiencies>  (1) 
[-0.2579310344827586]

>  <Interactions>  (1) 
["V-A:ASP:366:CG:3213, V-B:TYR:539:CE2:9848, V-A:GLU:543:CD:4908, V-B:ARG:545:CZ:9898, V-B:TYR:539:CD2:9846, V-A:ARG:545:CZ:4926, V-A:LEU:475:CD2:4259, V-B:ASP:366:CG:8185, V-A:ILE:369:CD1:3239, H-B:GLU:543:OE2:9882, V-B:GLU:543:CD:9880, H-B:GLU:543:OE1:9881, H-A:ASP:366:OD1:3214, H-A:GLU:543:OE1:4909, H-A:ASP:366:OD2:3215, H-A:GLU:543:OE2:4910, V-A:LEU:475:CD1:4258, V-B:ALA:541:CB:9864, V-A:SER:385:CB:3409, V-A:PRO:482:CB:4326, V-A:LEU:475:CG:4257, V-A:PRO:482:CG:4327"]

$$$$
4dg_Grossjean_2025
     RDKit          3D

 46 49  0  0  0  0  0  0  0  0999 V2000
  125.9370  129.2300   63.8310 C   0  0  0  0  0  0  0  0  0  0  0  0
  126.0580  129.7680   62.4130 C   0  0  0  0  0  0  0  0  0  0  0  0
  125.9170  131.1470   62.2160 C   0  0  0  0  0  0  0  0  0  0  0  0
  126.0170  131.7060   60.9360 C   0  0  0  0  0  0  0  0  0  0  0  0
  125.8710  133.1820   60.6940 C   0  0  0  0  0  0  0  0  0  0  0  0
  126.9640  134.0490   60.8550 C   0  0  0  0  0  0  0  0  0  0  0  0
  126.8340  135.4190   60.6360 C   0  0  0  0  0  0  0  0  0  0  0  0
  125.6050  135.9430   60.2510 C   0  0  0  0  0  0  0  0  0  0  0  0
  124.5040  135.1070   60.0880 C   0  0  0  0  0  0  0  0  0  0  0  0
  124.6390  133.7390   60.3090 C   0  0  0  0  0  0  0  0  0  0  0  0
  126.2710  130.9430   59.8380 N   0  0  0  0  0  0  0  0  0  0  0  0
  126.4050  129.6300   60.0240 C   0  0  0  0  0  0  0  0  0  0  0  0
  126.7260  128.5360   58.6990 S   0  0  0  0  0  0  0  0  0  0  0  0
  126.7450  127.1510   59.7890 C   0  0  0  0  0  0  0  0  0  0  0  0
  126.9420  125.8030   59.2610 C   0  0  0  0  0  0  0  0  0  0  0  0
  127.8310  125.5570   58.4430 O   0  0  0  0  0  0  0  0  0  0  0  0
  126.0720  124.8670   59.6950 N   0  0  0  0  0  0  0  0  0  0  0  0
  126.0910  123.4540   59.3190 C   0  0  0  0  0  0  0  0  0  0  0  0
  126.0740  123.2270   57.8120 C   0  0  0  0  0  0  0  0  0  0  0  0
  127.2780  123.0550   57.1220 C   0  0  0  0  0  0  0  0  0  0  0  0
  127.2640  122.8170   55.7500 C   0  0  0  0  0  0  0  0  0  0  0  0
  126.0480  122.7410   55.0750 C   0  0  0  0  0  0  0  0  0  0  0  0
  124.8440  122.8950   55.7590 C   0  0  0  0  0  0  0  0  0  0  0  0
  124.8570  123.1310   57.1310 C   0  0  0  0  0  0  0  0  0  0  0  0
  126.4950  127.5420   61.1140 C   0  0  0  0  0  0  0  0  0  0  0  0
  126.4380  126.6680   62.1690 N   0  0  0  0  0  0  0  0  0  0  0  0
  126.3090  128.9590   61.2750 C   0  0  0  0  0  0  0  0  0  0  0  0
  126.1199  130.0434   64.5486 H   0  0  0  0  0  0  0  0  0  0  0  0
  124.9255  128.8259   63.9848 H   0  0  0  0  0  0  0  0  0  0  0  0
  126.6780  128.4318   63.9848 H   0  0  0  0  0  0  0  0  0  0  0  0
  125.7248  131.8009   63.0794 H   0  0  0  0  0  0  0  0  0  0  0  0
  127.9388  133.6399   61.1590 H   0  0  0  0  0  0  0  0  0  0  0  0
  127.7007  136.0836   60.7672 H   0  0  0  0  0  0  0  0  0  0  0  0
  125.5022  137.0238   60.0743 H   0  0  0  0  0  0  0  0  0  0  0  0
  123.5323  135.5250   59.7862 H   0  0  0  0  0  0  0  0  0  0  0  0
  123.7660  133.0823   60.1800 H   0  0  0  0  0  0  0  0  0  0  0  0
  125.4210  125.1230   60.4230 H   0  0  0  0  0  0  0  0  0  0  0  0
  127.0029  122.9963   59.7300 H   0  0  0  0  0  0  0  0  0  0  0  0
  125.1764  122.9980   59.7258 H   0  0  0  0  0  0  0  0  0  0  0  0
  128.2348  123.1076   57.6622 H   0  0  0  0  0  0  0  0  0  0  0  0
  128.2091  122.6896   55.2017 H   0  0  0  0  0  0  0  0  0  0  0  0
  126.0381  122.5575   53.9905 H   0  0  0  0  0  0  0  0  0  0  0  0
  123.8884  122.8305   55.2180 H   0  0  0  0  0  0  0  0  0  0  0  0
  123.9097  123.2419   57.6791 H   0  0  0  0  0  0  0  0  0  0  0  0
  126.0140  125.7560   62.0860 H   0  0  0  0  0  0  0  0  0  0  0  0
  126.8290  126.9090   63.0700 H   0  0  0  0  0  0  0  0  0  0  0  0
  1  2  1  0
  2  3  2  0
  3  4  1  0
  4  5  1  0
  5  6  2  0
  6  7  1  0
  7  8  2  0
  8  9  1  0
  9 10  2  0
  4 11  2  0
 11 12  1  0
 12 13  1  0
 13 14  1  0
 14 15  1  0
 15 16  2  0
 15 17  1  0
 17 18  1  0
 18 19  1  0
 19 20  2  0
 20 21  1  0
 21 22  2  0
 22 23  1  0
 23 24  2  0
 14 25  2  0
 25 26  1  0
 25 27  1  0
 27  2  1  0
 10  5  1  0
 27 12  2  0
 24 19  1  0
  1 28  1  0
  1 29  1  0
  1 30  1  0
  3 31  1  0
  6 32  1  0
  7 33  1  0
  8 34  1  0
  9 35  1  0
 10 36  1  0
 17 37  1  0
 18 38  1  0
 18 39  1  0
 20 40  1  0
 21 41  1  0
 22 42  1  0
 23 43  1  0
 24 44  1  0
 26 45  1  0
 26 46  1  0
M  END
>  <Binding energies>  (1) 
[-8.17]

>  <Ligand effiencies>  (1) 
[-0.2723333333333333]

>  <Interactions>  (1) 
["V-B:MET:535:CE:9807, V-B:ILE:369:CG2:8209, V-B:LEU:475:CD2:9231, V-B:TYR:539:CZ:9849, V-A:TYR:539:CE1:4875, V-B:ARG:545:CZ:9898, V-B:TYR:539:CD1:9845, H-B:ASP:366:OD2:8187, V-B:TYR:539:CE1:9847, V-B:ASP:366:CG:8185, V-B:PRO:540:CB:9857, V-B:PRO:540:CA:9855, V-B:PRO:540:N:9856, V-A:TYR:539:CD1:4873, V-B:LEU:363:CD1:8161, H-B:GLU:543:OE2:9882, V-B:TYR:531:CZ:9766, V-B:TYR:531:CE2:9765, V-B:GLU:543:CD:9880, H-B:GLU:543:OE1:9881, V-B:ILE:538:CA:9832, V-B:ILE:538:CD1:9837, V-B:PRO:540:CD:9859, V-B:ILE:538:CG2:9835, V-B:SER:385:CB:8381, V-B:SER:385:CA:8379"]

$$$$
4dj_Grossjean_2025
     RDKit          3D

 39 42  0  0  0  0  0  0  0  0999 V2000
  133.4020  124.3510   61.6330 C   0  0  0  0  0  0  0  0  0  0  0  0
  132.0460  123.6680   61.5370 C   0  0  0  0  0  0  0  0  0  0  0  0
  132.0180  122.2870   61.3110 C   0  0  0  0  0  0  0  0  0  0  0  0
  130.8030  121.5990   61.2100 C   0  0  0  0  0  0  0  0  0  0  0  0
  130.7420  120.1160   60.9740 C   0  0  0  0  0  0  0  0  0  0  0  0
  129.7590  119.3280   61.5940 C   0  0  0  0  0  0  0  0  0  0  0  0
  129.6960  117.9530   61.3800 C   0  0  0  0  0  0  0  0  0  0  0  0
  130.6240  117.3440   60.5410 C   0  0  0  0  0  0  0  0  0  0  0  0
  131.6100  118.0990   59.9160 C   0  0  0  0  0  0  0  0  0  0  0  0
  131.6680  119.4730   60.1330 C   0  0  0  0  0  0  0  0  0  0  0  0
  129.6060  122.2320   61.3430 N   0  0  0  0  0  0  0  0  0  0  0  0
  129.6310  123.5470   61.5570 C   0  0  0  0  0  0  0  0  0  0  0  0
  128.1660  124.4860   61.7380 S   0  0  0  0  0  0  0  0  0  0  0  0
  129.0910  125.9720   61.9660 C   0  0  0  0  0  0  0  0  0  0  0  0
  128.4040  127.2460   62.1780 C   0  0  0  0  0  0  0  0  0  0  0  0
  128.9890  128.3160   61.9950 O   0  0  0  0  0  0  0  0  0  0  0  0
  127.1150  127.1530   62.5890 N   0  0  0  0  0  0  0  0  0  0  0  0
  126.2480  128.2010   62.8630 C   0  0  0  0  0  0  0  0  0  0  0  0
  125.5700  128.9330   62.0050 N   0  0  0  0  0  0  0  0  0  0  0  0
  124.8400  129.8450   62.6170 C   0  0  0  0  0  0  0  0  0  0  0  0
  124.9170  129.8650   64.0060 C   0  0  0  0  0  0  0  0  0  0  0  0
  126.0080  128.6170   64.5290 S   0  0  0  0  0  0  0  0  0  0  0  0
  130.4710  125.7230   61.8970 C   0  0  0  0  0  0  0  0  0  0  0  0
  131.4290  126.6960   62.0350 N   0  0  0  0  0  0  0  0  0  0  0  0
  130.8060  124.3440   61.6660 C   0  0  0  0  0  0  0  0  0  0  0  0
  133.6704  124.4862   62.6912 H   0  0  0  0  0  0  0  0  0  0  0  0
  134.1621  123.7282   61.1386 H   0  0  0  0  0  0  0  0  0  0  0  0
  133.3540  125.3325   61.1386 H   0  0  0  0  0  0  0  0  0  0  0  0
  132.9640  121.7345   61.2113 H   0  0  0  0  0  0  0  0  0  0  0  0
  129.0255  119.8050   62.2607 H   0  0  0  0  0  0  0  0  0  0  0  0
  128.9169  117.3519   61.8716 H   0  0  0  0  0  0  0  0  0  0  0  0
  130.5772  116.2582   60.3711 H   0  0  0  0  0  0  0  0  0  0  0  0
  132.3410  117.6130   59.2531 H   0  0  0  0  0  0  0  0  0  0  0  0
  132.4514  120.0658   59.6383 H   0  0  0  0  0  0  0  0  0  0  0  0
  126.7360  126.2250   62.7180 H   0  0  0  0  0  0  0  0  0  0  0  0
  124.2056  130.5505   62.0603 H   0  0  0  0  0  0  0  0  0  0  0  0
  124.3752  130.5583   64.6662 H   0  0  0  0  0  0  0  0  0  0  0  0
  131.1890  127.6660   62.1750 H   0  0  0  0  0  0  0  0  0  0  0  0
  132.4140  126.4710   62.0010 H   0  0  0  0  0  0  0  0  0  0  0  0
  1  2  1  0
  2  3  2  0
  3  4  1  0
  4  5  1  0
  5  6  2  0
  6  7  1  0
  7  8  2  0
  8  9  1  0
  9 10  2  0
  4 11  2  0
 11 12  1  0
 12 13  1  0
 13 14  1  0
 14 15  1  0
 15 16  2  0
 15 17  1  0
 17 18  1  0
 18 19  2  0
 19 20  1  0
 20 21  2  0
 21 22  1  0
 14 23  2  0
 23 24  1  0
 23 25  1  0
 25  2  1  0
 10  5  1  0
 25 12  2  0
 22 18  1  0
  1 26  1  0
  1 27  1  0
  1 28  1  0
  3 29  1  0
  6 30  1  0
  7 31  1  0
  8 32  1  0
  9 33  1  0
 10 34  1  0
 17 35  1  0
 20 36  1  0
 21 37  1  0
 24 38  1  0
 24 39  1  0
M  END
>  <Binding energies>  (1) 
[-6.96]

>  <Ligand effiencies>  (1) 
[-0.24857142857142858]

>  <Interactions>  (1) 
["V-B:TYR:539:CE2:9848, V-A:GLU:543:CD:4908, V-B:ARG:545:CZ:9898, V-B:TYR:539:CD2:9846, V-A:ARG:545:CZ:4926, V-A:LEU:475:CD2:4259, H-B:GLU:543:OE2:9882, V-B:GLU:543:CD:9880, H-B:GLU:543:OE1:9881, H-A:ASP:366:OD1:3214, H-A:GLU:543:OE1:4909, H-A:ASP:366:OD2:3215, H-A:GLU:543:OE2:4910, V-A:LEU:475:CD1:4258, V-B:ALA:541:CB:9864, H-B:ARG:545:NH2:9900, V-A:SER:385:CB:3409, V-A:PRO:482:CB:4326, V-A:LEU:475:CG:4257, V-A:PRO:482:CG:4327"]

$$$$
4ea_Grossjean_2025
     RDKit          3D

 52 55  0  0  0  0  0  0  0  0999 V2000
  127.5040  137.8880   59.8370 C   0  0  0  0  0  0  0  0  0  0  0  0
  126.7460  137.3790   61.0670 C   0  0  0  0  0  0  0  0  0  0  0  0
  126.8220  135.9610   61.1150 O   0  0  0  0  0  0  0  0  0  0  0  0
  125.8230  135.1860   60.6190 C   0  0  0  0  0  0  0  0  0  0  0  0
  124.7430  135.6390   60.2270 O   0  0  0  0  0  0  0  0  0  0  0  0
  126.1630  133.7240   60.5950 C   0  0  0  0  0  0  0  0  0  0  0  0
  125.1260  132.7820   60.5950 C   0  0  0  0  0  0  0  0  0  0  0  0
  125.4080  131.4190   60.5720 C   0  0  0  0  0  0  0  0  0  0  0  0
  126.7290  130.9690   60.5510 C   0  0  0  0  0  0  0  0  0  0  0  0
  126.8930  129.5710   60.5290 N   0  0  0  0  0  0  0  0  0  0  0  0
  126.2250  128.6180   59.8330 C   0  0  0  0  0  0  0  0  0  0  0  0
  125.3020  128.8490   59.0520 O   0  0  0  0  0  0  0  0  0  0  0  0
  126.6760  127.2430   60.0650 C   0  0  0  0  0  0  0  0  0  0  0  0
  127.4970  126.8150   61.5690 S   0  0  0  0  0  0  0  0  0  0  0  0
  127.6660  125.1510   61.0590 C   0  0  0  0  0  0  0  0  0  0  0  0
  128.2590  124.2350   61.8270 N   0  0  0  0  0  0  0  0  0  0  0  0
  128.3260  122.9820   61.3150 C   0  0  0  0  0  0  0  0  0  0  0  0
  129.0030  121.9560   62.2050 C   0  0  0  0  0  0  0  0  0  0  0  0
  127.8210  122.6260   60.0670 C   0  0  0  0  0  0  0  0  0  0  0  0
  127.2010  123.5900   59.2640 C   0  0  0  0  0  0  0  0  0  0  0  0
  126.6690  123.1970   57.9400 C   0  0  0  0  0  0  0  0  0  0  0  0
  127.5430  122.9480   56.8770 C   0  0  0  0  0  0  0  0  0  0  0  0
  127.0430  122.5760   55.6310 C   0  0  0  0  0  0  0  0  0  0  0  0
  125.6680  122.4560   55.4480 C   0  0  0  0  0  0  0  0  0  0  0  0
  124.7880  122.7060   56.4990 C   0  0  0  0  0  0  0  0  0  0  0  0
  125.2890  123.0780   57.7430 C   0  0  0  0  0  0  0  0  0  0  0  0
  127.1100  124.9180   59.7650 C   0  0  0  0  0  0  0  0  0  0  0  0
  126.5510  126.1290   59.2210 C   0  0  0  0  0  0  0  0  0  0  0  0
  125.9550  126.1690   57.9870 N   0  0  0  0  0  0  0  0  0  0  0  0
  127.7740  131.9060   60.5510 C   0  0  0  0  0  0  0  0  0  0  0  0
  127.4900  133.2690   60.5730 C   0  0  0  0  0  0  0  0  0  0  0  0
  128.3768  138.4741   60.1607 H   0  0  0  0  0  0  0  0  0  0  0  0
  127.8405  137.0321   59.2335 H   0  0  0  0  0  0  0  0  0  0  0  0
  126.8391  138.5234   59.2335 H   0  0  0  0  0  0  0  0  0  0  0  0
  127.1971  137.8017   61.9769 H   0  0  0  0  0  0  0  0  0  0  0  0
  125.6924  137.6885   61.0032 H   0  0  0  0  0  0  0  0  0  0  0  0
  124.0801  133.1223   60.6133 H   0  0  0  0  0  0  0  0  0  0  0  0
  124.5834  130.6910   60.5704 H   0  0  0  0  0  0  0  0  0  0  0  0
  127.6290  129.2360   61.1340 H   0  0  0  0  0  0  0  0  0  0  0  0
  128.8316  122.2158   63.2601 H   0  0  0  0  0  0  0  0  0  0  0  0
  128.5844  120.9596   62.0000 H   0  0  0  0  0  0  0  0  0  0  0  0
  130.0837  121.9489   62.0000 H   0  0  0  0  0  0  0  0  0  0  0  0
  127.9093  121.5883   59.7128 H   0  0  0  0  0  0  0  0  0  0  0  0
  128.6285  123.0462   57.0252 H   0  0  0  0  0  0  0  0  0  0  0  0
  127.7311  122.3781   54.7959 H   0  0  0  0  0  0  0  0  0  0  0  0
  125.2728  122.1611   54.4647 H   0  0  0  0  0  0  0  0  0  0  0  0
  123.7029  122.6098   56.3463 H   0  0  0  0  0  0  0  0  0  0  0  0
  124.5974  123.2792   58.5744 H   0  0  0  0  0  0  0  0  0  0  0  0
  125.4150  126.9670   57.6810 H   0  0  0  0  0  0  0  0  0  0  0  0
  126.0350  125.3980   57.3380 H   0  0  0  0  0  0  0  0  0  0  0  0
  128.8190  131.5631   60.5336 H   0  0  0  0  0  0  0  0  0  0  0  0
  128.3148  133.9968   60.5731 H   0  0  0  0  0  0  0  0  0  0  0  0
  1  2  1  0
  2  3  1  0
  3  4  1  0
  4  5  2  0
  4  6  1  0
  6  7  2  0
  7  8  1  0
  8  9  2  0
  9 10  1  0
 10 11  1  0
 11 12  2  0
 11 13  1  0
 13 14  1  0
 14 15  1  0
 15 16  2  0
 16 17  1  0
 17 18  1  0
 17 19  2  0
 19 20  1  0
 20 21  1  0
 21 22  2  0
 22 23  1  0
 23 24  2  0
 24 25  1  0
 25 26  2  0
 20 27  2  0
 27 28  1  0
 28 29  1  0
  9 30  1  0
 30 31  2  0
 31  6  1  0
 28 13  2  0
 27 15  1  0
 26 21  1  0
  1 32  1  0
  1 33  1  0
  1 34  1  0
  2 35  1  0
  2 36  1  0
  7 37  1  0
  8 38  1  0
 10 39  1  0
 18 40  1  0
 18 41  1  0
 18 42  1  0
 19 43  1  0
 22 44  1  0
 23 45  1  0
 24 46  1  0
 25 47  1  0
 26 48  1  0
 29 49  1  0
 29 50  1  0
 30 51  1  0
 31 52  1  0
M  END
>  <Binding energies>  (1) 
[-7.9]

>  <Ligand effiencies>  (1) 
[-0.2323529411764706]

>  <Interactions>  (1) 
["V-B:MET:535:CE:9807, V-B:LEU:475:CD2:9231, V-B:TYR:539:CE2:9848, V-B:TYR:539:CZ:9849, V-A:TYR:539:CE1:4875, V-B:TYR:539:CD2:9846, H-B:TYR:531:OH:9767, V-B:TYR:539:CD1:9845, V-B:TYR:539:CG:9844, H-B:ASP:366:OD2:8187, V-B:TYR:539:CE1:9847, V-B:TYR:539:C:9839, V-A:TYR:484:CE1:4345, V-B:ASP:366:CG:8185, V-B:PRO:540:CB:9857, V-B:PRO:540:CA:9855, V-B:ASP:366:CB:8184, V-B:PRO:540:N:9856, V-A:TYR:539:CD1:4873, V-A:TYR:539:C:4867, V-B:LEU:363:CD1:8161, V-B:TYR:531:CZ:9766, V-B:TYR:531:CE2:9765, V-B:ILE:538:CA:9832, V-B:ILE:538:CD1:9837, V-B:PRO:540:CD:9859, V-B:ALA:541:CB:9864, V-B:ILE:538:CG2:9835, V-B:ILE:538:C:9830, V-A:TYR:539:CB:4871, V-B:PRO:482:CB:9298, V-B:PRO:482:CG:9299, V-B:ILE:538:CB:9834, V-A:VAL:344:CG1:3001, H-B:SER:385:OG:8382"]

$$$$
4eb_Grossjean_2025
     RDKit          3D

 49 52  0  0  0  0  0  0  0  0999 V2000
  127.1130  137.2380   60.4930 C   0  0  0  0  0  0  0  0  0  0  0  0
  126.8010  135.9890   61.0920 O   0  0  0  0  0  0  0  0  0  0  0  0
  125.7970  135.2130   60.6070 C   0  0  0  0  0  0  0  0  0  0  0  0
  124.7170  135.6640   60.2160 O   0  0  0  0  0  0  0  0  0  0  0  0
  126.1340  133.7490   60.5930 C   0  0  0  0  0  0  0  0  0  0  0  0
  125.0950  132.8100   60.5390 C   0  0  0  0  0  0  0  0  0  0  0  0
  125.3740  131.4460   60.5260 C   0  0  0  0  0  0  0  0  0  0  0  0
  126.6940  130.9930   60.5660 C   0  0  0  0  0  0  0  0  0  0  0  0
  126.8560  129.5940   60.5470 N   0  0  0  0  0  0  0  0  0  0  0  0
  126.1880  128.6420   59.8510 C   0  0  0  0  0  0  0  0  0  0  0  0
  125.2660  128.8730   59.0680 O   0  0  0  0  0  0  0  0  0  0  0  0
  126.6350  127.2670   60.0850 C   0  0  0  0  0  0  0  0  0  0  0  0
  127.4440  126.8370   61.5940 S   0  0  0  0  0  0  0  0  0  0  0  0
  127.6150  125.1720   61.0840 C   0  0  0  0  0  0  0  0  0  0  0  0
  128.2000  124.2550   61.8560 N   0  0  0  0  0  0  0  0  0  0  0  0
  128.2700  123.0030   61.3450 C   0  0  0  0  0  0  0  0  0  0  0  0
  128.9400  121.9750   62.2400 C   0  0  0  0  0  0  0  0  0  0  0  0
  127.7740  122.6480   60.0930 C   0  0  0  0  0  0  0  0  0  0  0  0
  127.1610  123.6130   59.2860 C   0  0  0  0  0  0  0  0  0  0  0  0
  126.6390  123.2210   57.9570 C   0  0  0  0  0  0  0  0  0  0  0  0
  127.5210  122.9540   56.9060 C   0  0  0  0  0  0  0  0  0  0  0  0
  127.0310  122.5830   55.6560 C   0  0  0  0  0  0  0  0  0  0  0  0
  125.6560  122.4830   55.4570 C   0  0  0  0  0  0  0  0  0  0  0  0
  124.7680  122.7500   56.4970 C   0  0  0  0  0  0  0  0  0  0  0  0
  125.2600  123.1210   57.7460 C   0  0  0  0  0  0  0  0  0  0  0  0
  127.0680  124.9400   59.7870 C   0  0  0  0  0  0  0  0  0  0  0  0
  126.5160  126.1520   59.2400 C   0  0  0  0  0  0  0  0  0  0  0  0
  125.9280  126.1950   58.0010 N   0  0  0  0  0  0  0  0  0  0  0  0
  127.7400  131.9260   60.6200 C   0  0  0  0  0  0  0  0  0  0  0  0
  127.4590  133.2900   60.6330 C   0  0  0  0  0  0  0  0  0  0  0  0
  127.2996  137.9850   61.2786 H   0  0  0  0  0  0  0  0  0  0  0  0
  128.0119  137.1306   59.8682 H   0  0  0  0  0  0  0  0  0  0  0  0
  126.2692  137.5660   59.8682 H   0  0  0  0  0  0  0  0  0  0  0  0
  124.0505  133.1535   60.5066 H   0  0  0  0  0  0  0  0  0  0  0  0
  124.5486  130.7201   60.4839 H   0  0  0  0  0  0  0  0  0  0  0  0
  127.5890  129.2590   61.1530 H   0  0  0  0  0  0  0  0  0  0  0  0
  128.7681  122.2388   63.2940 H   0  0  0  0  0  0  0  0  0  0  0  0
  128.5162  120.9804   62.0371 H   0  0  0  0  0  0  0  0  0  0  0  0
  130.0210  121.9612   62.0371 H   0  0  0  0  0  0  0  0  0  0  0  0
  127.8640  121.6104   59.7389 H   0  0  0  0  0  0  0  0  0  0  0  0
  128.6060  123.0372   57.0666 H   0  0  0  0  0  0  0  0  0  0  0  0
  127.7261  122.3701   54.8305 H   0  0  0  0  0  0  0  0  0  0  0  0
  125.2678  122.1907   54.4702 H   0  0  0  0  0  0  0  0  0  0  0  0
  123.6835  122.6682   56.3323 H   0  0  0  0  0  0  0  0  0  0  0  0
  124.5622  123.3359   58.5687 H   0  0  0  0  0  0  0  0  0  0  0  0
  126.0110  125.4290   57.3480 H   0  0  0  0  0  0  0  0  0  0  0  0
  125.3910  126.9970   57.7000 H   0  0  0  0  0  0  0  0  0  0  0  0
  128.7836  131.5799   60.6521 H   0  0  0  0  0  0  0  0  0  0  0  0
  128.2850  134.0153   60.6751 H   0  0  0  0  0  0  0  0  0  0  0  0
  1  2  1  0
  2  3  1  0
  3  4  2  0
  3  5  1  0
  5  6  2  0
  6  7  1  0
  7  8  2  0
  8  9  1  0
  9 10  1  0
 10 11  2  0
 10 12  1  0
 12 13  1  0
 13 14  1  0
 14 15  2  0
 15 16  1  0
 16 17  1  0
 16 18  2  0
 18 19  1  0
 19 20  1  0
 20 21  2  0
 21 22  1  0
 22 23  2  0
 23 24  1  0
 24 25  2  0
 19 26  2  0
 26 27  1  0
 27 28  1  0
  8 29  1  0
 29 30  2  0
 30  5  1  0
 27 12  2  0
 26 14  1  0
 25 20  1  0
  1 31  1  0
  1 32  1  0
  1 33  1  0
  6 34  1  0
  7 35  1  0
  9 36  1  0
 17 37  1  0
 17 38  1  0
 17 39  1  0
 18 40  1  0
 21 41  1  0
 22 42  1  0
 23 43  1  0
 24 44  1  0
 25 45  1  0
 28 46  1  0
 28 47  1  0
 29 48  1  0
 30 49  1  0
M  END
>  <Binding energies>  (1) 
[-7.56]

>  <Ligand effiencies>  (1) 
[-0.22909090909090907]

>  <Interactions>  (1) 
["V-B:MET:535:CE:9807, V-B:LEU:475:CD2:9231, V-B:TYR:539:CE2:9848, V-B:TYR:539:CZ:9849, V-A:TYR:539:CE1:4875, V-B:TYR:539:CD2:9846, H-B:TYR:531:OH:9767, V-B:TYR:539:CD1:9845, V-B:TYR:539:CG:9844, H-B:ASP:366:OD2:8187, V-B:TYR:539:CE1:9847, V-B:TYR:539:C:9839, V-A:TYR:484:CE1:4345, V-B:ASP:366:CG:8185, V-B:PRO:540:CB:9857, V-B:PRO:540:CA:9855, V-B:ASP:366:CB:8184, V-B:PRO:540:N:9856, V-A:TYR:539:CD1:4873, V-B:LEU:363:CD1:8161, V-B:TYR:531:CZ:9766, V-B:TYR:531:CE2:9765, V-B:ILE:538:CA:9832, V-B:ILE:538:CD1:9837, V-B:PRO:540:CD:9859, V-B:ALA:541:CB:9864, V-B:ILE:538:CG2:9835, V-B:ILE:538:C:9830, V-B:PRO:482:CB:9298, V-B:PRO:482:CG:9299, V-B:ILE:538:CB:9834, H-B:SER:385:OG:8382"]

$$$$
8a_Ghoteimi_2023
     RDKit          3D

 67 71  0  0  0  0  0  0  0  0999 V2000
  130.6100  116.9890   60.1030 C   0  0  0  0  0  0  0  0  0  0  0  0
  131.5910  118.0530   59.6030 C   0  0  0  0  0  0  0  0  0  0  0  0
  131.3800  119.2640   60.3170 O   0  0  0  0  0  0  0  0  0  0  0  0
  132.2760  120.2840   60.2480 C   0  0  0  0  0  0  0  0  0  0  0  0
  133.4790  120.1180   60.0240 O   0  0  0  0  0  0  0  0  0  0  0  0
  131.6580  121.6330   60.4770 C   0  0  0  0  0  0  0  0  0  0  0  0
  132.2790  122.7690   59.9430 C   0  0  0  0  0  0  0  0  0  0  0  0
  131.7310  124.0330   60.1380 C   0  0  0  0  0  0  0  0  0  0  0  0
  130.5540  124.1910   60.8720 C   0  0  0  0  0  0  0  0  0  0  0  0
  130.0960  125.5160   61.0090 N   0  0  0  0  0  0  0  0  0  0  0  0
  130.5950  126.6720   60.5060 C   0  0  0  0  0  0  0  0  0  0  0  0
  131.6030  126.7450   59.8030 O   0  0  0  0  0  0  0  0  0  0  0  0
  129.8400  127.8800   60.8520 C   0  0  0  0  0  0  0  0  0  0  0  0
  129.8560  129.2790   59.7780 S   0  0  0  0  0  0  0  0  0  0  0  0
  128.8160  130.1790   60.8580 C   0  0  0  0  0  0  0  0  0  0  0  0
  128.4470  131.4320   60.5920 N   0  0  0  0  0  0  0  0  0  0  0  0
  127.6410  132.0430   61.5010 C   0  0  0  0  0  0  0  0  0  0  0  0
  127.2560  133.4540   61.1930 C   0  0  0  0  0  0  0  0  0  0  0  0
  128.1630  134.5080   61.3770 C   0  0  0  0  0  0  0  0  0  0  0  0
  127.7950  135.8210   61.0990 C   0  0  0  0  0  0  0  0  0  0  0  0
  126.5160  136.1150   60.6300 C   0  0  0  0  0  0  0  0  0  0  0  0
  126.2390  137.4470   60.3840 O   0  0  0  0  0  0  0  0  0  0  0  0
  127.1250  138.1980   59.5610 C   0  0  0  0  0  0  0  0  0  0  0  0
  125.6040  135.0680   60.4370 C   0  0  0  0  0  0  0  0  0  0  0  0
  125.9740  133.7550   60.7180 C   0  0  0  0  0  0  0  0  0  0  0  0
  127.2020  131.4000   62.6610 C   0  0  0  0  0  0  0  0  0  0  0  0
  127.5740  130.0800   62.9350 C   0  0  0  0  0  0  0  0  0  0  0  0
  127.0530  129.4330   64.1670 C   0  0  0  0  0  0  0  0  0  0  0  0
  127.9220  129.1080   65.2110 C   0  0  0  0  0  0  0  0  0  0  0  0
  127.4350  128.5210   66.3750 C   0  0  0  0  0  0  0  0  0  0  0  0
  126.0730  128.2540   66.5190 C   0  0  0  0  0  0  0  0  0  0  0  0
  125.6810  127.6710   67.7090 O   0  0  0  0  0  0  0  0  0  0  0  0
  126.4750  126.6300   68.2660 C   0  0  0  0  0  0  0  0  0  0  0  0
  125.1970  128.5870   65.4740 C   0  0  0  0  0  0  0  0  0  0  0  0
  125.6870  129.1760   64.3110 C   0  0  0  0  0  0  0  0  0  0  0  0
  128.4360  129.4270   62.0090 C   0  0  0  0  0  0  0  0  0  0  0  0
  129.0510  128.1230   61.9880 C   0  0  0  0  0  0  0  0  0  0  0  0
  128.8870  127.2140   63.0030 N   0  0  0  0  0  0  0  0  0  0  0  0
  129.9220  123.0580   61.4070 C   0  0  0  0  0  0  0  0  0  0  0  0
  130.4720  121.7930   61.2100 C   0  0  0  0  0  0  0  0  0  0  0  0
  130.6046  116.9832   61.2030 H   0  0  0  0  0  0  0  0  0  0  0  0
  129.6000  117.2185   59.7326 H   0  0  0  0  0  0  0  0  0  0  0  0
  130.9206  116.0009   59.7326 H   0  0  0  0  0  0  0  0  0  0  0  0
  132.6222  117.7064   59.7654 H   0  0  0  0  0  0  0  0  0  0  0  0
  131.4278  118.2269   58.5292 H   0  0  0  0  0  0  0  0  0  0  0  0
  133.2082  122.6610   59.3643 H   0  0  0  0  0  0  0  0  0  0  0  0
  132.2294  124.9153   59.7102 H   0  0  0  0  0  0  0  0  0  0  0  0
  129.2570  125.6050   61.5620 H   0  0  0  0  0  0  0  0  0  0  0  0
  129.1772  134.2942   61.7454 H   0  0  0  0  0  0  0  0  0  0  0  0
  128.5202  136.6341   61.2508 H   0  0  0  0  0  0  0  0  0  0  0  0
  127.8106  138.7791   60.1952 H   0  0  0  0  0  0  0  0  0  0  0  0
  127.7053  137.5125   58.9259 H   0  0  0  0  0  0  0  0  0  0  0  0
  126.5438  138.8827   58.9259 H   0  0  0  0  0  0  0  0  0  0  0  0
  124.5926  135.2842   60.0623 H   0  0  0  0  0  0  0  0  0  0  0  0
  125.2483  132.9427   60.5645 H   0  0  0  0  0  0  0  0  0  0  0  0
  126.5550  131.9393   63.3685 H   0  0  0  0  0  0  0  0  0  0  0  0
  128.9974  129.3172   65.1126 H   0  0  0  0  0  0  0  0  0  0  0  0
  128.1298  128.2653   67.1886 H   0  0  0  0  0  0  0  0  0  0  0  0
  126.4334  126.6845   69.3639 H   0  0  0  0  0  0  0  0  0  0  0  0
  126.0886  125.6556   67.9324 H   0  0  0  0  0  0  0  0  0  0  0  0
  127.5169  126.7450   67.9324 H   0  0  0  0  0  0  0  0  0  0  0  0
  124.1209  128.3822   65.5739 H   0  0  0  0  0  0  0  0  0  0  0  0
  124.9933  129.4410   63.4994 H   0  0  0  0  0  0  0  0  0  0  0  0
  129.6660  126.6800   63.3620 H   0  0  0  0  0  0  0  0  0  0  0  0
  127.9870  127.0510   63.4300 H   0  0  0  0  0  0  0  0  0  0  0  0
  128.9912  123.1687   61.9826 H   0  0  0  0  0  0  0  0  0  0  0  0
  129.9711  120.9101   61.6337 H   0  0  0  0  0  0  0  0  0  0  0  0
  1  2  1  0
  2  3  1  0
  3  4  1  0
  4  5  2  0
  4  6  1  0
  6  7  2  0
  7  8  1  0
  8  9  2  0
  9 10  1  0
 10 11  1  0
 11 12  2  0
 11 13  1  0
 13 14  1  0
 14 15  1  0
 15 16  2  0
 16 17  1  0
 17 18  1  0
 18 19  2  0
 19 20  1  0
 20 21  2  0
 21 22  1  0
 22 23  1  0
 21 24  1  0
 24 25  2  0
 17 26  2  0
 26 27  1  0
 27 28  1  0
 28 29  2  0
 29 30  1  0
 30 31  2  0
 31 32  1  0
 32 33  1  0
 31 34  1  0
 34 35  2  0
 27 36  2  0
 36 37  1  0
 37 38  1  0
  9 39  1  0
 39 40  2  0
 40  6  1  0
 37 13  2  0
 36 15  1  0
 25 18  1  0
 35 28  1  0
  1 41  1  0
  1 42  1  0
  1 43  1  0
  2 44  1  0
  2 45  1  0
  7 46  1  0
  8 47  1  0
 10 48  1  0
 19 49  1  0
 20 50  1  0
 23 51  1  0
 23 52  1  0
 23 53  1  0
 24 54  1  0
 25 55  1  0
 26 56  1  0
 29 57  1  0
 30 58  1  0
 33 59  1  0
 33 60  1  0
 33 61  1  0
 34 62  1  0
 35 63  1  0
 38 64  1  0
 38 65  1  0
 39 66  1  0
 40 67  1  0
M  END
>  <Binding energies>  (1) 
[-7.32]

>  <Ligand effiencies>  (1) 
[-0.1702325581395349]

>  <Interactions>  (1) 
["V-A:ALA:541:CB:4892, V-B:LEU:475:CD2:9231, V-B:TYR:539:CE2:9848, V-A:GLU:543:CD:4908, V-A:GLU:543:CG:4907, V-A:TYR:539:CE1:4875, V-B:ARG:545:CZ:9898, V-A:ILE:369:CG2:3237, V-B:TYR:539:CD2:9846, V-A:LEU:475:CD2:4259, V-B:TYR:539:CG:9844, V-A:TYR:539:CD1:4873, V-A:TYR:539:C:4867, V-A:PRO:540:C:4881, H-B:GLU:543:OE2:9882, V-B:GLU:543:CD:9880, H-B:GLU:543:OE1:9881, H-A:GLU:543:OE1:4909, V-B:GLU:543:CG:9879, H-A:GLU:543:OE2:4910, V-B:TYR:539:CB:9843, V-B:ARG:545:CD:9895, H-B:ARG:545:NE:9896, V-B:ARG:545:CG:9894, H-B:HIS:456:ND1:9039, V-B:HIS:456:CE1:9042, V-A:ALA:541:CA:4890, V-B:HIS:383:CD2:8364, V-A:TYR:539:CB:4871, V-A:SER:385:CB:3409, V-B:PRO:482:CB:9298, V-B:PRO:482:CG:9299, V-A:GLU:543:CB:4906, V-A:VAL:344:CG1:3001, H-B:SER:385:OG:8382, V-A:PRO:482:CB:4326, V-A:PRO:482:CG:4327, H-B:HIS:383:NE2:8366, V-B:GLU:543:CB:9878, V-B:ARG:545:CA:9891"]

$$$$
8b_Ghoteimi_2023
     RDKit          3D

 54 58  0  0  0  0  0  0  0  0999 V2000
  127.1290  137.9600   59.9820 C   0  0  0  0  0  0  0  0  0  0  0  0
  125.9050  137.2570   60.1670 O   0  0  0  0  0  0  0  0  0  0  0  0
  125.9370  135.8890   60.3630 C   0  0  0  0  0  0  0  0  0  0  0  0
  127.1690  135.3380   60.7090 C   0  0  0  0  0  0  0  0  0  0  0  0
  127.2970  133.9700   60.9250 C   0  0  0  0  0  0  0  0  0  0  0  0
  126.1920  133.1140   60.7990 C   0  0  0  0  0  0  0  0  0  0  0  0
  126.3240  131.6420   61.0280 C   0  0  0  0  0  0  0  0  0  0  0  0
  126.4180  131.1020   62.3150 C   0  0  0  0  0  0  0  0  0  0  0  0
  126.5400  129.7220   62.5020 C   0  0  0  0  0  0  0  0  0  0  0  0
  126.6480  129.1830   63.8780 C   0  0  0  0  0  0  0  0  0  0  0  0
  125.4990  128.8180   64.5820 C   0  0  0  0  0  0  0  0  0  0  0  0
  125.6030  128.3030   65.8710 C   0  0  0  0  0  0  0  0  0  0  0  0
  126.8510  128.1470   66.4750 C   0  0  0  0  0  0  0  0  0  0  0  0
  126.8570  127.6270   67.7550 O   0  0  0  0  0  0  0  0  0  0  0  0
  128.0290  126.9740   68.2340 C   0  0  0  0  0  0  0  0  0  0  0  0
  128.0040  128.5190   65.7660 C   0  0  0  0  0  0  0  0  0  0  0  0
  127.8990  129.0330   64.4770 C   0  0  0  0  0  0  0  0  0  0  0  0
  126.5570  128.8900   61.3510 C   0  0  0  0  0  0  0  0  0  0  0  0
  126.6610  127.4640   61.1770 C   0  0  0  0  0  0  0  0  0  0  0  0
  126.7710  126.6020   62.2380 N   0  0  0  0  0  0  0  0  0  0  0  0
  126.6360  127.0520   59.8360 C   0  0  0  0  0  0  0  0  0  0  0  0
  126.7150  125.6910   59.3000 C   0  0  0  0  0  0  0  0  0  0  0  0
  127.6460  124.9450   59.6110 O   0  0  0  0  0  0  0  0  0  0  0  0
  125.7100  125.3380   58.4590 N   0  0  0  0  0  0  0  0  0  0  0  0
  125.5340  124.1210   57.8150 C   0  0  0  0  0  0  0  0  0  0  0  0
  124.2830  123.6220   57.4580 C   0  0  0  0  0  0  0  0  0  0  0  0
  124.5380  122.4100   56.8580 C   0  0  0  0  0  0  0  0  0  0  0  0
  125.8740  122.1920   56.8500 O   0  0  0  0  0  0  0  0  0  0  0  0
  126.4960  123.2840   57.4580 N   0  0  0  0  0  0  0  0  0  0  0  0
  126.4800  128.4310   58.7480 S   0  0  0  0  0  0  0  0  0  0  0  0
  126.4490  129.5480   60.0920 C   0  0  0  0  0  0  0  0  0  0  0  0
  126.3360  130.8640   59.9130 N   0  0  0  0  0  0  0  0  0  0  0  0
  124.9560  133.6750   60.4530 C   0  0  0  0  0  0  0  0  0  0  0  0
  124.8250  135.0440   60.2360 C   0  0  0  0  0  0  0  0  0  0  0  0
  127.5611  138.2082   60.9626 H   0  0  0  0  0  0  0  0  0  0  0  0
  127.8331  137.3287   59.4202 H   0  0  0  0  0  0  0  0  0  0  0  0
  126.9385  138.8863   59.4202 H   0  0  0  0  0  0  0  0  0  0  0  0
  128.0483  135.9908   60.8123 H   0  0  0  0  0  0  0  0  0  0  0  0
  128.2777  133.5533   61.1983 H   0  0  0  0  0  0  0  0  0  0  0  0
  126.3957  131.7700   63.1887 H   0  0  0  0  0  0  0  0  0  0  0  0
  124.5093  128.9377   64.1170 H   0  0  0  0  0  0  0  0  0  0  0  0
  124.6930  128.0164   66.4184 H   0  0  0  0  0  0  0  0  0  0  0  0
  128.0260  126.9757   69.3340 H   0  0  0  0  0  0  0  0  0  0  0  0
  128.0458  125.9365   67.8689 H   0  0  0  0  0  0  0  0  0  0  0  0
  128.9201  127.5056   67.8689 H   0  0  0  0  0  0  0  0  0  0  0  0
  128.9942  128.4038   66.2310 H   0  0  0  0  0  0  0  0  0  0  0  0
  128.8070  129.3225   63.9277 H   0  0  0  0  0  0  0  0  0  0  0  0
  126.6950  126.9290   63.1920 H   0  0  0  0  0  0  0  0  0  0  0  0
  126.9350  125.6140   62.1050 H   0  0  0  0  0  0  0  0  0  0  0  0
  125.0010  126.0320   58.2760 H   0  0  0  0  0  0  0  0  0  0  0  0
  123.3032  124.0947   57.6206 H   0  0  0  0  0  0  0  0  0  0  0  0
  123.7778  121.7276   56.4502 H   0  0  0  0  0  0  0  0  0  0  0  0
  124.0753  133.0239   60.3512 H   0  0  0  0  0  0  0  0  0  0  0  0
  123.8456  135.4644   59.9639 H   0  0  0  0  0  0  0  0  0  0  0  0
  1  2  1  0
  2  3  1  0
  3  4  2  0
  4  5  1  0
  5  6  2  0
  6  7  1  0
  7  8  2  0
  8  9  1  0
  9 10  1  0
 10 11  2  0
 11 12  1  0
 12 13  2  0
 13 14  1  0
 14 15  1  0
 13 16  1  0
 16 17  2  0
  9 18  2  0
 18 19  1  0
 19 20  1  0
 19 21  2  0
 21 22  1  0
 22 23  2  0
 22 24  1  0
 24 25  1  0
 25 26  1  0
 26 27  2  0
 27 28  1  0
 28 29  1  0
 21 30  1  0
 30 31  1  0
 31 32  2  0
  6 33  1  0
 33 34  2  0
 34  3  1  0
 32  7  1  0
 17 10  1  0
 31 18  1  0
 29 25  2  0
  1 35  1  0
  1 36  1  0
  1 37  1  0
  4 38  1  0
  5 39  1  0
  8 40  1  0
 11 41  1  0
 12 42  1  0
 15 43  1  0
 15 44  1  0
 15 45  1  0
 16 46  1  0
 17 47  1  0
 20 48  1  0
 20 49  1  0
 24 50  1  0
 26 51  1  0
 27 52  1  0
 33 53  1  0
 34 54  1  0
M  END
>  <Binding energies>  (1) 
[-8.2]

>  <Ligand effiencies>  (1) 
[-0.2216216216216216]

>  <Interactions>  (1) 
["V-A:ALA:541:CB:4892, V-B:ILE:369:CG2:8209, V-B:LEU:475:CD2:9231, V-A:GLU:543:CD:4908, V-A:GLU:543:CG:4907, V-A:TYR:539:CE1:4875, V-B:ARG:545:CZ:9898, H-B:TYR:531:OH:9767, H-B:ASP:366:OD2:8187, V-B:ASP:366:CG:8185, H-B:TYR:539:N:9842, V-B:PRO:540:CB:9857, V-B:PRO:540:CA:9855, V-B:PRO:540:N:9856, V-A:TYR:539:CD1:4873, V-A:TYR:539:C:4867, V-B:LEU:363:CD1:8161, H-B:GLU:543:OE2:9882, V-B:TYR:531:CZ:9766, V-B:TYR:531:CE2:9765, V-B:GLU:543:CD:9880, H-B:GLU:543:OE1:9881, V-B:PRO:540:CG:9858, V-B:PRO:540:CD:9859, V-B:ILE:538:CG2:9835, V-B:ARG:545:CD:9895, V-B:ARG:545:CG:9894, H-B:HIS:456:ND1:9039, V-B:HIS:456:CE1:9042, V-B:HIS:383:CD2:8364, V-A:TYR:539:CB:4871, V-B:PRO:482:CB:9298, V-B:PRO:482:CG:9299, V-A:GLU:543:CB:4906, V-A:VAL:344:CG1:3001, H-B:SER:385:OG:8382, H-B:HIS:383:NE2:8366, V-A:HIS:456:CE1:4070, V-B:GLU:543:CB:9878"]

$$$$
8c_Ghoteimi_2023
     RDKit          3D

 54 58  0  0  0  0  0  0  0  0999 V2000
  127.1530  138.0010   59.8450 C   0  0  0  0  0  0  0  0  0  0  0  0
  125.9740  137.3470   60.2990 O   0  0  0  0  0  0  0  0  0  0  0  0
  125.9910  135.9770   60.4860 C   0  0  0  0  0  0  0  0  0  0  0  0
  127.1880  135.4260   60.9380 C   0  0  0  0  0  0  0  0  0  0  0  0
  127.2990  134.0550   61.1510 C   0  0  0  0  0  0  0  0  0  0  0  0
  126.2130  133.1990   60.9170 C   0  0  0  0  0  0  0  0  0  0  0  0
  126.3270  131.7240   61.1400 C   0  0  0  0  0  0  0  0  0  0  0  0
  126.5030  131.1830   62.4170 C   0  0  0  0  0  0  0  0  0  0  0  0
  126.6040  129.8000   62.5990 C   0  0  0  0  0  0  0  0  0  0  0  0
  126.7990  129.2600   63.9640 C   0  0  0  0  0  0  0  0  0  0  0  0
  125.7190  128.7220   64.6680 C   0  0  0  0  0  0  0  0  0  0  0  0
  125.9060  128.2060   65.9470 C   0  0  0  0  0  0  0  0  0  0  0  0
  127.1680  128.2220   66.5420 C   0  0  0  0  0  0  0  0  0  0  0  0
  127.2590  127.6860   67.8120 O   0  0  0  0  0  0  0  0  0  0  0  0
  128.4550  127.0200   68.2000 C   0  0  0  0  0  0  0  0  0  0  0  0
  128.2510  128.7670   65.8340 C   0  0  0  0  0  0  0  0  0  0  0  0
  128.0630  129.2820   64.5540 C   0  0  0  0  0  0  0  0  0  0  0  0
  126.5160  128.9670   61.4520 C   0  0  0  0  0  0  0  0  0  0  0  0
  126.5750  127.5400   61.2750 C   0  0  0  0  0  0  0  0  0  0  0  0
  126.7440  126.6750   62.3270 N   0  0  0  0  0  0  0  0  0  0  0  0
  126.4430  127.1260   59.9400 C   0  0  0  0  0  0  0  0  0  0  0  0
  126.4510  125.7640   59.4020 C   0  0  0  0  0  0  0  0  0  0  0  0
  127.1720  124.8960   59.8970 O   0  0  0  0  0  0  0  0  0  0  0  0
  125.6260  125.5500   58.3470 N   0  0  0  0  0  0  0  0  0  0  0  0
  125.4440  124.3600   57.6580 C   0  0  0  0  0  0  0  0  0  0  0  0
  124.3740  123.5940   57.6370 N   0  0  0  0  0  0  0  0  0  0  0  0
  124.5510  122.5360   56.8720 C   0  0  0  0  0  0  0  0  0  0  0  0
  125.7900  122.4250   56.2490 C   0  0  0  0  0  0  0  0  0  0  0  0
  126.7720  123.7880   56.7000 S   0  0  0  0  0  0  0  0  0  0  0  0
  126.2370  128.5080   58.8620 S   0  0  0  0  0  0  0  0  0  0  0  0
  126.3320  129.6270   60.2020 C   0  0  0  0  0  0  0  0  0  0  0  0
  126.2370  130.9450   60.0280 N   0  0  0  0  0  0  0  0  0  0  0  0
  125.0120  133.7620   60.4640 C   0  0  0  0  0  0  0  0  0  0  0  0
  124.8980  135.1320   60.2490 C   0  0  0  0  0  0  0  0  0  0  0  0
  127.7463  138.3301   60.7109 H   0  0  0  0  0  0  0  0  0  0  0  0
  127.7478  137.3039   59.2366 H   0  0  0  0  0  0  0  0  0  0  0  0
  126.8765  138.8747   59.2366 H   0  0  0  0  0  0  0  0  0  0  0  0
  128.0522  136.0795   61.1281 H   0  0  0  0  0  0  0  0  0  0  0  0
  128.2519  133.6370   61.5079 H   0  0  0  0  0  0  0  0  0  0  0  0
  126.5627  131.8522   63.2880 H   0  0  0  0  0  0  0  0  0  0  0  0
  124.7187  128.7062   64.2106 H   0  0  0  0  0  0  0  0  0  0  0  0
  125.0511  127.7817   66.4938 H   0  0  0  0  0  0  0  0  0  0  0  0
  128.5161  126.9860   69.2978 H   0  0  0  0  0  0  0  0  0  0  0  0
  128.4498  125.9949   67.8011 H   0  0  0  0  0  0  0  0  0  0  0  0
  129.3237  127.5643   67.8011 H   0  0  0  0  0  0  0  0  0  0  0  0
  129.2510  128.7872   66.2918 H   0  0  0  0  0  0  0  0  0  0  0  0
  128.9156  129.7084   64.0052 H   0  0  0  0  0  0  0  0  0  0  0  0
  126.7070  126.9970   63.2840 H   0  0  0  0  0  0  0  0  0  0  0  0
  126.9130  125.6900   62.1820 H   0  0  0  0  0  0  0  0  0  0  0  0
  125.0780  126.3340   58.0220 H   0  0  0  0  0  0  0  0  0  0  0  0
  123.7624  121.7818   56.7335 H   0  0  0  0  0  0  0  0  0  0  0  0
  126.0984  121.6081   55.5800 H   0  0  0  0  0  0  0  0  0  0  0  0
  124.1459  133.1105   60.2755 H   0  0  0  0  0  0  0  0  0  0  0  0
  123.9468  135.5534   59.8918 H   0  0  0  0  0  0  0  0  0  0  0  0
  1  2  1  0
  2  3  1  0
  3  4  2  0
  4  5  1  0
  5  6  2  0
  6  7  1  0
  7  8  2  0
  8  9  1  0
  9 10  1  0
 10 11  2  0
 11 12  1  0
 12 13  2  0
 13 14  1  0
 14 15  1  0
 13 16  1  0
 16 17  2  0
  9 18  2  0
 18 19  1  0
 19 20  1  0
 19 21  2  0
 21 22  1  0
 22 23  2  0
 22 24  1  0
 24 25  1  0
 25 26  2  0
 26 27  1  0
 27 28  2  0
 28 29  1  0
 21 30  1  0
 30 31  1  0
 31 32  2  0
  6 33  1  0
 33 34  2  0
 34  3  1  0
 32  7  1  0
 17 10  1  0
 31 18  1  0
 29 25  1  0
  1 35  1  0
  1 36  1  0
  1 37  1  0
  4 38  1  0
  5 39  1  0
  8 40  1  0
 11 41  1  0
 12 42  1  0
 15 43  1  0
 15 44  1  0
 15 45  1  0
 16 46  1  0
 17 47  1  0
 20 48  1  0
 20 49  1  0
 24 50  1  0
 27 51  1  0
 28 52  1  0
 33 53  1  0
 34 54  1  0
M  END
>  <Binding energies>  (1) 
[-7.88]

>  <Ligand effiencies>  (1) 
[-0.21297297297297296]

>  <Interactions>  (1) 
["V-A:ALA:541:CB:4892, V-B:MET:535:CE:9807, V-B:ILE:369:CG2:8209, V-B:LEU:475:CD2:9231, V-A:GLU:543:CD:4908, V-A:GLU:543:CG:4907, V-A:TYR:539:CE1:4875, V-B:ARG:545:CZ:9898, H-B:TYR:531:OH:9767, H-B:ASP:366:OD2:8187, V-B:ASP:366:CG:8185, V-B:PRO:540:CB:9857, V-B:PRO:540:CA:9855, V-B:ASP:366:CB:8184, V-B:PRO:540:N:9856, V-A:TYR:539:CD1:4873, V-B:LEU:363:CD1:8161, H-B:GLU:543:OE2:9882, V-B:TYR:531:CZ:9766, V-B:GLU:543:CD:9880, H-B:GLU:543:OE1:9881, V-B:ILE:538:CA:9832, V-B:ILE:538:CD1:9837, V-B:PRO:540:CG:9858, V-B:PRO:540:CD:9859, V-B:ILE:538:CG2:9835, V-B:ARG:545:CD:9895, V-B:ARG:545:CG:9894, V-B:HIS:456:CE1:9042, V-B:HIS:383:CD2:8364, V-A:TYR:539:CB:4871, V-B:PRO:482:CG:9299, V-A:GLU:543:CB:4906, V-A:VAL:344:CG1:3001, H-B:SER:385:OG:8382, H-B:HIS:383:NE2:8366, V-A:HIS:456:CE1:4070, V-B:GLU:543:CB:9878"]

$$$$
8d_Ghoteimi_2023
     RDKit          3D

 50 53  0  0  0  0  0  0  0  0999 V2000
  127.2540  122.8610   55.2790 C   0  0  0  0  0  0  0  0  0  0  0  0
  126.2430  122.0950   55.9180 O   0  0  0  0  0  0  0  0  0  0  0  0
  125.5690  122.5880   56.9900 C   0  0  0  0  0  0  0  0  0  0  0  0
  124.3540  122.4640   57.1580 O   0  0  0  0  0  0  0  0  0  0  0  0
  126.4480  123.2980   57.9460 C   0  0  0  0  0  0  0  0  0  0  0  0
  127.8810  122.4930   58.5880 S   0  0  0  0  0  0  0  0  0  0  0  0
  128.2920  123.9000   59.5410 C   0  0  0  0  0  0  0  0  0  0  0  0
  129.3710  123.9290   60.3230 N   0  0  0  0  0  0  0  0  0  0  0  0
  129.5990  125.0740   61.0210 C   0  0  0  0  0  0  0  0  0  0  0  0
  130.8140  125.0790   61.8940 C   0  0  0  0  0  0  0  0  0  0  0  0
  130.7520  125.5310   63.2200 C   0  0  0  0  0  0  0  0  0  0  0  0
  131.8850  125.5340   64.0280 C   0  0  0  0  0  0  0  0  0  0  0  0
  133.1090  125.0860   63.5340 C   0  0  0  0  0  0  0  0  0  0  0  0
  134.1790  125.1240   64.4060 O   0  0  0  0  0  0  0  0  0  0  0  0
  133.9340  125.0740   65.8080 C   0  0  0  0  0  0  0  0  0  0  0  0
  133.1820  124.6290   62.2100 C   0  0  0  0  0  0  0  0  0  0  0  0
  132.0460  124.6280   61.4050 C   0  0  0  0  0  0  0  0  0  0  0  0
  128.7470  126.1790   60.9400 C   0  0  0  0  0  0  0  0  0  0  0  0
  127.6170  126.1500   60.1170 C   0  0  0  0  0  0  0  0  0  0  0  0
  126.7380  127.3400   60.0470 C   0  0  0  0  0  0  0  0  0  0  0  0
  126.5420  127.9970   58.8300 C   0  0  0  0  0  0  0  0  0  0  0  0
  125.7230  129.1210   58.7650 C   0  0  0  0  0  0  0  0  0  0  0  0
  125.0860  129.6010   59.9100 C   0  0  0  0  0  0  0  0  0  0  0  0
  124.2940  130.7210   59.7510 O   0  0  0  0  0  0  0  0  0  0  0  0
  123.7590  131.0170   58.4660 C   0  0  0  0  0  0  0  0  0  0  0  0
  125.2820  128.9360   61.1320 C   0  0  0  0  0  0  0  0  0  0  0  0
  126.1020  127.8130   61.1950 C   0  0  0  0  0  0  0  0  0  0  0  0
  127.3610  124.9650   59.3780 C   0  0  0  0  0  0  0  0  0  0  0  0
  126.3190  124.5930   58.4610 C   0  0  0  0  0  0  0  0  0  0  0  0
  125.2880  125.4360   58.1310 N   0  0  0  0  0  0  0  0  0  0  0  0
  127.8869  123.3405   56.0402 H   0  0  0  0  0  0  0  0  0  0  0  0
  127.8714  122.2020   54.6509 H   0  0  0  0  0  0  0  0  0  0  0  0
  126.7867  123.6337   54.6509 H   0  0  0  0  0  0  0  0  0  0  0  0
  129.7945  125.8881   63.6271 H   0  0  0  0  0  0  0  0  0  0  0  0
  131.8140  125.8930   65.0654 H   0  0  0  0  0  0  0  0  0  0  0  0
  134.8713  125.2653   66.3511 H   0  0  0  0  0  0  0  0  0  0  0  0
  133.1911  125.8391   66.0779 H   0  0  0  0  0  0  0  0  0  0  0  0
  133.5503  124.0790   66.0779 H   0  0  0  0  0  0  0  0  0  0  0  0
  134.1402  124.2701   61.8062 H   0  0  0  0  0  0  0  0  0  0  0  0
  132.1175  124.2671   60.3683 H   0  0  0  0  0  0  0  0  0  0  0  0
  128.9677  127.0809   61.5298 H   0  0  0  0  0  0  0  0  0  0  0  0
  127.0362  127.6252   57.9203 H   0  0  0  0  0  0  0  0  0  0  0  0
  125.5769  129.6348   57.8034 H   0  0  0  0  0  0  0  0  0  0  0  0
  122.8017  131.5466   58.5805 H   0  0  0  0  0  0  0  0  0  0  0  0
  124.4657  131.6525   57.9121 H   0  0  0  0  0  0  0  0  0  0  0  0
  123.5961  130.0807   57.9121 H   0  0  0  0  0  0  0  0  0  0  0  0
  124.7857  129.3041   62.0421 H   0  0  0  0  0  0  0  0  0  0  0  0
  126.2492  127.2960   62.1547 H   0  0  0  0  0  0  0  0  0  0  0  0
  124.9970  126.1810   58.7490 H   0  0  0  0  0  0  0  0  0  0  0  0
  124.7890  125.3470   57.2580 H   0  0  0  0  0  0  0  0  0  0  0  0
  1  2  1  0
  2  3  1  0
  3  4  2  0
  3  5  1  0
  5  6  1  0
  6  7  1  0
  7  8  2  0
  8  9  1  0
  9 10  1  0
 10 11  2  0
 11 12  1  0
 12 13  2  0
 13 14  1  0
 14 15  1  0
 13 16  1  0
 16 17  2  0
  9 18  2  0
 18 19  1  0
 19 20  1  0
 20 21  2  0
 21 22  1  0
 22 23  2  0
 23 24  1  0
 24 25  1  0
 23 26  1  0
 26 27  2  0
 19 28  2  0
 28 29  1  0
 29 30  1  0
 29  5  2  0
 28  7  1  0
 17 10  1  0
 27 20  1  0
  1 31  1  0
  1 32  1  0
  1 33  1  0
 11 34  1  0
 12 35  1  0
 15 36  1  0
 15 37  1  0
 15 38  1  0
 16 39  1  0
 17 40  1  0
 18 41  1  0
 21 42  1  0
 22 43  1  0
 25 44  1  0
 25 45  1  0
 25 46  1  0
 26 47  1  0
 27 48  1  0
 30 49  1  0
 30 50  1  0
M  END
>  <Binding energies>  (1) 
[-7.68]

>  <Ligand effiencies>  (1) 
[-0.24]

>  <Interactions>  (1) 
["V-B:MET:535:CE:9807, V-B:ILE:369:CG2:8209, V-B:TYR:539:CE2:9848, V-A:GLU:543:CD:4908, V-A:TYR:539:CE1:4875, V-B:TYR:539:CD2:9846, V-A:ARG:545:CZ:4926, H-B:TYR:531:OH:9767, V-B:TYR:539:CD1:9845, V-B:TYR:539:CG:9844, H-B:ASP:366:OD2:8187, V-A:TYR:484:CZ:4347, V-B:TYR:539:CE1:9847, V-B:TYR:539:C:9839, V-B:ASP:366:CG:8185, H-B:TYR:539:N:9842, V-B:PRO:540:CB:9857, V-B:PRO:540:CA:9855, V-B:ASP:366:CB:8184, V-B:ASP:366:CA:8182, V-B:PRO:540:N:9856, V-B:TYR:531:CZ:9766, V-B:ILE:538:CA:9832, V-B:PRO:540:CD:9859, V-B:ASP:366:C:8180, V-B:ILE:369:CB:8208, H-A:GLY:454:N:4050, H-A:TYR:484:OH:4348, H-A:ARG:545:NH2:4928, V-A:TYR:484:CE2:4346, H-A:ARG:545:NE:4924, V-A:GLY:454:CA:4049, H-A:ARG:545:NH1:4927, V-A:ARG:545:CD:4923, V-A:GLY:453:C:4042, V-A:ARG:545:CG:4922"]

$$$$
9a_Ghoteimi_2023
     RDKit          3D

 85 91  0  0  0  0  0  0  0  0999 V2000
  130.1580  116.0870   58.5670 C   0  0  0  0  0  0  0  0  0  0  0  0
  131.5990  116.5280   58.8470 C   0  0  0  0  0  0  0  0  0  0  0  0
  131.5920  117.8190   59.4440 O   0  0  0  0  0  0  0  0  0  0  0  0
  131.0600  118.0170   60.6770 C   0  0  0  0  0  0  0  0  0  0  0  0
  130.9140  117.1150   61.5090 O   0  0  0  0  0  0  0  0  0  0  0  0
  130.6600  119.4430   60.9290 C   0  0  0  0  0  0  0  0  0  0  0  0
  131.3240  120.4710   60.2480 C   0  0  0  0  0  0  0  0  0  0  0  0
  130.9770  121.8020   60.4610 C   0  0  0  0  0  0  0  0  0  0  0  0
  129.9590  122.1340   61.3550 C   0  0  0  0  0  0  0  0  0  0  0  0
  129.6940  123.5100   61.4910 N   0  0  0  0  0  0  0  0  0  0  0  0
  130.4540  124.5870   61.1700 C   0  0  0  0  0  0  0  0  0  0  0  0
  131.5780  124.5170   60.6720 O   0  0  0  0  0  0  0  0  0  0  0  0
  129.8440  125.8900   61.4510 C   0  0  0  0  0  0  0  0  0  0  0  0
  129.5810  127.0500   60.1480 S   0  0  0  0  0  0  0  0  0  0  0  0
  128.8710  128.2010   61.2550 C   0  0  0  0  0  0  0  0  0  0  0  0
  128.4100  129.3790   60.8370 N   0  0  0  0  0  0  0  0  0  0  0  0
  127.8660  130.1970   61.7760 C   0  0  0  0  0  0  0  0  0  0  0  0
  127.3460  131.5090   61.2830 C   0  0  0  0  0  0  0  0  0  0  0  0
  126.2520  131.5580   60.4120 C   0  0  0  0  0  0  0  0  0  0  0  0
  125.7610  132.7750   59.9490 C   0  0  0  0  0  0  0  0  0  0  0  0
  126.3370  133.9910   60.3500 C   0  0  0  0  0  0  0  0  0  0  0  0
  125.8660  135.2210   59.8780 N   0  0  0  0  0  0  0  0  0  0  0  0
  124.4210  135.5050   59.7720 C   0  0  0  0  0  0  0  0  0  0  0  0
  124.0910  136.7400   58.9080 C   0  0  0  0  0  0  0  0  0  0  0  0
  124.7980  137.8720   59.3870 O   0  0  0  0  0  0  0  0  0  0  0  0
  126.2010  137.6670   59.3370 C   0  0  0  0  0  0  0  0  0  0  0  0
  126.5900  136.4630   60.2180 C   0  0  0  0  0  0  0  0  0  0  0  0
  127.4420  133.9350   61.2120 C   0  0  0  0  0  0  0  0  0  0  0  0
  127.9340  132.7180   61.6720 C   0  0  0  0  0  0  0  0  0  0  0  0
  127.8090  129.8470   63.1270 C   0  0  0  0  0  0  0  0  0  0  0  0
  128.3100  128.6190   63.5730 C   0  0  0  0  0  0  0  0  0  0  0  0
  128.2580  128.3130   65.0260 C   0  0  0  0  0  0  0  0  0  0  0  0
  127.0950  128.5520   65.7620 C   0  0  0  0  0  0  0  0  0  0  0  0
  127.0440  128.2510   67.1200 C   0  0  0  0  0  0  0  0  0  0  0  0
  128.1490  127.6850   67.7750 C   0  0  0  0  0  0  0  0  0  0  0  0
  128.1250  127.3850   69.1390 N   0  0  0  0  0  0  0  0  0  0  0  0
  129.3700  127.5050   69.9250 C   0  0  0  0  0  0  0  0  0  0  0  0
  129.1300  127.5200   71.4490 C   0  0  0  0  0  0  0  0  0  0  0  0
  128.3960  126.3700   71.8370 O   0  0  0  0  0  0  0  0  0  0  0  0
  127.1310  126.3140   71.1980 C   0  0  0  0  0  0  0  0  0  0  0  0
  127.3160  126.2680   69.6660 C   0  0  0  0  0  0  0  0  0  0  0  0
  129.3100  127.4460   67.0250 C   0  0  0  0  0  0  0  0  0  0  0  0
  129.3630  127.7510   65.6680 C   0  0  0  0  0  0  0  0  0  0  0  0
  128.8520  127.7310   62.6010 C   0  0  0  0  0  0  0  0  0  0  0  0
  129.3930  126.3970   62.6790 C   0  0  0  0  0  0  0  0  0  0  0  0
  129.4440  125.6890   63.8530 N   0  0  0  0  0  0  0  0  0  0  0  0
  129.2850  121.1100   62.0390 C   0  0  0  0  0  0  0  0  0  0  0  0
  129.6340  119.7790   61.8260 C   0  0  0  0  0  0  0  0  0  0  0  0
  129.6321  115.9261   59.5197 H   0  0  0  0  0  0  0  0  0  0  0  0
  129.6410  116.8681   57.9902 H   0  0  0  0  0  0  0  0  0  0  0  0
  130.1667  115.1504   57.9902 H   0  0  0  0  0  0  0  0  0  0  0  0
  132.0758  115.8103   59.5308 H   0  0  0  0  0  0  0  0  0  0  0  0
  132.1617  116.5637   57.9025 H   0  0  0  0  0  0  0  0  0  0  0  0
  132.1273  120.2242   59.5382 H   0  0  0  0  0  0  0  0  0  0  0  0
  131.5096  122.5982   59.9202 H   0  0  0  0  0  0  0  0  0  0  0  0
  128.7900  123.7160   61.8880 H   0  0  0  0  0  0  0  0  0  0  0  0
  125.7735  130.6217   60.0888 H   0  0  0  0  0  0  0  0  0  0  0  0
  124.9064  132.7845   59.2565 H   0  0  0  0  0  0  0  0  0  0  0  0
  123.9270  134.6286   59.3273 H   0  0  0  0  0  0  0  0  0  0  0  0
  124.0612  135.7200   60.7890 H   0  0  0  0  0  0  0  0  0  0  0  0
  124.3822  136.5433   57.8657 H   0  0  0  0  0  0  0  0  0  0  0  0
  123.0107  136.9400   58.9631 H   0  0  0  0  0  0  0  0  0  0  0  0
  126.5036  137.4708   58.2978 H   0  0  0  0  0  0  0  0  0  0  0  0
  126.7109  138.5673   59.7105 H   0  0  0  0  0  0  0  0  0  0  0  0
  127.6682  136.2801   60.0999 H   0  0  0  0  0  0  0  0  0  0  0  0
  126.3193  136.7204   61.2526 H   0  0  0  0  0  0  0  0  0  0  0  0
  127.9278  134.8694   61.5297 H   0  0  0  0  0  0  0  0  0  0  0  0
  128.7986  132.7056   62.3520 H   0  0  0  0  0  0  0  0  0  0  0  0
  127.3642  130.5463   63.8502 H   0  0  0  0  0  0  0  0  0  0  0  0
  126.2128  128.9813   65.2646 H   0  0  0  0  0  0  0  0  0  0  0  0
  126.1252  128.4595   67.6877 H   0  0  0  0  0  0  0  0  0  0  0  0
  130.0199  126.6514   69.6822 H   0  0  0  0  0  0  0  0  0  0  0  0
  129.8325  128.4668   69.6583 H   0  0  0  0  0  0  0  0  0  0  0  0
  130.0987  127.5265   71.9700 H   0  0  0  0  0  0  0  0  0  0  0  0
  128.5567  128.4203   71.7149 H   0  0  0  0  0  0  0  0  0  0  0  0
  126.5958  125.4113   71.5277 H   0  0  0  0  0  0  0  0  0  0  0  0
  126.5510  127.2096   71.4653 H   0  0  0  0  0  0  0  0  0  0  0  0
  127.8135  125.3228   69.4031 H   0  0  0  0  0  0  0  0  0  0  0  0
  126.3158  126.3508   69.2156 H   0  0  0  0  0  0  0  0  0  0  0  0
  130.1923  127.0107   67.5170 H   0  0  0  0  0  0  0  0  0  0  0  0
  130.2815  127.5479   65.0977 H   0  0  0  0  0  0  0  0  0  0  0  0
  129.9480  126.0310   64.6600 H   0  0  0  0  0  0  0  0  0  0  0  0
  128.9770  124.7980   63.9510 H   0  0  0  0  0  0  0  0  0  0  0  0
  128.4792  121.3597   62.7449 H   0  0  0  0  0  0  0  0  0  0  0  0
  129.1004  118.9830   62.3660 H   0  0  0  0  0  0  0  0  0  0  0  0
  1  2  1  0
  2  3  1  0
  3  4  1  0
  4  5  2  0
  4  6  1  0
  6  7  2  0
  7  8  1  0
  8  9  2  0
  9 10  1  0
 10 11  1  0
 11 12  2  0
 11 13  1  0
 13 14  1  0
 14 15  1  0
 15 16  2  0
 16 17  1  0
 17 18  1  0
 18 19  2  0
 19 20  1  0
 20 21  2  0
 21 22  1  0
 22 23  1  0
 23 24  1  0
 24 25  1  0
 25 26  1  0
 26 27  1  0
 21 28  1  0
 28 29  2  0
 17 30  2  0
 30 31  1  0
 31 32  1  0
 32 33  2  0
 33 34  1  0
 34 35  2  0
 35 36  1  0
 36 37  1  0
 37 38  1  0
 38 39  1  0
 39 40  1  0
 40 41  1  0
 35 42  1  0
 42 43  2  0
 31 44  2  0
 44 45  1  0
 45 46  1  0
  9 47  1  0
 47 48  2  0
 48  6  1  0
 45 13  2  0
 44 15  1  0
 29 18  1  0
 43 32  1  0
 27 22  1  0
 41 36  1  0
  1 49  1  0
  1 50  1  0
  1 51  1  0
  2 52  1  0
  2 53  1  0
  7 54  1  0
  8 55  1  0
 10 56  1  0
 19 57  1  0
 20 58  1  0
 23 59  1  0
 23 60  1  0
 24 61  1  0
 24 62  1  0
 26 63  1  0
 26 64  1  0
 27 65  1  0
 27 66  1  0
 28 67  1  0
 29 68  1  0
 30 69  1  0
 33 70  1  0
 34 71  1  0
 37 72  1  0
 37 73  1  0
 38 74  1  0
 38 75  1  0
 40 76  1  0
 40 77  1  0
 41 78  1  0
 41 79  1  0
 42 80  1  0
 43 81  1  0
 46 82  1  0
 46 83  1  0
 47 84  1  0
 48 85  1  0
M  END
>  <Binding energies>  (1) 
[-4.41]

>  <Ligand effiencies>  (1) 
[-0.08647058823529412]

>  <Interactions>  (1) 
["V-A:ALA:541:CB:4892, V-B:ILE:369:CG2:8209, V-B:LEU:475:CD2:9231, V-B:TYR:539:CE2:9848, V-A:GLU:543:CD:4908, V-A:GLU:543:CG:4907, V-A:TYR:539:CE1:4875, V-B:TYR:539:CD2:9846, V-A:LEU:475:CD2:4259, V-A:TYR:484:CE1:4345, V-A:TYR:539:CD1:4873, H-B:GLU:543:OE2:9882, V-B:GLU:543:CD:9880, H-B:GLU:543:OE1:9881, V-A:HIS:456:CD2:4068, V-B:GLY:544:CA:9886, V-A:TYR:539:CG:4872, H-A:GLU:543:OE1:4909, V-B:GLU:543:CG:9879, V-B:TYR:539:CA:9841, H-A:GLU:543:OE2:4910, V-B:TYR:539:CB:9843, V-A:LEU:475:CD1:4258, V-B:ALA:541:CB:9864, H-A:TYR:484:OH:4348, V-B:SER:385:CB:8381, V-B:SER:385:CA:8379, V-B:HIS:456:CE1:9042, V-B:HIS:383:CD2:8364, V-A:TYR:539:CB:4871, V-A:SER:385:CB:3409, V-A:GLU:543:CB:4906, H-B:SER:385:OG:8382, V-B:VAL:344:CG1:7973, V-A:LEU:475:CG:4257, V-A:HIS:383:CE1:3394, H-A:SER:385:OG:3410, H-B:HIS:383:NE2:8366, V-A:HIS:456:CE1:4070, V-B:GLU:543:CB:9878, V-B:ILE:343:CG2:7964, H-B:LYS:547:NZ:9923, V-B:HIS:456:CD2:9040, V-B:VAL:384:C:8369, V-B:GLY:544:C:9884, V-B:GLU:543:C:9874, V-B:ARG:545:CA:9891"]

$$$$
9b_Ghoteimi_2023
     RDKit          3D

 72 78  0  0  0  0  0  0  0  0999 V2000
  130.0560  128.8350   59.4320 N   0  0  0  0  0  0  0  0  0  0  0  0
  130.8330  127.8000   58.9770 C   0  0  0  0  0  0  0  0  0  0  0  0
  131.8020  127.9440   57.9730 C   0  0  0  0  0  0  0  0  0  0  0  0
  132.1960  129.1560   57.2500 C   0  0  0  0  0  0  0  0  0  0  0  0
  133.3640  129.3230   56.8920 O   0  0  0  0  0  0  0  0  0  0  0  0
  131.2000  130.0490   57.0230 N   0  0  0  0  0  0  0  0  0  0  0  0
  131.2930  131.2750   56.3770 C   0  0  0  0  0  0  0  0  0  0  0  0
  132.5080  131.8490   56.0040 C   0  0  0  0  0  0  0  0  0  0  0  0
  132.1710  133.0380   55.4000 C   0  0  0  0  0  0  0  0  0  0  0  0
  130.8230  133.1730   55.4100 O   0  0  0  0  0  0  0  0  0  0  0  0
  130.2780  132.0500   56.0320 N   0  0  0  0  0  0  0  0  0  0  0  0
  132.5850  126.4040   57.6170 S   0  0  0  0  0  0  0  0  0  0  0  0
  131.5990  125.5780   58.7990 C   0  0  0  0  0  0  0  0  0  0  0  0
  131.7060  124.2660   59.0030 N   0  0  0  0  0  0  0  0  0  0  0  0
  130.8800  123.7170   59.9320 C   0  0  0  0  0  0  0  0  0  0  0  0
  131.0060  122.2400   60.1260 C   0  0  0  0  0  0  0  0  0  0  0  0
  129.9250  121.4760   60.5820 C   0  0  0  0  0  0  0  0  0  0  0  0
  130.0520  120.1040   60.7740 C   0  0  0  0  0  0  0  0  0  0  0  0
  131.2690  119.4470   60.5320 C   0  0  0  0  0  0  0  0  0  0  0  0
  131.4110  118.0670   60.7190 N   0  0  0  0  0  0  0  0  0  0  0  0
  131.7760  117.1740   59.6010 C   0  0  0  0  0  0  0  0  0  0  0  0
  132.2230  115.7670   60.0480 C   0  0  0  0  0  0  0  0  0  0  0  0
  131.2240  115.1770   60.8640 O   0  0  0  0  0  0  0  0  0  0  0  0
  130.9870  115.9450   62.0320 C   0  0  0  0  0  0  0  0  0  0  0  0
  130.5050  117.3610   61.6480 C   0  0  0  0  0  0  0  0  0  0  0  0
  132.3420  120.2150   60.0570 C   0  0  0  0  0  0  0  0  0  0  0  0
  132.2130  121.5870   59.8600 C   0  0  0  0  0  0  0  0  0  0  0  0
  129.9740  124.4820   60.6700 C   0  0  0  0  0  0  0  0  0  0  0  0
  129.8730  125.8640   60.4740 C   0  0  0  0  0  0  0  0  0  0  0  0
  128.9150  126.6370   61.3050 C   0  0  0  0  0  0  0  0  0  0  0  0
  127.5540  126.6380   60.9950 C   0  0  0  0  0  0  0  0  0  0  0  0
  126.6520  127.3450   61.7840 C   0  0  0  0  0  0  0  0  0  0  0  0
  127.0860  128.0720   62.9040 C   0  0  0  0  0  0  0  0  0  0  0  0
  126.1950  128.7760   63.7180 N   0  0  0  0  0  0  0  0  0  0  0  0
  125.1360  129.5920   63.0930 C   0  0  0  0  0  0  0  0  0  0  0  0
  124.4980  130.6080   64.0650 C   0  0  0  0  0  0  0  0  0  0  0  0
  124.0020  129.9360   65.2130 O   0  0  0  0  0  0  0  0  0  0  0  0
  125.0340  129.2510   65.9070 C   0  0  0  0  0  0  0  0  0  0  0  0
  125.6890  128.2040   64.9820 C   0  0  0  0  0  0  0  0  0  0  0  0
  128.4530  128.0480   63.2160 C   0  0  0  0  0  0  0  0  0  0  0  0
  129.3560  127.3400   62.4270 C   0  0  0  0  0  0  0  0  0  0  0  0
  130.7040  126.4550   59.4810 C   0  0  0  0  0  0  0  0  0  0  0  0
  130.2340  129.2850   60.3190 H   0  0  0  0  0  0  0  0  0  0  0  0
  129.2760  129.1850   58.8930 H   0  0  0  0  0  0  0  0  0  0  0  0
  130.2790  129.8020   57.3540 H   0  0  0  0  0  0  0  0  0  0  0  0
  133.5171  131.4396   56.1592 H   0  0  0  0  0  0  0  0  0  0  0  0
  132.8819  133.7629   54.9768 H   0  0  0  0  0  0  0  0  0  0  0  0
  128.9630  121.9668   60.7911 H   0  0  0  0  0  0  0  0  0  0  0  0
  129.1842  119.5241   61.1213 H   0  0  0  0  0  0  0  0  0  0  0  0
  130.9012  117.0671   58.9428 H   0  0  0  0  0  0  0  0  0  0  0  0
  132.6339  117.6352   59.0898 H   0  0  0  0  0  0  0  0  0  0  0  0
  132.3870  115.1379   59.1607 H   0  0  0  0  0  0  0  0  0  0  0  0
  133.1565  115.8507   60.6238 H   0  0  0  0  0  0  0  0  0  0  0  0
  130.2160  115.4512   62.6417 H   0  0  0  0  0  0  0  0  0  0  0  0
  131.9224  116.0264   62.6050 H   0  0  0  0  0  0  0  0  0  0  0  0
  129.5178  117.2739   61.1707 H   0  0  0  0  0  0  0  0  0  0  0  0
  130.4732  117.9514   62.5756 H   0  0  0  0  0  0  0  0  0  0  0  0
  133.3018  119.7250   59.8364 H   0  0  0  0  0  0  0  0  0  0  0  0
  133.0726  122.1651   59.4900 H   0  0  0  0  0  0  0  0  0  0  0  0
  129.3310  123.9915   61.4156 H   0  0  0  0  0  0  0  0  0  0  0  0
  127.1922  126.0762   60.1212 H   0  0  0  0  0  0  0  0  0  0  0  0
  125.5826  127.3342   61.5264 H   0  0  0  0  0  0  0  0  0  0  0  0
  125.5728  130.1437   62.2476 H   0  0  0  0  0  0  0  0  0  0  0  0
  124.3406  128.9041   62.7705 H   0  0  0  0  0  0  0  0  0  0  0  0
  125.2560  131.3434   64.3725 H   0  0  0  0  0  0  0  0  0  0  0  0
  123.6662  131.1192   63.5583 H   0  0  0  0  0  0  0  0  0  0  0  0
  125.7951  129.9746   66.2341 H   0  0  0  0  0  0  0  0  0  0  0  0
  124.6034  128.7406   66.7811 H   0  0  0  0  0  0  0  0  0  0  0  0
  126.5314  127.7427   65.5183 H   0  0  0  0  0  0  0  0  0  0  0  0
  124.9127  127.4702   64.7197 H   0  0  0  0  0  0  0  0  0  0  0  0
  128.8174  128.5966   64.0971 H   0  0  0  0  0  0  0  0  0  0  0  0
  130.4241  127.3348   62.6899 H   0  0  0  0  0  0  0  0  0  0  0  0
  1  2  1  0
  2  3  2  0
  3  4  1  0
  4  5  2  0
  4  6  1  0
  6  7  1  0
  7  8  1  0
  8  9  2  0
  9 10  1  0
 10 11  1  0
  3 12  1  0
 12 13  1  0
 13 14  2  0
 14 15  1  0
 15 16  1  0
 16 17  2  0
 17 18  1  0
 18 19  2  0
 19 20  1  0
 20 21  1  0
 21 22  1  0
 22 23  1  0
 23 24  1  0
 24 25  1  0
 19 26  1  0
 26 27  2  0
 15 28  2  0
 28 29  1  0
 29 30  1  0
 30 31  2  0
 31 32  1  0
 32 33  2  0
 33 34  1  0
 34 35  1  0
 35 36  1  0
 36 37  1  0
 37 38  1  0
 38 39  1  0
 33 40  1  0
 40 41  2  0
 29 42  2  0
 42  2  1  0
 11  7  2  0
 42 13  1  0
 27 16  1  0
 41 30  1  0
 25 20  1  0
 39 34  1  0
  1 43  1  0
  1 44  1  0
  6 45  1  0
  8 46  1  0
  9 47  1  0
 17 48  1  0
 18 49  1  0
 21 50  1  0
 21 51  1  0
 22 52  1  0
 22 53  1  0
 24 54  1  0
 24 55  1  0
 25 56  1  0
 25 57  1  0
 26 58  1  0
 27 59  1  0
 28 60  1  0
 31 61  1  0
 32 62  1  0
 35 63  1  0
 35 64  1  0
 36 65  1  0
 36 66  1  0
 38 67  1  0
 38 68  1  0
 39 69  1  0
 39 70  1  0
 40 71  1  0
 41 72  1  0
M  END
>  <Binding energies>  (1) 
[-5.69]

>  <Ligand effiencies>  (1) 
[-0.12644444444444444]

>  <Interactions>  (1) 
["V-A:ASP:366:CA:3210, V-A:ASP:366:CG:3213, V-B:TYR:539:CE2:9848, V-A:ASP:366:CB:3212, V-A:GLU:543:CD:4908, V-A:ASP:366:C:3208, H-B:GLY:454:N:9022, H-B:TYR:484:OH:9320, H-A:TYR:531:OH:4795, V-B:ARG:545:CZ:9898, V-A:ILE:369:CG2:3237, V-B:TYR:539:CD2:9846, V-A:LEU:475:CD2:4259, H-B:TYR:539:OH:9850, V-B:TYR:539:C:9839, V-B:GLU:543:CD:9880, V-A:PRO:540:CD:4887, V-A:TYR:531:CE2:4793, V-A:PRO:540:CB:4885, V-A:LEU:363:CD1:3189, V-A:ILE:538:CA:4860, V-A:ILE:538:CB:4862, H-A:TYR:539:N:4870, V-A:PRO:540:N:4884, H-A:GLU:543:OE1:4909, V-A:ILE:538:CG2:4863, V-A:LEU:475:CD1:4258, V-B:GLY:454:CA:9021, V-A:PRO:540:CG:4886, V-B:ARG:545:CD:9895, V-B:TYR:484:CZ:9319, V-B:HIS:456:CE1:9042, V-B:GLY:453:C:9014, V-A:SER:385:CB:3409, V-A:PRO:482:CB:4326, V-A:LEU:475:CG:4257, V-A:HIS:383:CE1:3394, V-A:PRO:482:CG:4327, H-A:SER:385:OG:3410, V-A:TYR:531:CZ:4794, V-A:CYS:476:C:4264, V-A:THR:477:CG2:4273, V-A:PRO:482:CA:4324"]

$$$$
9c_Ghoteimi_2023
     RDKit          3D

 72 78  0  0  0  0  0  0  0  0999 V2000
  126.9390  129.7070   59.4690 N   0  0  0  0  0  0  0  0  0  0  0  0
  127.2880  128.6960   60.3280 C   0  0  0  0  0  0  0  0  0  0  0  0
  127.3080  127.3410   59.9610 C   0  0  0  0  0  0  0  0  0  0  0  0
  127.0020  126.7440   58.6570 C   0  0  0  0  0  0  0  0  0  0  0  0
  126.8520  127.4510   57.6590 O   0  0  0  0  0  0  0  0  0  0  0  0
  126.8950  125.3920   58.6480 N   0  0  0  0  0  0  0  0  0  0  0  0
  126.6010  124.5860   57.5570 C   0  0  0  0  0  0  0  0  0  0  0  0
  127.3090  124.4180   56.4610 N   0  0  0  0  0  0  0  0  0  0  0  0
  126.7220  123.5790   55.6290 C   0  0  0  0  0  0  0  0  0  0  0  0
  125.5060  123.0460   56.0480 C   0  0  0  0  0  0  0  0  0  0  0  0
  125.1200  123.6840   57.6180 S   0  0  0  0  0  0  0  0  0  0  0  0
  127.7720  126.3180   61.3190 S   0  0  0  0  0  0  0  0  0  0  0  0
  127.9180  127.7050   62.3730 C   0  0  0  0  0  0  0  0  0  0  0  0
  128.2470  127.5750   63.6570 N   0  0  0  0  0  0  0  0  0  0  0  0
  128.3170  128.7140   64.3940 C   0  0  0  0  0  0  0  0  0  0  0  0
  128.6670  128.5380   65.8360 C   0  0  0  0  0  0  0  0  0  0  0  0
  128.2930  129.4870   66.7940 C   0  0  0  0  0  0  0  0  0  0  0  0
  128.6290  129.3230   68.1340 C   0  0  0  0  0  0  0  0  0  0  0  0
  129.3640  128.2060   68.5640 C   0  0  0  0  0  0  0  0  0  0  0  0
  129.7040  128.0230   69.9100 N   0  0  0  0  0  0  0  0  0  0  0  0
  128.9250  127.1230   70.7840 C   0  0  0  0  0  0  0  0  0  0  0  0
  129.6340  126.7720   72.1090 C   0  0  0  0  0  0  0  0  0  0  0  0
  129.9910  127.9620   72.7950 O   0  0  0  0  0  0  0  0  0  0  0  0
  130.8800  128.7570   72.0280 C   0  0  0  0  0  0  0  0  0  0  0  0
  130.2130  129.1650   70.6970 C   0  0  0  0  0  0  0  0  0  0  0  0
  129.7200  127.2490   67.6030 C   0  0  0  0  0  0  0  0  0  0  0  0
  129.3790  127.4130   66.2640 C   0  0  0  0  0  0  0  0  0  0  0  0
  128.0860  129.9760   63.8410 C   0  0  0  0  0  0  0  0  0  0  0  0
  127.7620  130.1190   62.4870 C   0  0  0  0  0  0  0  0  0  0  0  0
  127.5570  131.4830   61.9400 C   0  0  0  0  0  0  0  0  0  0  0  0
  126.2920  132.0720   61.9680 C   0  0  0  0  0  0  0  0  0  0  0  0
  126.0990  133.3580   61.4710 C   0  0  0  0  0  0  0  0  0  0  0  0
  127.1680  134.0900   60.9310 C   0  0  0  0  0  0  0  0  0  0  0  0
  127.0000  135.3870   60.4370 N   0  0  0  0  0  0  0  0  0  0  0  0
  125.6330  135.9040   60.2210 C   0  0  0  0  0  0  0  0  0  0  0  0
  125.5930  137.1600   59.3250 C   0  0  0  0  0  0  0  0  0  0  0  0
  126.4320  138.1700   59.8660 O   0  0  0  0  0  0  0  0  0  0  0  0
  127.7810  137.7380   59.9550 C   0  0  0  0  0  0  0  0  0  0  0  0
  127.8790  136.4920   60.8630 C   0  0  0  0  0  0  0  0  0  0  0  0
  128.4390  133.4970   60.9260 C   0  0  0  0  0  0  0  0  0  0  0  0
  128.6320  132.2100   61.4230 C   0  0  0  0  0  0  0  0  0  0  0  0
  127.6480  128.9360   61.7030 C   0  0  0  0  0  0  0  0  0  0  0  0
  126.7280  129.5310   58.4970 H   0  0  0  0  0  0  0  0  0  0  0  0
  126.8830  130.6660   59.7810 H   0  0  0  0  0  0  0  0  0  0  0  0
  127.0460  124.9090   59.5210 H   0  0  0  0  0  0  0  0  0  0  0  0
  127.1683  123.3154   54.6588 H   0  0  0  0  0  0  0  0  0  0  0  0
  124.8892  122.3359   55.4776 H   0  0  0  0  0  0  0  0  0  0  0  0
  127.7248  130.3760   66.4828 H   0  0  0  0  0  0  0  0  0  0  0  0
  128.3143  130.0796   68.8679 H   0  0  0  0  0  0  0  0  0  0  0  0
  127.9690  127.6125   71.0216 H   0  0  0  0  0  0  0  0  0  0  0  0
  128.7906  126.1801   70.2336 H   0  0  0  0  0  0  0  0  0  0  0  0
  128.9564  126.1770   72.7389 H   0  0  0  0  0  0  0  0  0  0  0  0
  130.5433  126.1926   71.8911 H   0  0  0  0  0  0  0  0  0  0  0  0
  131.1414  129.6618   72.5963 H   0  0  0  0  0  0  0  0  0  0  0  0
  131.7882  128.1752   71.8120 H   0  0  0  0  0  0  0  0  0  0  0  0
  129.3695  129.8340   70.9227 H   0  0  0  0  0  0  0  0  0  0  0  0
  130.9872  129.6541   70.0876 H   0  0  0  0  0  0  0  0  0  0  0  0
  130.2784  126.3534   67.9129 H   0  0  0  0  0  0  0  0  0  0  0  0
  129.6736  126.6469   65.5317 H   0  0  0  0  0  0  0  0  0  0  0  0
  128.1598  130.8694   64.4785 H   0  0  0  0  0  0  0  0  0  0  0  0
  125.4404  131.5154   62.3863 H   0  0  0  0  0  0  0  0  0  0  0  0
  125.0951  133.8066   61.5019 H   0  0  0  0  0  0  0  0  0  0  0  0
  125.0321  135.1153   59.7446 H   0  0  0  0  0  0  0  0  0  0  0  0
  125.2326  136.1910   61.2045 H   0  0  0  0  0  0  0  0  0  0  0  0
  125.9425  136.8984   58.3154 H   0  0  0  0  0  0  0  0  0  0  0  0
  124.5604  137.5362   59.2768 H   0  0  0  0  0  0  0  0  0  0  0  0
  128.1496  137.4859   58.9497 H   0  0  0  0  0  0  0  0  0  0  0  0
  128.3909  138.5463   60.3847 H   0  0  0  0  0  0  0  0  0  0  0  0
  128.9191  136.1340   60.8530 H   0  0  0  0  0  0  0  0  0  0  0  0
  127.5541  136.7965   61.8689 H   0  0  0  0  0  0  0  0  0  0  0  0
  129.2963  134.0566   60.5236 H   0  0  0  0  0  0  0  0  0  0  0  0
  129.6372  131.7634   61.4082 H   0  0  0  0  0  0  0  0  0  0  0  0
  1  2  1  0
  2  3  2  0
  3  4  1  0
  4  5  2  0
  4  6  1  0
  6  7  1  0
  7  8  2  0
  8  9  1  0
  9 10  2  0
 10 11  1  0
  3 12  1  0
 12 13  1  0
 13 14  2  0
 14 15  1  0
 15 16  1  0
 16 17  2  0
 17 18  1  0
 18 19  2  0
 19 20  1  0
 20 21  1  0
 21 22  1  0
 22 23  1  0
 23 24  1  0
 24 25  1  0
 19 26  1  0
 26 27  2  0
 15 28  2  0
 28 29  1  0
 29 30  1  0
 30 31  2  0
 31 32  1  0
 32 33  2  0
 33 34  1  0
 34 35  1  0
 35 36  1  0
 36 37  1  0
 37 38  1  0
 38 39  1  0
 33 40  1  0
 40 41  2  0
 29 42  2  0
 42  2  1  0
 11  7  1  0
 42 13  1  0
 27 16  1  0
 41 30  1  0
 25 20  1  0
 39 34  1  0
  1 43  1  0
  1 44  1  0
  6 45  1  0
  9 46  1  0
 10 47  1  0
 17 48  1  0
 18 49  1  0
 21 50  1  0
 21 51  1  0
 22 52  1  0
 22 53  1  0
 24 54  1  0
 24 55  1  0
 25 56  1  0
 25 57  1  0
 26 58  1  0
 27 59  1  0
 28 60  1  0
 31 61  1  0
 32 62  1  0
 35 63  1  0
 35 64  1  0
 36 65  1  0
 36 66  1  0
 38 67  1  0
 38 68  1  0
 39 69  1  0
 39 70  1  0
 40 71  1  0
 41 72  1  0
M  END
>  <Binding energies>  (1) 
[-5.56]

>  <Ligand effiencies>  (1) 
[-0.12355555555555554]

>  <Interactions>  (1) 
["V-A:ALA:541:CB:4892, V-B:MET:535:CE:9807, V-B:LEU:475:CD2:9231, V-A:PRO:540:CA:4883, V-A:GLU:543:CD:4908, V-A:GLU:543:CG:4907, V-A:TYR:539:CE1:4875, H-B:TYR:531:OH:9767, H-B:ASP:366:OD2:8187, V-B:PRO:540:CB:9857, V-A:TYR:539:CD1:4873, V-A:TYR:539:C:4867, V-A:PRO:540:C:4881, V-B:TYR:531:CZ:9766, V-B:TYR:531:CE2:9765, V-B:GLU:543:CD:9880, V-B:ILE:538:CD1:9837, V-A:HIS:456:CD2:4068, V-A:HIS:456:CG:4066, V-A:TYR:539:CG:4872, V-A:GLY:544:CA:4914, V-A:GLU:543:C:4902, V-A:GLU:543:CA:4904, H-A:LYS:547:NZ:4951, V-A:LYS:547:CE:4950, V-B:SER:385:CB:8381, V-B:TYR:484:CZ:9319, V-B:HIS:456:CE1:9042, V-B:HIS:383:CD2:8364, V-A:TYR:539:CB:4871, V-B:PRO:482:CB:9298, V-B:PRO:482:CG:9299, V-A:GLU:543:CB:4906, V-A:TYR:539:CA:4869, V-A:VAL:344:CG1:3001, H-B:SER:385:OG:8382, H-B:HIS:383:NE2:8366, V-A:HIS:456:CE1:4070, V-B:TYR:484:CE2:9318, V-B:HIS:456:CD2:9040, V-A:GLY:544:C:4912"]

$$$$
9d_Ghoteimi_2023
     RDKit          3D

 68 73  0  0  0  0  0  0  0  0999 V2000
  124.8230  134.4140   60.0550 C   0  0  0  0  0  0  0  0  0  0  0  0
  123.7830  133.4660   59.8610 O   0  0  0  0  0  0  0  0  0  0  0  0
  124.0440  132.2470   59.3220 C   0  0  0  0  0  0  0  0  0  0  0  0
  123.7630  131.9310   58.1630 O   0  0  0  0  0  0  0  0  0  0  0  0
  124.7010  131.3240   60.2740 C   0  0  0  0  0  0  0  0  0  0  0  0
  125.1020  131.8790   61.8990 S   0  0  0  0  0  0  0  0  0  0  0  0
  125.7500  130.3110   62.3170 C   0  0  0  0  0  0  0  0  0  0  0  0
  126.2270  130.0550   63.5350 N   0  0  0  0  0  0  0  0  0  0  0  0
  126.6920  128.7990   63.7640 C   0  0  0  0  0  0  0  0  0  0  0  0
  127.1990  128.5280   65.1450 C   0  0  0  0  0  0  0  0  0  0  0  0
  126.3590  127.9610   66.1100 C   0  0  0  0  0  0  0  0  0  0  0  0
  126.8200  127.7070   67.3980 C   0  0  0  0  0  0  0  0  0  0  0  0
  128.1440  127.9980   67.7660 C   0  0  0  0  0  0  0  0  0  0  0  0
  128.6160  127.7640   69.0620 N   0  0  0  0  0  0  0  0  0  0  0  0
  128.2080  126.5670   69.8240 C   0  0  0  0  0  0  0  0  0  0  0  0
  128.5350  126.6440   71.3300 C   0  0  0  0  0  0  0  0  0  0  0  0
  129.9140  126.9190   71.5140 O   0  0  0  0  0  0  0  0  0  0  0  0
  130.2790  128.1580   70.9290 C   0  0  0  0  0  0  0  0  0  0  0  0
  130.0050  128.1300   69.4100 C   0  0  0  0  0  0  0  0  0  0  0  0
  128.9760  128.5800   66.7990 C   0  0  0  0  0  0  0  0  0  0  0  0
  128.5140  128.8380   65.5110 C   0  0  0  0  0  0  0  0  0  0  0  0
  126.7110  127.8170   62.7700 C   0  0  0  0  0  0  0  0  0  0  0  0
  126.2290  128.0870   61.4840 C   0  0  0  0  0  0  0  0  0  0  0  0
  126.2970  127.0150   60.4560 C   0  0  0  0  0  0  0  0  0  0  0  0
  126.6200  127.3160   59.1320 C   0  0  0  0  0  0  0  0  0  0  0  0
  126.7010  126.3060   58.1760 C   0  0  0  0  0  0  0  0  0  0  0  0
  126.4770  124.9650   58.5260 C   0  0  0  0  0  0  0  0  0  0  0  0
  126.5430  123.9350   57.5850 N   0  0  0  0  0  0  0  0  0  0  0  0
  127.7140  123.8550   56.6890 C   0  0  0  0  0  0  0  0  0  0  0  0
  127.8520  122.4870   55.9890 C   0  0  0  0  0  0  0  0  0  0  0  0
  126.6570  122.1740   55.2890 O   0  0  0  0  0  0  0  0  0  0  0  0
  125.5390  122.1110   56.1630 C   0  0  0  0  0  0  0  0  0  0  0  0
  125.3420  123.4720   56.8640 C   0  0  0  0  0  0  0  0  0  0  0  0
  126.1520  124.6750   59.8590 C   0  0  0  0  0  0  0  0  0  0  0  0
  126.0700  125.6850   60.8120 C   0  0  0  0  0  0  0  0  0  0  0  0
  125.6980  129.3830   61.2340 C   0  0  0  0  0  0  0  0  0  0  0  0
  125.0750  129.9880   60.0860 C   0  0  0  0  0  0  0  0  0  0  0  0
  124.8470  129.3070   58.9180 N   0  0  0  0  0  0  0  0  0  0  0  0
  124.9868  134.5633   61.1324 H   0  0  0  0  0  0  0  0  0  0  0  0
  125.7488  134.0426   59.5914 H   0  0  0  0  0  0  0  0  0  0  0  0
  124.5387  135.3702   59.5914 H   0  0  0  0  0  0  0  0  0  0  0  0
  125.3202  127.7128   65.8467 H   0  0  0  0  0  0  0  0  0  0  0  0
  126.1359  127.2708   68.1408 H   0  0  0  0  0  0  0  0  0  0  0  0
  127.1213  126.4384   69.7115 H   0  0  0  0  0  0  0  0  0  0  0  0
  128.7777  125.7190   69.4162 H   0  0  0  0  0  0  0  0  0  0  0  0
  127.9391  127.4452   71.7915 H   0  0  0  0  0  0  0  0  0  0  0  0
  128.2932  125.6800   71.8015 H   0  0  0  0  0  0  0  0  0  0  0  0
  129.6905  128.9651   71.3898 H   0  0  0  0  0  0  0  0  0  0  0  0
  131.3518  128.3330   71.0976 H   0  0  0  0  0  0  0  0  0  0  0  0
  130.2131  129.1299   69.0014 H   0  0  0  0  0  0  0  0  0  0  0  0
  130.6579  127.3559   68.9805 H   0  0  0  0  0  0  0  0  0  0  0  0
  130.0124  128.8374   67.0626 H   0  0  0  0  0  0  0  0  0  0  0  0
  129.1910  129.2911   64.7718 H   0  0  0  0  0  0  0  0  0  0  0  0
  127.1101  126.8184   63.0013 H   0  0  0  0  0  0  0  0  0  0  0  0
  126.8122  128.3593   58.8410 H   0  0  0  0  0  0  0  0  0  0  0  0
  126.9434  126.5623   57.1341 H   0  0  0  0  0  0  0  0  0  0  0  0
  127.6182  124.6339   55.9182 H   0  0  0  0  0  0  0  0  0  0  0  0
  128.6108  123.9961   57.3101 H   0  0  0  0  0  0  0  0  0  0  0  0
  128.6906  122.5251   55.2782 H   0  0  0  0  0  0  0  0  0  0  0  0
  128.0385  121.7120   56.7470 H   0  0  0  0  0  0  0  0  0  0  0  0
  124.6367  121.8652   55.5837 H   0  0  0  0  0  0  0  0  0  0  0  0
  125.7165  121.3352   56.9223 H   0  0  0  0  0  0  0  0  0  0  0  0
  125.0803  124.2222   56.1032 H   0  0  0  0  0  0  0  0  0  0  0  0
  124.5435  123.3426   57.6094 H   0  0  0  0  0  0  0  0  0  0  0  0
  125.9591  123.6334   60.1554 H   0  0  0  0  0  0  0  0  0  0  0  0
  125.8243  125.4333   61.8543 H   0  0  0  0  0  0  0  0  0  0  0  0
  124.7830  128.2990   58.8930 H   0  0  0  0  0  0  0  0  0  0  0  0
  124.7290  129.7920   58.0390 H   0  0  0  0  0  0  0  0  0  0  0  0
  1  2  1  0
  2  3  1  0
  3  4  2  0
  3  5  1  0
  5  6  1  0
  6  7  1  0
  7  8  2  0
  8  9  1  0
  9 10  1  0
 10 11  2  0
 11 12  1  0
 12 13  2  0
 13 14  1  0
 14 15  1  0
 15 16  1  0
 16 17  1  0
 17 18  1  0
 18 19  1  0
 13 20  1  0
 20 21  2  0
  9 22  2  0
 22 23  1  0
 23 24  1  0
 24 25  2  0
 25 26  1  0
 26 27  2  0
 27 28  1  0
 28 29  1  0
 29 30  1  0
 30 31  1  0
 31 32  1  0
 32 33  1  0
 27 34  1  0
 34 35  2  0
 23 36  2  0
 36 37  1  0
 37 38  1  0
 37  5  2  0
 36  7  1  0
 21 10  1  0
 35 24  1  0
 19 14  1  0
 33 28  1  0
  1 39  1  0
  1 40  1  0
  1 41  1  0
 11 42  1  0
 12 43  1  0
 15 44  1  0
 15 45  1  0
 16 46  1  0
 16 47  1  0
 18 48  1  0
 18 49  1  0
 19 50  1  0
 19 51  1  0
 20 52  1  0
 21 53  1  0
 22 54  1  0
 25 55  1  0
 26 56  1  0
 29 57  1  0
 29 58  1  0
 30 59  1  0
 30 60  1  0
 32 61  1  0
 32 62  1  0
 33 63  1  0
 33 64  1  0
 34 65  1  0
 35 66  1  0
 38 67  1  0
 38 68  1  0
M  END
>  <Binding energies>  (1) 
[-5.96]

>  <Ligand effiencies>  (1) 
[-0.149]

>  <Interactions>  (1) 
["V-B:MET:535:CE:9807, V-B:ILE:369:CG2:8209, V-B:TYR:539:CE2:9848, V-A:GLU:543:CD:4908, V-B:TYR:539:CZ:9849, V-B:ILE:369:CD1:8211, H-B:TYR:484:OH:9320, V-A:GLU:543:CG:4907, V-A:TYR:539:CE1:4875, H-A:TYR:539:OH:4878, V-B:TYR:539:CD2:9846, V-B:TYR:539:CD1:9845, V-B:TYR:539:CG:9844, H-B:ASP:366:OD2:8187, V-B:TYR:539:CE1:9847, V-B:ASP:366:CG:8185, H-B:TYR:539:N:9842, V-B:ASP:366:CB:8184, V-B:ASP:366:CA:8182, V-B:PRO:540:N:9856, V-A:TYR:539:CD1:4873, V-B:TYR:531:CZ:9766, V-B:TYR:531:CE2:9765, V-B:GLU:543:CD:9880, V-B:ILE:538:CA:9832, V-B:ILE:538:CD1:9837, V-A:HIS:456:CD2:4068, V-B:PRO:540:CD:9859, V-B:ILE:369:CB:8208, H-B:ASP:366:OD1:8186, V-A:GLY:544:CA:4914, V-A:GLU:543:C:4902, V-B:ILE:538:CG2:9835, V-B:ILE:538:C:9830, V-B:ARG:545:CG:9894, V-B:HIS:456:CE1:9042, V-A:GLU:543:CB:4906, V-A:HIS:456:CE1:4070, V-B:GLU:543:CB:9878, V-B:HIS:456:CD2:9040, V-A:GLY:544:C:4912"]

$$$$
RR10_Rahimova_2017
     RDKit          3D

 66 70  0  0  0  0  0  0  0  0999 V2000
  133.5140  124.3600   57.6800 C   0  0  0  0  0  0  0  0  0  0  0  0
  133.3830  124.1620   59.2000 C   0  0  1  0  0  0  0  0  0  0  0  0
  132.4460  125.2140   59.8390 C   0  0  0  0  0  0  0  0  0  0  0  0
  132.3570  125.0180   61.3700 C   0  0  0  0  0  0  0  0  0  0  0  0
  131.8610  123.5990   61.7490 C   0  0  1  0  0  0  0  0  0  0  0  0
  130.4550  123.4180   61.3630 N   0  0  0  0  0  0  0  0  0  0  0  0
  129.6710  122.3880   61.7320 C   0  0  0  0  0  0  0  0  0  0  0  0
  130.0600  121.4790   62.4690 O   0  0  0  0  0  0  0  0  0  0  0  0
  128.2330  122.3760   61.1740 C   0  0  1  0  0  0  0  0  0  0  0  0
  127.2980  123.1460   62.1440 C   0  0  0  0  0  0  0  0  0  0  0  0
  125.8740  123.2160   61.5420 C   0  0  0  0  0  0  0  0  0  0  0  0
  125.8670  123.7630   60.0960 C   0  0  0  0  0  0  0  0  0  0  0  0
  126.8350  123.0150   59.2480 N   0  0  0  0  0  0  0  0  0  0  0  0
  126.7000  123.3490   57.5130 S   0  0  0  0  0  0  0  0  0  0  0  0
  125.4020  123.9920   57.2710 O   0  0  0  0  0  0  0  0  0  0  0  0
  127.0650  122.1260   56.7880 O   0  0  0  0  0  0  0  0  0  0  0  0
  127.9560  124.5840   57.1780 C   0  0  0  0  0  0  0  0  0  0  0  0
  129.3040  124.2100   57.1910 C   0  0  0  0  0  0  0  0  0  0  0  0
  130.3310  125.1250   56.9410 C   0  0  0  0  0  0  0  0  0  0  0  0
  129.9440  126.4400   56.6720 C   0  0  0  0  0  0  0  0  0  0  0  0
  130.6320  127.5960   56.3910 N   0  0  0  0  0  0  0  0  0  0  0  0
  129.7100  128.6070   56.2140 C   0  0  0  0  0  0  0  0  0  0  0  0
  130.0830  130.0270   55.8990 C   0  0  0  0  0  0  0  0  0  0  0  0
  131.1630  130.6380   56.5510 C   0  0  0  0  0  0  0  0  0  0  0  0
  131.5130  131.9530   56.2580 C   0  0  0  0  0  0  0  0  0  0  0  0
  130.7820  132.6660   55.3100 C   0  0  0  0  0  0  0  0  0  0  0  0
  129.7080  132.0740   54.6530 C   0  0  0  0  0  0  0  0  0  0  0  0
  129.3590  130.7580   54.9480 C   0  0  0  0  0  0  0  0  0  0  0  0
  128.4750  128.1770   56.3560 N   0  0  0  0  0  0  0  0  0  0  0  0
  128.5880  126.8420   56.6430 C   0  0  0  0  0  0  0  0  0  0  0  0
  127.5790  125.9020   56.8960 C   0  0  0  0  0  0  0  0  0  0  0  0
  128.2230  123.0360   59.7730 C   0  0  0  0  0  0  0  0  0  0  0  0
  132.7990  122.5540   61.0860 C   0  0  0  0  0  0  0  0  0  0  0  0
  132.8860  122.7420   59.5550 C   0  0  0  0  0  0  0  0  0  0  0  0
  134.1106  125.2618   57.4778 H   0  0  0  0  0  0  0  0  0  0  0  0
  134.0116  123.4843   57.2377 H   0  0  0  0  0  0  0  0  0  0  0  0
  132.5135  124.4755   57.2377 H   0  0  0  0  0  0  0  0  0  0  0  0
  134.3934  124.2938   59.6143 H   0  0  0  0  0  0  0  0  0  0  0  0
  132.8369  126.2201   59.6271 H   0  0  0  0  0  0  0  0  0  0  0  0
  131.4399  125.0939   59.4108 H   0  0  0  0  0  0  0  0  0  0  0  0
  133.3550  125.1730   61.8059 H   0  0  0  0  0  0  0  0  0  0  0  0
  131.6321  125.7461   61.7629 H   0  0  0  0  0  0  0  0  0  0  0  0
  131.8995  123.4598   62.8395 H   0  0  0  0  0  0  0  0  0  0  0  0
  130.0990  124.0660   60.6750 H   0  0  0  0  0  0  0  0  0  0  0  0
  127.8732  121.3406   61.0825 H   0  0  0  0  0  0  0  0  0  0  0  0
  127.2619  122.6228   63.1109 H   0  0  0  0  0  0  0  0  0  0  0  0
  127.6835  124.1655   62.2926 H   0  0  0  0  0  0  0  0  0  0  0  0
  125.4428  122.2040   61.5381 H   0  0  0  0  0  0  0  0  0  0  0  0
  125.2831  123.9059   62.1624 H   0  0  0  0  0  0  0  0  0  0  0  0
  124.8572  123.6546   59.6734 H   0  0  0  0  0  0  0  0  0  0  0  0
  126.1592  124.8233   60.1166 H   0  0  0  0  0  0  0  0  0  0  0  0
  129.5641  123.1628   57.4047 H   0  0  0  0  0  0  0  0  0  0  0  0
  131.3892  124.8249   56.9554 H   0  0  0  0  0  0  0  0  0  0  0  0
  131.6300  127.7370   56.3200 H   0  0  0  0  0  0  0  0  0  0  0  0
  131.7383  130.0740   57.2999 H   0  0  0  0  0  0  0  0  0  0  0  0
  132.3622  132.4268   56.7722 H   0  0  0  0  0  0  0  0  0  0  0  0
  131.0564  133.7059   55.0791 H   0  0  0  0  0  0  0  0  0  0  0  0
  129.1371  132.6424   53.9041 H   0  0  0  0  0  0  0  0  0  0  0  0
  128.5089  130.2894   54.4306 H   0  0  0  0  0  0  0  0  0  0  0  0
  126.5184  126.1929   56.8734 H   0  0  0  0  0  0  0  0  0  0  0  0
  128.8838  122.4759   59.0951 H   0  0  0  0  0  0  0  0  0  0  0  0
  128.5814  124.0735   59.8445 H   0  0  0  0  0  0  0  0  0  0  0  0
  133.8067  122.6592   61.5144 H   0  0  0  0  0  0  0  0  0  0  0  0
  132.3852  121.5538   61.2821 H   0  0  0  0  0  0  0  0  0  0  0  0
  133.5860  122.0015   59.1406 H   0  0  0  0  0  0  0  0  0  0  0  0
  131.8822  122.6042   59.1268 H   0  0  0  0  0  0  0  0  0  0  0  0
  1  2  1  0
  2  3  1  0
  3  4  1  0
  4  5  1  0
  5  6  1  0
  6  7  1  0
  7  8  2  0
  7  9  1  0
  9 10  1  0
 10 11  1  0
 11 12  1  0
 12 13  1  0
 13 14  1  0
 14 15  2  0
 14 16  2  0
 14 17  1  0
 17 18  2  0
 18 19  1  0
 19 20  2  0
 20 21  1  0
 21 22  1  0
 22 23  1  0
 23 24  2  0
 24 25  1  0
 25 26  2  0
 26 27  1  0
 27 28  2  0
 22 29  2  0
 29 30  1  0
 30 31  2  0
 13 32  1  0
  5 33  1  0
 33 34  1  0
 34  2  1  0
 32  9  1  0
 31 17  1  0
 30 20  1  0
 28 23  1  0
  1 35  1  0
  1 36  1  0
  1 37  1  0
  2 38  1  1
  3 39  1  0
  3 40  1  0
  4 41  1  0
  4 42  1  0
  5 43  1  1
  6 44  1  0
  9 45  1  6
 10 46  1  0
 10 47  1  0
 11 48  1  0
 11 49  1  0
 12 50  1  0
 12 51  1  0
 18 52  1  0
 19 53  1  0
 21 54  1  0
 24 55  1  0
 25 56  1  0
 26 57  1  0
 27 58  1  0
 28 59  1  0
 31 60  1  0
 32 61  1  0
 32 62  1  0
 33 63  1  0
 33 64  1  0
 34 65  1  0
 34 66  1  0
M  END
>  <Binding energies>  (1) 
[-10.57]

>  <Ligand effiencies>  (1) 
[-0.2936111111111111]

>  <Interactions>  (1) 
["V-A:ASP:366:CA:3210, V-A:ILE:369:CB:3236, V-A:ASP:366:CG:3213, V-B:MET:535:CE:9807, V-B:TYR:539:CE2:9848, V-A:ASP:366:CB:3212, V-B:TYR:539:CZ:9849, V-A:ASP:366:C:3208, H-A:TYR:531:OH:4795, V-A:ILE:369:CG2:3237, V-B:TYR:539:CD2:9846, V-A:LEU:475:CD2:4259, H-B:TYR:531:OH:9767, V-B:TYR:539:CE1:9847, H-B:TYR:539:N:9842, V-B:PRO:540:CB:9857, V-B:PRO:540:CA:9855, V-A:ILE:369:CD1:3239, V-B:GLU:543:CD:9880, V-A:PRO:540:CB:4885, V-B:PRO:540:C:9853, V-A:ILE:538:CA:4860, V-A:ILE:538:CB:4862, V-A:PRO:540:N:4884, V-A:ILE:538:CG2:4863, V-B:GLU:543:CG:9879, H-A:TYR:484:OH:4348"]

$$$$
RR11_Rahimova_2017
     RDKit          3D

 55 60  0  0  0  0  0  0  0  0999 V2000
  131.7410  116.1270   60.2610 N   0  0  0  0  0  0  0  0  0  0  0  0
  131.2630  117.4100   60.5200 C   0  0  0  0  0  0  0  0  0  0  0  0
  130.1270  117.5810   61.3090 C   0  0  0  0  0  0  0  0  0  0  0  0
  129.6520  118.8630   61.5700 C   0  0  0  0  0  0  0  0  0  0  0  0
  130.3070  119.9850   61.0460 C   0  0  0  0  0  0  0  0  0  0  0  0
  129.7970  121.3660   61.3330 C   0  0  0  0  0  0  0  0  0  0  0  0
  130.3610  122.2070   62.1720 N   0  0  0  0  0  0  0  0  0  0  0  0
  129.5920  123.3400   62.1220 C   0  0  0  0  0  0  0  0  0  0  0  0
  129.7480  124.5490   62.8140 C   0  0  0  0  0  0  0  0  0  0  0  0
  128.8290  125.5770   62.5750 C   0  0  0  0  0  0  0  0  0  0  0  0
  128.9700  126.8990   63.3160 C   0  0  0  0  0  0  0  0  0  0  0  0
  128.6860  128.1070   62.4340 C   0  0  0  0  0  0  0  0  0  0  0  0
  128.8300  127.9960   61.0470 C   0  0  0  0  0  0  0  0  0  0  0  0
  128.5720  129.0720   60.1960 C   0  0  0  0  0  0  0  0  0  0  0  0
  128.1560  130.2810   60.7680 C   0  0  0  0  0  0  0  0  0  0  0  0
  127.8520  131.4710   60.1590 N   0  0  0  0  0  0  0  0  0  0  0  0
  127.5230  132.2880   61.1360 C   0  0  0  0  0  0  0  0  0  0  0  0
  127.1250  133.7230   60.9460 C   0  0  0  0  0  0  0  0  0  0  0  0
  128.0120  134.7560   61.2770 C   0  0  0  0  0  0  0  0  0  0  0  0
  127.6400  136.0880   61.1110 C   0  0  0  0  0  0  0  0  0  0  0  0
  126.3770  136.3960   60.6100 C   0  0  0  0  0  0  0  0  0  0  0  0
  126.0020  137.7290   60.4470 N   0  0  0  0  0  0  0  0  0  0  0  0
  125.4870  135.3800   60.2720 C   0  0  0  0  0  0  0  0  0  0  0  0
  125.8600  134.0490   60.4390 C   0  0  0  0  0  0  0  0  0  0  0  0
  127.5930  131.6730   62.3680 N   0  0  0  0  0  0  0  0  0  0  0  0
  128.0030  130.3750   62.1710 C   0  0  0  0  0  0  0  0  0  0  0  0
  128.2530  129.3000   63.0280 C   0  0  0  0  0  0  0  0  0  0  0  0
  127.7640  125.3890   61.6860 C   0  0  0  0  0  0  0  0  0  0  0  0
  127.5780  124.1950   60.9850 C   0  0  0  0  0  0  0  0  0  0  0  0
  128.5120  123.1830   61.2210 C   0  0  0  0  0  0  0  0  0  0  0  0
  128.6760  121.9060   60.7370 N   0  0  0  0  0  0  0  0  0  0  0  0
  131.4480  119.7990   60.2530 C   0  0  0  0  0  0  0  0  0  0  0  0
  131.9250  118.5170   59.9910 C   0  0  0  0  0  0  0  0  0  0  0  0
  132.6340  115.8430   60.6390 H   0  0  0  0  0  0  0  0  0  0  0  0
  131.1710  115.4830   59.7320 H   0  0  0  0  0  0  0  0  0  0  0  0
  129.6071  116.7051   61.7244 H   0  0  0  0  0  0  0  0  0  0  0  0
  128.7551  118.9962   62.1927 H   0  0  0  0  0  0  0  0  0  0  0  0
  130.5733  124.6865   63.5281 H   0  0  0  0  0  0  0  0  0  0  0  0
  128.2630  126.9059   64.1587 H   0  0  0  0  0  0  0  0  0  0  0  0
  130.0134  126.9768   63.6556 H   0  0  0  0  0  0  0  0  0  0  0  0
  129.1545  127.0372   60.6164 H   0  0  0  0  0  0  0  0  0  0  0  0
  128.6920  128.9732   59.1070 H   0  0  0  0  0  0  0  0  0  0  0  0
  129.0099  134.5131   61.6710 H   0  0  0  0  0  0  0  0  0  0  0  0
  128.3409  136.8938   61.3745 H   0  0  0  0  0  0  0  0  0  0  0  0
  125.2950  138.1250   61.0510 H   0  0  0  0  0  0  0  0  0  0  0  0
  126.4660  138.2940   59.7500 H   0  0  0  0  0  0  0  0  0  0  0  0
  124.4920  135.6282   59.8741 H   0  0  0  0  0  0  0  0  0  0  0  0
  125.1563  133.2472   60.1709 H   0  0  0  0  0  0  0  0  0  0  0  0
  127.3780  132.1420   63.2360 H   0  0  0  0  0  0  0  0  0  0  0  0
  128.1165  129.3861   64.1161 H   0  0  0  0  0  0  0  0  0  0  0  0
  127.0484  126.2105   61.5341 H   0  0  0  0  0  0  0  0  0  0  0  0
  126.7408  124.0588   60.2846 H   0  0  0  0  0  0  0  0  0  0  0  0
  128.1100  121.4090   60.0660 H   0  0  0  0  0  0  0  0  0  0  0  0
  131.9704  120.6720   59.8346 H   0  0  0  0  0  0  0  0  0  0  0  0
  132.8213  118.3783   59.3686 H   0  0  0  0  0  0  0  0  0  0  0  0
  1  2  1  0
  2  3  2  0
  3  4  1  0
  4  5  2  0
  5  6  1  0
  6  7  2  0
  7  8  1  0
  8  9  2  0
  9 10  1  0
 10 11  1  0
 11 12  1  0
 12 13  2  0
 13 14  1  0
 14 15  2  0
 15 16  1  0
 16 17  2  0
 17 18  1  0
 18 19  2  0
 19 20  1  0
 20 21  2  0
 21 22  1  0
 21 23  1  0
 23 24  2  0
 17 25  1  0
 25 26  1  0
 26 27  2  0
 10 28  2  0
 28 29  1  0
 29 30  2  0
 30 31  1  0
  5 32  1  0
 32 33  2  0
 33  2  1  0
 31  6  1  0
 30  8  1  0
 27 12  1  0
 26 15  1  0
 24 18  1  0
  1 34  1  0
  1 35  1  0
  3 36  1  0
  4 37  1  0
  9 38  1  0
 11 39  1  0
 11 40  1  0
 13 41  1  0
 14 42  1  0
 19 43  1  0
 20 44  1  0
 22 45  1  0
 22 46  1  0
 23 47  1  0
 24 48  1  0
 25 49  1  0
 27 50  1  0
 28 51  1  0
 29 52  1  0
 31 53  1  0
 32 54  1  0
 33 55  1  0
M  END
>  <Binding energies>  (1) 
[-7.99]

>  <Ligand effiencies>  (1) 
[-0.20487179487179488]

>  <Interactions>  (1) 
["V-A:ALA:541:CB:4892, V-B:LEU:475:CD2:9231, V-B:TYR:539:CE2:9848, V-A:GLU:543:CD:4908, H-B:TYR:484:OH:9320, V-A:GLU:543:CG:4907, V-A:TYR:539:CE1:4875, V-B:TYR:539:CD2:9846, V-A:LEU:475:CD2:4259, V-A:TYR:484:CZ:4347, V-B:TYR:539:C:9839, V-B:PRO:540:CA:9855, V-A:TYR:539:CD1:4873, V-A:TYR:539:C:4867, V-A:PRO:540:C:4881, V-B:GLU:543:CD:9880, V-A:LEU:475:CD1:4258, V-B:ALA:541:CB:9864, H-A:TYR:484:OH:4348, V-B:SER:385:CB:8381, V-A:ALA:541:CA:4890, H-B:TYR:539:O:9840, V-B:HIS:383:CD2:8364, V-A:SER:385:CB:3409, V-B:PRO:482:CB:9298, V-B:PRO:482:CG:9299, H-B:SER:385:OG:8382, V-A:PRO:482:CB:4326, V-A:LEU:475:CG:4257, V-A:HIS:383:CE1:3394, V-A:PRO:482:CG:4327, H-A:SER:385:OG:3410, H-A:CYS:476:O:4266"]

$$$$
RR11_Rahimova_2017-again1
     RDKit          3D

 56 61  0  0  0  0  0  0  0  0999 V2000
  130.1890  115.8110   60.5450 N   0  0  0  0  0  0  0  0  0  0  0  0
  130.4620  117.1770   60.6040 C   0  0  0  0  0  0  0  0  0  0  0  0
  129.6710  118.0100   61.3920 C   0  0  0  0  0  0  0  0  0  0  0  0
  129.9430  119.3750   61.4470 C   0  0  0  0  0  0  0  0  0  0  0  0
  131.0070  119.9170   60.7140 C   0  0  0  0  0  0  0  0  0  0  0  0
  131.2950  121.3900   60.7670 C   0  0  0  0  0  0  0  0  0  0  0  0
  132.0460  121.9670   61.6780 N   0  0  0  0  0  0  0  0  0  0  0  0
  132.0250  123.3030   61.3720 C   0  0  0  0  0  0  0  0  0  0  0  0
  132.6540  124.3720   62.0220 C   0  0  0  0  0  0  0  0  0  0  0  0
  132.4620  125.6570   61.5130 C   0  0  0  0  0  0  0  0  0  0  0  0
  131.6630  125.8880   60.3870 C   0  0  0  0  0  0  0  0  0  0  0  0
  131.4830  127.3110   59.8770 C   0  0  0  0  0  0  0  0  0  0  0  0
  130.3560  128.0500   60.5840 C   0  0  0  0  0  0  0  0  0  0  0  0
  129.9790  129.3230   60.1410 C   0  0  0  0  0  0  0  0  0  0  0  0
  128.9540  130.0500   60.7520 C   0  0  0  0  0  0  0  0  0  0  0  0
  128.3130  129.4400   61.8340 C   0  0  0  0  0  0  0  0  0  0  0  0
  127.2850  129.8700   62.6630 N   0  0  0  0  0  0  0  0  0  0  0  0
  127.0010  128.9050   63.6020 C   0  0  0  0  0  0  0  0  0  0  0  0
  125.9760  128.9810   64.6870 C   0  0  0  0  0  0  0  0  0  0  0  0
  126.2750  128.5060   65.9700 C   0  0  0  0  0  0  0  0  0  0  0  0
  125.3260  128.5830   66.9870 C   0  0  0  0  0  0  0  0  0  0  0  0
  124.0730  129.1340   66.7240 C   0  0  0  0  0  0  0  0  0  0  0  0
  123.1260  129.2140   67.7440 N   0  0  0  0  0  0  0  0  0  0  0  0
  123.7650  129.6080   65.4500 C   0  0  0  0  0  0  0  0  0  0  0  0
  124.7140  129.5320   64.4340 C   0  0  0  0  0  0  0  0  0  0  0  0
  127.8560  127.8570   63.3520 N   0  0  0  0  0  0  0  0  0  0  0  0
  128.6770  128.1570   62.2750 C   0  0  0  0  0  0  0  0  0  0  0  0
  129.6990  127.4310   61.6560 C   0  0  0  0  0  0  0  0  0  0  0  0
  131.0430  124.8320   59.7060 C   0  0  0  0  0  0  0  0  0  0  0  0
  131.2330  123.5500   60.2250 C   0  0  0  0  0  0  0  0  0  0  0  0
  130.7880  122.3000   59.8630 N   0  0  0  0  0  0  0  0  0  0  0  0
  131.7950  119.0670   59.9260 C   0  0  0  0  0  0  0  0  0  0  0  0
  131.5250  117.7020   59.8710 C   0  0  0  0  0  0  0  0  0  0  0  0
  130.6410  115.1860   61.1970 H   0  0  0  0  0  0  0  0  0  0  0  0
  129.5740  115.4580   59.8260 H   0  0  0  0  0  0  0  0  0  0  0  0
  128.8337  117.5909   61.9693 H   0  0  0  0  0  0  0  0  0  0  0  0
  129.3183  120.0319   62.0701 H   0  0  0  0  0  0  0  0  0  0  0  0
  133.2820  124.2034   62.9092 H   0  0  0  0  0  0  0  0  0  0  0  0
  132.9503  126.5091   62.0085 H   0  0  0  0  0  0  0  0  0  0  0  0
  132.4207  127.8634   60.0368 H   0  0  0  0  0  0  0  0  0  0  0  0
  131.2230  127.2511   58.8098 H   0  0  0  0  0  0  0  0  0  0  0  0
  130.5070  129.7658   59.2836 H   0  0  0  0  0  0  0  0  0  0  0  0
  128.6662  131.0514   60.3994 H   0  0  0  0  0  0  0  0  0  0  0  0
  126.7940  130.7510   62.6260 H   0  0  0  0  0  0  0  0  0  0  0  0
  127.2638  128.0701   66.1757 H   0  0  0  0  0  0  0  0  0  0  0  0
  125.5647  128.2103   67.9940 H   0  0  0  0  0  0  0  0  0  0  0  0
  122.2260  129.6330   67.5560 H   0  0  0  0  0  0  0  0  0  0  0  0
  123.3600  128.8790   68.6670 H   0  0  0  0  0  0  0  0  0  0  0  0
  122.7743  130.0412   65.2476 H   0  0  0  0  0  0  0  0  0  0  0  0
  124.4713  129.9064   63.4285 H   0  0  0  0  0  0  0  0  0  0  0  0
  127.8510  127.0130   63.9060 H   0  0  0  0  0  0  0  0  0  0  0  0
  129.9745  126.4213   61.9945 H   0  0  0  0  0  0  0  0  0  0  0  0
  130.4355  125.0049   58.8054 H   0  0  0  0  0  0  0  0  0  0  0  0
  130.1900  122.0420   59.0920 H   0  0  0  0  0  0  0  0  0  0  0  0
  132.6332  119.4813   59.3465 H   0  0  0  0  0  0  0  0  0  0  0  0
  132.1483  117.0405   59.2514 H   0  0  0  0  0  0  0  0  0  0  0  0
  1  2  1  0
  2  3  2  0
  3  4  1  0
  4  5  2  0
  5  6  1  0
  6  7  2  0
  7  8  1  0
  8  9  2  0
  9 10  1  0
 10 11  2  0
 11 12  1  0
 12 13  1  0
 13 14  2  0
 14 15  1  0
 15 16  2  0
 16 17  1  0
 17 18  1  0
 18 19  1  0
 19 20  2  0
 20 21  1  0
 21 22  2  0
 22 23  1  0
 22 24  1  0
 24 25  2  0
 18 26  2  0
 26 27  1  0
 27 28  2  0
 11 29  1  0
 29 30  2  0
 30 31  1  0
  5 32  1  0
 32 33  2  0
 33  2  1  0
 31  6  1  0
 30  8  1  0
 28 13  1  0
 27 16  1  0
 25 19  1  0
  1 34  1  0
  1 35  1  0
  3 36  1  0
  4 37  1  0
  9 38  1  0
 10 39  1  0
 12 40  1  0
 12 41  1  0
 14 42  1  0
 15 43  1  0
 17 44  1  0
 20 45  1  0
 21 46  1  0
 23 47  1  0
 23 48  1  0
 24 49  1  0
 25 50  1  0
 26 51  1  0
 28 52  1  0
 29 53  1  0
 31 54  1  0
 32 55  1  0
 33 56  1  0
M  CHG  1  26   1
M  END
>  <Binding energies>  (1) 
[-7.8]

>  <Ligand effiencies>  (1) 
[-0.195]

>  <Interactions>  (1) 
["V-A:ASP:366:CG:3213, V-B:TYR:539:CE2:9848, V-A:ASP:366:CB:3212, V-A:GLU:543:CD:4908, H-B:TYR:484:OH:9320, V-B:ARG:545:CZ:9898, V-B:TYR:539:CD2:9846, V-A:ARG:545:CZ:4926, V-A:LEU:475:CD2:4259, H-B:GLU:543:OE2:9882, V-B:GLU:543:CD:9880, H-B:GLU:543:OE1:9881, V-A:LEU:475:CD1:4258, V-B:ALA:541:CB:9864, V-B:GLY:454:CA:9021, H-A:TYR:484:OH:4348, V-B:ARG:545:CD:9895, V-B:ARG:545:CG:9894, V-B:HIS:456:CE1:9042, H-B:TYR:539:O:9840, V-B:GLY:453:C:9014, V-A:SER:385:CB:3409, V-B:ILE:455:C:9024, V-B:GLY:453:CA:9016, V-B:VAL:344:CG1:7973, V-A:PRO:482:CB:4326, V-A:LEU:475:CG:4257, V-A:HIS:383:CE1:3394, V-A:PRO:482:CG:4327, V-B:ARG:545:CB:9893, H-A:CYS:476:O:4266, H-B:ILE:455:O:9025"]

$$$$
RR11_Rahimova_2017-again2
     RDKit          3D

 57 62  0  0  0  0  0  0  0  0999 V2000
  130.2820  115.7990   60.6680 N   0  0  0  0  0  0  0  0  0  0  0  0
  130.5250  117.1710   60.6740 C   0  0  0  0  0  0  0  0  0  0  0  0
  131.5660  117.6950   59.9120 C   0  0  0  0  0  0  0  0  0  0  0  0
  131.8120  119.0660   59.9230 C   0  0  0  0  0  0  0  0  0  0  0  0
  131.0170  119.9200   60.6980 C   0  0  0  0  0  0  0  0  0  0  0  0
  131.2870  121.3890   60.7190 C   0  0  0  0  0  0  0  0  0  0  0  0
  130.7540  122.3360   59.8740 N   0  0  0  0  0  0  0  0  0  0  0  0
  131.2240  123.5970   60.2150 C   0  0  0  0  0  0  0  0  0  0  0  0
  130.9720  124.8610   59.6740 C   0  0  0  0  0  0  0  0  0  0  0  0
  131.6090  125.9500   60.2830 C   0  0  0  0  0  0  0  0  0  0  0  0
  131.3690  127.3530   59.7410 C   0  0  0  0  0  0  0  0  0  0  0  0
  130.3210  128.1210   60.5350 C   0  0  0  0  0  0  0  0  0  0  0  0
  130.0990  129.4740   60.2560 C   0  0  0  0  0  0  0  0  0  0  0  0
  129.1510  130.2300   60.9510 C   0  0  0  0  0  0  0  0  0  0  0  0
  128.4260  129.5670   61.9440 C   0  0  0  0  0  0  0  0  0  0  0  0
  127.4370  130.0050   62.8140 N   0  0  0  0  0  0  0  0  0  0  0  0
  127.0260  128.9700   63.6220 C   0  0  0  0  0  0  0  0  0  0  0  0
  125.9940  129.0290   64.7010 C   0  0  0  0  0  0  0  0  0  0  0  0
  126.2910  128.5670   65.9880 C   0  0  0  0  0  0  0  0  0  0  0  0
  125.3330  128.6320   66.9970 C   0  0  0  0  0  0  0  0  0  0  0  0
  124.0730  129.1590   66.7230 C   0  0  0  0  0  0  0  0  0  0  0  0
  123.1160  129.2300   67.7340 N   0  0  0  0  0  0  0  0  0  0  0  0
  123.7650  129.6190   65.4430 C   0  0  0  0  0  0  0  0  0  0  0  0
  124.7230  129.5550   64.4360 C   0  0  0  0  0  0  0  0  0  0  0  0
  127.7600  127.8690   63.2450 N   0  0  0  0  0  0  0  0  0  0  0  0
  128.6340  128.2060   62.2190 C   0  0  0  0  0  0  0  0  0  0  0  0
  129.5780  127.4520   61.5170 C   0  0  0  0  0  0  0  0  0  0  0  0
  132.4800  125.7690   61.3640 C   0  0  0  0  0  0  0  0  0  0  0  0
  132.7410  124.5070   61.9040 C   0  0  0  0  0  0  0  0  0  0  0  0
  132.0890  123.4240   61.3080 C   0  0  0  0  0  0  0  0  0  0  0  0
  132.1080  122.0650   61.5920 N   0  0  0  0  0  0  0  0  0  0  0  0
  129.9700  119.3830   61.4570 C   0  0  0  0  0  0  0  0  0  0  0  0
  129.7240  118.0120   61.4460 C   0  0  0  0  0  0  0  0  0  0  0  0
  129.6660  115.4060   59.9700 H   0  0  0  0  0  0  0  0  0  0  0  0
  130.6700  115.2200   61.3990 H   0  0  0  0  0  0  0  0  0  0  0  0
  132.1929  117.0275   59.3025 H   0  0  0  0  0  0  0  0  0  0  0  0
  132.6341  119.4798   59.3205 H   0  0  0  0  0  0  0  0  0  0  0  0
  130.1110  122.0990   59.1340 H   0  0  0  0  0  0  0  0  0  0  0  0
  130.3044  124.9944   58.8100 H   0  0  0  0  0  0  0  0  0  0  0  0
  132.3164  127.9108   59.7778 H   0  0  0  0  0  0  0  0  0  0  0  0
  130.9954  127.2509   58.7115 H   0  0  0  0  0  0  0  0  0  0  0  0
  130.6895  129.9582   59.4643 H   0  0  0  0  0  0  0  0  0  0  0  0
  128.9841  131.2940   60.7272 H   0  0  0  0  0  0  0  0  0  0  0  0
  127.0490  130.9340   62.8870 H   0  0  0  0  0  0  0  0  0  0  0  0
  127.2859  128.1504   66.2039 H   0  0  0  0  0  0  0  0  0  0  0  0
  125.5708  128.2682   68.0075 H   0  0  0  0  0  0  0  0  0  0  0  0
  123.3360  128.8780   68.6540 H   0  0  0  0  0  0  0  0  0  0  0  0
  122.1910  129.5720   67.5180 H   0  0  0  0  0  0  0  0  0  0  0  0
  122.7676  130.0312   65.2301 H   0  0  0  0  0  0  0  0  0  0  0  0
  124.4811  129.9193   63.4267 H   0  0  0  0  0  0  0  0  0  0  0  0
  127.6500  126.9680   63.6880 H   0  0  0  0  0  0  0  0  0  0  0  0
  129.7309  126.3828   61.7255 H   0  0  0  0  0  0  0  0  0  0  0  0
  132.9747  126.6483   61.8022 H   0  0  0  0  0  0  0  0  0  0  0  0
  133.4249  124.3727   62.7550 H   0  0  0  0  0  0  0  0  0  0  0  0
  132.6250  121.5950   62.3200 H   0  0  0  0  0  0  0  0  0  0  0  0
  129.3384  120.0473   62.0651 H   0  0  0  0  0  0  0  0  0  0  0  0
  128.9008  117.5941   62.0441 H   0  0  0  0  0  0  0  0  0  0  0  0
  1  2  1  0
  2  3  2  0
  3  4  1  0
  4  5  2  0
  5  6  1  0
  6  7  1  0
  7  8  1  0
  8  9  2  0
  9 10  1  0
 10 11  1  0
 11 12  1  0
 12 13  2  0
 13 14  1  0
 14 15  2  0
 15 16  1  0
 16 17  1  0
 17 18  1  0
 18 19  2  0
 19 20  1  0
 20 21  2  0
 21 22  1  0
 21 23  1  0
 23 24  2  0
 17 25  2  0
 25 26  1  0
 26 27  2  0
 10 28  2  0
 28 29  1  0
 29 30  2  0
 30 31  1  0
  5 32  1  0
 32 33  2  0
 33  2  1  0
 31  6  2  0
 30  8  1  0
 27 12  1  0
 26 15  1  0
 24 18  1  0
  1 34  1  0
  1 35  1  0
  3 36  1  0
  4 37  1  0
  7 38  1  0
  9 39  1  0
 11 40  1  0
 11 41  1  0
 13 42  1  0
 14 43  1  0
 16 44  1  0
 19 45  1  0
 20 46  1  0
 22 47  1  0
 22 48  1  0
 23 49  1  0
 24 50  1  0
 25 51  1  0
 27 52  1  0
 28 53  1  0
 29 54  1  0
 31 55  1  0
 32 56  1  0
 33 57  1  0
M  CHG  2  25   1  31   1
M  END
>  <Binding energies>  (1) 
[-7.74]

>  <Ligand effiencies>  (1) 
[-0.18878048780487805]

>  <Interactions>  (1) 
["V-A:ASP:366:CG:3213, V-B:TYR:539:CE2:9848, V-A:ASP:366:CB:3212, V-A:GLU:543:CD:4908, H-B:TYR:484:OH:9320, V-B:ARG:545:CZ:9898, V-B:TYR:539:CD2:9846, V-A:ARG:545:CZ:4926, V-A:LEU:475:CD2:4259, H-B:GLU:543:OE2:9882, V-B:GLU:543:CD:9880, H-B:GLU:543:OE1:9881, V-A:LEU:475:CD1:4258, V-B:ALA:541:CB:9864, V-B:GLY:454:CA:9021, H-A:TYR:484:OH:4348, V-B:ARG:545:CD:9895, V-B:ARG:545:CG:9894, V-B:HIS:456:CE1:9042, H-B:TYR:539:O:9840, V-B:GLY:453:C:9014, V-A:SER:385:CB:3409, V-B:ILE:455:C:9024, V-B:GLY:453:CA:9016, V-B:VAL:344:CG1:7973, V-A:PRO:482:CB:4326, V-A:LEU:475:CG:4257, V-A:HIS:383:CE1:3394, V-A:PRO:482:CG:4327, V-B:ARG:545:CB:9893, H-A:CYS:476:O:4266, H-B:ILE:455:O:9025"]

$$$$
RR12_Rahimova_2017
     RDKit          3D

 51 53  0  0  0  0  0  0  0  0999 V2000
  133.7800  122.1360   61.5810 C   0  0  0  0  0  0  0  0  0  0  0  0
  133.3260  120.9940   60.6630 C   0  0  0  0  0  0  0  0  0  0  0  0
  131.8500  121.1220   60.2450 C   0  0  0  0  0  0  0  0  0  0  0  0
  131.1100  119.9060   60.5760 N   0  0  0  0  0  0  0  0  0  0  0  0
  130.1570  119.7420   61.5680 C   0  0  0  0  0  0  0  0  0  0  0  0
  129.7470  120.8350   62.5400 C   0  0  0  0  0  0  0  0  0  0  0  0
  129.2430  122.1000   61.8200 C   0  0  0  0  0  0  0  0  0  0  0  0
  128.2790  121.7820   60.6620 C   0  0  0  0  0  0  0  0  0  0  0  0
  127.6010  122.9580   60.1180 N   0  0  0  0  0  0  0  0  0  0  0  0
  126.5200  123.5460   60.6620 C   0  0  0  0  0  0  0  0  0  0  0  0
  125.9780  123.1420   61.6930 O   0  0  0  0  0  0  0  0  0  0  0  0
  125.9880  124.7760   59.9160 C   0  0  0  0  0  0  0  0  0  0  0  0
  126.6390  124.8840   58.6490 O   0  0  0  0  0  0  0  0  0  0  0  0
  126.2900  124.0140   57.6330 C   0  0  0  0  0  0  0  0  0  0  0  0
  124.9820  123.5250   57.6570 C   0  0  0  0  0  0  0  0  0  0  0  0
  124.5380  122.6450   56.6730 C   0  0  0  0  0  0  0  0  0  0  0  0
  125.4060  122.2520   55.6580 C   0  0  0  0  0  0  0  0  0  0  0  0
  126.7140  122.7280   55.6200 C   0  0  0  0  0  0  0  0  0  0  0  0
  127.1580  123.6070   56.6050 C   0  0  0  0  0  0  0  0  0  0  0  0
  129.6470  118.5350   61.6040 N   0  0  0  0  0  0  0  0  0  0  0  0
  130.2590  117.8650   60.5820 C   0  0  0  0  0  0  0  0  0  0  0  0
  130.0760  116.5390   60.1620 C   0  0  0  0  0  0  0  0  0  0  0  0
  130.8240  116.0850   59.0750 C   0  0  0  0  0  0  0  0  0  0  0  0
  131.7290  116.9200   58.4190 C   0  0  0  0  0  0  0  0  0  0  0  0
  131.9340  118.2430   58.8130 C   0  0  0  0  0  0  0  0  0  0  0  0
  131.1840  118.6980   59.9050 C   0  0  0  0  0  0  0  0  0  0  0  0
  133.6592  121.8322   62.6313 H   0  0  0  0  0  0  0  0  0  0  0  0
  134.8378  122.3656   61.3850 H   0  0  0  0  0  0  0  0  0  0  0  0
  133.1686  123.0292   61.3850 H   0  0  0  0  0  0  0  0  0  0  0  0
  133.9505  121.0004   59.7575 H   0  0  0  0  0  0  0  0  0  0  0  0
  133.4334  120.0534   61.2231 H   0  0  0  0  0  0  0  0  0  0  0  0
  131.3981  121.9744   60.7734 H   0  0  0  0  0  0  0  0  0  0  0  0
  131.8037  121.2780   59.1571 H   0  0  0  0  0  0  0  0  0  0  0  0
  128.9428  120.4512   63.1850 H   0  0  0  0  0  0  0  0  0  0  0  0
  130.6348  121.1134   63.1267 H   0  0  0  0  0  0  0  0  0  0  0  0
  128.7189  122.7347   62.5497 H   0  0  0  0  0  0  0  0  0  0  0  0
  130.1190  122.6093   61.3920 H   0  0  0  0  0  0  0  0  0  0  0  0
  128.8537  121.3078   59.8527 H   0  0  0  0  0  0  0  0  0  0  0  0
  127.4985  121.1214   61.0674 H   0  0  0  0  0  0  0  0  0  0  0  0
  127.9910  123.3480   59.2720 H   0  0  0  0  0  0  0  0  0  0  0  0
  124.9037  124.6714   59.7632 H   0  0  0  0  0  0  0  0  0  0  0  0
  126.1895  125.6799   60.5096 H   0  0  0  0  0  0  0  0  0  0  0  0
  124.2972  123.8373   58.4592 H   0  0  0  0  0  0  0  0  0  0  0  0
  123.5069  122.2625   56.6977 H   0  0  0  0  0  0  0  0  0  0  0  0
  125.0553  121.5591   54.8789 H   0  0  0  0  0  0  0  0  0  0  0  0
  127.3938  122.4111   54.8154 H   0  0  0  0  0  0  0  0  0  0  0  0
  128.1911  123.9839   56.5784 H   0  0  0  0  0  0  0  0  0  0  0  0
  129.3634  115.8763   60.6748 H   0  0  0  0  0  0  0  0  0  0  0  0
  130.6977  115.0486   58.7286 H   0  0  0  0  0  0  0  0  0  0  0  0
  132.2982  116.5235   57.5653 H   0  0  0  0  0  0  0  0  0  0  0  0
  132.6492  118.8962   58.2917 H   0  0  0  0  0  0  0  0  0  0  0  0
  1  2  1  0
  2  3  1  0
  3  4  1  0
  4  5  1  0
  5  6  1  0
  6  7  1  0
  7  8  1  0
  8  9  1  0
  9 10  1  0
 10 11  2  0
 10 12  1  0
 12 13  1  0
 13 14  1  0
 14 15  2  0
 15 16  1  0
 16 17  2  0
 17 18  1  0
 18 19  2  0
  5 20  2  0
 20 21  1  0
 21 22  2  0
 22 23  1  0
 23 24  2  0
 24 25  1  0
 25 26  2  0
 26  4  1  0
 19 14  1  0
 26 21  1  0
  1 27  1  0
  1 28  1  0
  1 29  1  0
  2 30  1  0
  2 31  1  0
  3 32  1  0
  3 33  1  0
  6 34  1  0
  6 35  1  0
  7 36  1  0
  7 37  1  0
  8 38  1  0
  8 39  1  0
  9 40  1  0
 12 41  1  0
 12 42  1  0
 15 43  1  0
 16 44  1  0
 17 45  1  0
 18 46  1  0
 19 47  1  0
 22 48  1  0
 23 49  1  0
 24 50  1  0
 25 51  1  0
M  END
>  <Binding energies>  (1) 
[-7.77]

>  <Ligand effiencies>  (1) 
[-0.28777777777777774]

>  <Interactions>  (1) 
["V-B:MET:535:CE:9807, V-B:TYR:539:CE2:9848, V-A:ILE:369:CG2:3237, V-B:TYR:539:CD2:9846, V-A:LEU:475:CD2:4259, H-B:TYR:531:OH:9767, V-B:TYR:539:CD1:9845, V-B:TYR:539:CG:9844, V-A:TYR:484:CZ:4347, V-B:TYR:539:C:9839, V-A:TYR:484:CE1:4345, V-B:ASP:366:CG:8185, V-B:PRO:540:CB:9857, V-B:PRO:540:CA:9855, H-B:ALA:541:N:9863, V-B:PRO:540:N:9856, V-A:ILE:369:CD1:3239, V-B:LEU:363:CD1:8161, V-B:TYR:531:CE2:9765, V-B:ILE:538:CA:9832, V-B:ILE:538:CD1:9837, V-B:PRO:540:C:9853, V-B:PRO:540:CG:9858, V-B:PRO:540:CD:9859, V-B:TYR:539:CB:9843, V-A:LEU:475:CD1:4258, V-B:ALA:541:CB:9864, V-B:ILE:538:CG2:9835, V-B:ILE:538:C:9830, V-A:SER:385:CB:3409, V-A:SER:385:C:3405, V-B:ILE:538:CB:9834, V-B:VAL:344:CG1:7973, V-A:LEU:373:CD1:3280, V-A:PRO:482:CB:4326, V-A:LEU:475:CG:4257, V-A:HIS:383:CE1:3394, V-A:PRO:482:CG:4327, V-A:LEU:373:CD2:3281, V-A:GLY:454:CA:4049"]

$$$$
RR13_Rahimova_2017
     RDKit          3D

 84 90  0  0  0  0  0  0  0  0999 V2000
  132.0300  124.1140   59.7250 Cl  0  0  0  0  0  0  0  0  0  0  0  0
  132.0030  124.7060   61.3520 C   0  0  0  0  0  0  0  0  0  0  0  0
  133.1950  124.6670   62.0790 C   0  0  0  0  0  0  0  0  0  0  0  0
  133.2330  125.1090   63.3980 C   0  0  0  0  0  0  0  0  0  0  0  0
  132.0750  125.5920   64.0020 C   0  0  0  0  0  0  0  0  0  0  0  0
  130.8820  125.6350   63.2830 C   0  0  0  0  0  0  0  0  0  0  0  0
  130.8260  125.2050   61.9480 C   0  0  0  0  0  0  0  0  0  0  0  0
  129.4860  125.2390   61.1810 C   0  0  1  0  0  0  0  0  0  0  0  0
  128.5270  124.1550   61.6970 C   0  0  0  0  0  0  0  0  0  0  0  0
  128.7520  123.3110   62.6790 N   0  0  0  0  0  0  0  0  0  0  0  0
  127.6160  122.5110   62.7620 N   0  0  0  0  0  0  0  0  0  0  0  0
  126.7050  122.8800   61.7920 N   0  0  0  0  0  0  0  0  0  0  0  0
  127.3000  123.8790   61.1320 N   0  0  0  0  0  0  0  0  0  0  0  0
  126.6090  124.5580   60.0420 C   0  0  0  0  0  0  0  0  0  0  0  0
  125.5450  123.6310   59.4260 C   0  0  0  0  0  0  0  0  0  0  0  0
  125.8730  123.2560   57.9880 C   0  0  0  0  0  0  0  0  0  0  0  0
  127.2030  123.2210   57.5630 C   0  0  0  0  0  0  0  0  0  0  0  0
  127.5020  122.8850   56.2450 C   0  0  0  0  0  0  0  0  0  0  0  0
  126.4690  122.5860   55.3580 C   0  0  0  0  0  0  0  0  0  0  0  0
  125.1410  122.6200   55.7760 C   0  0  0  0  0  0  0  0  0  0  0  0
  124.8410  122.9560   57.0940 C   0  0  0  0  0  0  0  0  0  0  0  0
  128.8570  126.5810   61.1500 N   0  0  0  0  0  0  0  0  0  0  0  0
  127.6870  126.6250   62.0470 C   0  0  0  0  0  0  0  0  0  0  0  0
  127.1070  128.0560   62.1230 C   0  0  0  0  0  0  0  0  0  0  0  0
  126.6570  128.5050   60.7950 N   0  0  0  0  0  0  0  0  0  0  0  0
  126.0180  129.8410   60.8340 C   0  0  1  0  0  0  0  0  0  0  0  0
  125.2130  130.2310   59.5760 C   0  0  0  0  0  0  0  0  0  0  0  0
  125.2140  129.3230   58.5080 C   0  0  0  0  0  0  0  0  0  0  0  0
  124.5010  129.5850   57.3390 C   0  0  0  0  0  0  0  0  0  0  0  0
  123.7770  130.7670   57.2170 C   0  0  0  0  0  0  0  0  0  0  0  0
  123.7750  131.6900   58.2590 C   0  0  0  0  0  0  0  0  0  0  0  0
  124.4900  131.4390   59.4340 C   0  0  0  0  0  0  0  0  0  0  0  0
  124.4820  132.6790   60.6430 Cl  0  0  0  0  0  0  0  0  0  0  0  0
  125.1730  130.0660   62.0900 C   0  0  0  0  0  0  0  0  0  0  0  0
  124.1210  129.3610   62.4370 N   0  0  0  0  0  0  0  0  0  0  0  0
  123.6820  129.8980   63.6430 N   0  0  0  0  0  0  0  0  0  0  0  0
  124.5040  130.9370   64.0250 N   0  0  0  0  0  0  0  0  0  0  0  0
  125.4300  131.0090   63.0620 N   0  0  0  0  0  0  0  0  0  0  0  0
  126.4720  132.0290   63.1260 C   0  0  0  0  0  0  0  0  0  0  0  0
  127.8660  131.3740   63.1100 C   0  0  0  0  0  0  0  0  0  0  0  0
  128.5690  131.5520   61.7740 C   0  0  0  0  0  0  0  0  0  0  0  0
  129.7440  130.8460   61.5040 C   0  0  0  0  0  0  0  0  0  0  0  0
  130.3840  131.0030   60.2770 C   0  0  0  0  0  0  0  0  0  0  0  0
  129.8460  131.8680   59.3250 C   0  0  0  0  0  0  0  0  0  0  0  0
  128.6740  132.5740   59.5880 C   0  0  0  0  0  0  0  0  0  0  0  0
  128.0330  132.4160   60.8140 C   0  0  0  0  0  0  0  0  0  0  0  0
  127.8300  128.4650   59.9030 C   0  0  0  0  0  0  0  0  0  0  0  0
  128.4000  127.0300   59.8230 C   0  0  0  0  0  0  0  0  0  0  0  0
  134.1109  124.2839   61.6052 H   0  0  0  0  0  0  0  0  0  0  0  0
  134.1765  125.0769   63.9627 H   0  0  0  0  0  0  0  0  0  0  0  0
  132.1019  125.9392   65.0454 H   0  0  0  0  0  0  0  0  0  0  0  0
  129.9701  126.0118   63.7692 H   0  0  0  0  0  0  0  0  0  0  0  0
  129.7199  125.0090   60.1310 H   0  0  0  0  0  0  0  0  0  0  0  0
  126.1205  125.4639   60.4302 H   0  0  0  0  0  0  0  0  0  0  0  0
  127.3411  124.8282   59.2667 H   0  0  0  0  0  0  0  0  0  0  0  0
  125.4852  122.7117   60.0271 H   0  0  0  0  0  0  0  0  0  0  0  0
  124.5866  124.1709   59.4242 H   0  0  0  0  0  0  0  0  0  0  0  0
  128.0131  123.4585   58.2683 H   0  0  0  0  0  0  0  0  0  0  0  0
  128.5479  122.8557   55.9056 H   0  0  0  0  0  0  0  0  0  0  0  0
  126.7053  122.3204   54.3170 H   0  0  0  0  0  0  0  0  0  0  0  0
  124.3328  122.3826   55.0686 H   0  0  0  0  0  0  0  0  0  0  0  0
  123.7942  122.9852   57.4307 H   0  0  0  0  0  0  0  0  0  0  0  0
  126.9138  125.9423   61.6649 H   0  0  0  0  0  0  0  0  0  0  0  0
  128.0038  126.3190   63.0550 H   0  0  0  0  0  0  0  0  0  0  0  0
  126.2524  128.0632   62.8156 H   0  0  0  0  0  0  0  0  0  0  0  0
  127.8926  128.7381   62.4801 H   0  0  0  0  0  0  0  0  0  0  0  0
  126.8843  130.5183   60.8618 H   0  0  0  0  0  0  0  0  0  0  0  0
  125.7870  128.3880   58.5938 H   0  0  0  0  0  0  0  0  0  0  0  0
  124.5108  128.8579   56.5137 H   0  0  0  0  0  0  0  0  0  0  0  0
  123.2072  130.9717   56.2986 H   0  0  0  0  0  0  0  0  0  0  0  0
  123.2056  132.6256   58.1570 H   0  0  0  0  0  0  0  0  0  0  0  0
  126.3766  132.6995   62.2592 H   0  0  0  0  0  0  0  0  0  0  0  0
  126.3563  132.5993   64.0595 H   0  0  0  0  0  0  0  0  0  0  0  0
  128.4817  131.8322   63.8980 H   0  0  0  0  0  0  0  0  0  0  0  0
  127.7342  130.2954   63.2811 H   0  0  0  0  0  0  0  0  0  0  0  0
  130.1635  130.1663   62.2603 H   0  0  0  0  0  0  0  0  0  0  0  0
  131.3085  130.4478   60.0603 H   0  0  0  0  0  0  0  0  0  0  0  0
  130.3520  131.9943   58.3565 H   0  0  0  0  0  0  0  0  0  0  0  0
  128.2568  133.2535   58.8302 H   0  0  0  0  0  0  0  0  0  0  0  0
  127.1067  132.9698   61.0269 H   0  0  0  0  0  0  0  0  0  0  0  0
  127.5308  128.7924   58.8964 H   0  0  0  0  0  0  0  0  0  0  0  0
  128.6054  129.1342   60.3042 H   0  0  0  0  0  0  0  0  0  0  0  0
  127.6160  126.3488   59.4607 H   0  0  0  0  0  0  0  0  0  0  0  0
  129.2558  127.0254   59.1319 H   0  0  0  0  0  0  0  0  0  0  0  0
  1  2  1  0
  2  3  2  0
  3  4  1  0
  4  5  2  0
  5  6  1  0
  6  7  2  0
  7  8  1  0
  8  9  1  0
  9 10  2  0
 10 11  1  0
 11 12  2  0
 12 13  1  0
 13 14  1  0
 14 15  1  0
 15 16  1  0
 16 17  2  0
 17 18  1  0
 18 19  2  0
 19 20  1  0
 20 21  2  0
  8 22  1  0
 22 23  1  0
 23 24  1  0
 24 25  1  0
 25 26  1  0
 26 27  1  0
 27 28  2  0
 28 29  1  0
 29 30  2  0
 30 31  1  0
 31 32  2  0
 32 33  1  0
 26 34  1  0
 34 35  2  0
 35 36  1  0
 36 37  2  0
 37 38  1  0
 38 39  1  0
 39 40  1  0
 40 41  1  0
 41 42  2  0
 42 43  1  0
 43 44  2  0
 44 45  1  0
 45 46  2  0
 25 47  1  0
 47 48  1  0
  7  2  1  0
 13  9  1  0
 21 16  1  0
 48 22  1  0
 32 27  1  0
 38 34  1  0
 46 41  1  0
  3 49  1  0
  4 50  1  0
  5 51  1  0
  6 52  1  0
  8 53  1  6
 14 54  1  0
 14 55  1  0
 15 56  1  0
 15 57  1  0
 17 58  1  0
 18 59  1  0
 19 60  1  0
 20 61  1  0
 21 62  1  0
 23 63  1  0
 23 64  1  0
 24 65  1  0
 24 66  1  0
 26 67  1  1
 28 68  1  0
 29 69  1  0
 30 70  1  0
 31 71  1  0
 39 72  1  0
 39 73  1  0
 40 74  1  0
 40 75  1  0
 42 76  1  0
 43 77  1  0
 44 78  1  0
 45 79  1  0
 46 80  1  0
 47 81  1  0
 47 82  1  0
 48 83  1  0
 48 84  1  0
M  END
>  <Binding energies>  (1) 
[-13.14]

>  <Ligand effiencies>  (1) 
[-0.27375]

>  <Interactions>  (1) 
["V-A:TYR:539:CZ:4877, V-A:ALA:541:CB:4892, V-B:MET:535:CE:9807, V-B:ILE:369:CG2:8209, V-B:LEU:475:CD2:9231, V-A:PRO:540:CA:4883, V-B:TYR:539:CE2:9848, V-A:GLU:543:CD:4908, V-B:TYR:539:CZ:9849, V-B:ILE:369:CD1:8211, H-B:GLY:454:N:9022, H-B:TYR:484:OH:9320, V-A:TYR:539:CE1:4875, V-A:ARG:545:CZ:4926, V-B:TYR:539:CD1:9845, V-B:TYR:539:CG:9844, V-A:TYR:484:CZ:4347, V-B:TYR:539:CE1:9847, V-B:ASP:366:CG:8185, V-B:PRO:540:CB:9857, V-B:PRO:540:CA:9855, H-B:ALA:541:N:9863, V-B:ASP:366:CB:8184, V-B:ASP:366:CA:8182, V-B:PRO:540:N:9856, V-A:TYR:539:C:4867, V-B:LEU:363:CD1:8161, V-B:TYR:531:CE2:9765, V-B:GLU:543:CD:9880, V-B:ILE:538:CA:9832, V-B:ILE:538:CD1:9837, V-B:PRO:540:CD:9859, V-B:ASP:366:C:8180, V-B:ILE:369:CB:8208, V-B:ILE:538:CG2:9835, H-A:TYR:484:OH:4348, V-B:ILE:538:C:9830, V-B:TYR:531:CE1:9764, H-B:ARG:545:NH2:9900, H-B:ARG:545:NH1:9899"]

$$$$
RR14_Rahimova_2017
     RDKit          3D

 76 80  0  0  0  0  0  0  0  0999 V2000
  131.5770  121.7450   61.7740 C   0  0  0  0  0  0  0  0  0  0  0  0
  130.2650  121.8460   62.3160 O   0  0  0  0  0  0  0  0  0  0  0  0
  129.2330  122.2790   61.5050 C   0  0  0  0  0  0  0  0  0  0  0  0
  129.3850  122.0620   60.1350 C   0  0  0  0  0  0  0  0  0  0  0  0
  128.4100  122.4860   59.2380 C   0  0  0  0  0  0  0  0  0  0  0  0
  127.2680  123.1400   59.7060 C   0  0  0  0  0  0  0  0  0  0  0  0
  126.2290  123.6640   58.7220 C   0  0  0  0  0  0  0  0  0  0  0  0
  126.4550  123.2160   57.3480 N   0  0  0  0  0  0  0  0  0  0  0  0
  125.6390  122.3170   56.7870 N   0  0  0  0  0  0  0  0  0  0  0  0
  126.1590  122.1100   55.5250 N   0  0  0  0  0  0  0  0  0  0  0  0
  127.2970  122.8890   55.3430 N   0  0  0  0  0  0  0  0  0  0  0  0
  127.4610  123.5470   56.4670 C   0  0  0  0  0  0  0  0  0  0  0  0
  128.5990  124.5170   56.7570 C   0  0  0  0  0  0  0  0  0  0  0  0
  128.1790  125.6330   57.6200 N   0  0  0  0  0  0  0  0  0  0  0  0
  129.1050  125.8380   58.7420 C   0  0  0  0  0  0  0  0  0  0  0  0
  130.5910  125.7160   58.3390 C   0  0  0  0  0  0  0  0  0  0  0  0
  131.3160  124.5230   58.9980 C   0  0  0  0  0  0  0  0  0  0  0  0
  132.1910  124.9160   60.1080 N   0  0  0  0  0  0  0  0  0  0  0  0
  133.3530  124.0220   60.1830 C   0  0  0  0  0  0  0  0  0  0  0  0
  134.2690  124.3770   61.3730 C   0  0  0  0  0  0  0  0  0  0  0  0
  133.5170  124.3880   62.5820 O   0  0  0  0  0  0  0  0  0  0  0  0
  132.4580  125.3380   62.5500 C   0  0  0  0  0  0  0  0  0  0  0  0
  131.4870  125.0110   61.3960 C   0  0  0  0  0  0  0  0  0  0  0  0
  128.0500  126.8650   56.8280 C   0  0  0  0  0  0  0  0  0  0  0  0
  127.0350  127.8860   57.3350 C   0  0  0  0  0  0  0  0  0  0  0  0
  126.7690  128.0090   58.6590 C   0  0  0  0  0  0  0  0  0  0  0  0
  125.7620  128.9610   59.1730 C   0  0  0  0  0  0  0  0  0  0  0  0
  125.4760  129.1290   60.5380 C   0  0  0  0  0  0  0  0  0  0  0  0
  126.1990  128.3240   61.6110 C   0  0  0  0  0  0  0  0  0  0  0  0
  124.5060  130.0590   60.9200 C   0  0  0  0  0  0  0  0  0  0  0  0
  123.8280  130.8140   59.9630 C   0  0  0  0  0  0  0  0  0  0  0  0
  124.1070  130.6560   58.6030 C   0  0  0  0  0  0  0  0  0  0  0  0
  123.3520  131.4970   57.5820 C   0  0  0  0  0  0  0  0  0  0  0  0
  125.0800  129.7240   58.2080 C   0  0  0  0  0  0  0  0  0  0  0  0
  125.3930  129.5280   56.8470 N   0  0  0  0  0  0  0  0  0  0  0  0
  126.3070  128.6680   56.3310 C   0  0  0  0  0  0  0  0  0  0  0  0
  126.4690  128.5870   55.1130 O   0  0  0  0  0  0  0  0  0  0  0  0
  127.0920  123.3350   61.0780 C   0  0  0  0  0  0  0  0  0  0  0  0
  128.0700  122.9120   61.9730 C   0  0  0  0  0  0  0  0  0  0  0  0
  132.3088  121.6887   62.5933 H   0  0  0  0  0  0  0  0  0  0  0  0
  131.6492  120.8386   61.1549 H   0  0  0  0  0  0  0  0  0  0  0  0
  131.7871  122.6296   61.1549 H   0  0  0  0  0  0  0  0  0  0  0  0
  130.2843  121.5508   59.7608 H   0  0  0  0  0  0  0  0  0  0  0  0
  128.5383  122.3063   58.1604 H   0  0  0  0  0  0  0  0  0  0  0  0
  125.2365  123.3157   59.0439 H   0  0  0  0  0  0  0  0  0  0  0  0
  126.3039  124.7614   58.7231 H   0  0  0  0  0  0  0  0  0  0  0  0
  129.4109  123.9694   57.2578 H   0  0  0  0  0  0  0  0  0  0  0  0
  128.9307  124.9412   55.7978 H   0  0  0  0  0  0  0  0  0  0  0  0
  128.9366  126.8439   59.1541 H   0  0  0  0  0  0  0  0  0  0  0  0
  128.9020  125.0479   59.4799 H   0  0  0  0  0  0  0  0  0  0  0  0
  130.6461  125.5958   57.2470 H   0  0  0  0  0  0  0  0  0  0  0  0
  131.0947  126.6302   58.6861 H   0  0  0  0  0  0  0  0  0  0  0  0
  130.5589  123.8231   59.3814 H   0  0  0  0  0  0  0  0  0  0  0  0
  131.9534  124.0639   58.2280 H   0  0  0  0  0  0  0  0  0  0  0  0
  132.9997  122.9870   60.3012 H   0  0  0  0  0  0  0  0  0  0  0  0
  133.9344  124.1361   59.2562 H   0  0  0  0  0  0  0  0  0  0  0  0
  135.0716  123.6288   61.4504 H   0  0  0  0  0  0  0  0  0  0  0  0
  134.7024  125.3746   61.2091 H   0  0  0  0  0  0  0  0  0  0  0  0
  131.9123  125.3068   63.5046 H   0  0  0  0  0  0  0  0  0  0  0  0
  132.8794  126.3418   62.3925 H   0  0  0  0  0  0  0  0  0  0  0  0
  130.9941  124.0502   61.6054 H   0  0  0  0  0  0  0  0  0  0  0  0
  130.7488  125.8235   61.3261 H   0  0  0  0  0  0  0  0  0  0  0  0
  129.0351  127.3538   56.8040 H   0  0  0  0  0  0  0  0  0  0  0  0
  127.6805  126.5454   55.8425 H   0  0  0  0  0  0  0  0  0  0  0  0
  127.3204  127.3801   59.3734 H   0  0  0  0  0  0  0  0  0  0  0  0
  125.8850  128.6736   62.6056 H   0  0  0  0  0  0  0  0  0  0  0  0
  125.9487  127.2585   61.5010 H   0  0  0  0  0  0  0  0  0  0  0  0
  127.2852  128.4588   61.5010 H   0  0  0  0  0  0  0  0  0  0  0  0
  124.2746  130.1973   61.9864 H   0  0  0  0  0  0  0  0  0  0  0  0
  123.0664  131.5408   60.2820 H   0  0  0  0  0  0  0  0  0  0  0  0
  122.7058  132.2168   58.1058 H   0  0  0  0  0  0  0  0  0  0  0  0
  124.0708  132.0408   56.9514 H   0  0  0  0  0  0  0  0  0  0  0  0
  122.7341  130.8408   56.9514 H   0  0  0  0  0  0  0  0  0  0  0  0
  124.8930  130.0700   56.1600 H   0  0  0  0  0  0  0  0  0  0  0  0
  126.1797  123.8233   61.4512 H   0  0  0  0  0  0  0  0  0  0  0  0
  127.9315  123.0742   63.0521 H   0  0  0  0  0  0  0  0  0  0  0  0
  1  2  1  0
  2  3  1  0
  3  4  2  0
  4  5  1  0
  5  6  2  0
  6  7  1  0
  7  8  1  0
  8  9  1  0
  9 10  2  0
 10 11  1  0
 11 12  2  0
 12 13  1  0
 13 14  1  0
 14 15  1  0
 15 16  1  0
 16 17  1  0
 17 18  1  0
 18 19  1  0
 19 20  1  0
 20 21  1  0
 21 22  1  0
 22 23  1  0
 14 24  1  0
 24 25  1  0
 25 26  2  0
 26 27  1  0
 27 28  2  0
 28 29  1  0
 28 30  1  0
 30 31  2  0
 31 32  1  0
 32 33  1  0
 32 34  2  0
 34 35  1  0
 35 36  1  0
 36 37  2  0
  6 38  1  0
 38 39  2  0
 39  3  1  0
 12  8  1  0
 23 18  1  0
 36 25  1  0
 34 27  1  0
  1 40  1  0
  1 41  1  0
  1 42  1  0
  4 43  1  0
  5 44  1  0
  7 45  1  0
  7 46  1  0
 13 47  1  0
 13 48  1  0
 15 49  1  0
 15 50  1  0
 16 51  1  0
 16 52  1  0
 17 53  1  0
 17 54  1  0
 19 55  1  0
 19 56  1  0
 20 57  1  0
 20 58  1  0
 22 59  1  0
 22 60  1  0
 23 61  1  0
 23 62  1  0
 24 63  1  0
 24 64  1  0
 26 65  1  0
 29 66  1  0
 29 67  1  0
 29 68  1  0
 30 69  1  0
 31 70  1  0
 33 71  1  0
 33 72  1  0
 33 73  1  0
 35 74  1  0
 38 75  1  0
 39 76  1  0
M  END
>  <Binding energies>  (1) 
[-11.22]

>  <Ligand effiencies>  (1) 
[-0.2805]

>  <Interactions>  (1) 
["V-A:TYR:539:CZ:4877, V-A:ASP:366:CG:3213, V-B:MET:535:CE:9807, V-B:ILE:369:CG2:8209, V-B:TYR:539:CE2:9848, H-B:LYS:534:NZ:9795, V-B:TYR:539:CZ:9849, V-B:ILE:369:CD1:8211, V-A:TYR:539:CE1:4875, V-A:ILE:369:CG2:3237, H-A:TYR:539:OH:4878, V-B:TYR:539:CD2:9846, V-A:ARG:545:CZ:4926, V-A:LEU:475:CD2:4259, H-B:TYR:531:OH:9767, V-B:TYR:539:C:9839, V-B:ASP:366:CG:8185, H-B:TYR:539:N:9842, V-B:PRO:540:CB:9857, V-B:PRO:540:CA:9855, V-B:ASP:366:CB:8184, V-B:ASP:366:CA:8182, V-B:PRO:540:N:9856, V-A:ILE:369:CD1:3239, V-B:TYR:531:CZ:9766, V-B:GLU:543:CD:9880, V-B:ASP:366:C:8180, V-B:ILE:369:CB:8208, V-B:ALA:541:CB:9864, H-A:GLY:454:N:4050, H-A:TYR:484:OH:4348, V-B:TYR:531:CE1:9764, V-A:GLY:453:CA:4044"]

$$$$
RR15_Rahimova_2017
     RDKit          3D

 85 89  0  0  0  0  0  0  0  0999 V2000
  132.7150  125.1910   63.2310 C   0  0  0  0  0  0  0  0  0  0  0  0
  133.0270  124.5780   61.9850 O   0  0  0  0  0  0  0  0  0  0  0  0
  132.5350  125.1270   60.8130 C   0  0  0  0  0  0  0  0  0  0  0  0
  131.7200  126.2690   60.7720 C   0  0  0  0  0  0  0  0  0  0  0  0
  131.2560  126.7680   59.5570 C   0  0  0  0  0  0  0  0  0  0  0  0
  131.5890  126.1430   58.3520 C   0  0  0  0  0  0  0  0  0  0  0  0
  131.0820  126.6780   57.0410 C   0  0  0  0  0  0  0  0  0  0  0  0
  131.5700  126.2950   55.8690 N   0  0  0  0  0  0  0  0  0  0  0  0
  130.8690  127.0020   54.9140 N   0  0  0  0  0  0  0  0  0  0  0  0
  129.9950  127.7130   55.6280 N   0  0  0  0  0  0  0  0  0  0  0  0
  129.1490  128.7380   55.0190 C   0  0  0  0  0  0  0  0  0  0  0  0
  127.7270  128.8490   55.6220 C   0  0  0  0  0  0  0  0  0  0  0  0
  126.7730  128.4720   54.9380 O   0  0  0  0  0  0  0  0  0  0  0  0
  127.5660  129.3260   56.8940 N   0  0  0  0  0  0  0  0  0  0  0  0
  127.6370  128.4300   58.0650 C   0  0  0  0  0  0  0  0  0  0  0  0
  126.7510  127.1720   57.9350 C   0  0  0  0  0  0  0  0  0  0  0  0
  127.5220  125.8310   57.9540 C   0  0  0  0  0  0  0  0  0  0  0  0
  127.0010  124.8380   57.0090 N   0  0  0  0  0  0  0  0  0  0  0  0
  128.0330  123.9380   56.4730 C   0  0  0  0  0  0  0  0  0  0  0  0
  127.4210  122.8600   55.5520 C   0  0  0  0  0  0  0  0  0  0  0  0
  126.3940  122.1540   56.2400 O   0  0  0  0  0  0  0  0  0  0  0  0
  125.3400  123.0090   56.6700 C   0  0  0  0  0  0  0  0  0  0  0  0
  125.8960  124.0890   57.6230 C   0  0  0  0  0  0  0  0  0  0  0  0
  127.5020  130.7830   57.2240 C   0  0  2  0  0  0  0  0  0  0  0  0
  128.8650  131.3930   57.6780 C   0  0  0  0  0  0  0  0  0  0  0  0
  128.9980  132.6070   57.8320 O   0  0  0  0  0  0  0  0  0  0  0  0
  129.8460  130.5070   57.9230 N   0  0  0  0  0  0  0  0  0  0  0  0
  131.1650  130.8330   58.4540 C   0  0  0  0  0  0  0  0  0  0  0  0
  131.2270  130.5980   59.9740 C   0  0  2  0  0  0  0  0  0  0  0  0
  130.1010  129.7240   60.5540 C   0  0  0  0  0  0  0  0  0  0  0  0
  129.1390  130.7090   61.1740 C   0  0  0  0  0  0  0  0  0  0  0  0
  130.0890  131.7930   61.6550 C   0  0  0  0  0  0  0  0  0  0  0  0
  131.0230  131.8800   60.5850 O   0  0  0  0  0  0  0  0  0  0  0  0
  126.2770  131.0890   58.0770 C   0  0  0  0  0  0  0  0  0  0  0  0
  126.4660  131.7830   59.2780 C   0  0  0  0  0  0  0  0  0  0  0  0
  125.3840  132.0890   60.0980 C   0  0  0  0  0  0  0  0  0  0  0  0
  124.1010  131.7040   59.7210 C   0  0  0  0  0  0  0  0  0  0  0  0
  123.0490  132.0020   60.5170 F   0  0  0  0  0  0  0  0  0  0  0  0
  123.8930  131.0150   58.5300 C   0  0  0  0  0  0  0  0  0  0  0  0
  124.9760  130.7080   57.7110 C   0  0  0  0  0  0  0  0  0  0  0  0
  130.1170  127.5750   56.9530 N   0  0  0  0  0  0  0  0  0  0  0  0
  132.4040  125.0040   58.3960 C   0  0  0  0  0  0  0  0  0  0  0  0
  132.8830  124.4900   59.6130 C   0  0  0  0  0  0  0  0  0  0  0  0
  133.6930  123.3710   59.7080 O   0  0  0  0  0  0  0  0  0  0  0  0
  133.1850  122.1840   60.3070 C   0  0  0  0  0  0  0  0  0  0  0  0
  133.0465  124.5398   64.0532 H   0  0  0  0  0  0  0  0  0  0  0  0
  133.2291  126.1609   63.3014 H   0  0  0  0  0  0  0  0  0  0  0  0
  131.6283  125.3461   63.3014 H   0  0  0  0  0  0  0  0  0  0  0  0
  131.4448  126.7752   61.7090 H   0  0  0  0  0  0  0  0  0  0  0  0
  130.6196  127.6651   59.5458 H   0  0  0  0  0  0  0  0  0  0  0  0
  129.6488  129.7104   55.1399 H   0  0  0  0  0  0  0  0  0  0  0  0
  129.0171  128.4456   53.9668 H   0  0  0  0  0  0  0  0  0  0  0  0
  128.6810  128.1083   58.1940 H   0  0  0  0  0  0  0  0  0  0  0  0
  127.2648  128.9989   58.9297 H   0  0  0  0  0  0  0  0  0  0  0  0
  126.0371  127.1682   58.7719 H   0  0  0  0  0  0  0  0  0  0  0  0
  126.2649  127.2359   56.9503 H   0  0  0  0  0  0  0  0  0  0  0  0
  128.5738  126.0316   57.7022 H   0  0  0  0  0  0  0  0  0  0  0  0
  127.4052  125.4073   58.9624 H   0  0  0  0  0  0  0  0  0  0  0  0
  128.7593  124.5300   55.8968 H   0  0  0  0  0  0  0  0  0  0  0  0
  128.5227  123.4323   57.3182 H   0  0  0  0  0  0  0  0  0  0  0  0
  126.9957  123.3427   54.6597 H   0  0  0  0  0  0  0  0  0  0  0  0
  128.2081  122.1513   55.2551 H   0  0  0  0  0  0  0  0  0  0  0  0
  124.8840  123.4946   55.7946 H   0  0  0  0  0  0  0  0  0  0  0  0
  124.5830  122.4126   57.2004 H   0  0  0  0  0  0  0  0  0  0  0  0
  125.0877  124.7904   57.8774 H   0  0  0  0  0  0  0  0  0  0  0  0
  126.2801  123.5873   58.5234 H   0  0  0  0  0  0  0  0  0  0  0  0
  127.3365  131.3477   56.2946 H   0  0  0  0  0  0  0  0  0  0  0  0
  129.6490  129.5240   57.8000 H   0  0  0  0  0  0  0  0  0  0  0  0
  131.9167  130.1984   57.9619 H   0  0  0  0  0  0  0  0  0  0  0  0
  131.3664  131.8964   58.2575 H   0  0  0  0  0  0  0  0  0  0  0  0
  132.1864  130.0961   60.1678 H   0  0  0  0  0  0  0  0  0  0  0  0
  129.6075  129.1470   59.7580 H   0  0  0  0  0  0  0  0  0  0  0  0
  130.4748  128.9894   61.2824 H   0  0  0  0  0  0  0  0  0  0  0  0
  128.4272  131.0983   60.4312 H   0  0  0  0  0  0  0  0  0  0  0  0
  128.5059  130.2820   61.9657 H   0  0  0  0  0  0  0  0  0  0  0  0
  129.5619  132.7474   61.8013 H   0  0  0  0  0  0  0  0  0  0  0  0
  130.5542  131.5694   62.6264 H   0  0  0  0  0  0  0  0  0  0  0  0
  127.4794  132.0894   59.5764 H   0  0  0  0  0  0  0  0  0  0  0  0
  125.5424  132.6332   61.0407 H   0  0  0  0  0  0  0  0  0  0  0  0
  122.8764  130.7140   58.2367 H   0  0  0  0  0  0  0  0  0  0  0  0
  124.8113  130.1628   56.7699 H   0  0  0  0  0  0  0  0  0  0  0  0
  132.6751  124.5006   57.4563 H   0  0  0  0  0  0  0  0  0  0  0  0
  133.2259  122.2795   61.4021 H   0  0  0  0  0  0  0  0  0  0  0  0
  132.1426  122.0310   59.9909 H   0  0  0  0  0  0  0  0  0  0  0  0
  133.7940  121.3242   59.9909 H   0  0  0  0  0  0  0  0  0  0  0  0
  1  2  1  0
  2  3  1  0
  3  4  2  0
  4  5  1  0
  5  6  2  0
  6  7  1  0
  7  8  1  0
  8  9  2  0
  9 10  1  0
 10 11  1  0
 11 12  1  0
 12 13  2  0
 12 14  1  0
 14 15  1  0
 15 16  1  0
 16 17  1  0
 17 18  1  0
 18 19  1  0
 19 20  1  0
 20 21  1  0
 21 22  1  0
 22 23  1  0
 14 24  1  0
 24 25  1  0
 25 26  2  0
 25 27  1  0
 27 28  1  0
 28 29  1  0
 29 30  1  0
 30 31  1  0
 31 32  1  0
 32 33  1  0
 24 34  1  0
 34 35  2  0
 35 36  1  0
 36 37  2  0
 37 38  1  0
 37 39  1  0
 39 40  2  0
 10 41  1  0
  6 42  1  0
 42 43  2  0
 43 44  1  0
 44 45  1  0
 43  3  1  0
 41  7  2  0
 23 18  1  0
 33 29  1  0
 40 34  1  0
  1 46  1  0
  1 47  1  0
  1 48  1  0
  4 49  1  0
  5 50  1  0
 11 51  1  0
 11 52  1  0
 15 53  1  0
 15 54  1  0
 16 55  1  0
 16 56  1  0
 17 57  1  0
 17 58  1  0
 19 59  1  0
 19 60  1  0
 20 61  1  0
 20 62  1  0
 22 63  1  0
 22 64  1  0
 23 65  1  0
 23 66  1  0
 24 67  1  6
 27 68  1  0
 28 69  1  0
 28 70  1  0
 29 71  1  6
 30 72  1  0
 30 73  1  0
 31 74  1  0
 31 75  1  0
 32 76  1  0
 32 77  1  0
 35 78  1  0
 36 79  1  0
 39 80  1  0
 40 81  1  0
 42 82  1  0
 45 83  1  0
 45 84  1  0
 45 85  1  0
M  END
>  <Binding energies>  (1) 
[-9.46]

>  <Ligand effiencies>  (1) 
[-0.2056521739130435]

>  <Interactions>  (1) 
["V-A:TYR:539:CZ:4877, V-A:ALA:541:CB:4892, V-A:ASP:366:CG:3213, V-B:MET:535:CE:9807, V-B:ILE:369:CG2:8209, V-A:PRO:540:CA:4883, V-B:TYR:539:CE2:9848, V-A:ASP:366:CB:3212, H-B:LYS:534:NZ:9795, V-B:TYR:539:CZ:9849, V-B:ILE:369:CD1:8211, H-A:ALA:541:N:4891, V-A:GLU:543:CG:4907, H-A:TYR:531:OH:4795, V-A:TYR:539:CE1:4875, V-A:ILE:369:CG2:3237, V-A:ARG:545:CZ:4926, H-B:TYR:531:OH:9767, V-B:TYR:539:CD1:9845, V-B:TYR:539:CE1:9847, H-B:TYR:539:OH:9850, H-B:TYR:539:N:9842, V-B:ASP:366:CB:8184, V-B:ASP:366:CA:8182, V-A:ILE:369:CD1:3239, V-A:TYR:539:CD1:4873, V-B:PRO:540:CD:9859, V-B:ASP:366:C:8180, V-B:ILE:369:CB:8208, H-A:TYR:484:OH:4348, V-A:ALA:541:CA:4890, V-A:MET:535:CE:4835, V-B:ILE:369:CG1:8210"]

$$$$
RR16_Rahimova_2017
     RDKit          3D

 80 85  0  0  0  0  0  0  0  0999 V2000
  127.4930  133.4880   62.5650 O   0  0  0  0  0  0  0  0  0  0  0  0
  126.9000  133.4950   61.2230 S   0  0  0  0  0  0  0  0  0  0  0  0
  126.3730  134.7330   60.6390 O   0  0  0  0  0  0  0  0  0  0  0  0
  125.6110  132.2890   61.2050 N   0  0  0  0  0  0  0  0  0  0  0  0
  125.8960  130.8660   61.5040 C   0  0  0  0  0  0  0  0  0  0  0  0
  124.8030  130.3160   62.4570 C   0  0  0  0  0  0  0  0  0  0  0  0
  123.3390  130.6750   62.1350 C   0  0  0  0  0  0  0  0  0  0  0  0
  122.9230  130.3610   60.6880 C   0  0  0  0  0  0  0  0  0  0  0  0
  123.7060  131.1060   59.5910 C   0  0  0  0  0  0  0  0  0  0  0  0
  125.0110  130.4560   59.0930 C   0  0  0  0  0  0  0  0  0  0  0  0
  126.0610  130.1080   60.1660 C   0  0  0  0  0  0  0  0  0  0  0  0
  128.1360  132.8420   60.1070 C   0  0  0  0  0  0  0  0  0  0  0  0
  127.8320  132.6380   58.7590 C   0  0  0  0  0  0  0  0  0  0  0  0
  128.7600  132.0170   57.9290 C   0  0  0  0  0  0  0  0  0  0  0  0
  129.9880  131.6030   58.4500 C   0  0  0  0  0  0  0  0  0  0  0  0
  131.1270  130.6780   57.4210 S   0  0  0  0  0  0  0  0  0  0  0  0
  132.4540  131.2870   57.5790 O   0  0  0  0  0  0  0  0  0  0  0  0
  130.5190  130.5600   56.0900 O   0  0  0  0  0  0  0  0  0  0  0  0
  131.1630  129.0640   58.1570 N   0  0  0  0  0  0  0  0  0  0  0  0
  129.9060  128.6720   58.8440 C   0  0  0  0  0  0  0  0  0  0  0  0
  130.1310  127.4140   59.7070 C   0  0  0  0  0  0  0  0  0  0  0  0
  130.7580  126.2590   58.8860 C   0  0  0  0  0  0  0  0  0  0  0  0
  131.0330  125.0160   59.7360 C   0  0  0  0  0  0  0  0  0  0  0  0
  132.3500  124.5680   59.9070 C   0  0  0  0  0  0  0  0  0  0  0  0
  132.6480  123.4440   60.6800 C   0  0  0  0  0  0  0  0  0  0  0  0
  133.9430  123.0230   60.8390 O   0  0  0  0  0  0  0  0  0  0  0  0
  131.5860  122.7620   61.2920 C   0  0  0  0  0  0  0  0  0  0  0  0
  131.5750  121.6640   62.1040 N   0  0  0  0  0  0  0  0  0  0  0  0
  130.2650  121.4230   62.4570 N   0  0  0  0  0  0  0  0  0  0  0  0
  129.4830  122.3290   61.8380 N   0  0  0  0  0  0  0  0  0  0  0  0
  128.0500  122.3620   62.1010 C   0  0  0  0  0  0  0  0  0  0  0  0
  127.2390  122.7730   60.8800 C   0  0  0  0  0  0  0  0  0  0  0  0
  126.0390  123.4750   61.0390 C   0  0  0  0  0  0  0  0  0  0  0  0
  125.3050  123.8720   59.9210 C   0  0  0  0  0  0  0  0  0  0  0  0
  125.7660  123.5710   58.6390 C   0  0  0  0  0  0  0  0  0  0  0  0
  126.9630  122.8730   58.4740 C   0  0  0  0  0  0  0  0  0  0  0  0
  127.5420  122.5080   56.8900 Cl  0  0  0  0  0  0  0  0  0  0  0  0
  127.6960  122.4720   59.5930 C   0  0  0  0  0  0  0  0  0  0  0  0
  130.2580  123.2150   61.1080 C   0  0  0  0  0  0  0  0  0  0  0  0
  129.9580  124.3390   60.3310 C   0  0  0  0  0  0  0  0  0  0  0  0
  131.9970  126.7190   58.0750 C   0  0  0  0  0  0  0  0  0  0  0  0
  131.7150  128.0050   57.2730 C   0  0  0  0  0  0  0  0  0  0  0  0
  130.3070  131.8450   59.7880 C   0  0  0  0  0  0  0  0  0  0  0  0
  129.3780  132.4630   60.6180 C   0  0  0  0  0  0  0  0  0  0  0  0
  124.6630  132.6180   61.4080 H   0  0  0  0  0  0  0  0  0  0  0  0
  126.8431  130.7275   62.0461 H   0  0  0  0  0  0  0  0  0  0  0  0
  124.8828  129.2189   62.4532 H   0  0  0  0  0  0  0  0  0  0  0  0
  125.0052  130.7962   63.4258 H   0  0  0  0  0  0  0  0  0  0  0  0
  122.6860  130.1070   62.8139 H   0  0  0  0  0  0  0  0  0  0  0  0
  123.2413  131.7628   62.2659 H   0  0  0  0  0  0  0  0  0  0  0  0
  123.0568  129.2815   60.5247 H   0  0  0  0  0  0  0  0  0  0  0  0
  121.8808  130.7006   60.5954 H   0  0  0  0  0  0  0  0  0  0  0  0
  123.0383  131.2146   58.7236 H   0  0  0  0  0  0  0  0  0  0  0  0
  124.0202  132.0508   60.0587 H   0  0  0  0  0  0  0  0  0  0  0  0
  124.7428  129.5241   58.5737 H   0  0  0  0  0  0  0  0  0  0  0  0
  125.4882  131.2146   58.4552 H   0  0  0  0  0  0  0  0  0  0  0  0
  125.9945  129.0297   60.3730 H   0  0  0  0  0  0  0  0  0  0  0  0
  127.0355  130.4116   59.7559 H   0  0  0  0  0  0  0  0  0  0  0  0
  126.8630  132.9669   58.3554 H   0  0  0  0  0  0  0  0  0  0  0  0
  128.5275  131.8527   56.8665 H   0  0  0  0  0  0  0  0  0  0  0  0
  129.5732  129.4986   59.4890 H   0  0  0  0  0  0  0  0  0  0  0  0
  129.1406  128.4506   58.0856 H   0  0  0  0  0  0  0  0  0  0  0  0
  130.8059  127.6679   60.5377 H   0  0  0  0  0  0  0  0  0  0  0  0
  129.1534  127.0764   60.0816 H   0  0  0  0  0  0  0  0  0  0  0  0
  130.0024  125.9563   58.1461 H   0  0  0  0  0  0  0  0  0  0  0  0
  133.1699  125.1160   59.4197 H   0  0  0  0  0  0  0  0  0  0  0  0
  134.0170  122.2090   61.3430 H   0  0  0  0  0  0  0  0  0  0  0  0
  127.7268  121.3592   62.4171 H   0  0  0  0  0  0  0  0  0  0  0  0
  127.8730  123.1121   62.8859 H   0  0  0  0  0  0  0  0  0  0  0  0
  125.6734  123.7145   62.0484 H   0  0  0  0  0  0  0  0  0  0  0  0
  124.3618  124.4230   60.0504 H   0  0  0  0  0  0  0  0  0  0  0  0
  125.1859  123.8839   57.7583 H   0  0  0  0  0  0  0  0  0  0  0  0
  128.6367  121.9171   59.4616 H   0  0  0  0  0  0  0  0  0  0  0  0
  128.9209  124.6783   60.1922 H   0  0  0  0  0  0  0  0  0  0  0  0
  132.8271  126.9091   58.7713 H   0  0  0  0  0  0  0  0  0  0  0  0
  132.2522  125.9217   57.3614 H   0  0  0  0  0  0  0  0  0  0  0  0
  132.6527  128.3628   56.8227 H   0  0  0  0  0  0  0  0  0  0  0  0
  130.9775  127.7786   56.4889 H   0  0  0  0  0  0  0  0  0  0  0  0
  131.2894  131.5479   60.1838 H   0  0  0  0  0  0  0  0  0  0  0  0
  129.6214  132.6525   61.6739 H   0  0  0  0  0  0  0  0  0  0  0  0
  1  2  2  0
  2  3  2  0
  2  4  1  0
  4  5  1  0
  5  6  1  0
  6  7  1  0
  7  8  1  0
  8  9  1  0
  9 10  1  0
 10 11  1  0
  2 12  1  0
 12 13  2  0
 13 14  1  0
 14 15  2  0
 15 16  1  0
 16 17  2  0
 16 18  2  0
 16 19  1  0
 19 20  1  0
 20 21  1  0
 21 22  1  0
 22 23  1  0
 23 24  2  0
 24 25  1  0
 25 26  1  0
 25 27  2  0
 27 28  1  0
 28 29  2  0
 29 30  1  0
 30 31  1  0
 31 32  1  0
 32 33  2  0
 33 34  1  0
 34 35  2  0
 35 36  1  0
 36 37  1  0
 36 38  2  0
 30 39  1  0
 39 40  2  0
 22 41  1  0
 41 42  1  0
 15 43  1  0
 43 44  2  0
 11  5  1  0
 44 12  1  0
 42 19  1  0
 40 23  1  0
 39 27  1  0
 38 32  1  0
  4 45  1  0
  5 46  1  0
  6 47  1  0
  6 48  1  0
  7 49  1  0
  7 50  1  0
  8 51  1  0
  8 52  1  0
  9 53  1  0
  9 54  1  0
 10 55  1  0
 10 56  1  0
 11 57  1  0
 11 58  1  0
 13 59  1  0
 14 60  1  0
 20 61  1  0
 20 62  1  0
 21 63  1  0
 21 64  1  0
 22 65  1  0
 24 66  1  0
 26 67  1  0
 31 68  1  0
 31 69  1  0
 33 70  1  0
 34 71  1  0
 35 72  1  0
 38 73  1  0
 40 74  1  0
 41 75  1  0
 41 76  1  0
 42 77  1  0
 42 78  1  0
 43 79  1  0
 44 80  1  0
M  END
>  <Binding energies>  (1) 
[-8.61]

>  <Ligand effiencies>  (1) 
[-0.17937499999999998]

>  <Interactions>  (1) 
["V-A:ALA:541:CB:4892, V-A:ASP:366:CG:3213, V-B:ILE:369:CG2:8209, V-B:LEU:475:CD2:9231, V-A:PRO:540:CA:4883, V-B:TYR:539:CE2:9848, V-A:ASP:366:CB:3212, V-B:TYR:539:CZ:9849, V-B:ILE:369:CD1:8211, H-A:TYR:531:OH:4795, V-A:TYR:539:CE1:4875, V-B:TYR:539:CD2:9846, V-B:TYR:539:CD1:9845, V-B:TYR:539:CG:9844, V-B:TYR:539:CE1:9847, V-B:TYR:539:C:9839, V-B:ASP:366:CG:8185, V-B:PRO:540:CB:9857, V-B:PRO:540:CA:9855, V-B:ASP:366:CB:8184, V-B:ASP:366:CA:8182, V-B:PRO:540:N:9856, V-A:TYR:539:CD1:4873, V-A:TYR:539:C:4867, V-A:PRO:540:C:4881, V-A:PRO:540:CB:4885, V-B:PRO:540:C:9853, V-B:TYR:539:CA:9841, V-B:ALA:541:CB:9864, H-A:TYR:484:OH:4348, V-B:GLY:453:C:9014, V-B:GLY:453:CA:9016, H-A:SER:385:O:3406"]

$$$$
RR17_Rahimova_2017
     RDKit          3D

 63 66  0  0  0  0  0  0  0  0999 V2000
  130.4240  132.2930   56.8550 C   0  0  0  0  0  0  0  0  0  0  0  0
  129.5830  132.2650   58.1350 C   0  0  0  0  0  0  0  0  0  0  0  0
  128.2440  131.9140   57.7950 O   0  0  0  0  0  0  0  0  0  0  0  0
  127.2520  132.0190   58.7520 C   0  0  0  0  0  0  0  0  0  0  0  0
  127.4590  132.9570   59.7630 C   0  0  0  0  0  0  0  0  0  0  0  0
  126.5160  133.1320   60.7710 C   0  0  0  0  0  0  0  0  0  0  0  0
  125.3410  132.3680   60.7900 C   0  0  0  0  0  0  0  0  0  0  0  0
  124.3420  132.5800   61.8900 C   0  0  0  0  0  0  0  0  0  0  0  0
  123.3890  133.3570   61.7770 O   0  0  0  0  0  0  0  0  0  0  0  0
  124.5610  131.7900   63.1990 C   0  0  0  0  0  0  0  0  0  0  0  0
  124.5290  129.9820   62.9260 S   0  0  0  0  0  0  0  0  0  0  0  0
  125.4260  129.4420   64.3540 C   0  0  0  0  0  0  0  0  0  0  0  0
  124.9010  128.8620   65.4080 N   0  0  0  0  0  0  0  0  0  0  0  0
  125.9310  128.5880   66.3000 N   0  0  0  0  0  0  0  0  0  0  0  0
  127.0410  129.0090   65.7490 C   0  0  0  0  0  0  0  0  0  0  0  0
  128.4190  128.8920   66.3840 C   0  0  0  0  0  0  0  0  0  0  0  0
  128.6130  127.6630   67.1500 N   0  0  0  0  0  0  0  0  0  0  0  0
  128.9300  127.6390   68.5200 C   0  0  0  0  0  0  0  0  0  0  0  0
  129.9870  128.4420   68.9490 C   0  0  0  0  0  0  0  0  0  0  0  0
  130.3570  128.4610   70.2900 C   0  0  0  0  0  0  0  0  0  0  0  0
  129.6690  127.6790   71.2220 C   0  0  0  0  0  0  0  0  0  0  0  0
  130.0920  127.7070   72.6900 C   0  0  0  0  0  0  0  0  0  0  0  0
  131.3490  127.2900   72.8630 F   0  0  0  0  0  0  0  0  0  0  0  0
  129.9990  128.9450   73.1780 F   0  0  0  0  0  0  0  0  0  0  0  0
  129.2870  126.9090   73.3920 F   0  0  0  0  0  0  0  0  0  0  0  0
  128.6040  126.8790   70.7950 C   0  0  0  0  0  0  0  0  0  0  0  0
  128.2340  126.8610   69.4540 C   0  0  0  0  0  0  0  0  0  0  0  0
  126.7910  129.5740   64.5150 N   0  0  0  0  0  0  0  0  0  0  0  0
  127.7180  130.1250   63.6180 C   0  0  0  0  0  0  0  0  0  0  0  0
  128.0750  129.4120   62.4740 C   0  0  0  0  0  0  0  0  0  0  0  0
  128.9970  129.9570   61.5850 C   0  0  0  0  0  0  0  0  0  0  0  0
  129.5640  131.2170   61.8390 C   0  0  0  0  0  0  0  0  0  0  0  0
  130.4850  131.8360   61.0150 O   0  0  0  0  0  0  0  0  0  0  0  0
  131.7830  131.2670   60.8730 C   0  0  0  0  0  0  0  0  0  0  0  0
  129.1960  131.9160   62.9900 C   0  0  0  0  0  0  0  0  0  0  0  0
  128.2740  131.3760   63.8820 C   0  0  0  0  0  0  0  0  0  0  0  0
  125.1340  131.4250   59.7720 C   0  0  0  0  0  0  0  0  0  0  0  0
  126.0780  131.2520   58.7640 C   0  0  0  0  0  0  0  0  0  0  0  0
  131.4914  132.3285   57.1183 H   0  0  0  0  0  0  0  0  0  0  0  0
  130.2221  131.3876   56.2638 H   0  0  0  0  0  0  0  0  0  0  0  0
  130.1624  133.1829   56.2638 H   0  0  0  0  0  0  0  0  0  0  0  0
  129.9950  131.5207   58.8323 H   0  0  0  0  0  0  0  0  0  0  0  0
  129.6003  133.2540   58.6163 H   0  0  0  0  0  0  0  0  0  0  0  0
  128.3763  133.5641   59.7636 H   0  0  0  0  0  0  0  0  0  0  0  0
  126.6943  133.8770   61.5605 H   0  0  0  0  0  0  0  0  0  0  0  0
  125.5380  132.0676   63.6214 H   0  0  0  0  0  0  0  0  0  0  0  0
  123.7416  132.0428   63.8879 H   0  0  0  0  0  0  0  0  0  0  0  0
  129.1734  128.9248   65.5841 H   0  0  0  0  0  0  0  0  0  0  0  0
  128.5181  129.7290   67.0908 H   0  0  0  0  0  0  0  0  0  0  0  0
  128.7270  126.8060   66.6290 H   0  0  0  0  0  0  0  0  0  0  0  0
  130.5311  129.0638   68.2228 H   0  0  0  0  0  0  0  0  0  0  0  0
  131.1945  129.0941   70.6182 H   0  0  0  0  0  0  0  0  0  0  0  0
  128.0568  126.2615   71.5225 H   0  0  0  0  0  0  0  0  0  0  0  0
  127.3920  126.2337   69.1261 H   0  0  0  0  0  0  0  0  0  0  0  0
  127.6309  128.4254   62.2755 H   0  0  0  0  0  0  0  0  0  0  0  0
  129.2825  129.3994   60.6808 H   0  0  0  0  0  0  0  0  0  0  0  0
  132.2118  131.0790   61.8684 H   0  0  0  0  0  0  0  0  0  0  0  0
  131.7092  130.3187   60.3205 H   0  0  0  0  0  0  0  0  0  0  0  0
  132.4304  131.9639   60.3205 H   0  0  0  0  0  0  0  0  0  0  0  0
  129.6386  132.9022   63.1938 H   0  0  0  0  0  0  0  0  0  0  0  0
  127.9866  131.9312   64.7871 H   0  0  0  0  0  0  0  0  0  0  0  0
  124.2174  130.8169   59.7705 H   0  0  0  0  0  0  0  0  0  0  0  0
  125.9022  130.5092   57.9720 H   0  0  0  0  0  0  0  0  0  0  0  0
  1  2  1  0
  2  3  1  0
  3  4  1  0
  4  5  2  0
  5  6  1  0
  6  7  2  0
  7  8  1  0
  8  9  2  0
  8 10  1  0
 10 11  1  0
 11 12  1  0
 12 13  2  0
 13 14  1  0
 14 15  2  0
 15 16  1  0
 16 17  1  0
 17 18  1  0
 18 19  2  0
 19 20  1  0
 20 21  2  0
 21 22  1  0
 22 23  1  0
 22 24  1  0
 22 25  1  0
 21 26  1  0
 26 27  2  0
 15 28  1  0
 28 29  1  0
 29 30  2  0
 30 31  1  0
 31 32  2  0
 32 33  1  0
 33 34  1  0
 32 35  1  0
 35 36  2  0
  7 37  1  0
 37 38  2  0
 38  4  1  0
 28 12  1  0
 36 29  1  0
 27 18  1  0
  1 39  1  0
  1 40  1  0
  1 41  1  0
  2 42  1  0
  2 43  1  0
  5 44  1  0
  6 45  1  0
 10 46  1  0
 10 47  1  0
 16 48  1  0
 16 49  1  0
 17 50  1  0
 19 51  1  0
 20 52  1  0
 26 53  1  0
 27 54  1  0
 30 55  1  0
 31 56  1  0
 34 57  1  0
 34 58  1  0
 34 59  1  0
 35 60  1  0
 36 61  1  0
 37 62  1  0
 38 63  1  0
M  END
>  <Binding energies>  (1) 
[-8.2]

>  <Ligand effiencies>  (1) 
[-0.21025641025641023]

>  <Interactions>  (1) 
["V-A:ALA:541:CB:4892, V-B:LEU:475:CD2:9231, V-A:PRO:540:CA:4883, V-A:GLU:543:CD:4908, V-B:ILE:369:CD1:8211, H-A:ALA:541:N:4891, H-B:TYR:484:OH:9320, V-A:GLU:543:CG:4907, V-A:TYR:539:CE1:4875, V-B:ARG:545:CZ:9898, V-A:TYR:539:CD1:4873, V-A:TYR:539:C:4867, H-B:GLU:543:OE2:9882, V-B:GLU:543:CD:9880, V-A:HIS:456:CD2:4068, V-A:HIS:456:CG:4066, V-B:LYS:547:CE:9922, V-A:HIS:456:CB:4065, V-A:PRO:540:CB:4885, V-A:PRO:540:N:4884, H-A:GLU:543:OE2:4910, V-A:GLY:544:CA:4914, V-A:GLU:543:C:4902, V-A:GLU:543:CA:4904, V-A:LYS:547:CE:4950, V-B:GLY:454:CA:9021, H-B:ARG:545:NE:9896, V-B:TYR:484:CZ:9319, V-B:HIS:456:CE1:9042, V-A:ALA:541:CA:4890, H-B:ARG:545:NH2:9900, V-A:GLU:543:CB:4906, V-A:HIS:456:CE1:4070, V-B:GLU:543:CB:9878, V-B:TYR:484:CE2:9318, V-B:HIS:456:CD2:9040, V-A:GLY:544:C:4912"]

$$$$
RR18_Rahimova_2017
     RDKit          3D

 56 61  0  0  0  0  0  0  0  0999 V2000
  128.5010  122.6430   61.3610 C   0  0  0  0  0  0  0  0  0  0  0  0
  128.3850  123.3900   60.0550 C   0  0  0  0  0  0  0  0  0  0  0  0
  127.5860  123.2520   58.9320 C   0  0  0  0  0  0  0  0  0  0  0  0
  127.9590  124.2620   58.0460 C   0  0  0  0  0  0  0  0  0  0  0  0
  128.9720  124.9810   58.6600 C   0  0  0  0  0  0  0  0  0  0  0  0
  129.8050  126.1940   58.2530 C   0  0  1  0  0  0  0  0  0  0  0  0
  131.0490  125.7770   57.4130 C   0  0  0  0  0  0  0  0  0  0  0  0
  132.1080  124.9700   58.0110 C   0  0  0  0  0  0  0  0  0  0  0  0
  133.2220  124.8740   57.4940 O   0  0  0  0  0  0  0  0  0  0  0  0
  131.7570  124.3660   59.1700 N   0  0  0  0  0  0  0  0  0  0  0  0
  132.4950  123.5050   60.0100 C   0  0  0  0  0  0  0  0  0  0  0  0
  132.7460  122.1540   59.7090 C   0  0  0  0  0  0  0  0  0  0  0  0
  133.4770  121.3550   60.5860 C   0  0  0  0  0  0  0  0  0  0  0  0
  133.9620  121.8880   61.7760 C   0  0  0  0  0  0  0  0  0  0  0  0
  133.7110  123.2210   62.0940 C   0  0  0  0  0  0  0  0  0  0  0  0
  132.9800  124.0350   61.2230 C   0  0  0  0  0  0  0  0  0  0  0  0
  132.7300  125.4870   61.6200 C   0  0  0  0  0  0  0  0  0  0  0  0
  131.0730  126.0950   56.0920 C   0  0  0  0  0  0  0  0  0  0  0  0
  130.1400  126.8590   55.4590 N   0  0  0  0  0  0  0  0  0  0  0  0
  129.2000  127.4010   56.1420 C   0  0  0  0  0  0  0  0  0  0  0  0
  128.0250  128.5230   55.4980 S   0  0  0  0  0  0  0  0  0  0  0  0
  127.2490  128.7130   57.1010 C   0  0  0  0  0  0  0  0  0  0  0  0
  126.1660  129.5060   57.4140 C   0  0  0  0  0  0  0  0  0  0  0  0
  125.5690  130.3810   56.3940 C   0  0  0  0  0  0  0  0  0  0  0  0
  125.8640  130.5330   55.2100 O   0  0  0  0  0  0  0  0  0  0  0  0
  124.5830  131.0650   56.9840 N   0  0  0  0  0  0  0  0  0  0  0  0
  124.4140  130.7300   58.2940 C   0  0  0  0  0  0  0  0  0  0  0  0
  123.4750  131.2380   59.1910 C   0  0  0  0  0  0  0  0  0  0  0  0
  123.4470  130.7360   60.4890 C   0  0  0  0  0  0  0  0  0  0  0  0
  124.3440  129.7380   60.8630 C   0  0  0  0  0  0  0  0  0  0  0  0
  125.2770  129.2460   59.9450 C   0  0  0  0  0  0  0  0  0  0  0  0
  125.3370  129.7570   58.6350 C   0  0  0  0  0  0  0  0  0  0  0  0
  127.9790  127.8790   58.0580 C   0  0  0  0  0  0  0  0  0  0  0  0
  127.7660  127.7960   59.2630 O   0  0  0  0  0  0  0  0  0  0  0  0
  128.9860  127.1820   57.4650 N   0  0  0  0  0  0  0  0  0  0  0  0
  129.2260  124.4420   59.8820 O   0  0  0  0  0  0  0  0  0  0  0  0
  128.3915  123.3484   62.1979 H   0  0  0  0  0  0  0  0  0  0  0  0
  127.7105  121.8802   61.4186 H   0  0  0  0  0  0  0  0  0  0  0  0
  129.4856  122.1558   61.4186 H   0  0  0  0  0  0  0  0  0  0  0  0
  126.8073  122.4921   58.7703 H   0  0  0  0  0  0  0  0  0  0  0  0
  127.5312  124.4517   57.0505 H   0  0  0  0  0  0  0  0  0  0  0  0
  130.1456  126.6694   59.1847 H   0  0  0  0  0  0  0  0  0  0  0  0
  130.8410  124.5960   59.5250 H   0  0  0  0  0  0  0  0  0  0  0  0
  132.3615  121.7241   58.7723 H   0  0  0  0  0  0  0  0  0  0  0  0
  133.6708  120.3012   60.3370 H   0  0  0  0  0  0  0  0  0  0  0  0
  134.5431  121.2576   62.4652 H   0  0  0  0  0  0  0  0  0  0  0  0
  134.0912  123.6369   63.0387 H   0  0  0  0  0  0  0  0  0  0  0  0
  132.7157  125.5700   62.7168 H   0  0  0  0  0  0  0  0  0  0  0  0
  133.5322  126.1213   61.2147 H   0  0  0  0  0  0  0  0  0  0  0  0
  131.7619  125.8165   61.2147 H   0  0  0  0  0  0  0  0  0  0  0  0
  131.9075  125.7067   55.4896 H   0  0  0  0  0  0  0  0  0  0  0  0
  124.0140  131.7420   56.4980 H   0  0  0  0  0  0  0  0  0  0  0  0
  122.7690  132.0215   58.8784 H   0  0  0  0  0  0  0  0  0  0  0  0
  122.7196  131.1257   61.2163 H   0  0  0  0  0  0  0  0  0  0  0  0
  124.3182  129.3348   61.8861 H   0  0  0  0  0  0  0  0  0  0  0  0
  125.9723  128.4502   60.2503 H   0  0  0  0  0  0  0  0  0  0  0  0
  1  2  1  0
  2  3  2  0
  3  4  1  0
  4  5  2  0
  5  6  1  0
  6  7  1  0
  7  8  1  0
  8  9  2  0
  8 10  1  0
 10 11  1  0
 11 12  2  0
 12 13  1  0
 13 14  2  0
 14 15  1  0
 15 16  2  0
 16 17  1  0
  7 18  2  0
 18 19  1  0
 19 20  2  0
 20 21  1  0
 21 22  1  0
 22 23  2  0
 23 24  1  0
 24 25  2  0
 24 26  1  0
 26 27  1  0
 27 28  2  0
 28 29  1  0
 29 30  2  0
 30 31  1  0
 31 32  2  0
 22 33  1  0
 33 34  2  0
 33 35  1  0
  5 36  1  0
 36  2  1  0
 35  6  1  0
 16 11  1  0
 35 20  1  0
 32 23  1  0
 32 27  1  0
  1 37  1  0
  1 38  1  0
  1 39  1  0
  3 40  1  0
  4 41  1  0
  6 42  1  1
 10 43  1  0
 12 44  1  0
 13 45  1  0
 14 46  1  0
 15 47  1  0
 17 48  1  0
 17 49  1  0
 17 50  1  0
 18 51  1  0
 26 52  1  0
 28 53  1  0
 29 54  1  0
 30 55  1  0
 31 56  1  0
M  END
>  <Binding energies>  (1) 
[-8.63]

>  <Ligand effiencies>  (1) 
[-0.22710526315789475]

>  <Interactions>  (1) 
["V-A:TYR:539:CZ:4877, V-A:ASP:366:CG:3213, V-B:MET:535:CE:9807, V-B:ILE:369:CG2:8209, V-B:TYR:539:CE2:9848, V-A:ASP:366:CB:3212, H-B:LYS:534:NZ:9795, V-B:TYR:539:CZ:9849, H-B:ASP:366:O:8181, V-B:ILE:369:CD1:8211, H-A:TYR:531:OH:4795, V-A:TYR:539:CE1:4875, V-A:ILE:369:CG2:3237, H-A:TYR:539:OH:4878, V-B:TYR:539:CD2:9846, V-A:ARG:545:CZ:4926, V-A:LEU:475:CD2:4259, H-B:TYR:539:OH:9850, V-B:ASP:366:CG:8185, V-B:PRO:540:CA:9855, V-B:ASP:366:CB:8184, V-B:ASP:366:CA:8182, V-B:PRO:540:N:9856, V-A:ILE:369:CD1:3239, V-B:ILE:369:CB:8208, V-B:TYR:531:CE1:9764, V-A:GLY:454:CA:4049, V-A:GLY:453:C:4042"]

$$$$
RR19_Rahimova_2017
     RDKit          3D

 72 77  0  0  0  0  0  0  0  0999 V2000
  127.0110  125.5570   60.4340 O   0  0  0  0  0  0  0  0  0  0  0  0
  126.9070  126.5660   59.7290 C   0  0  0  0  0  0  0  0  0  0  0  0
  126.5590  127.8050   60.1590 N   0  0  0  0  0  0  0  0  0  0  0  0
  126.4420  128.3650   61.4070 C   0  0  0  0  0  0  0  0  0  0  0  0
  126.9660  127.6610   62.8550 S   0  0  0  0  0  0  0  0  0  0  0  0
  125.8310  129.5880   61.2850 N   0  0  0  0  0  0  0  0  0  0  0  0
  125.6040  130.5990   62.1620 C   0  0  0  0  0  0  0  0  0  0  0  0
  126.0860  130.7100   63.2910 O   0  0  0  0  0  0  0  0  0  0  0  0
  124.6170  131.6740   61.6390 C   0  0  2  0  0  0  0  0  0  0  0  0
  123.7230  131.2160   60.4500 C   0  0  0  0  0  0  0  0  0  0  0  0
  124.4340  131.1050   59.1110 C   0  0  0  0  0  0  0  0  0  0  0  0
  125.8010  131.4350   58.9870 C   0  0  0  0  0  0  0  0  0  0  0  0
  126.4520  131.2520   57.7740 C   0  0  0  0  0  0  0  0  0  0  0  0
  125.7690  130.7270   56.6840 C   0  0  0  0  0  0  0  0  0  0  0  0
  124.4320  130.3700   56.8000 C   0  0  0  0  0  0  0  0  0  0  0  0
  123.7630  130.5430   58.0040 C   0  0  0  0  0  0  0  0  0  0  0  0
  125.3200  132.9500   61.3350 N   0  0  0  0  0  0  0  0  0  0  0  0
  124.6820  133.9790   60.7070 C   0  0  0  0  0  0  0  0  0  0  0  0
  123.5200  133.9980   60.2980 O   0  0  0  0  0  0  0  0  0  0  0  0
  125.6810  135.0730   60.6240 C   0  0  0  0  0  0  0  0  0  0  0  0
  125.5890  136.3550   60.0810 C   0  0  0  0  0  0  0  0  0  0  0  0
  126.7070  137.1940   60.1510 C   0  0  0  0  0  0  0  0  0  0  0  0
  127.8890  136.7460   60.7570 C   0  0  0  0  0  0  0  0  0  0  0  0
  127.9600  135.4560   61.2970 C   0  0  0  0  0  0  0  0  0  0  0  0
  126.8340  134.6350   61.2150 C   0  0  0  0  0  0  0  0  0  0  0  0
  126.6040  133.2500   61.6940 C   0  0  0  0  0  0  0  0  0  0  0  0
  127.4020  132.5300   62.2960 O   0  0  0  0  0  0  0  0  0  0  0  0
  127.1730  126.4650   58.2040 C   0  0  2  0  0  0  0  0  0  0  0  0
  127.8020  125.1120   57.7610 C   0  0  0  0  0  0  0  0  0  0  0  0
  126.7940  124.1070   57.2330 C   0  0  0  0  0  0  0  0  0  0  0  0
  125.5120  124.0160   57.8180 C   0  0  0  0  0  0  0  0  0  0  0  0
  124.5570  123.1700   57.2680 C   0  0  0  0  0  0  0  0  0  0  0  0
  124.8480  122.4310   56.1290 C   0  0  0  0  0  0  0  0  0  0  0  0
  126.0920  122.5410   55.5190 C   0  0  0  0  0  0  0  0  0  0  0  0
  127.0610  123.3810   56.0530 C   0  0  0  0  0  0  0  0  0  0  0  0
  127.9350  127.6250   57.6580 N   0  0  0  0  0  0  0  0  0  0  0  0
  127.6460  128.1630   56.4400 C   0  0  0  0  0  0  0  0  0  0  0  0
  126.7840  127.7890   55.6450 O   0  0  0  0  0  0  0  0  0  0  0  0
  128.5930  129.2940   56.2760 C   0  0  0  0  0  0  0  0  0  0  0  0
  128.7640  130.1980   55.2260 C   0  0  0  0  0  0  0  0  0  0  0  0
  129.7500  131.1830   55.3450 C   0  0  0  0  0  0  0  0  0  0  0  0
  130.5430  131.2540   56.4980 C   0  0  0  0  0  0  0  0  0  0  0  0
  130.3540  130.3400   57.5410 C   0  0  0  0  0  0  0  0  0  0  0  0
  129.3660  129.3630   57.4020 C   0  0  0  0  0  0  0  0  0  0  0  0
  128.9370  128.2790   58.3180 C   0  0  0  0  0  0  0  0  0  0  0  0
  129.3870  128.0230   59.4350 O   0  0  0  0  0  0  0  0  0  0  0  0
  126.4580  128.4730   59.4080 H   0  0  0  0  0  0  0  0  0  0  0  0
  125.3800  129.7260   60.3930 H   0  0  0  0  0  0  0  0  0  0  0  0
  123.9144  131.8452   62.4679 H   0  0  0  0  0  0  0  0  0  0  0  0
  123.3074  130.2281   60.6975 H   0  0  0  0  0  0  0  0  0  0  0  0
  122.9575  131.9961   60.3254 H   0  0  0  0  0  0  0  0  0  0  0  0
  126.3504  131.8370   59.8510 H   0  0  0  0  0  0  0  0  0  0  0  0
  127.5133  131.5240   57.6758 H   0  0  0  0  0  0  0  0  0  0  0  0
  126.2899  130.5935   55.7244 H   0  0  0  0  0  0  0  0  0  0  0  0
  123.9007  129.9483   55.9340 H   0  0  0  0  0  0  0  0  0  0  0  0
  122.7090  130.2418   58.0952 H   0  0  0  0  0  0  0  0  0  0  0  0
  124.6574  136.6990   59.6079 H   0  0  0  0  0  0  0  0  0  0  0  0
  126.6580  138.2086   59.7290 H   0  0  0  0  0  0  0  0  0  0  0  0
  128.7642  137.4104   60.8085 H   0  0  0  0  0  0  0  0  0  0  0  0
  128.8832  135.0973   61.7755 H   0  0  0  0  0  0  0  0  0  0  0  0
  126.1693  126.5006   57.7554 H   0  0  0  0  0  0  0  0  0  0  0  0
  128.5364  125.3151   56.9676 H   0  0  0  0  0  0  0  0  0  0  0  0
  128.2590  124.6648   58.6561 H   0  0  0  0  0  0  0  0  0  0  0  0
  125.2696  124.6145   58.7085 H   0  0  0  0  0  0  0  0  0  0  0  0
  123.5656  123.0852   57.7371 H   0  0  0  0  0  0  0  0  0  0  0  0
  124.0898  121.7548   55.7072 H   0  0  0  0  0  0  0  0  0  0  0  0
  126.3100  121.9609   54.6102 H   0  0  0  0  0  0  0  0  0  0  0  0
  128.0371  123.4802   55.5556 H   0  0  0  0  0  0  0  0  0  0  0  0
  128.1368  130.1370   54.3244 H   0  0  0  0  0  0  0  0  0  0  0  0
  129.9036  131.9052   54.5296 H   0  0  0  0  0  0  0  0  0  0  0  0
  131.3170  132.0309   56.5838 H   0  0  0  0  0  0  0  0  0  0  0  0
  130.9705  130.3902   58.4506 H   0  0  0  0  0  0  0  0  0  0  0  0
  1  2  2  0
  2  3  1  0
  3  4  1  0
  4  5  2  0
  4  6  1  0
  6  7  1  0
  7  8  2  0
  7  9  1  0
  9 10  1  0
 10 11  1  0
 11 12  2  0
 12 13  1  0
 13 14  2  0
 14 15  1  0
 15 16  2  0
  9 17  1  0
 17 18  1  0
 18 19  2  0
 18 20  1  0
 20 21  2  0
 21 22  1  0
 22 23  2  0
 23 24  1  0
 24 25  2  0
 25 26  1  0
 26 27  2  0
  2 28  1  0
 28 29  1  0
 29 30  1  0
 30 31  2  0
 31 32  1  0
 32 33  2  0
 33 34  1  0
 34 35  2  0
 28 36  1  0
 36 37  1  0
 37 38  2  0
 37 39  1  0
 39 40  2  0
 40 41  1  0
 41 42  2  0
 42 43  1  0
 43 44  2  0
 44 45  1  0
 45 46  2  0
 16 11  1  0
 26 17  1  0
 35 30  1  0
 45 36  1  0
 25 20  1  0
 44 39  1  0
  3 47  1  0
  6 48  1  0
  9 49  1  1
 10 50  1  0
 10 51  1  0
 12 52  1  0
 13 53  1  0
 14 54  1  0
 15 55  1  0
 16 56  1  0
 21 57  1  0
 22 58  1  0
 23 59  1  0
 24 60  1  0
 28 61  1  6
 29 62  1  0
 29 63  1  0
 31 64  1  0
 32 65  1  0
 33 66  1  0
 34 67  1  0
 35 68  1  0
 40 69  1  0
 41 70  1  0
 42 71  1  0
 43 72  1  0
M  END
>  <Binding energies>  (1) 
[-10.98]

>  <Ligand effiencies>  (1) 
[-0.22875]

>  <Interactions>  (1) 
["V-A:TYR:539:CZ:4877, V-A:ALA:541:CB:4892, V-B:MET:535:CE:9807, V-B:ILE:369:CG2:8209, V-B:LEU:475:CD2:9231, V-B:ILE:369:CD1:8211, H-B:TYR:484:OH:9320, V-A:TYR:539:CE1:4875, H-B:TYR:531:OH:9767, V-B:ASP:366:CG:8185, V-B:PRO:540:CB:9857, V-B:ASP:366:CB:8184, V-B:ASP:366:CA:8182, V-B:PRO:540:N:9856, V-A:TYR:539:CD1:4873, V-A:TYR:539:C:4867, V-A:PRO:540:C:4881, V-B:LEU:363:CD1:8161, V-B:TYR:531:CE2:9765, V-B:GLU:543:CD:9880, V-B:ILE:538:CA:9832, V-B:ILE:538:CD1:9837, V-B:PRO:540:CD:9859, V-B:ASP:366:C:8180, H-B:ASP:366:OD1:8186, V-B:ILE:538:CG2:9835, V-B:SER:385:CB:8381, V-B:ILE:538:C:9830, V-B:TYR:531:CE1:9764, V-A:ALA:541:CA:4890, V-A:TYR:539:CB:4871, V-B:PRO:482:CB:9298, V-B:PRO:482:CG:9299"]

$$$$
RR19_Rahimova_2017-again1
     RDKit          3D

 71 76  0  0  0  0  0  0  0  0999 V2000
  124.6650  131.3750   59.4830 O   0  0  0  0  0  0  0  0  0  0  0  0
  124.6490  130.4450   60.2940 C   0  0  0  0  0  0  0  0  0  0  0  0
  125.0700  129.1800   60.0560 N   0  0  0  0  0  0  0  0  0  0  0  0
  125.7250  128.6010   59.0050 C   0  0  0  0  0  0  0  0  0  0  0  0
  126.1680  129.2430   57.5170 S   0  0  0  0  0  0  0  0  0  0  0  0
  126.0670  127.3230   59.4080 N   0  0  0  0  0  0  0  0  0  0  0  0
  126.5080  126.9170   60.5540 C   0  0  0  0  0  0  0  0  0  0  0  0
  126.6660  127.5380   61.6250 O   0  0  0  0  0  0  0  0  0  0  0  0
  126.9300  125.4110   60.6170 C   0  0  2  0  0  0  0  0  0  0  0  0
  128.3920  125.2490   61.1500 C   0  0  0  0  0  0  0  0  0  0  0  0
  128.8930  123.8080   61.2020 C   0  0  0  0  0  0  0  0  0  0  0  0
  130.1820  123.5010   60.7590 C   0  0  0  0  0  0  0  0  0  0  0  0
  130.6450  122.1900   60.8200 C   0  0  0  0  0  0  0  0  0  0  0  0
  129.8160  121.1870   61.3220 C   0  0  0  0  0  0  0  0  0  0  0  0
  128.5270  121.4860   61.7620 C   0  0  0  0  0  0  0  0  0  0  0  0
  128.0640  122.7970   61.6990 C   0  0  0  0  0  0  0  0  0  0  0  0
  126.6390  124.6530   59.3550 N   0  0  0  0  0  0  0  0  0  0  0  0
  127.4870  124.6880   58.2890 C   0  0  0  0  0  0  0  0  0  0  0  0
  128.5440  125.3130   58.1940 O   0  0  0  0  0  0  0  0  0  0  0  0
  126.8650  123.8130   57.2610 C   0  0  0  0  0  0  0  0  0  0  0  0
  127.2830  123.4780   55.9730 C   0  0  0  0  0  0  0  0  0  0  0  0
  126.4840  122.6160   55.2140 C   0  0  0  0  0  0  0  0  0  0  0  0
  125.2930  122.1040   55.7460 C   0  0  0  0  0  0  0  0  0  0  0  0
  124.8920  122.4520   57.0400 C   0  0  0  0  0  0  0  0  0  0  0  0
  125.7020  123.3150   57.7800 C   0  0  0  0  0  0  0  0  0  0  0  0
  125.5470  123.8540   59.1520 C   0  0  0  0  0  0  0  0  0  0  0  0
  124.6280  123.6270   59.9380 O   0  0  0  0  0  0  0  0  0  0  0  0
  124.1070  130.6880   61.7330 C   0  0  2  0  0  0  0  0  0  0  0  0
  123.7410  132.1720   62.0230 C   0  0  0  0  0  0  0  0  0  0  0  0
  124.7330  133.1730   61.4580 C   0  0  0  0  0  0  0  0  0  0  0  0
  124.2760  134.2700   60.6980 C   0  0  0  0  0  0  0  0  0  0  0  0
  125.1730  135.2390   60.2660 C   0  0  0  0  0  0  0  0  0  0  0  0
  126.5180  135.1470   60.6030 C   0  0  0  0  0  0  0  0  0  0  0  0
  126.9760  134.0930   61.3820 C   0  0  0  0  0  0  0  0  0  0  0  0
  126.0950  133.1140   61.8240 C   0  0  0  0  0  0  0  0  0  0  0  0
  124.9570  130.0980   62.8120 N   0  0  0  0  0  0  0  0  0  0  0  0
  126.3170  130.0900   62.7240 C   0  0  0  0  0  0  0  0  0  0  0  0
  127.0080  130.4630   61.7760 O   0  0  0  0  0  0  0  0  0  0  0  0
  126.7930  129.5440   64.0200 C   0  0  0  0  0  0  0  0  0  0  0  0
  128.0850  129.3200   64.4980 C   0  0  0  0  0  0  0  0  0  0  0  0
  128.2400  128.8070   65.7910 C   0  0  0  0  0  0  0  0  0  0  0  0
  127.1160  128.5250   66.5780 C   0  0  0  0  0  0  0  0  0  0  0  0
  125.8290  128.7540   66.0800 C   0  0  0  0  0  0  0  0  0  0  0  0
  125.6960  129.2690   64.7900 C   0  0  0  0  0  0  0  0  0  0  0  0
  124.4890  129.6380   64.0100 C   0  0  0  0  0  0  0  0  0  0  0  0
  123.3150  129.5580   64.3730 O   0  0  0  0  0  0  0  0  0  0  0  0
  124.9540  128.5580   60.8410 H   0  0  0  0  0  0  0  0  0  0  0  0
  126.2819  124.9246   61.3609 H   0  0  0  0  0  0  0  0  0  0  0  0
  129.0624  125.8219   60.4925 H   0  0  0  0  0  0  0  0  0  0  0  0
  128.3883  125.6156   62.1871 H   0  0  0  0  0  0  0  0  0  0  0  0
  130.8309  124.2955   60.3620 H   0  0  0  0  0  0  0  0  0  0  0  0
  131.6602  121.9459   60.4739 H   0  0  0  0  0  0  0  0  0  0  0  0
  130.1822  120.1509   61.3713 H   0  0  0  0  0  0  0  0  0  0  0  0
  127.8792  120.6895   62.1570 H   0  0  0  0  0  0  0  0  0  0  0  0
  127.0463  123.0380   62.0400 H   0  0  0  0  0  0  0  0  0  0  0  0
  128.2202  123.8826   55.5631 H   0  0  0  0  0  0  0  0  0  0  0  0
  126.7921  122.3389   54.1950 H   0  0  0  0  0  0  0  0  0  0  0  0
  124.6710  121.4257   55.1435 H   0  0  0  0  0  0  0  0  0  0  0  0
  123.9587  122.0543   57.4652 H   0  0  0  0  0  0  0  0  0  0  0  0
  123.1604  130.1281   61.7555 H   0  0  0  0  0  0  0  0  0  0  0  0
  122.7537  132.3773   61.5835 H   0  0  0  0  0  0  0  0  0  0  0  0
  123.7512  132.2952   63.1160 H   0  0  0  0  0  0  0  0  0  0  0  0
  123.2086  134.3583   60.4472 H   0  0  0  0  0  0  0  0  0  0  0  0
  124.8173  136.0818   59.6552 H   0  0  0  0  0  0  0  0  0  0  0  0
  127.2238  135.9136   60.2506 H   0  0  0  0  0  0  0  0  0  0  0  0
  128.0411  134.0328   61.6504 H   0  0  0  0  0  0  0  0  0  0  0  0
  126.4588  132.2929   62.4592 H   0  0  0  0  0  0  0  0  0  0  0  0
  128.9621  129.5417   63.8723 H   0  0  0  0  0  0  0  0  0  0  0  0
  129.2484  128.6246   66.1908 H   0  0  0  0  0  0  0  0  0  0  0  0
  127.2461  128.1214   67.5930 H   0  0  0  0  0  0  0  0  0  0  0  0
  124.9418  128.5331   66.6916 H   0  0  0  0  0  0  0  0  0  0  0  0
  1  2  2  0
  2  3  1  0
  3  4  1  0
  4  5  2  0
  4  6  1  0
  6  7  2  0
  7  8  1  0
  7  9  1  0
  9 10  1  0
 10 11  1  0
 11 12  2  0
 12 13  1  0
 13 14  2  0
 14 15  1  0
 15 16  2  0
  9 17  1  0
 17 18  1  0
 18 19  2  0
 18 20  1  0
 20 21  2  0
 21 22  1  0
 22 23  2  0
 23 24  1  0
 24 25  2  0
 25 26  1  0
 26 27  2  0
  2 28  1  0
 28 29  1  0
 29 30  1  0
 30 31  2  0
 31 32  1  0
 32 33  2  0
 33 34  1  0
 34 35  2  0
 28 36  1  0
 36 37  1  0
 37 38  2  0
 37 39  1  0
 39 40  2  0
 40 41  1  0
 41 42  2  0
 42 43  1  0
 43 44  2  0
 44 45  1  0
 45 46  2  0
 16 11  1  0
 26 17  1  0
 35 30  1  0
 45 36  1  0
 25 20  1  0
 44 39  1  0
  3 47  1  0
  9 48  1  1
 10 49  1  0
 10 50  1  0
 12 51  1  0
 13 52  1  0
 14 53  1  0
 15 54  1  0
 16 55  1  0
 21 56  1  0
 22 57  1  0
 23 58  1  0
 24 59  1  0
 28 60  1  6
 29 61  1  0
 29 62  1  0
 31 63  1  0
 32 64  1  0
 33 65  1  0
 34 66  1  0
 35 67  1  0
 40 68  1  0
 41 69  1  0
 42 70  1  0
 43 71  1  0
M  CHG  1   8  -1
M  END
>  <Binding energies>  (1) 
[-10.82]

>  <Ligand effiencies>  (1) 
[-0.2302127659574468]

>  <Interactions>  (1) 
["V-A:ALA:541:CB:4892, V-B:MET:535:CE:9807, V-B:ILE:369:CG2:8209, V-B:LEU:475:CD2:9231, V-B:TYR:539:CE2:9848, V-A:GLU:543:CD:4908, V-B:ILE:369:CD1:8211, H-B:GLY:454:N:9022, V-A:GLU:543:CG:4907, V-A:TYR:539:CE1:4875, V-B:ARG:545:CZ:9898, V-B:TYR:539:CD2:9846, V-A:LEU:475:CD2:4259, H-B:ASP:366:OD2:8187, V-B:TYR:539:CE1:9847, V-B:ASP:366:CG:8185, V-B:PRO:540:CB:9857, V-B:PRO:540:CA:9855, V-B:ASP:366:CB:8184, V-B:PRO:540:N:9856, V-A:TYR:539:CD1:4873, V-B:LEU:363:CD1:8161, V-B:GLU:543:CD:9880, V-B:ILE:538:CA:9832, V-B:ILE:538:CD1:9837, V-B:PRO:540:C:9853, V-B:PRO:540:CG:9858, V-B:PRO:540:CD:9859, H-B:ASP:366:OD1:8186, V-B:ALA:541:CB:9864, V-B:ILE:538:CG2:9835, V-B:GLY:454:CA:9021, V-B:SER:385:CA:8379, V-B:ILE:538:C:9830, V-B:ARG:545:CD:9895, H-B:ARG:545:NE:9896, V-B:HIS:456:CE1:9042, H-B:ARG:545:NH2:9900, V-B:ILE:538:CB:9834, H-B:ARG:545:NH1:9899, V-A:GLU:543:CB:4906, V-B:ALA:541:CA:9862"]

$$$$
RR1_Rahimova_2017
     RDKit          3D

 68 71  0  0  0  0  0  0  0  0999 V2000
  125.1530  122.8040   56.3230 C   0  0  0  0  0  0  0  0  0  0  0  0
  126.4630  122.2760   56.4940 O   0  0  0  0  0  0  0  0  0  0  0  0
  127.2750  122.7950   57.4830 C   0  0  0  0  0  0  0  0  0  0  0  0
  127.1100  122.5470   58.8550 C   0  0  0  0  0  0  0  0  0  0  0  0
  127.9750  123.1210   59.7820 C   0  0  0  0  0  0  0  0  0  0  0  0
  129.0190  123.9440   59.3580 C   0  0  0  0  0  0  0  0  0  0  0  0
  129.8110  124.5140   60.3730 N   0  0  0  0  0  0  0  0  0  0  0  0
  129.9860  124.1100   61.6500 C   0  0  0  0  0  0  0  0  0  0  0  0
  129.3950  123.1660   62.1740 O   0  0  0  0  0  0  0  0  0  0  0  0
  131.0060  124.9370   62.4480 C   0  0  0  0  0  0  0  0  0  0  0  0
  132.6980  124.2490   62.5080 S   0  0  0  0  0  0  0  0  0  0  0  0
  132.4480  122.9020   61.4000 C   0  0  0  0  0  0  0  0  0  0  0  0
  131.9330  121.7490   61.7470 N   0  0  0  0  0  0  0  0  0  0  0  0
  131.9200  121.0530   60.6150 C   0  0  0  0  0  0  0  0  0  0  0  0
  131.3880  119.6500   60.5400 C   0  0  0  0  0  0  0  0  0  0  0  0
  130.2520  119.2560   61.2650 C   0  0  0  0  0  0  0  0  0  0  0  0
  129.7820  117.9440   61.1770 C   0  0  0  0  0  0  0  0  0  0  0  0
  130.4650  117.0470   60.3590 C   0  0  0  0  0  0  0  0  0  0  0  0
  131.5660  117.3930   59.6450 N   0  0  0  0  0  0  0  0  0  0  0  0
  132.0070  118.6740   59.7430 C   0  0  0  0  0  0  0  0  0  0  0  0
  132.4040  121.6800   59.5590 N   0  0  0  0  0  0  0  0  0  0  0  0
  132.7460  122.8700   60.0620 N   0  0  0  0  0  0  0  0  0  0  0  0
  133.3150  123.9060   59.2000 C   0  0  0  0  0  0  0  0  0  0  0  0
  132.4460  125.1640   59.0350 C   0  0  0  0  0  0  0  0  0  0  0  0
  132.3490  125.9910   59.9480 O   0  0  0  0  0  0  0  0  0  0  0  0
  131.8220  125.2720   57.8460 N   0  0  0  0  0  0  0  0  0  0  0  0
  131.1400  126.4490   57.5690 N   0  0  0  0  0  0  0  0  0  0  0  0
  131.1840  126.9200   56.3040 C   0  0  0  0  0  0  0  0  0  0  0  0
  131.7040  126.3180   55.3580 O   0  0  0  0  0  0  0  0  0  0  0  0
  130.5160  128.2610   56.0810 C   0  0  0  0  0  0  0  0  0  0  0  0
  131.1410  129.4350   56.5180 C   0  0  0  0  0  0  0  0  0  0  0  0
  130.5400  130.6750   56.3340 C   0  0  0  0  0  0  0  0  0  0  0  0
  129.2860  130.7810   55.7110 C   0  0  0  0  0  0  0  0  0  0  0  0
  128.6280  131.9810   55.5100 O   0  0  0  0  0  0  0  0  0  0  0  0
  128.6430  132.9690   56.5340 C   0  0  0  0  0  0  0  0  0  0  0  0
  128.6400  129.6170   55.2720 C   0  0  0  0  0  0  0  0  0  0  0  0
  127.3970  129.7730   54.6830 O   0  0  0  0  0  0  0  0  0  0  0  0
  126.2420  129.9140   55.5020 C   0  0  0  0  0  0  0  0  0  0  0  0
  129.2620  128.3690   55.4580 C   0  0  0  0  0  0  0  0  0  0  0  0
  129.1880  124.1950   57.9880 C   0  0  0  0  0  0  0  0  0  0  0  0
  128.3210  123.6180   57.0640 C   0  0  0  0  0  0  0  0  0  0  0  0
  124.6998  122.9867   57.3085 H   0  0  0  0  0  0  0  0  0  0  0  0
  125.2089  123.7498   55.7641 H   0  0  0  0  0  0  0  0  0  0  0  0
  124.5374  122.0838   55.7641 H   0  0  0  0  0  0  0  0  0  0  0  0
  126.2930  121.8958   59.1990 H   0  0  0  0  0  0  0  0  0  0  0  0
  127.8348  122.9247   60.8552 H   0  0  0  0  0  0  0  0  0  0  0  0
  130.2840  125.3650   60.1040 H   0  0  0  0  0  0  0  0  0  0  0  0
  131.0622  125.9370   61.9932 H   0  0  0  0  0  0  0  0  0  0  0  0
  130.6445  124.9434   63.4869 H   0  0  0  0  0  0  0  0  0  0  0  0
  129.7304  119.9833   61.9045 H   0  0  0  0  0  0  0  0  0  0  0  0
  128.8926  117.6261   61.7408 H   0  0  0  0  0  0  0  0  0  0  0  0
  130.0959  116.0132   60.2887 H   0  0  0  0  0  0  0  0  0  0  0  0
  132.8981  118.9625   59.1662 H   0  0  0  0  0  0  0  0  0  0  0  0
  134.2813  124.2124   59.6271 H   0  0  0  0  0  0  0  0  0  0  0  0
  133.4020  123.4590   58.1987 H   0  0  0  0  0  0  0  0  0  0  0  0
  132.0480  124.7290   57.0240 H   0  0  0  0  0  0  0  0  0  0  0  0
  131.1460  127.0740   58.3620 H   0  0  0  0  0  0  0  0  0  0  0  0
  132.1211  129.3755   57.0138 H   0  0  0  0  0  0  0  0  0  0  0  0
  131.0530  131.5842   56.6807 H   0  0  0  0  0  0  0  0  0  0  0  0
  128.6355  132.4774   57.5180 H   0  0  0  0  0  0  0  0  0  0  0  0
  129.5506  133.5831   56.4378 H   0  0  0  0  0  0  0  0  0  0  0  0
  127.7545  133.6103   56.4378 H   0  0  0  0  0  0  0  0  0  0  0  0
  126.5369  129.8780   56.5611 H   0  0  0  0  0  0  0  0  0  0  0  0
  125.7569  130.8780   55.2890 H   0  0  0  0  0  0  0  0  0  0  0  0
  125.5393  129.0950   55.2890 H   0  0  0  0  0  0  0  0  0  0  0  0
  128.7550  127.4578   55.1078 H   0  0  0  0  0  0  0  0  0  0  0  0
  130.0046  124.8469   57.6443 H   0  0  0  0  0  0  0  0  0  0  0  0
  128.4623  123.8133   55.9907 H   0  0  0  0  0  0  0  0  0  0  0  0
  1  2  1  0
  2  3  1  0
  3  4  2  0
  4  5  1  0
  5  6  2  0
  6  7  1  0
  7  8  1  0
  8  9  2  0
  8 10  1  0
 10 11  1  0
 11 12  1  0
 12 13  2  0
 13 14  1  0
 14 15  1  0
 15 16  2  0
 16 17  1  0
 17 18  2  0
 18 19  1  0
 19 20  2  0
 14 21  2  0
 21 22  1  0
 22 23  1  0
 23 24  1  0
 24 25  2  0
 24 26  1  0
 26 27  1  0
 27 28  1  0
 28 29  2  0
 28 30  1  0
 30 31  2  0
 31 32  1  0
 32 33  2  0
 33 34  1  0
 34 35  1  0
 33 36  1  0
 36 37  1  0
 37 38  1  0
 36 39  2  0
  6 40  1  0
 40 41  2  0
 41  3  1  0
 22 12  1  0
 39 30  1  0
 20 15  1  0
  1 42  1  0
  1 43  1  0
  1 44  1  0
  4 45  1  0
  5 46  1  0
  7 47  1  0
 10 48  1  0
 10 49  1  0
 16 50  1  0
 17 51  1  0
 18 52  1  0
 20 53  1  0
 23 54  1  0
 23 55  1  0
 26 56  1  0
 27 57  1  0
 31 58  1  0
 32 59  1  0
 35 60  1  0
 35 61  1  0
 35 62  1  0
 38 63  1  0
 38 64  1  0
 38 65  1  0
 39 66  1  0
 40 67  1  0
 41 68  1  0
M  END
>  <Binding energies>  (1) 
[-8.86]

>  <Ligand effiencies>  (1) 
[-0.20136363636363636]

>  <Interactions>  (1) 
["V-A:TYR:539:CZ:4877, V-A:ILE:369:CB:3236, V-A:ASP:366:CG:3213, V-B:MET:535:CE:9807, V-B:TYR:539:CE2:9848, V-A:ASP:366:CB:3212, H-B:LYS:534:NZ:9795, V-B:TYR:539:CZ:9849, H-A:TYR:531:OH:4795, V-A:TYR:539:CE1:4875, V-A:ILE:369:CG2:3237, V-B:TYR:539:CD2:9846, V-A:LEU:475:CD2:4259, V-B:TYR:539:CE1:9847, H-B:TYR:539:OH:9850, V-B:TYR:539:C:9839, H-B:TYR:539:N:9842, V-B:PRO:540:CB:9857, V-B:PRO:540:CA:9855, V-B:PRO:540:N:9856, V-A:ILE:369:CD1:3239, V-A:TYR:539:CD1:4873, V-A:TYR:539:C:4867, V-B:LEU:363:CD1:8161, V-B:TYR:531:CE2:9765, V-B:ILE:538:CD1:9837, H-A:ASP:366:OD1:3214, V-A:TYR:539:CE2:4876, V-A:TYR:539:CD2:4874, V-A:PRO:540:N:4884, V-A:TYR:539:CG:4872, V-B:PRO:540:CD:9859, V-A:LEU:475:CD1:4258, V-B:ALA:541:CB:9864, H-A:TYR:484:OH:4348, V-B:TYR:531:CE1:9764, V-A:TYR:539:CB:4871, V-A:SER:385:CB:3409, V-A:TYR:539:CA:4869, V-A:PRO:482:CB:4326, V-A:LEU:475:CG:4257, V-A:PRO:482:CG:4327, H-A:SER:385:OG:3410"]

$$$$
RR20_Rahimova_2017
     RDKit          3D

 68 73  0  0  0  0  0  0  0  0999 V2000
  130.6570  115.8830   59.2690 C   0  0  0  0  0  0  0  0  0  0  0  0
  130.6680  117.2720   59.8810 C   0  0  0  0  0  0  0  0  0  0  0  0
  129.7260  117.6110   60.8520 C   0  0  0  0  0  0  0  0  0  0  0  0
  129.7400  118.8820   61.4210 C   0  0  0  0  0  0  0  0  0  0  0  0
  130.6880  119.8280   61.0140 C   0  0  0  0  0  0  0  0  0  0  0  0
  130.6990  121.1960   61.6600 C   0  0  0  0  0  0  0  0  0  0  0  0
  130.1340  121.3180   62.7490 O   0  0  0  0  0  0  0  0  0  0  0  0
  131.3360  122.2270   61.0310 N   0  0  0  0  0  0  0  0  0  0  0  0
  132.7700  122.1630   60.7030 C   0  0  0  0  0  0  0  0  0  0  0  0
  133.0780  123.4050   59.8850 C   0  0  0  0  0  0  0  0  0  0  0  0
  131.7170  123.8910   59.4900 C   0  0  0  0  0  0  0  0  0  0  0  0
  131.3710  124.9540   58.6560 C   0  0  0  0  0  0  0  0  0  0  0  0
  130.0360  125.3600   58.5340 C   0  0  0  0  0  0  0  0  0  0  0  0
  129.6610  126.5000   57.6290 C   0  0  0  0  0  0  0  0  0  0  0  0
  128.5330  127.1490   57.8690 N   0  0  0  0  0  0  0  0  0  0  0  0
  128.3170  128.1330   57.0330 C   0  0  0  0  0  0  0  0  0  0  0  0
  127.2440  129.0100   57.0040 N   0  0  0  0  0  0  0  0  0  0  0  0
  126.3480  129.1690   55.9990 C   0  0  0  0  0  0  0  0  0  0  0  0
  126.3630  128.5160   54.9540 O   0  0  0  0  0  0  0  0  0  0  0  0
  125.2240  130.2160   56.1860 C   0  0  0  0  0  0  0  0  0  0  0  0
  125.0390  130.6160   57.5930 N   0  0  0  0  0  0  0  0  0  0  0  0
  123.7960  131.3740   57.8010 C   0  0  0  0  0  0  0  0  0  0  0  0
  123.7810  131.9940   59.2170 C   0  0  0  0  0  0  0  0  0  0  0  0
  124.2050  131.0070   60.3050 C   0  0  0  0  0  0  0  0  0  0  0  0
  124.0000  131.2950   61.6590 C   0  0  0  0  0  0  0  0  0  0  0  0
  124.4210  130.4130   62.6520 C   0  0  0  0  0  0  0  0  0  0  0  0
  125.0540  129.2250   62.2990 C   0  0  0  0  0  0  0  0  0  0  0  0
  125.2560  128.9220   60.9540 C   0  0  0  0  0  0  0  0  0  0  0  0
  124.8390  129.7990   59.9470 C   0  0  0  0  0  0  0  0  0  0  0  0
  125.0090  129.4400   58.4710 C   0  0  0  0  0  0  0  0  0  0  0  0
  129.5350  128.3270   55.8340 S   0  0  0  0  0  0  0  0  0  0  0  0
  130.3940  126.9660   56.5160 C   0  0  0  0  0  0  0  0  0  0  0  0
  131.6790  126.4770   55.8850 C   0  0  0  0  0  0  0  0  0  0  0  0
  129.0650  124.7110   59.3120 C   0  0  0  0  0  0  0  0  0  0  0  0
  129.4110  123.6600   60.1610 C   0  0  0  0  0  0  0  0  0  0  0  0
  130.7360  123.2080   60.2090 C   0  0  0  0  0  0  0  0  0  0  0  0
  131.6490  119.4710   60.0600 C   0  0  0  0  0  0  0  0  0  0  0  0
  131.6360  118.1990   59.4910 C   0  0  0  0  0  0  0  0  0  0  0  0
  130.6510  115.1293   60.0702 H   0  0  0  0  0  0  0  0  0  0  0  0
  129.7579  115.7636   58.6466 H   0  0  0  0  0  0  0  0  0  0  0  0
  131.5541  115.7494   58.6466 H   0  0  0  0  0  0  0  0  0  0  0  0
  128.9723  116.8748   61.1682 H   0  0  0  0  0  0  0  0  0  0  0  0
  129.0025  119.1438   62.1940 H   0  0  0  0  0  0  0  0  0  0  0  0
  133.3711  122.1553   61.6242 H   0  0  0  0  0  0  0  0  0  0  0  0
  133.0109  121.2470   60.1437 H   0  0  0  0  0  0  0  0  0  0  0  0
  133.6065  124.1564   60.4900 H   0  0  0  0  0  0  0  0  0  0  0  0
  133.7353  123.2073   59.0254 H   0  0  0  0  0  0  0  0  0  0  0  0
  132.1540  125.4785   58.0887 H   0  0  0  0  0  0  0  0  0  0  0  0
  127.1270  129.5950   57.8190 H   0  0  0  0  0  0  0  0  0  0  0  0
  125.4763  131.1104   55.5974 H   0  0  0  0  0  0  0  0  0  0  0  0
  124.2843  129.7545   55.8483 H   0  0  0  0  0  0  0  0  0  0  0  0
  123.7300  132.1768   57.0519 H   0  0  0  0  0  0  0  0  0  0  0  0
  122.9382  130.6932   57.6975 H   0  0  0  0  0  0  0  0  0  0  0  0
  124.4712  132.8504   59.2322 H   0  0  0  0  0  0  0  0  0  0  0  0
  122.7459  132.2974   59.4328 H   0  0  0  0  0  0  0  0  0  0  0  0
  123.4989  132.2319   61.9437 H   0  0  0  0  0  0  0  0  0  0  0  0
  124.2535  130.6550   63.7119 H   0  0  0  0  0  0  0  0  0  0  0  0
  125.3937  128.5277   63.0790 H   0  0  0  0  0  0  0  0  0  0  0  0
  125.7510  127.9787   60.6798 H   0  0  0  0  0  0  0  0  0  0  0  0
  125.9536  128.8892   58.3511 H   0  0  0  0  0  0  0  0  0  0  0  0
  124.1391  128.8337   58.1782 H   0  0  0  0  0  0  0  0  0  0  0  0
  132.3948  126.2046   56.6746 H   0  0  0  0  0  0  0  0  0  0  0  0
  131.4689  125.5960   55.2608 H   0  0  0  0  0  0  0  0  0  0  0  0
  132.1077  127.2748   55.2608 H   0  0  0  0  0  0  0  0  0  0  0  0
  128.0158  125.0359   59.2513 H   0  0  0  0  0  0  0  0  0  0  0  0
  128.6444  123.1866   60.7921 H   0  0  0  0  0  0  0  0  0  0  0  0
  132.4176  120.1979   59.7584 H   0  0  0  0  0  0  0  0  0  0  0  0
  132.3875  117.9258   58.7356 H   0  0  0  0  0  0  0  0  0  0  0  0
  1  2  1  0
  2  3  2  0
  3  4  1  0
  4  5  2  0
  5  6  1  0
  6  7  2  0
  6  8  1  0
  8  9  1  0
  9 10  1  0
 10 11  1  0
 11 12  2  0
 12 13  1  0
 13 14  1  0
 14 15  1  0
 15 16  2  0
 16 17  1  0
 17 18  1  0
 18 19  2  0
 18 20  1  0
 20 21  1  0
 21 22  1  0
 22 23  1  0
 23 24  1  0
 24 25  2  0
 25 26  1  0
 26 27  2  0
 27 28  1  0
 28 29  2  0
 29 30  1  0
 16 31  1  0
 31 32  1  0
 32 33  1  0
 13 34  2  0
 34 35  1  0
 35 36  2  0
  5 37  1  0
 37 38  2  0
 38  2  1  0
 36  8  1  0
 36 11  1  0
 32 14  2  0
 30 21  1  0
 29 24  1  0
  1 39  1  0
  1 40  1  0
  1 41  1  0
  3 42  1  0
  4 43  1  0
  9 44  1  0
  9 45  1  0
 10 46  1  0
 10 47  1  0
 12 48  1  0
 17 49  1  0
 20 50  1  0
 20 51  1  0
 22 52  1  0
 22 53  1  0
 23 54  1  0
 23 55  1  0
 25 56  1  0
 26 57  1  0
 27 58  1  0
 28 59  1  0
 30 60  1  0
 30 61  1  0
 33 62  1  0
 33 63  1  0
 33 64  1  0
 34 65  1  0
 35 66  1  0
 37 67  1  0
 38 68  1  0
M  END
>  <Binding energies>  (1) 
[-10.85]

>  <Ligand effiencies>  (1) 
[-0.2782051282051282]

>  <Interactions>  (1) 
["V-A:TYR:539:CZ:4877, V-B:MET:535:CE:9807, V-B:ILE:369:CG2:8209, V-B:TYR:539:CE2:9848, H-B:LYS:534:NZ:9795, V-B:ILE:369:CD1:8211, V-A:TYR:539:CE1:4875, V-B:ARG:545:CZ:9898, V-A:ILE:369:CG2:3237, H-A:TYR:539:OH:4878, V-B:TYR:539:CD2:9846, V-A:LEU:475:CD2:4259, H-B:TYR:531:OH:9767, V-B:TYR:539:CG:9844, V-B:TYR:539:C:9839, V-B:ASP:366:CG:8185, V-B:ASP:366:CB:8184, V-B:ASP:366:CA:8182, V-A:ILE:369:CD1:3239, V-B:TYR:531:CZ:9766, V-B:ASP:366:C:8180, V-B:ILE:369:CB:8208, V-B:TYR:539:CB:9843, V-A:LEU:475:CD1:4258, V-B:ALA:541:CB:9864, H-A:TYR:484:OH:4348, V-B:TYR:531:CE1:9764, V-A:SER:385:CB:3409, V-B:VAL:344:CG1:7973, V-A:PRO:482:CB:4326, V-A:HIS:383:CE1:3394, V-A:PRO:482:CG:4327"]

$$$$
RR20_Rahimova_2017-again1
     RDKit          3D

 68 73  0  0  0  0  0  0  0  0999 V2000
  131.1500  116.1130   59.3090 C   0  0  0  0  0  0  0  0  0  0  0  0
  131.0560  117.5160   59.8800 C   0  0  0  0  0  0  0  0  0  0  0  0
  130.0620  117.8230   60.8120 C   0  0  0  0  0  0  0  0  0  0  0  0
  129.9790  119.1070   61.3420 C   0  0  0  0  0  0  0  0  0  0  0  0
  130.8800  120.0990   60.9380 C   0  0  0  0  0  0  0  0  0  0  0  0
  130.7850  121.4840   61.5380 C   0  0  0  0  0  0  0  0  0  0  0  0
  130.1200  121.6180   62.5680 O   0  0  0  0  0  0  0  0  0  0  0  0
  131.4520  122.5160   60.9420 N   0  0  0  0  0  0  0  0  0  0  0  0
  132.9180  122.5090   60.8120 C   0  0  0  0  0  0  0  0  0  0  0  0
  133.2810  123.7250   59.9760 C   0  0  0  0  0  0  0  0  0  0  0  0
  131.9630  124.1220   59.3800 C   0  0  0  0  0  0  0  0  0  0  0  0
  131.6860  125.1300   58.4550 C   0  0  0  0  0  0  0  0  0  0  0  0
  130.3600  125.4650   58.1390 C   0  0  0  0  0  0  0  0  0  0  0  0
  130.0610  126.5530   57.1490 C   0  0  0  0  0  0  0  0  0  0  0  0
  129.1370  127.4480   57.4630 N   0  0  0  0  0  0  0  0  0  0  0  0
  128.9340  128.3550   56.5380 C   0  0  0  0  0  0  0  0  0  0  0  0
  128.0320  129.3860   56.5240 N   0  0  0  0  0  0  0  0  0  0  0  0
  127.0940  129.5360   55.6500 C   0  0  0  0  0  0  0  0  0  0  0  0
  126.7220  128.8160   54.7040 O   0  0  0  0  0  0  0  0  0  0  0  0
  126.2850  130.8390   55.8190 C   0  0  0  0  0  0  0  0  0  0  0  0
  125.0100  130.5640   56.6690 N   0  0  2  0  0  0  0  0  0  0  0  0
  124.9920  131.3680   57.9860 C   0  0  0  0  0  0  0  0  0  0  0  0
  126.1330  130.8960   58.9050 C   0  0  0  0  0  0  0  0  0  0  0  0
  126.1940  129.3790   59.0590 C   0  0  0  0  0  0  0  0  0  0  0  0
  126.8710  128.8170   60.1470 C   0  0  0  0  0  0  0  0  0  0  0  0
  126.9880  127.4380   60.2940 C   0  0  0  0  0  0  0  0  0  0  0  0
  126.4210  126.5950   59.3450 C   0  0  0  0  0  0  0  0  0  0  0  0
  125.7330  127.1380   58.2640 C   0  0  0  0  0  0  0  0  0  0  0  0
  125.5980  128.5220   58.1030 C   0  0  0  0  0  0  0  0  0  0  0  0
  124.7820  129.0540   56.9190 C   0  0  0  0  0  0  0  0  0  0  0  0
  129.9120  128.1270   55.1360 S   0  0  0  0  0  0  0  0  0  0  0  0
  130.6630  126.7410   55.8890 C   0  0  0  0  0  0  0  0  0  0  0  0
  131.7750  125.9920   55.1840 C   0  0  0  0  0  0  0  0  0  0  0  0
  129.3260  124.7970   58.8080 C   0  0  0  0  0  0  0  0  0  0  0  0
  129.6000  123.8020   59.7470 C   0  0  0  0  0  0  0  0  0  0  0  0
  130.9250  123.4220   59.9950 C   0  0  0  0  0  0  0  0  0  0  0  0
  131.8930  119.7750   60.0260 C   0  0  0  0  0  0  0  0  0  0  0  0
  131.9770  118.4910   59.4950 C   0  0  0  0  0  0  0  0  0  0  0  0
  131.1988  115.3847   60.1319 H   0  0  0  0  0  0  0  0  0  0  0  0
  130.2635  115.9087   58.6906 H   0  0  0  0  0  0  0  0  0  0  0  0
  132.0558  116.0287   58.6906 H   0  0  0  0  0  0  0  0  0  0  0  0
  129.3452  117.0503   61.1268 H   0  0  0  0  0  0  0  0  0  0  0  0
  129.2009  119.3437   62.0826 H   0  0  0  0  0  0  0  0  0  0  0  0
  133.3881  122.5755   61.8042 H   0  0  0  0  0  0  0  0  0  0  0  0
  133.2718  121.5807   60.3398 H   0  0  0  0  0  0  0  0  0  0  0  0
  133.6907  124.5299   60.6039 H   0  0  0  0  0  0  0  0  0  0  0  0
  134.0564  123.5208   59.2229 H   0  0  0  0  0  0  0  0  0  0  0  0
  132.5143  125.6667   57.9693 H   0  0  0  0  0  0  0  0  0  0  0  0
  126.9067  131.5912   56.3267 H   0  0  0  0  0  0  0  0  0  0  0  0
  125.9864  131.2113   54.8279 H   0  0  0  0  0  0  0  0  0  0  0  0
  124.2310  130.9010   56.1180 H   0  0  0  0  0  0  0  0  0  0  0  0
  125.1227  132.4370   57.7623 H   0  0  0  0  0  0  0  0  0  0  0  0
  124.0293  131.2088   58.4938 H   0  0  0  0  0  0  0  0  0  0  0  0
  127.0877  131.2430   58.4830 H   0  0  0  0  0  0  0  0  0  0  0  0
  125.9439  131.3180   59.9031 H   0  0  0  0  0  0  0  0  0  0  0  0
  127.3202  129.4790   60.9020 H   0  0  0  0  0  0  0  0  0  0  0  0
  127.5261  127.0174   61.1563 H   0  0  0  0  0  0  0  0  0  0  0  0
  126.5157  125.5039   59.4481 H   0  0  0  0  0  0  0  0  0  0  0  0
  125.2850  126.4641   57.5189 H   0  0  0  0  0  0  0  0  0  0  0  0
  125.0716  128.4995   56.0142 H   0  0  0  0  0  0  0  0  0  0  0  0
  123.7176  128.9132   57.1582 H   0  0  0  0  0  0  0  0  0  0  0  0
  132.4445  125.5411   55.9313 H   0  0  0  0  0  0  0  0  0  0  0  0
  131.3423  125.2006   54.5544 H   0  0  0  0  0  0  0  0  0  0  0  0
  132.3458  126.6904   54.5544 H   0  0  0  0  0  0  0  0  0  0  0  0
  128.2809  125.0613   58.5893 H   0  0  0  0  0  0  0  0  0  0  0  0
  128.7766  123.3168   60.2916 H   0  0  0  0  0  0  0  0  0  0  0  0
  132.6258  120.5393   59.7280 H   0  0  0  0  0  0  0  0  0  0  0  0
  132.7690  118.2451   58.7723 H   0  0  0  0  0  0  0  0  0  0  0  0
  1  2  1  0
  2  3  2  0
  3  4  1  0
  4  5  2  0
  5  6  1  0
  6  7  2  0
  6  8  1  0
  8  9  1  0
  9 10  1  0
 10 11  1  0
 11 12  2  0
 12 13  1  0
 13 14  1  0
 14 15  1  0
 15 16  2  0
 16 17  1  0
 17 18  2  0
 18 19  1  0
 18 20  1  0
 20 21  1  0
 21 22  1  0
 22 23  1  0
 23 24  1  0
 24 25  2  0
 25 26  1  0
 26 27  2  0
 27 28  1  0
 28 29  2  0
 29 30  1  0
 16 31  1  0
 31 32  1  0
 32 33  1  0
 13 34  2  0
 34 35  1  0
 35 36  2  0
  5 37  1  0
 37 38  2  0
 38  2  1  0
 36  8  1  0
 36 11  1  0
 32 14  2  0
 30 21  1  0
 29 24  1  0
  1 39  1  0
  1 40  1  0
  1 41  1  0
  3 42  1  0
  4 43  1  0
  9 44  1  0
  9 45  1  0
 10 46  1  0
 10 47  1  0
 12 48  1  0
 20 49  1  0
 20 50  1  0
 21 51  1  6
 22 52  1  0
 22 53  1  0
 23 54  1  0
 23 55  1  0
 25 56  1  0
 26 57  1  0
 27 58  1  0
 28 59  1  0
 30 60  1  0
 30 61  1  0
 33 62  1  0
 33 63  1  0
 33 64  1  0
 34 65  1  0
 35 66  1  0
 37 67  1  0
 38 68  1  0
M  CHG  2  19  -1  21   1
M  END
>  <Binding energies>  (1) 
[-9.99]

>  <Ligand effiencies>  (1) 
[-0.2561538461538462]

>  <Interactions>  (1) 
["V-A:TYR:539:CZ:4877, V-B:MET:535:CE:9807, V-B:TYR:539:CE2:9848, H-B:LYS:534:NZ:9795, V-B:TYR:539:CZ:9849, H-B:ASP:366:O:8181, V-A:TYR:539:CE1:4875, V-A:ILE:369:CG2:3237, H-A:TYR:539:OH:4878, V-B:TYR:539:CD2:9846, V-A:LEU:475:CD2:4259, H-B:TYR:531:OH:9767, V-B:TYR:539:CG:9844, V-B:TYR:539:C:9839, V-B:ASP:366:CG:8185, V-B:ASP:366:CB:8184, V-A:ILE:369:CD1:3239, V-A:TYR:539:CD1:4873, V-B:TYR:531:CZ:9766, V-A:TYR:539:CE2:4876, V-B:TYR:539:CB:9843, V-A:LEU:475:CD1:4258, V-B:ALA:541:CB:9864, H-A:TYR:484:OH:4348, V-B:TYR:531:CE1:9764, V-A:SER:385:CB:3409, V-A:MET:535:CE:4835, V-A:LEU:373:CD1:3280, V-A:PRO:482:CB:4326, V-A:LEU:475:CG:4257, V-A:HIS:383:CE1:3394, V-A:PRO:482:CG:4327, V-A:TYR:531:CE1:4792"]

$$$$
RR21_Rahimova_2017
     RDKit          3D

 62 67  0  0  0  0  0  0  0  0999 V2000
  124.5370  128.9390   66.1960 C   0  0  0  0  0  0  0  0  0  0  0  0
  124.1240  129.8040   65.1430 O   0  0  0  0  0  0  0  0  0  0  0  0
  124.6580  129.6350   63.8800 C   0  0  0  0  0  0  0  0  0  0  0  0
  123.9540  129.8650   62.6860 C   0  0  0  0  0  0  0  0  0  0  0  0
  124.5690  129.6720   61.4500 C   0  0  0  0  0  0  0  0  0  0  0  0
  125.9010  129.2490   61.3730 C   0  0  0  0  0  0  0  0  0  0  0  0
  126.5610  129.0480   60.0430 C   0  0  0  0  0  0  0  0  0  0  0  0
  126.8560  130.0920   59.2930 N   0  0  0  0  0  0  0  0  0  0  0  0
  127.4310  129.6150   58.1790 N   0  0  0  0  0  0  0  0  0  0  0  0
  127.8950  130.4810   57.1550 C   0  0  0  0  0  0  0  0  0  0  0  0
  127.3780  130.3950   55.8530 C   0  0  0  0  0  0  0  0  0  0  0  0
  127.8380  131.2540   54.8580 C   0  0  0  0  0  0  0  0  0  0  0  0
  128.8140  132.2000   55.1600 C   0  0  0  0  0  0  0  0  0  0  0  0
  129.3370  132.2940   56.4470 C   0  0  0  0  0  0  0  0  0  0  0  0
  128.8800  131.4370   57.4440 C   0  0  0  0  0  0  0  0  0  0  0  0
  127.5140  128.2460   58.2370 C   0  0  0  0  0  0  0  0  0  0  0  0
  126.9440  127.8330   59.4310 C   0  0  0  0  0  0  0  0  0  0  0  0
  126.8400  126.4800   59.9570 C   0  0  0  0  0  0  0  0  0  0  0  0
  127.8370  125.5980   60.2000 C   0  0  0  0  0  0  0  0  0  0  0  0
  129.5810  125.8210   59.9400 S   0  0  0  0  0  0  0  0  0  0  0  0
  129.8680  124.2060   60.5710 C   0  0  0  0  0  0  0  0  0  0  0  0
  131.0060  123.6040   60.7280 N   0  0  0  0  0  0  0  0  0  0  0  0
  131.1010  122.2910   61.2650 C   0  0  0  0  0  0  0  0  0  0  0  0
  132.1400  121.6610   61.4640 O   0  0  0  0  0  0  0  0  0  0  0  0
  129.7720  121.6770   61.6090 C   0  0  0  0  0  0  0  0  0  0  0  0
  129.7470  120.2530   62.1790 C   0  0  0  0  0  0  0  0  0  0  0  0
  130.1550  119.1700   61.1820 C   0  0  0  0  0  0  0  0  0  0  0  0
  129.4260  117.9800   61.1050 C   0  0  0  0  0  0  0  0  0  0  0  0
  129.7870  116.9990   60.1850 C   0  0  0  0  0  0  0  0  0  0  0  0
  130.8770  117.2070   59.3370 C   0  0  0  0  0  0  0  0  0  0  0  0
  131.2600  116.1400   58.3280 C   0  0  0  0  0  0  0  0  0  0  0  0
  131.6000  118.4010   59.4050 C   0  0  0  0  0  0  0  0  0  0  0  0
  131.2390  119.3800   60.3250 C   0  0  0  0  0  0  0  0  0  0  0  0
  128.6440  122.2880   61.4420 N   0  0  0  0  0  0  0  0  0  0  0  0
  128.6970  123.5840   60.9140 N   0  0  0  0  0  0  0  0  0  0  0  0
  127.5440  124.2750   60.7360 C   0  0  0  0  0  0  0  0  0  0  0  0
  126.4160  123.8430   60.9980 O   0  0  0  0  0  0  0  0  0  0  0  0
  126.6010  129.0140   62.5600 C   0  0  0  0  0  0  0  0  0  0  0  0
  125.9880  129.2060   63.7990 C   0  0  0  0  0  0  0  0  0  0  0  0
  126.6930  128.9700   64.9290 F   0  0  0  0  0  0  0  0  0  0  0  0
  124.3129  129.4084   67.1653 H   0  0  0  0  0  0  0  0  0  0  0  0
  123.9981  127.9832   66.1181 H   0  0  0  0  0  0  0  0  0  0  0  0
  125.6191  128.7572   66.1181 H   0  0  0  0  0  0  0  0  0  0  0  0
  122.9073  130.2007   62.7270 H   0  0  0  0  0  0  0  0  0  0  0  0
  124.0015  129.8541   60.5254 H   0  0  0  0  0  0  0  0  0  0  0  0
  126.6069  129.6466   55.6177 H   0  0  0  0  0  0  0  0  0  0  0  0
  127.4320  131.1854   53.8380 H   0  0  0  0  0  0  0  0  0  0  0  0
  129.1754  132.8797   54.3742 H   0  0  0  0  0  0  0  0  0  0  0  0
  130.1092  133.0434   56.6752 H   0  0  0  0  0  0  0  0  0  0  0  0
  129.2923  131.5096   58.4612 H   0  0  0  0  0  0  0  0  0  0  0  0
  127.9553  127.5918   57.4706 H   0  0  0  0  0  0  0  0  0  0  0  0
  125.8225  126.1302   60.1859 H   0  0  0  0  0  0  0  0  0  0  0  0
  130.4377  120.2120   63.0341 H   0  0  0  0  0  0  0  0  0  0  0  0
  128.7045  120.0448   62.4614 H   0  0  0  0  0  0  0  0  0  0  0  0
  128.5662  117.8182   61.7718 H   0  0  0  0  0  0  0  0  0  0  0  0
  129.2145  116.0616   60.1263 H   0  0  0  0  0  0  0  0  0  0  0  0
  131.5855  115.2333   58.8589 H   0  0  0  0  0  0  0  0  0  0  0  0
  130.3907  115.9033   57.6969 H   0  0  0  0  0  0  0  0  0  0  0  0
  132.0814  116.5101   57.6969 H   0  0  0  0  0  0  0  0  0  0  0  0
  132.4539  118.5666   58.7316 H   0  0  0  0  0  0  0  0  0  0  0  0
  131.8072  120.3204   60.3781 H   0  0  0  0  0  0  0  0  0  0  0  0
  127.6463  128.6741   62.5170 H   0  0  0  0  0  0  0  0  0  0  0  0
  1  2  1  0
  2  3  1  0
  3  4  2  0
  4  5  1  0
  5  6  2  0
  6  7  1  0
  7  8  2  0
  8  9  1  0
  9 10  1  0
 10 11  2  0
 11 12  1  0
 12 13  2  0
 13 14  1  0
 14 15  2  0
  9 16  1  0
 16 17  2  0
 17 18  1  0
 18 19  2  0
 19 20  1  0
 20 21  1  0
 21 22  2  0
 22 23  1  0
 23 24  2  0
 23 25  1  0
 25 26  1  0
 26 27  1  0
 27 28  2  0
 28 29  1  0
 29 30  2  0
 30 31  1  0
 30 32  1  0
 32 33  2  0
 25 34  2  0
 34 35  1  0
 35 36  1  0
 36 37  2  0
  6 38  1  0
 38 39  2  0
 39 40  1  0
 39  3  1  0
 17  7  1  0
 36 19  1  0
 15 10  1  0
 35 21  1  0
 33 27  1  0
  1 41  1  0
  1 42  1  0
  1 43  1  0
  4 44  1  0
  5 45  1  0
 11 46  1  0
 12 47  1  0
 13 48  1  0
 14 49  1  0
 15 50  1  0
 16 51  1  0
 18 52  1  0
 26 53  1  0
 26 54  1  0
 28 55  1  0
 29 56  1  0
 31 57  1  0
 31 58  1  0
 31 59  1  0
 32 60  1  0
 33 61  1  0
 38 62  1  0
M  END
>  <Binding energies>  (1) 
[-9.25]

>  <Ligand effiencies>  (1) 
[-0.23125]

>  <Interactions>  (1) 
["V-A:TYR:539:CZ:4877, V-B:TYR:539:CE2:9848, H-B:GLY:454:N:9022, H-B:TYR:484:OH:9320, V-B:ARG:545:CZ:9898, V-B:TYR:539:CD2:9846, V-A:LEU:475:CD2:4259, V-B:TYR:539:CG:9844, V-B:TYR:539:C:9839, V-A:TYR:484:CE1:4345, V-B:ASP:366:CG:8185, V-A:TYR:539:C:4867, V-A:TYR:539:CE2:4876, V-A:TYR:539:CD2:4874, V-B:TYR:539:CB:9843, V-A:LEU:475:CD1:4258, V-B:ALA:541:CB:9864, H-A:TYR:484:OH:4348, V-B:ARG:545:CD:9895, H-B:ARG:545:NE:9896, V-B:ARG:545:CG:9894, V-B:HIS:456:CE1:9042, V-A:SER:385:CB:3409, V-A:PRO:482:CB:4326, V-A:LEU:475:CG:4257, V-A:HIS:383:CE1:3394, V-A:PRO:482:CG:4327, V-B:ILE:343:CG2:7964"]

$$$$
RR22_Rahimova_2017
     RDKit          3D

 49 54  0  0  0  0  0  0  0  0999 V2000
  123.7340  130.3800   54.9940 O   0  0  0  0  0  0  0  0  0  0  0  0
  124.5800  130.3520   55.8850 C   0  0  0  0  0  0  0  0  0  0  0  0
  124.3800  130.1030   57.2320 N   0  0  0  0  0  0  0  0  0  0  0  0
  125.4890  130.0470   58.1350 C   0  0  1  0  0  0  0  0  0  0  0  0
  125.1910  131.0050   59.1540 O   0  0  0  0  0  0  0  0  0  0  0  0
  125.0910  130.5600   60.4730 C   0  0  0  0  0  0  0  0  0  0  0  0
  124.4500  131.4140   61.3710 C   0  0  0  0  0  0  0  0  0  0  0  0
  124.3470  131.0560   62.7150 C   0  0  0  0  0  0  0  0  0  0  0  0
  124.8910  129.8510   63.1610 C   0  0  0  0  0  0  0  0  0  0  0  0
  125.5320  128.9960   62.2620 C   0  0  0  0  0  0  0  0  0  0  0  0
  125.6210  129.3300   60.9070 C   0  0  0  0  0  0  0  0  0  0  0  0
  126.3320  128.4960   59.8650 C   0  0  1  0  0  0  0  0  0  0  0  0
  126.3950  126.9840   59.9370 C   0  0  0  0  0  0  0  0  0  0  0  0
  126.4600  126.6530   58.4430 C   0  0  0  0  0  0  0  0  0  0  0  0
  126.9200  125.3460   57.9340 C   0  0  0  0  0  0  0  0  0  0  0  0
  126.1300  124.1990   58.0990 C   0  0  0  0  0  0  0  0  0  0  0  0
  126.5670  122.9680   57.6160 C   0  0  0  0  0  0  0  0  0  0  0  0
  127.7960  122.8770   56.9670 C   0  0  0  0  0  0  0  0  0  0  0  0
  128.5920  124.0070   56.7960 C   0  0  0  0  0  0  0  0  0  0  0  0
  128.1550  125.2380   57.2770 C   0  0  0  0  0  0  0  0  0  0  0  0
  126.0460  127.6360   57.7340 N   0  0  0  0  0  0  0  0  0  0  0  0
  125.6640  128.6660   58.6100 N   0  0  0  0  0  0  0  0  0  0  0  0
  126.6980  130.5670   57.3720 C   0  0  0  0  0  0  0  0  0  0  0  0
  127.8340  130.9790   57.9830 C   0  0  0  0  0  0  0  0  0  0  0  0
  129.0770  131.4830   57.3690 C   0  0  0  0  0  0  0  0  0  0  0  0
  130.3530  131.0300   57.7360 C   0  0  0  0  0  0  0  0  0  0  0  0
  131.4850  131.5530   57.1120 C   0  0  0  0  0  0  0  0  0  0  0  0
  131.3130  132.5300   56.1310 C   0  0  0  0  0  0  0  0  0  0  0  0
  130.0930  132.9940   55.7620 N   0  0  0  0  0  0  0  0  0  0  0  0
  129.0030  132.4710   56.3810 C   0  0  0  0  0  0  0  0  0  0  0  0
  126.3580  130.6430   55.6370 S   0  0  0  0  0  0  0  0  0  0  0  0
  123.4490  130.0020   57.6060 H   0  0  0  0  0  0  0  0  0  0  0  0
  124.0271  132.3669   61.0200 H   0  0  0  0  0  0  0  0  0  0  0  0
  123.8364  131.7242   63.4241 H   0  0  0  0  0  0  0  0  0  0  0  0
  124.8148  129.5740   64.2228 H   0  0  0  0  0  0  0  0  0  0  0  0
  125.9699  128.0534   62.6222 H   0  0  0  0  0  0  0  0  0  0  0  0
  127.3540  128.8702   60.0248 H   0  0  0  0  0  0  0  0  0  0  0  0
  127.2914  126.6371   60.4720 H   0  0  0  0  0  0  0  0  0  0  0  0
  125.5658  126.5097   60.4825 H   0  0  0  0  0  0  0  0  0  0  0  0
  125.1600  124.2720   58.6126 H   0  0  0  0  0  0  0  0  0  0  0  0
  125.9439  122.0710   57.7466 H   0  0  0  0  0  0  0  0  0  0  0  0
  128.1409  121.9043   56.5862 H   0  0  0  0  0  0  0  0  0  0  0  0
  129.5618  123.9271   56.2831 H   0  0  0  0  0  0  0  0  0  0  0  0
  128.7818  126.1317   57.1412 H   0  0  0  0  0  0  0  0  0  0  0  0
  127.8293  130.9316   59.0820 H   0  0  0  0  0  0  0  0  0  0  0  0
  130.4605  130.2621   58.5162 H   0  0  0  0  0  0  0  0  0  0  0  0
  132.4910  131.2032   57.3870 H   0  0  0  0  0  0  0  0  0  0  0  0
  132.2048  132.9416   55.6357 H   0  0  0  0  0  0  0  0  0  0  0  0
  128.0098  132.8438   56.0903 H   0  0  0  0  0  0  0  0  0  0  0  0
  1  2  2  0
  2  3  1  0
  3  4  1  0
  4  5  1  1
  5  6  1  0
  6  7  2  0
  7  8  1  0
  8  9  2  0
  9 10  1  0
 10 11  2  0
 11 12  1  0
 12 13  1  0
 13 14  1  0
 14 15  1  0
 15 16  2  0
 16 17  1  0
 17 18  2  0
 18 19  1  0
 19 20  2  0
 14 21  2  0
 21 22  1  0
  4 23  1  0
 23 24  2  0
 24 25  1  0
 25 26  2  0
 26 27  1  0
 27 28  2  0
 28 29  1  0
 29 30  2  0
 23 31  1  0
 31  2  1  0
 22  4  1  0
 30 25  1  0
 11  6  1  0
 22 12  1  0
 20 15  1  0
  3 32  1  0
  7 33  1  0
  8 34  1  0
  9 35  1  0
 10 36  1  0
 12 37  1  6
 13 38  1  0
 13 39  1  0
 16 40  1  0
 17 41  1  0
 18 42  1  0
 19 43  1  0
 20 44  1  0
 24 45  1  0
 26 46  1  0
 27 47  1  0
 28 48  1  0
 30 49  1  0
M  END
>  <Binding energies>  (1) 
[-9.33]

>  <Ligand effiencies>  (1) 
[-0.2915625]

>  <Interactions>  (1) 
["V-A:TYR:539:CZ:4877, V-B:MET:535:CE:9807, V-A:PRO:540:CA:4883, V-B:TYR:539:CE2:9848, H-B:LYS:534:NZ:9795, V-B:TYR:539:CZ:9849, H-B:ASP:366:O:8181, V-A:TYR:539:CE1:4875, V-B:ARG:545:CZ:9898, H-A:TYR:539:OH:4878, V-B:TYR:539:CD2:9846, H-B:TYR:531:OH:9767, V-B:TYR:539:CD1:9845, V-B:TYR:539:CG:9844, V-B:TYR:539:CE1:9847, V-B:TYR:539:C:9839, V-B:ASP:366:CG:8185, V-B:PRO:540:CB:9857, V-B:PRO:540:CA:9855, V-B:ASP:366:CB:8184, V-B:ASP:366:CA:8182, V-B:PRO:540:N:9856, V-A:TYR:539:CD1:4873, V-A:TYR:539:C:4867, V-A:PRO:540:CD:4887, V-A:PRO:540:CB:4885, V-A:TYR:539:CD2:4874, H-A:TYR:539:N:4870, V-A:PRO:540:N:4884, V-A:TYR:539:CG:4872, V-B:ASP:366:C:8180, V-B:GLY:454:CA:9021, V-B:TYR:531:CE1:9764"]

$$$$
RR23_Rahimova_2017
     RDKit          3D

 65 70  0  0  0  0  0  0  0  0999 V2000
  126.5270  136.3190   60.8730 C   0  0  0  0  0  0  0  0  0  0  0  0
  126.1360  134.8770   60.6050 C   0  0  0  0  0  0  0  0  0  0  0  0
  124.7900  134.5250   60.5030 C   0  0  0  0  0  0  0  0  0  0  0  0
  124.4330  133.2040   60.2480 C   0  0  0  0  0  0  0  0  0  0  0  0
  125.4190  132.2210   60.1030 C   0  0  0  0  0  0  0  0  0  0  0  0
  125.0110  130.7960   59.8050 C   0  0  0  0  0  0  0  0  0  0  0  0
  124.1020  130.6200   58.9910 O   0  0  0  0  0  0  0  0  0  0  0  0
  125.6640  129.7680   60.4260 N   0  0  0  0  0  0  0  0  0  0  0  0
  125.8550  129.7470   61.8850 C   0  0  0  0  0  0  0  0  0  0  0  0
  126.4790  128.4010   62.2150 C   0  0  0  0  0  0  0  0  0  0  0  0
  126.2480  127.6110   60.9630 C   0  0  0  0  0  0  0  0  0  0  0  0
  126.5290  126.2680   60.7080 C   0  0  0  0  0  0  0  0  0  0  0  0
  126.3870  125.7480   59.4120 C   0  0  0  0  0  0  0  0  0  0  0  0
  126.6860  124.2770   59.0870 C   0  0  2  0  0  0  0  0  0  0  0  0
  127.4800  123.6400   60.1160 N   0  0  0  0  0  0  0  0  0  0  0  0
  128.2500  122.7480   59.6370 C   0  0  0  0  0  0  0  0  0  0  0  0
  129.1490  121.9720   60.3000 N   0  0  0  0  0  0  0  0  0  0  0  0
  129.5400  122.0550   61.5940 C   0  0  0  0  0  0  0  0  0  0  0  0
  129.1000  122.8530   62.4260 O   0  0  0  0  0  0  0  0  0  0  0  0
  130.6290  121.0580   62.0230 C   0  0  0  0  0  0  0  0  0  0  0  0
  130.4630  119.8010   61.2590 N   0  0  0  0  0  0  0  0  0  0  0  0
  129.3730  119.0210   61.6250 N   0  0  0  0  0  0  0  0  0  0  0  0
  129.1180  117.8970   61.0350 N   0  0  0  0  0  0  0  0  0  0  0  0
  129.9480  117.4490   60.0060 C   0  0  0  0  0  0  0  0  0  0  0  0
  129.6460  116.2310   59.3920 C   0  0  0  0  0  0  0  0  0  0  0  0
  130.4570  115.7570   58.3600 C   0  0  0  0  0  0  0  0  0  0  0  0
  131.5670  116.4940   57.9430 C   0  0  0  0  0  0  0  0  0  0  0  0
  131.8720  117.7110   58.5560 C   0  0  0  0  0  0  0  0  0  0  0  0
  131.0570  118.1880   59.5890 C   0  0  0  0  0  0  0  0  0  0  0  0
  131.3710  119.5010   60.2680 C   0  0  0  0  0  0  0  0  0  0  0  0
  132.3360  120.2120   59.9740 O   0  0  0  0  0  0  0  0  0  0  0  0
  128.1700  122.4720   57.8730 S   0  0  0  0  0  0  0  0  0  0  0  0
  127.3170  124.0480   57.6940 C   0  0  2  0  0  0  0  0  0  0  0  0
  128.3220  125.1120   57.2050 C   0  0  0  0  0  0  0  0  0  0  0  0
  126.0070  126.6100   58.3770 C   0  0  0  0  0  0  0  0  0  0  0  0
  125.7460  127.9580   58.6280 C   0  0  0  0  0  0  0  0  0  0  0  0
  125.8120  128.4510   59.9380 C   0  0  0  0  0  0  0  0  0  0  0  0
  126.7700  132.5870   60.1780 C   0  0  0  0  0  0  0  0  0  0  0  0
  127.1260  133.9080   60.4330 C   0  0  0  0  0  0  0  0  0  0  0  0
  126.5735  136.4906   61.9585 H   0  0  0  0  0  0  0  0  0  0  0  0
  127.5123  136.5206   60.4273 H   0  0  0  0  0  0  0  0  0  0  0  0
  125.7786  136.9907   60.4273 H   0  0  0  0  0  0  0  0  0  0  0  0
  124.0105  135.2916   60.6241 H   0  0  0  0  0  0  0  0  0  0  0  0
  123.3710  132.9312   60.1600 H   0  0  0  0  0  0  0  0  0  0  0  0
  126.5251  130.5631   62.1930 H   0  0  0  0  0  0  0  0  0  0  0  0
  124.9010  129.8857   62.4148 H   0  0  0  0  0  0  0  0  0  0  0  0
  127.5537  128.5037   62.4259 H   0  0  0  0  0  0  0  0  0  0  0  0
  126.0496  127.9305   63.1118 H   0  0  0  0  0  0  0  0  0  0  0  0
  126.8634  125.6138   61.5266 H   0  0  0  0  0  0  0  0  0  0  0  0
  125.6966  123.7971   59.0589 H   0  0  0  0  0  0  0  0  0  0  0  0
  129.6200  121.2720   59.7470 H   0  0  0  0  0  0  0  0  0  0  0  0
  131.6215  121.4856   61.8176 H   0  0  0  0  0  0  0  0  0  0  0  0
  130.5393  120.8518   63.0998 H   0  0  0  0  0  0  0  0  0  0  0  0
  128.7728  115.6482   59.7206 H   0  0  0  0  0  0  0  0  0  0  0  0
  130.2208  114.7992   57.8733 H   0  0  0  0  0  0  0  0  0  0  0  0
  132.2030  116.1150   57.1294 H   0  0  0  0  0  0  0  0  0  0  0  0
  132.7474  118.2912   58.2290 H   0  0  0  0  0  0  0  0  0  0  0  0
  126.5214  124.0896   56.9355 H   0  0  0  0  0  0  0  0  0  0  0  0
  128.7865  125.6037   58.0725 H   0  0  0  0  0  0  0  0  0  0  0  0
  129.1009  124.6286   56.5970 H   0  0  0  0  0  0  0  0  0  0  0  0
  127.7950  125.8621   56.5970 H   0  0  0  0  0  0  0  0  0  0  0  0
  125.9128  126.2202   57.3527 H   0  0  0  0  0  0  0  0  0  0  0  0
  125.4887  128.6327   57.7982 H   0  0  0  0  0  0  0  0  0  0  0  0
  127.5521  131.8269   60.0347 H   0  0  0  0  0  0  0  0  0  0  0  0
  128.1876  134.1886   60.4990 H   0  0  0  0  0  0  0  0  0  0  0  0
  1  2  1  0
  2  3  2  0
  3  4  1  0
  4  5  2  0
  5  6  1  0
  6  7  2  0
  6  8  1  0
  8  9  1  0
  9 10  1  0
 10 11  1  0
 11 12  2  0
 12 13  1  0
 13 14  1  0
 14 15  1  0
 15 16  2  0
 16 17  1  0
 17 18  1  0
 18 19  2  0
 18 20  1  0
 20 21  1  0
 21 22  1  0
 22 23  2  0
 23 24  1  0
 24 25  2  0
 25 26  1  0
 26 27  2  0
 27 28  1  0
 28 29  2  0
 29 30  1  0
 30 31  2  0
 16 32  1  0
 32 33  1  0
 33 34  1  0
 13 35  2  0
 35 36  1  0
 36 37  2  0
  5 38  1  0
 38 39  2  0
 39  2  1  0
 37  8  1  0
 37 11  1  0
 33 14  1  0
 30 21  1  0
 29 24  1  0
  1 40  1  0
  1 41  1  0
  1 42  1  0
  3 43  1  0
  4 44  1  0
  9 45  1  0
  9 46  1  0
 10 47  1  0
 10 48  1  0
 12 49  1  0
 14 50  1  6
 17 51  1  0
 20 52  1  0
 20 53  1  0
 25 54  1  0
 26 55  1  0
 27 56  1  0
 28 57  1  0
 33 58  1  6
 34 59  1  0
 34 60  1  0
 34 61  1  0
 35 62  1  0
 36 63  1  0
 38 64  1  0
 39 65  1  0
M  END
>  <Binding energies>  (1) 
[-10.55]

>  <Ligand effiencies>  (1) 
[-0.26375000000000004]

>  <Interactions>  (1) 
["V-B:MET:535:CE:9807, V-B:ILE:369:CG2:8209, V-B:LEU:475:CD2:9231, V-B:TYR:539:CE2:9848, V-A:TYR:539:CE1:4875, V-B:TYR:539:CD2:9846, V-A:LEU:475:CD2:4259, V-B:TYR:539:CG:9844, V-B:TYR:539:C:9839, V-A:TYR:484:CE1:4345, V-B:ASP:366:CG:8185, V-B:PRO:540:CA:9855, V-B:ASP:366:CB:8184, V-B:PRO:540:N:9856, V-A:TYR:539:CD1:4873, V-B:TYR:539:CA:9841, V-B:TYR:539:CB:9843, V-A:LEU:475:CD1:4258, H-A:TYR:484:OH:4348, H-B:TYR:539:O:9840, V-A:SER:385:CB:3409, V-B:VAL:344:CG2:7974, V-B:VAL:344:CG1:7973, V-A:LEU:373:CD1:3280, V-A:PRO:482:CB:4326, V-A:HIS:383:CE1:3394, V-A:PRO:482:CG:4327, V-A:LEU:373:CD2:3281, V-B:ILE:343:CG2:7964, V-B:ILE:343:CB:7963"]

$$$$
RR24_Rahimova_2017
     RDKit          3D

 65 71  0  0  0  0  0  0  0  0999 V2000
  123.9440  123.3100   58.4010 C   0  0  0  0  0  0  0  0  0  0  0  0
  125.4050  123.5750   58.0120 C   0  0  2  0  0  0  0  0  0  0  0  0
  125.8060  122.9270   56.6540 C   0  0  0  0  0  0  0  0  0  0  0  0
  125.4790  121.7730   56.3560 O   0  0  0  0  0  0  0  0  0  0  0  0
  126.5600  123.7600   55.8790 O   0  0  0  0  0  0  0  0  0  0  0  0
  127.5170  124.5550   56.4680 C   0  0  0  0  0  0  0  0  0  0  0  0
  128.8670  124.3000   56.2180 C   0  0  0  0  0  0  0  0  0  0  0  0
  129.8440  125.1030   56.8000 C   0  0  0  0  0  0  0  0  0  0  0  0
  129.4760  126.1680   57.6270 C   0  0  0  0  0  0  0  0  0  0  0  0
  130.5560  127.0370   58.2810 C   0  0  1  0  0  0  0  0  0  0  0  0
  130.0420  128.4630   58.5920 C   0  0  0  0  0  0  0  0  0  0  0  0
  130.1710  129.0360   59.8020 C   0  0  0  0  0  0  0  0  0  0  0  0
  130.7710  128.3920   60.8570 N   0  0  0  0  0  0  0  0  0  0  0  0
  131.2730  127.1190   60.7250 C   0  0  0  0  0  0  0  0  0  0  0  0
  131.8410  126.6290   61.8560 N   0  0  0  0  0  0  0  0  0  0  0  0
  132.3200  125.3580   61.9390 C   0  0  0  0  0  0  0  0  0  0  0  0
  132.5280  124.8630   63.0490 O   0  0  0  0  0  0  0  0  0  0  0  0
  132.3650  124.6910   60.7250 N   0  0  0  0  0  0  0  0  0  0  0  0
  132.9620  123.3390   60.7430 C   0  0  0  0  0  0  0  0  0  0  0  0
  131.8180  125.0930   59.5190 C   0  0  0  0  0  0  0  0  0  0  0  0
  131.8510  124.4210   58.4840 O   0  0  0  0  0  0  0  0  0  0  0  0
  131.2010  126.4240   59.5590 C   0  0  0  0  0  0  0  0  0  0  0  0
  129.6000  130.3720   59.8060 C   0  0  0  0  0  0  0  0  0  0  0  0
  129.4790  131.3520   60.7920 C   0  0  0  0  0  0  0  0  0  0  0  0
  128.8620  132.5650   60.4750 C   0  0  0  0  0  0  0  0  0  0  0  0
  128.3730  132.7910   59.1840 C   0  0  0  0  0  0  0  0  0  0  0  0
  128.4970  131.8050   58.2010 C   0  0  0  0  0  0  0  0  0  0  0  0
  129.1140  130.5940   58.5240 C   0  0  0  0  0  0  0  0  0  0  0  0
  129.3760  129.4000   57.6940 C   0  0  0  0  0  0  0  0  0  0  0  0
  129.1140  129.1920   56.5110 O   0  0  0  0  0  0  0  0  0  0  0  0
  128.1220  126.4320   57.8600 C   0  0  0  0  0  0  0  0  0  0  0  0
  127.1450  125.6310   57.2770 C   0  0  0  0  0  0  0  0  0  0  0  0
  126.3520  123.2230   59.1110 N   0  0  0  0  0  0  0  0  0  0  0  0
  127.5100  122.5460   58.8650 C   0  0  0  0  0  0  0  0  0  0  0  0
  127.9230  122.1410   57.7770 O   0  0  0  0  0  0  0  0  0  0  0  0
  128.1690  122.4000   60.1870 C   0  0  0  0  0  0  0  0  0  0  0  0
  129.3740  121.7940   60.5440 C   0  0  0  0  0  0  0  0  0  0  0  0
  129.7570  121.8080   61.8900 C   0  0  0  0  0  0  0  0  0  0  0  0
  128.9420  122.4210   62.8500 C   0  0  0  0  0  0  0  0  0  0  0  0
  127.7380  123.0240   62.4720 C   0  0  0  0  0  0  0  0  0  0  0  0
  127.3720  122.9990   61.1250 C   0  0  0  0  0  0  0  0  0  0  0  0
  126.1810  123.5450   60.4290 C   0  0  0  0  0  0  0  0  0  0  0  0
  125.2410  124.1610   60.9330 O   0  0  0  0  0  0  0  0  0  0  0  0
  123.8536  123.2936   59.4972 H   0  0  0  0  0  0  0  0  0  0  0  0
  123.3054  124.1070   57.9923 H   0  0  0  0  0  0  0  0  0  0  0  0
  123.6260  122.3395   57.9923 H   0  0  0  0  0  0  0  0  0  0  0  0
  125.4840  124.6612   57.8572 H   0  0  0  0  0  0  0  0  0  0  0  0
  129.1580  123.4661   55.5623 H   0  0  0  0  0  0  0  0  0  0  0  0
  130.9078  124.8989   56.6086 H   0  0  0  0  0  0  0  0  0  0  0  0
  131.3505  127.0868   57.5218 H   0  0  0  0  0  0  0  0  0  0  0  0
  130.8500  128.8610   61.7480 H   0  0  0  0  0  0  0  0  0  0  0  0
  131.9020  127.1930   62.6910 H   0  0  0  0  0  0  0  0  0  0  0  0
  133.1050  123.0152   61.7845 H   0  0  0  0  0  0  0  0  0  0  0  0
  132.2910  122.6350   60.2290 H   0  0  0  0  0  0  0  0  0  0  0  0
  133.9343  123.3606   60.2290 H   0  0  0  0  0  0  0  0  0  0  0  0
  129.8646  131.1718   61.8063 H   0  0  0  0  0  0  0  0  0  0  0  0
  128.7604  133.3453   61.2437 H   0  0  0  0  0  0  0  0  0  0  0  0
  127.8889  133.7485   58.9414 H   0  0  0  0  0  0  0  0  0  0  0  0
  128.1133  131.9805   57.1851 H   0  0  0  0  0  0  0  0  0  0  0  0
  127.8295  127.2738   58.5048 H   0  0  0  0  0  0  0  0  0  0  0  0
  126.0805  125.8450   57.4531 H   0  0  0  0  0  0  0  0  0  0  0  0
  130.0092  121.3156   59.7840 H   0  0  0  0  0  0  0  0  0  0  0  0
  130.7023  121.3355   62.1953 H   0  0  0  0  0  0  0  0  0  0  0  0
  129.2502  122.4282   63.9059 H   0  0  0  0  0  0  0  0  0  0  0  0
  127.0930  123.5078   63.2203 H   0  0  0  0  0  0  0  0  0  0  0  0
  1  2  1  0
  2  3  1  0
  3  4  2  0
  3  5  1  0
  5  6  1  0
  6  7  2  0
  7  8  1  0
  8  9  2  0
  9 10  1  0
 10 11  1  0
 11 12  2  0
 12 13  1  0
 13 14  1  0
 14 15  1  0
 15 16  1  0
 16 17  2  0
 16 18  1  0
 18 19  1  0
 18 20  1  0
 20 21  2  0
 20 22  1  0
 12 23  1  0
 23 24  2  0
 24 25  1  0
 25 26  2  0
 26 27  1  0
 27 28  2  0
 28 29  1  0
 29 30  2  0
  9 31  1  0
 31 32  2  0
  2 33  1  0
 33 34  1  0
 34 35  2  0
 34 36  1  0
 36 37  2  0
 37 38  1  0
 38 39  2  0
 39 40  1  0
 40 41  2  0
 41 42  1  0
 42 43  2  0
 32  6  1  0
 42 33  1  0
 22 10  1  0
 28 23  1  0
 41 36  1  0
 29 11  1  0
 22 14  2  0
  1 44  1  0
  1 45  1  0
  1 46  1  0
  2 47  1  6
  7 48  1  0
  8 49  1  0
 10 50  1  6
 13 51  1  0
 15 52  1  0
 19 53  1  0
 19 54  1  0
 19 55  1  0
 24 56  1  0
 25 57  1  0
 26 58  1  0
 27 59  1  0
 31 60  1  0
 32 61  1  0
 37 62  1  0
 38 63  1  0
 39 64  1  0
 40 65  1  0
M  END
>  <Binding energies>  (1) 
[-10.34]

>  <Ligand effiencies>  (1) 
[-0.22977777777777778]

>  <Interactions>  (1) 
["V-A:ALA:541:CB:4892, V-A:ASP:366:CG:3213, V-B:MET:535:CE:9807, V-A:PRO:540:CA:4883, V-B:TYR:539:CE2:9848, V-A:GLU:543:CD:4908, V-B:TYR:539:CZ:9849, V-B:TYR:539:CD2:9846, V-A:ARG:545:CZ:4926, H-B:TYR:531:OH:9767, V-A:TYR:484:CZ:4347, V-B:TYR:539:CE1:9847, H-B:TYR:539:OH:9850, V-B:TYR:539:C:9839, V-A:TYR:484:CE1:4345, H-B:TYR:539:N:9842, V-B:PRO:540:CB:9857, V-B:PRO:540:CA:9855, V-B:PRO:540:N:9856, V-A:TYR:539:CD1:4873, V-A:TYR:539:C:4867, V-B:LEU:363:CD1:8161, V-B:GLU:543:CD:9880, H-A:ASP:366:OD1:3214, H-A:GLU:543:OE1:4909, V-B:GLU:543:CG:9879, V-B:PRO:540:CG:9858, V-B:PRO:540:CD:9859, H-A:GLU:543:OE2:4910, V-B:ALA:541:CB:9864, H-A:TYR:484:OH:4348, H-B:ARG:545:NH2:9900, V-B:LEU:363:CA:8157, V-B:LEU:363:CB:8159, H-A:ARG:545:NH2:4928"]

$$$$
RR24_Rahimova_2017-again1
     RDKit          3D

 63 69  0  0  0  0  0  0  0  0999 V2000
  130.2490  128.7730   55.9820 C   0  0  0  0  0  0  0  0  0  0  0  0
  130.6540  128.8820   57.4580 C   0  0  2  0  0  0  0  0  0  0  0  0
  131.5080  130.1460   57.7720 C   0  0  0  0  0  0  0  0  0  0  0  0
  131.9450  130.8790   56.8770 O   0  0  0  0  0  0  0  0  0  0  0  0
  131.7240  130.3160   59.1090 O   0  0  0  0  0  0  0  0  0  0  0  0
  130.7570  130.9150   59.8840 C   0  0  0  0  0  0  0  0  0  0  0  0
  131.0150  131.1690   61.2320 C   0  0  0  0  0  0  0  0  0  0  0  0
  130.0500  131.7920   62.0180 C   0  0  0  0  0  0  0  0  0  0  0  0
  128.8260  132.1720   61.4580 C   0  0  0  0  0  0  0  0  0  0  0  0
  127.7580  132.8600   62.3210 C   0  0  1  0  0  0  0  0  0  0  0  0
  127.0710  134.0130   61.5520 C   0  0  0  0  0  0  0  0  0  0  0  0
  127.5380  135.1820   61.0590 C   0  0  0  0  0  0  0  0  0  0  0  0
  128.7500  135.6040   61.1830 O   0  0  0  0  0  0  0  0  0  0  0  0
  126.4780  135.8880   60.3400 C   0  0  0  0  0  0  0  0  0  0  0  0
  126.4550  137.1070   59.6510 C   0  0  0  0  0  0  0  0  0  0  0  0
  125.2730  137.5320   59.0420 C   0  0  0  0  0  0  0  0  0  0  0  0
  124.1220  136.7460   59.1230 C   0  0  0  0  0  0  0  0  0  0  0  0
  124.1500  135.5320   59.8120 C   0  0  0  0  0  0  0  0  0  0  0  0
  125.3350  135.1060   60.4170 C   0  0  0  0  0  0  0  0  0  0  0  0
  125.6630  133.9280   61.2000 C   0  0  0  0  0  0  0  0  0  0  0  0
  124.9210  132.9530   61.5700 N   0  0  0  0  0  0  0  0  0  0  0  0
  125.3790  131.9850   62.4130 C   0  0  0  0  0  0  0  0  0  0  0  0
  124.4010  131.1250   62.8220 N   0  0  0  0  0  0  0  0  0  0  0  0
  124.7040  130.1540   63.6080 C   0  0  0  0  0  0  0  0  0  0  0  0
  123.7370  129.4340   63.9100 O   0  0  0  0  0  0  0  0  0  0  0  0
  126.0020  129.9460   64.0720 N   0  0  0  0  0  0  0  0  0  0  0  0
  126.3830  128.8360   64.9760 C   0  0  0  0  0  0  0  0  0  0  0  0
  127.0510  130.7760   63.7250 C   0  0  0  0  0  0  0  0  0  0  0  0
  128.2100  130.6420   64.1310 O   0  0  0  0  0  0  0  0  0  0  0  0
  126.6820  131.8670   62.8180 C   0  0  0  0  0  0  0  0  0  0  0  0
  128.5760  131.9280   60.1040 C   0  0  0  0  0  0  0  0  0  0  0  0
  129.5410  131.3060   59.3170 C   0  0  0  0  0  0  0  0  0  0  0  0
  131.2930  127.6290   57.9580 N   0  0  0  0  0  0  0  0  0  0  0  0
  131.2210  127.2670   59.2700 C   0  0  0  0  0  0  0  0  0  0  0  0
  130.6630  127.8740   60.1860 O   0  0  0  0  0  0  0  0  0  0  0  0
  131.9610  125.9830   59.3660 C   0  0  0  0  0  0  0  0  0  0  0  0
  132.2190  125.1560   60.4610 C   0  0  0  0  0  0  0  0  0  0  0  0
  132.9560  123.9860   60.2550 C   0  0  0  0  0  0  0  0  0  0  0  0
  133.4210  123.6580   58.9750 C   0  0  0  0  0  0  0  0  0  0  0  0
  133.1510  124.4990   57.8900 C   0  0  0  0  0  0  0  0  0  0  0  0
  132.4150  125.6640   58.1160 C   0  0  0  0  0  0  0  0  0  0  0  0
  131.9770  126.7330   57.1840 C   0  0  0  0  0  0  0  0  0  0  0  0
  132.1840  126.7960   55.9720 O   0  0  0  0  0  0  0  0  0  0  0  0
  129.1889  128.4877   55.9128 H   0  0  0  0  0  0  0  0  0  0  0  0
  130.4005  129.7439   55.4876 H   0  0  0  0  0  0  0  0  0  0  0  0
  130.8673  128.0093   55.4876 H   0  0  0  0  0  0  0  0  0  0  0  0
  129.7161  129.0121   58.0179 H   0  0  0  0  0  0  0  0  0  0  0  0
  131.9797  130.8772   61.6726 H   0  0  0  0  0  0  0  0  0  0  0  0
  130.2504  131.9860   63.0821 H   0  0  0  0  0  0  0  0  0  0  0  0
  128.2852  133.2688   63.1956 H   0  0  0  0  0  0  0  0  0  0  0  0
  127.3625  137.7256   59.5901 H   0  0  0  0  0  0  0  0  0  0  0  0
  125.2484  138.4875   58.4975 H   0  0  0  0  0  0  0  0  0  0  0  0
  123.1916  137.0837   58.6432 H   0  0  0  0  0  0  0  0  0  0  0  0
  123.2428  134.9135   59.8782 H   0  0  0  0  0  0  0  0  0  0  0  0
  126.2718  129.1599   66.0214 H   0  0  0  0  0  0  0  0  0  0  0  0
  125.7305  127.9704   64.7890 H   0  0  0  0  0  0  0  0  0  0  0  0
  127.4295  128.5535   64.7890 H   0  0  0  0  0  0  0  0  0  0  0  0
  127.6153  132.2281   59.6602 H   0  0  0  0  0  0  0  0  0  0  0  0
  129.3467  131.1224   58.2500 H   0  0  0  0  0  0  0  0  0  0  0  0
  131.8506  125.4192   61.4635 H   0  0  0  0  0  0  0  0  0  0  0  0
  133.1719  123.3192   61.1028 H   0  0  0  0  0  0  0  0  0  0  0  0
  134.0007  122.7357   58.8223 H   0  0  0  0  0  0  0  0  0  0  0  0
  133.5106  124.2481   56.8812 H   0  0  0  0  0  0  0  0  0  0  0  0
  1  2  1  0
  2  3  1  0
  3  4  2  0
  3  5  1  0
  5  6  1  0
  6  7  2  0
  7  8  1  0
  8  9  2  0
  9 10  1  0
 10 11  1  0
 11 12  2  0
 12 13  1  0
 12 14  1  0
 14 15  2  0
 15 16  1  0
 16 17  2  0
 17 18  1  0
 18 19  2  0
 19 20  1  0
 20 21  2  0
 21 22  1  0
 22 23  1  0
 23 24  2  0
 24 25  1  0
 24 26  1  0
 26 27  1  0
 26 28  1  0
 28 29  2  0
 28 30  1  0
  9 31  1  0
 31 32  2  0
  2 33  1  0
 33 34  1  0
 34 35  2  0
 34 36  1  0
 36 37  2  0
 37 38  1  0
 38 39  2  0
 39 40  1  0
 40 41  2  0
 41 42  1  0
 42 43  2  0
 32  6  1  0
 42 33  1  0
 30 10  1  0
 41 36  1  0
 20 11  1  0
 30 22  2  0
 19 14  1  0
  1 44  1  0
  1 45  1  0
  1 46  1  0
  2 47  1  1
  7 48  1  0
  8 49  1  0
 10 50  1  1
 15 51  1  0
 16 52  1  0
 17 53  1  0
 18 54  1  0
 27 55  1  0
 27 56  1  0
 27 57  1  0
 31 58  1  0
 32 59  1  0
 37 60  1  0
 38 61  1  0
 39 62  1  0
 40 63  1  0
M  CHG  2  13  -1  25  -1
M  END
>  <Binding energies>  (1) 
[-9.3]

>  <Ligand effiencies>  (1) 
[-0.21627906976744188]

>  <Interactions>  (1) 
["V-A:ASP:366:CA:3210, V-A:ILE:369:CB:3236, V-A:ALA:541:CB:4892, V-A:ASP:366:CG:3213, V-B:ILE:369:CG2:8209, V-B:LEU:475:CD2:9231, V-A:PRO:540:CA:4883, V-B:TYR:539:CE2:9848, V-A:ASP:366:CB:3212, V-A:GLU:543:CD:4908, V-B:TYR:539:CZ:9849, V-A:ASP:366:C:3208, H-A:ALA:541:N:4891, H-B:GLY:454:N:9022, H-B:TYR:484:OH:9320, V-A:GLU:543:CG:4907, H-A:TYR:531:OH:4795, V-A:TYR:539:CE1:4875, V-A:ILE:369:CG2:3237, H-B:TYR:539:OH:9850, V-A:ILE:369:CD1:3239, V-A:TYR:539:CD1:4873, V-A:TYR:539:CG:4872, V-B:SER:385:CB:8381, V-B:SER:385:CA:8379, H-B:ARG:545:NE:9896, V-B:TYR:484:CZ:9319, V-A:ALA:541:CA:4890, H-B:ARG:545:NH2:9900, V-B:HIS:383:CD2:8364, V-A:TYR:539:CB:4871, H-B:ARG:545:NH1:9899, V-B:VAL:384:C:8369"]

$$$$
RR25_Rahimova_2017
     RDKit          3D

 63 68  0  0  0  0  0  0  0  0999 V2000
  132.9740  123.4900   60.8610 O   0  0  0  0  0  0  0  0  0  0  0  0
  131.7540  123.5420   60.6990 C   0  0  0  0  0  0  0  0  0  0  0  0
  131.0020  122.7050   61.4860 O   0  0  0  0  0  0  0  0  0  0  0  0
  129.6290  122.8430   61.5790 C   0  0  0  0  0  0  0  0  0  0  0  0
  129.0300  122.3760   62.7480 C   0  0  0  0  0  0  0  0  0  0  0  0
  127.6490  122.4760   62.9050 C   0  0  0  0  0  0  0  0  0  0  0  0
  126.8490  123.0370   61.8990 C   0  0  0  0  0  0  0  0  0  0  0  0
  125.3800  123.1490   62.0720 N   0  0  0  0  0  0  0  0  0  0  0  0
  124.8890  122.8260   63.1510 O   0  0  0  0  0  0  0  0  0  0  0  0
  124.7080  123.5610   61.1320 O   0  0  0  0  0  0  0  0  0  0  0  0
  127.4710  123.4900   60.7240 C   0  0  0  0  0  0  0  0  0  0  0  0
  128.8540  123.3900   60.5470 C   0  0  0  0  0  0  0  0  0  0  0  0
  129.5740  123.8740   59.3010 C   0  0  0  0  0  0  0  0  0  0  0  0
  130.9730  124.4320   59.6890 C   0  0  2  0  0  0  0  0  0  0  0  0
  131.7800  124.8470   58.4250 C   0  0  0  0  0  0  0  0  0  0  0  0
  132.7310  124.1190   58.1240 O   0  0  0  0  0  0  0  0  0  0  0  0
  131.3900  125.8800   57.6190 N   0  0  0  0  0  0  0  0  0  0  0  0
  130.4800  126.9520   58.0750 C   0  0  0  0  0  0  0  0  0  0  0  0
  129.5560  127.3570   56.9070 C   0  0  0  0  0  0  0  0  0  0  0  0
  130.3280  127.7340   55.7200 N   0  0  0  0  0  0  0  0  0  0  0  0
  129.4580  128.2460   54.6530 C   0  0  0  0  0  0  0  0  0  0  0  0
  129.2180  129.7760   54.7530 C   0  0  0  0  0  0  0  0  0  0  0  0
  128.3100  130.2270   55.8480 N   0  0  0  0  0  0  0  0  0  0  0  0
  128.8870  131.0550   56.7880 C   0  0  0  0  0  0  0  0  0  0  0  0
  130.0800  131.3800   56.7620 O   0  0  0  0  0  0  0  0  0  0  0  0
  127.9360  131.5570   57.8560 C   0  0  0  0  0  0  0  0  0  0  0  0
  128.4110  132.4260   58.8480 C   0  0  0  0  0  0  0  0  0  0  0  0
  127.5630  132.9130   59.8400 C   0  0  0  0  0  0  0  0  0  0  0  0
  126.2170  132.5520   59.8730 C   0  0  0  0  0  0  0  0  0  0  0  0
  125.6910  131.6770   58.8920 C   0  0  0  0  0  0  0  0  0  0  0  0
  124.3360  131.2720   58.8650 C   0  0  0  0  0  0  0  0  0  0  0  0
  123.8830  130.4090   57.8680 C   0  0  0  0  0  0  0  0  0  0  0  0
  124.7500  129.9320   56.8870 C   0  0  0  0  0  0  0  0  0  0  0  0
  126.1000  130.3060   56.8740 C   0  0  0  0  0  0  0  0  0  0  0  0
  126.5680  131.1840   57.8850 C   0  0  0  0  0  0  0  0  0  0  0  0
  127.0090  129.7720   55.7840 C   0  0  0  0  0  0  0  0  0  0  0  0
  126.6000  129.0040   54.9060 O   0  0  0  0  0  0  0  0  0  0  0  0
  131.1280  126.5950   55.2650 C   0  0  0  0  0  0  0  0  0  0  0  0
  132.1220  126.1240   56.3540 C   0  0  0  0  0  0  0  0  0  0  0  0
  129.6452  121.9302   63.5435 H   0  0  0  0  0  0  0  0  0  0  0  0
  127.1801  122.1100   63.8303 H   0  0  0  0  0  0  0  0  0  0  0  0
  126.8568  123.9329   59.9261 H   0  0  0  0  0  0  0  0  0  0  0  0
  129.6962  123.0352   58.6000 H   0  0  0  0  0  0  0  0  0  0  0  0
  128.9832  124.6700   58.8242 H   0  0  0  0  0  0  0  0  0  0  0  0
  130.8048  125.3551   60.2630 H   0  0  0  0  0  0  0  0  0  0  0  0
  129.8726  126.5871   58.9164 H   0  0  0  0  0  0  0  0  0  0  0  0
  131.0665  127.8225   58.4041 H   0  0  0  0  0  0  0  0  0  0  0  0
  128.9044  126.5073   56.6551 H   0  0  0  0  0  0  0  0  0  0  0  0
  128.9601  128.2261   57.2226 H   0  0  0  0  0  0  0  0  0  0  0  0
  129.9266  128.0267   53.6823 H   0  0  0  0  0  0  0  0  0  0  0  0
  128.4813  127.7507   54.7566 H   0  0  0  0  0  0  0  0  0  0  0  0
  130.1940  130.2603   54.9046 H   0  0  0  0  0  0  0  0  0  0  0  0
  128.7151  130.0584   53.8164 H   0  0  0  0  0  0  0  0  0  0  0  0
  129.4688  132.7278   58.8430 H   0  0  0  0  0  0  0  0  0  0  0  0
  127.9612  133.5921   60.6083 H   0  0  0  0  0  0  0  0  0  0  0  0
  125.5620  132.9479   60.6631 H   0  0  0  0  0  0  0  0  0  0  0  0
  123.6382  131.6387   59.6322 H   0  0  0  0  0  0  0  0  0  0  0  0
  122.8272  130.1006   57.8557 H   0  0  0  0  0  0  0  0  0  0  0  0
  124.3687  129.2517   56.1112 H   0  0  0  0  0  0  0  0  0  0  0  0
  130.4536  125.7631   55.0137 H   0  0  0  0  0  0  0  0  0  0  0  0
  131.7072  126.9116   54.3850 H   0  0  0  0  0  0  0  0  0  0  0  0
  132.6099  125.1938   56.0274 H   0  0  0  0  0  0  0  0  0  0  0  0
  132.8840  126.9007   56.5154 H   0  0  0  0  0  0  0  0  0  0  0  0
  1  2  2  0
  2  3  1  0
  3  4  1  0
  4  5  2  0
  5  6  1  0
  6  7  2  0
  7  8  1  0
  8  9  2  0
  8 10  1  0
  7 11  1  0
 11 12  2  0
 12 13  1  0
 13 14  1  0
 14 15  1  0
 15 16  2  0
 15 17  1  0
 17 18  1  0
 18 19  1  0
 19 20  1  0
 20 21  1  0
 21 22  1  0
 22 23  1  0
 23 24  1  0
 24 25  2  0
 24 26  1  0
 26 27  2  0
 27 28  1  0
 28 29  2  0
 29 30  1  0
 30 31  2  0
 31 32  1  0
 32 33  2  0
 33 34  1  0
 34 35  2  0
 34 36  1  0
 36 37  2  0
 20 38  1  0
 38 39  1  0
 14  2  1  0
 39 17  1  0
 12  4  1  0
 36 23  1  0
 35 26  1  0
 35 30  1  0
  5 40  1  0
  6 41  1  0
 11 42  1  0
 13 43  1  0
 13 44  1  0
 14 45  1  1
 18 46  1  0
 18 47  1  0
 19 48  1  0
 19 49  1  0
 21 50  1  0
 21 51  1  0
 22 52  1  0
 22 53  1  0
 27 54  1  0
 28 55  1  0
 29 56  1  0
 31 57  1  0
 32 58  1  0
 33 59  1  0
 38 60  1  0
 38 61  1  0
 39 62  1  0
 39 63  1  0
M  CHG  2   8   1  10  -1
M  END
>  <Binding energies>  (1) 
[-10.6]

>  <Ligand effiencies>  (1) 
[-0.2717948717948718]

>  <Interactions>  (1) 
["V-A:TYR:539:CZ:4877, V-B:MET:535:CE:9807, V-B:TYR:539:CE2:9848, V-A:ASP:366:CB:3212, H-B:LYS:534:NZ:9795, V-B:TYR:539:CZ:9849, H-A:TYR:531:OH:4795, V-A:TYR:539:CE1:4875, H-B:TYR:531:OH:9767, V-A:TYR:484:CZ:4347, H-B:TYR:539:OH:9850, V-A:TYR:484:CE1:4345, V-B:PRO:540:CB:9857, V-B:PRO:540:CA:9855, H-B:ALA:541:N:9863, V-B:ASP:366:CB:8184, V-B:ASP:366:CA:8182, V-A:TYR:539:CD1:4873, V-A:TYR:539:C:4867, V-B:GLU:543:CD:9880, V-B:PRO:540:C:9853, H-B:ASN:362:ND2:8151, V-B:GLU:543:CG:9879, V-B:ASP:366:C:8180, V-B:ALA:541:CB:9864, H-A:TYR:484:OH:4348, V-B:TYR:531:CE1:9764, H-B:ARG:545:NH2:9900, V-A:MET:535:CE:4835, V-B:ALA:541:CA:9862, V-A:TYR:531:CE1:4792, V-A:TYR:531:CZ:4794"]

$$$$
RR26_Rahimova_2017
     RDKit          3D

 59 65  0  0  0  0  0  0  0  0999 V2000
  124.4970  134.4010   59.9270 C   0  0  0  0  0  0  0  0  0  0  0  0
  125.7190  135.2300   60.3020 C   0  0  0  0  0  0  0  0  0  0  0  0
  125.6250  136.6240   60.2210 C   0  0  0  0  0  0  0  0  0  0  0  0
  126.6980  137.4320   60.5890 C   0  0  0  0  0  0  0  0  0  0  0  0
  127.8760  136.8520   61.0500 C   0  0  0  0  0  0  0  0  0  0  0  0
  127.9820  135.4660   61.1360 C   0  0  0  0  0  0  0  0  0  0  0  0
  126.9150  134.6350   60.7610 C   0  0  0  0  0  0  0  0  0  0  0  0
  127.1170  133.1510   60.8700 C   0  0  0  0  0  0  0  0  0  0  0  0
  127.0380  132.3430   59.8160 N   0  0  0  0  0  0  0  0  0  0  0  0
  127.2860  131.1780   60.3500 C   0  0  0  0  0  0  0  0  0  0  0  0
  127.3930  129.5540   59.7790 S   0  0  0  0  0  0  0  0  0  0  0  0
  127.7750  129.0140   61.4570 C   0  0  0  0  0  0  0  0  0  0  0  0
  128.0130  127.7550   61.8880 C   0  0  0  0  0  0  0  0  0  0  0  0
  128.0260  126.5280   61.1070 C   0  0  0  0  0  0  0  0  0  0  0  0
  127.0960  126.0970   60.1730 C   0  0  0  0  0  0  0  0  0  0  0  0
  127.5380  124.9050   59.6570 N   0  0  0  0  0  0  0  0  0  0  0  0
  126.9220  124.0940   58.6690 C   0  0  0  0  0  0  0  0  0  0  0  0
  127.6950  123.3660   57.7530 C   0  0  0  0  0  0  0  0  0  0  0  0
  127.0780  122.5770   56.7860 C   0  0  0  0  0  0  0  0  0  0  0  0
  125.6880  122.5100   56.7340 C   0  0  0  0  0  0  0  0  0  0  0  0
  124.9080  123.2260   57.6400 C   0  0  0  0  0  0  0  0  0  0  0  0
  125.5220  124.0180   58.6050 C   0  0  0  0  0  0  0  0  0  0  0  0
  128.7190  124.5720   60.2000 N   0  0  0  0  0  0  0  0  0  0  0  0
  129.0180  125.5220   61.0640 C   0  0  0  0  0  0  0  0  0  0  0  0
  130.2870  125.4390   61.8540 C   0  0  0  0  0  0  0  0  0  0  0  0
  131.5140  125.2300   61.2070 C   0  0  0  0  0  0  0  0  0  0  0  0
  132.7030  125.1480   61.9340 C   0  0  0  0  0  0  0  0  0  0  0  0
  132.6720  125.2730   63.3220 C   0  0  0  0  0  0  0  0  0  0  0  0
  131.4540  125.5010   63.9790 C   0  0  0  0  0  0  0  0  0  0  0  0
  130.2680  125.5760   63.2500 C   0  0  0  0  0  0  0  0  0  0  0  0
  131.3700  125.5870   65.3550 O   0  0  0  0  0  0  0  0  0  0  0  0
  132.6150  125.8690   66.0010 C   0  0  0  0  0  0  0  0  0  0  0  0
  133.7460  124.9960   65.4040 C   0  0  0  0  0  0  0  0  0  0  0  0
  133.8750  125.2340   63.9980 O   0  0  0  0  0  0  0  0  0  0  0  0
  127.7990  130.1240   62.4050 C   0  0  0  0  0  0  0  0  0  0  0  0
  128.0200  130.1060   63.6170 O   0  0  0  0  0  0  0  0  0  0  0  0
  127.5130  131.2850   61.6710 N   0  0  0  0  0  0  0  0  0  0  0  0
  127.4110  132.5700   62.0230 N   0  0  0  0  0  0  0  0  0  0  0  0
  123.9917  134.0582   60.8419 H   0  0  0  0  0  0  0  0  0  0  0  0
  123.8043  135.0164   59.3342 H   0  0  0  0  0  0  0  0  0  0  0  0
  124.8127  133.5299   59.3342 H   0  0  0  0  0  0  0  0  0  0  0  0
  124.6935  137.0865   59.8628 H   0  0  0  0  0  0  0  0  0  0  0  0
  126.6145  138.5264   60.5154 H   0  0  0  0  0  0  0  0  0  0  0  0
  128.7231  137.4880   61.3464 H   0  0  0  0  0  0  0  0  0  0  0  0
  128.9160  135.0159   61.5034 H   0  0  0  0  0  0  0  0  0  0  0  0
  128.2228  127.6449   62.9622 H   0  0  0  0  0  0  0  0  0  0  0  0
  126.1682  126.6185   59.8950 H   0  0  0  0  0  0  0  0  0  0  0  0
  128.7928  123.4185   57.7987 H   0  0  0  0  0  0  0  0  0  0  0  0
  127.6858  122.0091   56.0662 H   0  0  0  0  0  0  0  0  0  0  0  0
  125.2010  121.8858   55.9703 H   0  0  0  0  0  0  0  0  0  0  0  0
  123.8107  123.1652   57.5923 H   0  0  0  0  0  0  0  0  0  0  0  0
  124.9086  124.5862   59.3198 H   0  0  0  0  0  0  0  0  0  0  0  0
  131.5397  125.1294   60.1119 H   0  0  0  0  0  0  0  0  0  0  0  0
  133.6589  124.9857   61.4145 H   0  0  0  0  0  0  0  0  0  0  0  0
  129.3139  125.7432   63.7713 H   0  0  0  0  0  0  0  0  0  0  0  0
  132.8641  126.9309   65.8589 H   0  0  0  0  0  0  0  0  0  0  0  0
  132.5188  125.6421   67.0730 H   0  0  0  0  0  0  0  0  0  0  0  0
  134.6953  125.2437   65.9015 H   0  0  0  0  0  0  0  0  0  0  0  0
  133.4989  123.9361   65.5639 H   0  0  0  0  0  0  0  0  0  0  0  0
  1  2  1  0
  2  3  2  0
  3  4  1  0
  4  5  2  0
  5  6  1  0
  6  7  2  0
  7  8  1  0
  8  9  1  0
  9 10  2  0
 10 11  1  0
 11 12  1  0
 12 13  2  0
 13 14  1  0
 14 15  2  0
 15 16  1  0
 16 17  1  0
 17 18  2  0
 18 19  1  0
 19 20  2  0
 20 21  1  0
 21 22  2  0
 16 23  1  0
 23 24  2  0
 24 25  1  0
 25 26  2  0
 26 27  1  0
 27 28  2  0
 28 29  1  0
 29 30  2  0
 29 31  1  0
 31 32  1  0
 32 33  1  0
 33 34  1  0
 12 35  1  0
 35 36  2  0
 35 37  1  0
 37 38  1  0
  7  2  1  0
 38  8  2  0
 37 10  1  0
 24 14  1  0
 30 25  1  0
 22 17  1  0
 34 28  1  0
  1 39  1  0
  1 40  1  0
  1 41  1  0
  3 42  1  0
  4 43  1  0
  5 44  1  0
  6 45  1  0
 13 46  1  0
 15 47  1  0
 18 48  1  0
 19 49  1  0
 20 50  1  0
 21 51  1  0
 22 52  1  0
 26 53  1  0
 27 54  1  0
 30 55  1  0
 32 56  1  0
 32 57  1  0
 33 58  1  0
 33 59  1  0
M  END
>  <Binding energies>  (1) 
[-9.43]

>  <Ligand effiencies>  (1) 
[-0.2481578947368421]

>  <Interactions>  (1) 
["V-A:ALA:541:CB:4892, V-A:ASP:366:CG:3213, V-B:ILE:369:CG2:8209, V-B:LEU:475:CD2:9231, V-B:TYR:539:CE2:9848, V-A:GLU:543:CD:4908, H-B:TYR:484:OH:9320, V-A:TYR:539:CE1:4875, V-A:ARG:545:CZ:4926, V-B:TYR:539:CD1:9845, V-B:TYR:539:CG:9844, V-A:TYR:484:CZ:4347, V-B:TYR:539:C:9839, V-B:PRO:540:CB:9857, V-B:PRO:540:CA:9855, V-B:PRO:540:N:9856, V-A:TYR:539:CD1:4873, V-A:TYR:539:C:4867, V-A:PRO:540:C:4881, V-B:LEU:363:CD1:8161, V-B:GLU:543:CD:9880, V-B:TYR:539:CA:9841, V-B:PRO:540:CD:9859, H-A:GLY:454:N:4050, H-A:TYR:484:OH:4348, V-B:SER:385:CB:8381, V-A:ALA:541:CA:4890, H-A:ARG:545:NH2:4928, V-B:PRO:482:CB:9298, V-B:PRO:482:CG:9299, V-A:TYR:484:CE2:4346, H-A:ARG:545:NE:4924, V-A:GLY:454:CA:4049, H-A:ARG:545:NH1:4927, V-A:ARG:545:CD:4923, V-A:GLY:453:C:4042, V-A:HIS:456:CE1:4070, V-A:ARG:545:CG:4922"]

$$$$
RR27_Rahimova_2017
     RDKit          3D

 66 71  0  0  0  0  0  0  0  0999 V2000
  128.3480  123.5460   60.7510 O   0  0  0  0  0  0  0  0  0  0  0  0
  127.9430  124.2280   59.8050 C   0  0  0  0  0  0  0  0  0  0  0  0
  128.5480  123.9700   58.3950 C   0  0  0  0  0  0  0  0  0  0  0  0
  129.4160  125.1360   57.8860 C   0  0  0  0  0  0  0  0  0  0  0  0
  130.6880  125.3990   58.4170 C   0  0  0  0  0  0  0  0  0  0  0  0
  131.4460  126.4610   57.9320 C   0  0  0  0  0  0  0  0  0  0  0  0
  130.9380  127.2640   56.9160 C   0  0  0  0  0  0  0  0  0  0  0  0
  129.6760  127.0170   56.3810 C   0  0  0  0  0  0  0  0  0  0  0  0
  128.9180  125.9560   56.8660 C   0  0  0  0  0  0  0  0  0  0  0  0
  127.4850  123.4690   57.3990 C   0  0  0  0  0  0  0  0  0  0  0  0
  126.1660  123.2130   57.7960 C   0  0  0  0  0  0  0  0  0  0  0  0
  125.2320  122.7500   56.8720 C   0  0  0  0  0  0  0  0  0  0  0  0
  125.6150  122.5380   55.5500 C   0  0  0  0  0  0  0  0  0  0  0  0
  126.9250  122.7780   55.1440 C   0  0  0  0  0  0  0  0  0  0  0  0
  127.8570  123.2390   56.0680 C   0  0  0  0  0  0  0  0  0  0  0  0
  126.8870  125.0810   59.9400 N   0  0  0  0  0  0  0  0  0  0  0  0
  126.5280  126.0920   58.9340 C   0  0  0  0  0  0  0  0  0  0  0  0
  127.3500  127.3590   59.2590 C   0  0  0  0  0  0  0  0  0  0  0  0
  127.1450  127.8510   60.7270 C   0  0  0  0  0  0  0  0  0  0  0  0
  128.0270  129.0450   61.1380 C   0  0  0  0  0  0  0  0  0  0  0  0
  127.6000  129.7750   62.2100 N   0  0  0  0  0  0  0  0  0  0  0  0
  128.3580  130.8250   62.6310 C   0  0  0  0  0  0  0  0  0  0  0  0
  128.0380  131.6270   63.6940 O   0  0  0  0  0  0  0  0  0  0  0  0
  129.5510  131.1160   61.9410 C   0  0  0  0  0  0  0  0  0  0  0  0
  130.5200  132.0640   62.0960 N   0  0  0  0  0  0  0  0  0  0  0  0
  131.4590  131.8580   61.1030 N   0  0  0  0  0  0  0  0  0  0  0  0
  131.0790  130.7980   60.3570 N   0  0  0  0  0  0  0  0  0  0  0  0
  131.8820  130.3700   59.2140 C   0  0  0  0  0  0  0  0  0  0  0  0
  131.5670  131.1230   57.9280 C   0  0  0  0  0  0  0  0  0  0  0  0
  132.6040  131.5890   57.1130 C   0  0  0  0  0  0  0  0  0  0  0  0
  132.3150  132.2690   55.9290 C   0  0  0  0  0  0  0  0  0  0  0  0
  130.9890  132.4830   55.5520 C   0  0  0  0  0  0  0  0  0  0  0  0
  129.9500  132.0130   56.3560 C   0  0  0  0  0  0  0  0  0  0  0  0
  128.3080  132.2530   55.8780 Cl  0  0  0  0  0  0  0  0  0  0  0  0
  130.2380  131.3400   57.5440 C   0  0  0  0  0  0  0  0  0  0  0  0
  129.8810  130.2970   60.8400 C   0  0  0  0  0  0  0  0  0  0  0  0
  129.1530  129.2670   60.4020 N   0  0  0  0  0  0  0  0  0  0  0  0
  127.1860  126.6720   61.7480 C   0  0  0  0  0  0  0  0  0  0  0  0
  126.3850  125.4310   61.2780 C   0  0  0  0  0  0  0  0  0  0  0  0
  129.2634  123.1403   58.4933 H   0  0  0  0  0  0  0  0  0  0  0  0
  131.0880  124.7629   59.2203 H   0  0  0  0  0  0  0  0  0  0  0  0
  132.4427  126.6645   58.3505 H   0  0  0  0  0  0  0  0  0  0  0  0
  131.5385  128.1017   56.5316 H   0  0  0  0  0  0  0  0  0  0  0  0
  129.2806  127.6576   55.5790 H   0  0  0  0  0  0  0  0  0  0  0  0
  127.9207  125.7599   56.4454 H   0  0  0  0  0  0  0  0  0  0  0  0
  125.8667  123.3783   58.8415 H   0  0  0  0  0  0  0  0  0  0  0  0
  124.1962  122.5527   57.1853 H   0  0  0  0  0  0  0  0  0  0  0  0
  124.8756  122.1775   54.8197 H   0  0  0  0  0  0  0  0  0  0  0  0
  127.2211  122.6041   54.0990 H   0  0  0  0  0  0  0  0  0  0  0  0
  128.8940  123.4244   55.7513 H   0  0  0  0  0  0  0  0  0  0  0  0
  126.7765  125.7279   57.9262 H   0  0  0  0  0  0  0  0  0  0  0  0
  125.4492  126.3055   58.9575 H   0  0  0  0  0  0  0  0  0  0  0  0
  128.4164  127.1347   59.1088 H   0  0  0  0  0  0  0  0  0  0  0  0
  127.0042  128.1600   58.5890 H   0  0  0  0  0  0  0  0  0  0  0  0
  126.1256  128.2636   60.7531 H   0  0  0  0  0  0  0  0  0  0  0  0
  127.5070  131.1750   64.3530 H   0  0  0  0  0  0  0  0  0  0  0  0
  132.9433  130.5267   59.4571 H   0  0  0  0  0  0  0  0  0  0  0  0
  131.6447  129.3113   59.0329 H   0  0  0  0  0  0  0  0  0  0  0  0
  133.6505  131.4190   57.4062 H   0  0  0  0  0  0  0  0  0  0  0  0
  133.1334  132.6365   55.2925 H   0  0  0  0  0  0  0  0  0  0  0  0
  130.7625  133.0225   54.6205 H   0  0  0  0  0  0  0  0  0  0  0  0
  129.4177  130.9785   58.1814 H   0  0  0  0  0  0  0  0  0  0  0  0
  128.2346  126.3754   61.8980 H   0  0  0  0  0  0  0  0  0  0  0  0
  126.7210  127.0286   62.6789 H   0  0  0  0  0  0  0  0  0  0  0  0
  126.5434  124.5930   61.9728 H   0  0  0  0  0  0  0  0  0  0  0  0
  125.3064  125.6453   61.2506 H   0  0  0  0  0  0  0  0  0  0  0  0
  1  2  2  0
  2  3  1  0
  3  4  1  0
  4  5  2  0
  5  6  1  0
  6  7  2  0
  7  8  1  0
  8  9  2  0
  3 10  1  0
 10 11  2  0
 11 12  1  0
 12 13  2  0
 13 14  1  0
 14 15  2  0
  2 16  1  0
 16 17  1  0
 17 18  1  0
 18 19  1  0
 19 20  1  0
 20 21  2  0
 21 22  1  0
 22 23  1  0
 22 24  2  0
 24 25  1  0
 25 26  2  0
 26 27  1  0
 27 28  1  0
 28 29  1  0
 29 30  2  0
 30 31  1  0
 31 32  2  0
 32 33  1  0
 33 34  1  0
 33 35  2  0
 27 36  1  0
 36 37  2  0
 19 38  1  0
 38 39  1  0
  9  4  1  0
 15 10  1  0
 39 16  1  0
 37 20  1  0
 36 24  1  0
 35 29  1  0
  3 40  1  0
  5 41  1  0
  6 42  1  0
  7 43  1  0
  8 44  1  0
  9 45  1  0
 11 46  1  0
 12 47  1  0
 13 48  1  0
 14 49  1  0
 15 50  1  0
 17 51  1  0
 17 52  1  0
 18 53  1  0
 18 54  1  0
 19 55  1  0
 23 56  1  0
 28 57  1  0
 28 58  1  0
 30 59  1  0
 31 60  1  0
 32 61  1  0
 35 62  1  0
 38 63  1  0
 38 64  1  0
 39 65  1  0
 39 66  1  0
M  END
>  <Binding energies>  (1) 
[-10.58]

>  <Ligand effiencies>  (1) 
[-0.2645]

>  <Interactions>  (1) 
["V-A:TYR:539:CZ:4877, V-A:ASP:366:CG:3213, V-B:MET:535:CE:9807, V-A:PRO:540:CA:4883, V-B:TYR:539:CE2:9848, V-A:ASP:366:CB:3212, V-A:GLU:543:CD:4908, V-B:TYR:539:CZ:9849, H-A:ALA:541:N:4891, H-B:TYR:484:OH:9320, V-A:GLU:543:CG:4907, V-A:TYR:539:CE1:4875, V-B:TYR:539:CD1:9845, V-B:TYR:539:CE1:9847, V-B:ASP:366:CG:8185, V-B:PRO:540:CB:9857, V-B:PRO:540:CA:9855, V-B:PRO:540:N:9856, V-A:TYR:539:CD1:4873, V-B:LEU:363:CD1:8161, V-B:GLU:543:CD:9880, V-B:ILE:538:CA:9832, V-B:ILE:538:CD1:9837, V-A:TYR:539:CE2:4876, V-A:PRO:540:CD:4887, V-A:PRO:540:CB:4885, V-A:LEU:363:CD1:3189, V-A:TYR:539:CD2:4874, V-A:ILE:538:CB:4862, V-A:PRO:540:N:4884, V-A:TYR:539:CG:4872, V-B:PRO:540:CD:9859, V-B:ILE:538:CG2:9835, V-B:ILE:538:CB:9834"]

$$$$
RR27_Rahimova_2017-again1
     RDKit          3D

 66 71  0  0  0  0  0  0  0  0999 V2000
  128.1990  126.0200   58.6840 O   0  0  0  0  0  0  0  0  0  0  0  0
  128.5290  125.4050   59.7020 C   0  0  0  0  0  0  0  0  0  0  0  0
  127.8850  124.0100   59.9610 C   0  0  0  0  0  0  0  0  0  0  0  0
  128.9190  122.9530   60.3960 C   0  0  0  0  0  0  0  0  0  0  0  0
  130.2260  122.9370   59.8860 C   0  0  0  0  0  0  0  0  0  0  0  0
  131.1330  121.9670   60.3050 C   0  0  0  0  0  0  0  0  0  0  0  0
  130.7380  121.0080   61.2340 C   0  0  0  0  0  0  0  0  0  0  0  0
  129.4460  121.0120   61.7490 C   0  0  0  0  0  0  0  0  0  0  0  0
  128.5390  121.9820   61.3310 C   0  0  0  0  0  0  0  0  0  0  0  0
  126.9940  123.5580   58.7880 C   0  0  0  0  0  0  0  0  0  0  0  0
  125.6020  123.7230   58.8200 C   0  0  0  0  0  0  0  0  0  0  0  0
  124.8150  123.2880   57.7560 C   0  0  0  0  0  0  0  0  0  0  0  0
  125.4170  122.6880   56.6530 C   0  0  0  0  0  0  0  0  0  0  0  0
  126.7970  122.5160   56.6070 C   0  0  0  0  0  0  0  0  0  0  0  0
  127.5830  122.9440   57.6740 C   0  0  0  0  0  0  0  0  0  0  0  0
  129.5460  125.8470   60.4980 N   0  0  0  0  0  0  0  0  0  0  0  0
  129.8060  125.3350   61.8500 C   0  0  0  0  0  0  0  0  0  0  0  0
  128.9070  126.1200   62.8320 C   0  0  0  0  0  0  0  0  0  0  0  0
  128.8430  127.6670   62.6060 C   0  0  0  0  0  0  0  0  0  0  0  0
  127.5540  128.3070   63.1290 C   0  0  0  0  0  0  0  0  0  0  0  0
  126.7990  129.0080   62.3420 N   0  0  0  0  0  0  0  0  0  0  0  0
  125.6820  129.5350   62.9160 C   0  0  0  0  0  0  0  0  0  0  0  0
  125.2930  129.3930   64.2390 C   0  0  0  0  0  0  0  0  0  0  0  0
  124.1640  130.0430   64.4600 N   0  0  0  0  0  0  0  0  0  0  0  0
  123.7820  130.6350   63.2600 N   0  0  0  0  0  0  0  0  0  0  0  0
  124.7030  130.3010   62.3390 N   0  0  0  0  0  0  0  0  0  0  0  0
  124.6020  130.7860   60.9680 C   0  0  0  0  0  0  0  0  0  0  0  0
  124.8410  132.2830   60.8390 C   0  0  0  0  0  0  0  0  0  0  0  0
  123.8030  133.1270   60.4280 C   0  0  0  0  0  0  0  0  0  0  0  0
  124.0220  134.4990   60.2990 C   0  0  0  0  0  0  0  0  0  0  0  0
  125.2780  135.0350   60.5830 C   0  0  0  0  0  0  0  0  0  0  0  0
  126.3160  134.2000   60.9980 C   0  0  0  0  0  0  0  0  0  0  0  0
  127.8700  134.8630   61.3450 Cl  0  0  0  0  0  0  0  0  0  0  0  0
  126.0980  132.8280   61.1280 C   0  0  0  0  0  0  0  0  0  0  0  0
  126.1240  128.6010   65.1470 C   0  0  0  0  0  0  0  0  0  0  0  0
  125.9430  128.3610   66.3390 O   0  0  0  0  0  0  0  0  0  0  0  0
  127.2200  128.1140   64.4660 N   0  0  0  0  0  0  0  0  0  0  0  0
  129.2110  128.1640   61.1720 C   0  0  0  0  0  0  0  0  0  0  0  0
  130.0790  127.2060   60.3190 C   0  0  0  0  0  0  0  0  0  0  0  0
  127.2098  124.1219   60.8222 H   0  0  0  0  0  0  0  0  0  0  0  0
  130.5359  123.6947   59.1513 H   0  0  0  0  0  0  0  0  0  0  0  0
  132.1572  121.9584   59.9038 H   0  0  0  0  0  0  0  0  0  0  0  0
  131.4539  120.2406   61.5635 H   0  0  0  0  0  0  0  0  0  0  0  0
  129.1420  120.2518   62.4836 H   0  0  0  0  0  0  0  0  0  0  0  0
  127.5170  121.9858   61.7379 H   0  0  0  0  0  0  0  0  0  0  0  0
  125.1282  124.1991   59.6911 H   0  0  0  0  0  0  0  0  0  0  0  0
  123.7231  123.4179   57.7870 H   0  0  0  0  0  0  0  0  0  0  0  0
  124.7965  122.3472   55.8111 H   0  0  0  0  0  0  0  0  0  0  0  0
  127.2655  122.0436   55.7310 H   0  0  0  0  0  0  0  0  0  0  0  0
  128.6730  122.7993   57.6424 H   0  0  0  0  0  0  0  0  0  0  0  0
  129.5649  124.2628   61.8971 H   0  0  0  0  0  0  0  0  0  0  0  0
  130.8664  125.4633   62.1127 H   0  0  0  0  0  0  0  0  0  0  0  0
  127.8847  125.7233   62.7449 H   0  0  0  0  0  0  0  0  0  0  0  0
  129.3567  125.9810   63.8262 H   0  0  0  0  0  0  0  0  0  0  0  0
  129.6665  128.0348   63.2357 H   0  0  0  0  0  0  0  0  0  0  0  0
  125.3488  130.2594   60.3557 H   0  0  0  0  0  0  0  0  0  0  0  0
  123.5742  130.5902   60.6285 H   0  0  0  0  0  0  0  0  0  0  0  0
  122.8108  132.7072   60.2058 H   0  0  0  0  0  0  0  0  0  0  0  0
  123.2038  135.1581   59.9732 H   0  0  0  0  0  0  0  0  0  0  0  0
  125.4503  136.1165   60.4798 H   0  0  0  0  0  0  0  0  0  0  0  0
  126.9167  132.1720   61.4588 H   0  0  0  0  0  0  0  0  0  0  0  0
  127.8490  127.5550   65.0240 H   0  0  0  0  0  0  0  0  0  0  0  0
  128.2722  128.3415   60.6269 H   0  0  0  0  0  0  0  0  0  0  0  0
  129.8250  129.0645   61.3207 H   0  0  0  0  0  0  0  0  0  0  0  0
  130.0246  127.4939   59.2587 H   0  0  0  0  0  0  0  0  0  0  0  0
  131.1317  127.2534   60.6345 H   0  0  0  0  0  0  0  0  0  0  0  0
  1  2  2  0
  2  3  1  0
  3  4  1  0
  4  5  2  0
  5  6  1  0
  6  7  2  0
  7  8  1  0
  8  9  2  0
  3 10  1  0
 10 11  2  0
 11 12  1  0
 12 13  2  0
 13 14  1  0
 14 15  2  0
  2 16  1  0
 16 17  1  0
 17 18  1  0
 18 19  1  0
 19 20  1  0
 20 21  2  0
 21 22  1  0
 22 23  2  0
 23 24  1  0
 24 25  2  0
 25 26  1  0
 26 27  1  0
 27 28  1  0
 28 29  2  0
 29 30  1  0
 30 31  2  0
 31 32  1  0
 32 33  1  0
 32 34  2  0
 23 35  1  0
 35 36  2  0
 35 37  1  0
 19 38  1  0
 38 39  1  0
  9  4  1  0
 15 10  1  0
 39 16  1  0
 37 20  1  0
 26 22  1  0
 34 28  1  0
  3 40  1  0
  5 41  1  0
  6 42  1  0
  7 43  1  0
  8 44  1  0
  9 45  1  0
 11 46  1  0
 12 47  1  0
 13 48  1  0
 14 49  1  0
 15 50  1  0
 17 51  1  0
 17 52  1  0
 18 53  1  0
 18 54  1  0
 19 55  1  0
 27 56  1  0
 27 57  1  0
 29 58  1  0
 30 59  1  0
 31 60  1  0
 34 61  1  0
 37 62  1  0
 38 63  1  0
 38 64  1  0
 39 65  1  0
 39 66  1  0
M  END
>  <Binding energies>  (1) 
[-11.55]

>  <Ligand effiencies>  (1) 
[-0.28875]

>  <Interactions>  (1) 
["V-A:ALA:541:CB:4892, V-B:ILE:369:CG2:8209, V-B:LEU:475:CD2:9231, V-B:TYR:539:CE2:9848, V-A:GLU:543:CD:4908, V-B:ILE:369:CD1:8211, H-B:GLY:454:N:9022, H-B:TYR:484:OH:9320, V-A:TYR:539:CE1:4875, V-B:ARG:545:CZ:9898, V-B:TYR:539:CD2:9846, V-A:LEU:475:CD2:4259, V-B:TYR:539:C:9839, V-B:PRO:540:CB:9857, V-B:PRO:540:CA:9855, V-B:PRO:540:N:9856, V-A:TYR:539:CD1:4873, V-A:PRO:540:C:4881, V-B:LEU:363:CD1:8161, H-B:GLU:543:OE2:9882, V-B:GLU:543:CD:9880, H-B:GLU:543:OE1:9881, V-B:PRO:540:C:9853, V-B:TYR:539:CA:9841, V-B:PRO:540:CD:9859, V-B:ILE:369:CB:8208, V-B:ALA:541:CB:9864, V-B:SER:385:CA:8379, H-B:ARG:545:NE:9896, V-A:ALA:541:CA:4890"]

$$$$
RR28_Rahimova_2017
     RDKit          3D

 82 85  0  0  0  0  0  0  0  0999 V2000
  132.7290  131.5380   61.7860 C   0  0  0  0  0  0  0  0  0  0  0  0
  132.2520  130.9820   60.4490 C   0  0  0  0  0  0  0  0  0  0  0  0
  132.8150  131.3280   59.4120 O   0  0  0  0  0  0  0  0  0  0  0  0
  131.2130  130.1240   60.4950 N   0  0  0  0  0  0  0  0  0  0  0  0
  130.5400  129.4400   59.3680 C   0  0  0  0  0  0  0  0  0  0  0  0
  131.1230  128.0020   59.2530 C   0  0  0  0  0  0  0  0  0  0  0  0
  131.2500  127.2160   60.4090 C   0  0  0  0  0  0  0  0  0  0  0  0
  131.7710  125.9280   60.3450 C   0  0  0  0  0  0  0  0  0  0  0  0
  132.1790  125.3940   59.1210 C   0  0  0  0  0  0  0  0  0  0  0  0
  132.7530  123.9790   59.0710 C   0  0  0  0  0  0  0  0  0  0  0  0
  133.1230  123.6260   57.8380 F   0  0  0  0  0  0  0  0  0  0  0  0
  133.8210  123.8840   59.8640 F   0  0  0  0  0  0  0  0  0  0  0  0
  131.8280  123.1160   59.4910 F   0  0  0  0  0  0  0  0  0  0  0  0
  132.0600  126.1670   57.9630 C   0  0  0  0  0  0  0  0  0  0  0  0
  131.5380  127.4560   58.0290 C   0  0  0  0  0  0  0  0  0  0  0  0
  130.6770  130.2840   58.0510 C   0  0  0  0  0  0  0  0  0  0  0  0
  129.9300  131.6400   58.1110 C   0  0  0  0  0  0  0  0  0  0  0  0
  128.5150  131.3260   58.3710 N   0  0  0  0  0  0  0  0  0  0  0  0
  127.6390  131.1930   57.3380 C   0  0  0  0  0  0  0  0  0  0  0  0
  127.9430  131.4900   56.1800 O   0  0  0  0  0  0  0  0  0  0  0  0
  126.1710  130.8140   57.6460 C   0  0  0  0  0  0  0  0  0  0  0  0
  125.6670  129.4840   57.0200 C   0  0  0  0  0  0  0  0  0  0  0  0
  126.7790  128.5080   56.5690 C   0  0  0  0  0  0  0  0  0  0  0  0
  127.1960  128.6020   55.4110 O   0  0  0  0  0  0  0  0  0  0  0  0
  127.3590  127.6770   57.4800 N   0  0  0  0  0  0  0  0  0  0  0  0
  126.7220  127.2970   58.7470 C   0  0  0  0  0  0  0  0  0  0  0  0
  125.8100  126.0900   58.4370 C   0  0  0  0  0  0  0  0  0  0  0  0
  126.5410  124.8660   57.7820 C   0  0  0  0  0  0  0  0  0  0  0  0
  125.5360  123.9670   57.1780 N   0  0  0  0  0  0  0  0  0  0  0  0
  125.7180  122.7250   56.6870 C   0  0  0  0  0  0  0  0  0  0  0  0
  124.4860  122.0410   56.1030 C   0  0  0  0  0  0  0  0  0  0  0  0
  126.7990  122.1360   56.6860 O   0  0  0  0  0  0  0  0  0  0  0  0
  127.2510  124.0760   58.9290 C   0  0  0  0  0  0  0  0  0  0  0  0
  126.6960  123.9340   60.2120 C   0  0  0  0  0  0  0  0  0  0  0  0
  127.3610  123.2210   61.2060 C   0  0  0  0  0  0  0  0  0  0  0  0
  128.6000  122.6330   60.9440 C   0  0  0  0  0  0  0  0  0  0  0  0
  129.3400  121.8440   62.0240 C   0  0  0  0  0  0  0  0  0  0  0  0
  128.8690  122.1480   63.2340 F   0  0  0  0  0  0  0  0  0  0  0  0
  129.1610  120.5410   61.8120 F   0  0  0  0  0  0  0  0  0  0  0  0
  130.6510  122.0930   62.0190 F   0  0  0  0  0  0  0  0  0  0  0  0
  129.1680  122.7720   59.6770 C   0  0  0  0  0  0  0  0  0  0  0  0
  128.5010  123.4850   58.6860 C   0  0  0  0  0  0  0  0  0  0  0  0
  127.5410  125.3940   56.6810 C   0  0  0  0  0  0  0  0  0  0  0  0
  128.3400  126.6750   57.0440 C   0  0  0  0  0  0  0  0  0  0  0  0
  128.2870  130.7120   59.6870 C   0  0  0  0  0  0  0  0  0  0  0  0
  129.0110  129.3410   59.6810 C   0  0  0  0  0  0  0  0  0  0  0  0
  132.2515  130.9814   62.6059 H   0  0  0  0  0  0  0  0  0  0  0  0
  133.8215  131.4321   61.8584 H   0  0  0  0  0  0  0  0  0  0  0  0
  132.4582  132.6017   61.8584 H   0  0  0  0  0  0  0  0  0  0  0  0
  130.8180  129.9300   61.4030 H   0  0  0  0  0  0  0  0  0  0  0  0
  130.9328  127.6247   61.3798 H   0  0  0  0  0  0  0  0  0  0  0  0
  131.8620  125.3277   61.2622 H   0  0  0  0  0  0  0  0  0  0  0  0
  132.3803  125.7551   56.9946 H   0  0  0  0  0  0  0  0  0  0  0  0
  131.4498  128.0539   57.1099 H   0  0  0  0  0  0  0  0  0  0  0  0
  131.7443  130.4811   57.8722 H   0  0  0  0  0  0  0  0  0  0  0  0
  130.2219  129.6972   57.2395 H   0  0  0  0  0  0  0  0  0  0  0  0
  130.3365  132.2623   58.9218 H   0  0  0  0  0  0  0  0  0  0  0  0
  130.0472  132.2009   57.1720 H   0  0  0  0  0  0  0  0  0  0  0  0
  126.0659  130.7335   58.7380 H   0  0  0  0  0  0  0  0  0  0  0  0
  125.5579  131.6070   57.1930 H   0  0  0  0  0  0  0  0  0  0  0  0
  125.0449  128.9698   57.7674 H   0  0  0  0  0  0  0  0  0  0  0  0
  125.1168  129.7633   56.1093 H   0  0  0  0  0  0  0  0  0  0  0  0
  127.4860  127.0155   59.4866 H   0  0  0  0  0  0  0  0  0  0  0  0
  126.1443  128.1334   59.1674 H   0  0  0  0  0  0  0  0  0  0  0  0
  125.3557  125.7528   59.3804 H   0  0  0  0  0  0  0  0  0  0  0  0
  125.0712  126.4403   57.7012 H   0  0  0  0  0  0  0  0  0  0  0  0
  124.6100  124.3610   57.0960 H   0  0  0  0  0  0  0  0  0  0  0  0
  123.8427  121.6838   56.9207 H   0  0  0  0  0  0  0  0  0  0  0  0
  123.9275  122.7582   55.4836 H   0  0  0  0  0  0  0  0  0  0  0  0
  124.7994  121.1877   55.4836 H   0  0  0  0  0  0  0  0  0  0  0  0
  125.7214  124.3931   60.4345 H   0  0  0  0  0  0  0  0  0  0  0  0
  126.9077  123.1204   62.2032 H   0  0  0  0  0  0  0  0  0  0  0  0
  130.1458  122.3166   59.4613 H   0  0  0  0  0  0  0  0  0  0  0  0
  128.9621  123.5877   57.6926 H   0  0  0  0  0  0  0  0  0  0  0  0
  128.2658  124.5931   56.4730 H   0  0  0  0  0  0  0  0  0  0  0  0
  126.9147  125.6697   55.8198 H   0  0  0  0  0  0  0  0  0  0  0  0
  129.0498  126.4611   57.8567 H   0  0  0  0  0  0  0  0  0  0  0  0
  128.9181  127.0376   56.1813 H   0  0  0  0  0  0  0  0  0  0  0  0
  128.6999  131.3535   60.4795 H   0  0  0  0  0  0  0  0  0  0  0  0
  127.2113  130.5863   59.8797 H   0  0  0  0  0  0  0  0  0  0  0  0
  128.8883  128.8790   60.6717 H   0  0  0  0  0  0  0  0  0  0  0  0
  128.5565  128.7405   58.8792 H   0  0  0  0  0  0  0  0  0  0  0  0
  1  2  1  0
  2  3  2  0
  2  4  1  0
  4  5  1  0
  5  6  1  0
  6  7  2  0
  7  8  1  0
  8  9  2  0
  9 10  1  0
 10 11  1  0
 10 12  1  0
 10 13  1  0
  9 14  1  0
 14 15  2  0
  5 16  1  0
 16 17  1  0
 17 18  1  0
 18 19  1  0
 19 20  2  0
 19 21  1  0
 21 22  1  0
 22 23  1  0
 23 24  2  0
 23 25  1  0
 25 26  1  0
 26 27  1  0
 27 28  1  0
 28 29  1  0
 29 30  1  0
 30 31  1  0
 30 32  2  0
 28 33  1  0
 33 34  2  0
 34 35  1  0
 35 36  2  0
 36 37  1  0
 37 38  1  0
 37 39  1  0
 37 40  1  0
 36 41  1  0
 41 42  2  0
 28 43  1  0
 43 44  1  0
 18 45  1  0
 45 46  1  0
 46  5  1  0
 15  6  1  0
 44 25  1  0
 42 33  1  0
  1 47  1  0
  1 48  1  0
  1 49  1  0
  4 50  1  0
  7 51  1  0
  8 52  1  0
 14 53  1  0
 15 54  1  0
 16 55  1  0
 16 56  1  0
 17 57  1  0
 17 58  1  0
 21 59  1  0
 21 60  1  0
 22 61  1  0
 22 62  1  0
 26 63  1  0
 26 64  1  0
 27 65  1  0
 27 66  1  0
 29 67  1  0
 31 68  1  0
 31 69  1  0
 31 70  1  0
 34 71  1  0
 35 72  1  0
 41 73  1  0
 42 74  1  0
 43 75  1  0
 43 76  1  0
 44 77  1  0
 44 78  1  0
 45 79  1  0
 45 80  1  0
 46 81  1  0
 46 82  1  0
M  END
>  <Binding energies>  (1) 
[-10.1]

>  <Ligand effiencies>  (1) 
[-0.21041666666666667]

>  <Interactions>  (1) 
["V-A:TYR:539:CZ:4877, V-A:ILE:369:CB:3236, V-A:ASP:366:CG:3213, V-B:MET:535:CE:9807, V-A:PRO:540:CA:4883, V-B:TYR:539:CE2:9848, V-A:ASP:366:CB:3212, H-B:LYS:534:NZ:9795, V-A:GLU:543:CD:4908, V-B:TYR:539:CZ:9849, V-A:GLU:543:CG:4907, V-A:TYR:539:CE1:4875, V-A:ILE:369:CG2:3237, V-B:TYR:539:CD2:9846, V-A:LEU:475:CD2:4259, H-B:TYR:531:OH:9767, H-B:ASP:366:OD2:8187, V-A:TYR:484:CZ:4347, V-A:TYR:484:CE1:4345, V-B:ASP:366:CG:8185, H-B:TYR:539:N:9842, V-B:PRO:540:CB:9857, V-B:PRO:540:CA:9855, V-B:ASP:366:CB:8184, V-B:PRO:540:N:9856, V-A:ILE:369:CD1:3239, V-B:LEU:363:CD1:8161, V-B:TYR:531:CZ:9766, V-B:TYR:531:CE2:9765, V-B:GLU:543:CD:9880, V-B:ILE:538:CA:9832, V-B:ILE:538:CD1:9837, H-A:ASP:366:OD1:3214, V-A:PRO:540:CB:4885, V-B:PRO:540:C:9853, H-A:GLU:543:OE1:4909, V-B:GLU:543:CG:9879, V-B:PRO:540:CG:9858, V-B:PRO:540:CD:9859, V-B:ALA:541:CB:9864, V-B:ILE:538:CG2:9835, V-B:TYR:531:CE1:9764, V-A:ASN:362:CB:3176, V-B:ILE:538:CB:9834, V-B:ALA:541:CA:9862, V-A:ALA:541:C:4888"]

$$$$
RR29_Rahimova_2017
     RDKit          3D

 35 36  0  0  0  0  0  0  0  0999 V2000
  129.0580  121.3390   61.7970 C   0  0  0  0  0  0  0  0  0  0  0  0
  128.5700  122.7250   62.1950 C   0  0  0  0  0  0  0  0  0  0  0  0
  127.0430  122.8950   62.0340 C   0  0  0  0  0  0  0  0  0  0  0  0
  126.6970  124.0030   61.0170 C   0  0  0  0  0  0  0  0  0  0  0  0
  126.6890  123.4900   59.5860 C   0  0  0  0  0  0  0  0  0  0  0  0
  127.8690  122.9660   59.0190 C   0  0  0  0  0  0  0  0  0  0  0  0
  127.8830  122.4870   57.7020 C   0  0  0  0  0  0  0  0  0  0  0  0
  126.6990  122.5600   56.9780 C   0  0  0  0  0  0  0  0  0  0  0  0
  125.5530  123.0690   57.5210 C   0  0  0  0  0  0  0  0  0  0  0  0
  125.5060  123.5420   58.8280 C   0  0  0  0  0  0  0  0  0  0  0  0
  124.5480  122.9870   56.6090 O   0  0  0  0  0  0  0  0  0  0  0  0
  125.1600  122.6070   55.4050 C   0  0  0  0  0  0  0  0  0  0  0  0
  126.4480  122.1420   55.7090 O   0  0  0  0  0  0  0  0  0  0  0  0
  129.4300  123.5860   62.5990 N   0  0  0  0  0  0  0  0  0  0  0  0
  129.0030  124.8660   62.8780 N   0  0  0  0  0  0  0  0  0  0  0  0
  129.7930  125.8290   63.3800 C   0  0  0  0  0  0  0  0  0  0  0  0
  131.0900  125.6840   63.6550 N   0  0  0  0  0  0  0  0  0  0  0  0
  129.2470  127.0120   63.6190 N   0  0  0  0  0  0  0  0  0  0  0  0
  129.2656  120.7494   62.7022 H   0  0  0  0  0  0  0  0  0  0  0  0
  128.2833  120.8348   61.2006 H   0  0  0  0  0  0  0  0  0  0  0  0
  129.9777  121.4313   61.2006 H   0  0  0  0  0  0  0  0  0  0  0  0
  126.6131  121.9443   61.6857 H   0  0  0  0  0  0  0  0  0  0  0  0
  126.6248  123.1821   63.0100 H   0  0  0  0  0  0  0  0  0  0  0  0
  125.7004  124.4031   61.2550 H   0  0  0  0  0  0  0  0  0  0  0  0
  127.4704  124.7816   61.0912 H   0  0  0  0  0  0  0  0  0  0  0  0
  128.7908  122.9328   59.6184 H   0  0  0  0  0  0  0  0  0  0  0  0
  128.7980  122.0684   57.2575 H   0  0  0  0  0  0  0  0  0  0  0  0
  124.5747  123.9432   59.2543 H   0  0  0  0  0  0  0  0  0  0  0  0
  124.5769  121.8076   54.9244 H   0  0  0  0  0  0  0  0  0  0  0  0
  125.2121  123.4607   54.7133 H   0  0  0  0  0  0  0  0  0  0  0  0
  128.0260  125.0630   62.7140 H   0  0  0  0  0  0  0  0  0  0  0  0
  131.6880  126.4940   63.7250 H   0  0  0  0  0  0  0  0  0  0  0  0
  131.4710  124.7570   63.7820 H   0  0  0  0  0  0  0  0  0  0  0  0
  128.2480  127.0920   63.7380 H   0  0  0  0  0  0  0  0  0  0  0  0
  129.8330  127.8310   63.6880 H   0  0  0  0  0  0  0  0  0  0  0  0
  1  2  1  0
  2  3  1  0
  3  4  1  0
  4  5  1  0
  5  6  2  0
  6  7  1  0
  7  8  2  0
  8  9  1  0
  9 10  2  0
  9 11  1  0
 11 12  1  0
 12 13  1  0
  2 14  2  0
 14 15  1  0
 15 16  1  0
 16 17  1  0
 16 18  2  0
 10  5  1  0
 13  8  1  0
  1 19  1  0
  1 20  1  0
  1 21  1  0
  3 22  1  0
  3 23  1  0
  4 24  1  0
  4 25  1  0
  6 26  1  0
  7 27  1  0
 10 28  1  0
 12 29  1  0
 12 30  1  0
 15 31  1  0
 17 32  1  0
 17 33  1  0
 18 34  1  0
 18 35  1  0
M  CHG  1  18   1
M  END
>  <Binding energies>  (1) 
[-8.35]

>  <Ligand effiencies>  (1) 
[-0.3630434782608695]

>  <Interactions>  (1) 
["V-B:TYR:539:CE2:9848, V-A:GLU:543:CD:4908, V-B:TYR:539:CZ:9849, V-B:TYR:539:CD2:9846, H-B:TYR:531:OH:9767, V-B:TYR:539:CD1:9845, V-B:TYR:539:CG:9844, V-B:TYR:539:C:9839, H-B:TYR:539:N:9842, V-B:PRO:540:CB:9857, V-B:PRO:540:CA:9855, V-B:PRO:540:N:9856, V-B:LEU:363:CD1:8161, H-B:GLU:543:OE2:9882, V-B:TYR:531:CE2:9765, V-B:GLU:543:CD:9880, H-B:GLU:543:OE1:9881, V-B:ILE:538:CA:9832, V-B:ILE:538:CD1:9837, V-B:PRO:540:C:9853, H-A:GLU:543:OE1:4909, V-B:GLU:543:CG:9879, V-B:TYR:539:CA:9841, V-B:PRO:540:CD:9859, H-A:GLU:543:OE2:4910, V-B:ALA:541:CB:9864, V-B:ILE:538:CG2:9835, H-A:TYR:484:OH:4348, V-B:ILE:538:CB:9834, V-B:ILE:538:CG1:9836"]

$$$$
RR29_Rahimova_2017-again1
     RDKit          3D

 34 35  0  0  0  0  0  0  0  0999 V2000
  127.4930  122.5050   62.8680 C   0  0  0  0  0  0  0  0  0  0  0  0
  128.8730  122.4840   62.2290 C   0  0  0  0  0  0  0  0  0  0  0  0
  129.1050  123.6350   61.2310 C   0  0  0  0  0  0  0  0  0  0  0  0
  129.2490  123.1110   59.7870 C   0  0  0  0  0  0  0  0  0  0  0  0
  127.9250  123.1140   59.0380 C   0  0  0  0  0  0  0  0  0  0  0  0
  126.7800  123.6730   59.6380 C   0  0  0  0  0  0  0  0  0  0  0  0
  125.5500  123.6880   58.9650 C   0  0  0  0  0  0  0  0  0  0  0  0
  125.5040  123.1230   57.6960 C   0  0  0  0  0  0  0  0  0  0  0  0
  126.6110  122.5770   57.1100 C   0  0  0  0  0  0  0  0  0  0  0  0
  127.8460  122.5580   57.7500 C   0  0  0  0  0  0  0  0  0  0  0  0
  126.2890  122.1320   55.8680 O   0  0  0  0  0  0  0  0  0  0  0  0
  124.8920  122.2250   55.7830 C   0  0  0  0  0  0  0  0  0  0  0  0
  124.4530  123.0380   56.8380 O   0  0  0  0  0  0  0  0  0  0  0  0
  129.6960  121.5450   62.5400 N   0  0  0  0  0  0  0  0  0  0  0  0
  130.8490  121.5480   61.9530 N   0  0  0  0  0  0  0  0  0  0  0  0
  131.0450  120.6750   61.0340 C   0  0  0  0  0  0  0  0  0  0  0  0
  130.1440  119.6780   60.5650 N   0  0  0  0  0  0  0  0  0  0  0  0
  132.2700  120.6080   60.3370 N   0  0  0  0  0  0  0  0  0  0  0  0
  127.5960  122.5034   63.9632 H   0  0  0  0  0  0  0  0  0  0  0  0
  126.9561  123.4114   62.5515 H   0  0  0  0  0  0  0  0  0  0  0  0
  126.9288  121.6153   62.5515 H   0  0  0  0  0  0  0  0  0  0  0  0
  128.2501  124.3257   61.2770 H   0  0  0  0  0  0  0  0  0  0  0  0
  130.0382  124.1480   61.5067 H   0  0  0  0  0  0  0  0  0  0  0  0
  129.9622  123.7515   59.2475 H   0  0  0  0  0  0  0  0  0  0  0  0
  129.6039  122.0712   59.8398 H   0  0  0  0  0  0  0  0  0  0  0  0
  126.8516  124.1034   60.6478 H   0  0  0  0  0  0  0  0  0  0  0  0
  124.6541  124.1308   59.4246 H   0  0  0  0  0  0  0  0  0  0  0  0
  128.7313  122.1222   57.2639 H   0  0  0  0  0  0  0  0  0  0  0  0
  124.6044  122.6729   54.8204 H   0  0  0  0  0  0  0  0  0  0  0  0
  124.4350  121.2267   55.8505 H   0  0  0  0  0  0  0  0  0  0  0  0
  129.2170  119.5690   60.9530 H   0  0  0  0  0  0  0  0  0  0  0  0
  130.3880  119.0270   59.8360 H   0  0  0  0  0  0  0  0  0  0  0  0
  133.0350  121.2360   60.5350 H   0  0  0  0  0  0  0  0  0  0  0  0
  132.4460  119.9270   59.6140 H   0  0  0  0  0  0  0  0  0  0  0  0
  1  2  1  0
  2  3  1  0
  3  4  1  0
  4  5  1  0
  5  6  2  0
  6  7  1  0
  7  8  2  0
  8  9  1  0
  9 10  2  0
  9 11  1  0
 11 12  1  0
 12 13  1  0
  2 14  2  0
 14 15  1  0
 15 16  2  0
 16 17  1  0
 16 18  1  0
 10  5  1  0
 13  8  1  0
  1 19  1  0
  1 20  1  0
  1 21  1  0
  3 22  1  0
  3 23  1  0
  4 24  1  0
  4 25  1  0
  6 26  1  0
  7 27  1  0
 10 28  1  0
 12 29  1  0
 12 30  1  0
 17 31  1  0
 17 32  1  0
 18 33  1  0
 18 34  1  0
M  END
>  <Binding energies>  (1) 
[-6.68]

>  <Ligand effiencies>  (1) 
[-0.30363636363636365]

>  <Interactions>  (1) 
["V-B:TYR:539:CE2:9848, V-B:TYR:539:CZ:9849, V-A:ILE:369:CG2:3237, V-B:TYR:539:CD2:9846, V-A:LEU:475:CD2:4259, H-B:TYR:531:OH:9767, V-B:TYR:539:CD1:9845, V-B:TYR:539:CG:9844, V-B:TYR:539:C:9839, H-B:TYR:539:N:9842, V-B:PRO:540:CB:9857, V-B:PRO:540:CA:9855, V-B:PRO:540:N:9856, V-B:LEU:363:CD1:8161, V-B:TYR:531:CE2:9765, V-B:GLU:543:CD:9880, V-B:ILE:538:CA:9832, V-B:ILE:538:CD1:9837, V-B:PRO:540:C:9853, V-B:GLU:543:CG:9879, V-B:PRO:540:CD:9859, V-B:ALA:541:CB:9864, V-B:ILE:538:CG2:9835, H-A:TYR:484:OH:4348, H-B:TYR:539:O:9840, V-B:ILE:538:CB:9834, V-B:ALA:541:CA:9862, H-A:SER:385:O:3406, V-B:ILE:538:CG1:9836"]

$$$$
RR2_Rahimova_2017
     RDKit          3D

 76 80  0  0  0  0  0  0  0  0999 V2000
  133.3130  123.2440   60.5560 C   0  0  0  0  0  0  0  0  0  0  0  0
  133.9080  123.7950   59.3870 O   0  0  0  0  0  0  0  0  0  0  0  0
  133.1860  124.6920   58.6220 C   0  0  0  0  0  0  0  0  0  0  0  0
  133.3990  124.9180   57.2550 C   0  0  0  0  0  0  0  0  0  0  0  0
  132.6230  125.8460   56.5660 C   0  0  0  0  0  0  0  0  0  0  0  0
  131.6210  126.5710   57.2250 C   0  0  0  0  0  0  0  0  0  0  0  0
  130.7950  127.5820   56.4540 C   0  0  0  0  0  0  0  0  0  0  0  0
  129.8740  127.2040   55.7210 O   0  0  0  0  0  0  0  0  0  0  0  0
  131.1450  128.8790   56.6170 N   0  0  0  0  0  0  0  0  0  0  0  0
  130.4800  129.8380   55.8610 N   0  0  0  0  0  0  0  0  0  0  0  0
  130.8350  131.1300   56.0150 C   0  0  0  0  0  0  0  0  0  0  0  0
  131.5800  131.5560   56.9030 O   0  0  0  0  0  0  0  0  0  0  0  0
  130.2640  132.1020   54.9740 C   0  0  0  0  0  0  0  0  0  0  0  0
  128.4370  132.1350   54.8660 S   0  0  0  0  0  0  0  0  0  0  0  0
  128.0450  130.5250   55.4810 C   0  0  0  0  0  0  0  0  0  0  0  0
  127.8410  129.4930   54.7010 N   0  0  0  0  0  0  0  0  0  0  0  0
  127.4880  128.4230   55.5100 N   0  0  0  0  0  0  0  0  0  0  0  0
  127.5210  128.8400   56.7530 C   0  0  0  0  0  0  0  0  0  0  0  0
  127.2150  127.9620   57.9240 C   0  0  0  0  0  0  0  0  0  0  0  0
  126.2900  128.3810   58.8830 C   0  0  0  0  0  0  0  0  0  0  0  0
  126.0040  127.5740   59.9800 C   0  0  0  0  0  0  0  0  0  0  0  0
  126.6290  126.3300   60.1190 C   0  0  0  0  0  0  0  0  0  0  0  0
  126.3880  125.4800   61.2090 N   0  0  0  0  0  0  0  0  0  0  0  0
  125.8310  123.7970   61.0760 S   0  0  0  0  0  0  0  0  0  0  0  0
  124.4070  123.8140   61.4300 O   0  0  0  0  0  0  0  0  0  0  0  0
  126.7770  122.9450   61.8050 O   0  0  0  0  0  0  0  0  0  0  0  0
  125.9230  123.4090   59.3290 C   0  0  0  0  0  0  0  0  0  0  0  0
  124.8260  123.6270   58.4930 C   0  0  0  0  0  0  0  0  0  0  0  0
  124.9140  123.3040   57.1410 C   0  0  0  0  0  0  0  0  0  0  0  0
  126.0970  122.7700   56.6260 C   0  0  0  0  0  0  0  0  0  0  0  0
  126.1860  122.4050   55.1560 C   0  0  0  0  0  0  0  0  0  0  0  0
  127.1910  122.5500   57.4660 C   0  0  0  0  0  0  0  0  0  0  0  0
  127.1050  122.8710   58.8170 C   0  0  0  0  0  0  0  0  0  0  0  0
  127.5500  125.9110   59.1580 C   0  0  0  0  0  0  0  0  0  0  0  0
  127.8420  126.7200   58.0640 C   0  0  0  0  0  0  0  0  0  0  0  0
  127.8670  130.1800   56.8080 N   0  0  0  0  0  0  0  0  0  0  0  0
  127.9700  131.0140   57.9410 C   0  0  0  0  0  0  0  0  0  0  0  0
  129.1820  131.1120   58.6250 C   0  0  0  0  0  0  0  0  0  0  0  0
  129.2780  131.9410   59.7400 C   0  0  0  0  0  0  0  0  0  0  0  0
  128.1730  132.6710   60.1800 C   0  0  0  0  0  0  0  0  0  0  0  0
  128.3650  133.4640   61.2950 O   0  0  0  0  0  0  0  0  0  0  0  0
  127.7350  134.7390   61.3590 C   0  0  0  0  0  0  0  0  0  0  0  0
  126.9570  132.5650   59.4850 C   0  0  0  0  0  0  0  0  0  0  0  0
  126.8560  131.7400   58.3690 C   0  0  0  0  0  0  0  0  0  0  0  0
  131.4100  126.3360   58.5930 C   0  0  0  0  0  0  0  0  0  0  0  0
  132.1860  125.4060   59.2790 C   0  0  0  0  0  0  0  0  0  0  0  0
  133.7849  123.6810   61.4484 H   0  0  0  0  0  0  0  0  0  0  0  0
  132.2368  123.4715   60.5617 H   0  0  0  0  0  0  0  0  0  0  0  0
  133.4573  122.1535   60.5617 H   0  0  0  0  0  0  0  0  0  0  0  0
  134.1835  124.3591   56.7239 H   0  0  0  0  0  0  0  0  0  0  0  0
  132.7982  126.0120   55.4928 H   0  0  0  0  0  0  0  0  0  0  0  0
  132.1000  129.1480   56.8060 H   0  0  0  0  0  0  0  0  0  0  0  0
  130.0780  129.4690   55.0110 H   0  0  0  0  0  0  0  0  0  0  0  0
  130.6091  133.1151   55.2278 H   0  0  0  0  0  0  0  0  0  0  0  0
  130.6233  131.7503   53.9956 H   0  0  0  0  0  0  0  0  0  0  0  0
  125.7859  129.3522   58.7707 H   0  0  0  0  0  0  0  0  0  0  0  0
  125.2850  127.9149   60.7395 H   0  0  0  0  0  0  0  0  0  0  0  0
  126.5680  125.8410   62.1340 H   0  0  0  0  0  0  0  0  0  0  0  0
  123.8967  124.0518   58.9003 H   0  0  0  0  0  0  0  0  0  0  0  0
  124.0514  123.4696   56.4788 H   0  0  0  0  0  0  0  0  0  0  0  0
  126.4455  121.3406   55.0576 H   0  0  0  0  0  0  0  0  0  0  0  0
  125.2159  122.5921   54.6724 H   0  0  0  0  0  0  0  0  0  0  0  0
  126.9611  123.0177   54.6724 H   0  0  0  0  0  0  0  0  0  0  0  0
  128.1199  122.1233   57.0597 H   0  0  0  0  0  0  0  0  0  0  0  0
  127.9662  122.7013   59.4800 H   0  0  0  0  0  0  0  0  0  0  0  0
  128.0478  124.9360   59.2658 H   0  0  0  0  0  0  0  0  0  0  0  0
  128.5668  126.3821   57.3086 H   0  0  0  0  0  0  0  0  0  0  0  0
  130.0567  130.5378   58.2856 H   0  0  0  0  0  0  0  0  0  0  0  0
  130.2337  132.0211   60.2788 H   0  0  0  0  0  0  0  0  0  0  0  0
  127.5934  135.0256   62.4115 H   0  0  0  0  0  0  0  0  0  0  0  0
  128.3676  135.4862   60.8575 H   0  0  0  0  0  0  0  0  0  0  0  0
  126.7572  134.6904   60.8575 H   0  0  0  0  0  0  0  0  0  0  0  0
  126.0807  133.1367   59.8244 H   0  0  0  0  0  0  0  0  0  0  0  0
  125.9027  131.6599   57.8260 H   0  0  0  0  0  0  0  0  0  0  0  0
  130.6250  126.8914   59.1271 H   0  0  0  0  0  0  0  0  0  0  0  0
  132.0080  125.2330   60.3506 H   0  0  0  0  0  0  0  0  0  0  0  0
  1  2  1  0
  2  3  1  0
  3  4  2  0
  4  5  1  0
  5  6  2  0
  6  7  1  0
  7  8  2  0
  7  9  1  0
  9 10  1  0
 10 11  1  0
 11 12  2  0
 11 13  1  0
 13 14  1  0
 14 15  1  0
 15 16  2  0
 16 17  1  0
 17 18  2  0
 18 19  1  0
 19 20  2  0
 20 21  1  0
 21 22  2  0
 22 23  1  0
 23 24  1  0
 24 25  2  0
 24 26  2  0
 24 27  1  0
 27 28  2  0
 28 29  1  0
 29 30  2  0
 30 31  1  0
 30 32  1  0
 32 33  2  0
 22 34  1  0
 34 35  2  0
 18 36  1  0
 36 37  1  0
 37 38  2  0
 38 39  1  0
 39 40  2  0
 40 41  1  0
 41 42  1  0
 40 43  1  0
 43 44  2  0
  6 45  1  0
 45 46  2  0
 46  3  1  0
 36 15  1  0
 44 37  1  0
 35 19  1  0
 33 27  1  0
  1 47  1  0
  1 48  1  0
  1 49  1  0
  4 50  1  0
  5 51  1  0
  9 52  1  0
 10 53  1  0
 13 54  1  0
 13 55  1  0
 20 56  1  0
 21 57  1  0
 23 58  1  0
 28 59  1  0
 29 60  1  0
 31 61  1  0
 31 62  1  0
 31 63  1  0
 32 64  1  0
 33 65  1  0
 34 66  1  0
 35 67  1  0
 38 68  1  0
 39 69  1  0
 42 70  1  0
 42 71  1  0
 42 72  1  0
 43 73  1  0
 44 74  1  0
 45 75  1  0
 46 76  1  0
M  END
>  <Binding energies>  (1) 
[-10.31]

>  <Ligand effiencies>  (1) 
[-0.21040816326530612]

>  <Interactions>  (1) 
["V-A:ASP:366:CA:3210, V-A:TYR:539:CZ:4877, V-A:ALA:541:CB:4892, V-A:ASP:366:CG:3213, V-B:MET:535:CE:9807, V-B:LEU:475:CD2:9231, V-A:PRO:540:CA:4883, V-B:TYR:539:CE2:9848, V-A:ASP:366:CB:3212, H-B:LYS:534:NZ:9795, V-B:TYR:539:CZ:9849, V-A:ASP:366:C:3208, H-A:ALA:541:N:4891, H-A:TYR:531:OH:4795, V-A:TYR:539:CE1:4875, V-A:ILE:369:CG2:3237, V-B:TYR:539:CD2:9846, H-B:TYR:531:OH:9767, V-B:TYR:539:CG:9844, H-B:ASP:366:OD2:8187, V-B:TYR:539:C:9839, V-B:ASP:366:CG:8185, V-B:PRO:540:CB:9857, V-B:PRO:540:CA:9855, H-B:ALA:541:N:9863, V-B:ASP:366:CB:8184, V-B:PRO:540:N:9856, V-A:ILE:369:CD1:3239, V-A:TYR:539:CD1:4873, V-B:LEU:363:CD1:8161, H-B:GLU:543:OE2:9882, V-B:TYR:531:CZ:9766, V-B:TYR:531:CE2:9765, H-B:GLU:543:OE1:9881, V-B:ILE:538:CA:9832, V-B:ILE:538:CD1:9837, V-B:TYR:539:CA:9841, V-B:PRO:540:CD:9859, V-B:ILE:538:CG2:9835, V-B:ILE:538:C:9830, H-B:ARG:545:NH2:9900, V-B:ILE:538:CB:9834"]

$$$$
RR30_Rahimova_2017
     RDKit          3D

 29 30  0  0  0  0  0  0  0  0999 V2000
  125.2520  127.7850   74.0200 C   0  0  0  0  0  0  0  0  0  0  0  0
  124.5130  128.3050   75.2620 C   0  0  0  0  0  0  0  0  0  0  0  0
  124.7940  129.7680   75.5250 C   0  0  0  0  0  0  0  0  0  0  0  0
  123.9890  130.6700   76.0300 N   0  0  0  0  0  0  0  0  0  0  0  0
  124.7160  131.8570   76.0590 N   0  0  0  0  0  0  0  0  0  0  0  0
  125.8930  131.5730   75.5610 C   0  0  0  0  0  0  0  0  0  0  0  0
  127.2620  132.6640   75.3470 S   0  0  0  0  0  0  0  0  0  0  0  0
  127.1200  133.0000   73.5630 C   0  0  0  0  0  0  0  0  0  0  0  0
  128.4800  132.9880   72.8620 C   0  0  0  0  0  0  0  0  0  0  0  0
  128.9920  131.9080   72.5580 O   0  0  0  0  0  0  0  0  0  0  0  0
  129.0480  134.1970   72.6530 N   0  0  0  0  0  0  0  0  0  0  0  0
  130.2710  134.4390   72.0440 C   0  0  0  0  0  0  0  0  0  0  0  0
  130.5000  134.8660   70.8220 N   0  0  0  0  0  0  0  0  0  0  0  0
  131.8570  134.9930   70.5540 N   0  0  0  0  0  0  0  0  0  0  0  0
  132.6220  134.6630   71.5690 C   0  0  0  0  0  0  0  0  0  0  0  0
  134.1320  134.7140   71.5200 C   0  0  0  0  0  0  0  0  0  0  0  0
  131.7130  134.1610   72.9690 S   0  0  0  0  0  0  0  0  0  0  0  0
  126.0140  130.2680   75.2060 O   0  0  0  0  0  0  0  0  0  0  0  0
  126.1143  127.1783   74.3336 H   0  0  0  0  0  0  0  0  0  0  0  0
  124.5686  127.1676   73.4184 H   0  0  0  0  0  0  0  0  0  0  0  0
  125.6023  128.6367   73.4184 H   0  0  0  0  0  0  0  0  0  0  0  0
  123.4313  128.1739   75.1111 H   0  0  0  0  0  0  0  0  0  0  0  0
  124.8691  127.7319   76.1307 H   0  0  0  0  0  0  0  0  0  0  0  0
  126.4800  132.2300   73.1075 H   0  0  0  0  0  0  0  0  0  0  0  0
  126.6869  134.0039   73.4421 H   0  0  0  0  0  0  0  0  0  0  0  0
  128.5460  135.0120   72.9740 H   0  0  0  0  0  0  0  0  0  0  0  0
  134.5319  134.7275   72.5447 H   0  0  0  0  0  0  0  0  0  0  0  0
  134.5118  133.8282   70.9898 H   0  0  0  0  0  0  0  0  0  0  0  0
  134.4512  135.6234   70.9898 H   0  0  0  0  0  0  0  0  0  0  0  0
  1  2  1  0
  2  3  1  0
  3  4  2  0
  4  5  1  0
  5  6  2  0
  6  7  1  0
  7  8  1  0
  8  9  1  0
  9 10  2  0
  9 11  1  0
 11 12  1  0
 12 13  2  0
 13 14  1  0
 14 15  2  0
 15 16  1  0
 15 17  1  0
  6 18  1  0
 18  3  1  0
 17 12  1  0
  1 19  1  0
  1 20  1  0
  1 21  1  0
  2 22  1  0
  2 23  1  0
  8 24  1  0
  8 25  1  0
 11 26  1  0
 16 27  1  0
 16 28  1  0
 16 29  1  0
M  END
>  <Binding energies>  (1) 
[-7.31]

>  <Ligand effiencies>  (1) 
[-0.38473684210526315]

>  <Interactions>  (1) 
["V-B:VAL:458:CG2:9059, V-A:GLY:544:CA:4914, V-B:HIS:456:C:9033, V-B:ASP:473:CB:9211, V-B:HIS:456:CB:9037, V-B:TYR:484:CA:9311, V-B:TYR:484:CB:9313, V-A:VAL:542:CG1:4899, V-B:ASP:473:CG:9212, V-B:TYR:484:CG:9314, H-A:LYS:547:NZ:4951, V-A:LYS:547:CE:4950, V-B:VAL:457:C:9045, V-B:HIS:456:CG:9038, V-B:HIS:456:CD2:9040, V-B:VAL:457:CA:9047, V-B:TYR:484:C:9309, H-B:TYR:484:N:9312, H-B:TYR:484:O:9310, H-A:GLY:544:N:4915, H-B:VAL:457:N:9048"]

$$$$
RR31_Rahimova_2017
     RDKit          3D

 44 45  0  0  0  0  0  0  0  0999 V2000
  130.1850  115.3740   59.7950 C   0  0  0  0  0  0  0  0  0  0  0  0
  130.5040  116.8390   60.0600 C   0  0  0  0  0  0  0  0  0  0  0  0
  129.7540  117.5390   61.0070 C   0  0  0  0  0  0  0  0  0  0  0  0
  130.0230  118.8790   61.2750 C   0  0  0  0  0  0  0  0  0  0  0  0
  131.0560  119.5590   60.6090 C   0  0  0  0  0  0  0  0  0  0  0  0
  131.3310  120.9060   60.8590 N   0  0  0  0  0  0  0  0  0  0  0  0
  130.4690  121.7320   61.7260 C   0  0  0  0  0  0  0  0  0  0  0  0
  130.6820  123.2550   61.5590 C   0  0  0  0  0  0  0  0  0  0  0  0
  132.0850  123.6150   61.7770 N   0  0  0  0  0  0  0  0  0  0  0  0
  132.3120  125.0590   61.6610 C   0  0  0  0  0  0  0  0  0  0  0  0
  132.0890  125.8130   62.9870 C   0  0  0  0  0  0  0  0  0  0  0  0
  130.6050  125.8730   63.3810 C   0  0  0  0  0  0  0  0  0  0  0  0
  130.4570  125.6890   64.8960 N   0  0  0  0  0  0  0  0  0  0  0  0
  132.8790  122.9090   60.7720 C   0  0  0  0  0  0  0  0  0  0  0  0
  132.7280  121.3790   60.9290 C   0  0  0  0  0  0  0  0  0  0  0  0
  131.7960  118.8470   59.6540 C   0  0  0  0  0  0  0  0  0  0  0  0
  131.5350  117.5000   59.3750 C   0  0  0  0  0  0  0  0  0  0  0  0
  132.3730  116.7840   58.3230 C   0  0  0  0  0  0  0  0  0  0  0  0
  130.0698  114.8448   60.7524 H   0  0  0  0  0  0  0  0  0  0  0  0
  129.2498  115.3005   59.2206 H   0  0  0  0  0  0  0  0  0  0  0  0
  131.0050  114.9183   59.2206 H   0  0  0  0  0  0  0  0  0  0  0  0
  128.9432  117.0275   61.5464 H   0  0  0  0  0  0  0  0  0  0  0  0
  129.4164  119.4137   62.0207 H   0  0  0  0  0  0  0  0  0  0  0  0
  129.4195  121.5018   61.4903 H   0  0  0  0  0  0  0  0  0  0  0  0
  130.7341  121.4860   62.7649 H   0  0  0  0  0  0  0  0  0  0  0  0
  130.3889  123.5498   60.5406 H   0  0  0  0  0  0  0  0  0  0  0  0
  130.0655  123.7792   62.3040 H   0  0  0  0  0  0  0  0  0  0  0  0
  133.3488  125.2255   61.3333 H   0  0  0  0  0  0  0  0  0  0  0  0
  131.5837  125.4489   60.9346 H   0  0  0  0  0  0  0  0  0  0  0  0
  132.6462  125.2992   63.7842 H   0  0  0  0  0  0  0  0  0  0  0  0
  132.4431  126.8455   62.8508 H   0  0  0  0  0  0  0  0  0  0  0  0
  130.1901  126.8494   63.0903 H   0  0  0  0  0  0  0  0  0  0  0  0
  130.0614  125.0681   62.8646 H   0  0  0  0  0  0  0  0  0  0  0  0
  129.5010  125.8600   65.1750 H   0  0  0  0  0  0  0  0  0  0  0  0
  131.0590  126.3360   65.3850 H   0  0  0  0  0  0  0  0  0  0  0  0
  130.7090  124.7470   65.1590 H   0  0  0  0  0  0  0  0  0  0  0  0
  132.5365  123.2042   59.7692 H   0  0  0  0  0  0  0  0  0  0  0  0
  133.9377  123.1747   60.9086 H   0  0  0  0  0  0  0  0  0  0  0  0
  133.2999  120.8902   60.1265 H   0  0  0  0  0  0  0  0  0  0  0  0
  133.1026  121.1220   61.9308 H   0  0  0  0  0  0  0  0  0  0  0  0
  132.6026  119.3602   59.1099 H   0  0  0  0  0  0  0  0  0  0  0  0
  133.1191  116.1466   58.8201 H   0  0  0  0  0  0  0  0  0  0  0  0
  131.7190  116.1614   57.6947 H   0  0  0  0  0  0  0  0  0  0  0  0
  132.8859  117.5271   57.6947 H   0  0  0  0  0  0  0  0  0  0  0  0
  1  2  1  0
  2  3  2  0
  3  4  1  0
  4  5  2  0
  5  6  1  0
  6  7  1  0
  7  8  1  0
  8  9  1  0
  9 10  1  0
 10 11  1  0
 11 12  1  0
 12 13  1  0
  9 14  1  0
 14 15  1  0
  5 16  1  0
 16 17  2  0
 17 18  1  0
 17  2  1  0
 15  6  1  0
  1 19  1  0
  1 20  1  0
  1 21  1  0
  3 22  1  0
  4 23  1  0
  7 24  1  0
  7 25  1  0
  8 26  1  0
  8 27  1  0
 10 28  1  0
 10 29  1  0
 11 30  1  0
 11 31  1  0
 12 32  1  0
 12 33  1  0
 13 34  1  0
 13 35  1  0
 13 36  1  0
 14 37  1  0
 14 38  1  0
 15 39  1  0
 15 40  1  0
 16 41  1  0
 18 42  1  0
 18 43  1  0
 18 44  1  0
M  CHG  1  13   1
M  END
>  <Binding energies>  (1) 
[-7.76]

>  <Ligand effiencies>  (1) 
[-0.36952380952380953]

>  <Interactions>  (1) 
["V-B:TYR:539:CE2:9848, V-A:GLU:543:CD:4908, V-A:ILE:369:CG2:3237, V-B:TYR:539:CD2:9846, V-A:ARG:545:CZ:4926, V-A:LEU:475:CD2:4259, V-B:TYR:539:CG:9844, V-A:TYR:484:CZ:4347, V-B:TYR:539:C:9839, H-B:GLU:543:OE2:9882, V-B:GLU:543:CD:9880, H-B:GLU:543:OE1:9881, H-A:GLU:543:OE1:4909, H-A:GLU:543:OE2:4910, V-B:TYR:539:CB:9843, V-A:LEU:475:CD1:4258, V-B:ALA:541:CB:9864, H-A:TYR:484:OH:4348, V-A:SER:385:CB:3409, V-A:TYR:484:CE2:4346, V-B:VAL:344:CG1:7973, V-A:LEU:373:CD1:3280, V-A:PRO:482:CB:4326, V-A:LEU:475:CG:4257, V-A:HIS:383:CE1:3394, V-A:PRO:482:CG:4327, V-A:LEU:373:CD2:3281"]

$$$$
RR32_Rahimova_2017
     RDKit          3D

 37 39  0  0  0  0  0  0  0  0999 V2000
  125.3630  123.8350   60.9870 C   0  0  0  0  0  0  0  0  0  0  0  0
  126.3840  123.4330   59.9280 C   0  0  0  0  0  0  0  0  0  0  0  0
  127.7060  123.2330   60.3290 C   0  0  0  0  0  0  0  0  0  0  0  0
  128.6640  122.8620   59.3900 C   0  0  0  0  0  0  0  0  0  0  0  0
  129.9740  122.6640   59.7910 N   0  0  0  0  0  0  0  0  0  0  0  0
  130.7380  123.8520   60.2140 C   0  0  0  0  0  0  0  0  0  0  0  0
  132.2350  123.5570   60.4680 C   0  0  0  0  0  0  0  0  0  0  0  0
  132.3800  122.5210   61.4900 N   0  0  0  0  0  0  0  0  0  0  0  0
  133.7920  122.2650   61.7530 C   0  0  0  0  0  0  0  0  0  0  0  0
  131.7280  121.3090   60.9990 C   0  0  0  0  0  0  0  0  0  0  0  0
  130.2240  121.5710   60.7500 C   0  0  0  0  0  0  0  0  0  0  0  0
  128.3720  122.6850   58.0760 N   0  0  0  0  0  0  0  0  0  0  0  0
  127.0930  122.8760   57.6540 C   0  0  0  0  0  0  0  0  0  0  0  0
  126.8170  122.6870   56.2780 C   0  0  0  0  0  0  0  0  0  0  0  0
  125.5280  122.8690   55.7900 C   0  0  0  0  0  0  0  0  0  0  0  0
  124.4960  123.2360   56.6450 C   0  0  0  0  0  0  0  0  0  0  0  0
  124.7330  123.4300   58.0030 C   0  0  0  0  0  0  0  0  0  0  0  0
  126.0390  123.2560   58.5470 C   0  0  0  0  0  0  0  0  0  0  0  0
  125.7876  123.6678   61.9879 H   0  0  0  0  0  0  0  0  0  0  0  0
  125.1115  124.8993   60.8685 H   0  0  0  0  0  0  0  0  0  0  0  0
  124.4534  123.2279   60.8685 H   0  0  0  0  0  0  0  0  0  0  0  0
  127.9896  123.3681   61.3832 H   0  0  0  0  0  0  0  0  0  0  0  0
  130.6612  124.6155   59.4259 H   0  0  0  0  0  0  0  0  0  0  0  0
  130.3070  124.1950   61.1661 H   0  0  0  0  0  0  0  0  0  0  0  0
  132.7011  123.2126   59.5330 H   0  0  0  0  0  0  0  0  0  0  0  0
  132.7275  124.4765   60.8171 H   0  0  0  0  0  0  0  0  0  0  0  0
  133.9629  122.2340   62.8392 H   0  0  0  0  0  0  0  0  0  0  0  0
  134.0786  121.3002   61.3090 H   0  0  0  0  0  0  0  0  0  0  0  0
  134.3991  123.0677   61.3090 H   0  0  0  0  0  0  0  0  0  0  0  0
  132.2029  120.9979   60.0568 H   0  0  0  0  0  0  0  0  0  0  0  0
  131.8326  120.5158   61.7539 H   0  0  0  0  0  0  0  0  0  0  0  0
  129.7695  120.6500   60.3562 H   0  0  0  0  0  0  0  0  0  0  0  0
  129.7819  121.8727   61.7110 H   0  0  0  0  0  0  0  0  0  0  0  0
  127.6260  122.3949   55.5923 H   0  0  0  0  0  0  0  0  0  0  0  0
  125.3236  122.7214   54.7193 H   0  0  0  0  0  0  0  0  0  0  0  0
  123.4809  123.3747   56.2445 H   0  0  0  0  0  0  0  0  0  0  0  0
  123.9030  123.7209   58.6637 H   0  0  0  0  0  0  0  0  0  0  0  0
  1  2  1  0
  2  3  2  0
  3  4  1  0
  4  5  1  0
  5  6  1  0
  6  7  1  0
  7  8  1  0
  8  9  1  0
  8 10  1  0
 10 11  1  0
  4 12  2  0
 12 13  1  0
 13 14  2  0
 14 15  1  0
 15 16  2  0
 16 17  1  0
 17 18  2  0
 18  2  1  0
 11  5  1  0
 18 13  1  0
  1 19  1  0
  1 20  1  0
  1 21  1  0
  3 22  1  0
  6 23  1  0
  6 24  1  0
  7 25  1  0
  7 26  1  0
  9 27  1  0
  9 28  1  0
  9 29  1  0
 10 30  1  0
 10 31  1  0
 11 32  1  0
 11 33  1  0
 14 34  1  0
 15 35  1  0
 16 36  1  0
 17 37  1  0
M  END
>  <Binding energies>  (1) 
[-6.66]

>  <Ligand effiencies>  (1) 
[-0.37]

>  <Interactions>  (1) 
["V-B:TYR:539:CE2:9848, V-B:TYR:539:CD2:9846, V-A:LEU:475:CD2:4259, V-B:TYR:539:C:9839, V-B:PRO:540:CB:9857, V-B:PRO:540:CA:9855, V-B:PRO:540:N:9856, V-A:ILE:369:CD1:3239, V-B:LEU:363:CD1:8161, V-B:TYR:531:CZ:9766, V-B:TYR:531:CE2:9765, V-B:ILE:538:CA:9832, V-B:ILE:538:CD1:9837, H-A:TYR:484:OH:4348, V-A:GLY:454:CA:4049"]

$$$$
RR32_Rahimova_2017-again1
     RDKit          3D

 38 40  0  0  0  0  0  0  0  0999 V2000
  132.8310  122.0200   59.9050 C   0  0  0  0  0  0  0  0  0  0  0  0
  131.5890  121.5140   60.6240 C   0  0  0  0  0  0  0  0  0  0  0  0
  130.7620  122.4040   61.3090 C   0  0  0  0  0  0  0  0  0  0  0  0
  129.6180  121.9370   61.9660 C   0  0  0  0  0  0  0  0  0  0  0  0
  128.7800  122.8090   62.6680 N   0  0  0  0  0  0  0  0  0  0  0  0
  129.1680  124.2200   62.8670 C   0  0  0  0  0  0  0  0  0  0  0  0
  128.7500  125.1240   61.6830 C   0  0  0  0  0  0  0  0  0  0  0  0
  127.2160  125.0780   61.5470 N   0  0  0  0  0  0  0  0  0  0  0  0
  126.7440  125.9500   60.3680 C   0  0  0  0  0  0  0  0  0  0  0  0
  126.7810  123.6110   61.3490 C   0  0  0  0  0  0  0  0  0  0  0  0
  127.3070  122.7760   62.5400 C   0  0  0  0  0  0  0  0  0  0  0  0
  129.2990  120.6130   61.9780 N   0  0  0  0  0  0  0  0  0  0  0  0
  130.0860  119.7220   61.3170 C   0  0  0  0  0  0  0  0  0  0  0  0
  129.7150  118.3560   61.3380 C   0  0  0  0  0  0  0  0  0  0  0  0
  130.4900  117.4100   60.6710 C   0  0  0  0  0  0  0  0  0  0  0  0
  131.6340  117.7940   59.9800 C   0  0  0  0  0  0  0  0  0  0  0  0
  132.0250  119.1300   59.9420 C   0  0  0  0  0  0  0  0  0  0  0  0
  131.2590  120.1250   60.6100 C   0  0  0  0  0  0  0  0  0  0  0  0
  133.5841  122.3268   60.6458 H   0  0  0  0  0  0  0  0  0  0  0  0
  133.2422  121.2177   59.2747 H   0  0  0  0  0  0  0  0  0  0  0  0
  132.5645  122.8812   59.2747 H   0  0  0  0  0  0  0  0  0  0  0  0
  131.0095  123.4755   61.3329 H   0  0  0  0  0  0  0  0  0  0  0  0
  128.6851  124.5925   63.7824 H   0  0  0  0  0  0  0  0  0  0  0  0
  130.2647  124.2566   62.9435 H   0  0  0  0  0  0  0  0  0  0  0  0
  129.0743  126.1577   61.8735 H   0  0  0  0  0  0  0  0  0  0  0  0
  129.2204  124.7684   60.7544 H   0  0  0  0  0  0  0  0  0  0  0  0
  126.8080  125.4190   62.4060 H   0  0  0  0  0  0  0  0  0  0  0  0
  126.2538  126.8556   60.7549 H   0  0  0  0  0  0  0  0  0  0  0  0
  127.6104  126.2361   59.7536 H   0  0  0  0  0  0  0  0  0  0  0  0
  126.0307  125.3810   59.7536 H   0  0  0  0  0  0  0  0  0  0  0  0
  125.6833  123.5518   61.3109 H   0  0  0  0  0  0  0  0  0  0  0  0
  127.1915  123.2210   60.4059 H   0  0  0  0  0  0  0  0  0  0  0  0
  126.8664  123.1723   63.4667 H   0  0  0  0  0  0  0  0  0  0  0  0
  127.0175  121.7302   62.3597 H   0  0  0  0  0  0  0  0  0  0  0  0
  128.8126  118.0408   61.8823 H   0  0  0  0  0  0  0  0  0  0  0  0
  130.1946  116.3506   60.6911 H   0  0  0  0  0  0  0  0  0  0  0  0
  132.2358  117.0352   59.4584 H   0  0  0  0  0  0  0  0  0  0  0  0
  132.9327  119.4179   59.3914 H   0  0  0  0  0  0  0  0  0  0  0  0
  1  2  1  0
  2  3  2  0
  3  4  1  0
  4  5  1  0
  5  6  1  0
  6  7  1  0
  7  8  1  0
  8  9  1  0
  8 10  1  0
 10 11  1  0
  4 12  2  0
 12 13  1  0
 13 14  2  0
 14 15  1  0
 15 16  2  0
 16 17  1  0
 17 18  2  0
 18  2  1  0
 11  5  1  0
 18 13  1  0
  1 19  1  0
  1 20  1  0
  1 21  1  0
  3 22  1  0
  6 23  1  0
  6 24  1  0
  7 25  1  0
  7 26  1  0
  8 27  1  0
  9 28  1  0
  9 29  1  0
  9 30  1  0
 10 31  1  0
 10 32  1  0
 11 33  1  0
 11 34  1  0
 14 35  1  0
 15 36  1  0
 16 37  1  0
 17 38  1  0
M  CHG  1   8   1
M  END
>  <Binding energies>  (1) 
[-6.89]

>  <Ligand effiencies>  (1) 
[-0.3626315789473684]

>  <Interactions>  (1) 
["V-B:TYR:539:CE2:9848, V-A:ILE:369:CG2:3237, V-B:TYR:539:CD2:9846, V-A:LEU:475:CD2:4259, V-A:TYR:484:CZ:4347, V-B:TYR:539:C:9839, V-A:TYR:484:CE1:4345, V-B:PRO:540:CA:9855, H-B:ALA:541:N:9863, H-B:GLU:543:OE2:9882, V-B:GLU:543:CD:9880, H-B:GLU:543:OE1:9881, V-B:GLU:543:CG:9879, V-A:LEU:475:CD1:4258, V-B:ALA:541:CB:9864, V-A:SER:385:CB:3409, V-B:ALA:541:CA:9862, V-A:PRO:482:CB:4326, V-A:PRO:482:CG:4327"]

$$$$
RR32_Rahimova_2017-again2
     RDKit          3D

 39 41  0  0  0  0  0  0  0  0999 V2000
  129.1070  124.3750   56.4050 C   0  0  0  0  0  0  0  0  0  0  0  0
  128.0980  124.6960   57.4990 C   0  0  0  0  0  0  0  0  0  0  0  0
  128.4470  125.5550   58.5460 C   0  0  0  0  0  0  0  0  0  0  0  0
  127.5340  125.8580   59.5650 C   0  0  0  0  0  0  0  0  0  0  0  0
  127.8390  126.7470   60.6570 N   0  0  0  0  0  0  0  0  0  0  0  0
  127.7740  126.2750   62.0660 C   0  0  0  0  0  0  0  0  0  0  0  0
  129.1070  125.5980   62.4800 C   0  0  0  0  0  0  0  0  0  0  0  0
  130.2680  126.6100   62.3320 N   0  0  0  0  0  0  0  0  0  0  0  0
  131.6190  125.9560   62.6810 C   0  0  0  0  0  0  0  0  0  0  0  0
  130.2880  127.1930   60.8990 C   0  0  0  0  0  0  0  0  0  0  0  0
  128.8940  127.7890   60.5700 C   0  0  0  0  0  0  0  0  0  0  0  0
  126.3070  125.3020   59.4980 N   0  0  0  0  0  0  0  0  0  0  0  0
  125.8750  124.4500   58.5090 C   0  0  0  0  0  0  0  0  0  0  0  0
  124.5640  123.9210   58.5350 C   0  0  0  0  0  0  0  0  0  0  0  0
  124.1600  123.0640   57.5150 C   0  0  0  0  0  0  0  0  0  0  0  0
  125.0310  122.7290   56.4820 C   0  0  0  0  0  0  0  0  0  0  0  0
  126.3270  123.2440   56.4440 C   0  0  0  0  0  0  0  0  0  0  0  0
  126.7880  124.1240   57.4630 C   0  0  0  0  0  0  0  0  0  0  0  0
  130.0601  124.0718   56.8628 H   0  0  0  0  0  0  0  0  0  0  0  0
  128.7226  123.5548   55.7809 H   0  0  0  0  0  0  0  0  0  0  0  0
  129.2672  125.2665   55.7809 H   0  0  0  0  0  0  0  0  0  0  0  0
  129.4530  125.9993   58.5700 H   0  0  0  0  0  0  0  0  0  0  0  0
  127.5852  127.1343   62.7262 H   0  0  0  0  0  0  0  0  0  0  0  0
  126.9612  125.5392   62.1551 H   0  0  0  0  0  0  0  0  0  0  0  0
  129.0404  125.2671   63.5269 H   0  0  0  0  0  0  0  0  0  0  0  0
  129.2935  124.7291   61.8317 H   0  0  0  0  0  0  0  0  0  0  0  0
  130.0950  127.3740   62.9720 H   0  0  0  0  0  0  0  0  0  0  0  0
  131.7290  125.9027   63.7742 H   0  0  0  0  0  0  0  0  0  0  0  0
  131.6548  124.9408   62.2590 H   0  0  0  0  0  0  0  0  0  0  0  0
  132.4375  126.5576   62.2590 H   0  0  0  0  0  0  0  0  0  0  0  0
  131.0504  127.9833   60.8342 H   0  0  0  0  0  0  0  0  0  0  0  0
  130.5278  126.3961   60.1797 H   0  0  0  0  0  0  0  0  0  0  0  0
  128.6672  128.5921   61.2867 H   0  0  0  0  0  0  0  0  0  0  0  0
  128.9139  128.1847   59.5438 H   0  0  0  0  0  0  0  0  0  0  0  0
  125.6530  125.5360   60.2300 H   0  0  0  0  0  0  0  0  0  0  0  0
  123.8730  124.1829   59.3498 H   0  0  0  0  0  0  0  0  0  0  0  0
  123.1421  122.6473   57.5254 H   0  0  0  0  0  0  0  0  0  0  0  0
  124.6931  122.0496   55.6856 H   0  0  0  0  0  0  0  0  0  0  0  0
  126.9991  122.9672   55.6184 H   0  0  0  0  0  0  0  0  0  0  0  0
  1  2  1  0
  2  3  2  0
  3  4  1  0
  4  5  1  0
  5  6  1  0
  6  7  1  0
  7  8  1  0
  8  9  1  0
  8 10  1  0
 10 11  1  0
  4 12  2  0
 12 13  1  0
 13 14  2  0
 14 15  1  0
 15 16  2  0
 16 17  1  0
 17 18  2  0
 18  2  1  0
 11  5  1  0
 18 13  1  0
  1 19  1  0
  1 20  1  0
  1 21  1  0
  3 22  1  0
  6 23  1  0
  6 24  1  0
  7 25  1  0
  7 26  1  0
  8 27  1  0
  9 28  1  0
  9 29  1  0
  9 30  1  0
 10 31  1  0
 10 32  1  0
 11 33  1  0
 11 34  1  0
 12 35  1  0
 14 36  1  0
 15 37  1  0
 16 38  1  0
 17 39  1  0
M  CHG  2   8   1  12   1
M  END
>  <Binding energies>  (1) 
[-6.99]

>  <Ligand effiencies>  (1) 
[-0.34950000000000003]

>  <Interactions>  (1) 
["V-B:MET:535:CE:9807, V-B:TYR:539:CE2:9848, V-A:GLU:543:CD:4908, V-B:TYR:539:CZ:9849, V-A:ARG:545:CZ:4926, H-B:ASP:366:OD2:8187, V-B:TYR:539:CE1:9847, V-B:ASP:366:CG:8185, V-B:PRO:540:CB:9857, V-B:PRO:540:CA:9855, V-B:PRO:540:N:9856, V-B:LEU:363:CD1:8161, V-B:TYR:531:CE2:9765, V-B:GLU:543:CD:9880, V-B:ILE:538:CD1:9837, H-A:GLU:543:OE1:4909, V-B:PRO:540:CG:9858, V-B:PRO:540:CD:9859, H-A:GLU:543:OE2:4910, V-B:LEU:363:CB:8159"]

$$$$
RR33_Rahimova_2017
     RDKit          3D

 36 37  0  0  0  0  0  0  0  0999 V2000
  124.5360  122.9080   56.8910 C   0  0  0  0  0  0  0  0  0  0  0  0
  125.5620  123.1530   55.7810 C   0  0  0  0  0  0  0  0  0  0  0  0
  126.7650  122.4640   56.1090 O   0  0  0  0  0  0  0  0  0  0  0  0
  127.5990  122.9800   57.0820 C   0  0  0  0  0  0  0  0  0  0  0  0
  127.4420  122.4710   58.3700 C   0  0  0  0  0  0  0  0  0  0  0  0
  128.2350  122.9340   59.4160 C   0  0  0  0  0  0  0  0  0  0  0  0
  129.2020  123.9170   59.1880 C   0  0  0  0  0  0  0  0  0  0  0  0
  130.0530  124.4140   60.3120 C   0  0  0  0  0  0  0  0  0  0  0  0
  131.3650  124.4150   60.3860 N   0  0  0  0  0  0  0  0  0  0  0  0
  131.6480  124.9520   61.5630 C   0  0  0  0  0  0  0  0  0  0  0  0
  133.0830  125.1350   62.0080 C   0  0  0  0  0  0  0  0  0  0  0  0
  133.5060  124.0260   62.8500 N   0  0  0  0  0  0  0  0  0  0  0  0
  133.4760  122.7770   62.1060 C   0  0  0  0  0  0  0  0  0  0  0  0
  130.4710  125.2840   62.2200 C   0  0  0  0  0  0  0  0  0  0  0  0
  130.1230  125.9100   63.5480 C   0  0  0  0  0  0  0  0  0  0  0  0
  129.4450  124.9340   61.4100 O   0  0  0  0  0  0  0  0  0  0  0  0
  129.3660  124.4280   57.8960 C   0  0  0  0  0  0  0  0  0  0  0  0
  128.5720  123.9650   56.8490 C   0  0  0  0  0  0  0  0  0  0  0  0
  125.0215  123.0239   57.8712 H   0  0  0  0  0  0  0  0  0  0  0  0
  123.7161  123.6356   56.7996 H   0  0  0  0  0  0  0  0  0  0  0  0
  124.1333  121.8884   56.7996 H   0  0  0  0  0  0  0  0  0  0  0  0
  125.1693  122.7770   54.8248 H   0  0  0  0  0  0  0  0  0  0  0  0
  125.7616  124.2307   55.6872 H   0  0  0  0  0  0  0  0  0  0  0  0
  126.6847  121.6965   58.5615 H   0  0  0  0  0  0  0  0  0  0  0  0
  128.0999  122.5240   60.4277 H   0  0  0  0  0  0  0  0  0  0  0  0
  133.7325  125.1835   61.1216 H   0  0  0  0  0  0  0  0  0  0  0  0
  133.1574  126.0672   62.5873 H   0  0  0  0  0  0  0  0  0  0  0  0
  132.8800  123.9510   63.6400 H   0  0  0  0  0  0  0  0  0  0  0  0
  133.4557  121.9316   62.8095 H   0  0  0  0  0  0  0  0  0  0  0  0
  132.5769  122.7489   61.4729 H   0  0  0  0  0  0  0  0  0  0  0  0
  134.3727  122.7057   61.4729 H   0  0  0  0  0  0  0  0  0  0  0  0
  130.4819  125.2643   64.3630 H   0  0  0  0  0  0  0  0  0  0  0  0
  130.6017  126.8974   63.6246 H   0  0  0  0  0  0  0  0  0  0  0  0
  129.0317  126.0246   63.6246 H   0  0  0  0  0  0  0  0  0  0  0  0
  130.1263  125.1998   57.7057 H   0  0  0  0  0  0  0  0  0  0  0  0
  128.7079  124.3725   55.8364 H   0  0  0  0  0  0  0  0  0  0  0  0
  1  2  1  0
  2  3  1  0
  3  4  1  0
  4  5  2  0
  5  6  1  0
  6  7  2  0
  7  8  1  0
  8  9  2  0
  9 10  1  0
 10 11  1  0
 11 12  1  0
 12 13  1  0
 10 14  2  0
 14 15  1  0
 14 16  1  0
  7 17  1  0
 17 18  2  0
 18  4  1  0
 16  8  1  0
  1 19  1  0
  1 20  1  0
  1 21  1  0
  2 22  1  0
  2 23  1  0
  5 24  1  0
  6 25  1  0
 11 26  1  0
 11 27  1  0
 12 28  1  0
 13 29  1  0
 13 30  1  0
 13 31  1  0
 15 32  1  0
 15 33  1  0
 15 34  1  0
 17 35  1  0
 18 36  1  0
M  END
>  <Binding energies>  (1) 
[-5.52]

>  <Ligand effiencies>  (1) 
[-0.2905263157894737]

>  <Interactions>  (1) 
["V-A:ASP:366:CG:3213, V-B:MET:535:CE:9807, V-B:TYR:539:CE2:9848, V-A:GLU:543:CD:4908, V-B:TYR:539:CZ:9849, V-B:TYR:539:CD2:9846, V-A:ARG:545:CZ:4926, V-A:LEU:475:CD2:4259, V-B:TYR:539:CG:9844, V-B:TYR:539:CE1:9847, V-B:TYR:539:C:9839, H-B:TYR:539:N:9842, V-B:PRO:540:CB:9857, V-B:PRO:540:CA:9855, V-B:PRO:540:N:9856, V-A:ILE:369:CD1:3239, V-B:LEU:363:CD1:8161, V-B:TYR:531:CZ:9766, V-B:TYR:531:CE2:9765, V-B:GLU:543:CD:9880, V-B:ILE:538:CD1:9837, V-B:PRO:540:CG:9858, V-B:PRO:540:CD:9859, H-A:GLY:454:N:4050, H-A:TYR:484:OH:4348, V-A:GLY:454:CA:4049"]

$$$$
RR33_Rahimova_2017-again1
     RDKit          3D

 37 38  0  0  0  0  0  0  0  0999 V2000
  124.4990  122.5200   56.3850 C   0  0  0  0  0  0  0  0  0  0  0  0
  125.6220  122.7800   55.3770 C   0  0  0  0  0  0  0  0  0  0  0  0
  126.8280  122.2100   55.8760 O   0  0  0  0  0  0  0  0  0  0  0  0
  127.5020  122.8420   56.9040 C   0  0  0  0  0  0  0  0  0  0  0  0
  127.1480  122.4710   58.2010 C   0  0  0  0  0  0  0  0  0  0  0  0
  127.7720  123.0520   59.3010 C   0  0  0  0  0  0  0  0  0  0  0  0
  128.7660  124.0190   59.1170 C   0  0  0  0  0  0  0  0  0  0  0  0
  129.4400  124.6440   60.2960 C   0  0  0  0  0  0  0  0  0  0  0  0
  128.9020  125.4230   61.2090 N   0  0  0  0  0  0  0  0  0  0  0  0
  129.8870  125.7220   62.0430 C   0  0  0  0  0  0  0  0  0  0  0  0
  129.6550  126.6250   63.2390 C   0  0  0  0  0  0  0  0  0  0  0  0
  128.1640  126.9970   63.3070 N   0  0  0  0  0  0  0  0  0  0  0  0
  127.8430  128.3620   62.6830 C   0  0  0  0  0  0  0  0  0  0  0  0
  131.0590  125.1100   61.6140 C   0  0  0  0  0  0  0  0  0  0  0  0
  132.4850  125.0600   62.1020 C   0  0  0  0  0  0  0  0  0  0  0  0
  130.7640  124.4150   60.4900 O   0  0  0  0  0  0  0  0  0  0  0  0
  129.1250  124.3940   57.8180 C   0  0  0  0  0  0  0  0  0  0  0  0
  128.5000  123.8110   56.7190 C   0  0  0  0  0  0  0  0  0  0  0  0
  124.8952  122.6117   57.4071 H   0  0  0  0  0  0  0  0  0  0  0  0
  123.6950  123.2557   56.2360 H   0  0  0  0  0  0  0  0  0  0  0  0
  124.1001  121.5057   56.2360 H   0  0  0  0  0  0  0  0  0  0  0  0
  125.3666  122.3183   54.4118 H   0  0  0  0  0  0  0  0  0  0  0  0
  125.7519  123.8628   55.2335 H   0  0  0  0  0  0  0  0  0  0  0  0
  126.3676  121.7114   58.3561 H   0  0  0  0  0  0  0  0  0  0  0  0
  127.4827  122.7499   60.3184 H   0  0  0  0  0  0  0  0  0  0  0  0
  129.9457  126.0984   64.1600 H   0  0  0  0  0  0  0  0  0  0  0  0
  130.2604  127.5377   63.1372 H   0  0  0  0  0  0  0  0  0  0  0  0
  127.6280  126.2850   62.8330 H   0  0  0  0  0  0  0  0  0  0  0  0
  127.8790  127.0060   64.2770 H   0  0  0  0  0  0  0  0  0  0  0  0
  127.6698  129.0985   63.4814 H   0  0  0  0  0  0  0  0  0  0  0  0
  128.6889  128.6885   62.0602 H   0  0  0  0  0  0  0  0  0  0  0  0
  126.9403  128.2773   62.0602 H   0  0  0  0  0  0  0  0  0  0  0  0
  132.4963  125.0596   63.2019 H   0  0  0  0  0  0  0  0  0  0  0  0
  132.9680  124.1444   61.7300 H   0  0  0  0  0  0  0  0  0  0  0  0
  133.0309  125.9396   61.7300 H   0  0  0  0  0  0  0  0  0  0  0  0
  129.9054  125.1537   57.6640 H   0  0  0  0  0  0  0  0  0  0  0  0
  128.7898  124.1113   55.7012 H   0  0  0  0  0  0  0  0  0  0  0  0
  1  2  1  0
  2  3  1  0
  3  4  1  0
  4  5  2  0
  5  6  1  0
  6  7  2  0
  7  8  1  0
  8  9  2  0
  9 10  1  0
 10 11  1  0
 11 12  1  0
 12 13  1  0
 10 14  2  0
 14 15  1  0
 14 16  1  0
  7 17  1  0
 17 18  2  0
 18  4  1  0
 16  8  1  0
  1 19  1  0
  1 20  1  0
  1 21  1  0
  2 22  1  0
  2 23  1  0
  5 24  1  0
  6 25  1  0
 11 26  1  0
 11 27  1  0
 12 28  1  0
 12 29  1  0
 13 30  1  0
 13 31  1  0
 13 32  1  0
 15 33  1  0
 15 34  1  0
 15 35  1  0
 17 36  1  0
 18 37  1  0
M  CHG  1  12   1
M  END
>  <Binding energies>  (1) 
[-6.39]

>  <Ligand effiencies>  (1) 
[-0.3195]

>  <Interactions>  (1) 
["V-B:MET:535:CE:9807, V-B:TYR:539:CE2:9848, V-A:GLU:543:CD:4908, V-B:TYR:539:CZ:9849, V-B:TYR:539:CD2:9846, V-B:TYR:539:CD1:9845, V-B:TYR:539:CG:9844, V-B:TYR:539:CE1:9847, V-B:TYR:539:C:9839, H-B:TYR:539:N:9842, V-B:PRO:540:CB:9857, V-B:PRO:540:CA:9855, V-B:PRO:540:N:9856, V-B:LEU:363:CD1:8161, H-B:GLU:543:OE2:9882, V-B:TYR:531:CE2:9765, V-B:GLU:543:CD:9880, H-B:GLU:543:OE1:9881, V-B:ILE:538:CA:9832, V-B:ILE:538:CD1:9837, V-B:PRO:540:CG:9858, V-B:PRO:540:CD:9859, V-B:ILE:538:CG2:9835"]

$$$$
RR3_Rahimova_2017
     RDKit          3D

 63 69  0  0  0  0  0  0  0  0999 V2000
  126.7100  122.5150   57.4960 C   0  0  0  0  0  0  0  0  0  0  0  0
  127.8580  123.1850   57.9050 C   0  0  0  0  0  0  0  0  0  0  0  0
  127.7510  124.4450   58.4870 C   0  0  0  0  0  0  0  0  0  0  0  0
  126.4980  125.0510   58.6680 C   0  0  0  0  0  0  0  0  0  0  0  0
  126.3840  126.4050   59.2950 C   0  0  0  0  0  0  0  0  0  0  0  0
  126.6540  126.5940   60.6570 C   0  0  0  0  0  0  0  0  0  0  0  0
  126.5440  127.8530   61.2400 C   0  0  0  0  0  0  0  0  0  0  0  0
  126.1540  128.9540   60.4730 C   0  0  0  0  0  0  0  0  0  0  0  0
  126.0290  130.3100   61.0950 C   0  0  0  0  0  0  0  0  0  0  0  0
  125.7670  131.3680   60.3360 N   0  0  0  0  0  0  0  0  0  0  0  0
  125.6710  132.3950   61.1450 C   0  0  0  0  0  0  0  0  0  0  0  0
  125.3890  133.7680   60.7330 C   0  0  0  0  0  0  0  0  0  0  0  0
  124.1850  134.2330   60.2330 C   0  0  0  0  0  0  0  0  0  0  0  0
  124.2720  135.5720   59.9580 N   0  0  0  0  0  0  0  0  0  0  0  0
  125.5340  136.0320   60.2640 C   0  0  0  0  0  0  0  0  0  0  0  0
  126.0910  137.3110   60.1550 C   0  0  0  0  0  0  0  0  0  0  0  0
  127.4200  137.4580   60.5520 C   0  0  0  0  0  0  0  0  0  0  0  0
  128.1640  136.3870   61.0360 C   0  0  0  0  0  0  0  0  0  0  0  0
  127.6090  135.1140   61.1450 C   0  0  0  0  0  0  0  0  0  0  0  0
  126.2720  134.9110   60.7570 C   0  0  0  0  0  0  0  0  0  0  0  0
  125.8770  132.0170   62.4430 N   0  0  0  0  0  0  0  0  0  0  0  0
  126.1360  130.6700   62.4490 C   0  0  0  0  0  0  0  0  0  0  0  0
  126.4710  129.9150   63.6940 C   0  0  0  0  0  0  0  0  0  0  0  0
  125.4830  129.1850   64.3560 C   0  0  0  0  0  0  0  0  0  0  0  0
  125.7870  128.4910   65.5230 C   0  0  0  0  0  0  0  0  0  0  0  0
  127.0860  128.5060   66.0520 C   0  0  0  0  0  0  0  0  0  0  0  0
  127.4050  127.7740   67.3180 C   0  0  0  0  0  0  0  0  0  0  0  0
  128.6600  127.9110   67.9310 C   0  0  0  0  0  0  0  0  0  0  0  0
  128.9550  127.2330   69.1120 C   0  0  0  0  0  0  0  0  0  0  0  0
  127.9960  126.4090   69.6930 C   0  0  0  0  0  0  0  0  0  0  0  0
  126.7460  126.2600   69.1020 C   0  0  0  0  0  0  0  0  0  0  0  0
  126.4540  126.9380   67.9220 C   0  0  0  0  0  0  0  0  0  0  0  0
  128.0730  129.2290   65.3680 C   0  0  0  0  0  0  0  0  0  0  0  0
  127.7720  129.9250   64.2010 C   0  0  0  0  0  0  0  0  0  0  0  0
  125.8960  128.7790   59.1120 C   0  0  0  0  0  0  0  0  0  0  0  0
  126.0060  127.5190   58.5320 C   0  0  0  0  0  0  0  0  0  0  0  0
  125.3550  124.3570   58.2460 C   0  0  0  0  0  0  0  0  0  0  0  0
  125.4570  123.0960   57.6640 C   0  0  0  0  0  0  0  0  0  0  0  0
  126.7932  121.5190   57.0366 H   0  0  0  0  0  0  0  0  0  0  0  0
  128.8462  122.7213   57.7692 H   0  0  0  0  0  0  0  0  0  0  0  0
  128.6607  124.9728   58.8094 H   0  0  0  0  0  0  0  0  0  0  0  0
  126.9571  125.7353   61.2740 H   0  0  0  0  0  0  0  0  0  0  0  0
  126.7652  127.9820   62.3098 H   0  0  0  0  0  0  0  0  0  0  0  0
  123.2875  133.6160   60.0787 H   0  0  0  0  0  0  0  0  0  0  0  0
  123.4970  136.1010   59.5860 H   0  0  0  0  0  0  0  0  0  0  0  0
  125.5073  138.1618   59.7736 H   0  0  0  0  0  0  0  0  0  0  0  0
  127.8930  138.4485   60.4803 H   0  0  0  0  0  0  0  0  0  0  0  0
  129.2094  136.5482   61.3381 H   0  0  0  0  0  0  0  0  0  0  0  0
  128.2095  134.2767   61.5302 H   0  0  0  0  0  0  0  0  0  0  0  0
  125.8690  132.6250   63.2490 H   0  0  0  0  0  0  0  0  0  0  0  0
  124.4596  129.1581   63.9536 H   0  0  0  0  0  0  0  0  0  0  0  0
  124.9980  127.9230   66.0377 H   0  0  0  0  0  0  0  0  0  0  0  0
  129.4200  128.5615   67.4736 H   0  0  0  0  0  0  0  0  0  0  0  0
  129.9422  127.3487   69.5832 H   0  0  0  0  0  0  0  0  0  0  0  0
  128.2279  125.8725   70.6249 H   0  0  0  0  0  0  0  0  0  0  0  0
  125.9906  125.6085   69.5655 H   0  0  0  0  0  0  0  0  0  0  0  0
  125.4646  126.8167   67.4569 H   0  0  0  0  0  0  0  0  0  0  0  0
  129.1008  129.2465   65.7595 H   0  0  0  0  0  0  0  0  0  0  0  0
  128.5609  130.4843   63.6768 H   0  0  0  0  0  0  0  0  0  0  0  0
  125.6043  129.6417   58.4951 H   0  0  0  0  0  0  0  0  0  0  0  0
  125.7934  127.3951   57.4599 H   0  0  0  0  0  0  0  0  0  0  0  0
  124.3635  124.8152   58.3765 H   0  0  0  0  0  0  0  0  0  0  0  0
  124.5518  122.5622   57.3389 H   0  0  0  0  0  0  0  0  0  0  0  0
  1  2  2  0
  2  3  1  0
  3  4  2  0
  4  5  1  0
  5  6  2  0
  6  7  1  0
  7  8  2  0
  8  9  1  0
  9 10  1  0
 10 11  2  0
 11 12  1  0
 12 13  2  0
 13 14  1  0
 14 15  1  0
 15 16  2  0
 16 17  1  0
 17 18  2  0
 18 19  1  0
 19 20  2  0
 11 21  1  0
 21 22  1  0
 22 23  1  0
 23 24  2  0
 24 25  1  0
 25 26  2  0
 26 27  1  0
 27 28  2  0
 28 29  1  0
 29 30  2  0
 30 31  1  0
 31 32  2  0
 26 33  1  0
 33 34  2  0
  8 35  1  0
 35 36  2  0
  4 37  1  0
 37 38  2  0
 38  1  1  0
 36  5  1  0
 22  9  2  0
 34 23  1  0
 20 12  1  0
 32 27  1  0
 20 15  1  0
  1 39  1  0
  2 40  1  0
  3 41  1  0
  6 42  1  0
  7 43  1  0
 13 44  1  0
 14 45  1  0
 16 46  1  0
 17 47  1  0
 18 48  1  0
 19 49  1  0
 21 50  1  0
 24 51  1  0
 25 52  1  0
 28 53  1  0
 29 54  1  0
 30 55  1  0
 31 56  1  0
 32 57  1  0
 33 58  1  0
 34 59  1  0
 35 60  1  0
 36 61  1  0
 37 62  1  0
 38 63  1  0
M  END
>  <Binding energies>  (1) 
[-10.18]

>  <Ligand effiencies>  (1) 
[-0.2545]

>  <Interactions>  (1) 
["V-A:ALA:541:CB:4892, V-B:ILE:369:CG2:8209, V-B:LEU:475:CD2:9231, V-B:TYR:539:CE2:9848, V-A:GLU:543:CD:4908, H-B:TYR:484:OH:9320, V-A:GLU:543:CG:4907, V-A:TYR:539:CE1:4875, V-B:ARG:545:CZ:9898, V-B:TYR:539:CD2:9846, V-B:TYR:539:C:9839, V-B:ASP:366:CG:8185, V-B:PRO:540:CB:9857, V-B:PRO:540:CA:9855, V-B:ASP:366:CB:8184, V-B:PRO:540:N:9856, V-A:TYR:539:CD1:4873, V-A:TYR:539:C:4867, V-A:PRO:540:C:4881, V-B:GLU:543:CD:9880, V-B:GLU:543:CG:9879, V-B:TYR:539:CA:9841, V-B:PRO:540:CD:9859, V-B:SER:385:CB:8381, V-B:SER:385:CA:8379, V-B:ARG:545:CD:9895, V-B:ARG:545:CG:9894, V-B:HIS:456:CE1:9042, V-A:ALA:541:CA:4890, V-B:HIS:383:CD2:8364, V-B:PRO:482:CB:9298, V-B:PRO:482:CG:9299, V-A:GLU:543:CB:4906, H-B:SER:385:OG:8382, V-A:HIS:456:CE1:4070, V-B:GLU:543:CB:9878, H-B:VAL:384:O:8370, V-B:GLY:544:C:9884, V-B:GLU:543:C:9874, V-B:GLU:543:CA:9876, V-B:ARG:545:CA:9891"]

$$$$
RR4_Rahimova_2017
     RDKit          3D

 66 70  0  0  0  0  0  0  0  0999 V2000
  125.8480  122.5040   55.4130 C   0  0  0  0  0  0  0  0  0  0  0  0
  126.4880  122.0800   56.6120 O   0  0  0  0  0  0  0  0  0  0  0  0
  126.7310  123.0060   57.6090 C   0  0  0  0  0  0  0  0  0  0  0  0
  125.9070  124.1280   57.6340 C   0  0  0  0  0  0  0  0  0  0  0  0
  126.0780  125.1120   58.6030 C   0  0  0  0  0  0  0  0  0  0  0  0
  127.0820  125.0040   59.5760 C   0  0  0  0  0  0  0  0  0  0  0  0
  127.2650  126.0680   60.6200 C   0  0  0  0  0  0  0  0  0  0  0  0
  126.5100  127.2460   60.6410 C   0  0  0  0  0  0  0  0  0  0  0  0
  126.7150  128.2070   61.6390 C   0  0  0  0  0  0  0  0  0  0  0  0
  125.8520  129.4260   61.6150 C   0  0  0  0  0  0  0  0  0  0  0  0
  124.8930  129.6280   62.6120 C   0  0  0  0  0  0  0  0  0  0  0  0
  124.0920  130.7670   62.6030 C   0  0  0  0  0  0  0  0  0  0  0  0
  124.2380  131.7280   61.6030 C   0  0  0  0  0  0  0  0  0  0  0  0
  123.4010  132.8250   61.6760 O   0  0  0  0  0  0  0  0  0  0  0  0
  123.7800  134.0320   61.0220 C   0  0  0  0  0  0  0  0  0  0  0  0
  125.2030  131.5320   60.6030 C   0  0  0  0  0  0  0  0  0  0  0  0
  126.0030  130.3930   60.6140 C   0  0  0  0  0  0  0  0  0  0  0  0
  127.7230  127.9720   62.6070 C   0  0  0  0  0  0  0  0  0  0  0  0
  127.9780  128.9440   63.6730 C   0  0  0  0  0  0  0  0  0  0  0  0
  128.1800  129.7120   64.5150 N   0  0  0  0  0  0  0  0  0  0  0  0
  128.4680  126.7740   62.5080 C   0  0  0  0  0  0  0  0  0  0  0  0
  129.7770  126.3200   63.6250 S   0  0  0  0  0  0  0  0  0  0  0  0
  131.2910  126.0750   62.6380 C   0  0  0  0  0  0  0  0  0  0  0  0
  131.6420  124.6060   62.3640 C   0  0  0  0  0  0  0  0  0  0  0  0
  132.8030  124.2070   62.4830 O   0  0  0  0  0  0  0  0  0  0  0  0
  130.5970  123.8360   61.9810 N   0  0  0  0  0  0  0  0  0  0  0  0
  130.5900  122.4750   61.6650 C   0  0  0  0  0  0  0  0  0  0  0  0
  129.3840  121.3690   62.2640 S   0  0  0  0  0  0  0  0  0  0  0  0
  130.1190  120.0310   61.4350 C   0  0  0  0  0  0  0  0  0  0  0  0
  131.2610  120.4300   60.7240 C   0  0  0  0  0  0  0  0  0  0  0  0
  131.5170  121.8170   60.8430 C   0  0  0  0  0  0  0  0  0  0  0  0
  132.6340  122.4880   60.1840 C   0  0  0  0  0  0  0  0  0  0  0  0
  133.5200  123.0190   59.6620 N   0  0  0  0  0  0  0  0  0  0  0  0
  132.0670  119.4370   59.8780 C   0  0  0  0  0  0  0  0  0  0  0  0
  131.2470  118.1530   59.6160 C   0  0  0  0  0  0  0  0  0  0  0  0
  130.5660  117.6300   60.8930 C   0  0  0  0  0  0  0  0  0  0  0  0
  129.5260  118.6280   61.4450 C   0  0  0  0  0  0  0  0  0  0  0  0
  128.2270  125.8470   61.5510 N   0  0  0  0  0  0  0  0  0  0  0  0
  127.9060  123.8670   59.5440 C   0  0  0  0  0  0  0  0  0  0  0  0
  127.7380  122.8810   58.5760 C   0  0  0  0  0  0  0  0  0  0  0  0
  124.9551  123.0956   55.6634 H   0  0  0  0  0  0  0  0  0  0  0  0
  126.5433  123.1208   54.8246 H   0  0  0  0  0  0  0  0  0  0  0  0
  125.5512  121.6233   54.8246 H   0  0  0  0  0  0  0  0  0  0  0  0
  125.1131  124.2377   56.8805 H   0  0  0  0  0  0  0  0  0  0  0  0
  125.4144  125.9893   58.6058 H   0  0  0  0  0  0  0  0  0  0  0  0
  125.7483  127.4189   59.8664 H   0  0  0  0  0  0  0  0  0  0  0  0
  124.7702  128.8811   63.4101 H   0  0  0  0  0  0  0  0  0  0  0  0
  123.3380  130.9099   63.3910 H   0  0  0  0  0  0  0  0  0  0  0  0
  124.0203  134.7971   61.7749 H   0  0  0  0  0  0  0  0  0  0  0  0
  124.6631  133.8465   60.3930 H   0  0  0  0  0  0  0  0  0  0  0  0
  122.9493  134.3846   60.3930 H   0  0  0  0  0  0  0  0  0  0  0  0
  125.3276  132.2814   59.8075 H   0  0  0  0  0  0  0  0  0  0  0  0
  126.7606  130.2514   59.8292 H   0  0  0  0  0  0  0  0  0  0  0  0
  131.1566  126.5821   61.6712 H   0  0  0  0  0  0  0  0  0  0  0  0
  132.1205  126.4895   63.2297 H   0  0  0  0  0  0  0  0  0  0  0  0
  129.6980  124.2910   61.9240 H   0  0  0  0  0  0  0  0  0  0  0  0
  132.3219  119.9055   58.9160 H   0  0  0  0  0  0  0  0  0  0  0  0
  132.9825  119.1672   60.4248 H   0  0  0  0  0  0  0  0  0  0  0  0
  130.4730  118.3734   58.8661 H   0  0  0  0  0  0  0  0  0  0  0  0
  131.9392  117.3762   59.2590 H   0  0  0  0  0  0  0  0  0  0  0  0
  130.0597  116.6811   60.6621 H   0  0  0  0  0  0  0  0  0  0  0  0
  131.3429  117.4909   61.6593 H   0  0  0  0  0  0  0  0  0  0  0  0
  128.6248  118.6056   60.8147 H   0  0  0  0  0  0  0  0  0  0  0  0
  129.2581  118.3488   62.4747 H   0  0  0  0  0  0  0  0  0  0  0  0
  128.6989  123.7536   60.2980 H   0  0  0  0  0  0  0  0  0  0  0  0
  128.3977  122.0008   58.5699 H   0  0  0  0  0  0  0  0  0  0  0  0
  1  2  1  0
  2  3  1  0
  3  4  2  0
  4  5  1  0
  5  6  2  0
  6  7  1  0
  7  8  2  0
  8  9  1  0
  9 10  1  0
 10 11  2  0
 11 12  1  0
 12 13  2  0
 13 14  1  0
 14 15  1  0
 13 16  1  0
 16 17  2  0
  9 18  2  0
 18 19  1  0
 19 20  3  0
 18 21  1  0
 21 22  1  0
 22 23  1  0
 23 24  1  0
 24 25  2  0
 24 26  1  0
 26 27  1  0
 27 28  1  0
 28 29  1  0
 29 30  2  0
 30 31  1  0
 31 32  1  0
 32 33  3  0
 30 34  1  0
 34 35  1  0
 35 36  1  0
 36 37  1  0
 21 38  2  0
  6 39  1  0
 39 40  2  0
 40  3  1  0
 38  7  1  0
 17 10  1  0
 31 27  2  0
 37 29  1  0
  1 41  1  0
  1 42  1  0
  1 43  1  0
  4 44  1  0
  5 45  1  0
  8 46  1  0
 11 47  1  0
 12 48  1  0
 15 49  1  0
 15 50  1  0
 15 51  1  0
 16 52  1  0
 17 53  1  0
 23 54  1  0
 23 55  1  0
 26 56  1  0
 34 57  1  0
 34 58  1  0
 35 59  1  0
 35 60  1  0
 36 61  1  0
 36 62  1  0
 37 63  1  0
 37 64  1  0
 39 65  1  0
 40 66  1  0
M  END
>  <Binding energies>  (1) 
[-10.0]

>  <Ligand effiencies>  (1) 
[-0.24390243902439024]

>  <Interactions>  (1) 
["V-B:ILE:369:CG2:8209, V-B:LEU:475:CD2:9231, V-B:TYR:539:CE2:9848, V-A:GLU:543:CD:4908, V-B:ILE:369:CD1:8211, H-B:TYR:484:OH:9320, V-A:GLU:543:CG:4907, V-B:ARG:545:CZ:9898, V-A:ILE:369:CG2:3237, V-B:TYR:539:CD2:9846, V-A:LEU:475:CD2:4259, V-B:TYR:539:CG:9844, V-B:TYR:539:C:9839, V-A:TYR:484:CE1:4345, V-B:ASP:366:CG:8185, H-B:TYR:539:N:9842, V-B:PRO:540:CA:9855, V-B:PRO:540:N:9856, V-B:GLU:543:CD:9880, V-B:ILE:538:CA:9832, V-B:ILE:538:CD1:9837, V-B:TYR:539:CB:9843, V-A:LEU:475:CD1:4258, V-B:ALA:541:CB:9864, H-A:GLY:454:N:4050, V-B:ILE:538:CG2:9835, H-A:TYR:484:OH:4348, V-B:SER:385:CA:8379, V-B:ILE:538:C:9830, V-B:SER:385:C:8377, V-A:SER:385:CB:3409, V-B:ILE:538:CB:9834, V-A:PRO:482:CB:4326, V-A:LEU:475:CG:4257, V-A:PRO:482:CG:4327"]

$$$$
RR5_Rahimova_2017
     RDKit          3D

 77 82  0  0  0  0  0  0  0  0999 V2000
  127.6610  127.2250   59.0100 O   0  0  0  0  0  0  0  0  0  0  0  0
  127.6060  126.5760   60.0530 C   0  0  0  0  0  0  0  0  0  0  0  0
  127.0880  127.2440   61.3410 C   0  0  0  0  0  0  0  0  0  0  0  0
  128.2060  127.5220   62.4090 C   0  0  2  0  0  0  0  0  0  0  0  0
  128.5760  128.9420   62.5680 N   0  0  0  0  0  0  0  0  0  0  0  0
  127.8440  129.7990   63.3780 C   0  0  0  0  0  0  0  0  0  0  0  0
  126.8710  129.5020   64.0750 O   0  0  0  0  0  0  0  0  0  0  0  0
  128.3660  131.0330   63.2700 O   0  0  0  0  0  0  0  0  0  0  0  0
  127.5370  132.1770   63.0860 C   0  0  0  0  0  0  0  0  0  0  0  0
  127.2450  132.4080   61.5870 C   0  0  0  0  0  0  0  0  0  0  0  0
  125.9570  131.7600   61.1110 C   0  0  0  0  0  0  0  0  0  0  0  0
  125.5690  130.4170   61.1520 C   0  0  0  0  0  0  0  0  0  0  0  0
  124.3130  130.0420   60.6720 C   0  0  0  0  0  0  0  0  0  0  0  0
  123.4460  131.0040   60.1510 C   0  0  0  0  0  0  0  0  0  0  0  0
  123.8320  132.3450   60.1070 C   0  0  0  0  0  0  0  0  0  0  0  0
  125.0890  132.7170   60.5870 C   0  0  0  0  0  0  0  0  0  0  0  0
  125.7480  134.0310   60.6540 C   0  0  0  0  0  0  0  0  0  0  0  0
  125.3180  135.2980   60.2520 C   0  0  0  0  0  0  0  0  0  0  0  0
  126.1630  136.3960   60.4110 C   0  0  0  0  0  0  0  0  0  0  0  0
  127.4310  136.2300   60.9730 C   0  0  0  0  0  0  0  0  0  0  0  0
  127.8550  134.9640   61.3770 C   0  0  0  0  0  0  0  0  0  0  0  0
  127.0110  133.8620   61.2220 C   0  0  0  0  0  0  0  0  0  0  0  0
  129.4720  126.6820   62.1110 C   0  0  0  0  0  0  0  0  0  0  0  0
  129.6020  125.5050   62.3830 O   0  0  0  0  0  0  0  0  0  0  0  0
  130.4020  127.4610   61.4840 O   0  0  0  0  0  0  0  0  0  0  0  0
  127.9420  125.2710   60.1680 N   0  0  0  0  0  0  0  0  0  0  0  0
  128.4700  124.2580   59.2060 C   0  0  0  0  0  0  0  0  0  0  0  0
  127.1760  123.8340   58.4340 C   0  0  0  0  0  0  0  0  0  0  0  0
  127.2250  122.9200   57.3680 C   0  0  0  0  0  0  0  0  0  0  0  0
  126.0670  122.5490   56.6900 C   0  0  0  0  0  0  0  0  0  0  0  0
  124.8420  123.0930   57.0590 C   0  0  0  0  0  0  0  0  0  0  0  0
  124.7640  123.9990   58.1110 C   0  0  0  0  0  0  0  0  0  0  0  0
  125.9200  124.3610   58.7950 C   0  0  0  0  0  0  0  0  0  0  0  0
  129.5090  124.9830   58.2870 C   0  0  0  0  0  0  0  0  0  0  0  0
  129.3150  125.0970   56.9010 C   0  0  0  0  0  0  0  0  0  0  0  0
  130.2620  125.7300   56.0990 C   0  0  0  0  0  0  0  0  0  0  0  0
  131.4160  126.2550   56.6730 C   0  0  0  0  0  0  0  0  0  0  0  0
  131.6280  126.1580   58.0440 C   0  0  0  0  0  0  0  0  0  0  0  0
  130.6770  125.5330   58.8440 C   0  0  0  0  0  0  0  0  0  0  0  0
  129.0660  123.1010   60.0780 C   0  0  0  0  0  0  0  0  0  0  0  0
  130.4260  122.7550   59.9900 C   0  0  0  0  0  0  0  0  0  0  0  0
  130.9600  121.7220   60.7560 C   0  0  0  0  0  0  0  0  0  0  0  0
  130.1410  121.0190   61.6310 C   0  0  0  0  0  0  0  0  0  0  0  0
  128.7950  121.3460   61.7510 C   0  0  0  0  0  0  0  0  0  0  0  0
  128.2660  122.3800   60.9830 C   0  0  0  0  0  0  0  0  0  0  0  0
  126.6218  128.2028   61.0703 H   0  0  0  0  0  0  0  0  0  0  0  0
  126.3760  126.5423   61.8000 H   0  0  0  0  0  0  0  0  0  0  0  0
  127.7591  127.2181   63.3671 H   0  0  0  0  0  0  0  0  0  0  0  0
  129.2690  129.3280   61.9420 H   0  0  0  0  0  0  0  0  0  0  0  0
  126.5870  132.0233   63.6189 H   0  0  0  0  0  0  0  0  0  0  0  0
  128.0606  133.0591   63.4830 H   0  0  0  0  0  0  0  0  0  0  0  0
  128.1484  131.9838   61.1245 H   0  0  0  0  0  0  0  0  0  0  0  0
  126.2519  129.6581   61.5615 H   0  0  0  0  0  0  0  0  0  0  0  0
  124.0058  128.9863   60.7044 H   0  0  0  0  0  0  0  0  0  0  0  0
  122.4567  130.7049   59.7744 H   0  0  0  0  0  0  0  0  0  0  0  0
  123.1497  133.1039   59.6965 H   0  0  0  0  0  0  0  0  0  0  0  0
  124.3182  135.4288   59.8124 H   0  0  0  0  0  0  0  0  0  0  0  0
  125.8302  137.3951   60.0931 H   0  0  0  0  0  0  0  0  0  0  0  0
  128.0954  137.0979   61.0970 H   0  0  0  0  0  0  0  0  0  0  0  0
  128.8543  134.8335   61.8178 H   0  0  0  0  0  0  0  0  0  0  0  0
  130.8400  128.0630   62.0900 H   0  0  0  0  0  0  0  0  0  0  0  0
  127.9290  124.9250   61.1160 H   0  0  0  0  0  0  0  0  0  0  0  0
  128.1918  122.4916   57.0649 H   0  0  0  0  0  0  0  0  0  0  0  0
  126.1213  121.8259   55.8629 H   0  0  0  0  0  0  0  0  0  0  0  0
  123.9297  122.8052   56.5160 H   0  0  0  0  0  0  0  0  0  0  0  0
  123.7931  124.4273   58.4009 H   0  0  0  0  0  0  0  0  0  0  0  0
  125.8524  125.0711   59.6324 H   0  0  0  0  0  0  0  0  0  0  0  0
  128.4050  124.6818   56.4433 H   0  0  0  0  0  0  0  0  0  0  0  0
  130.0980  125.8147   55.0146 H   0  0  0  0  0  0  0  0  0  0  0  0
  132.1655  126.7500   56.0380 H   0  0  0  0  0  0  0  0  0  0  0  0
  132.5423  126.5731   58.4932 H   0  0  0  0  0  0  0  0  0  0  0  0
  130.8414  125.4680   59.9297 H   0  0  0  0  0  0  0  0  0  0  0  0
  131.0807  123.3110   59.3028 H   0  0  0  0  0  0  0  0  0  0  0  0
  132.0257  121.4636   60.6688 H   0  0  0  0  0  0  0  0  0  0  0  0
  130.5601  120.1988   62.2324 H   0  0  0  0  0  0  0  0  0  0  0  0
  128.1513  120.7907   62.4491 H   0  0  0  0  0  0  0  0  0  0  0  0
  127.2017  122.6381   61.0860 H   0  0  0  0  0  0  0  0  0  0  0  0
  1  2  2  0
  2  3  1  0
  3  4  1  0
  4  5  1  0
  5  6  1  0
  6  7  2  0
  6  8  1  0
  8  9  1  0
  9 10  1  0
 10 11  1  0
 11 12  2  0
 12 13  1  0
 13 14  2  0
 14 15  1  0
 15 16  2  0
 16 17  1  0
 17 18  2  0
 18 19  1  0
 19 20  2  0
 20 21  1  0
 21 22  2  0
  4 23  1  0
 23 24  2  0
 23 25  1  0
  2 26  1  0
 26 27  1  0
 27 28  1  0
 28 29  2  0
 29 30  1  0
 30 31  2  0
 31 32  1  0
 32 33  2  0
 27 34  1  0
 34 35  2  0
 35 36  1  0
 36 37  2  0
 37 38  1  0
 38 39  2  0
 27 40  1  0
 40 41  2  0
 41 42  1  0
 42 43  2  0
 43 44  1  0
 44 45  2  0
 22 10  1  0
 33 28  1  0
 39 34  1  0
 45 40  1  0
 16 11  1  0
 22 17  1  0
  3 46  1  0
  3 47  1  0
  4 48  1  1
  5 49  1  0
  9 50  1  0
  9 51  1  0
 10 52  1  0
 12 53  1  0
 13 54  1  0
 14 55  1  0
 15 56  1  0
 18 57  1  0
 19 58  1  0
 20 59  1  0
 21 60  1  0
 25 61  1  0
 26 62  1  0
 29 63  1  0
 30 64  1  0
 31 65  1  0
 32 66  1  0
 33 67  1  0
 35 68  1  0
 36 69  1  0
 37 70  1  0
 38 71  1  0
 39 72  1  0
 41 73  1  0
 42 74  1  0
 43 75  1  0
 44 76  1  0
 45 77  1  0
M  END
>  <Binding energies>  (1) 
[-10.35]

>  <Ligand effiencies>  (1) 
[-0.21562499999999998]

>  <Interactions>  (1) 
["V-A:ALA:541:CB:4892, V-A:ASP:366:CG:3213, V-B:MET:535:CE:9807, V-B:ILE:369:CG2:8209, V-B:LEU:475:CD2:9231, V-B:TYR:539:CE2:9848, V-A:ASP:366:CB:3212, V-A:GLU:543:CD:4908, V-B:TYR:539:CZ:9849, V-B:ILE:369:CD1:8211, H-B:TYR:484:OH:9320, V-A:GLU:543:CG:4907, V-A:TYR:539:CE1:4875, V-B:TYR:539:CD2:9846, V-A:LEU:475:CD2:4259, V-B:TYR:539:C:9839, V-B:ASP:366:CG:8185, V-B:PRO:540:CB:9857, V-B:PRO:540:CA:9855, V-B:ASP:366:CB:8184, V-B:ASP:366:CA:8182, V-B:PRO:540:N:9856, V-A:TYR:539:CD1:4873, V-B:LEU:363:CD1:8161, V-B:TYR:531:CE2:9765, V-B:GLU:543:CD:9880, H-B:GLU:543:OE1:9881, H-A:ASP:366:OD1:3214, V-B:PRO:540:C:9853, H-A:GLU:543:OE1:4909, V-B:PRO:540:CD:9859, H-A:GLU:543:OE2:4910, V-B:ILE:369:CB:8208, V-B:ALA:541:CB:9864, V-A:ALA:541:CA:4890, H-A:ARG:545:NH2:4928, V-B:PRO:482:CB:9298, V-B:PRO:482:CG:9299, V-B:ALA:541:CA:9862"]

$$$$
RR5_Rahimova_2017-again1
     RDKit          3D

 76 81  0  0  0  0  0  0  0  0999 V2000
  124.5900  130.6950   60.0400 O   0  0  0  0  0  0  0  0  0  0  0  0
  125.2360  130.6000   58.9970 C   0  0  0  0  0  0  0  0  0  0  0  0
  124.5390  130.0390   57.7400 C   0  0  0  0  0  0  0  0  0  0  0  0
  125.2520  128.8520   57.0130 C   0  0  2  0  0  0  0  0  0  0  0  0
  125.9100  127.9930   58.0200 N   0  0  0  0  0  0  0  0  0  0  0  0
  126.8540  127.0380   57.6600 C   0  0  0  0  0  0  0  0  0  0  0  0
  127.2330  126.7750   56.5150 O   0  0  0  0  0  0  0  0  0  0  0  0
  127.3000  126.4300   58.7760 O   0  0  0  0  0  0  0  0  0  0  0  0
  126.4150  126.1280   59.8480 C   0  0  0  0  0  0  0  0  0  0  0  0
  126.2590  124.6020   59.9920 C   0  0  0  0  0  0  0  0  0  0  0  0
  126.0490  123.8860   58.6700 C   0  0  0  0  0  0  0  0  0  0  0  0
  125.0340  124.0430   57.7220 C   0  0  0  0  0  0  0  0  0  0  0  0
  125.0470  123.2790   56.5540 C   0  0  0  0  0  0  0  0  0  0  0  0
  126.0700  122.3550   56.3320 C   0  0  0  0  0  0  0  0  0  0  0  0
  127.0820  122.1910   57.2790 C   0  0  0  0  0  0  0  0  0  0  0  0
  127.0680  122.9580   58.4460 C   0  0  0  0  0  0  0  0  0  0  0  0
  127.9830  122.9840   59.5970 C   0  0  0  0  0  0  0  0  0  0  0  0
  129.1400  122.2500   59.8680 C   0  0  0  0  0  0  0  0  0  0  0  0
  129.8280  122.4630   61.0640 C   0  0  0  0  0  0  0  0  0  0  0  0
  129.3620  123.4050   61.9830 C   0  0  0  0  0  0  0  0  0  0  0  0
  128.2060  124.1390   61.7080 C   0  0  0  0  0  0  0  0  0  0  0  0
  127.5160  123.9310   60.5100 C   0  0  0  0  0  0  0  0  0  0  0  0
  126.2710  129.3560   55.9130 C   0  0  0  0  0  0  0  0  0  0  0  0
  126.3610  128.6090   54.9100 O   0  0  0  0  0  0  0  0  0  0  0  0
  126.8460  130.4500   56.1320 O   0  0  0  0  0  0  0  0  0  0  0  0
  126.4920  131.0790   58.8650 N   0  0  0  0  0  0  0  0  0  0  0  0
  127.3850  131.6830   59.8860 C   0  0  0  0  0  0  0  0  0  0  0  0
  126.8930  133.1210   60.2460 C   0  0  0  0  0  0  0  0  0  0  0  0
  125.5290  133.4550   60.1800 C   0  0  0  0  0  0  0  0  0  0  0  0
  125.0860  134.7320   60.5120 C   0  0  0  0  0  0  0  0  0  0  0  0
  126.0030  135.6940   60.9220 C   0  0  0  0  0  0  0  0  0  0  0  0
  127.3580  135.3890   61.0010 C   0  0  0  0  0  0  0  0  0  0  0  0
  127.8000  134.1110   60.6670 C   0  0  0  0  0  0  0  0  0  0  0  0
  127.4140  130.9480   61.2650 C   0  0  0  0  0  0  0  0  0  0  0  0
  127.7300  131.6420   62.4460 C   0  0  0  0  0  0  0  0  0  0  0  0
  127.7580  130.9910   63.6760 C   0  0  0  0  0  0  0  0  0  0  0  0
  127.4630  129.6330   63.7430 C   0  0  0  0  0  0  0  0  0  0  0  0
  127.1370  128.9250   62.5900 C   0  0  0  0  0  0  0  0  0  0  0  0
  127.1100  129.5800   61.3620 C   0  0  0  0  0  0  0  0  0  0  0  0
  128.7870  131.7390   59.1850 C   0  0  0  0  0  0  0  0  0  0  0  0
  129.9470  131.2540   59.8130 C   0  0  0  0  0  0  0  0  0  0  0  0
  131.1810  131.2930   59.1710 C   0  0  0  0  0  0  0  0  0  0  0  0
  131.2710  131.8070   57.8810 C   0  0  0  0  0  0  0  0  0  0  0  0
  130.1350  132.2720   57.2280 C   0  0  0  0  0  0  0  0  0  0  0  0
  128.9020  132.2320   57.8730 C   0  0  0  0  0  0  0  0  0  0  0  0
  123.5385  129.6938   58.0396 H   0  0  0  0  0  0  0  0  0  0  0  0
  124.5413  130.8659   57.0146 H   0  0  0  0  0  0  0  0  0  0  0  0
  124.4966  128.2600   56.4755 H   0  0  0  0  0  0  0  0  0  0  0  0
  125.7120  128.1550   58.9970 H   0  0  0  0  0  0  0  0  0  0  0  0
  126.8211  126.5420   60.7827 H   0  0  0  0  0  0  0  0  0  0  0  0
  125.4308  126.5723   59.6383 H   0  0  0  0  0  0  0  0  0  0  0  0
  125.3967  124.5190   60.6699 H   0  0  0  0  0  0  0  0  0  0  0  0
  124.2255  124.7682   57.8963 H   0  0  0  0  0  0  0  0  0  0  0  0
  124.2496  123.4051   55.8068 H   0  0  0  0  0  0  0  0  0  0  0  0
  126.0783  121.7556   55.4097 H   0  0  0  0  0  0  0  0  0  0  0  0
  127.8868  121.4611   57.1070 H   0  0  0  0  0  0  0  0  0  0  0  0
  129.5070  121.5084   59.1432 H   0  0  0  0  0  0  0  0  0  0  0  0
  130.7394  121.8872   61.2828 H   0  0  0  0  0  0  0  0  0  0  0  0
  129.9060  123.5693   62.9249 H   0  0  0  0  0  0  0  0  0  0  0  0
  127.8388  124.8800   62.4333 H   0  0  0  0  0  0  0  0  0  0  0  0
  126.9470  130.8890   57.9840 H   0  0  0  0  0  0  0  0  0  0  0  0
  124.8004  132.6952   59.8610 H   0  0  0  0  0  0  0  0  0  0  0  0
  124.0159  134.9792   60.4504 H   0  0  0  0  0  0  0  0  0  0  0  0
  125.6543  136.7034   61.1857 H   0  0  0  0  0  0  0  0  0  0  0  0
  128.0779  136.1545   61.3261 H   0  0  0  0  0  0  0  0  0  0  0  0
  128.8718  133.8726   60.7332 H   0  0  0  0  0  0  0  0  0  0  0  0
  127.9588  132.7168   62.3973 H   0  0  0  0  0  0  0  0  0  0  0  0
  128.0120  131.5473   64.5903 H   0  0  0  0  0  0  0  0  0  0  0  0
  127.4876  129.1156   64.7134 H   0  0  0  0  0  0  0  0  0  0  0  0
  126.9016  127.8521   62.6488 H   0  0  0  0  0  0  0  0  0  0  0  0
  126.8466  129.0179   60.4539 H   0  0  0  0  0  0  0  0  0  0  0  0
  129.8783  130.8368   60.8285 H   0  0  0  0  0  0  0  0  0  0  0  0
  132.0812  130.9192   59.6809 H   0  0  0  0  0  0  0  0  0  0  0  0
  132.2468  131.8457   57.3748 H   0  0  0  0  0  0  0  0  0  0  0  0
  130.2103  132.6701   56.2053 H   0  0  0  0  0  0  0  0  0  0  0  0
  128.0043  132.5914   57.3486 H   0  0  0  0  0  0  0  0  0  0  0  0
  1  2  2  0
  2  3  1  0
  3  4  1  0
  4  5  1  0
  5  6  1  0
  6  7  2  0
  6  8  1  0
  8  9  1  0
  9 10  1  0
 10 11  1  0
 11 12  2  0
 12 13  1  0
 13 14  2  0
 14 15  1  0
 15 16  2  0
 16 17  1  0
 17 18  2  0
 18 19  1  0
 19 20  2  0
 20 21  1  0
 21 22  2  0
  4 23  1  0
 23 24  2  0
 23 25  1  0
  2 26  1  0
 26 27  1  0
 27 28  1  0
 28 29  2  0
 29 30  1  0
 30 31  2  0
 31 32  1  0
 32 33  2  0
 27 34  1  0
 34 35  2  0
 35 36  1  0
 36 37  2  0
 37 38  1  0
 38 39  2  0
 27 40  1  0
 40 41  2  0
 41 42  1  0
 42 43  2  0
 43 44  1  0
 44 45  2  0
 22 10  1  0
 33 28  1  0
 39 34  1  0
 45 40  1  0
 16 11  1  0
 22 17  1  0
  3 46  1  0
  3 47  1  0
  4 48  1  6
  5 49  1  0
  9 50  1  0
  9 51  1  0
 10 52  1  0
 12 53  1  0
 13 54  1  0
 14 55  1  0
 15 56  1  0
 18 57  1  0
 19 58  1  0
 20 59  1  0
 21 60  1  0
 26 61  1  0
 29 62  1  0
 30 63  1  0
 31 64  1  0
 32 65  1  0
 33 66  1  0
 35 67  1  0
 36 68  1  0
 37 69  1  0
 38 70  1  0
 39 71  1  0
 41 72  1  0
 42 73  1  0
 43 74  1  0
 44 75  1  0
 45 76  1  0
M  CHG  1  25  -1
M  END
>  <Binding energies>  (1) 
[-11.09]

>  <Ligand effiencies>  (1) 
[-0.23595744680851063]

>  <Interactions>  (1) 
["V-A:ALA:541:CB:4892, V-B:LEU:475:CD2:9231, V-A:PRO:540:CA:4883, V-B:TYR:539:CE2:9848, H-B:LYS:534:NZ:9795, V-A:GLU:543:CD:4908, V-A:GLU:543:CG:4907, V-A:TYR:539:CE1:4875, V-B:TYR:539:CD2:9846, H-B:TYR:531:OH:9767, V-B:TYR:539:CD1:9845, V-B:TYR:539:CG:9844, H-B:ASP:366:OD2:8187, V-B:TYR:539:C:9839, V-B:ASP:366:CG:8185, V-B:PRO:540:CB:9857, V-B:PRO:540:CA:9855, V-B:ASP:366:CB:8184, V-B:ASP:366:CA:8182, V-B:PRO:540:N:9856, V-A:TYR:539:CD1:4873, V-A:TYR:539:C:4867, V-B:LEU:363:CD1:8161, V-B:TYR:531:CZ:9766, V-B:TYR:531:CE2:9765, V-B:GLU:543:CD:9880, V-B:ILE:538:CA:9832, V-A:PRO:540:CB:4885, V-A:PRO:540:N:4884, V-B:TYR:539:CA:9841, V-B:PRO:540:CD:9859, V-B:ASP:366:C:8180, V-B:ILE:538:C:9830, V-B:TYR:531:CE1:9764"]

$$$$
RR6_Rahimova_2017
     RDKit          3D

 63 66  0  0  0  0  0  0  0  0999 V2000
  123.8820  129.8840   62.9730 C   0  0  0  0  0  0  0  0  0  0  0  0
  124.0970  129.6960   64.3640 O   0  0  0  0  0  0  0  0  0  0  0  0
  125.2170  129.0770   64.8210 C   0  0  0  0  0  0  0  0  0  0  0  0
  125.2770  128.4960   65.9090 O   0  0  0  0  0  0  0  0  0  0  0  0
  126.3750  129.1690   63.8700 C   0  0  0  0  0  0  0  0  0  0  0  0
  126.6930  128.1300   62.9820 C   0  0  0  0  0  0  0  0  0  0  0  0
  127.7790  128.2420   62.1170 C   0  0  0  0  0  0  0  0  0  0  0  0
  128.5720  129.4000   62.1300 C   0  0  0  0  0  0  0  0  0  0  0  0
  129.7050  129.6050   61.3210 N   0  0  0  0  0  0  0  0  0  0  0  0
  129.9600  130.5970   60.4400 C   0  0  0  0  0  0  0  0  0  0  0  0
  129.2100  131.5420   60.1930 O   0  0  0  0  0  0  0  0  0  0  0  0
  131.2730  130.4690   59.6610 C   0  0  0  0  0  0  0  0  0  0  0  0
  131.1540  129.3870   58.1980 S   0  0  0  0  0  0  0  0  0  0  0  0
  130.6620  127.7800   58.7860 C   0  0  0  0  0  0  0  0  0  0  0  0
  131.2550  127.4040   59.9440 N   0  0  0  0  0  0  0  0  0  0  0  0
  130.9380  126.2100   60.5060 C   0  0  0  0  0  0  0  0  0  0  0  0
  131.5930  125.8970   61.8190 C   0  0  0  0  0  0  0  0  0  0  0  0
  130.9170  126.1050   63.0320 C   0  0  0  0  0  0  0  0  0  0  0  0
  131.5300  125.8260   64.2510 C   0  0  0  0  0  0  0  0  0  0  0  0
  132.8320  125.3280   64.2790 C   0  0  0  0  0  0  0  0  0  0  0  0
  133.4990  125.0340   65.6100 C   0  0  0  0  0  0  0  0  0  0  0  0
  133.5190  125.1120   63.0870 C   0  0  0  0  0  0  0  0  0  0  0  0
  132.9020  125.3920   61.8720 C   0  0  0  0  0  0  0  0  0  0  0  0
  130.0130  125.3560   59.8970 C   0  0  0  0  0  0  0  0  0  0  0  0
  129.3880  125.7210   58.6960 C   0  0  0  0  0  0  0  0  0  0  0  0
  128.3980  124.7700   58.1100 C   0  0  0  0  0  0  0  0  0  0  0  0
  128.6360  124.1880   56.8610 C   0  0  0  0  0  0  0  0  0  0  0  0
  127.7240  123.2870   56.3150 C   0  0  0  0  0  0  0  0  0  0  0  0
  126.5630  122.9470   57.0070 C   0  0  0  0  0  0  0  0  0  0  0  0
  125.7190  122.0450   56.3890 O   0  0  0  0  0  0  0  0  0  0  0  0
  124.5070  122.5150   55.8090 C   0  0  0  0  0  0  0  0  0  0  0  0
  126.3220  123.5240   58.2630 C   0  0  0  0  0  0  0  0  0  0  0  0
  127.2360  124.4240   58.8070 C   0  0  0  0  0  0  0  0  0  0  0  0
  129.7240  126.9680   58.1150 C   0  0  0  0  0  0  0  0  0  0  0  0
  129.1300  127.3980   56.8450 C   0  0  0  0  0  0  0  0  0  0  0  0
  128.6600  127.7380   55.8440 N   0  0  0  0  0  0  0  0  0  0  0  0
  128.2490  130.4420   62.9990 C   0  0  0  0  0  0  0  0  0  0  0  0
  127.1640  130.3270   63.8650 C   0  0  0  0  0  0  0  0  0  0  0  0
  123.0617  130.6013   62.8224 H   0  0  0  0  0  0  0  0  0  0  0  0
  124.8001  130.2743   62.5095 H   0  0  0  0  0  0  0  0  0  0  0  0
  123.6177  128.9221   62.5095 H   0  0  0  0  0  0  0  0  0  0  0  0
  126.0784  127.2178   62.9689 H   0  0  0  0  0  0  0  0  0  0  0  0
  128.0154  127.4220   61.4229 H   0  0  0  0  0  0  0  0  0  0  0  0
  130.3790  128.8540   61.3520 H   0  0  0  0  0  0  0  0  0  0  0  0
  131.5783  131.4718   59.3275 H   0  0  0  0  0  0  0  0  0  0  0  0
  132.0070  130.0115   60.3406 H   0  0  0  0  0  0  0  0  0  0  0  0
  129.8882  126.4940   63.0193 H   0  0  0  0  0  0  0  0  0  0  0  0
  130.9869  125.9986   65.1919 H   0  0  0  0  0  0  0  0  0  0  0  0
  132.8278  125.3298   66.4297 H   0  0  0  0  0  0  0  0  0  0  0  0
  133.7141  123.9577   65.6825 H   0  0  0  0  0  0  0  0  0  0  0  0
  134.4386  125.6014   65.6825 H   0  0  0  0  0  0  0  0  0  0  0  0
  134.5470  124.7210   63.1062 H   0  0  0  0  0  0  0  0  0  0  0  0
  133.4501  125.2144   60.9350 H   0  0  0  0  0  0  0  0  0  0  0  0
  129.7736  124.3894   60.3643 H   0  0  0  0  0  0  0  0  0  0  0  0
  129.5502  124.4434   56.3052 H   0  0  0  0  0  0  0  0  0  0  0  0
  127.9221  122.8403   55.3295 H   0  0  0  0  0  0  0  0  0  0  0  0
  123.8008  122.7888   56.6067 H   0  0  0  0  0  0  0  0  0  0  0  0
  124.7165  123.3971   55.1860 H   0  0  0  0  0  0  0  0  0  0  0  0
  124.0671  121.7223   55.1860 H   0  0  0  0  0  0  0  0  0  0  0  0
  125.4092  123.2652   58.8196 H   0  0  0  0  0  0  0  0  0  0  0  0
  127.0416  124.8670   59.7949 H   0  0  0  0  0  0  0  0  0  0  0  0
  128.8547  131.3602   63.0005 H   0  0  0  0  0  0  0  0  0  0  0  0
  126.9244  131.1527   64.5511 H   0  0  0  0  0  0  0  0  0  0  0  0
  1  2  1  0
  2  3  1  0
  3  4  2  0
  3  5  1  0
  5  6  2  0
  6  7  1  0
  7  8  2  0
  8  9  1  0
  9 10  1  0
 10 11  2  0
 10 12  1  0
 12 13  1  0
 13 14  1  0
 14 15  2  0
 15 16  1  0
 16 17  1  0
 17 18  2  0
 18 19  1  0
 19 20  2  0
 20 21  1  0
 20 22  1  0
 22 23  2  0
 16 24  2  0
 24 25  1  0
 25 26  1  0
 26 27  2  0
 27 28  1  0
 28 29  2  0
 29 30  1  0
 30 31  1  0
 29 32  1  0
 32 33  2  0
 25 34  2  0
 34 35  1  0
 35 36  3  0
  8 37  1  0
 37 38  2  0
 38  5  1  0
 34 14  1  0
 23 17  1  0
 33 26  1  0
  1 39  1  0
  1 40  1  0
  1 41  1  0
  6 42  1  0
  7 43  1  0
  9 44  1  0
 12 45  1  0
 12 46  1  0
 18 47  1  0
 19 48  1  0
 21 49  1  0
 21 50  1  0
 21 51  1  0
 22 52  1  0
 23 53  1  0
 24 54  1  0
 27 55  1  0
 28 56  1  0
 31 57  1  0
 31 58  1  0
 31 59  1  0
 32 60  1  0
 33 61  1  0
 37 62  1  0
 38 63  1  0
M  END
>  <Binding energies>  (1) 
[-8.61]

>  <Ligand effiencies>  (1) 
[-0.22076923076923075]

>  <Interactions>  (1) 
["V-A:ASP:366:CG:3213, V-B:MET:535:CE:9807, V-B:TYR:539:CE2:9848, V-A:GLU:543:CD:4908, V-B:TYR:539:CZ:9849, H-B:GLY:454:N:9022, H-B:TYR:484:OH:9320, V-A:GLU:543:CG:4907, V-B:ARG:545:CZ:9898, V-A:ARG:545:CZ:4926, V-B:TYR:539:CD1:9845, V-A:TYR:484:CZ:4347, V-B:TYR:539:CE1:9847, H-B:TYR:539:N:9842, V-B:PRO:540:CB:9857, V-B:PRO:540:CA:9855, V-B:PRO:540:N:9856, V-B:LEU:363:CD1:8161, V-B:TYR:531:CE2:9765, V-B:GLU:543:CD:9880, V-B:ILE:538:CA:9832, V-B:ILE:538:CD1:9837, H-A:GLU:543:OE1:4909, V-B:PRO:540:CD:9859, V-B:ILE:538:CG2:9835, H-B:ARG:545:NE:9896, H-B:ARG:545:NH2:9900, V-B:ILE:538:CB:9834, H-B:ARG:545:NH1:9899, V-B:GLY:453:CA:9016, V-A:TYR:484:CE2:4346, V-A:GLY:454:CA:4049, V-A:ARG:545:CD:4923, V-A:GLY:453:CA:4044, V-A:ARG:545:CG:4922"]

$$$$
RR7_Rahimova_2017
     RDKit          3D

 80 86  0  0  0  0  0  0  0  0999 V2000
  125.1720  130.6870   59.4330 C   0  0  0  0  0  0  0  0  0  0  0  0
  126.3790  130.0630   59.8590 O   0  0  0  0  0  0  0  0  0  0  0  0
  126.6350  128.7600   59.4760 C   0  0  0  0  0  0  0  0  0  0  0  0
  127.4810  128.0230   60.3020 C   0  0  0  0  0  0  0  0  0  0  0  0
  127.7920  126.7010   60.0000 C   0  0  0  0  0  0  0  0  0  0  0  0
  127.2700  126.0860   58.8530 C   0  0  0  0  0  0  0  0  0  0  0  0
  127.5760  124.5950   58.5070 C   0  0  0  0  0  0  0  0  0  0  0  0
  128.8170  124.5950   57.7680 O   0  0  0  0  0  0  0  0  0  0  0  0
  128.9530  125.4010   56.5930 C   0  0  0  0  0  0  0  0  0  0  0  0
  130.3900  125.9420   56.5200 C   0  0  1  0  0  0  0  0  0  0  0  0
  130.2960  127.3640   56.5280 O   0  0  0  0  0  0  0  0  0  0  0  0
  130.9890  127.9280   57.6050 C   0  0  1  0  0  0  0  0  0  0  0  0
  130.3150  129.1290   58.0580 N   0  0  0  0  0  0  0  0  0  0  0  0
  129.2770  129.8080   57.4440 C   0  0  0  0  0  0  0  0  0  0  0  0
  128.8840  130.9000   58.0500 N   0  0  0  0  0  0  0  0  0  0  0  0
  129.7320  131.0030   59.1200 C   0  0  0  0  0  0  0  0  0  0  0  0
  129.8420  131.9610   60.1470 C   0  0  0  0  0  0  0  0  0  0  0  0
  128.9430  133.0430   60.1610 N   0  0  0  0  0  0  0  0  0  0  0  0
  128.0080  133.3620   61.0870 C   0  0  0  0  0  0  0  0  0  0  0  0
  127.7830  132.7010   62.1040 O   0  0  0  0  0  0  0  0  0  0  0  0
  127.1900  134.6020   60.7920 C   0  0  0  0  0  0  0  0  0  0  0  0
  127.7460  135.8700   61.0210 C   0  0  0  0  0  0  0  0  0  0  0  0
  127.0150  137.0230   60.7520 C   0  0  0  0  0  0  0  0  0  0  0  0
  125.7230  136.9190   60.2470 C   0  0  0  0  0  0  0  0  0  0  0  0
  125.1540  135.6700   60.0080 C   0  0  0  0  0  0  0  0  0  0  0  0
  125.8850  134.5150   60.2790 C   0  0  0  0  0  0  0  0  0  0  0  0
  130.8170  131.8140   61.0940 N   0  0  0  0  0  0  0  0  0  0  0  0
  131.6420  130.7390   60.9940 C   0  0  0  0  0  0  0  0  0  0  0  0
  131.6220  129.7590   60.0520 N   0  0  0  0  0  0  0  0  0  0  0  0
  130.6530  129.9250   59.1420 C   0  0  0  0  0  0  0  0  0  0  0  0
  131.0890  126.8160   58.6430 C   0  0  0  0  0  0  0  0  0  0  0  0
  131.2700  125.6130   57.7340 C   0  0  2  0  0  0  0  0  0  0  0  0
  132.6280  125.4130   57.3790 O   0  0  0  0  0  0  0  0  0  0  0  0
  127.8030  123.7300   59.7750 C   0  0  0  0  0  0  0  0  0  0  0  0
  128.9390  122.9100   59.8790 C   0  0  0  0  0  0  0  0  0  0  0  0
  129.1460  122.1200   61.0050 C   0  0  0  0  0  0  0  0  0  0  0  0
  128.2180  122.1400   62.0410 C   0  0  0  0  0  0  0  0  0  0  0  0
  127.0850  122.9440   61.9600 C   0  0  0  0  0  0  0  0  0  0  0  0
  126.8780  123.7330   60.8320 C   0  0  0  0  0  0  0  0  0  0  0  0
  126.4830  123.8530   57.6860 C   0  0  0  0  0  0  0  0  0  0  0  0
  126.8220  123.1680   56.5090 C   0  0  0  0  0  0  0  0  0  0  0  0
  125.8500  122.5090   55.7620 C   0  0  0  0  0  0  0  0  0  0  0  0
  124.5230  122.5370   56.1820 C   0  0  0  0  0  0  0  0  0  0  0  0
  124.1620  123.2210   57.3380 C   0  0  0  0  0  0  0  0  0  0  0  0
  125.1360  123.8790   58.0830 C   0  0  0  0  0  0  0  0  0  0  0  0
  126.4080  126.8280   58.0330 C   0  0  0  0  0  0  0  0  0  0  0  0
  126.0960  128.1500   58.3350 C   0  0  0  0  0  0  0  0  0  0  0  0
  124.5856  130.9902   60.3129 H   0  0  0  0  0  0  0  0  0  0  0  0
  125.4115  131.5743   58.8285 H   0  0  0  0  0  0  0  0  0  0  0  0
  124.5865  129.9786   58.8285 H   0  0  0  0  0  0  0  0  0  0  0  0
  127.9072  128.4909   61.2017 H   0  0  0  0  0  0  0  0  0  0  0  0
  128.4548  126.1319   60.6684 H   0  0  0  0  0  0  0  0  0  0  0  0
  128.7427  124.7917   55.7016 H   0  0  0  0  0  0  0  0  0  0  0  0
  128.2421  126.2395   56.6335 H   0  0  0  0  0  0  0  0  0  0  0  0
  130.8423  125.4855   55.6272 H   0  0  0  0  0  0  0  0  0  0  0  0
  132.0024  128.2725   57.3515 H   0  0  0  0  0  0  0  0  0  0  0  0
  128.8140  129.4545   56.5109 H   0  0  0  0  0  0  0  0  0  0  0  0
  129.0140  133.6560   59.3610 H   0  0  0  0  0  0  0  0  0  0  0  0
  128.7690  135.9532   61.4167 H   0  0  0  0  0  0  0  0  0  0  0  0
  127.4571  138.0129   60.9380 H   0  0  0  0  0  0  0  0  0  0  0  0
  125.1456  137.8309   60.0345 H   0  0  0  0  0  0  0  0  0  0  0  0
  124.1323  135.5959   59.6072 H   0  0  0  0  0  0  0  0  0  0  0  0
  125.4371  133.5283   60.0899 H   0  0  0  0  0  0  0  0  0  0  0  0
  132.4189  130.6512   61.7677 H   0  0  0  0  0  0  0  0  0  0  0  0
  131.9533  126.9570   59.3087 H   0  0  0  0  0  0  0  0  0  0  0  0
  130.2330  126.7493   59.3307 H   0  0  0  0  0  0  0  0  0  0  0  0
  130.9803  124.6682   58.2172 H   0  0  0  0  0  0  0  0  0  0  0  0
  132.6810  124.6630   56.7820 H   0  0  0  0  0  0  0  0  0  0  0  0
  129.6735  122.8925   59.0603 H   0  0  0  0  0  0  0  0  0  0  0  0
  130.0395  121.4823   61.0759 H   0  0  0  0  0  0  0  0  0  0  0  0
  128.3810  121.5152   62.9315 H   0  0  0  0  0  0  0  0  0  0  0  0
  126.3561  122.9560   62.7838 H   0  0  0  0  0  0  0  0  0  0  0  0
  125.9804  124.3656   60.7677 H   0  0  0  0  0  0  0  0  0  0  0  0
  127.8692  123.1517   56.1726 H   0  0  0  0  0  0  0  0  0  0  0  0
  126.1287  121.9691   54.8450 H   0  0  0  0  0  0  0  0  0  0  0  0
  123.7538  122.0139   55.5949 H   0  0  0  0  0  0  0  0  0  0  0  0
  123.1110  123.2418   57.6620 H   0  0  0  0  0  0  0  0  0  0  0  0
  124.8477  124.4256   58.9930 H   0  0  0  0  0  0  0  0  0  0  0  0
  125.9724  126.3586   57.1386 H   0  0  0  0  0  0  0  0  0  0  0  0
  125.4237  128.7186   57.6757 H   0  0  0  0  0  0  0  0  0  0  0  0
  1  2  1  0
  2  3  1  0
  3  4  2  0
  4  5  1  0
  5  6  2  0
  6  7  1  0
  7  8  1  0
  8  9  1  0
  9 10  1  0
 10 11  1  0
 11 12  1  0
 12 13  1  0
 13 14  1  0
 14 15  2  0
 15 16  1  0
 16 17  2  0
 17 18  1  0
 18 19  1  0
 19 20  2  0
 19 21  1  0
 21 22  2  0
 22 23  1  0
 23 24  2  0
 24 25  1  0
 25 26  2  0
 17 27  1  0
 27 28  2  0
 28 29  1  0
 29 30  2  0
 12 31  1  0
 31 32  1  0
 32 33  1  0
  7 34  1  0
 34 35  2  0
 35 36  1  0
 36 37  2  0
 37 38  1  0
 38 39  2  0
  7 40  1  0
 40 41  2  0
 41 42  1  0
 42 43  2  0
 43 44  1  0
 44 45  2  0
  6 46  1  0
 46 47  2  0
 47  3  1  0
 32 10  1  0
 39 34  1  0
 45 40  1  0
 30 13  1  0
 30 16  1  0
 26 21  1  0
  1 48  1  0
  1 49  1  0
  1 50  1  0
  4 51  1  0
  5 52  1  0
  9 53  1  0
  9 54  1  0
 10 55  1  6
 12 56  1  6
 14 57  1  0
 18 58  1  0
 22 59  1  0
 23 60  1  0
 24 61  1  0
 25 62  1  0
 26 63  1  0
 28 64  1  0
 31 65  1  0
 31 66  1  0
 32 67  1  1
 33 68  1  0
 35 69  1  0
 36 70  1  0
 37 71  1  0
 38 72  1  0
 39 73  1  0
 41 74  1  0
 42 75  1  0
 43 76  1  0
 44 77  1  0
 45 78  1  0
 46 79  1  0
 47 80  1  0
M  END
>  <Binding energies>  (1) 
[-10.55]

>  <Ligand effiencies>  (1) 
[-0.21530612244897962]

>  <Interactions>  (1) 
["V-A:ALA:541:CB:4892, V-A:ASP:366:CG:3213, V-B:MET:535:CE:9807, V-B:LEU:475:CD2:9231, V-A:PRO:540:CA:4883, V-B:TYR:539:CE2:9848, V-A:GLU:543:CD:4908, V-B:TYR:539:CZ:9849, H-A:ALA:541:N:4891, H-A:TYR:531:OH:4795, V-A:TYR:539:CE1:4875, V-B:TYR:539:CD2:9846, H-B:TYR:539:OH:9850, V-B:ASP:366:CG:8185, V-B:PRO:540:CB:9857, V-B:PRO:540:CA:9855, V-B:ASP:366:CB:8184, V-A:TYR:539:CD1:4873, V-A:TYR:539:C:4867, V-A:PRO:540:C:4881, V-B:LEU:363:CD1:8161, V-B:TYR:531:CE2:9765, V-B:GLU:543:CD:9880, V-B:ILE:538:CA:9832, V-B:ILE:538:CD1:9837, V-B:PRO:540:C:9853, V-A:PRO:540:N:4884, V-B:GLU:543:CG:9879, V-B:PRO:540:CG:9858, V-B:PRO:540:CD:9859, V-B:ALA:541:CB:9864, V-B:ILE:538:CG2:9835, V-B:SER:385:CB:8381, V-B:ILE:538:C:9830, H-A:TYR:539:O:4868, V-B:HIS:383:CD2:8364, V-B:PRO:482:CB:9298, V-B:PRO:482:CG:9299, V-B:ALA:541:CA:9862, H-A:ASP:366:O:3209"]

$$$$
RR8_A_Rahimova_2017
     RDKit          3D

 73 77  0  0  0  0  0  0  0  0999 V2000
  132.7450  126.3690   55.5600 O   0  0  0  0  0  0  0  0  0  0  0  0
  131.9390  126.0380   56.4350 C   0  0  0  0  0  0  0  0  0  0  0  0
  130.5780  126.0930   56.2940 O   0  0  0  0  0  0  0  0  0  0  0  0
  129.9710  127.3540   56.3520 C   0  0  1  0  0  0  0  0  0  0  0  0
  130.1520  128.0690   55.1640 O   0  0  0  0  0  0  0  0  0  0  0  0
  128.9920  128.8170   54.8130 C   0  0  2  0  0  0  0  0  0  0  0  0
  129.3910  130.2940   54.6500 C   0  0  0  0  0  0  0  0  0  0  0  0
  128.4570  131.1020   55.3510 O   0  0  0  0  0  0  0  0  0  0  0  0
  129.0550  132.0780   56.1950 C   0  0  0  0  0  0  0  0  0  0  0  0
  130.3590  131.5380   56.7640 C   0  0  0  0  0  0  0  0  0  0  0  0
  131.5800  132.0090   56.2750 C   0  0  0  0  0  0  0  0  0  0  0  0
  132.7750  131.5200   56.7990 C   0  0  0  0  0  0  0  0  0  0  0  0
  132.7450  130.5650   57.8130 C   0  0  0  0  0  0  0  0  0  0  0  0
  131.5320  130.0950   58.3100 C   0  0  0  0  0  0  0  0  0  0  0  0
  130.3370  130.5840   57.7870 C   0  0  0  0  0  0  0  0  0  0  0  0
  128.0080  128.5220   55.9540 C   0  0  1  0  0  0  0  0  0  0  0  0
  126.6610  128.3750   55.5090 O   0  0  0  0  0  0  0  0  0  0  0  0
  125.8940  129.5720   55.4620 C   0  0  0  0  0  0  0  0  0  0  0  0
  125.2990  129.8620   56.8330 C   0  0  0  0  0  0  0  0  0  0  0  0
  125.8280  129.2340   57.9650 C   0  0  0  0  0  0  0  0  0  0  0  0
  125.2830  129.4870   59.2210 C   0  0  0  0  0  0  0  0  0  0  0  0
  124.2070  130.3650   59.3430 C   0  0  0  0  0  0  0  0  0  0  0  0
  123.6690  130.9880   58.2200 C   0  0  0  0  0  0  0  0  0  0  0  0
  124.2130  130.7350   56.9630 C   0  0  0  0  0  0  0  0  0  0  0  0
  128.4640  127.1680   56.4660 C   0  0  2  0  0  0  0  0  0  0  0  0
  128.0120  126.9590   57.8020 O   0  0  0  0  0  0  0  0  0  0  0  0
  128.2440  125.6590   58.3350 C   0  0  0  0  0  0  0  0  0  0  0  0
  127.3870  124.6390   57.6010 C   0  0  0  0  0  0  0  0  0  0  0  0
  127.9310  123.8860   56.5550 C   0  0  0  0  0  0  0  0  0  0  0  0
  127.1460  122.9450   55.8930 C   0  0  0  0  0  0  0  0  0  0  0  0
  125.8210  122.7570   56.2800 C   0  0  0  0  0  0  0  0  0  0  0  0
  125.2730  123.4990   57.3240 C   0  0  0  0  0  0  0  0  0  0  0  0
  126.0580  124.4400   57.9870 C   0  0  0  0  0  0  0  0  0  0  0  0
  132.3600  125.5150   57.7780 C   0  0  0  0  0  0  0  0  0  0  0  0
  131.7520  125.9480   58.9670 C   0  0  0  0  0  0  0  0  0  0  0  0
  132.1670  125.4460   60.1970 C   0  0  0  0  0  0  0  0  0  0  0  0
  133.1980  124.5010   60.2720 C   0  0  0  0  0  0  0  0  0  0  0  0
  133.6380  123.9650   61.5840 N   0  0  0  0  0  0  0  0  0  0  0  0
  133.9090  124.7570   62.4820 O   0  0  0  0  0  0  0  0  0  0  0  0
  133.7140  122.7480   61.7260 O   0  0  0  0  0  0  0  0  0  0  0  0
  133.8060  124.0720   59.0860 C   0  0  0  0  0  0  0  0  0  0  0  0
  133.3930  124.5730   57.8550 C   0  0  0  0  0  0  0  0  0  0  0  0
  130.4168  127.8877   57.2043 H   0  0  0  0  0  0  0  0  0  0  0  0
  128.5221  128.5537   53.8539 H   0  0  0  0  0  0  0  0  0  0  0  0
  130.3986  130.4521   55.0620 H   0  0  0  0  0  0  0  0  0  0  0  0
  129.3921  130.5646   53.5838 H   0  0  0  0  0  0  0  0  0  0  0  0
  129.2600  132.9883   55.6125 H   0  0  0  0  0  0  0  0  0  0  0  0
  128.3681  132.3136   57.0213 H   0  0  0  0  0  0  0  0  0  0  0  0
  131.5980  132.7655   55.4767 H   0  0  0  0  0  0  0  0  0  0  0  0
  133.7379  131.8864   56.4137 H   0  0  0  0  0  0  0  0  0  0  0  0
  133.6888  130.1784   58.2251 H   0  0  0  0  0  0  0  0  0  0  0  0
  131.5175  129.3416   59.1113 H   0  0  0  0  0  0  0  0  0  0  0  0
  129.3757  130.2199   58.1786 H   0  0  0  0  0  0  0  0  0  0  0  0
  128.0112  129.3421   56.6871 H   0  0  0  0  0  0  0  0  0  0  0  0
  126.5420  130.4085   55.1616 H   0  0  0  0  0  0  0  0  0  0  0  0
  125.0795  129.4511   54.7326 H   0  0  0  0  0  0  0  0  0  0  0  0
  126.6751  128.5398   57.8631 H   0  0  0  0  0  0  0  0  0  0  0  0
  125.6996  128.9963   60.1130 H   0  0  0  0  0  0  0  0  0  0  0  0
  123.7790  130.5675   60.3359 H   0  0  0  0  0  0  0  0  0  0  0  0
  122.8180  131.6770   58.3251 H   0  0  0  0  0  0  0  0  0  0  0  0
  123.7889  131.2215   56.0722 H   0  0  0  0  0  0  0  0  0  0  0  0
  128.0850  126.2844   55.9316 H   0  0  0  0  0  0  0  0  0  0  0  0
  129.3058  125.3988   58.2131 H   0  0  0  0  0  0  0  0  0  0  0  0
  127.9803  125.6527   59.4029 H   0  0  0  0  0  0  0  0  0  0  0  0
  128.9786  124.0371   56.2554 H   0  0  0  0  0  0  0  0  0  0  0  0
  127.5702  122.3531   55.0686 H   0  0  0  0  0  0  0  0  0  0  0  0
  125.2010  122.0149   55.7557 H   0  0  0  0  0  0  0  0  0  0  0  0
  124.2261  123.3428   57.6233 H   0  0  0  0  0  0  0  0  0  0  0  0
  125.6320  125.0265   58.8144 H   0  0  0  0  0  0  0  0  0  0  0  0
  130.9410  126.6901   58.9262 H   0  0  0  0  0  0  0  0  0  0  0  0
  131.6803  125.7950   61.1197 H   0  0  0  0  0  0  0  0  0  0  0  0
  134.6183  123.3315   59.1276 H   0  0  0  0  0  0  0  0  0  0  0  0
  133.8829  124.2255   56.9335 H   0  0  0  0  0  0  0  0  0  0  0  0
  1  2  2  0
  2  3  1  0
  3  4  1  0
  4  5  1  0
  5  6  1  0
  6  7  1  0
  7  8  1  0
  8  9  1  0
  9 10  1  0
 10 11  2  0
 11 12  1  0
 12 13  2  0
 13 14  1  0
 14 15  2  0
  6 16  1  0
 16 17  1  0
 17 18  1  0
 18 19  1  0
 19 20  2  0
 20 21  1  0
 21 22  2  0
 22 23  1  0
 23 24  2  0
 16 25  1  0
 25 26  1  0
 26 27  1  0
 27 28  1  0
 28 29  2  0
 29 30  1  0
 30 31  2  0
 31 32  1  0
 32 33  2  0
  2 34  1  0
 34 35  2  0
 35 36  1  0
 36 37  2  0
 37 38  1  0
 38 39  2  0
 38 40  1  0
 37 41  1  0
 41 42  2  0
 25  4  1  0
 33 28  1  0
 42 34  1  0
 15 10  1  0
 24 19  1  0
  4 43  1  1
  6 44  1  6
  7 45  1  0
  7 46  1  0
  9 47  1  0
  9 48  1  0
 11 49  1  0
 12 50  1  0
 13 51  1  0
 14 52  1  0
 15 53  1  0
 16 54  1  1
 18 55  1  0
 18 56  1  0
 20 57  1  0
 21 58  1  0
 22 59  1  0
 23 60  1  0
 24 61  1  0
 25 62  1  6
 27 63  1  0
 27 64  1  0
 29 65  1  0
 30 66  1  0
 31 67  1  0
 32 68  1  0
 33 69  1  0
 35 70  1  0
 36 71  1  0
 41 72  1  0
 42 73  1  0
M  CHG  2  38   1  40  -1
M  END
>  <Binding energies>  (1) 
[-10.87]

>  <Ligand effiencies>  (1) 
[-0.25880952380952377]

>  <Interactions>  (1) 
["V-A:ASP:366:CA:3210, V-A:TYR:539:CZ:4877, V-A:ILE:369:CB:3236, V-A:ASP:366:CG:3213, V-B:MET:535:CE:9807, V-B:ILE:369:CG2:8209, V-A:PRO:540:CA:4883, V-B:TYR:539:CE2:9848, V-A:ASP:366:CB:3212, V-B:TYR:539:CZ:9849, V-A:ASP:366:C:3208, H-A:TYR:531:OH:4795, V-A:TYR:539:CE1:4875, V-A:ILE:369:CG2:3237, H-B:TYR:531:OH:9767, V-B:TYR:539:CD1:9845, V-B:TYR:539:CE1:9847, H-B:TYR:539:OH:9850, V-B:ASP:366:CG:8185, V-B:PRO:540:CB:9857, V-B:ASP:366:CB:8184, V-B:ASP:366:CA:8182, V-A:ILE:369:CD1:3239, V-B:TYR:531:CZ:9766, V-A:PRO:540:CB:4885, V-A:LEU:363:CD1:3189, V-A:PRO:540:N:4884, V-B:PRO:540:CD:9859, V-B:ASP:366:C:8180, V-B:ILE:369:CB:8208, H-A:GLY:454:N:4050, V-B:TYR:531:CE1:9764, H-A:ARG:545:NH2:4928, V-A:MET:535:CE:4835"]

$$$$
RR8_B_Rahimova_2017
     RDKit          3D

 73 77  0  0  0  0  0  0  0  0999 V2000
  133.5570  124.3930   57.7510 O   0  0  0  0  0  0  0  0  0  0  0  0
  132.6060  124.7370   58.4590 C   0  0  0  0  0  0  0  0  0  0  0  0
  131.3700  125.0770   57.9820 O   0  0  0  0  0  0  0  0  0  0  0  0
  131.3000  125.9320   56.8680 C   0  0  2  0  0  0  0  0  0  0  0  0
  131.4130  127.2780   57.2350 O   0  0  0  0  0  0  0  0  0  0  0  0
  130.1330  127.8620   57.4750 C   0  0  2  0  0  0  0  0  0  0  0  0
  130.0810  128.4110   58.9120 C   0  0  0  0  0  0  0  0  0  0  0  0
  130.0680  129.8330   58.8690 O   0  0  0  0  0  0  0  0  0  0  0  0
  131.2980  130.4310   58.4900 C   0  0  0  0  0  0  0  0  0  0  0  0
  131.0980  131.2150   57.2010 C   0  0  0  0  0  0  0  0  0  0  0  0
  129.8050  131.5400   56.7810 C   0  0  0  0  0  0  0  0  0  0  0  0
  129.6130  132.2360   55.5900 C   0  0  0  0  0  0  0  0  0  0  0  0
  130.7170  132.6070   54.8240 C   0  0  0  0  0  0  0  0  0  0  0  0
  132.0080  132.2920   55.2400 C   0  0  0  0  0  0  0  0  0  0  0  0
  132.2000  131.5930   56.4290 C   0  0  0  0  0  0  0  0  0  0  0  0
  129.1380  126.7390   57.1620 C   0  0  1  0  0  0  0  0  0  0  0  0
  127.9580  127.2870   56.5660 O   0  0  0  0  0  0  0  0  0  0  0  0
  127.9050  128.7080   56.4170 C   0  0  0  0  0  0  0  0  0  0  0  0
  126.5500  129.2810   56.8200 C   0  0  0  0  0  0  0  0  0  0  0  0
  126.1920  129.3510   58.1690 C   0  0  0  0  0  0  0  0  0  0  0  0
  124.9680  129.9040   58.5360 C   0  0  0  0  0  0  0  0  0  0  0  0
  124.1040  130.3810   57.5510 C   0  0  0  0  0  0  0  0  0  0  0  0
  124.4530  130.3100   56.2040 C   0  0  0  0  0  0  0  0  0  0  0  0
  125.6790  129.7600   55.8380 C   0  0  0  0  0  0  0  0  0  0  0  0
  129.9180  125.8210   56.2260 C   0  0  2  0  0  0  0  0  0  0  0  0
  129.3740  124.5040   56.2550 O   0  0  0  0  0  0  0  0  0  0  0  0
  128.6410  124.1680   57.4230 C   0  0  0  0  0  0  0  0  0  0  0  0
  127.2950  123.6080   56.9940 C   0  0  0  0  0  0  0  0  0  0  0  0
  127.1490  123.0020   55.7440 C   0  0  0  0  0  0  0  0  0  0  0  0
  125.9060  122.5090   55.3540 C   0  0  0  0  0  0  0  0  0  0  0  0
  124.8160  122.6240   56.2140 C   0  0  0  0  0  0  0  0  0  0  0  0
  124.9560  123.2260   57.4630 C   0  0  0  0  0  0  0  0  0  0  0  0
  126.1980  123.7180   57.8530 C   0  0  0  0  0  0  0  0  0  0  0  0
  132.6980  124.8650   59.9530 C   0  0  0  0  0  0  0  0  0  0  0  0
  131.7630  125.6050   60.6910 C   0  0  0  0  0  0  0  0  0  0  0  0
  131.8780  125.7130   62.0720 C   0  0  0  0  0  0  0  0  0  0  0  0
  132.9350  125.0940   62.7500 C   0  0  0  0  0  0  0  0  0  0  0  0
  133.0720  125.2320   64.2210 N   0  0  0  0  0  0  0  0  0  0  0  0
  134.1800  125.0780   64.7270 O   0  0  0  0  0  0  0  0  0  0  0  0
  132.0710  125.5010   64.8820 O   0  0  0  0  0  0  0  0  0  0  0  0
  133.8660  124.3490   62.0130 C   0  0  0  0  0  0  0  0  0  0  0  0
  133.7470  124.2350   60.6320 C   0  0  0  0  0  0  0  0  0  0  0  0
  132.1191  125.6347   56.1967 H   0  0  0  0  0  0  0  0  0  0  0  0
  129.8950  128.7357   56.8505 H   0  0  0  0  0  0  0  0  0  0  0  0
  129.1699  128.0496   59.4112 H   0  0  0  0  0  0  0  0  0  0  0  0
  130.9629  128.0661   59.4717 H   0  0  0  0  0  0  0  0  0  0  0  0
  131.6367  131.1112   59.2854 H   0  0  0  0  0  0  0  0  0  0  0  0
  132.0557  129.6492   58.3329 H   0  0  0  0  0  0  0  0  0  0  0  0
  128.9386  131.2459   57.3915 H   0  0  0  0  0  0  0  0  0  0  0  0
  128.5966  132.4913   55.2559 H   0  0  0  0  0  0  0  0  0  0  0  0
  130.5668  133.1540   53.8816 H   0  0  0  0  0  0  0  0  0  0  0  0
  132.8731  132.5942   54.6316 H   0  0  0  0  0  0  0  0  0  0  0  0
  133.2177  131.3387   56.7602 H   0  0  0  0  0  0  0  0  0  0  0  0
  128.7789  126.1897   58.0448 H   0  0  0  0  0  0  0  0  0  0  0  0
  128.6828  129.1596   57.0503 H   0  0  0  0  0  0  0  0  0  0  0  0
  128.0672  128.9417   55.3544 H   0  0  0  0  0  0  0  0  0  0  0  0
  126.8769  128.9694   58.9406 H   0  0  0  0  0  0  0  0  0  0  0  0
  124.6842  129.9642   59.5971 H   0  0  0  0  0  0  0  0  0  0  0  0
  123.1368  130.8179   57.8404 H   0  0  0  0  0  0  0  0  0  0  0  0
  123.7638  130.6864   55.4337 H   0  0  0  0  0  0  0  0  0  0  0  0
  125.9615  129.7027   54.7764 H   0  0  0  0  0  0  0  0  0  0  0  0
  129.9063  126.0745   55.1557 H   0  0  0  0  0  0  0  0  0  0  0  0
  129.1909  123.4124   58.0032 H   0  0  0  0  0  0  0  0  0  0  0  0
  128.4988  125.0592   58.0519 H   0  0  0  0  0  0  0  0  0  0  0  0
  128.0134  122.9143   55.0694 H   0  0  0  0  0  0  0  0  0  0  0  0
  125.7855  122.0307   54.3708 H   0  0  0  0  0  0  0  0  0  0  0  0
  123.8347  122.2356   55.9039 H   0  0  0  0  0  0  0  0  0  0  0  0
  124.0904  123.3117   58.1363 H   0  0  0  0  0  0  0  0  0  0  0  0
  126.3164  124.1937   58.8378 H   0  0  0  0  0  0  0  0  0  0  0  0
  130.9313  126.1044   60.1725 H   0  0  0  0  0  0  0  0  0  0  0  0
  131.1316  126.2902   62.6374 H   0  0  0  0  0  0  0  0  0  0  0  0
  134.6980  123.8501   62.5315 H   0  0  0  0  0  0  0  0  0  0  0  0
  134.4841  123.6443   60.0684 H   0  0  0  0  0  0  0  0  0  0  0  0
  1  2  2  0
  2  3  1  0
  3  4  1  0
  4  5  1  0
  5  6  1  0
  6  7  1  0
  7  8  1  0
  8  9  1  0
  9 10  1  0
 10 11  2  0
 11 12  1  0
 12 13  2  0
 13 14  1  0
 14 15  2  0
  6 16  1  0
 16 17  1  0
 17 18  1  0
 18 19  1  0
 19 20  2  0
 20 21  1  0
 21 22  2  0
 22 23  1  0
 23 24  2  0
 16 25  1  0
 25 26  1  0
 26 27  1  0
 27 28  1  0
 28 29  2  0
 29 30  1  0
 30 31  2  0
 31 32  1  0
 32 33  2  0
  2 34  1  0
 34 35  2  0
 35 36  1  0
 36 37  2  0
 37 38  1  0
 38 39  2  0
 38 40  1  0
 37 41  1  0
 41 42  2  0
 25  4  1  0
 33 28  1  0
 42 34  1  0
 15 10  1  0
 24 19  1  0
  4 43  1  6
  6 44  1  6
  7 45  1  0
  7 46  1  0
  9 47  1  0
  9 48  1  0
 11 49  1  0
 12 50  1  0
 13 51  1  0
 14 52  1  0
 15 53  1  0
 16 54  1  1
 18 55  1  0
 18 56  1  0
 20 57  1  0
 21 58  1  0
 22 59  1  0
 23 60  1  0
 24 61  1  0
 25 62  1  6
 27 63  1  0
 27 64  1  0
 29 65  1  0
 30 66  1  0
 31 67  1  0
 32 68  1  0
 33 69  1  0
 35 70  1  0
 36 71  1  0
 41 72  1  0
 42 73  1  0
M  CHG  2  38   1  40  -1
M  END
>  <Binding energies>  (1) 
[-10.31]

>  <Ligand effiencies>  (1) 
[-0.2454761904761905]

>  <Interactions>  (1) 
["V-A:TYR:539:CZ:4877, V-A:ASP:366:CG:3213, V-B:MET:535:CE:9807, V-B:TYR:539:CE2:9848, V-A:ASP:366:CB:3212, V-B:TYR:539:CZ:9849, H-A:TYR:531:OH:4795, V-A:TYR:539:CE1:4875, V-A:ARG:545:CZ:4926, H-B:TYR:531:OH:9767, V-B:TYR:539:CD1:9845, V-A:TYR:484:CZ:4347, V-B:TYR:539:CE1:9847, H-B:TYR:539:OH:9850, V-B:ASP:366:CG:8185, V-B:PRO:540:CB:9857, V-B:PRO:540:CA:9855, V-B:ASP:366:CB:8184, V-B:ASP:366:CA:8182, V-B:PRO:540:N:9856, V-A:ILE:369:CD1:3239, V-B:LEU:363:CD1:8161, V-B:TYR:531:CE2:9765, V-B:ILE:538:CA:9832, V-B:ILE:538:CD1:9837, V-A:TYR:531:CE2:4793, V-A:PRO:540:CB:4885, V-A:LEU:363:CD1:3189, V-A:ILE:538:CA:4860, V-A:ILE:538:CB:4862, V-A:ILE:538:CG2:4863, V-B:PRO:540:CD:9859, V-B:ASP:366:C:8180, H-A:GLY:454:N:4050, V-B:ILE:538:CG2:9835, H-A:TYR:484:OH:4348, V-B:ILE:538:C:9830, V-B:TYR:531:CE1:9764, H-A:ARG:545:NH2:4928, V-B:ILE:538:CB:9834, H-A:ARG:545:NE:4924, H-A:ARG:545:NH1:4927, V-A:GLY:453:C:4042, V-A:GLY:453:CA:4044"]

$$$$
RR9_Rahimova_2017
     RDKit          3D

 64 68  0  0  0  0  0  0  0  0999 V2000
  124.5840  133.7150   61.0020 C   0  0  0  0  0  0  0  0  0  0  0  0
  123.6840  133.0930   62.0740 C   0  0  0  0  0  0  0  0  0  0  0  0
  124.5060  132.5710   63.1150 O   0  0  0  0  0  0  0  0  0  0  0  0
  125.1560  131.3670   62.9260 C   0  0  0  0  0  0  0  0  0  0  0  0
  126.5400  131.3730   63.0890 C   0  0  0  0  0  0  0  0  0  0  0  0
  127.2790  130.2070   62.9170 C   0  0  0  0  0  0  0  0  0  0  0  0
  126.6530  128.9990   62.5760 C   0  0  0  0  0  0  0  0  0  0  0  0
  127.4460  127.7400   62.3850 C   0  0  0  0  0  0  0  0  0  0  0  0
  126.9150  126.6320   61.7050 C   0  0  0  0  0  0  0  0  0  0  0  0
  127.6670  125.4580   61.5170 C   0  0  0  0  0  0  0  0  0  0  0  0
  127.0790  124.3450   60.6930 C   0  0  0  0  0  0  0  0  0  0  0  0
  127.8040  123.4620   60.2340 O   0  0  0  0  0  0  0  0  0  0  0  0
  125.7490  124.4080   60.4870 N   0  0  0  0  0  0  0  0  0  0  0  0
  124.9710  123.5210   59.6160 C   0  0  0  0  0  0  0  0  0  0  0  0
  124.7200  124.1180   58.2120 C   0  0  0  0  0  0  0  0  0  0  0  0
  125.6640  123.6120   57.1260 C   0  0  0  0  0  0  0  0  0  0  0  0
  127.0480  123.7170   57.2950 C   0  0  0  0  0  0  0  0  0  0  0  0
  127.9080  123.2230   56.3170 C   0  0  0  0  0  0  0  0  0  0  0  0
  127.3810  122.6300   55.1720 C   0  0  0  0  0  0  0  0  0  0  0  0
  126.0020  122.5260   54.9950 C   0  0  0  0  0  0  0  0  0  0  0  0
  125.1420  123.0190   55.9730 C   0  0  0  0  0  0  0  0  0  0  0  0
  128.9670  125.4490   62.0800 C   0  0  0  0  0  0  0  0  0  0  0  0
  130.0870  124.5480   62.2130 C   0  0  0  0  0  0  0  0  0  0  0  0
  130.2100  123.1190   61.7980 C   0  0  0  0  0  0  0  0  0  0  0  0
  131.2580  122.7150   60.9660 C   0  0  0  0  0  0  0  0  0  0  0  0
  131.3610  121.3850   60.5680 C   0  0  0  0  0  0  0  0  0  0  0  0
  130.4180  120.4530   61.0040 C   0  0  0  0  0  0  0  0  0  0  0  0
  130.5200  119.0060   60.5540 C   0  0  0  0  0  0  0  0  0  0  0  0
  129.3690  120.8520   61.8330 C   0  0  0  0  0  0  0  0  0  0  0  0
  129.2690  122.1820   62.2320 C   0  0  0  0  0  0  0  0  0  0  0  0
  131.0910  125.1460   62.8150 N   0  0  0  0  0  0  0  0  0  0  0  0
  130.6940  126.3840   63.1500 N   0  0  0  0  0  0  0  0  0  0  0  0
  129.4040  126.6240   62.7390 C   0  0  0  0  0  0  0  0  0  0  0  0
  128.7020  127.7430   62.9120 N   0  0  0  0  0  0  0  0  0  0  0  0
  125.2610  129.0010   62.4120 C   0  0  0  0  0  0  0  0  0  0  0  0
  124.5180  130.1670   62.5850 C   0  0  0  0  0  0  0  0  0  0  0  0
  125.3966  134.2766   61.4861 H   0  0  0  0  0  0  0  0  0  0  0  0
  125.0115  132.9187   60.3750 H   0  0  0  0  0  0  0  0  0  0  0  0
  123.9903  134.3964   60.3750 H   0  0  0  0  0  0  0  0  0  0  0  0
  123.0113  133.8610   62.4836 H   0  0  0  0  0  0  0  0  0  0  0  0
  123.0797  132.2862   61.6337 H   0  0  0  0  0  0  0  0  0  0  0  0
  127.0530  132.3086   63.3562 H   0  0  0  0  0  0  0  0  0  0  0  0
  128.3706  130.2328   63.0504 H   0  0  0  0  0  0  0  0  0  0  0  0
  125.8893  126.6831   61.3110 H   0  0  0  0  0  0  0  0  0  0  0  0
  125.2250  125.1210   60.9740 H   0  0  0  0  0  0  0  0  0  0  0  0
  125.5190  122.5742   59.5011 H   0  0  0  0  0  0  0  0  0  0  0  0
  123.9895  123.3735   60.0902 H   0  0  0  0  0  0  0  0  0  0  0  0
  123.6905  123.8707   57.9136 H   0  0  0  0  0  0  0  0  0  0  0  0
  124.8975  125.2001   58.2984 H   0  0  0  0  0  0  0  0  0  0  0  0
  127.4575  124.1896   58.2000 H   0  0  0  0  0  0  0  0  0  0  0  0
  128.9974  123.3007   56.4481 H   0  0  0  0  0  0  0  0  0  0  0  0
  128.0599  122.2397   54.3995 H   0  0  0  0  0  0  0  0  0  0  0  0
  125.5952  122.0567   54.0871 H   0  0  0  0  0  0  0  0  0  0  0  0
  124.0530  122.9418   55.8383 H   0  0  0  0  0  0  0  0  0  0  0  0
  132.0027  123.4493   60.6251 H   0  0  0  0  0  0  0  0  0  0  0  0
  132.1845  121.0690   59.9107 H   0  0  0  0  0  0  0  0  0  0  0  0
  130.5662  118.3501   61.4359 H   0  0  0  0  0  0  0  0  0  0  0  0
  129.6379  118.7468   59.9501 H   0  0  0  0  0  0  0  0  0  0  0  0
  131.4297  118.8731   59.9501 H   0  0  0  0  0  0  0  0  0  0  0  0
  128.6229  120.1175   62.1704 H   0  0  0  0  0  0  0  0  0  0  0  0
  128.4463  122.4962   62.8912 H   0  0  0  0  0  0  0  0  0  0  0  0
  131.3180  127.0100   63.6380 H   0  0  0  0  0  0  0  0  0  0  0  0
  124.7467  128.0668   62.1423 H   0  0  0  0  0  0  0  0  0  0  0  0
  123.4261  130.1453   62.4533 H   0  0  0  0  0  0  0  0  0  0  0  0
  1  2  1  0
  2  3  1  0
  3  4  1  0
  4  5  2  0
  5  6  1  0
  6  7  2  0
  7  8  1  0
  8  9  2  0
  9 10  1  0
 10 11  1  0
 11 12  2  0
 11 13  1  0
 13 14  1  0
 14 15  1  0
 15 16  1  0
 16 17  2  0
 17 18  1  0
 18 19  2  0
 19 20  1  0
 20 21  2  0
 10 22  2  0
 22 23  1  0
 23 24  1  0
 24 25  2  0
 25 26  1  0
 26 27  2  0
 27 28  1  0
 27 29  1  0
 29 30  2  0
 23 31  2  0
 31 32  1  0
 32 33  1  0
 33 34  2  0
  7 35  1  0
 35 36  2  0
 36  4  1  0
 34  8  1  0
 21 16  1  0
 33 22  1  0
 30 24  1  0
  1 37  1  0
  1 38  1  0
  1 39  1  0
  2 40  1  0
  2 41  1  0
  5 42  1  0
  6 43  1  0
  9 44  1  0
 13 45  1  0
 14 46  1  0
 14 47  1  0
 15 48  1  0
 15 49  1  0
 17 50  1  0
 18 51  1  0
 19 52  1  0
 20 53  1  0
 21 54  1  0
 25 55  1  0
 26 56  1  0
 28 57  1  0
 28 58  1  0
 28 59  1  0
 29 60  1  0
 30 61  1  0
 32 62  1  0
 35 63  1  0
 36 64  1  0
M  END
>  <Binding energies>  (1) 
[-9.61]

>  <Ligand effiencies>  (1) 
[-0.2528947368421052]

>  <Interactions>  (1) 
["V-B:MET:535:CE:9807, V-B:ILE:369:CG2:8209, V-B:LEU:475:CD2:9231, V-B:TYR:539:CE2:9848, V-A:GLU:543:CD:4908, V-B:TYR:539:CZ:9849, V-B:ILE:369:CD1:8211, H-B:GLY:454:N:9022, H-B:TYR:484:OH:9320, V-B:ARG:545:CZ:9898, V-B:TYR:539:CD2:9846, V-A:LEU:475:CD2:4259, V-B:TYR:539:CD1:9845, V-B:TYR:539:CG:9844, H-B:ASP:366:OD2:8187, V-B:TYR:539:CE1:9847, V-B:TYR:539:C:9839, V-A:TYR:484:CE1:4345, V-B:ASP:366:CG:8185, V-B:PRO:540:CB:9857, V-B:PRO:540:CA:9855, V-B:LEU:363:CD1:8161, V-B:TYR:531:CZ:9766, V-B:TYR:531:CE2:9765, V-B:GLU:543:CD:9880, H-B:GLU:543:OE1:9881, V-B:ILE:538:CA:9832, V-B:ILE:538:CD1:9837, H-A:GLU:543:OE1:4909, H-A:GLU:543:OE2:4910, H-B:ASP:366:OD1:8186, V-B:ALA:541:CB:9864, V-B:ILE:538:CG2:9835, V-B:GLY:454:CA:9021, H-A:TYR:484:OH:4348, V-B:ILE:538:C:9830, V-B:ILE:538:CB:9834, V-B:ILE:538:CG1:9836"]

$$$$
