1a_Grossjean_2025
     RDKit          3D

 26 27  0  0  0  0  0  0  0  0999 V2000
  124.8930  122.5470   56.0880 C   0  0  0  0  0  0  0  0  0  0  0  0
  126.3950  122.6730   55.8170 C   0  0  0  0  0  0  0  0  0  0  0  0
  127.1210  122.0720   56.8810 O   0  0  0  0  0  0  0  0  0  0  0  0
  127.6450  122.8230   57.8850 C   0  0  0  0  0  0  0  0  0  0  0  0
  127.9940  122.3540   58.9730 O   0  0  0  0  0  0  0  0  0  0  0  0
  127.7400  124.2820   57.5470 C   0  0  0  0  0  0  0  0  0  0  0  0
  126.7030  125.1430   57.9310 C   0  0  0  0  0  0  0  0  0  0  0  0
  126.7600  126.5000   57.6280 C   0  0  0  0  0  0  0  0  0  0  0  0
  127.8510  127.0250   56.9340 C   0  0  0  0  0  0  0  0  0  0  0  0
  127.8030  128.4100   56.6790 N   0  0  0  0  0  0  0  0  0  0  0  0
  127.1390  129.0940   55.7230 C   0  0  0  0  0  0  0  0  0  0  0  0
  126.4160  128.5960   54.8590 O   0  0  0  0  0  0  0  0  0  0  0  0
  127.3280  130.6120   55.7530 C   0  0  0  0  0  0  0  0  0  0  0  0
  127.6520  131.2300   57.4310 S   0  0  0  0  0  0  0  0  0  0  0  0
  129.3370  130.8260   57.8330 C   0  0  0  0  0  0  0  0  0  0  0  0
  129.4590  129.9260   58.8410 N   0  0  0  0  0  0  0  0  0  0  0  0
  130.7000  129.5510   59.2320 C   0  0  0  0  0  0  0  0  0  0  0  0
  130.7590  128.5530   60.3730 C   0  0  0  0  0  0  0  0  0  0  0  0
  131.8580  130.0440   58.6340 C   0  0  0  0  0  0  0  0  0  0  0  0
  131.7430  130.9560   57.5790 C   0  0  0  0  0  0  0  0  0  0  0  0
  133.0250  131.4700   56.9280 C   0  0  0  0  0  0  0  0  0  0  0  0
  130.4570  131.3600   57.1510 C   0  0  0  0  0  0  0  0  0  0  0  0
  130.3110  132.2760   56.0170 C   0  0  0  0  0  0  0  0  0  0  0  0
  130.1980  133.0000   55.1210 N   0  0  0  0  0  0  0  0  0  0  0  0
  128.8980  126.1730   56.5520 C   0  0  0  0  0  0  0  0  0  0  0  0
  128.8390  124.8150   56.8560 C   0  0  0  0  0  0  0  0  0  0  0  0
  1  2  1  0
  2  3  1  0
  3  4  1  0
  4  5  2  0
  4  6  1  0
  6  7  2  0
  7  8  1  0
  8  9  2  0
  9 10  1  0
 10 11  1  0
 11 12  2  0
 11 13  1  0
 13 14  1  0
 14 15  1  0
 15 16  2  0
 16 17  1  0
 17 18  1  0
 17 19  2  0
 19 20  1  0
 20 21  1  0
 20 22  2  0
 22 23  1  0
 23 24  3  0
  9 25  1  0
 25 26  2  0
 26  6  1  0
 22 15  1  0
M  END
>  <Binding energies>  (1) 
[-7.54]

>  <Ligand effiencies>  (1) 
[-0.27925925925925926]

>  <Interactions>  (1) 
["V-A:TYR:539:CZ:4877, V-A:ASP:366:CG:3213, V-B:MET:535:CE:9807, V-B:TYR:539:CE2:9848, H-B:LYS:534:NZ:9795, V-B:TYR:539:CZ:9849, V-B:TYR:539:CD2:9846, H-B:TYR:531:OH:9767, V-B:TYR:539:C:9839, H-B:TYR:539:N:9842, V-B:PRO:540:CA:9855, V-B:PRO:540:N:9856, V-A:TYR:539:C:4867, V-B:LEU:363:CD1:8161, V-B:TYR:531:CE2:9765, V-B:ILE:538:CA:9832, V-B:ILE:538:CD1:9837, V-A:PRO:540:CB:4885, V-A:LEU:363:CD1:3189, H-A:TYR:539:N:4870, V-A:PRO:540:N:4884, V-B:PRO:540:CD:9859, V-B:ILE:538:CG2:9835"]

$$$$
1aa_Ghoteimi_2023
     RDKit          3D

 40 43  0  0  0  0  0  0  0  0999 V2000
  123.3040  136.7330   56.7290 C   0  0  0  0  0  0  0  0  0  0  0  0
  124.2380  137.4250   57.7260 C   0  0  0  0  0  0  0  0  0  0  0  0
  124.3440  136.6330   58.9030 O   0  0  0  0  0  0  0  0  0  0  0  0
  125.4110  136.7520   59.7340 C   0  0  0  0  0  0  0  0  0  0  0  0
  125.9270  137.8350   60.0280 O   0  0  0  0  0  0  0  0  0  0  0  0
  125.9020  135.4350   60.2630 C   0  0  0  0  0  0  0  0  0  0  0  0
  127.1900  135.2840   60.7980 C   0  0  0  0  0  0  0  0  0  0  0  0
  127.6190  134.0500   61.2820 C   0  0  0  0  0  0  0  0  0  0  0  0
  126.7610  132.9410   61.2390 C   0  0  0  0  0  0  0  0  0  0  0  0
  127.0840  131.6500   61.6960 N   0  0  0  0  0  0  0  0  0  0  0  0
  127.5410  131.2350   62.9000 C   0  0  0  0  0  0  0  0  0  0  0  0
  127.7580  131.9710   63.8620 O   0  0  0  0  0  0  0  0  0  0  0  0
  127.8040  129.7300   63.0720 C   0  0  0  0  0  0  0  0  0  0  0  0
  127.3150  129.0020   61.9380 O   0  0  0  0  0  0  0  0  0  0  0  0
  127.9250  127.8180   61.5480 C   0  0  0  0  0  0  0  0  0  0  0  0
  129.0120  127.3950   62.2520 N   0  0  0  0  0  0  0  0  0  0  0  0
  129.6440  126.2480   61.8920 C   0  0  0  0  0  0  0  0  0  0  0  0
  130.8330  125.8490   62.7190 C   0  0  0  0  0  0  0  0  0  0  0  0
  130.7780  125.8750   64.1210 C   0  0  0  0  0  0  0  0  0  0  0  0
  131.8790  125.5080   64.8900 C   0  0  0  0  0  0  0  0  0  0  0  0
  133.0660  125.1030   64.2840 C   0  0  0  0  0  0  0  0  0  0  0  0
  134.1060  124.7580   65.1260 O   0  0  0  0  0  0  0  0  0  0  0  0
  133.9370  124.9030   66.5320 C   0  0  0  0  0  0  0  0  0  0  0  0
  133.1340  125.0660   62.8850 C   0  0  0  0  0  0  0  0  0  0  0  0
  132.0320  125.4330   62.1180 C   0  0  0  0  0  0  0  0  0  0  0  0
  129.1780  125.4830   60.8160 C   0  0  0  0  0  0  0  0  0  0  0  0
  128.0560  125.8890   60.0820 C   0  0  0  0  0  0  0  0  0  0  0  0
  127.6020  125.0250   58.9530 C   0  0  0  0  0  0  0  0  0  0  0  0
  126.3460  124.4120   58.9970 C   0  0  0  0  0  0  0  0  0  0  0  0
  125.9120  123.6120   57.9430 C   0  0  0  0  0  0  0  0  0  0  0  0
  126.7190  123.4130   56.8240 C   0  0  0  0  0  0  0  0  0  0  0  0
  126.2070  122.6040   55.8280 O   0  0  0  0  0  0  0  0  0  0  0  0
  124.8580  122.1600   55.9200 C   0  0  0  0  0  0  0  0  0  0  0  0
  127.9770  124.0320   56.7730 C   0  0  0  0  0  0  0  0  0  0  0  0
  128.4100  124.8310   57.8270 C   0  0  0  0  0  0  0  0  0  0  0  0
  127.4180  127.0960   60.4550 C   0  0  0  0  0  0  0  0  0  0  0  0
  126.2660  127.6230   59.7210 C   0  0  0  0  0  0  0  0  0  0  0  0
  125.3550  128.0410   59.1420 N   0  0  0  0  0  0  0  0  0  0  0  0
  125.4800  133.0880   60.7050 C   0  0  0  0  0  0  0  0  0  0  0  0
  125.0540  134.3210   60.2220 C   0  0  0  0  0  0  0  0  0  0  0  0
  1  2  1  0
  2  3  1  0
  3  4  1  0
  4  5  2  0
  4  6  1  0
  6  7  2  0
  7  8  1  0
  8  9  2  0
  9 10  1  0
 10 11  1  0
 11 12  2  0
 11 13  1  0
 13 14  1  0
 14 15  1  0
 15 16  2  0
 16 17  1  0
 17 18  1  0
 18 19  2  0
 19 20  1  0
 20 21  2  0
 21 22  1  0
 22 23  1  0
 21 24  1  0
 24 25  2  0
 17 26  2  0
 26 27  1  0
 27 28  1  0
 28 29  2  0
 29 30  1  0
 30 31  2  0
 31 32  1  0
 32 33  1  0
 31 34  1  0
 34 35  2  0
 27 36  2  0
 36 37  1  0
 37 38  3  0
  9 39  1  0
 39 40  2  0
 40  6  1  0
 36 15  1  0
 25 18  1  0
 35 28  1  0
M  END
>  <Binding energies>  (2) 
[-8.05]

>  <Ligand effiencies>  (2) 
[-0.19634146341463415]

>  <Interactions>  (2) 
["V-A:TYR:539:CZ:4877, V-A:ALA:541:CB:4892, V-B:MET:535:CE:9807, V-B:ILE:369:CG2:8209, V-B:LEU:475:CD2:9231, V-A:GLU:543:CD:4908, V-B:TYR:539:CZ:9849, H-B:TYR:484:OH:9320, V-A:TYR:539:CE1:4875, V-A:ARG:545:CZ:4926, V-A:TYR:484:CZ:4347, V-B:ASP:366:CG:8185, H-B:TYR:539:N:9842, V-B:PRO:540:CB:9857, V-B:PRO:540:CA:9855, V-B:PRO:540:N:9856, V-A:TYR:539:CD1:4873, V-B:LEU:363:CD1:8161, V-B:TYR:531:CE2:9765, V-B:ILE:538:CA:9832, V-B:ILE:538:CD1:9837, V-A:TYR:539:CG:4872, V-B:PRO:540:CD:9859, H-A:GLY:454:N:4050, V-B:ILE:538:CG2:9835, H-A:TYR:484:OH:4348, V-B:SER:385:CB:8381, V-B:HIS:383:CD2:8364, V-A:TYR:539:CB:4871, V-B:ILE:538:CB:9834, V-A:TYR:484:CE2:4346, H-B:SER:385:OG:8382, H-B:HIS:383:NE2:8366, H-A:ARG:545:NE:4924, V-A:GLY:454:CA:4049, V-A:ARG:545:CD:4923, V-A:HIS:456:CE1:4070, V-A:ARG:545:CG:4922, H-A:ILE:455:N:4055, V-B:ASN:372:CB:8239, V-A:ILE:455:C:4052"]

$$$$
1b_Grossjean_2025
     RDKit          3D

 25 26  0  0  0  0  0  0  0  0999 V2000
  124.1670  123.8830   57.7700 C   0  0  0  0  0  0  0  0  0  0  0  0
  124.4540  122.6640   57.0980 O   0  0  0  0  0  0  0  0  0  0  0  0
  125.6040  122.5090   56.3940 C   0  0  0  0  0  0  0  0  0  0  0  0
  125.6430  122.0660   55.2420 O   0  0  0  0  0  0  0  0  0  0  0  0
  126.8270  122.9380   57.1530 C   0  0  0  0  0  0  0  0  0  0  0  0
  127.0680  122.5200   58.4700 C   0  0  0  0  0  0  0  0  0  0  0  0
  128.2110  122.9370   59.1460 C   0  0  0  0  0  0  0  0  0  0  0  0
  129.1350  123.7770   58.5240 C   0  0  0  0  0  0  0  0  0  0  0  0
  130.2520  124.1360   59.3020 N   0  0  0  0  0  0  0  0  0  0  0  0
  131.3790  124.7950   58.9550 C   0  0  0  0  0  0  0  0  0  0  0  0
  131.6390  125.2260   57.8330 O   0  0  0  0  0  0  0  0  0  0  0  0
  132.3860  125.0100   60.0860 C   0  0  0  0  0  0  0  0  0  0  0  0
  133.0930  123.4450   60.6830 S   0  0  0  0  0  0  0  0  0  0  0  0
  131.7340  122.3520   61.0430 C   0  0  0  0  0  0  0  0  0  0  0  0
  130.7410  122.9340   61.7600 N   0  0  0  0  0  0  0  0  0  0  0  0
  129.6570  122.1930   62.0890 C   0  0  0  0  0  0  0  0  0  0  0  0
  128.5800  122.9140   62.8790 C   0  0  0  0  0  0  0  0  0  0  0  0
  129.5250  120.8530   61.7300 C   0  0  0  0  0  0  0  0  0  0  0  0
  130.5540  120.2390   61.0100 C   0  0  0  0  0  0  0  0  0  0  0  0
  130.3940  118.7650   60.6420 C   0  0  0  0  0  0  0  0  0  0  0  0
  131.6960  120.9920   60.6550 C   0  0  0  0  0  0  0  0  0  0  0  0
  132.8050  120.3580   59.9390 C   0  0  0  0  0  0  0  0  0  0  0  0
  133.6800  119.8540   59.3730 N   0  0  0  0  0  0  0  0  0  0  0  0
  128.9010  124.2000   57.2070 C   0  0  0  0  0  0  0  0  0  0  0  0
  127.7580  123.7820   56.5320 C   0  0  0  0  0  0  0  0  0  0  0  0
  1  2  1  0
  2  3  1  0
  3  4  2  0
  3  5  1  0
  5  6  2  0
  6  7  1  0
  7  8  2  0
  8  9  1  0
  9 10  1  0
 10 11  2  0
 10 12  1  0
 12 13  1  0
 13 14  1  0
 14 15  2  0
 15 16  1  0
 16 17  1  0
 16 18  2  0
 18 19  1  0
 19 20  1  0
 19 21  2  0
 21 22  1  0
 22 23  3  0
  8 24  1  0
 24 25  2  0
 25  5  1  0
 21 14  1  0
M  END
>  <Binding energies>  (3) 
[-7.14]

>  <Ligand effiencies>  (3) 
[-0.2746153846153846]

>  <Interactions>  (3) 
["V-A:ASP:366:CG:3213, V-B:MET:535:CE:9807, V-B:TYR:539:CE2:9848, V-B:TYR:539:CZ:9849, V-A:ILE:369:CG2:3237, V-B:TYR:539:CD2:9846, V-A:LEU:475:CD2:4259, H-B:TYR:531:OH:9767, V-A:TYR:484:CZ:4347, V-B:TYR:539:CE1:9847, H-B:TYR:539:OH:9850, V-B:TYR:539:C:9839, V-A:TYR:484:CE1:4345, H-B:TYR:539:N:9842, V-B:PRO:540:CB:9857, V-B:PRO:540:CA:9855, V-B:PRO:540:N:9856, V-B:LEU:363:CD1:8161, V-B:TYR:531:CZ:9766, V-B:TYR:531:CE2:9765, V-B:GLU:543:CD:9880, V-B:GLU:543:CG:9879, V-B:PRO:540:CD:9859, V-B:ALA:541:CB:9864, H-A:TYR:484:OH:4348, V-B:LEU:363:CA:8157, V-A:SER:385:CB:3409"]

$$$$
1c_Grossjean_2025
     RDKit          3D

 23 24  0  0  0  0  0  0  0  0999 V2000
  132.2430  132.4860   55.4260 C   0  0  0  0  0  0  0  0  0  0  0  0
  130.9400  132.9800   55.1350 O   0  0  0  0  0  0  0  0  0  0  0  0
  129.8810  132.6020   55.9390 C   0  0  0  0  0  0  0  0  0  0  0  0
  128.7210  132.1880   55.2860 C   0  0  0  0  0  0  0  0  0  0  0  0
  127.6010  131.7870   56.0090 C   0  0  0  0  0  0  0  0  0  0  0  0
  127.6350  131.7900   57.4120 C   0  0  0  0  0  0  0  0  0  0  0  0
  126.5590  131.4150   58.2390 N   0  0  0  0  0  0  0  0  0  0  0  0
  125.3640  130.8820   57.9040 C   0  0  0  0  0  0  0  0  0  0  0  0
  125.0020  130.6030   56.7610 O   0  0  0  0  0  0  0  0  0  0  0  0
  124.4150  130.6110   59.0730 C   0  0  0  0  0  0  0  0  0  0  0  0
  123.9300  132.1440   59.9200 S   0  0  0  0  0  0  0  0  0  0  0  0
  125.4070  132.9740   60.4710 C   0  0  0  0  0  0  0  0  0  0  0  0
  126.3280  132.1350   61.0110 N   0  0  0  0  0  0  0  0  0  0  0  0
  127.4930  132.6530   61.4650 C   0  0  0  0  0  0  0  0  0  0  0  0
  128.4760  131.6530   62.0460 C   0  0  0  0  0  0  0  0  0  0  0  0
  127.7830  134.0140   61.4110 C   0  0  0  0  0  0  0  0  0  0  0  0
  126.8310  134.8900   60.8790 C   0  0  0  0  0  0  0  0  0  0  0  0
  127.1650  136.3810   60.8470 C   0  0  0  0  0  0  0  0  0  0  0  0
  125.6060  134.3730   60.4000 C   0  0  0  0  0  0  0  0  0  0  0  0
  124.5750  135.2810   59.8900 C   0  0  0  0  0  0  0  0  0  0  0  0
  123.7630  135.9980   59.4870 N   0  0  0  0  0  0  0  0  0  0  0  0
  128.7900  132.2140   58.0690 C   0  0  0  0  0  0  0  0  0  0  0  0
  129.9080  132.6150   57.3420 C   0  0  0  0  0  0  0  0  0  0  0  0
  1  2  1  0
  2  3  1  0
  3  4  2  0
  4  5  1  0
  5  6  2  0
  6  7  1  0
  7  8  1  0
  8  9  2  0
  8 10  1  0
 10 11  1  0
 11 12  1  0
 12 13  2  0
 13 14  1  0
 14 15  1  0
 14 16  2  0
 16 17  1  0
 17 18  1  0
 17 19  2  0
 19 20  1  0
 20 21  3  0
  6 22  1  0
 22 23  2  0
 23  3  1  0
 19 12  1  0
M  END
>  <Binding energies>  (4) 
[-6.68]

>  <Ligand effiencies>  (4) 
[-0.2783333333333333]

>  <Interactions>  (4) 
["V-A:TYR:539:CZ:4877, V-A:ALA:541:CB:4892, V-B:ILE:369:CG2:8209, V-B:LEU:475:CD2:9231, V-A:PRO:540:CA:4883, V-A:TYR:539:CE1:4875, H-A:TYR:539:OH:4878, V-B:ASP:366:CB:8184, V-B:ASP:366:CA:8182, V-A:TYR:539:CD1:4873, V-A:TYR:539:C:4867, V-A:TYR:539:CE2:4876, V-A:PRO:540:CD:4887, V-A:TYR:531:CE2:4793, V-A:LEU:363:CD1:3189, V-A:TYR:539:CD2:4874, V-A:ILE:538:CB:4862, H-A:TYR:539:N:4870, V-A:PRO:540:N:4884, V-A:TYR:539:CG:4872, V-A:ILE:538:CG2:4863, V-B:SER:385:CB:8381, V-B:SER:385:CA:8379, V-B:PRO:482:CB:9298, V-B:PRO:482:CG:9299, V-A:TYR:539:CA:4869, H-B:SER:385:OG:8382"]

$$$$
1d_Grossjean_2025
     RDKit          3D

 21 22  0  0  0  0  0  0  0  0999 V2000
  132.7360  124.7380   60.9340 C   0  0  0  0  0  0  0  0  0  0  0  0
  132.0910  123.3660   60.9740 C   0  0  0  0  0  0  0  0  0  0  0  0
  132.6830  122.2630   60.3630 C   0  0  0  0  0  0  0  0  0  0  0  0
  132.0480  121.0200   60.4420 C   0  0  0  0  0  0  0  0  0  0  0  0
  132.7240  119.8220   59.7780 C   0  0  0  0  0  0  0  0  0  0  0  0
  130.8170  120.9140   61.1300 C   0  0  0  0  0  0  0  0  0  0  0  0
  130.1580  119.6140   61.2660 C   0  0  0  0  0  0  0  0  0  0  0  0
  129.6390  118.5840   61.3710 N   0  0  0  0  0  0  0  0  0  0  0  0
  130.2770  122.0910   61.6990 C   0  0  0  0  0  0  0  0  0  0  0  0
  128.7420  122.1420   62.5960 S   0  0  0  0  0  0  0  0  0  0  0  0
  127.8340  123.6160   62.0370 C   0  0  0  0  0  0  0  0  0  0  0  0
  126.7570  123.2720   61.0070 C   0  0  0  0  0  0  0  0  0  0  0  0
  125.6590  122.8720   61.3960 O   0  0  0  0  0  0  0  0  0  0  0  0
  127.1070  123.4670   59.7170 N   0  0  0  0  0  0  0  0  0  0  0  0
  126.3730  123.2380   58.5380 C   0  0  0  0  0  0  0  0  0  0  0  0
  125.0320  123.6310   58.5740 C   0  0  0  0  0  0  0  0  0  0  0  0
  124.2170  123.4540   57.4590 C   0  0  0  0  0  0  0  0  0  0  0  0
  124.7460  122.8900   56.3010 C   0  0  0  0  0  0  0  0  0  0  0  0
  126.0820  122.5020   56.2490 C   0  0  0  0  0  0  0  0  0  0  0  0
  126.8990  122.6760   57.3630 C   0  0  0  0  0  0  0  0  0  0  0  0
  130.9120  123.2890   61.6350 N   0  0  0  0  0  0  0  0  0  0  0  0
  1  2  1  0
  2  3  2  0
  3  4  1  0
  4  5  1  0
  4  6  2  0
  6  7  1  0
  7  8  3  0
  6  9  1  0
  9 10  1  0
 10 11  1  0
 11 12  1  0
 12 13  2  0
 12 14  1  0
 14 15  1  0
 15 16  2  0
 16 17  1  0
 17 18  2  0
 18 19  1  0
 19 20  2  0
  9 21  2  0
 21  2  1  0
 20 15  1  0
M  END
>  <Binding energies>  (5) 
[-7.6]

>  <Ligand effiencies>  (5) 
[-0.34545454545454546]

>  <Interactions>  (5) 
["V-A:ASP:366:CG:3213, V-B:TYR:539:CE2:9848, V-A:ILE:369:CG2:3237, V-B:TYR:539:CD2:9846, V-A:LEU:475:CD2:4259, V-B:TYR:539:C:9839, V-B:PRO:540:CB:9857, V-B:PRO:540:CA:9855, H-B:ALA:541:N:9863, V-B:PRO:540:N:9856, V-B:LEU:363:CD1:8161, V-B:TYR:531:CZ:9766, V-B:TYR:531:CE2:9765, V-B:GLU:543:CD:9880, V-B:ILE:538:CA:9832, V-B:ILE:538:CD1:9837, V-B:GLU:543:CG:9879, V-B:PRO:540:CD:9859, V-A:LEU:475:CD1:4258, V-B:ALA:541:CB:9864, V-B:ILE:538:CG2:9835, H-A:TYR:484:OH:4348, V-A:SER:385:CB:3409, V-A:SER:385:CA:3407"]

$$$$
1e_Grossjean_2025
     RDKit          3D

 22 23  0  0  0  0  0  0  0  0999 V2000
  123.0970  129.5850   67.0420 C   0  0  0  0  0  0  0  0  0  0  0  0
  124.2600  129.3840   66.0890 C   0  0  0  0  0  0  0  0  0  0  0  0
  125.4990  128.9160   66.5350 C   0  0  0  0  0  0  0  0  0  0  0  0
  126.5230  128.7580   65.6000 C   0  0  0  0  0  0  0  0  0  0  0  0
  126.2890  129.0690   64.2590 C   0  0  0  0  0  0  0  0  0  0  0  0
  125.0220  129.5280   63.8790 C   0  0  0  0  0  0  0  0  0  0  0  0
  124.8500  129.8350   62.5180 N   0  0  0  0  0  0  0  0  0  0  0  0
  123.7210  130.2070   61.8760 C   0  0  0  0  0  0  0  0  0  0  0  0
  122.6150  130.3290   62.4050 O   0  0  0  0  0  0  0  0  0  0  0  0
  123.8610  130.4580   60.3730 C   0  0  0  0  0  0  0  0  0  0  0  0
  123.7770  132.2280   59.9690 S   0  0  0  0  0  0  0  0  0  0  0  0
  125.2560  133.0210   60.5660 C   0  0  0  0  0  0  0  0  0  0  0  0
  126.1280  132.1630   61.1550 N   0  0  0  0  0  0  0  0  0  0  0  0
  127.2890  132.6500   61.6510 C   0  0  0  0  0  0  0  0  0  0  0  0
  128.2160  131.6310   62.2860 C   0  0  0  0  0  0  0  0  0  0  0  0
  127.6220  134.0010   61.5930 C   0  0  0  0  0  0  0  0  0  0  0  0
  126.7210  134.8990   61.0120 C   0  0  0  0  0  0  0  0  0  0  0  0
  127.1020  136.3780   60.9780 C   0  0  0  0  0  0  0  0  0  0  0  0
  125.5000  134.4130   60.4900 C   0  0  0  0  0  0  0  0  0  0  0  0
  124.5200  135.3480   59.9310 C   0  0  0  0  0  0  0  0  0  0  0  0
  123.7480  136.0880   59.4890 N   0  0  0  0  0  0  0  0  0  0  0  0
  124.0170  129.6890   64.7890 N   0  0  0  0  0  0  0  0  0  0  0  0
  1  2  1  0
  2  3  2  0
  3  4  1  0
  4  5  2  0
  5  6  1  0
  6  7  1  0
  7  8  1  0
  8  9  2  0
  8 10  1  0
 10 11  1  0
 11 12  1  0
 12 13  2  0
 13 14  1  0
 14 15  1  0
 14 16  2  0
 16 17  1  0
 17 18  1  0
 17 19  2  0
 19 20  1  0
 20 21  3  0
  6 22  2  0
 22  2  1  0
 19 12  1  0
M  END
>  <Binding energies>  (6) 
[-7.37]

>  <Ligand effiencies>  (6) 
[-0.3204347826086957]

>  <Interactions>  (6) 
["V-A:ALA:541:CB:4892, V-B:ILE:369:CG2:8209, V-B:LEU:475:CD2:9231, H-B:GLY:454:N:9022, H-B:TYR:484:OH:9320, V-A:TYR:539:CE1:4875, V-B:ARG:545:CZ:9898, V-B:ASP:366:CG:8185, V-B:ASP:366:CB:8184, V-B:ASP:366:CA:8182, V-A:TYR:539:CD1:4873, V-B:GLU:543:CD:9880, V-B:GLY:454:CA:9021, V-B:SER:385:CB:8381, V-B:SER:385:CA:8379, V-B:ARG:545:CD:9895, H-B:ARG:545:NE:9896, V-B:ARG:545:CG:9894, V-B:TYR:484:CZ:9319, V-B:HIS:456:CE1:9042, V-B:GLY:453:C:9014, V-B:PRO:482:CB:9298, V-B:PRO:482:CG:9299, V-B:ILE:455:C:9024, H-B:ARG:545:NH1:9899, V-B:GLY:453:CA:9016, H-B:SER:385:OG:8382, V-B:ARG:545:CB:9893"]

$$$$
1f_Grossjean_2025
     RDKit          3D

 21 22  0  0  0  0  0  0  0  0999 V2000
  129.5670  125.4280   57.5190 C   0  0  0  0  0  0  0  0  0  0  0  0
  130.5090  124.7050   58.4640 C   0  0  0  0  0  0  0  0  0  0  0  0
  131.8880  124.8800   58.3940 C   0  0  0  0  0  0  0  0  0  0  0  0
  132.7070  124.1770   59.2840 C   0  0  0  0  0  0  0  0  0  0  0  0
  134.2190  124.3710   59.1760 C   0  0  0  0  0  0  0  0  0  0  0  0
  132.1160  123.3150   60.2350 C   0  0  0  0  0  0  0  0  0  0  0  0
  132.9600  122.5270   61.1380 C   0  0  0  0  0  0  0  0  0  0  0  0
  133.6280  121.9070   61.8500 N   0  0  0  0  0  0  0  0  0  0  0  0
  130.7040  123.2200   60.2530 C   0  0  0  0  0  0  0  0  0  0  0  0
  129.7840  122.1880   61.3760 S   0  0  0  0  0  0  0  0  0  0  0  0
  128.3070  123.1090   61.9270 C   0  0  0  0  0  0  0  0  0  0  0  0
  127.1010  123.0240   60.9800 C   0  0  0  0  0  0  0  0  0  0  0  0
  125.9640  122.8720   61.4280 O   0  0  0  0  0  0  0  0  0  0  0  0
  127.4110  123.1010   59.6680 N   0  0  0  0  0  0  0  0  0  0  0  0
  126.5670  123.0660   58.5410 C   0  0  0  0  0  0  0  0  0  0  0  0
  125.2540  123.5710   58.4840 C   0  0  0  0  0  0  0  0  0  0  0  0
  124.5270  123.4720   57.2950 C   0  0  0  0  0  0  0  0  0  0  0  0
  125.1310  122.8730   56.1900 C   0  0  0  0  0  0  0  0  0  0  0  0
  126.3960  122.3830   56.2170 N   0  0  0  0  0  0  0  0  0  0  0  0
  127.0900  122.4860   57.3800 C   0  0  0  0  0  0  0  0  0  0  0  0
  129.9200  123.8880   59.3690 N   0  0  0  0  0  0  0  0  0  0  0  0
  1  2  1  0
  2  3  2  0
  3  4  1  0
  4  5  1  0
  4  6  2  0
  6  7  1  0
  7  8  3  0
  6  9  1  0
  9 10  1  0
 10 11  1  0
 11 12  1  0
 12 13  2  0
 12 14  1  0
 14 15  1  0
 15 16  2  0
 16 17  1  0
 17 18  2  0
 18 19  1  0
 19 20  2  0
  9 21  2  0
 21  2  1  0
 20 15  1  0
M  END
>  <Binding energies>  (7) 
[-7.15]

>  <Ligand effiencies>  (7) 
[-0.325]

>  <Interactions>  (7) 
["V-A:ASP:366:CA:3210, V-A:ILE:369:CB:3236, V-A:ASP:366:CG:3213, V-B:TYR:539:CE2:9848, V-A:ASP:366:CB:3212, V-B:TYR:539:CZ:9849, V-A:ASP:366:C:3208, V-A:ILE:369:CG2:3237, V-B:TYR:539:CD2:9846, V-A:LEU:475:CD2:4259, V-B:TYR:539:CG:9844, V-B:TYR:539:C:9839, H-B:TYR:539:N:9842, V-B:PRO:540:CB:9857, V-B:PRO:540:CA:9855, H-B:ALA:541:N:9863, V-B:PRO:540:N:9856, V-A:ILE:369:CD1:3239, V-B:LEU:363:CD1:8161, V-B:TYR:531:CZ:9766, V-B:TYR:531:CE2:9765, V-B:GLU:543:CD:9880, V-B:ILE:538:CD1:9837, V-B:PRO:540:C:9853, V-B:TYR:539:CA:9841, V-B:PRO:540:CD:9859, H-A:GLY:454:N:4050, V-A:ILE:369:CG1:3238"]

$$$$
1g_Grossjean_2025
     RDKit          3D

 22 23  0  0  0  0  0  0  0  0999 V2000
  127.2750  122.5310   54.9610 C   0  0  0  0  0  0  0  0  0  0  0  0
  126.8380  122.8560   56.3770 C   0  0  0  0  0  0  0  0  0  0  0  0
  125.5000  123.0810   56.6940 C   0  0  0  0  0  0  0  0  0  0  0  0
  125.1590  123.3940   58.0140 C   0  0  0  0  0  0  0  0  0  0  0  0
  123.6870  123.6510   58.3350 C   0  0  0  0  0  0  0  0  0  0  0  0
  126.1750  123.4650   58.9930 C   0  0  0  0  0  0  0  0  0  0  0  0
  125.8480  123.8420   60.3710 C   0  0  0  0  0  0  0  0  0  0  0  0
  125.5860  124.1410   61.4580 N   0  0  0  0  0  0  0  0  0  0  0  0
  127.5030  123.1970   58.5860 C   0  0  0  0  0  0  0  0  0  0  0  0
  128.9000  123.2330   59.6870 S   0  0  0  0  0  0  0  0  0  0  0  0
  128.5300  122.1080   61.0660 C   0  0  0  0  0  0  0  0  0  0  0  0
  129.7320  121.2360   61.4310 C   0  0  0  0  0  0  0  0  0  0  0  0
  130.2460  121.3300   62.5470 O   0  0  0  0  0  0  0  0  0  0  0  0
  130.1700  120.3960   60.4770 N   0  0  0  0  0  0  0  0  0  0  0  0
  131.2620  119.4350   60.6290 C   0  0  0  0  0  0  0  0  0  0  0  0
  131.0690  118.1380   59.8490 C   0  0  0  0  0  0  0  0  0  0  0  0
  130.0230  117.2720   60.1830 C   0  0  0  0  0  0  0  0  0  0  0  0
  129.8460  116.0880   59.4700 C   0  0  0  0  0  0  0  0  0  0  0  0
  130.7130  115.7770   58.4250 C   0  0  0  0  0  0  0  0  0  0  0  0
  131.7540  116.6370   58.0850 C   0  0  0  0  0  0  0  0  0  0  0  0
  131.9330  117.8200   58.7970 C   0  0  0  0  0  0  0  0  0  0  0  0
  127.8280  122.9170   57.2980 N   0  0  0  0  0  0  0  0  0  0  0  0
  1  2  1  0
  2  3  2  0
  3  4  1  0
  4  5  1  0
  4  6  2  0
  6  7  1  0
  7  8  3  0
  6  9  1  0
  9 10  1  0
 10 11  1  0
 11 12  1  0
 12 13  2  0
 12 14  1  0
 14 15  1  0
 15 16  1  0
 16 17  2  0
 17 18  1  0
 18 19  2  0
 19 20  1  0
 20 21  2  0
  9 22  2  0
 22  2  1  0
 21 16  1  0
M  END
>  <Binding energies>  (8) 
[-9.26]

>  <Ligand effiencies>  (8) 
[-0.4026086956521739]

>  <Interactions>  (8) 
["V-B:MET:535:CE:9807, V-B:TYR:539:CE2:9848, V-B:TYR:539:CZ:9849, V-B:TYR:539:CD2:9846, V-A:LEU:475:CD2:4259, V-B:TYR:539:CD1:9845, V-B:TYR:539:CG:9844, V-B:TYR:539:CE1:9847, V-B:TYR:539:C:9839, V-B:ASP:366:CG:8185, V-B:PRO:540:CB:9857, V-B:PRO:540:CA:9855, V-B:PRO:540:N:9856, V-B:LEU:363:CD1:8161, V-B:ILE:538:CA:9832, V-B:ILE:538:CD1:9837, V-B:TYR:539:CB:9843, V-B:ALA:541:CB:9864, H-A:TYR:484:OH:4348, V-B:ILE:538:C:9830, H-B:ARG:545:NH2:9900, V-B:LEU:363:CA:8157, V-B:LEU:363:CB:8159, H-B:TYR:539:O:9840, V-A:SER:385:CB:3409, V-B:VAL:344:CG2:7974, V-B:VAL:344:CG1:7973, V-A:LEU:373:CD1:3280, V-A:PRO:482:CB:4326, V-A:HIS:383:CE1:3394, V-A:PRO:482:CG:4327, V-A:LEU:373:CD2:3281, V-B:ILE:343:CG2:7964, V-B:ILE:343:CB:7963"]

$$$$
1h_Grossjean_2025
     RDKit          3D

 28 29  0  0  0  0  0  0  0  0999 V2000
  123.0970  130.7060   61.5100 C   0  0  0  0  0  0  0  0  0  0  0  0
  123.3240  130.3260   62.8630 O   0  0  0  0  0  0  0  0  0  0  0  0
  124.4530  129.5940   63.1820 C   0  0  0  0  0  0  0  0  0  0  0  0
  125.2080  128.8690   62.2470 C   0  0  0  0  0  0  0  0  0  0  0  0
  126.3300  128.1410   62.6440 C   0  0  0  0  0  0  0  0  0  0  0  0
  127.1550  127.3760   61.6130 C   0  0  0  0  0  0  0  0  0  0  0  0
  126.8880  125.9380   61.5870 N   0  0  0  0  0  0  0  0  0  0  0  0
  126.6930  125.2040   60.4770 C   0  0  0  0  0  0  0  0  0  0  0  0
  126.7420  125.6640   59.3360 O   0  0  0  0  0  0  0  0  0  0  0  0
  126.3880  123.7210   60.6860 C   0  0  0  0  0  0  0  0  0  0  0  0
  127.3180  123.0250   62.0850 S   0  0  0  0  0  0  0  0  0  0  0  0
  129.0450  123.4130   61.8490 C   0  0  0  0  0  0  0  0  0  0  0  0
  129.3530  124.7360   61.8210 N   0  0  0  0  0  0  0  0  0  0  0  0
  130.6460  125.1000   61.6500 C   0  0  0  0  0  0  0  0  0  0  0  0
  130.9120  126.5940   61.6330 C   0  0  0  0  0  0  0  0  0  0  0  0
  131.6750  124.1740   61.4990 C   0  0  0  0  0  0  0  0  0  0  0  0
  131.3700  122.8090   61.5240 C   0  0  0  0  0  0  0  0  0  0  0  0
  132.5130  121.8100   61.3590 C   0  0  0  0  0  0  0  0  0  0  0  0
  130.0260  122.4060   61.7020 C   0  0  0  0  0  0  0  0  0  0  0  0
  129.6770  120.9830   61.7300 C   0  0  0  0  0  0  0  0  0  0  0  0
  129.4010  119.8590   61.7520 N   0  0  0  0  0  0  0  0  0  0  0  0
  126.7280  128.1630   63.9810 C   0  0  0  0  0  0  0  0  0  0  0  0
  125.9950  128.8840   64.9370 C   0  0  0  0  0  0  0  0  0  0  0  0
  126.3290  128.9490   66.2780 O   0  0  0  0  0  0  0  0  0  0  0  0
  127.6960  128.8550   66.6640 C   0  0  0  0  0  0  0  0  0  0  0  0
  124.8530  129.5870   64.5270 C   0  0  0  0  0  0  0  0  0  0  0  0
  124.1300  130.3020   65.4500 O   0  0  0  0  0  0  0  0  0  0  0  0
  123.6080  129.5150   66.5120 C   0  0  0  0  0  0  0  0  0  0  0  0
  1  2  1  0
  2  3  1  0
  3  4  2  0
  4  5  1  0
  5  6  1  0
  6  7  1  0
  7  8  1  0
  8  9  2  0
  8 10  1  0
 10 11  1  0
 11 12  1  0
 12 13  2  0
 13 14  1  0
 14 15  1  0
 14 16  2  0
 16 17  1  0
 17 18  1  0
 17 19  2  0
 19 20  1  0
 20 21  3  0
  5 22  2  0
 22 23  1  0
 23 24  1  0
 24 25  1  0
 23 26  2  0
 26 27  1  0
 27 28  1  0
 26  3  1  0
 19 12  1  0
M  END
>  <Binding energies>  (9) 
[-6.34]

>  <Ligand effiencies>  (9) 
[-0.2186206896551724]

>  <Interactions>  (9) 
["V-B:ILE:369:CD1:8211, H-B:GLY:454:N:9022, H-B:TYR:484:OH:9320, V-B:ARG:545:CZ:9898, V-A:LEU:475:CD2:4259, V-B:ASP:366:CG:8185, V-B:PRO:540:CB:9857, V-B:PRO:540:CA:9855, H-B:ALA:541:N:9863, H-B:GLU:543:OE2:9882, V-B:GLU:543:CD:9880, H-B:GLU:543:OE1:9881, V-B:ALA:541:CB:9864, V-B:GLY:454:CA:9021, V-B:ARG:545:CD:9895, V-B:ARG:545:CG:9894, V-B:HIS:456:CE1:9042, V-B:GLY:453:C:9014, V-B:GLY:453:CA:9016, V-A:GLU:543:CB:4906"]

$$$$
1i_Grossjean_2025
     RDKit          3D

 20 21  0  0  0  0  0  0  0  0999 V2000
  131.8990  125.1010   60.5320 C   0  0  0  0  0  0  0  0  0  0  0  0
  131.5670  123.6220   60.5910 C   0  0  0  0  0  0  0  0  0  0  0  0
  132.4910  122.6510   60.2100 C   0  0  0  0  0  0  0  0  0  0  0  0
  132.1320  121.3020   60.2950 C   0  0  0  0  0  0  0  0  0  0  0  0
  133.1670  120.2550   59.8870 C   0  0  0  0  0  0  0  0  0  0  0  0
  130.8410  120.9570   60.7580 C   0  0  0  0  0  0  0  0  0  0  0  0
  130.4630  119.5490   60.9020 C   0  0  0  0  0  0  0  0  0  0  0  0
  130.1670  118.4360   61.0170 N   0  0  0  0  0  0  0  0  0  0  0  0
  129.9600  122.0100   61.1000 C   0  0  0  0  0  0  0  0  0  0  0  0
  128.3040  121.7590   61.6980 S   0  0  0  0  0  0  0  0  0  0  0  0
  127.3840  123.3040   61.4360 C   0  0  0  0  0  0  0  0  0  0  0  0
  127.1440  123.5870   59.9510 C   0  0  0  0  0  0  0  0  0  0  0  0
  126.8390  124.7260   59.5950 O   0  0  0  0  0  0  0  0  0  0  0  0
  127.2950  122.5280   59.1260 N   0  0  0  0  0  0  0  0  0  0  0  0
  127.1330  122.5070   57.7480 C   0  0  0  0  0  0  0  0  0  0  0  0
  128.0130  123.1370   56.8690 C   0  0  0  0  0  0  0  0  0  0  0  0
  127.5080  122.8830   55.6140 C   0  0  0  0  0  0  0  0  0  0  0  0
  126.3820  122.1420   55.7310 O   0  0  0  0  0  0  0  0  0  0  0  0
  126.1530  121.9100   57.0890 N   0  0  0  0  0  0  0  0  0  0  0  0
  130.3250  123.3150   61.0330 N   0  0  0  0  0  0  0  0  0  0  0  0
  1  2  1  0
  2  3  2  0
  3  4  1  0
  4  5  1  0
  4  6  2  0
  6  7  1  0
  7  8  3  0
  6  9  1  0
  9 10  1  0
 10 11  1  0
 11 12  1  0
 12 13  2  0
 12 14  1  0
 14 15  1  0
 15 16  1  0
 16 17  2  0
 17 18  1  0
 18 19  1  0
  9 20  2  0
 20  2  1  0
 19 15  2  0
M  END
>  <Binding energies>  (10) 
[-7.01]

>  <Ligand effiencies>  (10) 
[-0.3338095238095238]

>  <Interactions>  (10) 
["V-A:ASP:366:CG:3213, V-B:MET:535:CE:9807, V-B:TYR:539:CE2:9848, V-B:TYR:539:CZ:9849, V-A:ILE:369:CG2:3237, V-B:TYR:539:CD2:9846, V-A:LEU:475:CD2:4259, V-B:TYR:539:CD1:9845, V-B:TYR:539:CG:9844, V-B:TYR:539:CE1:9847, V-B:TYR:539:C:9839, H-B:TYR:539:N:9842, V-B:PRO:540:CB:9857, V-B:PRO:540:CA:9855, H-B:ALA:541:N:9863, V-B:PRO:540:N:9856, V-B:TYR:539:CA:9841, V-B:PRO:540:CD:9859, H-B:TYR:539:O:9840, V-A:SER:385:CB:3409, V-A:SER:385:CA:3407, V-A:SER:385:C:3405"]

$$$$
1k_Grossjean_2025
     RDKit          3D

 25 25  0  0  0  0  0  0  0  0999 V2000
  124.5660  122.5400   56.7970 C   0  0  0  0  0  0  0  0  0  0  0  0
  125.3420  121.9240   55.7820 O   0  0  0  0  0  0  0  0  0  0  0  0
  126.1760  122.8330   55.0760 C   0  0  0  0  0  0  0  0  0  0  0  0
  127.5530  122.8950   55.7520 C   0  0  0  0  0  0  0  0  0  0  0  0
  127.5300  122.1200   56.9430 O   0  0  0  0  0  0  0  0  0  0  0  0
  128.1210  122.7710   58.0600 C   0  0  0  0  0  0  0  0  0  0  0  0
  127.5800  124.2030   58.1590 C   0  0  0  0  0  0  0  0  0  0  0  0
  128.6400  125.1270   57.9460 O   0  0  0  0  0  0  0  0  0  0  0  0
  128.2560  126.4850   58.1120 C   0  0  0  0  0  0  0  0  0  0  0  0
  127.5040  126.9670   56.8570 C   0  0  0  0  0  0  0  0  0  0  0  0
  127.7950  128.3510   56.4830 N   0  0  0  0  0  0  0  0  0  0  0  0
  127.2260  129.0140   55.4610 C   0  0  0  0  0  0  0  0  0  0  0  0
  126.3760  128.5120   54.7230 O   0  0  0  0  0  0  0  0  0  0  0  0
  127.7070  130.4600   55.2590 C   0  0  0  0  0  0  0  0  0  0  0  0
  127.9060  131.4470   56.7830 S   0  0  0  0  0  0  0  0  0  0  0  0
  129.4010  130.9390   57.6200 C   0  0  0  0  0  0  0  0  0  0  0  0
  129.2360  130.0770   58.6570 N   0  0  0  0  0  0  0  0  0  0  0  0
  130.3260  129.6600   59.3400 C   0  0  0  0  0  0  0  0  0  0  0  0
  130.0600  128.7060   60.4880 C   0  0  0  0  0  0  0  0  0  0  0  0
  131.6180  130.0730   59.0190 C   0  0  0  0  0  0  0  0  0  0  0  0
  131.8020  130.9550   57.9500 C   0  0  0  0  0  0  0  0  0  0  0  0
  133.2250  131.3960   57.6150 C   0  0  0  0  0  0  0  0  0  0  0  0
  130.6760  131.4060   57.2260 C   0  0  0  0  0  0  0  0  0  0  0  0
  130.8390  132.3330   56.1020 C   0  0  0  0  0  0  0  0  0  0  0  0
  130.9690  133.0660   55.2160 N   0  0  0  0  0  0  0  0  0  0  0  0
  1  2  1  0
  2  3  1  0
  3  4  1  0
  4  5  1  0
  5  6  1  0
  6  7  1  0
  7  8  1  0
  8  9  1  0
  9 10  1  0
 10 11  1  0
 11 12  1  0
 12 13  2  0
 12 14  1  0
 14 15  1  0
 15 16  1  0
 16 17  2  0
 17 18  1  0
 18 19  1  0
 18 20  2  0
 20 21  1  0
 21 22  1  0
 21 23  2  0
 23 24  1  0
 24 25  3  0
 23 16  1  0
M  END
>  <Binding energies>  (11) 
[-6.24]

>  <Ligand effiencies>  (11) 
[-0.24000000000000002]

>  <Interactions>  (11) 
["V-A:ASP:366:CG:3213, V-B:MET:535:CE:9807, V-A:PRO:540:CA:4883, V-B:TYR:539:CE2:9848, H-B:LYS:534:NZ:9795, V-B:TYR:539:CZ:9849, V-B:TYR:539:CD2:9846, H-B:TYR:531:OH:9767, V-B:TYR:539:CD1:9845, V-B:TYR:539:CG:9844, V-B:TYR:539:CE1:9847, V-B:TYR:539:C:9839, H-B:TYR:539:N:9842, V-B:PRO:540:CB:9857, V-B:PRO:540:N:9856, V-A:TYR:539:C:4867, V-B:LEU:363:CD1:8161, V-B:TYR:531:CE2:9765, V-B:ILE:538:CA:9832, V-B:ILE:538:CD1:9837, V-A:PRO:540:CB:4885, V-A:LEU:363:CD1:3189, H-A:TYR:539:N:4870, V-A:PRO:540:N:4884, V-B:PRO:540:CG:9858, V-B:PRO:540:CD:9859, V-B:ILE:538:CG2:9835, V-A:LEU:363:CA:3185"]

$$$$
1l_Grossjean_2025
     RDKit          3D

 17 17  0  0  0  0  0  0  0  0999 V2000
  127.1210  119.5810   71.6400 C   0  0  0  0  0  0  0  0  0  0  0  0
  127.4930  120.9390   71.8260 O   0  0  0  0  0  0  0  0  0  0  0  0
  128.5430  121.0230   72.7390 N   0  0  0  0  0  0  0  0  0  0  0  0
  129.1090  122.2230   72.9750 C   0  0  0  0  0  0  0  0  0  0  0  0
  128.6170  123.2940   72.6100 O   0  0  0  0  0  0  0  0  0  0  0  0
  130.4280  122.1780   73.7590 C   0  0  0  0  0  0  0  0  0  0  0  0
  130.5350  123.3480   75.1570 S   0  0  0  0  0  0  0  0  0  0  0  0
  131.0900  124.9210   74.5230 C   0  0  0  0  0  0  0  0  0  0  0  0
  130.1440  125.6770   73.9080 N   0  0  0  0  0  0  0  0  0  0  0  0
  130.4970  126.8820   73.4020 C   0  0  0  0  0  0  0  0  0  0  0  0
  129.3860  127.6670   72.7320 C   0  0  0  0  0  0  0  0  0  0  0  0
  131.7940  127.3820   73.4880 C   0  0  0  0  0  0  0  0  0  0  0  0
  132.7770  126.6140   74.1200 C   0  0  0  0  0  0  0  0  0  0  0  0
  134.1930  127.1820   74.2030 C   0  0  0  0  0  0  0  0  0  0  0  0
  132.4310  125.3530   74.6530 C   0  0  0  0  0  0  0  0  0  0  0  0
  133.4410  124.5260   75.3210 C   0  0  0  0  0  0  0  0  0  0  0  0
  134.2400  123.8760   75.8480 N   0  0  0  0  0  0  0  0  0  0  0  0
  1  2  1  0
  2  3  1  0
  3  4  1  0
  4  5  2  0
  4  6  1  0
  6  7  1  0
  7  8  1  0
  8  9  2  0
  9 10  1  0
 10 11  1  0
 10 12  2  0
 12 13  1  0
 13 14  1  0
 13 15  2  0
 15 16  1  0
 16 17  3  0
 15  8  1  0
M  END
>  <Binding energies>  (12) 
[-6.23]

>  <Ligand effiencies>  (12) 
[-0.34611111111111115]

>  <Interactions>  (12) 
["V-A:VAL:457:C:4073, V-A:HIS:456:CD2:4068, V-A:TYR:484:CB:4341, H-A:TYR:484:O:4338, V-A:ASP:473:CG:4240, V-A:LYS:471:CD:4219, V-A:VAL:458:CG2:4087, V-A:HIS:456:CG:4066, V-B:LYS:547:CE:9922, V-A:HIS:456:C:4061, V-A:TYR:484:C:4337, V-A:HIS:456:CB:4065, V-B:GLY:544:CA:9886, H-B:LYS:547:NZ:9923, V-B:HIS:456:CD2:9040, V-A:GLY:544:C:4912, V-B:GLU:543:C:9874, V-A:ASP:473:CB:4239, H-B:GLY:544:N:9887, V-A:TYR:484:CA:4339"]

$$$$
1m_Grossjean_2025
     RDKit          3D

 20 20  0  0  0  0  0  0  0  0999 V2000
  131.3900  126.1640   61.6540 C   0  0  0  0  0  0  0  0  0  0  0  0
  132.3080  125.1760   61.2090 O   0  0  0  0  0  0  0  0  0  0  0  0
  132.9370  124.3760   62.0950 C   0  0  0  0  0  0  0  0  0  0  0  0
  133.8410  124.7240   62.8610 O   0  0  0  0  0  0  0  0  0  0  0  0
  132.3810  122.9380   62.0530 C   0  0  0  0  0  0  0  0  0  0  0  0
  131.1190  122.8360   61.3040 N   0  0  0  0  0  0  0  0  0  0  0  0
  130.1000  122.0040   61.5910 C   0  0  0  0  0  0  0  0  0  0  0  0
  130.1280  121.2060   62.5300 O   0  0  0  0  0  0  0  0  0  0  0  0
  128.8840  122.1020   60.6600 C   0  0  0  0  0  0  0  0  0  0  0  0
  129.0770  123.2760   59.2750 S   0  0  0  0  0  0  0  0  0  0  0  0
  127.5930  123.2170   58.2930 C   0  0  0  0  0  0  0  0  0  0  0  0
  127.8190  122.9350   56.9840 N   0  0  0  0  0  0  0  0  0  0  0  0
  126.7620  122.8590   56.1430 C   0  0  0  0  0  0  0  0  0  0  0  0
  127.0910  122.5210   54.7010 C   0  0  0  0  0  0  0  0  0  0  0  0
  125.4500  123.0690   56.5620 C   0  0  0  0  0  0  0  0  0  0  0  0
  125.2080  123.3860   57.9030 C   0  0  0  0  0  0  0  0  0  0  0  0
  123.7640  123.6280   58.3360 C   0  0  0  0  0  0  0  0  0  0  0  0
  126.2960  123.4730   58.8010 C   0  0  0  0  0  0  0  0  0  0  0  0
  126.0700  123.8520   60.1970 C   0  0  0  0  0  0  0  0  0  0  0  0
  125.8910  124.1510   61.3000 N   0  0  0  0  0  0  0  0  0  0  0  0
  1  2  1  0
  2  3  1  0
  3  4  2  0
  3  5  1  0
  5  6  1  0
  6  7  1  0
  7  8  2  0
  7  9  1  0
  9 10  1  0
 10 11  1  0
 11 12  2  0
 12 13  1  0
 13 14  1  0
 13 15  2  0
 15 16  1  0
 16 17  1  0
 16 18  2  0
 18 19  1  0
 19 20  3  0
 18 11  1  0
M  END
>  <Binding energies>  (13) 
[-6.58]

>  <Ligand effiencies>  (13) 
[-0.31333333333333335]

>  <Interactions>  (13) 
["V-B:MET:535:CE:9807, V-B:TYR:539:CD2:9846, V-A:LEU:475:CD2:4259, V-B:TYR:539:CD1:9845, V-B:TYR:539:CE1:9847, V-B:TYR:539:C:9839, V-B:ASP:366:CG:8185, V-B:PRO:540:CB:9857, V-B:PRO:540:CA:9855, V-B:PRO:540:N:9856, V-B:LEU:363:CD1:8161, V-B:TYR:531:CE2:9765, V-B:ILE:538:CA:9832, V-B:ILE:538:CD1:9837, H-A:GLY:454:N:4050, H-A:TYR:484:OH:4348, V-B:ILE:538:C:9830, H-B:ARG:545:NH2:9900, V-B:LEU:363:CA:8157, V-B:LEU:363:CB:8159, H-A:ARG:545:NH2:4928, V-B:VAL:537:C:9822"]

$$$$
1n_Grossjean_2025
     RDKit          3D

 27 28  0  0  0  0  0  0  0  0999 V2000
  124.7600  122.5280   56.1770 C   0  0  0  0  0  0  0  0  0  0  0  0
  126.2120  122.7350   55.7330 C   0  0  0  0  0  0  0  0  0  0  0  0
  127.0850  122.1130   56.6680 O   0  0  0  0  0  0  0  0  0  0  0  0
  127.5140  122.7730   57.7740 C   0  0  0  0  0  0  0  0  0  0  0  0
  127.9230  122.2040   58.7900 O   0  0  0  0  0  0  0  0  0  0  0  0
  127.4530  124.2670   57.6340 C   0  0  0  0  0  0  0  0  0  0  0  0
  126.4070  125.0230   58.1850 C   0  0  0  0  0  0  0  0  0  0  0  0
  126.3790  126.4060   58.0340 C   0  0  0  0  0  0  0  0  0  0  0  0
  127.3870  127.0610   57.3260 C   0  0  0  0  0  0  0  0  0  0  0  0
  127.2570  128.4610   57.2300 N   0  0  0  0  0  0  0  0  0  0  0  0
  126.8920  129.2240   56.1780 C   0  0  0  0  0  0  0  0  0  0  0  0
  126.5860  128.8020   55.0620 O   0  0  0  0  0  0  0  0  0  0  0  0
  126.8640  130.7370   56.4330 C   0  0  0  0  0  0  0  0  0  0  0  0
  126.8800  131.0970   57.9350 C   0  0  0  0  0  0  0  0  0  0  0  0
  127.8970  132.5450   58.3520 S   0  0  0  0  0  0  0  0  0  0  0  0
  129.6010  132.0330   58.3230 C   0  0  0  0  0  0  0  0  0  0  0  0
  130.0650  131.6220   59.5300 N   0  0  0  0  0  0  0  0  0  0  0  0
  131.3460  131.1940   59.6240 C   0  0  0  0  0  0  0  0  0  0  0  0
  131.7900  130.7400   61.0010 C   0  0  0  0  0  0  0  0  0  0  0  0
  132.2100  131.1630   58.5320 C   0  0  0  0  0  0  0  0  0  0  0  0
  131.7480  131.6050   57.2870 C   0  0  0  0  0  0  0  0  0  0  0  0
  132.7170  131.5750   56.1070 C   0  0  0  0  0  0  0  0  0  0  0  0
  130.4150  132.0610   57.1660 C   0  0  0  0  0  0  0  0  0  0  0  0
  129.9260  132.5750   55.8860 C   0  0  0  0  0  0  0  0  0  0  0  0
  129.5420  132.9820   54.8730 N   0  0  0  0  0  0  0  0  0  0  0  0
  128.4410  126.3140   56.7810 C   0  0  0  0  0  0  0  0  0  0  0  0
  128.4690  124.9310   56.9360 C   0  0  0  0  0  0  0  0  0  0  0  0
  1  2  1  0
  2  3  1  0
  3  4  1  0
  4  5  2  0
  4  6  1  0
  6  7  2  0
  7  8  1  0
  8  9  2  0
  9 10  1  0
 10 11  1  0
 11 12  2  0
 11 13  1  0
 13 14  1  0
 14 15  1  0
 15 16  1  0
 16 17  2  0
 17 18  1  0
 18 19  1  0
 18 20  2  0
 20 21  1  0
 21 22  1  0
 21 23  2  0
 23 24  1  0
 24 25  3  0
  9 26  1  0
 26 27  2  0
 27  6  1  0
 23 16  1  0
M  END
>  <Binding energies>  (14) 
[-8.42]

>  <Ligand effiencies>  (14) 
[-0.3007142857142857]

>  <Interactions>  (14) 
["V-A:TYR:539:CZ:4877, V-B:MET:535:CE:9807, V-A:PRO:540:CA:4883, V-B:TYR:539:CE2:9848, H-B:LYS:534:NZ:9795, V-A:GLU:543:CD:4908, V-A:TYR:539:CE1:4875, V-B:TYR:539:CD2:9846, H-B:TYR:531:OH:9767, V-B:TYR:539:CG:9844, V-B:TYR:539:C:9839, H-B:TYR:539:N:9842, V-B:PRO:540:CA:9855, V-B:PRO:540:N:9856, V-A:TYR:539:C:4867, V-B:LEU:363:CD1:8161, V-B:TYR:531:CE2:9765, V-B:ILE:538:CA:9832, V-B:ILE:538:CD1:9837, V-A:TYR:531:CE2:4793, V-A:PRO:540:CB:4885, V-A:LEU:363:CD1:3189, H-A:TYR:539:N:4870, V-A:PRO:540:N:4884, V-B:PRO:540:CD:9859, V-B:ILE:538:CG2:9835, V-A:TYR:531:CZ:4794"]

$$$$
1q_Grossjean_2025
     RDKit          3D

 21 21  0  0  0  0  0  0  0  0999 V2000
  130.8470  137.6800   72.2190 C   0  0  0  0  0  0  0  0  0  0  0  0
  130.8000  136.2800   72.4550 O   0  0  0  0  0  0  0  0  0  0  0  0
  130.7980  135.4070   71.4180 C   0  0  0  0  0  0  0  0  0  0  0  0
  131.2430  135.6330   70.2910 O   0  0  0  0  0  0  0  0  0  0  0  0
  130.1420  134.0480   71.7410 C   0  0  0  0  0  0  0  0  0  0  0  0
  129.1850  134.1230   72.8560 N   0  0  0  0  0  0  0  0  0  0  0  0
  128.4990  133.0880   73.3780 C   0  0  0  0  0  0  0  0  0  0  0  0
  128.6070  131.9320   72.9650 O   0  0  0  0  0  0  0  0  0  0  0  0
  127.5670  133.4230   74.5510 C   0  0  0  0  0  0  0  0  0  0  0  0
  128.2270  133.3030   75.9390 C   0  0  0  0  0  0  0  0  0  0  0  0
  128.3310  131.5940   76.5490 S   0  0  0  0  0  0  0  0  0  0  0  0
  126.8810  130.7100   76.0120 C   0  0  0  0  0  0  0  0  0  0  0  0
  125.7190  131.3380   76.3270 N   0  0  0  0  0  0  0  0  0  0  0  0
  124.5480  130.7600   75.9720 C   0  0  0  0  0  0  0  0  0  0  0  0
  123.2930  131.5130   76.3740 C   0  0  0  0  0  0  0  0  0  0  0  0
  124.4850  129.5500   75.2840 C   0  0  0  0  0  0  0  0  0  0  0  0
  125.6750  128.9070   74.9310 C   0  0  0  0  0  0  0  0  0  0  0  0
  125.5790  127.5900   74.1620 C   0  0  0  0  0  0  0  0  0  0  0  0
  126.9110  129.4920   75.2890 C   0  0  0  0  0  0  0  0  0  0  0  0
  128.1670  128.8610   74.8790 C   0  0  0  0  0  0  0  0  0  0  0  0
  129.1570  128.3600   74.5520 N   0  0  0  0  0  0  0  0  0  0  0  0
  1  2  1  0
  2  3  1  0
  3  4  2  0
  3  5  1  0
  5  6  1  0
  6  7  1  0
  7  8  2  0
  7  9  1  0
  9 10  1  0
 10 11  1  0
 11 12  1  0
 12 13  2  0
 13 14  1  0
 14 15  1  0
 14 16  2  0
 16 17  1  0
 17 18  1  0
 17 19  2  0
 19 20  1  0
 20 21  3  0
 19 12  1  0
M  END
>  <Binding energies>  (15) 
[-6.52]

>  <Ligand effiencies>  (15) 
[-0.29636363636363633]

>  <Interactions>  (15) 
["V-B:LYS:547:CE:9922, V-B:VAL:458:CG2:9059, V-A:GLY:544:CA:4914, V-B:HIS:456:C:9033, V-A:GLU:543:C:4902, V-B:ASP:473:CB:9211, V-B:HIS:456:CB:9037, V-B:SER:483:CB:9305, V-B:TYR:484:CA:9311, V-B:TYR:484:CB:9313, V-B:ASP:473:CG:9212, V-B:LYS:471:CB:9189, H-A:LYS:547:NZ:4951, V-B:LYS:471:C:9185, V-B:LEU:472:CA:9200, V-B:LYS:471:CA:9187, V-B:LYS:547:CD:9921, V-B:VAL:457:C:9045, V-B:HIS:456:CG:9038, V-B:HIS:456:CD2:9040, V-B:VAL:457:CA:9047, V-B:HIS:456:CA:9035, V-B:LEU:472:C:9198, V-B:TYR:484:C:9309, H-B:TYR:484:N:9312, H-B:TYR:484:O:9310, V-B:LYS:547:CG:9920"]

$$$$
2a_Grossjean_2025
     RDKit          3D

 29 30  0  0  0  0  0  0  0  0999 V2000
  124.8680  122.5740   56.1460 C   0  0  0  0  0  0  0  0  0  0  0  0
  126.3700  122.7410   55.8960 C   0  0  0  0  0  0  0  0  0  0  0  0
  127.0940  122.1230   56.9530 O   0  0  0  0  0  0  0  0  0  0  0  0
  127.5450  122.8470   58.0100 C   0  0  0  0  0  0  0  0  0  0  0  0
  128.0000  122.3380   59.0390 O   0  0  0  0  0  0  0  0  0  0  0  0
  127.4550  124.3300   57.7930 C   0  0  0  0  0  0  0  0  0  0  0  0
  128.3900  125.0230   57.0100 C   0  0  0  0  0  0  0  0  0  0  0  0
  128.2780  126.3990   56.8290 C   0  0  0  0  0  0  0  0  0  0  0  0
  127.2390  127.1100   57.4300 C   0  0  0  0  0  0  0  0  0  0  0  0
  127.2330  128.4970   57.1910 N   0  0  0  0  0  0  0  0  0  0  0  0
  126.9340  129.1820   56.0660 C   0  0  0  0  0  0  0  0  0  0  0  0
  126.6210  128.6820   54.9860 O   0  0  0  0  0  0  0  0  0  0  0  0
  127.0050  130.7090   56.1850 C   0  0  0  0  0  0  0  0  0  0  0  0
  127.7740  131.2770   57.7380 S   0  0  0  0  0  0  0  0  0  0  0  0
  129.3980  130.5440   57.9110 C   0  0  0  0  0  0  0  0  0  0  0  0
  129.4590  129.4230   58.6750 N   0  0  0  0  0  0  0  0  0  0  0  0
  130.6560  128.8220   58.8590 C   0  0  0  0  0  0  0  0  0  0  0  0
  130.6490  127.5920   59.7460 C   0  0  0  0  0  0  0  0  0  0  0  0
  131.8320  129.3020   58.2900 C   0  0  0  0  0  0  0  0  0  0  0  0
  131.7910  130.4540   57.4890 C   0  0  0  0  0  0  0  0  0  0  0  0
  133.1010  130.9710   56.8660 C   0  0  0  0  0  0  0  0  0  0  0  0
  133.9520  129.9610   56.6850 F   0  0  0  0  0  0  0  0  0  0  0  0
  132.8500  131.5430   55.6870 F   0  0  0  0  0  0  0  0  0  0  0  0
  133.7130  131.8790   57.6300 F   0  0  0  0  0  0  0  0  0  0  0  0
  130.5420  131.0960   57.2910 C   0  0  0  0  0  0  0  0  0  0  0  0
  130.4420  132.3050   56.4660 C   0  0  0  0  0  0  0  0  0  0  0  0
  130.3630  133.2590   55.8160 N   0  0  0  0  0  0  0  0  0  0  0  0
  126.2960  126.4230   58.2070 C   0  0  0  0  0  0  0  0  0  0  0  0
  126.4060  125.0460   58.3840 C   0  0  0  0  0  0  0  0  0  0  0  0
  1  2  1  0
  2  3  1  0
  3  4  1  0
  4  5  2  0
  4  6  1  0
  6  7  2  0
  7  8  1  0
  8  9  2  0
  9 10  1  0
 10 11  1  0
 11 12  2  0
 11 13  1  0
 13 14  1  0
 14 15  1  0
 15 16  2  0
 16 17  1  0
 17 18  1  0
 17 19  2  0
 19 20  1  0
 20 21  1  0
 21 22  1  0
 21 23  1  0
 21 24  1  0
 20 25  2  0
 25 26  1  0
 26 27  3  0
  9 28  1  0
 28 29  2  0
 29  6  1  0
 25 15  1  0
M  END
>  <Binding energies>  (16) 
[-7.13]

>  <Ligand effiencies>  (16) 
[-0.23766666666666666]

>  <Interactions>  (16) 
["V-A:TYR:539:CZ:4877, V-A:ASP:366:CG:3213, V-B:MET:535:CE:9807, V-A:PRO:540:CA:4883, V-B:TYR:539:CE2:9848, V-A:ASP:366:CB:3212, H-B:LYS:534:NZ:9795, V-A:TYR:539:CE1:4875, V-B:TYR:539:CD2:9846, H-B:TYR:531:OH:9767, V-B:TYR:539:C:9839, V-B:ASP:366:CG:8185, H-B:TYR:539:N:9842, V-B:PRO:540:CA:9855, V-B:PRO:540:N:9856, V-A:TYR:539:C:4867, V-B:LEU:363:CD1:8161, V-B:TYR:531:CE2:9765, V-B:ILE:538:CA:9832, V-B:ILE:538:CD1:9837, V-A:TYR:531:CE2:4793, V-A:PRO:540:CB:4885, V-A:LEU:363:CD1:3189, H-A:TYR:539:N:4870, V-A:PRO:540:N:4884, V-B:PRO:540:CD:9859, V-B:ILE:538:CG2:9835, V-A:PRO:540:CG:4886, V-A:LEU:363:CB:3187, V-A:LEU:363:CA:3185, V-A:TYR:531:CZ:4794, V-A:LEU:363:CG:3188"]

$$$$
2b_Grossjean_2025
     RDKit          3D

 28 29  0  0  0  0  0  0  0  0999 V2000
  128.6290  132.6180   57.1210 C   0  0  0  0  0  0  0  0  0  0  0  0
  129.3720  133.0010   55.9720 O   0  0  0  0  0  0  0  0  0  0  0  0
  130.6710  132.6350   55.8240 C   0  0  0  0  0  0  0  0  0  0  0  0
  131.5430  133.3870   55.3780 O   0  0  0  0  0  0  0  0  0  0  0  0
  130.9410  131.2220   56.2550 C   0  0  0  0  0  0  0  0  0  0  0  0
  131.9890  130.9000   57.1290 C   0  0  0  0  0  0  0  0  0  0  0  0
  132.2140  129.5790   57.5070 C   0  0  0  0  0  0  0  0  0  0  0  0
  131.3960  128.5570   57.0270 C   0  0  0  0  0  0  0  0  0  0  0  0
  131.7160  127.2580   57.4670 N   0  0  0  0  0  0  0  0  0  0  0  0
  132.3560  126.2610   56.8200 C   0  0  0  0  0  0  0  0  0  0  0  0
  132.7700  126.3140   55.6610 O   0  0  0  0  0  0  0  0  0  0  0  0
  132.5450  124.9740   57.6280 C   0  0  0  0  0  0  0  0  0  0  0  0
  131.7940  125.0530   59.2880 S   0  0  0  0  0  0  0  0  0  0  0  0
  130.3780  123.9640   59.3690 C   0  0  0  0  0  0  0  0  0  0  0  0
  130.3750  123.0770   60.3970 N   0  0  0  0  0  0  0  0  0  0  0  0
  129.3370  122.2200   60.5170 C   0  0  0  0  0  0  0  0  0  0  0  0
  129.4160  121.2530   61.6840 C   0  0  0  0  0  0  0  0  0  0  0  0
  128.2620  122.2120   59.6330 C   0  0  0  0  0  0  0  0  0  0  0  0
  128.2410  123.1250   58.5670 C   0  0  0  0  0  0  0  0  0  0  0  0
  127.0420  123.1070   57.6000 C   0  0  0  0  0  0  0  0  0  0  0  0
  127.3690  122.4620   56.4790 F   0  0  0  0  0  0  0  0  0  0  0  0
  126.0040  122.4880   58.1670 F   0  0  0  0  0  0  0  0  0  0  0  0
  126.6370  124.3320   57.2550 F   0  0  0  0  0  0  0  0  0  0  0  0
  129.3260  124.0270   58.4250 C   0  0  0  0  0  0  0  0  0  0  0  0
  129.3590  124.9970   57.3270 C   0  0  0  0  0  0  0  0  0  0  0  0
  129.3840  125.7640   56.4600 N   0  0  0  0  0  0  0  0  0  0  0  0
  130.3510  128.8690   56.1450 C   0  0  0  0  0  0  0  0  0  0  0  0
  130.1280  130.1900   55.7670 C   0  0  0  0  0  0  0  0  0  0  0  0
  1  2  1  0
  2  3  1  0
  3  4  2  0
  3  5  1  0
  5  6  2  0
  6  7  1  0
  7  8  2  0
  8  9  1  0
  9 10  1  0
 10 11  2  0
 10 12  1  0
 12 13  1  0
 13 14  1  0
 14 15  2  0
 15 16  1  0
 16 17  1  0
 16 18  2  0
 18 19  1  0
 19 20  1  0
 20 21  1  0
 20 22  1  0
 20 23  1  0
 19 24  2  0
 24 25  1  0
 25 26  3  0
  8 27  1  0
 27 28  2  0
 28  5  1  0
 24 14  1  0
M  END
>  <Binding energies>  (17) 
[-6.78]

>  <Ligand effiencies>  (17) 
[-0.23379310344827586]

>  <Interactions>  (17) 
["V-A:ASP:366:CA:3210, V-A:ASP:366:CG:3213, V-B:TYR:539:CE2:9848, V-A:ASP:366:CB:3212, V-B:TYR:539:CZ:9849, H-A:TYR:531:OH:4795, V-A:TYR:539:CE1:4875, V-B:TYR:539:CD2:9846, V-B:TYR:539:CD1:9845, V-B:TYR:539:CG:9844, V-B:TYR:539:CE1:9847, H-B:TYR:539:OH:9850, V-B:TYR:539:C:9839, V-B:PRO:540:CB:9857, V-B:PRO:540:CA:9855, V-B:PRO:540:N:9856, V-A:TYR:539:CD1:4873, V-A:TYR:539:C:4867, H-A:ASP:366:OD1:3214, V-A:PRO:540:CD:4887, V-A:TYR:539:CD2:4874, V-A:ILE:538:CB:4862, H-A:TYR:539:N:4870, V-A:PRO:540:N:4884, V-A:TYR:539:CG:4872, V-B:PRO:540:CG:9858, V-B:TYR:539:CA:9841, V-B:PRO:540:CD:9859, V-B:ALA:541:CB:9864"]

$$$$
2c_Grossjean_2025
     RDKit          3D

 26 27  0  0  0  0  0  0  0  0999 V2000
  132.2090  132.6050   55.3910 C   0  0  0  0  0  0  0  0  0  0  0  0
  130.8740  133.0040   55.0980 O   0  0  0  0  0  0  0  0  0  0  0  0
  129.8550  132.6240   55.9490 C   0  0  0  0  0  0  0  0  0  0  0  0
  128.6610  132.2240   55.3510 C   0  0  0  0  0  0  0  0  0  0  0  0
  127.5760  131.8240   56.1260 C   0  0  0  0  0  0  0  0  0  0  0  0
  127.6750  131.8310   57.5250 C   0  0  0  0  0  0  0  0  0  0  0  0
  126.6410  131.4270   58.3890 N   0  0  0  0  0  0  0  0  0  0  0  0
  125.4070  130.9760   58.0740 C   0  0  0  0  0  0  0  0  0  0  0  0
  124.9610  130.8970   56.9280 O   0  0  0  0  0  0  0  0  0  0  0  0
  124.5350  130.5870   59.2770 C   0  0  0  0  0  0  0  0  0  0  0  0
  124.2070  131.9260   60.4760 S   0  0  0  0  0  0  0  0  0  0  0  0
  125.7220  132.8200   60.7980 C   0  0  0  0  0  0  0  0  0  0  0  0
  126.7780  132.0640   61.1950 N   0  0  0  0  0  0  0  0  0  0  0  0
  127.9530  132.6730   61.4650 C   0  0  0  0  0  0  0  0  0  0  0  0
  129.0770  131.7630   61.9180 C   0  0  0  0  0  0  0  0  0  0  0  0
  128.1300  134.0490   61.3430 C   0  0  0  0  0  0  0  0  0  0  0  0
  127.0570  134.8490   60.9270 C   0  0  0  0  0  0  0  0  0  0  0  0
  127.2700  136.3700   60.7960 C   0  0  0  0  0  0  0  0  0  0  0  0
  128.5540  136.6700   60.9970 F   0  0  0  0  0  0  0  0  0  0  0  0
  126.9150  136.7790   59.5770 F   0  0  0  0  0  0  0  0  0  0  0  0
  126.5510  137.0690   61.6790 F   0  0  0  0  0  0  0  0  0  0  0  0
  125.8160  134.2240   60.6460 C   0  0  0  0  0  0  0  0  0  0  0  0
  124.6580  135.0110   60.2090 C   0  0  0  0  0  0  0  0  0  0  0  0
  123.7450  135.6330   59.8640 N   0  0  0  0  0  0  0  0  0  0  0  0
  128.8730  132.2140   58.1290 C   0  0  0  0  0  0  0  0  0  0  0  0
  129.9560  132.6130   57.3500 C   0  0  0  0  0  0  0  0  0  0  0  0
  1  2  1  0
  2  3  1  0
  3  4  2  0
  4  5  1  0
  5  6  2  0
  6  7  1  0
  7  8  1  0
  8  9  2  0
  8 10  1  0
 10 11  1  0
 11 12  1  0
 12 13  2  0
 13 14  1  0
 14 15  1  0
 14 16  2  0
 16 17  1  0
 17 18  1  0
 18 19  1  0
 18 20  1  0
 18 21  1  0
 17 22  2  0
 22 23  1  0
 23 24  3  0
  6 25  1  0
 25 26  2  0
 26  3  1  0
 22 12  1  0
M  END
>  <Binding energies>  (18) 
[-6.42]

>  <Ligand effiencies>  (18) 
[-0.23777777777777778]

>  <Interactions>  (18) 
["V-A:TYR:539:CZ:4877, V-A:ALA:541:CB:4892, V-B:ILE:369:CG2:8209, V-B:LEU:475:CD2:9231, V-A:PRO:540:CA:4883, V-A:TYR:539:CE1:4875, H-A:TYR:539:OH:4878, V-B:ASP:366:CB:8184, V-B:ASP:366:CA:8182, V-A:TYR:539:CD1:4873, V-A:TYR:539:C:4867, V-A:PRO:540:C:4881, V-A:TYR:539:CE2:4876, V-A:PRO:540:CD:4887, V-A:TYR:531:CE2:4793, V-A:PRO:540:CB:4885, V-A:LEU:363:CD1:3189, V-A:TYR:539:CD2:4874, V-A:ILE:538:CB:4862, H-A:TYR:539:N:4870, V-A:PRO:540:N:4884, V-A:TYR:539:CG:4872, V-A:ILE:538:CG2:4863, V-B:SER:385:CA:8379, V-A:ALA:541:CA:4890, V-A:TYR:539:CB:4871, V-B:PRO:482:CB:9298, V-B:PRO:482:CG:9299, V-A:TYR:539:CA:4869, H-B:SER:385:OG:8382, V-B:LEU:475:CD1:9230, V-B:LEU:475:CG:9229"]

$$$$
2d_Ghoteimi_2023
     RDKit          3D

 38 42  0  0  0  0  0  0  0  0999 V2000
  128.5850  132.3820   59.8070 C   0  0  0  0  0  0  0  0  0  0  0  0
  127.5240  133.3130   59.9560 O   0  0  0  0  0  0  0  0  0  0  0  0
  127.4630  134.1160   61.0380 C   0  0  0  0  0  0  0  0  0  0  0  0
  127.6230  135.3400   61.0320 O   0  0  0  0  0  0  0  0  0  0  0  0
  127.1570  133.3140   62.3120 C   0  0  0  0  0  0  0  0  0  0  0  0
  125.6340  132.3270   62.1210 S   0  0  0  0  0  0  0  0  0  0  0  0
  126.0680  130.6020   62.2190 C   0  0  0  0  0  0  0  0  0  0  0  0
  126.4250  130.2100   63.4660 N   0  0  0  0  0  0  0  0  0  0  0  0
  126.7880  128.9210   63.6860 C   0  0  0  0  0  0  0  0  0  0  0  0
  127.1870  128.5680   65.0830 C   0  0  0  0  0  0  0  0  0  0  0  0
  126.2410  128.0800   65.9920 C   0  0  0  0  0  0  0  0  0  0  0  0
  126.6050  127.7490   67.2940 C   0  0  0  0  0  0  0  0  0  0  0  0
  127.9320  127.8830   67.7320 C   0  0  0  0  0  0  0  0  0  0  0  0
  128.3110  127.5720   69.0430 N   0  0  0  0  0  0  0  0  0  0  0  0
  127.8250  126.3520   69.7180 C   0  0  0  0  0  0  0  0  0  0  0  0
  128.0350  126.3670   71.2460 C   0  0  0  0  0  0  0  0  0  0  0  0
  129.4030  126.5980   71.5440 O   0  0  0  0  0  0  0  0  0  0  0  0
  129.8440  127.8450   71.0340 C   0  0  0  0  0  0  0  0  0  0  0  0
  129.6820  127.8780   69.5000 C   0  0  0  0  0  0  0  0  0  0  0  0
  128.8730  128.3850   66.8220 C   0  0  0  0  0  0  0  0  0  0  0  0
  128.5090  128.7180   65.5210 C   0  0  0  0  0  0  0  0  0  0  0  0
  126.7950  127.9870   62.6470 C   0  0  0  0  0  0  0  0  0  0  0  0
  126.3980  128.3570   61.3570 C   0  0  0  0  0  0  0  0  0  0  0  0
  126.4040  127.2990   60.3030 C   0  0  0  0  0  0  0  0  0  0  0  0
  126.3870  125.9500   60.6610 C   0  0  0  0  0  0  0  0  0  0  0  0
  126.3790  124.9570   59.6870 C   0  0  0  0  0  0  0  0  0  0  0  0
  126.3920  125.2850   58.3220 C   0  0  0  0  0  0  0  0  0  0  0  0
  126.3720  124.3050   57.3260 N   0  0  0  0  0  0  0  0  0  0  0  0
  125.2630  123.3370   57.2210 C   0  0  0  0  0  0  0  0  0  0  0  0
  125.2290  122.5820   55.8750 C   0  0  0  0  0  0  0  0  0  0  0  0
  126.4780  121.9490   55.6430 O   0  0  0  0  0  0  0  0  0  0  0  0
  127.5410  122.8880   55.5960 C   0  0  0  0  0  0  0  0  0  0  0  0
  127.6350  123.6480   56.9360 C   0  0  0  0  0  0  0  0  0  0  0  0
  126.3910  126.6420   57.9710 C   0  0  0  0  0  0  0  0  0  0  0  0
  126.3980  127.6360   58.9460 C   0  0  0  0  0  0  0  0  0  0  0  0
  126.0160  129.7030   61.1280 C   0  0  0  0  0  0  0  0  0  0  0  0
  125.5740  130.1350   59.7990 C   0  0  0  0  0  0  0  0  0  0  0  0
  125.2250  130.4720   58.7470 N   0  0  0  0  0  0  0  0  0  0  0  0
  1  2  1  0
  2  3  1  0
  3  4  2  0
  3  5  1  0
  5  6  1  0
  6  7  1  0
  7  8  2  0
  8  9  1  0
  9 10  1  0
 10 11  2  0
 11 12  1  0
 12 13  2  0
 13 14  1  0
 14 15  1  0
 15 16  1  0
 16 17  1  0
 17 18  1  0
 18 19  1  0
 13 20  1  0
 20 21  2  0
  9 22  2  0
 22 23  1  0
 23 24  1  0
 24 25  2  0
 25 26  1  0
 26 27  2  0
 27 28  1  0
 28 29  1  0
 29 30  1  0
 30 31  1  0
 31 32  1  0
 32 33  1  0
 27 34  1  0
 34 35  2  0
 23 36  2  0
 36 37  1  0
 37 38  3  0
 36  7  1  0
 21 10  1  0
 35 24  1  0
 19 14  1  0
 33 28  1  0
M  END
>  <Binding energies>  (19) 
[-7.09]

>  <Ligand effiencies>  (19) 
[-0.18657894736842104]

>  <Interactions>  (19) 
["V-A:ALA:541:CB:4892, V-B:MET:535:CE:9807, V-B:LEU:475:CD2:9231, V-A:PRO:540:CA:4883, V-A:GLU:543:CD:4908, V-B:TYR:539:CZ:9849, H-B:TYR:484:OH:9320, V-A:GLU:543:CG:4907, V-B:ARG:545:CZ:9898, V-B:TYR:539:CD1:9845, V-B:TYR:539:CG:9844, V-B:TYR:539:CE1:9847, V-B:ASP:366:CG:8185, H-B:TYR:539:N:9842, V-B:PRO:540:CB:9857, V-B:LEU:363:CD1:8161, V-B:TYR:531:CE2:9765, V-B:GLU:543:CD:9880, V-B:ILE:538:CA:9832, V-B:ILE:538:CD1:9837, V-A:HIS:456:CD2:4068, V-B:PRO:540:CD:9859, V-B:ILE:538:CG2:9835, V-B:ARG:545:CG:9894, V-B:HIS:456:CE1:9042, V-A:GLU:543:CB:4906, V-A:HIS:456:CE1:4070, V-B:GLU:543:CB:9878, H-B:LYS:547:NZ:9923, V-B:HIS:456:CD2:9040, V-B:GLY:544:C:9884, V-B:GLU:543:C:9874"]

$$$$
2d_Grossjean_2025
     RDKit          3D

 24 25  0  0  0  0  0  0  0  0999 V2000
  133.1920  125.1510   64.2290 C   0  0  0  0  0  0  0  0  0  0  0  0
  132.5010  124.9880   62.8890 C   0  0  0  0  0  0  0  0  0  0  0  0
  133.2220  124.7350   61.7230 C   0  0  0  0  0  0  0  0  0  0  0  0
  132.5370  124.5870   60.5080 C   0  0  0  0  0  0  0  0  0  0  0  0
  133.3500  124.2970   59.2310 C   0  0  0  0  0  0  0  0  0  0  0  0
  133.0840  123.0670   58.7910 F   0  0  0  0  0  0  0  0  0  0  0  0
  133.0320  125.1750   58.2780 F   0  0  0  0  0  0  0  0  0  0  0  0
  134.6670  124.3780   59.4280 F   0  0  0  0  0  0  0  0  0  0  0  0
  131.1240  124.7080   60.5070 C   0  0  0  0  0  0  0  0  0  0  0  0
  130.3590  124.5150   59.2720 C   0  0  0  0  0  0  0  0  0  0  0  0
  129.7550  124.3620   58.2970 N   0  0  0  0  0  0  0  0  0  0  0  0
  130.4790  124.9900   61.7340 C   0  0  0  0  0  0  0  0  0  0  0  0
  128.7180  125.2050   61.9070 S   0  0  0  0  0  0  0  0  0  0  0  0
  127.9470  123.5680   62.1260 C   0  0  0  0  0  0  0  0  0  0  0  0
  126.8640  123.2710   61.0840 C   0  0  0  0  0  0  0  0  0  0  0  0
  125.7590  122.8800   61.4640 O   0  0  0  0  0  0  0  0  0  0  0  0
  127.2310  123.4400   59.7970 N   0  0  0  0  0  0  0  0  0  0  0  0
  126.4730  123.2560   58.6250 C   0  0  0  0  0  0  0  0  0  0  0  0
  127.1640  122.7510   57.5210 C   0  0  0  0  0  0  0  0  0  0  0  0
  126.5020  122.5400   56.3150 C   0  0  0  0  0  0  0  0  0  0  0  0
  125.1460  122.8440   56.2100 C   0  0  0  0  0  0  0  0  0  0  0  0
  124.4500  123.3600   57.2990 C   0  0  0  0  0  0  0  0  0  0  0  0
  125.1090  123.5710   58.5070 C   0  0  0  0  0  0  0  0  0  0  0  0
  131.1540  125.1090   62.9030 N   0  0  0  0  0  0  0  0  0  0  0  0
  1  2  1  0
  2  3  2  0
  3  4  1  0
  4  5  1  0
  5  6  1  0
  5  7  1  0
  5  8  1  0
  4  9  2  0
  9 10  1  0
 10 11  3  0
  9 12  1  0
 12 13  1  0
 13 14  1  0
 14 15  1  0
 15 16  2  0
 15 17  1  0
 17 18  1  0
 18 19  2  0
 19 20  1  0
 20 21  2  0
 21 22  1  0
 22 23  2  0
 12 24  2  0
 24  2  1  0
 23 18  1  0
M  END
>  <Binding energies>  (20) 
[-6.39]

>  <Ligand effiencies>  (20) 
[-0.2556]

>  <Interactions>  (20) 
["V-A:ASP:366:CA:3210, V-A:ILE:369:CB:3236, V-A:ASP:366:CG:3213, V-B:TYR:539:CE2:9848, V-A:ASP:366:CB:3212, V-B:TYR:539:CZ:9849, V-A:ASP:366:C:3208, V-A:ILE:369:CG2:3237, V-B:TYR:539:CD2:9846, V-A:ARG:545:CZ:4926, V-A:TYR:484:CZ:4347, H-B:TYR:539:OH:9850, V-B:TYR:539:C:9839, V-B:PRO:540:CB:9857, V-B:PRO:540:CA:9855, H-B:ALA:541:N:9863, V-B:PRO:540:N:9856, V-A:ILE:369:CD1:3239, V-B:LEU:363:CD1:8161, V-B:TYR:531:CZ:9766, V-B:TYR:531:CE2:9765, V-B:GLU:543:CD:9880, V-B:ILE:538:CA:9832, V-B:ILE:538:CD1:9837, V-B:GLU:543:CG:9879, V-B:PRO:540:CD:9859, H-A:TYR:484:OH:4348, V-A:TYR:484:CE2:4346, V-A:ILE:369:CG1:3238"]

$$$$
2e_Grossjean_2025
     RDKit          3D

 25 26  0  0  0  0  0  0  0  0999 V2000
  123.2470  129.5960   67.0170 C   0  0  0  0  0  0  0  0  0  0  0  0
  124.3480  129.4120   65.9900 C   0  0  0  0  0  0  0  0  0  0  0  0
  125.4910  128.6590   66.2700 C   0  0  0  0  0  0  0  0  0  0  0  0
  126.4570  128.5240   65.2720 C   0  0  0  0  0  0  0  0  0  0  0  0
  126.2600  129.1380   64.0330 C   0  0  0  0  0  0  0  0  0  0  0  0
  125.0960  129.8860   63.8230 C   0  0  0  0  0  0  0  0  0  0  0  0
  124.9290  130.4460   62.5450 N   0  0  0  0  0  0  0  0  0  0  0  0
  123.8110  130.4700   61.7850 C   0  0  0  0  0  0  0  0  0  0  0  0
  122.7070  130.0520   62.1390 O   0  0  0  0  0  0  0  0  0  0  0  0
  123.9800  131.0250   60.3670 C   0  0  0  0  0  0  0  0  0  0  0  0
  123.6690  132.8180   60.2940 S   0  0  0  0  0  0  0  0  0  0  0  0
  125.2340  133.5870   60.6490 C   0  0  0  0  0  0  0  0  0  0  0  0
  126.1120  132.7990   61.3170 N   0  0  0  0  0  0  0  0  0  0  0  0
  127.3100  133.3200   61.6670 C   0  0  0  0  0  0  0  0  0  0  0  0
  128.2430  132.3850   62.4110 C   0  0  0  0  0  0  0  0  0  0  0  0
  127.6740  134.6330   61.3730 C   0  0  0  0  0  0  0  0  0  0  0  0
  126.7730  135.4640   60.6900 C   0  0  0  0  0  0  0  0  0  0  0  0
  127.1820  136.9190   60.3930 C   0  0  0  0  0  0  0  0  0  0  0  0
  126.7880  137.2630   59.1660 F   0  0  0  0  0  0  0  0  0  0  0  0
  126.6140  137.7410   61.2760 F   0  0  0  0  0  0  0  0  0  0  0  0
  128.5020  137.1070   60.4580 F   0  0  0  0  0  0  0  0  0  0  0  0
  125.5160  134.9310   60.3130 C   0  0  0  0  0  0  0  0  0  0  0  0
  124.5190  135.7560   59.6230 C   0  0  0  0  0  0  0  0  0  0  0  0
  123.7320  136.4090   59.0800 N   0  0  0  0  0  0  0  0  0  0  0  0
  124.1430  130.0160   64.7910 N   0  0  0  0  0  0  0  0  0  0  0  0
  1  2  1  0
  2  3  2  0
  3  4  1  0
  4  5  2  0
  5  6  1  0
  6  7  1  0
  7  8  1  0
  8  9  2  0
  8 10  1  0
 10 11  1  0
 11 12  1  0
 12 13  2  0
 13 14  1  0
 14 15  1  0
 14 16  2  0
 16 17  1  0
 17 18  1  0
 18 19  1  0
 18 20  1  0
 18 21  1  0
 17 22  2  0
 22 23  1  0
 23 24  3  0
  6 25  2  0
 25  2  1  0
 22 12  1  0
M  END
>  <Binding energies>  (21) 
[-7.38]

>  <Ligand effiencies>  (21) 
[-0.28384615384615386]

>  <Interactions>  (21) 
["V-A:ALA:541:CB:4892, V-B:ILE:369:CG2:8209, V-B:LEU:475:CD2:9231, V-B:ILE:369:CD1:8211, H-B:GLY:454:N:9022, H-B:TYR:484:OH:9320, V-A:TYR:539:CE1:4875, V-B:ARG:545:CZ:9898, V-B:ASP:366:CG:8185, V-A:TYR:539:CD1:4873, V-A:TYR:539:C:4867, V-A:PRO:540:C:4881, V-B:GLU:543:CD:9880, V-A:PRO:540:N:4884, V-A:TYR:539:CG:4872, V-B:GLY:454:CA:9021, V-B:SER:385:CB:8381, V-B:SER:385:CA:8379, V-B:ARG:545:CD:9895, V-B:ARG:545:CG:9894, V-B:TYR:484:CZ:9319, V-B:TYR:484:CE1:9317, V-B:HIS:456:CE1:9042, V-B:HIS:383:CD2:8364, V-B:GLY:453:C:9014, V-A:TYR:539:CB:4871, V-B:PRO:482:CB:9298, V-B:PRO:482:CG:9299, V-B:ILE:455:C:9024, H-B:ARG:545:NH1:9899, V-B:GLY:453:CA:9016, V-A:TYR:539:CA:4869, H-B:SER:385:OG:8382, V-B:LEU:475:CG:9229, V-B:ARG:545:CB:9893"]

$$$$
2f_Grossjean_2025
     RDKit          3D

 24 25  0  0  0  0  0  0  0  0999 V2000
  133.2000  123.2980   60.1450 C   0  0  0  0  0  0  0  0  0  0  0  0
  132.2460  122.1680   60.4810 C   0  0  0  0  0  0  0  0  0  0  0  0
  132.4230  120.8860   59.9650 C   0  0  0  0  0  0  0  0  0  0  0  0
  131.5080  119.8750   60.2990 C   0  0  0  0  0  0  0  0  0  0  0  0
  131.7140  118.4670   59.7090 C   0  0  0  0  0  0  0  0  0  0  0  0
  132.0430  117.6080   60.6760 F   0  0  0  0  0  0  0  0  0  0  0  0
  130.5910  118.0500   59.1240 F   0  0  0  0  0  0  0  0  0  0  0  0
  132.6840  118.4270   58.7920 F   0  0  0  0  0  0  0  0  0  0  0  0
  130.4290  120.1950   61.1620 C   0  0  0  0  0  0  0  0  0  0  0  0
  129.4170  119.1900   61.4940 C   0  0  0  0  0  0  0  0  0  0  0  0
  128.6170  118.3950   61.7570 N   0  0  0  0  0  0  0  0  0  0  0  0
  130.3440  121.5180   61.6590 C   0  0  0  0  0  0  0  0  0  0  0  0
  129.0660  122.0910   62.7600 S   0  0  0  0  0  0  0  0  0  0  0  0
  128.2820  123.5550   62.0030 C   0  0  0  0  0  0  0  0  0  0  0  0
  127.1330  123.2480   61.0310 C   0  0  0  0  0  0  0  0  0  0  0  0
  126.0190  122.9350   61.4540 O   0  0  0  0  0  0  0  0  0  0  0  0
  127.4660  123.3360   59.7250 N   0  0  0  0  0  0  0  0  0  0  0  0
  126.6680  123.1340   58.5830 C   0  0  0  0  0  0  0  0  0  0  0  0
  125.3320  123.5500   58.4360 C   0  0  0  0  0  0  0  0  0  0  0  0
  124.6540  123.2890   57.2440 C   0  0  0  0  0  0  0  0  0  0  0  0
  125.3320  122.6220   56.2230 C   0  0  0  0  0  0  0  0  0  0  0  0
  126.6220  122.2180   56.3360 N   0  0  0  0  0  0  0  0  0  0  0  0
  127.2680  122.4790   57.5010 C   0  0  0  0  0  0  0  0  0  0  0  0
  131.2250  122.4860   61.3080 N   0  0  0  0  0  0  0  0  0  0  0  0
  1  2  1  0
  2  3  2  0
  3  4  1  0
  4  5  1  0
  5  6  1  0
  5  7  1  0
  5  8  1  0
  4  9  2  0
  9 10  1  0
 10 11  3  0
  9 12  1  0
 12 13  1  0
 13 14  1  0
 14 15  1  0
 15 16  2  0
 15 17  1  0
 17 18  1  0
 18 19  2  0
 19 20  1  0
 20 21  2  0
 21 22  1  0
 22 23  2  0
 12 24  2  0
 24  2  1  0
 23 18  1  0
M  END
>  <Binding energies>  (22) 
[-6.99]

>  <Ligand effiencies>  (22) 
[-0.2796]

>  <Interactions>  (22) 
["V-B:TYR:539:CE2:9848, V-A:ILE:369:CG2:3237, V-B:TYR:539:CD2:9846, V-A:LEU:475:CD2:4259, V-B:TYR:539:CG:9844, V-B:TYR:539:C:9839, H-B:TYR:539:N:9842, V-B:PRO:540:CB:9857, V-B:PRO:540:CA:9855, H-B:ALA:541:N:9863, V-B:PRO:540:N:9856, V-A:ILE:369:CD1:3239, V-B:LEU:363:CD1:8161, V-B:TYR:531:CZ:9766, V-B:TYR:531:CE2:9765, V-B:GLU:543:CD:9880, V-B:ILE:538:CD1:9837, V-B:PRO:540:C:9853, V-B:TYR:539:CA:9841, V-B:PRO:540:CD:9859, V-B:TYR:539:CB:9843, V-A:LEU:475:CD1:4258, V-B:ALA:541:CB:9864, V-B:ILE:538:CG2:9835, H-A:TYR:484:OH:4348, V-A:SER:385:CB:3409, V-A:SER:385:CA:3407, V-A:LEU:373:CD1:3280, V-A:PRO:482:CB:4326, V-A:LEU:475:CG:4257"]

$$$$
2g_Grossjean_2025
     RDKit          3D

 25 26  0  0  0  0  0  0  0  0999 V2000
  127.4870  122.5930   55.2830 C   0  0  0  0  0  0  0  0  0  0  0  0
  126.9910  122.9290   56.6760 C   0  0  0  0  0  0  0  0  0  0  0  0
  125.6340  123.0810   56.9500 C   0  0  0  0  0  0  0  0  0  0  0  0
  125.2250  123.3990   58.2540 C   0  0  0  0  0  0  0  0  0  0  0  0
  123.7200  123.5720   58.5360 C   0  0  0  0  0  0  0  0  0  0  0  0
  123.0330  122.5470   58.0290 F   0  0  0  0  0  0  0  0  0  0  0  0
  123.5100  123.6230   59.8520 F   0  0  0  0  0  0  0  0  0  0  0  0
  123.2190  124.6890   58.0040 F   0  0  0  0  0  0  0  0  0  0  0  0
  126.2150  123.5480   59.2580 C   0  0  0  0  0  0  0  0  0  0  0  0
  125.8470  123.9360   60.6230 C   0  0  0  0  0  0  0  0  0  0  0  0
  125.5550  124.2420   61.7000 N   0  0  0  0  0  0  0  0  0  0  0  0
  127.5690  123.3450   58.8930 C   0  0  0  0  0  0  0  0  0  0  0  0
  128.9330  123.4680   60.0300 S   0  0  0  0  0  0  0  0  0  0  0  0
  128.7310  122.1460   61.2730 C   0  0  0  0  0  0  0  0  0  0  0  0
  129.9840  121.2910   61.5090 C   0  0  0  0  0  0  0  0  0  0  0  0
  130.7060  121.4670   62.4920 O   0  0  0  0  0  0  0  0  0  0  0  0
  130.2310  120.3560   60.5730 N   0  0  0  0  0  0  0  0  0  0  0  0
  131.3550  119.4190   60.5830 C   0  0  0  0  0  0  0  0  0  0  0  0
  131.0940  118.1160   59.8350 C   0  0  0  0  0  0  0  0  0  0  0  0
  130.0060  117.3140   60.1930 C   0  0  0  0  0  0  0  0  0  0  0  0
  129.7440  116.1420   59.4870 C   0  0  0  0  0  0  0  0  0  0  0  0
  130.5630  115.7820   58.4200 C   0  0  0  0  0  0  0  0  0  0  0  0
  131.6410  116.5840   58.0500 C   0  0  0  0  0  0  0  0  0  0  0  0
  131.9040  117.7550   58.7550 C   0  0  0  0  0  0  0  0  0  0  0  0
  127.9470  123.0610   57.6230 N   0  0  0  0  0  0  0  0  0  0  0  0
  1  2  1  0
  2  3  2  0
  3  4  1  0
  4  5  1  0
  5  6  1  0
  5  7  1  0
  5  8  1  0
  4  9  2  0
  9 10  1  0
 10 11  3  0
  9 12  1  0
 12 13  1  0
 13 14  1  0
 14 15  1  0
 15 16  2  0
 15 17  1  0
 17 18  1  0
 18 19  1  0
 19 20  2  0
 20 21  1  0
 21 22  2  0
 22 23  1  0
 23 24  2  0
 12 25  2  0
 25  2  1  0
 24 19  1  0
M  END
>  <Binding energies>  (23) 
[-8.4]

>  <Ligand effiencies>  (23) 
[-0.3230769230769231]

>  <Interactions>  (23) 
["V-B:MET:535:CE:9807, V-B:TYR:539:CE2:9848, V-B:TYR:539:CZ:9849, V-B:TYR:539:CD2:9846, V-A:LEU:475:CD2:4259, V-B:TYR:539:CD1:9845, V-B:TYR:539:CG:9844, V-B:TYR:539:CE1:9847, V-B:TYR:539:C:9839, V-B:ASP:366:CG:8185, V-B:PRO:540:CB:9857, V-B:PRO:540:CA:9855, V-B:ASP:366:CB:8184, V-B:PRO:540:N:9856, V-B:LEU:363:CD1:8161, V-B:TYR:531:CZ:9766, V-B:TYR:531:CE2:9765, V-B:ILE:538:CA:9832, V-B:PRO:540:CG:9858, V-B:PRO:540:CD:9859, V-B:TYR:539:CB:9843, V-B:ALA:541:CB:9864, H-A:TYR:484:OH:4348, H-B:ARG:545:NH2:9900, V-B:LEU:363:CA:8157, V-B:LEU:363:CB:8159, H-B:TYR:539:O:9840, V-A:SER:385:CB:3409, V-B:LEU:363:CG:8160, V-B:VAL:344:CG2:7974, V-B:VAL:344:CG1:7973, V-A:LEU:373:CD1:3280, V-A:PRO:482:CB:4326, V-A:HIS:383:CE1:3394, V-A:PRO:482:CG:4327, V-A:LEU:373:CD2:3281, V-B:ILE:343:CG2:7964, V-B:LEU:363:C:8155, V-B:ASN:362:C:8144, V-B:ILE:343:CB:7963, V-B:LEU:363:CD2:8162"]

$$$$
2h_Grossjean_2025
     RDKit          3D

 31 32  0  0  0  0  0  0  0  0999 V2000
  126.1340  132.5850   60.5310 C   0  0  0  0  0  0  0  0  0  0  0  0
  125.8790  131.6170   59.5190 O   0  0  0  0  0  0  0  0  0  0  0  0
  126.6840  131.5810   58.3950 C   0  0  0  0  0  0  0  0  0  0  0  0
  127.8600  132.3340   58.2490 C   0  0  0  0  0  0  0  0  0  0  0  0
  128.6240  132.2390   57.0890 C   0  0  0  0  0  0  0  0  0  0  0  0
  128.2340  131.3920   56.0500 C   0  0  0  0  0  0  0  0  0  0  0  0
  129.1000  131.2890   54.7960 C   0  0  0  0  0  0  0  0  0  0  0  0
  130.5330  131.2050   55.0780 N   0  0  0  0  0  0  0  0  0  0  0  0
  131.2930  132.2240   55.5180 C   0  0  0  0  0  0  0  0  0  0  0  0
  130.8690  133.3730   55.6540 O   0  0  0  0  0  0  0  0  0  0  0  0
  132.7470  131.8670   55.8570 C   0  0  0  0  0  0  0  0  0  0  0  0
  132.9980  131.1510   57.5160 S   0  0  0  0  0  0  0  0  0  0  0  0
  131.5990  130.0990   57.8390 C   0  0  0  0  0  0  0  0  0  0  0  0
  131.3570  129.1960   56.8570 N   0  0  0  0  0  0  0  0  0  0  0  0
  130.3050  128.3590   56.9920 C   0  0  0  0  0  0  0  0  0  0  0  0
  130.0900  127.3820   55.8520 C   0  0  0  0  0  0  0  0  0  0  0  0
  129.4620  128.3820   58.1010 C   0  0  0  0  0  0  0  0  0  0  0  0
  129.7090  129.2950   59.1370 C   0  0  0  0  0  0  0  0  0  0  0  0
  128.7710  129.3000   60.3600 C   0  0  0  0  0  0  0  0  0  0  0  0
  129.3460  128.6550   61.3760 F   0  0  0  0  0  0  0  0  0  0  0  0
  128.4790  130.5320   60.7830 F   0  0  0  0  0  0  0  0  0  0  0  0
  127.6210  128.6960   60.0590 F   0  0  0  0  0  0  0  0  0  0  0  0
  130.8140  130.1760   59.0140 C   0  0  0  0  0  0  0  0  0  0  0  0
  131.1490  131.1080   60.0940 C   0  0  0  0  0  0  0  0  0  0  0  0
  131.4140  131.8400   60.9500 N   0  0  0  0  0  0  0  0  0  0  0  0
  127.0490  130.6510   56.1730 C   0  0  0  0  0  0  0  0  0  0  0  0
  126.6560  129.8170   55.1530 O   0  0  0  0  0  0  0  0  0  0  0  0
  126.9600  128.4450   55.3670 C   0  0  0  0  0  0  0  0  0  0  0  0
  126.2890  130.7340   57.3520 C   0  0  0  0  0  0  0  0  0  0  0  0
  125.1370  129.9950   57.4820 O   0  0  0  0  0  0  0  0  0  0  0  0
  123.9430  130.7500   57.3320 C   0  0  0  0  0  0  0  0  0  0  0  0
  1  2  1  0
  2  3  1  0
  3  4  2  0
  4  5  1  0
  5  6  2  0
  6  7  1  0
  7  8  1  0
  8  9  1  0
  9 10  2  0
  9 11  1  0
 11 12  1  0
 12 13  1  0
 13 14  2  0
 14 15  1  0
 15 16  1  0
 15 17  2  0
 17 18  1  0
 18 19  1  0
 19 20  1  0
 19 21  1  0
 19 22  1  0
 18 23  2  0
 23 24  1  0
 24 25  3  0
  6 26  1  0
 26 27  1  0
 27 28  1  0
 26 29  2  0
 29 30  1  0
 30 31  1  0
 29  3  1  0
 23 13  1  0
M  END
>  <Binding energies>  (24) 
[-5.79]

>  <Ligand effiencies>  (24) 
[-0.1809375]

>  <Interactions>  (24) 
["V-A:TYR:539:CZ:4877, V-B:MET:535:CE:9807, V-A:PRO:540:CA:4883, H-B:LYS:534:NZ:9795, V-A:GLU:543:CD:4908, H-A:ALA:541:N:4891, H-A:TYR:531:OH:4795, V-A:TYR:539:CE1:4875, V-B:ASP:366:CB:8184, V-B:ASP:366:CA:8182, V-A:TYR:539:CD1:4873, V-A:TYR:539:C:4867, V-B:TYR:531:CZ:9766, V-A:TYR:531:CE2:4793, V-A:PRO:540:CB:4885, V-A:LEU:363:CD1:3189, V-A:ILE:538:CB:4862, H-A:TYR:539:N:4870, V-A:TYR:539:CG:4872, V-B:ASP:366:C:8180, V-B:TYR:531:CE1:9764, V-A:TYR:531:CZ:4794"]

$$$$
2i_Grossjean_2025
     RDKit          3D

 23 24  0  0  0  0  0  0  0  0999 V2000
  130.3070  125.6940   58.1910 C   0  0  0  0  0  0  0  0  0  0  0  0
  130.3380  124.5750   59.2150 C   0  0  0  0  0  0  0  0  0  0  0  0
  131.5260  123.9390   59.5660 C   0  0  0  0  0  0  0  0  0  0  0  0
  131.5020  122.9110   60.5200 C   0  0  0  0  0  0  0  0  0  0  0  0
  132.8260  122.2180   60.8960 C   0  0  0  0  0  0  0  0  0  0  0  0
  133.8490  122.8350   60.3010 F   0  0  0  0  0  0  0  0  0  0  0  0
  133.0050  122.2590   62.2170 F   0  0  0  0  0  0  0  0  0  0  0  0
  132.8610  120.9360   60.5260 F   0  0  0  0  0  0  0  0  0  0  0  0
  130.2580  122.5530   61.0980 C   0  0  0  0  0  0  0  0  0  0  0  0
  130.1760  121.4860   62.1010 C   0  0  0  0  0  0  0  0  0  0  0  0
  130.1100  120.6450   62.8930 N   0  0  0  0  0  0  0  0  0  0  0  0
  129.1000  123.2490   60.6820 C   0  0  0  0  0  0  0  0  0  0  0  0
  127.4800  122.8790   61.3340 S   0  0  0  0  0  0  0  0  0  0  0  0
  126.2980  124.0590   60.6140 C   0  0  0  0  0  0  0  0  0  0  0  0
  125.8610  123.6550   59.2050 C   0  0  0  0  0  0  0  0  0  0  0  0
  124.6590  123.6230   58.9360 O   0  0  0  0  0  0  0  0  0  0  0  0
  126.8570  123.3310   58.3510 N   0  0  0  0  0  0  0  0  0  0  0  0
  126.7170  122.9200   57.0360 C   0  0  0  0  0  0  0  0  0  0  0  0
  127.4810  123.2400   55.9040 C   0  0  0  0  0  0  0  0  0  0  0  0
  126.8890  122.5450   54.8750 C   0  0  0  0  0  0  0  0  0  0  0  0
  125.8360  121.8440   55.3610 O   0  0  0  0  0  0  0  0  0  0  0  0
  125.7450  122.0880   56.7330 N   0  0  0  0  0  0  0  0  0  0  0  0
  129.1450  124.2420   59.7570 N   0  0  0  0  0  0  0  0  0  0  0  0
  1  2  1  0
  2  3  2  0
  3  4  1  0
  4  5  1  0
  5  6  1  0
  5  7  1  0
  5  8  1  0
  4  9  2  0
  9 10  1  0
 10 11  3  0
  9 12  1  0
 12 13  1  0
 13 14  1  0
 14 15  1  0
 15 16  2  0
 15 17  1  0
 17 18  1  0
 18 19  1  0
 19 20  2  0
 20 21  1  0
 21 22  1  0
 12 23  2  0
 23  2  1  0
 22 18  2  0
M  END
>  <Binding energies>  (25) 
[-6.53]

>  <Ligand effiencies>  (25) 
[-0.27208333333333334]

>  <Interactions>  (25) 
["V-A:ILE:369:CB:3236, V-B:MET:535:CE:9807, V-B:TYR:539:CE2:9848, V-B:TYR:539:CZ:9849, V-A:ILE:369:CG2:3237, V-B:TYR:539:CD2:9846, V-A:LEU:475:CD2:4259, V-B:TYR:539:CD1:9845, V-A:TYR:484:CZ:4347, V-B:TYR:539:CE1:9847, V-B:TYR:539:C:9839, V-A:TYR:484:CE1:4345, H-B:TYR:539:N:9842, V-B:PRO:540:CB:9857, V-B:PRO:540:CA:9855, H-B:ALA:541:N:9863, V-B:PRO:540:N:9856, V-A:ILE:369:CD1:3239, V-B:ILE:538:CA:9832, V-B:ILE:538:CD1:9837, V-B:ALA:541:CB:9864, H-A:TYR:484:OH:4348, V-B:ILE:538:C:9830, V-A:SER:385:CB:3409, V-A:GLY:454:CA:4049, V-A:ILE:369:CG1:3238"]

$$$$
2k_Grossjean_2025
     RDKit          3D

 28 28  0  0  0  0  0  0  0  0999 V2000
  125.0490  122.9230   56.7670 C   0  0  0  0  0  0  0  0  0  0  0  0
  126.1840  122.0790   56.6520 O   0  0  0  0  0  0  0  0  0  0  0  0
  127.4180  122.7620   56.8360 C   0  0  0  0  0  0  0  0  0  0  0  0
  127.9120  122.5610   58.2740 C   0  0  0  0  0  0  0  0  0  0  0  0
  127.2430  123.4780   59.1260 O   0  0  0  0  0  0  0  0  0  0  0  0
  127.9830  124.6590   59.4110 C   0  0  0  0  0  0  0  0  0  0  0  0
  128.1690  124.7610   60.9300 C   0  0  0  0  0  0  0  0  0  0  0  0
  129.5100  125.1540   61.1790 O   0  0  0  0  0  0  0  0  0  0  0  0
  129.6760  126.1160   62.2100 C   0  0  0  0  0  0  0  0  0  0  0  0
  130.9560  125.7860   63.0000 C   0  0  0  0  0  0  0  0  0  0  0  0
  131.8320  124.8420   62.3010 N   0  0  0  0  0  0  0  0  0  0  0  0
  133.0980  124.5430   62.6490 C   0  0  0  0  0  0  0  0  0  0  0  0
  133.6610  125.0230   63.6350 O   0  0  0  0  0  0  0  0  0  0  0  0
  133.8310  123.5660   61.7190 C   0  0  0  0  0  0  0  0  0  0  0  0
  132.8700  122.9860   60.2780 S   0  0  0  0  0  0  0  0  0  0  0  0
  131.5990  121.8560   60.8280 C   0  0  0  0  0  0  0  0  0  0  0  0
  130.6310  122.3950   61.6120 N   0  0  0  0  0  0  0  0  0  0  0  0
  129.6390  121.5980   62.0680 C   0  0  0  0  0  0  0  0  0  0  0  0
  128.6040  122.2720   62.9470 C   0  0  0  0  0  0  0  0  0  0  0  0
  129.5620  120.2430   61.7570 C   0  0  0  0  0  0  0  0  0  0  0  0
  130.5470  119.6660   60.9410 C   0  0  0  0  0  0  0  0  0  0  0  0
  130.4430  118.1660   60.6020 C   0  0  0  0  0  0  0  0  0  0  0  0
  131.3870  117.4350   61.1980 F   0  0  0  0  0  0  0  0  0  0  0  0
  129.2610  117.6900   60.9950 F   0  0  0  0  0  0  0  0  0  0  0  0
  130.5670  117.9860   59.2870 F   0  0  0  0  0  0  0  0  0  0  0  0
  131.5980  120.4890   60.4620 C   0  0  0  0  0  0  0  0  0  0  0  0
  132.6560  119.9380   59.6100 C   0  0  0  0  0  0  0  0  0  0  0  0
  133.4900  119.5020   58.9360 N   0  0  0  0  0  0  0  0  0  0  0  0
  1  2  1  0
  2  3  1  0
  3  4  1  0
  4  5  1  0
  5  6  1  0
  6  7  1  0
  7  8  1  0
  8  9  1  0
  9 10  1  0
 10 11  1  0
 11 12  1  0
 12 13  2  0
 12 14  1  0
 14 15  1  0
 15 16  1  0
 16 17  2  0
 17 18  1  0
 18 19  1  0
 18 20  2  0
 20 21  1  0
 21 22  1  0
 22 23  1  0
 22 24  1  0
 22 25  1  0
 21 26  2  0
 26 27  1  0
 27 28  3  0
 26 16  1  0
M  END
>  <Binding energies>  (26) 
[-5.78]

>  <Ligand effiencies>  (26) 
[-0.19931034482758622]

>  <Interactions>  (26) 
["V-B:TYR:539:CE2:9848, V-A:GLU:543:CD:4908, V-B:TYR:539:CZ:9849, V-A:ILE:369:CG2:3237, V-B:TYR:539:CD2:9846, V-A:ARG:545:CZ:4926, V-A:LEU:475:CD2:4259, V-B:TYR:539:CD1:9845, V-B:TYR:539:CG:9844, V-A:TYR:484:CZ:4347, V-B:TYR:539:CE1:9847, V-B:TYR:539:C:9839, V-A:TYR:484:CE1:4345, H-B:TYR:539:N:9842, V-B:PRO:540:CB:9857, V-B:PRO:540:CA:9855, V-B:PRO:540:N:9856, V-A:ILE:369:CD1:3239, V-B:LEU:363:CD1:8161, V-B:TYR:531:CE2:9765, V-B:GLU:543:CD:9880, V-B:GLU:543:CG:9879, V-B:TYR:539:CA:9841, V-B:PRO:540:CD:9859, V-B:TYR:539:CB:9843, V-A:LEU:475:CD1:4258, V-B:ALA:541:CB:9864, H-A:GLY:454:N:4050, H-A:TYR:484:OH:4348, H-A:ARG:545:NH2:4928, V-A:SER:385:CB:3409, V-A:PRO:482:CB:4326, V-A:LEU:475:CG:4257, V-A:PRO:482:CG:4327, H-A:ARG:545:NE:4924, V-A:GLY:454:CA:4049, H-A:ARG:545:NH1:4927"]

$$$$
3aa_Grossjean_2025
     RDKit          3D

 34 36  0  0  0  0  0  0  0  0999 V2000
  124.5740  132.7380   61.7750 C   0  0  0  0  0  0  0  0  0  0  0  0
  123.7870  131.5770   62.3910 C   0  0  0  0  0  0  0  0  0  0  0  0
  124.3460  131.2440   63.6550 O   0  0  0  0  0  0  0  0  0  0  0  0
  124.5700  129.9500   64.0010 C   0  0  0  0  0  0  0  0  0  0  0  0
  123.8230  129.3050   64.7420 O   0  0  0  0  0  0  0  0  0  0  0  0
  125.8280  129.3850   63.4050 C   0  0  0  0  0  0  0  0  0  0  0  0
  127.0790  129.5480   64.0180 C   0  0  0  0  0  0  0  0  0  0  0  0
  128.2250  129.0070   63.4400 C   0  0  0  0  0  0  0  0  0  0  0  0
  128.1440  128.2890   62.2460 C   0  0  0  0  0  0  0  0  0  0  0  0
  129.3610  127.7810   61.7490 N   0  0  0  0  0  0  0  0  0  0  0  0
  129.7060  127.4560   60.4840 C   0  0  0  0  0  0  0  0  0  0  0  0
  128.9680  127.5330   59.5010 O   0  0  0  0  0  0  0  0  0  0  0  0
  131.1350  126.9450   60.3010 C   0  0  0  0  0  0  0  0  0  0  0  0
  131.2590  125.7660   58.9220 S   0  0  0  0  0  0  0  0  0  0  0  0
  130.2170  124.3810   59.3250 C   0  0  0  0  0  0  0  0  0  0  0  0
  129.1780  124.2160   58.4720 N   0  0  0  0  0  0  0  0  0  0  0  0
  128.3030  123.1960   58.6660 C   0  0  0  0  0  0  0  0  0  0  0  0
  127.1890  123.0720   57.6700 C   0  0  0  0  0  0  0  0  0  0  0  0
  125.8550  123.2720   58.0610 C   0  0  0  0  0  0  0  0  0  0  0  0
  124.8150  123.1590   57.1420 C   0  0  0  0  0  0  0  0  0  0  0  0
  125.0960  122.8430   55.8170 C   0  0  0  0  0  0  0  0  0  0  0  0
  126.4090  122.6430   55.4040 C   0  0  0  0  0  0  0  0  0  0  0  0
  127.4470  122.7590   56.3250 C   0  0  0  0  0  0  0  0  0  0  0  0
  128.4620  122.3060   59.7320 C   0  0  0  0  0  0  0  0  0  0  0  0
  129.5210  122.4670   60.6400 C   0  0  0  0  0  0  0  0  0  0  0  0
  129.6560  121.4720   61.8080 C   0  0  0  0  0  0  0  0  0  0  0  0
  128.8920  120.3880   61.6560 F   0  0  0  0  0  0  0  0  0  0  0  0
  130.9180  121.0580   61.9160 F   0  0  0  0  0  0  0  0  0  0  0  0
  129.2950  122.0610   62.9490 F   0  0  0  0  0  0  0  0  0  0  0  0
  130.4210  123.5420   60.4420 C   0  0  0  0  0  0  0  0  0  0  0  0
  131.5100  123.7930   61.3910 C   0  0  0  0  0  0  0  0  0  0  0  0
  132.3700  123.9920   62.1400 N   0  0  0  0  0  0  0  0  0  0  0  0
  126.8980  128.1330   61.6210 C   0  0  0  0  0  0  0  0  0  0  0  0
  125.7540  128.6760   62.1980 C   0  0  0  0  0  0  0  0  0  0  0  0
  1  2  1  0
  2  3  1  0
  3  4  1  0
  4  5  2  0
  4  6  1  0
  6  7  2  0
  7  8  1  0
  8  9  2  0
  9 10  1  0
 10 11  1  0
 11 12  2  0
 11 13  1  0
 13 14  1  0
 14 15  1  0
 15 16  2  0
 16 17  1  0
 17 18  1  0
 18 19  2  0
 19 20  1  0
 20 21  2  0
 21 22  1  0
 22 23  2  0
 17 24  2  0
 24 25  1  0
 25 26  1  0
 26 27  1  0
 26 28  1  0
 26 29  1  0
 25 30  2  0
 30 31  1  0
 31 32  3  0
  9 33  1  0
 33 34  2  0
 34  6  1  0
 30 15  1  0
 23 18  1  0
M  END
>  <Binding energies>  (27) 
[-8.22]

>  <Ligand effiencies>  (27) 
[-0.23485714285714288]

>  <Interactions>  (27) 
["V-A:ASP:366:CG:3213, V-B:MET:535:CE:9807, V-B:LEU:475:CD2:9231, V-B:TYR:539:CE2:9848, V-A:GLU:543:CD:4908, V-B:TYR:539:CZ:9849, V-B:ILE:369:CD1:8211, H-B:GLY:454:N:9022, H-B:TYR:484:OH:9320, V-A:GLU:543:CG:4907, V-B:ARG:545:CZ:9898, V-B:TYR:539:CD2:9846, V-A:LEU:475:CD2:4259, V-B:TYR:539:CD1:9845, V-B:TYR:539:CG:9844, V-A:TYR:484:CZ:4347, V-B:TYR:539:CE1:9847, V-B:TYR:539:C:9839, V-A:TYR:484:CE1:4345, V-B:ASP:366:CG:8185, V-B:PRO:540:CB:9857, V-B:PRO:540:CA:9855, V-B:PRO:540:N:9856, V-B:LEU:363:CD1:8161, V-B:TYR:531:CZ:9766, V-B:TYR:531:CE2:9765, V-B:ILE:538:CA:9832, V-B:ILE:538:CD1:9837, V-B:PRO:540:C:9853, H-A:GLU:543:OE1:4909, V-B:GLU:543:CG:9879, V-B:PRO:540:CD:9859, H-A:GLU:543:OE2:4910, V-B:ALA:541:CB:9864, V-B:ILE:538:CG2:9835, V-B:GLY:454:CA:9021, H-A:TYR:484:OH:4348, V-B:ILE:538:C:9830, H-B:ARG:545:NE:9896, H-B:ARG:545:NH2:9900, V-B:GLY:453:C:9014, H-B:ARG:545:NH1:9899, V-B:ALA:541:CA:9862"]

$$$$
3ad_Grossjean_2025
     RDKit          3D

 29 31  0  0  0  0  0  0  0  0999 V2000
  130.4850  125.2630   62.4010 N   0  0  0  0  0  0  0  0  0  0  0  0
  130.6130  124.1720   62.0360 C   0  0  0  0  0  0  0  0  0  0  0  0
  130.7790  122.7900   61.5740 C   0  0  0  0  0  0  0  0  0  0  0  0
  131.9960  122.3650   60.9860 C   0  0  0  0  0  0  0  0  0  0  0  0
  133.2170  123.2920   60.8370 C   0  0  0  0  0  0  0  0  0  0  0  0
  132.9770  124.3430   60.0510 F   0  0  0  0  0  0  0  0  0  0  0  0
  133.5820  123.7580   62.0330 F   0  0  0  0  0  0  0  0  0  0  0  0
  134.2400  122.6210   60.3050 F   0  0  0  0  0  0  0  0  0  0  0  0
  132.0870  121.0460   60.5170 C   0  0  0  0  0  0  0  0  0  0  0  0
  130.9960  120.1780   60.6290 C   0  0  0  0  0  0  0  0  0  0  0  0
  131.0340  118.7630   60.1310 C   0  0  0  0  0  0  0  0  0  0  0  0
  130.1430  117.8020   60.6320 C   0  0  0  0  0  0  0  0  0  0  0  0
  130.1720  116.4880   60.1740 C   0  0  0  0  0  0  0  0  0  0  0  0
  131.0980  116.1160   59.2030 C   0  0  0  0  0  0  0  0  0  0  0  0
  131.9900  117.0500   58.6880 C   0  0  0  0  0  0  0  0  0  0  0  0
  131.9560  118.3640   59.1490 C   0  0  0  0  0  0  0  0  0  0  0  0
  129.8300  120.5920   61.1870 N   0  0  0  0  0  0  0  0  0  0  0  0
  129.7250  121.8550   61.6650 C   0  0  0  0  0  0  0  0  0  0  0  0
  128.1340  122.2190   62.3720 S   0  0  0  0  0  0  0  0  0  0  0  0
  127.5500  123.7670   61.6190 C   0  0  0  0  0  0  0  0  0  0  0  0
  126.6840  123.5180   60.3820 C   0  0  0  0  0  0  0  0  0  0  0  0
  125.4590  123.5750   60.4880 O   0  0  0  0  0  0  0  0  0  0  0  0
  127.3610  123.2470   59.2460 N   0  0  0  0  0  0  0  0  0  0  0  0
  126.8780  122.9870   57.9500 C   0  0  0  0  0  0  0  0  0  0  0  0
  127.8490  122.9140   56.9450 C   0  0  0  0  0  0  0  0  0  0  0  0
  127.4780  122.6660   55.6270 C   0  0  0  0  0  0  0  0  0  0  0  0
  126.1350  122.4940   55.3080 C   0  0  0  0  0  0  0  0  0  0  0  0
  125.1570  122.5710   56.2970 C   0  0  0  0  0  0  0  0  0  0  0  0
  125.5230  122.8200   57.6170 C   0  0  0  0  0  0  0  0  0  0  0  0
  1  2  3  0
  2  3  1  0
  3  4  2  0
  4  5  1  0
  5  6  1  0
  5  7  1  0
  5  8  1  0
  4  9  1  0
  9 10  2  0
 10 11  1  0
 11 12  2  0
 12 13  1  0
 13 14  2  0
 14 15  1  0
 15 16  2  0
 10 17  1  0
 17 18  2  0
 18 19  1  0
 19 20  1  0
 20 21  1  0
 21 22  2  0
 21 23  1  0
 23 24  1  0
 24 25  2  0
 25 26  1  0
 26 27  2  0
 27 28  1  0
 28 29  2  0
 18  3  1  0
 29 24  1  0
 16 11  1  0
M  END
>  <Binding energies>  (28) 
[-9.0]

>  <Ligand effiencies>  (28) 
[-0.3]

>  <Interactions>  (28) 
["V-A:ILE:369:CB:3236, V-A:ASP:366:CG:3213, V-B:MET:535:CE:9807, V-B:TYR:539:CE2:9848, V-B:TYR:539:CZ:9849, V-A:ILE:369:CG2:3237, V-B:TYR:539:CD2:9846, V-A:LEU:475:CD2:4259, V-B:TYR:539:CD1:9845, V-B:TYR:539:CG:9844, V-B:TYR:539:CE1:9847, V-B:TYR:539:C:9839, V-B:PRO:540:CB:9857, V-B:PRO:540:CA:9855, H-B:ALA:541:N:9863, V-B:PRO:540:N:9856, V-A:ILE:369:CD1:3239, V-B:LEU:363:CD1:8161, V-B:TYR:531:CE2:9765, V-B:GLU:543:CD:9880, V-B:ILE:538:CA:9832, V-B:ILE:538:CD1:9837, V-B:PRO:540:CG:9858, V-B:PRO:540:CD:9859, V-B:TYR:539:CB:9843, V-B:ALA:541:CB:9864, V-B:ILE:538:CG2:9835, H-A:TYR:484:OH:4348, V-B:ILE:538:C:9830, V-A:SER:385:CB:3409, V-B:ILE:538:CB:9834, V-A:LEU:373:CD1:3280, V-A:PRO:482:CB:4326, V-A:HIS:383:CE1:3394, V-A:PRO:482:CG:4327, V-A:LEU:373:CD2:3281, V-A:GLY:454:CA:4049, V-A:ILE:369:CG1:3238"]

$$$$
3ai_Grossjean_2025
     RDKit          3D

 28 30  0  0  0  0  0  0  0  0999 V2000
  130.3860  125.3170   62.3210 N   0  0  0  0  0  0  0  0  0  0  0  0
  130.5180  124.2200   61.9800 C   0  0  0  0  0  0  0  0  0  0  0  0
  130.6880  122.8290   61.5470 C   0  0  0  0  0  0  0  0  0  0  0  0
  131.9350  122.3690   61.0590 C   0  0  0  0  0  0  0  0  0  0  0  0
  133.1840  123.2680   60.9930 C   0  0  0  0  0  0  0  0  0  0  0  0
  134.2550  122.6320   60.5130 F   0  0  0  0  0  0  0  0  0  0  0  0
  132.9500  124.3150   60.2000 F   0  0  0  0  0  0  0  0  0  0  0  0
  133.4970  123.7100   62.2110 F   0  0  0  0  0  0  0  0  0  0  0  0
  132.0320  121.0430   60.6120 C   0  0  0  0  0  0  0  0  0  0  0  0
  130.9170  120.2000   60.6500 C   0  0  0  0  0  0  0  0  0  0  0  0
  130.9610  118.7780   60.1760 C   0  0  0  0  0  0  0  0  0  0  0  0
  130.0680  117.8240   60.6890 C   0  0  0  0  0  0  0  0  0  0  0  0
  130.1010  116.5030   60.2510 C   0  0  0  0  0  0  0  0  0  0  0  0
  131.0280  116.1180   59.2880 C   0  0  0  0  0  0  0  0  0  0  0  0
  131.9220  117.0450   58.7620 C   0  0  0  0  0  0  0  0  0  0  0  0
  131.8870  118.3640   59.2020 C   0  0  0  0  0  0  0  0  0  0  0  0
  129.7210  120.6470   61.1110 N   0  0  0  0  0  0  0  0  0  0  0  0
  129.6080  121.9170   61.5700 C   0  0  0  0  0  0  0  0  0  0  0  0
  127.9740  122.3160   62.1550 S   0  0  0  0  0  0  0  0  0  0  0  0
  127.1470  123.3120   60.8680 C   0  0  0  0  0  0  0  0  0  0  0  0
  127.4830  122.9130   59.4240 C   0  0  0  0  0  0  0  0  0  0  0  0
  128.5900  122.4520   59.1380 O   0  0  0  0  0  0  0  0  0  0  0  0
  126.4820  123.1120   58.5370 N   0  0  0  0  0  0  0  0  0  0  0  0
  126.4980  122.8400   57.1750 C   0  0  0  0  0  0  0  0  0  0  0  0
  127.4700  123.3400   56.3090 C   0  0  0  0  0  0  0  0  0  0  0  0
  127.1330  122.8490   55.0690 C   0  0  0  0  0  0  0  0  0  0  0  0
  126.0160  122.0920   55.1820 O   0  0  0  0  0  0  0  0  0  0  0  0
  125.6240  122.0930   56.5210 N   0  0  0  0  0  0  0  0  0  0  0  0
  1  2  3  0
  2  3  1  0
  3  4  2  0
  4  5  1  0
  5  6  1  0
  5  7  1  0
  5  8  1  0
  4  9  1  0
  9 10  2  0
 10 11  1  0
 11 12  2  0
 12 13  1  0
 13 14  2  0
 14 15  1  0
 15 16  2  0
 10 17  1  0
 17 18  2  0
 18 19  1  0
 19 20  1  0
 20 21  1  0
 21 22  2  0
 21 23  1  0
 23 24  1  0
 24 25  1  0
 25 26  2  0
 26 27  1  0
 27 28  1  0
 18  3  1  0
 28 24  2  0
 16 11  1  0
M  END
>  <Binding energies>  (29) 
[-9.12]

>  <Ligand effiencies>  (29) 
[-0.31448275862068964]

>  <Interactions>  (29) 
["V-A:ILE:369:CB:3236, V-A:ASP:366:CG:3213, V-B:MET:535:CE:9807, V-B:TYR:539:CE2:9848, V-B:TYR:539:CZ:9849, V-A:ILE:369:CG2:3237, V-B:TYR:539:CD2:9846, V-A:LEU:475:CD2:4259, V-B:TYR:539:CD1:9845, V-B:TYR:539:CG:9844, H-B:ASP:366:OD2:8187, V-B:TYR:539:CE1:9847, V-B:TYR:539:C:9839, H-B:TYR:539:N:9842, V-B:PRO:540:CB:9857, V-B:PRO:540:CA:9855, H-B:ALA:541:N:9863, V-B:PRO:540:N:9856, V-A:ILE:369:CD1:3239, V-B:ILE:538:CA:9832, V-B:ILE:538:CD1:9837, V-B:TYR:539:CB:9843, H-A:TYR:484:OH:4348, V-A:SER:385:CB:3409, V-A:LEU:373:CD1:3280, V-A:PRO:482:CB:4326, V-A:HIS:383:CE1:3394, V-A:PRO:482:CG:4327, V-A:LEU:373:CD2:3281, V-A:GLY:454:CA:4049, V-A:ILE:369:CG1:3238"]

$$$$
3aj_Grossjean_2025
     RDKit          3D

 28 30  0  0  0  0  0  0  0  0999 V2000
  130.3930  125.3040   62.3130 N   0  0  0  0  0  0  0  0  0  0  0  0
  130.5270  124.2080   61.9670 C   0  0  0  0  0  0  0  0  0  0  0  0
  130.7000  122.8210   61.5280 C   0  0  0  0  0  0  0  0  0  0  0  0
  131.9470  122.3680   61.0340 C   0  0  0  0  0  0  0  0  0  0  0  0
  133.1930  123.2720   60.9670 C   0  0  0  0  0  0  0  0  0  0  0  0
  133.5640  123.7310   62.1640 F   0  0  0  0  0  0  0  0  0  0  0  0
  134.2230  122.5940   60.4590 F   0  0  0  0  0  0  0  0  0  0  0  0
  132.9490  124.3300   60.1930 F   0  0  0  0  0  0  0  0  0  0  0  0
  132.0480  121.0430   60.5820 C   0  0  0  0  0  0  0  0  0  0  0  0
  130.9350  120.1960   60.6180 C   0  0  0  0  0  0  0  0  0  0  0  0
  130.9850  118.7780   60.1390 C   0  0  0  0  0  0  0  0  0  0  0  0
  131.8880  118.3920   59.1370 C   0  0  0  0  0  0  0  0  0  0  0  0
  131.9420  117.0730   58.6890 C   0  0  0  0  0  0  0  0  0  0  0  0
  131.0900  116.1220   59.2410 C   0  0  0  0  0  0  0  0  0  0  0  0
  130.1870  116.4790   60.2360 C   0  0  0  0  0  0  0  0  0  0  0  0
  130.1370  117.7970   60.6810 C   0  0  0  0  0  0  0  0  0  0  0  0
  129.7390  120.6380   61.0850 N   0  0  0  0  0  0  0  0  0  0  0  0
  129.6230  121.9050   61.5500 C   0  0  0  0  0  0  0  0  0  0  0  0
  127.9910  122.2970   62.1420 S   0  0  0  0  0  0  0  0  0  0  0  0
  127.4230  123.7950   61.2680 C   0  0  0  0  0  0  0  0  0  0  0  0
  126.3980  123.5460   60.1520 C   0  0  0  0  0  0  0  0  0  0  0  0
  125.1890  123.6380   60.3730 O   0  0  0  0  0  0  0  0  0  0  0  0
  126.9360  123.2290   58.9530 N   0  0  0  0  0  0  0  0  0  0  0  0
  126.2440  122.9630   57.7780 C   0  0  0  0  0  0  0  0  0  0  0  0
  126.6630  122.2870   56.7300 N   0  0  0  0  0  0  0  0  0  0  0  0
  125.7390  122.2260   55.7910 C   0  0  0  0  0  0  0  0  0  0  0  0
  124.5340  122.8660   56.0710 C   0  0  0  0  0  0  0  0  0  0  0  0
  124.6290  123.5830   57.6510 S   0  0  0  0  0  0  0  0  0  0  0  0
  1  2  3  0
  2  3  1  0
  3  4  2  0
  4  5  1  0
  5  6  1  0
  5  7  1  0
  5  8  1  0
  4  9  1  0
  9 10  2  0
 10 11  1  0
 11 12  2  0
 12 13  1  0
 13 14  2  0
 14 15  1  0
 15 16  2  0
 10 17  1  0
 17 18  2  0
 18 19  1  0
 19 20  1  0
 20 21  1  0
 21 22  2  0
 21 23  1  0
 23 24  1  0
 24 25  2  0
 25 26  1  0
 26 27  2  0
 27 28  1  0
 18  3  1  0
 28 24  1  0
 16 11  1  0
M  END
>  <Binding energies>  (30) 
[-8.56]

>  <Ligand effiencies>  (30) 
[-0.29517241379310344]

>  <Interactions>  (30) 
["V-A:ILE:369:CB:3236, V-A:ASP:366:CG:3213, V-B:TYR:539:CE2:9848, V-A:ILE:369:CG2:3237, V-B:TYR:539:CD2:9846, V-A:LEU:475:CD2:4259, V-B:TYR:539:CG:9844, V-B:TYR:539:C:9839, H-B:TYR:539:N:9842, V-B:PRO:540:CB:9857, V-B:PRO:540:CA:9855, H-B:ALA:541:N:9863, V-B:PRO:540:N:9856, V-A:ILE:369:CD1:3239, V-B:LEU:363:CD1:8161, V-B:TYR:531:CZ:9766, V-B:TYR:531:CE2:9765, V-B:ILE:538:CA:9832, V-B:ILE:538:CD1:9837, V-B:PRO:540:CD:9859, V-B:TYR:539:CB:9843, V-B:ILE:538:CG2:9835, H-A:TYR:484:OH:4348, V-B:ILE:538:C:9830, V-A:SER:385:CB:3409, V-B:ILE:538:CB:9834, V-A:LEU:373:CD1:3280, V-A:PRO:482:CB:4326, V-A:HIS:383:CE1:3394, V-A:PRO:482:CG:4327, V-A:LEU:373:CD2:3281, V-A:GLY:454:CA:4049, V-A:ILE:369:CG1:3238"]

$$$$
3ak_Grossjean_2025
     RDKit          3D

 33 34  0  0  0  0  0  0  0  0999 V2000
  125.1760  122.6200   55.8560 C   0  0  0  0  0  0  0  0  0  0  0  0
  126.4060  122.1390   56.3740 O   0  0  0  0  0  0  0  0  0  0  0  0
  126.9300  122.9400   57.4230 C   0  0  0  0  0  0  0  0  0  0  0  0
  127.1830  124.3570   56.8920 C   0  0  0  0  0  0  0  0  0  0  0  0
  126.5380  125.2940   57.7470 O   0  0  0  0  0  0  0  0  0  0  0  0
  127.3570  126.3610   58.2190 C   0  0  0  0  0  0  0  0  0  0  0  0
  126.5660  127.5080   58.8730 C   0  0  0  0  0  0  0  0  0  0  0  0
  126.5390  128.6200   57.9900 O   0  0  0  0  0  0  0  0  0  0  0  0
  125.2290  129.0760   57.6760 C   0  0  0  0  0  0  0  0  0  0  0  0
  125.3020  130.3230   56.7760 C   0  0  0  0  0  0  0  0  0  0  0  0
  126.6590  130.6480   56.3340 N   0  0  0  0  0  0  0  0  0  0  0  0
  127.3410  130.0250   55.3540 C   0  0  0  0  0  0  0  0  0  0  0  0
  126.8670  129.0970   54.6970 O   0  0  0  0  0  0  0  0  0  0  0  0
  128.7730  130.4880   55.0380 C   0  0  0  0  0  0  0  0  0  0  0  0
  129.2520  132.1440   55.6560 S   0  0  0  0  0  0  0  0  0  0  0  0
  129.2000  132.1270   57.4410 C   0  0  0  0  0  0  0  0  0  0  0  0
  128.0330  132.5350   57.9980 N   0  0  0  0  0  0  0  0  0  0  0  0
  127.8990  132.5630   59.3490 C   0  0  0  0  0  0  0  0  0  0  0  0
  126.5750  133.0260   59.8780 C   0  0  0  0  0  0  0  0  0  0  0  0
  125.5070  132.1280   60.0280 C   0  0  0  0  0  0  0  0  0  0  0  0
  124.2770  132.5520   60.5230 C   0  0  0  0  0  0  0  0  0  0  0  0
  124.0980  133.8850   60.8770 C   0  0  0  0  0  0  0  0  0  0  0  0
  125.1390  134.7950   60.7410 C   0  0  0  0  0  0  0  0  0  0  0  0
  126.3690  134.3680   60.2470 C   0  0  0  0  0  0  0  0  0  0  0  0
  128.9470  132.1580   60.1820 C   0  0  0  0  0  0  0  0  0  0  0  0
  130.1640  131.7300   59.6320 C   0  0  0  0  0  0  0  0  0  0  0  0
  131.2970  131.2940   60.5820 C   0  0  0  0  0  0  0  0  0  0  0  0
  132.4430  131.8720   60.2220 F   0  0  0  0  0  0  0  0  0  0  0  0
  131.0070  131.6520   61.8340 F   0  0  0  0  0  0  0  0  0  0  0  0
  131.4960  129.9740   60.5800 F   0  0  0  0  0  0  0  0  0  0  0  0
  130.3010  131.7130   58.2230 C   0  0  0  0  0  0  0  0  0  0  0  0
  131.5510  131.2750   57.5920 C   0  0  0  0  0  0  0  0  0  0  0  0
  132.5370  130.9310   57.0940 N   0  0  0  0  0  0  0  0  0  0  0  0
  1  2  1  0
  2  3  1  0
  3  4  1  0
  4  5  1  0
  5  6  1  0
  6  7  1  0
  7  8  1  0
  8  9  1  0
  9 10  1  0
 10 11  1  0
 11 12  1  0
 12 13  2  0
 12 14  1  0
 14 15  1  0
 15 16  1  0
 16 17  2  0
 17 18  1  0
 18 19  1  0
 19 20  2  0
 20 21  1  0
 21 22  2  0
 22 23  1  0
 23 24  2  0
 18 25  2  0
 25 26  1  0
 26 27  1  0
 27 28  1  0
 27 29  1  0
 27 30  1  0
 26 31  2  0
 31 32  1  0
 32 33  3  0
 31 16  1  0
 24 19  1  0
M  END
>  <Binding energies>  (31) 
[-6.69]

>  <Ligand effiencies>  (31) 
[-0.19676470588235295]

>  <Interactions>  (31) 
["V-A:TYR:539:CZ:4877, V-A:ALA:541:CB:4892, V-A:ASP:366:CG:3213, V-B:MET:535:CE:9807, V-B:ILE:369:CG2:8209, V-B:LEU:475:CD2:9231, V-A:PRO:540:CA:4883, H-B:LYS:534:NZ:9795, V-A:GLU:543:CD:4908, V-B:ILE:369:CD1:8211, V-A:GLU:543:CG:4907, H-A:TYR:531:OH:4795, V-A:TYR:539:CE1:4875, H-B:TYR:531:OH:9767, V-B:TYR:539:C:9839, V-B:ASP:366:CG:8185, H-B:TYR:539:N:9842, V-B:PRO:540:CA:9855, V-B:ASP:366:CB:8184, V-B:PRO:540:N:9856, V-A:TYR:539:CD1:4873, V-A:TYR:539:C:4867, V-A:PRO:540:C:4881, V-B:LEU:363:CD1:8161, V-B:TYR:531:CE2:9765, V-B:ILE:538:CA:9832, V-B:ILE:538:CD1:9837, V-A:PRO:540:CB:4885, V-A:PRO:540:N:4884, V-B:PRO:540:CD:9859, V-B:ILE:538:CG2:9835, V-A:ALA:541:CA:4890"]

$$$$
3bk_Grossjean_2025
     RDKit          3D

 30 31  0  0  0  0  0  0  0  0999 V2000
  125.1030  122.7550   56.3170 C   0  0  0  0  0  0  0  0  0  0  0  0
  126.3780  122.1590   56.1280 O   0  0  0  0  0  0  0  0  0  0  0  0
  127.4010  123.0970   55.8210 C   0  0  0  0  0  0  0  0  0  0  0  0
  128.1770  123.4480   57.0980 C   0  0  0  0  0  0  0  0  0  0  0  0
  128.6120  124.7990   57.0280 O   0  0  0  0  0  0  0  0  0  0  0  0
  129.9620  124.9900   57.4300 C   0  0  0  0  0  0  0  0  0  0  0  0
  130.5960  126.0890   56.5690 C   0  0  0  0  0  0  0  0  0  0  0  0
  129.5910  126.7070   55.7760 O   0  0  0  0  0  0  0  0  0  0  0  0
  129.1830  127.9820   56.2550 C   0  0  0  0  0  0  0  0  0  0  0  0
  127.9990  127.8110   57.2170 C   0  0  0  0  0  0  0  0  0  0  0  0
  127.0140  128.8860   57.0860 N   0  0  0  0  0  0  0  0  0  0  0  0
  126.2960  129.1570   55.9820 C   0  0  0  0  0  0  0  0  0  0  0  0
  126.3730  128.5050   54.9390 O   0  0  0  0  0  0  0  0  0  0  0  0
  125.3200  130.3310   56.0750 C   0  0  0  0  0  0  0  0  0  0  0  0
  124.8840  130.7210   57.7990 S   0  0  0  0  0  0  0  0  0  0  0  0
  126.2710  131.5260   58.5820 C   0  0  0  0  0  0  0  0  0  0  0  0
  127.4320  131.5240   57.8790 N   0  0  0  0  0  0  0  0  0  0  0  0
  128.5430  132.1110   58.3970 C   0  0  0  0  0  0  0  0  0  0  0  0
  129.7760  132.0830   57.5460 C   0  0  0  0  0  0  0  0  0  0  0  0
  130.9700  131.5260   58.0300 C   0  0  0  0  0  0  0  0  0  0  0  0
  132.1200  131.5020   57.2450 C   0  0  0  0  0  0  0  0  0  0  0  0
  132.0920  132.0370   55.9620 C   0  0  0  0  0  0  0  0  0  0  0  0
  130.9200  132.5920   55.4560 C   0  0  0  0  0  0  0  0  0  0  0  0
  129.7720  132.6120   56.2430 C   0  0  0  0  0  0  0  0  0  0  0  0
  128.5080  132.7280   59.6530 C   0  0  0  0  0  0  0  0  0  0  0  0
  127.3200  132.7380   60.3930 C   0  0  0  0  0  0  0  0  0  0  0  0
  127.3250  133.4210   61.7600 C   0  0  0  0  0  0  0  0  0  0  0  0
  126.1680  132.1260   59.8560 C   0  0  0  0  0  0  0  0  0  0  0  0
  124.9090  132.1220   60.6070 C   0  0  0  0  0  0  0  0  0  0  0  0
  123.9150  132.1190   61.2000 N   0  0  0  0  0  0  0  0  0  0  0  0
  1  2  1  0
  2  3  1  0
  3  4  1  0
  4  5  1  0
  5  6  1  0
  6  7  1  0
  7  8  1  0
  8  9  1  0
  9 10  1  0
 10 11  1  0
 11 12  1  0
 12 13  2  0
 12 14  1  0
 14 15  1  0
 15 16  1  0
 16 17  2  0
 17 18  1  0
 18 19  1  0
 19 20  2  0
 20 21  1  0
 21 22  2  0
 22 23  1  0
 23 24  2  0
 18 25  2  0
 25 26  1  0
 26 27  1  0
 26 28  2  0
 28 29  1  0
 29 30  3  0
 28 16  1  0
 24 19  1  0
M  END
>  <Binding energies>  (32) 
[-7.07]

>  <Ligand effiencies>  (32) 
[-0.22806451612903228]

>  <Interactions>  (32) 
["V-A:TYR:539:CZ:4877, V-A:ALA:541:CB:4892, V-B:MET:535:CE:9807, V-B:LEU:475:CD2:9231, V-A:PRO:540:CA:4883, V-B:TYR:539:CE2:9848, H-B:LYS:534:NZ:9795, V-B:TYR:539:CZ:9849, V-A:TYR:539:CE1:4875, H-A:TYR:539:OH:4878, V-B:TYR:539:CD2:9846, H-B:TYR:531:OH:9767, V-B:TYR:539:CD1:9845, V-B:TYR:539:CE1:9847, H-B:TYR:539:N:9842, V-A:TYR:539:CD1:4873, V-A:TYR:539:C:4867, V-B:LEU:363:CD1:8161, V-B:TYR:531:CZ:9766, V-B:TYR:531:CE2:9765, V-B:ILE:538:CD1:9837, V-A:PRO:540:CB:4885, V-A:LEU:363:CD1:3189, V-A:ILE:538:CA:4860, V-A:ILE:538:CB:4862, V-A:PRO:540:N:4884, V-A:ILE:538:CG2:4863, V-B:PRO:540:CD:9859, V-B:ILE:538:CG2:9835, V-B:TYR:531:CE1:9764, V-A:TYR:539:CA:4869"]

$$$$
3cb_Grossjean_2025
     RDKit          3D

 30 32  0  0  0  0  0  0  0  0999 V2000
  130.5240  115.7630   58.2790 C   0  0  0  0  0  0  0  0  0  0  0  0
  129.8540  116.5400   59.2610 O   0  0  0  0  0  0  0  0  0  0  0  0
  130.4450  116.8270   60.4490 C   0  0  0  0  0  0  0  0  0  0  0  0
  130.7140  115.9730   61.2990 O   0  0  0  0  0  0  0  0  0  0  0  0
  130.7370  118.2900   60.6280 C   0  0  0  0  0  0  0  0  0  0  0  0
  131.8440  118.9060   60.0260 C   0  0  0  0  0  0  0  0  0  0  0  0
  132.0840  120.2640   60.2110 C   0  0  0  0  0  0  0  0  0  0  0  0
  131.2310  121.0340   61.0020 C   0  0  0  0  0  0  0  0  0  0  0  0
  131.5670  122.3980   61.1180 N   0  0  0  0  0  0  0  0  0  0  0  0
  132.4350  123.1420   60.3980 C   0  0  0  0  0  0  0  0  0  0  0  0
  133.1040  122.7260   59.4510 O   0  0  0  0  0  0  0  0  0  0  0  0
  132.5310  124.6110   60.8380 C   0  0  0  0  0  0  0  0  0  0  0  0
  131.0910  125.6420   60.3970 S   0  0  0  0  0  0  0  0  0  0  0  0
  129.6900  124.5620   60.1910 C   0  0  0  0  0  0  0  0  0  0  0  0
  129.2950  123.9650   61.3420 N   0  0  0  0  0  0  0  0  0  0  0  0
  128.2390  123.1220   61.3060 C   0  0  0  0  0  0  0  0  0  0  0  0
  127.8460  122.5010   62.6330 C   0  0  0  0  0  0  0  0  0  0  0  0
  127.5460  122.8390   60.1330 C   0  0  0  0  0  0  0  0  0  0  0  0
  127.9460  123.4320   58.9280 C   0  0  0  0  0  0  0  0  0  0  0  0
  127.1730  123.0910   57.6950 C   0  0  0  0  0  0  0  0  0  0  0  0
  125.7720  123.0870   57.7210 C   0  0  0  0  0  0  0  0  0  0  0  0
  125.0430  122.7820   56.5740 C   0  0  0  0  0  0  0  0  0  0  0  0
  125.7140  122.4820   55.3920 C   0  0  0  0  0  0  0  0  0  0  0  0
  127.1050  122.4880   55.3460 C   0  0  0  0  0  0  0  0  0  0  0  0
  127.8310  122.7960   56.4940 C   0  0  0  0  0  0  0  0  0  0  0  0
  129.0610  124.3090   58.9470 C   0  0  0  0  0  0  0  0  0  0  0  0
  129.5810  124.8830   57.7020 C   0  0  0  0  0  0  0  0  0  0  0  0
  129.9920  125.3370   56.7200 N   0  0  0  0  0  0  0  0  0  0  0  0
  130.1190  120.4260   61.6040 C   0  0  0  0  0  0  0  0  0  0  0  0
  129.8790  119.0670   61.4180 C   0  0  0  0  0  0  0  0  0  0  0  0
  1  2  1  0
  2  3  1  0
  3  4  2  0
  3  5  1  0
  5  6  2  0
  6  7  1  0
  7  8  2  0
  8  9  1  0
  9 10  1  0
 10 11  2  0
 10 12  1  0
 12 13  1  0
 13 14  1  0
 14 15  2  0
 15 16  1  0
 16 17  1  0
 16 18  2  0
 18 19  1  0
 19 20  1  0
 20 21  2  0
 21 22  1  0
 22 23  2  0
 23 24  1  0
 24 25  2  0
 19 26  2  0
 26 27  1  0
 27 28  3  0
  8 29  1  0
 29 30  2  0
 30  5  1  0
 26 14  1  0
 25 20  1  0
M  END
>  <Binding energies>  (33) 
[-8.68]

>  <Ligand effiencies>  (33) 
[-0.27999999999999997]

>  <Interactions>  (33) 
["V-A:ASP:366:CG:3213, V-B:MET:535:CE:9807, V-B:TYR:539:CE2:9848, V-B:TYR:539:CZ:9849, V-B:TYR:539:CD2:9846, V-A:LEU:475:CD2:4259, V-B:TYR:539:CD1:9845, V-B:TYR:539:CG:9844, V-B:TYR:539:CE1:9847, H-B:TYR:539:OH:9850, V-B:TYR:539:C:9839, V-B:PRO:540:CB:9857, V-B:PRO:540:CA:9855, V-B:PRO:540:N:9856, V-B:LEU:363:CD1:8161, V-B:TYR:531:CE2:9765, V-B:GLU:543:CD:9880, V-B:ILE:538:CA:9832, V-B:ILE:538:CD1:9837, V-B:GLU:543:CG:9879, V-B:PRO:540:CD:9859, V-B:TYR:539:CB:9843, V-A:LEU:475:CD1:4258, V-B:ALA:541:CB:9864, V-B:ILE:538:CG2:9835, H-A:TYR:484:OH:4348, V-B:ILE:538:C:9830, V-A:SER:385:CB:3409, V-B:ILE:538:CB:9834, V-B:ALA:541:CA:9862, V-B:VAL:344:CG1:7973, V-A:PRO:482:CB:4326, V-A:LEU:475:CG:4257, V-A:HIS:383:CE1:3394, V-A:PRO:482:CG:4327, V-B:ILE:343:CG2:7964, V-B:ILE:343:CB:7963"]

$$$$
3ch_Grossjean_2025
     RDKit          3D

 32 34  0  0  0  0  0  0  0  0999 V2000
  125.9050  132.1390   60.7740 C   0  0  0  0  0  0  0  0  0  0  0  0
  125.5310  130.7650   60.7580 O   0  0  0  0  0  0  0  0  0  0  0  0
  125.7480  129.9860   61.8800 C   0  0  0  0  0  0  0  0  0  0  0  0
  126.8030  129.0670   62.0050 C   0  0  0  0  0  0  0  0  0  0  0  0
  126.9670  128.3160   63.1780 C   0  0  0  0  0  0  0  0  0  0  0  0
  127.9930  127.3770   63.3980 N   0  0  0  0  0  0  0  0  0  0  0  0
  128.8900  126.8610   62.5300 C   0  0  0  0  0  0  0  0  0  0  0  0
  128.9770  127.1490   61.3360 O   0  0  0  0  0  0  0  0  0  0  0  0
  129.8910  125.8720   63.1260 C   0  0  0  0  0  0  0  0  0  0  0  0
  129.4720  124.1490   62.7320 S   0  0  0  0  0  0  0  0  0  0  0  0
  129.2550  124.0850   60.9670 C   0  0  0  0  0  0  0  0  0  0  0  0
  130.3640  124.4230   60.2640 N   0  0  0  0  0  0  0  0  0  0  0  0
  130.3010  124.4130   58.9130 C   0  0  0  0  0  0  0  0  0  0  0  0
  131.5750  124.8060   58.1900 C   0  0  0  0  0  0  0  0  0  0  0  0
  129.1440  124.0720   58.2180 C   0  0  0  0  0  0  0  0  0  0  0  0
  127.9890  123.7120   58.9270 C   0  0  0  0  0  0  0  0  0  0  0  0
  126.7670  123.3630   58.1390 C   0  0  0  0  0  0  0  0  0  0  0  0
  126.8660  122.5220   57.0240 C   0  0  0  0  0  0  0  0  0  0  0  0
  125.7340  122.1990   56.2800 C   0  0  0  0  0  0  0  0  0  0  0  0
  124.4960  122.7220   56.6470 C   0  0  0  0  0  0  0  0  0  0  0  0
  124.3820  123.5650   57.7490 C   0  0  0  0  0  0  0  0  0  0  0  0
  125.5170  123.8870   58.4900 C   0  0  0  0  0  0  0  0  0  0  0  0
  128.0450  123.6990   60.3440 C   0  0  0  0  0  0  0  0  0  0  0  0
  126.8980  123.2400   61.1330 C   0  0  0  0  0  0  0  0  0  0  0  0
  125.9920  122.8800   61.7570 N   0  0  0  0  0  0  0  0  0  0  0  0
  126.0530  128.4770   64.2210 C   0  0  0  0  0  0  0  0  0  0  0  0
  124.9900  129.3870   64.1190 C   0  0  0  0  0  0  0  0  0  0  0  0
  124.0550  129.6000   65.1180 O   0  0  0  0  0  0  0  0  0  0  0  0
  124.3890  129.2890   66.4670 C   0  0  0  0  0  0  0  0  0  0  0  0
  124.8470  130.1330   62.9420 C   0  0  0  0  0  0  0  0  0  0  0  0
  123.8200  131.0410   62.8360 O   0  0  0  0  0  0  0  0  0  0  0  0
  122.6720  130.5410   62.1650 C   0  0  0  0  0  0  0  0  0  0  0  0
  1  2  1  0
  2  3  1  0
  3  4  2  0
  4  5  1  0
  5  6  1  0
  6  7  1  0
  7  8  2  0
  7  9  1  0
  9 10  1  0
 10 11  1  0
 11 12  2  0
 12 13  1  0
 13 14  1  0
 13 15  2  0
 15 16  1  0
 16 17  1  0
 17 18  2  0
 18 19  1  0
 19 20  2  0
 20 21  1  0
 21 22  2  0
 16 23  2  0
 23 24  1  0
 24 25  3  0
  5 26  2  0
 26 27  1  0
 27 28  1  0
 28 29  1  0
 27 30  2  0
 30 31  1  0
 31 32  1  0
 30  3  1  0
 23 11  1  0
 22 17  1  0
M  END
>  <Binding energies>  (34) 
[-8.32]

>  <Ligand effiencies>  (34) 
[-0.25212121212121213]

>  <Interactions>  (34) 
["V-B:TYR:539:CE2:9848, V-A:GLU:543:CD:4908, V-B:TYR:539:CZ:9849, V-B:ILE:369:CD1:8211, H-B:GLY:454:N:9022, H-B:TYR:484:OH:9320, V-B:ARG:545:CZ:9898, V-B:TYR:539:CD2:9846, V-B:TYR:539:C:9839, V-B:PRO:540:CB:9857, V-B:PRO:540:CA:9855, H-B:ALA:541:N:9863, V-B:PRO:540:N:9856, V-B:LEU:363:CD1:8161, H-B:GLU:543:OE2:9882, V-B:TYR:531:CE2:9765, V-B:GLU:543:CD:9880, H-B:GLU:543:OE1:9881, V-B:ILE:538:CA:9832, V-B:ILE:538:CD1:9837, V-B:PRO:540:CG:9858, V-B:TYR:539:CA:9841, V-B:PRO:540:CD:9859, V-B:ILE:538:CG2:9835, H-A:TYR:484:OH:4348, V-B:ILE:538:C:9830, V-B:ARG:545:CD:9895, H-B:ARG:545:NE:9896, V-B:ARG:545:CG:9894, V-B:TYR:484:CZ:9319, V-B:TYR:484:CE1:9317, V-B:HIS:456:CE1:9042, V-B:GLY:453:C:9014, H-B:ARG:545:NH1:9899, V-B:GLY:453:CA:9016"]

$$$$
3ci_Grossjean_2025
     RDKit          3D

 25 27  0  0  0  0  0  0  0  0999 V2000
  129.6130  121.2730   61.7670 C   0  0  0  0  0  0  0  0  0  0  0  0
  129.5030  122.2080   60.5770 C   0  0  0  0  0  0  0  0  0  0  0  0
  128.4050  122.1770   59.7220 C   0  0  0  0  0  0  0  0  0  0  0  0
  128.3410  123.0720   58.6450 C   0  0  0  0  0  0  0  0  0  0  0  0
  127.1370  123.0130   57.7630 C   0  0  0  0  0  0  0  0  0  0  0  0
  125.8730  123.3700   58.2510 C   0  0  0  0  0  0  0  0  0  0  0  0
  124.7520  123.3050   57.4270 C   0  0  0  0  0  0  0  0  0  0  0  0
  124.8900  122.8750   56.1100 C   0  0  0  0  0  0  0  0  0  0  0  0
  126.1380  122.5080   55.6120 C   0  0  0  0  0  0  0  0  0  0  0  0
  127.2560  122.5750   56.4380 C   0  0  0  0  0  0  0  0  0  0  0  0
  129.4150  123.9790   58.4580 C   0  0  0  0  0  0  0  0  0  0  0  0
  129.4230  124.9090   57.3230 C   0  0  0  0  0  0  0  0  0  0  0  0
  129.4280  125.6440   56.4280 N   0  0  0  0  0  0  0  0  0  0  0  0
  130.4910  123.9460   59.3770 C   0  0  0  0  0  0  0  0  0  0  0  0
  131.8850  125.0590   59.2490 S   0  0  0  0  0  0  0  0  0  0  0  0
  133.3630  124.2670   59.9650 C   0  0  0  0  0  0  0  0  0  0  0  0
  133.2630  124.0500   61.4790 C   0  0  0  0  0  0  0  0  0  0  0  0
  133.1830  122.9010   61.9180 O   0  0  0  0  0  0  0  0  0  0  0  0
  133.2550  125.1710   62.2330 N   0  0  0  0  0  0  0  0  0  0  0  0
  133.2020  125.2530   63.6180 C   0  0  0  0  0  0  0  0  0  0  0  0
  132.0230  125.5000   64.3200 C   0  0  0  0  0  0  0  0  0  0  0  0
  132.3910  125.5060   65.6470 C   0  0  0  0  0  0  0  0  0  0  0  0
  133.7230  125.2740   65.7370 O   0  0  0  0  0  0  0  0  0  0  0  0
  134.2260  125.1160   64.4450 N   0  0  0  0  0  0  0  0  0  0  0  0
  130.5310  123.0690   60.4120 N   0  0  0  0  0  0  0  0  0  0  0  0
  1  2  1  0
  2  3  2  0
  3  4  1  0
  4  5  1  0
  5  6  2  0
  6  7  1  0
  7  8  2  0
  8  9  1  0
  9 10  2  0
  4 11  2  0
 11 12  1  0
 12 13  3  0
 11 14  1  0
 14 15  1  0
 15 16  1  0
 16 17  1  0
 17 18  2  0
 17 19  1  0
 19 20  1  0
 20 21  1  0
 21 22  2  0
 22 23  1  0
 23 24  1  0
 14 25  2  0
 25  2  1  0
 10  5  1  0
 24 20  2  0
M  END
>  <Binding energies>  (35) 
[-8.47]

>  <Ligand effiencies>  (35) 
[-0.3257692307692308]

>  <Interactions>  (35) 
["V-A:ASP:366:CG:3213, V-B:TYR:539:CE2:9848, V-A:GLU:543:CD:4908, V-B:TYR:539:CZ:9849, V-A:ILE:369:CG2:3237, V-B:TYR:539:CD2:9846, V-A:ARG:545:CZ:4926, V-A:LEU:475:CD2:4259, V-B:TYR:539:CD1:9845, V-B:TYR:539:CG:9844, V-A:TYR:484:CZ:4347, V-B:TYR:539:CE1:9847, H-B:TYR:539:OH:9850, V-B:TYR:539:C:9839, V-B:PRO:540:CB:9857, V-B:PRO:540:CA:9855, V-B:PRO:540:N:9856, V-A:ILE:369:CD1:3239, V-B:LEU:363:CD1:8161, V-B:TYR:531:CZ:9766, V-B:TYR:531:CE2:9765, V-B:ILE:538:CA:9832, V-B:ILE:538:CD1:9837, H-A:ASP:366:OD1:3214, H-A:ASP:366:OD2:3215, V-B:PRO:540:CD:9859, V-B:ALA:541:CB:9864, H-A:GLY:454:N:4050, V-B:ILE:538:CG2:9835, H-A:TYR:484:OH:4348, V-B:ILE:538:C:9830, H-A:ARG:545:NH2:4928, V-A:TYR:484:CE2:4346, H-A:ARG:545:NE:4924, H-A:ARG:545:NH1:4927, V-A:ARG:545:CD:4923, V-A:HIS:456:CE1:4070"]

$$$$
3ck_Grossjean_2025
     RDKit          3D

 30 31  0  0  0  0  0  0  0  0999 V2000
  130.4980  115.9990   58.4080 C   0  0  0  0  0  0  0  0  0  0  0  0
  130.0420  116.6930   59.5580 O   0  0  0  0  0  0  0  0  0  0  0  0
  130.8720  117.7860   59.9260 C   0  0  0  0  0  0  0  0  0  0  0  0
  131.9680  117.9760   58.8700 C   0  0  0  0  0  0  0  0  0  0  0  0
  132.6590  119.1930   59.1230 O   0  0  0  0  0  0  0  0  0  0  0  0
  132.1390  119.9340   60.2190 C   0  0  0  0  0  0  0  0  0  0  0  0
  133.1320  121.0420   60.5910 C   0  0  0  0  0  0  0  0  0  0  0  0
  132.4390  122.2820   60.5950 O   0  0  0  0  0  0  0  0  0  0  0  0
  132.8880  123.2180   59.6270 C   0  0  0  0  0  0  0  0  0  0  0  0
  133.2900  124.5300   60.3280 C   0  0  0  0  0  0  0  0  0  0  0  0
  132.2930  125.0170   61.2860 N   0  0  0  0  0  0  0  0  0  0  0  0
  132.4560  125.0900   62.6190 C   0  0  0  0  0  0  0  0  0  0  0  0
  133.5010  124.7700   63.1900 O   0  0  0  0  0  0  0  0  0  0  0  0
  131.2430  125.6110   63.4070 C   0  0  0  0  0  0  0  0  0  0  0  0
  129.7620  125.9850   62.4070 S   0  0  0  0  0  0  0  0  0  0  0  0
  129.2340  124.5000   61.5660 C   0  0  0  0  0  0  0  0  0  0  0  0
  129.6450  123.3330   62.1220 N   0  0  0  0  0  0  0  0  0  0  0  0
  129.2860  122.1700   61.5360 C   0  0  0  0  0  0  0  0  0  0  0  0
  129.7850  120.9080   62.2130 C   0  0  0  0  0  0  0  0  0  0  0  0
  128.5090  122.1210   60.3810 C   0  0  0  0  0  0  0  0  0  0  0  0
  128.0780  123.3130   59.7850 C   0  0  0  0  0  0  0  0  0  0  0  0
  127.2670  123.2120   58.5350 C   0  0  0  0  0  0  0  0  0  0  0  0
  125.8850  123.4330   58.5730 C   0  0  0  0  0  0  0  0  0  0  0  0
  125.1210  123.3310   57.4120 C   0  0  0  0  0  0  0  0  0  0  0  0
  125.7370  123.0010   56.2090 C   0  0  0  0  0  0  0  0  0  0  0  0
  127.1100  122.7710   56.1560 C   0  0  0  0  0  0  0  0  0  0  0  0
  127.8700  122.8730   57.3170 C   0  0  0  0  0  0  0  0  0  0  0  0
  128.4380  124.5410   60.3970 C   0  0  0  0  0  0  0  0  0  0  0  0
  127.9790  125.8190   59.8410 C   0  0  0  0  0  0  0  0  0  0  0  0
  127.6170  126.8270   59.4030 N   0  0  0  0  0  0  0  0  0  0  0  0
  1  2  1  0
  2  3  1  0
  3  4  1  0
  4  5  1  0
  5  6  1  0
  6  7  1  0
  7  8  1  0
  8  9  1  0
  9 10  1  0
 10 11  1  0
 11 12  1  0
 12 13  2  0
 12 14  1  0
 14 15  1  0
 15 16  1  0
 16 17  2  0
 17 18  1  0
 18 19  1  0
 18 20  2  0
 20 21  1  0
 21 22  1  0
 22 23  2  0
 23 24  1  0
 24 25  2  0
 25 26  1  0
 26 27  2  0
 21 28  2  0
 28 29  1  0
 29 30  3  0
 28 16  1  0
 27 22  1  0
M  END
>  <Binding energies>  (36) 
[-7.11]

>  <Ligand effiencies>  (36) 
[-0.22935483870967743]

>  <Interactions>  (36) 
["V-A:ASP:366:CG:3213, V-B:MET:535:CE:9807, V-B:TYR:539:CE2:9848, V-A:GLU:543:CD:4908, V-B:TYR:539:CZ:9849, V-A:ILE:369:CG2:3237, V-B:TYR:539:CD2:9846, V-A:ARG:545:CZ:4926, V-A:LEU:475:CD2:4259, V-B:TYR:539:CD1:9845, V-B:TYR:539:CG:9844, V-B:TYR:539:CE1:9847, V-B:TYR:539:C:9839, V-A:TYR:484:CE1:4345, V-B:PRO:540:CB:9857, V-B:PRO:540:CA:9855, V-B:PRO:540:N:9856, V-B:TYR:539:CB:9843, V-B:ALA:541:CB:9864, H-A:GLY:454:N:4050, H-A:TYR:484:OH:4348, H-A:ARG:545:NH2:4928, V-A:SER:385:CB:3409, V-B:VAL:344:CG1:7973, V-A:LEU:373:CD1:3280, V-A:HIS:383:CE1:3394, V-B:ILE:343:CG2:7964, V-B:ILE:343:CB:7963"]

$$$$
4aa_Grossjean_2025
     RDKit          3D

 26 28  0  0  0  0  0  0  0  0999 V2000
  132.9260  131.5630   56.7650 C   0  0  0  0  0  0  0  0  0  0  0  0
  132.2070  131.9410   55.4660 C   0  0  0  0  0  0  0  0  0  0  0  0
  131.2940  133.0000   55.7230 O   0  0  0  0  0  0  0  0  0  0  0  0
  129.9520  132.7970   55.6680 C   0  0  0  0  0  0  0  0  0  0  0  0
  129.2750  132.9960   54.6540 O   0  0  0  0  0  0  0  0  0  0  0  0
  129.3720  132.3110   56.9640 C   0  0  0  0  0  0  0  0  0  0  0  0
  128.0320  131.9040   57.0040 C   0  0  0  0  0  0  0  0  0  0  0  0
  127.4630  131.4540   58.1920 C   0  0  0  0  0  0  0  0  0  0  0  0
  128.2230  131.3920   59.3610 C   0  0  0  0  0  0  0  0  0  0  0  0
  127.5460  130.9290   60.5060 N   0  0  0  0  0  0  0  0  0  0  0  0
  127.0270  129.7080   60.7800 C   0  0  0  0  0  0  0  0  0  0  0  0
  127.0320  128.7610   59.9930 O   0  0  0  0  0  0  0  0  0  0  0  0
  126.4120  129.5730   62.1020 C   0  0  0  0  0  0  0  0  0  0  0  0
  124.6880  129.8840   62.3190 S   0  0  0  0  0  0  0  0  0  0  0  0
  124.7990  129.5690   64.0360 C   0  0  0  0  0  0  0  0  0  0  0  0
  123.7360  129.6460   64.8370 N   0  0  0  0  0  0  0  0  0  0  0  0
  123.9600  129.3820   66.1480 C   0  0  0  0  0  0  0  0  0  0  0  0
  122.7380  129.4800   67.0440 C   0  0  0  0  0  0  0  0  0  0  0  0
  125.2060  129.0440   66.6690 C   0  0  0  0  0  0  0  0  0  0  0  0
  126.3190  128.9630   65.8250 C   0  0  0  0  0  0  0  0  0  0  0  0
  127.6590  128.5890   66.4400 C   0  0  0  0  0  0  0  0  0  0  0  0
  126.1260  129.2370   64.4440 C   0  0  0  0  0  0  0  0  0  0  0  0
  127.0260  129.2500   63.3220 C   0  0  0  0  0  0  0  0  0  0  0  0
  128.3630  128.9670   63.4540 N   0  0  0  0  0  0  0  0  0  0  0  0
  129.5640  131.8020   59.3330 C   0  0  0  0  0  0  0  0  0  0  0  0
  130.1300  132.2560   58.1440 C   0  0  0  0  0  0  0  0  0  0  0  0
  1  2  1  0
  2  3  1  0
  3  4  1  0
  4  5  2  0
  4  6  1  0
  6  7  2  0
  7  8  1  0
  8  9  2  0
  9 10  1  0
 10 11  1  0
 11 12  2  0
 11 13  1  0
 13 14  1  0
 14 15  1  0
 15 16  2  0
 16 17  1  0
 17 18  1  0
 17 19  2  0
 19 20  1  0
 20 21  1  0
 20 22  2  0
 22 23  1  0
 23 24  1  0
  9 25  1  0
 25 26  2  0
 26  6  1  0
 23 13  2  0
 22 15  1  0
M  END
>  <Binding energies>  (37) 
[-7.38]

>  <Ligand effiencies>  (37) 
[-0.25448275862068964]

>  <Interactions>  (37) 
["V-A:TYR:539:CZ:4877, V-A:PRO:540:CA:4883, V-A:GLU:543:CD:4908, H-B:GLY:454:N:9022, H-B:TYR:484:OH:9320, V-A:GLU:543:CG:4907, V-A:TYR:539:CE1:4875, V-B:ARG:545:CZ:9898, V-A:TYR:539:CD1:4873, V-A:TYR:539:C:4867, H-B:GLU:543:OE2:9882, V-B:GLU:543:CD:9880, V-A:TYR:531:CE2:4793, V-A:PRO:540:CB:4885, V-A:LEU:363:CD1:3189, V-A:ILE:538:CA:4860, H-A:TYR:539:N:4870, V-A:PRO:540:N:4884, V-A:TYR:539:CG:4872, H-A:GLU:543:OE1:4909, V-A:ILE:538:CG2:4863, H-A:GLU:543:OE2:4910, V-B:GLY:454:CA:9021, V-B:ARG:545:CD:9895, H-B:ARG:545:NE:9896, V-B:ARG:545:CG:9894, V-B:TYR:484:CZ:9319, V-B:TYR:484:CE1:9317, V-B:HIS:456:CE1:9042, V-B:GLY:453:C:9014, V-B:ILE:455:C:9024, H-B:ARG:545:NH1:9899, V-B:GLY:453:CA:9016, V-A:TYR:539:CA:4869, V-A:TYR:531:CZ:4794, V-B:ARG:545:CB:9893"]

$$$$
4ab_Grossjean_2025
     RDKit          3D

 25 27  0  0  0  0  0  0  0  0999 V2000
  132.6740  132.0370   55.4950 C   0  0  0  0  0  0  0  0  0  0  0  0
  131.7210  133.0420   55.8100 O   0  0  0  0  0  0  0  0  0  0  0  0
  130.3900  132.8010   55.6990 C   0  0  0  0  0  0  0  0  0  0  0  0
  129.7440  133.0080   54.6660 O   0  0  0  0  0  0  0  0  0  0  0  0
  129.7780  132.2660   56.9620 C   0  0  0  0  0  0  0  0  0  0  0  0
  128.4360  132.5550   57.2460 C   0  0  0  0  0  0  0  0  0  0  0  0
  127.8400  132.0740   58.4090 C   0  0  0  0  0  0  0  0  0  0  0  0
  128.5680  131.2910   59.3050 C   0  0  0  0  0  0  0  0  0  0  0  0
  127.8690  130.8660   60.4510 N   0  0  0  0  0  0  0  0  0  0  0  0
  126.9350  129.8940   60.5940 C   0  0  0  0  0  0  0  0  0  0  0  0
  126.4960  129.2130   59.6670 O   0  0  0  0  0  0  0  0  0  0  0  0
  126.4360  129.7040   61.9570 C   0  0  0  0  0  0  0  0  0  0  0  0
  124.7360  129.9950   62.3320 S   0  0  0  0  0  0  0  0  0  0  0  0
  124.9930  129.6140   64.0200 C   0  0  0  0  0  0  0  0  0  0  0  0
  124.0030  129.6540   64.9120 N   0  0  0  0  0  0  0  0  0  0  0  0
  124.3370  129.3380   66.1870 C   0  0  0  0  0  0  0  0  0  0  0  0
  123.1970  129.3950   67.1870 C   0  0  0  0  0  0  0  0  0  0  0  0
  125.6230  128.9830   66.5860 C   0  0  0  0  0  0  0  0  0  0  0  0
  126.6610  128.9430   65.6470 C   0  0  0  0  0  0  0  0  0  0  0  0
  128.0480  128.5510   66.1320 C   0  0  0  0  0  0  0  0  0  0  0  0
  126.3500  129.2710   64.3000 C   0  0  0  0  0  0  0  0  0  0  0  0
  127.1520  129.3370   63.1080 C   0  0  0  0  0  0  0  0  0  0  0  0
  128.4960  129.0580   63.1140 N   0  0  0  0  0  0  0  0  0  0  0  0
  129.9130  131.0010   59.0320 C   0  0  0  0  0  0  0  0  0  0  0  0
  130.5080  131.4850   57.8690 C   0  0  0  0  0  0  0  0  0  0  0  0
  1  2  1  0
  2  3  1  0
  3  4  2  0
  3  5  1  0
  5  6  2  0
  6  7  1  0
  7  8  2  0
  8  9  1  0
  9 10  1  0
 10 11  2  0
 10 12  1  0
 12 13  1  0
 13 14  1  0
 14 15  2  0
 15 16  1  0
 16 17  1  0
 16 18  2  0
 18 19  1  0
 19 20  1  0
 19 21  2  0
 21 22  1  0
 22 23  1  0
  8 24  1  0
 24 25  2  0
 25  5  1  0
 22 12  2  0
 21 14  1  0
M  END
>  <Binding energies>  (38) 
[-7.0]

>  <Ligand effiencies>  (38) 
[-0.25]

>  <Interactions>  (38) 
["V-A:TYR:539:CZ:4877, V-A:PRO:540:CA:4883, V-A:GLU:543:CD:4908, H-B:GLY:454:N:9022, H-B:TYR:484:OH:9320, V-A:GLU:543:CG:4907, V-A:TYR:539:CE1:4875, V-B:ARG:545:CZ:9898, V-A:TYR:539:CD1:4873, V-A:TYR:539:C:4867, H-B:GLU:543:OE2:9882, V-B:GLU:543:CD:9880, V-A:PRO:540:CD:4887, V-A:TYR:531:CE2:4793, V-A:LEU:363:CD1:3189, V-A:TYR:539:CD2:4874, V-A:ILE:538:CA:4860, V-A:ILE:538:CB:4862, H-A:TYR:539:N:4870, V-A:PRO:540:N:4884, V-A:TYR:539:CG:4872, H-A:GLU:543:OE1:4909, V-A:ILE:538:CG2:4863, H-A:GLU:543:OE2:4910, V-B:ARG:545:CD:9895, H-B:ARG:545:NE:9896, V-B:ARG:545:CG:9894, V-B:TYR:484:CZ:9319, V-B:HIS:456:CE1:9042, V-B:GLY:453:C:9014, V-B:ILE:455:C:9024, H-B:ARG:545:NH1:9899, V-B:GLY:453:CA:9016, V-A:GLU:543:CB:4906, V-A:TYR:539:CA:4869, V-A:TYR:531:CZ:4794, V-B:ARG:545:CB:9893"]

$$$$
4ac_Grossjean_2025
     RDKit          3D

 23 25  0  0  0  0  0  0  0  0999 V2000
  131.8020  132.6240   55.5000 C   0  0  0  0  0  0  0  0  0  0  0  0
  130.4150  132.9460   55.5410 O   0  0  0  0  0  0  0  0  0  0  0  0
  129.6530  132.5080   56.6070 C   0  0  0  0  0  0  0  0  0  0  0  0
  130.3360  132.2500   57.7950 C   0  0  0  0  0  0  0  0  0  0  0  0
  129.6520  131.8060   58.9240 C   0  0  0  0  0  0  0  0  0  0  0  0
  128.2690  131.6230   58.8800 C   0  0  0  0  0  0  0  0  0  0  0  0
  127.6650  131.1600   60.0640 N   0  0  0  0  0  0  0  0  0  0  0  0
  126.7900  130.1400   60.2370 C   0  0  0  0  0  0  0  0  0  0  0  0
  126.3440  129.4510   59.3180 O   0  0  0  0  0  0  0  0  0  0  0  0
  126.3790  129.8950   61.6220 C   0  0  0  0  0  0  0  0  0  0  0  0
  124.7040  130.1510   62.1130 S   0  0  0  0  0  0  0  0  0  0  0  0
  125.0640  129.6750   63.7580 C   0  0  0  0  0  0  0  0  0  0  0  0
  124.1280  129.6550   64.7080 N   0  0  0  0  0  0  0  0  0  0  0  0
  124.5380  129.2670   65.9390 C   0  0  0  0  0  0  0  0  0  0  0  0
  123.4590  129.2500   67.0050 C   0  0  0  0  0  0  0  0  0  0  0  0
  125.8500  128.9040   66.2410 C   0  0  0  0  0  0  0  0  0  0  0  0
  126.8300  128.9270   65.2410 C   0  0  0  0  0  0  0  0  0  0  0  0
  128.2460  128.5230   65.6190 C   0  0  0  0  0  0  0  0  0  0  0  0
  126.4350  129.3270   63.9360 C   0  0  0  0  0  0  0  0  0  0  0  0
  127.1630  129.4590   62.7020 C   0  0  0  0  0  0  0  0  0  0  0  0
  128.5030  129.1810   62.6090 N   0  0  0  0  0  0  0  0  0  0  0  0
  127.5760  131.8690   57.6850 C   0  0  0  0  0  0  0  0  0  0  0  0
  128.2640  132.3130   56.5580 C   0  0  0  0  0  0  0  0  0  0  0  0
  1  2  1  0
  2  3  1  0
  3  4  2  0
  4  5  1  0
  5  6  2  0
  6  7  1  0
  7  8  1  0
  8  9  2  0
  8 10  1  0
 10 11  1  0
 11 12  1  0
 12 13  2  0
 13 14  1  0
 14 15  1  0
 14 16  2  0
 16 17  1  0
 17 18  1  0
 17 19  2  0
 19 20  1  0
 20 21  1  0
  6 22  1  0
 22 23  2  0
 23  3  1  0
 20 10  2  0
 19 12  1  0
M  END
>  <Binding energies>  (39) 
[-6.76]

>  <Ligand effiencies>  (39) 
[-0.26]

>  <Interactions>  (39) 
["V-A:TYR:539:CZ:4877, V-A:PRO:540:CA:4883, V-A:GLU:543:CD:4908, H-B:GLY:454:N:9022, H-B:TYR:484:OH:9320, V-A:GLU:543:CG:4907, V-A:TYR:539:CE1:4875, V-B:ARG:545:CZ:9898, V-A:TYR:539:CD1:4873, V-A:TYR:539:C:4867, V-B:GLU:543:CD:9880, V-A:TYR:539:CE2:4876, V-A:PRO:540:CD:4887, V-A:PRO:540:CB:4885, V-A:LEU:363:CD1:3189, V-A:TYR:539:CD2:4874, V-A:ILE:538:CB:4862, H-A:TYR:539:N:4870, V-A:PRO:540:N:4884, V-A:TYR:539:CG:4872, H-A:GLU:543:OE1:4909, V-A:ILE:538:CG2:4863, V-B:ARG:545:CD:9895, H-B:ARG:545:NE:9896, V-B:ARG:545:CG:9894, V-B:TYR:484:CZ:9319, V-B:HIS:456:CE1:9042, V-B:ILE:455:C:9024, H-B:ARG:545:NH1:9899, V-B:GLY:453:CA:9016, V-A:GLU:543:CB:4906, V-B:ARG:545:CB:9893"]

$$$$
4ad_Grossjean_2025
     RDKit          3D

 21 23  0  0  0  0  0  0  0  0999 V2000
  130.4640  132.6380   54.6280 C   0  0  0  0  0  0  0  0  0  0  0  0
  130.6790  132.1970   56.0640 C   0  0  0  0  0  0  0  0  0  0  0  0
  131.9110  131.7040   56.4860 C   0  0  0  0  0  0  0  0  0  0  0  0
  132.0860  131.3010   57.8160 C   0  0  0  0  0  0  0  0  0  0  0  0
  133.4490  130.7660   58.2290 C   0  0  0  0  0  0  0  0  0  0  0  0
  130.9750  131.4150   58.6940 C   0  0  0  0  0  0  0  0  0  0  0  0
  130.8040  131.1040   60.0880 C   0  0  0  0  0  0  0  0  0  0  0  0
  131.8230  130.5940   60.8530 N   0  0  0  0  0  0  0  0  0  0  0  0
  129.5160  131.3690   60.5790 C   0  0  0  0  0  0  0  0  0  0  0  0
  128.9940  131.1580   61.9300 C   0  0  0  0  0  0  0  0  0  0  0  0
  129.4390  131.8010   62.8830 O   0  0  0  0  0  0  0  0  0  0  0  0
  128.0060  130.2340   62.0340 N   0  0  0  0  0  0  0  0  0  0  0  0
  127.3300  129.7710   63.1790 C   0  0  0  0  0  0  0  0  0  0  0  0
  125.9360  129.7130   63.0840 C   0  0  0  0  0  0  0  0  0  0  0  0
  125.1780  129.2590   64.1590 C   0  0  0  0  0  0  0  0  0  0  0  0
  125.8140  128.8550   65.3300 C   0  0  0  0  0  0  0  0  0  0  0  0
  127.2020  128.8950   65.4330 C   0  0  0  0  0  0  0  0  0  0  0  0
  127.9630  129.3490   64.3590 C   0  0  0  0  0  0  0  0  0  0  0  0
  128.4750  132.0230   59.3130 S   0  0  0  0  0  0  0  0  0  0  0  0
  129.7670  131.9350   58.1380 C   0  0  0  0  0  0  0  0  0  0  0  0
  129.5990  132.3200   56.8720 N   0  0  0  0  0  0  0  0  0  0  0  0
  1  2  1  0
  2  3  2  0
  3  4  1  0
  4  5  1  0
  4  6  2  0
  6  7  1  0
  7  8  1  0
  7  9  2  0
  9 10  1  0
 10 11  2  0
 10 12  1  0
 12 13  1  0
 13 14  2  0
 14 15  1  0
 15 16  2  0
 16 17  1  0
 17 18  2  0
  9 19  1  0
 19 20  1  0
 20 21  2  0
 21  2  1  0
 20  6  1  0
 18 13  1  0
M  END
>  <Binding energies>  (40) 
[-6.88]

>  <Ligand effiencies>  (40) 
[-0.2866666666666667]

>  <Interactions>  (40) 
["V-A:ASP:366:CG:3213, V-A:PRO:540:CA:4883, V-A:ASP:366:CB:3212, V-A:GLU:543:CD:4908, V-A:GLU:543:CG:4907, V-B:ARG:545:CZ:9898, V-A:TYR:539:C:4867, H-A:ASP:366:OD1:3214, V-A:PRO:540:CB:4885, V-A:LEU:363:CD1:3189, V-A:ILE:538:CA:4860, V-A:ILE:538:CB:4862, V-A:PRO:540:N:4884, H-A:GLU:543:OE1:4909, V-A:ILE:538:CG2:4863, V-A:LEU:363:CA:3185, V-A:ILE:538:C:4858"]

$$$$
4ae_Grossjean_2025
     RDKit          3D

 22 24  0  0  0  0  0  0  0  0999 V2000
  128.2750  128.6890   66.6930 C   0  0  0  0  0  0  0  0  0  0  0  0
  127.4570  129.0300   65.4630 C   0  0  0  0  0  0  0  0  0  0  0  0
  126.0670  128.8900   65.4470 C   0  0  0  0  0  0  0  0  0  0  0  0
  125.3810  129.2160   64.2760 C   0  0  0  0  0  0  0  0  0  0  0  0
  126.0930  129.6660   63.1620 C   0  0  0  0  0  0  0  0  0  0  0  0
  127.4830  129.7910   63.2490 C   0  0  0  0  0  0  0  0  0  0  0  0
  128.1460  130.2300   62.0890 N   0  0  0  0  0  0  0  0  0  0  0  0
  129.0940  131.1930   61.9660 C   0  0  0  0  0  0  0  0  0  0  0  0
  129.5220  131.8570   62.9110 O   0  0  0  0  0  0  0  0  0  0  0  0
  129.5930  131.4110   60.6070 C   0  0  0  0  0  0  0  0  0  0  0  0
  128.5230  132.0430   59.3550 S   0  0  0  0  0  0  0  0  0  0  0  0
  129.7930  131.9580   58.1580 C   0  0  0  0  0  0  0  0  0  0  0  0
  129.5960  132.3270   56.8920 N   0  0  0  0  0  0  0  0  0  0  0  0
  130.6610  132.2060   56.0640 C   0  0  0  0  0  0  0  0  0  0  0  0
  130.4120  132.6240   54.6260 C   0  0  0  0  0  0  0  0  0  0  0  0
  131.9080  131.7340   56.4680 C   0  0  0  0  0  0  0  0  0  0  0  0
  132.1120  131.3490   57.7980 C   0  0  0  0  0  0  0  0  0  0  0  0
  133.4900  130.8360   58.1910 C   0  0  0  0  0  0  0  0  0  0  0  0
  131.0170  131.4590   58.6970 C   0  0  0  0  0  0  0  0  0  0  0  0
  130.8760  131.1560   60.0960 C   0  0  0  0  0  0  0  0  0  0  0  0
  131.9130  130.6630   60.8470 N   0  0  0  0  0  0  0  0  0  0  0  0
  128.1620  129.4680   64.3890 N   0  0  0  0  0  0  0  0  0  0  0  0
  1  2  1  0
  2  3  2  0
  3  4  1  0
  4  5  2  0
  5  6  1  0
  6  7  1  0
  7  8  1  0
  8  9  2  0
  8 10  1  0
 10 11  1  0
 11 12  1  0
 12 13  2  0
 13 14  1  0
 14 15  1  0
 14 16  2  0
 16 17  1  0
 17 18  1  0
 17 19  2  0
 19 20  1  0
 20 21  1  0
  6 22  2  0
 22  2  1  0
 20 10  2  0
 19 12  1  0
M  END
>  <Binding energies>  (41) 
[-7.07]

>  <Ligand effiencies>  (41) 
[-0.2828]

>  <Interactions>  (41) 
["V-A:ASP:366:CG:3213, V-A:PRO:540:CA:4883, V-A:ASP:366:CB:3212, V-A:GLU:543:CD:4908, H-A:ALA:541:N:4891, H-B:TYR:484:OH:9320, V-A:GLU:543:CG:4907, V-B:ARG:545:CZ:9898, V-A:TYR:539:C:4867, H-A:ASP:366:OD1:3214, V-A:PRO:540:CB:4885, V-A:LEU:363:CD1:3189, V-A:ILE:538:CA:4860, V-A:ILE:538:CB:4862, V-A:PRO:540:N:4884, H-A:GLU:543:OE1:4909, V-A:ILE:538:CG2:4863, V-B:HIS:456:CE1:9042, V-A:LEU:363:CA:3185, V-A:GLU:543:CB:4906, V-A:ILE:538:C:4858"]

$$$$
4af_Grossjean_2025
     RDKit          3D

 21 23  0  0  0  0  0  0  0  0999 V2000
  130.0090  132.6270   54.6740 C   0  0  0  0  0  0  0  0  0  0  0  0
  130.1740  132.2480   56.1340 C   0  0  0  0  0  0  0  0  0  0  0  0
  131.3940  131.7830   56.6210 C   0  0  0  0  0  0  0  0  0  0  0  0
  131.5220  131.4360   57.9720 C   0  0  0  0  0  0  0  0  0  0  0  0
  132.8730  130.9320   58.4560 C   0  0  0  0  0  0  0  0  0  0  0  0
  130.3790  131.5760   58.8040 C   0  0  0  0  0  0  0  0  0  0  0  0
  130.1590  131.3160   60.2020 C   0  0  0  0  0  0  0  0  0  0  0  0
  131.1510  130.8410   61.0220 N   0  0  0  0  0  0  0  0  0  0  0  0
  128.8530  131.5940   60.6350 C   0  0  0  0  0  0  0  0  0  0  0  0
  128.2790  131.4190   61.9710 C   0  0  0  0  0  0  0  0  0  0  0  0
  128.6490  132.1250   62.9090 O   0  0  0  0  0  0  0  0  0  0  0  0
  127.3300  130.4570   62.0720 N   0  0  0  0  0  0  0  0  0  0  0  0
  126.6260  130.0100   63.2060 C   0  0  0  0  0  0  0  0  0  0  0  0
  127.1620  129.2240   64.2420 C   0  0  0  0  0  0  0  0  0  0  0  0
  126.3460  128.8330   65.3060 C   0  0  0  0  0  0  0  0  0  0  0  0
  125.0100  129.2340   65.3070 C   0  0  0  0  0  0  0  0  0  0  0  0
  124.4670  129.9850   64.3160 N   0  0  0  0  0  0  0  0  0  0  0  0
  125.2720  130.3570   63.2890 C   0  0  0  0  0  0  0  0  0  0  0  0
  127.8530  132.1870   59.3060 S   0  0  0  0  0  0  0  0  0  0  0  0
  129.1890  132.0630   58.1840 C   0  0  0  0  0  0  0  0  0  0  0  0
  129.0640  132.3950   56.8980 N   0  0  0  0  0  0  0  0  0  0  0  0
  1  2  1  0
  2  3  2  0
  3  4  1  0
  4  5  1  0
  4  6  2  0
  6  7  1  0
  7  8  1  0
  7  9  2  0
  9 10  1  0
 10 11  2  0
 10 12  1  0
 12 13  1  0
 13 14  2  0
 14 15  1  0
 15 16  2  0
 16 17  1  0
 17 18  2  0
  9 19  1  0
 19 20  1  0
 20 21  2  0
 21  2  1  0
 20  6  1  0
 18 13  1  0
M  END
>  <Binding energies>  (42) 
[-6.69]

>  <Ligand effiencies>  (42) 
[-0.27875]

>  <Interactions>  (42) 
["V-A:ASP:366:CG:3213, V-A:PRO:540:CA:4883, V-A:ASP:366:CB:3212, V-A:GLU:543:CD:4908, H-B:GLY:454:N:9022, H-B:TYR:484:OH:9320, V-B:ARG:545:CZ:9898, V-A:TYR:539:CD1:4873, V-A:TYR:539:C:4867, H-A:ASP:366:OD1:3214, V-A:PRO:540:CB:4885, V-A:ILE:538:CA:4860, V-A:ILE:538:CB:4862, V-A:PRO:540:N:4884, H-A:GLU:543:OE1:4909, V-A:ILE:538:CG2:4863, V-B:ARG:545:CD:9895, V-A:ILE:538:C:4858"]

$$$$
4ag_Grossjean_2025
     RDKit          3D

 22 24  0  0  0  0  0  0  0  0999 V2000
  126.0410  127.9330   61.0740 C   0  0  0  0  0  0  0  0  0  0  0  0
  126.6610  126.5970   60.7090 C   0  0  0  0  0  0  0  0  0  0  0  0
  126.5850  126.1040   59.4070 C   0  0  0  0  0  0  0  0  0  0  0  0
  127.1640  124.8700   59.0910 C   0  0  0  0  0  0  0  0  0  0  0  0
  127.0560  124.3750   57.6570 C   0  0  0  0  0  0  0  0  0  0  0  0
  127.8170  124.1580   60.1320 C   0  0  0  0  0  0  0  0  0  0  0  0
  128.5020  122.8940   60.1610 C   0  0  0  0  0  0  0  0  0  0  0  0
  128.6350  122.1060   59.0450 N   0  0  0  0  0  0  0  0  0  0  0  0
  129.0100  122.5500   61.4220 C   0  0  0  0  0  0  0  0  0  0  0  0
  129.7620  121.3550   61.8040 C   0  0  0  0  0  0  0  0  0  0  0  0
  130.8450  121.4360   62.3880 O   0  0  0  0  0  0  0  0  0  0  0  0
  129.2100  120.1710   61.4620 N   0  0  0  0  0  0  0  0  0  0  0  0
  129.7700  118.8560   61.7650 C   0  0  0  0  0  0  0  0  0  0  0  0
  130.3510  118.1360   60.5540 C   0  0  0  0  0  0  0  0  0  0  0  0
  131.4560  118.6760   59.8880 C   0  0  0  0  0  0  0  0  0  0  0  0
  132.0040  118.0080   58.7950 C   0  0  0  0  0  0  0  0  0  0  0  0
  131.4530  116.7980   58.3800 C   0  0  0  0  0  0  0  0  0  0  0  0
  130.3630  116.2460   59.0480 C   0  0  0  0  0  0  0  0  0  0  0  0
  129.8150  116.9130   60.1410 C   0  0  0  0  0  0  0  0  0  0  0  0
  128.6600  123.8000   62.6160 S   0  0  0  0  0  0  0  0  0  0  0  0
  127.8270  124.7710   61.4220 C   0  0  0  0  0  0  0  0  0  0  0  0
  127.2770  125.9470   61.7260 N   0  0  0  0  0  0  0  0  0  0  0  0
  1  2  1  0
  2  3  2  0
  3  4  1  0
  4  5  1  0
  4  6  2  0
  6  7  1  0
  7  8  1  0
  7  9  2  0
  9 10  1  0
 10 11  2  0
 10 12  1  0
 12 13  1  0
 13 14  1  0
 14 15  2  0
 15 16  1  0
 16 17  2  0
 17 18  1  0
 18 19  2  0
  9 20  1  0
 20 21  1  0
 21 22  2  0
 22  2  1  0
 21  6  1  0
 19 14  1  0
M  END
>  <Binding energies>  (43) 
[-6.89]

>  <Ligand effiencies>  (43) 
[-0.2756]

>  <Interactions>  (43) 
["V-B:TYR:539:CE2:9848, V-B:TYR:539:CD2:9846, V-A:LEU:475:CD2:4259, V-B:TYR:539:CG:9844, V-B:TYR:539:C:9839, V-B:ASP:366:CG:8185, V-B:PRO:540:CA:9855, V-B:PRO:540:N:9856, V-B:GLU:543:CD:9880, V-B:PRO:540:C:9853, V-B:GLU:543:CG:9879, V-B:TYR:539:CB:9843, V-A:LEU:475:CD1:4258, V-B:ALA:541:CB:9864, H-A:TYR:484:OH:4348, H-B:ARG:545:NH2:9900, H-B:TYR:539:O:9840, V-A:SER:385:CB:3409, V-B:VAL:344:CG1:7973, V-A:LEU:373:CD1:3280, V-A:PRO:482:CB:4326, V-A:LEU:475:CG:4257, V-A:HIS:383:CE1:3394, V-A:PRO:482:CG:4327, V-A:LEU:373:CD2:3281, H-B:PRO:540:O:9854"]

$$$$
4ah_Grossjean_2025
     RDKit          3D

 28 30  0  0  0  0  0  0  0  0999 V2000
  123.1840  130.4410   61.8130 C   0  0  0  0  0  0  0  0  0  0  0  0
  123.3280  130.3040   63.2220 O   0  0  0  0  0  0  0  0  0  0  0  0
  124.5230  129.8380   63.7400 C   0  0  0  0  0  0  0  0  0  0  0  0
  125.7440  129.8720   63.0480 C   0  0  0  0  0  0  0  0  0  0  0  0
  126.9110  129.3820   63.6340 C   0  0  0  0  0  0  0  0  0  0  0  0
  128.2370  129.4700   62.8850 C   0  0  0  0  0  0  0  0  0  0  0  0
  128.8300  128.1660   62.5890 N   0  0  0  0  0  0  0  0  0  0  0  0
  128.1410  127.0410   62.3010 C   0  0  0  0  0  0  0  0  0  0  0  0
  126.9100  126.9990   62.2970 O   0  0  0  0  0  0  0  0  0  0  0  0
  128.9450  125.8500   62.0320 C   0  0  0  0  0  0  0  0  0  0  0  0
  128.1790  124.3870   61.4080 S   0  0  0  0  0  0  0  0  0  0  0  0
  129.7050  123.5300   61.4210 C   0  0  0  0  0  0  0  0  0  0  0  0
  129.8060  122.2630   61.0210 N   0  0  0  0  0  0  0  0  0  0  0  0
  131.0450  121.7170   61.0780 C   0  0  0  0  0  0  0  0  0  0  0  0
  131.1360  120.2720   60.6220 C   0  0  0  0  0  0  0  0  0  0  0  0
  132.1730  122.4020   61.5210 C   0  0  0  0  0  0  0  0  0  0  0  0
  132.0650  123.7330   61.9430 C   0  0  0  0  0  0  0  0  0  0  0  0
  133.3250  124.4390   62.4180 C   0  0  0  0  0  0  0  0  0  0  0  0
  130.7800  124.3390   61.8980 C   0  0  0  0  0  0  0  0  0  0  0  0
  130.3160  125.6540   62.2510 C   0  0  0  0  0  0  0  0  0  0  0  0
  131.1540  126.6200   62.7480 N   0  0  0  0  0  0  0  0  0  0  0  0
  126.8700  128.8770   64.9340 C   0  0  0  0  0  0  0  0  0  0  0  0
  125.6630  128.8250   65.6480 C   0  0  0  0  0  0  0  0  0  0  0  0
  125.5460  128.3250   66.9320 O   0  0  0  0  0  0  0  0  0  0  0  0
  126.4570  127.3250   67.3770 C   0  0  0  0  0  0  0  0  0  0  0  0
  124.4950  129.3030   65.0370 C   0  0  0  0  0  0  0  0  0  0  0  0
  123.3090  129.2760   65.7310 O   0  0  0  0  0  0  0  0  0  0  0  0
  123.3620  129.9270   66.9930 C   0  0  0  0  0  0  0  0  0  0  0  0
  1  2  1  0
  2  3  1  0
  3  4  2  0
  4  5  1  0
  5  6  1  0
  6  7  1  0
  7  8  1  0
  8  9  2  0
  8 10  1  0
 10 11  1  0
 11 12  1  0
 12 13  2  0
 13 14  1  0
 14 15  1  0
 14 16  2  0
 16 17  1  0
 17 18  1  0
 17 19  2  0
 19 20  1  0
 20 21  1  0
  5 22  2  0
 22 23  1  0
 23 24  1  0
 24 25  1  0
 23 26  2  0
 26 27  1  0
 27 28  1  0
 26  3  1  0
 20 10  2  0
 19 12  1  0
M  END
>  <Binding energies>  (44) 
[-6.87]

>  <Ligand effiencies>  (44) 
[-0.22161290322580646]

>  <Interactions>  (44) 
["V-B:TYR:539:CE2:9848, V-A:GLU:543:CD:4908, V-B:ILE:369:CD1:8211, H-B:GLY:454:N:9022, H-B:TYR:484:OH:9320, V-A:GLU:543:CG:4907, V-B:ARG:545:CZ:9898, V-B:TYR:539:CD2:9846, V-A:ARG:545:CZ:4926, V-A:LEU:475:CD2:4259, V-B:ASP:366:CG:8185, V-B:GLU:543:CD:9880, H-A:ASP:366:OD1:3214, H-A:GLU:543:OE1:4909, H-A:GLU:543:OE2:4910, V-B:GLY:454:CA:9021, V-B:ARG:545:CD:9895, H-B:ARG:545:NE:9896, V-B:ARG:545:CG:9894, H-B:HIS:456:ND1:9039, V-B:TYR:484:CZ:9319, V-B:TYR:484:CE1:9317, V-B:HIS:456:CE1:9042, H-B:ARG:545:NH2:9900, V-B:GLY:453:C:9014, V-B:ILE:455:C:9024, H-B:ARG:545:NH1:9899, V-B:GLY:453:CA:9016, V-B:GLU:543:CB:9878, V-B:GLY:454:C:9019"]

$$$$
4ai_Grossjean_2025
     RDKit          3D

 20 22  0  0  0  0  0  0  0  0999 V2000
  123.3720  131.3110   76.4270 C   0  0  0  0  0  0  0  0  0  0  0  0
  124.7740  131.8470   76.1980 C   0  0  0  0  0  0  0  0  0  0  0  0
  125.5980  132.1830   77.2700 C   0  0  0  0  0  0  0  0  0  0  0  0
  126.8880  132.6700   77.0360 C   0  0  0  0  0  0  0  0  0  0  0  0
  127.7500  133.0200   78.2390 C   0  0  0  0  0  0  0  0  0  0  0  0
  127.3120  132.8030   75.6850 C   0  0  0  0  0  0  0  0  0  0  0  0
  128.5420  133.2590   75.0960 C   0  0  0  0  0  0  0  0  0  0  0  0
  129.6030  133.6860   75.8540 N   0  0  0  0  0  0  0  0  0  0  0  0
  128.5510  133.2190   73.6930 C   0  0  0  0  0  0  0  0  0  0  0  0
  129.6230  133.6150   72.7770 C   0  0  0  0  0  0  0  0  0  0  0  0
  130.3490  132.7680   72.2540 O   0  0  0  0  0  0  0  0  0  0  0  0
  129.7310  134.9490   72.5520 N   0  0  0  0  0  0  0  0  0  0  0  0
  130.6440  135.5940   71.7270 C   0  0  0  0  0  0  0  0  0  0  0  0
  131.5310  136.5680   72.1880 C   0  0  0  0  0  0  0  0  0  0  0  0
  132.2470  136.9530   71.0780 C   0  0  0  0  0  0  0  0  0  0  0  0
  131.8160  136.2480   70.0060 O   0  0  0  0  0  0  0  0  0  0  0  0
  130.8000  135.3890   70.4290 N   0  0  0  0  0  0  0  0  0  0  0  0
  127.0100  132.6330   73.0620 S   0  0  0  0  0  0  0  0  0  0  0  0
  126.3730  132.4260   74.6790 C   0  0  0  0  0  0  0  0  0  0  0  0
  125.1420  131.9620   74.8980 N   0  0  0  0  0  0  0  0  0  0  0  0
  1  2  1  0
  2  3  2  0
  3  4  1  0
  4  5  1  0
  4  6  2  0
  6  7  1  0
  7  8  1  0
  7  9  2  0
  9 10  1  0
 10 11  2  0
 10 12  1  0
 12 13  1  0
 13 14  1  0
 14 15  2  0
 15 16  1  0
 16 17  1  0
  9 18  1  0
 18 19  1  0
 19 20  2  0
 20  2  1  0
 19  6  1  0
 17 13  2  0
M  END
>  <Binding energies>  (45) 
[-6.67]

>  <Ligand effiencies>  (45) 
[-0.29]

>  <Interactions>  (45) 
["V-B:VAL:458:CG2:9059, V-B:HIS:456:C:9033, V-B:LYS:471:CD:9191, V-B:ASP:473:CB:9211, V-B:HIS:456:CB:9037, V-B:SER:483:CB:9305, V-B:TYR:484:CA:9311, V-B:TYR:484:CB:9313, V-A:VAL:542:CG1:4899, V-B:ASP:473:CG:9212, V-B:LYS:471:CB:9189, V-B:TYR:484:CG:9314, H-A:LYS:547:NZ:4951, V-A:LYS:547:CE:4950, V-B:LYS:471:C:9185, V-B:LEU:472:CA:9200, V-B:LYS:471:CA:9187, V-B:VAL:457:C:9045, V-B:HIS:456:CG:9038, V-B:HIS:456:CD2:9040, V-B:VAL:457:CA:9047, V-B:TYR:484:C:9309, H-B:TYR:484:N:9312, H-B:TYR:484:O:9310, H-A:GLY:544:N:4915"]

$$$$
4aj_Grossjean_2025
     RDKit          3D

 20 22  0  0  0  0  0  0  0  0999 V2000
  129.5960  126.5710   63.1220 C   0  0  0  0  0  0  0  0  0  0  0  0
  130.4980  125.4560   62.6270 C   0  0  0  0  0  0  0  0  0  0  0  0
  131.8840  125.5970   62.6370 C   0  0  0  0  0  0  0  0  0  0  0  0
  132.6970  124.5580   62.1700 C   0  0  0  0  0  0  0  0  0  0  0  0
  134.2040  124.7610   62.2010 C   0  0  0  0  0  0  0  0  0  0  0  0
  132.0610  123.3790   61.6980 C   0  0  0  0  0  0  0  0  0  0  0  0
  132.5760  122.1480   61.1600 C   0  0  0  0  0  0  0  0  0  0  0  0
  133.9200  121.9210   61.0100 N   0  0  0  0  0  0  0  0  0  0  0  0
  131.5840  121.2170   60.8160 C   0  0  0  0  0  0  0  0  0  0  0  0
  131.7490  119.8810   60.2390 C   0  0  0  0  0  0  0  0  0  0  0  0
  132.8470  119.5070   59.8210 O   0  0  0  0  0  0  0  0  0  0  0  0
  130.6310  119.1150   60.2170 N   0  0  0  0  0  0  0  0  0  0  0  0
  130.5190  117.8170   59.7380 C   0  0  0  0  0  0  0  0  0  0  0  0
  129.6710  116.8850   60.1200 N   0  0  0  0  0  0  0  0  0  0  0  0
  129.8450  115.7660   59.4440 C   0  0  0  0  0  0  0  0  0  0  0  0
  130.8580  115.7740   58.4890 C   0  0  0  0  0  0  0  0  0  0  0  0
  131.6150  117.3390   58.4820 S   0  0  0  0  0  0  0  0  0  0  0  0
  129.9710  121.8560   61.1380 S   0  0  0  0  0  0  0  0  0  0  0  0
  130.6340  123.3580   61.7430 C   0  0  0  0  0  0  0  0  0  0  0  0
  129.8560  124.3460   62.1860 N   0  0  0  0  0  0  0  0  0  0  0  0
  1  2  1  0
  2  3  2  0
  3  4  1  0
  4  5  1  0
  4  6  2  0
  6  7  1  0
  7  8  1  0
  7  9  2  0
  9 10  1  0
 10 11  2  0
 10 12  1  0
 12 13  1  0
 13 14  2  0
 14 15  1  0
 15 16  2  0
 16 17  1  0
  9 18  1  0
 18 19  1  0
 19 20  2  0
 20  2  1  0
 19  6  1  0
 17 13  1  0
M  END
>  <Binding energies>  (46) 
[-6.51]

>  <Ligand effiencies>  (46) 
[-0.28304347826086956]

>  <Interactions>  (46) 
["V-A:ASP:366:CG:3213, V-B:TYR:539:CE2:9848, V-A:GLU:543:CD:4908, V-A:ILE:369:CG2:3237, V-B:TYR:539:CD2:9846, V-A:ARG:545:CZ:4926, V-A:LEU:475:CD2:4259, V-B:TYR:539:CG:9844, V-B:TYR:539:C:9839, V-A:ILE:369:CD1:3239, V-B:GLU:543:CD:9880, V-B:TYR:539:CB:9843, H-A:TYR:484:OH:4348, H-B:TYR:539:O:9840, V-A:SER:385:CB:3409, V-B:VAL:344:CG2:7974, V-B:VAL:344:CG1:7973, V-A:LEU:373:CD1:3280, V-A:HIS:383:CE1:3394, V-A:PRO:482:CG:4327, V-A:LEU:373:CD2:3281, V-A:GLY:454:CA:4049, V-A:GLY:453:C:4042, V-A:GLY:453:CA:4044, H-A:SER:385:O:3406, V-B:ILE:343:CG2:7964"]

$$$$
4ak_Grossjean_2025
     RDKit          3D

 25 26  0  0  0  0  0  0  0  0999 V2000
  130.2070  128.0760   73.1000 C   0  0  0  0  0  0  0  0  0  0  0  0
  130.1360  128.4610   74.4640 O   0  0  0  0  0  0  0  0  0  0  0  0
  129.5100  127.4920   75.2950 C   0  0  0  0  0  0  0  0  0  0  0  0
  128.2920  128.1190   75.9840 C   0  0  0  0  0  0  0  0  0  0  0  0
  127.1120  127.7510   75.2820 O   0  0  0  0  0  0  0  0  0  0  0  0
  126.4170  128.8510   74.7110 C   0  0  0  0  0  0  0  0  0  0  0  0
  124.9290  128.5010   74.5850 C   0  0  0  0  0  0  0  0  0  0  0  0
  124.2060  129.1460   75.6250 O   0  0  0  0  0  0  0  0  0  0  0  0
  124.9280  130.1890   76.2670 C   0  0  0  0  0  0  0  0  0  0  0  0
  124.5570  131.5370   75.6220 C   0  0  0  0  0  0  0  0  0  0  0  0
  125.6890  132.2170   74.9930 N   0  0  0  0  0  0  0  0  0  0  0  0
  126.9380  132.2810   75.4960 C   0  0  0  0  0  0  0  0  0  0  0  0
  127.2520  131.7350   76.5550 O   0  0  0  0  0  0  0  0  0  0  0  0
  127.9120  133.0310   74.7060 C   0  0  0  0  0  0  0  0  0  0  0  0
  128.1800  132.6310   73.0100 S   0  0  0  0  0  0  0  0  0  0  0  0
  129.3720  133.9020   72.8510 C   0  0  0  0  0  0  0  0  0  0  0  0
  130.0090  134.1320   71.7020 N   0  0  0  0  0  0  0  0  0  0  0  0
  130.9100  135.1450   71.7140 C   0  0  0  0  0  0  0  0  0  0  0  0
  131.6230  135.3920   70.3970 C   0  0  0  0  0  0  0  0  0  0  0  0
  131.1850  135.9240   72.8350 C   0  0  0  0  0  0  0  0  0  0  0  0
  130.5140  135.6800   74.0400 C   0  0  0  0  0  0  0  0  0  0  0  0
  130.8520  136.5550   75.2370 C   0  0  0  0  0  0  0  0  0  0  0  0
  129.5630  134.6260   74.0660 C   0  0  0  0  0  0  0  0  0  0  0  0
  128.7140  134.1120   75.1070 C   0  0  0  0  0  0  0  0  0  0  0  0
  128.7030  134.6410   76.3730 N   0  0  0  0  0  0  0  0  0  0  0  0
  1  2  1  0
  2  3  1  0
  3  4  1  0
  4  5  1  0
  5  6  1  0
  6  7  1  0
  7  8  1  0
  8  9  1  0
  9 10  1  0
 10 11  1  0
 11 12  1  0
 12 13  2  0
 12 14  1  0
 14 15  1  0
 15 16  1  0
 16 17  2  0
 17 18  1  0
 18 19  1  0
 18 20  2  0
 20 21  1  0
 21 22  1  0
 21 23  2  0
 23 24  1  0
 24 25  1  0
 24 14  2  0
 23 16  1  0
M  END
>  <Binding energies>  (47) 
[-5.55]

>  <Ligand effiencies>  (47) 
[-0.1982142857142857]

>  <Interactions>  (47) 
["V-B:LYS:547:CE:9922, V-B:VAL:458:CG2:9059, V-A:VAL:542:C:4894, V-B:HIS:456:C:9033, V-A:GLU:543:C:4902, H-B:ASP:473:OD2:9214, V-B:ASP:473:CB:9211, V-B:HIS:456:CB:9037, V-B:SER:483:CB:9305, V-B:TYR:484:CB:9313, V-A:VAL:542:CG1:4899, V-B:ASP:473:CG:9212, H-A:LYS:547:NZ:4951, V-A:LYS:547:CE:4950, H-B:ASP:473:OD1:9213, H-B:LYS:547:NZ:9923, V-B:HIS:456:CG:9038, V-B:HIS:456:CD2:9040, V-B:HIS:456:CA:9035, V-A:VAL:542:CB:4898, H-B:VAL:457:N:9048, H-B:VAL:458:N:9056, H-B:HIS:456:O:9034"]

$$$$
4al_Grossjean_2025
     RDKit          3D

 16 17  0  0  0  0  0  0  0  0999 V2000
  128.9680  125.6010   62.4040 C   0  0  0  0  0  0  0  0  0  0  0  0
  129.2910  124.2330   62.2060 O   0  0  0  0  0  0  0  0  0  0  0  0
  128.3140  123.2980   62.0760 C   0  0  0  0  0  0  0  0  0  0  0  0
  127.9110  122.5880   63.0000 O   0  0  0  0  0  0  0  0  0  0  0  0
  127.7770  123.2140   60.7000 C   0  0  0  0  0  0  0  0  0  0  0  0
  128.8240  122.7050   59.3740 S   0  0  0  0  0  0  0  0  0  0  0  0
  127.5170  122.8700   58.2240 C   0  0  0  0  0  0  0  0  0  0  0  0
  127.6820  122.6080   56.9270 N   0  0  0  0  0  0  0  0  0  0  0  0
  126.5890  122.7750   56.1410 C   0  0  0  0  0  0  0  0  0  0  0  0
  126.7980  122.4710   54.6690 C   0  0  0  0  0  0  0  0  0  0  0  0
  125.3490  123.1950   56.6190 C   0  0  0  0  0  0  0  0  0  0  0  0
  125.1790  123.4700   57.9800 C   0  0  0  0  0  0  0  0  0  0  0  0
  123.8080  123.9250   58.4530 C   0  0  0  0  0  0  0  0  0  0  0  0
  126.3030  123.3050   58.8340 C   0  0  0  0  0  0  0  0  0  0  0  0
  126.4820  123.4930   60.2470 C   0  0  0  0  0  0  0  0  0  0  0  0
  125.4670  123.9090   61.0710 N   0  0  0  0  0  0  0  0  0  0  0  0
  1  2  1  0
  2  3  1  0
  3  4  2  0
  3  5  1  0
  5  6  1  0
  6  7  1  0
  7  8  2  0
  8  9  1  0
  9 10  1  0
  9 11  2  0
 11 12  1  0
 12 13  1  0
 12 14  2  0
 14 15  1  0
 15 16  1  0
 15  5  2  0
 14  7  1  0
M  END
>  <Binding energies>  (48) 
[-5.92]

>  <Ligand effiencies>  (48) 
[-0.3288888888888889]

>  <Interactions>  (48) 
["V-B:MET:535:CE:9807, V-B:TYR:539:CE2:9848, V-B:TYR:539:CD2:9846, V-B:TYR:539:CD1:9845, H-B:ASP:366:OD2:8187, V-B:TYR:539:CE1:9847, V-B:TYR:539:C:9839, V-B:ASP:366:CG:8185, H-B:TYR:539:N:9842, V-B:PRO:540:CB:9857, V-B:PRO:540:CA:9855, H-B:ALA:541:N:9863, V-B:ASP:366:CB:8184, V-B:PRO:540:N:9856, V-B:LEU:363:CD1:8161, V-B:TYR:531:CZ:9766, V-B:TYR:531:CE2:9765, V-B:GLU:543:CD:9880, H-B:GLU:543:OE1:9881, V-B:ILE:538:CA:9832, V-B:ILE:538:CD1:9837, H-A:TYR:484:OH:4348, V-B:ILE:538:C:9830, V-B:LEU:363:CA:8157, V-B:LEU:363:CB:8159, V-B:VAL:537:C:9822"]

$$$$
4bc_Grossjean_2025
     RDKit          3D

 26 28  0  0  0  0  0  0  0  0999 V2000
  134.9650  128.1350   74.1240 C   0  0  0  0  0  0  0  0  0  0  0  0
  133.6690  127.9890   74.6940 O   0  0  0  0  0  0  0  0  0  0  0  0
  133.0670  126.7460   74.6880 C   0  0  0  0  0  0  0  0  0  0  0  0
  131.7050  126.7150   74.3880 C   0  0  0  0  0  0  0  0  0  0  0  0
  131.0120  125.5080   74.3580 C   0  0  0  0  0  0  0  0  0  0  0  0
  131.6770  124.3090   74.6200 C   0  0  0  0  0  0  0  0  0  0  0  0
  130.8930  123.1420   74.5820 N   0  0  0  0  0  0  0  0  0  0  0  0
  129.8360  122.8450   73.7870 C   0  0  0  0  0  0  0  0  0  0  0  0
  129.3630  123.6200   72.9550 O   0  0  0  0  0  0  0  0  0  0  0  0
  129.2590  121.5100   73.9780 C   0  0  0  0  0  0  0  0  0  0  0  0
  129.7450  120.5240   75.3550 S   0  0  0  0  0  0  0  0  0  0  0  0
  128.6840  119.2270   74.8580 C   0  0  0  0  0  0  0  0  0  0  0  0
  128.5920  118.0970   75.5580 N   0  0  0  0  0  0  0  0  0  0  0  0
  127.7390  117.1650   75.0740 C   0  0  0  0  0  0  0  0  0  0  0  0
  127.6440  115.8890   75.8890 C   0  0  0  0  0  0  0  0  0  0  0  0
  126.9840  117.3340   73.9150 C   0  0  0  0  0  0  0  0  0  0  0  0
  127.0780  118.5220   73.1730 C   0  0  0  0  0  0  0  0  0  0  0  0
  126.2290  118.6600   71.9040 C   0  0  0  0  0  0  0  0  0  0  0  0
  125.4370  119.7340   71.9210 F   0  0  0  0  0  0  0  0  0  0  0  0
  127.0250  118.7670   70.8400 F   0  0  0  0  0  0  0  0  0  0  0  0
  125.4480  117.5890   71.7640 F   0  0  0  0  0  0  0  0  0  0  0  0
  127.9670  119.5260   73.6580 C   0  0  0  0  0  0  0  0  0  0  0  0
  128.3170  120.8420   73.1810 C   0  0  0  0  0  0  0  0  0  0  0  0
  127.7710  121.3870   72.0460 N   0  0  0  0  0  0  0  0  0  0  0  0
  133.0440  124.3320   74.9360 C   0  0  0  0  0  0  0  0  0  0  0  0
  133.7330  125.5410   74.9660 C   0  0  0  0  0  0  0  0  0  0  0  0
  1  2  1  0
  2  3  1  0
  3  4  2  0
  4  5  1  0
  5  6  2  0
  6  7  1  0
  7  8  1  0
  8  9  2  0
  8 10  1  0
 10 11  1  0
 11 12  1  0
 12 13  2  0
 13 14  1  0
 14 15  1  0
 14 16  2  0
 16 17  1  0
 17 18  1  0
 18 19  1  0
 18 20  1  0
 18 21  1  0
 17 22  2  0
 22 23  1  0
 23 24  1  0
  6 25  1  0
 25 26  2  0
 26  3  1  0
 23 10  2  0
 22 12  1  0
M  END
>  <Binding energies>  (49) 
[-6.32]

>  <Ligand effiencies>  (49) 
[-0.21793103448275863]

>  <Interactions>  (49) 
["V-A:VAL:457:C:4073, V-A:HIS:456:CD2:4068, V-A:TYR:484:CB:4341, H-A:TYR:484:O:4338, V-A:ASP:473:CG:4240, V-A:VAL:458:CG2:4087, V-A:HIS:456:CG:4066, H-B:GLU:543:O:9875, V-B:LYS:547:CE:9922, V-A:HIS:456:C:4061, V-B:VAL:542:CG1:9871, V-A:TYR:484:C:4337, V-A:HIS:456:CB:4065, V-B:GLY:544:CA:9886, H-A:ASP:473:OD1:4241, V-A:LYS:547:CG:4948, V-A:LYS:547:CD:4949, V-A:LYS:547:CA:4945, V-A:ILE:546:C:4934, H-B:LYS:547:NZ:9923, V-A:LYS:547:CB:4947, V-A:GLY:544:C:4912, V-B:GLU:543:C:9874, V-B:VAL:542:C:9866, V-B:VAL:542:CB:9870, V-A:SER:483:CB:4333, V-A:ARG:545:C:4917, V-A:TYR:484:CA:4339, V-A:ILE:546:CA:4936, H-B:VAL:542:O:9867, V-A:SER:483:C:4329, V-A:SER:483:CA:4331"]

$$$$
4bf_Grossjean_2025
     RDKit          3D

 24 26  0  0  0  0  0  0  0  0999 V2000
  129.5090  132.9690   54.6640 C   0  0  0  0  0  0  0  0  0  0  0  0
  129.7270  132.4770   56.0840 C   0  0  0  0  0  0  0  0  0  0  0  0
  130.9140  131.8510   56.4520 C   0  0  0  0  0  0  0  0  0  0  0  0
  131.1000  131.3980   57.7680 C   0  0  0  0  0  0  0  0  0  0  0  0
  132.4230  130.7120   58.1260 C   0  0  0  0  0  0  0  0  0  0  0  0
  132.9840  131.2040   59.2340 F   0  0  0  0  0  0  0  0  0  0  0  0
  132.2160  129.4100   58.3280 F   0  0  0  0  0  0  0  0  0  0  0  0
  133.2980  130.8700   57.1320 F   0  0  0  0  0  0  0  0  0  0  0  0
  130.0310  131.6100   58.6880 C   0  0  0  0  0  0  0  0  0  0  0  0
  129.8600  131.2900   60.0840 C   0  0  0  0  0  0  0  0  0  0  0  0
  130.8290  130.6580   60.8220 N   0  0  0  0  0  0  0  0  0  0  0  0
  128.6220  131.6840   60.6170 C   0  0  0  0  0  0  0  0  0  0  0  0
  128.1080  131.4900   61.9770 C   0  0  0  0  0  0  0  0  0  0  0  0
  128.5020  132.1990   62.9030 O   0  0  0  0  0  0  0  0  0  0  0  0
  127.1850  130.5070   62.1130 N   0  0  0  0  0  0  0  0  0  0  0  0
  126.5390  130.0390   63.2730 C   0  0  0  0  0  0  0  0  0  0  0  0
  127.1330  129.2490   64.2730 C   0  0  0  0  0  0  0  0  0  0  0  0
  126.3730  128.8370   65.3710 C   0  0  0  0  0  0  0  0  0  0  0  0
  125.0340  129.2230   65.4380 C   0  0  0  0  0  0  0  0  0  0  0  0
  124.4360  129.9780   64.4830 N   0  0  0  0  0  0  0  0  0  0  0  0
  125.1870  130.3700   63.4230 C   0  0  0  0  0  0  0  0  0  0  0  0
  127.6230  132.4650   59.3940 S   0  0  0  0  0  0  0  0  0  0  0  0
  128.8670  132.2650   58.1820 C   0  0  0  0  0  0  0  0  0  0  0  0
  128.6950  132.6940   56.9330 N   0  0  0  0  0  0  0  0  0  0  0  0
  1  2  1  0
  2  3  2  0
  3  4  1  0
  4  5  1  0
  5  6  1  0
  5  7  1  0
  5  8  1  0
  4  9  2  0
  9 10  1  0
 10 11  1  0
 10 12  2  0
 12 13  1  0
 13 14  2  0
 13 15  1  0
 15 16  1  0
 16 17  2  0
 17 18  1  0
 18 19  2  0
 19 20  1  0
 20 21  2  0
 12 22  1  0
 22 23  1  0
 23 24  2  0
 24  2  1  0
 23  9  1  0
 21 16  1  0
M  END
>  <Binding energies>  (50) 
[-6.13]

>  <Ligand effiencies>  (50) 
[-0.22703703703703704]

>  <Interactions>  (50) 
["V-A:ASP:366:CG:3213, V-A:PRO:540:CA:4883, V-A:ASP:366:CB:3212, H-B:GLY:454:N:9022, H-B:TYR:484:OH:9320, V-A:TYR:539:CE1:4875, V-B:ARG:545:CZ:9898, V-A:TYR:539:CD1:4873, V-A:TYR:539:C:4867, H-A:ASP:366:OD1:3214, V-A:TYR:539:CE2:4876, V-A:PRO:540:CB:4885, V-A:LEU:363:CD1:3189, V-A:TYR:539:CD2:4874, V-A:ILE:538:CA:4860, V-A:ILE:538:CB:4862, V-A:PRO:540:N:4884, V-A:TYR:539:CG:4872, H-A:GLU:543:OE1:4909, V-B:ARG:545:CD:9895, V-B:TYR:484:CZ:9319, V-A:LEU:363:CA:3185, V-A:ILE:538:C:4858"]

$$$$
4bh_Grossjean_2025
     RDKit          3D

 31 33  0  0  0  0  0  0  0  0999 V2000
  126.4960  127.2970   67.3780 C   0  0  0  0  0  0  0  0  0  0  0  0
  125.5780  128.2870   66.9280 O   0  0  0  0  0  0  0  0  0  0  0  0
  125.7020  128.7970   65.6490 C   0  0  0  0  0  0  0  0  0  0  0  0
  126.9090  128.8370   64.9340 C   0  0  0  0  0  0  0  0  0  0  0  0
  126.9620  129.3690   63.6460 C   0  0  0  0  0  0  0  0  0  0  0  0
  128.2730  129.3620   62.8680 C   0  0  0  0  0  0  0  0  0  0  0  0
  128.7750  128.0180   62.5810 N   0  0  0  0  0  0  0  0  0  0  0  0
  128.0280  126.9800   62.1520 C   0  0  0  0  0  0  0  0  0  0  0  0
  126.8080  127.0610   61.9970 O   0  0  0  0  0  0  0  0  0  0  0  0
  128.7440  125.7240   61.9230 C   0  0  0  0  0  0  0  0  0  0  0  0
  127.8460  124.2330   61.6560 S   0  0  0  0  0  0  0  0  0  0  0  0
  129.3270  123.3130   61.5320 C   0  0  0  0  0  0  0  0  0  0  0  0
  129.3130  122.0000   61.3080 N   0  0  0  0  0  0  0  0  0  0  0  0
  130.5220  121.3980   61.2300 C   0  0  0  0  0  0  0  0  0  0  0  0
  130.4830  119.9010   60.9760 C   0  0  0  0  0  0  0  0  0  0  0  0
  131.7330  122.0700   61.3670 C   0  0  0  0  0  0  0  0  0  0  0  0
  131.7550  123.4540   61.6050 C   0  0  0  0  0  0  0  0  0  0  0  0
  133.1110  124.1510   61.7470 C   0  0  0  0  0  0  0  0  0  0  0  0
  134.1450  123.3160   61.6210 F   0  0  0  0  0  0  0  0  0  0  0  0
  133.2380  125.0870   60.8060 F   0  0  0  0  0  0  0  0  0  0  0  0
  133.2020  124.7210   62.9480 F   0  0  0  0  0  0  0  0  0  0  0  0
  130.4960  124.1190   61.6960 C   0  0  0  0  0  0  0  0  0  0  0  0
  130.1280  125.4940   61.9320 C   0  0  0  0  0  0  0  0  0  0  0  0
  131.0520  126.4860   62.1380 N   0  0  0  0  0  0  0  0  0  0  0  0
  125.7910  129.8410   63.0490 C   0  0  0  0  0  0  0  0  0  0  0  0
  124.5710  129.8210   63.7420 C   0  0  0  0  0  0  0  0  0  0  0  0
  123.3770  130.2840   63.2180 O   0  0  0  0  0  0  0  0  0  0  0  0
  123.2530  130.4540   61.8100 C   0  0  0  0  0  0  0  0  0  0  0  0
  124.5410  129.3010   65.0440 C   0  0  0  0  0  0  0  0  0  0  0  0
  123.3490  129.2580   65.7280 O   0  0  0  0  0  0  0  0  0  0  0  0
  123.3860  129.9030   66.9940 C   0  0  0  0  0  0  0  0  0  0  0  0
  1  2  1  0
  2  3  1  0
  3  4  2  0
  4  5  1  0
  5  6  1  0
  6  7  1  0
  7  8  1  0
  8  9  2  0
  8 10  1  0
 10 11  1  0
 11 12  1  0
 12 13  2  0
 13 14  1  0
 14 15  1  0
 14 16  2  0
 16 17  1  0
 17 18  1  0
 18 19  1  0
 18 20  1  0
 18 21  1  0
 17 22  2  0
 22 23  1  0
 23 24  1  0
  5 25  2  0
 25 26  1  0
 26 27  1  0
 27 28  1  0
 26 29  2  0
 29 30  1  0
 30 31  1  0
 29  3  1  0
 23 10  2  0
 22 12  1  0
M  END
>  <Binding energies>  (51) 
[-6.45]

>  <Ligand effiencies>  (51) 
[-0.18970588235294117]

>  <Interactions>  (51) 
["V-A:ASP:366:CG:3213, V-A:ASP:366:CB:3212, V-A:GLU:543:CD:4908, V-B:ILE:369:CD1:8211, H-B:GLY:454:N:9022, V-A:GLU:543:CG:4907, V-B:ARG:545:CZ:9898, V-B:TYR:539:CD2:9846, V-A:ARG:545:CZ:4926, V-A:LEU:475:CD2:4259, V-B:ASP:366:CG:8185, V-A:ILE:369:CD1:3239, V-B:GLU:543:CD:9880, H-A:ASP:366:OD1:3214, H-A:GLU:543:OE1:4909, H-A:ASP:366:OD2:3215, H-A:GLU:543:OE2:4910, V-B:GLY:454:CA:9021, V-B:ARG:545:CD:9895, H-B:ARG:545:NE:9896, V-B:ARG:545:CG:9894, H-B:HIS:456:ND1:9039, V-B:TYR:484:CZ:9319, V-B:TYR:484:CE1:9317, V-B:HIS:456:CE1:9042, H-B:ARG:545:NH2:9900, V-B:GLY:453:C:9014, V-B:ILE:455:C:9024, H-B:ARG:545:NH1:9899, V-B:GLY:453:CA:9016, V-A:GLY:454:CA:4049, V-A:GLY:453:C:4042, V-B:GLU:543:CB:9878, V-B:GLY:454:C:9019"]

$$$$
4bi_Grossjean_2025
     RDKit          3D

 23 25  0  0  0  0  0  0  0  0999 V2000
  123.3870  131.3570   76.4220 C   0  0  0  0  0  0  0  0  0  0  0  0
  124.7980  131.8710   76.2030 C   0  0  0  0  0  0  0  0  0  0  0  0
  125.6280  132.1710   77.2800 C   0  0  0  0  0  0  0  0  0  0  0  0
  126.9340  132.6420   77.0620 C   0  0  0  0  0  0  0  0  0  0  0  0
  127.8130  132.9500   78.2790 C   0  0  0  0  0  0  0  0  0  0  0  0
  127.4590  132.2620   79.3660 F   0  0  0  0  0  0  0  0  0  0  0  0
  129.0810  132.6430   78.0090 F   0  0  0  0  0  0  0  0  0  0  0  0
  127.7280  134.2460   78.5810 F   0  0  0  0  0  0  0  0  0  0  0  0
  127.3530  132.7980   75.7070 C   0  0  0  0  0  0  0  0  0  0  0  0
  128.5850  133.2490   75.1080 C   0  0  0  0  0  0  0  0  0  0  0  0
  129.6670  133.6500   75.8480 N   0  0  0  0  0  0  0  0  0  0  0  0
  128.5790  133.2330   73.7030 C   0  0  0  0  0  0  0  0  0  0  0  0
  129.6450  133.6340   72.7800 C   0  0  0  0  0  0  0  0  0  0  0  0
  130.3700  132.7890   72.2520 O   0  0  0  0  0  0  0  0  0  0  0  0
  129.7470  134.9670   72.5520 N   0  0  0  0  0  0  0  0  0  0  0  0
  130.6510  135.6160   71.7210 C   0  0  0  0  0  0  0  0  0  0  0  0
  131.5510  136.5780   72.1780 C   0  0  0  0  0  0  0  0  0  0  0  0
  132.2550  136.9690   71.0620 C   0  0  0  0  0  0  0  0  0  0  0  0
  131.8030  136.2770   69.9890 O   0  0  0  0  0  0  0  0  0  0  0  0
  130.7860  135.4230   70.4200 N   0  0  0  0  0  0  0  0  0  0  0  0
  127.0270  132.6800   73.0780 S   0  0  0  0  0  0  0  0  0  0  0  0
  126.4040  132.4560   74.6960 C   0  0  0  0  0  0  0  0  0  0  0  0
  125.1670  132.0070   74.9080 N   0  0  0  0  0  0  0  0  0  0  0  0
  1  2  1  0
  2  3  2  0
  3  4  1  0
  4  5  1  0
  5  6  1  0
  5  7  1  0
  5  8  1  0
  4  9  2  0
  9 10  1  0
 10 11  1  0
 10 12  2  0
 12 13  1  0
 13 14  2  0
 13 15  1  0
 15 16  1  0
 16 17  1  0
 17 18  2  0
 18 19  1  0
 19 20  1  0
 12 21  1  0
 21 22  1  0
 22 23  2  0
 23  2  1  0
 22  9  1  0
 20 16  2  0
M  END
>  <Binding energies>  (52) 
[-6.34]

>  <Ligand effiencies>  (52) 
[-0.24384615384615385]

>  <Interactions>  (52) 
["V-B:VAL:458:CG2:9059, V-B:HIS:456:C:9033, V-B:LYS:471:CD:9191, V-B:ASP:473:CB:9211, V-B:HIS:456:CB:9037, V-B:SER:483:CB:9305, V-B:TYR:484:CA:9311, V-B:TYR:484:CB:9313, V-A:VAL:542:CG1:4899, V-B:ASP:473:CG:9212, V-B:LYS:471:CB:9189, V-B:TYR:484:CG:9314, H-A:LYS:547:NZ:4951, V-A:LYS:547:CE:4950, V-B:LYS:471:C:9185, V-B:LEU:472:CA:9200, V-B:LYS:471:CA:9187, V-B:VAL:457:C:9045, V-B:HIS:456:CG:9038, V-B:HIS:456:CD2:9040, V-B:VAL:457:CA:9047, V-B:TYR:484:C:9309, V-B:LYS:471:CE:9192, H-B:TYR:484:N:9312, H-B:TYR:484:O:9310, H-A:GLY:544:N:4915, V-B:LYS:471:CG:9190"]

$$$$
4bj_Grossjean_2025
     RDKit          3D

 23 25  0  0  0  0  0  0  0  0999 V2000
  129.5250  132.9980   54.6310 C   0  0  0  0  0  0  0  0  0  0  0  0
  129.9070  132.4380   55.9890 C   0  0  0  0  0  0  0  0  0  0  0  0
  131.1350  131.8110   56.1870 C   0  0  0  0  0  0  0  0  0  0  0  0
  131.4730  131.2910   57.4470 C   0  0  0  0  0  0  0  0  0  0  0  0
  132.8340  130.6070   57.6150 C   0  0  0  0  0  0  0  0  0  0  0  0
  132.7330  129.3010   57.8730 F   0  0  0  0  0  0  0  0  0  0  0  0
  133.5470  130.7400   56.4970 F   0  0  0  0  0  0  0  0  0  0  0  0
  133.4960  131.1650   58.6290 F   0  0  0  0  0  0  0  0  0  0  0  0
  130.5140  131.4400   58.4920 C   0  0  0  0  0  0  0  0  0  0  0  0
  130.5040  131.0420   59.8790 C   0  0  0  0  0  0  0  0  0  0  0  0
  131.5490  130.3740   60.4660 N   0  0  0  0  0  0  0  0  0  0  0  0
  129.3380  131.4050   60.5720 C   0  0  0  0  0  0  0  0  0  0  0  0
  128.9930  131.1530   61.9730 C   0  0  0  0  0  0  0  0  0  0  0  0
  129.4780  131.8390   62.8760 O   0  0  0  0  0  0  0  0  0  0  0  0
  128.1110  130.1450   62.1840 N   0  0  0  0  0  0  0  0  0  0  0  0
  127.6140  129.7140   63.4060 C   0  0  0  0  0  0  0  0  0  0  0  0
  128.2350  129.6830   64.5650 N   0  0  0  0  0  0  0  0  0  0  0  0
  127.4560  129.2170   65.5210 C   0  0  0  0  0  0  0  0  0  0  0  0
  126.1670  128.8550   65.1420 C   0  0  0  0  0  0  0  0  0  0  0  0
  125.9770  129.1420   63.4370 S   0  0  0  0  0  0  0  0  0  0  0  0
  128.1990  132.2360   59.5140 S   0  0  0  0  0  0  0  0  0  0  0  0
  129.2960  132.1070   58.1580 C   0  0  0  0  0  0  0  0  0  0  0  0
  128.9780  132.5960   56.9600 N   0  0  0  0  0  0  0  0  0  0  0  0
  1  2  1  0
  2  3  2  0
  3  4  1  0
  4  5  1  0
  5  6  1  0
  5  7  1  0
  5  8  1  0
  4  9  2  0
  9 10  1  0
 10 11  1  0
 10 12  2  0
 12 13  1  0
 13 14  2  0
 13 15  1  0
 15 16  1  0
 16 17  2  0
 17 18  1  0
 18 19  2  0
 19 20  1  0
 12 21  1  0
 21 22  1  0
 22 23  2  0
 23  2  1  0
 22  9  1  0
 20 16  1  0
M  END
>  <Binding energies>  (53) 
[-5.78]

>  <Ligand effiencies>  (53) 
[-0.22230769230769232]

>  <Interactions>  (53) 
["V-A:ASP:366:CG:3213, V-A:PRO:540:CA:4883, V-A:ASP:366:CB:3212, V-A:GLU:543:CD:4908, H-B:TYR:484:OH:9320, V-A:GLU:543:CG:4907, V-B:ARG:545:CZ:9898, V-A:TYR:539:C:4867, H-A:ASP:366:OD1:3214, V-A:TYR:539:CE2:4876, V-A:TYR:531:CE2:4793, V-A:PRO:540:CB:4885, V-A:LEU:363:CD1:3189, V-A:TYR:539:CD2:4874, V-A:ILE:538:CA:4860, V-A:ILE:538:CB:4862, V-A:PRO:540:N:4884, V-A:TYR:539:CG:4872, H-A:GLU:543:OE1:4909, V-A:ILE:538:CG2:4863, V-B:TYR:484:CZ:9319, V-A:LEU:363:CA:3185, V-A:ILE:538:C:4858, V-A:TYR:531:CZ:4794"]

$$$$
4bk_Grossjean_2025
     RDKit          3D

 28 29  0  0  0  0  0  0  0  0999 V2000
  126.4080  126.0560   58.5640 C   0  0  0  0  0  0  0  0  0  0  0  0
  127.3570  125.0590   58.9120 O   0  0  0  0  0  0  0  0  0  0  0  0
  127.7170  124.2170   57.8240 C   0  0  0  0  0  0  0  0  0  0  0  0
  127.2800  122.7780   58.1240 C   0  0  0  0  0  0  0  0  0  0  0  0
  126.9450  122.1220   56.9090 O   0  0  0  0  0  0  0  0  0  0  0  0
  125.9030  122.7590   56.1810 C   0  0  0  0  0  0  0  0  0  0  0  0
  124.5930  122.6600   56.9750 C   0  0  0  0  0  0  0  0  0  0  0  0
  124.5790  123.6600   57.9850 O   0  0  0  0  0  0  0  0  0  0  0  0
  123.3910  123.6710   58.7670 C   0  0  0  0  0  0  0  0  0  0  0  0
  123.7620  123.6200   60.2590 C   0  0  0  0  0  0  0  0  0  0  0  0
  125.2040  123.5830   60.5050 N   0  0  0  0  0  0  0  0  0  0  0  0
  125.7870  123.2350   61.6710 C   0  0  0  0  0  0  0  0  0  0  0  0
  125.1360  122.8880   62.6570 O   0  0  0  0  0  0  0  0  0  0  0  0
  127.2500  123.2830   61.6990 C   0  0  0  0  0  0  0  0  0  0  0  0
  128.1820  121.7890   61.7550 S   0  0  0  0  0  0  0  0  0  0  0  0
  129.6880  122.6770   61.7330 C   0  0  0  0  0  0  0  0  0  0  0  0
  130.8640  122.0520   61.7640 N   0  0  0  0  0  0  0  0  0  0  0  0
  131.9600  122.8460   61.7410 C   0  0  0  0  0  0  0  0  0  0  0  0
  133.2890  122.1120   61.7740 C   0  0  0  0  0  0  0  0  0  0  0  0
  131.9080  124.2360   61.6900 C   0  0  0  0  0  0  0  0  0  0  0  0
  130.6720  124.9010   61.6590 C   0  0  0  0  0  0  0  0  0  0  0  0
  130.6650  126.4320   61.6070 C   0  0  0  0  0  0  0  0  0  0  0  0
  129.9680  126.9160   60.5770 F   0  0  0  0  0  0  0  0  0  0  0  0
  130.1210  126.9190   62.7220 F   0  0  0  0  0  0  0  0  0  0  0  0
  131.9130  126.8850   61.4930 F   0  0  0  0  0  0  0  0  0  0  0  0
  129.4960  124.0930   61.6810 C   0  0  0  0  0  0  0  0  0  0  0  0
  128.0890  124.4070   61.6580 C   0  0  0  0  0  0  0  0  0  0  0  0
  127.6170  125.6930   61.6030 N   0  0  0  0  0  0  0  0  0  0  0  0
  1  2  1  0
  2  3  1  0
  3  4  1  0
  4  5  1  0
  5  6  1  0
  6  7  1  0
  7  8  1  0
  8  9  1  0
  9 10  1  0
 10 11  1  0
 11 12  1  0
 12 13  2  0
 12 14  1  0
 14 15  1  0
 15 16  1  0
 16 17  2  0
 17 18  1  0
 18 19  1  0
 18 20  2  0
 20 21  1  0
 21 22  1  0
 22 23  1  0
 22 24  1  0
 22 25  1  0
 21 26  2  0
 26 27  1  0
 27 28  1  0
 27 14  2  0
 26 16  1  0
M  END
>  <Binding energies>  (54) 
[-4.95]

>  <Ligand effiencies>  (54) 
[-0.15967741935483873]

>  <Interactions>  (54) 
["V-A:ASP:366:CG:3213, V-A:GLU:543:CD:4908, V-A:ARG:545:CZ:4926, V-A:LEU:475:CD2:4259, H-B:TYR:531:OH:9767, H-B:ASP:366:OD2:8187, V-B:TYR:539:C:9839, V-B:ASP:366:CG:8185, H-B:TYR:539:N:9842, V-B:PRO:540:CB:9857, V-B:PRO:540:CA:9855, H-B:ALA:541:N:9863, V-B:ASP:366:CB:8184, V-B:PRO:540:N:9856, V-B:LEU:363:CD1:8161, H-B:GLU:543:OE2:9882, V-B:GLU:543:CD:9880, H-B:GLU:543:OE1:9881, V-B:ILE:538:CD1:9837, V-B:PRO:540:C:9853, V-B:PRO:540:CG:9858, V-B:PRO:540:CD:9859, V-B:ALA:541:CB:9864, H-A:TYR:484:OH:4348, H-B:ARG:545:NH2:9900, V-B:ASN:362:CB:8148, V-B:LEU:363:CA:8157, V-B:LEU:363:CB:8159, V-B:ALA:541:CA:9862, V-A:GLY:454:CA:4049, V-B:ASN:362:C:8144"]

$$$$
4cd_Grossjean_2025
     RDKit          3D

 29 32  0  0  0  0  0  0  0  0999 V2000
  131.6220  126.4930   61.9400 N   0  0  0  0  0  0  0  0  0  0  0  0
  130.6610  125.5290   61.7690 C   0  0  0  0  0  0  0  0  0  0  0  0
  129.2840  125.7970   61.8250 C   0  0  0  0  0  0  0  0  0  0  0  0
  128.6120  127.0750   62.0790 C   0  0  0  0  0  0  0  0  0  0  0  0
  129.2040  128.1410   61.9080 O   0  0  0  0  0  0  0  0  0  0  0  0
  127.3250  126.9820   62.4950 N   0  0  0  0  0  0  0  0  0  0  0  0
  126.4280  127.9990   62.8690 C   0  0  0  0  0  0  0  0  0  0  0  0
  126.2910  128.2200   64.2430 C   0  0  0  0  0  0  0  0  0  0  0  0
  125.4370  129.2140   64.7120 C   0  0  0  0  0  0  0  0  0  0  0  0
  124.7230  129.9950   63.8070 C   0  0  0  0  0  0  0  0  0  0  0  0
  124.8600  129.7940   62.4360 C   0  0  0  0  0  0  0  0  0  0  0  0
  125.7130  128.8000   61.9620 C   0  0  0  0  0  0  0  0  0  0  0  0
  128.3400  124.3340   61.5530 S   0  0  0  0  0  0  0  0  0  0  0  0
  129.7900  123.3760   61.3770 C   0  0  0  0  0  0  0  0  0  0  0  0
  129.7340  122.0680   61.1390 N   0  0  0  0  0  0  0  0  0  0  0  0
  130.9160  121.4050   61.0310 C   0  0  0  0  0  0  0  0  0  0  0  0
  130.8210  119.9310   60.7650 C   0  0  0  0  0  0  0  0  0  0  0  0
  129.8290  119.1520   61.3820 C   0  0  0  0  0  0  0  0  0  0  0  0
  129.7340  117.7840   61.1400 C   0  0  0  0  0  0  0  0  0  0  0  0
  130.6340  117.1740   60.2720 C   0  0  0  0  0  0  0  0  0  0  0  0
  131.6240  117.9220   59.6450 C   0  0  0  0  0  0  0  0  0  0  0  0
  131.7130  119.2890   59.8880 C   0  0  0  0  0  0  0  0  0  0  0  0
  132.1450  122.0610   61.1430 C   0  0  0  0  0  0  0  0  0  0  0  0
  132.2150  123.4420   61.3900 C   0  0  0  0  0  0  0  0  0  0  0  0
  133.5960  124.0980   61.5060 C   0  0  0  0  0  0  0  0  0  0  0  0
  133.6790  124.9720   62.5120 F   0  0  0  0  0  0  0  0  0  0  0  0
  134.5230  123.1630   61.7110 F   0  0  0  0  0  0  0  0  0  0  0  0
  133.8770  124.7570   60.3810 F   0  0  0  0  0  0  0  0  0  0  0  0
  130.9830  124.1450   61.5180 C   0  0  0  0  0  0  0  0  0  0  0  0
  1  2  1  0
  2  3  2  0
  3  4  1  0
  4  5  2  0
  4  6  1  0
  6  7  1  0
  7  8  2  0
  8  9  1  0
  9 10  2  0
 10 11  1  0
 11 12  2  0
  3 13  1  0
 13 14  1  0
 14 15  2  0
 15 16  1  0
 16 17  1  0
 17 18  2  0
 18 19  1  0
 19 20  2  0
 20 21  1  0
 21 22  2  0
 16 23  2  0
 23 24  1  0
 24 25  1  0
 25 26  1  0
 25 27  1  0
 25 28  1  0
 24 29  2  0
 29  2  1  0
 12  7  1  0
 29 14  1  0
 22 17  1  0
M  END
>  <Binding energies>  (55) 
[-7.24]

>  <Ligand effiencies>  (55) 
[-0.22625]

>  <Interactions>  (55) 
["V-A:ASP:366:CA:3210, V-A:ASP:366:CG:3213, V-B:TYR:539:CE2:9848, V-A:ASP:366:CB:3212, V-A:GLU:543:CD:4908, V-B:ARG:545:CZ:9898, V-B:TYR:539:CD2:9846, V-A:ARG:545:CZ:4926, V-A:LEU:475:CD2:4259, V-B:TYR:539:CG:9844, V-B:TYR:539:C:9839, V-B:ASP:366:CG:8185, V-A:ILE:369:CD1:3239, H-B:GLU:543:OE2:9882, V-B:GLU:543:CD:9880, H-B:GLU:543:OE1:9881, H-A:ASP:366:OD1:3214, H-A:GLU:543:OE1:4909, H-A:ASP:366:OD2:3215, H-A:GLU:543:OE2:4910, V-B:TYR:539:CB:9843, V-A:LEU:475:CD1:4258, V-B:ALA:541:CB:9864, V-A:SER:385:CB:3409, V-A:PRO:482:CB:4326, V-A:PRO:482:CG:4327, V-A:GLY:454:CA:4049, V-A:GLY:453:C:4042, V-A:GLY:453:CA:4044"]

$$$$
4cg_Grossjean_2025
     RDKit          3D

 30 33  0  0  0  0  0  0  0  0999 V2000
  130.9830  126.6040   62.7190 N   0  0  0  0  0  0  0  0  0  0  0  0
  130.1150  125.6000   62.3720 C   0  0  0  0  0  0  0  0  0  0  0  0
  128.7270  125.7790   62.2920 C   0  0  0  0  0  0  0  0  0  0  0  0
  127.9520  127.0020   62.4970 C   0  0  0  0  0  0  0  0  0  0  0  0
  126.7520  127.0560   62.2200 O   0  0  0  0  0  0  0  0  0  0  0  0
  128.6370  128.0660   62.9660 N   0  0  0  0  0  0  0  0  0  0  0  0
  128.0650  129.3770   63.2660 C   0  0  0  0  0  0  0  0  0  0  0  0
  126.8290  129.3110   64.1550 C   0  0  0  0  0  0  0  0  0  0  0  0
  125.5820  129.6770   63.6400 C   0  0  0  0  0  0  0  0  0  0  0  0
  124.4460  129.5870   64.4400 C   0  0  0  0  0  0  0  0  0  0  0  0
  124.5580  129.1230   65.7480 C   0  0  0  0  0  0  0  0  0  0  0  0
  125.7960  128.7410   66.2620 C   0  0  0  0  0  0  0  0  0  0  0  0
  126.9320  128.8280   65.4630 C   0  0  0  0  0  0  0  0  0  0  0  0
  127.9150  124.2950   61.8000 S   0  0  0  0  0  0  0  0  0  0  0  0
  129.4380  123.4390   61.7260 C   0  0  0  0  0  0  0  0  0  0  0  0
  129.4950  122.1550   61.3840 N   0  0  0  0  0  0  0  0  0  0  0  0
  130.7230  121.5740   61.3500 C   0  0  0  0  0  0  0  0  0  0  0  0
  130.7540  120.1230   60.9610 C   0  0  0  0  0  0  0  0  0  0  0  0
  131.7640  119.6230   60.1230 C   0  0  0  0  0  0  0  0  0  0  0  0
  131.7970  118.2800   59.7590 C   0  0  0  0  0  0  0  0  0  0  0  0
  130.8150  117.4130   60.2280 C   0  0  0  0  0  0  0  0  0  0  0  0
  129.8020  117.8820   61.0570 C   0  0  0  0  0  0  0  0  0  0  0  0
  129.7730  119.2260   61.4180 C   0  0  0  0  0  0  0  0  0  0  0  0
  131.8840  122.2830   61.6780 C   0  0  0  0  0  0  0  0  0  0  0  0
  131.8350  123.6370   62.0420 C   0  0  0  0  0  0  0  0  0  0  0  0
  133.1450  124.3530   62.3900 C   0  0  0  0  0  0  0  0  0  0  0  0
  133.2380  124.6750   63.6820 F   0  0  0  0  0  0  0  0  0  0  0  0
  134.1800  123.5650   62.0990 F   0  0  0  0  0  0  0  0  0  0  0  0
  133.2410  125.4820   61.6900 F   0  0  0  0  0  0  0  0  0  0  0  0
  130.5530  124.2600   62.0660 C   0  0  0  0  0  0  0  0  0  0  0  0
  1  2  1  0
  2  3  2  0
  3  4  1  0
  4  5  2  0
  4  6  1  0
  6  7  1  0
  7  8  1  0
  8  9  2  0
  9 10  1  0
 10 11  2  0
 11 12  1  0
 12 13  2  0
  3 14  1  0
 14 15  1  0
 15 16  2  0
 16 17  1  0
 17 18  1  0
 18 19  2  0
 19 20  1  0
 20 21  2  0
 21 22  1  0
 22 23  2  0
 17 24  2  0
 24 25  1  0
 25 26  1  0
 26 27  1  0
 26 28  1  0
 26 29  1  0
 25 30  2  0
 30  2  1  0
 13  8  1  0
 30 15  1  0
 23 18  1  0
M  END
>  <Binding energies>  (56) 
[-7.74]

>  <Ligand effiencies>  (56) 
[-0.23454545454545456]

>  <Interactions>  (56) 
["V-A:ASP:366:CG:3213, V-B:TYR:539:CE2:9848, V-A:GLU:543:CD:4908, V-A:GLU:543:CG:4907, V-B:ARG:545:CZ:9898, V-B:TYR:539:CD2:9846, V-A:ARG:545:CZ:4926, V-A:LEU:475:CD2:4259, V-A:TYR:484:CZ:4347, V-B:TYR:539:C:9839, V-A:ILE:369:CD1:3239, H-B:GLU:543:OE2:9882, V-B:GLU:543:CD:9880, H-A:ASP:366:OD1:3214, H-A:GLU:543:OE1:4909, H-A:GLU:543:OE2:4910, V-B:TYR:539:CB:9843, V-A:LEU:475:CD1:4258, V-B:ALA:541:CB:9864, V-B:ARG:545:CD:9895, V-B:ARG:545:CG:9894, V-B:TYR:484:CZ:9319, V-B:HIS:456:CE1:9042, H-B:ARG:545:NH2:9900, V-A:SER:385:CB:3409, V-A:PRO:482:CB:4326, V-A:PRO:482:CG:4327, V-A:GLY:454:CA:4049, V-A:GLY:453:C:4042, V-A:GLY:453:CA:4044"]

$$$$
4ch_Grossjean_2025
     RDKit          3D

 36 39  0  0  0  0  0  0  0  0999 V2000
  123.1770  130.4180   61.8510 C   0  0  0  0  0  0  0  0  0  0  0  0
  123.4020  130.3770   63.2560 O   0  0  0  0  0  0  0  0  0  0  0  0
  124.5830  129.8420   63.7390 C   0  0  0  0  0  0  0  0  0  0  0  0
  125.7940  129.8460   63.0270 C   0  0  0  0  0  0  0  0  0  0  0  0
  126.9490  129.2890   63.5780 C   0  0  0  0  0  0  0  0  0  0  0  0
  128.2470  129.2770   62.7790 C   0  0  0  0  0  0  0  0  0  0  0  0
  128.7820  127.9400   62.5210 N   0  0  0  0  0  0  0  0  0  0  0  0
  128.0480  126.8420   62.2400 C   0  0  0  0  0  0  0  0  0  0  0  0
  126.8190  126.8730   62.1450 O   0  0  0  0  0  0  0  0  0  0  0  0
  128.8010  125.6080   62.0160 C   0  0  0  0  0  0  0  0  0  0  0  0
  127.9500  124.1100   61.6490 S   0  0  0  0  0  0  0  0  0  0  0  0
  129.4570  123.2370   61.5130 C   0  0  0  0  0  0  0  0  0  0  0  0
  129.4830  121.9370   61.2320 N   0  0  0  0  0  0  0  0  0  0  0  0
  130.7030  121.3440   61.1410 C   0  0  0  0  0  0  0  0  0  0  0  0
  130.6970  119.8750   60.8290 C   0  0  0  0  0  0  0  0  0  0  0  0
  129.7610  119.0160   61.4280 C   0  0  0  0  0  0  0  0  0  0  0  0
  129.7520  117.6520   61.1440 C   0  0  0  0  0  0  0  0  0  0  0  0
  130.6810  117.1270   60.2540 C   0  0  0  0  0  0  0  0  0  0  0  0
  131.6220  117.9540   59.6490 C   0  0  0  0  0  0  0  0  0  0  0  0
  131.6290  119.3160   59.9380 C   0  0  0  0  0  0  0  0  0  0  0  0
  131.8870  122.0570   61.3490 C   0  0  0  0  0  0  0  0  0  0  0  0
  131.8720  123.4290   61.6470 C   0  0  0  0  0  0  0  0  0  0  0  0
  133.2070  124.1490   61.8640 C   0  0  0  0  0  0  0  0  0  0  0  0
  134.2620  123.3350   61.7780 F   0  0  0  0  0  0  0  0  0  0  0  0
  133.3620  125.1000   60.9430 F   0  0  0  0  0  0  0  0  0  0  0  0
  133.2300  124.7030   63.0760 F   0  0  0  0  0  0  0  0  0  0  0  0
  130.5990  124.0630   61.7320 C   0  0  0  0  0  0  0  0  0  0  0  0
  130.1920  125.4190   62.0070 C   0  0  0  0  0  0  0  0  0  0  0  0
  131.0870  126.4300   62.2480 N   0  0  0  0  0  0  0  0  0  0  0  0
  126.8960  128.7060   64.8440 C   0  0  0  0  0  0  0  0  0  0  0  0
  125.6980  128.6870   65.5780 C   0  0  0  0  0  0  0  0  0  0  0  0
  125.5740  128.1290   66.8370 O   0  0  0  0  0  0  0  0  0  0  0  0
  126.6600  127.3880   67.3840 C   0  0  0  0  0  0  0  0  0  0  0  0
  124.5500  129.2650   65.0160 C   0  0  0  0  0  0  0  0  0  0  0  0
  123.3690  129.2390   65.7160 O   0  0  0  0  0  0  0  0  0  0  0  0
  123.4420  129.8510   66.9970 C   0  0  0  0  0  0  0  0  0  0  0  0
  1  2  1  0
  2  3  1  0
  3  4  2  0
  4  5  1  0
  5  6  1  0
  6  7  1  0
  7  8  1  0
  8  9  2  0
  8 10  1  0
 10 11  1  0
 11 12  1  0
 12 13  2  0
 13 14  1  0
 14 15  1  0
 15 16  2  0
 16 17  1  0
 17 18  2  0
 18 19  1  0
 19 20  2  0
 14 21  2  0
 21 22  1  0
 22 23  1  0
 23 24  1  0
 23 25  1  0
 23 26  1  0
 22 27  2  0
 27 28  1  0
 28 29  1  0
  5 30  2  0
 30 31  1  0
 31 32  1  0
 32 33  1  0
 31 34  2  0
 34 35  1  0
 35 36  1  0
 34  3  1  0
 28 10  2  0
 27 12  1  0
 20 15  1  0
M  END
>  <Binding energies>  (57) 
[-8.41]

>  <Ligand effiencies>  (57) 
[-0.21564102564102564]

>  <Interactions>  (57) 
["V-A:ASP:366:CG:3213, V-B:TYR:539:CE2:9848, V-A:ASP:366:CB:3212, V-A:GLU:543:CD:4908, V-B:ILE:369:CD1:8211, H-B:GLY:454:N:9022, V-B:ARG:545:CZ:9898, V-B:TYR:539:CD2:9846, V-A:ARG:545:CZ:4926, V-A:LEU:475:CD2:4259, V-B:TYR:539:CG:9844, V-B:TYR:539:C:9839, V-B:ASP:366:CG:8185, V-A:ILE:369:CD1:3239, V-B:GLU:543:CD:9880, H-A:ASP:366:OD1:3214, H-A:GLU:543:OE1:4909, H-A:ASP:366:OD2:3215, H-A:GLU:543:OE2:4910, V-B:TYR:539:CB:9843, V-A:LEU:475:CD1:4258, V-B:ALA:541:CB:9864, V-B:GLY:454:CA:9021, V-B:ARG:545:CD:9895, H-B:ARG:545:NE:9896, V-B:ARG:545:CG:9894, H-B:HIS:456:ND1:9039, V-B:TYR:484:CZ:9319, V-B:TYR:484:CE1:9317, V-B:HIS:456:CE1:9042, H-B:ARG:545:NH2:9900, V-B:GLY:453:C:9014, V-A:SER:385:CB:3409, V-B:ILE:455:C:9024, H-B:ARG:545:NH1:9899, V-B:GLY:453:CA:9016, V-A:PRO:482:CB:4326, V-A:PRO:482:CG:4327, V-A:GLY:454:CA:4049, V-A:GLY:453:C:4042, V-B:GLU:543:CB:9878, V-A:GLY:453:CA:4044, V-B:GLY:454:C:9019"]

$$$$
4cj_Grossjean_2025
     RDKit          3D

 28 31  0  0  0  0  0  0  0  0999 V2000
  123.5320  129.9950   59.5730 N   0  0  0  0  0  0  0  0  0  0  0  0
  124.8090  130.4140   59.8500 C   0  0  0  0  0  0  0  0  0  0  0  0
  125.2960  130.5840   61.1570 C   0  0  0  0  0  0  0  0  0  0  0  0
  124.6010  130.3610   62.4270 C   0  0  0  0  0  0  0  0  0  0  0  0
  123.3950  130.5980   62.5370 O   0  0  0  0  0  0  0  0  0  0  0  0
  125.3740  129.8960   63.4400 N   0  0  0  0  0  0  0  0  0  0  0  0
  124.9640  129.6030   64.7340 C   0  0  0  0  0  0  0  0  0  0  0  0
  123.8510  129.9710   65.3300 N   0  0  0  0  0  0  0  0  0  0  0  0
  123.7870  129.5100   66.5640 C   0  0  0  0  0  0  0  0  0  0  0  0
  124.8700  128.7480   66.9930 C   0  0  0  0  0  0  0  0  0  0  0  0
  126.0280  128.6330   65.7010 S   0  0  0  0  0  0  0  0  0  0  0  0
  126.9750  131.1170   61.1460 S   0  0  0  0  0  0  0  0  0  0  0  0
  127.0120  131.1100   59.3990 C   0  0  0  0  0  0  0  0  0  0  0  0
  128.1100  131.4460   58.7270 N   0  0  0  0  0  0  0  0  0  0  0  0
  128.0470  131.4040   57.3710 C   0  0  0  0  0  0  0  0  0  0  0  0
  129.3080  131.7760   56.6440 C   0  0  0  0  0  0  0  0  0  0  0  0
  129.2600  132.2620   55.3270 C   0  0  0  0  0  0  0  0  0  0  0  0
  130.4250  132.6040   54.6450 C   0  0  0  0  0  0  0  0  0  0  0  0
  131.6590  132.4610   55.2720 C   0  0  0  0  0  0  0  0  0  0  0  0
  131.7340  131.9810   56.5740 C   0  0  0  0  0  0  0  0  0  0  0  0
  130.5670  131.6420   57.2520 C   0  0  0  0  0  0  0  0  0  0  0  0
  126.8750  131.0490   56.6970 C   0  0  0  0  0  0  0  0  0  0  0  0
  125.7100  130.6940   57.3960 C   0  0  0  0  0  0  0  0  0  0  0  0
  124.4600  130.3120   56.5940 C   0  0  0  0  0  0  0  0  0  0  0  0
  124.0180  129.0830   56.8670 F   0  0  0  0  0  0  0  0  0  0  0  0
  123.4710  131.1620   56.8700 F   0  0  0  0  0  0  0  0  0  0  0  0
  124.7290  130.3590   55.2890 F   0  0  0  0  0  0  0  0  0  0  0  0
  125.7710  130.7170   58.8190 C   0  0  0  0  0  0  0  0  0  0  0  0
  1  2  1  0
  2  3  2  0
  3  4  1  0
  4  5  2  0
  4  6  1  0
  6  7  1  0
  7  8  2  0
  8  9  1  0
  9 10  2  0
 10 11  1  0
  3 12  1  0
 12 13  1  0
 13 14  2  0
 14 15  1  0
 15 16  1  0
 16 17  2  0
 17 18  1  0
 18 19  2  0
 19 20  1  0
 20 21  2  0
 15 22  2  0
 22 23  1  0
 23 24  1  0
 24 25  1  0
 24 26  1  0
 24 27  1  0
 23 28  2  0
 28  2  1  0
 11  7  1  0
 28 13  1  0
 21 16  1  0
M  END
>  <Binding energies>  (58) 
[-7.0]

>  <Ligand effiencies>  (58) 
[-0.22580645161290322]

>  <Interactions>  (58) 
["V-A:TYR:539:CZ:4877, V-B:ILE:369:CG2:8209, V-A:PRO:540:CA:4883, H-B:ASP:366:O:8181, H-B:GLY:454:N:9022, H-B:TYR:484:OH:9320, V-A:TYR:539:CE1:4875, V-B:ARG:545:CZ:9898, H-B:ASP:366:OD2:8187, V-B:ASP:366:CG:8185, V-B:ASP:366:CB:8184, V-B:ASP:366:CA:8182, V-B:TYR:531:CZ:9766, V-B:GLU:543:CD:9880, V-A:PRO:540:CB:4885, V-A:TYR:539:CD2:4874, V-A:ILE:538:CA:4860, V-A:ILE:538:CB:4862, V-A:PRO:540:N:4884, V-A:ILE:538:CG2:4863, V-B:ASP:366:C:8180, H-B:ASP:366:OD1:8186, V-B:ARG:545:CD:9895, V-B:TYR:531:CE1:9764, V-B:ARG:545:CG:9894, V-B:TYR:484:CE1:9317, V-B:HIS:456:CE1:9042, V-B:GLY:453:C:9014, V-B:TYR:531:CD1:9762, V-B:ASN:370:CB:8217, V-B:GLY:453:CA:9016, V-A:ILE:538:C:4858, V-B:ARG:545:CB:9893, V-B:ASN:370:CG:8218"]

$$$$
4ck_Grossjean_2025
     RDKit          3D

 33 35  0  0  0  0  0  0  0  0999 V2000
  125.7820  129.2440   56.1750 C   0  0  0  0  0  0  0  0  0  0  0  0
  126.3730  128.7820   54.9700 O   0  0  0  0  0  0  0  0  0  0  0  0
  127.7790  128.9810   54.9180 C   0  0  0  0  0  0  0  0  0  0  0  0
  128.0730  130.4860   54.9430 C   0  0  0  0  0  0  0  0  0  0  0  0
  129.0330  130.7550   55.9540 O   0  0  0  0  0  0  0  0  0  0  0  0
  128.7270  131.9010   56.7370 C   0  0  0  0  0  0  0  0  0  0  0  0
  129.8170  132.9600   56.5260 C   0  0  0  0  0  0  0  0  0  0  0  0
  130.5700  132.6170   55.3710 O   0  0  0  0  0  0  0  0  0  0  0  0
  131.9330  133.0180   55.4320 C   0  0  0  0  0  0  0  0  0  0  0  0
  132.7420  131.9730   56.2150 C   0  0  0  0  0  0  0  0  0  0  0  0
  131.9140  130.8470   56.6470 N   0  0  0  0  0  0  0  0  0  0  0  0
  131.9950  130.2180   57.8380 C   0  0  0  0  0  0  0  0  0  0  0  0
  132.7830  130.5620   58.7210 O   0  0  0  0  0  0  0  0  0  0  0  0
  131.0750  129.0970   58.0330 C   0  0  0  0  0  0  0  0  0  0  0  0
  130.2740  128.3600   56.6470 S   0  0  0  0  0  0  0  0  0  0  0  0
  129.4900  127.1810   57.6720 C   0  0  0  0  0  0  0  0  0  0  0  0
  128.6760  126.2560   57.1710 N   0  0  0  0  0  0  0  0  0  0  0  0
  128.1120  125.3830   58.0460 C   0  0  0  0  0  0  0  0  0  0  0  0
  127.2130  124.3400   57.4460 C   0  0  0  0  0  0  0  0  0  0  0  0
  127.6260  123.5880   56.3350 C   0  0  0  0  0  0  0  0  0  0  0  0
  126.7960  122.6200   55.7720 C   0  0  0  0  0  0  0  0  0  0  0  0
  125.5370  122.3910   56.3160 C   0  0  0  0  0  0  0  0  0  0  0  0
  125.1050  123.1190   57.4200 C   0  0  0  0  0  0  0  0  0  0  0  0
  125.9380  124.0840   57.9800 C   0  0  0  0  0  0  0  0  0  0  0  0
  128.3760  125.4380   59.4180 C   0  0  0  0  0  0  0  0  0  0  0  0
  129.2320  126.4110   59.9580 C   0  0  0  0  0  0  0  0  0  0  0  0
  129.4740  126.4160   61.4730 C   0  0  0  0  0  0  0  0  0  0  0  0
  129.0170  127.5170   62.0720 F   0  0  0  0  0  0  0  0  0  0  0  0
  128.8600  125.3740   62.0310 F   0  0  0  0  0  0  0  0  0  0  0  0
  130.7820  126.3410   61.7200 F   0  0  0  0  0  0  0  0  0  0  0  0
  129.8270  127.3330   59.0500 C   0  0  0  0  0  0  0  0  0  0  0  0
  130.7430  128.4340   59.2250 C   0  0  0  0  0  0  0  0  0  0  0  0
  131.2400  128.8010   60.4490 N   0  0  0  0  0  0  0  0  0  0  0  0
  1  2  1  0
  2  3  1  0
  3  4  1  0
  4  5  1  0
  5  6  1  0
  6  7  1  0
  7  8  1  0
  8  9  1  0
  9 10  1  0
 10 11  1  0
 11 12  1  0
 12 13  2  0
 12 14  1  0
 14 15  1  0
 15 16  1  0
 16 17  2  0
 17 18  1  0
 18 19  1  0
 19 20  2  0
 20 21  1  0
 21 22  2  0
 22 23  1  0
 23 24  2  0
 18 25  2  0
 25 26  1  0
 26 27  1  0
 27 28  1  0
 27 29  1  0
 27 30  1  0
 26 31  2  0
 31 32  1  0
 32 33  1  0
 32 14  2  0
 31 16  1  0
 24 19  1  0
M  END
>  <Binding energies>  (59) 
[-6.23]

>  <Ligand effiencies>  (59) 
[-0.17305555555555557]

>  <Interactions>  (59) 
["V-A:ASP:366:CG:3213, V-B:MET:535:CE:9807, V-A:PRO:540:CA:4883, H-B:LYS:534:NZ:9795, V-A:GLU:543:CD:4908, V-B:TYR:539:CZ:9849, H-A:TYR:531:OH:4795, H-B:TYR:531:OH:9767, V-B:TYR:539:CD1:9845, V-B:TYR:539:CE1:9847, V-B:PRO:540:CB:9857, V-B:PRO:540:CA:9855, V-B:PRO:540:N:9856, V-A:TYR:539:C:4867, V-B:LEU:363:CD1:8161, V-B:TYR:531:CZ:9766, V-B:GLU:543:CD:9880, V-B:ILE:538:CA:9832, V-B:ILE:538:CD1:9837, H-A:ASP:366:OD1:3214, V-A:PRO:540:CD:4887, V-A:TYR:531:CE2:4793, V-A:PRO:540:CB:4885, V-A:LEU:363:CD1:3189, V-A:ILE:538:CA:4860, V-A:ILE:538:CB:4862, H-A:TYR:539:N:4870, V-A:PRO:540:N:4884, V-A:TYR:539:CG:4872, H-A:GLU:543:OE1:4909, V-A:ILE:538:CG2:4863, V-B:PRO:540:CD:9859, V-B:ILE:538:CG2:9835, V-A:PRO:540:CG:4886, V-B:TYR:531:CE1:9764, V-A:TYR:539:CA:4869"]

$$$$
4dd_Grossjean_2025
     RDKit          3D

 26 29  0  0  0  0  0  0  0  0999 V2000
  133.4730  124.3590   61.3840 C   0  0  0  0  0  0  0  0  0  0  0  0
  132.1140  123.6740   61.3800 C   0  0  0  0  0  0  0  0  0  0  0  0
  132.0730  122.2880   61.1820 C   0  0  0  0  0  0  0  0  0  0  0  0
  130.8550  121.5990   61.1680 C   0  0  0  0  0  0  0  0  0  0  0  0
  130.7810  120.1160   60.9530 C   0  0  0  0  0  0  0  0  0  0  0  0
  131.7110  119.4610   60.1290 C   0  0  0  0  0  0  0  0  0  0  0  0
  131.6500  118.0850   59.9270 C   0  0  0  0  0  0  0  0  0  0  0  0
  130.6520  117.3410   60.5480 C   0  0  0  0  0  0  0  0  0  0  0  0
  129.7190  117.9630   61.3700 C   0  0  0  0  0  0  0  0  0  0  0  0
  129.7850  119.3400   61.5710 C   0  0  0  0  0  0  0  0  0  0  0  0
  129.6650  122.2400   61.3320 N   0  0  0  0  0  0  0  0  0  0  0  0
  129.7030  123.5570   61.5270 C   0  0  0  0  0  0  0  0  0  0  0  0
  128.2500  124.5010   61.7700 S   0  0  0  0  0  0  0  0  0  0  0  0
  129.1880  125.9880   61.9330 C   0  0  0  0  0  0  0  0  0  0  0  0
  128.5160  127.2630   62.1900 C   0  0  0  0  0  0  0  0  0  0  0  0
  129.1000  128.3310   61.9950 O   0  0  0  0  0  0  0  0  0  0  0  0
  127.2400  127.1680   62.6360 N   0  0  0  0  0  0  0  0  0  0  0  0
  126.3470  128.1840   63.0230 C   0  0  0  0  0  0  0  0  0  0  0  0
  125.7470  128.8990   61.9820 C   0  0  0  0  0  0  0  0  0  0  0  0
  124.8370  129.9150   62.2610 C   0  0  0  0  0  0  0  0  0  0  0  0
  124.5200  130.2120   63.5840 C   0  0  0  0  0  0  0  0  0  0  0  0
  125.1000  129.5000   64.6300 C   0  0  0  0  0  0  0  0  0  0  0  0
  126.0110  128.4830   64.3540 C   0  0  0  0  0  0  0  0  0  0  0  0
  130.5620  125.7360   61.7950 C   0  0  0  0  0  0  0  0  0  0  0  0
  131.5280  126.7090   61.8720 N   0  0  0  0  0  0  0  0  0  0  0  0
  130.8820  124.3530   61.5650 C   0  0  0  0  0  0  0  0  0  0  0  0
  1  2  1  0
  2  3  2  0
  3  4  1  0
  4  5  1  0
  5  6  2  0
  6  7  1  0
  7  8  2  0
  8  9  1  0
  9 10  2  0
  4 11  2  0
 11 12  1  0
 12 13  1  0
 13 14  1  0
 14 15  1  0
 15 16  2  0
 15 17  1  0
 17 18  1  0
 18 19  2  0
 19 20  1  0
 20 21  2  0
 21 22  1  0
 22 23  2  0
 14 24  2  0
 24 25  1  0
 24 26  1  0
 26  2  1  0
 10  5  1  0
 26 12  2  0
 23 18  1  0
M  END
>  <Binding energies>  (60) 
[-7.48]

>  <Ligand effiencies>  (60) 
[-0.2579310344827586]

>  <Interactions>  (60) 
["V-A:ASP:366:CG:3213, V-B:TYR:539:CE2:9848, V-A:GLU:543:CD:4908, V-B:ARG:545:CZ:9898, V-B:TYR:539:CD2:9846, V-A:ARG:545:CZ:4926, V-A:LEU:475:CD2:4259, V-B:ASP:366:CG:8185, V-A:ILE:369:CD1:3239, H-B:GLU:543:OE2:9882, V-B:GLU:543:CD:9880, H-B:GLU:543:OE1:9881, H-A:ASP:366:OD1:3214, H-A:GLU:543:OE1:4909, H-A:ASP:366:OD2:3215, H-A:GLU:543:OE2:4910, V-A:LEU:475:CD1:4258, V-B:ALA:541:CB:9864, V-A:SER:385:CB:3409, V-A:PRO:482:CB:4326, V-A:LEU:475:CG:4257, V-A:PRO:482:CG:4327"]

$$$$
4dg_Grossjean_2025
     RDKit          3D

 27 30  0  0  0  0  0  0  0  0999 V2000
  125.9370  129.2300   63.8310 C   0  0  0  0  0  0  0  0  0  0  0  0
  126.0580  129.7680   62.4130 C   0  0  0  0  0  0  0  0  0  0  0  0
  125.9170  131.1470   62.2160 C   0  0  0  0  0  0  0  0  0  0  0  0
  126.0170  131.7060   60.9360 C   0  0  0  0  0  0  0  0  0  0  0  0
  125.8710  133.1820   60.6940 C   0  0  0  0  0  0  0  0  0  0  0  0
  126.9640  134.0490   60.8550 C   0  0  0  0  0  0  0  0  0  0  0  0
  126.8340  135.4190   60.6360 C   0  0  0  0  0  0  0  0  0  0  0  0
  125.6050  135.9430   60.2510 C   0  0  0  0  0  0  0  0  0  0  0  0
  124.5040  135.1070   60.0880 C   0  0  0  0  0  0  0  0  0  0  0  0
  124.6390  133.7390   60.3090 C   0  0  0  0  0  0  0  0  0  0  0  0
  126.2710  130.9430   59.8380 N   0  0  0  0  0  0  0  0  0  0  0  0
  126.4050  129.6300   60.0240 C   0  0  0  0  0  0  0  0  0  0  0  0
  126.7260  128.5360   58.6990 S   0  0  0  0  0  0  0  0  0  0  0  0
  126.7450  127.1510   59.7890 C   0  0  0  0  0  0  0  0  0  0  0  0
  126.9420  125.8030   59.2610 C   0  0  0  0  0  0  0  0  0  0  0  0
  127.8310  125.5570   58.4430 O   0  0  0  0  0  0  0  0  0  0  0  0
  126.0720  124.8670   59.6950 N   0  0  0  0  0  0  0  0  0  0  0  0
  126.0910  123.4540   59.3190 C   0  0  0  0  0  0  0  0  0  0  0  0
  126.0740  123.2270   57.8120 C   0  0  0  0  0  0  0  0  0  0  0  0
  127.2780  123.0550   57.1220 C   0  0  0  0  0  0  0  0  0  0  0  0
  127.2640  122.8170   55.7500 C   0  0  0  0  0  0  0  0  0  0  0  0
  126.0480  122.7410   55.0750 C   0  0  0  0  0  0  0  0  0  0  0  0
  124.8440  122.8950   55.7590 C   0  0  0  0  0  0  0  0  0  0  0  0
  124.8570  123.1310   57.1310 C   0  0  0  0  0  0  0  0  0  0  0  0
  126.4950  127.5420   61.1140 C   0  0  0  0  0  0  0  0  0  0  0  0
  126.4380  126.6680   62.1690 N   0  0  0  0  0  0  0  0  0  0  0  0
  126.3090  128.9590   61.2750 C   0  0  0  0  0  0  0  0  0  0  0  0
  1  2  1  0
  2  3  2  0
  3  4  1  0
  4  5  1  0
  5  6  2  0
  6  7  1  0
  7  8  2  0
  8  9  1  0
  9 10  2  0
  4 11  2  0
 11 12  1  0
 12 13  1  0
 13 14  1  0
 14 15  1  0
 15 16  2  0
 15 17  1  0
 17 18  1  0
 18 19  1  0
 19 20  2  0
 20 21  1  0
 21 22  2  0
 22 23  1  0
 23 24  2  0
 14 25  2  0
 25 26  1  0
 25 27  1  0
 27  2  1  0
 10  5  1  0
 27 12  2  0
 24 19  1  0
M  END
>  <Binding energies>  (61) 
[-8.17]

>  <Ligand effiencies>  (61) 
[-0.2723333333333333]

>  <Interactions>  (61) 
["V-B:MET:535:CE:9807, V-B:ILE:369:CG2:8209, V-B:LEU:475:CD2:9231, V-B:TYR:539:CZ:9849, V-A:TYR:539:CE1:4875, V-B:ARG:545:CZ:9898, V-B:TYR:539:CD1:9845, H-B:ASP:366:OD2:8187, V-B:TYR:539:CE1:9847, V-B:ASP:366:CG:8185, V-B:PRO:540:CB:9857, V-B:PRO:540:CA:9855, V-B:PRO:540:N:9856, V-A:TYR:539:CD1:4873, V-B:LEU:363:CD1:8161, H-B:GLU:543:OE2:9882, V-B:TYR:531:CZ:9766, V-B:TYR:531:CE2:9765, V-B:GLU:543:CD:9880, H-B:GLU:543:OE1:9881, V-B:ILE:538:CA:9832, V-B:ILE:538:CD1:9837, V-B:PRO:540:CD:9859, V-B:ILE:538:CG2:9835, V-B:SER:385:CB:8381, V-B:SER:385:CA:8379"]

$$$$
4dj_Grossjean_2025
     RDKit          3D

 25 28  0  0  0  0  0  0  0  0999 V2000
  133.4020  124.3510   61.6330 C   0  0  0  0  0  0  0  0  0  0  0  0
  132.0460  123.6680   61.5370 C   0  0  0  0  0  0  0  0  0  0  0  0
  132.0180  122.2870   61.3110 C   0  0  0  0  0  0  0  0  0  0  0  0
  130.8030  121.5990   61.2100 C   0  0  0  0  0  0  0  0  0  0  0  0
  130.7420  120.1160   60.9740 C   0  0  0  0  0  0  0  0  0  0  0  0
  129.7590  119.3280   61.5940 C   0  0  0  0  0  0  0  0  0  0  0  0
  129.6960  117.9530   61.3800 C   0  0  0  0  0  0  0  0  0  0  0  0
  130.6240  117.3440   60.5410 C   0  0  0  0  0  0  0  0  0  0  0  0
  131.6100  118.0990   59.9160 C   0  0  0  0  0  0  0  0  0  0  0  0
  131.6680  119.4730   60.1330 C   0  0  0  0  0  0  0  0  0  0  0  0
  129.6060  122.2320   61.3430 N   0  0  0  0  0  0  0  0  0  0  0  0
  129.6310  123.5470   61.5570 C   0  0  0  0  0  0  0  0  0  0  0  0
  128.1660  124.4860   61.7380 S   0  0  0  0  0  0  0  0  0  0  0  0
  129.0910  125.9720   61.9660 C   0  0  0  0  0  0  0  0  0  0  0  0
  128.4040  127.2460   62.1780 C   0  0  0  0  0  0  0  0  0  0  0  0
  128.9890  128.3160   61.9950 O   0  0  0  0  0  0  0  0  0  0  0  0
  127.1150  127.1530   62.5890 N   0  0  0  0  0  0  0  0  0  0  0  0
  126.2480  128.2010   62.8630 C   0  0  0  0  0  0  0  0  0  0  0  0
  125.5700  128.9330   62.0050 N   0  0  0  0  0  0  0  0  0  0  0  0
  124.8400  129.8450   62.6170 C   0  0  0  0  0  0  0  0  0  0  0  0
  124.9170  129.8650   64.0060 C   0  0  0  0  0  0  0  0  0  0  0  0
  126.0080  128.6170   64.5290 S   0  0  0  0  0  0  0  0  0  0  0  0
  130.4710  125.7230   61.8970 C   0  0  0  0  0  0  0  0  0  0  0  0
  131.4290  126.6960   62.0350 N   0  0  0  0  0  0  0  0  0  0  0  0
  130.8060  124.3440   61.6660 C   0  0  0  0  0  0  0  0  0  0  0  0
  1  2  1  0
  2  3  2  0
  3  4  1  0
  4  5  1  0
  5  6  2  0
  6  7  1  0
  7  8  2  0
  8  9  1  0
  9 10  2  0
  4 11  2  0
 11 12  1  0
 12 13  1  0
 13 14  1  0
 14 15  1  0
 15 16  2  0
 15 17  1  0
 17 18  1  0
 18 19  2  0
 19 20  1  0
 20 21  2  0
 21 22  1  0
 14 23  2  0
 23 24  1  0
 23 25  1  0
 25  2  1  0
 10  5  1  0
 25 12  2  0
 22 18  1  0
M  END
>  <Binding energies>  (62) 
[-6.96]

>  <Ligand effiencies>  (62) 
[-0.24857142857142858]

>  <Interactions>  (62) 
["V-B:TYR:539:CE2:9848, V-A:GLU:543:CD:4908, V-B:ARG:545:CZ:9898, V-B:TYR:539:CD2:9846, V-A:ARG:545:CZ:4926, V-A:LEU:475:CD2:4259, H-B:GLU:543:OE2:9882, V-B:GLU:543:CD:9880, H-B:GLU:543:OE1:9881, H-A:ASP:366:OD1:3214, H-A:GLU:543:OE1:4909, H-A:ASP:366:OD2:3215, H-A:GLU:543:OE2:4910, V-A:LEU:475:CD1:4258, V-B:ALA:541:CB:9864, H-B:ARG:545:NH2:9900, V-A:SER:385:CB:3409, V-A:PRO:482:CB:4326, V-A:LEU:475:CG:4257, V-A:PRO:482:CG:4327"]

$$$$
4ea_Grossjean_2025
     RDKit          3D

 31 34  0  0  0  0  0  0  0  0999 V2000
  127.5040  137.8880   59.8370 C   0  0  0  0  0  0  0  0  0  0  0  0
  126.7460  137.3790   61.0670 C   0  0  0  0  0  0  0  0  0  0  0  0
  126.8220  135.9610   61.1150 O   0  0  0  0  0  0  0  0  0  0  0  0
  125.8230  135.1860   60.6190 C   0  0  0  0  0  0  0  0  0  0  0  0
  124.7430  135.6390   60.2270 O   0  0  0  0  0  0  0  0  0  0  0  0
  126.1630  133.7240   60.5950 C   0  0  0  0  0  0  0  0  0  0  0  0
  125.1260  132.7820   60.5950 C   0  0  0  0  0  0  0  0  0  0  0  0
  125.4080  131.4190   60.5720 C   0  0  0  0  0  0  0  0  0  0  0  0
  126.7290  130.9690   60.5510 C   0  0  0  0  0  0  0  0  0  0  0  0
  126.8930  129.5710   60.5290 N   0  0  0  0  0  0  0  0  0  0  0  0
  126.2250  128.6180   59.8330 C   0  0  0  0  0  0  0  0  0  0  0  0
  125.3020  128.8490   59.0520 O   0  0  0  0  0  0  0  0  0  0  0  0
  126.6760  127.2430   60.0650 C   0  0  0  0  0  0  0  0  0  0  0  0
  127.4970  126.8150   61.5690 S   0  0  0  0  0  0  0  0  0  0  0  0
  127.6660  125.1510   61.0590 C   0  0  0  0  0  0  0  0  0  0  0  0
  128.2590  124.2350   61.8270 N   0  0  0  0  0  0  0  0  0  0  0  0
  128.3260  122.9820   61.3150 C   0  0  0  0  0  0  0  0  0  0  0  0
  129.0030  121.9560   62.2050 C   0  0  0  0  0  0  0  0  0  0  0  0
  127.8210  122.6260   60.0670 C   0  0  0  0  0  0  0  0  0  0  0  0
  127.2010  123.5900   59.2640 C   0  0  0  0  0  0  0  0  0  0  0  0
  126.6690  123.1970   57.9400 C   0  0  0  0  0  0  0  0  0  0  0  0
  127.5430  122.9480   56.8770 C   0  0  0  0  0  0  0  0  0  0  0  0
  127.0430  122.5760   55.6310 C   0  0  0  0  0  0  0  0  0  0  0  0
  125.6680  122.4560   55.4480 C   0  0  0  0  0  0  0  0  0  0  0  0
  124.7880  122.7060   56.4990 C   0  0  0  0  0  0  0  0  0  0  0  0
  125.2890  123.0780   57.7430 C   0  0  0  0  0  0  0  0  0  0  0  0
  127.1100  124.9180   59.7650 C   0  0  0  0  0  0  0  0  0  0  0  0
  126.5510  126.1290   59.2210 C   0  0  0  0  0  0  0  0  0  0  0  0
  125.9550  126.1690   57.9870 N   0  0  0  0  0  0  0  0  0  0  0  0
  127.7740  131.9060   60.5510 C   0  0  0  0  0  0  0  0  0  0  0  0
  127.4900  133.2690   60.5730 C   0  0  0  0  0  0  0  0  0  0  0  0
  1  2  1  0
  2  3  1  0
  3  4  1  0
  4  5  2  0
  4  6  1  0
  6  7  2  0
  7  8  1  0
  8  9  2  0
  9 10  1  0
 10 11  1  0
 11 12  2  0
 11 13  1  0
 13 14  1  0
 14 15  1  0
 15 16  2  0
 16 17  1  0
 17 18  1  0
 17 19  2  0
 19 20  1  0
 20 21  1  0
 21 22  2  0
 22 23  1  0
 23 24  2  0
 24 25  1  0
 25 26  2  0
 20 27  2  0
 27 28  1  0
 28 29  1  0
  9 30  1  0
 30 31  2  0
 31  6  1  0
 28 13  2  0
 27 15  1  0
 26 21  1  0
M  END
>  <Binding energies>  (63) 
[-7.9]

>  <Ligand effiencies>  (63) 
[-0.2323529411764706]

>  <Interactions>  (63) 
["V-B:MET:535:CE:9807, V-B:LEU:475:CD2:9231, V-B:TYR:539:CE2:9848, V-B:TYR:539:CZ:9849, V-A:TYR:539:CE1:4875, V-B:TYR:539:CD2:9846, H-B:TYR:531:OH:9767, V-B:TYR:539:CD1:9845, V-B:TYR:539:CG:9844, H-B:ASP:366:OD2:8187, V-B:TYR:539:CE1:9847, V-B:TYR:539:C:9839, V-A:TYR:484:CE1:4345, V-B:ASP:366:CG:8185, V-B:PRO:540:CB:9857, V-B:PRO:540:CA:9855, V-B:ASP:366:CB:8184, V-B:PRO:540:N:9856, V-A:TYR:539:CD1:4873, V-A:TYR:539:C:4867, V-B:LEU:363:CD1:8161, V-B:TYR:531:CZ:9766, V-B:TYR:531:CE2:9765, V-B:ILE:538:CA:9832, V-B:ILE:538:CD1:9837, V-B:PRO:540:CD:9859, V-B:ALA:541:CB:9864, V-B:ILE:538:CG2:9835, V-B:ILE:538:C:9830, V-A:TYR:539:CB:4871, V-B:PRO:482:CB:9298, V-B:PRO:482:CG:9299, V-B:ILE:538:CB:9834, V-A:VAL:344:CG1:3001, H-B:SER:385:OG:8382"]

$$$$
4eb_Grossjean_2025
     RDKit          3D

 30 33  0  0  0  0  0  0  0  0999 V2000
  127.1130  137.2380   60.4930 C   0  0  0  0  0  0  0  0  0  0  0  0
  126.8010  135.9890   61.0920 O   0  0  0  0  0  0  0  0  0  0  0  0
  125.7970  135.2130   60.6070 C   0  0  0  0  0  0  0  0  0  0  0  0
  124.7170  135.6640   60.2160 O   0  0  0  0  0  0  0  0  0  0  0  0
  126.1340  133.7490   60.5930 C   0  0  0  0  0  0  0  0  0  0  0  0
  125.0950  132.8100   60.5390 C   0  0  0  0  0  0  0  0  0  0  0  0
  125.3740  131.4460   60.5260 C   0  0  0  0  0  0  0  0  0  0  0  0
  126.6940  130.9930   60.5660 C   0  0  0  0  0  0  0  0  0  0  0  0
  126.8560  129.5940   60.5470 N   0  0  0  0  0  0  0  0  0  0  0  0
  126.1880  128.6420   59.8510 C   0  0  0  0  0  0  0  0  0  0  0  0
  125.2660  128.8730   59.0680 O   0  0  0  0  0  0  0  0  0  0  0  0
  126.6350  127.2670   60.0850 C   0  0  0  0  0  0  0  0  0  0  0  0
  127.4440  126.8370   61.5940 S   0  0  0  0  0  0  0  0  0  0  0  0
  127.6150  125.1720   61.0840 C   0  0  0  0  0  0  0  0  0  0  0  0
  128.2000  124.2550   61.8560 N   0  0  0  0  0  0  0  0  0  0  0  0
  128.2700  123.0030   61.3450 C   0  0  0  0  0  0  0  0  0  0  0  0
  128.9400  121.9750   62.2400 C   0  0  0  0  0  0  0  0  0  0  0  0
  127.7740  122.6480   60.0930 C   0  0  0  0  0  0  0  0  0  0  0  0
  127.1610  123.6130   59.2860 C   0  0  0  0  0  0  0  0  0  0  0  0
  126.6390  123.2210   57.9570 C   0  0  0  0  0  0  0  0  0  0  0  0
  127.5210  122.9540   56.9060 C   0  0  0  0  0  0  0  0  0  0  0  0
  127.0310  122.5830   55.6560 C   0  0  0  0  0  0  0  0  0  0  0  0
  125.6560  122.4830   55.4570 C   0  0  0  0  0  0  0  0  0  0  0  0
  124.7680  122.7500   56.4970 C   0  0  0  0  0  0  0  0  0  0  0  0
  125.2600  123.1210   57.7460 C   0  0  0  0  0  0  0  0  0  0  0  0
  127.0680  124.9400   59.7870 C   0  0  0  0  0  0  0  0  0  0  0  0
  126.5160  126.1520   59.2400 C   0  0  0  0  0  0  0  0  0  0  0  0
  125.9280  126.1950   58.0010 N   0  0  0  0  0  0  0  0  0  0  0  0
  127.7400  131.9260   60.6200 C   0  0  0  0  0  0  0  0  0  0  0  0
  127.4590  133.2900   60.6330 C   0  0  0  0  0  0  0  0  0  0  0  0
  1  2  1  0
  2  3  1  0
  3  4  2  0
  3  5  1  0
  5  6  2  0
  6  7  1  0
  7  8  2  0
  8  9  1  0
  9 10  1  0
 10 11  2  0
 10 12  1  0
 12 13  1  0
 13 14  1  0
 14 15  2  0
 15 16  1  0
 16 17  1  0
 16 18  2  0
 18 19  1  0
 19 20  1  0
 20 21  2  0
 21 22  1  0
 22 23  2  0
 23 24  1  0
 24 25  2  0
 19 26  2  0
 26 27  1  0
 27 28  1  0
  8 29  1  0
 29 30  2  0
 30  5  1  0
 27 12  2  0
 26 14  1  0
 25 20  1  0
M  END
>  <Binding energies>  (64) 
[-7.56]

>  <Ligand effiencies>  (64) 
[-0.22909090909090907]

>  <Interactions>  (64) 
["V-B:MET:535:CE:9807, V-B:LEU:475:CD2:9231, V-B:TYR:539:CE2:9848, V-B:TYR:539:CZ:9849, V-A:TYR:539:CE1:4875, V-B:TYR:539:CD2:9846, H-B:TYR:531:OH:9767, V-B:TYR:539:CD1:9845, V-B:TYR:539:CG:9844, H-B:ASP:366:OD2:8187, V-B:TYR:539:CE1:9847, V-B:TYR:539:C:9839, V-A:TYR:484:CE1:4345, V-B:ASP:366:CG:8185, V-B:PRO:540:CB:9857, V-B:PRO:540:CA:9855, V-B:ASP:366:CB:8184, V-B:PRO:540:N:9856, V-A:TYR:539:CD1:4873, V-B:LEU:363:CD1:8161, V-B:TYR:531:CZ:9766, V-B:TYR:531:CE2:9765, V-B:ILE:538:CA:9832, V-B:ILE:538:CD1:9837, V-B:PRO:540:CD:9859, V-B:ALA:541:CB:9864, V-B:ILE:538:CG2:9835, V-B:ILE:538:C:9830, V-B:PRO:482:CB:9298, V-B:PRO:482:CG:9299, V-B:ILE:538:CB:9834, H-B:SER:385:OG:8382"]

$$$$
8b_Ghoteimi_2023
     RDKit          3D

 34 38  0  0  0  0  0  0  0  0999 V2000
  127.1290  137.9600   59.9820 C   0  0  0  0  0  0  0  0  0  0  0  0
  125.9050  137.2570   60.1670 O   0  0  0  0  0  0  0  0  0  0  0  0
  125.9370  135.8890   60.3630 C   0  0  0  0  0  0  0  0  0  0  0  0
  127.1690  135.3380   60.7090 C   0  0  0  0  0  0  0  0  0  0  0  0
  127.2970  133.9700   60.9250 C   0  0  0  0  0  0  0  0  0  0  0  0
  126.1920  133.1140   60.7990 C   0  0  0  0  0  0  0  0  0  0  0  0
  126.3240  131.6420   61.0280 C   0  0  0  0  0  0  0  0  0  0  0  0
  126.4180  131.1020   62.3150 C   0  0  0  0  0  0  0  0  0  0  0  0
  126.5400  129.7220   62.5020 C   0  0  0  0  0  0  0  0  0  0  0  0
  126.6480  129.1830   63.8780 C   0  0  0  0  0  0  0  0  0  0  0  0
  125.4990  128.8180   64.5820 C   0  0  0  0  0  0  0  0  0  0  0  0
  125.6030  128.3030   65.8710 C   0  0  0  0  0  0  0  0  0  0  0  0
  126.8510  128.1470   66.4750 C   0  0  0  0  0  0  0  0  0  0  0  0
  126.8570  127.6270   67.7550 O   0  0  0  0  0  0  0  0  0  0  0  0
  128.0290  126.9740   68.2340 C   0  0  0  0  0  0  0  0  0  0  0  0
  128.0040  128.5190   65.7660 C   0  0  0  0  0  0  0  0  0  0  0  0
  127.8990  129.0330   64.4770 C   0  0  0  0  0  0  0  0  0  0  0  0
  126.5570  128.8900   61.3510 C   0  0  0  0  0  0  0  0  0  0  0  0
  126.6610  127.4640   61.1770 C   0  0  0  0  0  0  0  0  0  0  0  0
  126.7710  126.6020   62.2380 N   0  0  0  0  0  0  0  0  0  0  0  0
  126.6360  127.0520   59.8360 C   0  0  0  0  0  0  0  0  0  0  0  0
  126.7150  125.6910   59.3000 C   0  0  0  0  0  0  0  0  0  0  0  0
  127.6460  124.9450   59.6110 O   0  0  0  0  0  0  0  0  0  0  0  0
  125.7100  125.3380   58.4590 N   0  0  0  0  0  0  0  0  0  0  0  0
  125.5340  124.1210   57.8150 C   0  0  0  0  0  0  0  0  0  0  0  0
  124.2830  123.6220   57.4580 C   0  0  0  0  0  0  0  0  0  0  0  0
  124.5380  122.4100   56.8580 C   0  0  0  0  0  0  0  0  0  0  0  0
  125.8740  122.1920   56.8500 O   0  0  0  0  0  0  0  0  0  0  0  0
  126.4960  123.2840   57.4580 N   0  0  0  0  0  0  0  0  0  0  0  0
  126.4800  128.4310   58.7480 S   0  0  0  0  0  0  0  0  0  0  0  0
  126.4490  129.5480   60.0920 C   0  0  0  0  0  0  0  0  0  0  0  0
  126.3360  130.8640   59.9130 N   0  0  0  0  0  0  0  0  0  0  0  0
  124.9560  133.6750   60.4530 C   0  0  0  0  0  0  0  0  0  0  0  0
  124.8250  135.0440   60.2360 C   0  0  0  0  0  0  0  0  0  0  0  0
  1  2  1  0
  2  3  1  0
  3  4  2  0
  4  5  1  0
  5  6  2  0
  6  7  1  0
  7  8  2  0
  8  9  1  0
  9 10  1  0
 10 11  2  0
 11 12  1  0
 12 13  2  0
 13 14  1  0
 14 15  1  0
 13 16  1  0
 16 17  2  0
  9 18  2  0
 18 19  1  0
 19 20  1  0
 19 21  2  0
 21 22  1  0
 22 23  2  0
 22 24  1  0
 24 25  1  0
 25 26  1  0
 26 27  2  0
 27 28  1  0
 28 29  1  0
 21 30  1  0
 30 31  1  0
 31 32  2  0
  6 33  1  0
 33 34  2  0
 34  3  1  0
 32  7  1  0
 17 10  1  0
 31 18  1  0
 29 25  2  0
M  END
>  <Binding energies>  (65) 
[-8.2]

>  <Ligand effiencies>  (65) 
[-0.2216216216216216]

>  <Interactions>  (65) 
["V-A:ALA:541:CB:4892, V-B:ILE:369:CG2:8209, V-B:LEU:475:CD2:9231, V-A:GLU:543:CD:4908, V-A:GLU:543:CG:4907, V-A:TYR:539:CE1:4875, V-B:ARG:545:CZ:9898, H-B:TYR:531:OH:9767, H-B:ASP:366:OD2:8187, V-B:ASP:366:CG:8185, H-B:TYR:539:N:9842, V-B:PRO:540:CB:9857, V-B:PRO:540:CA:9855, V-B:PRO:540:N:9856, V-A:TYR:539:CD1:4873, V-A:TYR:539:C:4867, V-B:LEU:363:CD1:8161, H-B:GLU:543:OE2:9882, V-B:TYR:531:CZ:9766, V-B:TYR:531:CE2:9765, V-B:GLU:543:CD:9880, H-B:GLU:543:OE1:9881, V-B:PRO:540:CG:9858, V-B:PRO:540:CD:9859, V-B:ILE:538:CG2:9835, V-B:ARG:545:CD:9895, V-B:ARG:545:CG:9894, H-B:HIS:456:ND1:9039, V-B:HIS:456:CE1:9042, V-B:HIS:383:CD2:8364, V-A:TYR:539:CB:4871, V-B:PRO:482:CB:9298, V-B:PRO:482:CG:9299, V-A:GLU:543:CB:4906, V-A:VAL:344:CG1:3001, H-B:SER:385:OG:8382, H-B:HIS:383:NE2:8366, V-A:HIS:456:CE1:4070, V-B:GLU:543:CB:9878"]

$$$$
9d_Ghoteimi_2023
     RDKit          3D

 38 43  0  0  0  0  0  0  0  0999 V2000
  124.8230  134.4140   60.0550 C   0  0  0  0  0  0  0  0  0  0  0  0
  123.7830  133.4660   59.8610 O   0  0  0  0  0  0  0  0  0  0  0  0
  124.0440  132.2470   59.3220 C   0  0  0  0  0  0  0  0  0  0  0  0
  123.7630  131.9310   58.1630 O   0  0  0  0  0  0  0  0  0  0  0  0
  124.7010  131.3240   60.2740 C   0  0  0  0  0  0  0  0  0  0  0  0
  125.1020  131.8790   61.8990 S   0  0  0  0  0  0  0  0  0  0  0  0
  125.7500  130.3110   62.3170 C   0  0  0  0  0  0  0  0  0  0  0  0
  126.2270  130.0550   63.5350 N   0  0  0  0  0  0  0  0  0  0  0  0
  126.6920  128.7990   63.7640 C   0  0  0  0  0  0  0  0  0  0  0  0
  127.1990  128.5280   65.1450 C   0  0  0  0  0  0  0  0  0  0  0  0
  126.3590  127.9610   66.1100 C   0  0  0  0  0  0  0  0  0  0  0  0
  126.8200  127.7070   67.3980 C   0  0  0  0  0  0  0  0  0  0  0  0
  128.1440  127.9980   67.7660 C   0  0  0  0  0  0  0  0  0  0  0  0
  128.6160  127.7640   69.0620 N   0  0  0  0  0  0  0  0  0  0  0  0
  128.2080  126.5670   69.8240 C   0  0  0  0  0  0  0  0  0  0  0  0
  128.5350  126.6440   71.3300 C   0  0  0  0  0  0  0  0  0  0  0  0
  129.9140  126.9190   71.5140 O   0  0  0  0  0  0  0  0  0  0  0  0
  130.2790  128.1580   70.9290 C   0  0  0  0  0  0  0  0  0  0  0  0
  130.0050  128.1300   69.4100 C   0  0  0  0  0  0  0  0  0  0  0  0
  128.9760  128.5800   66.7990 C   0  0  0  0  0  0  0  0  0  0  0  0
  128.5140  128.8380   65.5110 C   0  0  0  0  0  0  0  0  0  0  0  0
  126.7110  127.8170   62.7700 C   0  0  0  0  0  0  0  0  0  0  0  0
  126.2290  128.0870   61.4840 C   0  0  0  0  0  0  0  0  0  0  0  0
  126.2970  127.0150   60.4560 C   0  0  0  0  0  0  0  0  0  0  0  0
  126.6200  127.3160   59.1320 C   0  0  0  0  0  0  0  0  0  0  0  0
  126.7010  126.3060   58.1760 C   0  0  0  0  0  0  0  0  0  0  0  0
  126.4770  124.9650   58.5260 C   0  0  0  0  0  0  0  0  0  0  0  0
  126.5430  123.9350   57.5850 N   0  0  0  0  0  0  0  0  0  0  0  0
  127.7140  123.8550   56.6890 C   0  0  0  0  0  0  0  0  0  0  0  0
  127.8520  122.4870   55.9890 C   0  0  0  0  0  0  0  0  0  0  0  0
  126.6570  122.1740   55.2890 O   0  0  0  0  0  0  0  0  0  0  0  0
  125.5390  122.1110   56.1630 C   0  0  0  0  0  0  0  0  0  0  0  0
  125.3420  123.4720   56.8640 C   0  0  0  0  0  0  0  0  0  0  0  0
  126.1520  124.6750   59.8590 C   0  0  0  0  0  0  0  0  0  0  0  0
  126.0700  125.6850   60.8120 C   0  0  0  0  0  0  0  0  0  0  0  0
  125.6980  129.3830   61.2340 C   0  0  0  0  0  0  0  0  0  0  0  0
  125.0750  129.9880   60.0860 C   0  0  0  0  0  0  0  0  0  0  0  0
  124.8470  129.3070   58.9180 N   0  0  0  0  0  0  0  0  0  0  0  0
  1  2  1  0
  2  3  1  0
  3  4  2  0
  3  5  1  0
  5  6  1  0
  6  7  1  0
  7  8  2  0
  8  9  1  0
  9 10  1  0
 10 11  2  0
 11 12  1  0
 12 13  2  0
 13 14  1  0
 14 15  1  0
 15 16  1  0
 16 17  1  0
 17 18  1  0
 18 19  1  0
 13 20  1  0
 20 21  2  0
  9 22  2  0
 22 23  1  0
 23 24  1  0
 24 25  2  0
 25 26  1  0
 26 27  2  0
 27 28  1  0
 28 29  1  0
 29 30  1  0
 30 31  1  0
 31 32  1  0
 32 33  1  0
 27 34  1  0
 34 35  2  0
 23 36  2  0
 36 37  1  0
 37 38  1  0
 37  5  2  0
 36  7  1  0
 21 10  1  0
 35 24  1  0
 19 14  1  0
 33 28  1  0
M  END
>  <Binding energies>  (66) 
[-5.96]

>  <Ligand effiencies>  (66) 
[-0.149]

>  <Interactions>  (66) 
["V-B:MET:535:CE:9807, V-B:ILE:369:CG2:8209, V-B:TYR:539:CE2:9848, V-A:GLU:543:CD:4908, V-B:TYR:539:CZ:9849, V-B:ILE:369:CD1:8211, H-B:TYR:484:OH:9320, V-A:GLU:543:CG:4907, V-A:TYR:539:CE1:4875, H-A:TYR:539:OH:4878, V-B:TYR:539:CD2:9846, V-B:TYR:539:CD1:9845, V-B:TYR:539:CG:9844, H-B:ASP:366:OD2:8187, V-B:TYR:539:CE1:9847, V-B:ASP:366:CG:8185, H-B:TYR:539:N:9842, V-B:ASP:366:CB:8184, V-B:ASP:366:CA:8182, V-B:PRO:540:N:9856, V-A:TYR:539:CD1:4873, V-B:TYR:531:CZ:9766, V-B:TYR:531:CE2:9765, V-B:GLU:543:CD:9880, V-B:ILE:538:CA:9832, V-B:ILE:538:CD1:9837, V-A:HIS:456:CD2:4068, V-B:PRO:540:CD:9859, V-B:ILE:369:CB:8208, H-B:ASP:366:OD1:8186, V-A:GLY:544:CA:4914, V-A:GLU:543:C:4902, V-B:ILE:538:CG2:9835, V-B:ILE:538:C:9830, V-B:ARG:545:CG:9894, V-B:HIS:456:CE1:9042, V-A:GLU:543:CB:4906, V-A:HIS:456:CE1:4070, V-B:GLU:543:CB:9878, V-B:HIS:456:CD2:9040, V-A:GLY:544:C:4912"]

$$$$
RR10_Rahimova_2017
     RDKit          3D

 34 38  0  0  0  0  0  0  0  0999 V2000
  133.5140  124.3600   57.6800 C   0  0  0  0  0  0  0  0  0  0  0  0
  133.3830  124.1620   59.2000 C   0  0  1  0  0  0  0  0  0  0  0  0
  132.4460  125.2140   59.8390 C   0  0  0  0  0  0  0  0  0  0  0  0
  132.3570  125.0180   61.3700 C   0  0  0  0  0  0  0  0  0  0  0  0
  131.8610  123.5990   61.7490 C   0  0  1  0  0  0  0  0  0  0  0  0
  130.4550  123.4180   61.3630 N   0  0  0  0  0  0  0  0  0  0  0  0
  129.6710  122.3880   61.7320 C   0  0  0  0  0  0  0  0  0  0  0  0
  130.0600  121.4790   62.4690 O   0  0  0  0  0  0  0  0  0  0  0  0
  128.2330  122.3760   61.1740 C   0  0  1  0  0  0  0  0  0  0  0  0
  127.2980  123.1460   62.1440 C   0  0  0  0  0  0  0  0  0  0  0  0
  125.8740  123.2160   61.5420 C   0  0  0  0  0  0  0  0  0  0  0  0
  125.8670  123.7630   60.0960 C   0  0  0  0  0  0  0  0  0  0  0  0
  126.8350  123.0150   59.2480 N   0  0  0  0  0  0  0  0  0  0  0  0
  126.7000  123.3490   57.5130 S   0  0  0  0  0  0  0  0  0  0  0  0
  125.4020  123.9920   57.2710 O   0  0  0  0  0  0  0  0  0  0  0  0
  127.0650  122.1260   56.7880 O   0  0  0  0  0  0  0  0  0  0  0  0
  127.9560  124.5840   57.1780 C   0  0  0  0  0  0  0  0  0  0  0  0
  129.3040  124.2100   57.1910 C   0  0  0  0  0  0  0  0  0  0  0  0
  130.3310  125.1250   56.9410 C   0  0  0  0  0  0  0  0  0  0  0  0
  129.9440  126.4400   56.6720 C   0  0  0  0  0  0  0  0  0  0  0  0
  130.6320  127.5960   56.3910 N   0  0  0  0  0  0  0  0  0  0  0  0
  129.7100  128.6070   56.2140 C   0  0  0  0  0  0  0  0  0  0  0  0
  130.0830  130.0270   55.8990 C   0  0  0  0  0  0  0  0  0  0  0  0
  131.1630  130.6380   56.5510 C   0  0  0  0  0  0  0  0  0  0  0  0
  131.5130  131.9530   56.2580 C   0  0  0  0  0  0  0  0  0  0  0  0
  130.7820  132.6660   55.3100 C   0  0  0  0  0  0  0  0  0  0  0  0
  129.7080  132.0740   54.6530 C   0  0  0  0  0  0  0  0  0  0  0  0
  129.3590  130.7580   54.9480 C   0  0  0  0  0  0  0  0  0  0  0  0
  128.4750  128.1770   56.3560 N   0  0  0  0  0  0  0  0  0  0  0  0
  128.5880  126.8420   56.6430 C   0  0  0  0  0  0  0  0  0  0  0  0
  127.5790  125.9020   56.8960 C   0  0  0  0  0  0  0  0  0  0  0  0
  128.2230  123.0360   59.7730 C   0  0  0  0  0  0  0  0  0  0  0  0
  132.7990  122.5540   61.0860 C   0  0  0  0  0  0  0  0  0  0  0  0
  132.8860  122.7420   59.5550 C   0  0  0  0  0  0  0  0  0  0  0  0
  2  1  1  6
  2  3  1  0
  3  4  1  0
  4  5  1  0
  5  6  1  6
  6  7  1  0
  7  8  2  0
  9  7  1  1
  9 10  1  0
 10 11  1  0
 11 12  1  0
 12 13  1  0
 13 14  1  0
 14 15  2  0
 14 16  2  0
 14 17  1  0
 17 18  2  0
 18 19  1  0
 19 20  2  0
 20 21  1  0
 21 22  1  0
 22 23  1  0
 23 24  2  0
 24 25  1  0
 25 26  2  0
 26 27  1  0
 27 28  2  0
 22 29  2  0
 29 30  1  0
 30 31  2  0
 13 32  1  0
  5 33  1  0
 33 34  1  0
 34  2  1  0
 32  9  1  0
 31 17  1  0
 30 20  1  0
 28 23  1  0
M  END
>  <Binding energies>  (67) 
[-10.57]

>  <Ligand effiencies>  (67) 
[-0.2936111111111111]

>  <Interactions>  (67) 
["V-A:ASP:366:CA:3210, V-A:ILE:369:CB:3236, V-A:ASP:366:CG:3213, V-B:MET:535:CE:9807, V-B:TYR:539:CE2:9848, V-A:ASP:366:CB:3212, V-B:TYR:539:CZ:9849, V-A:ASP:366:C:3208, H-A:TYR:531:OH:4795, V-A:ILE:369:CG2:3237, V-B:TYR:539:CD2:9846, V-A:LEU:475:CD2:4259, H-B:TYR:531:OH:9767, V-B:TYR:539:CE1:9847, H-B:TYR:539:N:9842, V-B:PRO:540:CB:9857, V-B:PRO:540:CA:9855, V-A:ILE:369:CD1:3239, V-B:GLU:543:CD:9880, V-A:PRO:540:CB:4885, V-B:PRO:540:C:9853, V-A:ILE:538:CA:4860, V-A:ILE:538:CB:4862, V-A:PRO:540:N:4884, V-A:ILE:538:CG2:4863, V-B:GLU:543:CG:9879, H-A:TYR:484:OH:4348"]

$$$$
RR12_Rahimova_2017
     RDKit          3D

 26 28  0  0  0  0  0  0  0  0999 V2000
  133.7800  122.1360   61.5810 C   0  0  0  0  0  0  0  0  0  0  0  0
  133.3260  120.9940   60.6630 C   0  0  0  0  0  0  0  0  0  0  0  0
  131.8500  121.1220   60.2450 C   0  0  0  0  0  0  0  0  0  0  0  0
  131.1100  119.9060   60.5760 N   0  0  0  0  0  0  0  0  0  0  0  0
  130.1570  119.7420   61.5680 C   0  0  0  0  0  0  0  0  0  0  0  0
  129.7470  120.8350   62.5400 C   0  0  0  0  0  0  0  0  0  0  0  0
  129.2430  122.1000   61.8200 C   0  0  0  0  0  0  0  0  0  0  0  0
  128.2790  121.7820   60.6620 C   0  0  0  0  0  0  0  0  0  0  0  0
  127.6010  122.9580   60.1180 N   0  0  0  0  0  0  0  0  0  0  0  0
  126.5200  123.5460   60.6620 C   0  0  0  0  0  0  0  0  0  0  0  0
  125.9780  123.1420   61.6930 O   0  0  0  0  0  0  0  0  0  0  0  0
  125.9880  124.7760   59.9160 C   0  0  0  0  0  0  0  0  0  0  0  0
  126.6390  124.8840   58.6490 O   0  0  0  0  0  0  0  0  0  0  0  0
  126.2900  124.0140   57.6330 C   0  0  0  0  0  0  0  0  0  0  0  0
  124.9820  123.5250   57.6570 C   0  0  0  0  0  0  0  0  0  0  0  0
  124.5380  122.6450   56.6730 C   0  0  0  0  0  0  0  0  0  0  0  0
  125.4060  122.2520   55.6580 C   0  0  0  0  0  0  0  0  0  0  0  0
  126.7140  122.7280   55.6200 C   0  0  0  0  0  0  0  0  0  0  0  0
  127.1580  123.6070   56.6050 C   0  0  0  0  0  0  0  0  0  0  0  0
  129.6470  118.5350   61.6040 N   0  0  0  0  0  0  0  0  0  0  0  0
  130.2590  117.8650   60.5820 C   0  0  0  0  0  0  0  0  0  0  0  0
  130.0760  116.5390   60.1620 C   0  0  0  0  0  0  0  0  0  0  0  0
  130.8240  116.0850   59.0750 C   0  0  0  0  0  0  0  0  0  0  0  0
  131.7290  116.9200   58.4190 C   0  0  0  0  0  0  0  0  0  0  0  0
  131.9340  118.2430   58.8130 C   0  0  0  0  0  0  0  0  0  0  0  0
  131.1840  118.6980   59.9050 C   0  0  0  0  0  0  0  0  0  0  0  0
  1  2  1  0
  2  3  1  0
  3  4  1  0
  4  5  1  0
  5  6  1  0
  6  7  1  0
  7  8  1  0
  8  9  1  0
  9 10  1  0
 10 11  2  0
 10 12  1  0
 12 13  1  0
 13 14  1  0
 14 15  2  0
 15 16  1  0
 16 17  2  0
 17 18  1  0
 18 19  2  0
  5 20  2  0
 20 21  1  0
 21 22  2  0
 22 23  1  0
 23 24  2  0
 24 25  1  0
 25 26  2  0
 26  4  1  0
 19 14  1  0
 26 21  1  0
M  END
>  <Binding energies>  (68) 
[-7.77]

>  <Ligand effiencies>  (68) 
[-0.28777777777777774]

>  <Interactions>  (68) 
["V-B:MET:535:CE:9807, V-B:TYR:539:CE2:9848, V-A:ILE:369:CG2:3237, V-B:TYR:539:CD2:9846, V-A:LEU:475:CD2:4259, H-B:TYR:531:OH:9767, V-B:TYR:539:CD1:9845, V-B:TYR:539:CG:9844, V-A:TYR:484:CZ:4347, V-B:TYR:539:C:9839, V-A:TYR:484:CE1:4345, V-B:ASP:366:CG:8185, V-B:PRO:540:CB:9857, V-B:PRO:540:CA:9855, H-B:ALA:541:N:9863, V-B:PRO:540:N:9856, V-A:ILE:369:CD1:3239, V-B:LEU:363:CD1:8161, V-B:TYR:531:CE2:9765, V-B:ILE:538:CA:9832, V-B:ILE:538:CD1:9837, V-B:PRO:540:C:9853, V-B:PRO:540:CG:9858, V-B:PRO:540:CD:9859, V-B:TYR:539:CB:9843, V-A:LEU:475:CD1:4258, V-B:ALA:541:CB:9864, V-B:ILE:538:CG2:9835, V-B:ILE:538:C:9830, V-A:SER:385:CB:3409, V-A:SER:385:C:3405, V-B:ILE:538:CB:9834, V-B:VAL:344:CG1:7973, V-A:LEU:373:CD1:3280, V-A:PRO:482:CB:4326, V-A:LEU:475:CG:4257, V-A:HIS:383:CE1:3394, V-A:PRO:482:CG:4327, V-A:LEU:373:CD2:3281, V-A:GLY:454:CA:4049"]

$$$$
RR13_Rahimova_2017
     RDKit          3D

 48 54  0  0  0  0  0  0  0  0999 V2000
  132.0300  124.1140   59.7250 Cl  0  0  0  0  0  0  0  0  0  0  0  0
  132.0030  124.7060   61.3520 C   0  0  0  0  0  0  0  0  0  0  0  0
  133.1950  124.6670   62.0790 C   0  0  0  0  0  0  0  0  0  0  0  0
  133.2330  125.1090   63.3980 C   0  0  0  0  0  0  0  0  0  0  0  0
  132.0750  125.5920   64.0020 C   0  0  0  0  0  0  0  0  0  0  0  0
  130.8820  125.6350   63.2830 C   0  0  0  0  0  0  0  0  0  0  0  0
  130.8260  125.2050   61.9480 C   0  0  0  0  0  0  0  0  0  0  0  0
  129.4860  125.2390   61.1810 C   0  0  1  0  0  0  0  0  0  0  0  0
  128.5270  124.1550   61.6970 C   0  0  0  0  0  0  0  0  0  0  0  0
  128.7520  123.3110   62.6790 N   0  0  0  0  0  0  0  0  0  0  0  0
  127.6160  122.5110   62.7620 N   0  0  0  0  0  0  0  0  0  0  0  0
  126.7050  122.8800   61.7920 N   0  0  0  0  0  0  0  0  0  0  0  0
  127.3000  123.8790   61.1320 N   0  0  0  0  0  0  0  0  0  0  0  0
  126.6090  124.5580   60.0420 C   0  0  0  0  0  0  0  0  0  0  0  0
  125.5450  123.6310   59.4260 C   0  0  0  0  0  0  0  0  0  0  0  0
  125.8730  123.2560   57.9880 C   0  0  0  0  0  0  0  0  0  0  0  0
  127.2030  123.2210   57.5630 C   0  0  0  0  0  0  0  0  0  0  0  0
  127.5020  122.8850   56.2450 C   0  0  0  0  0  0  0  0  0  0  0  0
  126.4690  122.5860   55.3580 C   0  0  0  0  0  0  0  0  0  0  0  0
  125.1410  122.6200   55.7760 C   0  0  0  0  0  0  0  0  0  0  0  0
  124.8410  122.9560   57.0940 C   0  0  0  0  0  0  0  0  0  0  0  0
  128.8570  126.5810   61.1500 N   0  0  0  0  0  0  0  0  0  0  0  0
  127.6870  126.6250   62.0470 C   0  0  0  0  0  0  0  0  0  0  0  0
  127.1070  128.0560   62.1230 C   0  0  0  0  0  0  0  0  0  0  0  0
  126.6570  128.5050   60.7950 N   0  0  0  0  0  0  0  0  0  0  0  0
  126.0180  129.8410   60.8340 C   0  0  1  0  0  0  0  0  0  0  0  0
  125.2130  130.2310   59.5760 C   0  0  0  0  0  0  0  0  0  0  0  0
  125.2140  129.3230   58.5080 C   0  0  0  0  0  0  0  0  0  0  0  0
  124.5010  129.5850   57.3390 C   0  0  0  0  0  0  0  0  0  0  0  0
  123.7770  130.7670   57.2170 C   0  0  0  0  0  0  0  0  0  0  0  0
  123.7750  131.6900   58.2590 C   0  0  0  0  0  0  0  0  0  0  0  0
  124.4900  131.4390   59.4340 C   0  0  0  0  0  0  0  0  0  0  0  0
  124.4820  132.6790   60.6430 Cl  0  0  0  0  0  0  0  0  0  0  0  0
  125.1730  130.0660   62.0900 C   0  0  0  0  0  0  0  0  0  0  0  0
  124.1210  129.3610   62.4370 N   0  0  0  0  0  0  0  0  0  0  0  0
  123.6820  129.8980   63.6430 N   0  0  0  0  0  0  0  0  0  0  0  0
  124.5040  130.9370   64.0250 N   0  0  0  0  0  0  0  0  0  0  0  0
  125.4300  131.0090   63.0620 N   0  0  0  0  0  0  0  0  0  0  0  0
  126.4720  132.0290   63.1260 C   0  0  0  0  0  0  0  0  0  0  0  0
  127.8660  131.3740   63.1100 C   0  0  0  0  0  0  0  0  0  0  0  0
  128.5690  131.5520   61.7740 C   0  0  0  0  0  0  0  0  0  0  0  0
  129.7440  130.8460   61.5040 C   0  0  0  0  0  0  0  0  0  0  0  0
  130.3840  131.0030   60.2770 C   0  0  0  0  0  0  0  0  0  0  0  0
  129.8460  131.8680   59.3250 C   0  0  0  0  0  0  0  0  0  0  0  0
  128.6740  132.5740   59.5880 C   0  0  0  0  0  0  0  0  0  0  0  0
  128.0330  132.4160   60.8140 C   0  0  0  0  0  0  0  0  0  0  0  0
  127.8300  128.4650   59.9030 C   0  0  0  0  0  0  0  0  0  0  0  0
  128.4000  127.0300   59.8230 C   0  0  0  0  0  0  0  0  0  0  0  0
  1  2  1  0
  2  3  2  0
  3  4  1  0
  4  5  2  0
  5  6  1  0
  6  7  2  0
  7  8  1  0
  8  9  1  0
  9 10  2  0
 10 11  1  0
 11 12  2  0
 12 13  1  0
 13 14  1  0
 14 15  1  0
 15 16  1  0
 16 17  2  0
 17 18  1  0
 18 19  2  0
 19 20  1  0
 20 21  2  0
  8 22  1  1
 22 23  1  0
 23 24  1  0
 24 25  1  0
 26 25  1  6
 26 27  1  0
 27 28  2  0
 28 29  1  0
 29 30  2  0
 30 31  1  0
 31 32  2  0
 32 33  1  0
 26 34  1  0
 34 35  2  0
 35 36  1  0
 36 37  2  0
 37 38  1  0
 38 39  1  0
 39 40  1  0
 40 41  1  0
 41 42  2  0
 42 43  1  0
 43 44  2  0
 44 45  1  0
 45 46  2  0
 25 47  1  0
 47 48  1  0
  7  2  1  0
 13  9  1  0
 21 16  1  0
 48 22  1  0
 32 27  1  0
 38 34  1  0
 46 41  1  0
M  END
>  <Binding energies>  (69) 
[-13.14]

>  <Ligand effiencies>  (69) 
[-0.27375]

>  <Interactions>  (69) 
["V-A:TYR:539:CZ:4877, V-A:ALA:541:CB:4892, V-B:MET:535:CE:9807, V-B:ILE:369:CG2:8209, V-B:LEU:475:CD2:9231, V-A:PRO:540:CA:4883, V-B:TYR:539:CE2:9848, V-A:GLU:543:CD:4908, V-B:TYR:539:CZ:9849, V-B:ILE:369:CD1:8211, H-B:GLY:454:N:9022, H-B:TYR:484:OH:9320, V-A:TYR:539:CE1:4875, V-A:ARG:545:CZ:4926, V-B:TYR:539:CD1:9845, V-B:TYR:539:CG:9844, V-A:TYR:484:CZ:4347, V-B:TYR:539:CE1:9847, V-B:ASP:366:CG:8185, V-B:PRO:540:CB:9857, V-B:PRO:540:CA:9855, H-B:ALA:541:N:9863, V-B:ASP:366:CB:8184, V-B:ASP:366:CA:8182, V-B:PRO:540:N:9856, V-A:TYR:539:C:4867, V-B:LEU:363:CD1:8161, V-B:TYR:531:CE2:9765, V-B:GLU:543:CD:9880, V-B:ILE:538:CA:9832, V-B:ILE:538:CD1:9837, V-B:PRO:540:CD:9859, V-B:ASP:366:C:8180, V-B:ILE:369:CB:8208, V-B:ILE:538:CG2:9835, H-A:TYR:484:OH:4348, V-B:ILE:538:C:9830, V-B:TYR:531:CE1:9764, H-B:ARG:545:NH2:9900, H-B:ARG:545:NH1:9899"]

$$$$
RR14_Rahimova_2017
     RDKit          3D

 39 43  0  0  0  0  0  0  0  0999 V2000
  131.5770  121.7450   61.7740 C   0  0  0  0  0  0  0  0  0  0  0  0
  130.2650  121.8460   62.3160 O   0  0  0  0  0  0  0  0  0  0  0  0
  129.2330  122.2790   61.5050 C   0  0  0  0  0  0  0  0  0  0  0  0
  129.3850  122.0620   60.1350 C   0  0  0  0  0  0  0  0  0  0  0  0
  128.4100  122.4860   59.2380 C   0  0  0  0  0  0  0  0  0  0  0  0
  127.2680  123.1400   59.7060 C   0  0  0  0  0  0  0  0  0  0  0  0
  126.2290  123.6640   58.7220 C   0  0  0  0  0  0  0  0  0  0  0  0
  126.4550  123.2160   57.3480 N   0  0  0  0  0  0  0  0  0  0  0  0
  125.6390  122.3170   56.7870 N   0  0  0  0  0  0  0  0  0  0  0  0
  126.1590  122.1100   55.5250 N   0  0  0  0  0  0  0  0  0  0  0  0
  127.2970  122.8890   55.3430 N   0  0  0  0  0  0  0  0  0  0  0  0
  127.4610  123.5470   56.4670 C   0  0  0  0  0  0  0  0  0  0  0  0
  128.5990  124.5170   56.7570 C   0  0  0  0  0  0  0  0  0  0  0  0
  128.1790  125.6330   57.6200 N   0  0  0  0  0  0  0  0  0  0  0  0
  129.1050  125.8380   58.7420 C   0  0  0  0  0  0  0  0  0  0  0  0
  130.5910  125.7160   58.3390 C   0  0  0  0  0  0  0  0  0  0  0  0
  131.3160  124.5230   58.9980 C   0  0  0  0  0  0  0  0  0  0  0  0
  132.1910  124.9160   60.1080 N   0  0  0  0  0  0  0  0  0  0  0  0
  133.3530  124.0220   60.1830 C   0  0  0  0  0  0  0  0  0  0  0  0
  134.2690  124.3770   61.3730 C   0  0  0  0  0  0  0  0  0  0  0  0
  133.5170  124.3880   62.5820 O   0  0  0  0  0  0  0  0  0  0  0  0
  132.4580  125.3380   62.5500 C   0  0  0  0  0  0  0  0  0  0  0  0
  131.4870  125.0110   61.3960 C   0  0  0  0  0  0  0  0  0  0  0  0
  128.0500  126.8650   56.8280 C   0  0  0  0  0  0  0  0  0  0  0  0
  127.0350  127.8860   57.3350 C   0  0  0  0  0  0  0  0  0  0  0  0
  126.7690  128.0090   58.6590 C   0  0  0  0  0  0  0  0  0  0  0  0
  125.7620  128.9610   59.1730 C   0  0  0  0  0  0  0  0  0  0  0  0
  125.4760  129.1290   60.5380 C   0  0  0  0  0  0  0  0  0  0  0  0
  126.1990  128.3240   61.6110 C   0  0  0  0  0  0  0  0  0  0  0  0
  124.5060  130.0590   60.9200 C   0  0  0  0  0  0  0  0  0  0  0  0
  123.8280  130.8140   59.9630 C   0  0  0  0  0  0  0  0  0  0  0  0
  124.1070  130.6560   58.6030 C   0  0  0  0  0  0  0  0  0  0  0  0
  123.3520  131.4970   57.5820 C   0  0  0  0  0  0  0  0  0  0  0  0
  125.0800  129.7240   58.2080 C   0  0  0  0  0  0  0  0  0  0  0  0
  125.3930  129.5280   56.8470 N   0  0  0  0  0  0  0  0  0  0  0  0
  126.3070  128.6680   56.3310 C   0  0  0  0  0  0  0  0  0  0  0  0
  126.4690  128.5870   55.1130 O   0  0  0  0  0  0  0  0  0  0  0  0
  127.0920  123.3350   61.0780 C   0  0  0  0  0  0  0  0  0  0  0  0
  128.0700  122.9120   61.9730 C   0  0  0  0  0  0  0  0  0  0  0  0
  1  2  1  0
  2  3  1  0
  3  4  2  0
  4  5  1  0
  5  6  2  0
  6  7  1  0
  7  8  1  0
  8  9  1  0
  9 10  2  0
 10 11  1  0
 11 12  2  0
 12 13  1  0
 13 14  1  0
 14 15  1  0
 15 16  1  0
 16 17  1  0
 17 18  1  0
 18 19  1  0
 19 20  1  0
 20 21  1  0
 21 22  1  0
 22 23  1  0
 14 24  1  0
 24 25  1  0
 25 26  2  0
 26 27  1  0
 27 28  2  0
 28 29  1  0
 28 30  1  0
 30 31  2  0
 31 32  1  0
 32 33  1  0
 32 34  2  0
 34 35  1  0
 35 36  1  0
 36 37  2  0
  6 38  1  0
 38 39  2  0
 39  3  1  0
 12  8  1  0
 23 18  1  0
 36 25  1  0
 34 27  1  0
M  END
>  <Binding energies>  (70) 
[-11.22]

>  <Ligand effiencies>  (70) 
[-0.2805]

>  <Interactions>  (70) 
["V-A:TYR:539:CZ:4877, V-A:ASP:366:CG:3213, V-B:MET:535:CE:9807, V-B:ILE:369:CG2:8209, V-B:TYR:539:CE2:9848, H-B:LYS:534:NZ:9795, V-B:TYR:539:CZ:9849, V-B:ILE:369:CD1:8211, V-A:TYR:539:CE1:4875, V-A:ILE:369:CG2:3237, H-A:TYR:539:OH:4878, V-B:TYR:539:CD2:9846, V-A:ARG:545:CZ:4926, V-A:LEU:475:CD2:4259, H-B:TYR:531:OH:9767, V-B:TYR:539:C:9839, V-B:ASP:366:CG:8185, H-B:TYR:539:N:9842, V-B:PRO:540:CB:9857, V-B:PRO:540:CA:9855, V-B:ASP:366:CB:8184, V-B:ASP:366:CA:8182, V-B:PRO:540:N:9856, V-A:ILE:369:CD1:3239, V-B:TYR:531:CZ:9766, V-B:GLU:543:CD:9880, V-B:ASP:366:C:8180, V-B:ILE:369:CB:8208, V-B:ALA:541:CB:9864, H-A:GLY:454:N:4050, H-A:TYR:484:OH:4348, V-B:TYR:531:CE1:9764, V-A:GLY:453:CA:4044"]

$$$$
RR15_Rahimova_2017
     RDKit          3D

 45 49  0  0  0  0  0  0  0  0999 V2000
  132.7150  125.1910   63.2310 C   0  0  0  0  0  0  0  0  0  0  0  0
  133.0270  124.5780   61.9850 O   0  0  0  0  0  0  0  0  0  0  0  0
  132.5350  125.1270   60.8130 C   0  0  0  0  0  0  0  0  0  0  0  0
  131.7200  126.2690   60.7720 C   0  0  0  0  0  0  0  0  0  0  0  0
  131.2560  126.7680   59.5570 C   0  0  0  0  0  0  0  0  0  0  0  0
  131.5890  126.1430   58.3520 C   0  0  0  0  0  0  0  0  0  0  0  0
  131.0820  126.6780   57.0410 C   0  0  0  0  0  0  0  0  0  0  0  0
  131.5700  126.2950   55.8690 N   0  0  0  0  0  0  0  0  0  0  0  0
  130.8690  127.0020   54.9140 N   0  0  0  0  0  0  0  0  0  0  0  0
  129.9950  127.7130   55.6280 N   0  0  0  0  0  0  0  0  0  0  0  0
  129.1490  128.7380   55.0190 C   0  0  0  0  0  0  0  0  0  0  0  0
  127.7270  128.8490   55.6220 C   0  0  0  0  0  0  0  0  0  0  0  0
  126.7730  128.4720   54.9380 O   0  0  0  0  0  0  0  0  0  0  0  0
  127.5660  129.3260   56.8940 N   0  0  0  0  0  0  0  0  0  0  0  0
  127.6370  128.4300   58.0650 C   0  0  0  0  0  0  0  0  0  0  0  0
  126.7510  127.1720   57.9350 C   0  0  0  0  0  0  0  0  0  0  0  0
  127.5220  125.8310   57.9540 C   0  0  0  0  0  0  0  0  0  0  0  0
  127.0010  124.8380   57.0090 N   0  0  0  0  0  0  0  0  0  0  0  0
  128.0330  123.9380   56.4730 C   0  0  0  0  0  0  0  0  0  0  0  0
  127.4210  122.8600   55.5520 C   0  0  0  0  0  0  0  0  0  0  0  0
  126.3940  122.1540   56.2400 O   0  0  0  0  0  0  0  0  0  0  0  0
  125.3400  123.0090   56.6700 C   0  0  0  0  0  0  0  0  0  0  0  0
  125.8960  124.0890   57.6230 C   0  0  0  0  0  0  0  0  0  0  0  0
  127.5020  130.7830   57.2240 C   0  0  2  0  0  0  0  0  0  0  0  0
  128.8650  131.3930   57.6780 C   0  0  0  0  0  0  0  0  0  0  0  0
  128.9980  132.6070   57.8320 O   0  0  0  0  0  0  0  0  0  0  0  0
  129.8460  130.5070   57.9230 N   0  0  0  0  0  0  0  0  0  0  0  0
  131.1650  130.8330   58.4540 C   0  0  0  0  0  0  0  0  0  0  0  0
  131.2270  130.5980   59.9740 C   0  0  2  0  0  0  0  0  0  0  0  0
  130.1010  129.7240   60.5540 C   0  0  0  0  0  0  0  0  0  0  0  0
  129.1390  130.7090   61.1740 C   0  0  0  0  0  0  0  0  0  0  0  0
  130.0890  131.7930   61.6550 C   0  0  0  0  0  0  0  0  0  0  0  0
  131.0230  131.8800   60.5850 O   0  0  0  0  0  0  0  0  0  0  0  0
  126.2770  131.0890   58.0770 C   0  0  0  0  0  0  0  0  0  0  0  0
  126.4660  131.7830   59.2780 C   0  0  0  0  0  0  0  0  0  0  0  0
  125.3840  132.0890   60.0980 C   0  0  0  0  0  0  0  0  0  0  0  0
  124.1010  131.7040   59.7210 C   0  0  0  0  0  0  0  0  0  0  0  0
  123.0490  132.0020   60.5170 F   0  0  0  0  0  0  0  0  0  0  0  0
  123.8930  131.0150   58.5300 C   0  0  0  0  0  0  0  0  0  0  0  0
  124.9760  130.7080   57.7110 C   0  0  0  0  0  0  0  0  0  0  0  0
  130.1170  127.5750   56.9530 N   0  0  0  0  0  0  0  0  0  0  0  0
  132.4040  125.0040   58.3960 C   0  0  0  0  0  0  0  0  0  0  0  0
  132.8830  124.4900   59.6130 C   0  0  0  0  0  0  0  0  0  0  0  0
  133.6930  123.3710   59.7080 O   0  0  0  0  0  0  0  0  0  0  0  0
  133.1850  122.1840   60.3070 C   0  0  0  0  0  0  0  0  0  0  0  0
  1  2  1  0
  2  3  1  0
  3  4  2  0
  4  5  1  0
  5  6  2  0
  6  7  1  0
  7  8  1  0
  8  9  2  0
  9 10  1  0
 10 11  1  0
 11 12  1  0
 12 13  2  0
 12 14  1  0
 14 15  1  0
 15 16  1  0
 16 17  1  0
 17 18  1  0
 18 19  1  0
 19 20  1  0
 20 21  1  0
 21 22  1  0
 22 23  1  0
 24 14  1  1
 24 25  1  0
 25 26  2  0
 25 27  1  0
 27 28  1  0
 29 28  1  6
 29 30  1  0
 30 31  1  0
 31 32  1  0
 32 33  1  0
 24 34  1  0
 34 35  2  0
 35 36  1  0
 36 37  2  0
 37 38  1  0
 37 39  1  0
 39 40  2  0
 10 41  1  0
  6 42  1  0
 42 43  2  0
 43 44  1  0
 44 45  1  0
 43  3  1  0
 41  7  2  0
 23 18  1  0
 33 29  1  0
 40 34  1  0
M  END
>  <Binding energies>  (71) 
[-9.46]

>  <Ligand effiencies>  (71) 
[-0.2056521739130435]

>  <Interactions>  (71) 
["V-A:TYR:539:CZ:4877, V-A:ALA:541:CB:4892, V-A:ASP:366:CG:3213, V-B:MET:535:CE:9807, V-B:ILE:369:CG2:8209, V-A:PRO:540:CA:4883, V-B:TYR:539:CE2:9848, V-A:ASP:366:CB:3212, H-B:LYS:534:NZ:9795, V-B:TYR:539:CZ:9849, V-B:ILE:369:CD1:8211, H-A:ALA:541:N:4891, V-A:GLU:543:CG:4907, H-A:TYR:531:OH:4795, V-A:TYR:539:CE1:4875, V-A:ILE:369:CG2:3237, V-A:ARG:545:CZ:4926, H-B:TYR:531:OH:9767, V-B:TYR:539:CD1:9845, V-B:TYR:539:CE1:9847, H-B:TYR:539:OH:9850, H-B:TYR:539:N:9842, V-B:ASP:366:CB:8184, V-B:ASP:366:CA:8182, V-A:ILE:369:CD1:3239, V-A:TYR:539:CD1:4873, V-B:PRO:540:CD:9859, V-B:ASP:366:C:8180, V-B:ILE:369:CB:8208, H-A:TYR:484:OH:4348, V-A:ALA:541:CA:4890, V-A:MET:535:CE:4835, V-B:ILE:369:CG1:8210"]

$$$$
RR17_Rahimova_2017
     RDKit          3D

 38 41  0  0  0  0  0  0  0  0999 V2000
  130.4240  132.2930   56.8550 C   0  0  0  0  0  0  0  0  0  0  0  0
  129.5830  132.2650   58.1350 C   0  0  0  0  0  0  0  0  0  0  0  0
  128.2440  131.9140   57.7950 O   0  0  0  0  0  0  0  0  0  0  0  0
  127.2520  132.0190   58.7520 C   0  0  0  0  0  0  0  0  0  0  0  0
  127.4590  132.9570   59.7630 C   0  0  0  0  0  0  0  0  0  0  0  0
  126.5160  133.1320   60.7710 C   0  0  0  0  0  0  0  0  0  0  0  0
  125.3410  132.3680   60.7900 C   0  0  0  0  0  0  0  0  0  0  0  0
  124.3420  132.5800   61.8900 C   0  0  0  0  0  0  0  0  0  0  0  0
  123.3890  133.3570   61.7770 O   0  0  0  0  0  0  0  0  0  0  0  0
  124.5610  131.7900   63.1990 C   0  0  0  0  0  0  0  0  0  0  0  0
  124.5290  129.9820   62.9260 S   0  0  0  0  0  0  0  0  0  0  0  0
  125.4260  129.4420   64.3540 C   0  0  0  0  0  0  0  0  0  0  0  0
  124.9010  128.8620   65.4080 N   0  0  0  0  0  0  0  0  0  0  0  0
  125.9310  128.5880   66.3000 N   0  0  0  0  0  0  0  0  0  0  0  0
  127.0410  129.0090   65.7490 C   0  0  0  0  0  0  0  0  0  0  0  0
  128.4190  128.8920   66.3840 C   0  0  0  0  0  0  0  0  0  0  0  0
  128.6130  127.6630   67.1500 N   0  0  0  0  0  0  0  0  0  0  0  0
  128.9300  127.6390   68.5200 C   0  0  0  0  0  0  0  0  0  0  0  0
  129.9870  128.4420   68.9490 C   0  0  0  0  0  0  0  0  0  0  0  0
  130.3570  128.4610   70.2900 C   0  0  0  0  0  0  0  0  0  0  0  0
  129.6690  127.6790   71.2220 C   0  0  0  0  0  0  0  0  0  0  0  0
  130.0920  127.7070   72.6900 C   0  0  0  0  0  0  0  0  0  0  0  0
  131.3490  127.2900   72.8630 F   0  0  0  0  0  0  0  0  0  0  0  0
  129.9990  128.9450   73.1780 F   0  0  0  0  0  0  0  0  0  0  0  0
  129.2870  126.9090   73.3920 F   0  0  0  0  0  0  0  0  0  0  0  0
  128.6040  126.8790   70.7950 C   0  0  0  0  0  0  0  0  0  0  0  0
  128.2340  126.8610   69.4540 C   0  0  0  0  0  0  0  0  0  0  0  0
  126.7910  129.5740   64.5150 N   0  0  0  0  0  0  0  0  0  0  0  0
  127.7180  130.1250   63.6180 C   0  0  0  0  0  0  0  0  0  0  0  0
  128.0750  129.4120   62.4740 C   0  0  0  0  0  0  0  0  0  0  0  0
  128.9970  129.9570   61.5850 C   0  0  0  0  0  0  0  0  0  0  0  0
  129.5640  131.2170   61.8390 C   0  0  0  0  0  0  0  0  0  0  0  0
  130.4850  131.8360   61.0150 O   0  0  0  0  0  0  0  0  0  0  0  0
  131.7830  131.2670   60.8730 C   0  0  0  0  0  0  0  0  0  0  0  0
  129.1960  131.9160   62.9900 C   0  0  0  0  0  0  0  0  0  0  0  0
  128.2740  131.3760   63.8820 C   0  0  0  0  0  0  0  0  0  0  0  0
  125.1340  131.4250   59.7720 C   0  0  0  0  0  0  0  0  0  0  0  0
  126.0780  131.2520   58.7640 C   0  0  0  0  0  0  0  0  0  0  0  0
  1  2  1  0
  2  3  1  0
  3  4  1  0
  4  5  2  0
  5  6  1  0
  6  7  2  0
  7  8  1  0
  8  9  2  0
  8 10  1  0
 10 11  1  0
 11 12  1  0
 12 13  2  0
 13 14  1  0
 14 15  2  0
 15 16  1  0
 16 17  1  0
 17 18  1  0
 18 19  2  0
 19 20  1  0
 20 21  2  0
 21 22  1  0
 22 23  1  0
 22 24  1  0
 22 25  1  0
 21 26  1  0
 26 27  2  0
 15 28  1  0
 28 29  1  0
 29 30  2  0
 30 31  1  0
 31 32  2  0
 32 33  1  0
 33 34  1  0
 32 35  1  0
 35 36  2  0
  7 37  1  0
 37 38  2  0
 38  4  1  0
 28 12  1  0
 36 29  1  0
 27 18  1  0
M  END
>  <Binding energies>  (72) 
[-8.2]

>  <Ligand effiencies>  (72) 
[-0.21025641025641023]

>  <Interactions>  (72) 
["V-A:ALA:541:CB:4892, V-B:LEU:475:CD2:9231, V-A:PRO:540:CA:4883, V-A:GLU:543:CD:4908, V-B:ILE:369:CD1:8211, H-A:ALA:541:N:4891, H-B:TYR:484:OH:9320, V-A:GLU:543:CG:4907, V-A:TYR:539:CE1:4875, V-B:ARG:545:CZ:9898, V-A:TYR:539:CD1:4873, V-A:TYR:539:C:4867, H-B:GLU:543:OE2:9882, V-B:GLU:543:CD:9880, V-A:HIS:456:CD2:4068, V-A:HIS:456:CG:4066, V-B:LYS:547:CE:9922, V-A:HIS:456:CB:4065, V-A:PRO:540:CB:4885, V-A:PRO:540:N:4884, H-A:GLU:543:OE2:4910, V-A:GLY:544:CA:4914, V-A:GLU:543:C:4902, V-A:GLU:543:CA:4904, V-A:LYS:547:CE:4950, V-B:GLY:454:CA:9021, H-B:ARG:545:NE:9896, V-B:TYR:484:CZ:9319, V-B:HIS:456:CE1:9042, V-A:ALA:541:CA:4890, H-B:ARG:545:NH2:9900, V-A:GLU:543:CB:4906, V-A:HIS:456:CE1:4070, V-B:GLU:543:CB:9878, V-B:TYR:484:CE2:9318, V-B:HIS:456:CD2:9040, V-A:GLY:544:C:4912"]

$$$$
RR19_Rahimova_2017
     RDKit          3D

 46 51  0  0  0  0  0  0  0  0999 V2000
  127.0110  125.5570   60.4340 O   0  0  0  0  0  0  0  0  0  0  0  0
  126.9070  126.5660   59.7290 C   0  0  0  0  0  0  0  0  0  0  0  0
  126.5590  127.8050   60.1590 N   0  0  0  0  0  0  0  0  0  0  0  0
  126.4420  128.3650   61.4070 C   0  0  0  0  0  0  0  0  0  0  0  0
  126.9660  127.6610   62.8550 S   0  0  0  0  0  0  0  0  0  0  0  0
  125.8310  129.5880   61.2850 N   0  0  0  0  0  0  0  0  0  0  0  0
  125.6040  130.5990   62.1620 C   0  0  0  0  0  0  0  0  0  0  0  0
  126.0860  130.7100   63.2910 O   0  0  0  0  0  0  0  0  0  0  0  0
  124.6170  131.6740   61.6390 C   0  0  2  0  0  0  0  0  0  0  0  0
  123.7230  131.2160   60.4500 C   0  0  0  0  0  0  0  0  0  0  0  0
  124.4340  131.1050   59.1110 C   0  0  0  0  0  0  0  0  0  0  0  0
  125.8010  131.4350   58.9870 C   0  0  0  0  0  0  0  0  0  0  0  0
  126.4520  131.2520   57.7740 C   0  0  0  0  0  0  0  0  0  0  0  0
  125.7690  130.7270   56.6840 C   0  0  0  0  0  0  0  0  0  0  0  0
  124.4320  130.3700   56.8000 C   0  0  0  0  0  0  0  0  0  0  0  0
  123.7630  130.5430   58.0040 C   0  0  0  0  0  0  0  0  0  0  0  0
  125.3200  132.9500   61.3350 N   0  0  0  0  0  0  0  0  0  0  0  0
  124.6820  133.9790   60.7070 C   0  0  0  0  0  0  0  0  0  0  0  0
  123.5200  133.9980   60.2980 O   0  0  0  0  0  0  0  0  0  0  0  0
  125.6810  135.0730   60.6240 C   0  0  0  0  0  0  0  0  0  0  0  0
  125.5890  136.3550   60.0810 C   0  0  0  0  0  0  0  0  0  0  0  0
  126.7070  137.1940   60.1510 C   0  0  0  0  0  0  0  0  0  0  0  0
  127.8890  136.7460   60.7570 C   0  0  0  0  0  0  0  0  0  0  0  0
  127.9600  135.4560   61.2970 C   0  0  0  0  0  0  0  0  0  0  0  0
  126.8340  134.6350   61.2150 C   0  0  0  0  0  0  0  0  0  0  0  0
  126.6040  133.2500   61.6940 C   0  0  0  0  0  0  0  0  0  0  0  0
  127.4020  132.5300   62.2960 O   0  0  0  0  0  0  0  0  0  0  0  0
  127.1730  126.4650   58.2040 C   0  0  2  0  0  0  0  0  0  0  0  0
  127.8020  125.1120   57.7610 C   0  0  0  0  0  0  0  0  0  0  0  0
  126.7940  124.1070   57.2330 C   0  0  0  0  0  0  0  0  0  0  0  0
  125.5120  124.0160   57.8180 C   0  0  0  0  0  0  0  0  0  0  0  0
  124.5570  123.1700   57.2680 C   0  0  0  0  0  0  0  0  0  0  0  0
  124.8480  122.4310   56.1290 C   0  0  0  0  0  0  0  0  0  0  0  0
  126.0920  122.5410   55.5190 C   0  0  0  0  0  0  0  0  0  0  0  0
  127.0610  123.3810   56.0530 C   0  0  0  0  0  0  0  0  0  0  0  0
  127.9350  127.6250   57.6580 N   0  0  0  0  0  0  0  0  0  0  0  0
  127.6460  128.1630   56.4400 C   0  0  0  0  0  0  0  0  0  0  0  0
  126.7840  127.7890   55.6450 O   0  0  0  0  0  0  0  0  0  0  0  0
  128.5930  129.2940   56.2760 C   0  0  0  0  0  0  0  0  0  0  0  0
  128.7640  130.1980   55.2260 C   0  0  0  0  0  0  0  0  0  0  0  0
  129.7500  131.1830   55.3450 C   0  0  0  0  0  0  0  0  0  0  0  0
  130.5430  131.2540   56.4980 C   0  0  0  0  0  0  0  0  0  0  0  0
  130.3540  130.3400   57.5410 C   0  0  0  0  0  0  0  0  0  0  0  0
  129.3660  129.3630   57.4020 C   0  0  0  0  0  0  0  0  0  0  0  0
  128.9370  128.2790   58.3180 C   0  0  0  0  0  0  0  0  0  0  0  0
  129.3870  128.0230   59.4350 O   0  0  0  0  0  0  0  0  0  0  0  0
  1  2  2  0
  2  3  1  0
  3  4  1  0
  4  5  2  0
  4  6  1  0
  6  7  1  0
  7  8  2  0
  7  9  1  0
  9 10  1  6
 10 11  1  0
 11 12  2  0
 12 13  1  0
 13 14  2  0
 14 15  1  0
 15 16  2  0
  9 17  1  0
 17 18  1  0
 18 19  2  0
 18 20  1  0
 20 21  2  0
 21 22  1  0
 22 23  2  0
 23 24  1  0
 24 25  2  0
 25 26  1  0
 26 27  2  0
  2 28  1  0
 28 29  1  1
 29 30  1  0
 30 31  2  0
 31 32  1  0
 32 33  2  0
 33 34  1  0
 34 35  2  0
 28 36  1  0
 36 37  1  0
 37 38  2  0
 37 39  1  0
 39 40  2  0
 40 41  1  0
 41 42  2  0
 42 43  1  0
 43 44  2  0
 44 45  1  0
 45 46  2  0
 16 11  1  0
 26 17  1  0
 35 30  1  0
 45 36  1  0
 25 20  1  0
 44 39  1  0
M  END
>  <Binding energies>  (73) 
[-10.98]

>  <Ligand effiencies>  (73) 
[-0.22875]

>  <Interactions>  (73) 
["V-A:TYR:539:CZ:4877, V-A:ALA:541:CB:4892, V-B:MET:535:CE:9807, V-B:ILE:369:CG2:8209, V-B:LEU:475:CD2:9231, V-B:ILE:369:CD1:8211, H-B:TYR:484:OH:9320, V-A:TYR:539:CE1:4875, H-B:TYR:531:OH:9767, V-B:ASP:366:CG:8185, V-B:PRO:540:CB:9857, V-B:ASP:366:CB:8184, V-B:ASP:366:CA:8182, V-B:PRO:540:N:9856, V-A:TYR:539:CD1:4873, V-A:TYR:539:C:4867, V-A:PRO:540:C:4881, V-B:LEU:363:CD1:8161, V-B:TYR:531:CE2:9765, V-B:GLU:543:CD:9880, V-B:ILE:538:CA:9832, V-B:ILE:538:CD1:9837, V-B:PRO:540:CD:9859, V-B:ASP:366:C:8180, H-B:ASP:366:OD1:8186, V-B:ILE:538:CG2:9835, V-B:SER:385:CB:8381, V-B:ILE:538:C:9830, V-B:TYR:531:CE1:9764, V-A:ALA:541:CA:4890, V-A:TYR:539:CB:4871, V-B:PRO:482:CB:9298, V-B:PRO:482:CG:9299"]

$$$$
RR1_Rahimova_2017
     RDKit          3D

 41 44  0  0  0  0  0  0  0  0999 V2000
  125.1530  122.8040   56.3230 C   0  0  0  0  0  0  0  0  0  0  0  0
  126.4630  122.2760   56.4940 O   0  0  0  0  0  0  0  0  0  0  0  0
  127.2750  122.7950   57.4830 C   0  0  0  0  0  0  0  0  0  0  0  0
  127.1100  122.5470   58.8550 C   0  0  0  0  0  0  0  0  0  0  0  0
  127.9750  123.1210   59.7820 C   0  0  0  0  0  0  0  0  0  0  0  0
  129.0190  123.9440   59.3580 C   0  0  0  0  0  0  0  0  0  0  0  0
  129.8110  124.5140   60.3730 N   0  0  0  0  0  0  0  0  0  0  0  0
  129.9860  124.1100   61.6500 C   0  0  0  0  0  0  0  0  0  0  0  0
  129.3950  123.1660   62.1740 O   0  0  0  0  0  0  0  0  0  0  0  0
  131.0060  124.9370   62.4480 C   0  0  0  0  0  0  0  0  0  0  0  0
  132.6980  124.2490   62.5080 S   0  0  0  0  0  0  0  0  0  0  0  0
  132.4480  122.9020   61.4000 C   0  0  0  0  0  0  0  0  0  0  0  0
  131.9330  121.7490   61.7470 N   0  0  0  0  0  0  0  0  0  0  0  0
  131.9200  121.0530   60.6150 C   0  0  0  0  0  0  0  0  0  0  0  0
  131.3880  119.6500   60.5400 C   0  0  0  0  0  0  0  0  0  0  0  0
  130.2520  119.2560   61.2650 C   0  0  0  0  0  0  0  0  0  0  0  0
  129.7820  117.9440   61.1770 C   0  0  0  0  0  0  0  0  0  0  0  0
  130.4650  117.0470   60.3590 C   0  0  0  0  0  0  0  0  0  0  0  0
  131.5660  117.3930   59.6450 N   0  0  0  0  0  0  0  0  0  0  0  0
  132.0070  118.6740   59.7430 C   0  0  0  0  0  0  0  0  0  0  0  0
  132.4040  121.6800   59.5590 N   0  0  0  0  0  0  0  0  0  0  0  0
  132.7460  122.8700   60.0620 N   0  0  0  0  0  0  0  0  0  0  0  0
  133.3150  123.9060   59.2000 C   0  0  0  0  0  0  0  0  0  0  0  0
  132.4460  125.1640   59.0350 C   0  0  0  0  0  0  0  0  0  0  0  0
  132.3490  125.9910   59.9480 O   0  0  0  0  0  0  0  0  0  0  0  0
  131.8220  125.2720   57.8460 N   0  0  0  0  0  0  0  0  0  0  0  0
  131.1400  126.4490   57.5690 N   0  0  0  0  0  0  0  0  0  0  0  0
  131.1840  126.9200   56.3040 C   0  0  0  0  0  0  0  0  0  0  0  0
  131.7040  126.3180   55.3580 O   0  0  0  0  0  0  0  0  0  0  0  0
  130.5160  128.2610   56.0810 C   0  0  0  0  0  0  0  0  0  0  0  0
  131.1410  129.4350   56.5180 C   0  0  0  0  0  0  0  0  0  0  0  0
  130.5400  130.6750   56.3340 C   0  0  0  0  0  0  0  0  0  0  0  0
  129.2860  130.7810   55.7110 C   0  0  0  0  0  0  0  0  0  0  0  0
  128.6280  131.9810   55.5100 O   0  0  0  0  0  0  0  0  0  0  0  0
  128.6430  132.9690   56.5340 C   0  0  0  0  0  0  0  0  0  0  0  0
  128.6400  129.6170   55.2720 C   0  0  0  0  0  0  0  0  0  0  0  0
  127.3970  129.7730   54.6830 O   0  0  0  0  0  0  0  0  0  0  0  0
  126.2420  129.9140   55.5020 C   0  0  0  0  0  0  0  0  0  0  0  0
  129.2620  128.3690   55.4580 C   0  0  0  0  0  0  0  0  0  0  0  0
  129.1880  124.1950   57.9880 C   0  0  0  0  0  0  0  0  0  0  0  0
  128.3210  123.6180   57.0640 C   0  0  0  0  0  0  0  0  0  0  0  0
  1  2  1  0
  2  3  1  0
  3  4  2  0
  4  5  1  0
  5  6  2  0
  6  7  1  0
  7  8  1  0
  8  9  2  0
  8 10  1  0
 10 11  1  0
 11 12  1  0
 12 13  2  0
 13 14  1  0
 14 15  1  0
 15 16  2  0
 16 17  1  0
 17 18  2  0
 18 19  1  0
 19 20  2  0
 14 21  2  0
 21 22  1  0
 22 23  1  0
 23 24  1  0
 24 25  2  0
 24 26  1  0
 26 27  1  0
 27 28  1  0
 28 29  2  0
 28 30  1  0
 30 31  2  0
 31 32  1  0
 32 33  2  0
 33 34  1  0
 34 35  1  0
 33 36  1  0
 36 37  1  0
 37 38  1  0
 36 39  2  0
  6 40  1  0
 40 41  2  0
 41  3  1  0
 22 12  1  0
 39 30  1  0
 20 15  1  0
M  END
>  <Binding energies>  (74) 
[-8.86]

>  <Ligand effiencies>  (74) 
[-0.20136363636363636]

>  <Interactions>  (74) 
["V-A:TYR:539:CZ:4877, V-A:ILE:369:CB:3236, V-A:ASP:366:CG:3213, V-B:MET:535:CE:9807, V-B:TYR:539:CE2:9848, V-A:ASP:366:CB:3212, H-B:LYS:534:NZ:9795, V-B:TYR:539:CZ:9849, H-A:TYR:531:OH:4795, V-A:TYR:539:CE1:4875, V-A:ILE:369:CG2:3237, V-B:TYR:539:CD2:9846, V-A:LEU:475:CD2:4259, V-B:TYR:539:CE1:9847, H-B:TYR:539:OH:9850, V-B:TYR:539:C:9839, H-B:TYR:539:N:9842, V-B:PRO:540:CB:9857, V-B:PRO:540:CA:9855, V-B:PRO:540:N:9856, V-A:ILE:369:CD1:3239, V-A:TYR:539:CD1:4873, V-A:TYR:539:C:4867, V-B:LEU:363:CD1:8161, V-B:TYR:531:CE2:9765, V-B:ILE:538:CD1:9837, H-A:ASP:366:OD1:3214, V-A:TYR:539:CE2:4876, V-A:TYR:539:CD2:4874, V-A:PRO:540:N:4884, V-A:TYR:539:CG:4872, V-B:PRO:540:CD:9859, V-A:LEU:475:CD1:4258, V-B:ALA:541:CB:9864, H-A:TYR:484:OH:4348, V-B:TYR:531:CE1:9764, V-A:TYR:539:CB:4871, V-A:SER:385:CB:3409, V-A:TYR:539:CA:4869, V-A:PRO:482:CB:4326, V-A:LEU:475:CG:4257, V-A:PRO:482:CG:4327, H-A:SER:385:OG:3410"]

$$$$
RR22_Rahimova_2017
     RDKit          3D

 31 36  0  0  0  0  0  0  0  0999 V2000
  123.7340  130.3800   54.9940 O   0  0  0  0  0  0  0  0  0  0  0  0
  124.5800  130.3520   55.8850 C   0  0  0  0  0  0  0  0  0  0  0  0
  124.3800  130.1030   57.2320 N   0  0  0  0  0  0  0  0  0  0  0  0
  125.4890  130.0470   58.1350 C   0  0  1  0  0  0  0  0  0  0  0  0
  125.1910  131.0050   59.1540 O   0  0  0  0  0  0  0  0  0  0  0  0
  125.0910  130.5600   60.4730 C   0  0  0  0  0  0  0  0  0  0  0  0
  124.4500  131.4140   61.3710 C   0  0  0  0  0  0  0  0  0  0  0  0
  124.3470  131.0560   62.7150 C   0  0  0  0  0  0  0  0  0  0  0  0
  124.8910  129.8510   63.1610 C   0  0  0  0  0  0  0  0  0  0  0  0
  125.5320  128.9960   62.2620 C   0  0  0  0  0  0  0  0  0  0  0  0
  125.6210  129.3300   60.9070 C   0  0  0  0  0  0  0  0  0  0  0  0
  126.3320  128.4960   59.8650 C   0  0  1  0  0  0  0  0  0  0  0  0
  126.3950  126.9840   59.9370 C   0  0  0  0  0  0  0  0  0  0  0  0
  126.4600  126.6530   58.4430 C   0  0  0  0  0  0  0  0  0  0  0  0
  126.9200  125.3460   57.9340 C   0  0  0  0  0  0  0  0  0  0  0  0
  126.1300  124.1990   58.0990 C   0  0  0  0  0  0  0  0  0  0  0  0
  126.5670  122.9680   57.6160 C   0  0  0  0  0  0  0  0  0  0  0  0
  127.7960  122.8770   56.9670 C   0  0  0  0  0  0  0  0  0  0  0  0
  128.5920  124.0070   56.7960 C   0  0  0  0  0  0  0  0  0  0  0  0
  128.1550  125.2380   57.2770 C   0  0  0  0  0  0  0  0  0  0  0  0
  126.0460  127.6360   57.7340 N   0  0  0  0  0  0  0  0  0  0  0  0
  125.6640  128.6660   58.6100 N   0  0  0  0  0  0  0  0  0  0  0  0
  126.6980  130.5670   57.3720 C   0  0  0  0  0  0  0  0  0  0  0  0
  127.8340  130.9790   57.9830 C   0  0  0  0  0  0  0  0  0  0  0  0
  129.0770  131.4830   57.3690 C   0  0  0  0  0  0  0  0  0  0  0  0
  130.3530  131.0300   57.7360 C   0  0  0  0  0  0  0  0  0  0  0  0
  131.4850  131.5530   57.1120 C   0  0  0  0  0  0  0  0  0  0  0  0
  131.3130  132.5300   56.1310 C   0  0  0  0  0  0  0  0  0  0  0  0
  130.0930  132.9940   55.7620 N   0  0  0  0  0  0  0  0  0  0  0  0
  129.0030  132.4710   56.3810 C   0  0  0  0  0  0  0  0  0  0  0  0
  126.3580  130.6430   55.6370 S   0  0  0  0  0  0  0  0  0  0  0  0
  1  2  2  0
  2  3  1  0
  4  3  1  6
  4  5  1  0
  5  6  1  0
  6  7  2  0
  7  8  1  0
  8  9  2  0
  9 10  1  0
 10 11  2  0
 11 12  1  0
 12 13  1  1
 13 14  1  0
 14 15  1  0
 15 16  2  0
 16 17  1  0
 17 18  2  0
 18 19  1  0
 19 20  2  0
 14 21  2  0
 21 22  1  0
  4 23  1  0
 23 24  2  0
 24 25  1  0
 25 26  2  0
 26 27  1  0
 27 28  2  0
 28 29  1  0
 29 30  2  0
 23 31  1  0
 31  2  1  0
 22  4  1  0
 30 25  1  0
 11  6  1  0
 22 12  1  0
 20 15  1  0
M  END
>  <Binding energies>  (75) 
[-9.33]

>  <Ligand effiencies>  (75) 
[-0.2915625]

>  <Interactions>  (75) 
["V-A:TYR:539:CZ:4877, V-B:MET:535:CE:9807, V-A:PRO:540:CA:4883, V-B:TYR:539:CE2:9848, H-B:LYS:534:NZ:9795, V-B:TYR:539:CZ:9849, H-B:ASP:366:O:8181, V-A:TYR:539:CE1:4875, V-B:ARG:545:CZ:9898, H-A:TYR:539:OH:4878, V-B:TYR:539:CD2:9846, H-B:TYR:531:OH:9767, V-B:TYR:539:CD1:9845, V-B:TYR:539:CG:9844, V-B:TYR:539:CE1:9847, V-B:TYR:539:C:9839, V-B:ASP:366:CG:8185, V-B:PRO:540:CB:9857, V-B:PRO:540:CA:9855, V-B:ASP:366:CB:8184, V-B:ASP:366:CA:8182, V-B:PRO:540:N:9856, V-A:TYR:539:CD1:4873, V-A:TYR:539:C:4867, V-A:PRO:540:CD:4887, V-A:PRO:540:CB:4885, V-A:TYR:539:CD2:4874, H-A:TYR:539:N:4870, V-A:PRO:540:N:4884, V-A:TYR:539:CG:4872, V-B:ASP:366:C:8180, V-B:GLY:454:CA:9021, V-B:TYR:531:CE1:9764"]

$$$$
RR24_Rahimova_2017
     RDKit          3D

 43 49  0  0  0  0  0  0  0  0999 V2000
  123.9440  123.3100   58.4010 C   0  0  0  0  0  0  0  0  0  0  0  0
  125.4050  123.5750   58.0120 C   0  0  2  0  0  0  0  0  0  0  0  0
  125.8060  122.9270   56.6540 C   0  0  0  0  0  0  0  0  0  0  0  0
  125.4790  121.7730   56.3560 O   0  0  0  0  0  0  0  0  0  0  0  0
  126.5600  123.7600   55.8790 O   0  0  0  0  0  0  0  0  0  0  0  0
  127.5170  124.5550   56.4680 C   0  0  0  0  0  0  0  0  0  0  0  0
  128.8670  124.3000   56.2180 C   0  0  0  0  0  0  0  0  0  0  0  0
  129.8440  125.1030   56.8000 C   0  0  0  0  0  0  0  0  0  0  0  0
  129.4760  126.1680   57.6270 C   0  0  0  0  0  0  0  0  0  0  0  0
  130.5560  127.0370   58.2810 C   0  0  1  0  0  0  0  0  0  0  0  0
  130.0420  128.4630   58.5920 C   0  0  0  0  0  0  0  0  0  0  0  0
  130.1710  129.0360   59.8020 C   0  0  0  0  0  0  0  0  0  0  0  0
  130.7710  128.3920   60.8570 N   0  0  0  0  0  0  0  0  0  0  0  0
  131.2730  127.1190   60.7250 C   0  0  0  0  0  0  0  0  0  0  0  0
  131.8410  126.6290   61.8560 N   0  0  0  0  0  0  0  0  0  0  0  0
  132.3200  125.3580   61.9390 C   0  0  0  0  0  0  0  0  0  0  0  0
  132.5280  124.8630   63.0490 O   0  0  0  0  0  0  0  0  0  0  0  0
  132.3650  124.6910   60.7250 N   0  0  0  0  0  0  0  0  0  0  0  0
  132.9620  123.3390   60.7430 C   0  0  0  0  0  0  0  0  0  0  0  0
  131.8180  125.0930   59.5190 C   0  0  0  0  0  0  0  0  0  0  0  0
  131.8510  124.4210   58.4840 O   0  0  0  0  0  0  0  0  0  0  0  0
  131.2010  126.4240   59.5590 C   0  0  0  0  0  0  0  0  0  0  0  0
  129.6000  130.3720   59.8060 C   0  0  0  0  0  0  0  0  0  0  0  0
  129.4790  131.3520   60.7920 C   0  0  0  0  0  0  0  0  0  0  0  0
  128.8620  132.5650   60.4750 C   0  0  0  0  0  0  0  0  0  0  0  0
  128.3730  132.7910   59.1840 C   0  0  0  0  0  0  0  0  0  0  0  0
  128.4970  131.8050   58.2010 C   0  0  0  0  0  0  0  0  0  0  0  0
  129.1140  130.5940   58.5240 C   0  0  0  0  0  0  0  0  0  0  0  0
  129.3760  129.4000   57.6940 C   0  0  0  0  0  0  0  0  0  0  0  0
  129.1140  129.1920   56.5110 O   0  0  0  0  0  0  0  0  0  0  0  0
  128.1220  126.4320   57.8600 C   0  0  0  0  0  0  0  0  0  0  0  0
  127.1450  125.6310   57.2770 C   0  0  0  0  0  0  0  0  0  0  0  0
  126.3520  123.2230   59.1110 N   0  0  0  0  0  0  0  0  0  0  0  0
  127.5100  122.5460   58.8650 C   0  0  0  0  0  0  0  0  0  0  0  0
  127.9230  122.1410   57.7770 O   0  0  0  0  0  0  0  0  0  0  0  0
  128.1690  122.4000   60.1870 C   0  0  0  0  0  0  0  0  0  0  0  0
  129.3740  121.7940   60.5440 C   0  0  0  0  0  0  0  0  0  0  0  0
  129.7570  121.8080   61.8900 C   0  0  0  0  0  0  0  0  0  0  0  0
  128.9420  122.4210   62.8500 C   0  0  0  0  0  0  0  0  0  0  0  0
  127.7380  123.0240   62.4720 C   0  0  0  0  0  0  0  0  0  0  0  0
  127.3720  122.9990   61.1250 C   0  0  0  0  0  0  0  0  0  0  0  0
  126.1810  123.5450   60.4290 C   0  0  0  0  0  0  0  0  0  0  0  0
  125.2410  124.1610   60.9330 O   0  0  0  0  0  0  0  0  0  0  0  0
  2  1  1  1
  2  3  1  0
  3  4  2  0
  3  5  1  0
  5  6  1  0
  6  7  2  0
  7  8  1  0
  8  9  2  0
 10  9  1  1
 10 11  1  0
 11 12  2  0
 12 13  1  0
 13 14  1  0
 14 15  1  0
 15 16  1  0
 16 17  2  0
 16 18  1  0
 18 19  1  0
 18 20  1  0
 20 21  2  0
 20 22  1  0
 12 23  1  0
 23 24  2  0
 24 25  1  0
 25 26  2  0
 26 27  1  0
 27 28  2  0
 28 29  1  0
 29 30  2  0
  9 31  1  0
 31 32  2  0
  2 33  1  0
 33 34  1  0
 34 35  2  0
 34 36  1  0
 36 37  2  0
 37 38  1  0
 38 39  2  0
 39 40  1  0
 40 41  2  0
 41 42  1  0
 42 43  2  0
 32  6  1  0
 42 33  1  0
 22 10  1  0
 28 23  1  0
 41 36  1  0
 29 11  1  0
 22 14  2  0
M  END
>  <Binding energies>  (76) 
[-10.34]

>  <Ligand effiencies>  (76) 
[-0.22977777777777778]

>  <Interactions>  (76) 
["V-A:ALA:541:CB:4892, V-A:ASP:366:CG:3213, V-B:MET:535:CE:9807, V-A:PRO:540:CA:4883, V-B:TYR:539:CE2:9848, V-A:GLU:543:CD:4908, V-B:TYR:539:CZ:9849, V-B:TYR:539:CD2:9846, V-A:ARG:545:CZ:4926, H-B:TYR:531:OH:9767, V-A:TYR:484:CZ:4347, V-B:TYR:539:CE1:9847, H-B:TYR:539:OH:9850, V-B:TYR:539:C:9839, V-A:TYR:484:CE1:4345, H-B:TYR:539:N:9842, V-B:PRO:540:CB:9857, V-B:PRO:540:CA:9855, V-B:PRO:540:N:9856, V-A:TYR:539:CD1:4873, V-A:TYR:539:C:4867, V-B:LEU:363:CD1:8161, V-B:GLU:543:CD:9880, H-A:ASP:366:OD1:3214, H-A:GLU:543:OE1:4909, V-B:GLU:543:CG:9879, V-B:PRO:540:CG:9858, V-B:PRO:540:CD:9859, H-A:GLU:543:OE2:4910, V-B:ALA:541:CB:9864, H-A:TYR:484:OH:4348, H-B:ARG:545:NH2:9900, V-B:LEU:363:CA:8157, V-B:LEU:363:CB:8159, H-A:ARG:545:NH2:4928"]

$$$$
RR25_Rahimova_2017
     RDKit          3D

 39 44  0  0  0  0  0  0  0  0999 V2000
  132.9740  123.4900   60.8610 O   0  0  0  0  0  0  0  0  0  0  0  0
  131.7540  123.5420   60.6990 C   0  0  0  0  0  0  0  0  0  0  0  0
  131.0020  122.7050   61.4860 O   0  0  0  0  0  0  0  0  0  0  0  0
  129.6290  122.8430   61.5790 C   0  0  0  0  0  0  0  0  0  0  0  0
  129.0300  122.3760   62.7480 C   0  0  0  0  0  0  0  0  0  0  0  0
  127.6490  122.4760   62.9050 C   0  0  0  0  0  0  0  0  0  0  0  0
  126.8490  123.0370   61.8990 C   0  0  0  0  0  0  0  0  0  0  0  0
  125.3800  123.1490   62.0720 N   0  0  0  0  0  0  0  0  0  0  0  0
  124.8890  122.8260   63.1510 O   0  0  0  0  0  0  0  0  0  0  0  0
  124.7080  123.5610   61.1320 O   0  0  0  0  0  0  0  0  0  0  0  0
  127.4710  123.4900   60.7240 C   0  0  0  0  0  0  0  0  0  0  0  0
  128.8540  123.3900   60.5470 C   0  0  0  0  0  0  0  0  0  0  0  0
  129.5740  123.8740   59.3010 C   0  0  0  0  0  0  0  0  0  0  0  0
  130.9730  124.4320   59.6890 C   0  0  2  0  0  0  0  0  0  0  0  0
  131.7800  124.8470   58.4250 C   0  0  0  0  0  0  0  0  0  0  0  0
  132.7310  124.1190   58.1240 O   0  0  0  0  0  0  0  0  0  0  0  0
  131.3900  125.8800   57.6190 N   0  0  0  0  0  0  0  0  0  0  0  0
  130.4800  126.9520   58.0750 C   0  0  0  0  0  0  0  0  0  0  0  0
  129.5560  127.3570   56.9070 C   0  0  0  0  0  0  0  0  0  0  0  0
  130.3280  127.7340   55.7200 N   0  0  0  0  0  0  0  0  0  0  0  0
  129.4580  128.2460   54.6530 C   0  0  0  0  0  0  0  0  0  0  0  0
  129.2180  129.7760   54.7530 C   0  0  0  0  0  0  0  0  0  0  0  0
  128.3100  130.2270   55.8480 N   0  0  0  0  0  0  0  0  0  0  0  0
  128.8870  131.0550   56.7880 C   0  0  0  0  0  0  0  0  0  0  0  0
  130.0800  131.3800   56.7620 O   0  0  0  0  0  0  0  0  0  0  0  0
  127.9360  131.5570   57.8560 C   0  0  0  0  0  0  0  0  0  0  0  0
  128.4110  132.4260   58.8480 C   0  0  0  0  0  0  0  0  0  0  0  0
  127.5630  132.9130   59.8400 C   0  0  0  0  0  0  0  0  0  0  0  0
  126.2170  132.5520   59.8730 C   0  0  0  0  0  0  0  0  0  0  0  0
  125.6910  131.6770   58.8920 C   0  0  0  0  0  0  0  0  0  0  0  0
  124.3360  131.2720   58.8650 C   0  0  0  0  0  0  0  0  0  0  0  0
  123.8830  130.4090   57.8680 C   0  0  0  0  0  0  0  0  0  0  0  0
  124.7500  129.9320   56.8870 C   0  0  0  0  0  0  0  0  0  0  0  0
  126.1000  130.3060   56.8740 C   0  0  0  0  0  0  0  0  0  0  0  0
  126.5680  131.1840   57.8850 C   0  0  0  0  0  0  0  0  0  0  0  0
  127.0090  129.7720   55.7840 C   0  0  0  0  0  0  0  0  0  0  0  0
  126.6000  129.0040   54.9060 O   0  0  0  0  0  0  0  0  0  0  0  0
  131.1280  126.5950   55.2650 C   0  0  0  0  0  0  0  0  0  0  0  0
  132.1220  126.1240   56.3540 C   0  0  0  0  0  0  0  0  0  0  0  0
  1  2  2  0
  2  3  1  0
  3  4  1  0
  4  5  2  0
  5  6  1  0
  6  7  2  0
  7  8  1  0
  8  9  2  0
  8 10  1  0
  7 11  1  0
 11 12  2  0
 12 13  1  0
 13 14  1  0
 14 15  1  6
 15 16  2  0
 15 17  1  0
 17 18  1  0
 18 19  1  0
 19 20  1  0
 20 21  1  0
 21 22  1  0
 22 23  1  0
 23 24  1  0
 24 25  2  0
 24 26  1  0
 26 27  2  0
 27 28  1  0
 28 29  2  0
 29 30  1  0
 30 31  2  0
 31 32  1  0
 32 33  2  0
 33 34  1  0
 34 35  2  0
 34 36  1  0
 36 37  2  0
 20 38  1  0
 38 39  1  0
 14  2  1  0
 39 17  1  0
 12  4  1  0
 36 23  1  0
 35 26  1  0
 35 30  1  0
M  CHG  2   8   1  10  -1
M  END
>  <Binding energies>  (77) 
[-10.6]

>  <Ligand effiencies>  (77) 
[-0.2717948717948718]

>  <Interactions>  (77) 
["V-A:TYR:539:CZ:4877, V-B:MET:535:CE:9807, V-B:TYR:539:CE2:9848, V-A:ASP:366:CB:3212, H-B:LYS:534:NZ:9795, V-B:TYR:539:CZ:9849, H-A:TYR:531:OH:4795, V-A:TYR:539:CE1:4875, H-B:TYR:531:OH:9767, V-A:TYR:484:CZ:4347, H-B:TYR:539:OH:9850, V-A:TYR:484:CE1:4345, V-B:PRO:540:CB:9857, V-B:PRO:540:CA:9855, H-B:ALA:541:N:9863, V-B:ASP:366:CB:8184, V-B:ASP:366:CA:8182, V-A:TYR:539:CD1:4873, V-A:TYR:539:C:4867, V-B:GLU:543:CD:9880, V-B:PRO:540:C:9853, H-B:ASN:362:ND2:8151, V-B:GLU:543:CG:9879, V-B:ASP:366:C:8180, V-B:ALA:541:CB:9864, H-A:TYR:484:OH:4348, V-B:TYR:531:CE1:9764, H-B:ARG:545:NH2:9900, V-A:MET:535:CE:4835, V-B:ALA:541:CA:9862, V-A:TYR:531:CE1:4792, V-A:TYR:531:CZ:4794"]

$$$$
RR27_Rahimova_2017
     RDKit          3D

 39 44  0  0  0  0  0  0  0  0999 V2000
  128.3480  123.5460   60.7510 O   0  0  0  0  0  0  0  0  0  0  0  0
  127.9430  124.2280   59.8050 C   0  0  0  0  0  0  0  0  0  0  0  0
  128.5480  123.9700   58.3950 C   0  0  0  0  0  0  0  0  0  0  0  0
  129.4160  125.1360   57.8860 C   0  0  0  0  0  0  0  0  0  0  0  0
  130.6880  125.3990   58.4170 C   0  0  0  0  0  0  0  0  0  0  0  0
  131.4460  126.4610   57.9320 C   0  0  0  0  0  0  0  0  0  0  0  0
  130.9380  127.2640   56.9160 C   0  0  0  0  0  0  0  0  0  0  0  0
  129.6760  127.0170   56.3810 C   0  0  0  0  0  0  0  0  0  0  0  0
  128.9180  125.9560   56.8660 C   0  0  0  0  0  0  0  0  0  0  0  0
  127.4850  123.4690   57.3990 C   0  0  0  0  0  0  0  0  0  0  0  0
  126.1660  123.2130   57.7960 C   0  0  0  0  0  0  0  0  0  0  0  0
  125.2320  122.7500   56.8720 C   0  0  0  0  0  0  0  0  0  0  0  0
  125.6150  122.5380   55.5500 C   0  0  0  0  0  0  0  0  0  0  0  0
  126.9250  122.7780   55.1440 C   0  0  0  0  0  0  0  0  0  0  0  0
  127.8570  123.2390   56.0680 C   0  0  0  0  0  0  0  0  0  0  0  0
  126.8870  125.0810   59.9400 N   0  0  0  0  0  0  0  0  0  0  0  0
  126.5280  126.0920   58.9340 C   0  0  0  0  0  0  0  0  0  0  0  0
  127.3500  127.3590   59.2590 C   0  0  0  0  0  0  0  0  0  0  0  0
  127.1450  127.8510   60.7270 C   0  0  0  0  0  0  0  0  0  0  0  0
  128.0270  129.0450   61.1380 C   0  0  0  0  0  0  0  0  0  0  0  0
  127.6000  129.7750   62.2100 N   0  0  0  0  0  0  0  0  0  0  0  0
  128.3580  130.8250   62.6310 C   0  0  0  0  0  0  0  0  0  0  0  0
  128.0380  131.6270   63.6940 O   0  0  0  0  0  0  0  0  0  0  0  0
  129.5510  131.1160   61.9410 C   0  0  0  0  0  0  0  0  0  0  0  0
  130.5200  132.0640   62.0960 N   0  0  0  0  0  0  0  0  0  0  0  0
  131.4590  131.8580   61.1030 N   0  0  0  0  0  0  0  0  0  0  0  0
  131.0790  130.7980   60.3570 N   0  0  0  0  0  0  0  0  0  0  0  0
  131.8820  130.3700   59.2140 C   0  0  0  0  0  0  0  0  0  0  0  0
  131.5670  131.1230   57.9280 C   0  0  0  0  0  0  0  0  0  0  0  0
  132.6040  131.5890   57.1130 C   0  0  0  0  0  0  0  0  0  0  0  0
  132.3150  132.2690   55.9290 C   0  0  0  0  0  0  0  0  0  0  0  0
  130.9890  132.4830   55.5520 C   0  0  0  0  0  0  0  0  0  0  0  0
  129.9500  132.0130   56.3560 C   0  0  0  0  0  0  0  0  0  0  0  0
  128.3080  132.2530   55.8780 Cl  0  0  0  0  0  0  0  0  0  0  0  0
  130.2380  131.3400   57.5440 C   0  0  0  0  0  0  0  0  0  0  0  0
  129.8810  130.2970   60.8400 C   0  0  0  0  0  0  0  0  0  0  0  0
  129.1530  129.2670   60.4020 N   0  0  0  0  0  0  0  0  0  0  0  0
  127.1860  126.6720   61.7480 C   0  0  0  0  0  0  0  0  0  0  0  0
  126.3850  125.4310   61.2780 C   0  0  0  0  0  0  0  0  0  0  0  0
  1  2  2  0
  2  3  1  0
  3  4  1  0
  4  5  2  0
  5  6  1  0
  6  7  2  0
  7  8  1  0
  8  9  2  0
  3 10  1  0
 10 11  2  0
 11 12  1  0
 12 13  2  0
 13 14  1  0
 14 15  2  0
  2 16  1  0
 16 17  1  0
 17 18  1  0
 18 19  1  0
 19 20  1  0
 20 21  2  0
 21 22  1  0
 22 23  1  0
 22 24  2  0
 24 25  1  0
 25 26  2  0
 26 27  1  0
 27 28  1  0
 28 29  1  0
 29 30  2  0
 30 31  1  0
 31 32  2  0
 32 33  1  0
 33 34  1  0
 33 35  2  0
 27 36  1  0
 36 37  2  0
 19 38  1  0
 38 39  1  0
  9  4  1  0
 15 10  1  0
 39 16  1  0
 37 20  1  0
 36 24  1  0
 35 29  1  0
M  END
>  <Binding energies>  (78) 
[-10.58]

>  <Ligand effiencies>  (78) 
[-0.2645]

>  <Interactions>  (78) 
["V-A:TYR:539:CZ:4877, V-A:ASP:366:CG:3213, V-B:MET:535:CE:9807, V-A:PRO:540:CA:4883, V-B:TYR:539:CE2:9848, V-A:ASP:366:CB:3212, V-A:GLU:543:CD:4908, V-B:TYR:539:CZ:9849, H-A:ALA:541:N:4891, H-B:TYR:484:OH:9320, V-A:GLU:543:CG:4907, V-A:TYR:539:CE1:4875, V-B:TYR:539:CD1:9845, V-B:TYR:539:CE1:9847, V-B:ASP:366:CG:8185, V-B:PRO:540:CB:9857, V-B:PRO:540:CA:9855, V-B:PRO:540:N:9856, V-A:TYR:539:CD1:4873, V-B:LEU:363:CD1:8161, V-B:GLU:543:CD:9880, V-B:ILE:538:CA:9832, V-B:ILE:538:CD1:9837, V-A:TYR:539:CE2:4876, V-A:PRO:540:CD:4887, V-A:PRO:540:CB:4885, V-A:LEU:363:CD1:3189, V-A:TYR:539:CD2:4874, V-A:ILE:538:CB:4862, V-A:PRO:540:N:4884, V-A:TYR:539:CG:4872, V-B:PRO:540:CD:9859, V-B:ILE:538:CG2:9835, V-B:ILE:538:CB:9834"]

$$$$
RR28_Rahimova_2017
     RDKit          3D

 46 49  0  0  0  0  0  0  0  0999 V2000
  132.7290  131.5380   61.7860 C   0  0  0  0  0  0  0  0  0  0  0  0
  132.2520  130.9820   60.4490 C   0  0  0  0  0  0  0  0  0  0  0  0
  132.8150  131.3280   59.4120 O   0  0  0  0  0  0  0  0  0  0  0  0
  131.2130  130.1240   60.4950 N   0  0  0  0  0  0  0  0  0  0  0  0
  130.5400  129.4400   59.3680 C   0  0  0  0  0  0  0  0  0  0  0  0
  131.1230  128.0020   59.2530 C   0  0  0  0  0  0  0  0  0  0  0  0
  131.2500  127.2160   60.4090 C   0  0  0  0  0  0  0  0  0  0  0  0
  131.7710  125.9280   60.3450 C   0  0  0  0  0  0  0  0  0  0  0  0
  132.1790  125.3940   59.1210 C   0  0  0  0  0  0  0  0  0  0  0  0
  132.7530  123.9790   59.0710 C   0  0  0  0  0  0  0  0  0  0  0  0
  133.1230  123.6260   57.8380 F   0  0  0  0  0  0  0  0  0  0  0  0
  133.8210  123.8840   59.8640 F   0  0  0  0  0  0  0  0  0  0  0  0
  131.8280  123.1160   59.4910 F   0  0  0  0  0  0  0  0  0  0  0  0
  132.0600  126.1670   57.9630 C   0  0  0  0  0  0  0  0  0  0  0  0
  131.5380  127.4560   58.0290 C   0  0  0  0  0  0  0  0  0  0  0  0
  130.6770  130.2840   58.0510 C   0  0  0  0  0  0  0  0  0  0  0  0
  129.9300  131.6400   58.1110 C   0  0  0  0  0  0  0  0  0  0  0  0
  128.5150  131.3260   58.3710 N   0  0  0  0  0  0  0  0  0  0  0  0
  127.6390  131.1930   57.3380 C   0  0  0  0  0  0  0  0  0  0  0  0
  127.9430  131.4900   56.1800 O   0  0  0  0  0  0  0  0  0  0  0  0
  126.1710  130.8140   57.6460 C   0  0  0  0  0  0  0  0  0  0  0  0
  125.6670  129.4840   57.0200 C   0  0  0  0  0  0  0  0  0  0  0  0
  126.7790  128.5080   56.5690 C   0  0  0  0  0  0  0  0  0  0  0  0
  127.1960  128.6020   55.4110 O   0  0  0  0  0  0  0  0  0  0  0  0
  127.3590  127.6770   57.4800 N   0  0  0  0  0  0  0  0  0  0  0  0
  126.7220  127.2970   58.7470 C   0  0  0  0  0  0  0  0  0  0  0  0
  125.8100  126.0900   58.4370 C   0  0  0  0  0  0  0  0  0  0  0  0
  126.5410  124.8660   57.7820 C   0  0  0  0  0  0  0  0  0  0  0  0
  125.5360  123.9670   57.1780 N   0  0  0  0  0  0  0  0  0  0  0  0
  125.7180  122.7250   56.6870 C   0  0  0  0  0  0  0  0  0  0  0  0
  124.4860  122.0410   56.1030 C   0  0  0  0  0  0  0  0  0  0  0  0
  126.7990  122.1360   56.6860 O   0  0  0  0  0  0  0  0  0  0  0  0
  127.2510  124.0760   58.9290 C   0  0  0  0  0  0  0  0  0  0  0  0
  126.6960  123.9340   60.2120 C   0  0  0  0  0  0  0  0  0  0  0  0
  127.3610  123.2210   61.2060 C   0  0  0  0  0  0  0  0  0  0  0  0
  128.6000  122.6330   60.9440 C   0  0  0  0  0  0  0  0  0  0  0  0
  129.3400  121.8440   62.0240 C   0  0  0  0  0  0  0  0  0  0  0  0
  128.8690  122.1480   63.2340 F   0  0  0  0  0  0  0  0  0  0  0  0
  129.1610  120.5410   61.8120 F   0  0  0  0  0  0  0  0  0  0  0  0
  130.6510  122.0930   62.0190 F   0  0  0  0  0  0  0  0  0  0  0  0
  129.1680  122.7720   59.6770 C   0  0  0  0  0  0  0  0  0  0  0  0
  128.5010  123.4850   58.6860 C   0  0  0  0  0  0  0  0  0  0  0  0
  127.5410  125.3940   56.6810 C   0  0  0  0  0  0  0  0  0  0  0  0
  128.3400  126.6750   57.0440 C   0  0  0  0  0  0  0  0  0  0  0  0
  128.2870  130.7120   59.6870 C   0  0  0  0  0  0  0  0  0  0  0  0
  129.0110  129.3410   59.6810 C   0  0  0  0  0  0  0  0  0  0  0  0
  1  2  1  0
  2  3  2  0
  2  4  1  0
  4  5  1  0
  5  6  1  0
  6  7  2  0
  7  8  1  0
  8  9  2  0
  9 10  1  0
 10 11  1  0
 10 12  1  0
 10 13  1  0
  9 14  1  0
 14 15  2  0
  5 16  1  0
 16 17  1  0
 17 18  1  0
 18 19  1  0
 19 20  2  0
 19 21  1  0
 21 22  1  0
 22 23  1  0
 23 24  2  0
 23 25  1  0
 25 26  1  0
 26 27  1  0
 27 28  1  0
 28 29  1  0
 29 30  1  0
 30 31  1  0
 30 32  2  0
 28 33  1  0
 33 34  2  0
 34 35  1  0
 35 36  2  0
 36 37  1  0
 37 38  1  0
 37 39  1  0
 37 40  1  0
 36 41  1  0
 41 42  2  0
 28 43  1  0
 43 44  1  0
 18 45  1  0
 45 46  1  0
 46  5  1  0
 15  6  1  0
 44 25  1  0
 42 33  1  0
M  END
>  <Binding energies>  (79) 
[-10.1]

>  <Ligand effiencies>  (79) 
[-0.21041666666666667]

>  <Interactions>  (79) 
["V-A:TYR:539:CZ:4877, V-A:ILE:369:CB:3236, V-A:ASP:366:CG:3213, V-B:MET:535:CE:9807, V-A:PRO:540:CA:4883, V-B:TYR:539:CE2:9848, V-A:ASP:366:CB:3212, H-B:LYS:534:NZ:9795, V-A:GLU:543:CD:4908, V-B:TYR:539:CZ:9849, V-A:GLU:543:CG:4907, V-A:TYR:539:CE1:4875, V-A:ILE:369:CG2:3237, V-B:TYR:539:CD2:9846, V-A:LEU:475:CD2:4259, H-B:TYR:531:OH:9767, H-B:ASP:366:OD2:8187, V-A:TYR:484:CZ:4347, V-A:TYR:484:CE1:4345, V-B:ASP:366:CG:8185, H-B:TYR:539:N:9842, V-B:PRO:540:CB:9857, V-B:PRO:540:CA:9855, V-B:ASP:366:CB:8184, V-B:PRO:540:N:9856, V-A:ILE:369:CD1:3239, V-B:LEU:363:CD1:8161, V-B:TYR:531:CZ:9766, V-B:TYR:531:CE2:9765, V-B:GLU:543:CD:9880, V-B:ILE:538:CA:9832, V-B:ILE:538:CD1:9837, H-A:ASP:366:OD1:3214, V-A:PRO:540:CB:4885, V-B:PRO:540:C:9853, H-A:GLU:543:OE1:4909, V-B:GLU:543:CG:9879, V-B:PRO:540:CG:9858, V-B:PRO:540:CD:9859, V-B:ALA:541:CB:9864, V-B:ILE:538:CG2:9835, V-B:TYR:531:CE1:9764, V-A:ASN:362:CB:3176, V-B:ILE:538:CB:9834, V-B:ALA:541:CA:9862, V-A:ALA:541:C:4888"]

$$$$
RR29_Rahimova_2017
     RDKit          3D

 18 19  0  0  0  0  0  0  0  0999 V2000
  129.0580  121.3390   61.7970 C   0  0  0  0  0  0  0  0  0  0  0  0
  128.5700  122.7250   62.1950 C   0  0  0  0  0  0  0  0  0  0  0  0
  127.0430  122.8950   62.0340 C   0  0  0  0  0  0  0  0  0  0  0  0
  126.6970  124.0030   61.0170 C   0  0  0  0  0  0  0  0  0  0  0  0
  126.6890  123.4900   59.5860 C   0  0  0  0  0  0  0  0  0  0  0  0
  127.8690  122.9660   59.0190 C   0  0  0  0  0  0  0  0  0  0  0  0
  127.8830  122.4870   57.7020 C   0  0  0  0  0  0  0  0  0  0  0  0
  126.6990  122.5600   56.9780 C   0  0  0  0  0  0  0  0  0  0  0  0
  125.5530  123.0690   57.5210 C   0  0  0  0  0  0  0  0  0  0  0  0
  125.5060  123.5420   58.8280 C   0  0  0  0  0  0  0  0  0  0  0  0
  124.5480  122.9870   56.6090 O   0  0  0  0  0  0  0  0  0  0  0  0
  125.1600  122.6070   55.4050 C   0  0  0  0  0  0  0  0  0  0  0  0
  126.4480  122.1420   55.7090 O   0  0  0  0  0  0  0  0  0  0  0  0
  129.4300  123.5860   62.5990 N   0  0  0  0  0  0  0  0  0  0  0  0
  129.0030  124.8660   62.8780 N   0  0  0  0  0  0  0  0  0  0  0  0
  129.7930  125.8290   63.3800 C   0  0  0  0  0  0  0  0  0  0  0  0
  131.0900  125.6840   63.6550 N   0  0  0  0  0  0  0  0  0  0  0  0
  129.2470  127.0120   63.6190 N   0  0  0  0  0  0  0  0  0  0  0  0
  1  2  1  0
  2  3  1  0
  3  4  1  0
  4  5  1  0
  5  6  2  0
  6  7  1  0
  7  8  2  0
  8  9  1  0
  9 10  2  0
  9 11  1  0
 11 12  1  0
 12 13  1  0
  2 14  2  0
 14 15  1  0
 15 16  1  0
 16 17  1  0
 16 18  2  0
 10  5  1  0
 13  8  1  0
M  CHG  1  18   1
M  END
>  <Binding energies>  (80) 
[-8.35]

>  <Ligand effiencies>  (80) 
[-0.3630434782608695]

>  <Interactions>  (80) 
["V-B:TYR:539:CE2:9848, V-A:GLU:543:CD:4908, V-B:TYR:539:CZ:9849, V-B:TYR:539:CD2:9846, H-B:TYR:531:OH:9767, V-B:TYR:539:CD1:9845, V-B:TYR:539:CG:9844, V-B:TYR:539:C:9839, H-B:TYR:539:N:9842, V-B:PRO:540:CB:9857, V-B:PRO:540:CA:9855, V-B:PRO:540:N:9856, V-B:LEU:363:CD1:8161, H-B:GLU:543:OE2:9882, V-B:TYR:531:CE2:9765, V-B:GLU:543:CD:9880, H-B:GLU:543:OE1:9881, V-B:ILE:538:CA:9832, V-B:ILE:538:CD1:9837, V-B:PRO:540:C:9853, H-A:GLU:543:OE1:4909, V-B:GLU:543:CG:9879, V-B:TYR:539:CA:9841, V-B:PRO:540:CD:9859, H-A:GLU:543:OE2:4910, V-B:ALA:541:CB:9864, V-B:ILE:538:CG2:9835, H-A:TYR:484:OH:4348, V-B:ILE:538:CB:9834, V-B:ILE:538:CG1:9836"]

$$$$
RR30_Rahimova_2017
     RDKit          3D

 18 19  0  0  0  0  0  0  0  0999 V2000
  125.2520  127.7850   74.0200 C   0  0  0  0  0  0  0  0  0  0  0  0
  124.5130  128.3050   75.2620 C   0  0  0  0  0  0  0  0  0  0  0  0
  124.7940  129.7680   75.5250 C   0  0  0  0  0  0  0  0  0  0  0  0
  123.9890  130.6700   76.0300 N   0  0  0  0  0  0  0  0  0  0  0  0
  124.7160  131.8570   76.0590 N   0  0  0  0  0  0  0  0  0  0  0  0
  125.8930  131.5730   75.5610 C   0  0  0  0  0  0  0  0  0  0  0  0
  127.2620  132.6640   75.3470 S   0  0  0  0  0  0  0  0  0  0  0  0
  127.1200  133.0000   73.5630 C   0  0  0  0  0  0  0  0  0  0  0  0
  128.4800  132.9880   72.8620 C   0  0  0  0  0  0  0  0  0  0  0  0
  128.9920  131.9080   72.5580 O   0  0  0  0  0  0  0  0  0  0  0  0
  129.0480  134.1970   72.6530 N   0  0  0  0  0  0  0  0  0  0  0  0
  130.2710  134.4390   72.0440 C   0  0  0  0  0  0  0  0  0  0  0  0
  130.5000  134.8660   70.8220 N   0  0  0  0  0  0  0  0  0  0  0  0
  131.8570  134.9930   70.5540 N   0  0  0  0  0  0  0  0  0  0  0  0
  132.6220  134.6630   71.5690 C   0  0  0  0  0  0  0  0  0  0  0  0
  134.1320  134.7140   71.5200 C   0  0  0  0  0  0  0  0  0  0  0  0
  131.7130  134.1610   72.9690 S   0  0  0  0  0  0  0  0  0  0  0  0
  126.0140  130.2680   75.2060 O   0  0  0  0  0  0  0  0  0  0  0  0
  1  2  1  0
  2  3  1  0
  3  4  2  0
  4  5  1  0
  5  6  2  0
  6  7  1  0
  7  8  1  0
  8  9  1  0
  9 10  2  0
  9 11  1  0
 11 12  1  0
 12 13  2  0
 13 14  1  0
 14 15  2  0
 15 16  1  0
 15 17  1  0
  6 18  1  0
 18  3  1  0
 17 12  1  0
M  END
>  <Binding energies>  (81) 
[-7.31]

>  <Ligand effiencies>  (81) 
[-0.38473684210526315]

>  <Interactions>  (81) 
["V-B:VAL:458:CG2:9059, V-A:GLY:544:CA:4914, V-B:HIS:456:C:9033, V-B:ASP:473:CB:9211, V-B:HIS:456:CB:9037, V-B:TYR:484:CA:9311, V-B:TYR:484:CB:9313, V-A:VAL:542:CG1:4899, V-B:ASP:473:CG:9212, V-B:TYR:484:CG:9314, H-A:LYS:547:NZ:4951, V-A:LYS:547:CE:4950, V-B:VAL:457:C:9045, V-B:HIS:456:CG:9038, V-B:HIS:456:CD2:9040, V-B:VAL:457:CA:9047, V-B:TYR:484:C:9309, H-B:TYR:484:N:9312, H-B:TYR:484:O:9310, H-A:GLY:544:N:4915, H-B:VAL:457:N:9048"]

$$$$
RR31_Rahimova_2017
     RDKit          3D

 18 19  0  0  0  0  0  0  0  0999 V2000
  130.1850  115.3740   59.7950 C   0  0  0  0  0  0  0  0  0  0  0  0
  130.5040  116.8390   60.0600 C   0  0  0  0  0  0  0  0  0  0  0  0
  129.7540  117.5390   61.0070 C   0  0  0  0  0  0  0  0  0  0  0  0
  130.0230  118.8790   61.2750 C   0  0  0  0  0  0  0  0  0  0  0  0
  131.0560  119.5590   60.6090 C   0  0  0  0  0  0  0  0  0  0  0  0
  131.3310  120.9060   60.8590 N   0  0  0  0  0  0  0  0  0  0  0  0
  130.4690  121.7320   61.7260 C   0  0  0  0  0  0  0  0  0  0  0  0
  130.6820  123.2550   61.5590 C   0  0  0  0  0  0  0  0  0  0  0  0
  132.0850  123.6150   61.7770 N   0  0  0  0  0  0  0  0  0  0  0  0
  132.3120  125.0590   61.6610 C   0  0  0  0  0  0  0  0  0  0  0  0
  132.0890  125.8130   62.9870 C   0  0  0  0  0  0  0  0  0  0  0  0
  130.6050  125.8730   63.3810 C   0  0  0  0  0  0  0  0  0  0  0  0
  130.4570  125.6890   64.8960 N   0  0  0  0  0  0  0  0  0  0  0  0
  132.8790  122.9090   60.7720 C   0  0  0  0  0  0  0  0  0  0  0  0
  132.7280  121.3790   60.9290 C   0  0  0  0  0  0  0  0  0  0  0  0
  131.7960  118.8470   59.6540 C   0  0  0  0  0  0  0  0  0  0  0  0
  131.5350  117.5000   59.3750 C   0  0  0  0  0  0  0  0  0  0  0  0
  132.3730  116.7840   58.3230 C   0  0  0  0  0  0  0  0  0  0  0  0
  1  2  1  0
  2  3  2  0
  3  4  1  0
  4  5  2  0
  5  6  1  0
  6  7  1  0
  7  8  1  0
  8  9  1  0
  9 10  1  0
 10 11  1  0
 11 12  1  0
 12 13  1  0
  9 14  1  0
 14 15  1  0
  5 16  1  0
 16 17  2  0
 17 18  1  0
 17  2  1  0
 15  6  1  0
M  CHG  1  13   1
M  END
>  <Binding energies>  (82) 
[-7.76]

>  <Ligand effiencies>  (82) 
[-0.36952380952380953]

>  <Interactions>  (82) 
["V-B:TYR:539:CE2:9848, V-A:GLU:543:CD:4908, V-A:ILE:369:CG2:3237, V-B:TYR:539:CD2:9846, V-A:ARG:545:CZ:4926, V-A:LEU:475:CD2:4259, V-B:TYR:539:CG:9844, V-A:TYR:484:CZ:4347, V-B:TYR:539:C:9839, H-B:GLU:543:OE2:9882, V-B:GLU:543:CD:9880, H-B:GLU:543:OE1:9881, H-A:GLU:543:OE1:4909, H-A:GLU:543:OE2:4910, V-B:TYR:539:CB:9843, V-A:LEU:475:CD1:4258, V-B:ALA:541:CB:9864, H-A:TYR:484:OH:4348, V-A:SER:385:CB:3409, V-A:TYR:484:CE2:4346, V-B:VAL:344:CG1:7973, V-A:LEU:373:CD1:3280, V-A:PRO:482:CB:4326, V-A:LEU:475:CG:4257, V-A:HIS:383:CE1:3394, V-A:PRO:482:CG:4327, V-A:LEU:373:CD2:3281"]

$$$$
RR32_Rahimova_2017
     RDKit          3D

 18 20  0  0  0  0  0  0  0  0999 V2000
  125.3630  123.8350   60.9870 C   0  0  0  0  0  0  0  0  0  0  0  0
  126.3840  123.4330   59.9280 C   0  0  0  0  0  0  0  0  0  0  0  0
  127.7060  123.2330   60.3290 C   0  0  0  0  0  0  0  0  0  0  0  0
  128.6640  122.8620   59.3900 C   0  0  0  0  0  0  0  0  0  0  0  0
  129.9740  122.6640   59.7910 N   0  0  0  0  0  0  0  0  0  0  0  0
  130.7380  123.8520   60.2140 C   0  0  0  0  0  0  0  0  0  0  0  0
  132.2350  123.5570   60.4680 C   0  0  0  0  0  0  0  0  0  0  0  0
  132.3800  122.5210   61.4900 N   0  0  0  0  0  0  0  0  0  0  0  0
  133.7920  122.2650   61.7530 C   0  0  0  0  0  0  0  0  0  0  0  0
  131.7280  121.3090   60.9990 C   0  0  0  0  0  0  0  0  0  0  0  0
  130.2240  121.5710   60.7500 C   0  0  0  0  0  0  0  0  0  0  0  0
  128.3720  122.6850   58.0760 N   0  0  0  0  0  0  0  0  0  0  0  0
  127.0930  122.8760   57.6540 C   0  0  0  0  0  0  0  0  0  0  0  0
  126.8170  122.6870   56.2780 C   0  0  0  0  0  0  0  0  0  0  0  0
  125.5280  122.8690   55.7900 C   0  0  0  0  0  0  0  0  0  0  0  0
  124.4960  123.2360   56.6450 C   0  0  0  0  0  0  0  0  0  0  0  0
  124.7330  123.4300   58.0030 C   0  0  0  0  0  0  0  0  0  0  0  0
  126.0390  123.2560   58.5470 C   0  0  0  0  0  0  0  0  0  0  0  0
  1  2  1  0
  2  3  2  0
  3  4  1  0
  4  5  1  0
  5  6  1  0
  6  7  1  0
  7  8  1  0
  8  9  1  0
  8 10  1  0
 10 11  1  0
  4 12  2  0
 12 13  1  0
 13 14  2  0
 14 15  1  0
 15 16  2  0
 16 17  1  0
 17 18  2  0
 18  2  1  0
 11  5  1  0
 18 13  1  0
M  END
>  <Binding energies>  (83) 
[-6.66]

>  <Ligand effiencies>  (83) 
[-0.37]

>  <Interactions>  (83) 
["V-B:TYR:539:CE2:9848, V-B:TYR:539:CD2:9846, V-A:LEU:475:CD2:4259, V-B:TYR:539:C:9839, V-B:PRO:540:CB:9857, V-B:PRO:540:CA:9855, V-B:PRO:540:N:9856, V-A:ILE:369:CD1:3239, V-B:LEU:363:CD1:8161, V-B:TYR:531:CZ:9766, V-B:TYR:531:CE2:9765, V-B:ILE:538:CA:9832, V-B:ILE:538:CD1:9837, H-A:TYR:484:OH:4348, V-A:GLY:454:CA:4049"]

$$$$
RR5_Rahimova_2017
     RDKit          3D

 45 50  0  0  0  0  0  0  0  0999 V2000
  127.6610  127.2250   59.0100 O   0  0  0  0  0  0  0  0  0  0  0  0
  127.6060  126.5760   60.0530 C   0  0  0  0  0  0  0  0  0  0  0  0
  127.0880  127.2440   61.3410 C   0  0  0  0  0  0  0  0  0  0  0  0
  128.2060  127.5220   62.4090 C   0  0  2  0  0  0  0  0  0  0  0  0
  128.5760  128.9420   62.5680 N   0  0  0  0  0  0  0  0  0  0  0  0
  127.8440  129.7990   63.3780 C   0  0  0  0  0  0  0  0  0  0  0  0
  126.8710  129.5020   64.0750 O   0  0  0  0  0  0  0  0  0  0  0  0
  128.3660  131.0330   63.2700 O   0  0  0  0  0  0  0  0  0  0  0  0
  127.5370  132.1770   63.0860 C   0  0  0  0  0  0  0  0  0  0  0  0
  127.2450  132.4080   61.5870 C   0  0  0  0  0  0  0  0  0  0  0  0
  125.9570  131.7600   61.1110 C   0  0  0  0  0  0  0  0  0  0  0  0
  125.5690  130.4170   61.1520 C   0  0  0  0  0  0  0  0  0  0  0  0
  124.3130  130.0420   60.6720 C   0  0  0  0  0  0  0  0  0  0  0  0
  123.4460  131.0040   60.1510 C   0  0  0  0  0  0  0  0  0  0  0  0
  123.8320  132.3450   60.1070 C   0  0  0  0  0  0  0  0  0  0  0  0
  125.0890  132.7170   60.5870 C   0  0  0  0  0  0  0  0  0  0  0  0
  125.7480  134.0310   60.6540 C   0  0  0  0  0  0  0  0  0  0  0  0
  125.3180  135.2980   60.2520 C   0  0  0  0  0  0  0  0  0  0  0  0
  126.1630  136.3960   60.4110 C   0  0  0  0  0  0  0  0  0  0  0  0
  127.4310  136.2300   60.9730 C   0  0  0  0  0  0  0  0  0  0  0  0
  127.8550  134.9640   61.3770 C   0  0  0  0  0  0  0  0  0  0  0  0
  127.0110  133.8620   61.2220 C   0  0  0  0  0  0  0  0  0  0  0  0
  129.4720  126.6820   62.1110 C   0  0  0  0  0  0  0  0  0  0  0  0
  129.6020  125.5050   62.3830 O   0  0  0  0  0  0  0  0  0  0  0  0
  130.4020  127.4610   61.4840 O   0  0  0  0  0  0  0  0  0  0  0  0
  127.9420  125.2710   60.1680 N   0  0  0  0  0  0  0  0  0  0  0  0
  128.4700  124.2580   59.2060 C   0  0  0  0  0  0  0  0  0  0  0  0
  127.1760  123.8340   58.4340 C   0  0  0  0  0  0  0  0  0  0  0  0
  127.2250  122.9200   57.3680 C   0  0  0  0  0  0  0  0  0  0  0  0
  126.0670  122.5490   56.6900 C   0  0  0  0  0  0  0  0  0  0  0  0
  124.8420  123.0930   57.0590 C   0  0  0  0  0  0  0  0  0  0  0  0
  124.7640  123.9990   58.1110 C   0  0  0  0  0  0  0  0  0  0  0  0
  125.9200  124.3610   58.7950 C   0  0  0  0  0  0  0  0  0  0  0  0
  129.5090  124.9830   58.2870 C   0  0  0  0  0  0  0  0  0  0  0  0
  129.3150  125.0970   56.9010 C   0  0  0  0  0  0  0  0  0  0  0  0
  130.2620  125.7300   56.0990 C   0  0  0  0  0  0  0  0  0  0  0  0
  131.4160  126.2550   56.6730 C   0  0  0  0  0  0  0  0  0  0  0  0
  131.6280  126.1580   58.0440 C   0  0  0  0  0  0  0  0  0  0  0  0
  130.6770  125.5330   58.8440 C   0  0  0  0  0  0  0  0  0  0  0  0
  129.0660  123.1010   60.0780 C   0  0  0  0  0  0  0  0  0  0  0  0
  130.4260  122.7550   59.9900 C   0  0  0  0  0  0  0  0  0  0  0  0
  130.9600  121.7220   60.7560 C   0  0  0  0  0  0  0  0  0  0  0  0
  130.1410  121.0190   61.6310 C   0  0  0  0  0  0  0  0  0  0  0  0
  128.7950  121.3460   61.7510 C   0  0  0  0  0  0  0  0  0  0  0  0
  128.2660  122.3800   60.9830 C   0  0  0  0  0  0  0  0  0  0  0  0
  1  2  2  0
  2  3  1  0
  4  3  1  6
  4  5  1  0
  5  6  1  0
  6  7  2  0
  6  8  1  0
  8  9  1  0
  9 10  1  0
 10 11  1  0
 11 12  2  0
 12 13  1  0
 13 14  2  0
 14 15  1  0
 15 16  2  0
 16 17  1  0
 17 18  2  0
 18 19  1  0
 19 20  2  0
 20 21  1  0
 21 22  2  0
  4 23  1  0
 23 24  2  0
 23 25  1  0
  2 26  1  0
 26 27  1  0
 27 28  1  0
 28 29  2  0
 29 30  1  0
 30 31  2  0
 31 32  1  0
 32 33  2  0
 27 34  1  0
 34 35  2  0
 35 36  1  0
 36 37  2  0
 37 38  1  0
 38 39  2  0
 27 40  1  0
 40 41  2  0
 41 42  1  0
 42 43  2  0
 43 44  1  0
 44 45  2  0
 22 10  1  0
 33 28  1  0
 39 34  1  0
 45 40  1  0
 16 11  1  0
 22 17  1  0
M  END
>  <Binding energies>  (84) 
[-10.35]

>  <Ligand effiencies>  (84) 
[-0.21562499999999998]

>  <Interactions>  (84) 
["V-A:ALA:541:CB:4892, V-A:ASP:366:CG:3213, V-B:MET:535:CE:9807, V-B:ILE:369:CG2:8209, V-B:LEU:475:CD2:9231, V-B:TYR:539:CE2:9848, V-A:ASP:366:CB:3212, V-A:GLU:543:CD:4908, V-B:TYR:539:CZ:9849, V-B:ILE:369:CD1:8211, H-B:TYR:484:OH:9320, V-A:GLU:543:CG:4907, V-A:TYR:539:CE1:4875, V-B:TYR:539:CD2:9846, V-A:LEU:475:CD2:4259, V-B:TYR:539:C:9839, V-B:ASP:366:CG:8185, V-B:PRO:540:CB:9857, V-B:PRO:540:CA:9855, V-B:ASP:366:CB:8184, V-B:ASP:366:CA:8182, V-B:PRO:540:N:9856, V-A:TYR:539:CD1:4873, V-B:LEU:363:CD1:8161, V-B:TYR:531:CE2:9765, V-B:GLU:543:CD:9880, H-B:GLU:543:OE1:9881, H-A:ASP:366:OD1:3214, V-B:PRO:540:C:9853, H-A:GLU:543:OE1:4909, V-B:PRO:540:CD:9859, H-A:GLU:543:OE2:4910, V-B:ILE:369:CB:8208, V-B:ALA:541:CB:9864, V-A:ALA:541:CA:4890, H-A:ARG:545:NH2:4928, V-B:PRO:482:CB:9298, V-B:PRO:482:CG:9299, V-B:ALA:541:CA:9862"]

$$$$
