1a_Ghoteimi_2023
     RDKit          3D

 40 43  0  0  0  0  0  0  0  0999 V2000
  133.4840  131.0940   58.4770 C   0  0  0  0  0  0  0  0  0  0  0  0
  132.7060  130.5680   57.2680 C   0  0  0  0  0  0  0  0  0  0  0  0
  133.0440  131.3360   56.1190 O   0  0  0  0  0  0  0  0  0  0  0  0
  132.2180  132.3110   55.6590 C   0  0  0  0  0  0  0  0  0  0  0  0
  132.6190  133.3330   55.0950 O   0  0  0  0  0  0  0  0  0  0  0  0
  130.7650  132.0180   55.9010 C   0  0  0  0  0  0  0  0  0  0  0  0
  130.0930  132.4860   57.0400 C   0  0  0  0  0  0  0  0  0  0  0  0
  128.7460  132.1960   57.2390 C   0  0  0  0  0  0  0  0  0  0  0  0
  128.0430  131.4320   56.2950 C   0  0  0  0  0  0  0  0  0  0  0  0
  126.6840  131.0760   56.3960 N   0  0  0  0  0  0  0  0  0  0  0  0
  126.0100  130.0590   55.8170 C   0  0  0  0  0  0  0  0  0  0  0  0
  126.4980  129.2110   55.0690 O   0  0  0  0  0  0  0  0  0  0  0  0
  124.5200  129.9850   56.1470 C   0  0  0  0  0  0  0  0  0  0  0  0
  124.1790  130.5420   57.8430 S   0  0  0  0  0  0  0  0  0  0  0  0
  125.0200  129.4030   58.9180 C   0  0  0  0  0  0  0  0  0  0  0  0
  125.3470  128.2290   58.3260 N   0  0  0  0  0  0  0  0  0  0  0  0
  125.9990  127.2720   59.0390 C   0  0  0  0  0  0  0  0  0  0  0  0
  126.3440  126.0080   58.3070 C   0  0  0  0  0  0  0  0  0  0  0  0
  127.5140  125.9080   57.5350 C   0  0  0  0  0  0  0  0  0  0  0  0
  127.8320  124.7340   56.8580 C   0  0  0  0  0  0  0  0  0  0  0  0
  126.9930  123.6250   56.9290 C   0  0  0  0  0  0  0  0  0  0  0  0
  127.3890  122.5020   56.2280 O   0  0  0  0  0  0  0  0  0  0  0  0
  127.0790  122.4040   54.8420 C   0  0  0  0  0  0  0  0  0  0  0  0
  125.8200  123.7100   57.6920 C   0  0  0  0  0  0  0  0  0  0  0  0
  125.5050  124.8850   58.3670 C   0  0  0  0  0  0  0  0  0  0  0  0
  126.3340  127.4890   60.3810 C   0  0  0  0  0  0  0  0  0  0  0  0
  125.9840  128.6850   61.0210 C   0  0  0  0  0  0  0  0  0  0  0  0
  126.3460  128.8330   62.4630 C   0  0  0  0  0  0  0  0  0  0  0  0
  127.6840  128.8260   62.8710 C   0  0  0  0  0  0  0  0  0  0  0  0
  128.0140  128.9790   64.2150 C   0  0  0  0  0  0  0  0  0  0  0  0
  127.0170  129.1500   65.1750 C   0  0  0  0  0  0  0  0  0  0  0  0
  127.4380  129.2960   66.4820 O   0  0  0  0  0  0  0  0  0  0  0  0
  128.5220  128.5030   66.9540 C   0  0  0  0  0  0  0  0  0  0  0  0
  125.6740  129.1670   64.7680 C   0  0  0  0  0  0  0  0  0  0  0  0
  125.3460  129.0120   63.4240 C   0  0  0  0  0  0  0  0  0  0  0  0
  125.3100  129.6790   60.2710 C   0  0  0  0  0  0  0  0  0  0  0  0
  124.9310  130.9570   60.8820 C   0  0  0  0  0  0  0  0  0  0  0  0
  124.6330  131.9650   61.3650 N   0  0  0  0  0  0  0  0  0  0  0  0
  128.7090  130.9620   55.1630 C   0  0  0  0  0  0  0  0  0  0  0  0
  130.0560  131.2530   54.9650 C   0  0  0  0  0  0  0  0  0  0  0  0
  1  2  1  0
  2  3  1  0
  3  4  1  0
  4  5  2  0
  4  6  1  0
  6  7  2  0
  7  8  1  0
  8  9  2  0
  9 10  1  0
 10 11  1  0
 11 12  2  0
 11 13  1  0
 13 14  1  0
 14 15  1  0
 15 16  2  0
 16 17  1  0
 17 18  1  0
 18 19  2  0
 19 20  1  0
 20 21  2  0
 21 22  1  0
 22 23  1  0
 21 24  1  0
 24 25  2  0
 17 26  2  0
 26 27  1  0
 27 28  1  0
 28 29  2  0
 29 30  1  0
 30 31  2  0
 31 32  1  0
 32 33  1  0
 31 34  1  0
 34 35  2  0
 27 36  2  0
 36 37  1  0
 37 38  3  0
  9 39  1  0
 39 40  2  0
 40  6  1  0
 36 15  1  0
 25 18  1  0
 35 28  1  0
M  END
>  <Binding energies>  (1) 
[-9.78]

>  <Ligand effiencies>  (1) 
[-0.23853658536585365]

>  <Interactions>  (1) 
["V-A:TYR:539:CZ:4877, V-A:ASP:366:CG:3213, V-B:MET:535:CE:9807, V-A:PRO:540:CA:4883, V-A:ASP:366:CB:3212, H-B:LYS:534:NZ:9795, V-A:GLU:543:CD:4908, H-B:TYR:484:OH:9320, V-A:GLU:543:CG:4907, H-A:TYR:531:OH:4795, V-A:TYR:539:CE1:4875, V-B:ARG:545:CZ:9898, H-A:TYR:539:OH:4878, H-B:TYR:531:OH:9767, V-B:TYR:539:CD1:9845, V-B:TYR:539:CE1:9847, V-B:ASP:366:CG:8185, H-B:TYR:539:N:9842, V-B:ASP:366:CB:8184, V-B:ASP:366:CA:8182, V-A:TYR:539:CD1:4873, V-A:TYR:539:C:4867, V-B:TYR:531:CZ:9766, V-B:ILE:538:CA:9832, V-B:ILE:538:CD1:9837, V-A:TYR:539:CE2:4876, V-A:PRO:540:CD:4887, V-A:TYR:531:CE2:4793, V-A:PRO:540:CB:4885, V-A:LEU:363:CD1:3189, V-A:ILE:538:CB:4862, V-A:PRO:540:N:4884, V-A:ILE:538:CG2:4863, V-B:ILE:538:C:9830, V-B:TYR:531:CE1:9764, V-B:HIS:456:CE1:9042, V-A:LEU:363:CA:3185, V-B:TYR:531:CD1:9762, V-A:GLU:543:CB:4906, V-B:VAL:537:C:9822"]

$$$$
1b_Ghoteimi_2023
     RDKit          3D

 34 37  0  0  0  0  0  0  0  0999 V2000
  128.2330  128.5490   67.3380 C   0  0  0  0  0  0  0  0  0  0  0  0
  127.1110  128.9970   66.5880 O   0  0  0  0  0  0  0  0  0  0  0  0
  127.1310  128.8800   65.2110 C   0  0  0  0  0  0  0  0  0  0  0  0
  125.9190  129.0700   64.5500 C   0  0  0  0  0  0  0  0  0  0  0  0
  125.8420  128.9700   63.1650 C   0  0  0  0  0  0  0  0  0  0  0  0
  126.9790  128.6810   62.3950 C   0  0  0  0  0  0  0  0  0  0  0  0
  126.8920  128.5720   60.8980 C   0  0  0  0  0  0  0  0  0  0  0  0
  126.8670  127.3460   60.2240 C   0  0  0  0  0  0  0  0  0  0  0  0
  126.7810  127.2990   58.8270 C   0  0  0  0  0  0  0  0  0  0  0  0
  126.7640  125.9560   58.1750 C   0  0  0  0  0  0  0  0  0  0  0  0
  127.8130  125.5640   57.3380 C   0  0  0  0  0  0  0  0  0  0  0  0
  127.7970  124.3160   56.7220 C   0  0  0  0  0  0  0  0  0  0  0  0
  126.7320  123.4380   56.9250 C   0  0  0  0  0  0  0  0  0  0  0  0
  126.8010  122.2220   56.2720 O   0  0  0  0  0  0  0  0  0  0  0  0
  127.1030  122.1980   54.8810 C   0  0  0  0  0  0  0  0  0  0  0  0
  125.6730  123.8310   57.7570 C   0  0  0  0  0  0  0  0  0  0  0  0
  125.6920  125.0790   58.3720 C   0  0  0  0  0  0  0  0  0  0  0  0
  126.7090  128.5220   58.1150 C   0  0  0  0  0  0  0  0  0  0  0  0
  126.5220  128.5260   56.6610 C   0  0  0  0  0  0  0  0  0  0  0  0
  126.3740  128.5280   55.5130 N   0  0  0  0  0  0  0  0  0  0  0  0
  126.7610  129.7240   58.8550 C   0  0  0  0  0  0  0  0  0  0  0  0
  126.6910  131.3490   58.1290 S   0  0  0  0  0  0  0  0  0  0  0  0
  128.2000  131.5830   57.1310 C   0  0  0  0  0  0  0  0  0  0  0  0
  129.4880  131.7940   57.9400 C   0  0  0  0  0  0  0  0  0  0  0  0
  130.4870  132.2910   57.4160 O   0  0  0  0  0  0  0  0  0  0  0  0
  129.4150  131.3930   59.2290 N   0  0  0  0  0  0  0  0  0  0  0  0
  130.4180  131.4630   60.1890 C   0  0  0  0  0  0  0  0  0  0  0  0
  131.7170  131.0060   59.9680 C   0  0  0  0  0  0  0  0  0  0  0  0
  132.3870  131.2520   61.1450 C   0  0  0  0  0  0  0  0  0  0  0  0
  131.5370  131.8300   62.0270 O   0  0  0  0  0  0  0  0  0  0  0  0
  130.2920  131.9580   61.4100 N   0  0  0  0  0  0  0  0  0  0  0  0
  126.8290  129.7400   60.2080 N   0  0  0  0  0  0  0  0  0  0  0  0
  128.1950  128.4900   63.0710 C   0  0  0  0  0  0  0  0  0  0  0  0
  128.2750  128.5870   64.4570 C   0  0  0  0  0  0  0  0  0  0  0  0
  1  2  1  0
  2  3  1  0
  3  4  2  0
  4  5  1  0
  5  6  2  0
  6  7  1  0
  7  8  2  0
  8  9  1  0
  9 10  1  0
 10 11  2  0
 11 12  1  0
 12 13  2  0
 13 14  1  0
 14 15  1  0
 13 16  1  0
 16 17  2  0
  9 18  2  0
 18 19  1  0
 19 20  3  0
 18 21  1  0
 21 22  1  0
 22 23  1  0
 23 24  1  0
 24 25  2  0
 24 26  1  0
 26 27  1  0
 27 28  1  0
 28 29  2  0
 29 30  1  0
 30 31  1  0
 21 32  2  0
  6 33  1  0
 33 34  2  0
 34  3  1  0
 32  7  1  0
 17 10  1  0
 31 27  2  0
M  END
>  <Binding energies>  (2) 
[-8.13]

>  <Ligand effiencies>  (2) 
[-0.23228571428571432]

>  <Interactions>  (2) 
["V-B:MET:535:CE:9807, V-A:PRO:540:CA:4883, H-B:LYS:534:NZ:9795, V-A:GLU:543:CD:4908, H-A:ALA:541:N:4891, H-B:TYR:484:OH:9320, V-A:GLU:543:CG:4907, V-A:TYR:539:CE1:4875, V-B:ARG:545:CZ:9898, H-B:TYR:531:OH:9767, V-B:TYR:539:CD1:9845, V-B:TYR:539:CG:9844, V-B:TYR:539:CE1:9847, V-B:ASP:366:CG:8185, H-B:TYR:539:N:9842, V-A:TYR:539:CD1:4873, V-A:TYR:539:C:4867, V-B:TYR:531:CZ:9766, V-B:GLU:543:CD:9880, V-B:ILE:538:CA:9832, V-B:ILE:538:CD1:9837, V-A:PRO:540:CB:4885, V-B:ILE:538:C:9830, V-B:TYR:531:CE1:9764, V-B:HIS:456:CE1:9042, V-A:GLU:543:CB:4906, V-B:VAL:537:C:9822"]

$$$$
1c_Ghoteimi_2023
     RDKit          3D

 34 37  0  0  0  0  0  0  0  0999 V2000
  127.4760  138.4960   59.4980 C   0  0  0  0  0  0  0  0  0  0  0  0
  126.4490  137.8740   60.2610 O   0  0  0  0  0  0  0  0  0  0  0  0
  126.4830  136.5050   60.4510 C   0  0  0  0  0  0  0  0  0  0  0  0
  125.3500  135.7930   60.0680 C   0  0  0  0  0  0  0  0  0  0  0  0
  125.2960  134.4100   60.2260 C   0  0  0  0  0  0  0  0  0  0  0  0
  126.3750  133.6990   60.7740 C   0  0  0  0  0  0  0  0  0  0  0  0
  126.3190  132.2090   60.9510 C   0  0  0  0  0  0  0  0  0  0  0  0
  126.6030  131.5810   62.1680 C   0  0  0  0  0  0  0  0  0  0  0  0
  126.5110  130.1900   62.2920 C   0  0  0  0  0  0  0  0  0  0  0  0
  126.7630  129.5930   63.6370 C   0  0  0  0  0  0  0  0  0  0  0  0
  125.6990  129.1730   64.4400 C   0  0  0  0  0  0  0  0  0  0  0  0
  125.9340  128.6370   65.7020 C   0  0  0  0  0  0  0  0  0  0  0  0
  127.2360  128.5140   66.1870 C   0  0  0  0  0  0  0  0  0  0  0  0
  127.3750  127.9710   67.4500 O   0  0  0  0  0  0  0  0  0  0  0  0
  128.6540  127.5100   67.8710 C   0  0  0  0  0  0  0  0  0  0  0  0
  128.3070  128.9400   65.3870 C   0  0  0  0  0  0  0  0  0  0  0  0
  128.0690  129.4760   64.1250 C   0  0  0  0  0  0  0  0  0  0  0  0
  126.1530  129.4340   61.1500 C   0  0  0  0  0  0  0  0  0  0  0  0
  126.0730  127.9700   61.2060 C   0  0  0  0  0  0  0  0  0  0  0  0
  126.0090  126.8160   61.2510 N   0  0  0  0  0  0  0  0  0  0  0  0
  125.8630  130.1330   59.9600 C   0  0  0  0  0  0  0  0  0  0  0  0
  125.2390  129.3280   58.5010 S   0  0  0  0  0  0  0  0  0  0  0  0
  125.1330  130.6490   57.2500 C   0  0  0  0  0  0  0  0  0  0  0  0
  126.4510  130.8330   56.4890 C   0  0  0  0  0  0  0  0  0  0  0  0
  126.5570  130.3950   55.3430 O   0  0  0  0  0  0  0  0  0  0  0  0
  127.4060  131.5220   57.1510 N   0  0  0  0  0  0  0  0  0  0  0  0
  128.6180  131.9560   56.6390 C   0  0  0  0  0  0  0  0  0  0  0  0
  129.7400  132.1710   57.2920 N   0  0  0  0  0  0  0  0  0  0  0  0
  130.7100  132.5410   56.4780 C   0  0  0  0  0  0  0  0  0  0  0  0
  130.3810  132.6300   55.1290 C   0  0  0  0  0  0  0  0  0  0  0  0
  128.7070  132.2080   54.9260 S   0  0  0  0  0  0  0  0  0  0  0  0
  125.9360  131.4820   59.8690 N   0  0  0  0  0  0  0  0  0  0  0  0
  127.5130  134.4270   61.1510 C   0  0  0  0  0  0  0  0  0  0  0  0
  127.5710  135.8090   60.9960 C   0  0  0  0  0  0  0  0  0  0  0  0
  1  2  1  0
  2  3  1  0
  3  4  2  0
  4  5  1  0
  5  6  2  0
  6  7  1  0
  7  8  2  0
  8  9  1  0
  9 10  1  0
 10 11  2  0
 11 12  1  0
 12 13  2  0
 13 14  1  0
 14 15  1  0
 13 16  1  0
 16 17  2  0
  9 18  2  0
 18 19  1  0
 19 20  3  0
 18 21  1  0
 21 22  1  0
 22 23  1  0
 23 24  1  0
 24 25  2  0
 24 26  1  0
 26 27  1  0
 27 28  2  0
 28 29  1  0
 29 30  2  0
 30 31  1  0
 21 32  2  0
  6 33  1  0
 33 34  2  0
 34  3  1  0
 32  7  1  0
 17 10  1  0
 31 27  1  0
M  END
>  <Binding energies>  (3) 
[-7.82]

>  <Ligand effiencies>  (3) 
[-0.22342857142857145]

>  <Interactions>  (3) 
["V-A:TYR:539:CZ:4877, V-A:ALA:541:CB:4892, V-B:LEU:475:CD2:9231, V-A:PRO:540:CA:4883, H-B:LYS:534:NZ:9795, V-A:GLU:543:CD:4908, V-A:GLU:543:CG:4907, V-A:TYR:539:CE1:4875, V-B:ARG:545:CZ:9898, H-A:TYR:539:OH:4878, V-B:ASP:366:CG:8185, V-A:TYR:539:CD1:4873, V-A:TYR:539:C:4867, V-B:GLU:543:CD:9880, V-A:TYR:539:CE2:4876, V-A:PRO:540:CD:4887, V-A:PRO:540:CB:4885, V-A:TYR:539:CD2:4874, V-A:ILE:538:CA:4860, V-A:ILE:538:CB:4862, V-A:PRO:540:N:4884, V-A:ILE:538:CG2:4863, V-B:SER:385:CB:8381, V-B:HIS:456:CE1:9042, H-B:ARG:545:NH2:9900, V-B:HIS:383:CD2:8364, V-A:TYR:539:CB:4871, V-B:PRO:482:CB:9298, V-B:PRO:482:CG:9299, V-A:GLU:543:CB:4906, V-A:VAL:344:CG1:3001, H-B:SER:385:OG:8382, H-B:HIS:383:NE2:8366, V-A:HIS:456:CE1:4070, V-B:HIS:383:CE1:8365"]

$$$$
1d_Ghoteimi_2023
     RDKit          3D

 30 32  0  0  0  0  0  0  0  0999 V2000
  124.7000  122.7380   56.8540 C   0  0  0  0  0  0  0  0  0  0  0  0
  125.9770  122.1170   56.8460 O   0  0  0  0  0  0  0  0  0  0  0  0
  127.0110  122.6840   56.1910 C   0  0  0  0  0  0  0  0  0  0  0  0
  127.1610  122.7310   54.9690 O   0  0  0  0  0  0  0  0  0  0  0  0
  128.0380  123.2910   57.1430 C   0  0  0  0  0  0  0  0  0  0  0  0
  127.2430  124.6920   57.9850 S   0  0  0  0  0  0  0  0  0  0  0  0
  128.5150  125.8920   58.3130 C   0  0  0  0  0  0  0  0  0  0  0  0
  129.3270  125.5580   59.3440 N   0  0  0  0  0  0  0  0  0  0  0  0
  130.3400  126.3870   59.7060 C   0  0  0  0  0  0  0  0  0  0  0  0
  131.1960  125.9410   60.8550 C   0  0  0  0  0  0  0  0  0  0  0  0
  130.8620  126.2610   62.1800 C   0  0  0  0  0  0  0  0  0  0  0  0
  131.6610  125.8520   63.2430 C   0  0  0  0  0  0  0  0  0  0  0  0
  132.8190  125.1120   63.0170 C   0  0  0  0  0  0  0  0  0  0  0  0
  133.5530  124.7520   64.1310 O   0  0  0  0  0  0  0  0  0  0  0  0
  133.1710  125.2590   65.4050 C   0  0  0  0  0  0  0  0  0  0  0  0
  133.1670  124.7840   61.6990 C   0  0  0  0  0  0  0  0  0  0  0  0
  132.3640  125.1950   60.6380 C   0  0  0  0  0  0  0  0  0  0  0  0
  130.5610  127.5840   59.0150 C   0  0  0  0  0  0  0  0  0  0  0  0
  129.7280  127.9610   57.9540 C   0  0  0  0  0  0  0  0  0  0  0  0
  130.0170  129.2560   57.2650 C   0  0  0  0  0  0  0  0  0  0  0  0
  130.4270  130.3700   58.0040 C   0  0  0  0  0  0  0  0  0  0  0  0
  130.6980  131.5790   57.3680 C   0  0  0  0  0  0  0  0  0  0  0  0
  130.5710  131.6970   55.9850 C   0  0  0  0  0  0  0  0  0  0  0  0
  130.8540  132.9360   55.4420 O   0  0  0  0  0  0  0  0  0  0  0  0
  132.2040  133.3860   55.4030 C   0  0  0  0  0  0  0  0  0  0  0  0
  130.1720  130.5780   55.2380 C   0  0  0  0  0  0  0  0  0  0  0  0
  129.9030  129.3700   55.8750 C   0  0  0  0  0  0  0  0  0  0  0  0
  128.6570  127.1040   57.6000 C   0  0  0  0  0  0  0  0  0  0  0  0
  127.6930  127.4980   56.5680 C   0  0  0  0  0  0  0  0  0  0  0  0
  126.9320  127.8100   55.7540 N   0  0  0  0  0  0  0  0  0  0  0  0
  1  2  1  0
  2  3  1  0
  3  4  2  0
  3  5  1  0
  5  6  1  0
  6  7  1  0
  7  8  2  0
  8  9  1  0
  9 10  1  0
 10 11  2  0
 11 12  1  0
 12 13  2  0
 13 14  1  0
 14 15  1  0
 13 16  1  0
 16 17  2  0
  9 18  2  0
 18 19  1  0
 19 20  1  0
 20 21  2  0
 21 22  1  0
 22 23  2  0
 23 24  1  0
 24 25  1  0
 23 26  1  0
 26 27  2  0
 19 28  2  0
 28 29  1  0
 29 30  3  0
 28  7  1  0
 17 10  1  0
 27 20  1  0
M  END
>  <Binding energies>  (4) 
[-7.95]

>  <Ligand effiencies>  (4) 
[-0.265]

>  <Interactions>  (4) 
["V-A:ASP:366:CG:3213, V-B:MET:535:CE:9807, V-A:PRO:540:CA:4883, V-B:TYR:539:CE2:9848, V-A:GLU:543:CD:4908, V-B:TYR:539:CZ:9849, V-B:TYR:539:CD2:9846, V-A:ARG:545:CZ:4926, H-B:TYR:531:OH:9767, V-B:TYR:539:CD1:9845, V-A:TYR:484:CZ:4347, V-B:TYR:539:CE1:9847, H-B:TYR:539:N:9842, V-B:PRO:540:CB:9857, V-B:PRO:540:N:9856, V-B:LEU:363:CD1:8161, V-B:TYR:531:CE2:9765, V-A:PRO:540:CD:4887, V-A:PRO:540:CB:4885, V-A:LEU:363:CD1:3189, V-A:ILE:538:CA:4860, V-A:ILE:538:CB:4862, H-A:TYR:539:N:4870, V-A:PRO:540:N:4884, V-A:ILE:538:CG2:4863, V-B:PRO:540:CG:9858, V-B:PRO:540:CD:9859, H-A:GLY:454:N:4050, H-A:TYR:484:OH:4348, V-A:PRO:540:CG:4886, H-A:ARG:545:NH2:4928, V-A:TYR:484:CE2:4346, V-A:ILE:538:C:4858, H-A:ARG:545:NE:4924, V-A:ARG:545:CD:4923, V-A:ARG:545:CG:4922, V-A:ILE:538:CG1:4864, V-A:ILE:538:CD1:4865"]

$$$$
1j_Grossjean_2025
     RDKit          3D

 20 21  0  0  0  0  0  0  0  0999 V2000
  132.5970  125.1100   61.1590 C   0  0  0  0  0  0  0  0  0  0  0  0
  132.0630  123.6920   61.0690 C   0  0  0  0  0  0  0  0  0  0  0  0
  132.8310  122.6550   60.5430 C   0  0  0  0  0  0  0  0  0  0  0  0
  132.2900  121.3660   60.4980 C   0  0  0  0  0  0  0  0  0  0  0  0
  133.1590  120.2420   59.9330 C   0  0  0  0  0  0  0  0  0  0  0  0
  130.9790  121.1490   60.9760 C   0  0  0  0  0  0  0  0  0  0  0  0
  130.4130  119.7970   60.9870 C   0  0  0  0  0  0  0  0  0  0  0  0
  129.9700  118.7290   60.9940 N   0  0  0  0  0  0  0  0  0  0  0  0
  130.2620  122.2650   61.4680 C   0  0  0  0  0  0  0  0  0  0  0  0
  128.6030  122.1750   62.1060 S   0  0  0  0  0  0  0  0  0  0  0  0
  127.5410  123.1810   61.0280 C   0  0  0  0  0  0  0  0  0  0  0  0
  127.6440  122.7550   59.5620 C   0  0  0  0  0  0  0  0  0  0  0  0
  128.6120  122.0900   59.1930 O   0  0  0  0  0  0  0  0  0  0  0  0
  126.6290  123.1570   58.7660 N   0  0  0  0  0  0  0  0  0  0  0  0
  126.4920  122.9070   57.4080 C   0  0  0  0  0  0  0  0  0  0  0  0
  125.6120  122.1300   56.8150 N   0  0  0  0  0  0  0  0  0  0  0  0
  125.7730  122.1280   55.5060 C   0  0  0  0  0  0  0  0  0  0  0  0
  126.8040  122.9200   55.0110 C   0  0  0  0  0  0  0  0  0  0  0  0
  127.6010  123.7060   56.3410 S   0  0  0  0  0  0  0  0  0  0  0  0
  130.8030  123.5080   61.5290 N   0  0  0  0  0  0  0  0  0  0  0  0
  1  2  1  0
  2  3  2  0
  3  4  1  0
  4  5  1  0
  4  6  2  0
  6  7  1  0
  7  8  3  0
  6  9  1  0
  9 10  1  0
 10 11  1  0
 11 12  1  0
 12 13  2  0
 12 14  1  0
 14 15  1  0
 15 16  2  0
 16 17  1  0
 17 18  2  0
 18 19  1  0
  9 20  2  0
 20  2  1  0
 19 15  1  0
M  END
>  <Binding energies>  (5) 
[-6.75]

>  <Ligand effiencies>  (5) 
[-0.32142857142857145]

>  <Interactions>  (5) 
["V-A:ASP:366:CG:3213, V-B:MET:535:CE:9807, V-B:TYR:539:CE2:9848, V-B:TYR:539:CZ:9849, V-A:ILE:369:CG2:3237, V-B:TYR:539:CD2:9846, V-A:LEU:475:CD2:4259, H-B:ASP:366:OD2:8187, V-B:TYR:539:CE1:9847, V-B:TYR:539:C:9839, H-B:TYR:539:N:9842, V-B:PRO:540:CB:9857, V-B:PRO:540:CA:9855, H-B:ALA:541:N:9863, V-B:PRO:540:N:9856, V-B:ILE:538:CA:9832, V-B:ILE:538:CD1:9837, V-B:PRO:540:CD:9859, V-B:ILE:538:CG2:9835, H-A:TYR:484:OH:4348, V-B:ILE:538:C:9830, V-A:SER:385:CB:3409, V-A:SER:385:CA:3407, V-A:SER:385:C:3405, V-B:ILE:538:CB:9834"]

$$$$
1o_Grossjean_2025
     RDKit          3D

 26 27  0  0  0  0  0  0  0  0999 V2000
  133.0450  131.1020   57.1740 C   0  0  0  0  0  0  0  0  0  0  0  0
  132.7100  131.6040   55.8880 O   0  0  0  0  0  0  0  0  0  0  0  0
  131.8010  132.6020   55.7430 C   0  0  0  0  0  0  0  0  0  0  0  0
  132.0970  133.7450   55.3810 O   0  0  0  0  0  0  0  0  0  0  0  0
  130.3960  132.1780   56.0630 C   0  0  0  0  0  0  0  0  0  0  0  0
  129.7460  132.5870   57.2360 C   0  0  0  0  0  0  0  0  0  0  0  0
  128.4420  132.1770   57.5020 C   0  0  0  0  0  0  0  0  0  0  0  0
  127.7640  131.3490   56.6070 C   0  0  0  0  0  0  0  0  0  0  0  0
  126.4480  131.0030   56.9690 N   0  0  0  0  0  0  0  0  0  0  0  0
  125.5340  130.2600   56.3060 C   0  0  0  0  0  0  0  0  0  0  0  0
  125.7260  129.6930   55.2300 O   0  0  0  0  0  0  0  0  0  0  0  0
  124.1720  130.1140   56.9990 C   0  0  0  0  0  0  0  0  0  0  0  0
  123.6630  131.4270   57.6280 C   0  0  0  0  0  0  0  0  0  0  0  0
  123.7250  131.4480   59.4440 S   0  0  0  0  0  0  0  0  0  0  0  0
  125.3250  132.0480   59.9470 C   0  0  0  0  0  0  0  0  0  0  0  0
  126.2660  131.0730   60.0310 N   0  0  0  0  0  0  0  0  0  0  0  0
  127.5240  131.4110   60.3960 C   0  0  0  0  0  0  0  0  0  0  0  0
  128.5230  130.2700   60.4530 C   0  0  0  0  0  0  0  0  0  0  0  0
  127.8920  132.7190   60.7020 C   0  0  0  0  0  0  0  0  0  0  0  0
  126.9250  133.7280   60.6440 C   0  0  0  0  0  0  0  0  0  0  0  0
  127.3500  135.1520   60.9980 C   0  0  0  0  0  0  0  0  0  0  0  0
  125.6030  133.3980   60.2690 C   0  0  0  0  0  0  0  0  0  0  0  0
  124.5640  134.4310   60.2600 C   0  0  0  0  0  0  0  0  0  0  0  0
  123.7450  135.2490   60.2520 N   0  0  0  0  0  0  0  0  0  0  0  0
  128.4070  130.9400   55.4280 C   0  0  0  0  0  0  0  0  0  0  0  0
  129.7100  131.3510   55.1640 C   0  0  0  0  0  0  0  0  0  0  0  0
  1  2  1  0
  2  3  1  0
  3  4  2  0
  3  5  1  0
  5  6  2  0
  6  7  1  0
  7  8  2  0
  8  9  1  0
  9 10  1  0
 10 11  2  0
 10 12  1  0
 12 13  1  0
 13 14  1  0
 14 15  1  0
 15 16  2  0
 16 17  1  0
 17 18  1  0
 17 19  2  0
 19 20  1  0
 20 21  1  0
 20 22  2  0
 22 23  1  0
 23 24  3  0
  8 25  1  0
 25 26  2  0
 26  5  1  0
 22 15  1  0
M  END
>  <Binding energies>  (6) 
[-7.15]

>  <Ligand effiencies>  (6) 
[-0.26481481481481484]

>  <Interactions>  (6) 
["V-A:TYR:539:CZ:4877, V-A:ALA:541:CB:4892, V-B:ILE:369:CG2:8209, V-B:LEU:475:CD2:9231, V-A:PRO:540:CA:4883, H-B:LYS:534:NZ:9795, H-A:TYR:531:OH:4795, V-A:TYR:539:CE1:4875, H-A:TYR:539:OH:4878, V-B:ASP:366:CB:8184, V-B:ASP:366:CA:8182, V-A:TYR:539:CD1:4873, V-A:TYR:539:C:4867, V-A:PRO:540:CD:4887, V-A:PRO:540:CB:4885, V-A:LEU:363:CD1:3189, V-A:ILE:538:CB:4862, H-A:TYR:539:N:4870, V-A:PRO:540:N:4884, V-A:TYR:539:CG:4872, V-A:ILE:538:CG2:4863, V-B:ASP:366:C:8180, V-B:ILE:369:CB:8208, V-B:TYR:531:CE1:9764, V-A:TYR:539:CA:4869, H-B:SER:385:OG:8382"]

$$$$
1p_Grossjean_2025
     RDKit          3D

 21 22  0  0  0  0  0  0  0  0999 V2000
  129.1550  128.2390   73.9670 C   0  0  0  0  0  0  0  0  0  0  0  0
  127.8620  128.8240   74.5030 C   0  0  0  0  0  0  0  0  0  0  0  0
  126.6350  128.2010   74.2830 C   0  0  0  0  0  0  0  0  0  0  0  0
  125.4720  128.7910   74.7890 C   0  0  0  0  0  0  0  0  0  0  0  0
  124.1370  128.0990   74.5220 C   0  0  0  0  0  0  0  0  0  0  0  0
  125.5710  129.9980   75.5170 C   0  0  0  0  0  0  0  0  0  0  0  0
  124.3650  130.6610   76.0150 C   0  0  0  0  0  0  0  0  0  0  0  0
  123.4100  131.1850   76.4090 N   0  0  0  0  0  0  0  0  0  0  0  0
  126.8610  130.5480   75.7120 C   0  0  0  0  0  0  0  0  0  0  0  0
  127.1640  132.0520   76.6110 S   0  0  0  0  0  0  0  0  0  0  0  0
  128.0440  133.1710   75.4830 C   0  0  0  0  0  0  0  0  0  0  0  0
  127.5360  133.1140   74.0290 C   0  0  0  0  0  0  0  0  0  0  0  0
  128.6530  133.2440   72.9830 C   0  0  0  0  0  0  0  0  0  0  0  0
  129.0380  132.2420   72.3780 O   0  0  0  0  0  0  0  0  0  0  0  0
  129.1320  134.4940   72.7920 N   0  0  0  0  0  0  0  0  0  0  0  0
  130.1340  134.8850   71.9130 C   0  0  0  0  0  0  0  0  0  0  0  0
  131.3120  135.5060   72.3270 C   0  0  0  0  0  0  0  0  0  0  0  0
  132.0270  135.7250   71.1720 C   0  0  0  0  0  0  0  0  0  0  0  0
  131.3160  135.2630   70.1170 O   0  0  0  0  0  0  0  0  0  0  0  0
  130.1170  134.7330   70.5990 N   0  0  0  0  0  0  0  0  0  0  0  0
  127.9800  129.9780   75.1990 N   0  0  0  0  0  0  0  0  0  0  0  0
  1  2  1  0
  2  3  2  0
  3  4  1  0
  4  5  1  0
  4  6  2  0
  6  7  1  0
  7  8  3  0
  6  9  1  0
  9 10  1  0
 10 11  1  0
 11 12  1  0
 12 13  1  0
 13 14  2  0
 13 15  1  0
 15 16  1  0
 16 17  1  0
 17 18  2  0
 18 19  1  0
 19 20  1  0
  9 21  2  0
 21  2  1  0
 20 16  2  0
M  END
>  <Binding energies>  (7) 
[-7.67]

>  <Ligand effiencies>  (7) 
[-0.34863636363636363]

>  <Interactions>  (7) 
["V-B:VAL:458:CG2:9059, V-B:HIS:456:C:9033, H-B:ASP:473:OD2:9214, V-B:ASP:473:CB:9211, V-B:HIS:456:CB:9037, V-B:TYR:484:CA:9311, V-B:TYR:484:CB:9313, V-A:VAL:542:CG1:4899, V-B:ASP:473:CG:9212, H-A:LYS:547:NZ:4951, V-B:VAL:457:C:9045, V-B:HIS:456:CG:9038, V-B:HIS:456:CD2:9040, V-B:VAL:457:CA:9047, V-B:HIS:456:CA:9035, H-B:LEU:472:N:9201, V-B:TYR:484:C:9309, H-B:TYR:484:N:9312, H-B:TYR:484:O:9310, H-A:GLY:544:N:4915, H-B:VAL:457:N:9048, V-B:ARG:545:C:9889, H-B:VAL:458:N:9056"]

$$$$
2a_Ghoteimi_2023
     RDKit          3D

 48 53  0  0  0  0  0  0  0  0999 V2000
  132.8400  131.1750   57.7720 C   0  0  0  0  0  0  0  0  0  0  0  0
  133.8180  131.1210   58.9490 C   0  0  0  0  0  0  0  0  0  0  0  0
  133.3050  131.8960   60.0250 O   0  0  0  0  0  0  0  0  0  0  0  0
  132.7370  131.3060   61.1080 C   0  0  0  0  0  0  0  0  0  0  0  0
  133.3810  130.6870   61.9610 O   0  0  0  0  0  0  0  0  0  0  0  0
  131.2470  131.4870   61.1680 C   0  0  0  0  0  0  0  0  0  0  0  0
  130.4360  131.3530   60.0320 C   0  0  0  0  0  0  0  0  0  0  0  0
  129.0590  131.5260   60.1230 C   0  0  0  0  0  0  0  0  0  0  0  0
  128.4620  131.8300   61.3470 C   0  0  0  0  0  0  0  0  0  0  0  0
  127.0630  131.9870   61.3230 N   0  0  0  0  0  0  0  0  0  0  0  0
  126.2830  132.6650   60.4520 C   0  0  0  0  0  0  0  0  0  0  0  0
  126.6960  133.3360   59.5060 O   0  0  0  0  0  0  0  0  0  0  0  0
  124.7770  132.5930   60.7330 C   0  0  0  0  0  0  0  0  0  0  0  0
  124.3440  131.8300   62.3300 S   0  0  0  0  0  0  0  0  0  0  0  0
  125.1960  130.2700   62.3630 C   0  0  0  0  0  0  0  0  0  0  0  0
  125.7340  129.9650   63.5670 N   0  0  0  0  0  0  0  0  0  0  0  0
  126.4190  128.8040   63.7170 C   0  0  0  0  0  0  0  0  0  0  0  0
  126.9930  128.5380   65.0710 C   0  0  0  0  0  0  0  0  0  0  0  0
  126.2040  128.0180   66.1050 C   0  0  0  0  0  0  0  0  0  0  0  0
  126.7420  127.7840   67.3670 C   0  0  0  0  0  0  0  0  0  0  0  0
  128.0900  128.0530   67.6430 C   0  0  0  0  0  0  0  0  0  0  0  0
  128.6090  127.8410   68.9240 N   0  0  0  0  0  0  0  0  0  0  0  0
  130.0020  128.1980   69.2600 C   0  0  0  0  0  0  0  0  0  0  0  0
  130.2870  128.2370   70.7770 C   0  0  0  0  0  0  0  0  0  0  0  0
  129.9210  127.0020   71.3710 O   0  0  0  0  0  0  0  0  0  0  0  0
  128.5400  126.7320   71.1980 C   0  0  0  0  0  0  0  0  0  0  0  0
  128.1990  126.6480   69.6950 C   0  0  0  0  0  0  0  0  0  0  0  0
  128.8730  128.5860   66.6060 C   0  0  0  0  0  0  0  0  0  0  0  0
  128.3370  128.8180   65.3440 C   0  0  0  0  0  0  0  0  0  0  0  0
  126.5660  127.9090   62.6530 C   0  0  0  0  0  0  0  0  0  0  0  0
  126.0180  128.2030   61.3970 C   0  0  0  0  0  0  0  0  0  0  0  0
  126.2180  127.2060   60.3030 C   0  0  0  0  0  0  0  0  0  0  0  0
  126.2400  127.6220   58.9690 C   0  0  0  0  0  0  0  0  0  0  0  0
  126.4070  126.6990   57.9410 C   0  0  0  0  0  0  0  0  0  0  0  0
  126.5590  125.3310   58.2160 C   0  0  0  0  0  0  0  0  0  0  0  0
  126.7090  124.3860   57.1980 N   0  0  0  0  0  0  0  0  0  0  0  0
  125.7370  123.2790   57.0890 C   0  0  0  0  0  0  0  0  0  0  0  0
  125.7850  122.5570   55.7260 C   0  0  0  0  0  0  0  0  0  0  0  0
  127.1020  122.0980   55.4650 O   0  0  0  0  0  0  0  0  0  0  0  0
  128.0330  123.1690   55.4260 C   0  0  0  0  0  0  0  0  0  0  0  0
  128.0420  123.9100   56.7790 C   0  0  0  0  0  0  0  0  0  0  0  0
  126.5240  124.9210   59.5560 C   0  0  0  0  0  0  0  0  0  0  0  0
  126.3560  125.8440   60.5850 C   0  0  0  0  0  0  0  0  0  0  0  0
  125.3040  129.4170   61.2420 C   0  0  0  0  0  0  0  0  0  0  0  0
  124.6600  129.7530   59.9690 C   0  0  0  0  0  0  0  0  0  0  0  0
  124.1540  130.0170   58.9620 N   0  0  0  0  0  0  0  0  0  0  0  0
  129.2670  131.9740   62.4870 C   0  0  0  0  0  0  0  0  0  0  0  0
  130.6460  131.7990   62.3950 C   0  0  0  0  0  0  0  0  0  0  0  0
  1  2  1  0
  2  3  1  0
  3  4  1  0
  4  5  2  0
  4  6  1  0
  6  7  2  0
  7  8  1  0
  8  9  2  0
  9 10  1  0
 10 11  1  0
 11 12  2  0
 11 13  1  0
 13 14  1  0
 14 15  1  0
 15 16  2  0
 16 17  1  0
 17 18  1  0
 18 19  2  0
 19 20  1  0
 20 21  2  0
 21 22  1  0
 22 23  1  0
 23 24  1  0
 24 25  1  0
 25 26  1  0
 26 27  1  0
 21 28  1  0
 28 29  2  0
 17 30  2  0
 30 31  1  0
 31 32  1  0
 32 33  2  0
 33 34  1  0
 34 35  2  0
 35 36  1  0
 36 37  1  0
 37 38  1  0
 38 39  1  0
 39 40  1  0
 40 41  1  0
 35 42  1  0
 42 43  2  0
 31 44  2  0
 44 45  1  0
 45 46  3  0
  9 47  1  0
 47 48  2  0
 48  6  1  0
 44 15  1  0
 29 18  1  0
 43 32  1  0
 27 22  1  0
 41 36  1  0
M  END
>  <Binding energies>  (8) 
[-8.73]

>  <Ligand effiencies>  (8) 
[-0.17816326530612245]

>  <Interactions>  (8) 
["V-A:ALA:541:CB:4892, V-A:ASP:366:CG:3213, V-B:MET:535:CE:9807, V-A:PRO:540:CA:4883, V-B:TYR:539:CE2:9848, V-A:ASP:366:CB:3212, V-A:GLU:543:CD:4908, V-B:TYR:539:CZ:9849, H-A:ALA:541:N:4891, H-B:GLY:454:N:9022, H-B:TYR:484:OH:9320, V-A:GLU:543:CG:4907, V-B:ARG:545:CZ:9898, V-B:TYR:539:CD1:9845, V-B:TYR:539:CG:9844, V-B:TYR:539:CE1:9847, V-B:ASP:366:CG:8185, H-B:TYR:539:N:9842, V-B:ASP:366:CB:8184, V-B:ASP:366:CA:8182, V-B:GLU:543:CD:9880, V-B:ILE:538:CA:9832, V-B:ILE:538:CD1:9837, V-A:HIS:456:CD2:4068, V-A:PRO:540:CB:4885, V-A:LEU:363:CD1:3189, V-A:GLY:544:CA:4914, V-A:GLU:543:C:4902, V-B:ILE:538:CG2:9835, V-B:ARG:545:CD:9895, V-B:ARG:545:CG:9894, V-B:HIS:456:CE1:9042, V-A:ALA:541:CA:4890, V-A:LEU:363:CB:3187, V-A:LEU:363:CA:3185, H-A:ARG:545:NH2:4928, V-A:ASN:362:CB:3176, V-A:GLU:543:CB:4906, V-A:HIS:456:CE1:4070, V-B:GLU:543:CB:9878, V-B:HIS:456:CD2:9040, V-A:ASN:362:C:3172, V-A:ALA:541:C:4888, H-A:ASN:362:ND2:3179, V-A:GLY:544:C:4912"]

$$$$
2aa_Ghoteimi_2023
     RDKit          3D

 48 53  0  0  0  0  0  0  0  0999 V2000
  124.4550  137.8730   56.9970 C   0  0  0  0  0  0  0  0  0  0  0  0
  124.1280  137.0900   58.2720 C   0  0  0  0  0  0  0  0  0  0  0  0
  124.9360  137.5690   59.3390 O   0  0  0  0  0  0  0  0  0  0  0  0
  126.0350  136.8840   59.7490 C   0  0  0  0  0  0  0  0  0  0  0  0
  127.1810  137.3450   59.7030 O   0  0  0  0  0  0  0  0  0  0  0  0
  125.7170  135.5160   60.2810 C   0  0  0  0  0  0  0  0  0  0  0  0
  124.3960  135.0650   60.4230 C   0  0  0  0  0  0  0  0  0  0  0  0
  124.1340  133.7900   60.9140 C   0  0  0  0  0  0  0  0  0  0  0  0
  125.1820  132.9430   61.2810 C   0  0  0  0  0  0  0  0  0  0  0  0
  124.8030  131.6750   61.7620 N   0  0  0  0  0  0  0  0  0  0  0  0
  123.6350  131.2690   62.3060 C   0  0  0  0  0  0  0  0  0  0  0  0
  122.6380  131.9790   62.4540 O   0  0  0  0  0  0  0  0  0  0  0  0
  123.6060  129.7950   62.7290 C   0  0  0  0  0  0  0  0  0  0  0  0
  124.1090  129.6670   64.0640 O   0  0  0  0  0  0  0  0  0  0  0  0
  125.4740  129.5440   64.2850 C   0  0  0  0  0  0  0  0  0  0  0  0
  126.3170  129.8040   63.2470 N   0  0  0  0  0  0  0  0  0  0  0  0
  127.6570  129.6960   63.4300 C   0  0  0  0  0  0  0  0  0  0  0  0
  128.5200  129.9920   62.2450 C   0  0  0  0  0  0  0  0  0  0  0  0
  129.0670  131.2660   62.0590 C   0  0  0  0  0  0  0  0  0  0  0  0
  129.8770  131.5450   60.9610 C   0  0  0  0  0  0  0  0  0  0  0  0
  130.1810  130.5540   60.0130 C   0  0  0  0  0  0  0  0  0  0  0  0
  130.9820  130.8210   58.8980 N   0  0  0  0  0  0  0  0  0  0  0  0
  130.4680  131.5920   57.7470 C   0  0  0  0  0  0  0  0  0  0  0  0
  131.3470  131.4840   56.4830 C   0  0  0  0  0  0  0  0  0  0  0  0
  132.6820  131.8550   56.7860 O   0  0  0  0  0  0  0  0  0  0  0  0
  133.2430  131.0090   57.7780 C   0  0  0  0  0  0  0  0  0  0  0  0
  132.4210  131.1030   59.0810 C   0  0  0  0  0  0  0  0  0  0  0  0
  129.6120  129.2850   60.1930 C   0  0  0  0  0  0  0  0  0  0  0  0
  128.8010  129.0080   61.2890 C   0  0  0  0  0  0  0  0  0  0  0  0
  128.1880  129.3080   64.6630 C   0  0  0  0  0  0  0  0  0  0  0  0
  127.3430  129.0240   65.7440 C   0  0  0  0  0  0  0  0  0  0  0  0
  127.9690  128.5880   67.0290 C   0  0  0  0  0  0  0  0  0  0  0  0
  127.5620  127.4030   67.6460 C   0  0  0  0  0  0  0  0  0  0  0  0
  128.1270  127.0010   68.8530 C   0  0  0  0  0  0  0  0  0  0  0  0
  129.1050  127.7820   69.4870 C   0  0  0  0  0  0  0  0  0  0  0  0
  129.6880  127.3970   70.6980 N   0  0  0  0  0  0  0  0  0  0  0  0
  128.8650  126.9820   71.8500 C   0  0  0  0  0  0  0  0  0  0  0  0
  129.6710  126.2650   72.9540 C   0  0  0  0  0  0  0  0  0  0  0  0
  130.7520  127.0830   73.3740 O   0  0  0  0  0  0  0  0  0  0  0  0
  131.6360  127.3710   72.3020 C   0  0  0  0  0  0  0  0  0  0  0  0
  130.8830  128.1180   71.1820 C   0  0  0  0  0  0  0  0  0  0  0  0
  129.5120  128.9670   68.8580 C   0  0  0  0  0  0  0  0  0  0  0  0
  128.9490  129.3680   67.6500 C   0  0  0  0  0  0  0  0  0  0  0  0
  125.9490  129.1600   65.5520 C   0  0  0  0  0  0  0  0  0  0  0  0
  124.9930  128.9330   66.6380 C   0  0  0  0  0  0  0  0  0  0  0  0
  124.2380  128.7540   67.4970 N   0  0  0  0  0  0  0  0  0  0  0  0
  126.5050  133.3840   61.1350 C   0  0  0  0  0  0  0  0  0  0  0  0
  126.7650  134.6590   60.6400 C   0  0  0  0  0  0  0  0  0  0  0  0
  1  2  1  0
  2  3  1  0
  3  4  1  0
  4  5  2  0
  4  6  1  0
  6  7  2  0
  7  8  1  0
  8  9  2  0
  9 10  1  0
 10 11  1  0
 11 12  2  0
 11 13  1  0
 13 14  1  0
 14 15  1  0
 15 16  2  0
 16 17  1  0
 17 18  1  0
 18 19  2  0
 19 20  1  0
 20 21  2  0
 21 22  1  0
 22 23  1  0
 23 24  1  0
 24 25  1  0
 25 26  1  0
 26 27  1  0
 21 28  1  0
 28 29  2  0
 17 30  2  0
 30 31  1  0
 31 32  1  0
 32 33  2  0
 33 34  1  0
 34 35  2  0
 35 36  1  0
 36 37  1  0
 37 38  1  0
 38 39  1  0
 39 40  1  0
 40 41  1  0
 35 42  1  0
 42 43  2  0
 31 44  2  0
 44 45  1  0
 45 46  3  0
  9 47  1  0
 47 48  2  0
 48  6  1  0
 44 15  1  0
 29 18  1  0
 43 32  1  0
 27 22  1  0
 41 36  1  0
M  END
>  <Binding energies>  (9) 
[-8.73]

>  <Ligand effiencies>  (9) 
[-0.17816326530612245]

>  <Interactions>  (9) 
["V-A:ALA:541:CB:4892, V-B:ILE:369:CG2:8209, V-B:LEU:475:CD2:9231, V-A:PRO:540:CA:4883, V-A:ASP:366:CB:3212, V-A:GLU:543:CD:4908, V-B:ILE:369:CD1:8211, H-B:GLY:454:N:9022, H-B:TYR:484:OH:9320, V-A:GLU:543:CG:4907, H-A:TYR:531:OH:4795, V-A:TYR:539:CE1:4875, V-B:ARG:545:CZ:9898, V-B:ASP:366:CG:8185, V-A:TYR:539:CD1:4873, V-B:GLU:543:CD:9880, V-A:HIS:456:CD2:4068, V-A:HIS:456:CG:4066, V-B:LYS:547:CE:9922, V-A:HIS:456:CB:4065, V-A:PRO:540:CB:4885, V-A:LEU:363:CD1:3189, V-A:PRO:540:N:4884, V-A:TYR:539:CG:4872, V-A:GLY:544:CA:4914, V-A:GLU:543:C:4902, V-A:GLU:543:CA:4904, V-B:GLY:454:CA:9021, V-B:SER:385:CB:8381, V-B:SER:385:CA:8379, V-B:ARG:545:CD:9895, H-B:ARG:545:NE:9896, V-B:ARG:545:CG:9894, H-B:HIS:456:ND1:9039, V-B:TYR:484:CZ:9319, V-B:HIS:456:CE1:9042, H-B:ARG:545:NH2:9900, V-A:LEU:363:CA:3185, V-B:HIS:383:CD2:8364, V-B:GLY:453:C:9014, V-A:TYR:539:CB:4871, H-B:ARG:545:NH1:9899, V-B:GLY:453:CA:9016, V-A:GLU:543:CB:4906, H-B:SER:385:OG:8382, H-B:HIS:383:NE2:8366, V-A:HIS:456:CE1:4070, V-B:GLU:543:CB:9878, V-B:HIS:456:CD2:9040, V-A:GLY:544:C:4912, V-B:HIS:383:CG:8362, V-A:ILE:343:CD1:2994"]

$$$$
2b_Ghoteimi_2023
     RDKit          3D

 42 47  0  0  0  0  0  0  0  0999 V2000
  125.1730  130.4840   58.8360 N   0  0  0  0  0  0  0  0  0  0  0  0
  125.5060  130.1360   59.8880 C   0  0  0  0  0  0  0  0  0  0  0  0
  125.9290  129.6890   61.2190 C   0  0  0  0  0  0  0  0  0  0  0  0
  126.3450  128.3510   61.4300 C   0  0  0  0  0  0  0  0  0  0  0  0
  126.3890  127.3150   60.3560 C   0  0  0  0  0  0  0  0  0  0  0  0
  126.3700  125.9580   60.6840 C   0  0  0  0  0  0  0  0  0  0  0  0
  126.4120  124.9890   59.6860 C   0  0  0  0  0  0  0  0  0  0  0  0
  126.4920  125.3500   58.3320 C   0  0  0  0  0  0  0  0  0  0  0  0
  126.5230  124.3970   57.3130 N   0  0  0  0  0  0  0  0  0  0  0  0
  127.8200  123.8220   56.9040 C   0  0  0  0  0  0  0  0  0  0  0  0
  127.7640  123.0890   55.5470 C   0  0  0  0  0  0  0  0  0  0  0  0
  126.7500  122.0960   55.5700 O   0  0  0  0  0  0  0  0  0  0  0  0
  125.4710  122.6580   55.8200 C   0  0  0  0  0  0  0  0  0  0  0  0
  125.4680  123.3710   57.1880 C   0  0  0  0  0  0  0  0  0  0  0  0
  126.5140  126.7150   58.0130 C   0  0  0  0  0  0  0  0  0  0  0  0
  126.4680  127.6850   59.0100 C   0  0  0  0  0  0  0  0  0  0  0  0
  126.7450  127.9720   62.7180 C   0  0  0  0  0  0  0  0  0  0  0  0
  126.7610  128.9070   63.7570 C   0  0  0  0  0  0  0  0  0  0  0  0
  127.2080  128.5610   65.1420 C   0  0  0  0  0  0  0  0  0  0  0  0
  128.5390  128.7510   65.5310 C   0  0  0  0  0  0  0  0  0  0  0  0
  128.9580  128.4470   66.8230 C   0  0  0  0  0  0  0  0  0  0  0  0
  128.0640  127.9280   67.7730 C   0  0  0  0  0  0  0  0  0  0  0  0
  128.4630  127.6460   69.0840 N   0  0  0  0  0  0  0  0  0  0  0  0
  127.9660  126.4310   69.7600 C   0  0  0  0  0  0  0  0  0  0  0  0
  128.1630  126.4500   71.2920 C   0  0  0  0  0  0  0  0  0  0  0  0
  129.5280  126.6830   71.6030 O   0  0  0  0  0  0  0  0  0  0  0  0
  129.9710  127.9310   71.0950 C   0  0  0  0  0  0  0  0  0  0  0  0
  129.8260  127.9590   69.5590 C   0  0  0  0  0  0  0  0  0  0  0  0
  126.7300  127.7460   67.3810 C   0  0  0  0  0  0  0  0  0  0  0  0
  126.3110  128.0540   66.0900 C   0  0  0  0  0  0  0  0  0  0  0  0
  126.3640  130.1890   63.5520 N   0  0  0  0  0  0  0  0  0  0  0  0
  125.9410  130.5700   62.3240 C   0  0  0  0  0  0  0  0  0  0  0  0
  125.4530  132.2790   62.2370 S   0  0  0  0  0  0  0  0  0  0  0  0
  126.1890  132.9840   60.7310 C   0  0  0  0  0  0  0  0  0  0  0  0
  127.7130  133.0740   60.8230 C   0  0  0  0  0  0  0  0  0  0  0  0
  128.2450  134.1740   60.9840 O   0  0  0  0  0  0  0  0  0  0  0  0
  128.3730  131.9000   60.7120 N   0  0  0  0  0  0  0  0  0  0  0  0
  129.7440  131.6960   60.7710 C   0  0  0  0  0  0  0  0  0  0  0  0
  130.4900  131.2230   59.6920 C   0  0  0  0  0  0  0  0  0  0  0  0
  131.7850  131.1620   60.1510 C   0  0  0  0  0  0  0  0  0  0  0  0
  131.8180  131.5770   61.4390 O   0  0  0  0  0  0  0  0  0  0  0  0
  130.5170  131.9160   61.8220 N   0  0  0  0  0  0  0  0  0  0  0  0
  1  2  3  0
  2  3  1  0
  3  4  2  0
  4  5  1  0
  5  6  2  0
  6  7  1  0
  7  8  2  0
  8  9  1  0
  9 10  1  0
 10 11  1  0
 11 12  1  0
 12 13  1  0
 13 14  1  0
  8 15  1  0
 15 16  2  0
  4 17  1  0
 17 18  2  0
 18 19  1  0
 19 20  2  0
 20 21  1  0
 21 22  2  0
 22 23  1  0
 23 24  1  0
 24 25  1  0
 25 26  1  0
 26 27  1  0
 27 28  1  0
 22 29  1  0
 29 30  2  0
 18 31  1  0
 31 32  2  0
 32 33  1  0
 33 34  1  0
 34 35  1  0
 35 36  2  0
 35 37  1  0
 37 38  1  0
 38 39  1  0
 39 40  2  0
 40 41  1  0
 41 42  1  0
 32  3  1  0
 42 38  2  0
 16  5  1  0
 30 19  1  0
 14  9  1  0
 28 23  1  0
M  END
>  <Binding energies>  (10) 
[-9.05]

>  <Ligand effiencies>  (10) 
[-0.21046511627906977]

>  <Interactions>  (10) 
["V-A:ALA:541:CB:4892, V-B:MET:535:CE:9807, V-A:PRO:540:CA:4883, V-A:GLU:543:CD:4908, V-B:TYR:539:CZ:9849, H-A:ALA:541:N:4891, H-B:TYR:484:OH:9320, V-A:GLU:543:CG:4907, V-B:TYR:539:CD1:9845, V-B:TYR:539:CE1:9847, V-B:ASP:366:CG:8185, H-B:TYR:539:N:9842, V-B:PRO:540:CB:9857, V-B:TYR:531:CE2:9765, V-B:GLU:543:CD:9880, V-B:ILE:538:CA:9832, V-B:ILE:538:CD1:9837, V-A:HIS:456:CD2:4068, V-A:PRO:540:CB:4885, V-B:ILE:538:CG2:9835, V-B:ARG:545:CG:9894, V-B:HIS:456:CE1:9042, V-A:GLU:543:CB:4906, V-A:HIS:456:CE1:4070, V-B:GLU:543:CB:9878, V-B:HIS:456:CD2:9040, V-B:GLY:544:C:9884, V-B:GLU:543:C:9874"]

$$$$
2c_Ghoteimi_2023
     RDKit          3D

 42 47  0  0  0  0  0  0  0  0999 V2000
  125.3280  130.4010   58.5440 N   0  0  0  0  0  0  0  0  0  0  0  0
  125.6380  130.0580   59.6050 C   0  0  0  0  0  0  0  0  0  0  0  0
  126.0330  129.6180   60.9460 C   0  0  0  0  0  0  0  0  0  0  0  0
  126.4390  128.2800   61.1770 C   0  0  0  0  0  0  0  0  0  0  0  0
  126.4950  127.2330   60.1130 C   0  0  0  0  0  0  0  0  0  0  0  0
  126.3750  125.8830   60.4480 C   0  0  0  0  0  0  0  0  0  0  0  0
  126.4220  124.9020   59.4620 C   0  0  0  0  0  0  0  0  0  0  0  0
  126.6060  125.2420   58.1120 C   0  0  0  0  0  0  0  0  0  0  0  0
  126.6360  124.2750   57.1040 N   0  0  0  0  0  0  0  0  0  0  0  0
  127.9310  123.6920   56.7010 C   0  0  0  0  0  0  0  0  0  0  0  0
  127.8710  122.9510   55.3490 C   0  0  0  0  0  0  0  0  0  0  0  0
  126.8570  121.9580   55.3830 O   0  0  0  0  0  0  0  0  0  0  0  0
  125.5790  122.5220   55.6290 C   0  0  0  0  0  0  0  0  0  0  0  0
  125.5780  123.2530   56.9880 C   0  0  0  0  0  0  0  0  0  0  0  0
  126.7300  126.6000   57.7860 C   0  0  0  0  0  0  0  0  0  0  0  0
  126.6800  127.5810   58.7720 C   0  0  0  0  0  0  0  0  0  0  0  0
  126.8100  127.9100   62.4760 C   0  0  0  0  0  0  0  0  0  0  0  0
  126.8030  128.8510   63.5100 C   0  0  0  0  0  0  0  0  0  0  0  0
  127.2060  128.5110   64.9080 C   0  0  0  0  0  0  0  0  0  0  0  0
  128.5420  128.6080   65.3100 C   0  0  0  0  0  0  0  0  0  0  0  0
  128.9240  128.2970   66.6130 C   0  0  0  0  0  0  0  0  0  0  0  0
  127.9820  127.8660   67.5610 C   0  0  0  0  0  0  0  0  0  0  0  0
  128.3440  127.5750   68.8810 N   0  0  0  0  0  0  0  0  0  0  0  0
  127.8640  126.3310   69.5180 C   0  0  0  0  0  0  0  0  0  0  0  0
  128.0090  126.3270   71.0540 C   0  0  0  0  0  0  0  0  0  0  0  0
  129.3540  126.5910   71.4160 O   0  0  0  0  0  0  0  0  0  0  0  0
  129.7790  127.8610   70.9460 C   0  0  0  0  0  0  0  0  0  0  0  0
  129.6820  127.9150   69.4060 C   0  0  0  0  0  0  0  0  0  0  0  0
  126.6420  127.7820   67.1570 C   0  0  0  0  0  0  0  0  0  0  0  0
  126.2620  128.0950   65.8540 C   0  0  0  0  0  0  0  0  0  0  0  0
  126.4160  130.1330   63.2860 N   0  0  0  0  0  0  0  0  0  0  0  0
  126.0230  130.5070   62.0450 C   0  0  0  0  0  0  0  0  0  0  0  0
  125.5400  132.2150   61.9360 S   0  0  0  0  0  0  0  0  0  0  0  0
  126.8880  133.1120   61.1080 C   0  0  0  0  0  0  0  0  0  0  0  0
  128.2390  132.4210   61.2990 C   0  0  0  0  0  0  0  0  0  0  0  0
  128.4590  131.8030   62.3420 O   0  0  0  0  0  0  0  0  0  0  0  0
  129.1110  132.5540   60.2760 N   0  0  0  0  0  0  0  0  0  0  0  0
  130.3860  132.0130   60.1980 C   0  0  0  0  0  0  0  0  0  0  0  0
  131.2500  131.8370   61.1730 N   0  0  0  0  0  0  0  0  0  0  0  0
  132.3670  131.2880   60.7390 C   0  0  0  0  0  0  0  0  0  0  0  0
  132.4250  131.0060   59.3770 C   0  0  0  0  0  0  0  0  0  0  0  0
  130.9290  131.4900   58.6360 S   0  0  0  0  0  0  0  0  0  0  0  0
  1  2  3  0
  2  3  1  0
  3  4  2  0
  4  5  1  0
  5  6  2  0
  6  7  1  0
  7  8  2  0
  8  9  1  0
  9 10  1  0
 10 11  1  0
 11 12  1  0
 12 13  1  0
 13 14  1  0
  8 15  1  0
 15 16  2  0
  4 17  1  0
 17 18  2  0
 18 19  1  0
 19 20  2  0
 20 21  1  0
 21 22  2  0
 22 23  1  0
 23 24  1  0
 24 25  1  0
 25 26  1  0
 26 27  1  0
 27 28  1  0
 22 29  1  0
 29 30  2  0
 18 31  1  0
 31 32  2  0
 32 33  1  0
 33 34  1  0
 34 35  1  0
 35 36  2  0
 35 37  1  0
 37 38  1  0
 38 39  2  0
 39 40  1  0
 40 41  2  0
 41 42  1  0
 32  3  1  0
 42 38  1  0
 16  5  1  0
 30 19  1  0
 14  9  1  0
 28 23  1  0
M  END
>  <Binding energies>  (11) 
[-8.92]

>  <Ligand effiencies>  (11) 
[-0.20744186046511628]

>  <Interactions>  (11) 
["V-A:ALA:541:CB:4892, V-A:ASP:366:CG:3213, V-B:MET:535:CE:9807, V-B:LEU:475:CD2:9231, V-A:PRO:540:CA:4883, V-B:TYR:539:CE2:9848, V-A:GLU:543:CD:4908, V-B:TYR:539:CZ:9849, H-A:ALA:541:N:4891, H-B:TYR:484:OH:9320, V-A:GLU:543:CG:4907, V-B:ARG:545:CZ:9898, V-B:TYR:539:CD1:9845, V-B:TYR:539:CG:9844, V-B:TYR:539:CE1:9847, V-B:ASP:366:CG:8185, H-B:TYR:539:N:9842, V-A:PRO:540:C:4881, V-B:GLU:543:CD:9880, V-B:ILE:538:CA:9832, V-B:ILE:538:CD1:9837, V-A:HIS:456:CD2:4068, V-A:PRO:540:CB:4885, V-B:ILE:538:CG2:9835, V-B:ARG:545:CG:9894, V-B:HIS:456:CE1:9042, H-A:TYR:539:O:4868, V-B:ILE:538:CB:9834, V-A:GLU:543:CB:4906, V-A:HIS:456:CE1:4070, V-B:GLU:543:CB:9878, V-B:HIS:456:CD2:9040, V-B:GLY:544:C:9884, V-B:GLU:543:C:9874"]

$$$$
2j_Grossjean_2025
     RDKit          3D

 23 24  0  0  0  0  0  0  0  0999 V2000
  129.9200  125.7220   58.2440 C   0  0  0  0  0  0  0  0  0  0  0  0
  130.0360  124.5940   59.2510 C   0  0  0  0  0  0  0  0  0  0  0  0
  131.2550  123.9760   59.5170 C   0  0  0  0  0  0  0  0  0  0  0  0
  131.3120  122.9390   60.4600 C   0  0  0  0  0  0  0  0  0  0  0  0
  132.6690  122.2660   60.7430 C   0  0  0  0  0  0  0  0  0  0  0  0
  132.9230  122.2840   62.0520 F   0  0  0  0  0  0  0  0  0  0  0  0
  132.6480  121.0010   60.3230 F   0  0  0  0  0  0  0  0  0  0  0  0
  133.6850  122.8760   60.1280 F   0  0  0  0  0  0  0  0  0  0  0  0
  130.1150  122.5530   61.1150 C   0  0  0  0  0  0  0  0  0  0  0  0
  130.1160  121.4750   62.1090 C   0  0  0  0  0  0  0  0  0  0  0  0
  130.1170  120.6250   62.8940 N   0  0  0  0  0  0  0  0  0  0  0  0
  128.9200  123.2350   60.7830 C   0  0  0  0  0  0  0  0  0  0  0  0
  127.3550  122.8340   61.5450 S   0  0  0  0  0  0  0  0  0  0  0  0
  126.0800  123.9460   60.8590 C   0  0  0  0  0  0  0  0  0  0  0  0
  125.6420  123.6180   59.4240 C   0  0  0  0  0  0  0  0  0  0  0  0
  124.4510  123.6550   59.1050 O   0  0  0  0  0  0  0  0  0  0  0  0
  126.6490  123.2860   58.5860 N   0  0  0  0  0  0  0  0  0  0  0  0
  126.5350  122.9480   57.2440 C   0  0  0  0  0  0  0  0  0  0  0  0
  125.5750  122.2610   56.6640 N   0  0  0  0  0  0  0  0  0  0  0  0
  125.7870  122.1290   55.3690 C   0  0  0  0  0  0  0  0  0  0  0  0
  126.9450  122.7180   54.8720 C   0  0  0  0  0  0  0  0  0  0  0  0
  127.7960  123.4850   56.1800 S   0  0  0  0  0  0  0  0  0  0  0  0
  128.8870  124.2380   59.8690 N   0  0  0  0  0  0  0  0  0  0  0  0
  1  2  1  0
  2  3  2  0
  3  4  1  0
  4  5  1  0
  5  6  1  0
  5  7  1  0
  5  8  1  0
  4  9  2  0
  9 10  1  0
 10 11  3  0
  9 12  1  0
 12 13  1  0
 13 14  1  0
 14 15  1  0
 15 16  2  0
 15 17  1  0
 17 18  1  0
 18 19  2  0
 19 20  1  0
 20 21  2  0
 21 22  1  0
 12 23  2  0
 23  2  1  0
 22 18  1  0
M  END
>  <Binding energies>  (12) 
[-5.85]

>  <Ligand effiencies>  (12) 
[-0.24375]

>  <Interactions>  (12) 
["V-A:ILE:369:CB:3236, V-B:MET:535:CE:9807, V-B:TYR:539:CE2:9848, V-B:TYR:539:CZ:9849, V-A:ILE:369:CG2:3237, V-B:TYR:539:CD2:9846, V-A:LEU:475:CD2:4259, V-B:TYR:539:CD1:9845, V-A:TYR:484:CZ:4347, V-B:TYR:539:CE1:9847, V-B:TYR:539:C:9839, V-A:TYR:484:CE1:4345, H-B:TYR:539:N:9842, V-B:PRO:540:CB:9857, V-B:PRO:540:CA:9855, H-B:ALA:541:N:9863, V-B:PRO:540:N:9856, V-A:ILE:369:CD1:3239, V-B:ILE:538:CA:9832, V-B:ILE:538:CD1:9837, V-B:PRO:540:CD:9859, V-B:ALA:541:CB:9864, V-B:ILE:538:CG2:9835, H-A:TYR:484:OH:4348, V-B:ILE:538:C:9830, V-B:ILE:538:CB:9834, V-A:GLY:454:CA:4049, V-B:ILE:538:CG1:9836"]

$$$$
3ab_Grossjean_2025
     RDKit          3D

 33 35  0  0  0  0  0  0  0  0999 V2000
  124.2830  131.8340   62.5260 C   0  0  0  0  0  0  0  0  0  0  0  0
  124.4710  131.2780   63.8210 O   0  0  0  0  0  0  0  0  0  0  0  0
  124.6120  129.9390   63.9920 C   0  0  0  0  0  0  0  0  0  0  0  0
  123.8200  129.2490   64.6400 O   0  0  0  0  0  0  0  0  0  0  0  0
  125.8280  129.3790   63.3110 C   0  0  0  0  0  0  0  0  0  0  0  0
  125.7410  128.6650   62.1060 C   0  0  0  0  0  0  0  0  0  0  0  0
  126.8850  128.1570   61.4970 C   0  0  0  0  0  0  0  0  0  0  0  0
  128.1430  128.3550   62.0860 C   0  0  0  0  0  0  0  0  0  0  0  0
  129.3630  127.8930   61.5570 N   0  0  0  0  0  0  0  0  0  0  0  0
  129.6140  127.2340   60.4060 C   0  0  0  0  0  0  0  0  0  0  0  0
  128.7690  126.8910   59.5790 O   0  0  0  0  0  0  0  0  0  0  0  0
  131.0850  126.9020   60.1480 C   0  0  0  0  0  0  0  0  0  0  0  0
  131.2850  125.6330   58.8610 S   0  0  0  0  0  0  0  0  0  0  0  0
  130.2160  124.2730   59.2810 C   0  0  0  0  0  0  0  0  0  0  0  0
  129.1800  124.1140   58.4230 N   0  0  0  0  0  0  0  0  0  0  0  0
  128.2870  123.1090   58.6190 C   0  0  0  0  0  0  0  0  0  0  0  0
  127.1720  122.9990   57.6230 C   0  0  0  0  0  0  0  0  0  0  0  0
  127.4330  122.6590   56.2860 C   0  0  0  0  0  0  0  0  0  0  0  0
  126.4020  122.5550   55.3570 C   0  0  0  0  0  0  0  0  0  0  0  0
  125.0890  122.7910   55.7530 C   0  0  0  0  0  0  0  0  0  0  0  0
  124.8030  123.1330   57.0710 C   0  0  0  0  0  0  0  0  0  0  0  0
  125.8370  123.2370   57.9960 C   0  0  0  0  0  0  0  0  0  0  0  0
  128.4110  122.2460   59.7140 C   0  0  0  0  0  0  0  0  0  0  0  0
  129.4630  122.4030   60.6270 C   0  0  0  0  0  0  0  0  0  0  0  0
  129.5600  121.4350   61.8220 C   0  0  0  0  0  0  0  0  0  0  0  0
  130.8060  121.0090   62.0430 F   0  0  0  0  0  0  0  0  0  0  0  0
  129.1400  122.0350   62.9360 F   0  0  0  0  0  0  0  0  0  0  0  0
  128.8020  120.3600   61.5990 F   0  0  0  0  0  0  0  0  0  0  0  0
  130.3930  123.4510   60.4160 C   0  0  0  0  0  0  0  0  0  0  0  0
  131.4780  123.6940   61.3700 C   0  0  0  0  0  0  0  0  0  0  0  0
  132.3340  123.8830   62.1260 N   0  0  0  0  0  0  0  0  0  0  0  0
  128.2330  129.0700   63.2820 C   0  0  0  0  0  0  0  0  0  0  0  0
  127.0880  129.5750   63.8900 C   0  0  0  0  0  0  0  0  0  0  0  0
  1  2  1  0
  2  3  1  0
  3  4  2  0
  3  5  1  0
  5  6  2  0
  6  7  1  0
  7  8  2  0
  8  9  1  0
  9 10  1  0
 10 11  2  0
 10 12  1  0
 12 13  1  0
 13 14  1  0
 14 15  2  0
 15 16  1  0
 16 17  1  0
 17 18  2  0
 18 19  1  0
 19 20  2  0
 20 21  1  0
 21 22  2  0
 16 23  2  0
 23 24  1  0
 24 25  1  0
 25 26  1  0
 25 27  1  0
 25 28  1  0
 24 29  2  0
 29 30  1  0
 30 31  3  0
  8 32  1  0
 32 33  2  0
 33  5  1  0
 29 14  1  0
 22 17  1  0
M  END
>  <Binding energies>  (13) 
[-8.13]

>  <Ligand effiencies>  (13) 
[-0.23911764705882355]

>  <Interactions>  (13) 
["V-A:ASP:366:CG:3213, V-B:MET:535:CE:9807, V-B:TYR:539:CE2:9848, V-A:GLU:543:CD:4908, V-B:TYR:539:CZ:9849, H-B:GLY:454:N:9022, H-B:TYR:484:OH:9320, V-A:GLU:543:CG:4907, V-B:ARG:545:CZ:9898, V-B:TYR:539:CD2:9846, V-A:LEU:475:CD2:4259, V-B:TYR:539:CD1:9845, V-B:TYR:539:CG:9844, V-A:TYR:484:CZ:4347, V-B:TYR:539:CE1:9847, V-B:TYR:539:C:9839, V-A:TYR:484:CE1:4345, V-B:ASP:366:CG:8185, V-B:PRO:540:CB:9857, V-B:PRO:540:CA:9855, V-B:PRO:540:N:9856, V-B:LEU:363:CD1:8161, V-B:TYR:531:CZ:9766, V-B:TYR:531:CE2:9765, V-B:ILE:538:CA:9832, V-B:ILE:538:CD1:9837, V-B:PRO:540:C:9853, H-A:GLU:543:OE1:4909, V-B:GLU:543:CG:9879, V-B:PRO:540:CD:9859, H-A:GLU:543:OE2:4910, V-B:ALA:541:CB:9864, V-B:ILE:538:CG2:9835, V-B:GLY:454:CA:9021, H-A:TYR:484:OH:4348, V-B:ILE:538:C:9830, H-B:ARG:545:NE:9896, H-B:ARG:545:NH2:9900, H-B:ARG:545:NH1:9899, V-B:ALA:541:CA:9862"]

$$$$
3ac_Grossjean_2025
     RDKit          3D

 31 33  0  0  0  0  0  0  0  0999 V2000
  125.2190  130.0310   55.9890 C   0  0  0  0  0  0  0  0  0  0  0  0
  126.1320  129.5550   55.0050 O   0  0  0  0  0  0  0  0  0  0  0  0
  127.2510  128.8510   55.4080 C   0  0  0  0  0  0  0  0  0  0  0  0
  127.1130  128.0600   56.5480 C   0  0  0  0  0  0  0  0  0  0  0  0
  128.1840  127.3130   57.0260 C   0  0  0  0  0  0  0  0  0  0  0  0
  129.4180  127.3530   56.3730 C   0  0  0  0  0  0  0  0  0  0  0  0
  130.4350  126.5480   56.9190 N   0  0  0  0  0  0  0  0  0  0  0  0
  131.6260  126.2020   56.3840 C   0  0  0  0  0  0  0  0  0  0  0  0
  132.0560  126.5870   55.2960 O   0  0  0  0  0  0  0  0  0  0  0  0
  132.4800  125.2580   57.2310 C   0  0  0  0  0  0  0  0  0  0  0  0
  132.1120  125.4040   59.0070 S   0  0  0  0  0  0  0  0  0  0  0  0
  130.8590  124.2100   59.4320 C   0  0  0  0  0  0  0  0  0  0  0  0
  129.8540  124.1470   58.5250 N   0  0  0  0  0  0  0  0  0  0  0  0
  128.8280  123.2760   58.7120 C   0  0  0  0  0  0  0  0  0  0  0  0
  127.7530  123.2740   57.6660 C   0  0  0  0  0  0  0  0  0  0  0  0
  128.0790  123.2170   56.3010 C   0  0  0  0  0  0  0  0  0  0  0  0
  127.0860  123.2080   55.3260 C   0  0  0  0  0  0  0  0  0  0  0  0
  125.7480  123.2590   55.7030 C   0  0  0  0  0  0  0  0  0  0  0  0
  125.3980  123.3220   57.0470 C   0  0  0  0  0  0  0  0  0  0  0  0
  126.3940  123.3300   58.0200 C   0  0  0  0  0  0  0  0  0  0  0  0
  128.7840  122.4520   59.8400 C   0  0  0  0  0  0  0  0  0  0  0  0
  129.8000  122.5140   60.8050 C   0  0  0  0  0  0  0  0  0  0  0  0
  129.7100  121.5910   62.0370 C   0  0  0  0  0  0  0  0  0  0  0  0
  129.1140  122.1760   63.0790 F   0  0  0  0  0  0  0  0  0  0  0  0
  129.0070  120.4960   61.7420 F   0  0  0  0  0  0  0  0  0  0  0  0
  130.9340  121.2290   62.4220 F   0  0  0  0  0  0  0  0  0  0  0  0
  130.8660  123.4280   60.6100 C   0  0  0  0  0  0  0  0  0  0  0  0
  131.9080  123.5830   61.6260 C   0  0  0  0  0  0  0  0  0  0  0  0
  132.7310  123.7060   62.4310 N   0  0  0  0  0  0  0  0  0  0  0  0
  129.5630  128.1410   55.2210 C   0  0  0  0  0  0  0  0  0  0  0  0
  128.4890  128.8870   54.7450 C   0  0  0  0  0  0  0  0  0  0  0  0
  1  2  1  0
  2  3  1  0
  3  4  2  0
  4  5  1  0
  5  6  2  0
  6  7  1  0
  7  8  1  0
  8  9  2  0
  8 10  1  0
 10 11  1  0
 11 12  1  0
 12 13  2  0
 13 14  1  0
 14 15  1  0
 15 16  2  0
 16 17  1  0
 17 18  2  0
 18 19  1  0
 19 20  2  0
 14 21  2  0
 21 22  1  0
 22 23  1  0
 23 24  1  0
 23 25  1  0
 23 26  1  0
 22 27  2  0
 27 28  1  0
 28 29  3  0
  6 30  1  0
 30 31  2  0
 31  3  1  0
 27 12  1  0
 20 15  1  0
M  END
>  <Binding energies>  (14) 
[-7.93]

>  <Ligand effiencies>  (14) 
[-0.2478125]

>  <Interactions>  (14) 
["V-A:ASP:366:CA:3210, V-A:TYR:539:CZ:4877, V-B:MET:535:CE:9807, V-B:TYR:539:CE2:9848, V-A:ASP:366:CB:3212, H-B:LYS:534:NZ:9795, V-B:TYR:539:CZ:9849, H-A:TYR:531:OH:4795, V-B:TYR:539:CD2:9846, V-A:LEU:475:CD2:4259, V-B:TYR:539:CD1:9845, V-B:TYR:539:CG:9844, V-A:TYR:484:CZ:4347, V-B:TYR:539:CE1:9847, H-B:TYR:539:OH:9850, V-B:TYR:539:C:9839, V-A:TYR:484:CE1:4345, V-B:PRO:540:CB:9857, V-B:PRO:540:CA:9855, V-B:PRO:540:N:9856, V-B:TYR:531:CZ:9766, V-B:TYR:531:CE2:9765, V-B:GLU:543:CD:9880, V-B:ILE:538:CD1:9837, V-B:PRO:540:C:9853, V-B:GLU:543:CG:9879, V-B:ALA:541:CB:9864, H-A:GLY:454:N:4050, H-A:TYR:484:OH:4348, V-B:TYR:531:CE1:9764, V-A:MET:535:CE:4835, V-B:ALA:541:CA:9862"]

$$$$
3af_Grossjean_2025
     RDKit          3D

 29 31  0  0  0  0  0  0  0  0999 V2000
  130.7880  125.4540   62.4620 N   0  0  0  0  0  0  0  0  0  0  0  0
  130.8810  124.3570   62.1030 C   0  0  0  0  0  0  0  0  0  0  0  0
  131.0000  122.9690   61.6490 C   0  0  0  0  0  0  0  0  0  0  0  0
  132.1640  122.5270   60.9750 C   0  0  0  0  0  0  0  0  0  0  0  0
  133.3780  123.4420   60.7230 C   0  0  0  0  0  0  0  0  0  0  0  0
  134.0580  123.7210   61.8380 F   0  0  0  0  0  0  0  0  0  0  0  0
  134.2230  122.8550   59.8740 F   0  0  0  0  0  0  0  0  0  0  0  0
  132.9770  124.6020   60.2020 F   0  0  0  0  0  0  0  0  0  0  0  0
  132.2090  121.2030   60.5110 C   0  0  0  0  0  0  0  0  0  0  0  0
  131.1220  120.3470   60.7130 C   0  0  0  0  0  0  0  0  0  0  0  0
  131.1090  118.9300   60.2220 C   0  0  0  0  0  0  0  0  0  0  0  0
  130.2040  117.9950   60.7520 C   0  0  0  0  0  0  0  0  0  0  0  0
  130.1860  116.6790   60.2980 C   0  0  0  0  0  0  0  0  0  0  0  0
  131.0740  116.2790   59.3050 C   0  0  0  0  0  0  0  0  0  0  0  0
  131.9770  117.1860   58.7610 C   0  0  0  0  0  0  0  0  0  0  0  0
  131.9920  118.5010   59.2170 C   0  0  0  0  0  0  0  0  0  0  0  0
  130.0060  120.7760   61.3570 N   0  0  0  0  0  0  0  0  0  0  0  0
  129.9480  122.0430   61.8340 C   0  0  0  0  0  0  0  0  0  0  0  0
  128.4150  122.4160   62.6600 S   0  0  0  0  0  0  0  0  0  0  0  0
  127.6420  123.8200   61.8020 C   0  0  0  0  0  0  0  0  0  0  0  0
  126.6460  123.3590   60.7390 C   0  0  0  0  0  0  0  0  0  0  0  0
  125.5430  122.9420   61.0920 O   0  0  0  0  0  0  0  0  0  0  0  0
  127.0810  123.4440   59.4630 N   0  0  0  0  0  0  0  0  0  0  0  0
  126.4260  123.0980   58.2650 C   0  0  0  0  0  0  0  0  0  0  0  0
  125.0550  123.2740   57.9990 C   0  0  0  0  0  0  0  0  0  0  0  0
  124.5360  122.8820   56.7630 C   0  0  0  0  0  0  0  0  0  0  0  0
  125.4010  122.3230   55.8220 C   0  0  0  0  0  0  0  0  0  0  0  0
  126.7250  122.1440   56.0530 N   0  0  0  0  0  0  0  0  0  0  0  0
  127.2140  122.5300   57.2590 C   0  0  0  0  0  0  0  0  0  0  0  0
  1  2  3  0
  2  3  1  0
  3  4  2  0
  4  5  1  0
  5  6  1  0
  5  7  1  0
  5  8  1  0
  4  9  1  0
  9 10  2  0
 10 11  1  0
 11 12  2  0
 12 13  1  0
 13 14  2  0
 14 15  1  0
 15 16  2  0
 10 17  1  0
 17 18  2  0
 18 19  1  0
 19 20  1  0
 20 21  1  0
 21 22  2  0
 21 23  1  0
 23 24  1  0
 24 25  2  0
 25 26  1  0
 26 27  2  0
 27 28  1  0
 28 29  2  0
 18  3  1  0
 29 24  1  0
 16 11  1  0
M  END
>  <Binding energies>  (15) 
[-9.15]

>  <Ligand effiencies>  (15) 
[-0.305]

>  <Interactions>  (15) 
["V-A:ILE:369:CB:3236, V-A:ASP:366:CG:3213, V-B:TYR:539:CE2:9848, V-A:ILE:369:CG2:3237, V-B:TYR:539:CD2:9846, V-A:LEU:475:CD2:4259, V-B:TYR:539:CG:9844, V-B:TYR:539:C:9839, H-B:TYR:539:N:9842, V-B:PRO:540:CB:9857, V-B:PRO:540:CA:9855, H-B:ALA:541:N:9863, V-B:PRO:540:N:9856, V-A:ILE:369:CD1:3239, V-B:LEU:363:CD1:8161, V-B:TYR:531:CE2:9765, V-B:GLU:543:CD:9880, V-B:ILE:538:CA:9832, V-B:ILE:538:CD1:9837, V-B:TYR:539:CA:9841, V-B:PRO:540:CD:9859, V-B:TYR:539:CB:9843, V-A:LEU:475:CD1:4258, V-B:ILE:538:CG2:9835, H-A:TYR:484:OH:4348, V-B:ILE:538:C:9830, V-A:SER:385:CB:3409, V-B:ILE:538:CB:9834, V-A:LEU:373:CD1:3280, V-A:PRO:482:CB:4326, V-A:HIS:383:CE1:3394, V-A:PRO:482:CG:4327, V-A:LEU:373:CD2:3281, V-A:GLY:454:CA:4049, V-A:GLY:453:C:4042, V-A:ILE:369:CG1:3238"]

$$$$
3ag_Grossjean_2025
     RDKit          3D

 30 32  0  0  0  0  0  0  0  0999 V2000
  132.2170  125.1910   61.5680 N   0  0  0  0  0  0  0  0  0  0  0  0
  131.3830  124.8690   60.8320 C   0  0  0  0  0  0  0  0  0  0  0  0
  130.3300  124.4630   59.8970 C   0  0  0  0  0  0  0  0  0  0  0  0
  130.4390  124.7510   58.5140 C   0  0  0  0  0  0  0  0  0  0  0  0
  131.6730  125.4440   57.9030 C   0  0  0  0  0  0  0  0  0  0  0  0
  131.9680  126.5990   58.5030 F   0  0  0  0  0  0  0  0  0  0  0  0
  132.7390  124.6500   58.0130 F   0  0  0  0  0  0  0  0  0  0  0  0
  131.4610  125.7070   56.6130 F   0  0  0  0  0  0  0  0  0  0  0  0
  129.3800  124.3890   57.6680 C   0  0  0  0  0  0  0  0  0  0  0  0
  128.2390  123.7690   58.1890 C   0  0  0  0  0  0  0  0  0  0  0  0
  127.0790  123.3630   57.3320 C   0  0  0  0  0  0  0  0  0  0  0  0
  125.7720  123.3700   57.8460 C   0  0  0  0  0  0  0  0  0  0  0  0
  124.6890  122.9940   57.0560 C   0  0  0  0  0  0  0  0  0  0  0  0
  124.8990  122.6060   55.7360 C   0  0  0  0  0  0  0  0  0  0  0  0
  126.1840  122.5880   55.2040 C   0  0  0  0  0  0  0  0  0  0  0  0
  127.2640  122.9630   55.9970 C   0  0  0  0  0  0  0  0  0  0  0  0
  128.1440  123.4830   59.5130 N   0  0  0  0  0  0  0  0  0  0  0  0
  129.1630  123.8050   60.3460 C   0  0  0  0  0  0  0  0  0  0  0  0
  128.8660  123.3540   62.0410 S   0  0  0  0  0  0  0  0  0  0  0  0
  129.0730  121.5520   62.1660 C   0  0  0  0  0  0  0  0  0  0  0  0
  130.4030  121.0810   61.5750 C   0  0  0  0  0  0  0  0  0  0  0  0
  131.4270  121.7400   61.7650 O   0  0  0  0  0  0  0  0  0  0  0  0
  130.3710  119.9380   60.8690 N   0  0  0  0  0  0  0  0  0  0  0  0
  131.5270  119.2900   60.2500 C   0  0  0  0  0  0  0  0  0  0  0  0
  131.1890  118.0170   59.4810 C   0  0  0  0  0  0  0  0  0  0  0  0
  130.0710  117.2620   59.8460 C   0  0  0  0  0  0  0  0  0  0  0  0
  129.7420  116.1150   59.1280 C   0  0  0  0  0  0  0  0  0  0  0  0
  130.5260  115.7320   58.0420 C   0  0  0  0  0  0  0  0  0  0  0  0
  131.6340  116.4880   57.6640 C   0  0  0  0  0  0  0  0  0  0  0  0
  131.9630  117.6360   58.3810 C   0  0  0  0  0  0  0  0  0  0  0  0
  1  2  3  0
  2  3  1  0
  3  4  2  0
  4  5  1  0
  5  6  1  0
  5  7  1  0
  5  8  1  0
  4  9  1  0
  9 10  2  0
 10 11  1  0
 11 12  2  0
 12 13  1  0
 13 14  2  0
 14 15  1  0
 15 16  2  0
 10 17  1  0
 17 18  2  0
 18 19  1  0
 19 20  1  0
 20 21  1  0
 21 22  2  0
 21 23  1  0
 23 24  1  0
 24 25  1  0
 25 26  2  0
 26 27  1  0
 27 28  2  0
 28 29  1  0
 29 30  2  0
 18  3  1  0
 30 25  1  0
 16 11  1  0
M  END
>  <Binding energies>  (16) 
[-9.32]

>  <Ligand effiencies>  (16) 
[-0.3006451612903226]

>  <Interactions>  (16) 
["V-A:ASP:366:CA:3210, V-A:ASP:366:CG:3213, V-B:MET:535:CE:9807, V-B:TYR:539:CE2:9848, V-A:ASP:366:CB:3212, V-B:TYR:539:CZ:9849, V-B:TYR:539:CD2:9846, V-A:LEU:475:CD2:4259, V-B:TYR:539:CD1:9845, V-B:TYR:539:CG:9844, V-B:TYR:539:CE1:9847, V-B:TYR:539:C:9839, V-A:TYR:484:CE1:4345, V-B:PRO:540:CB:9857, V-B:PRO:540:CA:9855, V-B:PRO:540:N:9856, V-B:LEU:363:CD1:8161, V-B:TYR:531:CZ:9766, V-B:TYR:531:CE2:9765, V-B:ILE:538:CA:9832, V-B:ILE:538:CD1:9837, V-B:TYR:539:CA:9841, V-B:PRO:540:CD:9859, V-B:TYR:539:CB:9843, V-B:ALA:541:CB:9864, V-B:ILE:538:CG2:9835, H-A:TYR:484:OH:4348, V-B:ILE:538:C:9830, H-B:TYR:539:O:9840, H-A:ARG:545:NH2:4928, V-A:SER:385:CB:3409, V-B:ILE:538:CB:9834, V-B:VAL:344:CG2:7974, V-B:VAL:344:CG1:7973, V-A:LEU:373:CD1:3280, V-A:PRO:482:CB:4326, V-A:HIS:383:CE1:3394, V-A:PRO:482:CG:4327, V-A:LEU:373:CD2:3281, V-B:ILE:343:CG2:7964, V-B:ILE:343:CB:7963"]

$$$$
3bc_Grossjean_2025
     RDKit          3D

 28 30  0  0  0  0  0  0  0  0999 V2000
  131.9810  116.1180   57.4760 C   0  0  0  0  0  0  0  0  0  0  0  0
  132.4320  116.5440   58.7570 O   0  0  0  0  0  0  0  0  0  0  0  0
  131.6220  117.3670   59.5160 C   0  0  0  0  0  0  0  0  0  0  0  0
  131.9450  118.7240   59.5210 C   0  0  0  0  0  0  0  0  0  0  0  0
  131.1870  119.6320   60.2570 C   0  0  0  0  0  0  0  0  0  0  0  0
  130.0960  119.1900   61.0070 C   0  0  0  0  0  0  0  0  0  0  0  0
  129.3830  120.1810   61.7080 N   0  0  0  0  0  0  0  0  0  0  0  0
  129.8280  121.3440   62.2270 C   0  0  0  0  0  0  0  0  0  0  0  0
  130.9850  121.7590   62.1300 O   0  0  0  0  0  0  0  0  0  0  0  0
  128.7570  122.1790   62.9430 C   0  0  0  0  0  0  0  0  0  0  0  0
  128.6350  123.9170   62.3980 S   0  0  0  0  0  0  0  0  0  0  0  0
  129.1430  123.9890   60.6950 C   0  0  0  0  0  0  0  0  0  0  0  0
  128.1630  123.6540   59.8190 N   0  0  0  0  0  0  0  0  0  0  0  0
  128.4150  123.6700   58.4840 C   0  0  0  0  0  0  0  0  0  0  0  0
  127.2850  123.2660   57.5840 C   0  0  0  0  0  0  0  0  0  0  0  0
  125.9640  123.2480   58.0570 C   0  0  0  0  0  0  0  0  0  0  0  0
  124.9090  122.8750   57.2270 C   0  0  0  0  0  0  0  0  0  0  0  0
  125.1650  122.5120   55.9090 C   0  0  0  0  0  0  0  0  0  0  0  0
  126.4660  122.5180   55.4160 C   0  0  0  0  0  0  0  0  0  0  0  0
  127.5170  122.8910   56.2500 C   0  0  0  0  0  0  0  0  0  0  0  0
  129.6750  124.0270   57.9950 C   0  0  0  0  0  0  0  0  0  0  0  0
  130.6910  124.3970   58.8840 C   0  0  0  0  0  0  0  0  0  0  0  0
  132.0470  124.7960   58.3040 C   0  0  0  0  0  0  0  0  0  0  0  0
  130.4290  124.3930   60.2710 C   0  0  0  0  0  0  0  0  0  0  0  0
  131.4610  124.8230   61.2170 C   0  0  0  0  0  0  0  0  0  0  0  0
  132.2780  125.1640   61.9620 N   0  0  0  0  0  0  0  0  0  0  0  0
  129.7560  117.8290   60.9970 C   0  0  0  0  0  0  0  0  0  0  0  0
  130.5160  116.9250   60.2590 C   0  0  0  0  0  0  0  0  0  0  0  0
  1  2  1  0
  2  3  1  0
  3  4  2  0
  4  5  1  0
  5  6  2  0
  6  7  1  0
  7  8  1  0
  8  9  2  0
  8 10  1  0
 10 11  1  0
 11 12  1  0
 12 13  2  0
 13 14  1  0
 14 15  1  0
 15 16  2  0
 16 17  1  0
 17 18  2  0
 18 19  1  0
 19 20  2  0
 14 21  2  0
 21 22  1  0
 22 23  1  0
 22 24  2  0
 24 25  1  0
 25 26  3  0
  6 27  1  0
 27 28  2  0
 28  3  1  0
 24 12  1  0
 20 15  1  0
M  END
>  <Binding energies>  (17) 
[-8.17]

>  <Ligand effiencies>  (17) 
[-0.28172413793103446]

>  <Interactions>  (17) 
["V-B:MET:535:CE:9807, V-B:TYR:539:CE2:9848, V-B:TYR:539:CZ:9849, V-B:TYR:539:CD2:9846, V-A:LEU:475:CD2:4259, V-B:TYR:539:CD1:9845, V-B:TYR:539:CG:9844, V-A:TYR:484:CZ:4347, V-B:TYR:539:CE1:9847, V-B:TYR:539:C:9839, V-A:TYR:484:CE1:4345, V-B:PRO:540:CB:9857, V-B:PRO:540:CA:9855, V-B:PRO:540:N:9856, V-B:LEU:363:CD1:8161, V-B:TYR:531:CE2:9765, V-B:GLU:543:CD:9880, V-B:ILE:538:CA:9832, V-B:ILE:538:CD1:9837, V-B:PRO:540:C:9853, V-B:GLU:543:CG:9879, V-B:PRO:540:CG:9858, V-B:PRO:540:CD:9859, V-B:TYR:539:CB:9843, V-A:LEU:475:CD1:4258, V-B:ALA:541:CB:9864, V-B:ILE:538:CG2:9835, H-A:TYR:484:OH:4348, V-B:ILE:538:C:9830, H-B:TYR:539:O:9840, H-A:ARG:545:NH2:4928, V-A:SER:385:CB:3409, V-A:LEU:373:CD1:3280, V-A:PRO:482:CB:4326, V-A:HIS:383:CE1:3394, V-A:PRO:482:CG:4327, V-A:LEU:373:CD2:3281, H-A:SER:385:OG:3410, H-B:PRO:540:O:9854, V-A:LEU:373:CG:3279, V-B:ILE:343:CG2:7964, H-A:HIS:383:ND1:3391, V-B:ILE:343:CB:7963"]

$$$$
3bd_Grossjean_2025
     RDKit          3D

 26 28  0  0  0  0  0  0  0  0999 V2000
  133.5320  123.2410   60.4500 C   0  0  0  0  0  0  0  0  0  0  0  0
  132.3170  122.3700   60.7690 C   0  0  0  0  0  0  0  0  0  0  0  0
  132.3110  121.0490   60.3070 C   0  0  0  0  0  0  0  0  0  0  0  0
  131.2150  120.2210   60.5750 C   0  0  0  0  0  0  0  0  0  0  0  0
  131.1450  118.7950   60.1140 C   0  0  0  0  0  0  0  0  0  0  0  0
  131.9830  118.3310   59.0880 C   0  0  0  0  0  0  0  0  0  0  0  0
  131.9220  117.0090   58.6540 C   0  0  0  0  0  0  0  0  0  0  0  0
  131.0190  116.1300   59.2440 C   0  0  0  0  0  0  0  0  0  0  0  0
  130.1760  116.5650   60.2600 C   0  0  0  0  0  0  0  0  0  0  0  0
  130.2390  117.8880   60.6900 C   0  0  0  0  0  0  0  0  0  0  0  0
  130.1560  120.6790   61.2930 N   0  0  0  0  0  0  0  0  0  0  0  0
  130.1450  121.9580   61.7470 C   0  0  0  0  0  0  0  0  0  0  0  0
  128.6920  122.4400   62.6650 S   0  0  0  0  0  0  0  0  0  0  0  0
  127.9300  123.8530   61.8130 C   0  0  0  0  0  0  0  0  0  0  0  0
  126.9580  123.4070   60.7200 C   0  0  0  0  0  0  0  0  0  0  0  0
  125.8440  122.9920   61.0430 O   0  0  0  0  0  0  0  0  0  0  0  0
  127.4190  123.4950   59.4540 N   0  0  0  0  0  0  0  0  0  0  0  0
  126.7610  123.1890   58.2480 C   0  0  0  0  0  0  0  0  0  0  0  0
  127.5810  122.8410   57.1710 C   0  0  0  0  0  0  0  0  0  0  0  0
  127.0200  122.5300   55.9350 C   0  0  0  0  0  0  0  0  0  0  0  0
  125.6380  122.5780   55.7720 C   0  0  0  0  0  0  0  0  0  0  0  0
  124.8120  122.9380   56.8340 C   0  0  0  0  0  0  0  0  0  0  0  0
  125.3690  123.2470   58.0710 C   0  0  0  0  0  0  0  0  0  0  0  0
  131.2130  122.8490   61.5060 C   0  0  0  0  0  0  0  0  0  0  0  0
  131.1900  124.2270   62.0040 C   0  0  0  0  0  0  0  0  0  0  0  0
  131.1740  125.3150   62.3970 N   0  0  0  0  0  0  0  0  0  0  0  0
  1  2  1  0
  2  3  2  0
  3  4  1  0
  4  5  1  0
  5  6  2  0
  6  7  1  0
  7  8  2  0
  8  9  1  0
  9 10  2  0
  4 11  2  0
 11 12  1  0
 12 13  1  0
 13 14  1  0
 14 15  1  0
 15 16  2  0
 15 17  1  0
 17 18  1  0
 18 19  2  0
 19 20  1  0
 20 21  2  0
 21 22  1  0
 22 23  2  0
 12 24  2  0
 24 25  1  0
 25 26  3  0
 24  2  1  0
 10  5  1  0
 23 18  1  0
M  END
>  <Binding energies>  (18) 
[-9.54]

>  <Ligand effiencies>  (18) 
[-0.3533333333333333]

>  <Interactions>  (18) 
["V-B:MET:535:CE:9807, V-B:TYR:539:CE2:9848, V-B:TYR:539:CZ:9849, V-A:ILE:369:CG2:3237, V-B:TYR:539:CD2:9846, V-A:LEU:475:CD2:4259, V-B:TYR:539:CD1:9845, V-B:TYR:539:CG:9844, V-B:TYR:539:CE1:9847, V-B:TYR:539:C:9839, V-B:PRO:540:CB:9857, V-B:PRO:540:CA:9855, H-B:ALA:541:N:9863, V-B:PRO:540:N:9856, V-A:ILE:369:CD1:3239, V-B:LEU:363:CD1:8161, V-B:TYR:531:CE2:9765, V-B:GLU:543:CD:9880, V-B:ILE:538:CA:9832, V-B:ILE:538:CD1:9837, V-B:PRO:540:CD:9859, V-B:TYR:539:CB:9843, V-B:ILE:538:CG2:9835, H-A:TYR:484:OH:4348, V-A:SER:385:CB:3409, V-B:VAL:344:CG1:7973, V-A:LEU:373:CD1:3280, V-A:PRO:482:CB:4326, V-A:HIS:383:CE1:3394, V-A:PRO:482:CG:4327, V-A:LEU:373:CD2:3281"]

$$$$
3be_Grossjean_2025
     RDKit          3D

 27 29  0  0  0  0  0  0  0  0999 V2000
  127.2530  122.4310   55.0990 C   0  0  0  0  0  0  0  0  0  0  0  0
  126.5000  122.8520   56.3460 C   0  0  0  0  0  0  0  0  0  0  0  0
  125.1120  123.0110   56.3440 C   0  0  0  0  0  0  0  0  0  0  0  0
  124.4870  123.4030   57.5270 C   0  0  0  0  0  0  0  0  0  0  0  0
  125.2550  123.6230   58.6730 C   0  0  0  0  0  0  0  0  0  0  0  0
  126.6410  123.4420   58.6080 C   0  0  0  0  0  0  0  0  0  0  0  0
  127.3600  123.6900   59.7920 N   0  0  0  0  0  0  0  0  0  0  0  0
  127.0360  123.3620   61.0620 C   0  0  0  0  0  0  0  0  0  0  0  0
  126.0060  122.7710   61.3910 O   0  0  0  0  0  0  0  0  0  0  0  0
  128.0700  123.7830   62.1180 C   0  0  0  0  0  0  0  0  0  0  0  0
  128.9840  122.4110   62.9000 S   0  0  0  0  0  0  0  0  0  0  0  0
  130.3430  121.9750   61.8370 C   0  0  0  0  0  0  0  0  0  0  0  0
  130.3070  120.6890   61.4090 N   0  0  0  0  0  0  0  0  0  0  0  0
  131.2830  120.2210   60.5860 C   0  0  0  0  0  0  0  0  0  0  0  0
  131.1770  118.7840   60.1700 C   0  0  0  0  0  0  0  0  0  0  0  0
  130.2750  117.9170   60.8060 C   0  0  0  0  0  0  0  0  0  0  0  0
  130.1740  116.5820   60.4270 C   0  0  0  0  0  0  0  0  0  0  0  0
  130.9770  116.0930   59.4030 C   0  0  0  0  0  0  0  0  0  0  0  0
  131.8800  116.9290   58.7570 C   0  0  0  0  0  0  0  0  0  0  0  0
  131.9790  118.2640   59.1400 C   0  0  0  0  0  0  0  0  0  0  0  0
  132.3320  121.0500   60.1740 C   0  0  0  0  0  0  0  0  0  0  0  0
  132.3700  122.3860   60.5860 C   0  0  0  0  0  0  0  0  0  0  0  0
  133.5250  123.2580   60.0970 C   0  0  0  0  0  0  0  0  0  0  0  0
  131.3510  122.8780   61.4300 C   0  0  0  0  0  0  0  0  0  0  0  0
  131.3420  124.2870   61.8290 C   0  0  0  0  0  0  0  0  0  0  0  0
  131.3380  125.4010   62.1440 N   0  0  0  0  0  0  0  0  0  0  0  0
  127.2590  123.0620   57.4510 N   0  0  0  0  0  0  0  0  0  0  0  0
  1  2  1  0
  2  3  2  0
  3  4  1  0
  4  5  2  0
  5  6  1  0
  6  7  1  0
  7  8  1  0
  8  9  2  0
  8 10  1  0
 10 11  1  0
 11 12  1  0
 12 13  2  0
 13 14  1  0
 14 15  1  0
 15 16  2  0
 16 17  1  0
 17 18  2  0
 18 19  1  0
 19 20  2  0
 14 21  2  0
 21 22  1  0
 22 23  1  0
 22 24  2  0
 24 25  1  0
 25 26  3  0
  6 27  2  0
 27  2  1  0
 24 12  1  0
 20 15  1  0
M  END
>  <Binding energies>  (19) 
[-9.72]

>  <Ligand effiencies>  (19) 
[-0.34714285714285714]

>  <Interactions>  (19) 
["V-A:ILE:369:CB:3236, V-B:MET:535:CE:9807, V-B:TYR:539:CE2:9848, V-B:TYR:539:CZ:9849, V-A:ILE:369:CG2:3237, V-B:TYR:539:CD2:9846, V-A:LEU:475:CD2:4259, V-B:TYR:539:CD1:9845, V-B:TYR:539:CG:9844, V-B:TYR:539:CE1:9847, V-B:PRO:540:CB:9857, V-B:PRO:540:CA:9855, H-B:ALA:541:N:9863, V-B:PRO:540:N:9856, V-A:ILE:369:CD1:3239, V-B:LEU:363:CD1:8161, V-B:TYR:531:CZ:9766, V-B:TYR:531:CE2:9765, V-B:GLU:543:CD:9880, V-B:ILE:538:CA:9832, V-B:ILE:538:CD1:9837, V-B:GLU:543:CG:9879, V-B:TYR:539:CB:9843, V-A:LEU:475:CD1:4258, H-A:TYR:484:OH:4348, V-B:ILE:538:C:9830, V-A:SER:385:CB:3409, V-B:VAL:344:CG1:7973, V-A:LEU:373:CD1:3280, V-A:PRO:482:CB:4326, V-A:HIS:383:CE1:3394, V-A:PRO:482:CG:4327, V-A:LEU:373:CD2:3281"]

$$$$
3bf_Grossjean_2025
     RDKit          3D

 26 28  0  0  0  0  0  0  0  0999 V2000
  133.5240  123.2650   60.3850 C   0  0  0  0  0  0  0  0  0  0  0  0
  132.3320  122.3820   60.7470 C   0  0  0  0  0  0  0  0  0  0  0  0
  132.3160  121.0680   60.2700 C   0  0  0  0  0  0  0  0  0  0  0  0
  131.2490  120.2200   60.5910 C   0  0  0  0  0  0  0  0  0  0  0  0
  131.1830  118.7950   60.1300 C   0  0  0  0  0  0  0  0  0  0  0  0
  130.3050  117.8860   60.7390 C   0  0  0  0  0  0  0  0  0  0  0  0
  130.2380  116.5610   60.3170 C   0  0  0  0  0  0  0  0  0  0  0  0
  131.0520  116.1260   59.2760 C   0  0  0  0  0  0  0  0  0  0  0  0
  131.9320  117.0070   58.6570 C   0  0  0  0  0  0  0  0  0  0  0  0
  131.9970  118.3310   59.0830 C   0  0  0  0  0  0  0  0  0  0  0  0
  130.2200  120.6580   61.3640 N   0  0  0  0  0  0  0  0  0  0  0  0
  130.2090  121.9370   61.8130 C   0  0  0  0  0  0  0  0  0  0  0  0
  128.7830  122.3330   62.8020 S   0  0  0  0  0  0  0  0  0  0  0  0
  127.9020  123.7140   61.9990 C   0  0  0  0  0  0  0  0  0  0  0  0
  126.8630  123.3000   60.9450 C   0  0  0  0  0  0  0  0  0  0  0  0
  125.7430  122.9160   61.2840 O   0  0  0  0  0  0  0  0  0  0  0  0
  127.2780  123.4260   59.6660 N   0  0  0  0  0  0  0  0  0  0  0  0
  126.5840  123.1260   58.4790 C   0  0  0  0  0  0  0  0  0  0  0  0
  125.2440  123.5200   58.4060 C   0  0  0  0  0  0  0  0  0  0  0  0
  124.5040  123.2630   57.2500 C   0  0  0  0  0  0  0  0  0  0  0  0
  125.1350  122.6180   56.1860 C   0  0  0  0  0  0  0  0  0  0  0  0
  126.4360  122.2340   56.2240 N   0  0  0  0  0  0  0  0  0  0  0  0
  127.1420  122.4910   57.3560 C   0  0  0  0  0  0  0  0  0  0  0  0
  131.2610  122.8400   61.5440 C   0  0  0  0  0  0  0  0  0  0  0  0
  131.2820  124.1980   62.0960 C   0  0  0  0  0  0  0  0  0  0  0  0
  131.2990  125.2710   62.5290 N   0  0  0  0  0  0  0  0  0  0  0  0
  1  2  1  0
  2  3  2  0
  3  4  1  0
  4  5  1  0
  5  6  2  0
  6  7  1  0
  7  8  2  0
  8  9  1  0
  9 10  2  0
  4 11  2  0
 11 12  1  0
 12 13  1  0
 13 14  1  0
 14 15  1  0
 15 16  2  0
 15 17  1  0
 17 18  1  0
 18 19  2  0
 19 20  1  0
 20 21  2  0
 21 22  1  0
 22 23  2  0
 12 24  2  0
 24 25  1  0
 25 26  3  0
 24  2  1  0
 10  5  1  0
 23 18  1  0
M  END
>  <Binding energies>  (20) 
[-9.84]

>  <Ligand effiencies>  (20) 
[-0.36444444444444446]

>  <Interactions>  (20) 
["V-B:TYR:539:CE2:9848, V-A:ILE:369:CG2:3237, V-B:TYR:539:CD2:9846, V-A:LEU:475:CD2:4259, V-B:TYR:539:CG:9844, V-B:TYR:539:C:9839, H-B:TYR:539:N:9842, V-B:PRO:540:CB:9857, V-B:PRO:540:CA:9855, H-B:ALA:541:N:9863, V-B:PRO:540:N:9856, V-A:ILE:369:CD1:3239, V-B:LEU:363:CD1:8161, V-B:TYR:531:CZ:9766, V-B:TYR:531:CE2:9765, V-B:GLU:543:CD:9880, V-B:ILE:538:CD1:9837, V-B:GLU:543:CG:9879, V-B:TYR:539:CA:9841, V-B:PRO:540:CD:9859, V-B:TYR:539:CB:9843, V-A:LEU:475:CD1:4258, V-B:ILE:538:CG2:9835, H-A:TYR:484:OH:4348, V-A:SER:385:CB:3409, V-A:LEU:373:CD1:3280, V-A:PRO:482:CB:4326, V-A:HIS:383:CE1:3394, V-A:PRO:482:CG:4327, V-A:LEU:373:CD2:3281"]

$$$$
3bg_Grossjean_2025
     RDKit          3D

 27 29  0  0  0  0  0  0  0  0999 V2000
  131.8140  125.4380   57.8950 C   0  0  0  0  0  0  0  0  0  0  0  0
  130.5380  124.8130   58.4550 C   0  0  0  0  0  0  0  0  0  0  0  0
  129.5440  124.4190   57.5530 C   0  0  0  0  0  0  0  0  0  0  0  0
  128.3600  123.8340   58.0240 C   0  0  0  0  0  0  0  0  0  0  0  0
  127.2580  123.3790   57.1080 C   0  0  0  0  0  0  0  0  0  0  0  0
  127.5240  123.0210   55.7760 C   0  0  0  0  0  0  0  0  0  0  0  0
  126.5100  122.5810   54.9310 C   0  0  0  0  0  0  0  0  0  0  0  0
  125.2050  122.4950   55.4050 C   0  0  0  0  0  0  0  0  0  0  0  0
  124.9100  122.8540   56.7140 C   0  0  0  0  0  0  0  0  0  0  0  0
  125.9270  123.2950   57.5560 C   0  0  0  0  0  0  0  0  0  0  0  0
  128.1740  123.6270   59.3550 N   0  0  0  0  0  0  0  0  0  0  0  0
  129.1310  124.0010   60.2430 C   0  0  0  0  0  0  0  0  0  0  0  0
  128.7770  123.6420   61.9570 S   0  0  0  0  0  0  0  0  0  0  0  0
  128.4670  121.8520   62.1140 C   0  0  0  0  0  0  0  0  0  0  0  0
  129.7660  121.0420   62.0590 C   0  0  0  0  0  0  0  0  0  0  0  0
  130.5010  120.9950   63.0460 O   0  0  0  0  0  0  0  0  0  0  0  0
  130.0430  120.4330   60.8930 N   0  0  0  0  0  0  0  0  0  0  0  0
  131.3020  119.7650   60.5610 C   0  0  0  0  0  0  0  0  0  0  0  0
  131.0680  118.4050   59.9160 C   0  0  0  0  0  0  0  0  0  0  0  0
  130.0220  117.5890   60.3610 C   0  0  0  0  0  0  0  0  0  0  0  0
  129.8140  116.3420   59.7790 C   0  0  0  0  0  0  0  0  0  0  0  0
  130.6450  115.9180   58.7430 C   0  0  0  0  0  0  0  0  0  0  0  0
  131.6760  116.7330   58.2800 C   0  0  0  0  0  0  0  0  0  0  0  0
  131.8840  117.9810   58.8640 C   0  0  0  0  0  0  0  0  0  0  0  0
  130.3360  124.6100   59.8360 C   0  0  0  0  0  0  0  0  0  0  0  0
  131.3620  125.0050   60.8040 C   0  0  0  0  0  0  0  0  0  0  0  0
  132.1730  125.3170   61.5680 N   0  0  0  0  0  0  0  0  0  0  0  0
  1  2  1  0
  2  3  2  0
  3  4  1  0
  4  5  1  0
  5  6  2  0
  6  7  1  0
  7  8  2  0
  8  9  1  0
  9 10  2  0
  4 11  2  0
 11 12  1  0
 12 13  1  0
 13 14  1  0
 14 15  1  0
 15 16  2  0
 15 17  1  0
 17 18  1  0
 18 19  1  0
 19 20  2  0
 20 21  1  0
 21 22  2  0
 22 23  1  0
 23 24  2  0
 12 25  2  0
 25 26  1  0
 26 27  3  0
 25  2  1  0
 10  5  1  0
 24 19  1  0
M  END
>  <Binding energies>  (21) 
[-9.3]

>  <Ligand effiencies>  (21) 
[-0.3321428571428572]

>  <Interactions>  (21) 
["V-B:MET:535:CE:9807, V-B:TYR:539:CE2:9848, V-A:ASP:366:CB:3212, V-B:TYR:539:CZ:9849, V-B:TYR:539:CD2:9846, V-A:LEU:475:CD2:4259, V-B:TYR:539:CD1:9845, V-B:TYR:539:CG:9844, V-B:TYR:539:CE1:9847, V-B:TYR:539:C:9839, V-A:TYR:484:CE1:4345, V-B:PRO:540:CB:9857, V-B:PRO:540:CA:9855, V-B:PRO:540:N:9856, V-B:LEU:363:CD1:8161, V-B:TYR:531:CE2:9765, V-B:ILE:538:CA:9832, V-B:ILE:538:CD1:9837, V-B:PRO:540:C:9853, V-B:PRO:540:CD:9859, V-B:TYR:539:CB:9843, V-B:ALA:541:CB:9864, V-B:ILE:538:CG2:9835, H-A:TYR:484:OH:4348, V-B:ILE:538:C:9830, H-B:TYR:539:O:9840, H-A:ARG:545:NH2:4928, V-A:SER:385:CB:3409, V-B:ILE:538:CB:9834, V-B:ALA:541:CA:9862, V-B:VAL:344:CG1:7973, V-A:LEU:373:CD1:3280, V-A:PRO:482:CB:4326, V-A:HIS:383:CE1:3394, V-A:PRO:482:CG:4327, V-A:LEU:373:CD2:3281, V-B:ILE:343:CG2:7964, V-B:ILE:538:CG1:9836"]

$$$$
3ca_Grossjean_2025
     RDKit          3D

 31 33  0  0  0  0  0  0  0  0999 V2000
  124.3770  123.7300   57.2580 C   0  0  0  0  0  0  0  0  0  0  0  0
  124.1450  122.2760   56.8400 C   0  0  0  0  0  0  0  0  0  0  0  0
  125.3680  121.7150   56.3780 O   0  0  0  0  0  0  0  0  0  0  0  0
  126.3500  122.4990   55.8660 C   0  0  0  0  0  0  0  0  0  0  0  0
  126.4190  122.8130   54.6740 O   0  0  0  0  0  0  0  0  0  0  0  0
  127.3430  122.9540   56.8970 C   0  0  0  0  0  0  0  0  0  0  0  0
  128.3220  123.8900   56.5380 C   0  0  0  0  0  0  0  0  0  0  0  0
  129.2560  124.3310   57.4710 C   0  0  0  0  0  0  0  0  0  0  0  0
  129.2370  123.8410   58.7780 C   0  0  0  0  0  0  0  0  0  0  0  0
  130.2250  124.3540   59.6400 N   0  0  0  0  0  0  0  0  0  0  0  0
  131.4950  124.7250   59.3700 C   0  0  0  0  0  0  0  0  0  0  0  0
  132.0270  124.6940   58.2610 O   0  0  0  0  0  0  0  0  0  0  0  0
  132.2950  125.2410   60.5710 C   0  0  0  0  0  0  0  0  0  0  0  0
  132.5250  123.9860   61.8740 S   0  0  0  0  0  0  0  0  0  0  0  0
  131.2860  122.7070   61.7090 C   0  0  0  0  0  0  0  0  0  0  0  0
  130.0450  123.0310   62.1520 N   0  0  0  0  0  0  0  0  0  0  0  0
  129.0540  122.1200   62.0400 C   0  0  0  0  0  0  0  0  0  0  0  0
  127.6930  122.5630   62.5390 C   0  0  0  0  0  0  0  0  0  0  0  0
  129.2590  120.8520   61.5020 C   0  0  0  0  0  0  0  0  0  0  0  0
  130.5360  120.4870   61.0550 C   0  0  0  0  0  0  0  0  0  0  0  0
  130.7110  119.1120   60.4980 C   0  0  0  0  0  0  0  0  0  0  0  0
  129.9060  118.0600   60.9530 C   0  0  0  0  0  0  0  0  0  0  0  0
  130.0690  116.7740   60.4470 C   0  0  0  0  0  0  0  0  0  0  0  0
  131.0440  116.5320   59.4820 C   0  0  0  0  0  0  0  0  0  0  0  0
  131.8580  117.5640   59.0230 C   0  0  0  0  0  0  0  0  0  0  0  0
  131.6920  118.8500   59.5330 C   0  0  0  0  0  0  0  0  0  0  0  0
  131.5810  121.4400   61.1510 C   0  0  0  0  0  0  0  0  0  0  0  0
  132.9260  121.1340   60.6520 C   0  0  0  0  0  0  0  0  0  0  0  0
  133.9870  120.8910   60.2580 N   0  0  0  0  0  0  0  0  0  0  0  0
  128.2550  122.9090   59.1480 C   0  0  0  0  0  0  0  0  0  0  0  0
  127.3200  122.4710   58.2140 C   0  0  0  0  0  0  0  0  0  0  0  0
  1  2  1  0
  2  3  1  0
  3  4  1  0
  4  5  2  0
  4  6  1  0
  6  7  2  0
  7  8  1  0
  8  9  2  0
  9 10  1  0
 10 11  1  0
 11 12  2  0
 11 13  1  0
 13 14  1  0
 14 15  1  0
 15 16  2  0
 16 17  1  0
 17 18  1  0
 17 19  2  0
 19 20  1  0
 20 21  1  0
 21 22  2  0
 22 23  1  0
 23 24  2  0
 24 25  1  0
 25 26  2  0
 20 27  2  0
 27 28  1  0
 28 29  3  0
  9 30  1  0
 30 31  2  0
 31  6  1  0
 27 15  1  0
 26 21  1  0
M  END
>  <Binding energies>  (22) 
[-9.09]

>  <Ligand effiencies>  (22) 
[-0.2840625]

>  <Interactions>  (22) 
["V-A:ASP:366:CG:3213, V-B:MET:535:CE:9807, V-B:TYR:539:CE2:9848, V-B:TYR:539:CZ:9849, V-A:ILE:369:CG2:3237, V-B:TYR:539:CD2:9846, V-A:LEU:475:CD2:4259, V-B:TYR:539:CG:9844, V-B:TYR:539:CE1:9847, H-B:TYR:539:OH:9850, V-B:TYR:539:C:9839, H-B:TYR:539:N:9842, V-B:PRO:540:CB:9857, V-B:PRO:540:CA:9855, V-B:PRO:540:N:9856, V-B:LEU:363:CD1:8161, V-B:TYR:531:CZ:9766, V-B:TYR:531:CE2:9765, V-B:GLU:543:CD:9880, V-B:ILE:538:CA:9832, V-B:ILE:538:CD1:9837, V-B:PRO:540:C:9853, V-B:GLU:543:CG:9879, V-B:PRO:540:CG:9858, V-B:PRO:540:CD:9859, V-B:TYR:539:CB:9843, V-A:LEU:475:CD1:4258, V-B:ALA:541:CB:9864, V-B:ILE:538:CG2:9835, H-A:TYR:484:OH:4348, V-B:ILE:538:C:9830, V-A:SER:385:CB:3409, V-B:LEU:363:CG:8160, V-B:ALA:541:CA:9862, V-A:LEU:373:CD1:3280, V-A:PRO:482:CB:4326, V-A:HIS:383:CE1:3394, V-A:PRO:482:CG:4327"]

$$$$
3ce_Grossjean_2025
     RDKit          3D

 27 29  0  0  0  0  0  0  0  0999 V2000
  123.7210  129.6160   66.4630 C   0  0  0  0  0  0  0  0  0  0  0  0
  124.5430  129.4690   65.1970 C   0  0  0  0  0  0  0  0  0  0  0  0
  125.8710  129.0360   65.2330 C   0  0  0  0  0  0  0  0  0  0  0  0
  126.5630  128.9150   64.0280 C   0  0  0  0  0  0  0  0  0  0  0  0
  125.9190  129.2260   62.8280 C   0  0  0  0  0  0  0  0  0  0  0  0
  124.5900  129.6630   62.8640 C   0  0  0  0  0  0  0  0  0  0  0  0
  123.9870  129.9430   61.6260 N   0  0  0  0  0  0  0  0  0  0  0  0
  123.7190  131.1500   61.0810 C   0  0  0  0  0  0  0  0  0  0  0  0
  123.9770  132.2350   61.6040 O   0  0  0  0  0  0  0  0  0  0  0  0
  123.0520  131.1230   59.7060 C   0  0  0  0  0  0  0  0  0  0  0  0
  124.1300  130.3870   58.4420 S   0  0  0  0  0  0  0  0  0  0  0  0
  125.6720  131.2660   58.5530 C   0  0  0  0  0  0  0  0  0  0  0  0
  125.8040  132.0080   59.6790 N   0  0  0  0  0  0  0  0  0  0  0  0
  126.9500  132.7020   59.8660 C   0  0  0  0  0  0  0  0  0  0  0  0
  127.0360  133.5000   61.1530 C   0  0  0  0  0  0  0  0  0  0  0  0
  127.9910  132.6930   58.9420 C   0  0  0  0  0  0  0  0  0  0  0  0
  127.8630  131.9530   57.7590 C   0  0  0  0  0  0  0  0  0  0  0  0
  128.9960  131.9950   56.7870 C   0  0  0  0  0  0  0  0  0  0  0  0
  130.2390  131.4490   57.1300 C   0  0  0  0  0  0  0  0  0  0  0  0
  131.3010  131.4900   56.2310 C   0  0  0  0  0  0  0  0  0  0  0  0
  131.1280  132.0850   54.9840 C   0  0  0  0  0  0  0  0  0  0  0  0
  129.9010  132.6420   54.6310 C   0  0  0  0  0  0  0  0  0  0  0  0
  128.8400  132.5980   55.5320 C   0  0  0  0  0  0  0  0  0  0  0  0
  126.6730  131.2110   57.5540 C   0  0  0  0  0  0  0  0  0  0  0  0
  126.4880  130.4050   56.3420 C   0  0  0  0  0  0  0  0  0  0  0  0
  126.3440  129.7700   55.3860 N   0  0  0  0  0  0  0  0  0  0  0  0
  123.9040  129.7770   64.0400 N   0  0  0  0  0  0  0  0  0  0  0  0
  1  2  1  0
  2  3  2  0
  3  4  1  0
  4  5  2  0
  5  6  1  0
  6  7  1  0
  7  8  1  0
  8  9  2  0
  8 10  1  0
 10 11  1  0
 11 12  1  0
 12 13  2  0
 13 14  1  0
 14 15  1  0
 14 16  2  0
 16 17  1  0
 17 18  1  0
 18 19  2  0
 19 20  1  0
 20 21  2  0
 21 22  1  0
 22 23  2  0
 17 24  2  0
 24 25  1  0
 25 26  3  0
  6 27  2  0
 27  2  1  0
 24 12  1  0
 23 18  1  0
M  END
>  <Binding energies>  (23) 
[-8.89]

>  <Ligand effiencies>  (23) 
[-0.3175]

>  <Interactions>  (23) 
["V-A:TYR:539:CZ:4877, V-B:ILE:369:CG2:8209, V-B:LEU:475:CD2:9231, H-B:LYS:534:NZ:9795, V-B:ILE:369:CD1:8211, H-B:GLY:454:N:9022, H-B:TYR:484:OH:9320, V-A:TYR:539:CE1:4875, V-B:ARG:545:CZ:9898, H-B:ASP:366:OD2:8187, V-B:ASP:366:CG:8185, V-B:ASP:366:CB:8184, V-B:ASP:366:CA:8182, V-A:TYR:539:CD1:4873, V-A:TYR:539:C:4867, V-A:TYR:539:CE2:4876, V-A:TYR:539:CD2:4874, V-A:ILE:538:CA:4860, V-A:ILE:538:CB:4862, V-A:TYR:539:CG:4872, V-A:ILE:538:CG2:4863, V-B:ILE:369:CB:8208, H-B:ASP:366:OD1:8186, V-B:GLY:454:CA:9021, V-B:ARG:545:CD:9895, V-B:ARG:545:CG:9894, V-B:TYR:484:CE1:9317, V-B:HIS:456:CE1:9042, H-B:ARG:545:NH2:9900, V-B:GLY:453:C:9014, H-B:ARG:545:NH1:9899, V-B:GLY:453:CA:9016, V-A:ILE:538:C:4858, V-B:ILE:369:CG1:8210"]

$$$$
3cj_Grossjean_2025
     RDKit          3D

 25 27  0  0  0  0  0  0  0  0999 V2000
  131.4990  126.1720   56.5460 C   0  0  0  0  0  0  0  0  0  0  0  0
  130.5470  125.3780   57.4200 C   0  0  0  0  0  0  0  0  0  0  0  0
  129.3320  124.9040   56.9300 C   0  0  0  0  0  0  0  0  0  0  0  0
  128.4940  124.1540   57.7660 C   0  0  0  0  0  0  0  0  0  0  0  0
  127.2330  123.6120   57.1810 C   0  0  0  0  0  0  0  0  0  0  0  0
  126.0300  123.6820   57.8930 C   0  0  0  0  0  0  0  0  0  0  0  0
  124.8570  123.1640   57.3520 C   0  0  0  0  0  0  0  0  0  0  0  0
  124.8840  122.5670   56.0950 C   0  0  0  0  0  0  0  0  0  0  0  0
  126.0740  122.4810   55.3780 C   0  0  0  0  0  0  0  0  0  0  0  0
  127.2470  123.0000   55.9220 C   0  0  0  0  0  0  0  0  0  0  0  0
  128.9010  123.9310   59.1050 C   0  0  0  0  0  0  0  0  0  0  0  0
  128.0550  123.1790   60.0360 C   0  0  0  0  0  0  0  0  0  0  0  0
  127.3860  122.5840   60.7710 N   0  0  0  0  0  0  0  0  0  0  0  0
  130.1520  124.4450   59.5150 C   0  0  0  0  0  0  0  0  0  0  0  0
  130.8430  124.1230   61.1240 S   0  0  0  0  0  0  0  0  0  0  0  0
  131.9790  122.7220   60.8730 C   0  0  0  0  0  0  0  0  0  0  0  0
  131.2970  121.3780   61.1470 C   0  0  0  0  0  0  0  0  0  0  0  0
  130.4800  121.2880   62.0660 O   0  0  0  0  0  0  0  0  0  0  0  0
  131.6320  120.3760   60.3050 N   0  0  0  0  0  0  0  0  0  0  0  0
  131.0640  119.1140   60.2540 C   0  0  0  0  0  0  0  0  0  0  0  0
  130.0720  118.6440   60.9790 N   0  0  0  0  0  0  0  0  0  0  0  0
  129.7700  117.4070   60.6400 C   0  0  0  0  0  0  0  0  0  0  0  0
  130.5280  116.8450   59.6160 C   0  0  0  0  0  0  0  0  0  0  0  0
  131.7000  118.0100   59.0760 S   0  0  0  0  0  0  0  0  0  0  0  0
  130.9640  125.1460   58.6850 N   0  0  0  0  0  0  0  0  0  0  0  0
  1  2  1  0
  2  3  2  0
  3  4  1  0
  4  5  1  0
  5  6  2  0
  6  7  1  0
  7  8  2  0
  8  9  1  0
  9 10  2  0
  4 11  2  0
 11 12  1  0
 12 13  3  0
 11 14  1  0
 14 15  1  0
 15 16  1  0
 16 17  1  0
 17 18  2  0
 17 19  1  0
 19 20  1  0
 20 21  2  0
 21 22  1  0
 22 23  2  0
 23 24  1  0
 14 25  2  0
 25  2  1  0
 10  5  1  0
 24 20  1  0
M  END
>  <Binding energies>  (24) 
[-8.01]

>  <Ligand effiencies>  (24) 
[-0.3080769230769231]

>  <Interactions>  (24) 
["V-B:MET:535:CE:9807, V-B:TYR:539:CE2:9848, V-B:TYR:539:CZ:9849, V-B:TYR:539:CD2:9846, V-A:LEU:475:CD2:4259, V-B:TYR:539:CD1:9845, V-B:TYR:539:CG:9844, V-B:TYR:539:CE1:9847, V-B:TYR:539:C:9839, V-B:PRO:540:CB:9857, V-B:PRO:540:CA:9855, H-B:ALA:541:N:9863, V-B:PRO:540:N:9856, V-B:LEU:363:CD1:8161, V-B:TYR:531:CE2:9765, V-B:ILE:538:CA:9832, V-B:ILE:538:CD1:9837, V-B:PRO:540:CD:9859, V-B:TYR:539:CB:9843, V-B:ILE:538:CG2:9835, H-A:TYR:484:OH:4348, V-B:ILE:538:C:9830, V-A:SER:385:CB:3409, V-B:ILE:538:CB:9834, V-A:LEU:373:CD1:3280, V-A:PRO:482:CB:4326, V-A:PRO:482:CG:4327"]

$$$$
4ba_Grossjean_2025
     RDKit          3D

 28 30  0  0  0  0  0  0  0  0999 V2000
  132.7750  131.1550   56.4840 C   0  0  0  0  0  0  0  0  0  0  0  0
  132.2120  132.5300   56.0790 C   0  0  0  0  0  0  0  0  0  0  0  0
  130.6800  132.5860   55.9100 C   0  0  0  0  0  0  0  0  0  0  0  0
  130.2000  132.9940   54.8500 O   0  0  0  0  0  0  0  0  0  0  0  0
  129.8340  132.1300   57.0640 C   0  0  0  0  0  0  0  0  0  0  0  0
  130.4350  131.8950   58.3070 C   0  0  0  0  0  0  0  0  0  0  0  0
  129.6750  131.4700   59.3920 C   0  0  0  0  0  0  0  0  0  0  0  0
  128.3000  131.2750   59.2600 C   0  0  0  0  0  0  0  0  0  0  0  0
  127.6300  130.8360   60.4180 N   0  0  0  0  0  0  0  0  0  0  0  0
  127.1280  129.6140   60.7250 C   0  0  0  0  0  0  0  0  0  0  0  0
  127.1480  128.6470   59.9630 O   0  0  0  0  0  0  0  0  0  0  0  0
  126.5140  129.5060   62.0510 C   0  0  0  0  0  0  0  0  0  0  0  0
  124.7890  129.8010   62.2560 S   0  0  0  0  0  0  0  0  0  0  0  0
  124.9020  129.5400   63.9800 C   0  0  0  0  0  0  0  0  0  0  0  0
  123.8320  129.6350   64.7680 N   0  0  0  0  0  0  0  0  0  0  0  0
  124.0420  129.4120   66.0850 C   0  0  0  0  0  0  0  0  0  0  0  0
  122.8120  129.5340   66.9660 C   0  0  0  0  0  0  0  0  0  0  0  0
  125.2850  129.0970   66.6280 C   0  0  0  0  0  0  0  0  0  0  0  0
  126.4170  128.9950   65.8030 C   0  0  0  0  0  0  0  0  0  0  0  0
  127.7620  128.6430   66.4450 C   0  0  0  0  0  0  0  0  0  0  0  0
  128.6280  128.1050   65.5840 F   0  0  0  0  0  0  0  0  0  0  0  0
  128.3270  129.7430   66.9450 F   0  0  0  0  0  0  0  0  0  0  0  0
  127.5750  127.7600   67.4270 F   0  0  0  0  0  0  0  0  0  0  0  0
  126.2290  129.2300   64.4080 C   0  0  0  0  0  0  0  0  0  0  0  0
  127.1310  129.2270   63.2820 C   0  0  0  0  0  0  0  0  0  0  0  0
  128.4730  128.9720   63.4090 N   0  0  0  0  0  0  0  0  0  0  0  0
  127.6910  131.5020   58.0170 C   0  0  0  0  0  0  0  0  0  0  0  0
  128.4530  131.9260   56.9320 C   0  0  0  0  0  0  0  0  0  0  0  0
  1  2  1  0
  2  3  1  0
  3  4  2  0
  3  5  1  0
  5  6  2  0
  6  7  1  0
  7  8  2  0
  8  9  1  0
  9 10  1  0
 10 11  2  0
 10 12  1  0
 12 13  1  0
 13 14  1  0
 14 15  2  0
 15 16  1  0
 16 17  1  0
 16 18  2  0
 18 19  1  0
 19 20  1  0
 20 21  1  0
 20 22  1  0
 20 23  1  0
 19 24  2  0
 24 25  1  0
 25 26  1  0
  8 27  1  0
 27 28  2  0
 28  5  1  0
 25 12  2  0
 24 14  1  0
M  END
>  <Binding energies>  (25) 
[-7.2]

>  <Ligand effiencies>  (25) 
[-0.23225806451612904]

>  <Interactions>  (25) 
["V-A:PRO:540:CA:4883, V-A:GLU:543:CD:4908, H-B:GLY:454:N:9022, H-B:TYR:484:OH:9320, V-A:GLU:543:CG:4907, V-A:TYR:539:CE1:4875, V-B:ARG:545:CZ:9898, V-A:TYR:539:CD1:4873, V-A:TYR:539:C:4867, H-B:GLU:543:OE2:9882, V-B:GLU:543:CD:9880, V-A:PRO:540:CD:4887, V-A:TYR:531:CE2:4793, V-A:PRO:540:CB:4885, V-A:LEU:363:CD1:3189, H-A:TYR:539:N:4870, V-A:PRO:540:N:4884, H-A:GLU:543:OE1:4909, H-A:GLU:543:OE2:4910, V-A:GLU:543:CA:4904, V-B:GLY:454:CA:9021, V-A:PRO:540:CG:4886, V-B:ARG:545:CD:9895, H-B:ARG:545:NE:9896, V-B:ARG:545:CG:9894, V-B:TYR:484:CZ:9319, V-B:TYR:484:CE1:9317, V-B:HIS:456:CE1:9042, V-B:GLY:453:C:9014, V-B:ILE:455:C:9024, H-B:ARG:545:NH1:9899, V-B:GLY:453:CA:9016, V-A:GLU:543:CB:4906, V-A:TYR:531:CZ:4794, V-B:TYR:484:CE2:9318, V-B:ARG:545:CB:9893"]

$$$$
4bb_Grossjean_2025
     RDKit          3D

 27 29  0  0  0  0  0  0  0  0999 V2000
  132.3700  132.4850   56.0030 C   0  0  0  0  0  0  0  0  0  0  0  0
  130.8480  132.5870   55.8790 C   0  0  0  0  0  0  0  0  0  0  0  0
  130.3800  133.0230   54.8260 O   0  0  0  0  0  0  0  0  0  0  0  0
  130.0100  132.1620   57.0470 C   0  0  0  0  0  0  0  0  0  0  0  0
  130.6300  131.5980   58.1690 C   0  0  0  0  0  0  0  0  0  0  0  0
  129.8750  131.1950   59.2660 C   0  0  0  0  0  0  0  0  0  0  0  0
  128.4870  131.3550   59.2670 C   0  0  0  0  0  0  0  0  0  0  0  0
  127.8220  130.9100   60.4270 N   0  0  0  0  0  0  0  0  0  0  0  0
  127.1800  129.7410   60.6690 C   0  0  0  0  0  0  0  0  0  0  0  0
  127.0520  128.8390   59.8430 O   0  0  0  0  0  0  0  0  0  0  0  0
  126.6000  129.6140   62.0090 C   0  0  0  0  0  0  0  0  0  0  0  0
  124.8780  129.8930   62.2590 S   0  0  0  0  0  0  0  0  0  0  0  0
  125.0330  129.6050   63.9770 C   0  0  0  0  0  0  0  0  0  0  0  0
  123.9800  129.6720   64.7900 N   0  0  0  0  0  0  0  0  0  0  0  0
  124.2250  129.4300   66.0990 C   0  0  0  0  0  0  0  0  0  0  0  0
  123.0130  129.5090   67.0080 C   0  0  0  0  0  0  0  0  0  0  0  0
  125.4850  129.1270   66.6080 C   0  0  0  0  0  0  0  0  0  0  0  0
  126.5970  129.0560   65.7550 C   0  0  0  0  0  0  0  0  0  0  0  0
  127.9640  128.7190   66.3620 C   0  0  0  0  0  0  0  0  0  0  0  0
  128.7830  128.1120   65.4990 F   0  0  0  0  0  0  0  0  0  0  0  0
  128.5670  129.8390   66.7640 F   0  0  0  0  0  0  0  0  0  0  0  0
  127.8080  127.9050   67.4050 F   0  0  0  0  0  0  0  0  0  0  0  0
  126.3740  129.3060   64.3680 C   0  0  0  0  0  0  0  0  0  0  0  0
  127.2470  129.3230   63.2210 C   0  0  0  0  0  0  0  0  0  0  0  0
  128.5920  129.0690   63.3100 N   0  0  0  0  0  0  0  0  0  0  0  0
  127.8590  131.9120   58.1440 C   0  0  0  0  0  0  0  0  0  0  0  0
  128.6160  132.3130   57.0460 C   0  0  0  0  0  0  0  0  0  0  0  0
  1  2  1  0
  2  3  2  0
  2  4  1  0
  4  5  2  0
  5  6  1  0
  6  7  2  0
  7  8  1  0
  8  9  1  0
  9 10  2  0
  9 11  1  0
 11 12  1  0
 12 13  1  0
 13 14  2  0
 14 15  1  0
 15 16  1  0
 15 17  2  0
 17 18  1  0
 18 19  1  0
 19 20  1  0
 19 21  1  0
 19 22  1  0
 18 23  2  0
 23 24  1  0
 24 25  1  0
  7 26  1  0
 26 27  2  0
 27  4  1  0
 24 11  2  0
 23 13  1  0
M  END
>  <Binding energies>  (26) 
[-7.02]

>  <Ligand effiencies>  (26) 
[-0.23399999999999999]

>  <Interactions>  (26) 
["V-A:PRO:540:CA:4883, V-A:GLU:543:CD:4908, H-B:GLY:454:N:9022, H-B:TYR:484:OH:9320, V-A:GLU:543:CG:4907, V-A:TYR:539:CE1:4875, V-B:ARG:545:CZ:9898, V-A:TYR:539:CD1:4873, V-A:TYR:539:C:4867, H-B:GLU:543:OE2:9882, V-B:GLU:543:CD:9880, V-A:PRO:540:CD:4887, V-A:PRO:540:CB:4885, V-A:LEU:363:CD1:3189, V-A:ILE:538:CB:4862, H-A:TYR:539:N:4870, V-A:PRO:540:N:4884, V-A:TYR:539:CG:4872, H-A:GLU:543:OE1:4909, H-A:GLU:543:OE2:4910, V-A:GLU:543:CA:4904, V-B:GLY:454:CA:9021, V-A:PRO:540:CG:4886, V-B:ARG:545:CD:9895, H-B:ARG:545:NE:9896, V-B:ARG:545:CG:9894, V-B:TYR:484:CZ:9319, V-B:TYR:484:CE1:9317, V-B:HIS:456:CE1:9042, V-B:GLY:453:C:9014, V-B:ILE:455:C:9024, H-B:ARG:545:NH1:9899, V-B:GLY:453:CA:9016, V-A:GLU:543:CB:4906, V-B:TYR:484:CE2:9318, V-B:ARG:545:CB:9893"]

$$$$
4bd_Grossjean_2025
     RDKit          3D

 24 26  0  0  0  0  0  0  0  0999 V2000
  127.7090  115.9900   76.0030 C   0  0  0  0  0  0  0  0  0  0  0  0
  127.8040  117.2560   75.1710 C   0  0  0  0  0  0  0  0  0  0  0  0
  127.0890  117.3910   73.9840 C   0  0  0  0  0  0  0  0  0  0  0  0
  127.1890  118.5660   73.2230 C   0  0  0  0  0  0  0  0  0  0  0  0
  126.3860  118.6670   71.9220 C   0  0  0  0  0  0  0  0  0  0  0  0
  127.1590  118.7490   70.8360 F   0  0  0  0  0  0  0  0  0  0  0  0
  125.6150  117.5890   71.7820 F   0  0  0  0  0  0  0  0  0  0  0  0
  125.6200  119.7570   71.9480 F   0  0  0  0  0  0  0  0  0  0  0  0
  128.0430  119.5950   73.7200 C   0  0  0  0  0  0  0  0  0  0  0  0
  128.3890  120.9070   73.2290 C   0  0  0  0  0  0  0  0  0  0  0  0
  127.8750  121.4190   72.0660 N   0  0  0  0  0  0  0  0  0  0  0  0
  129.2950  121.6050   74.0450 C   0  0  0  0  0  0  0  0  0  0  0  0
  129.8670  122.9390   73.8410 C   0  0  0  0  0  0  0  0  0  0  0  0
  129.3890  123.7060   73.0040 O   0  0  0  0  0  0  0  0  0  0  0  0
  130.9220  123.2470   74.6360 N   0  0  0  0  0  0  0  0  0  0  0  0
  131.7120  124.4110   74.6630 C   0  0  0  0  0  0  0  0  0  0  0  0
  133.0150  124.2560   75.1440 C   0  0  0  0  0  0  0  0  0  0  0  0
  133.8780  125.3470   75.2010 C   0  0  0  0  0  0  0  0  0  0  0  0
  133.4410  126.5950   74.7670 C   0  0  0  0  0  0  0  0  0  0  0  0
  132.1500  126.7610   74.2720 C   0  0  0  0  0  0  0  0  0  0  0  0
  131.2840  125.6720   74.2140 C   0  0  0  0  0  0  0  0  0  0  0  0
  129.7430  120.6540   75.4590 S   0  0  0  0  0  0  0  0  0  0  0  0
  128.7210  119.3300   74.9500 C   0  0  0  0  0  0  0  0  0  0  0  0
  128.6220  118.2130   75.6680 N   0  0  0  0  0  0  0  0  0  0  0  0
  1  2  1  0
  2  3  2  0
  3  4  1  0
  4  5  1  0
  5  6  1  0
  5  7  1  0
  5  8  1  0
  4  9  2  0
  9 10  1  0
 10 11  1  0
 10 12  2  0
 12 13  1  0
 13 14  2  0
 13 15  1  0
 15 16  1  0
 16 17  2  0
 17 18  1  0
 18 19  2  0
 19 20  1  0
 20 21  2  0
 12 22  1  0
 22 23  1  0
 23 24  2  0
 24  2  1  0
 23  9  1  0
 21 16  1  0
M  END
>  <Binding energies>  (27) 
[-6.31]

>  <Ligand effiencies>  (27) 
[-0.2337037037037037]

>  <Interactions>  (27) 
["V-A:PRO:486:CD:4366, V-A:HIS:456:CD2:4068, V-A:TYR:484:CB:4341, H-A:TYR:484:O:4338, V-A:ASP:473:CG:4240, V-A:VAL:458:CG2:4087, V-A:HIS:456:CG:4066, H-B:GLU:543:O:9875, V-B:LYS:547:CE:9922, V-A:HIS:456:C:4061, V-B:VAL:542:CG1:9871, V-A:TYR:484:C:4337, V-A:HIS:456:CB:4065, V-B:GLY:544:CA:9886, H-A:ASP:473:OD1:4241, H-B:LYS:547:NZ:9923, V-B:GLU:543:C:9874, V-B:VAL:542:C:9866, V-B:VAL:542:CB:9870, V-A:SER:483:CB:4333, V-A:TYR:484:CA:4339, H-B:VAL:542:O:9867, V-A:SER:483:C:4329, V-A:SER:483:CA:4331"]

$$$$
4be_Grossjean_2025
     RDKit          3D

 25 27  0  0  0  0  0  0  0  0999 V2000
  125.5200  128.1610   74.9490 C   0  0  0  0  0  0  0  0  0  0  0  0
  125.2990  129.6130   75.3280 C   0  0  0  0  0  0  0  0  0  0  0  0
  124.1600  130.0200   76.0260 C   0  0  0  0  0  0  0  0  0  0  0  0
  124.0210  131.3730   76.3390 C   0  0  0  0  0  0  0  0  0  0  0  0
  125.0140  132.2760   75.9510 C   0  0  0  0  0  0  0  0  0  0  0  0
  126.1330  131.7990   75.2590 C   0  0  0  0  0  0  0  0  0  0  0  0
  127.0930  132.7600   74.8910 N   0  0  0  0  0  0  0  0  0  0  0  0
  128.0770  132.6680   73.9620 C   0  0  0  0  0  0  0  0  0  0  0  0
  128.2720  131.6700   73.2660 O   0  0  0  0  0  0  0  0  0  0  0  0
  128.9380  133.8480   73.8390 C   0  0  0  0  0  0  0  0  0  0  0  0
  128.9990  135.0380   75.1380 S   0  0  0  0  0  0  0  0  0  0  0  0
  130.1260  136.0270   74.2390 C   0  0  0  0  0  0  0  0  0  0  0  0
  130.5980  137.1690   74.7360 N   0  0  0  0  0  0  0  0  0  0  0  0
  131.4650  137.8460   73.9490 C   0  0  0  0  0  0  0  0  0  0  0  0
  131.9880  139.1460   74.5320 C   0  0  0  0  0  0  0  0  0  0  0  0
  131.8700  137.4100   72.6900 C   0  0  0  0  0  0  0  0  0  0  0  0
  131.3770  136.2070   72.1610 C   0  0  0  0  0  0  0  0  0  0  0  0
  131.8540  135.7670   70.7730 C   0  0  0  0  0  0  0  0  0  0  0  0
  130.8620  135.3250   69.9960 F   0  0  0  0  0  0  0  0  0  0  0  0
  132.4230  136.7950   70.1440 F   0  0  0  0  0  0  0  0  0  0  0  0
  132.7400  134.7790   70.8920 F   0  0  0  0  0  0  0  0  0  0  0  0
  130.4570  135.4710   72.9640 C   0  0  0  0  0  0  0  0  0  0  0  0
  129.7520  134.2290   72.7610 C   0  0  0  0  0  0  0  0  0  0  0  0
  129.8760  133.4860   71.6150 N   0  0  0  0  0  0  0  0  0  0  0  0
  126.2730  130.4780   74.9450 N   0  0  0  0  0  0  0  0  0  0  0  0
  1  2  1  0
  2  3  2  0
  3  4  1  0
  4  5  2  0
  5  6  1  0
  6  7  1  0
  7  8  1  0
  8  9  2  0
  8 10  1  0
 10 11  1  0
 11 12  1  0
 12 13  2  0
 13 14  1  0
 14 15  1  0
 14 16  2  0
 16 17  1  0
 17 18  1  0
 18 19  1  0
 18 20  1  0
 18 21  1  0
 17 22  2  0
 22 23  1  0
 23 24  1  0
  6 25  2  0
 25  2  1  0
 23 10  2  0
 22 12  1  0
M  END
>  <Binding energies>  (28) 
[-6.5]

>  <Ligand effiencies>  (28) 
[-0.23214285714285715]

>  <Interactions>  (28) 
["V-B:VAL:458:CG2:9059, V-A:VAL:542:C:4894, V-A:GLY:544:CA:4914, V-B:TYR:484:CD2:9316, V-B:HIS:456:C:9033, V-A:GLU:543:C:4902, V-B:SER:483:CA:9303, H-B:ASP:473:OD2:9214, V-B:ASP:473:CB:9211, V-B:HIS:456:CB:9037, V-B:SER:483:CB:9305, V-B:TYR:484:CA:9311, V-B:TYR:484:CB:9313, V-A:VAL:542:CG1:4899, V-B:ASP:473:CG:9212, V-B:LYS:471:CB:9189, V-B:TYR:484:CG:9314, H-A:LYS:547:NZ:4951, H-B:ASP:473:OD1:9213, V-B:LYS:471:C:9185, V-B:LYS:547:CD:9921, V-B:VAL:457:C:9045, V-B:HIS:456:CD2:9040, V-B:VAL:457:CA:9047, V-B:TYR:484:C:9309, V-A:VAL:542:CB:4898, V-B:SER:483:C:9301, H-A:GLU:543:O:4903, H-A:VAL:542:O:4895"]

$$$$
4bg_Grossjean_2025
     RDKit          3D

 25 27  0  0  0  0  0  0  0  0999 V2000
  123.7790  132.4820   62.1290 C   0  0  0  0  0  0  0  0  0  0  0  0
  124.2560  131.3960   61.1820 C   0  0  0  0  0  0  0  0  0  0  0  0
  124.0140  131.4810   59.8140 C   0  0  0  0  0  0  0  0  0  0  0  0
  124.4560  130.4670   58.9490 C   0  0  0  0  0  0  0  0  0  0  0  0
  124.1660  130.6030   57.4510 C   0  0  0  0  0  0  0  0  0  0  0  0
  123.7540  129.4620   56.8930 F   0  0  0  0  0  0  0  0  0  0  0  0
  123.2080  131.5100   57.2590 F   0  0  0  0  0  0  0  0  0  0  0  0
  125.2690  130.9850   56.8100 F   0  0  0  0  0  0  0  0  0  0  0  0
  125.1530  129.3690   59.5360 C   0  0  0  0  0  0  0  0  0  0  0  0
  125.7360  128.1700   58.9850 C   0  0  0  0  0  0  0  0  0  0  0  0
  125.6890  127.8670   57.6480 N   0  0  0  0  0  0  0  0  0  0  0  0
  126.3610  127.3490   59.9360 C   0  0  0  0  0  0  0  0  0  0  0  0
  127.0200  126.0580   59.7350 C   0  0  0  0  0  0  0  0  0  0  0  0
  128.2430  125.9390   59.8250 O   0  0  0  0  0  0  0  0  0  0  0  0
  126.2040  125.0120   59.4880 N   0  0  0  0  0  0  0  0  0  0  0  0
  126.6390  123.6370   59.2410 C   0  0  0  0  0  0  0  0  0  0  0  0
  126.5030  123.2060   57.7870 C   0  0  0  0  0  0  0  0  0  0  0  0
  125.2490  122.8650   57.2710 C   0  0  0  0  0  0  0  0  0  0  0  0
  125.1210  122.5090   55.9310 C   0  0  0  0  0  0  0  0  0  0  0  0
  126.2450  122.5080   55.1070 C   0  0  0  0  0  0  0  0  0  0  0  0
  127.4940  122.8630   55.6100 C   0  0  0  0  0  0  0  0  0  0  0  0
  127.6220  123.2180   56.9500 C   0  0  0  0  0  0  0  0  0  0  0  0
  126.2140  128.0200   61.5580 S   0  0  0  0  0  0  0  0  0  0  0  0
  125.3420  129.4080   60.9510 C   0  0  0  0  0  0  0  0  0  0  0  0
  124.9180  130.3720   61.7680 N   0  0  0  0  0  0  0  0  0  0  0  0
  1  2  1  0
  2  3  2  0
  3  4  1  0
  4  5  1  0
  5  6  1  0
  5  7  1  0
  5  8  1  0
  4  9  2  0
  9 10  1  0
 10 11  1  0
 10 12  2  0
 12 13  1  0
 13 14  2  0
 13 15  1  0
 15 16  1  0
 16 17  1  0
 17 18  2  0
 18 19  1  0
 19 20  2  0
 20 21  1  0
 21 22  2  0
 12 23  1  0
 23 24  1  0
 24 25  2  0
 25  2  1  0
 24  9  1  0
 22 17  1  0
M  END
>  <Binding energies>  (29) 
[-6.63]

>  <Ligand effiencies>  (29) 
[-0.2367857142857143]

>  <Interactions>  (29) 
["V-A:TYR:539:CZ:4877, V-B:MET:535:CE:9807, V-B:ILE:369:CG2:8209, V-B:LEU:475:CD2:9231, V-B:TYR:539:CE2:9848, V-B:TYR:539:CZ:9849, V-B:ILE:369:CD1:8211, V-A:TYR:539:CE1:4875, H-B:TYR:531:OH:9767, V-B:TYR:539:CD1:9845, V-B:TYR:539:CG:9844, H-B:ASP:366:OD2:8187, V-B:TYR:539:CE1:9847, V-B:ASP:366:CG:8185, V-B:PRO:540:CB:9857, V-B:PRO:540:CA:9855, V-B:ASP:366:CB:8184, V-B:ASP:366:CA:8182, V-B:PRO:540:N:9856, V-B:LEU:363:CD1:8161, V-B:TYR:531:CZ:9766, V-B:TYR:531:CE2:9765, V-B:ILE:538:CA:9832, V-B:ILE:538:CD1:9837, V-B:PRO:540:CD:9859, V-B:ASP:366:C:8180, V-B:ILE:369:CB:8208, V-B:ILE:538:CG2:9835, V-B:GLY:454:CA:9021, V-B:ILE:538:C:9830, V-B:TYR:531:CE1:9764, V-B:ILE:538:CB:9834, V-B:ILE:369:C:8204"]

$$$$
4ca_Grossjean_2025
     RDKit          3D

 34 37  0  0  0  0  0  0  0  0999 V2000
  124.0960  134.1380   60.9220 C   0  0  0  0  0  0  0  0  0  0  0  0
  124.8730  132.9810   61.5580 C   0  0  0  0  0  0  0  0  0  0  0  0
  124.1130  132.4320   62.6270 O   0  0  0  0  0  0  0  0  0  0  0  0
  123.5450  131.2020   62.5240 C   0  0  0  0  0  0  0  0  0  0  0  0
  122.3250  131.0200   62.4600 O   0  0  0  0  0  0  0  0  0  0  0  0
  124.5490  130.0860   62.4930 C   0  0  0  0  0  0  0  0  0  0  0  0
  124.9370  129.5490   61.2580 C   0  0  0  0  0  0  0  0  0  0  0  0
  125.8690  128.5170   61.1970 C   0  0  0  0  0  0  0  0  0  0  0  0
  126.4260  127.9960   62.3650 C   0  0  0  0  0  0  0  0  0  0  0  0
  127.3650  126.9610   62.1870 N   0  0  0  0  0  0  0  0  0  0  0  0
  128.6870  127.0230   61.8910 C   0  0  0  0  0  0  0  0  0  0  0  0
  129.3200  128.0720   61.7720 O   0  0  0  0  0  0  0  0  0  0  0  0
  129.3530  125.7280   61.7340 C   0  0  0  0  0  0  0  0  0  0  0  0
  128.4040  124.2740   61.4370 S   0  0  0  0  0  0  0  0  0  0  0  0
  129.8500  123.2970   61.3370 C   0  0  0  0  0  0  0  0  0  0  0  0
  129.7880  121.9880   61.1040 N   0  0  0  0  0  0  0  0  0  0  0  0
  130.9650  121.3140   61.0290 C   0  0  0  0  0  0  0  0  0  0  0  0
  130.8620  119.8410   60.7550 C   0  0  0  0  0  0  0  0  0  0  0  0
  129.8770  119.0610   61.3810 C   0  0  0  0  0  0  0  0  0  0  0  0
  129.7810  117.6930   61.1350 C   0  0  0  0  0  0  0  0  0  0  0  0
  130.6720  117.0850   60.2580 C   0  0  0  0  0  0  0  0  0  0  0  0
  131.6590  117.8340   59.6260 C   0  0  0  0  0  0  0  0  0  0  0  0
  131.7520  119.2010   59.8750 C   0  0  0  0  0  0  0  0  0  0  0  0
  132.1960  121.9540   61.2120 C   0  0  0  0  0  0  0  0  0  0  0  0
  132.2710  123.3320   61.4630 C   0  0  0  0  0  0  0  0  0  0  0  0
  133.6540  123.9690   61.6490 C   0  0  0  0  0  0  0  0  0  0  0  0
  134.6320  123.0700   61.7740 F   0  0  0  0  0  0  0  0  0  0  0  0
  133.9450  124.7320   60.5970 F   0  0  0  0  0  0  0  0  0  0  0  0
  133.6600  124.7180   62.7520 F   0  0  0  0  0  0  0  0  0  0  0  0
  131.0440  124.0520   61.5260 C   0  0  0  0  0  0  0  0  0  0  0  0
  130.7290  125.4420   61.7480 C   0  0  0  0  0  0  0  0  0  0  0  0
  131.6920  126.3960   61.9580 N   0  0  0  0  0  0  0  0  0  0  0  0
  126.0480  128.5310   63.6050 C   0  0  0  0  0  0  0  0  0  0  0  0
  125.1170  129.5650   63.6650 C   0  0  0  0  0  0  0  0  0  0  0  0
  1  2  1  0
  2  3  1  0
  3  4  1  0
  4  5  2  0
  4  6  1  0
  6  7  2  0
  7  8  1  0
  8  9  2  0
  9 10  1  0
 10 11  1  0
 11 12  2  0
 11 13  1  0
 13 14  1  0
 14 15  1  0
 15 16  2  0
 16 17  1  0
 17 18  1  0
 18 19  2  0
 19 20  1  0
 20 21  2  0
 21 22  1  0
 22 23  2  0
 17 24  2  0
 24 25  1  0
 25 26  1  0
 26 27  1  0
 26 28  1  0
 26 29  1  0
 25 30  2  0
 30 31  1  0
 31 32  1  0
  9 33  1  0
 33 34  2  0
 34  6  1  0
 31 13  2  0
 30 15  1  0
 23 18  1  0
M  END
>  <Binding energies>  (30) 
[-7.35]

>  <Ligand effiencies>  (30) 
[-0.19864864864864865]

>  <Interactions>  (30) 
["V-A:ASP:366:CA:3210, V-A:ASP:366:CG:3213, V-B:ILE:369:CG2:8209, V-B:LEU:475:CD2:9231, V-B:TYR:539:CE2:9848, V-A:ASP:366:CB:3212, V-A:GLU:543:CD:4908, V-B:ILE:369:CD1:8211, H-B:GLY:454:N:9022, V-B:ARG:545:CZ:9898, V-B:TYR:539:CD2:9846, V-A:ARG:545:CZ:4926, V-A:LEU:475:CD2:4259, V-B:TYR:539:CG:9844, V-B:TYR:539:C:9839, V-B:ASP:366:CG:8185, V-A:ILE:369:CD1:3239, H-B:GLU:543:OE2:9882, V-B:GLU:543:CD:9880, H-B:GLU:543:OE1:9881, H-A:ASP:366:OD1:3214, H-A:GLU:543:OE1:4909, H-A:ASP:366:OD2:3215, H-A:GLU:543:OE2:4910, V-B:TYR:539:CB:9843, V-A:LEU:475:CD1:4258, V-B:ALA:541:CB:9864, V-B:GLY:454:CA:9021, V-B:SER:385:CA:8379, V-B:SER:385:C:8377, V-B:GLY:453:C:9014, V-A:SER:385:CB:3409, V-B:GLY:453:CA:9016, V-A:PRO:482:CB:4326, V-A:LEU:475:CG:4257, V-A:PRO:482:CG:4327, V-A:GLY:454:CA:4049, V-A:GLY:453:C:4042, V-A:GLY:453:CA:4044"]

$$$$
4cb_Grossjean_2025
     RDKit          3D

 33 36  0  0  0  0  0  0  0  0999 V2000
  124.0720  133.3400   61.4550 C   0  0  0  0  0  0  0  0  0  0  0  0
  124.1410  132.4540   62.5640 O   0  0  0  0  0  0  0  0  0  0  0  0
  123.5620  131.2280   62.5150 C   0  0  0  0  0  0  0  0  0  0  0  0
  122.3400  131.0510   62.4990 O   0  0  0  0  0  0  0  0  0  0  0  0
  124.5570  130.1020   62.4810 C   0  0  0  0  0  0  0  0  0  0  0  0
  124.9640  129.5860   61.2440 C   0  0  0  0  0  0  0  0  0  0  0  0
  125.8910  128.5490   61.1800 C   0  0  0  0  0  0  0  0  0  0  0  0
  126.4230  128.0030   62.3480 C   0  0  0  0  0  0  0  0  0  0  0  0
  127.3630  126.9690   62.1660 N   0  0  0  0  0  0  0  0  0  0  0  0
  128.6840  127.0330   61.8700 C   0  0  0  0  0  0  0  0  0  0  0  0
  129.3170  128.0830   61.7530 O   0  0  0  0  0  0  0  0  0  0  0  0
  129.3510  125.7380   61.7090 C   0  0  0  0  0  0  0  0  0  0  0  0
  128.4010  124.2770   61.4490 S   0  0  0  0  0  0  0  0  0  0  0  0
  129.8480  123.3030   61.3250 C   0  0  0  0  0  0  0  0  0  0  0  0
  129.7870  121.9920   61.1080 N   0  0  0  0  0  0  0  0  0  0  0  0
  130.9650  121.3210   61.0170 C   0  0  0  0  0  0  0  0  0  0  0  0
  130.8630  119.8450   60.7650 C   0  0  0  0  0  0  0  0  0  0  0  0
  131.7430  119.2060   59.8770 C   0  0  0  0  0  0  0  0  0  0  0  0
  131.6520  117.8370   59.6360 C   0  0  0  0  0  0  0  0  0  0  0  0
  130.6770  117.0860   60.2830 C   0  0  0  0  0  0  0  0  0  0  0  0
  129.7910  117.6940   61.1670 C   0  0  0  0  0  0  0  0  0  0  0  0
  129.8840  119.0630   61.4030 C   0  0  0  0  0  0  0  0  0  0  0  0
  132.1960  121.9680   61.1660 C   0  0  0  0  0  0  0  0  0  0  0  0
  132.2720  123.3490   61.3990 C   0  0  0  0  0  0  0  0  0  0  0  0
  133.6550  123.9950   61.5510 C   0  0  0  0  0  0  0  0  0  0  0  0
  133.7310  124.8300   62.5900 F   0  0  0  0  0  0  0  0  0  0  0  0
  134.5750  123.0480   61.7330 F   0  0  0  0  0  0  0  0  0  0  0  0
  133.9510  124.6930   60.4550 F   0  0  0  0  0  0  0  0  0  0  0  0
  131.0430  124.0650   61.4800 C   0  0  0  0  0  0  0  0  0  0  0  0
  130.7280  125.4570   61.6930 C   0  0  0  0  0  0  0  0  0  0  0  0
  131.6920  126.4170   61.8660 N   0  0  0  0  0  0  0  0  0  0  0  0
  126.0240  128.5160   63.5910 C   0  0  0  0  0  0  0  0  0  0  0  0
  125.0980  129.5540   63.6530 C   0  0  0  0  0  0  0  0  0  0  0  0
  1  2  1  0
  2  3  1  0
  3  4  2  0
  3  5  1  0
  5  6  2  0
  6  7  1  0
  7  8  2  0
  8  9  1  0
  9 10  1  0
 10 11  2  0
 10 12  1  0
 12 13  1  0
 13 14  1  0
 14 15  2  0
 15 16  1  0
 16 17  1  0
 17 18  2  0
 18 19  1  0
 19 20  2  0
 20 21  1  0
 21 22  2  0
 16 23  2  0
 23 24  1  0
 24 25  1  0
 25 26  1  0
 25 27  1  0
 25 28  1  0
 24 29  2  0
 29 30  1  0
 30 31  1  0
  8 32  1  0
 32 33  2  0
 33  5  1  0
 30 12  2  0
 29 14  1  0
 22 17  1  0
M  END
>  <Binding energies>  (31) 
[-7.19]

>  <Ligand effiencies>  (31) 
[-0.19972222222222225]

>  <Interactions>  (31) 
["V-A:ASP:366:CA:3210, V-A:ASP:366:CG:3213, V-B:LEU:475:CD2:9231, V-B:TYR:539:CE2:9848, V-A:ASP:366:CB:3212, V-A:GLU:543:CD:4908, V-B:ILE:369:CD1:8211, H-B:GLY:454:N:9022, V-B:ARG:545:CZ:9898, V-B:TYR:539:CD2:9846, V-A:ARG:545:CZ:4926, V-A:LEU:475:CD2:4259, V-B:TYR:539:CG:9844, V-B:TYR:539:C:9839, V-B:ASP:366:CG:8185, V-A:ILE:369:CD1:3239, H-B:GLU:543:OE2:9882, V-B:GLU:543:CD:9880, H-B:GLU:543:OE1:9881, H-A:ASP:366:OD1:3214, H-A:GLU:543:OE1:4909, H-A:ASP:366:OD2:3215, H-A:GLU:543:OE2:4910, V-B:TYR:539:CB:9843, V-A:LEU:475:CD1:4258, V-B:ALA:541:CB:9864, V-B:GLY:454:CA:9021, V-B:GLY:453:C:9014, V-A:SER:385:CB:3409, V-B:GLY:453:CA:9016, V-A:PRO:482:CB:4326, V-A:LEU:475:CG:4257, V-A:PRO:482:CG:4327, V-A:GLY:454:CA:4049, V-A:GLY:453:C:4042, V-A:GLY:453:CA:4044"]

$$$$
4cc_Grossjean_2025
     RDKit          3D

 31 34  0  0  0  0  0  0  0  0999 V2000
  123.7460  132.1240   62.1930 C   0  0  0  0  0  0  0  0  0  0  0  0
  123.7650  131.1420   63.2240 O   0  0  0  0  0  0  0  0  0  0  0  0
  124.6710  130.1030   63.1490 C   0  0  0  0  0  0  0  0  0  0  0  0
  124.9680  129.6270   61.8720 C   0  0  0  0  0  0  0  0  0  0  0  0
  125.8720  128.5830   61.6960 C   0  0  0  0  0  0  0  0  0  0  0  0
  126.4860  127.9910   62.8020 C   0  0  0  0  0  0  0  0  0  0  0  0
  127.3960  126.9540   62.5260 N   0  0  0  0  0  0  0  0  0  0  0  0
  128.6460  127.0260   62.0090 C   0  0  0  0  0  0  0  0  0  0  0  0
  129.2130  128.0820   61.7240 O   0  0  0  0  0  0  0  0  0  0  0  0
  129.3160  125.7390   61.7990 C   0  0  0  0  0  0  0  0  0  0  0  0
  128.3680  124.2820   61.5030 S   0  0  0  0  0  0  0  0  0  0  0  0
  129.8160  123.3140   61.3680 C   0  0  0  0  0  0  0  0  0  0  0  0
  129.7570  122.0060   61.1250 N   0  0  0  0  0  0  0  0  0  0  0  0
  130.9360  121.3390   61.0270 C   0  0  0  0  0  0  0  0  0  0  0  0
  130.8380  119.8660   60.7550 C   0  0  0  0  0  0  0  0  0  0  0  0
  129.8480  119.0850   61.3750 C   0  0  0  0  0  0  0  0  0  0  0  0
  129.7520  117.7180   61.1290 C   0  0  0  0  0  0  0  0  0  0  0  0
  130.6480  117.1090   60.2570 C   0  0  0  0  0  0  0  0  0  0  0  0
  131.6410  117.8580   59.6330 C   0  0  0  0  0  0  0  0  0  0  0  0
  131.7340  119.2250   59.8820 C   0  0  0  0  0  0  0  0  0  0  0  0
  132.1660  121.9830   61.1910 C   0  0  0  0  0  0  0  0  0  0  0  0
  132.2400  123.3610   61.4500 C   0  0  0  0  0  0  0  0  0  0  0  0
  133.6220  124.0030   61.6120 C   0  0  0  0  0  0  0  0  0  0  0  0
  133.7150  124.7830   62.6920 F   0  0  0  0  0  0  0  0  0  0  0  0
  134.5500  123.0540   61.7250 F   0  0  0  0  0  0  0  0  0  0  0  0
  133.8950  124.7600   60.5490 F   0  0  0  0  0  0  0  0  0  0  0  0
  131.0100  124.0730   61.5450 C   0  0  0  0  0  0  0  0  0  0  0  0
  130.6910  125.4580   61.7940 C   0  0  0  0  0  0  0  0  0  0  0  0
  131.6540  126.4130   62.0050 N   0  0  0  0  0  0  0  0  0  0  0  0
  126.2020  128.4720   64.0890 C   0  0  0  0  0  0  0  0  0  0  0  0
  125.2980  129.5170   64.2590 C   0  0  0  0  0  0  0  0  0  0  0  0
  1  2  1  0
  2  3  1  0
  3  4  2  0
  4  5  1  0
  5  6  2  0
  6  7  1  0
  7  8  1  0
  8  9  2  0
  8 10  1  0
 10 11  1  0
 11 12  1  0
 12 13  2  0
 13 14  1  0
 14 15  1  0
 15 16  2  0
 16 17  1  0
 17 18  2  0
 18 19  1  0
 19 20  2  0
 14 21  2  0
 21 22  1  0
 22 23  1  0
 23 24  1  0
 23 25  1  0
 23 26  1  0
 22 27  2  0
 27 28  1  0
 28 29  1  0
  6 30  1  0
 30 31  2  0
 31  3  1  0
 28 10  2  0
 27 12  1  0
 20 15  1  0
M  END
>  <Binding energies>  (32) 
[-7.48]

>  <Ligand effiencies>  (32) 
[-0.22]

>  <Interactions>  (32) 
["V-A:ASP:366:CA:3210, V-A:ASP:366:CG:3213, V-B:TYR:539:CE2:9848, V-A:ASP:366:CB:3212, V-A:GLU:543:CD:4908, V-B:ILE:369:CD1:8211, H-B:GLY:454:N:9022, H-B:TYR:484:OH:9320, V-B:ARG:545:CZ:9898, V-B:TYR:539:CD2:9846, V-A:ARG:545:CZ:4926, V-A:LEU:475:CD2:4259, V-B:TYR:539:CG:9844, V-B:TYR:539:C:9839, V-B:ASP:366:CG:8185, V-A:ILE:369:CD1:3239, H-B:GLU:543:OE2:9882, V-B:GLU:543:CD:9880, H-B:GLU:543:OE1:9881, H-A:ASP:366:OD1:3214, H-A:GLU:543:OE1:4909, H-A:ASP:366:OD2:3215, H-A:GLU:543:OE2:4910, V-B:TYR:539:CB:9843, V-A:LEU:475:CD1:4258, V-B:ALA:541:CB:9864, V-B:GLY:454:CA:9021, V-A:SER:385:CB:3409, V-A:PRO:482:CB:4326, V-A:PRO:482:CG:4327, V-A:GLY:454:CA:4049, V-A:GLY:453:C:4042, V-A:GLY:453:CA:4044"]

$$$$
4ce_Grossjean_2025
     RDKit          3D

 30 33  0  0  0  0  0  0  0  0999 V2000
  124.3320  129.4030   65.9490 C   0  0  0  0  0  0  0  0  0  0  0  0
  124.9360  129.3490   64.5580 C   0  0  0  0  0  0  0  0  0  0  0  0
  124.6420  130.3180   63.5960 C   0  0  0  0  0  0  0  0  0  0  0  0
  125.2400  130.2090   62.3400 C   0  0  0  0  0  0  0  0  0  0  0  0
  126.1090  129.1480   62.0790 C   0  0  0  0  0  0  0  0  0  0  0  0
  126.3550  128.2080   63.0870 C   0  0  0  0  0  0  0  0  0  0  0  0
  127.2580  127.1760   62.7730 N   0  0  0  0  0  0  0  0  0  0  0  0
  128.4990  127.2690   62.2330 C   0  0  0  0  0  0  0  0  0  0  0  0
  129.0410  128.3370   61.9440 O   0  0  0  0  0  0  0  0  0  0  0  0
  129.1830  125.9940   62.0060 C   0  0  0  0  0  0  0  0  0  0  0  0
  128.2590  124.4980   61.9000 S   0  0  0  0  0  0  0  0  0  0  0  0
  129.7090  123.5710   61.6010 C   0  0  0  0  0  0  0  0  0  0  0  0
  129.6650  122.2540   61.4140 N   0  0  0  0  0  0  0  0  0  0  0  0
  130.8430  121.6210   61.1740 C   0  0  0  0  0  0  0  0  0  0  0  0
  130.7580  120.1380   60.9620 C   0  0  0  0  0  0  0  0  0  0  0  0
  129.7560  119.3810   61.5920 C   0  0  0  0  0  0  0  0  0  0  0  0
  129.6750  118.0030   61.4050 C   0  0  0  0  0  0  0  0  0  0  0  0
  130.5960  117.3630   60.5830 C   0  0  0  0  0  0  0  0  0  0  0  0
  131.5980  118.0890   59.9480 C   0  0  0  0  0  0  0  0  0  0  0  0
  131.6770  119.4660   60.1390 C   0  0  0  0  0  0  0  0  0  0  0  0
  132.0600  122.3090   61.1430 C   0  0  0  0  0  0  0  0  0  0  0  0
  132.1190  123.6970   61.3450 C   0  0  0  0  0  0  0  0  0  0  0  0
  133.4850  124.3880   61.2960 C   0  0  0  0  0  0  0  0  0  0  0  0
  133.6760  125.2450   62.3020 F   0  0  0  0  0  0  0  0  0  0  0  0
  134.4550  123.4750   61.3610 F   0  0  0  0  0  0  0  0  0  0  0  0
  133.6040  125.0740   60.1600 F   0  0  0  0  0  0  0  0  0  0  0  0
  130.8880  124.3740   61.5820 C   0  0  0  0  0  0  0  0  0  0  0  0
  130.5560  125.7580   61.8190 C   0  0  0  0  0  0  0  0  0  0  0  0
  131.5000  126.7510   61.8550 N   0  0  0  0  0  0  0  0  0  0  0  0
  125.7770  128.3100   64.3200 N   0  0  0  0  0  0  0  0  0  0  0  0
  1  2  1  0
  2  3  2  0
  3  4  1  0
  4  5  2  0
  5  6  1  0
  6  7  1  0
  7  8  1  0
  8  9  2  0
  8 10  1  0
 10 11  1  0
 11 12  1  0
 12 13  2  0
 13 14  1  0
 14 15  1  0
 15 16  2  0
 16 17  1  0
 17 18  2  0
 18 19  1  0
 19 20  2  0
 14 21  2  0
 21 22  1  0
 22 23  1  0
 23 24  1  0
 23 25  1  0
 23 26  1  0
 22 27  2  0
 27 28  1  0
 28 29  1  0
  6 30  2  0
 30  2  1  0
 28 10  2  0
 27 12  1  0
 20 15  1  0
M  END
>  <Binding energies>  (33) 
[-7.43]

>  <Ligand effiencies>  (33) 
[-0.22515151515151513]

>  <Interactions>  (33) 
["V-A:ASP:366:CA:3210, V-A:ASP:366:CG:3213, V-B:TYR:539:CE2:9848, V-A:ASP:366:CB:3212, V-A:GLU:543:CD:4908, V-B:ARG:545:CZ:9898, V-B:TYR:539:CD2:9846, V-A:ARG:545:CZ:4926, V-A:LEU:475:CD2:4259, V-A:ILE:369:CD1:3239, H-B:GLU:543:OE2:9882, V-B:GLU:543:CD:9880, H-B:GLU:543:OE1:9881, H-A:ASP:366:OD1:3214, H-A:GLU:543:OE1:4909, H-A:ASP:366:OD2:3215, H-A:GLU:543:OE2:4910, V-A:LEU:475:CD1:4258, V-B:ALA:541:CB:9864, V-B:ARG:545:CD:9895, H-B:ARG:545:NE:9896, V-B:ARG:545:CG:9894, V-B:TYR:484:CZ:9319, H-B:ARG:545:NH2:9900, V-A:SER:385:CB:3409, V-A:PRO:482:CB:4326, V-A:LEU:475:CG:4257, V-A:PRO:482:CG:4327, V-A:GLY:454:CA:4049, V-A:GLY:453:C:4042, V-A:ILE:369:CG1:3238"]

$$$$
4cf_Grossjean_2025
     RDKit          3D

 29 32  0  0  0  0  0  0  0  0999 V2000
  127.3910  127.3640   63.1700 N   0  0  0  0  0  0  0  0  0  0  0  0
  127.8960  128.2870   62.2910 C   0  0  0  0  0  0  0  0  0  0  0  0
  128.9400  128.0060   61.3940 C   0  0  0  0  0  0  0  0  0  0  0  0
  129.6960  126.7610   61.2340 C   0  0  0  0  0  0  0  0  0  0  0  0
  129.1350  125.7300   60.8580 O   0  0  0  0  0  0  0  0  0  0  0  0
  131.0190  126.8450   61.5140 N   0  0  0  0  0  0  0  0  0  0  0  0
  132.0040  125.8380   61.5100 C   0  0  0  0  0  0  0  0  0  0  0  0
  132.4700  125.1570   60.3690 C   0  0  0  0  0  0  0  0  0  0  0  0
  133.4440  124.1650   60.5080 C   0  0  0  0  0  0  0  0  0  0  0  0
  133.9280  123.8770   61.7840 C   0  0  0  0  0  0  0  0  0  0  0  0
  133.4910  124.5140   62.8990 N   0  0  0  0  0  0  0  0  0  0  0  0
  132.5420  125.4750   62.7490 C   0  0  0  0  0  0  0  0  0  0  0  0
  129.3320  129.4150   60.4120 S   0  0  0  0  0  0  0  0  0  0  0  0
  128.1050  130.3700   61.2120 C   0  0  0  0  0  0  0  0  0  0  0  0
  127.8970  131.6450   60.8890 N   0  0  0  0  0  0  0  0  0  0  0  0
  126.9320  132.3090   61.5780 C   0  0  0  0  0  0  0  0  0  0  0  0
  126.7240  133.7460   61.1980 C   0  0  0  0  0  0  0  0  0  0  0  0
  127.7400  134.6950   61.3950 C   0  0  0  0  0  0  0  0  0  0  0  0
  127.5560  136.0300   61.0440 C   0  0  0  0  0  0  0  0  0  0  0  0
  126.3470  136.4350   60.4860 C   0  0  0  0  0  0  0  0  0  0  0  0
  125.3250  135.5160   60.2770 C   0  0  0  0  0  0  0  0  0  0  0  0
  125.5140  134.1820   60.6290 C   0  0  0  0  0  0  0  0  0  0  0  0
  126.1680  131.6860   62.5680 C   0  0  0  0  0  0  0  0  0  0  0  0
  126.3770  130.3410   62.9130 C   0  0  0  0  0  0  0  0  0  0  0  0
  125.5060  129.7210   64.0120 C   0  0  0  0  0  0  0  0  0  0  0  0
  124.9480  128.5640   63.6490 F   0  0  0  0  0  0  0  0  0  0  0  0
  126.2480  129.4830   65.0940 F   0  0  0  0  0  0  0  0  0  0  0  0
  124.5180  130.5570   64.3310 F   0  0  0  0  0  0  0  0  0  0  0  0
  127.3980  129.6390   62.2100 C   0  0  0  0  0  0  0  0  0  0  0  0
  1  2  1  0
  2  3  2  0
  3  4  1  0
  4  5  2  0
  4  6  1  0
  6  7  1  0
  7  8  2  0
  8  9  1  0
  9 10  2  0
 10 11  1  0
 11 12  2  0
  3 13  1  0
 13 14  1  0
 14 15  2  0
 15 16  1  0
 16 17  1  0
 17 18  2  0
 18 19  1  0
 19 20  2  0
 20 21  1  0
 21 22  2  0
 16 23  2  0
 23 24  1  0
 24 25  1  0
 25 26  1  0
 25 27  1  0
 25 28  1  0
 24 29  2  0
 29  2  1  0
 12  7  1  0
 29 14  1  0
 22 17  1  0
M  END
>  <Binding energies>  (34) 
[-7.35]

>  <Ligand effiencies>  (34) 
[-0.2296875]

>  <Interactions>  (34) 
["V-A:ALA:541:CB:4892, V-A:ASP:366:CG:3213, V-B:LEU:475:CD2:9231, V-A:GLU:543:CD:4908, V-A:TYR:539:CE1:4875, V-B:ARG:545:CZ:9898, V-A:ARG:545:CZ:4926, V-A:ILE:369:CD1:3239, V-A:TYR:539:CD1:4873, V-A:TYR:539:C:4867, H-B:GLU:543:OE2:9882, V-B:GLU:543:CD:9880, H-B:GLU:543:OE1:9881, H-A:ASP:366:OD1:3214, H-A:GLU:543:OE1:4909, H-A:GLU:543:OE2:4910, H-A:GLY:454:N:4050, V-B:GLY:454:CA:9021, H-A:TYR:484:OH:4348, V-B:TYR:484:CZ:9319, V-B:GLY:453:C:9014, H-A:ARG:545:NH2:4928, V-B:PRO:482:CB:9298, V-B:PRO:482:CG:9299, V-A:GLY:454:CA:4049, V-A:GLY:453:C:4042"]

$$$$
4ci_Grossjean_2025
     RDKit          3D

 28 31  0  0  0  0  0  0  0  0999 V2000
  130.2420  127.1570   62.2180 N   0  0  0  0  0  0  0  0  0  0  0  0
  129.4590  126.0760   61.9100 C   0  0  0  0  0  0  0  0  0  0  0  0
  128.0710  126.1620   61.7100 C   0  0  0  0  0  0  0  0  0  0  0  0
  127.2120  127.3480   61.7700 C   0  0  0  0  0  0  0  0  0  0  0  0
  127.0770  128.0770   60.7840 O   0  0  0  0  0  0  0  0  0  0  0  0
  126.6110  127.5740   62.9650 N   0  0  0  0  0  0  0  0  0  0  0  0
  125.7570  128.6170   63.2980 C   0  0  0  0  0  0  0  0  0  0  0  0
  125.2510  129.5180   62.3620 C   0  0  0  0  0  0  0  0  0  0  0  0
  124.4610  130.3810   63.0840 C   0  0  0  0  0  0  0  0  0  0  0  0
  124.4880  130.0180   64.3900 O   0  0  0  0  0  0  0  0  0  0  0  0
  125.3130  128.8990   64.5120 N   0  0  0  0  0  0  0  0  0  0  0  0
  127.3840  124.5870   61.3210 S   0  0  0  0  0  0  0  0  0  0  0  0
  128.9530  123.8240   61.4370 C   0  0  0  0  0  0  0  0  0  0  0  0
  129.1080  122.5180   61.2300 N   0  0  0  0  0  0  0  0  0  0  0  0
  130.3650  122.0160   61.3380 C   0  0  0  0  0  0  0  0  0  0  0  0
  130.5080  120.5390   61.1050 C   0  0  0  0  0  0  0  0  0  0  0  0
  129.6330  119.6260   61.7160 C   0  0  0  0  0  0  0  0  0  0  0  0
  129.7590  118.2550   61.5030 C   0  0  0  0  0  0  0  0  0  0  0  0
  130.7670  117.7770   60.6730 C   0  0  0  0  0  0  0  0  0  0  0  0
  131.6500  118.6580   60.0590 C   0  0  0  0  0  0  0  0  0  0  0  0
  131.5210  120.0270   60.2760 C   0  0  0  0  0  0  0  0  0  0  0  0
  131.4570  122.8250   61.6710 C   0  0  0  0  0  0  0  0  0  0  0  0
  131.3050  124.2040   61.8900 C   0  0  0  0  0  0  0  0  0  0  0  0
  132.5450  125.0310   62.2500 C   0  0  0  0  0  0  0  0  0  0  0  0
  132.4640  125.5990   63.4550 F   0  0  0  0  0  0  0  0  0  0  0  0
  133.6220  124.2460   62.2510 F   0  0  0  0  0  0  0  0  0  0  0  0
  132.7110  126.0070   61.3570 F   0  0  0  0  0  0  0  0  0  0  0  0
  129.9920  124.7420   61.7660 C   0  0  0  0  0  0  0  0  0  0  0  0
  1  2  1  0
  2  3  2  0
  3  4  1  0
  4  5  2  0
  4  6  1  0
  6  7  1  0
  7  8  1  0
  8  9  2  0
  9 10  1  0
 10 11  1  0
  3 12  1  0
 12 13  1  0
 13 14  2  0
 14 15  1  0
 15 16  1  0
 16 17  2  0
 17 18  1  0
 18 19  2  0
 19 20  1  0
 20 21  2  0
 15 22  2  0
 22 23  1  0
 23 24  1  0
 24 25  1  0
 24 26  1  0
 24 27  1  0
 23 28  2  0
 28  2  1  0
 11  7  2  0
 28 13  1  0
 21 16  1  0
M  END
>  <Binding energies>  (35) 
[-7.39]

>  <Ligand effiencies>  (35) 
[-0.23838709677419354]

>  <Interactions>  (35) 
["V-A:ASP:366:CG:3213, V-B:TYR:539:CE2:9848, V-A:GLU:543:CD:4908, H-B:GLY:454:N:9022, H-B:TYR:484:OH:9320, V-B:ARG:545:CZ:9898, V-B:TYR:539:CD2:9846, V-A:ARG:545:CZ:4926, V-A:LEU:475:CD2:4259, H-B:GLU:543:OE2:9882, V-B:GLU:543:CD:9880, H-B:GLU:543:OE1:9881, H-A:GLU:543:OE1:4909, H-A:GLU:543:OE2:4910, V-A:LEU:475:CD1:4258, V-B:ALA:541:CB:9864, H-B:ARG:545:NE:9896, H-B:ARG:545:NH2:9900, V-A:SER:385:CB:3409, V-A:PRO:482:CB:4326, V-A:LEU:475:CG:4257, V-A:PRO:482:CG:4327, V-A:GLY:454:CA:4049"]

$$$$
8a_Ghoteimi_2023
     RDKit          3D

 40 44  0  0  0  0  0  0  0  0999 V2000
  130.6100  116.9890   60.1030 C   0  0  0  0  0  0  0  0  0  0  0  0
  131.5910  118.0530   59.6030 C   0  0  0  0  0  0  0  0  0  0  0  0
  131.3800  119.2640   60.3170 O   0  0  0  0  0  0  0  0  0  0  0  0
  132.2760  120.2840   60.2480 C   0  0  0  0  0  0  0  0  0  0  0  0
  133.4790  120.1180   60.0240 O   0  0  0  0  0  0  0  0  0  0  0  0
  131.6580  121.6330   60.4770 C   0  0  0  0  0  0  0  0  0  0  0  0
  132.2790  122.7690   59.9430 C   0  0  0  0  0  0  0  0  0  0  0  0
  131.7310  124.0330   60.1380 C   0  0  0  0  0  0  0  0  0  0  0  0
  130.5540  124.1910   60.8720 C   0  0  0  0  0  0  0  0  0  0  0  0
  130.0960  125.5160   61.0090 N   0  0  0  0  0  0  0  0  0  0  0  0
  130.5950  126.6720   60.5060 C   0  0  0  0  0  0  0  0  0  0  0  0
  131.6030  126.7450   59.8030 O   0  0  0  0  0  0  0  0  0  0  0  0
  129.8400  127.8800   60.8520 C   0  0  0  0  0  0  0  0  0  0  0  0
  129.8560  129.2790   59.7780 S   0  0  0  0  0  0  0  0  0  0  0  0
  128.8160  130.1790   60.8580 C   0  0  0  0  0  0  0  0  0  0  0  0
  128.4470  131.4320   60.5920 N   0  0  0  0  0  0  0  0  0  0  0  0
  127.6410  132.0430   61.5010 C   0  0  0  0  0  0  0  0  0  0  0  0
  127.2560  133.4540   61.1930 C   0  0  0  0  0  0  0  0  0  0  0  0
  128.1630  134.5080   61.3770 C   0  0  0  0  0  0  0  0  0  0  0  0
  127.7950  135.8210   61.0990 C   0  0  0  0  0  0  0  0  0  0  0  0
  126.5160  136.1150   60.6300 C   0  0  0  0  0  0  0  0  0  0  0  0
  126.2390  137.4470   60.3840 O   0  0  0  0  0  0  0  0  0  0  0  0
  127.1250  138.1980   59.5610 C   0  0  0  0  0  0  0  0  0  0  0  0
  125.6040  135.0680   60.4370 C   0  0  0  0  0  0  0  0  0  0  0  0
  125.9740  133.7550   60.7180 C   0  0  0  0  0  0  0  0  0  0  0  0
  127.2020  131.4000   62.6610 C   0  0  0  0  0  0  0  0  0  0  0  0
  127.5740  130.0800   62.9350 C   0  0  0  0  0  0  0  0  0  0  0  0
  127.0530  129.4330   64.1670 C   0  0  0  0  0  0  0  0  0  0  0  0
  127.9220  129.1080   65.2110 C   0  0  0  0  0  0  0  0  0  0  0  0
  127.4350  128.5210   66.3750 C   0  0  0  0  0  0  0  0  0  0  0  0
  126.0730  128.2540   66.5190 C   0  0  0  0  0  0  0  0  0  0  0  0
  125.6810  127.6710   67.7090 O   0  0  0  0  0  0  0  0  0  0  0  0
  126.4750  126.6300   68.2660 C   0  0  0  0  0  0  0  0  0  0  0  0
  125.1970  128.5870   65.4740 C   0  0  0  0  0  0  0  0  0  0  0  0
  125.6870  129.1760   64.3110 C   0  0  0  0  0  0  0  0  0  0  0  0
  128.4360  129.4270   62.0090 C   0  0  0  0  0  0  0  0  0  0  0  0
  129.0510  128.1230   61.9880 C   0  0  0  0  0  0  0  0  0  0  0  0
  128.8870  127.2140   63.0030 N   0  0  0  0  0  0  0  0  0  0  0  0
  129.9220  123.0580   61.4070 C   0  0  0  0  0  0  0  0  0  0  0  0
  130.4720  121.7930   61.2100 C   0  0  0  0  0  0  0  0  0  0  0  0
  1  2  1  0
  2  3  1  0
  3  4  1  0
  4  5  2  0
  4  6  1  0
  6  7  2  0
  7  8  1  0
  8  9  2  0
  9 10  1  0
 10 11  1  0
 11 12  2  0
 11 13  1  0
 13 14  1  0
 14 15  1  0
 15 16  2  0
 16 17  1  0
 17 18  1  0
 18 19  2  0
 19 20  1  0
 20 21  2  0
 21 22  1  0
 22 23  1  0
 21 24  1  0
 24 25  2  0
 17 26  2  0
 26 27  1  0
 27 28  1  0
 28 29  2  0
 29 30  1  0
 30 31  2  0
 31 32  1  0
 32 33  1  0
 31 34  1  0
 34 35  2  0
 27 36  2  0
 36 37  1  0
 37 38  1  0
  9 39  1  0
 39 40  2  0
 40  6  1  0
 37 13  2  0
 36 15  1  0
 25 18  1  0
 35 28  1  0
M  END
>  <Binding energies>  (36) 
[-7.32]

>  <Ligand effiencies>  (36) 
[-0.1702325581395349]

>  <Interactions>  (36) 
["V-A:ALA:541:CB:4892, V-B:LEU:475:CD2:9231, V-B:TYR:539:CE2:9848, V-A:GLU:543:CD:4908, V-A:GLU:543:CG:4907, V-A:TYR:539:CE1:4875, V-B:ARG:545:CZ:9898, V-A:ILE:369:CG2:3237, V-B:TYR:539:CD2:9846, V-A:LEU:475:CD2:4259, V-B:TYR:539:CG:9844, V-A:TYR:539:CD1:4873, V-A:TYR:539:C:4867, V-A:PRO:540:C:4881, H-B:GLU:543:OE2:9882, V-B:GLU:543:CD:9880, H-B:GLU:543:OE1:9881, H-A:GLU:543:OE1:4909, V-B:GLU:543:CG:9879, H-A:GLU:543:OE2:4910, V-B:TYR:539:CB:9843, V-B:ARG:545:CD:9895, H-B:ARG:545:NE:9896, V-B:ARG:545:CG:9894, H-B:HIS:456:ND1:9039, V-B:HIS:456:CE1:9042, V-A:ALA:541:CA:4890, V-B:HIS:383:CD2:8364, V-A:TYR:539:CB:4871, V-A:SER:385:CB:3409, V-B:PRO:482:CB:9298, V-B:PRO:482:CG:9299, V-A:GLU:543:CB:4906, V-A:VAL:344:CG1:3001, H-B:SER:385:OG:8382, V-A:PRO:482:CB:4326, V-A:PRO:482:CG:4327, H-B:HIS:383:NE2:8366, V-B:GLU:543:CB:9878, V-B:ARG:545:CA:9891"]

$$$$
8c_Ghoteimi_2023
     RDKit          3D

 34 38  0  0  0  0  0  0  0  0999 V2000
  127.1530  138.0010   59.8450 C   0  0  0  0  0  0  0  0  0  0  0  0
  125.9740  137.3470   60.2990 O   0  0  0  0  0  0  0  0  0  0  0  0
  125.9910  135.9770   60.4860 C   0  0  0  0  0  0  0  0  0  0  0  0
  127.1880  135.4260   60.9380 C   0  0  0  0  0  0  0  0  0  0  0  0
  127.2990  134.0550   61.1510 C   0  0  0  0  0  0  0  0  0  0  0  0
  126.2130  133.1990   60.9170 C   0  0  0  0  0  0  0  0  0  0  0  0
  126.3270  131.7240   61.1400 C   0  0  0  0  0  0  0  0  0  0  0  0
  126.5030  131.1830   62.4170 C   0  0  0  0  0  0  0  0  0  0  0  0
  126.6040  129.8000   62.5990 C   0  0  0  0  0  0  0  0  0  0  0  0
  126.7990  129.2600   63.9640 C   0  0  0  0  0  0  0  0  0  0  0  0
  125.7190  128.7220   64.6680 C   0  0  0  0  0  0  0  0  0  0  0  0
  125.9060  128.2060   65.9470 C   0  0  0  0  0  0  0  0  0  0  0  0
  127.1680  128.2220   66.5420 C   0  0  0  0  0  0  0  0  0  0  0  0
  127.2590  127.6860   67.8120 O   0  0  0  0  0  0  0  0  0  0  0  0
  128.4550  127.0200   68.2000 C   0  0  0  0  0  0  0  0  0  0  0  0
  128.2510  128.7670   65.8340 C   0  0  0  0  0  0  0  0  0  0  0  0
  128.0630  129.2820   64.5540 C   0  0  0  0  0  0  0  0  0  0  0  0
  126.5160  128.9670   61.4520 C   0  0  0  0  0  0  0  0  0  0  0  0
  126.5750  127.5400   61.2750 C   0  0  0  0  0  0  0  0  0  0  0  0
  126.7440  126.6750   62.3270 N   0  0  0  0  0  0  0  0  0  0  0  0
  126.4430  127.1260   59.9400 C   0  0  0  0  0  0  0  0  0  0  0  0
  126.4510  125.7640   59.4020 C   0  0  0  0  0  0  0  0  0  0  0  0
  127.1720  124.8960   59.8970 O   0  0  0  0  0  0  0  0  0  0  0  0
  125.6260  125.5500   58.3470 N   0  0  0  0  0  0  0  0  0  0  0  0
  125.4440  124.3600   57.6580 C   0  0  0  0  0  0  0  0  0  0  0  0
  124.3740  123.5940   57.6370 N   0  0  0  0  0  0  0  0  0  0  0  0
  124.5510  122.5360   56.8720 C   0  0  0  0  0  0  0  0  0  0  0  0
  125.7900  122.4250   56.2490 C   0  0  0  0  0  0  0  0  0  0  0  0
  126.7720  123.7880   56.7000 S   0  0  0  0  0  0  0  0  0  0  0  0
  126.2370  128.5080   58.8620 S   0  0  0  0  0  0  0  0  0  0  0  0
  126.3320  129.6270   60.2020 C   0  0  0  0  0  0  0  0  0  0  0  0
  126.2370  130.9450   60.0280 N   0  0  0  0  0  0  0  0  0  0  0  0
  125.0120  133.7620   60.4640 C   0  0  0  0  0  0  0  0  0  0  0  0
  124.8980  135.1320   60.2490 C   0  0  0  0  0  0  0  0  0  0  0  0
  1  2  1  0
  2  3  1  0
  3  4  2  0
  4  5  1  0
  5  6  2  0
  6  7  1  0
  7  8  2  0
  8  9  1  0
  9 10  1  0
 10 11  2  0
 11 12  1  0
 12 13  2  0
 13 14  1  0
 14 15  1  0
 13 16  1  0
 16 17  2  0
  9 18  2  0
 18 19  1  0
 19 20  1  0
 19 21  2  0
 21 22  1  0
 22 23  2  0
 22 24  1  0
 24 25  1  0
 25 26  2  0
 26 27  1  0
 27 28  2  0
 28 29  1  0
 21 30  1  0
 30 31  1  0
 31 32  2  0
  6 33  1  0
 33 34  2  0
 34  3  1  0
 32  7  1  0
 17 10  1  0
 31 18  1  0
 29 25  1  0
M  END
>  <Binding energies>  (37) 
[-7.88]

>  <Ligand effiencies>  (37) 
[-0.21297297297297296]

>  <Interactions>  (37) 
["V-A:ALA:541:CB:4892, V-B:MET:535:CE:9807, V-B:ILE:369:CG2:8209, V-B:LEU:475:CD2:9231, V-A:GLU:543:CD:4908, V-A:GLU:543:CG:4907, V-A:TYR:539:CE1:4875, V-B:ARG:545:CZ:9898, H-B:TYR:531:OH:9767, H-B:ASP:366:OD2:8187, V-B:ASP:366:CG:8185, V-B:PRO:540:CB:9857, V-B:PRO:540:CA:9855, V-B:ASP:366:CB:8184, V-B:PRO:540:N:9856, V-A:TYR:539:CD1:4873, V-B:LEU:363:CD1:8161, H-B:GLU:543:OE2:9882, V-B:TYR:531:CZ:9766, V-B:GLU:543:CD:9880, H-B:GLU:543:OE1:9881, V-B:ILE:538:CA:9832, V-B:ILE:538:CD1:9837, V-B:PRO:540:CG:9858, V-B:PRO:540:CD:9859, V-B:ILE:538:CG2:9835, V-B:ARG:545:CD:9895, V-B:ARG:545:CG:9894, V-B:HIS:456:CE1:9042, V-B:HIS:383:CD2:8364, V-A:TYR:539:CB:4871, V-B:PRO:482:CG:9299, V-A:GLU:543:CB:4906, V-A:VAL:344:CG1:3001, H-B:SER:385:OG:8382, H-B:HIS:383:NE2:8366, V-A:HIS:456:CE1:4070, V-B:GLU:543:CB:9878"]

$$$$
8d_Ghoteimi_2023
     RDKit          3D

 30 33  0  0  0  0  0  0  0  0999 V2000
  127.2540  122.8610   55.2790 C   0  0  0  0  0  0  0  0  0  0  0  0
  126.2430  122.0950   55.9180 O   0  0  0  0  0  0  0  0  0  0  0  0
  125.5690  122.5880   56.9900 C   0  0  0  0  0  0  0  0  0  0  0  0
  124.3540  122.4640   57.1580 O   0  0  0  0  0  0  0  0  0  0  0  0
  126.4480  123.2980   57.9460 C   0  0  0  0  0  0  0  0  0  0  0  0
  127.8810  122.4930   58.5880 S   0  0  0  0  0  0  0  0  0  0  0  0
  128.2920  123.9000   59.5410 C   0  0  0  0  0  0  0  0  0  0  0  0
  129.3710  123.9290   60.3230 N   0  0  0  0  0  0  0  0  0  0  0  0
  129.5990  125.0740   61.0210 C   0  0  0  0  0  0  0  0  0  0  0  0
  130.8140  125.0790   61.8940 C   0  0  0  0  0  0  0  0  0  0  0  0
  130.7520  125.5310   63.2200 C   0  0  0  0  0  0  0  0  0  0  0  0
  131.8850  125.5340   64.0280 C   0  0  0  0  0  0  0  0  0  0  0  0
  133.1090  125.0860   63.5340 C   0  0  0  0  0  0  0  0  0  0  0  0
  134.1790  125.1240   64.4060 O   0  0  0  0  0  0  0  0  0  0  0  0
  133.9340  125.0740   65.8080 C   0  0  0  0  0  0  0  0  0  0  0  0
  133.1820  124.6290   62.2100 C   0  0  0  0  0  0  0  0  0  0  0  0
  132.0460  124.6280   61.4050 C   0  0  0  0  0  0  0  0  0  0  0  0
  128.7470  126.1790   60.9400 C   0  0  0  0  0  0  0  0  0  0  0  0
  127.6170  126.1500   60.1170 C   0  0  0  0  0  0  0  0  0  0  0  0
  126.7380  127.3400   60.0470 C   0  0  0  0  0  0  0  0  0  0  0  0
  126.5420  127.9970   58.8300 C   0  0  0  0  0  0  0  0  0  0  0  0
  125.7230  129.1210   58.7650 C   0  0  0  0  0  0  0  0  0  0  0  0
  125.0860  129.6010   59.9100 C   0  0  0  0  0  0  0  0  0  0  0  0
  124.2940  130.7210   59.7510 O   0  0  0  0  0  0  0  0  0  0  0  0
  123.7590  131.0170   58.4660 C   0  0  0  0  0  0  0  0  0  0  0  0
  125.2820  128.9360   61.1320 C   0  0  0  0  0  0  0  0  0  0  0  0
  126.1020  127.8130   61.1950 C   0  0  0  0  0  0  0  0  0  0  0  0
  127.3610  124.9650   59.3780 C   0  0  0  0  0  0  0  0  0  0  0  0
  126.3190  124.5930   58.4610 C   0  0  0  0  0  0  0  0  0  0  0  0
  125.2880  125.4360   58.1310 N   0  0  0  0  0  0  0  0  0  0  0  0
  1  2  1  0
  2  3  1  0
  3  4  2  0
  3  5  1  0
  5  6  1  0
  6  7  1  0
  7  8  2  0
  8  9  1  0
  9 10  1  0
 10 11  2  0
 11 12  1  0
 12 13  2  0
 13 14  1  0
 14 15  1  0
 13 16  1  0
 16 17  2  0
  9 18  2  0
 18 19  1  0
 19 20  1  0
 20 21  2  0
 21 22  1  0
 22 23  2  0
 23 24  1  0
 24 25  1  0
 23 26  1  0
 26 27  2  0
 19 28  2  0
 28 29  1  0
 29 30  1  0
 29  5  2  0
 28  7  1  0
 17 10  1  0
 27 20  1  0
M  END
>  <Binding energies>  (38) 
[-7.68]

>  <Ligand effiencies>  (38) 
[-0.24]

>  <Interactions>  (38) 
["V-B:MET:535:CE:9807, V-B:ILE:369:CG2:8209, V-B:TYR:539:CE2:9848, V-A:GLU:543:CD:4908, V-A:TYR:539:CE1:4875, V-B:TYR:539:CD2:9846, V-A:ARG:545:CZ:4926, H-B:TYR:531:OH:9767, V-B:TYR:539:CD1:9845, V-B:TYR:539:CG:9844, H-B:ASP:366:OD2:8187, V-A:TYR:484:CZ:4347, V-B:TYR:539:CE1:9847, V-B:TYR:539:C:9839, V-B:ASP:366:CG:8185, H-B:TYR:539:N:9842, V-B:PRO:540:CB:9857, V-B:PRO:540:CA:9855, V-B:ASP:366:CB:8184, V-B:ASP:366:CA:8182, V-B:PRO:540:N:9856, V-B:TYR:531:CZ:9766, V-B:ILE:538:CA:9832, V-B:PRO:540:CD:9859, V-B:ASP:366:C:8180, V-B:ILE:369:CB:8208, H-A:GLY:454:N:4050, H-A:TYR:484:OH:4348, H-A:ARG:545:NH2:4928, V-A:TYR:484:CE2:4346, H-A:ARG:545:NE:4924, V-A:GLY:454:CA:4049, H-A:ARG:545:NH1:4927, V-A:ARG:545:CD:4923, V-A:GLY:453:C:4042, V-A:ARG:545:CG:4922"]

$$$$
9a_Ghoteimi_2023
     RDKit          3D

 48 54  0  0  0  0  0  0  0  0999 V2000
  130.1580  116.0870   58.5670 C   0  0  0  0  0  0  0  0  0  0  0  0
  131.5990  116.5280   58.8470 C   0  0  0  0  0  0  0  0  0  0  0  0
  131.5920  117.8190   59.4440 O   0  0  0  0  0  0  0  0  0  0  0  0
  131.0600  118.0170   60.6770 C   0  0  0  0  0  0  0  0  0  0  0  0
  130.9140  117.1150   61.5090 O   0  0  0  0  0  0  0  0  0  0  0  0
  130.6600  119.4430   60.9290 C   0  0  0  0  0  0  0  0  0  0  0  0
  131.3240  120.4710   60.2480 C   0  0  0  0  0  0  0  0  0  0  0  0
  130.9770  121.8020   60.4610 C   0  0  0  0  0  0  0  0  0  0  0  0
  129.9590  122.1340   61.3550 C   0  0  0  0  0  0  0  0  0  0  0  0
  129.6940  123.5100   61.4910 N   0  0  0  0  0  0  0  0  0  0  0  0
  130.4540  124.5870   61.1700 C   0  0  0  0  0  0  0  0  0  0  0  0
  131.5780  124.5170   60.6720 O   0  0  0  0  0  0  0  0  0  0  0  0
  129.8440  125.8900   61.4510 C   0  0  0  0  0  0  0  0  0  0  0  0
  129.5810  127.0500   60.1480 S   0  0  0  0  0  0  0  0  0  0  0  0
  128.8710  128.2010   61.2550 C   0  0  0  0  0  0  0  0  0  0  0  0
  128.4100  129.3790   60.8370 N   0  0  0  0  0  0  0  0  0  0  0  0
  127.8660  130.1970   61.7760 C   0  0  0  0  0  0  0  0  0  0  0  0
  127.3460  131.5090   61.2830 C   0  0  0  0  0  0  0  0  0  0  0  0
  126.2520  131.5580   60.4120 C   0  0  0  0  0  0  0  0  0  0  0  0
  125.7610  132.7750   59.9490 C   0  0  0  0  0  0  0  0  0  0  0  0
  126.3370  133.9910   60.3500 C   0  0  0  0  0  0  0  0  0  0  0  0
  125.8660  135.2210   59.8780 N   0  0  0  0  0  0  0  0  0  0  0  0
  124.4210  135.5050   59.7720 C   0  0  0  0  0  0  0  0  0  0  0  0
  124.0910  136.7400   58.9080 C   0  0  0  0  0  0  0  0  0  0  0  0
  124.7980  137.8720   59.3870 O   0  0  0  0  0  0  0  0  0  0  0  0
  126.2010  137.6670   59.3370 C   0  0  0  0  0  0  0  0  0  0  0  0
  126.5900  136.4630   60.2180 C   0  0  0  0  0  0  0  0  0  0  0  0
  127.4420  133.9350   61.2120 C   0  0  0  0  0  0  0  0  0  0  0  0
  127.9340  132.7180   61.6720 C   0  0  0  0  0  0  0  0  0  0  0  0
  127.8090  129.8470   63.1270 C   0  0  0  0  0  0  0  0  0  0  0  0
  128.3100  128.6190   63.5730 C   0  0  0  0  0  0  0  0  0  0  0  0
  128.2580  128.3130   65.0260 C   0  0  0  0  0  0  0  0  0  0  0  0
  127.0950  128.5520   65.7620 C   0  0  0  0  0  0  0  0  0  0  0  0
  127.0440  128.2510   67.1200 C   0  0  0  0  0  0  0  0  0  0  0  0
  128.1490  127.6850   67.7750 C   0  0  0  0  0  0  0  0  0  0  0  0
  128.1250  127.3850   69.1390 N   0  0  0  0  0  0  0  0  0  0  0  0
  129.3700  127.5050   69.9250 C   0  0  0  0  0  0  0  0  0  0  0  0
  129.1300  127.5200   71.4490 C   0  0  0  0  0  0  0  0  0  0  0  0
  128.3960  126.3700   71.8370 O   0  0  0  0  0  0  0  0  0  0  0  0
  127.1310  126.3140   71.1980 C   0  0  0  0  0  0  0  0  0  0  0  0
  127.3160  126.2680   69.6660 C   0  0  0  0  0  0  0  0  0  0  0  0
  129.3100  127.4460   67.0250 C   0  0  0  0  0  0  0  0  0  0  0  0
  129.3630  127.7510   65.6680 C   0  0  0  0  0  0  0  0  0  0  0  0
  128.8520  127.7310   62.6010 C   0  0  0  0  0  0  0  0  0  0  0  0
  129.3930  126.3970   62.6790 C   0  0  0  0  0  0  0  0  0  0  0  0
  129.4440  125.6890   63.8530 N   0  0  0  0  0  0  0  0  0  0  0  0
  129.2850  121.1100   62.0390 C   0  0  0  0  0  0  0  0  0  0  0  0
  129.6340  119.7790   61.8260 C   0  0  0  0  0  0  0  0  0  0  0  0
  1  2  1  0
  2  3  1  0
  3  4  1  0
  4  5  2  0
  4  6  1  0
  6  7  2  0
  7  8  1  0
  8  9  2  0
  9 10  1  0
 10 11  1  0
 11 12  2  0
 11 13  1  0
 13 14  1  0
 14 15  1  0
 15 16  2  0
 16 17  1  0
 17 18  1  0
 18 19  2  0
 19 20  1  0
 20 21  2  0
 21 22  1  0
 22 23  1  0
 23 24  1  0
 24 25  1  0
 25 26  1  0
 26 27  1  0
 21 28  1  0
 28 29  2  0
 17 30  2  0
 30 31  1  0
 31 32  1  0
 32 33  2  0
 33 34  1  0
 34 35  2  0
 35 36  1  0
 36 37  1  0
 37 38  1  0
 38 39  1  0
 39 40  1  0
 40 41  1  0
 35 42  1  0
 42 43  2  0
 31 44  2  0
 44 45  1  0
 45 46  1  0
  9 47  1  0
 47 48  2  0
 48  6  1  0
 45 13  2  0
 44 15  1  0
 29 18  1  0
 43 32  1  0
 27 22  1  0
 41 36  1  0
M  END
>  <Binding energies>  (39) 
[-4.41]

>  <Ligand effiencies>  (39) 
[-0.08647058823529412]

>  <Interactions>  (39) 
["V-A:ALA:541:CB:4892, V-B:ILE:369:CG2:8209, V-B:LEU:475:CD2:9231, V-B:TYR:539:CE2:9848, V-A:GLU:543:CD:4908, V-A:GLU:543:CG:4907, V-A:TYR:539:CE1:4875, V-B:TYR:539:CD2:9846, V-A:LEU:475:CD2:4259, V-A:TYR:484:CE1:4345, V-A:TYR:539:CD1:4873, H-B:GLU:543:OE2:9882, V-B:GLU:543:CD:9880, H-B:GLU:543:OE1:9881, V-A:HIS:456:CD2:4068, V-B:GLY:544:CA:9886, V-A:TYR:539:CG:4872, H-A:GLU:543:OE1:4909, V-B:GLU:543:CG:9879, V-B:TYR:539:CA:9841, H-A:GLU:543:OE2:4910, V-B:TYR:539:CB:9843, V-A:LEU:475:CD1:4258, V-B:ALA:541:CB:9864, H-A:TYR:484:OH:4348, V-B:SER:385:CB:8381, V-B:SER:385:CA:8379, V-B:HIS:456:CE1:9042, V-B:HIS:383:CD2:8364, V-A:TYR:539:CB:4871, V-A:SER:385:CB:3409, V-A:GLU:543:CB:4906, H-B:SER:385:OG:8382, V-B:VAL:344:CG1:7973, V-A:LEU:475:CG:4257, V-A:HIS:383:CE1:3394, H-A:SER:385:OG:3410, H-B:HIS:383:NE2:8366, V-A:HIS:456:CE1:4070, V-B:GLU:543:CB:9878, V-B:ILE:343:CG2:7964, H-B:LYS:547:NZ:9923, V-B:HIS:456:CD2:9040, V-B:VAL:384:C:8369, V-B:GLY:544:C:9884, V-B:GLU:543:C:9874, V-B:ARG:545:CA:9891"]

$$$$
9b_Ghoteimi_2023
     RDKit          3D

 42 48  0  0  0  0  0  0  0  0999 V2000
  130.0560  128.8350   59.4320 N   0  0  0  0  0  0  0  0  0  0  0  0
  130.8330  127.8000   58.9770 C   0  0  0  0  0  0  0  0  0  0  0  0
  131.8020  127.9440   57.9730 C   0  0  0  0  0  0  0  0  0  0  0  0
  132.1960  129.1560   57.2500 C   0  0  0  0  0  0  0  0  0  0  0  0
  133.3640  129.3230   56.8920 O   0  0  0  0  0  0  0  0  0  0  0  0
  131.2000  130.0490   57.0230 N   0  0  0  0  0  0  0  0  0  0  0  0
  131.2930  131.2750   56.3770 C   0  0  0  0  0  0  0  0  0  0  0  0
  132.5080  131.8490   56.0040 C   0  0  0  0  0  0  0  0  0  0  0  0
  132.1710  133.0380   55.4000 C   0  0  0  0  0  0  0  0  0  0  0  0
  130.8230  133.1730   55.4100 O   0  0  0  0  0  0  0  0  0  0  0  0
  130.2780  132.0500   56.0320 N   0  0  0  0  0  0  0  0  0  0  0  0
  132.5850  126.4040   57.6170 S   0  0  0  0  0  0  0  0  0  0  0  0
  131.5990  125.5780   58.7990 C   0  0  0  0  0  0  0  0  0  0  0  0
  131.7060  124.2660   59.0030 N   0  0  0  0  0  0  0  0  0  0  0  0
  130.8800  123.7170   59.9320 C   0  0  0  0  0  0  0  0  0  0  0  0
  131.0060  122.2400   60.1260 C   0  0  0  0  0  0  0  0  0  0  0  0
  129.9250  121.4760   60.5820 C   0  0  0  0  0  0  0  0  0  0  0  0
  130.0520  120.1040   60.7740 C   0  0  0  0  0  0  0  0  0  0  0  0
  131.2690  119.4470   60.5320 C   0  0  0  0  0  0  0  0  0  0  0  0
  131.4110  118.0670   60.7190 N   0  0  0  0  0  0  0  0  0  0  0  0
  131.7760  117.1740   59.6010 C   0  0  0  0  0  0  0  0  0  0  0  0
  132.2230  115.7670   60.0480 C   0  0  0  0  0  0  0  0  0  0  0  0
  131.2240  115.1770   60.8640 O   0  0  0  0  0  0  0  0  0  0  0  0
  130.9870  115.9450   62.0320 C   0  0  0  0  0  0  0  0  0  0  0  0
  130.5050  117.3610   61.6480 C   0  0  0  0  0  0  0  0  0  0  0  0
  132.3420  120.2150   60.0570 C   0  0  0  0  0  0  0  0  0  0  0  0
  132.2130  121.5870   59.8600 C   0  0  0  0  0  0  0  0  0  0  0  0
  129.9740  124.4820   60.6700 C   0  0  0  0  0  0  0  0  0  0  0  0
  129.8730  125.8640   60.4740 C   0  0  0  0  0  0  0  0  0  0  0  0
  128.9150  126.6370   61.3050 C   0  0  0  0  0  0  0  0  0  0  0  0
  127.5540  126.6380   60.9950 C   0  0  0  0  0  0  0  0  0  0  0  0
  126.6520  127.3450   61.7840 C   0  0  0  0  0  0  0  0  0  0  0  0
  127.0860  128.0720   62.9040 C   0  0  0  0  0  0  0  0  0  0  0  0
  126.1950  128.7760   63.7180 N   0  0  0  0  0  0  0  0  0  0  0  0
  125.1360  129.5920   63.0930 C   0  0  0  0  0  0  0  0  0  0  0  0
  124.4980  130.6080   64.0650 C   0  0  0  0  0  0  0  0  0  0  0  0
  124.0020  129.9360   65.2130 O   0  0  0  0  0  0  0  0  0  0  0  0
  125.0340  129.2510   65.9070 C   0  0  0  0  0  0  0  0  0  0  0  0
  125.6890  128.2040   64.9820 C   0  0  0  0  0  0  0  0  0  0  0  0
  128.4530  128.0480   63.2160 C   0  0  0  0  0  0  0  0  0  0  0  0
  129.3560  127.3400   62.4270 C   0  0  0  0  0  0  0  0  0  0  0  0
  130.7040  126.4550   59.4810 C   0  0  0  0  0  0  0  0  0  0  0  0
  1  2  1  0
  2  3  2  0
  3  4  1  0
  4  5  2  0
  4  6  1  0
  6  7  1  0
  7  8  1  0
  8  9  2  0
  9 10  1  0
 10 11  1  0
  3 12  1  0
 12 13  1  0
 13 14  2  0
 14 15  1  0
 15 16  1  0
 16 17  2  0
 17 18  1  0
 18 19  2  0
 19 20  1  0
 20 21  1  0
 21 22  1  0
 22 23  1  0
 23 24  1  0
 24 25  1  0
 19 26  1  0
 26 27  2  0
 15 28  2  0
 28 29  1  0
 29 30  1  0
 30 31  2  0
 31 32  1  0
 32 33  2  0
 33 34  1  0
 34 35  1  0
 35 36  1  0
 36 37  1  0
 37 38  1  0
 38 39  1  0
 33 40  1  0
 40 41  2  0
 29 42  2  0
 42  2  1  0
 11  7  2  0
 42 13  1  0
 27 16  1  0
 41 30  1  0
 25 20  1  0
 39 34  1  0
M  END
>  <Binding energies>  (40) 
[-5.69]

>  <Ligand effiencies>  (40) 
[-0.12644444444444444]

>  <Interactions>  (40) 
["V-A:ASP:366:CA:3210, V-A:ASP:366:CG:3213, V-B:TYR:539:CE2:9848, V-A:ASP:366:CB:3212, V-A:GLU:543:CD:4908, V-A:ASP:366:C:3208, H-B:GLY:454:N:9022, H-B:TYR:484:OH:9320, H-A:TYR:531:OH:4795, V-B:ARG:545:CZ:9898, V-A:ILE:369:CG2:3237, V-B:TYR:539:CD2:9846, V-A:LEU:475:CD2:4259, H-B:TYR:539:OH:9850, V-B:TYR:539:C:9839, V-B:GLU:543:CD:9880, V-A:PRO:540:CD:4887, V-A:TYR:531:CE2:4793, V-A:PRO:540:CB:4885, V-A:LEU:363:CD1:3189, V-A:ILE:538:CA:4860, V-A:ILE:538:CB:4862, H-A:TYR:539:N:4870, V-A:PRO:540:N:4884, H-A:GLU:543:OE1:4909, V-A:ILE:538:CG2:4863, V-A:LEU:475:CD1:4258, V-B:GLY:454:CA:9021, V-A:PRO:540:CG:4886, V-B:ARG:545:CD:9895, V-B:TYR:484:CZ:9319, V-B:HIS:456:CE1:9042, V-B:GLY:453:C:9014, V-A:SER:385:CB:3409, V-A:PRO:482:CB:4326, V-A:LEU:475:CG:4257, V-A:HIS:383:CE1:3394, V-A:PRO:482:CG:4327, H-A:SER:385:OG:3410, V-A:TYR:531:CZ:4794, V-A:CYS:476:C:4264, V-A:THR:477:CG2:4273, V-A:PRO:482:CA:4324"]

$$$$
9c_Ghoteimi_2023
     RDKit          3D

 42 48  0  0  0  0  0  0  0  0999 V2000
  126.9390  129.7070   59.4690 N   0  0  0  0  0  0  0  0  0  0  0  0
  127.2880  128.6960   60.3280 C   0  0  0  0  0  0  0  0  0  0  0  0
  127.3080  127.3410   59.9610 C   0  0  0  0  0  0  0  0  0  0  0  0
  127.0020  126.7440   58.6570 C   0  0  0  0  0  0  0  0  0  0  0  0
  126.8520  127.4510   57.6590 O   0  0  0  0  0  0  0  0  0  0  0  0
  126.8950  125.3920   58.6480 N   0  0  0  0  0  0  0  0  0  0  0  0
  126.6010  124.5860   57.5570 C   0  0  0  0  0  0  0  0  0  0  0  0
  127.3090  124.4180   56.4610 N   0  0  0  0  0  0  0  0  0  0  0  0
  126.7220  123.5790   55.6290 C   0  0  0  0  0  0  0  0  0  0  0  0
  125.5060  123.0460   56.0480 C   0  0  0  0  0  0  0  0  0  0  0  0
  125.1200  123.6840   57.6180 S   0  0  0  0  0  0  0  0  0  0  0  0
  127.7720  126.3180   61.3190 S   0  0  0  0  0  0  0  0  0  0  0  0
  127.9180  127.7050   62.3730 C   0  0  0  0  0  0  0  0  0  0  0  0
  128.2470  127.5750   63.6570 N   0  0  0  0  0  0  0  0  0  0  0  0
  128.3170  128.7140   64.3940 C   0  0  0  0  0  0  0  0  0  0  0  0
  128.6670  128.5380   65.8360 C   0  0  0  0  0  0  0  0  0  0  0  0
  128.2930  129.4870   66.7940 C   0  0  0  0  0  0  0  0  0  0  0  0
  128.6290  129.3230   68.1340 C   0  0  0  0  0  0  0  0  0  0  0  0
  129.3640  128.2060   68.5640 C   0  0  0  0  0  0  0  0  0  0  0  0
  129.7040  128.0230   69.9100 N   0  0  0  0  0  0  0  0  0  0  0  0
  128.9250  127.1230   70.7840 C   0  0  0  0  0  0  0  0  0  0  0  0
  129.6340  126.7720   72.1090 C   0  0  0  0  0  0  0  0  0  0  0  0
  129.9910  127.9620   72.7950 O   0  0  0  0  0  0  0  0  0  0  0  0
  130.8800  128.7570   72.0280 C   0  0  0  0  0  0  0  0  0  0  0  0
  130.2130  129.1650   70.6970 C   0  0  0  0  0  0  0  0  0  0  0  0
  129.7200  127.2490   67.6030 C   0  0  0  0  0  0  0  0  0  0  0  0
  129.3790  127.4130   66.2640 C   0  0  0  0  0  0  0  0  0  0  0  0
  128.0860  129.9760   63.8410 C   0  0  0  0  0  0  0  0  0  0  0  0
  127.7620  130.1190   62.4870 C   0  0  0  0  0  0  0  0  0  0  0  0
  127.5570  131.4830   61.9400 C   0  0  0  0  0  0  0  0  0  0  0  0
  126.2920  132.0720   61.9680 C   0  0  0  0  0  0  0  0  0  0  0  0
  126.0990  133.3580   61.4710 C   0  0  0  0  0  0  0  0  0  0  0  0
  127.1680  134.0900   60.9310 C   0  0  0  0  0  0  0  0  0  0  0  0
  127.0000  135.3870   60.4370 N   0  0  0  0  0  0  0  0  0  0  0  0
  125.6330  135.9040   60.2210 C   0  0  0  0  0  0  0  0  0  0  0  0
  125.5930  137.1600   59.3250 C   0  0  0  0  0  0  0  0  0  0  0  0
  126.4320  138.1700   59.8660 O   0  0  0  0  0  0  0  0  0  0  0  0
  127.7810  137.7380   59.9550 C   0  0  0  0  0  0  0  0  0  0  0  0
  127.8790  136.4920   60.8630 C   0  0  0  0  0  0  0  0  0  0  0  0
  128.4390  133.4970   60.9260 C   0  0  0  0  0  0  0  0  0  0  0  0
  128.6320  132.2100   61.4230 C   0  0  0  0  0  0  0  0  0  0  0  0
  127.6480  128.9360   61.7030 C   0  0  0  0  0  0  0  0  0  0  0  0
  1  2  1  0
  2  3  2  0
  3  4  1  0
  4  5  2  0
  4  6  1  0
  6  7  1  0
  7  8  2  0
  8  9  1  0
  9 10  2  0
 10 11  1  0
  3 12  1  0
 12 13  1  0
 13 14  2  0
 14 15  1  0
 15 16  1  0
 16 17  2  0
 17 18  1  0
 18 19  2  0
 19 20  1  0
 20 21  1  0
 21 22  1  0
 22 23  1  0
 23 24  1  0
 24 25  1  0
 19 26  1  0
 26 27  2  0
 15 28  2  0
 28 29  1  0
 29 30  1  0
 30 31  2  0
 31 32  1  0
 32 33  2  0
 33 34  1  0
 34 35  1  0
 35 36  1  0
 36 37  1  0
 37 38  1  0
 38 39  1  0
 33 40  1  0
 40 41  2  0
 29 42  2  0
 42  2  1  0
 11  7  1  0
 42 13  1  0
 27 16  1  0
 41 30  1  0
 25 20  1  0
 39 34  1  0
M  END
>  <Binding energies>  (41) 
[-5.56]

>  <Ligand effiencies>  (41) 
[-0.12355555555555554]

>  <Interactions>  (41) 
["V-A:ALA:541:CB:4892, V-B:MET:535:CE:9807, V-B:LEU:475:CD2:9231, V-A:PRO:540:CA:4883, V-A:GLU:543:CD:4908, V-A:GLU:543:CG:4907, V-A:TYR:539:CE1:4875, H-B:TYR:531:OH:9767, H-B:ASP:366:OD2:8187, V-B:PRO:540:CB:9857, V-A:TYR:539:CD1:4873, V-A:TYR:539:C:4867, V-A:PRO:540:C:4881, V-B:TYR:531:CZ:9766, V-B:TYR:531:CE2:9765, V-B:GLU:543:CD:9880, V-B:ILE:538:CD1:9837, V-A:HIS:456:CD2:4068, V-A:HIS:456:CG:4066, V-A:TYR:539:CG:4872, V-A:GLY:544:CA:4914, V-A:GLU:543:C:4902, V-A:GLU:543:CA:4904, H-A:LYS:547:NZ:4951, V-A:LYS:547:CE:4950, V-B:SER:385:CB:8381, V-B:TYR:484:CZ:9319, V-B:HIS:456:CE1:9042, V-B:HIS:383:CD2:8364, V-A:TYR:539:CB:4871, V-B:PRO:482:CB:9298, V-B:PRO:482:CG:9299, V-A:GLU:543:CB:4906, V-A:TYR:539:CA:4869, V-A:VAL:344:CG1:3001, H-B:SER:385:OG:8382, H-B:HIS:383:NE2:8366, V-A:HIS:456:CE1:4070, V-B:TYR:484:CE2:9318, V-B:HIS:456:CD2:9040, V-A:GLY:544:C:4912"]

$$$$
RR11_Rahimova_2017
     RDKit          3D

 33 38  0  0  0  0  0  0  0  0999 V2000
  131.7410  116.1270   60.2610 N   0  0  0  0  0  0  0  0  0  0  0  0
  131.2630  117.4100   60.5200 C   0  0  0  0  0  0  0  0  0  0  0  0
  130.1270  117.5810   61.3090 C   0  0  0  0  0  0  0  0  0  0  0  0
  129.6520  118.8630   61.5700 C   0  0  0  0  0  0  0  0  0  0  0  0
  130.3070  119.9850   61.0460 C   0  0  0  0  0  0  0  0  0  0  0  0
  129.7970  121.3660   61.3330 C   0  0  0  0  0  0  0  0  0  0  0  0
  130.3610  122.2070   62.1720 N   0  0  0  0  0  0  0  0  0  0  0  0
  129.5920  123.3400   62.1220 C   0  0  0  0  0  0  0  0  0  0  0  0
  129.7480  124.5490   62.8140 C   0  0  0  0  0  0  0  0  0  0  0  0
  128.8290  125.5770   62.5750 C   0  0  0  0  0  0  0  0  0  0  0  0
  128.9700  126.8990   63.3160 C   0  0  0  0  0  0  0  0  0  0  0  0
  128.6860  128.1070   62.4340 C   0  0  0  0  0  0  0  0  0  0  0  0
  128.8300  127.9960   61.0470 C   0  0  0  0  0  0  0  0  0  0  0  0
  128.5720  129.0720   60.1960 C   0  0  0  0  0  0  0  0  0  0  0  0
  128.1560  130.2810   60.7680 C   0  0  0  0  0  0  0  0  0  0  0  0
  127.8520  131.4710   60.1590 N   0  0  0  0  0  0  0  0  0  0  0  0
  127.5230  132.2880   61.1360 C   0  0  0  0  0  0  0  0  0  0  0  0
  127.1250  133.7230   60.9460 C   0  0  0  0  0  0  0  0  0  0  0  0
  128.0120  134.7560   61.2770 C   0  0  0  0  0  0  0  0  0  0  0  0
  127.6400  136.0880   61.1110 C   0  0  0  0  0  0  0  0  0  0  0  0
  126.3770  136.3960   60.6100 C   0  0  0  0  0  0  0  0  0  0  0  0
  126.0020  137.7290   60.4470 N   0  0  0  0  0  0  0  0  0  0  0  0
  125.4870  135.3800   60.2720 C   0  0  0  0  0  0  0  0  0  0  0  0
  125.8600  134.0490   60.4390 C   0  0  0  0  0  0  0  0  0  0  0  0
  127.5930  131.6730   62.3680 N   0  0  0  0  0  0  0  0  0  0  0  0
  128.0030  130.3750   62.1710 C   0  0  0  0  0  0  0  0  0  0  0  0
  128.2530  129.3000   63.0280 C   0  0  0  0  0  0  0  0  0  0  0  0
  127.7640  125.3890   61.6860 C   0  0  0  0  0  0  0  0  0  0  0  0
  127.5780  124.1950   60.9850 C   0  0  0  0  0  0  0  0  0  0  0  0
  128.5120  123.1830   61.2210 C   0  0  0  0  0  0  0  0  0  0  0  0
  128.6760  121.9060   60.7370 N   0  0  0  0  0  0  0  0  0  0  0  0
  131.4480  119.7990   60.2530 C   0  0  0  0  0  0  0  0  0  0  0  0
  131.9250  118.5170   59.9910 C   0  0  0  0  0  0  0  0  0  0  0  0
  1  2  1  0
  2  3  2  0
  3  4  1  0
  4  5  2  0
  5  6  1  0
  6  7  2  0
  7  8  1  0
  8  9  2  0
  9 10  1  0
 10 11  1  0
 11 12  1  0
 12 13  2  0
 13 14  1  0
 14 15  2  0
 15 16  1  0
 16 17  2  0
 17 18  1  0
 18 19  2  0
 19 20  1  0
 20 21  2  0
 21 22  1  0
 21 23  1  0
 23 24  2  0
 17 25  1  0
 25 26  1  0
 26 27  2  0
 10 28  2  0
 28 29  1  0
 29 30  2  0
 30 31  1  0
  5 32  1  0
 32 33  2  0
 33  2  1  0
 31  6  1  0
 30  8  1  0
 27 12  1  0
 26 15  1  0
 24 18  1  0
M  END
>  <Binding energies>  (42) 
[-7.99]

>  <Ligand effiencies>  (42) 
[-0.20487179487179488]

>  <Interactions>  (42) 
["V-A:ALA:541:CB:4892, V-B:LEU:475:CD2:9231, V-B:TYR:539:CE2:9848, V-A:GLU:543:CD:4908, H-B:TYR:484:OH:9320, V-A:GLU:543:CG:4907, V-A:TYR:539:CE1:4875, V-B:TYR:539:CD2:9846, V-A:LEU:475:CD2:4259, V-A:TYR:484:CZ:4347, V-B:TYR:539:C:9839, V-B:PRO:540:CA:9855, V-A:TYR:539:CD1:4873, V-A:TYR:539:C:4867, V-A:PRO:540:C:4881, V-B:GLU:543:CD:9880, V-A:LEU:475:CD1:4258, V-B:ALA:541:CB:9864, H-A:TYR:484:OH:4348, V-B:SER:385:CB:8381, V-A:ALA:541:CA:4890, H-B:TYR:539:O:9840, V-B:HIS:383:CD2:8364, V-A:SER:385:CB:3409, V-B:PRO:482:CB:9298, V-B:PRO:482:CG:9299, H-B:SER:385:OG:8382, V-A:PRO:482:CB:4326, V-A:LEU:475:CG:4257, V-A:HIS:383:CE1:3394, V-A:PRO:482:CG:4327, H-A:SER:385:OG:3410, H-A:CYS:476:O:4266"]

$$$$
RR16_Rahimova_2017
     RDKit          3D

 44 49  0  0  0  0  0  0  0  0999 V2000
  127.4930  133.4880   62.5650 O   0  0  0  0  0  0  0  0  0  0  0  0
  126.9000  133.4950   61.2230 S   0  0  0  0  0  0  0  0  0  0  0  0
  126.3730  134.7330   60.6390 O   0  0  0  0  0  0  0  0  0  0  0  0
  125.6110  132.2890   61.2050 N   0  0  0  0  0  0  0  0  0  0  0  0
  125.8960  130.8660   61.5040 C   0  0  0  0  0  0  0  0  0  0  0  0
  124.8030  130.3160   62.4570 C   0  0  0  0  0  0  0  0  0  0  0  0
  123.3390  130.6750   62.1350 C   0  0  0  0  0  0  0  0  0  0  0  0
  122.9230  130.3610   60.6880 C   0  0  0  0  0  0  0  0  0  0  0  0
  123.7060  131.1060   59.5910 C   0  0  0  0  0  0  0  0  0  0  0  0
  125.0110  130.4560   59.0930 C   0  0  0  0  0  0  0  0  0  0  0  0
  126.0610  130.1080   60.1660 C   0  0  0  0  0  0  0  0  0  0  0  0
  128.1360  132.8420   60.1070 C   0  0  0  0  0  0  0  0  0  0  0  0
  127.8320  132.6380   58.7590 C   0  0  0  0  0  0  0  0  0  0  0  0
  128.7600  132.0170   57.9290 C   0  0  0  0  0  0  0  0  0  0  0  0
  129.9880  131.6030   58.4500 C   0  0  0  0  0  0  0  0  0  0  0  0
  131.1270  130.6780   57.4210 S   0  0  0  0  0  0  0  0  0  0  0  0
  132.4540  131.2870   57.5790 O   0  0  0  0  0  0  0  0  0  0  0  0
  130.5190  130.5600   56.0900 O   0  0  0  0  0  0  0  0  0  0  0  0
  131.1630  129.0640   58.1570 N   0  0  0  0  0  0  0  0  0  0  0  0
  129.9060  128.6720   58.8440 C   0  0  0  0  0  0  0  0  0  0  0  0
  130.1310  127.4140   59.7070 C   0  0  0  0  0  0  0  0  0  0  0  0
  130.7580  126.2590   58.8860 C   0  0  0  0  0  0  0  0  0  0  0  0
  131.0330  125.0160   59.7360 C   0  0  0  0  0  0  0  0  0  0  0  0
  132.3500  124.5680   59.9070 C   0  0  0  0  0  0  0  0  0  0  0  0
  132.6480  123.4440   60.6800 C   0  0  0  0  0  0  0  0  0  0  0  0
  133.9430  123.0230   60.8390 O   0  0  0  0  0  0  0  0  0  0  0  0
  131.5860  122.7620   61.2920 C   0  0  0  0  0  0  0  0  0  0  0  0
  131.5750  121.6640   62.1040 N   0  0  0  0  0  0  0  0  0  0  0  0
  130.2650  121.4230   62.4570 N   0  0  0  0  0  0  0  0  0  0  0  0
  129.4830  122.3290   61.8380 N   0  0  0  0  0  0  0  0  0  0  0  0
  128.0500  122.3620   62.1010 C   0  0  0  0  0  0  0  0  0  0  0  0
  127.2390  122.7730   60.8800 C   0  0  0  0  0  0  0  0  0  0  0  0
  126.0390  123.4750   61.0390 C   0  0  0  0  0  0  0  0  0  0  0  0
  125.3050  123.8720   59.9210 C   0  0  0  0  0  0  0  0  0  0  0  0
  125.7660  123.5710   58.6390 C   0  0  0  0  0  0  0  0  0  0  0  0
  126.9630  122.8730   58.4740 C   0  0  0  0  0  0  0  0  0  0  0  0
  127.5420  122.5080   56.8900 Cl  0  0  0  0  0  0  0  0  0  0  0  0
  127.6960  122.4720   59.5930 C   0  0  0  0  0  0  0  0  0  0  0  0
  130.2580  123.2150   61.1080 C   0  0  0  0  0  0  0  0  0  0  0  0
  129.9580  124.3390   60.3310 C   0  0  0  0  0  0  0  0  0  0  0  0
  131.9970  126.7190   58.0750 C   0  0  0  0  0  0  0  0  0  0  0  0
  131.7150  128.0050   57.2730 C   0  0  0  0  0  0  0  0  0  0  0  0
  130.3070  131.8450   59.7880 C   0  0  0  0  0  0  0  0  0  0  0  0
  129.3780  132.4630   60.6180 C   0  0  0  0  0  0  0  0  0  0  0  0
  1  2  2  0
  2  3  2  0
  2  4  1  0
  4  5  1  0
  5  6  1  0
  6  7  1  0
  7  8  1  0
  8  9  1  0
  9 10  1  0
 10 11  1  0
  2 12  1  0
 12 13  2  0
 13 14  1  0
 14 15  2  0
 15 16  1  0
 16 17  2  0
 16 18  2  0
 16 19  1  0
 19 20  1  0
 20 21  1  0
 21 22  1  0
 22 23  1  0
 23 24  2  0
 24 25  1  0
 25 26  1  0
 25 27  2  0
 27 28  1  0
 28 29  2  0
 29 30  1  0
 30 31  1  0
 31 32  1  0
 32 33  2  0
 33 34  1  0
 34 35  2  0
 35 36  1  0
 36 37  1  0
 36 38  2  0
 30 39  1  0
 39 40  2  0
 22 41  1  0
 41 42  1  0
 15 43  1  0
 43 44  2  0
 11  5  1  0
 44 12  1  0
 42 19  1  0
 40 23  1  0
 39 27  1  0
 38 32  1  0
M  END
>  <Binding energies>  (43) 
[-8.61]

>  <Ligand effiencies>  (43) 
[-0.17937499999999998]

>  <Interactions>  (43) 
["V-A:ALA:541:CB:4892, V-A:ASP:366:CG:3213, V-B:ILE:369:CG2:8209, V-B:LEU:475:CD2:9231, V-A:PRO:540:CA:4883, V-B:TYR:539:CE2:9848, V-A:ASP:366:CB:3212, V-B:TYR:539:CZ:9849, V-B:ILE:369:CD1:8211, H-A:TYR:531:OH:4795, V-A:TYR:539:CE1:4875, V-B:TYR:539:CD2:9846, V-B:TYR:539:CD1:9845, V-B:TYR:539:CG:9844, V-B:TYR:539:CE1:9847, V-B:TYR:539:C:9839, V-B:ASP:366:CG:8185, V-B:PRO:540:CB:9857, V-B:PRO:540:CA:9855, V-B:ASP:366:CB:8184, V-B:ASP:366:CA:8182, V-B:PRO:540:N:9856, V-A:TYR:539:CD1:4873, V-A:TYR:539:C:4867, V-A:PRO:540:C:4881, V-A:PRO:540:CB:4885, V-B:PRO:540:C:9853, V-B:TYR:539:CA:9841, V-B:ALA:541:CB:9864, H-A:TYR:484:OH:4348, V-B:GLY:453:C:9014, V-B:GLY:453:CA:9016, H-A:SER:385:O:3406"]

$$$$
RR18_Rahimova_2017
     RDKit          3D

 36 41  0  0  0  0  0  0  0  0999 V2000
  128.5010  122.6430   61.3610 C   0  0  0  0  0  0  0  0  0  0  0  0
  128.3850  123.3900   60.0550 C   0  0  0  0  0  0  0  0  0  0  0  0
  127.5860  123.2520   58.9320 C   0  0  0  0  0  0  0  0  0  0  0  0
  127.9590  124.2620   58.0460 C   0  0  0  0  0  0  0  0  0  0  0  0
  128.9720  124.9810   58.6600 C   0  0  0  0  0  0  0  0  0  0  0  0
  129.8050  126.1940   58.2530 C   0  0  1  0  0  0  0  0  0  0  0  0
  131.0490  125.7770   57.4130 C   0  0  0  0  0  0  0  0  0  0  0  0
  132.1080  124.9700   58.0110 C   0  0  0  0  0  0  0  0  0  0  0  0
  133.2220  124.8740   57.4940 O   0  0  0  0  0  0  0  0  0  0  0  0
  131.7570  124.3660   59.1700 N   0  0  0  0  0  0  0  0  0  0  0  0
  132.4950  123.5050   60.0100 C   0  0  0  0  0  0  0  0  0  0  0  0
  132.7460  122.1540   59.7090 C   0  0  0  0  0  0  0  0  0  0  0  0
  133.4770  121.3550   60.5860 C   0  0  0  0  0  0  0  0  0  0  0  0
  133.9620  121.8880   61.7760 C   0  0  0  0  0  0  0  0  0  0  0  0
  133.7110  123.2210   62.0940 C   0  0  0  0  0  0  0  0  0  0  0  0
  132.9800  124.0350   61.2230 C   0  0  0  0  0  0  0  0  0  0  0  0
  132.7300  125.4870   61.6200 C   0  0  0  0  0  0  0  0  0  0  0  0
  131.0730  126.0950   56.0920 C   0  0  0  0  0  0  0  0  0  0  0  0
  130.1400  126.8590   55.4590 N   0  0  0  0  0  0  0  0  0  0  0  0
  129.2000  127.4010   56.1420 C   0  0  0  0  0  0  0  0  0  0  0  0
  128.0250  128.5230   55.4980 S   0  0  0  0  0  0  0  0  0  0  0  0
  127.2490  128.7130   57.1010 C   0  0  0  0  0  0  0  0  0  0  0  0
  126.1660  129.5060   57.4140 C   0  0  0  0  0  0  0  0  0  0  0  0
  125.5690  130.3810   56.3940 C   0  0  0  0  0  0  0  0  0  0  0  0
  125.8640  130.5330   55.2100 O   0  0  0  0  0  0  0  0  0  0  0  0
  124.5830  131.0650   56.9840 N   0  0  0  0  0  0  0  0  0  0  0  0
  124.4140  130.7300   58.2940 C   0  0  0  0  0  0  0  0  0  0  0  0
  123.4750  131.2380   59.1910 C   0  0  0  0  0  0  0  0  0  0  0  0
  123.4470  130.7360   60.4890 C   0  0  0  0  0  0  0  0  0  0  0  0
  124.3440  129.7380   60.8630 C   0  0  0  0  0  0  0  0  0  0  0  0
  125.2770  129.2460   59.9450 C   0  0  0  0  0  0  0  0  0  0  0  0
  125.3370  129.7570   58.6350 C   0  0  0  0  0  0  0  0  0  0  0  0
  127.9790  127.8790   58.0580 C   0  0  0  0  0  0  0  0  0  0  0  0
  127.7660  127.7960   59.2630 O   0  0  0  0  0  0  0  0  0  0  0  0
  128.9860  127.1820   57.4650 N   0  0  0  0  0  0  0  0  0  0  0  0
  129.2260  124.4420   59.8820 O   0  0  0  0  0  0  0  0  0  0  0  0
  1  2  1  0
  2  3  2  0
  3  4  1  0
  4  5  2  0
  6  5  1  6
  6  7  1  0
  7  8  1  0
  8  9  2  0
  8 10  1  0
 10 11  1  0
 11 12  2  0
 12 13  1  0
 13 14  2  0
 14 15  1  0
 15 16  2  0
 16 17  1  0
  7 18  2  0
 18 19  1  0
 19 20  2  0
 20 21  1  0
 21 22  1  0
 22 23  2  0
 23 24  1  0
 24 25  2  0
 24 26  1  0
 26 27  1  0
 27 28  2  0
 28 29  1  0
 29 30  2  0
 30 31  1  0
 31 32  2  0
 22 33  1  0
 33 34  2  0
 33 35  1  0
  5 36  1  0
 36  2  1  0
 35  6  1  0
 16 11  1  0
 35 20  1  0
 32 23  1  0
 32 27  1  0
M  END
>  <Binding energies>  (44) 
[-8.63]

>  <Ligand effiencies>  (44) 
[-0.22710526315789475]

>  <Interactions>  (44) 
["V-A:TYR:539:CZ:4877, V-A:ASP:366:CG:3213, V-B:MET:535:CE:9807, V-B:ILE:369:CG2:8209, V-B:TYR:539:CE2:9848, V-A:ASP:366:CB:3212, H-B:LYS:534:NZ:9795, V-B:TYR:539:CZ:9849, H-B:ASP:366:O:8181, V-B:ILE:369:CD1:8211, H-A:TYR:531:OH:4795, V-A:TYR:539:CE1:4875, V-A:ILE:369:CG2:3237, H-A:TYR:539:OH:4878, V-B:TYR:539:CD2:9846, V-A:ARG:545:CZ:4926, V-A:LEU:475:CD2:4259, H-B:TYR:539:OH:9850, V-B:ASP:366:CG:8185, V-B:PRO:540:CA:9855, V-B:ASP:366:CB:8184, V-B:ASP:366:CA:8182, V-B:PRO:540:N:9856, V-A:ILE:369:CD1:3239, V-B:ILE:369:CB:8208, V-B:TYR:531:CE1:9764, V-A:GLY:454:CA:4049, V-A:GLY:453:C:4042"]

$$$$
RR20_Rahimova_2017
     RDKit          3D

 38 43  0  0  0  0  0  0  0  0999 V2000
  130.6570  115.8830   59.2690 C   0  0  0  0  0  0  0  0  0  0  0  0
  130.6680  117.2720   59.8810 C   0  0  0  0  0  0  0  0  0  0  0  0
  129.7260  117.6110   60.8520 C   0  0  0  0  0  0  0  0  0  0  0  0
  129.7400  118.8820   61.4210 C   0  0  0  0  0  0  0  0  0  0  0  0
  130.6880  119.8280   61.0140 C   0  0  0  0  0  0  0  0  0  0  0  0
  130.6990  121.1960   61.6600 C   0  0  0  0  0  0  0  0  0  0  0  0
  130.1340  121.3180   62.7490 O   0  0  0  0  0  0  0  0  0  0  0  0
  131.3360  122.2270   61.0310 N   0  0  0  0  0  0  0  0  0  0  0  0
  132.7700  122.1630   60.7030 C   0  0  0  0  0  0  0  0  0  0  0  0
  133.0780  123.4050   59.8850 C   0  0  0  0  0  0  0  0  0  0  0  0
  131.7170  123.8910   59.4900 C   0  0  0  0  0  0  0  0  0  0  0  0
  131.3710  124.9540   58.6560 C   0  0  0  0  0  0  0  0  0  0  0  0
  130.0360  125.3600   58.5340 C   0  0  0  0  0  0  0  0  0  0  0  0
  129.6610  126.5000   57.6290 C   0  0  0  0  0  0  0  0  0  0  0  0
  128.5330  127.1490   57.8690 N   0  0  0  0  0  0  0  0  0  0  0  0
  128.3170  128.1330   57.0330 C   0  0  0  0  0  0  0  0  0  0  0  0
  127.2440  129.0100   57.0040 N   0  0  0  0  0  0  0  0  0  0  0  0
  126.3480  129.1690   55.9990 C   0  0  0  0  0  0  0  0  0  0  0  0
  126.3630  128.5160   54.9540 O   0  0  0  0  0  0  0  0  0  0  0  0
  125.2240  130.2160   56.1860 C   0  0  0  0  0  0  0  0  0  0  0  0
  125.0390  130.6160   57.5930 N   0  0  0  0  0  0  0  0  0  0  0  0
  123.7960  131.3740   57.8010 C   0  0  0  0  0  0  0  0  0  0  0  0
  123.7810  131.9940   59.2170 C   0  0  0  0  0  0  0  0  0  0  0  0
  124.2050  131.0070   60.3050 C   0  0  0  0  0  0  0  0  0  0  0  0
  124.0000  131.2950   61.6590 C   0  0  0  0  0  0  0  0  0  0  0  0
  124.4210  130.4130   62.6520 C   0  0  0  0  0  0  0  0  0  0  0  0
  125.0540  129.2250   62.2990 C   0  0  0  0  0  0  0  0  0  0  0  0
  125.2560  128.9220   60.9540 C   0  0  0  0  0  0  0  0  0  0  0  0
  124.8390  129.7990   59.9470 C   0  0  0  0  0  0  0  0  0  0  0  0
  125.0090  129.4400   58.4710 C   0  0  0  0  0  0  0  0  0  0  0  0
  129.5350  128.3270   55.8340 S   0  0  0  0  0  0  0  0  0  0  0  0
  130.3940  126.9660   56.5160 C   0  0  0  0  0  0  0  0  0  0  0  0
  131.6790  126.4770   55.8850 C   0  0  0  0  0  0  0  0  0  0  0  0
  129.0650  124.7110   59.3120 C   0  0  0  0  0  0  0  0  0  0  0  0
  129.4110  123.6600   60.1610 C   0  0  0  0  0  0  0  0  0  0  0  0
  130.7360  123.2080   60.2090 C   0  0  0  0  0  0  0  0  0  0  0  0
  131.6490  119.4710   60.0600 C   0  0  0  0  0  0  0  0  0  0  0  0
  131.6360  118.1990   59.4910 C   0  0  0  0  0  0  0  0  0  0  0  0
  1  2  1  0
  2  3  2  0
  3  4  1  0
  4  5  2  0
  5  6  1  0
  6  7  2  0
  6  8  1  0
  8  9  1  0
  9 10  1  0
 10 11  1  0
 11 12  2  0
 12 13  1  0
 13 14  1  0
 14 15  1  0
 15 16  2  0
 16 17  1  0
 17 18  1  0
 18 19  2  0
 18 20  1  0
 20 21  1  0
 21 22  1  0
 22 23  1  0
 23 24  1  0
 24 25  2  0
 25 26  1  0
 26 27  2  0
 27 28  1  0
 28 29  2  0
 29 30  1  0
 16 31  1  0
 31 32  1  0
 32 33  1  0
 13 34  2  0
 34 35  1  0
 35 36  2  0
  5 37  1  0
 37 38  2  0
 38  2  1  0
 36  8  1  0
 36 11  1  0
 32 14  2  0
 30 21  1  0
 29 24  1  0
M  END
>  <Binding energies>  (45) 
[-10.85]

>  <Ligand effiencies>  (45) 
[-0.2782051282051282]

>  <Interactions>  (45) 
["V-A:TYR:539:CZ:4877, V-B:MET:535:CE:9807, V-B:ILE:369:CG2:8209, V-B:TYR:539:CE2:9848, H-B:LYS:534:NZ:9795, V-B:ILE:369:CD1:8211, V-A:TYR:539:CE1:4875, V-B:ARG:545:CZ:9898, V-A:ILE:369:CG2:3237, H-A:TYR:539:OH:4878, V-B:TYR:539:CD2:9846, V-A:LEU:475:CD2:4259, H-B:TYR:531:OH:9767, V-B:TYR:539:CG:9844, V-B:TYR:539:C:9839, V-B:ASP:366:CG:8185, V-B:ASP:366:CB:8184, V-B:ASP:366:CA:8182, V-A:ILE:369:CD1:3239, V-B:TYR:531:CZ:9766, V-B:ASP:366:C:8180, V-B:ILE:369:CB:8208, V-B:TYR:539:CB:9843, V-A:LEU:475:CD1:4258, V-B:ALA:541:CB:9864, H-A:TYR:484:OH:4348, V-B:TYR:531:CE1:9764, V-A:SER:385:CB:3409, V-B:VAL:344:CG1:7973, V-A:PRO:482:CB:4326, V-A:HIS:383:CE1:3394, V-A:PRO:482:CG:4327"]

$$$$
RR21_Rahimova_2017
     RDKit          3D

 40 45  0  0  0  0  0  0  0  0999 V2000
  124.5370  128.9390   66.1960 C   0  0  0  0  0  0  0  0  0  0  0  0
  124.1240  129.8040   65.1430 O   0  0  0  0  0  0  0  0  0  0  0  0
  124.6580  129.6350   63.8800 C   0  0  0  0  0  0  0  0  0  0  0  0
  123.9540  129.8650   62.6860 C   0  0  0  0  0  0  0  0  0  0  0  0
  124.5690  129.6720   61.4500 C   0  0  0  0  0  0  0  0  0  0  0  0
  125.9010  129.2490   61.3730 C   0  0  0  0  0  0  0  0  0  0  0  0
  126.5610  129.0480   60.0430 C   0  0  0  0  0  0  0  0  0  0  0  0
  126.8560  130.0920   59.2930 N   0  0  0  0  0  0  0  0  0  0  0  0
  127.4310  129.6150   58.1790 N   0  0  0  0  0  0  0  0  0  0  0  0
  127.8950  130.4810   57.1550 C   0  0  0  0  0  0  0  0  0  0  0  0
  127.3780  130.3950   55.8530 C   0  0  0  0  0  0  0  0  0  0  0  0
  127.8380  131.2540   54.8580 C   0  0  0  0  0  0  0  0  0  0  0  0
  128.8140  132.2000   55.1600 C   0  0  0  0  0  0  0  0  0  0  0  0
  129.3370  132.2940   56.4470 C   0  0  0  0  0  0  0  0  0  0  0  0
  128.8800  131.4370   57.4440 C   0  0  0  0  0  0  0  0  0  0  0  0
  127.5140  128.2460   58.2370 C   0  0  0  0  0  0  0  0  0  0  0  0
  126.9440  127.8330   59.4310 C   0  0  0  0  0  0  0  0  0  0  0  0
  126.8400  126.4800   59.9570 C   0  0  0  0  0  0  0  0  0  0  0  0
  127.8370  125.5980   60.2000 C   0  0  0  0  0  0  0  0  0  0  0  0
  129.5810  125.8210   59.9400 S   0  0  0  0  0  0  0  0  0  0  0  0
  129.8680  124.2060   60.5710 C   0  0  0  0  0  0  0  0  0  0  0  0
  131.0060  123.6040   60.7280 N   0  0  0  0  0  0  0  0  0  0  0  0
  131.1010  122.2910   61.2650 C   0  0  0  0  0  0  0  0  0  0  0  0
  132.1400  121.6610   61.4640 O   0  0  0  0  0  0  0  0  0  0  0  0
  129.7720  121.6770   61.6090 C   0  0  0  0  0  0  0  0  0  0  0  0
  129.7470  120.2530   62.1790 C   0  0  0  0  0  0  0  0  0  0  0  0
  130.1550  119.1700   61.1820 C   0  0  0  0  0  0  0  0  0  0  0  0
  129.4260  117.9800   61.1050 C   0  0  0  0  0  0  0  0  0  0  0  0
  129.7870  116.9990   60.1850 C   0  0  0  0  0  0  0  0  0  0  0  0
  130.8770  117.2070   59.3370 C   0  0  0  0  0  0  0  0  0  0  0  0
  131.2600  116.1400   58.3280 C   0  0  0  0  0  0  0  0  0  0  0  0
  131.6000  118.4010   59.4050 C   0  0  0  0  0  0  0  0  0  0  0  0
  131.2390  119.3800   60.3250 C   0  0  0  0  0  0  0  0  0  0  0  0
  128.6440  122.2880   61.4420 N   0  0  0  0  0  0  0  0  0  0  0  0
  128.6970  123.5840   60.9140 N   0  0  0  0  0  0  0  0  0  0  0  0
  127.5440  124.2750   60.7360 C   0  0  0  0  0  0  0  0  0  0  0  0
  126.4160  123.8430   60.9980 O   0  0  0  0  0  0  0  0  0  0  0  0
  126.6010  129.0140   62.5600 C   0  0  0  0  0  0  0  0  0  0  0  0
  125.9880  129.2060   63.7990 C   0  0  0  0  0  0  0  0  0  0  0  0
  126.6930  128.9700   64.9290 F   0  0  0  0  0  0  0  0  0  0  0  0
  1  2  1  0
  2  3  1  0
  3  4  2  0
  4  5  1  0
  5  6  2  0
  6  7  1  0
  7  8  2  0
  8  9  1  0
  9 10  1  0
 10 11  2  0
 11 12  1  0
 12 13  2  0
 13 14  1  0
 14 15  2  0
  9 16  1  0
 16 17  2  0
 17 18  1  0
 18 19  2  0
 19 20  1  0
 20 21  1  0
 21 22  2  0
 22 23  1  0
 23 24  2  0
 23 25  1  0
 25 26  1  0
 26 27  1  0
 27 28  2  0
 28 29  1  0
 29 30  2  0
 30 31  1  0
 30 32  1  0
 32 33  2  0
 25 34  2  0
 34 35  1  0
 35 36  1  0
 36 37  2  0
  6 38  1  0
 38 39  2  0
 39 40  1  0
 39  3  1  0
 17  7  1  0
 36 19  1  0
 15 10  1  0
 35 21  1  0
 33 27  1  0
M  END
>  <Binding energies>  (46) 
[-9.25]

>  <Ligand effiencies>  (46) 
[-0.23125]

>  <Interactions>  (46) 
["V-A:TYR:539:CZ:4877, V-B:TYR:539:CE2:9848, H-B:GLY:454:N:9022, H-B:TYR:484:OH:9320, V-B:ARG:545:CZ:9898, V-B:TYR:539:CD2:9846, V-A:LEU:475:CD2:4259, V-B:TYR:539:CG:9844, V-B:TYR:539:C:9839, V-A:TYR:484:CE1:4345, V-B:ASP:366:CG:8185, V-A:TYR:539:C:4867, V-A:TYR:539:CE2:4876, V-A:TYR:539:CD2:4874, V-B:TYR:539:CB:9843, V-A:LEU:475:CD1:4258, V-B:ALA:541:CB:9864, H-A:TYR:484:OH:4348, V-B:ARG:545:CD:9895, H-B:ARG:545:NE:9896, V-B:ARG:545:CG:9894, V-B:HIS:456:CE1:9042, V-A:SER:385:CB:3409, V-A:PRO:482:CB:4326, V-A:LEU:475:CG:4257, V-A:HIS:383:CE1:3394, V-A:PRO:482:CG:4327, V-B:ILE:343:CG2:7964"]

$$$$
RR23_Rahimova_2017
     RDKit          3D

 39 44  0  0  0  0  0  0  0  0999 V2000
  126.5270  136.3190   60.8730 C   0  0  0  0  0  0  0  0  0  0  0  0
  126.1360  134.8770   60.6050 C   0  0  0  0  0  0  0  0  0  0  0  0
  124.7900  134.5250   60.5030 C   0  0  0  0  0  0  0  0  0  0  0  0
  124.4330  133.2040   60.2480 C   0  0  0  0  0  0  0  0  0  0  0  0
  125.4190  132.2210   60.1030 C   0  0  0  0  0  0  0  0  0  0  0  0
  125.0110  130.7960   59.8050 C   0  0  0  0  0  0  0  0  0  0  0  0
  124.1020  130.6200   58.9910 O   0  0  0  0  0  0  0  0  0  0  0  0
  125.6640  129.7680   60.4260 N   0  0  0  0  0  0  0  0  0  0  0  0
  125.8550  129.7470   61.8850 C   0  0  0  0  0  0  0  0  0  0  0  0
  126.4790  128.4010   62.2150 C   0  0  0  0  0  0  0  0  0  0  0  0
  126.2480  127.6110   60.9630 C   0  0  0  0  0  0  0  0  0  0  0  0
  126.5290  126.2680   60.7080 C   0  0  0  0  0  0  0  0  0  0  0  0
  126.3870  125.7480   59.4120 C   0  0  0  0  0  0  0  0  0  0  0  0
  126.6860  124.2770   59.0870 C   0  0  2  0  0  0  0  0  0  0  0  0
  127.4800  123.6400   60.1160 N   0  0  0  0  0  0  0  0  0  0  0  0
  128.2500  122.7480   59.6370 C   0  0  0  0  0  0  0  0  0  0  0  0
  129.1490  121.9720   60.3000 N   0  0  0  0  0  0  0  0  0  0  0  0
  129.5400  122.0550   61.5940 C   0  0  0  0  0  0  0  0  0  0  0  0
  129.1000  122.8530   62.4260 O   0  0  0  0  0  0  0  0  0  0  0  0
  130.6290  121.0580   62.0230 C   0  0  0  0  0  0  0  0  0  0  0  0
  130.4630  119.8010   61.2590 N   0  0  0  0  0  0  0  0  0  0  0  0
  129.3730  119.0210   61.6250 N   0  0  0  0  0  0  0  0  0  0  0  0
  129.1180  117.8970   61.0350 N   0  0  0  0  0  0  0  0  0  0  0  0
  129.9480  117.4490   60.0060 C   0  0  0  0  0  0  0  0  0  0  0  0
  129.6460  116.2310   59.3920 C   0  0  0  0  0  0  0  0  0  0  0  0
  130.4570  115.7570   58.3600 C   0  0  0  0  0  0  0  0  0  0  0  0
  131.5670  116.4940   57.9430 C   0  0  0  0  0  0  0  0  0  0  0  0
  131.8720  117.7110   58.5560 C   0  0  0  0  0  0  0  0  0  0  0  0
  131.0570  118.1880   59.5890 C   0  0  0  0  0  0  0  0  0  0  0  0
  131.3710  119.5010   60.2680 C   0  0  0  0  0  0  0  0  0  0  0  0
  132.3360  120.2120   59.9740 O   0  0  0  0  0  0  0  0  0  0  0  0
  128.1700  122.4720   57.8730 S   0  0  0  0  0  0  0  0  0  0  0  0
  127.3170  124.0480   57.6940 C   0  0  2  0  0  0  0  0  0  0  0  0
  128.3220  125.1120   57.2050 C   0  0  0  0  0  0  0  0  0  0  0  0
  126.0070  126.6100   58.3770 C   0  0  0  0  0  0  0  0  0  0  0  0
  125.7460  127.9580   58.6280 C   0  0  0  0  0  0  0  0  0  0  0  0
  125.8120  128.4510   59.9380 C   0  0  0  0  0  0  0  0  0  0  0  0
  126.7700  132.5870   60.1780 C   0  0  0  0  0  0  0  0  0  0  0  0
  127.1260  133.9080   60.4330 C   0  0  0  0  0  0  0  0  0  0  0  0
  1  2  1  0
  2  3  2  0
  3  4  1  0
  4  5  2  0
  5  6  1  0
  6  7  2  0
  6  8  1  0
  8  9  1  0
  9 10  1  0
 10 11  1  0
 11 12  2  0
 12 13  1  0
 14 13  1  1
 14 15  1  0
 15 16  2  0
 16 17  1  0
 17 18  1  0
 18 19  2  0
 18 20  1  0
 20 21  1  0
 21 22  1  0
 22 23  2  0
 23 24  1  0
 24 25  2  0
 25 26  1  0
 26 27  2  0
 27 28  1  0
 28 29  2  0
 29 30  1  0
 30 31  2  0
 16 32  1  0
 32 33  1  0
 33 34  1  1
 13 35  2  0
 35 36  1  0
 36 37  2  0
  5 38  1  0
 38 39  2  0
 39  2  1  0
 37  8  1  0
 37 11  1  0
 33 14  1  0
 30 21  1  0
 29 24  1  0
M  END
>  <Binding energies>  (47) 
[-10.55]

>  <Ligand effiencies>  (47) 
[-0.26375000000000004]

>  <Interactions>  (47) 
["V-B:MET:535:CE:9807, V-B:ILE:369:CG2:8209, V-B:LEU:475:CD2:9231, V-B:TYR:539:CE2:9848, V-A:TYR:539:CE1:4875, V-B:TYR:539:CD2:9846, V-A:LEU:475:CD2:4259, V-B:TYR:539:CG:9844, V-B:TYR:539:C:9839, V-A:TYR:484:CE1:4345, V-B:ASP:366:CG:8185, V-B:PRO:540:CA:9855, V-B:ASP:366:CB:8184, V-B:PRO:540:N:9856, V-A:TYR:539:CD1:4873, V-B:TYR:539:CA:9841, V-B:TYR:539:CB:9843, V-A:LEU:475:CD1:4258, H-A:TYR:484:OH:4348, H-B:TYR:539:O:9840, V-A:SER:385:CB:3409, V-B:VAL:344:CG2:7974, V-B:VAL:344:CG1:7973, V-A:LEU:373:CD1:3280, V-A:PRO:482:CB:4326, V-A:HIS:383:CE1:3394, V-A:PRO:482:CG:4327, V-A:LEU:373:CD2:3281, V-B:ILE:343:CG2:7964, V-B:ILE:343:CB:7963"]

$$$$
RR26_Rahimova_2017
     RDKit          3D

 38 44  0  0  0  0  0  0  0  0999 V2000
  124.4970  134.4010   59.9270 C   0  0  0  0  0  0  0  0  0  0  0  0
  125.7190  135.2300   60.3020 C   0  0  0  0  0  0  0  0  0  0  0  0
  125.6250  136.6240   60.2210 C   0  0  0  0  0  0  0  0  0  0  0  0
  126.6980  137.4320   60.5890 C   0  0  0  0  0  0  0  0  0  0  0  0
  127.8760  136.8520   61.0500 C   0  0  0  0  0  0  0  0  0  0  0  0
  127.9820  135.4660   61.1360 C   0  0  0  0  0  0  0  0  0  0  0  0
  126.9150  134.6350   60.7610 C   0  0  0  0  0  0  0  0  0  0  0  0
  127.1170  133.1510   60.8700 C   0  0  0  0  0  0  0  0  0  0  0  0
  127.0380  132.3430   59.8160 N   0  0  0  0  0  0  0  0  0  0  0  0
  127.2860  131.1780   60.3500 C   0  0  0  0  0  0  0  0  0  0  0  0
  127.3930  129.5540   59.7790 S   0  0  0  0  0  0  0  0  0  0  0  0
  127.7750  129.0140   61.4570 C   0  0  0  0  0  0  0  0  0  0  0  0
  128.0130  127.7550   61.8880 C   0  0  0  0  0  0  0  0  0  0  0  0
  128.0260  126.5280   61.1070 C   0  0  0  0  0  0  0  0  0  0  0  0
  127.0960  126.0970   60.1730 C   0  0  0  0  0  0  0  0  0  0  0  0
  127.5380  124.9050   59.6570 N   0  0  0  0  0  0  0  0  0  0  0  0
  126.9220  124.0940   58.6690 C   0  0  0  0  0  0  0  0  0  0  0  0
  127.6950  123.3660   57.7530 C   0  0  0  0  0  0  0  0  0  0  0  0
  127.0780  122.5770   56.7860 C   0  0  0  0  0  0  0  0  0  0  0  0
  125.6880  122.5100   56.7340 C   0  0  0  0  0  0  0  0  0  0  0  0
  124.9080  123.2260   57.6400 C   0  0  0  0  0  0  0  0  0  0  0  0
  125.5220  124.0180   58.6050 C   0  0  0  0  0  0  0  0  0  0  0  0
  128.7190  124.5720   60.2000 N   0  0  0  0  0  0  0  0  0  0  0  0
  129.0180  125.5220   61.0640 C   0  0  0  0  0  0  0  0  0  0  0  0
  130.2870  125.4390   61.8540 C   0  0  0  0  0  0  0  0  0  0  0  0
  131.5140  125.2300   61.2070 C   0  0  0  0  0  0  0  0  0  0  0  0
  132.7030  125.1480   61.9340 C   0  0  0  0  0  0  0  0  0  0  0  0
  132.6720  125.2730   63.3220 C   0  0  0  0  0  0  0  0  0  0  0  0
  131.4540  125.5010   63.9790 C   0  0  0  0  0  0  0  0  0  0  0  0
  130.2680  125.5760   63.2500 C   0  0  0  0  0  0  0  0  0  0  0  0
  131.3700  125.5870   65.3550 O   0  0  0  0  0  0  0  0  0  0  0  0
  132.6150  125.8690   66.0010 C   0  0  0  0  0  0  0  0  0  0  0  0
  133.7460  124.9960   65.4040 C   0  0  0  0  0  0  0  0  0  0  0  0
  133.8750  125.2340   63.9980 O   0  0  0  0  0  0  0  0  0  0  0  0
  127.7990  130.1240   62.4050 C   0  0  0  0  0  0  0  0  0  0  0  0
  128.0200  130.1060   63.6170 O   0  0  0  0  0  0  0  0  0  0  0  0
  127.5130  131.2850   61.6710 N   0  0  0  0  0  0  0  0  0  0  0  0
  127.4110  132.5700   62.0230 N   0  0  0  0  0  0  0  0  0  0  0  0
  1  2  1  0
  2  3  2  0
  3  4  1  0
  4  5  2  0
  5  6  1  0
  6  7  2  0
  7  8  1  0
  8  9  1  0
  9 10  2  0
 10 11  1  0
 11 12  1  0
 12 13  2  0
 13 14  1  0
 14 15  2  0
 15 16  1  0
 16 17  1  0
 17 18  2  0
 18 19  1  0
 19 20  2  0
 20 21  1  0
 21 22  2  0
 16 23  1  0
 23 24  2  0
 24 25  1  0
 25 26  2  0
 26 27  1  0
 27 28  2  0
 28 29  1  0
 29 30  2  0
 29 31  1  0
 31 32  1  0
 32 33  1  0
 33 34  1  0
 12 35  1  0
 35 36  2  0
 35 37  1  0
 37 38  1  0
  7  2  1  0
 38  8  2  0
 37 10  1  0
 24 14  1  0
 30 25  1  0
 22 17  1  0
 34 28  1  0
M  END
>  <Binding energies>  (48) 
[-9.43]

>  <Ligand effiencies>  (48) 
[-0.2481578947368421]

>  <Interactions>  (48) 
["V-A:ALA:541:CB:4892, V-A:ASP:366:CG:3213, V-B:ILE:369:CG2:8209, V-B:LEU:475:CD2:9231, V-B:TYR:539:CE2:9848, V-A:GLU:543:CD:4908, H-B:TYR:484:OH:9320, V-A:TYR:539:CE1:4875, V-A:ARG:545:CZ:4926, V-B:TYR:539:CD1:9845, V-B:TYR:539:CG:9844, V-A:TYR:484:CZ:4347, V-B:TYR:539:C:9839, V-B:PRO:540:CB:9857, V-B:PRO:540:CA:9855, V-B:PRO:540:N:9856, V-A:TYR:539:CD1:4873, V-A:TYR:539:C:4867, V-A:PRO:540:C:4881, V-B:LEU:363:CD1:8161, V-B:GLU:543:CD:9880, V-B:TYR:539:CA:9841, V-B:PRO:540:CD:9859, H-A:GLY:454:N:4050, H-A:TYR:484:OH:4348, V-B:SER:385:CB:8381, V-A:ALA:541:CA:4890, H-A:ARG:545:NH2:4928, V-B:PRO:482:CB:9298, V-B:PRO:482:CG:9299, V-A:TYR:484:CE2:4346, H-A:ARG:545:NE:4924, V-A:GLY:454:CA:4049, H-A:ARG:545:NH1:4927, V-A:ARG:545:CD:4923, V-A:GLY:453:C:4042, V-A:HIS:456:CE1:4070, V-A:ARG:545:CG:4922"]

$$$$
RR2_Rahimova_2017
     RDKit          3D

 46 50  0  0  0  0  0  0  0  0999 V2000
  133.3130  123.2440   60.5560 C   0  0  0  0  0  0  0  0  0  0  0  0
  133.9080  123.7950   59.3870 O   0  0  0  0  0  0  0  0  0  0  0  0
  133.1860  124.6920   58.6220 C   0  0  0  0  0  0  0  0  0  0  0  0
  133.3990  124.9180   57.2550 C   0  0  0  0  0  0  0  0  0  0  0  0
  132.6230  125.8460   56.5660 C   0  0  0  0  0  0  0  0  0  0  0  0
  131.6210  126.5710   57.2250 C   0  0  0  0  0  0  0  0  0  0  0  0
  130.7950  127.5820   56.4540 C   0  0  0  0  0  0  0  0  0  0  0  0
  129.8740  127.2040   55.7210 O   0  0  0  0  0  0  0  0  0  0  0  0
  131.1450  128.8790   56.6170 N   0  0  0  0  0  0  0  0  0  0  0  0
  130.4800  129.8380   55.8610 N   0  0  0  0  0  0  0  0  0  0  0  0
  130.8350  131.1300   56.0150 C   0  0  0  0  0  0  0  0  0  0  0  0
  131.5800  131.5560   56.9030 O   0  0  0  0  0  0  0  0  0  0  0  0
  130.2640  132.1020   54.9740 C   0  0  0  0  0  0  0  0  0  0  0  0
  128.4370  132.1350   54.8660 S   0  0  0  0  0  0  0  0  0  0  0  0
  128.0450  130.5250   55.4810 C   0  0  0  0  0  0  0  0  0  0  0  0
  127.8410  129.4930   54.7010 N   0  0  0  0  0  0  0  0  0  0  0  0
  127.4880  128.4230   55.5100 N   0  0  0  0  0  0  0  0  0  0  0  0
  127.5210  128.8400   56.7530 C   0  0  0  0  0  0  0  0  0  0  0  0
  127.2150  127.9620   57.9240 C   0  0  0  0  0  0  0  0  0  0  0  0
  126.2900  128.3810   58.8830 C   0  0  0  0  0  0  0  0  0  0  0  0
  126.0040  127.5740   59.9800 C   0  0  0  0  0  0  0  0  0  0  0  0
  126.6290  126.3300   60.1190 C   0  0  0  0  0  0  0  0  0  0  0  0
  126.3880  125.4800   61.2090 N   0  0  0  0  0  0  0  0  0  0  0  0
  125.8310  123.7970   61.0760 S   0  0  0  0  0  0  0  0  0  0  0  0
  124.4070  123.8140   61.4300 O   0  0  0  0  0  0  0  0  0  0  0  0
  126.7770  122.9450   61.8050 O   0  0  0  0  0  0  0  0  0  0  0  0
  125.9230  123.4090   59.3290 C   0  0  0  0  0  0  0  0  0  0  0  0
  124.8260  123.6270   58.4930 C   0  0  0  0  0  0  0  0  0  0  0  0
  124.9140  123.3040   57.1410 C   0  0  0  0  0  0  0  0  0  0  0  0
  126.0970  122.7700   56.6260 C   0  0  0  0  0  0  0  0  0  0  0  0
  126.1860  122.4050   55.1560 C   0  0  0  0  0  0  0  0  0  0  0  0
  127.1910  122.5500   57.4660 C   0  0  0  0  0  0  0  0  0  0  0  0
  127.1050  122.8710   58.8170 C   0  0  0  0  0  0  0  0  0  0  0  0
  127.5500  125.9110   59.1580 C   0  0  0  0  0  0  0  0  0  0  0  0
  127.8420  126.7200   58.0640 C   0  0  0  0  0  0  0  0  0  0  0  0
  127.8670  130.1800   56.8080 N   0  0  0  0  0  0  0  0  0  0  0  0
  127.9700  131.0140   57.9410 C   0  0  0  0  0  0  0  0  0  0  0  0
  129.1820  131.1120   58.6250 C   0  0  0  0  0  0  0  0  0  0  0  0
  129.2780  131.9410   59.7400 C   0  0  0  0  0  0  0  0  0  0  0  0
  128.1730  132.6710   60.1800 C   0  0  0  0  0  0  0  0  0  0  0  0
  128.3650  133.4640   61.2950 O   0  0  0  0  0  0  0  0  0  0  0  0
  127.7350  134.7390   61.3590 C   0  0  0  0  0  0  0  0  0  0  0  0
  126.9570  132.5650   59.4850 C   0  0  0  0  0  0  0  0  0  0  0  0
  126.8560  131.7400   58.3690 C   0  0  0  0  0  0  0  0  0  0  0  0
  131.4100  126.3360   58.5930 C   0  0  0  0  0  0  0  0  0  0  0  0
  132.1860  125.4060   59.2790 C   0  0  0  0  0  0  0  0  0  0  0  0
  1  2  1  0
  2  3  1  0
  3  4  2  0
  4  5  1  0
  5  6  2  0
  6  7  1  0
  7  8  2  0
  7  9  1  0
  9 10  1  0
 10 11  1  0
 11 12  2  0
 11 13  1  0
 13 14  1  0
 14 15  1  0
 15 16  2  0
 16 17  1  0
 17 18  2  0
 18 19  1  0
 19 20  2  0
 20 21  1  0
 21 22  2  0
 22 23  1  0
 23 24  1  0
 24 25  2  0
 24 26  2  0
 24 27  1  0
 27 28  2  0
 28 29  1  0
 29 30  2  0
 30 31  1  0
 30 32  1  0
 32 33  2  0
 22 34  1  0
 34 35  2  0
 18 36  1  0
 36 37  1  0
 37 38  2  0
 38 39  1  0
 39 40  2  0
 40 41  1  0
 41 42  1  0
 40 43  1  0
 43 44  2  0
  6 45  1  0
 45 46  2  0
 46  3  1  0
 36 15  1  0
 44 37  1  0
 35 19  1  0
 33 27  1  0
M  END
>  <Binding energies>  (49) 
[-10.31]

>  <Ligand effiencies>  (49) 
[-0.21040816326530612]

>  <Interactions>  (49) 
["V-A:ASP:366:CA:3210, V-A:TYR:539:CZ:4877, V-A:ALA:541:CB:4892, V-A:ASP:366:CG:3213, V-B:MET:535:CE:9807, V-B:LEU:475:CD2:9231, V-A:PRO:540:CA:4883, V-B:TYR:539:CE2:9848, V-A:ASP:366:CB:3212, H-B:LYS:534:NZ:9795, V-B:TYR:539:CZ:9849, V-A:ASP:366:C:3208, H-A:ALA:541:N:4891, H-A:TYR:531:OH:4795, V-A:TYR:539:CE1:4875, V-A:ILE:369:CG2:3237, V-B:TYR:539:CD2:9846, H-B:TYR:531:OH:9767, V-B:TYR:539:CG:9844, H-B:ASP:366:OD2:8187, V-B:TYR:539:C:9839, V-B:ASP:366:CG:8185, V-B:PRO:540:CB:9857, V-B:PRO:540:CA:9855, H-B:ALA:541:N:9863, V-B:ASP:366:CB:8184, V-B:PRO:540:N:9856, V-A:ILE:369:CD1:3239, V-A:TYR:539:CD1:4873, V-B:LEU:363:CD1:8161, H-B:GLU:543:OE2:9882, V-B:TYR:531:CZ:9766, V-B:TYR:531:CE2:9765, H-B:GLU:543:OE1:9881, V-B:ILE:538:CA:9832, V-B:ILE:538:CD1:9837, V-B:TYR:539:CA:9841, V-B:PRO:540:CD:9859, V-B:ILE:538:CG2:9835, V-B:ILE:538:C:9830, H-B:ARG:545:NH2:9900, V-B:ILE:538:CB:9834"]

$$$$
RR33_Rahimova_2017
     RDKit          3D

 18 19  0  0  0  0  0  0  0  0999 V2000
  124.5360  122.9080   56.8910 C   0  0  0  0  0  0  0  0  0  0  0  0
  125.5620  123.1530   55.7810 C   0  0  0  0  0  0  0  0  0  0  0  0
  126.7650  122.4640   56.1090 O   0  0  0  0  0  0  0  0  0  0  0  0
  127.5990  122.9800   57.0820 C   0  0  0  0  0  0  0  0  0  0  0  0
  127.4420  122.4710   58.3700 C   0  0  0  0  0  0  0  0  0  0  0  0
  128.2350  122.9340   59.4160 C   0  0  0  0  0  0  0  0  0  0  0  0
  129.2020  123.9170   59.1880 C   0  0  0  0  0  0  0  0  0  0  0  0
  130.0530  124.4140   60.3120 C   0  0  0  0  0  0  0  0  0  0  0  0
  131.3650  124.4150   60.3860 N   0  0  0  0  0  0  0  0  0  0  0  0
  131.6480  124.9520   61.5630 C   0  0  0  0  0  0  0  0  0  0  0  0
  133.0830  125.1350   62.0080 C   0  0  0  0  0  0  0  0  0  0  0  0
  133.5060  124.0260   62.8500 N   0  0  0  0  0  0  0  0  0  0  0  0
  133.4760  122.7770   62.1060 C   0  0  0  0  0  0  0  0  0  0  0  0
  130.4710  125.2840   62.2200 C   0  0  0  0  0  0  0  0  0  0  0  0
  130.1230  125.9100   63.5480 C   0  0  0  0  0  0  0  0  0  0  0  0
  129.4450  124.9340   61.4100 O   0  0  0  0  0  0  0  0  0  0  0  0
  129.3660  124.4280   57.8960 C   0  0  0  0  0  0  0  0  0  0  0  0
  128.5720  123.9650   56.8490 C   0  0  0  0  0  0  0  0  0  0  0  0
  1  2  1  0
  2  3  1  0
  3  4  1  0
  4  5  2  0
  5  6  1  0
  6  7  2  0
  7  8  1  0
  8  9  2  0
  9 10  1  0
 10 11  1  0
 11 12  1  0
 12 13  1  0
 10 14  2  0
 14 15  1  0
 14 16  1  0
  7 17  1  0
 17 18  2  0
 18  4  1  0
 16  8  1  0
M  END
>  <Binding energies>  (50) 
[-5.52]

>  <Ligand effiencies>  (50) 
[-0.2905263157894737]

>  <Interactions>  (50) 
["V-A:ASP:366:CG:3213, V-B:MET:535:CE:9807, V-B:TYR:539:CE2:9848, V-A:GLU:543:CD:4908, V-B:TYR:539:CZ:9849, V-B:TYR:539:CD2:9846, V-A:ARG:545:CZ:4926, V-A:LEU:475:CD2:4259, V-B:TYR:539:CG:9844, V-B:TYR:539:CE1:9847, V-B:TYR:539:C:9839, H-B:TYR:539:N:9842, V-B:PRO:540:CB:9857, V-B:PRO:540:CA:9855, V-B:PRO:540:N:9856, V-A:ILE:369:CD1:3239, V-B:LEU:363:CD1:8161, V-B:TYR:531:CZ:9766, V-B:TYR:531:CE2:9765, V-B:GLU:543:CD:9880, V-B:ILE:538:CD1:9837, V-B:PRO:540:CG:9858, V-B:PRO:540:CD:9859, H-A:GLY:454:N:4050, H-A:TYR:484:OH:4348, V-A:GLY:454:CA:4049"]

$$$$
RR3_Rahimova_2017
     RDKit          3D

 38 44  0  0  0  0  0  0  0  0999 V2000
  126.7100  122.5150   57.4960 C   0  0  0  0  0  0  0  0  0  0  0  0
  127.8580  123.1850   57.9050 C   0  0  0  0  0  0  0  0  0  0  0  0
  127.7510  124.4450   58.4870 C   0  0  0  0  0  0  0  0  0  0  0  0
  126.4980  125.0510   58.6680 C   0  0  0  0  0  0  0  0  0  0  0  0
  126.3840  126.4050   59.2950 C   0  0  0  0  0  0  0  0  0  0  0  0
  126.6540  126.5940   60.6570 C   0  0  0  0  0  0  0  0  0  0  0  0
  126.5440  127.8530   61.2400 C   0  0  0  0  0  0  0  0  0  0  0  0
  126.1540  128.9540   60.4730 C   0  0  0  0  0  0  0  0  0  0  0  0
  126.0290  130.3100   61.0950 C   0  0  0  0  0  0  0  0  0  0  0  0
  125.7670  131.3680   60.3360 N   0  0  0  0  0  0  0  0  0  0  0  0
  125.6710  132.3950   61.1450 C   0  0  0  0  0  0  0  0  0  0  0  0
  125.3890  133.7680   60.7330 C   0  0  0  0  0  0  0  0  0  0  0  0
  124.1850  134.2330   60.2330 C   0  0  0  0  0  0  0  0  0  0  0  0
  124.2720  135.5720   59.9580 N   0  0  0  0  0  0  0  0  0  0  0  0
  125.5340  136.0320   60.2640 C   0  0  0  0  0  0  0  0  0  0  0  0
  126.0910  137.3110   60.1550 C   0  0  0  0  0  0  0  0  0  0  0  0
  127.4200  137.4580   60.5520 C   0  0  0  0  0  0  0  0  0  0  0  0
  128.1640  136.3870   61.0360 C   0  0  0  0  0  0  0  0  0  0  0  0
  127.6090  135.1140   61.1450 C   0  0  0  0  0  0  0  0  0  0  0  0
  126.2720  134.9110   60.7570 C   0  0  0  0  0  0  0  0  0  0  0  0
  125.8770  132.0170   62.4430 N   0  0  0  0  0  0  0  0  0  0  0  0
  126.1360  130.6700   62.4490 C   0  0  0  0  0  0  0  0  0  0  0  0
  126.4710  129.9150   63.6940 C   0  0  0  0  0  0  0  0  0  0  0  0
  125.4830  129.1850   64.3560 C   0  0  0  0  0  0  0  0  0  0  0  0
  125.7870  128.4910   65.5230 C   0  0  0  0  0  0  0  0  0  0  0  0
  127.0860  128.5060   66.0520 C   0  0  0  0  0  0  0  0  0  0  0  0
  127.4050  127.7740   67.3180 C   0  0  0  0  0  0  0  0  0  0  0  0
  128.6600  127.9110   67.9310 C   0  0  0  0  0  0  0  0  0  0  0  0
  128.9550  127.2330   69.1120 C   0  0  0  0  0  0  0  0  0  0  0  0
  127.9960  126.4090   69.6930 C   0  0  0  0  0  0  0  0  0  0  0  0
  126.7460  126.2600   69.1020 C   0  0  0  0  0  0  0  0  0  0  0  0
  126.4540  126.9380   67.9220 C   0  0  0  0  0  0  0  0  0  0  0  0
  128.0730  129.2290   65.3680 C   0  0  0  0  0  0  0  0  0  0  0  0
  127.7720  129.9250   64.2010 C   0  0  0  0  0  0  0  0  0  0  0  0
  125.8960  128.7790   59.1120 C   0  0  0  0  0  0  0  0  0  0  0  0
  126.0060  127.5190   58.5320 C   0  0  0  0  0  0  0  0  0  0  0  0
  125.3550  124.3570   58.2460 C   0  0  0  0  0  0  0  0  0  0  0  0
  125.4570  123.0960   57.6640 C   0  0  0  0  0  0  0  0  0  0  0  0
  1  2  2  0
  2  3  1  0
  3  4  2  0
  4  5  1  0
  5  6  2  0
  6  7  1  0
  7  8  2  0
  8  9  1  0
  9 10  1  0
 10 11  2  0
 11 12  1  0
 12 13  2  0
 13 14  1  0
 14 15  1  0
 15 16  2  0
 16 17  1  0
 17 18  2  0
 18 19  1  0
 19 20  2  0
 11 21  1  0
 21 22  1  0
 22 23  1  0
 23 24  2  0
 24 25  1  0
 25 26  2  0
 26 27  1  0
 27 28  2  0
 28 29  1  0
 29 30  2  0
 30 31  1  0
 31 32  2  0
 26 33  1  0
 33 34  2  0
  8 35  1  0
 35 36  2  0
  4 37  1  0
 37 38  2  0
 38  1  1  0
 36  5  1  0
 22  9  2  0
 34 23  1  0
 20 12  1  0
 32 27  1  0
 20 15  1  0
M  END
>  <Binding energies>  (51) 
[-10.18]

>  <Ligand effiencies>  (51) 
[-0.2545]

>  <Interactions>  (51) 
["V-A:ALA:541:CB:4892, V-B:ILE:369:CG2:8209, V-B:LEU:475:CD2:9231, V-B:TYR:539:CE2:9848, V-A:GLU:543:CD:4908, H-B:TYR:484:OH:9320, V-A:GLU:543:CG:4907, V-A:TYR:539:CE1:4875, V-B:ARG:545:CZ:9898, V-B:TYR:539:CD2:9846, V-B:TYR:539:C:9839, V-B:ASP:366:CG:8185, V-B:PRO:540:CB:9857, V-B:PRO:540:CA:9855, V-B:ASP:366:CB:8184, V-B:PRO:540:N:9856, V-A:TYR:539:CD1:4873, V-A:TYR:539:C:4867, V-A:PRO:540:C:4881, V-B:GLU:543:CD:9880, V-B:GLU:543:CG:9879, V-B:TYR:539:CA:9841, V-B:PRO:540:CD:9859, V-B:SER:385:CB:8381, V-B:SER:385:CA:8379, V-B:ARG:545:CD:9895, V-B:ARG:545:CG:9894, V-B:HIS:456:CE1:9042, V-A:ALA:541:CA:4890, V-B:HIS:383:CD2:8364, V-B:PRO:482:CB:9298, V-B:PRO:482:CG:9299, V-A:GLU:543:CB:4906, H-B:SER:385:OG:8382, V-A:HIS:456:CE1:4070, V-B:GLU:543:CB:9878, H-B:VAL:384:O:8370, V-B:GLY:544:C:9884, V-B:GLU:543:C:9874, V-B:GLU:543:CA:9876, V-B:ARG:545:CA:9891"]

$$$$
RR4_Rahimova_2017
     RDKit          3D

 40 44  0  0  0  0  0  0  0  0999 V2000
  125.8480  122.5040   55.4130 C   0  0  0  0  0  0  0  0  0  0  0  0
  126.4880  122.0800   56.6120 O   0  0  0  0  0  0  0  0  0  0  0  0
  126.7310  123.0060   57.6090 C   0  0  0  0  0  0  0  0  0  0  0  0
  125.9070  124.1280   57.6340 C   0  0  0  0  0  0  0  0  0  0  0  0
  126.0780  125.1120   58.6030 C   0  0  0  0  0  0  0  0  0  0  0  0
  127.0820  125.0040   59.5760 C   0  0  0  0  0  0  0  0  0  0  0  0
  127.2650  126.0680   60.6200 C   0  0  0  0  0  0  0  0  0  0  0  0
  126.5100  127.2460   60.6410 C   0  0  0  0  0  0  0  0  0  0  0  0
  126.7150  128.2070   61.6390 C   0  0  0  0  0  0  0  0  0  0  0  0
  125.8520  129.4260   61.6150 C   0  0  0  0  0  0  0  0  0  0  0  0
  124.8930  129.6280   62.6120 C   0  0  0  0  0  0  0  0  0  0  0  0
  124.0920  130.7670   62.6030 C   0  0  0  0  0  0  0  0  0  0  0  0
  124.2380  131.7280   61.6030 C   0  0  0  0  0  0  0  0  0  0  0  0
  123.4010  132.8250   61.6760 O   0  0  0  0  0  0  0  0  0  0  0  0
  123.7800  134.0320   61.0220 C   0  0  0  0  0  0  0  0  0  0  0  0
  125.2030  131.5320   60.6030 C   0  0  0  0  0  0  0  0  0  0  0  0
  126.0030  130.3930   60.6140 C   0  0  0  0  0  0  0  0  0  0  0  0
  127.7230  127.9720   62.6070 C   0  0  0  0  0  0  0  0  0  0  0  0
  127.9780  128.9440   63.6730 C   0  0  0  0  0  0  0  0  0  0  0  0
  128.1800  129.7120   64.5150 N   0  0  0  0  0  0  0  0  0  0  0  0
  128.4680  126.7740   62.5080 C   0  0  0  0  0  0  0  0  0  0  0  0
  129.7770  126.3200   63.6250 S   0  0  0  0  0  0  0  0  0  0  0  0
  131.2910  126.0750   62.6380 C   0  0  0  0  0  0  0  0  0  0  0  0
  131.6420  124.6060   62.3640 C   0  0  0  0  0  0  0  0  0  0  0  0
  132.8030  124.2070   62.4830 O   0  0  0  0  0  0  0  0  0  0  0  0
  130.5970  123.8360   61.9810 N   0  0  0  0  0  0  0  0  0  0  0  0
  130.5900  122.4750   61.6650 C   0  0  0  0  0  0  0  0  0  0  0  0
  129.3840  121.3690   62.2640 S   0  0  0  0  0  0  0  0  0  0  0  0
  130.1190  120.0310   61.4350 C   0  0  0  0  0  0  0  0  0  0  0  0
  131.2610  120.4300   60.7240 C   0  0  0  0  0  0  0  0  0  0  0  0
  131.5170  121.8170   60.8430 C   0  0  0  0  0  0  0  0  0  0  0  0
  132.6340  122.4880   60.1840 C   0  0  0  0  0  0  0  0  0  0  0  0
  133.5200  123.0190   59.6620 N   0  0  0  0  0  0  0  0  0  0  0  0
  132.0670  119.4370   59.8780 C   0  0  0  0  0  0  0  0  0  0  0  0
  131.2470  118.1530   59.6160 C   0  0  0  0  0  0  0  0  0  0  0  0
  130.5660  117.6300   60.8930 C   0  0  0  0  0  0  0  0  0  0  0  0
  129.5260  118.6280   61.4450 C   0  0  0  0  0  0  0  0  0  0  0  0
  128.2270  125.8470   61.5510 N   0  0  0  0  0  0  0  0  0  0  0  0
  127.9060  123.8670   59.5440 C   0  0  0  0  0  0  0  0  0  0  0  0
  127.7380  122.8810   58.5760 C   0  0  0  0  0  0  0  0  0  0  0  0
  1  2  1  0
  2  3  1  0
  3  4  2  0
  4  5  1  0
  5  6  2  0
  6  7  1  0
  7  8  2  0
  8  9  1  0
  9 10  1  0
 10 11  2  0
 11 12  1  0
 12 13  2  0
 13 14  1  0
 14 15  1  0
 13 16  1  0
 16 17  2  0
  9 18  2  0
 18 19  1  0
 19 20  3  0
 18 21  1  0
 21 22  1  0
 22 23  1  0
 23 24  1  0
 24 25  2  0
 24 26  1  0
 26 27  1  0
 27 28  1  0
 28 29  1  0
 29 30  2  0
 30 31  1  0
 31 32  1  0
 32 33  3  0
 30 34  1  0
 34 35  1  0
 35 36  1  0
 36 37  1  0
 21 38  2  0
  6 39  1  0
 39 40  2  0
 40  3  1  0
 38  7  1  0
 17 10  1  0
 31 27  2  0
 37 29  1  0
M  END
>  <Binding energies>  (52) 
[-10.0]

>  <Ligand effiencies>  (52) 
[-0.24390243902439024]

>  <Interactions>  (52) 
["V-B:ILE:369:CG2:8209, V-B:LEU:475:CD2:9231, V-B:TYR:539:CE2:9848, V-A:GLU:543:CD:4908, V-B:ILE:369:CD1:8211, H-B:TYR:484:OH:9320, V-A:GLU:543:CG:4907, V-B:ARG:545:CZ:9898, V-A:ILE:369:CG2:3237, V-B:TYR:539:CD2:9846, V-A:LEU:475:CD2:4259, V-B:TYR:539:CG:9844, V-B:TYR:539:C:9839, V-A:TYR:484:CE1:4345, V-B:ASP:366:CG:8185, H-B:TYR:539:N:9842, V-B:PRO:540:CA:9855, V-B:PRO:540:N:9856, V-B:GLU:543:CD:9880, V-B:ILE:538:CA:9832, V-B:ILE:538:CD1:9837, V-B:TYR:539:CB:9843, V-A:LEU:475:CD1:4258, V-B:ALA:541:CB:9864, H-A:GLY:454:N:4050, V-B:ILE:538:CG2:9835, H-A:TYR:484:OH:4348, V-B:SER:385:CA:8379, V-B:ILE:538:C:9830, V-B:SER:385:C:8377, V-A:SER:385:CB:3409, V-B:ILE:538:CB:9834, V-A:PRO:482:CB:4326, V-A:LEU:475:CG:4257, V-A:PRO:482:CG:4327"]

$$$$
RR6_Rahimova_2017
     RDKit          3D

 38 41  0  0  0  0  0  0  0  0999 V2000
  123.8820  129.8840   62.9730 C   0  0  0  0  0  0  0  0  0  0  0  0
  124.0970  129.6960   64.3640 O   0  0  0  0  0  0  0  0  0  0  0  0
  125.2170  129.0770   64.8210 C   0  0  0  0  0  0  0  0  0  0  0  0
  125.2770  128.4960   65.9090 O   0  0  0  0  0  0  0  0  0  0  0  0
  126.3750  129.1690   63.8700 C   0  0  0  0  0  0  0  0  0  0  0  0
  126.6930  128.1300   62.9820 C   0  0  0  0  0  0  0  0  0  0  0  0
  127.7790  128.2420   62.1170 C   0  0  0  0  0  0  0  0  0  0  0  0
  128.5720  129.4000   62.1300 C   0  0  0  0  0  0  0  0  0  0  0  0
  129.7050  129.6050   61.3210 N   0  0  0  0  0  0  0  0  0  0  0  0
  129.9600  130.5970   60.4400 C   0  0  0  0  0  0  0  0  0  0  0  0
  129.2100  131.5420   60.1930 O   0  0  0  0  0  0  0  0  0  0  0  0
  131.2730  130.4690   59.6610 C   0  0  0  0  0  0  0  0  0  0  0  0
  131.1540  129.3870   58.1980 S   0  0  0  0  0  0  0  0  0  0  0  0
  130.6620  127.7800   58.7860 C   0  0  0  0  0  0  0  0  0  0  0  0
  131.2550  127.4040   59.9440 N   0  0  0  0  0  0  0  0  0  0  0  0
  130.9380  126.2100   60.5060 C   0  0  0  0  0  0  0  0  0  0  0  0
  131.5930  125.8970   61.8190 C   0  0  0  0  0  0  0  0  0  0  0  0
  130.9170  126.1050   63.0320 C   0  0  0  0  0  0  0  0  0  0  0  0
  131.5300  125.8260   64.2510 C   0  0  0  0  0  0  0  0  0  0  0  0
  132.8320  125.3280   64.2790 C   0  0  0  0  0  0  0  0  0  0  0  0
  133.4990  125.0340   65.6100 C   0  0  0  0  0  0  0  0  0  0  0  0
  133.5190  125.1120   63.0870 C   0  0  0  0  0  0  0  0  0  0  0  0
  132.9020  125.3920   61.8720 C   0  0  0  0  0  0  0  0  0  0  0  0
  130.0130  125.3560   59.8970 C   0  0  0  0  0  0  0  0  0  0  0  0
  129.3880  125.7210   58.6960 C   0  0  0  0  0  0  0  0  0  0  0  0
  128.3980  124.7700   58.1100 C   0  0  0  0  0  0  0  0  0  0  0  0
  128.6360  124.1880   56.8610 C   0  0  0  0  0  0  0  0  0  0  0  0
  127.7240  123.2870   56.3150 C   0  0  0  0  0  0  0  0  0  0  0  0
  126.5630  122.9470   57.0070 C   0  0  0  0  0  0  0  0  0  0  0  0
  125.7190  122.0450   56.3890 O   0  0  0  0  0  0  0  0  0  0  0  0
  124.5070  122.5150   55.8090 C   0  0  0  0  0  0  0  0  0  0  0  0
  126.3220  123.5240   58.2630 C   0  0  0  0  0  0  0  0  0  0  0  0
  127.2360  124.4240   58.8070 C   0  0  0  0  0  0  0  0  0  0  0  0
  129.7240  126.9680   58.1150 C   0  0  0  0  0  0  0  0  0  0  0  0
  129.1300  127.3980   56.8450 C   0  0  0  0  0  0  0  0  0  0  0  0
  128.6600  127.7380   55.8440 N   0  0  0  0  0  0  0  0  0  0  0  0
  128.2490  130.4420   62.9990 C   0  0  0  0  0  0  0  0  0  0  0  0
  127.1640  130.3270   63.8650 C   0  0  0  0  0  0  0  0  0  0  0  0
  1  2  1  0
  2  3  1  0
  3  4  2  0
  3  5  1  0
  5  6  2  0
  6  7  1  0
  7  8  2  0
  8  9  1  0
  9 10  1  0
 10 11  2  0
 10 12  1  0
 12 13  1  0
 13 14  1  0
 14 15  2  0
 15 16  1  0
 16 17  1  0
 17 18  2  0
 18 19  1  0
 19 20  2  0
 20 21  1  0
 20 22  1  0
 22 23  2  0
 16 24  2  0
 24 25  1  0
 25 26  1  0
 26 27  2  0
 27 28  1  0
 28 29  2  0
 29 30  1  0
 30 31  1  0
 29 32  1  0
 32 33  2  0
 25 34  2  0
 34 35  1  0
 35 36  3  0
  8 37  1  0
 37 38  2  0
 38  5  1  0
 34 14  1  0
 23 17  1  0
 33 26  1  0
M  END
>  <Binding energies>  (53) 
[-8.61]

>  <Ligand effiencies>  (53) 
[-0.22076923076923075]

>  <Interactions>  (53) 
["V-A:ASP:366:CG:3213, V-B:MET:535:CE:9807, V-B:TYR:539:CE2:9848, V-A:GLU:543:CD:4908, V-B:TYR:539:CZ:9849, H-B:GLY:454:N:9022, H-B:TYR:484:OH:9320, V-A:GLU:543:CG:4907, V-B:ARG:545:CZ:9898, V-A:ARG:545:CZ:4926, V-B:TYR:539:CD1:9845, V-A:TYR:484:CZ:4347, V-B:TYR:539:CE1:9847, H-B:TYR:539:N:9842, V-B:PRO:540:CB:9857, V-B:PRO:540:CA:9855, V-B:PRO:540:N:9856, V-B:LEU:363:CD1:8161, V-B:TYR:531:CE2:9765, V-B:GLU:543:CD:9880, V-B:ILE:538:CA:9832, V-B:ILE:538:CD1:9837, H-A:GLU:543:OE1:4909, V-B:PRO:540:CD:9859, V-B:ILE:538:CG2:9835, H-B:ARG:545:NE:9896, H-B:ARG:545:NH2:9900, V-B:ILE:538:CB:9834, H-B:ARG:545:NH1:9899, V-B:GLY:453:CA:9016, V-A:TYR:484:CE2:4346, V-A:GLY:454:CA:4049, V-A:ARG:545:CD:4923, V-A:GLY:453:CA:4044, V-A:ARG:545:CG:4922"]

$$$$
RR7_Rahimova_2017
     RDKit          3D

 47 53  0  0  0  0  0  0  0  0999 V2000
  125.1720  130.6870   59.4330 C   0  0  0  0  0  0  0  0  0  0  0  0
  126.3790  130.0630   59.8590 O   0  0  0  0  0  0  0  0  0  0  0  0
  126.6350  128.7600   59.4760 C   0  0  0  0  0  0  0  0  0  0  0  0
  127.4810  128.0230   60.3020 C   0  0  0  0  0  0  0  0  0  0  0  0
  127.7920  126.7010   60.0000 C   0  0  0  0  0  0  0  0  0  0  0  0
  127.2700  126.0860   58.8530 C   0  0  0  0  0  0  0  0  0  0  0  0
  127.5760  124.5950   58.5070 C   0  0  0  0  0  0  0  0  0  0  0  0
  128.8170  124.5950   57.7680 O   0  0  0  0  0  0  0  0  0  0  0  0
  128.9530  125.4010   56.5930 C   0  0  0  0  0  0  0  0  0  0  0  0
  130.3900  125.9420   56.5200 C   0  0  1  0  0  0  0  0  0  0  0  0
  130.2960  127.3640   56.5280 O   0  0  0  0  0  0  0  0  0  0  0  0
  130.9890  127.9280   57.6050 C   0  0  1  0  0  0  0  0  0  0  0  0
  130.3150  129.1290   58.0580 N   0  0  0  0  0  0  0  0  0  0  0  0
  129.2770  129.8080   57.4440 C   0  0  0  0  0  0  0  0  0  0  0  0
  128.8840  130.9000   58.0500 N   0  0  0  0  0  0  0  0  0  0  0  0
  129.7320  131.0030   59.1200 C   0  0  0  0  0  0  0  0  0  0  0  0
  129.8420  131.9610   60.1470 C   0  0  0  0  0  0  0  0  0  0  0  0
  128.9430  133.0430   60.1610 N   0  0  0  0  0  0  0  0  0  0  0  0
  128.0080  133.3620   61.0870 C   0  0  0  0  0  0  0  0  0  0  0  0
  127.7830  132.7010   62.1040 O   0  0  0  0  0  0  0  0  0  0  0  0
  127.1900  134.6020   60.7920 C   0  0  0  0  0  0  0  0  0  0  0  0
  127.7460  135.8700   61.0210 C   0  0  0  0  0  0  0  0  0  0  0  0
  127.0150  137.0230   60.7520 C   0  0  0  0  0  0  0  0  0  0  0  0
  125.7230  136.9190   60.2470 C   0  0  0  0  0  0  0  0  0  0  0  0
  125.1540  135.6700   60.0080 C   0  0  0  0  0  0  0  0  0  0  0  0
  125.8850  134.5150   60.2790 C   0  0  0  0  0  0  0  0  0  0  0  0
  130.8170  131.8140   61.0940 N   0  0  0  0  0  0  0  0  0  0  0  0
  131.6420  130.7390   60.9940 C   0  0  0  0  0  0  0  0  0  0  0  0
  131.6220  129.7590   60.0520 N   0  0  0  0  0  0  0  0  0  0  0  0
  130.6530  129.9250   59.1420 C   0  0  0  0  0  0  0  0  0  0  0  0
  131.0890  126.8160   58.6430 C   0  0  0  0  0  0  0  0  0  0  0  0
  131.2700  125.6130   57.7340 C   0  0  2  0  0  0  0  0  0  0  0  0
  132.6280  125.4130   57.3790 O   0  0  0  0  0  0  0  0  0  0  0  0
  127.8030  123.7300   59.7750 C   0  0  0  0  0  0  0  0  0  0  0  0
  128.9390  122.9100   59.8790 C   0  0  0  0  0  0  0  0  0  0  0  0
  129.1460  122.1200   61.0050 C   0  0  0  0  0  0  0  0  0  0  0  0
  128.2180  122.1400   62.0410 C   0  0  0  0  0  0  0  0  0  0  0  0
  127.0850  122.9440   61.9600 C   0  0  0  0  0  0  0  0  0  0  0  0
  126.8780  123.7330   60.8320 C   0  0  0  0  0  0  0  0  0  0  0  0
  126.4830  123.8530   57.6860 C   0  0  0  0  0  0  0  0  0  0  0  0
  126.8220  123.1680   56.5090 C   0  0  0  0  0  0  0  0  0  0  0  0
  125.8500  122.5090   55.7620 C   0  0  0  0  0  0  0  0  0  0  0  0
  124.5230  122.5370   56.1820 C   0  0  0  0  0  0  0  0  0  0  0  0
  124.1620  123.2210   57.3380 C   0  0  0  0  0  0  0  0  0  0  0  0
  125.1360  123.8790   58.0830 C   0  0  0  0  0  0  0  0  0  0  0  0
  126.4080  126.8280   58.0330 C   0  0  0  0  0  0  0  0  0  0  0  0
  126.0960  128.1500   58.3350 C   0  0  0  0  0  0  0  0  0  0  0  0
  1  2  1  0
  2  3  1  0
  3  4  2  0
  4  5  1  0
  5  6  2  0
  6  7  1  0
  7  8  1  0
  8  9  1  0
 10  9  1  1
 10 11  1  0
 11 12  1  0
 12 13  1  1
 13 14  1  0
 14 15  2  0
 15 16  1  0
 16 17  2  0
 17 18  1  0
 18 19  1  0
 19 20  2  0
 19 21  1  0
 21 22  2  0
 22 23  1  0
 23 24  2  0
 24 25  1  0
 25 26  2  0
 17 27  1  0
 27 28  2  0
 28 29  1  0
 29 30  2  0
 12 31  1  0
 31 32  1  0
 32 33  1  6
  7 34  1  0
 34 35  2  0
 35 36  1  0
 36 37  2  0
 37 38  1  0
 38 39  2  0
  7 40  1  0
 40 41  2  0
 41 42  1  0
 42 43  2  0
 43 44  1  0
 44 45  2  0
  6 46  1  0
 46 47  2  0
 47  3  1  0
 32 10  1  0
 39 34  1  0
 45 40  1  0
 30 13  1  0
 30 16  1  0
 26 21  1  0
M  END
>  <Binding energies>  (54) 
[-10.55]

>  <Ligand effiencies>  (54) 
[-0.21530612244897962]

>  <Interactions>  (54) 
["V-A:ALA:541:CB:4892, V-A:ASP:366:CG:3213, V-B:MET:535:CE:9807, V-B:LEU:475:CD2:9231, V-A:PRO:540:CA:4883, V-B:TYR:539:CE2:9848, V-A:GLU:543:CD:4908, V-B:TYR:539:CZ:9849, H-A:ALA:541:N:4891, H-A:TYR:531:OH:4795, V-A:TYR:539:CE1:4875, V-B:TYR:539:CD2:9846, H-B:TYR:539:OH:9850, V-B:ASP:366:CG:8185, V-B:PRO:540:CB:9857, V-B:PRO:540:CA:9855, V-B:ASP:366:CB:8184, V-A:TYR:539:CD1:4873, V-A:TYR:539:C:4867, V-A:PRO:540:C:4881, V-B:LEU:363:CD1:8161, V-B:TYR:531:CE2:9765, V-B:GLU:543:CD:9880, V-B:ILE:538:CA:9832, V-B:ILE:538:CD1:9837, V-B:PRO:540:C:9853, V-A:PRO:540:N:4884, V-B:GLU:543:CG:9879, V-B:PRO:540:CG:9858, V-B:PRO:540:CD:9859, V-B:ALA:541:CB:9864, V-B:ILE:538:CG2:9835, V-B:SER:385:CB:8381, V-B:ILE:538:C:9830, H-A:TYR:539:O:4868, V-B:HIS:383:CD2:8364, V-B:PRO:482:CB:9298, V-B:PRO:482:CG:9299, V-B:ALA:541:CA:9862, H-A:ASP:366:O:3209"]

$$$$
RR8_A_Rahimova_2017
     RDKit          3D

 42 46  0  0  0  0  0  0  0  0999 V2000
  132.7450  126.3690   55.5600 O   0  0  0  0  0  0  0  0  0  0  0  0
  131.9390  126.0380   56.4350 C   0  0  0  0  0  0  0  0  0  0  0  0
  130.5780  126.0930   56.2940 O   0  0  0  0  0  0  0  0  0  0  0  0
  129.9710  127.3540   56.3520 C   0  0  1  0  0  0  0  0  0  0  0  0
  130.1520  128.0690   55.1640 O   0  0  0  0  0  0  0  0  0  0  0  0
  128.9920  128.8170   54.8130 C   0  0  2  0  0  0  0  0  0  0  0  0
  129.3910  130.2940   54.6500 C   0  0  0  0  0  0  0  0  0  0  0  0
  128.4570  131.1020   55.3510 O   0  0  0  0  0  0  0  0  0  0  0  0
  129.0550  132.0780   56.1950 C   0  0  0  0  0  0  0  0  0  0  0  0
  130.3590  131.5380   56.7640 C   0  0  0  0  0  0  0  0  0  0  0  0
  131.5800  132.0090   56.2750 C   0  0  0  0  0  0  0  0  0  0  0  0
  132.7750  131.5200   56.7990 C   0  0  0  0  0  0  0  0  0  0  0  0
  132.7450  130.5650   57.8130 C   0  0  0  0  0  0  0  0  0  0  0  0
  131.5320  130.0950   58.3100 C   0  0  0  0  0  0  0  0  0  0  0  0
  130.3370  130.5840   57.7870 C   0  0  0  0  0  0  0  0  0  0  0  0
  128.0080  128.5220   55.9540 C   0  0  1  0  0  0  0  0  0  0  0  0
  126.6610  128.3750   55.5090 O   0  0  0  0  0  0  0  0  0  0  0  0
  125.8940  129.5720   55.4620 C   0  0  0  0  0  0  0  0  0  0  0  0
  125.2990  129.8620   56.8330 C   0  0  0  0  0  0  0  0  0  0  0  0
  125.8280  129.2340   57.9650 C   0  0  0  0  0  0  0  0  0  0  0  0
  125.2830  129.4870   59.2210 C   0  0  0  0  0  0  0  0  0  0  0  0
  124.2070  130.3650   59.3430 C   0  0  0  0  0  0  0  0  0  0  0  0
  123.6690  130.9880   58.2200 C   0  0  0  0  0  0  0  0  0  0  0  0
  124.2130  130.7350   56.9630 C   0  0  0  0  0  0  0  0  0  0  0  0
  128.4640  127.1680   56.4660 C   0  0  2  0  0  0  0  0  0  0  0  0
  128.0120  126.9590   57.8020 O   0  0  0  0  0  0  0  0  0  0  0  0
  128.2440  125.6590   58.3350 C   0  0  0  0  0  0  0  0  0  0  0  0
  127.3870  124.6390   57.6010 C   0  0  0  0  0  0  0  0  0  0  0  0
  127.9310  123.8860   56.5550 C   0  0  0  0  0  0  0  0  0  0  0  0
  127.1460  122.9450   55.8930 C   0  0  0  0  0  0  0  0  0  0  0  0
  125.8210  122.7570   56.2800 C   0  0  0  0  0  0  0  0  0  0  0  0
  125.2730  123.4990   57.3240 C   0  0  0  0  0  0  0  0  0  0  0  0
  126.0580  124.4400   57.9870 C   0  0  0  0  0  0  0  0  0  0  0  0
  132.3600  125.5150   57.7780 C   0  0  0  0  0  0  0  0  0  0  0  0
  131.7520  125.9480   58.9670 C   0  0  0  0  0  0  0  0  0  0  0  0
  132.1670  125.4460   60.1970 C   0  0  0  0  0  0  0  0  0  0  0  0
  133.1980  124.5010   60.2720 C   0  0  0  0  0  0  0  0  0  0  0  0
  133.6380  123.9650   61.5840 N   0  0  0  0  0  0  0  0  0  0  0  0
  133.9090  124.7570   62.4820 O   0  0  0  0  0  0  0  0  0  0  0  0
  133.7140  122.7480   61.7260 O   0  0  0  0  0  0  0  0  0  0  0  0
  133.8060  124.0720   59.0860 C   0  0  0  0  0  0  0  0  0  0  0  0
  133.3930  124.5730   57.8550 C   0  0  0  0  0  0  0  0  0  0  0  0
  1  2  2  0
  2  3  1  0
  4  3  1  6
  4  5  1  0
  5  6  1  0
  6  7  1  1
  7  8  1  0
  8  9  1  0
  9 10  1  0
 10 11  2  0
 11 12  1  0
 12 13  2  0
 13 14  1  0
 14 15  2  0
  6 16  1  0
 16 17  1  6
 17 18  1  0
 18 19  1  0
 19 20  2  0
 20 21  1  0
 21 22  2  0
 22 23  1  0
 23 24  2  0
 16 25  1  0
 25 26  1  1
 26 27  1  0
 27 28  1  0
 28 29  2  0
 29 30  1  0
 30 31  2  0
 31 32  1  0
 32 33  2  0
  2 34  1  0
 34 35  2  0
 35 36  1  0
 36 37  2  0
 37 38  1  0
 38 39  2  0
 38 40  1  0
 37 41  1  0
 41 42  2  0
 25  4  1  0
 33 28  1  0
 42 34  1  0
 15 10  1  0
 24 19  1  0
M  CHG  2  38   1  40  -1
M  END
>  <Binding energies>  (55) 
[-10.87]

>  <Ligand effiencies>  (55) 
[-0.25880952380952377]

>  <Interactions>  (55) 
["V-A:ASP:366:CA:3210, V-A:TYR:539:CZ:4877, V-A:ILE:369:CB:3236, V-A:ASP:366:CG:3213, V-B:MET:535:CE:9807, V-B:ILE:369:CG2:8209, V-A:PRO:540:CA:4883, V-B:TYR:539:CE2:9848, V-A:ASP:366:CB:3212, V-B:TYR:539:CZ:9849, V-A:ASP:366:C:3208, H-A:TYR:531:OH:4795, V-A:TYR:539:CE1:4875, V-A:ILE:369:CG2:3237, H-B:TYR:531:OH:9767, V-B:TYR:539:CD1:9845, V-B:TYR:539:CE1:9847, H-B:TYR:539:OH:9850, V-B:ASP:366:CG:8185, V-B:PRO:540:CB:9857, V-B:ASP:366:CB:8184, V-B:ASP:366:CA:8182, V-A:ILE:369:CD1:3239, V-B:TYR:531:CZ:9766, V-A:PRO:540:CB:4885, V-A:LEU:363:CD1:3189, V-A:PRO:540:N:4884, V-B:PRO:540:CD:9859, V-B:ASP:366:C:8180, V-B:ILE:369:CB:8208, H-A:GLY:454:N:4050, V-B:TYR:531:CE1:9764, H-A:ARG:545:NH2:4928, V-A:MET:535:CE:4835"]

$$$$
RR8_B_Rahimova_2017
     RDKit          3D

 42 46  0  0  0  0  0  0  0  0999 V2000
  133.5570  124.3930   57.7510 O   0  0  0  0  0  0  0  0  0  0  0  0
  132.6060  124.7370   58.4590 C   0  0  0  0  0  0  0  0  0  0  0  0
  131.3700  125.0770   57.9820 O   0  0  0  0  0  0  0  0  0  0  0  0
  131.3000  125.9320   56.8680 C   0  0  2  0  0  0  0  0  0  0  0  0
  131.4130  127.2780   57.2350 O   0  0  0  0  0  0  0  0  0  0  0  0
  130.1330  127.8620   57.4750 C   0  0  2  0  0  0  0  0  0  0  0  0
  130.0810  128.4110   58.9120 C   0  0  0  0  0  0  0  0  0  0  0  0
  130.0680  129.8330   58.8690 O   0  0  0  0  0  0  0  0  0  0  0  0
  131.2980  130.4310   58.4900 C   0  0  0  0  0  0  0  0  0  0  0  0
  131.0980  131.2150   57.2010 C   0  0  0  0  0  0  0  0  0  0  0  0
  129.8050  131.5400   56.7810 C   0  0  0  0  0  0  0  0  0  0  0  0
  129.6130  132.2360   55.5900 C   0  0  0  0  0  0  0  0  0  0  0  0
  130.7170  132.6070   54.8240 C   0  0  0  0  0  0  0  0  0  0  0  0
  132.0080  132.2920   55.2400 C   0  0  0  0  0  0  0  0  0  0  0  0
  132.2000  131.5930   56.4290 C   0  0  0  0  0  0  0  0  0  0  0  0
  129.1380  126.7390   57.1620 C   0  0  1  0  0  0  0  0  0  0  0  0
  127.9580  127.2870   56.5660 O   0  0  0  0  0  0  0  0  0  0  0  0
  127.9050  128.7080   56.4170 C   0  0  0  0  0  0  0  0  0  0  0  0
  126.5500  129.2810   56.8200 C   0  0  0  0  0  0  0  0  0  0  0  0
  126.1920  129.3510   58.1690 C   0  0  0  0  0  0  0  0  0  0  0  0
  124.9680  129.9040   58.5360 C   0  0  0  0  0  0  0  0  0  0  0  0
  124.1040  130.3810   57.5510 C   0  0  0  0  0  0  0  0  0  0  0  0
  124.4530  130.3100   56.2040 C   0  0  0  0  0  0  0  0  0  0  0  0
  125.6790  129.7600   55.8380 C   0  0  0  0  0  0  0  0  0  0  0  0
  129.9180  125.8210   56.2260 C   0  0  2  0  0  0  0  0  0  0  0  0
  129.3740  124.5040   56.2550 O   0  0  0  0  0  0  0  0  0  0  0  0
  128.6410  124.1680   57.4230 C   0  0  0  0  0  0  0  0  0  0  0  0
  127.2950  123.6080   56.9940 C   0  0  0  0  0  0  0  0  0  0  0  0
  127.1490  123.0020   55.7440 C   0  0  0  0  0  0  0  0  0  0  0  0
  125.9060  122.5090   55.3540 C   0  0  0  0  0  0  0  0  0  0  0  0
  124.8160  122.6240   56.2140 C   0  0  0  0  0  0  0  0  0  0  0  0
  124.9560  123.2260   57.4630 C   0  0  0  0  0  0  0  0  0  0  0  0
  126.1980  123.7180   57.8530 C   0  0  0  0  0  0  0  0  0  0  0  0
  132.6980  124.8650   59.9530 C   0  0  0  0  0  0  0  0  0  0  0  0
  131.7630  125.6050   60.6910 C   0  0  0  0  0  0  0  0  0  0  0  0
  131.8780  125.7130   62.0720 C   0  0  0  0  0  0  0  0  0  0  0  0
  132.9350  125.0940   62.7500 C   0  0  0  0  0  0  0  0  0  0  0  0
  133.0720  125.2320   64.2210 N   0  0  0  0  0  0  0  0  0  0  0  0
  134.1800  125.0780   64.7270 O   0  0  0  0  0  0  0  0  0  0  0  0
  132.0710  125.5010   64.8820 O   0  0  0  0  0  0  0  0  0  0  0  0
  133.8660  124.3490   62.0130 C   0  0  0  0  0  0  0  0  0  0  0  0
  133.7470  124.2350   60.6320 C   0  0  0  0  0  0  0  0  0  0  0  0
  1  2  2  0
  2  3  1  0
  4  3  1  1
  4  5  1  0
  5  6  1  0
  6  7  1  1
  7  8  1  0
  8  9  1  0
  9 10  1  0
 10 11  2  0
 11 12  1  0
 12 13  2  0
 13 14  1  0
 14 15  2  0
  6 16  1  0
 16 17  1  6
 17 18  1  0
 18 19  1  0
 19 20  2  0
 20 21  1  0
 21 22  2  0
 22 23  1  0
 23 24  2  0
 16 25  1  0
 25 26  1  1
 26 27  1  0
 27 28  1  0
 28 29  2  0
 29 30  1  0
 30 31  2  0
 31 32  1  0
 32 33  2  0
  2 34  1  0
 34 35  2  0
 35 36  1  0
 36 37  2  0
 37 38  1  0
 38 39  2  0
 38 40  1  0
 37 41  1  0
 41 42  2  0
 25  4  1  0
 33 28  1  0
 42 34  1  0
 15 10  1  0
 24 19  1  0
M  CHG  2  38   1  40  -1
M  END
>  <Binding energies>  (56) 
[-10.31]

>  <Ligand effiencies>  (56) 
[-0.2454761904761905]

>  <Interactions>  (56) 
["V-A:TYR:539:CZ:4877, V-A:ASP:366:CG:3213, V-B:MET:535:CE:9807, V-B:TYR:539:CE2:9848, V-A:ASP:366:CB:3212, V-B:TYR:539:CZ:9849, H-A:TYR:531:OH:4795, V-A:TYR:539:CE1:4875, V-A:ARG:545:CZ:4926, H-B:TYR:531:OH:9767, V-B:TYR:539:CD1:9845, V-A:TYR:484:CZ:4347, V-B:TYR:539:CE1:9847, H-B:TYR:539:OH:9850, V-B:ASP:366:CG:8185, V-B:PRO:540:CB:9857, V-B:PRO:540:CA:9855, V-B:ASP:366:CB:8184, V-B:ASP:366:CA:8182, V-B:PRO:540:N:9856, V-A:ILE:369:CD1:3239, V-B:LEU:363:CD1:8161, V-B:TYR:531:CE2:9765, V-B:ILE:538:CA:9832, V-B:ILE:538:CD1:9837, V-A:TYR:531:CE2:4793, V-A:PRO:540:CB:4885, V-A:LEU:363:CD1:3189, V-A:ILE:538:CA:4860, V-A:ILE:538:CB:4862, V-A:ILE:538:CG2:4863, V-B:PRO:540:CD:9859, V-B:ASP:366:C:8180, H-A:GLY:454:N:4050, V-B:ILE:538:CG2:9835, H-A:TYR:484:OH:4348, V-B:ILE:538:C:9830, V-B:TYR:531:CE1:9764, H-A:ARG:545:NH2:4928, V-B:ILE:538:CB:9834, H-A:ARG:545:NE:4924, H-A:ARG:545:NH1:4927, V-A:GLY:453:C:4042, V-A:GLY:453:CA:4044"]

$$$$
RR9_Rahimova_2017
     RDKit          3D

 36 40  0  0  0  0  0  0  0  0999 V2000
  124.5840  133.7150   61.0020 C   0  0  0  0  0  0  0  0  0  0  0  0
  123.6840  133.0930   62.0740 C   0  0  0  0  0  0  0  0  0  0  0  0
  124.5060  132.5710   63.1150 O   0  0  0  0  0  0  0  0  0  0  0  0
  125.1560  131.3670   62.9260 C   0  0  0  0  0  0  0  0  0  0  0  0
  126.5400  131.3730   63.0890 C   0  0  0  0  0  0  0  0  0  0  0  0
  127.2790  130.2070   62.9170 C   0  0  0  0  0  0  0  0  0  0  0  0
  126.6530  128.9990   62.5760 C   0  0  0  0  0  0  0  0  0  0  0  0
  127.4460  127.7400   62.3850 C   0  0  0  0  0  0  0  0  0  0  0  0
  126.9150  126.6320   61.7050 C   0  0  0  0  0  0  0  0  0  0  0  0
  127.6670  125.4580   61.5170 C   0  0  0  0  0  0  0  0  0  0  0  0
  127.0790  124.3450   60.6930 C   0  0  0  0  0  0  0  0  0  0  0  0
  127.8040  123.4620   60.2340 O   0  0  0  0  0  0  0  0  0  0  0  0
  125.7490  124.4080   60.4870 N   0  0  0  0  0  0  0  0  0  0  0  0
  124.9710  123.5210   59.6160 C   0  0  0  0  0  0  0  0  0  0  0  0
  124.7200  124.1180   58.2120 C   0  0  0  0  0  0  0  0  0  0  0  0
  125.6640  123.6120   57.1260 C   0  0  0  0  0  0  0  0  0  0  0  0
  127.0480  123.7170   57.2950 C   0  0  0  0  0  0  0  0  0  0  0  0
  127.9080  123.2230   56.3170 C   0  0  0  0  0  0  0  0  0  0  0  0
  127.3810  122.6300   55.1720 C   0  0  0  0  0  0  0  0  0  0  0  0
  126.0020  122.5260   54.9950 C   0  0  0  0  0  0  0  0  0  0  0  0
  125.1420  123.0190   55.9730 C   0  0  0  0  0  0  0  0  0  0  0  0
  128.9670  125.4490   62.0800 C   0  0  0  0  0  0  0  0  0  0  0  0
  130.0870  124.5480   62.2130 C   0  0  0  0  0  0  0  0  0  0  0  0
  130.2100  123.1190   61.7980 C   0  0  0  0  0  0  0  0  0  0  0  0
  131.2580  122.7150   60.9660 C   0  0  0  0  0  0  0  0  0  0  0  0
  131.3610  121.3850   60.5680 C   0  0  0  0  0  0  0  0  0  0  0  0
  130.4180  120.4530   61.0040 C   0  0  0  0  0  0  0  0  0  0  0  0
  130.5200  119.0060   60.5540 C   0  0  0  0  0  0  0  0  0  0  0  0
  129.3690  120.8520   61.8330 C   0  0  0  0  0  0  0  0  0  0  0  0
  129.2690  122.1820   62.2320 C   0  0  0  0  0  0  0  0  0  0  0  0
  131.0910  125.1460   62.8150 N   0  0  0  0  0  0  0  0  0  0  0  0
  130.6940  126.3840   63.1500 N   0  0  0  0  0  0  0  0  0  0  0  0
  129.4040  126.6240   62.7390 C   0  0  0  0  0  0  0  0  0  0  0  0
  128.7020  127.7430   62.9120 N   0  0  0  0  0  0  0  0  0  0  0  0
  125.2610  129.0010   62.4120 C   0  0  0  0  0  0  0  0  0  0  0  0
  124.5180  130.1670   62.5850 C   0  0  0  0  0  0  0  0  0  0  0  0
  1  2  1  0
  2  3  1  0
  3  4  1  0
  4  5  2  0
  5  6  1  0
  6  7  2  0
  7  8  1  0
  8  9  2  0
  9 10  1  0
 10 11  1  0
 11 12  2  0
 11 13  1  0
 13 14  1  0
 14 15  1  0
 15 16  1  0
 16 17  2  0
 17 18  1  0
 18 19  2  0
 19 20  1  0
 20 21  2  0
 10 22  2  0
 22 23  1  0
 23 24  1  0
 24 25  2  0
 25 26  1  0
 26 27  2  0
 27 28  1  0
 27 29  1  0
 29 30  2  0
 23 31  2  0
 31 32  1  0
 32 33  1  0
 33 34  2  0
  7 35  1  0
 35 36  2  0
 36  4  1  0
 34  8  1  0
 21 16  1  0
 33 22  1  0
 30 24  1  0
M  END
>  <Binding energies>  (57) 
[-9.61]

>  <Ligand effiencies>  (57) 
[-0.2528947368421052]

>  <Interactions>  (57) 
["V-B:MET:535:CE:9807, V-B:ILE:369:CG2:8209, V-B:LEU:475:CD2:9231, V-B:TYR:539:CE2:9848, V-A:GLU:543:CD:4908, V-B:TYR:539:CZ:9849, V-B:ILE:369:CD1:8211, H-B:GLY:454:N:9022, H-B:TYR:484:OH:9320, V-B:ARG:545:CZ:9898, V-B:TYR:539:CD2:9846, V-A:LEU:475:CD2:4259, V-B:TYR:539:CD1:9845, V-B:TYR:539:CG:9844, H-B:ASP:366:OD2:8187, V-B:TYR:539:CE1:9847, V-B:TYR:539:C:9839, V-A:TYR:484:CE1:4345, V-B:ASP:366:CG:8185, V-B:PRO:540:CB:9857, V-B:PRO:540:CA:9855, V-B:LEU:363:CD1:8161, V-B:TYR:531:CZ:9766, V-B:TYR:531:CE2:9765, V-B:GLU:543:CD:9880, H-B:GLU:543:OE1:9881, V-B:ILE:538:CA:9832, V-B:ILE:538:CD1:9837, H-A:GLU:543:OE1:4909, H-A:GLU:543:OE2:4910, H-B:ASP:366:OD1:8186, V-B:ALA:541:CB:9864, V-B:ILE:538:CG2:9835, V-B:GLY:454:CA:9021, H-A:TYR:484:OH:4348, V-B:ILE:538:C:9830, V-B:ILE:538:CB:9834, V-B:ILE:538:CG1:9836"]

$$$$
