1a_Ghoteimi_2023
     RDKit          3D

 40 43  0  0  0  0  0  0  0  0999 V2000
  132.7440  130.9950   58.7030 C   0  0  0  0  0  0  0  0  0  0  0  0
  133.2410  131.0480   57.2550 C   0  0  0  0  0  0  0  0  0  0  0  0
  132.6850  132.1860   56.6080 O   0  0  0  0  0  0  0  0  0  0  0  0
  132.0940  132.0820   55.3900 C   0  0  0  0  0  0  0  0  0  0  0  0
  132.7110  132.1710   54.3240 O   0  0  0  0  0  0  0  0  0  0  0  0
  130.6140  131.8420   55.4690 C   0  0  0  0  0  0  0  0  0  0  0  0
  129.7200  132.4070   54.5480 C   0  0  0  0  0  0  0  0  0  0  0  0
  128.3520  132.1690   54.6480 C   0  0  0  0  0  0  0  0  0  0  0  0
  127.8520  131.3530   55.6740 C   0  0  0  0  0  0  0  0  0  0  0  0
  126.4910  131.0500   55.8730 N   0  0  0  0  0  0  0  0  0  0  0  0
  125.8550  129.8600   55.8280 C   0  0  0  0  0  0  0  0  0  0  0  0
  126.3860  128.7710   55.6090 O   0  0  0  0  0  0  0  0  0  0  0  0
  124.3480  129.9100   56.0840 C   0  0  0  0  0  0  0  0  0  0  0  0
  123.9720  130.4020   57.7920 S   0  0  0  0  0  0  0  0  0  0  0  0
  124.9680  129.3640   58.8370 C   0  0  0  0  0  0  0  0  0  0  0  0
  125.2500  128.1530   58.3000 N   0  0  0  0  0  0  0  0  0  0  0  0
  126.0090  127.2650   58.9960 C   0  0  0  0  0  0  0  0  0  0  0  0
  126.2940  125.9530   58.3250 C   0  0  0  0  0  0  0  0  0  0  0  0
  127.1730  125.8680   57.2330 C   0  0  0  0  0  0  0  0  0  0  0  0
  127.4360  124.6490   56.6130 C   0  0  0  0  0  0  0  0  0  0  0  0
  126.8290  123.4790   57.0630 C   0  0  0  0  0  0  0  0  0  0  0  0
  127.1500  122.3160   56.3900 O   0  0  0  0  0  0  0  0  0  0  0  0
  127.2300  122.3360   54.9700 C   0  0  0  0  0  0  0  0  0  0  0  0
  125.9460  123.5490   58.1500 C   0  0  0  0  0  0  0  0  0  0  0  0
  125.6850  124.7680   58.7670 C   0  0  0  0  0  0  0  0  0  0  0  0
  126.5010  127.5920   60.2660 C   0  0  0  0  0  0  0  0  0  0  0  0
  126.2030  128.8290   60.8520 C   0  0  0  0  0  0  0  0  0  0  0  0
  126.7360  129.0960   62.2220 C   0  0  0  0  0  0  0  0  0  0  0  0
  126.5010  128.2000   63.2700 C   0  0  0  0  0  0  0  0  0  0  0  0
  127.0140  128.4490   64.5400 C   0  0  0  0  0  0  0  0  0  0  0  0
  127.7760  129.5900   64.7870 C   0  0  0  0  0  0  0  0  0  0  0  0
  128.2440  129.7520   66.0760 O   0  0  0  0  0  0  0  0  0  0  0  0
  128.2010  128.6490   66.9740 C   0  0  0  0  0  0  0  0  0  0  0  0
  128.0210  130.4870   63.7350 C   0  0  0  0  0  0  0  0  0  0  0  0
  127.5060  130.2370   62.4660 C   0  0  0  0  0  0  0  0  0  0  0  0
  125.4160  129.7500   60.1190 C   0  0  0  0  0  0  0  0  0  0  0  0
  125.0830  131.0660   60.6740 C   0  0  0  0  0  0  0  0  0  0  0  0
  124.8210  132.1040   61.1120 N   0  0  0  0  0  0  0  0  0  0  0  0
  128.7380  130.7930   56.5940 C   0  0  0  0  0  0  0  0  0  0  0  0
  130.1060  131.0320   56.4930 C   0  0  0  0  0  0  0  0  0  0  0  0
  1  2  1  0
  2  3  1  0
  3  4  1  0
  4  5  2  0
  4  6  1  0
  6  7  2  0
  7  8  1  0
  8  9  2  0
  9 10  1  0
 10 11  1  0
 11 12  2  0
 11 13  1  0
 13 14  1  0
 14 15  1  0
 15 16  2  0
 16 17  1  0
 17 18  1  0
 18 19  2  0
 19 20  1  0
 20 21  2  0
 21 22  1  0
 22 23  1  0
 21 24  1  0
 24 25  2  0
 17 26  2  0
 26 27  1  0
 27 28  1  0
 28 29  2  0
 29 30  1  0
 30 31  2  0
 31 32  1  0
 32 33  1  0
 31 34  1  0
 34 35  2  0
 27 36  2  0
 36 37  1  0
 37 38  3  0
  9 39  1  0
 39 40  2  0
 40  6  1  0
 36 15  1  0
 25 18  1  0
 35 28  1  0
M  END
>  <Binding energies>  (1) 
[-9.44]

>  <Ligand effiencies>  (1) 
[-0.23024390243902437]

>  <Interactions>  (1) 
["V-B:PRO:540:N:9856, V-B:PRO:540:CB:9857, V-B:TYR:539:CG:9844, V-B:PRO:540:CA:9855, V-B:TYR:531:CE1:9764, V-B:ASP:366:CG:8185, V-B:ARG:545:CZ:9898, V-A:TYR:531:CZ:4794, V-A:ILE:538:CG2:4863, V-A:PRO:540:CB:4885, V-A:TYR:539:CE1:4875, V-A:ILE:538:CB:4862, V-A:TYR:539:CZ:4877, V-A:PRO:540:CA:4883, V-A:LEU:363:CD1:3189, V-B:ASP:366:CA:8182, V-A:TYR:539:CE2:4876, V-A:TYR:539:CD2:4874, V-B:ASP:366:C:8180, V-B:ASP:366:CB:8184, V-A:ILE:538:CA:4860, V-B:MET:535:CE:9807, V-A:TYR:531:CE2:4793, V-B:TYR:531:CZ:9766, H-B:TYR:531:OH:9767, V-B:TYR:539:CE1:9847, V-A:ASP:366:CG:3213, V-B:TYR:539:CD1:9845, V-B:ILE:538:CD1:9837, V-B:ILE:538:CA:9832, H-A:TYR:531:OH:4795, V-A:GLU:543:CD:4908, H-B:LYS:534:NZ:9795, V-B:GLU:543:CD:9880, H-B:TYR:484:OH:9320, V-A:GLU:543:CG:4907, H-A:TYR:539:OH:4878, V-B:ILE:538:C:9830, V-B:VAL:537:C:9822, V-A:LEU:363:CA:3185, V-B:HIS:456:CE1:9042, H-B:TYR:539:N:9842, V-A:GLU:543:CB:4906, V-B:TYR:531:CD1:9762"]

$$$$
1b_Ghoteimi_2023
     RDKit          3D

 34 37  0  0  0  0  0  0  0  0999 V2000
  124.0970  129.5310   66.9820 C   0  0  0  0  0  0  0  0  0  0  0  0
  123.7630  129.9260   65.6570 O   0  0  0  0  0  0  0  0  0  0  0  0
  124.5600  129.5080   64.6090 C   0  0  0  0  0  0  0  0  0  0  0  0
  125.7450  128.8570   64.9450 C   0  0  0  0  0  0  0  0  0  0  0  0
  126.6110  128.4010   63.9560 C   0  0  0  0  0  0  0  0  0  0  0  0
  126.3160  128.5800   62.5960 C   0  0  0  0  0  0  0  0  0  0  0  0
  127.2550  128.0880   61.5300 C   0  0  0  0  0  0  0  0  0  0  0  0
  126.9740  126.9830   60.7200 C   0  0  0  0  0  0  0  0  0  0  0  0
  127.8820  126.5680   59.7370 C   0  0  0  0  0  0  0  0  0  0  0  0
  127.5190  125.3770   58.9130 C   0  0  0  0  0  0  0  0  0  0  0  0
  126.2380  125.2600   58.3670 C   0  0  0  0  0  0  0  0  0  0  0  0
  125.8920  124.1480   57.6050 C   0  0  0  0  0  0  0  0  0  0  0  0
  126.8180  123.1290   57.3760 C   0  0  0  0  0  0  0  0  0  0  0  0
  126.3860  122.0640   56.6090 O   0  0  0  0  0  0  0  0  0  0  0  0
  125.2220  122.2150   55.8040 C   0  0  0  0  0  0  0  0  0  0  0  0
  128.1030  123.2380   57.9280 C   0  0  0  0  0  0  0  0  0  0  0  0
  128.4450  124.3510   58.6910 C   0  0  0  0  0  0  0  0  0  0  0  0
  129.0840  127.3000   59.5760 C   0  0  0  0  0  0  0  0  0  0  0  0
  130.0210  126.9660   58.5000 C   0  0  0  0  0  0  0  0  0  0  0  0
  130.7610  126.7010   57.6500 N   0  0  0  0  0  0  0  0  0  0  0  0
  129.3140  128.3940   60.4410 C   0  0  0  0  0  0  0  0  0  0  0  0
  130.7680  129.4210   60.3900 S   0  0  0  0  0  0  0  0  0  0  0  0
  130.2290  131.1620   60.4600 C   0  0  0  0  0  0  0  0  0  0  0  0
  129.9720  131.8180   59.0950 C   0  0  0  0  0  0  0  0  0  0  0  0
  128.9400  132.4590   58.8890 O   0  0  0  0  0  0  0  0  0  0  0  0
  130.9520  131.6240   58.1840 N   0  0  0  0  0  0  0  0  0  0  0  0
  130.9920  132.0980   56.8780 C   0  0  0  0  0  0  0  0  0  0  0  0
  131.9990  131.7590   55.9760 C   0  0  0  0  0  0  0  0  0  0  0  0
  131.6770  132.4230   54.8140 C   0  0  0  0  0  0  0  0  0  0  0  0
  130.5330  133.1230   55.0070 O   0  0  0  0  0  0  0  0  0  0  0  0
  130.1090  132.9090   56.3190 N   0  0  0  0  0  0  0  0  0  0  0  0
  128.4120  128.7820   61.3740 N   0  0  0  0  0  0  0  0  0  0  0  0
  125.1200  129.2390   62.2680 C   0  0  0  0  0  0  0  0  0  0  0  0
  124.2520  129.6970   63.2540 C   0  0  0  0  0  0  0  0  0  0  0  0
  1  2  1  0
  2  3  1  0
  3  4  2  0
  4  5  1  0
  5  6  2  0
  6  7  1  0
  7  8  2  0
  8  9  1  0
  9 10  1  0
 10 11  2  0
 11 12  1  0
 12 13  2  0
 13 14  1  0
 14 15  1  0
 13 16  1  0
 16 17  2  0
  9 18  2  0
 18 19  1  0
 19 20  3  0
 18 21  1  0
 21 22  1  0
 22 23  1  0
 23 24  1  0
 24 25  2  0
 24 26  1  0
 26 27  1  0
 27 28  1  0
 28 29  2  0
 29 30  1  0
 30 31  1  0
 21 32  2  0
  6 33  1  0
 33 34  2  0
 34  3  1  0
 32  7  1  0
 17 10  1  0
 31 27  2  0
M  END
>  <Binding energies>  (2) 
[-9.04]

>  <Ligand effiencies>  (2) 
[-0.2582857142857143]

>  <Interactions>  (2) 
["V-B:TYR:539:CZ:9849, V-B:PRO:540:N:9856, V-B:PRO:540:CD:9859, V-B:LEU:363:CD1:8161, V-B:TYR:539:CE2:9848, V-B:TYR:539:CD2:9846, V-B:ASP:366:CG:8185, V-B:ARG:545:CZ:9898, V-A:ILE:538:CG2:4863, V-A:PRO:540:CB:4885, V-A:ILE:538:CB:4862, V-A:PRO:540:CA:4883, V-A:LEU:363:CD1:3189, V-A:TYR:539:C:4867, V-A:PRO:540:N:4884, V-A:ILE:538:CA:4860, V-A:TYR:531:CE2:4793, V-B:ILE:538:CD1:9837, V-B:ILE:538:CG2:9835, V-B:ILE:538:CA:9832, H-A:TYR:539:N:4870, V-B:GLU:543:CD:9880, H-B:GLY:454:N:9022, V-B:ARG:545:CD:9895, H-B:TYR:484:OH:9320, V-B:ILE:538:C:9830, V-B:ARG:545:CG:9894, V-B:HIS:456:CE1:9042, H-B:TYR:539:N:9842, V-B:TYR:484:CZ:9319, V-B:ILE:538:CB:9834, V-B:TYR:484:CE1:9317, H-A:ASP:366:OD1:3214"]

$$$$
1c_Ghoteimi_2023
     RDKit          3D

 34 37  0  0  0  0  0  0  0  0999 V2000
  127.2470  122.0920   55.1360 C   0  0  0  0  0  0  0  0  0  0  0  0
  127.1540  122.3160   56.5380 O   0  0  0  0  0  0  0  0  0  0  0  0
  127.0260  123.6090   57.0090 C   0  0  0  0  0  0  0  0  0  0  0  0
  127.9120  124.5520   56.4940 C   0  0  0  0  0  0  0  0  0  0  0  0
  127.8570  125.8780   56.9140 C   0  0  0  0  0  0  0  0  0  0  0  0
  126.9140  126.3010   57.8640 C   0  0  0  0  0  0  0  0  0  0  0  0
  126.8550  127.7290   58.3230 C   0  0  0  0  0  0  0  0  0  0  0  0
  127.8910  128.3360   59.0400 C   0  0  0  0  0  0  0  0  0  0  0  0
  127.8020  129.6800   59.4240 C   0  0  0  0  0  0  0  0  0  0  0  0
  128.9730  130.2810   60.1270 C   0  0  0  0  0  0  0  0  0  0  0  0
  130.2520  130.2140   59.5660 C   0  0  0  0  0  0  0  0  0  0  0  0
  131.3460  130.7560   60.2330 C   0  0  0  0  0  0  0  0  0  0  0  0
  131.1840  131.3710   61.4740 C   0  0  0  0  0  0  0  0  0  0  0  0
  132.3250  131.8820   62.0640 O   0  0  0  0  0  0  0  0  0  0  0  0
  133.4910  132.0720   61.2690 C   0  0  0  0  0  0  0  0  0  0  0  0
  129.9030  131.4360   62.0440 C   0  0  0  0  0  0  0  0  0  0  0  0
  128.8100  130.8920   61.3750 C   0  0  0  0  0  0  0  0  0  0  0  0
  126.6280  130.3970   59.0950 C   0  0  0  0  0  0  0  0  0  0  0  0
  126.4590  131.7980   59.4980 C   0  0  0  0  0  0  0  0  0  0  0  0
  126.3270  132.9030   59.8160 N   0  0  0  0  0  0  0  0  0  0  0  0
  125.6300  129.7290   58.3560 C   0  0  0  0  0  0  0  0  0  0  0  0
  124.1820  130.5530   57.7300 S   0  0  0  0  0  0  0  0  0  0  0  0
  124.2400  130.2920   55.9280 C   0  0  0  0  0  0  0  0  0  0  0  0
  125.6750  130.1530   55.4090 C   0  0  0  0  0  0  0  0  0  0  0  0
  125.9840  129.1730   54.7300 O   0  0  0  0  0  0  0  0  0  0  0  0
  126.5000  131.1780   55.7180 N   0  0  0  0  0  0  0  0  0  0  0  0
  127.7890  131.3730   55.2480 C   0  0  0  0  0  0  0  0  0  0  0  0
  128.2060  131.3500   54.0000 N   0  0  0  0  0  0  0  0  0  0  0  0
  129.4950  131.6190   53.9160 C   0  0  0  0  0  0  0  0  0  0  0  0
  130.1500  131.8700   55.1170 C   0  0  0  0  0  0  0  0  0  0  0  0
  129.0100  131.7430   56.4230 S   0  0  0  0  0  0  0  0  0  0  0  0
  125.7470  128.4350   57.9750 N   0  0  0  0  0  0  0  0  0  0  0  0
  126.0230  125.3440   58.3700 C   0  0  0  0  0  0  0  0  0  0  0  0
  126.0750  124.0160   57.9550 C   0  0  0  0  0  0  0  0  0  0  0  0
  1  2  1  0
  2  3  1  0
  3  4  2  0
  4  5  1  0
  5  6  2  0
  6  7  1  0
  7  8  2  0
  8  9  1  0
  9 10  1  0
 10 11  2  0
 11 12  1  0
 12 13  2  0
 13 14  1  0
 14 15  1  0
 13 16  1  0
 16 17  2  0
  9 18  2  0
 18 19  1  0
 19 20  3  0
 18 21  1  0
 21 22  1  0
 22 23  1  0
 23 24  1  0
 24 25  2  0
 24 26  1  0
 26 27  1  0
 27 28  2  0
 28 29  1  0
 29 30  2  0
 30 31  1  0
 21 32  2  0
  6 33  1  0
 33 34  2  0
 34  3  1  0
 32  7  1  0
 17 10  1  0
 31 27  1  0
M  END
>  <Binding energies>  (3) 
[-8.11]

>  <Ligand effiencies>  (3) 
[-0.2317142857142857]

>  <Interactions>  (3) 
["V-B:TYR:539:CZ:9849, V-B:TYR:539:CG:9844, V-B:TYR:531:CE1:9764, V-B:ASP:366:CG:8185, V-A:PRO:540:CB:4885, V-A:TYR:539:CE1:4875, V-A:TYR:539:CD1:4873, V-A:TYR:539:CZ:4877, V-A:PRO:540:CA:4883, V-A:TYR:539:CE2:4876, V-B:ASP:366:C:8180, V-B:MET:535:CE:9807, H-B:TYR:531:OH:9767, V-B:TYR:539:CE1:9847, V-B:TYR:539:CD1:9845, V-B:ILE:538:CA:9832, V-A:ALA:541:CB:4892, V-A:GLU:543:CD:4908, H-A:ALA:541:N:4891, H-B:LYS:534:NZ:9795, V-A:ALA:541:C:4888, V-A:PRO:540:C:4881, V-A:ASN:362:CB:3176, V-A:ASN:362:CG:3177, V-A:GLU:543:CG:4907, H-A:TYR:539:OH:4878, V-B:ILE:538:C:9830, V-B:VAL:537:C:9822, V-A:ASN:362:C:3172, H-B:TYR:539:N:9842, V-B:ASN:370:CB:8217, V-B:TYR:531:CD1:9762"]

$$$$
1d_Ghoteimi_2023
     RDKit          3D

 30 32  0  0  0  0  0  0  0  0999 V2000
  124.7310  122.6920   56.4920 C   0  0  0  0  0  0  0  0  0  0  0  0
  125.9080  122.0220   56.9150 O   0  0  0  0  0  0  0  0  0  0  0  0
  127.1260  122.5200   56.6130 C   0  0  0  0  0  0  0  0  0  0  0  0
  127.6880  122.4560   55.5190 O   0  0  0  0  0  0  0  0  0  0  0  0
  127.7860  123.2030   57.8080 C   0  0  0  0  0  0  0  0  0  0  0  0
  127.0290  124.8460   57.9860 S   0  0  0  0  0  0  0  0  0  0  0  0
  128.3500  125.9970   58.2970 C   0  0  0  0  0  0  0  0  0  0  0  0
  129.1580  125.6360   59.3220 N   0  0  0  0  0  0  0  0  0  0  0  0
  130.2060  126.4270   59.6700 C   0  0  0  0  0  0  0  0  0  0  0  0
  131.0560  125.9520   60.8120 C   0  0  0  0  0  0  0  0  0  0  0  0
  132.2710  125.2860   60.5880 C   0  0  0  0  0  0  0  0  0  0  0  0
  133.0550  124.8410   61.6480 C   0  0  0  0  0  0  0  0  0  0  0  0
  132.6490  125.0450   62.9650 C   0  0  0  0  0  0  0  0  0  0  0  0
  133.4880  124.5660   63.9530 O   0  0  0  0  0  0  0  0  0  0  0  0
  133.4230  125.1390   65.2550 C   0  0  0  0  0  0  0  0  0  0  0  0
  131.4370  125.7070   63.2050 C   0  0  0  0  0  0  0  0  0  0  0  0
  130.6570  126.1520   62.1420 C   0  0  0  0  0  0  0  0  0  0  0  0
  130.4670  127.6110   58.9710 C   0  0  0  0  0  0  0  0  0  0  0  0
  129.6380  128.0170   57.9170 C   0  0  0  0  0  0  0  0  0  0  0  0
  129.9710  129.2960   57.2200 C   0  0  0  0  0  0  0  0  0  0  0  0
  130.4170  130.4010   57.9510 C   0  0  0  0  0  0  0  0  0  0  0  0
  130.7280  131.5960   57.3080 C   0  0  0  0  0  0  0  0  0  0  0  0
  130.6060  131.7090   55.9230 C   0  0  0  0  0  0  0  0  0  0  0  0
  130.9300  132.9340   55.3720 O   0  0  0  0  0  0  0  0  0  0  0  0
  132.2920  133.3500   55.3540 C   0  0  0  0  0  0  0  0  0  0  0  0
  130.1710  130.5990   55.1840 C   0  0  0  0  0  0  0  0  0  0  0  0
  129.8610  129.4050   55.8290 C   0  0  0  0  0  0  0  0  0  0  0  0
  128.5310  127.2000   57.5770 C   0  0  0  0  0  0  0  0  0  0  0  0
  127.5730  127.6270   56.5530 C   0  0  0  0  0  0  0  0  0  0  0  0
  126.8170  127.9650   55.7450 N   0  0  0  0  0  0  0  0  0  0  0  0
  1  2  1  0
  2  3  1  0
  3  4  2  0
  3  5  1  0
  5  6  1  0
  6  7  1  0
  7  8  2  0
  8  9  1  0
  9 10  1  0
 10 11  2  0
 11 12  1  0
 12 13  2  0
 13 14  1  0
 14 15  1  0
 13 16  1  0
 16 17  2  0
  9 18  2  0
 18 19  1  0
 19 20  1  0
 20 21  2  0
 21 22  1  0
 22 23  2  0
 23 24  1  0
 24 25  1  0
 23 26  1  0
 26 27  2  0
 19 28  2  0
 28 29  1  0
 29 30  3  0
 28  7  1  0
 17 10  1  0
 27 20  1  0
M  END
>  <Binding energies>  (4) 
[-7.91]

>  <Ligand effiencies>  (4) 
[-0.26366666666666666]

>  <Interactions>  (4) 
["V-B:TYR:539:C:9839, V-B:PRO:540:N:9856, V-B:PRO:540:CD:9859, H-A:TYR:484:OH:4348, V-B:PRO:540:CB:9857, V-B:TYR:539:CG:9844, H-A:GLY:454:N:4050, V-B:LEU:363:CD1:8161, V-B:TYR:539:CE2:9848, V-B:TYR:539:CD2:9846, V-A:ILE:538:CG2:4863, V-A:PRO:540:CB:4885, V-A:PRO:540:CD:4887, V-A:ILE:538:CB:4862, V-A:PRO:540:CG:4886, V-A:PRO:540:CA:4883, V-A:LEU:363:CD1:3189, V-A:PRO:540:N:4884, V-A:ILE:538:CA:4860, V-B:MET:535:CE:9807, V-B:TYR:539:CA:9841, H-B:TYR:531:OH:9767, V-B:TYR:531:CE2:9765, V-B:TYR:539:CE1:9847, V-A:ASP:366:CG:3213, V-B:TYR:539:CD1:9845, V-B:ILE:538:CD1:9837, V-B:ILE:538:CG2:9835, V-A:GLU:543:CD:4908, H-A:TYR:539:N:4870, V-A:TYR:484:CZ:4347, V-A:ARG:545:CZ:4926, V-A:TYR:484:CE2:4346, H-B:TYR:539:N:9842, V-A:ILE:538:CD1:4865, V-A:ARG:545:CD:4923, V-A:ILE:538:CG1:4864"]

$$$$
1j_Grossjean_2025
     RDKit          3D

 20 21  0  0  0  0  0  0  0  0999 V2000
  124.9610  130.2810   56.0520 C   0  0  0  0  0  0  0  0  0  0  0  0
  126.3100  129.5960   55.9380 C   0  0  0  0  0  0  0  0  0  0  0  0
  126.6580  128.5280   56.7630 C   0  0  0  0  0  0  0  0  0  0  0  0
  127.9100  127.9270   56.6030 C   0  0  0  0  0  0  0  0  0  0  0  0
  128.2620  126.7460   57.5080 C   0  0  0  0  0  0  0  0  0  0  0  0
  128.7940  128.4210   55.6170 C   0  0  0  0  0  0  0  0  0  0  0  0
  130.0890  127.7730   55.3980 C   0  0  0  0  0  0  0  0  0  0  0  0
  131.1110  127.2580   55.2260 N   0  0  0  0  0  0  0  0  0  0  0  0
  128.3680  129.5260   54.8430 C   0  0  0  0  0  0  0  0  0  0  0  0
  129.3500  130.2760   53.5620 S   0  0  0  0  0  0  0  0  0  0  0  0
  129.5680  132.0290   53.9890 C   0  0  0  0  0  0  0  0  0  0  0  0
  130.3180  132.2090   55.3110 C   0  0  0  0  0  0  0  0  0  0  0  0
  130.1240  133.2240   55.9820 O   0  0  0  0  0  0  0  0  0  0  0  0
  131.1570  131.2050   55.6450 N   0  0  0  0  0  0  0  0  0  0  0  0
  131.9510  131.1330   56.7810 C   0  0  0  0  0  0  0  0  0  0  0  0
  133.2620  131.0330   56.8450 N   0  0  0  0  0  0  0  0  0  0  0  0
  133.6830  130.9890   58.0930 C   0  0  0  0  0  0  0  0  0  0  0  0
  132.7020  131.0570   59.0780 C   0  0  0  0  0  0  0  0  0  0  0  0
  131.1450  131.1850   58.3160 S   0  0  0  0  0  0  0  0  0  0  0  0
  127.1420  130.0880   54.9900 N   0  0  0  0  0  0  0  0  0  0  0  0
  1  2  1  0
  2  3  2  0
  3  4  1  0
  4  5  1  0
  4  6  2  0
  6  7  1  0
  7  8  3  0
  6  9  1  0
  9 10  1  0
 10 11  1  0
 11 12  1  0
 12 13  2  0
 12 14  1  0
 14 15  1  0
 15 16  2  0
 16 17  1  0
 17 18  2  0
 18 19  1  0
  9 20  2  0
 20  2  1  0
 19 15  1  0
M  END
>  <Binding energies>  (5) 
[-6.66]

>  <Ligand effiencies>  (5) 
[-0.31714285714285717]

>  <Interactions>  (5) 
["V-B:TYR:531:CE1:9764, V-A:TYR:531:CZ:4794, V-A:ILE:538:CG2:4863, V-A:PRO:540:CB:4885, V-A:TYR:539:CE1:4875, V-A:TYR:539:CZ:4877, V-A:PRO:540:CA:4883, V-A:LEU:363:CD1:3189, V-A:MET:535:CE:4835, V-A:ILE:538:CA:4860, V-B:MET:535:CE:9807, V-A:ASP:366:CG:3213, V-A:ASP:366:CB:3212, H-A:TYR:531:OH:4795, H-A:TYR:539:N:4870, H-B:LYS:534:NZ:9795, V-A:LEU:363:CA:3185, V-A:LEU:363:CB:3187"]

$$$$
1o_Grossjean_2025
     RDKit          3D

 26 27  0  0  0  0  0  0  0  0999 V2000
  125.7030  122.7560   56.0020 C   0  0  0  0  0  0  0  0  0  0  0  0
  126.7390  122.1430   56.7550 O   0  0  0  0  0  0  0  0  0  0  0  0
  127.3230  122.7890   57.7980 C   0  0  0  0  0  0  0  0  0  0  0  0
  127.8310  122.2060   58.7610 O   0  0  0  0  0  0  0  0  0  0  0  0
  127.2920  124.2840   57.6620 C   0  0  0  0  0  0  0  0  0  0  0  0
  128.2190  124.9760   56.8690 C   0  0  0  0  0  0  0  0  0  0  0  0
  128.1610  126.3640   56.7620 C   0  0  0  0  0  0  0  0  0  0  0  0
  127.1840  127.0860   57.4470 C   0  0  0  0  0  0  0  0  0  0  0  0
  127.2120  128.4820   57.2620 N   0  0  0  0  0  0  0  0  0  0  0  0
  126.8710  129.2190   56.1810 C   0  0  0  0  0  0  0  0  0  0  0  0
  126.4120  128.7680   55.1310 O   0  0  0  0  0  0  0  0  0  0  0  0
  127.0610  130.7360   56.3280 C   0  0  0  0  0  0  0  0  0  0  0  0
  127.0420  131.2140   57.7940 C   0  0  0  0  0  0  0  0  0  0  0  0
  128.2320  132.5410   58.1520 S   0  0  0  0  0  0  0  0  0  0  0  0
  129.7910  132.1180   57.4020 C   0  0  0  0  0  0  0  0  0  0  0  0
  129.7510  132.0980   56.0460 N   0  0  0  0  0  0  0  0  0  0  0  0
  130.8810  131.7970   55.3650 C   0  0  0  0  0  0  0  0  0  0  0  0
  130.7630  131.8090   53.8520 C   0  0  0  0  0  0  0  0  0  0  0  0
  132.0830  131.4940   56.0000 C   0  0  0  0  0  0  0  0  0  0  0  0
  132.1300  131.4870   57.3980 C   0  0  0  0  0  0  0  0  0  0  0  0
  133.4570  131.1380   58.0710 C   0  0  0  0  0  0  0  0  0  0  0  0
  130.9610  131.7940   58.1310 C   0  0  0  0  0  0  0  0  0  0  0  0
  130.9760  131.7330   59.5940 C   0  0  0  0  0  0  0  0  0  0  0  0
  130.9900  131.6850   60.7510 N   0  0  0  0  0  0  0  0  0  0  0  0
  126.2500  126.4000   58.2380 C   0  0  0  0  0  0  0  0  0  0  0  0
  126.3090  125.0130   58.3430 C   0  0  0  0  0  0  0  0  0  0  0  0
  1  2  1  0
  2  3  1  0
  3  4  2  0
  3  5  1  0
  5  6  2  0
  6  7  1  0
  7  8  2  0
  8  9  1  0
  9 10  1  0
 10 11  2  0
 10 12  1  0
 12 13  1  0
 13 14  1  0
 14 15  1  0
 15 16  2  0
 16 17  1  0
 17 18  1  0
 17 19  2  0
 19 20  1  0
 20 21  1  0
 20 22  2  0
 22 23  1  0
 23 24  3  0
  8 25  1  0
 25 26  2  0
 26  5  1  0
 22 15  1  0
M  END
>  <Binding energies>  (6) 
[-8.1]

>  <Ligand effiencies>  (6) 
[-0.3]

>  <Interactions>  (6) 
["V-B:TYR:539:C:9839, V-B:PRO:540:N:9856, V-B:PRO:540:CA:9855, V-B:TYR:539:CD2:9846, V-B:ASP:366:CG:8185, V-A:MET:535:CG:4833, V-A:TYR:531:CZ:4794, V-A:ILE:538:CG2:4863, V-A:PRO:540:CB:4885, V-A:TYR:539:CE1:4875, V-A:TYR:539:CD1:4873, V-A:ILE:538:CB:4862, V-A:TYR:539:CZ:4877, V-A:PRO:540:CA:4883, V-A:LEU:363:CD1:3189, V-A:TYR:539:C:4867, V-A:PRO:540:N:4884, V-A:ILE:538:CA:4860, V-B:MET:535:CE:9807, V-A:TYR:531:CE2:4793, H-B:TYR:531:OH:9767, V-A:ASP:366:CG:3213, V-B:ILE:538:CD1:9837, V-A:ASP:366:CB:3212, V-B:ILE:538:CA:9832, H-A:ALA:541:N:4891, H-B:LYS:534:NZ:9795, V-A:PRO:540:C:4881, V-A:LEU:363:CA:3185, H-B:TYR:539:N:9842"]

$$$$
1p_Grossjean_2025
     RDKit          3D

 21 22  0  0  0  0  0  0  0  0999 V2000
  129.6120  125.0080   57.6460 C   0  0  0  0  0  0  0  0  0  0  0  0
  130.5650  124.3260   58.6090 C   0  0  0  0  0  0  0  0  0  0  0  0
  131.9230  124.6420   58.6370 C   0  0  0  0  0  0  0  0  0  0  0  0
  132.7580  123.9720   59.5370 C   0  0  0  0  0  0  0  0  0  0  0  0
  134.2450  124.3240   59.5400 C   0  0  0  0  0  0  0  0  0  0  0  0
  132.2050  123.0000   60.4010 C   0  0  0  0  0  0  0  0  0  0  0  0
  133.0660  122.2520   61.3180 C   0  0  0  0  0  0  0  0  0  0  0  0
  133.7480  121.6610   62.0430 N   0  0  0  0  0  0  0  0  0  0  0  0
  130.8130  122.7600   60.3200 C   0  0  0  0  0  0  0  0  0  0  0  0
  129.9560  121.5810   61.3380 S   0  0  0  0  0  0  0  0  0  0  0  0
  128.7790  122.5200   62.3540 C   0  0  0  0  0  0  0  0  0  0  0  0
  128.0850  123.6700   61.5990 C   0  0  0  0  0  0  0  0  0  0  0  0
  127.0040  123.1950   60.6160 C   0  0  0  0  0  0  0  0  0  0  0  0
  125.9180  122.8060   61.0500 O   0  0  0  0  0  0  0  0  0  0  0  0
  127.3360  123.2570   59.3070 N   0  0  0  0  0  0  0  0  0  0  0  0
  126.5490  122.8930   58.2220 C   0  0  0  0  0  0  0  0  0  0  0  0
  125.2610  123.3880   58.0160 C   0  0  0  0  0  0  0  0  0  0  0  0
  124.8310  122.7930   56.8520 C   0  0  0  0  0  0  0  0  0  0  0  0
  125.8080  121.9810   56.3830 O   0  0  0  0  0  0  0  0  0  0  0  0
  126.8910  122.0520   57.2610 N   0  0  0  0  0  0  0  0  0  0  0  0
  130.0140  123.4000   59.4280 N   0  0  0  0  0  0  0  0  0  0  0  0
  1  2  1  0
  2  3  2  0
  3  4  1  0
  4  5  1  0
  4  6  2  0
  6  7  1  0
  7  8  3  0
  6  9  1  0
  9 10  1  0
 10 11  1  0
 11 12  1  0
 12 13  1  0
 13 14  2  0
 13 15  1  0
 15 16  1  0
 16 17  1  0
 17 18  2  0
 18 19  1  0
 19 20  1  0
  9 21  2  0
 21  2  1  0
 20 16  2  0
M  END
>  <Binding energies>  (7) 
[-6.9]

>  <Ligand effiencies>  (7) 
[-0.31363636363636366]

>  <Interactions>  (7) 
["V-B:TYR:539:CZ:9849, V-B:TYR:539:C:9839, V-B:PRO:540:N:9856, V-B:PRO:540:CD:9859, V-B:PRO:540:CB:9857, V-B:PRO:540:CA:9855, V-A:LEU:475:CD2:4259, H-A:GLY:454:N:4050, V-B:ALA:541:CB:9864, V-B:LEU:363:CD1:8161, V-B:TYR:539:CE2:9848, V-B:TYR:539:CD2:9846, V-B:TYR:531:CE2:9765, V-A:ASP:366:CG:3213, V-A:ASP:366:CA:3210, V-A:ASP:366:CB:3212, V-A:ILE:369:CG2:3237, V-B:GLU:543:CD:9880, H-B:ALA:541:N:9863, V-A:TYR:484:CE1:4345, V-A:ILE:369:CD1:3239, H-B:TYR:539:N:9842, V-A:ILE:369:CB:3236, V-B:PRO:540:CG:9858, V-A:ILE:369:CG1:3238"]

$$$$
2a_Ghoteimi_2023
     RDKit          3D

 48 53  0  0  0  0  0  0  0  0999 V2000
  129.2200  132.4890   53.6150 C   0  0  0  0  0  0  0  0  0  0  0  0
  130.5210  131.7750   53.9920 C   0  0  0  0  0  0  0  0  0  0  0  0
  131.1160  132.4330   55.1030 O   0  0  0  0  0  0  0  0  0  0  0  0
  131.5360  131.7360   56.1890 C   0  0  0  0  0  0  0  0  0  0  0  0
  132.5660  131.0550   56.2040 O   0  0  0  0  0  0  0  0  0  0  0  0
  130.6270  131.8820   57.3760 C   0  0  0  0  0  0  0  0  0  0  0  0
  129.3240  132.3880   57.2550 C   0  0  0  0  0  0  0  0  0  0  0  0
  128.5060  132.5090   58.3740 C   0  0  0  0  0  0  0  0  0  0  0  0
  128.9680  132.1240   59.6340 C   0  0  0  0  0  0  0  0  0  0  0  0
  128.0590  132.2930   60.6960 N   0  0  0  0  0  0  0  0  0  0  0  0
  127.3940  133.3990   61.0980 C   0  0  0  0  0  0  0  0  0  0  0  0
  127.5160  134.5190   60.6010 O   0  0  0  0  0  0  0  0  0  0  0  0
  126.4570  133.1960   62.2960 C   0  0  0  0  0  0  0  0  0  0  0  0
  125.0290  132.1150   61.9620 S   0  0  0  0  0  0  0  0  0  0  0  0
  125.6540  130.4530   62.0500 C   0  0  0  0  0  0  0  0  0  0  0  0
  126.0700  130.0890   63.2860 N   0  0  0  0  0  0  0  0  0  0  0  0
  126.5770  128.8460   63.4790 C   0  0  0  0  0  0  0  0  0  0  0  0
  127.0250  128.5170   64.8670 C   0  0  0  0  0  0  0  0  0  0  0  0
  126.1330  127.9970   65.8130 C   0  0  0  0  0  0  0  0  0  0  0  0
  126.5530  127.7040   67.1080 C   0  0  0  0  0  0  0  0  0  0  0  0
  127.8820  127.9120   67.5030 C   0  0  0  0  0  0  0  0  0  0  0  0
  128.2830  127.6410   68.8160 N   0  0  0  0  0  0  0  0  0  0  0  0
  129.6530  127.9370   69.2800 C   0  0  0  0  0  0  0  0  0  0  0  0
  129.8100  127.9170   70.8150 C   0  0  0  0  0  0  0  0  0  0  0  0
  129.3540  126.6780   71.3340 O   0  0  0  0  0  0  0  0  0  0  0  0
  127.9840  126.4650   71.0360 C   0  0  0  0  0  0  0  0  0  0  0  0
  127.7700  126.4400   69.5080 C   0  0  0  0  0  0  0  0  0  0  0  0
  128.7690  128.4450   66.5540 C   0  0  0  0  0  0  0  0  0  0  0  0
  128.3500  128.7360   65.2600 C   0  0  0  0  0  0  0  0  0  0  0  0
  126.6650  127.9300   62.4280 C   0  0  0  0  0  0  0  0  0  0  0  0
  126.2400  128.2840   61.1400 C   0  0  0  0  0  0  0  0  0  0  0  0
  126.3680  127.2580   60.0610 C   0  0  0  0  0  0  0  0  0  0  0  0
  126.4960  127.6530   58.7270 C   0  0  0  0  0  0  0  0  0  0  0  0
  126.5960  126.7050   57.7130 C   0  0  0  0  0  0  0  0  0  0  0  0
  126.5740  125.3320   58.0030 C   0  0  0  0  0  0  0  0  0  0  0  0
  126.6540  124.3640   56.9980 N   0  0  0  0  0  0  0  0  0  0  0  0
  125.6690  123.2640   56.9730 C   0  0  0  0  0  0  0  0  0  0  0  0
  125.6270  122.5130   55.6250 C   0  0  0  0  0  0  0  0  0  0  0  0
  126.9230  122.0370   55.2940 O   0  0  0  0  0  0  0  0  0  0  0  0
  127.8580  123.0990   55.1760 C   0  0  0  0  0  0  0  0  0  0  0  0
  127.9550  123.8680   56.5090 C   0  0  0  0  0  0  0  0  0  0  0  0
  126.4330  124.9440   59.3430 C   0  0  0  0  0  0  0  0  0  0  0  0
  126.3310  125.8920   60.3570 C   0  0  0  0  0  0  0  0  0  0  0  0
  125.7120  129.5830   60.9390 C   0  0  0  0  0  0  0  0  0  0  0  0
  125.2000  129.9920   59.6280 C   0  0  0  0  0  0  0  0  0  0  0  0
  124.7980  130.3130   58.5910 N   0  0  0  0  0  0  0  0  0  0  0  0
  130.2720  131.6240   59.7640 C   0  0  0  0  0  0  0  0  0  0  0  0
  131.0890  131.5030   58.6430 C   0  0  0  0  0  0  0  0  0  0  0  0
  1  2  1  0
  2  3  1  0
  3  4  1  0
  4  5  2  0
  4  6  1  0
  6  7  2  0
  7  8  1  0
  8  9  2  0
  9 10  1  0
 10 11  1  0
 11 12  2  0
 11 13  1  0
 13 14  1  0
 14 15  1  0
 15 16  2  0
 16 17  1  0
 17 18  1  0
 18 19  2  0
 19 20  1  0
 20 21  2  0
 21 22  1  0
 22 23  1  0
 23 24  1  0
 24 25  1  0
 25 26  1  0
 26 27  1  0
 21 28  1  0
 28 29  2  0
 17 30  2  0
 30 31  1  0
 31 32  1  0
 32 33  2  0
 33 34  1  0
 34 35  2  0
 35 36  1  0
 36 37  1  0
 37 38  1  0
 38 39  1  0
 39 40  1  0
 40 41  1  0
 35 42  1  0
 42 43  2  0
 31 44  2  0
 44 45  1  0
 45 46  3  0
  9 47  1  0
 47 48  2  0
 48  6  1  0
 44 15  1  0
 29 18  1  0
 43 32  1  0
 27 22  1  0
 41 36  1  0
M  END
>  <Binding energies>  (8) 
[-9.49]

>  <Ligand effiencies>  (8) 
[-0.1936734693877551]

>  <Interactions>  (8) 
["V-B:TYR:539:CZ:9849, V-B:TYR:539:CE2:9848, V-B:ASP:366:CG:8185, V-B:ARG:545:CZ:9898, V-A:ILE:538:CG2:4863, V-A:PRO:540:CB:4885, V-A:TYR:539:CE1:4875, V-A:TYR:539:CD1:4873, V-A:ILE:538:CB:4862, V-A:PRO:540:CA:4883, V-B:LEU:475:CD2:9231, V-A:TYR:539:CE2:4876, V-A:TYR:539:CD2:4874, V-A:TYR:539:C:4867, V-A:PRO:540:N:4884, V-B:ASP:366:CB:8184, V-A:ILE:538:CA:4860, V-B:MET:535:CE:9807, V-B:TYR:539:CE1:9847, V-B:TYR:539:CD1:9845, V-B:ILE:538:CD1:9837, V-B:ILE:538:CG2:9835, V-B:ILE:538:CA:9832, V-A:ALA:541:CB:4892, H-A:TYR:531:OH:4795, V-A:GLU:543:CD:4908, H-A:TYR:539:N:4870, V-B:GLU:543:CD:9880, V-B:ARG:545:CD:9895, H-B:TYR:484:OH:9320, V-A:GLU:543:CG:4907, V-B:ARG:545:CG:9894, V-B:HIS:456:CE1:9042, H-B:TYR:539:N:9842, V-A:GLU:543:CB:4906, V-B:ILE:538:CB:9834, V-A:HIS:456:CE1:4070, V-A:HIS:456:CD2:4068, V-B:GLY:544:C:9884, V-B:HIS:456:CD2:9040, V-B:GLU:543:C:9874, V-B:GLU:543:CB:9878"]

$$$$
2aa_Ghoteimi_2023
     RDKit          3D

 48 53  0  0  0  0  0  0  0  0999 V2000
  124.0670  137.5360   56.9190 C   0  0  0  0  0  0  0  0  0  0  0  0
  124.2410  137.2220   58.4080 C   0  0  0  0  0  0  0  0  0  0  0  0
  125.6250  137.2290   58.7330 O   0  0  0  0  0  0  0  0  0  0  0  0
  126.0500  136.9880   60.0000 C   0  0  0  0  0  0  0  0  0  0  0  0
  126.6190  137.8330   60.7000 O   0  0  0  0  0  0  0  0  0  0  0  0
  125.7470  135.5950   60.4720 C   0  0  0  0  0  0  0  0  0  0  0  0
  124.4500  135.0620   60.4210 C   0  0  0  0  0  0  0  0  0  0  0  0
  124.2010  133.7660   60.8630 C   0  0  0  0  0  0  0  0  0  0  0  0
  125.2370  132.9800   61.3710 C   0  0  0  0  0  0  0  0  0  0  0  0
  124.8740  131.6840   61.7860 N   0  0  0  0  0  0  0  0  0  0  0  0
  123.6980  131.2280   62.2690 C   0  0  0  0  0  0  0  0  0  0  0  0
  122.6790  131.9070   62.4090 O   0  0  0  0  0  0  0  0  0  0  0  0
  123.6920  129.7370   62.6310 C   0  0  0  0  0  0  0  0  0  0  0  0
  124.1630  129.5650   63.9720 O   0  0  0  0  0  0  0  0  0  0  0  0
  125.5240  129.4450   64.2230 C   0  0  0  0  0  0  0  0  0  0  0  0
  126.3880  129.6860   63.1970 N   0  0  0  0  0  0  0  0  0  0  0  0
  127.7230  129.5810   63.4090 C   0  0  0  0  0  0  0  0  0  0  0  0
  128.6100  129.8550   62.2360 C   0  0  0  0  0  0  0  0  0  0  0  0
  129.0650  128.8100   61.4250 C   0  0  0  0  0  0  0  0  0  0  0  0
  129.8850  129.0590   60.3280 C   0  0  0  0  0  0  0  0  0  0  0  0
  130.2710  130.3670   59.9930 C   0  0  0  0  0  0  0  0  0  0  0  0
  131.1050  130.6340   58.9010 N   0  0  0  0  0  0  0  0  0  0  0  0
  130.6070  131.3500   57.7080 C   0  0  0  0  0  0  0  0  0  0  0  0
  131.5390  131.2430   56.4830 C   0  0  0  0  0  0  0  0  0  0  0  0
  132.8450  131.6770   56.8270 O   0  0  0  0  0  0  0  0  0  0  0  0
  133.4000  130.8840   57.8650 C   0  0  0  0  0  0  0  0  0  0  0  0
  132.5230  130.9810   59.1320 C   0  0  0  0  0  0  0  0  0  0  0  0
  129.8300  131.4090   60.8220 C   0  0  0  0  0  0  0  0  0  0  0  0
  129.0130  131.1580   61.9200 C   0  0  0  0  0  0  0  0  0  0  0  0
  128.2300  129.2140   64.6600 C   0  0  0  0  0  0  0  0  0  0  0  0
  127.3630  128.9510   65.7280 C   0  0  0  0  0  0  0  0  0  0  0  0
  127.9620  128.5380   67.0330 C   0  0  0  0  0  0  0  0  0  0  0  0
  128.9190  129.3430   67.6570 C   0  0  0  0  0  0  0  0  0  0  0  0
  129.4960  128.9550   68.8630 C   0  0  0  0  0  0  0  0  0  0  0  0
  129.1430  127.7420   69.4740 C   0  0  0  0  0  0  0  0  0  0  0  0
  129.7060  127.3330   70.6860 N   0  0  0  0  0  0  0  0  0  0  0  0
  128.8640  126.9170   71.8230 C   0  0  0  0  0  0  0  0  0  0  0  0
  129.6460  126.1750   72.9280 C   0  0  0  0  0  0  0  0  0  0  0  0
  130.7350  126.9710   73.3700 O   0  0  0  0  0  0  0  0  0  0  0  0
  131.6350  127.2580   72.3110 C   0  0  0  0  0  0  0  0  0  0  0  0
  130.9070  128.0300   71.1910 C   0  0  0  0  0  0  0  0  0  0  0  0
  128.1770  126.9440   68.8440 C   0  0  0  0  0  0  0  0  0  0  0  0
  127.6000  127.3320   67.6390 C   0  0  0  0  0  0  0  0  0  0  0  0
  125.9730  129.0840   65.5060 C   0  0  0  0  0  0  0  0  0  0  0  0
  124.9950  128.8770   66.5760 C   0  0  0  0  0  0  0  0  0  0  0  0
  124.2230  128.7140   67.4230 N   0  0  0  0  0  0  0  0  0  0  0  0
  126.5370  133.5040   61.4190 C   0  0  0  0  0  0  0  0  0  0  0  0
  126.7840  134.7990   60.9730 C   0  0  0  0  0  0  0  0  0  0  0  0
  1  2  1  0
  2  3  1  0
  3  4  1  0
  4  5  2  0
  4  6  1  0
  6  7  2  0
  7  8  1  0
  8  9  2  0
  9 10  1  0
 10 11  1  0
 11 12  2  0
 11 13  1  0
 13 14  1  0
 14 15  1  0
 15 16  2  0
 16 17  1  0
 17 18  1  0
 18 19  2  0
 19 20  1  0
 20 21  2  0
 21 22  1  0
 22 23  1  0
 23 24  1  0
 24 25  1  0
 25 26  1  0
 26 27  1  0
 21 28  1  0
 28 29  2  0
 17 30  2  0
 30 31  1  0
 31 32  1  0
 32 33  2  0
 33 34  1  0
 34 35  2  0
 35 36  1  0
 36 37  1  0
 37 38  1  0
 38 39  1  0
 39 40  1  0
 40 41  1  0
 35 42  1  0
 42 43  2  0
 31 44  2  0
 44 45  1  0
 45 46  3  0
  9 47  1  0
 47 48  2  0
 48  6  1  0
 44 15  1  0
 29 18  1  0
 43 32  1  0
 27 22  1  0
 41 36  1  0
M  END
>  <Binding energies>  (9) 
[-8.87]

>  <Ligand effiencies>  (9) 
[-0.18102040816326528]

>  <Interactions>  (9) 
["V-B:ASP:366:CG:8185, V-B:ARG:545:CZ:9898, V-B:ILE:369:CG2:8209, V-A:PRO:540:CB:4885, V-A:TYR:539:CE1:4875, V-A:TYR:539:CD1:4873, V-A:PRO:540:CA:4883, V-B:LEU:475:CD2:9231, V-A:LEU:363:CD1:3189, V-B:ILE:369:CD1:8211, V-A:TYR:539:CG:4872, V-A:ASP:366:CG:3213, V-A:ASP:366:CB:3212, H-A:TYR:531:OH:4795, V-A:GLU:543:CD:4908, V-B:GLU:543:CD:9880, H-B:ARG:545:NH2:9900, V-B:GLY:453:C:9014, H-B:GLY:454:N:9022, V-B:ARG:545:CD:9895, H-B:TYR:484:OH:9320, V-A:GLU:543:CG:4907, V-A:TYR:539:CB:4871, V-B:GLY:453:CA:9016, V-B:SER:385:CB:8381, V-B:SER:385:CA:8379, V-A:LEU:363:CA:3185, V-B:ARG:545:CG:9894, V-B:HIS:456:CE1:9042, V-B:TYR:484:CZ:9319, V-A:GLU:543:CB:4906, H-B:ARG:545:NH1:9899, V-A:HIS:456:CE1:4070, V-B:HIS:383:CD2:8364, H-B:SER:385:OG:8382, H-B:HIS:383:NE2:8366, H-B:ARG:545:NE:9896, V-A:HIS:456:CD2:4068, V-B:HIS:456:CD2:9040, V-B:LYS:547:CE:9922, V-A:HIS:456:CB:4065, V-A:HIS:456:CG:4066, V-B:GLU:543:CB:9878, V-A:GLU:543:C:4902, V-A:GLU:543:CA:4904, V-A:GLY:544:C:4912, V-A:GLY:544:CA:4914, V-A:ILE:343:CD1:2994, H-B:HIS:456:ND1:9039"]

$$$$
2b_Ghoteimi_2023
     RDKit          3D

 42 47  0  0  0  0  0  0  0  0999 V2000
  125.0720  130.4130   58.7840 N   0  0  0  0  0  0  0  0  0  0  0  0
  125.4120  130.0760   59.8370 C   0  0  0  0  0  0  0  0  0  0  0  0
  125.8440  129.6420   61.1690 C   0  0  0  0  0  0  0  0  0  0  0  0
  126.2810  128.3120   61.3870 C   0  0  0  0  0  0  0  0  0  0  0  0
  126.3410  127.2720   60.3170 C   0  0  0  0  0  0  0  0  0  0  0  0
  126.3700  125.9170   60.6520 C   0  0  0  0  0  0  0  0  0  0  0  0
  126.4270  124.9440   59.6590 C   0  0  0  0  0  0  0  0  0  0  0  0
  126.4740  125.3000   58.3020 C   0  0  0  0  0  0  0  0  0  0  0  0
  126.5180  124.3420   57.2870 N   0  0  0  0  0  0  0  0  0  0  0  0
  127.8250  123.7910   56.8750 C   0  0  0  0  0  0  0  0  0  0  0  0
  127.7760  123.0500   55.5220 C   0  0  0  0  0  0  0  0  0  0  0  0
  126.7820  122.0380   55.5540 O   0  0  0  0  0  0  0  0  0  0  0  0
  125.4930  122.5760   55.8070 C   0  0  0  0  0  0  0  0  0  0  0  0
  125.4840  123.2950   57.1720 C   0  0  0  0  0  0  0  0  0  0  0  0
  126.4480  126.6630   57.9750 C   0  0  0  0  0  0  0  0  0  0  0  0
  126.3870  127.6360   58.9680 C   0  0  0  0  0  0  0  0  0  0  0  0
  126.6890  127.9450   62.6750 C   0  0  0  0  0  0  0  0  0  0  0  0
  126.6910  128.8850   63.7100 C   0  0  0  0  0  0  0  0  0  0  0  0
  127.1450  128.5530   65.0960 C   0  0  0  0  0  0  0  0  0  0  0  0
  128.4770  128.7530   65.4780 C   0  0  0  0  0  0  0  0  0  0  0  0
  128.9030  128.4620   66.7710 C   0  0  0  0  0  0  0  0  0  0  0  0
  128.0150  127.9460   67.7290 C   0  0  0  0  0  0  0  0  0  0  0  0
  128.4210  127.6770   69.0410 N   0  0  0  0  0  0  0  0  0  0  0  0
  127.9250  126.4690   69.7320 C   0  0  0  0  0  0  0  0  0  0  0  0
  128.1300  126.5040   71.2620 C   0  0  0  0  0  0  0  0  0  0  0  0
  129.4980  126.7370   71.5630 O   0  0  0  0  0  0  0  0  0  0  0  0
  129.9400  127.9800   71.0410 C   0  0  0  0  0  0  0  0  0  0  0  0
  129.7870  127.9920   69.5050 C   0  0  0  0  0  0  0  0  0  0  0  0
  126.6800  127.7540   67.3440 C   0  0  0  0  0  0  0  0  0  0  0  0
  126.2550  128.0480   66.0510 C   0  0  0  0  0  0  0  0  0  0  0  0
  126.2730  130.1590   63.5000 N   0  0  0  0  0  0  0  0  0  0  0  0
  125.8430  130.5280   62.2700 C   0  0  0  0  0  0  0  0  0  0  0  0
  125.3270  132.2290   62.1760 S   0  0  0  0  0  0  0  0  0  0  0  0
  126.1470  132.9710   60.7330 C   0  0  0  0  0  0  0  0  0  0  0  0
  127.6550  133.1160   60.9390 C   0  0  0  0  0  0  0  0  0  0  0  0
  128.1290  134.2310   61.1680 O   0  0  0  0  0  0  0  0  0  0  0  0
  128.3680  131.9730   60.8450 N   0  0  0  0  0  0  0  0  0  0  0  0
  129.7380  131.8190   60.9990 C   0  0  0  0  0  0  0  0  0  0  0  0
  130.5710  131.3570   59.9800 C   0  0  0  0  0  0  0  0  0  0  0  0
  131.8330  131.3500   60.5250 C   0  0  0  0  0  0  0  0  0  0  0  0
  131.7650  131.7850   61.8050 O   0  0  0  0  0  0  0  0  0  0  0  0
  130.4310  132.0820   62.0940 N   0  0  0  0  0  0  0  0  0  0  0  0
  1  2  3  0
  2  3  1  0
  3  4  2  0
  4  5  1  0
  5  6  2  0
  6  7  1  0
  7  8  2  0
  8  9  1  0
  9 10  1  0
 10 11  1  0
 11 12  1  0
 12 13  1  0
 13 14  1  0
  8 15  1  0
 15 16  2  0
  4 17  1  0
 17 18  2  0
 18 19  1  0
 19 20  2  0
 20 21  1  0
 21 22  2  0
 22 23  1  0
 23 24  1  0
 24 25  1  0
 25 26  1  0
 26 27  1  0
 27 28  1  0
 22 29  1  0
 29 30  2  0
 18 31  1  0
 31 32  2  0
 32 33  1  0
 33 34  1  0
 34 35  1  0
 35 36  2  0
 35 37  1  0
 37 38  1  0
 38 39  1  0
 39 40  2  0
 40 41  1  0
 41 42  1  0
 32  3  1  0
 42 38  2  0
 16  5  1  0
 30 19  1  0
 14  9  1  0
 28 23  1  0
M  END
>  <Binding energies>  (10) 
[-9.2]

>  <Ligand effiencies>  (10) 
[-0.21395348837209302]

>  <Interactions>  (10) 
["V-B:TYR:539:CZ:9849, V-B:PRO:540:CD:9859, V-B:PRO:540:CB:9857, V-B:TYR:539:CG:9844, V-B:ASP:366:CG:8185, V-B:ARG:545:CZ:9898, V-A:PRO:540:CB:4885, V-A:PRO:540:CA:4883, V-B:MET:535:CE:9807, V-B:TYR:531:CE2:9765, V-B:TYR:539:CE1:9847, V-B:TYR:539:CD1:9845, V-B:ILE:538:CD1:9837, V-B:ILE:538:CG2:9835, V-B:ILE:538:CA:9832, V-A:ALA:541:CB:4892, V-A:GLU:543:CD:4908, H-A:ALA:541:N:4891, V-B:GLU:543:CD:9880, H-B:TYR:484:OH:9320, V-A:GLU:543:CG:4907, V-B:ARG:545:CG:9894, V-B:HIS:456:CE1:9042, H-B:TYR:539:N:9842, V-A:GLU:543:CB:4906, V-A:HIS:456:CE1:4070, V-A:HIS:456:CD2:4068, V-B:GLY:544:C:9884, V-B:HIS:456:CD2:9040, V-B:GLU:543:C:9874, V-B:GLU:543:CB:9878"]

$$$$
2c_Ghoteimi_2023
     RDKit          3D

 42 47  0  0  0  0  0  0  0  0999 V2000
  125.4570  130.5840   58.7470 N   0  0  0  0  0  0  0  0  0  0  0  0
  125.7540  130.2240   59.8050 C   0  0  0  0  0  0  0  0  0  0  0  0
  126.1340  129.7620   61.1440 C   0  0  0  0  0  0  0  0  0  0  0  0
  126.4570  128.4010   61.3730 C   0  0  0  0  0  0  0  0  0  0  0  0
  126.4380  127.3510   60.3100 C   0  0  0  0  0  0  0  0  0  0  0  0
  126.3800  126.0000   60.6580 C   0  0  0  0  0  0  0  0  0  0  0  0
  126.3580  125.0160   59.6740 C   0  0  0  0  0  0  0  0  0  0  0  0
  126.4060  125.3550   58.3130 C   0  0  0  0  0  0  0  0  0  0  0  0
  126.3650  124.3850   57.3080 N   0  0  0  0  0  0  0  0  0  0  0  0
  127.6010  123.6630   56.9490 C   0  0  0  0  0  0  0  0  0  0  0  0
  127.5050  122.9250   55.5970 C   0  0  0  0  0  0  0  0  0  0  0  0
  126.3890  122.0480   55.6000 O   0  0  0  0  0  0  0  0  0  0  0  0
  125.1720  122.7480   55.8020 C   0  0  0  0  0  0  0  0  0  0  0  0
  125.2060  123.4830   57.1590 C   0  0  0  0  0  0  0  0  0  0  0  0
  126.4680  126.7140   57.9730 C   0  0  0  0  0  0  0  0  0  0  0  0
  126.4880  127.6980   58.9580 C   0  0  0  0  0  0  0  0  0  0  0  0
  126.8160  128.0100   62.6690 C   0  0  0  0  0  0  0  0  0  0  0  0
  126.8780  128.9510   63.7010 C   0  0  0  0  0  0  0  0  0  0  0  0
  127.2720  128.5880   65.0970 C   0  0  0  0  0  0  0  0  0  0  0  0
  128.5860  128.7720   65.5380 C   0  0  0  0  0  0  0  0  0  0  0  0
  128.9590  128.4410   66.8390 C   0  0  0  0  0  0  0  0  0  0  0  0
  128.0310  127.9010   67.7440 C   0  0  0  0  0  0  0  0  0  0  0  0
  128.3820  127.5870   69.0610 N   0  0  0  0  0  0  0  0  0  0  0  0
  127.8630  126.3530   69.6860 C   0  0  0  0  0  0  0  0  0  0  0  0
  128.0060  126.3300   71.2230 C   0  0  0  0  0  0  0  0  0  0  0  0
  129.3580  126.5500   71.5880 O   0  0  0  0  0  0  0  0  0  0  0  0
  129.8220  127.8100   71.1300 C   0  0  0  0  0  0  0  0  0  0  0  0
  129.7290  127.8810   69.5910 C   0  0  0  0  0  0  0  0  0  0  0  0
  126.7120  127.7310   67.3000 C   0  0  0  0  0  0  0  0  0  0  0  0
  126.3400  128.0640   66.0000 C   0  0  0  0  0  0  0  0  0  0  0  0
  126.5700  130.2550   63.4790 N   0  0  0  0  0  0  0  0  0  0  0  0
  126.1900  130.6510   62.2410 C   0  0  0  0  0  0  0  0  0  0  0  0
  125.8140  132.3860   62.1330 S   0  0  0  0  0  0  0  0  0  0  0  0
  126.3500  132.9600   60.4930 C   0  0  0  0  0  0  0  0  0  0  0  0
  127.7840  132.5330   60.1770 C   0  0  0  0  0  0  0  0  0  0  0  0
  128.1750  132.5460   59.0080 O   0  0  0  0  0  0  0  0  0  0  0  0
  128.5290  132.1600   61.2390 N   0  0  0  0  0  0  0  0  0  0  0  0
  129.8540  131.7500   61.2210 C   0  0  0  0  0  0  0  0  0  0  0  0
  130.7740  131.9460   62.1400 N   0  0  0  0  0  0  0  0  0  0  0  0
  131.9280  131.4110   61.7950 C   0  0  0  0  0  0  0  0  0  0  0  0
  131.9600  130.7610   60.5650 C   0  0  0  0  0  0  0  0  0  0  0  0
  130.3880  130.8610   59.8300 S   0  0  0  0  0  0  0  0  0  0  0  0
  1  2  3  0
  2  3  1  0
  3  4  2  0
  4  5  1  0
  5  6  2  0
  6  7  1  0
  7  8  2  0
  8  9  1  0
  9 10  1  0
 10 11  1  0
 11 12  1  0
 12 13  1  0
 13 14  1  0
  8 15  1  0
 15 16  2  0
  4 17  1  0
 17 18  2  0
 18 19  1  0
 19 20  2  0
 20 21  1  0
 21 22  2  0
 22 23  1  0
 23 24  1  0
 24 25  1  0
 25 26  1  0
 26 27  1  0
 27 28  1  0
 22 29  1  0
 29 30  2  0
 18 31  1  0
 31 32  2  0
 32 33  1  0
 33 34  1  0
 34 35  1  0
 35 36  2  0
 35 37  1  0
 37 38  1  0
 38 39  2  0
 39 40  1  0
 40 41  2  0
 41 42  1  0
 32  3  1  0
 42 38  1  0
 16  5  1  0
 30 19  1  0
 14  9  1  0
 28 23  1  0
M  END
>  <Binding energies>  (11) 
[-8.69]

>  <Ligand effiencies>  (11) 
[-0.20209302325581394]

>  <Interactions>  (11) 
["V-B:TYR:539:CZ:9849, V-B:PRO:540:CB:9857, V-B:LEU:363:CD1:8161, V-B:ASP:366:CG:8185, V-A:TYR:539:CE1:4875, V-A:TYR:539:CD1:4873, V-B:MET:535:CE:9807, V-B:TYR:531:CZ:9766, V-B:TYR:531:CE2:9765, V-B:TYR:539:CE1:9847, V-B:TYR:539:CD1:9845, V-B:ILE:538:CD1:9837, V-B:ILE:538:CG2:9835, V-B:ILE:538:CA:9832, V-A:ALA:541:CB:4892, V-A:GLU:543:CD:4908, H-A:ALA:541:N:4891, V-B:GLU:543:CD:9880, H-B:TYR:484:OH:9320, V-A:GLU:543:CG:4907, V-B:ARG:545:CG:9894, V-B:HIS:456:CE1:9042, H-B:TYR:539:N:9842, V-A:GLU:543:CB:4906, V-A:HIS:456:CE1:4070, V-A:HIS:456:CD2:4068, V-B:GLY:544:C:9884, V-B:HIS:456:CD2:9040, H-B:LYS:547:NZ:9923, V-B:GLU:543:C:9874, V-B:GLU:543:CB:9878"]

$$$$
2j_Grossjean_2025
     RDKit          3D

 23 24  0  0  0  0  0  0  0  0999 V2000
  128.1780  131.9290   62.5490 C   0  0  0  0  0  0  0  0  0  0  0  0
  127.2710  132.9260   61.8520 C   0  0  0  0  0  0  0  0  0  0  0  0
  127.6620  134.2450   61.6400 C   0  0  0  0  0  0  0  0  0  0  0  0
  126.7890  135.1280   60.9870 C   0  0  0  0  0  0  0  0  0  0  0  0
  127.2390  136.5840   60.7600 C   0  0  0  0  0  0  0  0  0  0  0  0
  126.6050  137.3950   61.6080 F   0  0  0  0  0  0  0  0  0  0  0  0
  128.5530  136.6930   60.9600 F   0  0  0  0  0  0  0  0  0  0  0  0
  126.9840  137.0160   59.5230 F   0  0  0  0  0  0  0  0  0  0  0  0
  125.5270  134.6420   60.5640 C   0  0  0  0  0  0  0  0  0  0  0  0
  124.5740  135.5210   59.8780 C   0  0  0  0  0  0  0  0  0  0  0  0
  123.8230  136.2140   59.3350 N   0  0  0  0  0  0  0  0  0  0  0  0
  125.2110  133.2870   60.8210 C   0  0  0  0  0  0  0  0  0  0  0  0
  123.6510  132.5660   60.3310 S   0  0  0  0  0  0  0  0  0  0  0  0
  123.7760  130.7530   60.5030 C   0  0  0  0  0  0  0  0  0  0  0  0
  123.6480  130.2310   61.9420 C   0  0  0  0  0  0  0  0  0  0  0  0
  122.5450  129.9480   62.4140 O   0  0  0  0  0  0  0  0  0  0  0  0
  124.8170  130.1290   62.6130 N   0  0  0  0  0  0  0  0  0  0  0  0
  124.9890  129.6860   63.9180 C   0  0  0  0  0  0  0  0  0  0  0  0
  124.1010  129.6740   64.8890 N   0  0  0  0  0  0  0  0  0  0  0  0
  124.6070  129.1810   66.0030 C   0  0  0  0  0  0  0  0  0  0  0  0
  125.9390  128.7800   65.9500 C   0  0  0  0  0  0  0  0  0  0  0  0
  126.5510  129.0680   64.3480 S   0  0  0  0  0  0  0  0  0  0  0  0
  126.0710  132.4470   61.4520 N   0  0  0  0  0  0  0  0  0  0  0  0
  1  2  1  0
  2  3  2  0
  3  4  1  0
  4  5  1  0
  5  6  1  0
  5  7  1  0
  5  8  1  0
  4  9  2  0
  9 10  1  0
 10 11  3  0
  9 12  1  0
 12 13  1  0
 13 14  1  0
 14 15  1  0
 15 16  2  0
 15 17  1  0
 17 18  1  0
 18 19  2  0
 19 20  1  0
 20 21  2  0
 21 22  1  0
 12 23  2  0
 23  2  1  0
 22 18  1  0
M  END
>  <Binding energies>  (12) 
[-6.27]

>  <Ligand effiencies>  (12) 
[-0.26125]

>  <Interactions>  (12) 
["V-B:ASP:366:CG:8185, V-B:ARG:545:CZ:9898, V-B:ILE:369:CG2:8209, V-A:TYR:539:CE1:4875, V-A:TYR:539:CD1:4873, V-B:LEU:475:CD2:9231, V-B:ASP:366:CA:8182, V-B:ILE:369:CD1:8211, V-A:TYR:539:C:4867, V-B:ASP:366:CB:8184, V-A:TYR:539:CA:4869, V-A:TYR:539:CG:4872, V-A:ALA:541:CB:4892, V-A:ALA:541:CA:4890, V-A:PRO:540:C:4881, H-B:GLY:454:N:9022, V-B:ARG:545:CD:9895, H-B:TYR:484:OH:9320, V-B:PRO:482:CG:9299, V-A:TYR:539:CB:4871, V-B:PRO:482:CB:9298, V-B:SER:385:CB:8381, V-B:SER:385:CA:8379, V-B:ARG:545:CG:9894, V-B:HIS:456:CE1:9042, V-B:TYR:484:CZ:9319, H-B:ARG:545:NH1:9899, H-B:SER:385:OG:8382, V-B:LEU:475:CG:9229, H-B:ARG:545:NE:9896"]

$$$$
3ab_Grossjean_2025
     RDKit          3D

 33 35  0  0  0  0  0  0  0  0999 V2000
  124.6480  123.7910   58.1870 C   0  0  0  0  0  0  0  0  0  0  0  0
  125.0600  123.7530   56.8270 O   0  0  0  0  0  0  0  0  0  0  0  0
  126.1160  122.9950   56.4380 C   0  0  0  0  0  0  0  0  0  0  0  0
  126.0300  122.0790   55.6140 O   0  0  0  0  0  0  0  0  0  0  0  0
  127.4030  123.3820   57.1070 C   0  0  0  0  0  0  0  0  0  0  0  0
  128.2530  124.3620   56.5720 C   0  0  0  0  0  0  0  0  0  0  0  0
  129.4400  124.7020   57.2140 C   0  0  0  0  0  0  0  0  0  0  0  0
  129.8010  124.0620   58.4110 C   0  0  0  0  0  0  0  0  0  0  0  0
  130.9710  124.3300   59.1470 N   0  0  0  0  0  0  0  0  0  0  0  0
  132.2650  124.2490   58.7760 C   0  0  0  0  0  0  0  0  0  0  0  0
  132.6710  123.8930   57.6690 O   0  0  0  0  0  0  0  0  0  0  0  0
  133.2820  124.6370   59.8510 C   0  0  0  0  0  0  0  0  0  0  0  0
  133.5250  123.3130   61.0740 S   0  0  0  0  0  0  0  0  0  0  0  0
  131.9830  122.4350   61.2230 C   0  0  0  0  0  0  0  0  0  0  0  0
  132.0350  121.1670   60.7510 N   0  0  0  0  0  0  0  0  0  0  0  0
  130.9300  120.3790   60.8070 C   0  0  0  0  0  0  0  0  0  0  0  0
  131.0710  118.9870   60.2660 C   0  0  0  0  0  0  0  0  0  0  0  0
  131.9900  118.7040   59.2430 C   0  0  0  0  0  0  0  0  0  0  0  0
  132.1250  117.4130   58.7370 C   0  0  0  0  0  0  0  0  0  0  0  0
  131.3400  116.3850   59.2490 C   0  0  0  0  0  0  0  0  0  0  0  0
  130.4190  116.6400   60.2600 C   0  0  0  0  0  0  0  0  0  0  0  0
  130.2870  117.9310   60.7620 C   0  0  0  0  0  0  0  0  0  0  0  0
  129.7270  120.8680   61.3290 C   0  0  0  0  0  0  0  0  0  0  0  0
  129.6440  122.1840   61.8070 C   0  0  0  0  0  0  0  0  0  0  0  0
  128.2990  122.6860   62.3690 C   0  0  0  0  0  0  0  0  0  0  0  0
  128.1130  123.9930   62.1740 F   0  0  0  0  0  0  0  0  0  0  0  0
  127.2870  122.0470   61.7800 F   0  0  0  0  0  0  0  0  0  0  0  0
  128.2440  122.4630   63.6830 F   0  0  0  0  0  0  0  0  0  0  0  0
  130.8000  123.0010   61.7480 C   0  0  0  0  0  0  0  0  0  0  0  0
  130.7520  124.4000   62.1810 C   0  0  0  0  0  0  0  0  0  0  0  0
  130.7110  125.5050   62.5230 N   0  0  0  0  0  0  0  0  0  0  0  0
  128.9540  123.0920   58.9490 C   0  0  0  0  0  0  0  0  0  0  0  0
  127.7690  122.7530   58.3040 C   0  0  0  0  0  0  0  0  0  0  0  0
  1  2  1  0
  2  3  1  0
  3  4  2  0
  3  5  1  0
  5  6  2  0
  6  7  1  0
  7  8  2  0
  8  9  1  0
  9 10  1  0
 10 11  2  0
 10 12  1  0
 12 13  1  0
 13 14  1  0
 14 15  2  0
 15 16  1  0
 16 17  1  0
 17 18  2  0
 18 19  1  0
 19 20  2  0
 20 21  1  0
 21 22  2  0
 16 23  2  0
 23 24  1  0
 24 25  1  0
 25 26  1  0
 25 27  1  0
 25 28  1  0
 24 29  2  0
 29 30  1  0
 30 31  3  0
  8 32  1  0
 32 33  2  0
 33  5  1  0
 29 14  1  0
 22 17  1  0
M  END
>  <Binding energies>  (13) 
[-8.24]

>  <Ligand effiencies>  (13) 
[-0.2423529411764706]

>  <Interactions>  (13) 
["V-A:HIS:383:CE1:3394, V-B:TYR:539:CZ:9849, V-B:TYR:539:C:9839, V-B:PRO:540:N:9856, V-A:LEU:475:CD1:4258, H-A:TYR:484:OH:4348, V-B:PRO:540:CB:9857, V-A:PRO:482:CB:4326, V-B:TYR:539:CG:9844, V-B:PRO:540:CA:9855, V-A:LEU:475:CD2:4259, V-B:ALA:541:CB:9864, V-B:TYR:539:CE2:9848, V-B:TYR:539:CD2:9846, V-A:PRO:482:CG:4327, V-A:SER:385:CB:3409, V-B:MET:535:CE:9807, H-B:TYR:531:OH:9767, V-A:ASP:366:CG:3213, V-A:ASP:366:CA:3210, V-A:ASP:366:CB:3212, H-B:TYR:539:OH:9850, V-B:GLU:543:CD:9880, V-A:TYR:484:CZ:4347, V-B:GLU:543:CG:9879, V-A:TYR:484:CE1:4345, V-B:PRO:540:C:9853, V-B:ALA:541:CA:9862, H-B:TYR:539:N:9842, V-B:TYR:539:CB:9843, V-A:LEU:373:CD1:3280, V-A:LEU:373:CD2:3281"]

$$$$
3ac_Grossjean_2025
     RDKit          3D

 31 33  0  0  0  0  0  0  0  0999 V2000
  125.2640  130.0000   55.9770 C   0  0  0  0  0  0  0  0  0  0  0  0
  126.1650  129.4990   54.9950 O   0  0  0  0  0  0  0  0  0  0  0  0
  127.2850  128.8000   55.4010 C   0  0  0  0  0  0  0  0  0  0  0  0
  127.1450  128.0040   56.5370 C   0  0  0  0  0  0  0  0  0  0  0  0
  128.2180  127.2600   57.0180 C   0  0  0  0  0  0  0  0  0  0  0  0
  129.4540  127.3090   56.3730 C   0  0  0  0  0  0  0  0  0  0  0  0
  130.4730  126.5070   56.9210 N   0  0  0  0  0  0  0  0  0  0  0  0
  131.6640  126.1620   56.3880 C   0  0  0  0  0  0  0  0  0  0  0  0
  132.0950  126.5450   55.2990 O   0  0  0  0  0  0  0  0  0  0  0  0
  132.5190  125.2220   57.2380 C   0  0  0  0  0  0  0  0  0  0  0  0
  132.1560  125.3780   59.0140 S   0  0  0  0  0  0  0  0  0  0  0  0
  130.8960  124.1930   59.4450 C   0  0  0  0  0  0  0  0  0  0  0  0
  129.8830  124.1400   58.5470 N   0  0  0  0  0  0  0  0  0  0  0  0
  128.8520  123.2770   58.7390 C   0  0  0  0  0  0  0  0  0  0  0  0
  127.7690  123.2860   57.7020 C   0  0  0  0  0  0  0  0  0  0  0  0
  128.0800  123.1610   56.3370 C   0  0  0  0  0  0  0  0  0  0  0  0
  127.0790  123.1630   55.3700 C   0  0  0  0  0  0  0  0  0  0  0  0
  125.7480  123.2920   55.7550 C   0  0  0  0  0  0  0  0  0  0  0  0
  125.4130  123.4220   57.0980 C   0  0  0  0  0  0  0  0  0  0  0  0
  126.4180  123.4200   58.0620 C   0  0  0  0  0  0  0  0  0  0  0  0
  128.8110  122.4500   59.8660 C   0  0  0  0  0  0  0  0  0  0  0  0
  129.8350  122.5010   60.8230 C   0  0  0  0  0  0  0  0  0  0  0  0
  129.7460  121.5770   62.0530 C   0  0  0  0  0  0  0  0  0  0  0  0
  129.1120  120.4310   61.7950 F   0  0  0  0  0  0  0  0  0  0  0  0
  130.9690  121.2650   62.4850 F   0  0  0  0  0  0  0  0  0  0  0  0
  129.0840  122.1910   63.0340 F   0  0  0  0  0  0  0  0  0  0  0  0
  130.9060  123.4070   60.6210 C   0  0  0  0  0  0  0  0  0  0  0  0
  131.9570  123.5510   61.6300 C   0  0  0  0  0  0  0  0  0  0  0  0
  132.7880  123.6650   62.4290 N   0  0  0  0  0  0  0  0  0  0  0  0
  129.6020  128.1020   55.2240 C   0  0  0  0  0  0  0  0  0  0  0  0
  128.5260  128.8440   54.7450 C   0  0  0  0  0  0  0  0  0  0  0  0
  1  2  1  0
  2  3  1  0
  3  4  2  0
  4  5  1  0
  5  6  2  0
  6  7  1  0
  7  8  1  0
  8  9  2  0
  8 10  1  0
 10 11  1  0
 11 12  1  0
 12 13  2  0
 13 14  1  0
 14 15  1  0
 15 16  2  0
 16 17  1  0
 17 18  2  0
 18 19  1  0
 19 20  2  0
 14 21  2  0
 21 22  1  0
 22 23  1  0
 23 24  1  0
 23 25  1  0
 23 26  1  0
 22 27  2  0
 27 28  1  0
 28 29  3  0
  6 30  1  0
 30 31  2  0
 31  3  1  0
 27 12  1  0
 20 15  1  0
M  END
>  <Binding energies>  (14) 
[-7.93]

>  <Ligand effiencies>  (14) 
[-0.2478125]

>  <Interactions>  (14) 
["V-B:TYR:539:CZ:9849, V-B:TYR:539:C:9839, V-B:PRO:540:N:9856, H-A:TYR:484:OH:4348, V-B:PRO:540:CB:9857, V-B:TYR:539:CG:9844, V-B:PRO:540:CA:9855, V-A:LEU:475:CD2:4259, H-A:GLY:454:N:4050, V-B:ALA:541:CB:9864, V-B:TYR:539:CE2:9848, V-B:TYR:539:CD2:9846, V-B:TYR:531:CE1:9764, V-A:TYR:539:CZ:4877, V-A:MET:535:CE:4835, V-B:MET:535:CE:9807, V-B:TYR:531:CZ:9766, V-B:TYR:531:CE2:9765, V-B:TYR:539:CE1:9847, V-B:TYR:539:CD1:9845, V-B:ILE:538:CD1:9837, V-A:ASP:366:CA:3210, V-A:ASP:366:CB:3212, H-A:TYR:531:OH:4795, H-B:TYR:539:OH:9850, H-B:LYS:534:NZ:9795, V-B:GLU:543:CD:9880, V-A:TYR:484:CZ:4347, V-B:GLU:543:CG:9879, V-A:TYR:484:CE1:4345, V-B:PRO:540:C:9853, V-B:ALA:541:CA:9862, V-A:LEU:475:CG:4257"]

$$$$
3af_Grossjean_2025
     RDKit          3D

 29 31  0  0  0  0  0  0  0  0999 V2000
  131.4160  126.7210   61.5320 N   0  0  0  0  0  0  0  0  0  0  0  0
  131.3840  125.5720   61.3950 C   0  0  0  0  0  0  0  0  0  0  0  0
  131.3440  124.1180   61.2200 C   0  0  0  0  0  0  0  0  0  0  0  0
  132.3320  123.4550   60.4510 C   0  0  0  0  0  0  0  0  0  0  0  0
  133.5170  124.1970   59.8010 C   0  0  0  0  0  0  0  0  0  0  0  0
  133.9820  123.5790   58.7130 F   0  0  0  0  0  0  0  0  0  0  0  0
  133.1410  125.4240   59.4370 F   0  0  0  0  0  0  0  0  0  0  0  0
  134.5270  124.2930   60.6660 F   0  0  0  0  0  0  0  0  0  0  0  0
  132.2210  122.0680   60.2670 C   0  0  0  0  0  0  0  0  0  0  0  0
  131.1540  121.3640   60.8340 C   0  0  0  0  0  0  0  0  0  0  0  0
  130.9770  119.8860   60.6530 C   0  0  0  0  0  0  0  0  0  0  0  0
  129.9920  119.1880   61.3720 C   0  0  0  0  0  0  0  0  0  0  0  0
  129.8210  117.8160   61.2060 C   0  0  0  0  0  0  0  0  0  0  0  0
  130.6350  117.1220   60.3180 C   0  0  0  0  0  0  0  0  0  0  0  0
  131.6150  117.7890   59.5920 C   0  0  0  0  0  0  0  0  0  0  0  0
  131.7830  119.1610   59.7590 C   0  0  0  0  0  0  0  0  0  0  0  0
  130.2070  122.0030   61.5670 N   0  0  0  0  0  0  0  0  0  0  0  0
  130.3050  123.3380   61.7780 C   0  0  0  0  0  0  0  0  0  0  0  0
  128.9820  123.9940   62.7740 S   0  0  0  0  0  0  0  0  0  0  0  0
  127.6230  122.7870   62.7690 C   0  0  0  0  0  0  0  0  0  0  0  0
  126.7760  122.8890   61.5010 C   0  0  0  0  0  0  0  0  0  0  0  0
  125.5510  122.9580   61.6030 O   0  0  0  0  0  0  0  0  0  0  0  0
  127.4680  122.8870   60.3410 N   0  0  0  0  0  0  0  0  0  0  0  0
  126.9990  122.9590   59.0150 C   0  0  0  0  0  0  0  0  0  0  0  0
  125.7740  123.5180   58.6060 C   0  0  0  0  0  0  0  0  0  0  0  0
  125.4340  123.5200   57.2520 C   0  0  0  0  0  0  0  0  0  0  0  0
  126.3270  122.9620   56.3370 C   0  0  0  0  0  0  0  0  0  0  0  0
  127.5130  122.4180   56.7050 N   0  0  0  0  0  0  0  0  0  0  0  0
  127.8300  122.4230   58.0250 C   0  0  0  0  0  0  0  0  0  0  0  0
  1  2  3  0
  2  3  1  0
  3  4  2  0
  4  5  1  0
  5  6  1  0
  5  7  1  0
  5  8  1  0
  4  9  1  0
  9 10  2  0
 10 11  1  0
 11 12  2  0
 12 13  1  0
 13 14  2  0
 14 15  1  0
 15 16  2  0
 10 17  1  0
 17 18  2  0
 18 19  1  0
 19 20  1  0
 20 21  1  0
 21 22  2  0
 21 23  1  0
 23 24  1  0
 24 25  2  0
 25 26  1  0
 26 27  2  0
 27 28  1  0
 28 29  2  0
 18  3  1  0
 29 24  1  0
 16 11  1  0
M  END
>  <Binding energies>  (15) 
[-8.04]

>  <Ligand effiencies>  (15) 
[-0.26799999999999996]

>  <Interactions>  (15) 
["V-B:TYR:539:C:9839, V-B:PRO:540:N:9856, V-A:LEU:475:CD1:4258, H-A:TYR:484:OH:4348, V-B:PRO:540:CB:9857, V-A:PRO:482:CB:4326, V-B:TYR:539:CG:9844, V-B:PRO:540:CA:9855, V-A:LEU:475:CD2:4259, V-B:ALA:541:CB:9864, V-B:TYR:539:CE2:9848, V-B:TYR:539:CD2:9846, V-A:PRO:482:CG:4327, V-A:SER:385:CB:3409, V-B:TYR:539:CA:9841, V-A:ASP:366:CG:3213, V-A:ASP:366:CA:3210, V-A:ASP:366:CB:3212, V-A:ILE:369:CG2:3237, V-B:GLU:543:CD:9880, H-B:ALA:541:N:9863, V-B:GLU:543:CG:9879, V-B:PRO:540:C:9853, V-A:ILE:369:CD1:3239, V-B:ALA:541:CA:9862, V-A:LEU:475:CG:4257, H-B:TYR:539:N:9842, H-A:ARG:545:NH2:4928, V-B:TYR:539:CB:9843, V-A:ILE:369:CB:3236, V-A:ILE:369:CG1:3238, H-B:TYR:539:O:9840"]

$$$$
3ag_Grossjean_2025
     RDKit          3D

 30 32  0  0  0  0  0  0  0  0999 V2000
  131.2520  126.8150   61.6000 N   0  0  0  0  0  0  0  0  0  0  0  0
  131.2320  125.6650   61.4660 C   0  0  0  0  0  0  0  0  0  0  0  0
  131.2090  124.2100   61.2950 C   0  0  0  0  0  0  0  0  0  0  0  0
  132.2970  123.5350   60.6870 C   0  0  0  0  0  0  0  0  0  0  0  0
  133.5760  124.2630   60.2280 C   0  0  0  0  0  0  0  0  0  0  0  0
  134.3320  123.5200   59.4190 F   0  0  0  0  0  0  0  0  0  0  0  0
  133.2520  125.3750   59.5670 F   0  0  0  0  0  0  0  0  0  0  0  0
  134.3220  124.5890   61.2840 F   0  0  0  0  0  0  0  0  0  0  0  0
  132.2050  122.1480   60.4970 C   0  0  0  0  0  0  0  0  0  0  0  0
  131.0550  121.4550   60.8910 C   0  0  0  0  0  0  0  0  0  0  0  0
  130.9020  119.9760   60.7100 C   0  0  0  0  0  0  0  0  0  0  0  0
  129.8820  119.2740   61.3730 C   0  0  0  0  0  0  0  0  0  0  0  0
  129.7340  117.9000   61.2090 C   0  0  0  0  0  0  0  0  0  0  0  0
  130.6070  117.2050   60.3780 C   0  0  0  0  0  0  0  0  0  0  0  0
  131.6280  117.8770   59.7120 C   0  0  0  0  0  0  0  0  0  0  0  0
  131.7740  119.2500   59.8790 C   0  0  0  0  0  0  0  0  0  0  0  0
  130.0190  122.1030   61.4850 N   0  0  0  0  0  0  0  0  0  0  0  0
  130.0950  123.4400   61.6960 C   0  0  0  0  0  0  0  0  0  0  0  0
  128.6520  124.1170   62.4860 S   0  0  0  0  0  0  0  0  0  0  0  0
  127.4200  122.7850   62.6000 C   0  0  0  0  0  0  0  0  0  0  0  0
  126.2040  123.0450   61.7100 C   0  0  0  0  0  0  0  0  0  0  0  0
  125.0690  122.9830   62.1880 O   0  0  0  0  0  0  0  0  0  0  0  0
  126.4560  123.3410   60.4240 N   0  0  0  0  0  0  0  0  0  0  0  0
  125.4490  123.6590   59.4120 C   0  0  0  0  0  0  0  0  0  0  0  0
  125.8560  123.2860   57.9900 C   0  0  0  0  0  0  0  0  0  0  0  0
  127.2100  123.1880   57.6590 C   0  0  0  0  0  0  0  0  0  0  0  0
  127.5860  122.8190   56.3700 C   0  0  0  0  0  0  0  0  0  0  0  0
  126.6060  122.5400   55.4190 C   0  0  0  0  0  0  0  0  0  0  0  0
  125.2540  122.6220   55.7470 C   0  0  0  0  0  0  0  0  0  0  0  0
  124.8780  122.9900   57.0360 C   0  0  0  0  0  0  0  0  0  0  0  0
  1  2  3  0
  2  3  1  0
  3  4  2  0
  4  5  1  0
  5  6  1  0
  5  7  1  0
  5  8  1  0
  4  9  1  0
  9 10  2  0
 10 11  1  0
 11 12  2  0
 12 13  1  0
 13 14  2  0
 14 15  1  0
 15 16  2  0
 10 17  1  0
 17 18  2  0
 18 19  1  0
 19 20  1  0
 20 21  1  0
 21 22  2  0
 21 23  1  0
 23 24  1  0
 24 25  1  0
 25 26  2  0
 26 27  1  0
 27 28  2  0
 28 29  1  0
 29 30  2  0
 18  3  1  0
 30 25  1  0
 16 11  1  0
M  END
>  <Binding energies>  (16) 
[-8.93]

>  <Ligand effiencies>  (16) 
[-0.2880645161290322]

>  <Interactions>  (16) 
["V-B:TYR:539:CZ:9849, V-B:TYR:539:C:9839, V-B:PRO:540:N:9856, V-A:LEU:475:CD1:4258, V-B:PRO:540:CD:9859, H-A:TYR:484:OH:4348, V-B:PRO:540:CB:9857, V-A:PRO:482:CB:4326, V-B:TYR:539:CG:9844, V-B:PRO:540:CA:9855, V-A:LEU:475:CD2:4259, V-B:ALA:541:CB:9864, V-B:LEU:363:CD1:8161, V-B:TYR:539:CE2:9848, V-B:TYR:539:CD2:9846, V-A:PRO:482:CG:4327, V-A:SER:385:CB:3409, V-B:MET:535:CE:9807, V-B:TYR:531:CE2:9765, V-B:TYR:539:CE1:9847, V-A:ASP:366:CG:3213, V-B:TYR:539:CD1:9845, V-B:ILE:538:CD1:9837, V-B:ILE:538:CG2:9835, V-A:ASP:366:CA:3210, V-A:ASP:366:CB:3212, V-B:ILE:538:CA:9832, V-A:ILE:369:CG2:3237, V-B:GLU:543:CD:9880, H-B:ALA:541:N:9863, H-B:ARG:545:NH2:9900, V-B:GLU:543:CG:9879, V-B:PRO:540:C:9853, V-A:ILE:369:CD1:3239, V-B:ALA:541:CA:9862, V-B:ILE:538:C:9830, H-A:ARG:545:NH2:4928, V-A:GLY:453:CA:4044, V-B:TYR:539:CB:9843, V-A:ILE:369:CB:3236, V-A:ILE:369:CG1:3238"]

$$$$
3bc_Grossjean_2025
     RDKit          3D

 28 30  0  0  0  0  0  0  0  0999 V2000
  132.3960  132.4570   55.7940 C   0  0  0  0  0  0  0  0  0  0  0  0
  131.2720  133.1680   55.2880 O   0  0  0  0  0  0  0  0  0  0  0  0
  130.0090  132.6260   55.4380 C   0  0  0  0  0  0  0  0  0  0  0  0
  129.5270  132.5240   56.7430 C   0  0  0  0  0  0  0  0  0  0  0  0
  128.2660  131.9900   56.9940 C   0  0  0  0  0  0  0  0  0  0  0  0
  127.4700  131.5420   55.9380 C   0  0  0  0  0  0  0  0  0  0  0  0
  126.2060  131.0300   56.2870 N   0  0  0  0  0  0  0  0  0  0  0  0
  125.6310  129.8620   55.9290 C   0  0  0  0  0  0  0  0  0  0  0  0
  126.1700  129.0000   55.2320 O   0  0  0  0  0  0  0  0  0  0  0  0
  124.2220  129.6400   56.4970 C   0  0  0  0  0  0  0  0  0  0  0  0
  123.7860  130.6920   57.9230 S   0  0  0  0  0  0  0  0  0  0  0  0
  125.2550  130.9180   58.9010 C   0  0  0  0  0  0  0  0  0  0  0  0
  125.4590  132.2010   59.2890 N   0  0  0  0  0  0  0  0  0  0  0  0
  126.5440  132.5150   60.0440 C   0  0  0  0  0  0  0  0  0  0  0  0
  126.7090  133.9600   60.4130 C   0  0  0  0  0  0  0  0  0  0  0  0
  125.6900  134.8880   60.1490 C   0  0  0  0  0  0  0  0  0  0  0  0
  125.8360  136.2300   60.4880 C   0  0  0  0  0  0  0  0  0  0  0  0
  127.0080  136.6640   61.0980 C   0  0  0  0  0  0  0  0  0  0  0  0
  128.0350  135.7650   61.3680 C   0  0  0  0  0  0  0  0  0  0  0  0
  127.8850  134.4240   61.0250 C   0  0  0  0  0  0  0  0  0  0  0  0
  127.4600  131.5310   60.4300 C   0  0  0  0  0  0  0  0  0  0  0  0
  127.2510  130.1990   60.0570 C   0  0  0  0  0  0  0  0  0  0  0  0
  128.2680  129.1550   60.5160 C   0  0  0  0  0  0  0  0  0  0  0  0
  126.1190  129.8670   59.2820 C   0  0  0  0  0  0  0  0  0  0  0  0
  125.8540  128.4720   58.9230 C   0  0  0  0  0  0  0  0  0  0  0  0
  125.6480  127.3700   58.6390 N   0  0  0  0  0  0  0  0  0  0  0  0
  127.9420  131.6530   54.6210 C   0  0  0  0  0  0  0  0  0  0  0  0
  129.2040  132.1880   54.3750 C   0  0  0  0  0  0  0  0  0  0  0  0
  1  2  1  0
  2  3  1  0
  3  4  2  0
  4  5  1  0
  5  6  2  0
  6  7  1  0
  7  8  1  0
  8  9  2  0
  8 10  1  0
 10 11  1  0
 11 12  1  0
 12 13  2  0
 13 14  1  0
 14 15  1  0
 15 16  2  0
 16 17  1  0
 17 18  2  0
 18 19  1  0
 19 20  2  0
 14 21  2  0
 21 22  1  0
 22 23  1  0
 22 24  2  0
 24 25  1  0
 25 26  3  0
  6 27  1  0
 27 28  2  0
 28  3  1  0
 24 12  1  0
 20 15  1  0
M  END
>  <Binding energies>  (17) 
[-8.03]

>  <Ligand effiencies>  (17) 
[-0.2768965517241379]

>  <Interactions>  (17) 
["V-B:TYR:531:CE1:9764, V-B:ASP:366:CG:8185, V-A:PRO:540:CB:4885, V-A:PRO:540:CD:4887, V-A:TYR:539:CE1:4875, V-A:TYR:539:CD1:4873, V-A:ILE:538:CB:4862, V-A:PRO:540:CG:4886, V-A:TYR:539:CZ:4877, V-A:PRO:540:CA:4883, V-B:LEU:475:CD2:9231, V-A:LEU:363:CD1:3189, V-B:ASP:366:CA:8182, V-A:TYR:539:CE2:4876, V-A:TYR:539:CD2:4874, V-A:TYR:539:C:4867, V-B:ASP:366:C:8180, V-A:PRO:540:N:4884, V-B:ASP:366:CB:8184, V-A:ILE:538:CA:4860, V-B:TYR:531:CZ:9766, H-B:TYR:531:OH:9767, V-A:TYR:539:CA:4869, V-A:TYR:539:CG:4872, V-A:ALA:541:CB:4892, H-A:TYR:539:N:4870, H-B:LYS:534:NZ:9795, V-A:ALA:541:CA:4890, V-A:PRO:540:C:4881, V-B:PRO:482:CG:9299, V-B:PRO:482:CB:9298, V-B:SER:385:CB:8381, H-A:TYR:539:OH:4878, V-B:TYR:531:CD1:9762"]

$$$$
3bd_Grossjean_2025
     RDKit          3D

 26 28  0  0  0  0  0  0  0  0999 V2000
  133.6790  123.1250   60.5960 C   0  0  0  0  0  0  0  0  0  0  0  0
  132.4150  122.3060   60.8520 C   0  0  0  0  0  0  0  0  0  0  0  0
  132.3810  120.9830   60.3970 C   0  0  0  0  0  0  0  0  0  0  0  0
  131.2400  120.2010   60.6080 C   0  0  0  0  0  0  0  0  0  0  0  0
  131.1390  118.7750   60.1510 C   0  0  0  0  0  0  0  0  0  0  0  0
  130.2300  117.8910   60.7550 C   0  0  0  0  0  0  0  0  0  0  0  0
  130.1330  116.5660   60.3370 C   0  0  0  0  0  0  0  0  0  0  0  0
  130.9460  116.1060   59.3060 C   0  0  0  0  0  0  0  0  0  0  0  0
  131.8560  116.9610   58.6930 C   0  0  0  0  0  0  0  0  0  0  0  0
  131.9510  118.2840   59.1140 C   0  0  0  0  0  0  0  0  0  0  0  0
  130.1620  120.7050   61.2640 N   0  0  0  0  0  0  0  0  0  0  0  0
  130.1780  121.9870   61.7110 C   0  0  0  0  0  0  0  0  0  0  0  0
  128.6970  122.5320   62.5450 S   0  0  0  0  0  0  0  0  0  0  0  0
  127.7730  123.6090   61.4080 C   0  0  0  0  0  0  0  0  0  0  0  0
  127.6880  123.0170   60.0010 C   0  0  0  0  0  0  0  0  0  0  0  0
  128.4020  122.0560   59.7120 O   0  0  0  0  0  0  0  0  0  0  0  0
  126.8210  123.6250   59.1610 N   0  0  0  0  0  0  0  0  0  0  0  0
  126.5040  123.3000   57.8290 C   0  0  0  0  0  0  0  0  0  0  0  0
  127.5820  123.2110   56.9440 C   0  0  0  0  0  0  0  0  0  0  0  0
  127.3650  122.9030   55.6040 C   0  0  0  0  0  0  0  0  0  0  0  0
  126.0670  122.6940   55.1450 C   0  0  0  0  0  0  0  0  0  0  0  0
  124.9830  122.7930   56.0140 C   0  0  0  0  0  0  0  0  0  0  0  0
  125.1970  123.1000   57.3550 C   0  0  0  0  0  0  0  0  0  0  0  0
  131.2920  122.8330   61.5250 C   0  0  0  0  0  0  0  0  0  0  0  0
  131.2970  124.2150   62.0140 C   0  0  0  0  0  0  0  0  0  0  0  0
  131.3020  125.3050   62.4010 N   0  0  0  0  0  0  0  0  0  0  0  0
  1  2  1  0
  2  3  2  0
  3  4  1  0
  4  5  1  0
  5  6  2  0
  6  7  1  0
  7  8  2  0
  8  9  1  0
  9 10  2  0
  4 11  2  0
 11 12  1  0
 12 13  1  0
 13 14  1  0
 14 15  1  0
 15 16  2  0
 15 17  1  0
 17 18  1  0
 18 19  2  0
 19 20  1  0
 20 21  2  0
 21 22  1  0
 22 23  2  0
 12 24  2  0
 24 25  1  0
 25 26  3  0
 24  2  1  0
 10  5  1  0
 23 18  1  0
M  END
>  <Binding energies>  (18) 
[-9.54]

>  <Ligand effiencies>  (18) 
[-0.3533333333333333]

>  <Interactions>  (18) 
["V-A:HIS:383:CE1:3394, V-B:TYR:539:CZ:9849, V-B:PRO:540:N:9856, V-A:LEU:475:CD1:4258, V-B:PRO:540:CD:9859, H-A:TYR:484:OH:4348, V-B:PRO:540:CB:9857, V-A:PRO:482:CB:4326, V-B:TYR:539:CG:9844, V-B:PRO:540:CA:9855, V-A:LEU:475:CD2:4259, V-B:LEU:363:CD1:8161, V-B:TYR:539:CE2:9848, V-B:TYR:539:CD2:9846, V-A:PRO:482:CG:4327, V-A:SER:385:CB:3409, V-B:MET:535:CE:9807, V-B:TYR:531:CZ:9766, V-B:TYR:531:CE2:9765, V-B:TYR:539:CE1:9847, V-B:TYR:539:CD1:9845, V-B:ILE:538:CD1:9837, V-B:ILE:538:CG2:9835, V-B:ILE:538:CA:9832, V-A:ILE:369:CG2:3237, H-B:ASP:366:OD2:8187, V-A:ILE:369:CD1:3239, V-B:TYR:539:CB:9843, V-A:LEU:373:CD1:3280, V-B:VAL:344:CG1:7973, V-A:LEU:373:CD2:3281"]

$$$$
3be_Grossjean_2025
     RDKit          3D

 27 29  0  0  0  0  0  0  0  0999 V2000
  127.4870  122.4990   55.2270 C   0  0  0  0  0  0  0  0  0  0  0  0
  126.4390  122.8800   56.2540 C   0  0  0  0  0  0  0  0  0  0  0  0
  125.1060  123.0960   55.8940 C   0  0  0  0  0  0  0  0  0  0  0  0
  124.1970  123.4470   56.8920 C   0  0  0  0  0  0  0  0  0  0  0  0
  124.6370  123.5730   58.2130 C   0  0  0  0  0  0  0  0  0  0  0  0
  125.9850  123.3390   58.5060 C   0  0  0  0  0  0  0  0  0  0  0  0
  126.3670  123.4910   59.8510 N   0  0  0  0  0  0  0  0  0  0  0  0
  127.4950  123.0680   60.4630 C   0  0  0  0  0  0  0  0  0  0  0  0
  128.4020  122.4460   59.9070 O   0  0  0  0  0  0  0  0  0  0  0  0
  127.5870  123.4210   61.9560 C   0  0  0  0  0  0  0  0  0  0  0  0
  129.1570  124.1930   62.4750 S   0  0  0  0  0  0  0  0  0  0  0  0
  130.4800  123.4150   61.5740 C   0  0  0  0  0  0  0  0  0  0  0  0
  130.3240  122.0760   61.4280 N   0  0  0  0  0  0  0  0  0  0  0  0
  131.2600  121.3540   60.7560 C   0  0  0  0  0  0  0  0  0  0  0  0
  131.0200  119.8770   60.6510 C   0  0  0  0  0  0  0  0  0  0  0  0
  131.8330  119.0740   59.8360 C   0  0  0  0  0  0  0  0  0  0  0  0
  131.6140  117.7030   59.7330 C   0  0  0  0  0  0  0  0  0  0  0  0
  130.5750  117.1150   60.4450 C   0  0  0  0  0  0  0  0  0  0  0  0
  129.7530  117.8880   61.2580 C   0  0  0  0  0  0  0  0  0  0  0  0
  129.9750  119.2590   61.3580 C   0  0  0  0  0  0  0  0  0  0  0  0
  132.3900  121.9750   60.2120 C   0  0  0  0  0  0  0  0  0  0  0  0
  132.5530  123.3590   60.3320 C   0  0  0  0  0  0  0  0  0  0  0  0
  133.7940  123.9950   59.7070 C   0  0  0  0  0  0  0  0  0  0  0  0
  131.5760  124.1120   61.0180 C   0  0  0  0  0  0  0  0  0  0  0  0
  131.7000  125.5690   61.1080 C   0  0  0  0  0  0  0  0  0  0  0  0
  131.8000  126.7200   61.1790 N   0  0  0  0  0  0  0  0  0  0  0  0
  126.8800  122.9980   57.5320 N   0  0  0  0  0  0  0  0  0  0  0  0
  1  2  1  0
  2  3  2  0
  3  4  1  0
  4  5  2  0
  5  6  1  0
  6  7  1  0
  7  8  1  0
  8  9  2  0
  8 10  1  0
 10 11  1  0
 11 12  1  0
 12 13  2  0
 13 14  1  0
 14 15  1  0
 15 16  2  0
 16 17  1  0
 17 18  2  0
 18 19  1  0
 19 20  2  0
 14 21  2  0
 21 22  1  0
 22 23  1  0
 22 24  2  0
 24 25  1  0
 25 26  3  0
  6 27  2  0
 27  2  1  0
 24 12  1  0
 20 15  1  0
M  END
>  <Binding energies>  (19) 
[-8.73]

>  <Ligand effiencies>  (19) 
[-0.3117857142857143]

>  <Interactions>  (19) 
["V-B:TYR:539:CZ:9849, V-B:PRO:540:N:9856, V-A:LEU:475:CD1:4258, H-A:TYR:484:OH:4348, V-B:PRO:540:CB:9857, V-A:PRO:482:CB:4326, V-B:TYR:539:CG:9844, V-B:PRO:540:CA:9855, V-A:LEU:475:CD2:4259, V-B:ALA:541:CB:9864, V-B:LEU:363:CD1:8161, V-B:TYR:539:CE2:9848, V-B:TYR:539:CD2:9846, V-A:PRO:482:CG:4327, V-A:SER:385:CB:3409, V-B:MET:535:CE:9807, V-B:TYR:531:CZ:9766, V-B:TYR:531:CE2:9765, V-B:TYR:539:CE1:9847, V-A:ASP:366:CG:3213, V-B:TYR:539:CD1:9845, V-B:ILE:538:CD1:9837, V-A:ASP:366:CA:3210, V-B:ILE:538:CA:9832, V-A:ILE:369:CG2:3237, H-B:ASP:366:OD2:8187, V-B:GLU:543:CD:9880, V-B:GLU:543:CG:9879, V-A:ILE:369:CD1:3239, V-B:ILE:538:C:9830, H-A:ARG:545:NH2:4928, V-B:TYR:539:CB:9843, V-A:ILE:369:CB:3236"]

$$$$
3bf_Grossjean_2025
     RDKit          3D

 26 28  0  0  0  0  0  0  0  0999 V2000
  133.5000  123.2680   60.3730 C   0  0  0  0  0  0  0  0  0  0  0  0
  132.3050  122.3820   60.7210 C   0  0  0  0  0  0  0  0  0  0  0  0
  132.3330  121.0460   60.3100 C   0  0  0  0  0  0  0  0  0  0  0  0
  131.2660  120.1960   60.6210 C   0  0  0  0  0  0  0  0  0  0  0  0
  131.2450  118.7490   60.2290 C   0  0  0  0  0  0  0  0  0  0  0  0
  131.9470  118.3030   59.0980 C   0  0  0  0  0  0  0  0  0  0  0  0
  131.9320  116.9620   58.7270 C   0  0  0  0  0  0  0  0  0  0  0  0
  131.2110  116.0450   59.4850 C   0  0  0  0  0  0  0  0  0  0  0  0
  130.5060  116.4610   60.6090 C   0  0  0  0  0  0  0  0  0  0  0  0
  130.5230  117.8040   60.9760 C   0  0  0  0  0  0  0  0  0  0  0  0
  130.1930  120.6520   61.3210 N   0  0  0  0  0  0  0  0  0  0  0  0
  130.1400  121.9510   61.7050 C   0  0  0  0  0  0  0  0  0  0  0  0
  128.6610  122.3680   62.6040 S   0  0  0  0  0  0  0  0  0  0  0  0
  127.8980  123.8160   61.7970 C   0  0  0  0  0  0  0  0  0  0  0  0
  126.8840  123.4860   60.6910 C   0  0  0  0  0  0  0  0  0  0  0  0
  125.6820  123.3950   60.9470 O   0  0  0  0  0  0  0  0  0  0  0  0
  127.4200  123.3450   59.4590 N   0  0  0  0  0  0  0  0  0  0  0  0
  126.7760  123.0360   58.2470 C   0  0  0  0  0  0  0  0  0  0  0  0
  125.4250  123.3810   58.1340 C   0  0  0  0  0  0  0  0  0  0  0  0
  124.7340  123.1130   56.9510 C   0  0  0  0  0  0  0  0  0  0  0  0
  125.4230  122.5050   55.9010 C   0  0  0  0  0  0  0  0  0  0  0  0
  126.7350  122.1690   55.9770 N   0  0  0  0  0  0  0  0  0  0  0  0
  127.3940  122.4360   57.1350 C   0  0  0  0  0  0  0  0  0  0  0  0
  131.1890  122.8590   61.4430 C   0  0  0  0  0  0  0  0  0  0  0  0
  131.1620  124.2420   61.9260 C   0  0  0  0  0  0  0  0  0  0  0  0
  131.1410  125.3350   62.3060 N   0  0  0  0  0  0  0  0  0  0  0  0
  1  2  1  0
  2  3  2  0
  3  4  1  0
  4  5  1  0
  5  6  2  0
  6  7  1  0
  7  8  2  0
  8  9  1  0
  9 10  2  0
  4 11  2  0
 11 12  1  0
 12 13  1  0
 13 14  1  0
 14 15  1  0
 15 16  2  0
 15 17  1  0
 17 18  1  0
 18 19  2  0
 19 20  1  0
 20 21  2  0
 21 22  1  0
 22 23  2  0
 12 24  2  0
 24 25  1  0
 25 26  3  0
 24  2  1  0
 10  5  1  0
 23 18  1  0
M  END
>  <Binding energies>  (20) 
[-9.68]

>  <Ligand effiencies>  (20) 
[-0.3585185185185185]

>  <Interactions>  (20) 
["V-A:HIS:383:CE1:3394, V-B:TYR:539:C:9839, V-B:PRO:540:N:9856, V-A:LEU:475:CD1:4258, V-B:PRO:540:CD:9859, H-A:TYR:484:OH:4348, V-B:PRO:540:CB:9857, V-A:PRO:482:CB:4326, V-B:TYR:539:CG:9844, V-B:PRO:540:CA:9855, V-A:LEU:475:CD2:4259, V-B:LEU:363:CD1:8161, V-B:TYR:539:CE2:9848, V-B:TYR:539:CD2:9846, V-A:PRO:482:CG:4327, V-A:SER:385:CB:3409, V-B:TYR:539:CA:9841, V-B:TYR:531:CZ:9766, V-B:TYR:531:CE2:9765, V-B:TYR:539:CE1:9847, V-B:TYR:539:CD1:9845, V-B:ILE:538:CD1:9837, V-B:ILE:538:CG2:9835, V-B:ILE:538:CA:9832, V-A:ILE:369:CG2:3237, V-B:GLU:543:CD:9880, V-A:ILE:369:CD1:3239, V-A:LEU:475:CG:4257, H-B:TYR:539:N:9842, V-B:TYR:539:CB:9843, V-A:LEU:373:CD1:3280, V-A:LEU:373:CD2:3281"]

$$$$
3bg_Grossjean_2025
     RDKit          3D

 27 29  0  0  0  0  0  0  0  0999 V2000
  133.6470  123.1720   60.3380 C   0  0  0  0  0  0  0  0  0  0  0  0
  132.4220  122.3300   60.6930 C   0  0  0  0  0  0  0  0  0  0  0  0
  132.3820  121.0030   60.2540 C   0  0  0  0  0  0  0  0  0  0  0  0
  131.2810  120.1940   60.5640 C   0  0  0  0  0  0  0  0  0  0  0  0
  131.1800  118.7570   60.1320 C   0  0  0  0  0  0  0  0  0  0  0  0
  131.9640  118.2610   59.0770 C   0  0  0  0  0  0  0  0  0  0  0  0
  131.8860  116.9270   58.6860 C   0  0  0  0  0  0  0  0  0  0  0  0
  131.0180  116.0640   59.3450 C   0  0  0  0  0  0  0  0  0  0  0  0
  130.2220  116.5290   60.3850 C   0  0  0  0  0  0  0  0  0  0  0  0
  130.3020  117.8640   60.7720 C   0  0  0  0  0  0  0  0  0  0  0  0
  130.2530  120.6820   61.3080 N   0  0  0  0  0  0  0  0  0  0  0  0
  130.2780  121.9670   61.7450 C   0  0  0  0  0  0  0  0  0  0  0  0
  128.8830  122.4730   62.7400 S   0  0  0  0  0  0  0  0  0  0  0  0
  127.8560  123.6080   61.7490 C   0  0  0  0  0  0  0  0  0  0  0  0
  127.9050  123.2650   60.2570 C   0  0  0  0  0  0  0  0  0  0  0  0
  127.8820  122.0880   59.8970 O   0  0  0  0  0  0  0  0  0  0  0  0
  127.9970  124.3030   59.4080 N   0  0  0  0  0  0  0  0  0  0  0  0
  128.2380  124.2040   57.9680 C   0  0  0  0  0  0  0  0  0  0  0  0
  127.0540  123.5820   57.2380 C   0  0  0  0  0  0  0  0  0  0  0  0
  127.2250  123.0450   55.9570 C   0  0  0  0  0  0  0  0  0  0  0  0
  126.1420  122.4860   55.2860 C   0  0  0  0  0  0  0  0  0  0  0  0
  124.8920  122.4540   55.9010 C   0  0  0  0  0  0  0  0  0  0  0  0
  124.7180  122.9680   57.1840 C   0  0  0  0  0  0  0  0  0  0  0  0
  125.8020  123.5280   57.8550 C   0  0  0  0  0  0  0  0  0  0  0  0
  131.3470  122.8380   61.4530 C   0  0  0  0  0  0  0  0  0  0  0  0
  131.3640  124.2220   61.9340 C   0  0  0  0  0  0  0  0  0  0  0  0
  131.3790  125.3150   62.3130 N   0  0  0  0  0  0  0  0  0  0  0  0
  1  2  1  0
  2  3  2  0
  3  4  1  0
  4  5  1  0
  5  6  2  0
  6  7  1  0
  7  8  2  0
  8  9  1  0
  9 10  2  0
  4 11  2  0
 11 12  1  0
 12 13  1  0
 13 14  1  0
 14 15  1  0
 15 16  2  0
 15 17  1  0
 17 18  1  0
 18 19  1  0
 19 20  2  0
 20 21  1  0
 21 22  2  0
 22 23  1  0
 23 24  2  0
 12 25  2  0
 25 26  1  0
 26 27  3  0
 25  2  1  0
 10  5  1  0
 24 19  1  0
M  END
>  <Binding energies>  (21) 
[-9.35]

>  <Ligand effiencies>  (21) 
[-0.3339285714285714]

>  <Interactions>  (21) 
["V-A:HIS:383:CE1:3394, V-B:PRO:540:N:9856, V-A:LEU:475:CD1:4258, V-B:PRO:540:CD:9859, H-A:TYR:484:OH:4348, V-B:PRO:540:CB:9857, V-A:PRO:482:CB:4326, V-B:TYR:539:CG:9844, V-B:PRO:540:CA:9855, V-A:LEU:475:CD2:4259, V-B:LEU:363:CD1:8161, V-B:TYR:539:CE2:9848, V-B:TYR:539:CD2:9846, V-A:PRO:482:CG:4327, V-A:SER:385:CB:3409, V-B:MET:535:CE:9807, V-B:TYR:531:CE2:9765, V-B:TYR:539:CE1:9847, V-B:TYR:539:CD1:9845, V-B:ILE:538:CD1:9837, V-B:ILE:538:CG2:9835, V-B:ILE:538:CA:9832, V-A:ILE:369:CG2:3237, V-B:GLU:543:CD:9880, V-A:ILE:369:CD1:3239, V-B:ILE:538:C:9830, V-B:ILE:538:CB:9834, V-B:TYR:539:CB:9843, V-A:ILE:369:CB:3236, V-B:PRO:540:CG:9858, V-A:LEU:373:CD1:3280, V-B:VAL:344:CG1:7973, V-A:LEU:373:CD2:3281"]

$$$$
3ca_Grossjean_2025
     RDKit          3D

 31 33  0  0  0  0  0  0  0  0999 V2000
  127.5560  131.7040   56.6330 C   0  0  0  0  0  0  0  0  0  0  0  0
  128.6580  132.7250   56.9300 C   0  0  0  0  0  0  0  0  0  0  0  0
  129.4360  132.9360   55.7590 O   0  0  0  0  0  0  0  0  0  0  0  0
  130.7750  132.7100   55.7560 C   0  0  0  0  0  0  0  0  0  0  0  0
  131.6050  133.5390   55.3710 O   0  0  0  0  0  0  0  0  0  0  0  0
  131.1480  131.3500   56.2740 C   0  0  0  0  0  0  0  0  0  0  0  0
  130.3440  130.2500   55.9500 C   0  0  0  0  0  0  0  0  0  0  0  0
  130.6640  128.9770   56.4150 C   0  0  0  0  0  0  0  0  0  0  0  0
  131.7870  128.7800   57.2200 C   0  0  0  0  0  0  0  0  0  0  0  0
  132.0190  127.4540   57.6340 N   0  0  0  0  0  0  0  0  0  0  0  0
  132.2780  126.3530   56.8960 C   0  0  0  0  0  0  0  0  0  0  0  0
  132.3780  126.3250   55.6700 O   0  0  0  0  0  0  0  0  0  0  0  0
  132.4760  125.0610   57.6960 C   0  0  0  0  0  0  0  0  0  0  0  0
  131.7120  125.1160   59.3500 S   0  0  0  0  0  0  0  0  0  0  0  0
  130.3330  123.9800   59.4210 C   0  0  0  0  0  0  0  0  0  0  0  0
  130.3440  123.1060   60.4590 N   0  0  0  0  0  0  0  0  0  0  0  0
  129.3230  122.2320   60.5860 C   0  0  0  0  0  0  0  0  0  0  0  0
  129.3980  121.3010   61.7800 C   0  0  0  0  0  0  0  0  0  0  0  0
  128.2620  122.1810   59.6840 C   0  0  0  0  0  0  0  0  0  0  0  0
  128.2370  123.0600   58.5950 C   0  0  0  0  0  0  0  0  0  0  0  0
  127.0870  122.9600   57.6460 C   0  0  0  0  0  0  0  0  0  0  0  0
  127.3090  122.6210   56.3060 C   0  0  0  0  0  0  0  0  0  0  0  0
  126.2450  122.5340   55.4120 C   0  0  0  0  0  0  0  0  0  0  0  0
  124.9500  122.7910   55.8560 C   0  0  0  0  0  0  0  0  0  0  0  0
  124.7120  123.1360   57.1840 C   0  0  0  0  0  0  0  0  0  0  0  0
  125.7800  123.2230   58.0750 C   0  0  0  0  0  0  0  0  0  0  0  0
  129.2950  123.9950   58.4580 C   0  0  0  0  0  0  0  0  0  0  0  0
  129.2960  124.9750   57.3670 C   0  0  0  0  0  0  0  0  0  0  0  0
  129.2960  125.7480   56.5050 N   0  0  0  0  0  0  0  0  0  0  0  0
  132.6020  129.8750   57.5430 C   0  0  0  0  0  0  0  0  0  0  0  0
  132.2820  131.1470   57.0750 C   0  0  0  0  0  0  0  0  0  0  0  0
  1  2  1  0
  2  3  1  0
  3  4  1  0
  4  5  2  0
  4  6  1  0
  6  7  2  0
  7  8  1  0
  8  9  2  0
  9 10  1  0
 10 11  1  0
 11 12  2  0
 11 13  1  0
 13 14  1  0
 14 15  1  0
 15 16  2  0
 16 17  1  0
 17 18  1  0
 17 19  2  0
 19 20  1  0
 20 21  1  0
 21 22  2  0
 22 23  1  0
 23 24  2  0
 24 25  1  0
 25 26  2  0
 20 27  2  0
 27 28  1  0
 28 29  3  0
  9 30  1  0
 30 31  2  0
 31  6  1  0
 27 15  1  0
 26 21  1  0
M  END
>  <Binding energies>  (22) 
[-9.66]

>  <Ligand effiencies>  (22) 
[-0.301875]

>  <Interactions>  (22) 
["V-B:TYR:539:CZ:9849, V-B:TYR:539:C:9839, V-B:PRO:540:N:9856, V-B:PRO:540:CD:9859, V-B:PRO:540:CB:9857, V-B:TYR:539:CG:9844, V-B:PRO:540:CA:9855, V-B:ALA:541:CB:9864, V-B:LEU:363:CD1:8161, V-B:TYR:539:CE2:9848, V-B:TYR:539:CD2:9846, V-A:PRO:540:CB:4885, V-A:PRO:540:CD:4887, V-A:TYR:539:CE1:4875, V-A:TYR:539:CD1:4873, V-A:ILE:538:CB:4862, V-A:TYR:539:CZ:4877, V-A:LEU:363:CD1:3189, V-A:TYR:539:CE2:4876, V-A:TYR:539:CD2:4874, V-A:TYR:539:C:4867, V-A:PRO:540:N:4884, V-B:MET:535:CE:9807, V-B:TYR:531:CZ:9766, V-B:TYR:531:CE2:9765, V-A:TYR:539:CA:4869, V-B:TYR:539:CE1:9847, V-A:TYR:539:CG:4872, V-A:ASP:366:CG:3213, V-B:TYR:539:CD1:9845, V-B:ILE:538:CD1:9837, V-B:ILE:538:CG2:9835, V-A:ASP:366:CB:3212, V-B:ILE:538:CA:9832, H-A:TYR:531:OH:4795, H-B:TYR:539:OH:9850, H-A:TYR:539:N:4870, V-B:ILE:538:C:9830, H-A:ASP:366:OD1:3214"]

$$$$
3ce_Grossjean_2025
     RDKit          3D

 27 29  0  0  0  0  0  0  0  0999 V2000
  123.4110  129.5910   66.8070 C   0  0  0  0  0  0  0  0  0  0  0  0
  124.3260  129.3700   65.6180 C   0  0  0  0  0  0  0  0  0  0  0  0
  125.6130  128.8470   65.7720 C   0  0  0  0  0  0  0  0  0  0  0  0
  126.3950  128.6620   64.6330 C   0  0  0  0  0  0  0  0  0  0  0  0
  125.8800  129.0010   63.3790 C   0  0  0  0  0  0  0  0  0  0  0  0
  124.5870  129.5300   63.2960 C   0  0  0  0  0  0  0  0  0  0  0  0
  124.1140  129.8330   62.0080 N   0  0  0  0  0  0  0  0  0  0  0  0
  124.0850  131.0350   61.3910 C   0  0  0  0  0  0  0  0  0  0  0  0
  124.4920  132.0910   61.8790 O   0  0  0  0  0  0  0  0  0  0  0  0
  123.5050  131.0400   59.9770 C   0  0  0  0  0  0  0  0  0  0  0  0
  124.5190  130.0690   58.8230 S   0  0  0  0  0  0  0  0  0  0  0  0
  126.0090  131.0090   58.5810 C   0  0  0  0  0  0  0  0  0  0  0  0
  126.3680  131.7580   59.6530 N   0  0  0  0  0  0  0  0  0  0  0  0
  127.4980  132.4970   59.5750 C   0  0  0  0  0  0  0  0  0  0  0  0
  127.8480  133.3010   60.8130 C   0  0  0  0  0  0  0  0  0  0  0  0
  128.2970  132.5290   58.4350 C   0  0  0  0  0  0  0  0  0  0  0  0
  127.9290  131.7820   57.3090 C   0  0  0  0  0  0  0  0  0  0  0  0
  128.8040  131.8680   56.1010 C   0  0  0  0  0  0  0  0  0  0  0  0
  130.1930  131.7490   56.2290 C   0  0  0  0  0  0  0  0  0  0  0  0
  131.0150  131.8340   55.1090 C   0  0  0  0  0  0  0  0  0  0  0  0
  130.4520  132.0460   53.8530 C   0  0  0  0  0  0  0  0  0  0  0  0
  129.0720  132.1770   53.7100 C   0  0  0  0  0  0  0  0  0  0  0  0
  128.2530  132.0900   54.8320 C   0  0  0  0  0  0  0  0  0  0  0  0
  126.7530  130.9920   57.3780 C   0  0  0  0  0  0  0  0  0  0  0  0
  126.3260  130.1780   56.2360 C   0  0  0  0  0  0  0  0  0  0  0  0
  125.9900  129.5360   55.3340 N   0  0  0  0  0  0  0  0  0  0  0  0
  123.8120  129.7060   64.4070 N   0  0  0  0  0  0  0  0  0  0  0  0
  1  2  1  0
  2  3  2  0
  3  4  1  0
  4  5  2  0
  5  6  1  0
  6  7  1  0
  7  8  1  0
  8  9  2  0
  8 10  1  0
 10 11  1  0
 11 12  1  0
 12 13  2  0
 13 14  1  0
 14 15  1  0
 14 16  2  0
 16 17  1  0
 17 18  1  0
 18 19  2  0
 19 20  1  0
 20 21  2  0
 21 22  1  0
 22 23  2  0
 17 24  2  0
 24 25  1  0
 25 26  3  0
  6 27  2  0
 27  2  1  0
 24 12  1  0
 23 18  1  0
M  END
>  <Binding energies>  (23) 
[-9.45]

>  <Ligand effiencies>  (23) 
[-0.33749999999999997]

>  <Interactions>  (23) 
["V-B:ASP:366:CG:8185, V-B:ARG:545:CZ:9898, V-A:ILE:538:CG2:4863, V-A:TYR:539:CE1:4875, V-A:TYR:539:CD1:4873, V-A:ILE:538:CB:4862, V-A:TYR:539:CZ:4877, V-B:GLY:454:CA:9021, V-B:ASP:366:CA:8182, V-A:TYR:539:CE2:4876, V-A:TYR:539:CD2:4874, V-B:ILE:369:CD1:8211, V-A:TYR:539:C:4867, V-B:ASP:366:CB:8184, V-A:ILE:538:CA:4860, H-B:TYR:531:OH:9767, V-A:ALA:541:CB:4892, H-B:LYS:534:NZ:9795, H-B:ASP:366:OD2:8187, V-B:GLU:543:CD:9880, H-B:ASP:366:OD1:8186, H-B:ARG:545:NH2:9900, V-B:GLY:453:C:9014, H-B:GLY:454:N:9022, V-B:ARG:545:CD:9895, H-B:TYR:484:OH:9320, V-B:GLY:453:CA:9016, V-B:ARG:545:CG:9894, V-B:HIS:456:CE1:9042, V-B:TYR:484:CE1:9317, H-B:ARG:545:NH1:9899, H-B:ARG:545:NE:9896, V-B:ILE:455:C:9024"]

$$$$
3cj_Grossjean_2025
     RDKit          3D

 25 27  0  0  0  0  0  0  0  0999 V2000
  127.8220  133.2930   60.8010 C   0  0  0  0  0  0  0  0  0  0  0  0
  127.4730  132.5090   59.5500 C   0  0  0  0  0  0  0  0  0  0  0  0
  128.2560  132.5860   58.4000 C   0  0  0  0  0  0  0  0  0  0  0  0
  127.9090  131.8260   57.2750 C   0  0  0  0  0  0  0  0  0  0  0  0
  128.8120  131.8900   56.0880 C   0  0  0  0  0  0  0  0  0  0  0  0
  130.1960  131.7380   56.2390 C   0  0  0  0  0  0  0  0  0  0  0  0
  131.0390  131.8110   55.1330 C   0  0  0  0  0  0  0  0  0  0  0  0
  130.5000  132.0420   53.8710 C   0  0  0  0  0  0  0  0  0  0  0  0
  129.1270  132.2040   53.7060 C   0  0  0  0  0  0  0  0  0  0  0  0
  128.2860  132.1310   54.8140 C   0  0  0  0  0  0  0  0  0  0  0  0
  126.7430  131.0240   57.3360 C   0  0  0  0  0  0  0  0  0  0  0  0
  126.3120  130.2290   56.1810 C   0  0  0  0  0  0  0  0  0  0  0  0
  125.9740  129.6000   55.2700 N   0  0  0  0  0  0  0  0  0  0  0  0
  126.0110  131.0030   58.5440 C   0  0  0  0  0  0  0  0  0  0  0  0
  124.6080  129.9380   58.8000 S   0  0  0  0  0  0  0  0  0  0  0  0
  123.4940  130.8870   59.8850 C   0  0  0  0  0  0  0  0  0  0  0  0
  124.0200  130.9550   61.3230 C   0  0  0  0  0  0  0  0  0  0  0  0
  124.2340  132.0530   61.8400 O   0  0  0  0  0  0  0  0  0  0  0  0
  124.1750  129.7630   61.9390 N   0  0  0  0  0  0  0  0  0  0  0  0
  124.5040  129.5560   63.2690 C   0  0  0  0  0  0  0  0  0  0  0  0
  123.7860  129.8430   64.3330 N   0  0  0  0  0  0  0  0  0  0  0  0
  124.3990  129.4790   65.4420 C   0  0  0  0  0  0  0  0  0  0  0  0
  125.6470  128.8810   65.2890 C   0  0  0  0  0  0  0  0  0  0  0  0
  126.0300  128.7960   63.5950 S   0  0  0  0  0  0  0  0  0  0  0  0
  126.3760  131.7250   59.6340 N   0  0  0  0  0  0  0  0  0  0  0  0
  1  2  1  0
  2  3  2  0
  3  4  1  0
  4  5  1  0
  5  6  2  0
  6  7  1  0
  7  8  2  0
  8  9  1  0
  9 10  2  0
  4 11  2  0
 11 12  1  0
 12 13  3  0
 11 14  1  0
 14 15  1  0
 15 16  1  0
 16 17  1  0
 17 18  2  0
 17 19  1  0
 19 20  1  0
 20 21  2  0
 21 22  1  0
 22 23  2  0
 23 24  1  0
 14 25  2  0
 25  2  1  0
 10  5  1  0
 24 20  1  0
M  END
>  <Binding energies>  (24) 
[-8.23]

>  <Ligand effiencies>  (24) 
[-0.31653846153846155]

>  <Interactions>  (24) 
["V-B:ASP:366:CG:8185, V-B:ARG:545:CZ:9898, V-A:ILE:538:CG2:4863, V-A:TYR:539:CE1:4875, V-A:TYR:539:CD1:4873, V-A:ILE:538:CB:4862, V-A:TYR:539:CZ:4877, V-B:ASP:366:CA:8182, V-A:TYR:539:CE2:4876, V-A:TYR:539:CD2:4874, V-B:ILE:369:CD1:8211, V-A:TYR:539:C:4867, V-B:ASP:366:CB:8184, V-A:ILE:538:CA:4860, V-A:TYR:539:CG:4872, V-A:ALA:541:CB:4892, H-B:LYS:534:NZ:9795, H-B:ASP:366:OD2:8187, H-B:ASP:366:OD1:8186, H-B:GLY:454:N:9022, V-B:ARG:545:CD:9895, H-B:TYR:484:OH:9320, H-B:ARG:545:NH1:9899"]

$$$$
4ba_Grossjean_2025
     RDKit          3D

 28 30  0  0  0  0  0  0  0  0999 V2000
  122.8920  129.5420   66.6450 C   0  0  0  0  0  0  0  0  0  0  0  0
  124.3290  129.6230   67.1940 C   0  0  0  0  0  0  0  0  0  0  0  0
  125.3490  128.7000   66.4980 C   0  0  0  0  0  0  0  0  0  0  0  0
  125.6390  127.6170   67.0120 O   0  0  0  0  0  0  0  0  0  0  0  0
  125.9460  129.1700   65.2030 C   0  0  0  0  0  0  0  0  0  0  0  0
  127.3360  129.2980   65.0920 C   0  0  0  0  0  0  0  0  0  0  0  0
  127.9160  129.7330   63.9040 C   0  0  0  0  0  0  0  0  0  0  0  0
  127.1200  130.0450   62.8010 C   0  0  0  0  0  0  0  0  0  0  0  0
  127.8080  130.4830   61.6540 N   0  0  0  0  0  0  0  0  0  0  0  0
  128.8160  131.3830   61.5320 C   0  0  0  0  0  0  0  0  0  0  0  0
  129.2850  132.0280   62.4710 O   0  0  0  0  0  0  0  0  0  0  0  0
  129.3210  131.5740   60.1710 C   0  0  0  0  0  0  0  0  0  0  0  0
  128.3480  132.4290   58.9760 S   0  0  0  0  0  0  0  0  0  0  0  0
  129.5590  132.1770   57.7410 C   0  0  0  0  0  0  0  0  0  0  0  0
  129.3890  132.6310   56.5000 N   0  0  0  0  0  0  0  0  0  0  0  0
  130.3940  132.3740   55.6320 C   0  0  0  0  0  0  0  0  0  0  0  0
  130.1770  132.8920   54.2210 C   0  0  0  0  0  0  0  0  0  0  0  0
  131.5550  131.6850   55.9730 C   0  0  0  0  0  0  0  0  0  0  0  0
  131.7400  131.2050   57.2790 C   0  0  0  0  0  0  0  0  0  0  0  0
  133.0340  130.4540   57.6070 C   0  0  0  0  0  0  0  0  0  0  0  0
  133.8910  130.4190   56.5840 F   0  0  0  0  0  0  0  0  0  0  0  0
  133.6550  131.0470   58.6280 F   0  0  0  0  0  0  0  0  0  0  0  0
  132.7530  129.1930   57.9360 F   0  0  0  0  0  0  0  0  0  0  0  0
  130.6950  131.4540   58.2190 C   0  0  0  0  0  0  0  0  0  0  0  0
  130.5250  131.1150   59.6110 C   0  0  0  0  0  0  0  0  0  0  0  0
  131.4620  130.4070   60.3190 N   0  0  0  0  0  0  0  0  0  0  0  0
  125.7260  129.9260   62.9060 C   0  0  0  0  0  0  0  0  0  0  0  0
  125.1470  129.4910   64.0950 C   0  0  0  0  0  0  0  0  0  0  0  0
  1  2  1  0
  2  3  1  0
  3  4  2  0
  3  5  1  0
  5  6  2  0
  6  7  1  0
  7  8  2  0
  8  9  1  0
  9 10  1  0
 10 11  2  0
 10 12  1  0
 12 13  1  0
 13 14  1  0
 14 15  2  0
 15 16  1  0
 16 17  1  0
 16 18  2  0
 18 19  1  0
 19 20  1  0
 20 21  1  0
 20 22  1  0
 20 23  1  0
 19 24  2  0
 24 25  1  0
 25 26  1  0
  8 27  1  0
 27 28  2  0
 28  5  1  0
 25 12  2  0
 24 14  1  0
M  END
>  <Binding energies>  (25) 
[-7.25]

>  <Ligand effiencies>  (25) 
[-0.23387096774193547]

>  <Interactions>  (25) 
["V-B:ARG:545:CZ:9898, V-A:TYR:531:CZ:4794, V-A:ILE:538:CG2:4863, V-A:PRO:540:CB:4885, V-A:TYR:539:CD1:4873, V-A:ILE:538:CB:4862, V-A:PRO:540:CA:4883, V-A:LEU:363:CD1:3189, V-B:GLY:454:CA:9021, V-A:TYR:539:C:4867, V-A:ILE:538:C:4858, V-A:PRO:540:N:4884, V-A:ILE:538:CA:4860, V-A:TYR:531:CE2:4793, V-A:ASP:366:CG:3213, V-A:ASP:366:CB:3212, H-A:GLU:543:OE1:4909, V-A:GLU:543:CD:4908, H-A:TYR:539:N:4870, H-A:ALA:541:N:4891, V-B:GLY:453:C:9014, V-B:ARG:545:CD:9895, V-A:GLU:543:CG:4907, V-B:GLY:453:CA:9016, V-A:LEU:363:CA:3185, V-B:ARG:545:CG:9894, V-B:HIS:456:CE1:9042, V-B:TYR:484:CZ:9319, V-B:TYR:484:CE1:9317, H-A:ASP:366:OD1:3214, H-B:ARG:545:NE:9896, V-A:LEU:363:CB:3187, V-B:ILE:455:C:9024"]

$$$$
4bb_Grossjean_2025
     RDKit          3D

 27 29  0  0  0  0  0  0  0  0999 V2000
  132.3760  132.1730   55.8830 C   0  0  0  0  0  0  0  0  0  0  0  0
  130.9050  132.5960   55.8890 C   0  0  0  0  0  0  0  0  0  0  0  0
  130.4930  133.2760   54.9470 O   0  0  0  0  0  0  0  0  0  0  0  0
  130.0470  132.1700   57.0420 C   0  0  0  0  0  0  0  0  0  0  0  0
  130.6550  131.7090   58.2170 C   0  0  0  0  0  0  0  0  0  0  0  0
  129.8820  131.3070   59.3020 C   0  0  0  0  0  0  0  0  0  0  0  0
  128.4890  131.3640   59.2380 C   0  0  0  0  0  0  0  0  0  0  0  0
  127.8050  130.9300   60.3910 N   0  0  0  0  0  0  0  0  0  0  0  0
  127.0560  129.8180   60.5930 C   0  0  0  0  0  0  0  0  0  0  0  0
  126.8240  128.9740   59.7280 O   0  0  0  0  0  0  0  0  0  0  0  0
  126.4920  129.6820   61.9390 C   0  0  0  0  0  0  0  0  0  0  0  0
  124.7740  129.9660   62.2120 S   0  0  0  0  0  0  0  0  0  0  0  0
  124.9490  129.6640   63.9260 C   0  0  0  0  0  0  0  0  0  0  0  0
  123.9080  129.7270   64.7530 N   0  0  0  0  0  0  0  0  0  0  0  0
  124.1680  129.4740   66.0560 C   0  0  0  0  0  0  0  0  0  0  0  0
  122.9670  129.5500   66.9810 C   0  0  0  0  0  0  0  0  0  0  0  0
  125.4330  129.1630   66.5470 C   0  0  0  0  0  0  0  0  0  0  0  0
  126.5340  129.0950   65.6800 C   0  0  0  0  0  0  0  0  0  0  0  0
  127.9070  128.7490   66.2670 C   0  0  0  0  0  0  0  0  0  0  0  0
  128.6840  128.0750   65.4150 F   0  0  0  0  0  0  0  0  0  0  0  0
  128.5520  129.8690   66.5960 F   0  0  0  0  0  0  0  0  0  0  0  0
  127.7570  127.9920   67.3540 F   0  0  0  0  0  0  0  0  0  0  0  0
  126.2950  129.3560   64.2980 C   0  0  0  0  0  0  0  0  0  0  0  0
  127.1540  129.3800   63.1400 C   0  0  0  0  0  0  0  0  0  0  0  0
  128.4990  129.1200   63.2110 N   0  0  0  0  0  0  0  0  0  0  0  0
  127.8730  131.8170   58.0610 C   0  0  0  0  0  0  0  0  0  0  0  0
  128.6480  132.2170   56.9760 C   0  0  0  0  0  0  0  0  0  0  0  0
  1  2  1  0
  2  3  2  0
  2  4  1  0
  4  5  2  0
  5  6  1  0
  6  7  2  0
  7  8  1  0
  8  9  1  0
  9 10  2  0
  9 11  1  0
 11 12  1  0
 12 13  1  0
 13 14  2  0
 14 15  1  0
 15 16  1  0
 15 17  2  0
 17 18  1  0
 18 19  1  0
 19 20  1  0
 19 21  1  0
 19 22  1  0
 18 23  2  0
 23 24  1  0
 24 25  1  0
  7 26  1  0
 26 27  2  0
 27  4  1  0
 24 11  2  0
 23 13  1  0
M  END
>  <Binding energies>  (26) 
[-7.12]

>  <Ligand effiencies>  (26) 
[-0.23733333333333334]

>  <Interactions>  (26) 
["V-B:ARG:545:CZ:9898, V-A:PRO:540:CB:4885, V-A:PRO:540:CD:4887, V-A:TYR:539:CE1:4875, V-A:TYR:539:CD1:4873, V-A:ILE:538:CB:4862, V-A:PRO:540:CA:4883, V-A:LEU:363:CD1:3189, V-B:GLY:454:CA:9021, V-A:TYR:539:C:4867, V-A:PRO:540:N:4884, V-A:TYR:539:CG:4872, H-A:GLU:543:OE1:4909, V-A:GLU:543:CD:4908, H-A:TYR:539:N:4870, V-B:GLU:543:CD:9880, V-B:GLY:453:C:9014, H-B:GLY:454:N:9022, V-B:ARG:545:CD:9895, H-B:TYR:484:OH:9320, V-A:GLU:543:CG:4907, V-B:GLY:453:CA:9016, V-B:ARG:545:CG:9894, V-B:HIS:456:CE1:9042, V-B:TYR:484:CE2:9318, V-B:TYR:484:CZ:9319, V-A:GLU:543:CB:4906, V-B:TYR:484:CE1:9317, H-B:ARG:545:NH1:9899, H-B:GLU:543:OE2:9882, H-A:GLU:543:OE2:4910, H-B:ARG:545:NE:9896, V-B:ILE:455:C:9024, V-B:ARG:545:CB:9893, V-A:GLU:543:CA:4904"]

$$$$
4bd_Grossjean_2025
     RDKit          3D

 24 26  0  0  0  0  0  0  0  0999 V2000
  129.7680  132.9130   54.5630 C   0  0  0  0  0  0  0  0  0  0  0  0
  130.0900  132.3780   55.9470 C   0  0  0  0  0  0  0  0  0  0  0  0
  131.3040  131.7500   56.2090 C   0  0  0  0  0  0  0  0  0  0  0  0
  131.5880  131.2570   57.4920 C   0  0  0  0  0  0  0  0  0  0  0  0
  132.9370  130.5700   57.7330 C   0  0  0  0  0  0  0  0  0  0  0  0
  133.7560  130.6470   56.6810 F   0  0  0  0  0  0  0  0  0  0  0  0
  133.5570  131.1410   58.7650 F   0  0  0  0  0  0  0  0  0  0  0  0
  132.7440  129.2780   57.9930 F   0  0  0  0  0  0  0  0  0  0  0  0
  130.5880  131.4320   58.4940 C   0  0  0  0  0  0  0  0  0  0  0  0
  130.5210  131.0700   59.8890 C   0  0  0  0  0  0  0  0  0  0  0  0
  131.5450  130.4280   60.5360 N   0  0  0  0  0  0  0  0  0  0  0  0
  129.3190  131.4330   60.5200 C   0  0  0  0  0  0  0  0  0  0  0  0
  128.9120  131.2050   61.9100 C   0  0  0  0  0  0  0  0  0  0  0  0
  129.4710  131.7980   62.8330 O   0  0  0  0  0  0  0  0  0  0  0  0
  127.8930  130.3260   62.0810 N   0  0  0  0  0  0  0  0  0  0  0  0
  127.3020  129.8630   63.2710 C   0  0  0  0  0  0  0  0  0  0  0  0
  125.9220  129.6470   63.2250 C   0  0  0  0  0  0  0  0  0  0  0  0
  125.2460  129.1790   64.3480 C   0  0  0  0  0  0  0  0  0  0  0  0
  125.9520  128.9170   65.5190 C   0  0  0  0  0  0  0  0  0  0  0  0
  127.3290  129.1150   65.5740 C   0  0  0  0  0  0  0  0  0  0  0  0
  128.0090  129.5830   64.4520 C   0  0  0  0  0  0  0  0  0  0  0  0
  128.2300  132.2450   59.3980 S   0  0  0  0  0  0  0  0  0  0  0  0
  129.3850  132.0930   58.0940 C   0  0  0  0  0  0  0  0  0  0  0  0
  129.1220  132.5580   56.8740 N   0  0  0  0  0  0  0  0  0  0  0  0
  1  2  1  0
  2  3  2  0
  3  4  1  0
  4  5  1  0
  5  6  1  0
  5  7  1  0
  5  8  1  0
  4  9  2  0
  9 10  1  0
 10 11  1  0
 10 12  2  0
 12 13  1  0
 13 14  2  0
 13 15  1  0
 15 16  1  0
 16 17  2  0
 17 18  1  0
 18 19  2  0
 19 20  1  0
 20 21  2  0
 12 22  1  0
 22 23  1  0
 23 24  2  0
 24  2  1  0
 23  9  1  0
 21 16  1  0
M  END
>  <Binding energies>  (27) 
[-6.44]

>  <Ligand effiencies>  (27) 
[-0.23851851851851855]

>  <Interactions>  (27) 
["V-B:ARG:545:CZ:9898, V-A:TYR:531:CZ:4794, V-A:ILE:538:CG2:4863, V-A:PRO:540:CB:4885, V-A:ILE:538:CB:4862, V-A:PRO:540:CA:4883, V-A:LEU:363:CD1:3189, V-A:TYR:539:CD2:4874, V-A:TYR:539:C:4867, V-A:ILE:538:C:4858, V-A:PRO:540:N:4884, V-A:ILE:538:CA:4860, V-A:TYR:531:CE2:4793, V-A:ASP:366:CG:3213, V-A:ASP:366:CB:3212, H-A:GLU:543:OE1:4909, V-A:GLU:543:CD:4908, V-A:GLU:543:CG:4907, V-A:LEU:363:CA:3185, V-B:TYR:484:CZ:9319, H-A:ASP:366:OD1:3214"]

$$$$
4be_Grossjean_2025
     RDKit          3D

 25 27  0  0  0  0  0  0  0  0999 V2000
  128.2650  128.8020   66.6930 C   0  0  0  0  0  0  0  0  0  0  0  0
  127.4050  129.0810   65.4750 C   0  0  0  0  0  0  0  0  0  0  0  0
  126.0190  128.9050   65.5020 C   0  0  0  0  0  0  0  0  0  0  0  0
  125.2920  129.1790   64.3430 C   0  0  0  0  0  0  0  0  0  0  0  0
  125.9600  129.6160   63.1970 C   0  0  0  0  0  0  0  0  0  0  0  0
  127.3490  129.7770   63.2400 C   0  0  0  0  0  0  0  0  0  0  0  0
  127.9620  130.2130   62.0510 N   0  0  0  0  0  0  0  0  0  0  0  0
  128.9140  131.1650   61.8830 C   0  0  0  0  0  0  0  0  0  0  0  0
  129.4060  131.8140   62.8080 O   0  0  0  0  0  0  0  0  0  0  0  0
  129.3240  131.4060   60.4970 C   0  0  0  0  0  0  0  0  0  0  0  0
  128.2350  132.2270   59.3810 S   0  0  0  0  0  0  0  0  0  0  0  0
  129.3870  132.0770   58.0740 C   0  0  0  0  0  0  0  0  0  0  0  0
  129.1230  132.5520   56.8580 N   0  0  0  0  0  0  0  0  0  0  0  0
  130.0930  132.3790   55.9300 C   0  0  0  0  0  0  0  0  0  0  0  0
  129.7730  132.9250   54.5510 C   0  0  0  0  0  0  0  0  0  0  0  0
  131.3070  131.7490   56.1890 C   0  0  0  0  0  0  0  0  0  0  0  0
  131.5910  131.2470   57.4680 C   0  0  0  0  0  0  0  0  0  0  0  0
  132.9430  130.5650   57.7050 C   0  0  0  0  0  0  0  0  0  0  0  0
  133.7560  130.6370   56.6480 F   0  0  0  0  0  0  0  0  0  0  0  0
  133.5680  131.1460   58.7280 F   0  0  0  0  0  0  0  0  0  0  0  0
  132.7550  129.2740   57.9790 F   0  0  0  0  0  0  0  0  0  0  0  0
  130.5870  131.4100   58.4690 C   0  0  0  0  0  0  0  0  0  0  0  0
  130.5160  131.0290   59.8590 C   0  0  0  0  0  0  0  0  0  0  0  0
  131.5310  130.3630   60.4970 N   0  0  0  0  0  0  0  0  0  0  0  0
  128.0680  129.5060   64.3690 N   0  0  0  0  0  0  0  0  0  0  0  0
  1  2  1  0
  2  3  2  0
  3  4  1  0
  4  5  2  0
  5  6  1  0
  6  7  1  0
  7  8  1  0
  8  9  2  0
  8 10  1  0
 10 11  1  0
 11 12  1  0
 12 13  2  0
 13 14  1  0
 14 15  1  0
 14 16  2  0
 16 17  1  0
 17 18  1  0
 18 19  1  0
 18 20  1  0
 18 21  1  0
 17 22  2  0
 22 23  1  0
 23 24  1  0
  6 25  2  0
 25  2  1  0
 23 10  2  0
 22 12  1  0
M  END
>  <Binding energies>  (28) 
[-6.66]

>  <Ligand effiencies>  (28) 
[-0.23785714285714285]

>  <Interactions>  (28) 
["V-B:ARG:545:CZ:9898, V-A:TYR:531:CZ:4794, V-A:ILE:538:CG2:4863, V-A:PRO:540:CB:4885, V-A:ILE:538:CB:4862, V-A:PRO:540:CA:4883, V-A:LEU:363:CD1:3189, V-A:TYR:539:CD2:4874, V-A:TYR:539:C:4867, V-A:ILE:538:C:4858, V-A:PRO:540:N:4884, V-A:ILE:538:CA:4860, V-A:TYR:531:CE2:4793, V-A:ASP:366:CG:3213, V-A:ASP:366:CB:3212, H-A:GLU:543:OE1:4909, V-A:GLU:543:CD:4908, H-B:TYR:484:OH:9320, V-A:GLU:543:CG:4907, V-A:LEU:363:CA:3185, V-B:HIS:456:CE1:9042, V-A:GLU:543:CB:4906, H-A:ASP:366:OD1:3214"]

$$$$
4bg_Grossjean_2025
     RDKit          3D

 25 27  0  0  0  0  0  0  0  0999 V2000
  123.7400  132.4910   62.1790 C   0  0  0  0  0  0  0  0  0  0  0  0
  124.2280  131.4210   61.2190 C   0  0  0  0  0  0  0  0  0  0  0  0
  123.9850  131.5190   59.8520 C   0  0  0  0  0  0  0  0  0  0  0  0
  124.4380  130.5190   58.9760 C   0  0  0  0  0  0  0  0  0  0  0  0
  124.1470  130.6700   57.4790 C   0  0  0  0  0  0  0  0  0  0  0  0
  123.7060  129.5430   56.9170 F   0  0  0  0  0  0  0  0  0  0  0  0
  123.2100  131.6010   57.2940 F   0  0  0  0  0  0  0  0  0  0  0  0
  125.2570  131.0300   56.8360 F   0  0  0  0  0  0  0  0  0  0  0  0
  125.1460  129.4220   59.5490 C   0  0  0  0  0  0  0  0  0  0  0  0
  125.7410  128.2350   58.9850 C   0  0  0  0  0  0  0  0  0  0  0  0
  125.6970  127.9480   57.6440 N   0  0  0  0  0  0  0  0  0  0  0  0
  126.3750  127.4100   59.9270 C   0  0  0  0  0  0  0  0  0  0  0  0
  127.0460  126.1280   59.7110 C   0  0  0  0  0  0  0  0  0  0  0  0
  128.2740  126.0440   59.6750 O   0  0  0  0  0  0  0  0  0  0  0  0
  126.2400  125.0520   59.5950 N   0  0  0  0  0  0  0  0  0  0  0  0
  126.6870  123.6790   59.3610 C   0  0  0  0  0  0  0  0  0  0  0  0
  126.4810  123.2070   57.9280 C   0  0  0  0  0  0  0  0  0  0  0  0
  125.1900  122.9860   57.4410 C   0  0  0  0  0  0  0  0  0  0  0  0
  125.0030  122.5910   56.1190 C   0  0  0  0  0  0  0  0  0  0  0  0
  126.1070  122.4320   55.2830 C   0  0  0  0  0  0  0  0  0  0  0  0
  127.3950  122.6670   55.7570 C   0  0  0  0  0  0  0  0  0  0  0  0
  127.5830  123.0600   57.0800 C   0  0  0  0  0  0  0  0  0  0  0  0
  126.2200  128.0600   61.5570 S   0  0  0  0  0  0  0  0  0  0  0  0
  125.3340  129.4460   60.9660 C   0  0  0  0  0  0  0  0  0  0  0  0
  124.9000  130.3970   61.7930 N   0  0  0  0  0  0  0  0  0  0  0  0
  1  2  1  0
  2  3  2  0
  3  4  1  0
  4  5  1  0
  5  6  1  0
  5  7  1  0
  5  8  1  0
  4  9  2  0
  9 10  1  0
 10 11  1  0
 10 12  2  0
 12 13  1  0
 13 14  2  0
 13 15  1  0
 15 16  1  0
 16 17  1  0
 17 18  2  0
 18 19  1  0
 19 20  2  0
 20 21  1  0
 21 22  2  0
 12 23  1  0
 23 24  1  0
 24 25  2  0
 25  2  1  0
 24  9  1  0
 22 17  1  0
M  END
>  <Binding energies>  (29) 
[-6.61]

>  <Ligand effiencies>  (29) 
[-0.23607142857142857]

>  <Interactions>  (29) 
["V-B:TYR:539:CZ:9849, V-B:PRO:540:N:9856, V-B:PRO:540:CD:9859, V-B:PRO:540:CB:9857, V-B:TYR:539:CG:9844, V-B:PRO:540:CA:9855, V-B:LEU:363:CD1:8161, V-B:TYR:539:CE2:9848, V-B:TYR:539:CD2:9846, V-B:TYR:531:CE1:9764, V-B:ASP:366:CG:8185, V-B:ILE:369:CG2:8209, V-A:TYR:539:CE1:4875, V-A:TYR:539:CZ:4877, V-B:LEU:475:CD2:9231, V-B:GLY:454:CA:9021, V-B:ASP:366:CA:8182, V-B:ILE:369:CD1:8211, V-B:ASP:366:C:8180, V-B:ASP:366:CB:8184, V-B:MET:535:CE:9807, V-B:TYR:531:CZ:9766, H-B:TYR:531:OH:9767, V-B:TYR:531:CE2:9765, V-B:TYR:539:CE1:9847, V-B:TYR:539:CD1:9845, V-B:ILE:538:CD1:9837, V-B:ILE:538:CG2:9835, V-B:ILE:538:CA:9832, H-B:ASP:366:OD2:8187, V-B:ILE:369:CB:8208, V-B:ILE:538:C:9830, V-B:ILE:538:CB:9834, V-B:ILE:369:C:8204"]

$$$$
4ca_Grossjean_2025
     RDKit          3D

 34 37  0  0  0  0  0  0  0  0999 V2000
  124.0590  133.8960   60.8760 C   0  0  0  0  0  0  0  0  0  0  0  0
  124.9010  132.9470   61.7340 C   0  0  0  0  0  0  0  0  0  0  0  0
  124.0760  132.3480   62.7250 O   0  0  0  0  0  0  0  0  0  0  0  0
  123.5210  131.1230   62.5290 C   0  0  0  0  0  0  0  0  0  0  0  0
  122.3080  130.9420   62.3850 O   0  0  0  0  0  0  0  0  0  0  0  0
  124.5310  130.0130   62.5030 C   0  0  0  0  0  0  0  0  0  0  0  0
  124.8710  129.4270   61.2760 C   0  0  0  0  0  0  0  0  0  0  0  0
  125.8070  128.3980   61.2190 C   0  0  0  0  0  0  0  0  0  0  0  0
  126.4160  127.9300   62.3830 C   0  0  0  0  0  0  0  0  0  0  0  0
  127.3540  126.8930   62.2090 N   0  0  0  0  0  0  0  0  0  0  0  0
  128.6910  126.9530   61.9910 C   0  0  0  0  0  0  0  0  0  0  0  0
  129.3390  127.9990   61.9570 O   0  0  0  0  0  0  0  0  0  0  0  0
  129.3530  125.6600   61.8100 C   0  0  0  0  0  0  0  0  0  0  0  0
  128.3990  124.2090   61.5130 S   0  0  0  0  0  0  0  0  0  0  0  0
  129.8420  123.2320   61.3820 C   0  0  0  0  0  0  0  0  0  0  0  0
  129.7750  121.9260   61.1360 N   0  0  0  0  0  0  0  0  0  0  0  0
  130.9490  121.2510   61.0360 C   0  0  0  0  0  0  0  0  0  0  0  0
  130.8410  119.7820   60.7490 C   0  0  0  0  0  0  0  0  0  0  0  0
  129.8550  118.9980   61.3710 C   0  0  0  0  0  0  0  0  0  0  0  0
  129.7540  117.6340   61.1130 C   0  0  0  0  0  0  0  0  0  0  0  0
  130.6400  117.0300   60.2270 C   0  0  0  0  0  0  0  0  0  0  0  0
  131.6280  117.7820   59.6000 C   0  0  0  0  0  0  0  0  0  0  0  0
  131.7270  119.1460   59.8600 C   0  0  0  0  0  0  0  0  0  0  0  0
  132.1840  121.8880   61.2060 C   0  0  0  0  0  0  0  0  0  0  0  0
  132.2650  123.2640   61.4700 C   0  0  0  0  0  0  0  0  0  0  0  0
  133.6500  123.8970   61.6420 C   0  0  0  0  0  0  0  0  0  0  0  0
  133.7410  124.6720   62.7250 F   0  0  0  0  0  0  0  0  0  0  0  0
  134.5730  122.9420   61.7560 F   0  0  0  0  0  0  0  0  0  0  0  0
  133.9330  124.6580   60.5840 F   0  0  0  0  0  0  0  0  0  0  0  0
  131.0390  123.9840   61.5590 C   0  0  0  0  0  0  0  0  0  0  0  0
  130.7290  125.3720   61.8010 C   0  0  0  0  0  0  0  0  0  0  0  0
  131.6960  126.3230   62.0050 N   0  0  0  0  0  0  0  0  0  0  0  0
  126.0860  128.5130   63.6150 C   0  0  0  0  0  0  0  0  0  0  0  0
  125.1510  129.5440   63.6710 C   0  0  0  0  0  0  0  0  0  0  0  0
  1  2  1  0
  2  3  1  0
  3  4  1  0
  4  5  2  0
  4  6  1  0
  6  7  2  0
  7  8  1  0
  8  9  2  0
  9 10  1  0
 10 11  1  0
 11 12  2  0
 11 13  1  0
 13 14  1  0
 14 15  1  0
 15 16  2  0
 16 17  1  0
 17 18  1  0
 18 19  2  0
 19 20  1  0
 20 21  2  0
 21 22  1  0
 22 23  2  0
 17 24  2  0
 24 25  1  0
 25 26  1  0
 26 27  1  0
 26 28  1  0
 26 29  1  0
 25 30  2  0
 30 31  1  0
 31 32  1  0
  9 33  1  0
 33 34  2  0
 34  6  1  0
 31 13  2  0
 30 15  1  0
 23 18  1  0
M  END
>  <Binding energies>  (30) 
[-7.33]

>  <Ligand effiencies>  (30) 
[-0.1981081081081081]

>  <Interactions>  (30) 
["V-B:TYR:539:C:9839, V-A:LEU:475:CD1:4258, V-A:PRO:482:CB:4326, V-B:TYR:539:CG:9844, V-A:LEU:475:CD2:4259, V-B:ALA:541:CB:9864, V-B:TYR:539:CE2:9848, V-B:TYR:539:CD2:9846, V-A:PRO:482:CG:4327, V-A:SER:385:CB:3409, V-B:ASP:366:CG:8185, V-B:ARG:545:CZ:9898, V-B:ILE:369:CG2:8209, V-B:LEU:475:CD2:9231, V-B:GLY:454:CA:9021, V-B:ILE:369:CD1:8211, V-A:ASP:366:CG:3213, V-A:ASP:366:CA:3210, V-A:ASP:366:CB:3212, H-A:GLU:543:OE1:4909, V-A:GLU:543:CD:4908, V-B:GLU:543:CD:9880, H-B:GLU:543:OE1:9881, V-B:GLY:453:C:9014, H-B:GLY:454:N:9022, V-A:GLY:454:CA:4049, V-A:ILE:369:CD1:3239, V-A:ARG:545:CZ:4926, V-B:GLY:453:CA:9016, V-A:GLY:453:CA:4044, V-B:TYR:539:CB:9843, H-A:ASP:366:OD1:3214, H-B:GLU:543:OE2:9882, H-A:ASP:366:OD2:3215, H-A:GLU:543:OE2:4910, V-A:GLY:453:C:4042"]

$$$$
4cb_Grossjean_2025
     RDKit          3D

 33 36  0  0  0  0  0  0  0  0999 V2000
  126.0090  139.4050   62.6360 C   0  0  0  0  0  0  0  0  0  0  0  0
  126.3890  138.0620   62.3680 O   0  0  0  0  0  0  0  0  0  0  0  0
  126.7600  137.6770   61.1200 C   0  0  0  0  0  0  0  0  0  0  0  0
  127.1000  138.4680   60.2350 O   0  0  0  0  0  0  0  0  0  0  0  0
  126.7150  136.1880   60.9210 C   0  0  0  0  0  0  0  0  0  0  0  0
  127.8440  135.4220   61.2380 C   0  0  0  0  0  0  0  0  0  0  0  0
  127.8320  134.0400   61.0720 C   0  0  0  0  0  0  0  0  0  0  0  0
  126.6950  133.3970   60.5810 C   0  0  0  0  0  0  0  0  0  0  0  0
  126.7870  131.9960   60.4680 N   0  0  0  0  0  0  0  0  0  0  0  0
  127.2120  131.0740   61.3650 C   0  0  0  0  0  0  0  0  0  0  0  0
  127.5630  131.3380   62.5160 O   0  0  0  0  0  0  0  0  0  0  0  0
  127.2130  129.6890   60.8860 C   0  0  0  0  0  0  0  0  0  0  0  0
  126.1040  129.1910   59.6100 S   0  0  0  0  0  0  0  0  0  0  0  0
  126.7490  127.5660   59.6200 C   0  0  0  0  0  0  0  0  0  0  0  0
  126.2820  126.6280   58.8010 N   0  0  0  0  0  0  0  0  0  0  0  0
  126.8530  125.3970   58.8740 C   0  0  0  0  0  0  0  0  0  0  0  0
  126.3090  124.3620   57.9340 C   0  0  0  0  0  0  0  0  0  0  0  0
  124.9890  123.9000   58.0600 C   0  0  0  0  0  0  0  0  0  0  0  0
  124.4790  122.9370   57.1930 C   0  0  0  0  0  0  0  0  0  0  0  0
  125.2850  122.4200   56.1850 C   0  0  0  0  0  0  0  0  0  0  0  0
  126.5980  122.8580   56.0390 C   0  0  0  0  0  0  0  0  0  0  0  0
  127.1030  123.8190   56.9090 C   0  0  0  0  0  0  0  0  0  0  0  0
  127.8760  125.1110   59.7860 C   0  0  0  0  0  0  0  0  0  0  0  0
  128.3730  126.0930   60.6560 C   0  0  0  0  0  0  0  0  0  0  0  0
  129.4960  125.7110   61.6290 C   0  0  0  0  0  0  0  0  0  0  0  0
  130.6010  126.4430   61.4640 F   0  0  0  0  0  0  0  0  0  0  0  0
  129.0840  125.8880   62.8840 F   0  0  0  0  0  0  0  0  0  0  0  0
  129.8330  124.4340   61.4520 F   0  0  0  0  0  0  0  0  0  0  0  0
  127.7920  127.3910   60.5760 C   0  0  0  0  0  0  0  0  0  0  0  0
  128.0400  128.6250   61.2820 C   0  0  0  0  0  0  0  0  0  0  0  0
  128.9990  128.7410   62.2560 N   0  0  0  0  0  0  0  0  0  0  0  0
  125.5590  134.1560   60.2650 C   0  0  0  0  0  0  0  0  0  0  0  0
  125.5730  135.5370   60.4320 C   0  0  0  0  0  0  0  0  0  0  0  0
  1  2  1  0
  2  3  1  0
  3  4  2  0
  3  5  1  0
  5  6  2  0
  6  7  1  0
  7  8  2  0
  8  9  1  0
  9 10  1  0
 10 11  2  0
 10 12  1  0
 12 13  1  0
 13 14  1  0
 14 15  2  0
 15 16  1  0
 16 17  1  0
 17 18  2  0
 18 19  1  0
 19 20  2  0
 20 21  1  0
 21 22  2  0
 16 23  2  0
 23 24  1  0
 24 25  1  0
 25 26  1  0
 25 27  1  0
 25 28  1  0
 24 29  2  0
 29 30  1  0
 30 31  1  0
  8 32  1  0
 32 33  2  0
 33  5  1  0
 30 12  2  0
 29 14  1  0
 22 17  1  0
M  END
>  <Binding energies>  (31) 
[-7.13]

>  <Ligand effiencies>  (31) 
[-0.19805555555555554]

>  <Interactions>  (31) 
["V-B:PRO:540:N:9856, V-B:PRO:540:CD:9859, V-B:PRO:540:CB:9857, V-B:PRO:540:CA:9855, V-B:LEU:363:CD1:8161, V-B:ASP:366:CG:8185, V-A:TYR:539:CE1:4875, V-A:TYR:539:CD1:4873, V-B:LEU:475:CD2:9231, V-A:TYR:539:C:4867, V-B:MET:535:CE:9807, H-B:TYR:531:OH:9767, V-B:TYR:531:CE2:9765, V-B:ILE:538:CD1:9837, V-B:ILE:538:CG2:9835, V-B:ILE:538:CA:9832, V-A:ALA:541:CB:4892, H-A:GLU:543:OE1:4909, V-A:GLU:543:CD:4908, V-A:PRO:540:C:4881, V-B:GLU:543:CD:9880, V-B:PRO:482:CG:9299, V-B:PRO:482:CB:9298, V-B:SER:385:CB:8381, V-B:PRO:540:CG:9858, H-A:GLU:543:OE2:4910, H-B:SER:385:OG:8382, V-B:LEU:475:CG:9229, H-B:HIS:383:NE2:8366, V-B:HIS:383:CE1:8365"]

$$$$
4cc_Grossjean_2025
     RDKit          3D

 31 34  0  0  0  0  0  0  0  0999 V2000
  123.7790  132.0970   62.1640 C   0  0  0  0  0  0  0  0  0  0  0  0
  123.8060  131.1320   63.2090 O   0  0  0  0  0  0  0  0  0  0  0  0
  124.7070  130.0870   63.1390 C   0  0  0  0  0  0  0  0  0  0  0  0
  125.0270  129.6250   61.8620 C   0  0  0  0  0  0  0  0  0  0  0  0
  125.9270  128.5770   61.6920 C   0  0  0  0  0  0  0  0  0  0  0  0
  126.5140  127.9670   62.8020 C   0  0  0  0  0  0  0  0  0  0  0  0
  127.4220  126.9270   62.5310 N   0  0  0  0  0  0  0  0  0  0  0  0
  128.7060  127.0000   62.1040 C   0  0  0  0  0  0  0  0  0  0  0  0
  129.3100  128.0570   61.9160 O   0  0  0  0  0  0  0  0  0  0  0  0
  129.3660  125.7120   61.8690 C   0  0  0  0  0  0  0  0  0  0  0  0
  128.4060  124.2600   61.5890 S   0  0  0  0  0  0  0  0  0  0  0  0
  129.8470  123.2880   61.4110 C   0  0  0  0  0  0  0  0  0  0  0  0
  129.7770  121.9820   61.1620 N   0  0  0  0  0  0  0  0  0  0  0  0
  130.9510  121.3120   61.0300 C   0  0  0  0  0  0  0  0  0  0  0  0
  130.8410  119.8400   60.7520 C   0  0  0  0  0  0  0  0  0  0  0  0
  129.8480  119.0650   61.3710 C   0  0  0  0  0  0  0  0  0  0  0  0
  129.7410  117.6990   61.1200 C   0  0  0  0  0  0  0  0  0  0  0  0
  130.6300  117.0880   60.2430 C   0  0  0  0  0  0  0  0  0  0  0  0
  131.6260  117.8320   59.6180 C   0  0  0  0  0  0  0  0  0  0  0  0
  131.7300  119.1970   59.8740 C   0  0  0  0  0  0  0  0  0  0  0  0
  132.1870  121.9510   61.1650 C   0  0  0  0  0  0  0  0  0  0  0  0
  132.2720  123.3280   61.4300 C   0  0  0  0  0  0  0  0  0  0  0  0
  133.6600  123.9650   61.5600 C   0  0  0  0  0  0  0  0  0  0  0  0
  133.7630  124.7890   62.6060 F   0  0  0  0  0  0  0  0  0  0  0  0
  134.5810  123.0130   61.7110 F   0  0  0  0  0  0  0  0  0  0  0  0
  133.9350  124.6730   60.4650 F   0  0  0  0  0  0  0  0  0  0  0  0
  131.0470  124.0430   61.5610 C   0  0  0  0  0  0  0  0  0  0  0  0
  130.7400  125.4270   61.8270 C   0  0  0  0  0  0  0  0  0  0  0  0
  131.7100  126.3780   62.0180 N   0  0  0  0  0  0  0  0  0  0  0  0
  126.2070  128.4340   64.0890 C   0  0  0  0  0  0  0  0  0  0  0  0
  125.3070  129.4830   64.2540 C   0  0  0  0  0  0  0  0  0  0  0  0
  1  2  1  0
  2  3  1  0
  3  4  2  0
  4  5  1  0
  5  6  2  0
  6  7  1  0
  7  8  1  0
  8  9  2  0
  8 10  1  0
 10 11  1  0
 11 12  1  0
 12 13  2  0
 13 14  1  0
 14 15  1  0
 15 16  2  0
 16 17  1  0
 17 18  2  0
 18 19  1  0
 19 20  2  0
 14 21  2  0
 21 22  1  0
 22 23  1  0
 23 24  1  0
 23 25  1  0
 23 26  1  0
 22 27  2  0
 27 28  1  0
 28 29  1  0
  6 30  1  0
 30 31  2  0
 31  3  1  0
 28 10  2  0
 27 12  1  0
 20 15  1  0
M  END
>  <Binding energies>  (32) 
[-7.47]

>  <Ligand effiencies>  (32) 
[-0.21970588235294117]

>  <Interactions>  (32) 
["V-B:TYR:539:C:9839, V-A:LEU:475:CD1:4258, V-A:PRO:482:CB:4326, V-B:TYR:539:CG:9844, V-A:LEU:475:CD2:4259, V-B:ALA:541:CB:9864, V-B:TYR:539:CE2:9848, V-B:TYR:539:CD2:9846, V-A:PRO:482:CG:4327, V-A:SER:385:CB:3409, V-B:ASP:366:CG:8185, V-B:ARG:545:CZ:9898, V-B:GLY:454:CA:9021, V-B:ILE:369:CD1:8211, V-A:ASP:366:CG:3213, V-A:ASP:366:CA:3210, V-A:ASP:366:CB:3212, H-A:GLU:543:OE1:4909, V-A:GLU:543:CD:4908, V-B:GLU:543:CD:9880, H-B:GLU:543:OE1:9881, H-B:GLY:454:N:9022, V-A:GLY:454:CA:4049, V-A:ILE:369:CD1:3239, H-B:TYR:484:OH:9320, V-A:ARG:545:CZ:4926, V-A:GLY:453:CA:4044, V-B:TYR:539:CB:9843, H-A:ASP:366:OD1:3214, H-B:GLU:543:OE2:9882, H-A:ASP:366:OD2:3215, H-A:GLU:543:OE2:4910, V-A:ILE:369:CG1:3238, V-A:GLY:453:C:4042"]

$$$$
4ce_Grossjean_2025
     RDKit          3D

 30 33  0  0  0  0  0  0  0  0999 V2000
  123.9980  130.4050   61.1100 C   0  0  0  0  0  0  0  0  0  0  0  0
  124.7320  129.7550   62.2670 C   0  0  0  0  0  0  0  0  0  0  0  0
  124.5000  130.1420   63.5900 C   0  0  0  0  0  0  0  0  0  0  0  0
  125.2060  129.4940   64.6040 C   0  0  0  0  0  0  0  0  0  0  0  0
  126.1150  128.4860   64.2770 C   0  0  0  0  0  0  0  0  0  0  0  0
  126.3040  128.1520   62.9310 C   0  0  0  0  0  0  0  0  0  0  0  0
  127.2150  127.1130   62.6670 N   0  0  0  0  0  0  0  0  0  0  0  0
  128.4970  127.1980   62.2310 C   0  0  0  0  0  0  0  0  0  0  0  0
  129.0750  128.2640   62.0120 O   0  0  0  0  0  0  0  0  0  0  0  0
  129.1800  125.9180   62.0310 C   0  0  0  0  0  0  0  0  0  0  0  0
  128.2470  124.4380   61.8280 S   0  0  0  0  0  0  0  0  0  0  0  0
  129.7040  123.4950   61.6210 C   0  0  0  0  0  0  0  0  0  0  0  0
  129.6560  122.1830   61.4050 N   0  0  0  0  0  0  0  0  0  0  0  0
  130.8410  121.5380   61.2410 C   0  0  0  0  0  0  0  0  0  0  0  0
  130.7530  120.0610   60.9950 C   0  0  0  0  0  0  0  0  0  0  0  0
  131.6680  119.4200   60.1430 C   0  0  0  0  0  0  0  0  0  0  0  0
  131.5880  118.0510   59.9040 C   0  0  0  0  0  0  0  0  0  0  0  0
  130.5900  117.3000   60.5170 C   0  0  0  0  0  0  0  0  0  0  0  0
  129.6710  117.9100   61.3640 C   0  0  0  0  0  0  0  0  0  0  0  0
  129.7520  119.2800   61.5980 C   0  0  0  0  0  0  0  0  0  0  0  0
  132.0660  122.2090   61.3150 C   0  0  0  0  0  0  0  0  0  0  0  0
  132.1270  123.5920   61.5470 C   0  0  0  0  0  0  0  0  0  0  0  0
  133.5020  124.2650   61.6150 C   0  0  0  0  0  0  0  0  0  0  0  0
  133.6380  125.0750   62.6660 F   0  0  0  0  0  0  0  0  0  0  0  0
  134.4550  123.3350   61.7010 F   0  0  0  0  0  0  0  0  0  0  0  0
  133.7000  124.9960   60.5190 F   0  0  0  0  0  0  0  0  0  0  0  0
  130.8900  124.2820   61.7050 C   0  0  0  0  0  0  0  0  0  0  0  0
  130.5590  125.6660   61.9430 C   0  0  0  0  0  0  0  0  0  0  0  0
  131.5110  126.6450   62.0690 N   0  0  0  0  0  0  0  0  0  0  0  0
  125.6140  128.7780   61.9330 N   0  0  0  0  0  0  0  0  0  0  0  0
  1  2  1  0
  2  3  2  0
  3  4  1  0
  4  5  2  0
  5  6  1  0
  6  7  1  0
  7  8  1  0
  8  9  2  0
  8 10  1  0
 10 11  1  0
 11 12  1  0
 12 13  2  0
 13 14  1  0
 14 15  1  0
 15 16  2  0
 16 17  1  0
 17 18  2  0
 18 19  1  0
 19 20  2  0
 14 21  2  0
 21 22  1  0
 22 23  1  0
 23 24  1  0
 23 25  1  0
 23 26  1  0
 22 27  2  0
 27 28  1  0
 28 29  1  0
  6 30  2  0
 30  2  1  0
 28 10  2  0
 27 12  1  0
 20 15  1  0
M  END
>  <Binding energies>  (33) 
[-7.43]

>  <Ligand effiencies>  (33) 
[-0.22515151515151513]

>  <Interactions>  (33) 
["V-A:LEU:475:CD1:4258, V-A:PRO:482:CB:4326, V-A:LEU:475:CD2:4259, V-B:ALA:541:CB:9864, V-B:TYR:539:CE2:9848, V-B:TYR:539:CD2:9846, V-A:PRO:482:CG:4327, V-A:SER:385:CB:3409, V-B:ASP:366:CG:8185, V-B:ARG:545:CZ:9898, V-A:ASP:366:CG:3213, V-A:ASP:366:CA:3210, V-A:ASP:366:CB:3212, H-A:GLU:543:OE1:4909, V-A:GLU:543:CD:4908, V-B:GLU:543:CD:9880, H-B:GLU:543:OE1:9881, H-B:ARG:545:NH2:9900, V-A:GLY:454:CA:4049, V-A:ILE:369:CD1:3239, V-A:ARG:545:CZ:4926, V-A:LEU:475:CG:4257, V-A:GLY:453:CA:4044, H-A:ASP:366:OD1:3214, H-B:GLU:543:OE2:9882, H-A:ASP:366:OD2:3215, H-A:GLU:543:OE2:4910, V-A:GLY:453:C:4042"]

$$$$
4cf_Grossjean_2025
     RDKit          3D

 29 32  0  0  0  0  0  0  0  0999 V2000
  127.1890  127.3070   63.1740 N   0  0  0  0  0  0  0  0  0  0  0  0
  127.7830  128.2300   62.3520 C   0  0  0  0  0  0  0  0  0  0  0  0
  128.9040  127.9420   61.5560 C   0  0  0  0  0  0  0  0  0  0  0  0
  129.6600  126.6910   61.4620 C   0  0  0  0  0  0  0  0  0  0  0  0
  129.0840  125.6250   61.2370 O   0  0  0  0  0  0  0  0  0  0  0  0
  131.0000  126.8080   61.6240 N   0  0  0  0  0  0  0  0  0  0  0  0
  131.9940  125.8110   61.6420 C   0  0  0  0  0  0  0  0  0  0  0  0
  132.5170  125.1590   60.5090 C   0  0  0  0  0  0  0  0  0  0  0  0
  133.4930  124.1730   60.6690 C   0  0  0  0  0  0  0  0  0  0  0  0
  133.9230  123.8610   61.9590 C   0  0  0  0  0  0  0  0  0  0  0  0
  133.4300  124.4680   63.0670 N   0  0  0  0  0  0  0  0  0  0  0  0
  132.4800  125.4240   62.8960 C   0  0  0  0  0  0  0  0  0  0  0  0
  129.4000  129.3520   60.6230 S   0  0  0  0  0  0  0  0  0  0  0  0
  128.1130  130.3150   61.3090 C   0  0  0  0  0  0  0  0  0  0  0  0
  127.9470  131.5940   60.9750 N   0  0  0  0  0  0  0  0  0  0  0  0
  126.9280  132.2640   61.5740 C   0  0  0  0  0  0  0  0  0  0  0  0
  126.7710  133.7050   61.1830 C   0  0  0  0  0  0  0  0  0  0  0  0
  127.8170  134.6200   61.3760 C   0  0  0  0  0  0  0  0  0  0  0  0
  127.6800  135.9580   61.0160 C   0  0  0  0  0  0  0  0  0  0  0  0
  126.4880  136.4000   60.4520 C   0  0  0  0  0  0  0  0  0  0  0  0
  125.4350  135.5150   60.2460 C   0  0  0  0  0  0  0  0  0  0  0  0
  125.5780  134.1780   60.6080 C   0  0  0  0  0  0  0  0  0  0  0  0
  126.0680  131.6440   62.4840 C   0  0  0  0  0  0  0  0  0  0  0  0
  126.2310  130.2960   62.8390 C   0  0  0  0  0  0  0  0  0  0  0  0
  125.2550  129.6790   63.8480 C   0  0  0  0  0  0  0  0  0  0  0  0
  125.8680  129.0450   64.8500 F   0  0  0  0  0  0  0  0  0  0  0  0
  124.4980  130.6360   64.3860 F   0  0  0  0  0  0  0  0  0  0  0  0
  124.4720  128.7910   63.2350 F   0  0  0  0  0  0  0  0  0  0  0  0
  127.3080  129.5870   62.2320 C   0  0  0  0  0  0  0  0  0  0  0  0
  1  2  1  0
  2  3  2  0
  3  4  1  0
  4  5  2  0
  4  6  1  0
  6  7  1  0
  7  8  2  0
  8  9  1  0
  9 10  2  0
 10 11  1  0
 11 12  2  0
  3 13  1  0
 13 14  1  0
 14 15  2  0
 15 16  1  0
 16 17  1  0
 17 18  2  0
 18 19  1  0
 19 20  2  0
 20 21  1  0
 21 22  2  0
 16 23  2  0
 23 24  1  0
 24 25  1  0
 25 26  1  0
 25 27  1  0
 25 28  1  0
 24 29  2  0
 29  2  1  0
 12  7  1  0
 29 14  1  0
 22 17  1  0
M  END
>  <Binding energies>  (34) 
[-7.31]

>  <Ligand effiencies>  (34) 
[-0.2284375]

>  <Interactions>  (34) 
["H-A:TYR:484:OH:4348, H-A:GLY:454:N:4050, V-B:ASP:366:CG:8185, V-B:ARG:545:CZ:9898, V-A:TYR:539:CE1:4875, V-A:TYR:539:CD1:4873, V-B:LEU:475:CD2:9231, V-B:GLY:454:CA:9021, V-A:TYR:539:C:4867, V-A:ASP:366:CG:3213, V-A:ALA:541:CB:4892, H-A:GLU:543:OE1:4909, V-A:GLU:543:CD:4908, V-B:GLU:543:CD:9880, H-B:GLU:543:OE1:9881, V-B:GLY:453:C:9014, V-A:GLY:454:CA:4049, V-A:ILE:369:CD1:3239, V-A:ARG:545:CZ:4926, V-B:PRO:482:CG:9299, V-B:PRO:482:CB:9298, V-B:TYR:484:CZ:9319, H-A:ASP:366:OD1:3214, H-B:GLU:543:OE2:9882, H-A:GLU:543:OE2:4910, V-A:GLY:453:C:4042"]

$$$$
4ci_Grossjean_2025
     RDKit          3D

 28 31  0  0  0  0  0  0  0  0999 V2000
  131.4170  127.3770   60.9790 N   0  0  0  0  0  0  0  0  0  0  0  0
  131.0520  126.0830   60.7160 C   0  0  0  0  0  0  0  0  0  0  0  0
  131.6670  124.9720   61.3170 C   0  0  0  0  0  0  0  0  0  0  0  0
  132.7530  124.9510   62.3010 C   0  0  0  0  0  0  0  0  0  0  0  0
  133.9140  124.7270   61.9510 O   0  0  0  0  0  0  0  0  0  0  0  0
  132.3820  125.1800   63.5850 N   0  0  0  0  0  0  0  0  0  0  0  0
  133.1980  125.2130   64.7090 C   0  0  0  0  0  0  0  0  0  0  0  0
  132.7130  125.4310   65.9980 C   0  0  0  0  0  0  0  0  0  0  0  0
  133.8220  125.3910   66.8100 C   0  0  0  0  0  0  0  0  0  0  0  0
  134.9200  125.1600   66.0490 O   0  0  0  0  0  0  0  0  0  0  0  0
  134.5100  125.0500   64.7190 N   0  0  0  0  0  0  0  0  0  0  0  0
  130.9440  123.4650   60.7600 S   0  0  0  0  0  0  0  0  0  0  0  0
  129.8330  124.3280   59.7230 C   0  0  0  0  0  0  0  0  0  0  0  0
  128.9440  123.6860   58.9690 N   0  0  0  0  0  0  0  0  0  0  0  0
  128.1200  124.4420   58.1980 C   0  0  0  0  0  0  0  0  0  0  0  0
  127.1310  123.6890   57.3550 C   0  0  0  0  0  0  0  0  0  0  0  0
  125.8050  123.5130   57.7830 C   0  0  0  0  0  0  0  0  0  0  0  0
  124.8840  122.8170   57.0050 C   0  0  0  0  0  0  0  0  0  0  0  0
  125.2780  122.2820   55.7830 C   0  0  0  0  0  0  0  0  0  0  0  0
  126.5850  122.4360   55.3360 C   0  0  0  0  0  0  0  0  0  0  0  0
  127.5030  123.1320   56.1180 C   0  0  0  0  0  0  0  0  0  0  0  0
  128.2050  125.8380   58.1760 C   0  0  0  0  0  0  0  0  0  0  0  0
  129.1390  126.5260   58.9680 C   0  0  0  0  0  0  0  0  0  0  0  0
  129.1770  128.0570   58.8950 C   0  0  0  0  0  0  0  0  0  0  0  0
  128.3150  128.5600   58.0090 F   0  0  0  0  0  0  0  0  0  0  0  0
  128.8710  128.5710   60.0860 F   0  0  0  0  0  0  0  0  0  0  0  0
  130.3970  128.4610   58.5410 F   0  0  0  0  0  0  0  0  0  0  0  0
  129.9990  125.7430   59.7890 C   0  0  0  0  0  0  0  0  0  0  0  0
  1  2  1  0
  2  3  2  0
  3  4  1  0
  4  5  2  0
  4  6  1  0
  6  7  1  0
  7  8  1  0
  8  9  2  0
  9 10  1  0
 10 11  1  0
  3 12  1  0
 12 13  1  0
 13 14  2  0
 14 15  1  0
 15 16  1  0
 16 17  2  0
 17 18  1  0
 18 19  2  0
 19 20  1  0
 20 21  2  0
 15 22  2  0
 22 23  1  0
 23 24  1  0
 24 25  1  0
 24 26  1  0
 24 27  1  0
 23 28  2  0
 28  2  1  0
 11  7  2  0
 28 13  1  0
 21 16  1  0
M  END
>  <Binding energies>  (35) 
[-7.84]

>  <Ligand effiencies>  (35) 
[-0.2529032258064516]

>  <Interactions>  (35) 
["V-B:TYR:539:CZ:9849, V-B:PRO:540:N:9856, V-B:PRO:540:CD:9859, H-A:TYR:484:OH:4348, V-B:PRO:540:CB:9857, V-B:PRO:540:CA:9855, H-A:GLY:454:N:4050, V-B:LEU:363:CD1:8161, V-B:TYR:539:CE2:9848, V-B:MET:535:CE:9807, V-B:TYR:539:CE1:9847, V-A:ASP:366:CG:3213, V-B:TYR:539:CD1:9845, V-B:ILE:538:CD1:9837, V-B:ILE:538:CG2:9835, V-B:ILE:538:CA:9832, H-A:GLU:543:OE1:4909, V-A:TYR:484:CZ:4347, V-A:ARG:545:CZ:4926, V-A:TYR:484:CE2:4346, V-B:ILE:538:C:9830, H-A:ARG:545:NH2:4928, V-B:ILE:538:CB:9834, H-A:ARG:545:NE:4924, H-A:ASP:366:OD1:3214, V-B:PRO:540:CG:9858, H-A:ASP:366:OD2:3215, H-A:GLU:543:OE2:4910, V-A:ARG:545:CD:4923, V-A:HIS:456:CE1:4070, V-A:ARG:545:CG:4922, H-A:ARG:545:NH1:4927, V-A:ILE:455:C:4052, H-A:ILE:455:N:4055, V-A:ARG:545:CB:4921"]

$$$$
8a_Ghoteimi_2023
     RDKit          3D

 40 44  0  0  0  0  0  0  0  0999 V2000
  130.2500  117.7010   60.6720 C   0  0  0  0  0  0  0  0  0  0  0  0
  131.4430  118.4870   60.1210 C   0  0  0  0  0  0  0  0  0  0  0  0
  131.3540  119.8410   60.5470 O   0  0  0  0  0  0  0  0  0  0  0  0
  132.3440  120.7300   60.2680 C   0  0  0  0  0  0  0  0  0  0  0  0
  133.4920  120.3940   59.9620 O   0  0  0  0  0  0  0  0  0  0  0  0
  131.9040  122.1610   60.3760 C   0  0  0  0  0  0  0  0  0  0  0  0
  130.5700  122.4430   60.6950 C   0  0  0  0  0  0  0  0  0  0  0  0
  130.1300  123.7600   60.8010 C   0  0  0  0  0  0  0  0  0  0  0  0
  131.0120  124.8210   60.5890 C   0  0  0  0  0  0  0  0  0  0  0  0
  130.4540  126.1090   60.7180 N   0  0  0  0  0  0  0  0  0  0  0  0
  130.5070  127.1740   59.8800 C   0  0  0  0  0  0  0  0  0  0  0  0
  131.0960  127.1790   58.8000 O   0  0  0  0  0  0  0  0  0  0  0  0
  129.7910  128.3670   60.3430 C   0  0  0  0  0  0  0  0  0  0  0  0
  129.7360  129.8180   59.3420 S   0  0  0  0  0  0  0  0  0  0  0  0
  128.7900  130.6670   60.5430 C   0  0  0  0  0  0  0  0  0  0  0  0
  128.4130  131.9340   60.3690 N   0  0  0  0  0  0  0  0  0  0  0  0
  127.6850  132.5020   61.3670 C   0  0  0  0  0  0  0  0  0  0  0  0
  127.2900  133.9300   61.1600 C   0  0  0  0  0  0  0  0  0  0  0  0
  128.2060  134.9710   61.3650 C   0  0  0  0  0  0  0  0  0  0  0  0
  127.8290  136.2980   61.1820 C   0  0  0  0  0  0  0  0  0  0  0  0
  126.5310  136.6180   60.7880 C   0  0  0  0  0  0  0  0  0  0  0  0
  126.2460  137.9620   60.6330 O   0  0  0  0  0  0  0  0  0  0  0  0
  126.3650  138.8290   61.7560 C   0  0  0  0  0  0  0  0  0  0  0  0
  125.6090  135.5840   60.5740 C   0  0  0  0  0  0  0  0  0  0  0  0
  125.9880  134.2570   60.7610 C   0  0  0  0  0  0  0  0  0  0  0  0
  127.3330  131.8050   62.5240 C   0  0  0  0  0  0  0  0  0  0  0  0
  127.7130  130.4710   62.7030 C   0  0  0  0  0  0  0  0  0  0  0  0
  127.2840  129.7660   63.9390 C   0  0  0  0  0  0  0  0  0  0  0  0
  125.9910  129.2490   64.0400 C   0  0  0  0  0  0  0  0  0  0  0  0
  125.5920  128.5700   65.1880 C   0  0  0  0  0  0  0  0  0  0  0  0
  126.4780  128.3910   66.2500 C   0  0  0  0  0  0  0  0  0  0  0  0
  125.9940  127.7050   67.3480 O   0  0  0  0  0  0  0  0  0  0  0  0
  126.8900  126.9200   68.1250 C   0  0  0  0  0  0  0  0  0  0  0  0
  127.7810  128.9030   66.1470 C   0  0  0  0  0  0  0  0  0  0  0  0
  128.1780  129.5810   64.9970 C   0  0  0  0  0  0  0  0  0  0  0  0
  128.4940  129.8610   61.6810 C   0  0  0  0  0  0  0  0  0  0  0  0
  129.0950  128.5570   61.5480 C   0  0  0  0  0  0  0  0  0  0  0  0
  129.0030  127.5990   62.5270 N   0  0  0  0  0  0  0  0  0  0  0  0
  132.3510  124.5470   60.2730 C   0  0  0  0  0  0  0  0  0  0  0  0
  132.7890  123.2300   60.1680 C   0  0  0  0  0  0  0  0  0  0  0  0
  1  2  1  0
  2  3  1  0
  3  4  1  0
  4  5  2  0
  4  6  1  0
  6  7  2  0
  7  8  1  0
  8  9  2  0
  9 10  1  0
 10 11  1  0
 11 12  2  0
 11 13  1  0
 13 14  1  0
 14 15  1  0
 15 16  2  0
 16 17  1  0
 17 18  1  0
 18 19  2  0
 19 20  1  0
 20 21  2  0
 21 22  1  0
 22 23  1  0
 21 24  1  0
 24 25  2  0
 17 26  2  0
 26 27  1  0
 27 28  1  0
 28 29  2  0
 29 30  1  0
 30 31  2  0
 31 32  1  0
 32 33  1  0
 31 34  1  0
 34 35  2  0
 27 36  2  0
 36 37  1  0
 37 38  1  0
  9 39  1  0
 39 40  2  0
 40  6  1  0
 37 13  2  0
 36 15  1  0
 25 18  1  0
 35 28  1  0
M  END
>  <Binding energies>  (36) 
[-7.64]

>  <Ligand effiencies>  (36) 
[-0.17767441860465116]

>  <Interactions>  (36) 
["V-A:PRO:482:CB:4326, V-A:LEU:475:CD2:4259, V-B:TYR:539:CE2:9848, V-B:TYR:539:CD2:9846, V-A:PRO:482:CG:4327, V-A:SER:385:CB:3409, V-B:ARG:545:CZ:9898, V-A:TYR:539:CD1:4873, V-B:LEU:475:CD2:9231, V-A:TYR:539:C:4867, V-A:ASP:366:CG:3213, V-A:ALA:541:CB:4892, H-A:GLU:543:OE1:4909, V-A:ILE:369:CG2:3237, V-A:GLU:543:CD:4908, V-A:ALA:541:CA:4890, V-A:PRO:540:C:4881, V-B:GLU:543:CD:9880, H-B:GLU:543:OE1:9881, V-B:ARG:545:CD:9895, V-A:GLU:543:CG:4907, V-B:PRO:482:CG:9299, V-B:PRO:482:CB:9298, V-B:SER:385:CB:8381, V-B:ARG:545:CG:9894, V-B:HIS:456:CE1:9042, V-A:GLU:543:CB:4906, H-B:GLU:543:OE2:9882, H-A:GLU:543:OE2:4910, V-B:HIS:383:CD2:8364, H-B:SER:385:OG:8382, V-B:LEU:475:CG:9229, H-B:HIS:383:NE2:8366, H-B:ARG:545:NE:9896, V-B:HIS:383:CE1:8365, V-B:GLU:543:CB:9878, H-B:HIS:456:ND1:9039"]

$$$$
8c_Ghoteimi_2023
     RDKit          3D

 34 38  0  0  0  0  0  0  0  0999 V2000
  127.2120  137.9480   59.8770 C   0  0  0  0  0  0  0  0  0  0  0  0
  126.0200  137.2880   60.2870 O   0  0  0  0  0  0  0  0  0  0  0  0
  126.0380  135.9190   60.4750 C   0  0  0  0  0  0  0  0  0  0  0  0
  127.2350  135.3680   60.9280 C   0  0  0  0  0  0  0  0  0  0  0  0
  127.3460  133.9970   61.1420 C   0  0  0  0  0  0  0  0  0  0  0  0
  126.2610  133.1410   60.9090 C   0  0  0  0  0  0  0  0  0  0  0  0
  126.3750  131.6660   61.1340 C   0  0  0  0  0  0  0  0  0  0  0  0
  126.5300  131.1250   62.4140 C   0  0  0  0  0  0  0  0  0  0  0  0
  126.6320  129.7420   62.5970 C   0  0  0  0  0  0  0  0  0  0  0  0
  126.8050  129.2020   63.9650 C   0  0  0  0  0  0  0  0  0  0  0  0
  125.7020  128.7300   64.6800 C   0  0  0  0  0  0  0  0  0  0  0  0
  125.8680  128.2140   65.9610 C   0  0  0  0  0  0  0  0  0  0  0  0
  127.1330  128.1650   66.5490 C   0  0  0  0  0  0  0  0  0  0  0  0
  127.2020  127.6350   67.8220 O   0  0  0  0  0  0  0  0  0  0  0  0
  128.3880  126.9630   68.2310 C   0  0  0  0  0  0  0  0  0  0  0  0
  128.2400  128.6440   65.8300 C   0  0  0  0  0  0  0  0  0  0  0  0
  128.0730  129.1590   64.5480 C   0  0  0  0  0  0  0  0  0  0  0  0
  126.5660  128.9100   61.4480 C   0  0  0  0  0  0  0  0  0  0  0  0
  126.6320  127.4830   61.2720 C   0  0  0  0  0  0  0  0  0  0  0  0
  126.7860  126.6180   62.3270 N   0  0  0  0  0  0  0  0  0  0  0  0
  126.5230  127.0690   59.9350 C   0  0  0  0  0  0  0  0  0  0  0  0
  126.5450  125.7070   59.3970 C   0  0  0  0  0  0  0  0  0  0  0  0
  127.2470  124.8360   59.9150 O   0  0  0  0  0  0  0  0  0  0  0  0
  125.7530  125.4960   58.3170 N   0  0  0  0  0  0  0  0  0  0  0  0
  125.5890  124.3060   57.6220 C   0  0  0  0  0  0  0  0  0  0  0  0
  124.5590  123.4880   57.6520 N   0  0  0  0  0  0  0  0  0  0  0  0
  124.7420  122.4500   56.8610 C   0  0  0  0  0  0  0  0  0  0  0  0
  125.9460  122.4090   56.1670 C   0  0  0  0  0  0  0  0  0  0  0  0
  126.8850  123.8130   56.5800 S   0  0  0  0  0  0  0  0  0  0  0  0
  126.3320  128.4500   58.8540 S   0  0  0  0  0  0  0  0  0  0  0  0
  126.4010  129.5690   60.1960 C   0  0  0  0  0  0  0  0  0  0  0  0
  126.3060  130.8870   60.0200 N   0  0  0  0  0  0  0  0  0  0  0  0
  125.0590  133.7030   60.4560 C   0  0  0  0  0  0  0  0  0  0  0  0
  124.9450  135.0730   60.2400 C   0  0  0  0  0  0  0  0  0  0  0  0
  1  2  1  0
  2  3  1  0
  3  4  2  0
  4  5  1  0
  5  6  2  0
  6  7  1  0
  7  8  2  0
  8  9  1  0
  9 10  1  0
 10 11  2  0
 11 12  1  0
 12 13  2  0
 13 14  1  0
 14 15  1  0
 13 16  1  0
 16 17  2  0
  9 18  2  0
 18 19  1  0
 19 20  1  0
 19 21  2  0
 21 22  1  0
 22 23  2  0
 22 24  1  0
 24 25  1  0
 25 26  2  0
 26 27  1  0
 27 28  2  0
 28 29  1  0
 21 30  1  0
 30 31  1  0
 31 32  2  0
  6 33  1  0
 33 34  2  0
 34  3  1  0
 32  7  1  0
 17 10  1  0
 31 18  1  0
 29 25  1  0
M  END
>  <Binding energies>  (37) 
[-7.79]

>  <Ligand effiencies>  (37) 
[-0.21054054054054056]

>  <Interactions>  (37) 
["V-B:PRO:540:N:9856, V-B:PRO:540:CD:9859, V-B:PRO:540:CB:9857, V-B:PRO:540:CA:9855, V-B:LEU:363:CD1:8161, V-B:ASP:366:CG:8185, V-B:ARG:545:CZ:9898, V-B:ILE:369:CG2:8209, V-A:TYR:539:CE1:4875, V-A:TYR:539:CD1:4873, V-B:LEU:475:CD2:9231, V-B:ASP:366:CB:8184, V-B:MET:535:CE:9807, V-B:TYR:531:CZ:9766, H-B:TYR:531:OH:9767, V-B:ILE:538:CD1:9837, V-B:ILE:538:CG2:9835, V-B:ILE:538:CA:9832, V-A:ALA:541:CB:4892, V-A:GLU:543:CD:4908, H-B:ASP:366:OD2:8187, V-B:GLU:543:CD:9880, H-B:GLU:543:OE1:9881, V-B:ARG:545:CD:9895, V-A:GLU:543:CG:4907, V-B:PRO:482:CG:9299, V-A:TYR:539:CB:4871, V-B:ILE:538:C:9830, V-B:ARG:545:CG:9894, V-B:HIS:456:CE1:9042, V-A:VAL:344:CG1:3001, V-A:GLU:543:CB:4906, V-B:PRO:540:CG:9858, H-B:GLU:543:OE2:9882, V-A:HIS:456:CE1:4070, V-B:HIS:383:CD2:8364, H-B:SER:385:OG:8382, H-B:HIS:383:NE2:8366, V-B:GLU:543:CB:9878"]

$$$$
8d_Ghoteimi_2023
     RDKit          3D

 30 33  0  0  0  0  0  0  0  0999 V2000
  127.2970  122.8130   55.3060 C   0  0  0  0  0  0  0  0  0  0  0  0
  126.2700  122.0490   55.9230 O   0  0  0  0  0  0  0  0  0  0  0  0
  125.5950  122.5300   56.9990 C   0  0  0  0  0  0  0  0  0  0  0  0
  124.3810  122.3940   57.1690 O   0  0  0  0  0  0  0  0  0  0  0  0
  126.4700  123.2420   57.9560 C   0  0  0  0  0  0  0  0  0  0  0  0
  127.9020  122.4410   58.6030 S   0  0  0  0  0  0  0  0  0  0  0  0
  128.3080  123.8500   59.5560 C   0  0  0  0  0  0  0  0  0  0  0  0
  129.3850  123.8820   60.3420 N   0  0  0  0  0  0  0  0  0  0  0  0
  129.6090  125.0280   61.0380 C   0  0  0  0  0  0  0  0  0  0  0  0
  130.8210  125.0360   61.9150 C   0  0  0  0  0  0  0  0  0  0  0  0
  130.8200  125.7050   63.1470 C   0  0  0  0  0  0  0  0  0  0  0  0
  131.9500  125.7100   63.9590 C   0  0  0  0  0  0  0  0  0  0  0  0
  133.1110  125.0480   63.5610 C   0  0  0  0  0  0  0  0  0  0  0  0
  134.1830  125.1050   64.4300 O   0  0  0  0  0  0  0  0  0  0  0  0
  133.9450  125.0450   65.8330 C   0  0  0  0  0  0  0  0  0  0  0  0
  133.1230  124.3740   62.3320 C   0  0  0  0  0  0  0  0  0  0  0  0
  131.9890  124.3710   61.5230 C   0  0  0  0  0  0  0  0  0  0  0  0
  128.7550  126.1320   60.9540 C   0  0  0  0  0  0  0  0  0  0  0  0
  127.6270  126.0990   60.1280 C   0  0  0  0  0  0  0  0  0  0  0  0
  126.7460  127.2880   60.0540 C   0  0  0  0  0  0  0  0  0  0  0  0
  126.5550  127.9450   58.8370 C   0  0  0  0  0  0  0  0  0  0  0  0
  125.7340  129.0670   58.7680 C   0  0  0  0  0  0  0  0  0  0  0  0
  125.0900  129.5450   59.9100 C   0  0  0  0  0  0  0  0  0  0  0  0
  124.2970  130.6640   59.7480 O   0  0  0  0  0  0  0  0  0  0  0  0
  123.7470  130.9460   58.4660 C   0  0  0  0  0  0  0  0  0  0  0  0
  125.2810  128.8800   61.1330 C   0  0  0  0  0  0  0  0  0  0  0  0
  126.1030  127.7580   61.1990 C   0  0  0  0  0  0  0  0  0  0  0  0
  127.3750  124.9130   59.3890 C   0  0  0  0  0  0  0  0  0  0  0  0
  126.3360  124.5380   58.4700 C   0  0  0  0  0  0  0  0  0  0  0  0
  125.3050  125.3790   58.1360 N   0  0  0  0  0  0  0  0  0  0  0  0
  1  2  1  0
  2  3  1  0
  3  4  2  0
  3  5  1  0
  5  6  1  0
  6  7  1  0
  7  8  2  0
  8  9  1  0
  9 10  1  0
 10 11  2  0
 11 12  1  0
 12 13  2  0
 13 14  1  0
 14 15  1  0
 13 16  1  0
 16 17  2  0
  9 18  2  0
 18 19  1  0
 19 20  1  0
 20 21  2  0
 21 22  1  0
 22 23  2  0
 23 24  1  0
 24 25  1  0
 23 26  1  0
 26 27  2  0
 19 28  2  0
 28 29  1  0
 29 30  1  0
 29  5  2  0
 28  7  1  0
 17 10  1  0
 27 20  1  0
M  END
>  <Binding energies>  (38) 
[-7.74]

>  <Ligand effiencies>  (38) 
[-0.241875]

>  <Interactions>  (38) 
["V-B:TYR:539:CZ:9849, V-B:TYR:539:C:9839, V-B:PRO:540:N:9856, V-B:PRO:540:CD:9859, H-A:TYR:484:OH:4348, V-B:PRO:540:CB:9857, V-B:TYR:539:CG:9844, V-B:PRO:540:CA:9855, H-A:GLY:454:N:4050, V-B:TYR:539:CE2:9848, V-B:TYR:539:CD2:9846, V-B:ASP:366:CG:8185, V-B:ILE:369:CG2:8209, V-A:TYR:539:CE1:4875, V-B:ASP:366:CA:8182, V-B:ASP:366:C:8180, V-B:ASP:366:CB:8184, V-B:MET:535:CE:9807, V-B:TYR:531:CZ:9766, H-B:TYR:531:OH:9767, V-B:TYR:539:CE1:9847, V-B:TYR:539:CD1:9845, V-B:ILE:538:CA:9832, V-A:GLU:543:CD:4908, H-B:ASP:366:OD2:8187, V-A:TYR:484:CZ:4347, V-A:GLY:454:CA:4049, V-A:ARG:545:CZ:4926, V-A:TYR:484:CE2:4346, V-B:ILE:369:CB:8208, H-B:TYR:539:N:9842, H-A:ARG:545:NH2:4928, H-A:ARG:545:NE:4924, V-A:ARG:545:CD:4923, V-A:ARG:545:CG:4922, V-A:GLY:453:C:4042, H-A:ARG:545:NH1:4927"]

$$$$
9a_Ghoteimi_2023
     RDKit          3D

 48 54  0  0  0  0  0  0  0  0999 V2000
  130.3470  116.1200   58.8680 C   0  0  0  0  0  0  0  0  0  0  0  0
  131.4810  117.0550   58.4350 C   0  0  0  0  0  0  0  0  0  0  0  0
  131.9270  117.8100   59.5550 O   0  0  0  0  0  0  0  0  0  0  0  0
  131.1470  117.9550   60.6570 C   0  0  0  0  0  0  0  0  0  0  0  0
  130.8210  117.0140   61.3890 O   0  0  0  0  0  0  0  0  0  0  0  0
  130.7130  119.3730   60.8960 C   0  0  0  0  0  0  0  0  0  0  0  0
  131.4740  120.4210   60.3630 C   0  0  0  0  0  0  0  0  0  0  0  0
  131.0990  121.7450   60.5680 C   0  0  0  0  0  0  0  0  0  0  0  0
  129.9570  122.0510   61.3080 C   0  0  0  0  0  0  0  0  0  0  0  0
  129.6750  123.4230   61.4510 N   0  0  0  0  0  0  0  0  0  0  0  0
  130.4230  124.5110   61.1400 C   0  0  0  0  0  0  0  0  0  0  0  0
  131.5490  124.4580   60.6460 O   0  0  0  0  0  0  0  0  0  0  0  0
  129.7960  125.8040   61.4270 C   0  0  0  0  0  0  0  0  0  0  0  0
  129.4800  126.9500   60.1230 S   0  0  0  0  0  0  0  0  0  0  0  0
  128.7760  128.0960   61.2390 C   0  0  0  0  0  0  0  0  0  0  0  0
  128.2840  129.2630   60.8250 N   0  0  0  0  0  0  0  0  0  0  0  0
  127.7470  130.0780   61.7720 C   0  0  0  0  0  0  0  0  0  0  0  0
  127.1920  131.3760   61.2820 C   0  0  0  0  0  0  0  0  0  0  0  0
  127.9190  132.1680   60.3870 C   0  0  0  0  0  0  0  0  0  0  0  0
  127.4080  133.3780   59.9250 C   0  0  0  0  0  0  0  0  0  0  0  0
  126.1450  133.8350   60.3320 C   0  0  0  0  0  0  0  0  0  0  0  0
  125.6270  135.0580   59.8920 N   0  0  0  0  0  0  0  0  0  0  0  0
  124.1720  135.3010   59.8250 C   0  0  0  0  0  0  0  0  0  0  0  0
  123.7850  136.5400   58.9900 C   0  0  0  0  0  0  0  0  0  0  0  0
  124.4700  137.6840   59.4700 O   0  0  0  0  0  0  0  0  0  0  0  0
  125.8770  137.5220   59.3830 C   0  0  0  0  0  0  0  0  0  0  0  0
  126.3230  136.3160   60.2350 C   0  0  0  0  0  0  0  0  0  0  0  0
  125.4260  133.0440   61.2410 C   0  0  0  0  0  0  0  0  0  0  0  0
  125.9390  131.8360   61.7040 C   0  0  0  0  0  0  0  0  0  0  0  0
  127.7300  129.7360   63.1260 C   0  0  0  0  0  0  0  0  0  0  0  0
  128.2630  128.5210   63.5680 C   0  0  0  0  0  0  0  0  0  0  0  0
  128.2520  128.2240   65.0230 C   0  0  0  0  0  0  0  0  0  0  0  0
  127.1150  128.4810   65.7930 C   0  0  0  0  0  0  0  0  0  0  0  0
  127.1020  128.1900   67.1540 C   0  0  0  0  0  0  0  0  0  0  0  0
  128.2200  127.6140   67.7780 C   0  0  0  0  0  0  0  0  0  0  0  0
  128.2340  127.3230   69.1450 N   0  0  0  0  0  0  0  0  0  0  0  0
  129.4730  127.5470   69.9160 C   0  0  0  0  0  0  0  0  0  0  0  0
  129.2500  127.5530   71.4430 C   0  0  0  0  0  0  0  0  0  0  0  0
  128.6120  126.3510   71.8460 O   0  0  0  0  0  0  0  0  0  0  0  0
  127.3490  126.1920   71.2210 C   0  0  0  0  0  0  0  0  0  0  0  0
  127.5220  126.1490   69.6870 C   0  0  0  0  0  0  0  0  0  0  0  0
  129.3540  127.3570   66.9950 C   0  0  0  0  0  0  0  0  0  0  0  0
  129.3690  127.6530   65.6360 C   0  0  0  0  0  0  0  0  0  0  0  0
  128.7980  127.6360   62.5880 C   0  0  0  0  0  0  0  0  0  0  0  0
  129.3650  126.3120   62.6630 C   0  0  0  0  0  0  0  0  0  0  0  0
  129.4570  125.6140   63.8400 N   0  0  0  0  0  0  0  0  0  0  0  0
  129.1860  121.0070   61.8440 C   0  0  0  0  0  0  0  0  0  0  0  0
  129.5630  119.6820   61.6380 C   0  0  0  0  0  0  0  0  0  0  0  0
  1  2  1  0
  2  3  1  0
  3  4  1  0
  4  5  2  0
  4  6  1  0
  6  7  2  0
  7  8  1  0
  8  9  2  0
  9 10  1  0
 10 11  1  0
 11 12  2  0
 11 13  1  0
 13 14  1  0
 14 15  1  0
 15 16  2  0
 16 17  1  0
 17 18  1  0
 18 19  2  0
 19 20  1  0
 20 21  2  0
 21 22  1  0
 22 23  1  0
 23 24  1  0
 24 25  1  0
 25 26  1  0
 26 27  1  0
 21 28  1  0
 28 29  2  0
 17 30  2  0
 30 31  1  0
 31 32  1  0
 32 33  2  0
 33 34  1  0
 34 35  2  0
 35 36  1  0
 36 37  1  0
 37 38  1  0
 38 39  1  0
 39 40  1  0
 40 41  1  0
 35 42  1  0
 42 43  2  0
 31 44  2  0
 44 45  1  0
 45 46  1  0
  9 47  1  0
 47 48  2  0
 48  6  1  0
 45 13  2  0
 44 15  1  0
 29 18  1  0
 43 32  1  0
 27 22  1  0
 41 36  1  0
M  END
>  <Binding energies>  (39) 
[-4.7]

>  <Ligand effiencies>  (39) 
[-0.09215686274509804]

>  <Interactions>  (39) 
["V-A:HIS:383:CE1:3394, V-B:TYR:539:C:9839, V-A:LEU:475:CD1:4258, H-A:TYR:484:OH:4348, V-B:TYR:539:CG:9844, V-A:LEU:475:CD2:4259, V-B:ALA:541:CB:9864, V-B:TYR:539:CE2:9848, V-B:TYR:539:CD2:9846, V-A:SER:385:CB:3409, V-B:ILE:369:CG2:8209, V-A:TYR:539:CE1:4875, V-A:TYR:539:CD1:4873, V-B:LEU:475:CD2:9231, V-A:TYR:539:CG:4872, V-A:GLU:543:CD:4908, V-B:GLU:543:CD:9880, H-B:GLU:543:OE1:9881, V-B:GLU:543:CG:9879, V-B:PRO:540:C:9853, V-A:GLU:543:CG:4907, V-A:TYR:539:CB:4871, V-B:SER:385:CB:8381, V-B:SER:385:CA:8379, V-A:LEU:475:CG:4257, V-B:HIS:456:CE1:9042, V-A:GLU:543:CB:4906, V-B:TYR:539:CB:9843, H-B:GLU:543:OE2:9882, V-A:LEU:373:CD1:3280, H-A:GLU:543:OE2:4910, V-A:HIS:456:CE1:4070, V-B:HIS:383:CD2:8364, H-B:SER:385:OG:8382, V-B:VAL:344:CG1:7973, H-B:HIS:383:NE2:8366, V-A:LEU:373:CD2:3281, V-A:HIS:456:CD2:4068, V-B:GLY:544:C:9884, V-B:HIS:456:CD2:9040, H-B:LYS:547:NZ:9923, H-A:SER:385:OG:3410, V-B:GLU:543:C:9874, V-B:GLY:544:CA:9886, V-B:GLU:543:CB:9878, V-B:VAL:384:C:8369"]

$$$$
9b_Ghoteimi_2023
     RDKit          3D

 42 48  0  0  0  0  0  0  0  0999 V2000
  125.9080  129.9140   59.5820 N   0  0  0  0  0  0  0  0  0  0  0  0
  125.9930  130.4500   60.8420 C   0  0  0  0  0  0  0  0  0  0  0  0
  125.7090  131.7940   61.1310 C   0  0  0  0  0  0  0  0  0  0  0  0
  125.2640  132.8510   60.2190 C   0  0  0  0  0  0  0  0  0  0  0  0
  124.8130  132.5720   59.1050 O   0  0  0  0  0  0  0  0  0  0  0  0
  125.3920  134.1170   60.6870 N   0  0  0  0  0  0  0  0  0  0  0  0
  125.0620  135.2990   60.0360 C   0  0  0  0  0  0  0  0  0  0  0  0
  125.9130  136.4020   59.9840 C   0  0  0  0  0  0  0  0  0  0  0  0
  125.2280  137.3480   59.2560 C   0  0  0  0  0  0  0  0  0  0  0  0
  124.0270  136.8400   58.8890 O   0  0  0  0  0  0  0  0  0  0  0  0
  123.9340  135.5410   59.3890 N   0  0  0  0  0  0  0  0  0  0  0  0
  125.9520  132.1430   62.8420 S   0  0  0  0  0  0  0  0  0  0  0  0
  126.4480  130.4970   63.1540 C   0  0  0  0  0  0  0  0  0  0  0  0
  126.8210  130.0990   64.3690 N   0  0  0  0  0  0  0  0  0  0  0  0
  127.2050  128.8020   64.5020 C   0  0  0  0  0  0  0  0  0  0  0  0
  127.6380  128.3860   65.8710 C   0  0  0  0  0  0  0  0  0  0  0  0
  128.9420  128.6260   66.3210 C   0  0  0  0  0  0  0  0  0  0  0  0
  129.3440  128.2240   67.5910 C   0  0  0  0  0  0  0  0  0  0  0  0
  128.4620  127.5540   68.4520 C   0  0  0  0  0  0  0  0  0  0  0  0
  128.8510  127.1460   69.7340 N   0  0  0  0  0  0  0  0  0  0  0  0
  127.9180  126.4340   70.6300 C   0  0  0  0  0  0  0  0  0  0  0  0
  128.6050  125.7650   71.8390 C   0  0  0  0  0  0  0  0  0  0  0  0
  129.3660  126.7220   72.5560 O   0  0  0  0  0  0  0  0  0  0  0  0
  130.3800  127.2930   71.7460 C   0  0  0  0  0  0  0  0  0  0  0  0
  129.7510  128.0070   70.5300 C   0  0  0  0  0  0  0  0  0  0  0  0
  127.1520  127.3350   68.0040 C   0  0  0  0  0  0  0  0  0  0  0  0
  126.7480  127.7410   66.7350 C   0  0  0  0  0  0  0  0  0  0  0  0
  127.1900  127.9050   63.4310 C   0  0  0  0  0  0  0  0  0  0  0  0
  126.7790  128.3150   62.1570 C   0  0  0  0  0  0  0  0  0  0  0  0
  126.7530  127.3160   61.0580 C   0  0  0  0  0  0  0  0  0  0  0  0
  126.1700  126.0640   61.2590 C   0  0  0  0  0  0  0  0  0  0  0  0
  126.1260  125.1330   60.2260 C   0  0  0  0  0  0  0  0  0  0  0  0
  126.6650  125.4280   58.9630 C   0  0  0  0  0  0  0  0  0  0  0  0
  126.6180  124.5140   57.9080 N   0  0  0  0  0  0  0  0  0  0  0  0
  127.8250  123.7320   57.5750 C   0  0  0  0  0  0  0  0  0  0  0  0
  127.7610  123.0800   56.1770 C   0  0  0  0  0  0  0  0  0  0  0  0
  126.5960  122.2750   56.0700 O   0  0  0  0  0  0  0  0  0  0  0  0
  125.4120  123.0360   56.2550 C   0  0  0  0  0  0  0  0  0  0  0  0
  125.4180  123.6920   57.6530 C   0  0  0  0  0  0  0  0  0  0  0  0
  127.2310  126.6960   58.7690 C   0  0  0  0  0  0  0  0  0  0  0  0
  127.2750  127.6280   59.8020 C   0  0  0  0  0  0  0  0  0  0  0  0
  126.4050  129.6780   61.9870 C   0  0  0  0  0  0  0  0  0  0  0  0
  1  2  1  0
  2  3  2  0
  3  4  1  0
  4  5  2  0
  4  6  1  0
  6  7  1  0
  7  8  1  0
  8  9  2  0
  9 10  1  0
 10 11  1  0
  3 12  1  0
 12 13  1  0
 13 14  2  0
 14 15  1  0
 15 16  1  0
 16 17  2  0
 17 18  1  0
 18 19  2  0
 19 20  1  0
 20 21  1  0
 21 22  1  0
 22 23  1  0
 23 24  1  0
 24 25  1  0
 19 26  1  0
 26 27  2  0
 15 28  2  0
 28 29  1  0
 29 30  1  0
 30 31  2  0
 31 32  1  0
 32 33  2  0
 33 34  1  0
 34 35  1  0
 35 36  1  0
 36 37  1  0
 37 38  1  0
 38 39  1  0
 33 40  1  0
 40 41  2  0
 29 42  2  0
 42  2  1  0
 11  7  2  0
 42 13  1  0
 27 16  1  0
 41 30  1  0
 25 20  1  0
 39 34  1  0
M  END
>  <Binding energies>  (40) 
[-6.01]

>  <Ligand effiencies>  (40) 
[-0.13355555555555554]

>  <Interactions>  (40) 
["V-B:TYR:539:CZ:9849, V-B:PRO:540:CB:9857, V-B:TYR:539:CG:9844, V-B:TYR:539:CE2:9848, V-B:ASP:366:CG:8185, V-B:ILE:369:CG2:8209, V-A:TYR:539:CE1:4875, V-A:TYR:539:CD1:4873, V-B:LEU:475:CD2:9231, V-B:MET:535:CE:9807, V-B:TYR:531:CZ:9766, V-B:TYR:531:CE2:9765, V-B:TYR:539:CE1:9847, V-A:TYR:539:CG:4872, V-B:TYR:539:CD1:9845, V-B:ILE:538:CD1:9837, V-A:GLU:543:CD:4908, H-B:ASP:366:OD2:8187, V-B:GLU:543:CD:9880, H-B:TYR:484:OH:9320, V-A:GLU:543:CG:4907, V-A:TYR:539:CB:4871, V-B:SER:385:CB:8381, V-B:ARG:545:CG:9894, V-B:HIS:456:CE1:9042, H-B:TYR:539:N:9842, V-A:GLU:543:CB:4906, V-A:HIS:456:CE1:4070, V-B:HIS:383:CD2:8364, H-B:SER:385:OG:8382, V-A:HIS:456:CD2:4068, V-B:GLY:544:C:9884, V-B:HIS:456:CD2:9040, H-B:LYS:547:NZ:9923, V-A:HIS:456:CG:4066, V-B:GLU:543:C:9874, V-B:GLU:543:CB:9878"]

$$$$
9c_Ghoteimi_2023
     RDKit          3D

 42 48  0  0  0  0  0  0  0  0999 V2000
  125.9190  129.8170   59.8160 N   0  0  0  0  0  0  0  0  0  0  0  0
  126.0030  130.3650   61.0710 C   0  0  0  0  0  0  0  0  0  0  0  0
  125.6800  131.7010   61.3550 C   0  0  0  0  0  0  0  0  0  0  0  0
  125.1940  132.7370   60.4390 C   0  0  0  0  0  0  0  0  0  0  0  0
  124.5590  132.4370   59.4260 O   0  0  0  0  0  0  0  0  0  0  0  0
  125.4990  134.0110   60.7880 N   0  0  0  0  0  0  0  0  0  0  0  0
  125.1730  135.1680   60.0930 C   0  0  0  0  0  0  0  0  0  0  0  0
  124.0800  135.4170   59.4050 N   0  0  0  0  0  0  0  0  0  0  0  0
  124.1090  136.6210   58.8690 C   0  0  0  0  0  0  0  0  0  0  0  0
  125.2500  137.3800   59.1190 C   0  0  0  0  0  0  0  0  0  0  0  0
  126.3360  136.4550   60.1120 S   0  0  0  0  0  0  0  0  0  0  0  0
  125.9320  132.0690   63.0600 S   0  0  0  0  0  0  0  0  0  0  0  0
  126.4840  130.4420   63.3780 C   0  0  0  0  0  0  0  0  0  0  0  0
  126.8820  130.0640   64.5910 N   0  0  0  0  0  0  0  0  0  0  0  0
  127.3090  128.7810   64.7280 C   0  0  0  0  0  0  0  0  0  0  0  0
  127.7700  128.3900   66.0950 C   0  0  0  0  0  0  0  0  0  0  0  0
  126.9440  127.6600   66.9570 C   0  0  0  0  0  0  0  0  0  0  0  0
  127.3740  127.3070   68.2320 C   0  0  0  0  0  0  0  0  0  0  0  0
  128.6450  127.6810   68.6970 C   0  0  0  0  0  0  0  0  0  0  0  0
  129.0960  127.3270   69.9740 N   0  0  0  0  0  0  0  0  0  0  0  0
  128.2240  126.6090   70.9260 C   0  0  0  0  0  0  0  0  0  0  0  0
  128.9790  125.9990   72.1250 C   0  0  0  0  0  0  0  0  0  0  0  0
  129.7300  127.0040   72.7860 O   0  0  0  0  0  0  0  0  0  0  0  0
  130.6920  127.5850   71.9210 C   0  0  0  0  0  0  0  0  0  0  0  0
  129.9920  128.2420   70.7120 C   0  0  0  0  0  0  0  0  0  0  0  0
  129.4760  128.3960   67.8220 C   0  0  0  0  0  0  0  0  0  0  0  0
  129.0460  128.7460   66.5450 C   0  0  0  0  0  0  0  0  0  0  0  0
  127.3090  127.8770   63.6630 C   0  0  0  0  0  0  0  0  0  0  0  0
  126.8700  128.2640   62.3920 C   0  0  0  0  0  0  0  0  0  0  0  0
  126.8600  127.2580   61.3010 C   0  0  0  0  0  0  0  0  0  0  0  0
  126.1160  126.0840   61.4320 C   0  0  0  0  0  0  0  0  0  0  0  0
  126.0910  125.1450   60.4040 C   0  0  0  0  0  0  0  0  0  0  0  0
  126.8110  125.3550   59.2180 C   0  0  0  0  0  0  0  0  0  0  0  0
  126.7910  124.4320   58.1680 N   0  0  0  0  0  0  0  0  0  0  0  0
  127.9060  123.4740   58.0300 C   0  0  0  0  0  0  0  0  0  0  0  0
  127.9590  122.7970   56.6440 C   0  0  0  0  0  0  0  0  0  0  0  0
  126.7180  122.1670   56.3630 O   0  0  0  0  0  0  0  0  0  0  0  0
  125.6480  123.0980   56.3560 C   0  0  0  0  0  0  0  0  0  0  0  0
  125.5370  123.7880   57.7340 C   0  0  0  0  0  0  0  0  0  0  0  0
  127.5390  126.5480   59.0890 C   0  0  0  0  0  0  0  0  0  0  0  0
  127.5640  127.4860   60.1170 C   0  0  0  0  0  0  0  0  0  0  0  0
  126.4520  129.6140   62.2160 C   0  0  0  0  0  0  0  0  0  0  0  0
  1  2  1  0
  2  3  2  0
  3  4  1  0
  4  5  2  0
  4  6  1  0
  6  7  1  0
  7  8  2  0
  8  9  1  0
  9 10  2  0
 10 11  1  0
  3 12  1  0
 12 13  1  0
 13 14  2  0
 14 15  1  0
 15 16  1  0
 16 17  2  0
 17 18  1  0
 18 19  2  0
 19 20  1  0
 20 21  1  0
 21 22  1  0
 22 23  1  0
 23 24  1  0
 24 25  1  0
 19 26  1  0
 26 27  2  0
 15 28  2  0
 28 29  1  0
 29 30  1  0
 30 31  2  0
 31 32  1  0
 32 33  2  0
 33 34  1  0
 34 35  1  0
 35 36  1  0
 36 37  1  0
 37 38  1  0
 38 39  1  0
 33 40  1  0
 40 41  2  0
 29 42  2  0
 42  2  1  0
 11  7  1  0
 42 13  1  0
 27 16  1  0
 41 30  1  0
 25 20  1  0
 39 34  1  0
M  END
>  <Binding energies>  (41) 
[-5.44]

>  <Ligand effiencies>  (41) 
[-0.12088888888888889]

>  <Interactions>  (41) 
["V-B:TYR:539:CZ:9849, V-B:PRO:540:CB:9857, V-B:TYR:539:CG:9844, V-B:TYR:539:CE2:9848, V-B:TYR:539:CD2:9846, V-B:ASP:366:CG:8185, V-B:ILE:369:CG2:8209, V-A:TYR:539:CE1:4875, V-A:TYR:539:CD1:4873, V-B:LEU:475:CD2:9231, V-B:TYR:531:CE2:9765, V-B:TYR:539:CE1:9847, V-A:TYR:539:CG:4872, V-B:TYR:539:CD1:9845, V-A:GLU:543:CD:4908, H-B:ASP:366:OD2:8187, V-B:GLU:543:CD:9880, H-B:TYR:484:OH:9320, V-A:GLU:543:CG:4907, V-A:TYR:539:CB:4871, V-B:SER:385:CB:8381, V-B:SER:385:CA:8379, V-B:ARG:545:CG:9894, V-B:HIS:456:CE1:9042, H-B:TYR:539:N:9842, V-A:GLU:543:CB:4906, V-A:HIS:456:CE1:4070, V-B:HIS:383:CD2:8364, H-B:SER:385:OG:8382, V-A:HIS:456:CD2:4068, V-B:HIS:456:CD2:9040, H-B:LYS:547:NZ:9923, V-A:HIS:456:CG:4066, V-B:GLU:543:CB:9878, V-A:GLU:543:C:4902, V-A:GLU:543:CA:4904, V-A:GLY:544:C:4912"]

$$$$
RR11_Rahimova_2017
     RDKit          3D

 33 38  0  0  0  0  0  0  0  0999 V2000
  131.6760  116.2610   60.1590 N   0  0  0  0  0  0  0  0  0  0  0  0
  131.2180  117.5490   60.4310 C   0  0  0  0  0  0  0  0  0  0  0  0
  130.0810  117.7290   61.2170 C   0  0  0  0  0  0  0  0  0  0  0  0
  129.6260  119.0160   61.4900 C   0  0  0  0  0  0  0  0  0  0  0  0
  130.3010  120.1330   60.9800 C   0  0  0  0  0  0  0  0  0  0  0  0
  129.8120  121.5190   61.2800 C   0  0  0  0  0  0  0  0  0  0  0  0
  130.3830  122.3400   62.1350 N   0  0  0  0  0  0  0  0  0  0  0  0
  129.6330  123.4860   62.0920 C   0  0  0  0  0  0  0  0  0  0  0  0
  129.8040  124.6830   62.8000 C   0  0  0  0  0  0  0  0  0  0  0  0
  128.9040  125.7300   62.5660 C   0  0  0  0  0  0  0  0  0  0  0  0
  129.0610  127.0400   63.3250 C   0  0  0  0  0  0  0  0  0  0  0  0
  128.0700  128.1060   62.8800 C   0  0  0  0  0  0  0  0  0  0  0  0
  126.7000  127.8220   62.8940 C   0  0  0  0  0  0  0  0  0  0  0  0
  125.7510  128.7690   62.5040 C   0  0  0  0  0  0  0  0  0  0  0  0
  126.2070  130.0310   62.0980 C   0  0  0  0  0  0  0  0  0  0  0  0
  125.4880  131.1160   61.6670 N   0  0  0  0  0  0  0  0  0  0  0  0
  126.3840  132.0430   61.4040 C   0  0  0  0  0  0  0  0  0  0  0  0
  126.0590  133.4140   60.8840 C   0  0  0  0  0  0  0  0  0  0  0  0
  127.0220  134.4310   60.9110 C   0  0  0  0  0  0  0  0  0  0  0  0
  126.7180  135.7050   60.4380 C   0  0  0  0  0  0  0  0  0  0  0  0
  125.4470  135.9710   59.9340 C   0  0  0  0  0  0  0  0  0  0  0  0
  125.1400  137.2480   59.4650 N   0  0  0  0  0  0  0  0  0  0  0  0
  124.4810  134.9690   59.8970 C   0  0  0  0  0  0  0  0  0  0  0  0
  124.7860  133.6950   60.3700 C   0  0  0  0  0  0  0  0  0  0  0  0
  127.6680  131.6060   61.6540 N   0  0  0  0  0  0  0  0  0  0  0  0
  127.5940  130.3080   62.1010 C   0  0  0  0  0  0  0  0  0  0  0  0
  128.5480  129.3660   62.4950 C   0  0  0  0  0  0  0  0  0  0  0  0
  127.8450  125.5710   61.6650 C   0  0  0  0  0  0  0  0  0  0  0  0
  127.6450  124.3890   60.9470 C   0  0  0  0  0  0  0  0  0  0  0  0
  128.5600  123.3590   61.1790 C   0  0  0  0  0  0  0  0  0  0  0  0
  128.7060  122.0850   60.6810 N   0  0  0  0  0  0  0  0  0  0  0  0
  131.4420  119.9370   60.1900 C   0  0  0  0  0  0  0  0  0  0  0  0
  131.9000  118.6500   59.9160 C   0  0  0  0  0  0  0  0  0  0  0  0
  1  2  1  0
  2  3  2  0
  3  4  1  0
  4  5  2  0
  5  6  1  0
  6  7  2  0
  7  8  1  0
  8  9  2  0
  9 10  1  0
 10 11  1  0
 11 12  1  0
 12 13  2  0
 13 14  1  0
 14 15  2  0
 15 16  1  0
 16 17  2  0
 17 18  1  0
 18 19  2  0
 19 20  1  0
 20 21  2  0
 21 22  1  0
 21 23  1  0
 23 24  2  0
 17 25  1  0
 25 26  1  0
 26 27  2  0
 10 28  2  0
 28 29  1  0
 29 30  2  0
 30 31  1  0
  5 32  1  0
 32 33  2  0
 33  2  1  0
 31  6  1  0
 30  8  1  0
 27 12  1  0
 26 15  1  0
 24 18  1  0
M  END
>  <Binding energies>  (42) 
[-7.89]

>  <Ligand effiencies>  (42) 
[-0.2023076923076923]

>  <Interactions>  (42) 
["V-A:HIS:383:CE1:3394, V-B:TYR:539:C:9839, V-A:LEU:475:CD1:4258, H-A:TYR:484:OH:4348, V-A:PRO:482:CB:4326, V-B:PRO:540:CA:9855, V-A:LEU:475:CD2:4259, V-B:ALA:541:CB:9864, V-B:TYR:539:CE2:9848, V-B:TYR:539:CD2:9846, V-A:PRO:482:CG:4327, V-A:SER:385:CB:3409, V-B:ARG:545:CZ:9898, V-B:ILE:369:CG2:8209, V-A:TYR:539:CE1:4875, V-A:TYR:539:CD1:4873, V-B:LEU:475:CD2:9231, V-A:GLU:543:CD:4908, V-B:GLU:543:CD:9880, V-B:SER:385:CB:8381, V-B:SER:385:CA:8379, V-A:LEU:475:CG:4257, V-B:HIS:383:CD2:8364, H-B:SER:385:OG:8382, H-B:TYR:539:O:9840, H-B:VAL:384:O:8370, H-A:SER:385:OG:3410, H-A:CYS:476:O:4266"]

$$$$
RR16_Rahimova_2017
     RDKit          3D

 44 49  0  0  0  0  0  0  0  0999 V2000
  122.6790  130.8240   60.7270 O   0  0  0  0  0  0  0  0  0  0  0  0
  123.9590  131.5240   60.8830 S   0  0  0  0  0  0  0  0  0  0  0  0
  124.7880  131.3220   62.0770 O   0  0  0  0  0  0  0  0  0  0  0  0
  123.6430  133.2530   60.7220 N   0  0  0  0  0  0  0  0  0  0  0  0
  124.7450  134.2400   60.8030 C   0  0  0  0  0  0  0  0  0  0  0  0
  126.1030  133.4910   60.7610 C   0  0  0  0  0  0  0  0  0  0  0  0
  127.2930  134.1420   61.4910 C   0  0  0  0  0  0  0  0  0  0  0  0
  127.6260  135.5620   61.0000 C   0  0  0  0  0  0  0  0  0  0  0  0
  126.4490  136.5580   60.9790 C   0  0  0  0  0  0  0  0  0  0  0  0
  125.5010  136.5020   59.7650 C   0  0  0  0  0  0  0  0  0  0  0  0
  124.5320  135.3040   59.7020 C   0  0  0  0  0  0  0  0  0  0  0  0
  124.9500  131.1180   59.4500 C   0  0  0  0  0  0  0  0  0  0  0  0
  124.3590  131.0290   58.1870 C   0  0  0  0  0  0  0  0  0  0  0  0
  125.1150  130.5930   57.1020 C   0  0  0  0  0  0  0  0  0  0  0  0
  126.4570  130.2500   57.2850 C   0  0  0  0  0  0  0  0  0  0  0  0
  127.3920  129.5550   55.9240 S   0  0  0  0  0  0  0  0  0  0  0  0
  128.2450  130.6240   55.3870 O   0  0  0  0  0  0  0  0  0  0  0  0
  126.4430  128.8550   55.0490 O   0  0  0  0  0  0  0  0  0  0  0  0
  128.4360  128.3420   56.6890 N   0  0  0  0  0  0  0  0  0  0  0  0
  129.0080  127.3420   55.7510 C   0  0  0  0  0  0  0  0  0  0  0  0
  129.6310  126.1660   56.5290 C   0  0  0  0  0  0  0  0  0  0  0  0
  130.6510  126.6530   57.5880 C   0  0  0  0  0  0  0  0  0  0  0  0
  131.2470  125.5030   58.4040 C   0  0  0  0  0  0  0  0  0  0  0  0
  132.6370  125.4140   58.5690 C   0  0  0  0  0  0  0  0  0  0  0  0
  133.2220  124.3880   59.3110 C   0  0  0  0  0  0  0  0  0  0  0  0
  134.5830  124.3190   59.4650 O   0  0  0  0  0  0  0  0  0  0  0  0
  132.3800  123.4320   59.9000 C   0  0  0  0  0  0  0  0  0  0  0  0
  132.6610  122.3480   60.6800 N   0  0  0  0  0  0  0  0  0  0  0  0
  131.4630  121.7600   61.0200 N   0  0  0  0  0  0  0  0  0  0  0  0
  130.4680  122.4450   60.4230 N   0  0  0  0  0  0  0  0  0  0  0  0
  129.0780  122.0910   60.6800 C   0  0  0  0  0  0  0  0  0  0  0  0
  128.1080  122.8150   59.7570 C   0  0  0  0  0  0  0  0  0  0  0  0
  127.3080  123.8510   60.2530 C   0  0  0  0  0  0  0  0  0  0  0  0
  126.4340  124.5310   59.4040 C   0  0  0  0  0  0  0  0  0  0  0  0
  126.3560  124.1800   58.0550 C   0  0  0  0  0  0  0  0  0  0  0  0
  127.1520  123.1500   57.5550 C   0  0  0  0  0  0  0  0  0  0  0  0
  127.0650  122.7200   55.8860 Cl  0  0  0  0  0  0  0  0  0  0  0  0
  128.0240  122.4660   58.4050 C   0  0  0  0  0  0  0  0  0  0  0  0
  130.9790  123.5240   59.7220 C   0  0  0  0  0  0  0  0  0  0  0  0
  130.3910  124.5510   58.9750 C   0  0  0  0  0  0  0  0  0  0  0  0
  130.0780  127.7870   58.4780 C   0  0  0  0  0  0  0  0  0  0  0  0
  129.4310  128.9070   57.6380 C   0  0  0  0  0  0  0  0  0  0  0  0
  127.0560  130.3800   58.5400 C   0  0  0  0  0  0  0  0  0  0  0  0
  126.3000  130.8120   59.6240 C   0  0  0  0  0  0  0  0  0  0  0  0
  1  2  2  0
  2  3  2  0
  2  4  1  0
  4  5  1  0
  5  6  1  0
  6  7  1  0
  7  8  1  0
  8  9  1  0
  9 10  1  0
 10 11  1  0
  2 12  1  0
 12 13  2  0
 13 14  1  0
 14 15  2  0
 15 16  1  0
 16 17  2  0
 16 18  2  0
 16 19  1  0
 19 20  1  0
 20 21  1  0
 21 22  1  0
 22 23  1  0
 23 24  2  0
 24 25  1  0
 25 26  1  0
 25 27  2  0
 27 28  1  0
 28 29  2  0
 29 30  1  0
 30 31  1  0
 31 32  1  0
 32 33  2  0
 33 34  1  0
 34 35  2  0
 35 36  1  0
 36 37  1  0
 36 38  2  0
 30 39  1  0
 39 40  2  0
 22 41  1  0
 41 42  1  0
 15 43  1  0
 43 44  2  0
 11  5  1  0
 44 12  1  0
 42 19  1  0
 40 23  1  0
 39 27  1  0
 38 32  1  0
M  END
>  <Binding energies>  (43) 
[-9.7]

>  <Ligand effiencies>  (43) 
[-0.2020833333333333]

>  <Interactions>  (43) 
["V-B:TYR:539:C:9839, V-B:PRO:540:N:9856, V-B:TYR:539:CG:9844, V-B:PRO:540:CA:9855, V-B:TYR:539:CE2:9848, V-B:TYR:539:CD2:9846, V-B:ILE:369:CG2:8209, V-A:TYR:539:CE1:4875, V-A:TYR:539:CD1:4873, V-A:TYR:539:CZ:4877, V-B:LEU:475:CD2:9231, V-B:ILE:369:CD1:8211, V-A:TYR:539:C:4867, V-B:MET:535:CE:9807, H-B:TYR:531:OH:9767, V-B:TYR:539:CE1:9847, V-A:TYR:539:CG:4872, V-A:ASP:366:CG:3213, V-B:TYR:539:CD1:9845, V-A:ASP:366:CA:3210, V-A:ASP:366:CB:3212, V-B:ILE:538:CA:9832, V-A:ALA:541:CB:4892, V-A:ILE:369:CG2:3237, H-B:LYS:534:NZ:9795, V-B:SER:385:CB:8381, V-B:SER:385:CA:8379, H-A:ASP:366:OD2:3215, H-B:SER:385:O:8378"]

$$$$
RR18_Rahimova_2017
     RDKit          3D

 36 41  0  0  0  0  0  0  0  0999 V2000
  128.4440  122.9160   61.6270 C   0  0  0  0  0  0  0  0  0  0  0  0
  128.3060  123.5730   60.2760 C   0  0  0  0  0  0  0  0  0  0  0  0
  127.4990  123.3510   59.1720 C   0  0  0  0  0  0  0  0  0  0  0  0
  127.8500  124.3050   58.2180 C   0  0  0  0  0  0  0  0  0  0  0  0
  128.8590  125.0760   58.7730 C   0  0  0  0  0  0  0  0  0  0  0  0
  129.6710  126.2710   58.2800 C   0  0  1  0  0  0  0  0  0  0  0  0
  130.8930  125.8170   57.4260 C   0  0  0  0  0  0  0  0  0  0  0  0
  131.9740  125.0480   58.0340 C   0  0  0  0  0  0  0  0  0  0  0  0
  133.0960  124.9910   57.5280 O   0  0  0  0  0  0  0  0  0  0  0  0
  131.6340  124.4310   59.1900 N   0  0  0  0  0  0  0  0  0  0  0  0
  132.3940  123.5970   60.0380 C   0  0  0  0  0  0  0  0  0  0  0  0
  132.7400  122.2720   59.7150 C   0  0  0  0  0  0  0  0  0  0  0  0
  133.4880  121.4990   60.6010 C   0  0  0  0  0  0  0  0  0  0  0  0
  133.8960  122.0300   61.8200 C   0  0  0  0  0  0  0  0  0  0  0  0
  133.5510  123.3370   62.1580 C   0  0  0  0  0  0  0  0  0  0  0  0
  132.8010  124.1260   61.2800 C   0  0  0  0  0  0  0  0  0  0  0  0
  132.4450  125.5490   61.7000 C   0  0  0  0  0  0  0  0  0  0  0  0
  130.8770  126.0650   56.0900 C   0  0  0  0  0  0  0  0  0  0  0  0
  129.9210  126.7900   55.4460 N   0  0  0  0  0  0  0  0  0  0  0  0
  128.9970  127.3620   56.1270 C   0  0  0  0  0  0  0  0  0  0  0  0
  127.7970  128.4420   55.4600 S   0  0  0  0  0  0  0  0  0  0  0  0
  127.0660  128.7120   57.0730 C   0  0  0  0  0  0  0  0  0  0  0  0
  125.9870  129.5150   57.3750 C   0  0  0  0  0  0  0  0  0  0  0  0
  125.3550  130.3320   56.3290 C   0  0  0  0  0  0  0  0  0  0  0  0
  125.6140  130.4240   55.1300 O   0  0  0  0  0  0  0  0  0  0  0  0
  124.3820  131.0410   56.9110 N   0  0  0  0  0  0  0  0  0  0  0  0
  124.2530  130.7750   58.2410 C   0  0  0  0  0  0  0  0  0  0  0  0
  123.3370  131.3240   59.1380 C   0  0  0  0  0  0  0  0  0  0  0  0
  123.3500  130.8910   60.4610 C   0  0  0  0  0  0  0  0  0  0  0  0
  124.2650  129.9180   60.8590 C   0  0  0  0  0  0  0  0  0  0  0  0
  125.1730  129.3840   59.9420 C   0  0  0  0  0  0  0  0  0  0  0  0
  125.1920  129.8250   58.6050 C   0  0  0  0  0  0  0  0  0  0  0  0
  127.8290  127.9340   58.0500 C   0  0  0  0  0  0  0  0  0  0  0  0
  127.6520  127.9130   59.2640 O   0  0  0  0  0  0  0  0  0  0  0  0
  128.8230  127.2120   57.4650 N   0  0  0  0  0  0  0  0  0  0  0  0
  129.1310  124.6230   60.0260 O   0  0  0  0  0  0  0  0  0  0  0  0
  1  2  1  0
  2  3  2  0
  3  4  1  0
  4  5  2  0
  6  5  1  6
  6  7  1  0
  7  8  1  0
  8  9  2  0
  8 10  1  0
 10 11  1  0
 11 12  2  0
 12 13  1  0
 13 14  2  0
 14 15  1  0
 15 16  2  0
 16 17  1  0
  7 18  2  0
 18 19  1  0
 19 20  2  0
 20 21  1  0
 21 22  1  0
 22 23  2  0
 23 24  1  0
 24 25  2  0
 24 26  1  0
 26 27  1  0
 27 28  2  0
 28 29  1  0
 29 30  2  0
 30 31  1  0
 31 32  2  0
 22 33  1  0
 33 34  2  0
 33 35  1  0
  5 36  1  0
 36  2  1  0
 35  6  1  0
 16 11  1  0
 35 20  1  0
 32 23  1  0
 32 27  1  0
M  END
>  <Binding energies>  (44) 
[-8.63]

>  <Ligand effiencies>  (44) 
[-0.22710526315789475]

>  <Interactions>  (44) 
["V-B:TYR:539:CZ:9849, V-B:PRO:540:CA:9855, V-A:LEU:475:CD2:4259, V-B:TYR:539:CE2:9848, V-B:TYR:539:CD2:9846, V-B:TYR:531:CE1:9764, V-B:ASP:366:CG:8185, V-B:ILE:369:CG2:8209, V-A:TYR:539:CE1:4875, V-A:TYR:539:CZ:4877, V-B:ASP:366:CA:8182, V-B:ILE:369:CD1:8211, V-B:ASP:366:CB:8184, V-B:MET:535:CE:9807, V-A:ASP:366:CG:3213, V-A:ASP:366:CB:3212, H-B:TYR:539:OH:9850, V-A:ILE:369:CG2:3237, H-B:LYS:534:NZ:9795, V-A:GLY:454:CA:4049, V-A:ILE:369:CD1:3239, V-A:ARG:545:CZ:4926, V-B:ILE:369:CB:8208, H-A:TYR:539:OH:4878, H-B:ASP:366:O:8181"]

$$$$
RR20_Rahimova_2017
     RDKit          3D

 38 43  0  0  0  0  0  0  0  0999 V2000
  132.2490  116.8080   58.2270 C   0  0  0  0  0  0  0  0  0  0  0  0
  131.9260  118.0030   59.1050 C   0  0  0  0  0  0  0  0  0  0  0  0
  132.7370  119.1370   59.0590 C   0  0  0  0  0  0  0  0  0  0  0  0
  132.4380  120.2380   59.8570 C   0  0  0  0  0  0  0  0  0  0  0  0
  131.3340  120.2090   60.7170 C   0  0  0  0  0  0  0  0  0  0  0  0
  131.0140  121.4240   61.5610 C   0  0  0  0  0  0  0  0  0  0  0  0
  130.3210  121.2540   62.5660 O   0  0  0  0  0  0  0  0  0  0  0  0
  131.5080  122.6420   61.1930 N   0  0  0  0  0  0  0  0  0  0  0  0
  132.9160  123.0060   61.4240 C   0  0  0  0  0  0  0  0  0  0  0  0
  133.1260  124.3530   60.7540 C   0  0  0  0  0  0  0  0  0  0  0  0
  131.9230  124.4770   59.8690 C   0  0  0  0  0  0  0  0  0  0  0  0
  131.6110  125.4730   58.9440 C   0  0  0  0  0  0  0  0  0  0  0  0
  130.3550  125.5040   58.3250 C   0  0  0  0  0  0  0  0  0  0  0  0
  130.0210  126.5720   57.3210 C   0  0  0  0  0  0  0  0  0  0  0  0
  128.9810  127.3550   57.5590 N   0  0  0  0  0  0  0  0  0  0  0  0
  128.7950  128.2600   56.6310 C   0  0  0  0  0  0  0  0  0  0  0  0
  127.8100  129.2340   56.5720 N   0  0  0  0  0  0  0  0  0  0  0  0
  126.7200  129.2420   55.7660 C   0  0  0  0  0  0  0  0  0  0  0  0
  126.4450  128.3430   54.9700 O   0  0  0  0  0  0  0  0  0  0  0  0
  125.7480  130.4410   55.8710 C   0  0  0  0  0  0  0  0  0  0  0  0
  125.2540  130.6630   57.2430 N   0  0  0  0  0  0  0  0  0  0  0  0
  123.8040  130.9090   57.2840 C   0  0  0  0  0  0  0  0  0  0  0  0
  123.3870  131.3960   58.6900 C   0  0  0  0  0  0  0  0  0  0  0  0
  124.0020  130.5650   59.8170 C   0  0  0  0  0  0  0  0  0  0  0  0
  123.5370  130.6790   61.1320 C   0  0  0  0  0  0  0  0  0  0  0  0
  124.1230  129.9510   62.1650 C   0  0  0  0  0  0  0  0  0  0  0  0
  125.1850  129.0940   61.8920 C   0  0  0  0  0  0  0  0  0  0  0  0
  125.6510  128.9650   60.5860 C   0  0  0  0  0  0  0  0  0  0  0  0
  125.0720  129.6910   59.5390 C   0  0  0  0  0  0  0  0  0  0  0  0
  125.5460  129.5060   58.0970 C   0  0  0  0  0  0  0  0  0  0  0  0
  129.9320  128.1980   55.3410 S   0  0  0  0  0  0  0  0  0  0  0  0
  130.7080  126.8390   56.1180 C   0  0  0  0  0  0  0  0  0  0  0  0
  131.8890  126.1550   55.4650 C   0  0  0  0  0  0  0  0  0  0  0  0
  129.4000  124.5450   58.6990 C   0  0  0  0  0  0  0  0  0  0  0  0
  129.7030  123.5600   59.6380 C   0  0  0  0  0  0  0  0  0  0  0  0
  130.9910  123.4880   60.1860 C   0  0  0  0  0  0  0  0  0  0  0  0
  130.5080  119.0780   60.7360 C   0  0  0  0  0  0  0  0  0  0  0  0
  130.8060  117.9770   59.9370 C   0  0  0  0  0  0  0  0  0  0  0  0
  1  2  1  0
  2  3  2  0
  3  4  1  0
  4  5  2  0
  5  6  1  0
  6  7  2  0
  6  8  1  0
  8  9  1  0
  9 10  1  0
 10 11  1  0
 11 12  2  0
 12 13  1  0
 13 14  1  0
 14 15  1  0
 15 16  2  0
 16 17  1  0
 17 18  1  0
 18 19  2  0
 18 20  1  0
 20 21  1  0
 21 22  1  0
 22 23  1  0
 23 24  1  0
 24 25  2  0
 25 26  1  0
 26 27  2  0
 27 28  1  0
 28 29  2  0
 29 30  1  0
 16 31  1  0
 31 32  1  0
 32 33  1  0
 13 34  2  0
 34 35  1  0
 35 36  2  0
  5 37  1  0
 37 38  2  0
 38  2  1  0
 36  8  1  0
 36 11  1  0
 32 14  2  0
 30 21  1  0
 29 24  1  0
M  END
>  <Binding energies>  (45) 
[-10.53]

>  <Ligand effiencies>  (45) 
[-0.26999999999999996]

>  <Interactions>  (45) 
["V-A:HIS:383:CE1:3394, H-A:TYR:484:OH:4348, V-B:TYR:539:CG:9844, V-A:LEU:475:CD2:4259, V-B:TYR:539:CE2:9848, V-B:TYR:539:CD2:9846, V-A:SER:385:CB:3409, V-B:TYR:531:CE1:9764, V-B:ASP:366:CG:8185, V-B:ILE:369:CG2:8209, V-A:TYR:531:CZ:4794, V-A:TYR:539:CE1:4875, V-A:TYR:539:CZ:4877, V-B:ASP:366:CA:8182, V-B:ILE:369:CD1:8211, V-A:MET:535:CE:4835, V-B:ASP:366:C:8180, V-B:ASP:366:CB:8184, V-B:MET:535:CE:9807, H-B:TYR:531:OH:9767, V-A:ASP:366:CG:3213, V-A:ILE:369:CG2:3237, H-B:LYS:534:NZ:9795, V-B:ILE:369:CB:8208, H-A:TYR:539:OH:4878, V-B:TYR:539:CB:9843, V-A:TYR:531:CE1:4792, V-A:LEU:373:CD1:3280, V-A:LEU:373:CD2:3281, V-A:SER:385:CA:3407, V-A:LEU:373:CG:3279"]

$$$$
RR21_Rahimova_2017
     RDKit          3D

 40 45  0  0  0  0  0  0  0  0999 V2000
  124.5750  129.1660   65.9710 C   0  0  0  0  0  0  0  0  0  0  0  0
  123.9750  129.6100   64.7580 O   0  0  0  0  0  0  0  0  0  0  0  0
  124.6590  129.4480   63.5680 C   0  0  0  0  0  0  0  0  0  0  0  0
  125.8970  128.7940   63.4510 C   0  0  0  0  0  0  0  0  0  0  0  0
  126.5210  128.6700   62.2100 C   0  0  0  0  0  0  0  0  0  0  0  0
  125.9240  129.1910   61.0550 C   0  0  0  0  0  0  0  0  0  0  0  0
  126.5930  129.0520   59.7230 C   0  0  0  0  0  0  0  0  0  0  0  0
  126.8930  130.1300   59.0240 N   0  0  0  0  0  0  0  0  0  0  0  0
  127.4760  129.7060   57.8930 N   0  0  0  0  0  0  0  0  0  0  0  0
  127.9460  130.6190   56.9140 C   0  0  0  0  0  0  0  0  0  0  0  0
  128.9100  131.5860   57.2390 C   0  0  0  0  0  0  0  0  0  0  0  0
  129.3670  132.4740   56.2690 C   0  0  0  0  0  0  0  0  0  0  0  0
  128.8640  132.3990   54.9720 C   0  0  0  0  0  0  0  0  0  0  0  0
  127.9050  131.4460   54.6380 C   0  0  0  0  0  0  0  0  0  0  0  0
  127.4460  130.5570   55.6060 C   0  0  0  0  0  0  0  0  0  0  0  0
  127.5580  128.3360   57.8870 C   0  0  0  0  0  0  0  0  0  0  0  0
  126.9800  127.8670   59.0570 C   0  0  0  0  0  0  0  0  0  0  0  0
  126.8730  126.4910   59.5180 C   0  0  0  0  0  0  0  0  0  0  0  0
  127.8660  125.6620   59.9150 C   0  0  0  0  0  0  0  0  0  0  0  0
  129.6090  126.0000   59.9860 S   0  0  0  0  0  0  0  0  0  0  0  0
  129.8840  124.3820   60.6150 C   0  0  0  0  0  0  0  0  0  0  0  0
  131.0120  123.8440   60.9620 N   0  0  0  0  0  0  0  0  0  0  0  0
  131.0960  122.5200   61.4710 C   0  0  0  0  0  0  0  0  0  0  0  0
  132.1200  121.9460   61.8400 O   0  0  0  0  0  0  0  0  0  0  0  0
  129.7690  121.8140   61.5490 C   0  0  0  0  0  0  0  0  0  0  0  0
  129.7370  120.3700   62.0660 C   0  0  0  0  0  0  0  0  0  0  0  0
  130.3120  119.3410   61.0940 C   0  0  0  0  0  0  0  0  0  0  0  0
  131.4180  119.6660   60.3040 C   0  0  0  0  0  0  0  0  0  0  0  0
  131.9520  118.7220   59.4300 C   0  0  0  0  0  0  0  0  0  0  0  0
  131.3840  117.4490   59.3470 C   0  0  0  0  0  0  0  0  0  0  0  0
  131.9770  116.4200   58.4020 C   0  0  0  0  0  0  0  0  0  0  0  0
  130.2850  117.1180   60.1450 C   0  0  0  0  0  0  0  0  0  0  0  0
  129.7510  118.0620   61.0170 C   0  0  0  0  0  0  0  0  0  0  0  0
  128.6530  122.3610   61.1950 N   0  0  0  0  0  0  0  0  0  0  0  0
  128.7140  123.6770   60.7200 N   0  0  0  0  0  0  0  0  0  0  0  0
  127.5700  124.3040   60.3530 C   0  0  0  0  0  0  0  0  0  0  0  0
  126.4430  123.7950   60.3920 O   0  0  0  0  0  0  0  0  0  0  0  0
  124.6940  129.8470   61.1720 C   0  0  0  0  0  0  0  0  0  0  0  0
  124.0690  129.9730   62.4130 C   0  0  0  0  0  0  0  0  0  0  0  0
  122.8790  130.6130   62.4920 F   0  0  0  0  0  0  0  0  0  0  0  0
  1  2  1  0
  2  3  1  0
  3  4  2  0
  4  5  1  0
  5  6  2  0
  6  7  1  0
  7  8  2  0
  8  9  1  0
  9 10  1  0
 10 11  2  0
 11 12  1  0
 12 13  2  0
 13 14  1  0
 14 15  2  0
  9 16  1  0
 16 17  2  0
 17 18  1  0
 18 19  2  0
 19 20  1  0
 20 21  1  0
 21 22  2  0
 22 23  1  0
 23 24  2  0
 23 25  1  0
 25 26  1  0
 26 27  1  0
 27 28  2  0
 28 29  1  0
 29 30  2  0
 30 31  1  0
 30 32  1  0
 32 33  2  0
 25 34  2  0
 34 35  1  0
 35 36  1  0
 36 37  2  0
  6 38  1  0
 38 39  2  0
 39 40  1  0
 39  3  1  0
 17  7  1  0
 36 19  1  0
 15 10  1  0
 35 21  1  0
 33 27  1  0
M  END
>  <Binding energies>  (46) 
[-9.65]

>  <Ligand effiencies>  (46) 
[-0.24125000000000002]

>  <Interactions>  (46) 
["V-A:HIS:383:CE1:3394, V-B:TYR:539:C:9839, V-A:LEU:475:CD1:4258, H-A:TYR:484:OH:4348, V-A:PRO:482:CB:4326, V-B:TYR:539:CG:9844, V-A:LEU:475:CD2:4259, V-B:ALA:541:CB:9864, V-B:TYR:539:CE2:9848, V-B:TYR:539:CD2:9846, V-A:PRO:482:CG:4327, V-A:SER:385:CB:3409, V-B:ASP:366:CG:8185, V-B:ARG:545:CZ:9898, V-A:TYR:539:CZ:4877, V-A:TYR:539:CE2:4876, V-A:TYR:539:CD2:4874, V-B:ILE:369:CD1:8211, V-A:TYR:539:C:4867, V-A:PRO:540:N:4884, V-A:TYR:539:CG:4872, H-B:ARG:545:NH2:9900, V-A:TYR:484:CE1:4345, V-B:GLY:453:C:9014, H-B:GLY:454:N:9022, V-B:ARG:545:CD:9895, H-B:TYR:484:OH:9320, V-B:GLY:453:CA:9016, V-B:ARG:545:CG:9894, V-B:HIS:456:CE1:9042, V-B:TYR:539:CB:9843, H-B:ARG:545:NH1:9899, V-A:LEU:373:CD1:3280, H-B:ARG:545:NE:9896, V-A:LEU:373:CD2:3281"]

$$$$
RR23_Rahimova_2017
     RDKit          3D

 39 44  0  0  0  0  0  0  0  0999 V2000
  131.9980  132.9190   55.2480 C   0  0  0  0  0  0  0  0  0  0  0  0
  130.7630  132.0430   55.3580 C   0  0  0  0  0  0  0  0  0  0  0  0
  129.9720  132.0920   56.5060 C   0  0  0  0  0  0  0  0  0  0  0  0
  128.8340  131.2950   56.6020 C   0  0  0  0  0  0  0  0  0  0  0  0
  128.4850  130.4340   55.5540 C   0  0  0  0  0  0  0  0  0  0  0  0
  127.2340  129.5920   55.6690 C   0  0  0  0  0  0  0  0  0  0  0  0
  126.7510  129.1420   54.6270 O   0  0  0  0  0  0  0  0  0  0  0  0
  126.7000  129.3500   56.9030 N   0  0  0  0  0  0  0  0  0  0  0  0
  125.3800  129.8760   57.2870 C   0  0  0  0  0  0  0  0  0  0  0  0
  125.0650  129.2840   58.6510 C   0  0  0  0  0  0  0  0  0  0  0  0
  126.0610  128.1710   58.7700 C   0  0  0  0  0  0  0  0  0  0  0  0
  126.1950  127.2150   59.7780 C   0  0  0  0  0  0  0  0  0  0  0  0
  127.2970  126.3480   59.7910 C   0  0  0  0  0  0  0  0  0  0  0  0
  127.4830  125.2810   60.8820 C   0  0  2  0  0  0  0  0  0  0  0  0
  128.8460  124.8010   60.9490 N   0  0  0  0  0  0  0  0  0  0  0  0
  128.9020  123.5810   61.3040 C   0  0  0  0  0  0  0  0  0  0  0  0
  130.0050  122.7980   61.4470 N   0  0  0  0  0  0  0  0  0  0  0  0
  131.2870  123.0820   61.1150 C   0  0  0  0  0  0  0  0  0  0  0  0
  131.6870  124.1510   60.6480 O   0  0  0  0  0  0  0  0  0  0  0  0
  132.2990  121.9480   61.3500 C   0  0  0  0  0  0  0  0  0  0  0  0
  131.6780  120.6580   60.9730 N   0  0  0  0  0  0  0  0  0  0  0  0
  130.5020  120.3450   61.6420 N   0  0  0  0  0  0  0  0  0  0  0  0
  129.8620  119.2450   61.4040 N   0  0  0  0  0  0  0  0  0  0  0  0
  130.3540  118.3460   60.4540 C   0  0  0  0  0  0  0  0  0  0  0  0
  129.6400  117.1680   60.2230 C   0  0  0  0  0  0  0  0  0  0  0  0
  130.1060  116.2500   59.2800 C   0  0  0  0  0  0  0  0  0  0  0  0
  131.2820  116.5070   58.5710 C   0  0  0  0  0  0  0  0  0  0  0  0
  131.9970  117.6840   58.8020 C   0  0  0  0  0  0  0  0  0  0  0  0
  131.5280  118.6050   59.7460 C   0  0  0  0  0  0  0  0  0  0  0  0
  132.2890  119.8830   60.0130 C   0  0  0  0  0  0  0  0  0  0  0  0
  133.3420  120.1870   59.4430 O   0  0  0  0  0  0  0  0  0  0  0  0
  127.3480  122.7660   61.6490 S   0  0  0  0  0  0  0  0  0  0  0  0
  126.4920  124.0980   60.7900 C   0  0  2  0  0  0  0  0  0  0  0  0
  126.1140  123.6190   59.3720 C   0  0  0  0  0  0  0  0  0  0  0  0
  128.2810  126.4910   58.8060 C   0  0  0  0  0  0  0  0  0  0  0  0
  128.1590  127.4610   57.8100 C   0  0  0  0  0  0  0  0  0  0  0  0
  127.0150  128.2690   57.7570 C   0  0  0  0  0  0  0  0  0  0  0  0
  129.2680  130.4120   54.3930 C   0  0  0  0  0  0  0  0  0  0  0  0
  130.4050  131.2100   54.2970 C   0  0  0  0  0  0  0  0  0  0  0  0
  1  2  1  0
  2  3  2  0
  3  4  1  0
  4  5  2  0
  5  6  1  0
  6  7  2  0
  6  8  1  0
  8  9  1  0
  9 10  1  0
 10 11  1  0
 11 12  2  0
 12 13  1  0
 14 13  1  6
 14 15  1  0
 15 16  2  0
 16 17  1  0
 17 18  1  0
 18 19  2  0
 18 20  1  0
 20 21  1  0
 21 22  1  0
 22 23  2  0
 23 24  1  0
 24 25  2  0
 25 26  1  0
 26 27  2  0
 27 28  1  0
 28 29  2  0
 29 30  1  0
 30 31  2  0
 16 32  1  0
 32 33  1  0
 33 34  1  6
 13 35  2  0
 35 36  1  0
 36 37  2  0
  5 38  1  0
 38 39  2  0
 39  2  1  0
 37  8  1  0
 37 11  1  0
 33 14  1  0
 30 21  1  0
 29 24  1  0
M  END
>  <Binding energies>  (47) 
[-11.05]

>  <Ligand effiencies>  (47) 
[-0.27625]

>  <Interactions>  (47) 
["V-A:HIS:383:CE1:3394, V-B:TYR:539:C:9839, H-A:TYR:484:OH:4348, V-B:PRO:540:CB:9857, V-A:PRO:482:CB:4326, V-B:TYR:539:CG:9844, V-B:PRO:540:CA:9855, V-A:LEU:475:CD2:4259, V-B:TYR:539:CE2:9848, V-B:TYR:539:CD2:9846, V-A:PRO:482:CG:4327, V-A:SER:385:CB:3409, V-B:ASP:366:CG:8185, V-A:ILE:538:CG2:4863, V-A:PRO:540:CD:4887, V-A:ILE:538:CB:4862, V-A:LEU:363:CD1:3189, V-B:ASP:366:CA:8182, V-A:TYR:539:C:4867, V-A:MET:535:CE:4835, V-A:PRO:540:N:4884, V-B:ASP:366:CB:8184, V-A:ILE:538:CA:4860, H-B:LYS:534:NZ:9795, H-B:ALA:541:N:9863, V-B:TYR:539:CB:9843, V-A:LEU:373:CD1:3280, V-B:VAL:344:CG1:7973"]

$$$$
RR26_Rahimova_2017
     RDKit          3D

 38 44  0  0  0  0  0  0  0  0999 V2000
  124.4920  134.3690   59.8830 C   0  0  0  0  0  0  0  0  0  0  0  0
  125.7150  135.1800   60.2920 C   0  0  0  0  0  0  0  0  0  0  0  0
  125.6420  136.5750   60.2130 C   0  0  0  0  0  0  0  0  0  0  0  0
  126.7160  137.3680   60.6120 C   0  0  0  0  0  0  0  0  0  0  0  0
  127.8730  136.7710   61.1010 C   0  0  0  0  0  0  0  0  0  0  0  0
  127.9580  135.3830   61.1860 C   0  0  0  0  0  0  0  0  0  0  0  0
  126.8900  134.5680   60.7800 C   0  0  0  0  0  0  0  0  0  0  0  0
  127.0700  133.0810   60.8900 C   0  0  0  0  0  0  0  0  0  0  0  0
  127.0320  132.2800   59.8280 N   0  0  0  0  0  0  0  0  0  0  0  0
  127.2410  131.1090   60.3660 C   0  0  0  0  0  0  0  0  0  0  0  0
  127.3560  129.4870   59.7910 S   0  0  0  0  0  0  0  0  0  0  0  0
  127.6490  128.9330   61.4820 C   0  0  0  0  0  0  0  0  0  0  0  0
  127.8510  127.6680   61.9160 C   0  0  0  0  0  0  0  0  0  0  0  0
  127.8880  126.4460   61.1290 C   0  0  0  0  0  0  0  0  0  0  0  0
  126.9570  125.9920   60.2080 C   0  0  0  0  0  0  0  0  0  0  0  0
  127.4250  124.8160   59.6790 N   0  0  0  0  0  0  0  0  0  0  0  0
  126.8180  123.9920   58.6970 C   0  0  0  0  0  0  0  0  0  0  0  0
  125.4210  123.9250   58.5790 C   0  0  0  0  0  0  0  0  0  0  0  0
  124.8380  123.1100   57.6120 C   0  0  0  0  0  0  0  0  0  0  0  0
  125.6470  122.3630   56.7600 C   0  0  0  0  0  0  0  0  0  0  0  0
  127.0350  122.4220   56.8650 C   0  0  0  0  0  0  0  0  0  0  0  0
  127.6210  123.2340   57.8310 C   0  0  0  0  0  0  0  0  0  0  0  0
  128.6240  124.5160   60.2020 N   0  0  0  0  0  0  0  0  0  0  0  0
  128.9080  125.4700   61.0660 C   0  0  0  0  0  0  0  0  0  0  0  0
  130.1910  125.4210   61.8360 C   0  0  0  0  0  0  0  0  0  0  0  0
  131.4180  125.3050   61.1650 C   0  0  0  0  0  0  0  0  0  0  0  0
  132.6200  125.2550   61.8740 C   0  0  0  0  0  0  0  0  0  0  0  0
  132.6030  125.3190   63.2660 C   0  0  0  0  0  0  0  0  0  0  0  0
  131.3840  125.4530   63.9470 C   0  0  0  0  0  0  0  0  0  0  0  0
  130.1850  125.4970   63.2370 C   0  0  0  0  0  0  0  0  0  0  0  0
  131.3160  125.4760   65.3270 O   0  0  0  0  0  0  0  0  0  0  0  0
  132.5540  125.7950   65.9690 C   0  0  0  0  0  0  0  0  0  0  0  0
  133.7210  125.0110   65.3200 C   0  0  0  0  0  0  0  0  0  0  0  0
  133.8160  125.3140   63.9240 O   0  0  0  0  0  0  0  0  0  0  0  0
  127.6400  130.0370   62.4370 C   0  0  0  0  0  0  0  0  0  0  0  0
  127.8010  130.0100   63.6590 O   0  0  0  0  0  0  0  0  0  0  0  0
  127.4040  131.2060   61.6980 N   0  0  0  0  0  0  0  0  0  0  0  0
  127.3000  132.4900   62.0520 N   0  0  0  0  0  0  0  0  0  0  0  0
  1  2  1  0
  2  3  2  0
  3  4  1  0
  4  5  2  0
  5  6  1  0
  6  7  2  0
  7  8  1  0
  8  9  1  0
  9 10  2  0
 10 11  1  0
 11 12  1  0
 12 13  2  0
 13 14  1  0
 14 15  2  0
 15 16  1  0
 16 17  1  0
 17 18  2  0
 18 19  1  0
 19 20  2  0
 20 21  1  0
 21 22  2  0
 16 23  1  0
 23 24  2  0
 24 25  1  0
 25 26  2  0
 26 27  1  0
 27 28  2  0
 28 29  1  0
 29 30  2  0
 29 31  1  0
 31 32  1  0
 32 33  1  0
 33 34  1  0
 12 35  1  0
 35 36  2  0
 35 37  1  0
 37 38  1  0
  7  2  1  0
 38  8  2  0
 37 10  1  0
 24 14  1  0
 30 25  1  0
 22 17  1  0
 34 28  1  0
M  END
>  <Binding energies>  (48) 
[-9.44]

>  <Ligand effiencies>  (48) 
[-0.24842105263157893]

>  <Interactions>  (48) 
["V-B:TYR:539:C:9839, V-B:PRO:540:N:9856, V-B:PRO:540:CD:9859, H-A:TYR:484:OH:4348, V-B:PRO:540:CB:9857, V-B:TYR:539:CG:9844, V-B:PRO:540:CA:9855, H-A:GLY:454:N:4050, V-B:LEU:363:CD1:8161, V-B:TYR:539:CE2:9848, V-B:ILE:369:CG2:8209, V-A:TYR:539:CE1:4875, V-A:TYR:539:CD1:4873, V-B:LEU:475:CD2:9231, V-A:TYR:539:C:4867, V-B:TYR:539:CA:9841, V-A:ASP:366:CG:3213, V-B:TYR:539:CD1:9845, V-A:ALA:541:CB:4892, V-A:GLU:543:CD:4908, V-A:ALA:541:CA:4890, V-A:PRO:540:C:4881, V-B:GLU:543:CD:9880, V-A:TYR:484:CZ:4347, V-A:GLY:454:CA:4049, H-B:TYR:484:OH:9320, V-A:ARG:545:CZ:4926, V-B:PRO:482:CG:9299, V-B:PRO:482:CB:9298, V-A:TYR:484:CE2:4346, V-B:SER:385:CB:8381, H-A:ARG:545:NH2:4928, H-A:ARG:545:NE:4924, V-B:PRO:540:CG:9858, V-A:ARG:545:CD:4923, V-A:HIS:456:CE1:4070, V-A:ARG:545:CG:4922, V-A:GLY:453:C:4042, H-A:ARG:545:NH1:4927"]

$$$$
RR2_Rahimova_2017
     RDKit          3D

 46 50  0  0  0  0  0  0  0  0999 V2000
  133.5250  123.0140   60.7600 C   0  0  0  0  0  0  0  0  0  0  0  0
  133.9250  123.4860   59.4780 O   0  0  0  0  0  0  0  0  0  0  0  0
  133.1360  124.4150   58.8250 C   0  0  0  0  0  0  0  0  0  0  0  0
  132.0300  125.0560   59.3990 C   0  0  0  0  0  0  0  0  0  0  0  0
  131.2910  125.9780   58.6630 C   0  0  0  0  0  0  0  0  0  0  0  0
  131.6370  126.2780   57.3380 C   0  0  0  0  0  0  0  0  0  0  0  0
  130.8120  127.2810   56.5550 C   0  0  0  0  0  0  0  0  0  0  0  0
  129.8920  126.8960   55.8240 O   0  0  0  0  0  0  0  0  0  0  0  0
  131.1630  128.5790   56.7050 N   0  0  0  0  0  0  0  0  0  0  0  0
  130.4990  129.5320   55.9390 N   0  0  0  0  0  0  0  0  0  0  0  0
  130.9620  130.7980   55.9540 C   0  0  0  0  0  0  0  0  0  0  0  0
  131.8210  131.2260   56.7310 O   0  0  0  0  0  0  0  0  0  0  0  0
  130.3640  131.7330   54.8940 C   0  0  0  0  0  0  0  0  0  0  0  0
  128.6340  132.2440   55.2000 S   0  0  0  0  0  0  0  0  0  0  0  0
  127.9360  130.7180   55.7540 C   0  0  0  0  0  0  0  0  0  0  0  0
  127.1690  129.9690   55.0020 N   0  0  0  0  0  0  0  0  0  0  0  0
  126.7470  128.8970   55.7750 N   0  0  0  0  0  0  0  0  0  0  0  0
  127.2990  129.0220   56.9590 C   0  0  0  0  0  0  0  0  0  0  0  0
  127.0940  128.0420   58.0690 C   0  0  0  0  0  0  0  0  0  0  0  0
  127.7680  126.8180   58.0480 C   0  0  0  0  0  0  0  0  0  0  0  0
  127.5780  125.8970   59.0730 C   0  0  0  0  0  0  0  0  0  0  0  0
  126.7230  126.1980   60.1390 C   0  0  0  0  0  0  0  0  0  0  0  0
  126.4850  125.3040   61.1940 N   0  0  0  0  0  0  0  0  0  0  0  0
  126.4200  123.5350   61.0260 S   0  0  0  0  0  0  0  0  0  0  0  0
  125.1130  123.1270   61.5560 O   0  0  0  0  0  0  0  0  0  0  0  0
  127.6620  122.9800   61.5770 O   0  0  0  0  0  0  0  0  0  0  0  0
  126.3790  123.2330   59.2610 C   0  0  0  0  0  0  0  0  0  0  0  0
  125.2340  123.5250   58.5160 C   0  0  0  0  0  0  0  0  0  0  0  0
  125.2170  123.2680   57.1480 C   0  0  0  0  0  0  0  0  0  0  0  0
  126.3440  122.7260   56.5250 C   0  0  0  0  0  0  0  0  0  0  0  0
  126.3180  122.4330   55.0360 C   0  0  0  0  0  0  0  0  0  0  0  0
  127.4860  122.4320   57.2740 C   0  0  0  0  0  0  0  0  0  0  0  0
  127.5040  122.6870   58.6420 C   0  0  0  0  0  0  0  0  0  0  0  0
  126.0530  127.4220   60.1600 C   0  0  0  0  0  0  0  0  0  0  0  0
  126.2380  128.3420   59.1320 C   0  0  0  0  0  0  0  0  0  0  0  0
  128.0720  130.1700   57.0170 N   0  0  0  0  0  0  0  0  0  0  0  0
  128.7910  130.6880   58.1130 C   0  0  0  0  0  0  0  0  0  0  0  0
  129.6310  129.8540   58.8520 C   0  0  0  0  0  0  0  0  0  0  0  0
  130.3420  130.3720   59.9300 C   0  0  0  0  0  0  0  0  0  0  0  0
  130.2210  131.7180   60.2800 C   0  0  0  0  0  0  0  0  0  0  0  0
  130.9650  132.1400   61.3650 O   0  0  0  0  0  0  0  0  0  0  0  0
  132.1380  131.4180   61.7270 C   0  0  0  0  0  0  0  0  0  0  0  0
  129.3730  132.5500   59.5310 C   0  0  0  0  0  0  0  0  0  0  0  0
  128.6620  132.0370   58.4510 C   0  0  0  0  0  0  0  0  0  0  0  0
  132.7500  125.6360   56.7720 C   0  0  0  0  0  0  0  0  0  0  0  0
  133.4880  124.7160   57.5110 C   0  0  0  0  0  0  0  0  0  0  0  0
  1  2  1  0
  2  3  1  0
  3  4  2  0
  4  5  1  0
  5  6  2  0
  6  7  1  0
  7  8  2  0
  7  9  1  0
  9 10  1  0
 10 11  1  0
 11 12  2  0
 11 13  1  0
 13 14  1  0
 14 15  1  0
 15 16  2  0
 16 17  1  0
 17 18  2  0
 18 19  1  0
 19 20  2  0
 20 21  1  0
 21 22  2  0
 22 23  1  0
 23 24  1  0
 24 25  2  0
 24 26  2  0
 24 27  1  0
 27 28  2  0
 28 29  1  0
 29 30  2  0
 30 31  1  0
 30 32  1  0
 32 33  2  0
 22 34  1  0
 34 35  2  0
 18 36  1  0
 36 37  1  0
 37 38  2  0
 38 39  1  0
 39 40  2  0
 40 41  1  0
 41 42  1  0
 40 43  1  0
 43 44  2  0
  6 45  1  0
 45 46  2  0
 46  3  1  0
 36 15  1  0
 44 37  1  0
 35 19  1  0
 33 27  1  0
M  END
>  <Binding energies>  (49) 
[-11.2]

>  <Ligand effiencies>  (49) 
[-0.22857142857142856]

>  <Interactions>  (49) 
["V-B:TYR:539:CZ:9849, V-B:TYR:539:C:9839, V-B:PRO:540:N:9856, V-B:PRO:540:CB:9857, V-B:TYR:539:CG:9844, V-B:PRO:540:CA:9855, V-B:TYR:539:CE2:9848, V-B:TYR:539:CD2:9846, V-B:ASP:366:CG:8185, V-A:PRO:540:CA:4883, V-A:TYR:539:C:4867, V-A:PRO:540:N:4884, V-B:MET:535:CE:9807, V-B:TYR:539:CA:9841, H-B:TYR:531:OH:9767, V-B:TYR:539:CE1:9847, V-A:ASP:366:CG:3213, V-B:TYR:539:CD1:9845, V-B:ILE:538:CD1:9837, V-A:ASP:366:CA:3210, V-A:ASP:366:CB:3212, V-B:ILE:538:CA:9832, H-A:TYR:531:OH:4795, V-A:ILE:369:CG2:3237, V-A:GLU:543:CD:4908, H-A:ALA:541:N:4891, H-B:LYS:534:NZ:9795, V-A:PRO:540:C:4881, H-B:ASP:366:OD2:8187, V-B:GLU:543:CD:9880, H-B:GLU:543:OE1:9881, H-B:ALA:541:N:9863, V-A:ILE:369:CD1:3239, V-A:GLU:543:CG:4907, V-B:ILE:538:C:9830, V-B:ILE:538:CB:9834, V-A:ILE:369:CB:3236, V-A:ASP:366:C:3208, H-A:ASP:366:OD1:3214, H-B:GLU:543:OE2:9882"]

$$$$
RR33_Rahimova_2017
     RDKit          3D

 18 19  0  0  0  0  0  0  0  0999 V2000
  133.6430  123.1600   61.7610 C   0  0  0  0  0  0  0  0  0  0  0  0
  132.6620  122.0120   61.5030 C   0  0  0  0  0  0  0  0  0  0  0  0
  131.4180  122.3250   62.1240 O   0  0  0  0  0  0  0  0  0  0  0  0
  130.2770  122.4160   61.3500 C   0  0  0  0  0  0  0  0  0  0  0  0
  130.4350  122.9450   60.0700 C   0  0  0  0  0  0  0  0  0  0  0  0
  129.3420  123.0790   59.2190 C   0  0  0  0  0  0  0  0  0  0  0  0
  128.0680  122.6820   59.6380 C   0  0  0  0  0  0  0  0  0  0  0  0
  126.8950  122.8260   58.7230 C   0  0  0  0  0  0  0  0  0  0  0  0
  126.8210  122.4930   57.4540 N   0  0  0  0  0  0  0  0  0  0  0  0
  125.5900  122.8080   57.0810 C   0  0  0  0  0  0  0  0  0  0  0  0
  125.1180  122.5570   55.6650 C   0  0  0  0  0  0  0  0  0  0  0  0
  125.8950  123.3420   54.7170 N   0  0  0  0  0  0  0  0  0  0  0  0
  127.2360  122.8000   54.5790 C   0  0  0  0  0  0  0  0  0  0  0  0
  124.9000  123.3500   58.1580 C   0  0  0  0  0  0  0  0  0  0  0  0
  123.5070  123.8840   58.3810 C   0  0  0  0  0  0  0  0  0  0  0  0
  125.7460  123.3600   59.2140 O   0  0  0  0  0  0  0  0  0  0  0  0
  127.9060  122.1460   60.9190 C   0  0  0  0  0  0  0  0  0  0  0  0
  129.0000  122.0130   61.7720 C   0  0  0  0  0  0  0  0  0  0  0  0
  1  2  1  0
  2  3  1  0
  3  4  1  0
  4  5  2  0
  5  6  1  0
  6  7  2  0
  7  8  1  0
  8  9  2  0
  9 10  1  0
 10 11  1  0
 11 12  1  0
 12 13  1  0
 10 14  2  0
 14 15  1  0
 14 16  1  0
  7 17  1  0
 17 18  2  0
 18  4  1  0
 16  8  1  0
M  END
>  <Binding energies>  (50) 
[-5.52]

>  <Ligand effiencies>  (50) 
[-0.2905263157894737]

>  <Interactions>  (50) 
["V-B:TYR:539:C:9839, V-B:PRO:540:N:9856, V-B:PRO:540:CD:9859, H-A:TYR:484:OH:4348, V-B:PRO:540:CB:9857, V-B:PRO:540:CA:9855, V-A:LEU:475:CD2:4259, V-B:ALA:541:CB:9864, V-B:LEU:363:CD1:8161, V-B:TYR:539:CE2:9848, V-B:TYR:539:CD2:9846, V-B:ASP:366:CG:8185, V-B:ASP:366:CB:8184, V-B:MET:535:CE:9807, H-B:TYR:531:OH:9767, V-B:TYR:531:CE2:9765, V-B:TYR:539:CE1:9847, V-B:TYR:539:CD1:9845, V-B:ILE:538:CD1:9837, V-B:ILE:538:CG2:9835, V-B:ILE:538:CA:9832, V-B:PRO:540:C:9853, V-A:GLY:454:CA:4049, V-A:ILE:369:CD1:3239, V-B:VAL:537:C:9822, H-B:TYR:539:N:9842, V-B:ILE:538:CB:9834, V-B:LEU:363:CA:8157, V-B:LEU:363:CB:8159"]

$$$$
RR3_Rahimova_2017
     RDKit          3D

 38 44  0  0  0  0  0  0  0  0999 V2000
  126.7160  122.4480   57.5670 C   0  0  0  0  0  0  0  0  0  0  0  0
  127.8380  123.0570   58.1200 C   0  0  0  0  0  0  0  0  0  0  0  0
  127.7250  124.3200   58.6940 C   0  0  0  0  0  0  0  0  0  0  0  0
  126.4930  124.9900   58.7240 C   0  0  0  0  0  0  0  0  0  0  0  0
  126.3730  126.3470   59.3430 C   0  0  0  0  0  0  0  0  0  0  0  0
  126.6590  126.5480   60.7000 C   0  0  0  0  0  0  0  0  0  0  0  0
  126.5440  127.8100   61.2760 C   0  0  0  0  0  0  0  0  0  0  0  0
  126.1310  128.9020   60.5070 C   0  0  0  0  0  0  0  0  0  0  0  0
  126.0000  130.2600   61.1210 C   0  0  0  0  0  0  0  0  0  0  0  0
  125.7330  131.3130   60.3550 N   0  0  0  0  0  0  0  0  0  0  0  0
  125.6320  132.3440   61.1580 C   0  0  0  0  0  0  0  0  0  0  0  0
  125.3450  133.7130   60.7380 C   0  0  0  0  0  0  0  0  0  0  0  0
  124.1420  134.1670   60.2230 C   0  0  0  0  0  0  0  0  0  0  0  0
  124.2220  135.5070   59.9440 N   0  0  0  0  0  0  0  0  0  0  0  0
  125.4770  135.9770   60.2630 C   0  0  0  0  0  0  0  0  0  0  0  0
  126.0260  137.2600   60.1550 C   0  0  0  0  0  0  0  0  0  0  0  0
  127.3490  137.4190   60.5670 C   0  0  0  0  0  0  0  0  0  0  0  0
  128.0960  136.3550   61.0630 C   0  0  0  0  0  0  0  0  0  0  0  0
  127.5490  135.0780   61.1700 C   0  0  0  0  0  0  0  0  0  0  0  0
  126.2190  134.8630   60.7690 C   0  0  0  0  0  0  0  0  0  0  0  0
  125.8390  131.9740   62.4580 N   0  0  0  0  0  0  0  0  0  0  0  0
  126.1040  130.6290   62.4730 C   0  0  0  0  0  0  0  0  0  0  0  0
  126.4410  129.8820   63.7220 C   0  0  0  0  0  0  0  0  0  0  0  0
  125.4430  129.2070   64.4250 C   0  0  0  0  0  0  0  0  0  0  0  0
  125.7500  128.5210   65.5950 C   0  0  0  0  0  0  0  0  0  0  0  0
  127.0630  128.4900   66.0890 C   0  0  0  0  0  0  0  0  0  0  0  0
  127.3860  127.7680   67.3590 C   0  0  0  0  0  0  0  0  0  0  0  0
  128.6360  127.9250   67.9780 C   0  0  0  0  0  0  0  0  0  0  0  0
  128.9350  127.2560   69.1620 C   0  0  0  0  0  0  0  0  0  0  0  0
  127.9850  126.4210   69.7420 C   0  0  0  0  0  0  0  0  0  0  0  0
  126.7400  126.2520   69.1460 C   0  0  0  0  0  0  0  0  0  0  0  0
  126.4440  126.9200   67.9620 C   0  0  0  0  0  0  0  0  0  0  0  0
  128.0590  129.1580   65.3640 C   0  0  0  0  0  0  0  0  0  0  0  0
  127.7550  129.8450   64.1930 C   0  0  0  0  0  0  0  0  0  0  0  0
  125.8560  128.7140   59.1510 C   0  0  0  0  0  0  0  0  0  0  0  0
  125.9720  127.4510   58.5780 C   0  0  0  0  0  0  0  0  0  0  0  0
  125.3760  124.3570   58.1590 C   0  0  0  0  0  0  0  0  0  0  0  0
  125.4840  123.0940   57.5840 C   0  0  0  0  0  0  0  0  0  0  0  0
  1  2  2  0
  2  3  1  0
  3  4  2  0
  4  5  1  0
  5  6  2  0
  6  7  1  0
  7  8  2  0
  8  9  1  0
  9 10  1  0
 10 11  2  0
 11 12  1  0
 12 13  2  0
 13 14  1  0
 14 15  1  0
 15 16  2  0
 16 17  1  0
 17 18  2  0
 18 19  1  0
 19 20  2  0
 11 21  1  0
 21 22  1  0
 22 23  1  0
 23 24  2  0
 24 25  1  0
 25 26  2  0
 26 27  1  0
 27 28  2  0
 28 29  1  0
 29 30  2  0
 30 31  1  0
 31 32  2  0
 26 33  1  0
 33 34  2  0
  8 35  1  0
 35 36  2  0
  4 37  1  0
 37 38  2  0
 38  1  1  0
 36  5  1  0
 22  9  2  0
 34 23  1  0
 20 12  1  0
 32 27  1  0
 20 15  1  0
M  END
>  <Binding energies>  (51) 
[-10.15]

>  <Ligand effiencies>  (51) 
[-0.25375000000000003]

>  <Interactions>  (51) 
["V-B:TYR:539:C:9839, V-B:PRO:540:N:9856, V-B:PRO:540:CD:9859, V-B:PRO:540:CB:9857, V-B:PRO:540:CA:9855, V-B:TYR:539:CE2:9848, V-B:TYR:539:CD2:9846, V-B:ASP:366:CG:8185, V-B:ARG:545:CZ:9898, V-B:ILE:369:CG2:8209, V-A:TYR:539:CE1:4875, V-A:TYR:539:CD1:4873, V-B:LEU:475:CD2:9231, V-B:ILE:369:CD1:8211, V-A:TYR:539:C:4867, V-B:ASP:366:CB:8184, V-B:TYR:539:CA:9841, V-A:ALA:541:CB:4892, V-A:GLU:543:CD:4908, V-A:PRO:540:C:4881, V-B:GLU:543:CD:9880, V-B:ARG:545:CD:9895, H-B:TYR:484:OH:9320, V-A:GLU:543:CG:4907, V-B:PRO:482:CG:9299, V-B:PRO:482:CB:9298, V-B:SER:385:CB:8381, V-B:SER:385:CA:8379, V-B:ARG:545:CG:9894, V-B:HIS:456:CE1:9042, V-A:GLU:543:CB:4906, V-A:HIS:456:CE1:4070, V-B:HIS:383:CD2:8364, H-B:SER:385:OG:8382, H-B:VAL:384:O:8370, V-B:GLY:544:C:9884, V-B:GLU:543:C:9874, V-B:ARG:545:CA:9891, V-B:GLU:543:CB:9878, V-B:GLU:543:CA:9876"]

$$$$
RR4_Rahimova_2017
     RDKit          3D

 40 44  0  0  0  0  0  0  0  0999 V2000
  127.1210  122.4430   54.8580 C   0  0  0  0  0  0  0  0  0  0  0  0
  127.2590  122.4960   56.2740 O   0  0  0  0  0  0  0  0  0  0  0  0
  127.0170  123.6870   56.9310 C   0  0  0  0  0  0  0  0  0  0  0  0
  125.8550  123.7550   57.6950 C   0  0  0  0  0  0  0  0  0  0  0  0
  125.5300  124.9140   58.3930 C   0  0  0  0  0  0  0  0  0  0  0  0
  126.3590  126.0450   58.3430 C   0  0  0  0  0  0  0  0  0  0  0  0
  126.0040  127.2950   59.0960 C   0  0  0  0  0  0  0  0  0  0  0  0
  126.3490  127.4950   60.4370 C   0  0  0  0  0  0  0  0  0  0  0  0
  125.9990  128.6820   61.0950 C   0  0  0  0  0  0  0  0  0  0  0  0
  126.4250  128.8360   62.5180 C   0  0  0  0  0  0  0  0  0  0  0  0
  127.7810  128.9710   62.8340 C   0  0  0  0  0  0  0  0  0  0  0  0
  128.1860  129.1270   64.1570 C   0  0  0  0  0  0  0  0  0  0  0  0
  127.2460  129.1590   65.1870 C   0  0  0  0  0  0  0  0  0  0  0  0
  127.7400  129.3180   66.4680 O   0  0  0  0  0  0  0  0  0  0  0  0
  128.6260  128.3370   66.9980 C   0  0  0  0  0  0  0  0  0  0  0  0
  125.8850  129.0300   64.8740 C   0  0  0  0  0  0  0  0  0  0  0  0
  125.4820  128.8740   63.5500 C   0  0  0  0  0  0  0  0  0  0  0  0
  125.2650  129.6590   60.3790 C   0  0  0  0  0  0  0  0  0  0  0  0
  124.8740  130.9190   61.0190 C   0  0  0  0  0  0  0  0  0  0  0  0
  124.5650  131.9130   61.5240 N   0  0  0  0  0  0  0  0  0  0  0  0
  124.9250  129.3780   59.0360 C   0  0  0  0  0  0  0  0  0  0  0  0
  123.9970  130.4820   57.9910 S   0  0  0  0  0  0  0  0  0  0  0  0
  124.1870  129.9100   56.2700 C   0  0  0  0  0  0  0  0  0  0  0  0
  125.6300  129.9300   55.7470 C   0  0  0  0  0  0  0  0  0  0  0  0
  126.0520  129.0130   55.0380 O   0  0  0  0  0  0  0  0  0  0  0  0
  126.3600  131.0000   56.1400 N   0  0  0  0  0  0  0  0  0  0  0  0
  127.6890  131.3050   55.8340 C   0  0  0  0  0  0  0  0  0  0  0  0
  128.3510  131.1510   54.2280 S   0  0  0  0  0  0  0  0  0  0  0  0
  129.9140  131.6900   54.7610 C   0  0  0  0  0  0  0  0  0  0  0  0
  129.9210  131.9740   56.1350 C   0  0  0  0  0  0  0  0  0  0  0  0
  128.6560  131.7710   56.7380 C   0  0  0  0  0  0  0  0  0  0  0  0
  128.3910  132.0130   58.1530 C   0  0  0  0  0  0  0  0  0  0  0  0
  128.1810  132.2050   59.2750 N   0  0  0  0  0  0  0  0  0  0  0  0
  131.1760  132.5040   56.8390 C   0  0  0  0  0  0  0  0  0  0  0  0
  132.1980  133.0310   55.8060 C   0  0  0  0  0  0  0  0  0  0  0  0
  132.3850  132.0600   54.6270 C   0  0  0  0  0  0  0  0  0  0  0  0
  131.0880  131.8850   53.8100 C   0  0  0  0  0  0  0  0  0  0  0  0
  125.3030  128.2370   58.4150 N   0  0  0  0  0  0  0  0  0  0  0  0
  127.5300  125.9660   57.5730 C   0  0  0  0  0  0  0  0  0  0  0  0
  127.8570  124.8080   56.8740 C   0  0  0  0  0  0  0  0  0  0  0  0
  1  2  1  0
  2  3  1  0
  3  4  2  0
  4  5  1  0
  5  6  2  0
  6  7  1  0
  7  8  2  0
  8  9  1  0
  9 10  1  0
 10 11  2  0
 11 12  1  0
 12 13  2  0
 13 14  1  0
 14 15  1  0
 13 16  1  0
 16 17  2  0
  9 18  2  0
 18 19  1  0
 19 20  3  0
 18 21  1  0
 21 22  1  0
 22 23  1  0
 23 24  1  0
 24 25  2  0
 24 26  1  0
 26 27  1  0
 27 28  1  0
 28 29  1  0
 29 30  2  0
 30 31  1  0
 31 32  1  0
 32 33  3  0
 30 34  1  0
 34 35  1  0
 35 36  1  0
 36 37  1  0
 21 38  2  0
  6 39  1  0
 39 40  2  0
 40  3  1  0
 38  7  1  0
 17 10  1  0
 31 27  2  0
 37 29  1  0
M  END
>  <Binding energies>  (52) 
[-11.19]

>  <Ligand effiencies>  (52) 
[-0.27292682926829265]

>  <Interactions>  (52) 
["V-B:TYR:531:CE1:9764, V-B:ASP:366:CG:8185, V-B:ARG:545:CZ:9898, V-A:MET:535:CG:4833, V-A:TYR:531:CZ:4794, V-A:ILE:538:CG2:4863, V-A:PRO:540:CB:4885, V-A:PRO:540:CD:4887, V-A:TYR:539:CE1:4875, V-A:TYR:539:CD1:4873, V-A:ILE:538:CB:4862, V-A:PRO:540:CG:4886, V-A:TYR:539:CZ:4877, V-A:PRO:540:CA:4883, V-A:LEU:363:CD1:3189, V-B:ASP:366:CA:8182, V-A:TYR:539:CE2:4876, V-A:TYR:539:C:4867, V-B:ASP:366:C:8180, V-A:PRO:540:N:4884, V-B:ASP:366:CB:8184, V-A:ILE:538:CA:4860, V-B:MET:535:CE:9807, V-A:TYR:531:CE2:4793, V-B:TYR:531:CZ:9766, H-B:TYR:531:OH:9767, V-B:TYR:539:CE1:9847, V-B:TYR:539:CD1:9845, V-B:ILE:538:CD1:9837, V-B:ILE:538:CA:9832, V-A:GLU:543:CD:4908, H-B:LYS:534:NZ:9795, H-B:TYR:484:OH:9320, V-A:GLU:543:CG:4907, H-A:TYR:539:OH:4878, V-B:ILE:538:C:9830, V-B:VAL:537:C:9822, V-B:HIS:456:CE1:9042, H-B:TYR:539:N:9842, V-A:GLU:543:CB:4906, V-B:TYR:531:CD1:9762"]

$$$$
RR6_Rahimova_2017
     RDKit          3D

 38 41  0  0  0  0  0  0  0  0999 V2000
  133.1450  130.9190   57.2990 C   0  0  0  0  0  0  0  0  0  0  0  0
  133.0420  131.4260   55.9760 O   0  0  0  0  0  0  0  0  0  0  0  0
  132.1770  132.4290   55.6780 C   0  0  0  0  0  0  0  0  0  0  0  0
  132.5390  133.5680   55.3640 O   0  0  0  0  0  0  0  0  0  0  0  0
  130.7360  132.0170   55.7650 C   0  0  0  0  0  0  0  0  0  0  0  0
  130.0380  131.5120   54.6580 C   0  0  0  0  0  0  0  0  0  0  0  0
  128.6990  131.1460   54.7700 C   0  0  0  0  0  0  0  0  0  0  0  0
  128.0320  131.2830   55.9960 C   0  0  0  0  0  0  0  0  0  0  0  0
  126.6770  130.9710   56.2120 N   0  0  0  0  0  0  0  0  0  0  0  0
  125.9520  129.9320   55.7420 C   0  0  0  0  0  0  0  0  0  0  0  0
  126.3800  129.0330   55.0180 O   0  0  0  0  0  0  0  0  0  0  0  0
  124.4650  129.9410   56.1120 C   0  0  0  0  0  0  0  0  0  0  0  0
  124.1390  130.4810   57.8230 S   0  0  0  0  0  0  0  0  0  0  0  0
  124.9920  129.3410   58.8930 C   0  0  0  0  0  0  0  0  0  0  0  0
  125.3310  128.1700   58.3020 N   0  0  0  0  0  0  0  0  0  0  0  0
  126.0120  127.2320   59.0090 C   0  0  0  0  0  0  0  0  0  0  0  0
  126.4030  125.9900   58.2640 C   0  0  0  0  0  0  0  0  0  0  0  0
  127.5680  125.9520   57.4830 C   0  0  0  0  0  0  0  0  0  0  0  0
  127.9240  124.8030   56.7820 C   0  0  0  0  0  0  0  0  0  0  0  0
  127.1210  123.6650   56.8530 C   0  0  0  0  0  0  0  0  0  0  0  0
  127.5080  122.4180   56.0800 C   0  0  0  0  0  0  0  0  0  0  0  0
  125.9610  123.6810   57.6250 C   0  0  0  0  0  0  0  0  0  0  0  0
  125.6110  124.8320   58.3240 C   0  0  0  0  0  0  0  0  0  0  0  0
  126.3570  127.4550   60.3460 C   0  0  0  0  0  0  0  0  0  0  0  0
  126.0140  128.6580   60.9800 C   0  0  0  0  0  0  0  0  0  0  0  0
  126.4290  128.8370   62.4030 C   0  0  0  0  0  0  0  0  0  0  0  0
  125.4640  128.9770   63.4050 C   0  0  0  0  0  0  0  0  0  0  0  0
  125.8430  129.1290   64.7370 C   0  0  0  0  0  0  0  0  0  0  0  0
  127.1900  129.1380   65.0930 C   0  0  0  0  0  0  0  0  0  0  0  0
  127.4720  129.2920   66.4360 O   0  0  0  0  0  0  0  0  0  0  0  0
  128.4450  128.4470   67.0420 C   0  0  0  0  0  0  0  0  0  0  0  0
  128.1630  128.9930   64.0920 C   0  0  0  0  0  0  0  0  0  0  0  0
  127.7810  128.8410   62.7610 C   0  0  0  0  0  0  0  0  0  0  0  0
  125.3040  129.6320   60.2360 C   0  0  0  0  0  0  0  0  0  0  0  0
  124.8880  130.8990   60.8470 C   0  0  0  0  0  0  0  0  0  0  0  0
  124.5620  131.9000   61.3280 N   0  0  0  0  0  0  0  0  0  0  0  0
  128.7270  131.7690   57.1040 C   0  0  0  0  0  0  0  0  0  0  0  0
  130.0650  132.1380   56.9890 C   0  0  0  0  0  0  0  0  0  0  0  0
  1  2  1  0
  2  3  1  0
  3  4  2  0
  3  5  1  0
  5  6  2  0
  6  7  1  0
  7  8  2  0
  8  9  1  0
  9 10  1  0
 10 11  2  0
 10 12  1  0
 12 13  1  0
 13 14  1  0
 14 15  2  0
 15 16  1  0
 16 17  1  0
 17 18  2  0
 18 19  1  0
 19 20  2  0
 20 21  1  0
 20 22  1  0
 22 23  2  0
 16 24  2  0
 24 25  1  0
 25 26  1  0
 26 27  2  0
 27 28  1  0
 28 29  2  0
 29 30  1  0
 30 31  1  0
 29 32  1  0
 32 33  2  0
 25 34  2  0
 34 35  1  0
 35 36  3  0
  8 37  1  0
 37 38  2  0
 38  5  1  0
 34 14  1  0
 23 17  1  0
 33 26  1  0
M  END
>  <Binding energies>  (53) 
[-9.68]

>  <Ligand effiencies>  (53) 
[-0.2482051282051282]

>  <Interactions>  (53) 
["V-B:TYR:539:CZ:9849, V-B:TYR:539:C:9839, V-B:TYR:539:CG:9844, V-B:TYR:539:CE2:9848, V-B:TYR:539:CD2:9846, V-B:TYR:531:CE1:9764, V-B:ASP:366:CG:8185, V-B:ARG:545:CZ:9898, V-A:ILE:538:CG2:4863, V-A:PRO:540:CB:4885, V-A:PRO:540:CD:4887, V-A:TYR:539:CE1:4875, V-A:ILE:538:CB:4862, V-A:TYR:539:CZ:4877, V-A:PRO:540:CA:4883, V-A:LEU:363:CD1:3189, V-B:ASP:366:CA:8182, V-A:TYR:539:CE2:4876, V-A:TYR:539:C:4867, V-A:PRO:540:N:4884, V-B:ASP:366:CB:8184, V-B:MET:535:CE:9807, V-B:TYR:539:CA:9841, V-B:TYR:531:CZ:9766, H-B:TYR:531:OH:9767, V-B:TYR:539:CE1:9847, V-B:TYR:539:CD1:9845, V-A:ASP:366:CB:3212, V-B:ILE:538:CA:9832, H-A:TYR:531:OH:4795, V-A:GLU:543:CD:4908, H-A:TYR:539:N:4870, H-B:LYS:534:NZ:9795, H-B:TYR:484:OH:9320, V-A:GLU:543:CG:4907, H-A:TYR:539:OH:4878, V-B:HIS:456:CE1:9042, V-A:GLU:543:CB:4906, V-B:TYR:531:CD1:9762"]

$$$$
RR7_Rahimova_2017
     RDKit          3D

 47 53  0  0  0  0  0  0  0  0999 V2000
  125.2230  130.4710   59.6830 C   0  0  0  0  0  0  0  0  0  0  0  0
  126.5800  130.0440   59.7520 O   0  0  0  0  0  0  0  0  0  0  0  0
  126.8830  128.7220   59.4910 C   0  0  0  0  0  0  0  0  0  0  0  0
  126.2670  128.1490   58.3810 C   0  0  0  0  0  0  0  0  0  0  0  0
  126.5150  126.8240   58.0360 C   0  0  0  0  0  0  0  0  0  0  0  0
  127.3820  126.0340   58.8050 C   0  0  0  0  0  0  0  0  0  0  0  0
  127.7050  124.5550   58.4240 C   0  0  0  0  0  0  0  0  0  0  0  0
  128.9160  124.5940   57.6360 O   0  0  0  0  0  0  0  0  0  0  0  0
  129.0140  125.4770   56.5140 C   0  0  0  0  0  0  0  0  0  0  0  0
  130.4500  126.0210   56.4290 C   0  0  1  0  0  0  0  0  0  0  0  0
  130.3530  127.4430   56.4410 O   0  0  0  0  0  0  0  0  0  0  0  0
  131.0540  128.0060   57.5120 C   0  0  1  0  0  0  0  0  0  0  0  0
  130.3810  129.2050   57.9730 N   0  0  0  0  0  0  0  0  0  0  0  0
  129.3800  129.9190   57.3380 C   0  0  0  0  0  0  0  0  0  0  0  0
  128.9800  131.0000   57.9600 N   0  0  0  0  0  0  0  0  0  0  0  0
  129.7850  131.0580   59.0650 C   0  0  0  0  0  0  0  0  0  0  0  0
  129.8690  131.9830   60.1230 C   0  0  0  0  0  0  0  0  0  0  0  0
  128.9860  133.0800   60.1330 N   0  0  0  0  0  0  0  0  0  0  0  0
  128.1250  133.4720   61.1010 C   0  0  0  0  0  0  0  0  0  0  0  0
  127.9660  132.8790   62.1710 O   0  0  0  0  0  0  0  0  0  0  0  0
  127.3040  134.7050   60.7880 C   0  0  0  0  0  0  0  0  0  0  0  0
  127.8550  135.9780   61.0010 C   0  0  0  0  0  0  0  0  0  0  0  0
  127.1210  137.1250   60.7150 C   0  0  0  0  0  0  0  0  0  0  0  0
  125.8310  137.0090   60.2080 C   0  0  0  0  0  0  0  0  0  0  0  0
  125.2670  135.7560   59.9850 C   0  0  0  0  0  0  0  0  0  0  0  0
  126.0010  134.6070   60.2720 C   0  0  0  0  0  0  0  0  0  0  0  0
  130.8030  131.7930   61.1040 N   0  0  0  0  0  0  0  0  0  0  0  0
  131.6140  130.7080   61.0060 C   0  0  0  0  0  0  0  0  0  0  0  0
  131.6160  129.7550   60.0350 N   0  0  0  0  0  0  0  0  0  0  0  0
  130.6870  129.9630   59.0930 C   0  0  0  0  0  0  0  0  0  0  0  0
  131.1660  126.8930   58.5480 C   0  0  0  0  0  0  0  0  0  0  0  0
  131.3410  125.6910   57.6350 C   0  0  2  0  0  0  0  0  0  0  0  0
  132.6960  125.4960   57.2690 O   0  0  0  0  0  0  0  0  0  0  0  0
  128.0000  123.6760   59.6680 C   0  0  0  0  0  0  0  0  0  0  0  0
  129.1640  122.8900   59.7190 C   0  0  0  0  0  0  0  0  0  0  0  0
  129.4320  122.0880   60.8230 C   0  0  0  0  0  0  0  0  0  0  0  0
  128.5380  122.0600   61.8890 C   0  0  0  0  0  0  0  0  0  0  0  0
  127.3790  122.8300   61.8590 C   0  0  0  0  0  0  0  0  0  0  0  0
  127.1100  123.6320   60.7540 C   0  0  0  0  0  0  0  0  0  0  0  0
  126.5960  123.8030   57.6340 C   0  0  0  0  0  0  0  0  0  0  0  0
  126.9150  123.0910   56.4670 C   0  0  0  0  0  0  0  0  0  0  0  0
  125.9290  122.4220   55.7480 C   0  0  0  0  0  0  0  0  0  0  0  0
  124.6080  122.4660   56.1850 C   0  0  0  0  0  0  0  0  0  0  0  0
  124.2680  123.1770   57.3320 C   0  0  0  0  0  0  0  0  0  0  0  0
  125.2550  123.8440   58.0490 C   0  0  0  0  0  0  0  0  0  0  0  0
  128.0110  126.6200   59.9130 C   0  0  0  0  0  0  0  0  0  0  0  0
  127.7630  127.9460   60.2570 C   0  0  0  0  0  0  0  0  0  0  0  0
  1  2  1  0
  2  3  1  0
  3  4  2  0
  4  5  1  0
  5  6  2  0
  6  7  1  0
  7  8  1  0
  8  9  1  0
 10  9  1  1
 10 11  1  0
 11 12  1  0
 12 13  1  1
 13 14  1  0
 14 15  2  0
 15 16  1  0
 16 17  2  0
 17 18  1  0
 18 19  1  0
 19 20  2  0
 19 21  1  0
 21 22  2  0
 22 23  1  0
 23 24  2  0
 24 25  1  0
 25 26  2  0
 17 27  1  0
 27 28  2  0
 28 29  1  0
 29 30  2  0
 12 31  1  0
 31 32  1  0
 32 33  1  6
  7 34  1  0
 34 35  2  0
 35 36  1  0
 36 37  2  0
 37 38  1  0
 38 39  2  0
  7 40  1  0
 40 41  2  0
 41 42  1  0
 42 43  2  0
 43 44  1  0
 44 45  2  0
  6 46  1  0
 46 47  2  0
 47  3  1  0
 32 10  1  0
 39 34  1  0
 45 40  1  0
 30 13  1  0
 30 16  1  0
 26 21  1  0
M  END
>  <Binding energies>  (54) 
[-10.61]

>  <Ligand effiencies>  (54) 
[-0.21653061224489795]

>  <Interactions>  (54) 
["V-B:PRO:540:CD:9859, V-B:PRO:540:CB:9857, V-B:PRO:540:CA:9855, V-B:ALA:541:CB:9864, V-B:LEU:363:CD1:8161, V-B:TYR:539:CE2:9848, V-B:TYR:539:CD2:9846, V-B:ASP:366:CG:8185, V-A:TYR:539:CE1:4875, V-A:TYR:539:CD1:4873, V-A:PRO:540:CA:4883, V-B:LEU:475:CD2:9231, V-A:TYR:539:C:4867, V-A:PRO:540:N:4884, V-B:MET:535:CE:9807, V-B:TYR:531:CE2:9765, V-A:ASP:366:CG:3213, V-B:ILE:538:CD1:9837, V-B:ILE:538:CG2:9835, V-A:ASP:366:CB:3212, V-B:ILE:538:CA:9832, V-A:ALA:541:CB:4892, H-A:ASP:366:O:3209, H-A:TYR:539:O:4868, H-A:TYR:531:OH:4795, H-B:TYR:539:OH:9850, V-A:GLU:543:CD:4908, H-A:ALA:541:N:4891, V-A:PRO:540:C:4881, V-B:GLU:543:CD:9880, V-B:PRO:540:C:9853, V-B:PRO:482:CG:9299, V-B:PRO:482:CB:9298, V-B:SER:385:CB:8381, V-B:ILE:538:C:9830, V-B:PRO:540:CG:9858, V-B:HIS:383:CD2:8364"]

$$$$
RR8_A_Rahimova_2017
     RDKit          3D

 42 46  0  0  0  0  0  0  0  0999 V2000
  132.3290  126.5360   55.4050 O   0  0  0  0  0  0  0  0  0  0  0  0
  131.5860  126.2470   56.3490 C   0  0  0  0  0  0  0  0  0  0  0  0
  130.2250  126.4050   56.3390 O   0  0  0  0  0  0  0  0  0  0  0  0
  129.7250  127.6970   56.1320 C   0  0  1  0  0  0  0  0  0  0  0  0
  129.9900  128.1520   54.8360 O   0  0  0  0  0  0  0  0  0  0  0  0
  128.9030  128.9060   54.3070 C   0  0  2  0  0  0  0  0  0  0  0  0
  129.4280  130.2870   53.8780 C   0  0  0  0  0  0  0  0  0  0  0  0
  128.3650  131.2270   53.9580 O   0  0  0  0  0  0  0  0  0  0  0  0
  128.6780  132.3910   54.7120 C   0  0  0  0  0  0  0  0  0  0  0  0
  129.9480  132.1590   55.5170 C   0  0  0  0  0  0  0  0  0  0  0  0
  129.8770  131.5360   56.7650 C   0  0  0  0  0  0  0  0  0  0  0  0
  131.0400  131.3160   57.5020 C   0  0  0  0  0  0  0  0  0  0  0  0
  132.2700  131.7170   56.9850 C   0  0  0  0  0  0  0  0  0  0  0  0
  132.3500  132.3330   55.7380 C   0  0  0  0  0  0  0  0  0  0  0  0
  131.1880  132.5520   55.0010 C   0  0  0  0  0  0  0  0  0  0  0  0
  127.8750  128.9150   55.4470 C   0  0  1  0  0  0  0  0  0  0  0  0
  126.5300  128.7910   54.9900 O   0  0  0  0  0  0  0  0  0  0  0  0
  125.6440  129.8290   55.3920 C   0  0  0  0  0  0  0  0  0  0  0  0
  125.7870  130.0850   56.8860 C   0  0  0  0  0  0  0  0  0  0  0  0
  125.0490  129.3210   57.7940 C   0  0  0  0  0  0  0  0  0  0  0  0
  125.1670  129.5550   59.1610 C   0  0  0  0  0  0  0  0  0  0  0  0
  126.0230  130.5570   59.6180 C   0  0  0  0  0  0  0  0  0  0  0  0
  126.7570  131.3270   58.7200 C   0  0  0  0  0  0  0  0  0  0  0  0
  126.6370  131.0940   57.3520 C   0  0  0  0  0  0  0  0  0  0  0  0
  128.2060  127.6550   56.2250 C   0  0  2  0  0  0  0  0  0  0  0  0
  127.7110  127.7450   57.5590 O   0  0  0  0  0  0  0  0  0  0  0  0
  128.0440  126.6570   58.4150 C   0  0  0  0  0  0  0  0  0  0  0  0
  127.3470  125.3910   57.9370 C   0  0  0  0  0  0  0  0  0  0  0  0
  126.0440  125.1040   58.3560 C   0  0  0  0  0  0  0  0  0  0  0  0
  125.4070  123.9500   57.9080 C   0  0  0  0  0  0  0  0  0  0  0  0
  126.0730  123.0870   57.0400 C   0  0  0  0  0  0  0  0  0  0  0  0
  127.3690  123.3680   56.6140 C   0  0  0  0  0  0  0  0  0  0  0  0
  128.0070  124.5230   57.0620 C   0  0  0  0  0  0  0  0  0  0  0  0
  132.0910  125.6670   57.6390 C   0  0  0  0  0  0  0  0  0  0  0  0
  131.5270  126.0100   58.8780 C   0  0  0  0  0  0  0  0  0  0  0  0
  132.0190  125.4560   60.0560 C   0  0  0  0  0  0  0  0  0  0  0  0
  133.0850  124.5470   60.0280 C   0  0  0  0  0  0  0  0  0  0  0  0
  133.6070  123.9560   61.2840 N   0  0  0  0  0  0  0  0  0  0  0  0
  133.8940  124.7060   62.2130 O   0  0  0  0  0  0  0  0  0  0  0  0
  133.7320  122.7370   61.3530 O   0  0  0  0  0  0  0  0  0  0  0  0
  133.6480  124.2080   58.7920 C   0  0  0  0  0  0  0  0  0  0  0  0
  133.1580  124.7600   57.6120 C   0  0  0  0  0  0  0  0  0  0  0  0
  1  2  2  0
  2  3  1  0
  4  3  1  6
  4  5  1  0
  5  6  1  0
  6  7  1  1
  7  8  1  0
  8  9  1  0
  9 10  1  0
 10 11  2  0
 11 12  1  0
 12 13  2  0
 13 14  1  0
 14 15  2  0
  6 16  1  0
 16 17  1  6
 17 18  1  0
 18 19  1  0
 19 20  2  0
 20 21  1  0
 21 22  2  0
 22 23  1  0
 23 24  2  0
 16 25  1  0
 25 26  1  1
 26 27  1  0
 27 28  1  0
 28 29  2  0
 29 30  1  0
 30 31  2  0
 31 32  1  0
 32 33  2  0
  2 34  1  0
 34 35  2  0
 35 36  1  0
 36 37  2  0
 37 38  1  0
 38 39  2  0
 38 40  1  0
 37 41  1  0
 41 42  2  0
 25  4  1  0
 33 28  1  0
 42 34  1  0
 15 10  1  0
 24 19  1  0
M  CHG  2  38   1  40  -1
M  END
>  <Binding energies>  (55) 
[-10.84]

>  <Ligand effiencies>  (55) 
[-0.2580952380952381]

>  <Interactions>  (55) 
["V-B:TYR:539:CZ:9849, V-B:PRO:540:N:9856, V-B:PRO:540:CB:9857, H-A:GLY:454:N:4050, V-B:TYR:539:CE2:9848, V-B:TYR:531:CE1:9764, V-B:ASP:366:CG:8185, V-A:ILE:538:CG2:4863, V-A:PRO:540:CB:4885, V-A:PRO:540:CD:4887, V-A:TYR:539:CE1:4875, V-A:TYR:539:CD1:4873, V-A:ILE:538:CB:4862, V-A:TYR:539:CZ:4877, V-A:PRO:540:CA:4883, V-A:LEU:363:CD1:3189, V-A:TYR:539:CE2:4876, V-A:TYR:539:CD2:4874, V-A:MET:535:CE:4835, V-B:ASP:366:CB:8184, V-A:ILE:538:CA:4860, V-B:MET:535:CE:9807, V-A:TYR:531:CE2:4793, V-B:TYR:531:CZ:9766, H-B:TYR:531:OH:9767, V-A:TYR:539:CG:4872, V-A:ASP:366:CG:3213, V-A:ASP:366:CA:3210, V-A:ASP:366:CB:3212, H-A:TYR:531:OH:4795, H-B:TYR:539:OH:9850, V-A:ILE:369:CG2:3237, H-B:LYS:534:NZ:9795, V-A:ILE:369:CD1:3239, H-A:ARG:545:NH2:4928, V-A:ILE:369:CB:3236, V-A:ASP:366:C:3208"]

$$$$
RR8_B_Rahimova_2017
     RDKit          3D

 42 46  0  0  0  0  0  0  0  0999 V2000
  132.1330  126.5980   55.9290 O   0  0  0  0  0  0  0  0  0  0  0  0
  131.4730  126.2180   56.9020 C   0  0  0  0  0  0  0  0  0  0  0  0
  130.1120  126.3080   56.9950 O   0  0  0  0  0  0  0  0  0  0  0  0
  129.5560  127.5190   57.4460 C   0  0  2  0  0  0  0  0  0  0  0  0
  128.5540  127.3100   58.4010 O   0  0  0  0  0  0  0  0  0  0  0  0
  127.2670  127.2090   57.7940 C   0  0  2  0  0  0  0  0  0  0  0  0
  126.6340  125.8530   58.1520 C   0  0  0  0  0  0  0  0  0  0  0  0
  127.4650  125.1830   59.0920 O   0  0  0  0  0  0  0  0  0  0  0  0
  128.0150  123.9550   58.6350 C   0  0  0  0  0  0  0  0  0  0  0  0
  127.1730  123.4280   57.4830 C   0  0  0  0  0  0  0  0  0  0  0  0
  125.8770  122.9640   57.7250 C   0  0  0  0  0  0  0  0  0  0  0  0
  125.1100  122.4570   56.6790 C   0  0  0  0  0  0  0  0  0  0  0  0
  125.6430  122.4180   55.3920 C   0  0  0  0  0  0  0  0  0  0  0  0
  126.9310  122.8850   55.1410 C   0  0  0  0  0  0  0  0  0  0  0  0
  127.6990  123.3890   56.1880 C   0  0  0  0  0  0  0  0  0  0  0  0
  127.5320  127.4390   56.3010 C   0  0  1  0  0  0  0  0  0  0  0  0
  126.4410  128.1580   55.7190 O   0  0  0  0  0  0  0  0  0  0  0  0
  126.5330  129.5850   55.7110 C   0  0  0  0  0  0  0  0  0  0  0  0
  125.8060  130.2170   56.8940 C   0  0  0  0  0  0  0  0  0  0  0  0
  126.5340  130.7340   57.9690 C   0  0  0  0  0  0  0  0  0  0  0  0
  125.8690  131.3390   59.0320 C   0  0  0  0  0  0  0  0  0  0  0  0
  124.4780  131.4210   59.0190 C   0  0  0  0  0  0  0  0  0  0  0  0
  123.7450  130.9040   57.9530 C   0  0  0  0  0  0  0  0  0  0  0  0
  124.4110  130.3010   56.8870 C   0  0  0  0  0  0  0  0  0  0  0  0
  128.8440  128.2160   56.2870 C   0  0  2  0  0  0  0  0  0  0  0  0
  129.5010  128.0590   55.0320 O   0  0  0  0  0  0  0  0  0  0  0  0
  129.6290  129.2400   54.2550 C   0  0  0  0  0  0  0  0  0  0  0  0
  129.8290  130.4120   55.2000 C   0  0  0  0  0  0  0  0  0  0  0  0
  130.8680  130.3960   56.1340 C   0  0  0  0  0  0  0  0  0  0  0  0
  131.0290  131.4670   57.0090 C   0  0  0  0  0  0  0  0  0  0  0  0
  130.1540  132.5490   56.9470 C   0  0  0  0  0  0  0  0  0  0  0  0
  129.1160  132.5720   56.0160 C   0  0  0  0  0  0  0  0  0  0  0  0
  128.9540  131.5010   55.1420 C   0  0  0  0  0  0  0  0  0  0  0  0
  132.0950  125.6340   58.1380 C   0  0  0  0  0  0  0  0  0  0  0  0
  133.1370  124.6980   58.0700 C   0  0  0  0  0  0  0  0  0  0  0  0
  133.6870  124.1670   59.2310 C   0  0  0  0  0  0  0  0  0  0  0  0
  133.2050  124.5500   60.4890 C   0  0  0  0  0  0  0  0  0  0  0  0
  133.7760  123.9620   61.7260 N   0  0  0  0  0  0  0  0  0  0  0  0
  133.9000  124.6790   62.7150 O   0  0  0  0  0  0  0  0  0  0  0  0
  134.1010  122.7770   61.7190 O   0  0  0  0  0  0  0  0  0  0  0  0
  132.1690  125.4890   60.5570 C   0  0  0  0  0  0  0  0  0  0  0  0
  131.6220  126.0270   59.3960 C   0  0  0  0  0  0  0  0  0  0  0  0
  1  2  2  0
  2  3  1  0
  4  3  1  6
  4  5  1  0
  5  6  1  0
  6  7  1  6
  7  8  1  0
  8  9  1  0
  9 10  1  0
 10 11  2  0
 11 12  1  0
 12 13  2  0
 13 14  1  0
 14 15  2  0
  6 16  1  0
 16 17  1  1
 17 18  1  0
 18 19  1  0
 19 20  2  0
 20 21  1  0
 21 22  2  0
 22 23  1  0
 23 24  2  0
 16 25  1  0
 25 26  1  6
 26 27  1  0
 27 28  1  0
 28 29  2  0
 29 30  1  0
 30 31  2  0
 31 32  1  0
 32 33  2  0
  2 34  1  0
 34 35  2  0
 35 36  1  0
 36 37  2  0
 37 38  1  0
 38 39  2  0
 38 40  1  0
 37 41  1  0
 41 42  2  0
 25  4  1  0
 33 28  1  0
 42 34  1  0
 15 10  1  0
 24 19  1  0
M  CHG  2  38   1  40  -1
M  END
>  <Binding energies>  (56) 
[-10.51]

>  <Ligand effiencies>  (56) 
[-0.25023809523809526]

>  <Interactions>  (56) 
["V-B:TYR:539:CZ:9849, V-B:TYR:539:C:9839, V-B:PRO:540:N:9856, V-B:PRO:540:CD:9859, H-A:TYR:484:OH:4348, V-B:PRO:540:CB:9857, V-B:PRO:540:CA:9855, H-A:GLY:454:N:4050, V-B:LEU:363:CD1:8161, V-B:TYR:539:CE2:9848, V-B:TYR:531:CE1:9764, V-A:TYR:539:CE1:4875, V-A:TYR:539:CD1:4873, V-A:TYR:539:CZ:4877, V-A:PRO:540:CA:4883, V-B:ASP:366:CA:8182, V-A:TYR:539:CD2:4874, V-A:TYR:539:C:4867, V-A:MET:535:CE:4835, V-B:ASP:366:C:8180, V-A:PRO:540:N:4884, V-B:ASP:366:CB:8184, V-B:MET:535:CE:9807, H-B:TYR:531:OH:9767, V-B:TYR:539:CE1:9847, V-A:TYR:539:CG:4872, V-A:ASP:366:CG:3213, V-B:TYR:539:CD1:9845, V-B:ILE:538:CD1:9837, V-B:ILE:538:CG2:9835, V-A:ASP:366:CA:3210, V-A:ASP:366:CB:3212, V-B:ILE:538:CA:9832, H-A:TYR:531:OH:4795, H-B:TYR:539:OH:9850, V-A:ILE:369:CG2:3237, V-A:ILE:369:CD1:3239, V-B:ILE:538:C:9830, H-A:ARG:545:NH2:4928, V-B:ILE:538:CB:9834, V-A:ILE:369:CB:3236, V-A:ASP:366:C:3208, V-B:PRO:540:CG:9858"]

$$$$
RR9_Rahimova_2017
     RDKit          3D

 36 40  0  0  0  0  0  0  0  0999 V2000
  124.7930  133.9750   60.9600 C   0  0  0  0  0  0  0  0  0  0  0  0
  123.7630  133.2680   61.8460 C   0  0  0  0  0  0  0  0  0  0  0  0
  124.4390  132.6790   62.9530 O   0  0  0  0  0  0  0  0  0  0  0  0
  125.0940  131.4740   62.7860 C   0  0  0  0  0  0  0  0  0  0  0  0
  126.4840  131.5010   62.8890 C   0  0  0  0  0  0  0  0  0  0  0  0
  127.2280  130.3360   62.7320 C   0  0  0  0  0  0  0  0  0  0  0  0
  126.6030  129.1090   62.4660 C   0  0  0  0  0  0  0  0  0  0  0  0
  127.4010  127.8510   62.2920 C   0  0  0  0  0  0  0  0  0  0  0  0
  126.8650  126.7230   61.6510 C   0  0  0  0  0  0  0  0  0  0  0  0
  127.6220  125.5500   61.4780 C   0  0  0  0  0  0  0  0  0  0  0  0
  127.0280  124.4120   60.6940 C   0  0  0  0  0  0  0  0  0  0  0  0
  127.7480  123.5180   60.2500 O   0  0  0  0  0  0  0  0  0  0  0  0
  125.6940  124.4640   60.5050 N   0  0  0  0  0  0  0  0  0  0  0  0
  124.9070  123.5500   59.6710 C   0  0  0  0  0  0  0  0  0  0  0  0
  124.6540  124.0960   58.2470 C   0  0  0  0  0  0  0  0  0  0  0  0
  125.6270  123.5900   57.1880 C   0  0  0  0  0  0  0  0  0  0  0  0
  127.0050  123.6310   57.4250 C   0  0  0  0  0  0  0  0  0  0  0  0
  127.8890  123.1360   56.4700 C   0  0  0  0  0  0  0  0  0  0  0  0
  127.3950  122.6080   55.2800 C   0  0  0  0  0  0  0  0  0  0  0  0
  126.0230  122.5680   55.0350 C   0  0  0  0  0  0  0  0  0  0  0  0
  125.1380  123.0620   55.9910 C   0  0  0  0  0  0  0  0  0  0  0  0
  128.9330  125.5650   62.0150 C   0  0  0  0  0  0  0  0  0  0  0  0
  130.0630  124.6750   62.1490 C   0  0  0  0  0  0  0  0  0  0  0  0
  130.1880  123.2370   61.7690 C   0  0  0  0  0  0  0  0  0  0  0  0
  131.2250  122.8190   60.9300 C   0  0  0  0  0  0  0  0  0  0  0  0
  131.3310  121.4790   60.5630 C   0  0  0  0  0  0  0  0  0  0  0  0
  130.4010  120.5520   61.0380 C   0  0  0  0  0  0  0  0  0  0  0  0
  130.5050  119.0950   60.6240 C   0  0  0  0  0  0  0  0  0  0  0  0
  129.3640  120.9660   61.8740 C   0  0  0  0  0  0  0  0  0  0  0  0
  129.2610  122.3050   62.2420 C   0  0  0  0  0  0  0  0  0  0  0  0
  131.0730  125.2960   62.7160 N   0  0  0  0  0  0  0  0  0  0  0  0
  130.6740  126.5390   63.0260 N   0  0  0  0  0  0  0  0  0  0  0  0
  129.3740  126.7590   62.6350 C   0  0  0  0  0  0  0  0  0  0  0  0
  128.6670  127.8770   62.7930 N   0  0  0  0  0  0  0  0  0  0  0  0
  125.2050  129.0910   62.3620 C   0  0  0  0  0  0  0  0  0  0  0  0
  124.4560  130.2550   62.5200 C   0  0  0  0  0  0  0  0  0  0  0  0
  1  2  1  0
  2  3  1  0
  3  4  1  0
  4  5  2  0
  5  6  1  0
  6  7  2  0
  7  8  1  0
  8  9  2  0
  9 10  1  0
 10 11  1  0
 11 12  2  0
 11 13  1  0
 13 14  1  0
 14 15  1  0
 15 16  1  0
 16 17  2  0
 17 18  1  0
 18 19  2  0
 19 20  1  0
 20 21  2  0
 10 22  2  0
 22 23  1  0
 23 24  1  0
 24 25  2  0
 25 26  1  0
 26 27  2  0
 27 28  1  0
 27 29  1  0
 29 30  2  0
 23 31  2  0
 31 32  1  0
 32 33  1  0
 33 34  2  0
  7 35  1  0
 35 36  2  0
 36  4  1  0
 34  8  1  0
 21 16  1  0
 33 22  1  0
 30 24  1  0
M  END
>  <Binding energies>  (57) 
[-9.71]

>  <Ligand effiencies>  (57) 
[-0.2555263157894737]

>  <Interactions>  (57) 
["V-B:TYR:539:CZ:9849, V-B:TYR:539:C:9839, H-A:TYR:484:OH:4348, V-B:PRO:540:CB:9857, V-B:TYR:539:CG:9844, V-B:PRO:540:CA:9855, V-A:LEU:475:CD2:4259, V-B:ALA:541:CB:9864, V-B:LEU:363:CD1:8161, V-B:TYR:539:CE2:9848, V-B:TYR:539:CD2:9846, V-B:ASP:366:CG:8185, V-B:ARG:545:CZ:9898, V-B:LEU:475:CD2:9231, V-B:GLY:454:CA:9021, V-B:ILE:369:CD1:8211, V-B:MET:535:CE:9807, V-B:TYR:531:CZ:9766, V-B:TYR:531:CE2:9765, V-B:TYR:539:CE1:9847, V-B:TYR:539:CD1:9845, V-B:ILE:538:CD1:9837, V-B:ILE:538:CG2:9835, V-B:ILE:538:CA:9832, H-A:GLU:543:OE1:4909, V-A:GLU:543:CD:4908, H-B:ASP:366:OD2:8187, V-B:GLU:543:CD:9880, H-B:ASP:366:OD1:8186, H-B:GLU:543:OE1:9881, V-A:TYR:484:CE1:4345, H-B:GLY:454:N:9022, H-B:TYR:484:OH:9320, V-B:ILE:538:C:9830, V-B:ILE:538:CB:9834, H-A:GLU:543:OE2:4910"]

$$$$
