1a_Grossjean_2025
     RDKit          3D

 26 27  0  0  0  0  0  0  0  0999 V2000
  124.8830  122.6900   56.0800 C   0  0  0  0  0  0  0  0  0  0  0  0
  126.3960  122.6680   55.8410 C   0  0  0  0  0  0  0  0  0  0  0  0
  127.0420  122.0460   56.9440 O   0  0  0  0  0  0  0  0  0  0  0  0
  127.6470  122.7850   57.9100 C   0  0  0  0  0  0  0  0  0  0  0  0
  128.0580  122.3090   58.9720 O   0  0  0  0  0  0  0  0  0  0  0  0
  127.7520  124.2420   57.5630 C   0  0  0  0  0  0  0  0  0  0  0  0
  126.7270  125.1140   57.9540 C   0  0  0  0  0  0  0  0  0  0  0  0
  126.7930  126.4690   57.6440 C   0  0  0  0  0  0  0  0  0  0  0  0
  127.8800  126.9810   56.9360 C   0  0  0  0  0  0  0  0  0  0  0  0
  127.8420  128.3650   56.6750 N   0  0  0  0  0  0  0  0  0  0  0  0
  127.1430  129.0540   55.7470 C   0  0  0  0  0  0  0  0  0  0  0  0
  126.3730  128.5630   54.9220 O   0  0  0  0  0  0  0  0  0  0  0  0
  127.3570  130.5690   55.7580 C   0  0  0  0  0  0  0  0  0  0  0  0
  127.6820  131.2030   57.4300 S   0  0  0  0  0  0  0  0  0  0  0  0
  129.3710  130.8140   57.8300 C   0  0  0  0  0  0  0  0  0  0  0  0
  129.5030  129.9390   58.8590 N   0  0  0  0  0  0  0  0  0  0  0  0
  130.7470  129.5770   59.2500 C   0  0  0  0  0  0  0  0  0  0  0  0
  130.8160  128.6070   60.4140 C   0  0  0  0  0  0  0  0  0  0  0  0
  131.9000  130.0590   58.6330 C   0  0  0  0  0  0  0  0  0  0  0  0
  131.7750  130.9450   57.5580 C   0  0  0  0  0  0  0  0  0  0  0  0
  133.0510  131.4480   56.8870 C   0  0  0  0  0  0  0  0  0  0  0  0
  130.4850  131.3350   57.1290 C   0  0  0  0  0  0  0  0  0  0  0  0
  130.3290  132.2240   55.9740 C   0  0  0  0  0  0  0  0  0  0  0  0
  130.2080  132.9250   55.0620 N   0  0  0  0  0  0  0  0  0  0  0  0
  128.9150  126.1170   56.5470 C   0  0  0  0  0  0  0  0  0  0  0  0
  128.8480  124.7620   56.8570 C   0  0  0  0  0  0  0  0  0  0  0  0
  1  2  1  0
  2  3  1  0
  3  4  1  0
  4  5  2  0
  4  6  1  0
  6  7  2  0
  7  8  1  0
  8  9  2  0
  9 10  1  0
 10 11  1  0
 11 12  2  0
 11 13  1  0
 13 14  1  0
 14 15  1  0
 15 16  2  0
 16 17  1  0
 17 18  1  0
 17 19  2  0
 19 20  1  0
 20 21  1  0
 20 22  2  0
 22 23  1  0
 23 24  3  0
  9 25  1  0
 25 26  2  0
 26  6  1  0
 22 15  1  0
M  END
>  <Binding energies>  (1) 
[-7.53]

>  <Ligand effiencies>  (1) 
[-0.2788888888888889]

>  <Interactions>  (1) 
["V-B:TYR:539:CZ:9849, V-B:TYR:539:C:9839, V-B:PRO:540:N:9856, V-B:PRO:540:CD:9859, V-B:TYR:539:CG:9844, V-B:PRO:540:CA:9855, V-B:LEU:363:CD1:8161, V-B:TYR:539:CE2:9848, V-B:TYR:539:CD2:9846, V-A:PRO:540:CB:4885, V-A:TYR:539:CZ:4877, V-A:LEU:363:CD1:3189, V-A:PRO:540:N:4884, V-B:MET:535:CE:9807, H-B:TYR:531:OH:9767, V-B:TYR:531:CE2:9765, V-A:ASP:366:CG:3213, V-B:ILE:538:CD1:9837, V-B:ILE:538:CG2:9835, V-A:ASP:366:CB:3212, V-B:ILE:538:CA:9832, H-A:TYR:539:N:4870, H-B:LYS:534:NZ:9795, H-B:TYR:539:N:9842"]

$$$$
1aa_Ghoteimi_2023
     RDKit          3D

 40 43  0  0  0  0  0  0  0  0999 V2000
  133.7780  131.0550   58.1950 C   0  0  0  0  0  0  0  0  0  0  0  0
  132.9050  130.5780   57.0310 C   0  0  0  0  0  0  0  0  0  0  0  0
  133.0570  131.4650   55.9290 O   0  0  0  0  0  0  0  0  0  0  0  0
  132.1710  132.4700   55.7120 C   0  0  0  0  0  0  0  0  0  0  0  0
  132.5050  133.6080   55.3670 O   0  0  0  0  0  0  0  0  0  0  0  0
  130.7430  132.0620   55.9330 C   0  0  0  0  0  0  0  0  0  0  0  0
  130.0660  131.2170   55.0410 C   0  0  0  0  0  0  0  0  0  0  0  0
  128.7410  130.8550   55.2720 C   0  0  0  0  0  0  0  0  0  0  0  0
  128.0680  131.3320   56.4070 C   0  0  0  0  0  0  0  0  0  0  0  0
  126.7340  131.0350   56.7420 N   0  0  0  0  0  0  0  0  0  0  0  0
  125.8040  130.3120   56.0770 C   0  0  0  0  0  0  0  0  0  0  0  0
  125.9880  129.7520   54.9970 O   0  0  0  0  0  0  0  0  0  0  0  0
  124.4160  130.1840   56.7260 C   0  0  0  0  0  0  0  0  0  0  0  0
  124.5110  130.3450   58.1480 O   0  0  0  0  0  0  0  0  0  0  0  0
  125.1230  129.3720   58.9250 C   0  0  0  0  0  0  0  0  0  0  0  0
  125.4300  128.1820   58.3380 N   0  0  0  0  0  0  0  0  0  0  0  0
  126.0160  127.1990   59.0710 C   0  0  0  0  0  0  0  0  0  0  0  0
  126.3250  125.9180   58.3500 C   0  0  0  0  0  0  0  0  0  0  0  0
  127.3270  125.8650   57.3700 C   0  0  0  0  0  0  0  0  0  0  0  0
  127.6130  124.6790   56.6990 C   0  0  0  0  0  0  0  0  0  0  0  0
  126.9090  123.5120   56.9860 C   0  0  0  0  0  0  0  0  0  0  0  0
  127.2610  122.3840   56.2700 O   0  0  0  0  0  0  0  0  0  0  0  0
  127.1760  122.4090   54.8490 C   0  0  0  0  0  0  0  0  0  0  0  0
  125.9090  123.5480   57.9670 C   0  0  0  0  0  0  0  0  0  0  0  0
  125.6250  124.7350   58.6370 C   0  0  0  0  0  0  0  0  0  0  0  0
  126.3280  127.4040   60.4200 C   0  0  0  0  0  0  0  0  0  0  0  0
  126.0330  128.6230   61.0450 C   0  0  0  0  0  0  0  0  0  0  0  0
  126.4000  128.7830   62.4840 C   0  0  0  0  0  0  0  0  0  0  0  0
  127.7420  128.7400   62.8760 C   0  0  0  0  0  0  0  0  0  0  0  0
  128.0930  128.8980   64.2140 C   0  0  0  0  0  0  0  0  0  0  0  0
  127.1140  129.1070   65.1850 C   0  0  0  0  0  0  0  0  0  0  0  0
  127.5550  129.2530   66.4860 O   0  0  0  0  0  0  0  0  0  0  0  0
  128.6270  128.4410   66.9510 C   0  0  0  0  0  0  0  0  0  0  0  0
  125.7670  129.1590   64.7940 C   0  0  0  0  0  0  0  0  0  0  0  0
  125.4180  129.0000   63.4560 C   0  0  0  0  0  0  0  0  0  0  0  0
  125.4050  129.6310   60.2770 C   0  0  0  0  0  0  0  0  0  0  0  0
  125.0190  130.9200   60.8550 C   0  0  0  0  0  0  0  0  0  0  0  0
  124.7130  131.9390   61.3090 N   0  0  0  0  0  0  0  0  0  0  0  0
  128.7390  132.1750   57.2950 C   0  0  0  0  0  0  0  0  0  0  0  0
  130.0620  132.5370   57.0620 C   0  0  0  0  0  0  0  0  0  0  0  0
  1  2  1  0
  2  3  1  0
  3  4  1  0
  4  5  2  0
  4  6  1  0
  6  7  2  0
  7  8  1  0
  8  9  2  0
  9 10  1  0
 10 11  1  0
 11 12  2  0
 11 13  1  0
 13 14  1  0
 14 15  1  0
 15 16  2  0
 16 17  1  0
 17 18  1  0
 18 19  2  0
 19 20  1  0
 20 21  2  0
 21 22  1  0
 22 23  1  0
 21 24  1  0
 24 25  2  0
 17 26  2  0
 26 27  1  0
 27 28  1  0
 28 29  2  0
 29 30  1  0
 30 31  2  0
 31 32  1  0
 32 33  1  0
 31 34  1  0
 34 35  2  0
 27 36  2  0
 36 37  1  0
 37 38  3  0
  9 39  1  0
 39 40  2  0
 40  6  1  0
 36 15  1  0
 25 18  1  0
 35 28  1  0
M  END
>  <Binding energies>  (2) 
[-9.19]

>  <Ligand effiencies>  (2) 
[-0.2241463414634146]

>  <Interactions>  (2) 
["V-B:PRO:540:N:9856, V-B:PRO:540:CB:9857, V-B:PRO:540:CA:9855, V-B:TYR:531:CE1:9764, V-B:ASP:366:CG:8185, V-B:ARG:545:CZ:9898, V-A:TYR:531:CZ:4794, V-A:ILE:538:CG2:4863, V-A:PRO:540:CB:4885, V-A:PRO:540:CD:4887, V-A:TYR:539:CE1:4875, V-A:TYR:539:CD1:4873, V-A:ILE:538:CB:4862, V-A:TYR:539:CZ:4877, V-A:PRO:540:CA:4883, V-A:LEU:363:CD1:3189, V-A:TYR:539:C:4867, V-B:ASP:366:C:8180, V-A:PRO:540:N:4884, V-B:ASP:366:CB:8184, V-B:MET:535:CE:9807, H-B:TYR:531:OH:9767, V-B:TYR:539:CE1:9847, V-A:ASP:366:CG:3213, V-B:TYR:539:CD1:9845, V-B:ILE:538:CD1:9837, V-A:ASP:366:CB:3212, V-B:ILE:538:CA:9832, H-A:TYR:531:OH:4795, V-A:GLU:543:CD:4908, H-A:TYR:539:N:4870, H-B:LYS:534:NZ:9795, H-B:TYR:484:OH:9320, V-A:GLU:543:CG:4907, H-A:TYR:539:OH:4878, V-B:ILE:538:C:9830, V-B:VAL:537:C:9822, V-A:LEU:363:CA:3185, V-B:HIS:456:CE1:9042, H-B:TYR:539:N:9842, V-A:GLU:543:CB:4906, V-A:LEU:363:CB:3187"]

$$$$
1b_Grossjean_2025
     RDKit          3D

 25 26  0  0  0  0  0  0  0  0999 V2000
  126.4730  122.9750   54.6640 C   0  0  0  0  0  0  0  0  0  0  0  0
  126.1940  122.0500   55.7060 O   0  0  0  0  0  0  0  0  0  0  0  0
  125.4430  122.4130   56.7780 C   0  0  0  0  0  0  0  0  0  0  0  0
  124.2120  122.3120   56.8120 O   0  0  0  0  0  0  0  0  0  0  0  0
  126.2590  122.9410   57.9230 C   0  0  0  0  0  0  0  0  0  0  0  0
  125.6960  123.7440   58.9270 C   0  0  0  0  0  0  0  0  0  0  0  0
  126.4810  124.2190   59.9740 C   0  0  0  0  0  0  0  0  0  0  0  0
  127.8380  123.9040   60.0420 C   0  0  0  0  0  0  0  0  0  0  0  0
  128.5330  124.4390   61.1430 N   0  0  0  0  0  0  0  0  0  0  0  0
  129.0450  123.8250   62.2320 C   0  0  0  0  0  0  0  0  0  0  0  0
  128.9950  122.6170   62.4610 O   0  0  0  0  0  0  0  0  0  0  0  0
  129.7470  124.7430   63.2330 C   0  0  0  0  0  0  0  0  0  0  0  0
  130.3660  126.2640   62.4510 S   0  0  0  0  0  0  0  0  0  0  0  0
  131.1040  125.7990   60.8990 C   0  0  0  0  0  0  0  0  0  0  0  0
  130.3030  126.0180   59.8260 N   0  0  0  0  0  0  0  0  0  0  0  0
  130.7660  125.7020   58.5940 C   0  0  0  0  0  0  0  0  0  0  0  0
  129.8220  125.9870   57.4410 C   0  0  0  0  0  0  0  0  0  0  0  0
  132.0290  125.1500   58.3840 C   0  0  0  0  0  0  0  0  0  0  0  0
  132.8530  124.9010   59.4860 C   0  0  0  0  0  0  0  0  0  0  0  0
  134.2250  124.2800   59.2330 C   0  0  0  0  0  0  0  0  0  0  0  0
  132.3910  125.2230   60.7830 C   0  0  0  0  0  0  0  0  0  0  0  0
  133.2180  124.9300   61.9550 C   0  0  0  0  0  0  0  0  0  0  0  0
  133.8750  124.6970   62.8790 N   0  0  0  0  0  0  0  0  0  0  0  0
  128.4080  123.1010   59.0420 C   0  0  0  0  0  0  0  0  0  0  0  0
  127.6220  122.6260   57.9960 C   0  0  0  0  0  0  0  0  0  0  0  0
  1  2  1  0
  2  3  1  0
  3  4  2  0
  3  5  1  0
  5  6  2  0
  6  7  1  0
  7  8  2  0
  8  9  1  0
  9 10  1  0
 10 11  2  0
 10 12  1  0
 12 13  1  0
 13 14  1  0
 14 15  2  0
 15 16  1  0
 16 17  1  0
 16 18  2  0
 18 19  1  0
 19 20  1  0
 19 21  2  0
 21 22  1  0
 22 23  3  0
  8 24  1  0
 24 25  2  0
 25  5  1  0
 21 14  1  0
M  END
>  <Binding energies>  (3) 
[-7.27]

>  <Ligand effiencies>  (3) 
[-0.2796153846153846]

>  <Interactions>  (3) 
["V-B:TYR:539:C:9839, V-B:PRO:540:N:9856, V-B:PRO:540:CD:9859, H-A:TYR:484:OH:4348, V-B:PRO:540:CB:9857, V-B:TYR:539:CG:9844, V-B:PRO:540:CA:9855, H-A:GLY:454:N:4050, V-B:TYR:539:CE2:9848, V-B:TYR:539:CD2:9846, V-B:MET:535:CE:9807, V-A:ASP:366:CG:3213, V-B:ILE:538:CD1:9837, V-A:ASP:366:CA:3210, V-A:ASP:366:CB:3212, V-B:ILE:538:CA:9832, V-A:ILE:369:CG2:3237, V-B:GLU:543:CD:9880, V-A:TYR:484:CZ:4347, V-B:GLU:543:CG:9879, V-A:ILE:369:CD1:3239, V-A:ARG:545:CZ:4926, H-B:TYR:539:N:9842, H-A:ARG:545:NH2:4928, V-A:ILE:369:CB:3236, V-B:MET:535:CB:9804, V-B:MET:535:CG:9805, V-B:PRO:540:CG:9858, V-A:ILE:369:CG1:3238"]

$$$$
1c_Grossjean_2025
     RDKit          3D

 23 24  0  0  0  0  0  0  0  0999 V2000
  132.6960  131.4180   61.9560 C   0  0  0  0  0  0  0  0  0  0  0  0
  131.3500  131.7960   61.6890 O   0  0  0  0  0  0  0  0  0  0  0  0
  130.8890  131.7720   60.3870 C   0  0  0  0  0  0  0  0  0  0  0  0
  129.5780  132.2020   60.1830 C   0  0  0  0  0  0  0  0  0  0  0  0
  129.0240  132.2160   58.9060 C   0  0  0  0  0  0  0  0  0  0  0  0
  129.7880  131.8000   57.8060 C   0  0  0  0  0  0  0  0  0  0  0  0
  129.3240  131.7630   56.4760 N   0  0  0  0  0  0  0  0  0  0  0  0
  129.7980  132.4020   55.3860 C   0  0  0  0  0  0  0  0  0  0  0  0
  130.7760  133.1490   55.3640 O   0  0  0  0  0  0  0  0  0  0  0  0
  129.0300  132.1430   54.0880 C   0  0  0  0  0  0  0  0  0  0  0  0
  128.9650  130.3720   53.6830 S   0  0  0  0  0  0  0  0  0  0  0  0
  128.0700  129.5320   54.9730 C   0  0  0  0  0  0  0  0  0  0  0  0
  126.8980  130.1360   55.2980 N   0  0  0  0  0  0  0  0  0  0  0  0
  126.1300  129.5880   56.2680 C   0  0  0  0  0  0  0  0  0  0  0  0
  124.8310  130.3130   56.5680 C   0  0  0  0  0  0  0  0  0  0  0  0
  126.4960  128.4340   56.9550 C   0  0  0  0  0  0  0  0  0  0  0  0
  127.7130  127.8170   56.6460 C   0  0  0  0  0  0  0  0  0  0  0  0
  128.1020  126.5620   57.4250 C   0  0  0  0  0  0  0  0  0  0  0  0
  128.5340  128.3730   55.6370 C   0  0  0  0  0  0  0  0  0  0  0  0
  129.8360  127.7720   55.3380 C   0  0  0  0  0  0  0  0  0  0  0  0
  130.8640  127.2970   55.1020 N   0  0  0  0  0  0  0  0  0  0  0  0
  131.0970  131.3580   58.0070 C   0  0  0  0  0  0  0  0  0  0  0  0
  131.6470  131.3450   59.2860 C   0  0  0  0  0  0  0  0  0  0  0  0
  1  2  1  0
  2  3  1  0
  3  4  2  0
  4  5  1  0
  5  6  2  0
  6  7  1  0
  7  8  1  0
  8  9  2  0
  8 10  1  0
 10 11  1  0
 11 12  1  0
 12 13  2  0
 13 14  1  0
 14 15  1  0
 14 16  2  0
 16 17  1  0
 17 18  1  0
 17 19  2  0
 19 20  1  0
 20 21  3  0
  6 22  1  0
 22 23  2  0
 23  3  1  0
 19 12  1  0
M  END
>  <Binding energies>  (4) 
[-7.15]

>  <Ligand effiencies>  (4) 
[-0.29791666666666666]

>  <Interactions>  (4) 
["V-B:TYR:531:CE1:9764, V-A:PRO:540:CB:4885, V-A:TYR:539:CE1:4875, V-A:TYR:539:CZ:4877, V-A:PRO:540:CA:4883, V-A:TYR:539:CE2:4876, V-A:TYR:539:CD2:4874, V-A:TYR:539:C:4867, V-A:MET:535:CE:4835, V-A:PRO:540:N:4884, V-B:MET:535:CE:9807, H-A:TYR:531:OH:4795, V-A:GLU:543:CD:4908, H-A:TYR:539:N:4870, H-A:ALA:541:N:4891, H-B:LYS:534:NZ:9795, V-A:ALA:541:C:4888, V-A:PRO:540:C:4881, V-A:ASN:362:CB:3176, V-A:GLU:543:CG:4907"]

$$$$
1d_Grossjean_2025
     RDKit          3D

 21 22  0  0  0  0  0  0  0  0999 V2000
  129.5280  127.9740   73.1350 C   0  0  0  0  0  0  0  0  0  0  0  0
  130.6790  127.1390   73.6610 C   0  0  0  0  0  0  0  0  0  0  0  0
  131.9720  127.6500   73.7460 C   0  0  0  0  0  0  0  0  0  0  0  0
  132.9930  126.8370   74.2490 C   0  0  0  0  0  0  0  0  0  0  0  0
  134.4000  127.4250   74.3460 C   0  0  0  0  0  0  0  0  0  0  0  0
  132.6910  125.5160   74.6500 C   0  0  0  0  0  0  0  0  0  0  0  0
  133.7330  124.6630   75.2240 C   0  0  0  0  0  0  0  0  0  0  0  0
  134.5600  123.9910   75.6780 N   0  0  0  0  0  0  0  0  0  0  0  0
  131.3550  125.0720   74.5070 C   0  0  0  0  0  0  0  0  0  0  0  0
  130.7980  123.4450   74.9600 S   0  0  0  0  0  0  0  0  0  0  0  0
  130.7340  122.4500   73.4390 C   0  0  0  0  0  0  0  0  0  0  0  0
  129.2990  122.2150   72.9640 C   0  0  0  0  0  0  0  0  0  0  0  0
  128.6210  123.1760   72.6010 O   0  0  0  0  0  0  0  0  0  0  0  0
  128.8950  120.9260   72.9610 N   0  0  0  0  0  0  0  0  0  0  0  0
  127.6510  120.3710   72.6060 C   0  0  0  0  0  0  0  0  0  0  0  0
  126.6220  120.5480   73.5340 C   0  0  0  0  0  0  0  0  0  0  0  0
  125.3500  120.0430   73.2790 C   0  0  0  0  0  0  0  0  0  0  0  0
  125.1030  119.3650   72.0880 C   0  0  0  0  0  0  0  0  0  0  0  0
  126.1170  119.1900   71.1500 C   0  0  0  0  0  0  0  0  0  0  0  0
  127.3910  119.6930   71.4030 C   0  0  0  0  0  0  0  0  0  0  0  0
  130.3670  125.8770   74.0370 N   0  0  0  0  0  0  0  0  0  0  0  0
  1  2  1  0
  2  3  2  0
  3  4  1  0
  4  5  1  0
  4  6  2  0
  6  7  1  0
  7  8  3  0
  6  9  1  0
  9 10  1  0
 10 11  1  0
 11 12  1  0
 12 13  2  0
 12 14  1  0
 14 15  1  0
 15 16  2  0
 16 17  1  0
 17 18  2  0
 18 19  1  0
 19 20  2  0
  9 21  2  0
 21  2  1  0
 20 15  1  0
M  END
>  <Binding energies>  (5) 
[-7.46]

>  <Ligand effiencies>  (5) 
[-0.3390909090909091]

>  <Interactions>  (5) 
["V-A:HIS:456:CD2:4068, V-A:HIS:456:C:4061, V-B:HIS:456:CD2:9040, H-B:LYS:547:NZ:9923, V-B:LYS:547:CE:9922, V-A:HIS:456:CB:4065, V-A:HIS:456:CG:4066, V-A:VAL:458:CG2:4087, V-B:GLU:543:C:9874, V-A:TYR:484:CB:4341, H-A:TYR:484:O:4338, V-B:GLY:544:CA:9886, V-A:TYR:484:C:4337, V-A:LYS:547:CD:4949, V-A:VAL:457:C:4073, V-A:GLY:544:C:4912, V-A:LYS:547:CE:4950, V-A:ASP:473:CB:4239, V-A:ASP:473:CG:4240, V-A:LYS:547:CG:4948, V-A:TYR:484:CA:4339, V-B:VAL:542:C:9866, V-B:VAL:542:CG1:9871, V-B:VAL:542:CB:9870"]

$$$$
1e_Grossjean_2025
     RDKit          3D

 22 23  0  0  0  0  0  0  0  0999 V2000
  124.5520  122.0760   56.0610 C   0  0  0  0  0  0  0  0  0  0  0  0
  125.9190  122.5720   56.4920 C   0  0  0  0  0  0  0  0  0  0  0  0
  126.9050  122.9020   55.5580 C   0  0  0  0  0  0  0  0  0  0  0  0
  128.1400  123.3490   56.0280 C   0  0  0  0  0  0  0  0  0  0  0  0
  128.3590  123.4540   57.4030 C   0  0  0  0  0  0  0  0  0  0  0  0
  127.3260  123.1120   58.2840 C   0  0  0  0  0  0  0  0  0  0  0  0
  127.6100  123.2260   59.6570 N   0  0  0  0  0  0  0  0  0  0  0  0
  126.7480  123.4050   60.6810 C   0  0  0  0  0  0  0  0  0  0  0  0
  125.5260  123.5110   60.5660 O   0  0  0  0  0  0  0  0  0  0  0  0
  127.3780  123.5080   62.0720 C   0  0  0  0  0  0  0  0  0  0  0  0
  128.3640  122.0360   62.4820 S   0  0  0  0  0  0  0  0  0  0  0  0
  129.8850  122.0920   61.5550 C   0  0  0  0  0  0  0  0  0  0  0  0
  130.2880  123.3530   61.2560 N   0  0  0  0  0  0  0  0  0  0  0  0
  131.4310  123.5230   60.5510 C   0  0  0  0  0  0  0  0  0  0  0  0
  131.8220  124.9590   60.2610 C   0  0  0  0  0  0  0  0  0  0  0  0
  132.2070  122.4530   60.1080 C   0  0  0  0  0  0  0  0  0  0  0  0
  131.7880  121.1490   60.3900 C   0  0  0  0  0  0  0  0  0  0  0  0
  132.6470  119.9930   59.8770 C   0  0  0  0  0  0  0  0  0  0  0  0
  130.5960  120.9470   61.1220 C   0  0  0  0  0  0  0  0  0  0  0  0
  130.1130  119.5870   61.3740 C   0  0  0  0  0  0  0  0  0  0  0  0
  129.7340  118.5120   61.5720 N   0  0  0  0  0  0  0  0  0  0  0  0
  126.1170  122.6700   57.8310 N   0  0  0  0  0  0  0  0  0  0  0  0
  1  2  1  0
  2  3  2  0
  3  4  1  0
  4  5  2  0
  5  6  1  0
  6  7  1  0
  7  8  1  0
  8  9  2  0
  8 10  1  0
 10 11  1  0
 11 12  1  0
 12 13  2  0
 13 14  1  0
 14 15  1  0
 14 16  2  0
 16 17  1  0
 17 18  1  0
 17 19  2  0
 19 20  1  0
 20 21  3  0
  6 22  2  0
 22  2  1  0
 19 12  1  0
M  END
>  <Binding energies>  (6) 
[-6.83]

>  <Ligand effiencies>  (6) 
[-0.29695652173913045]

>  <Interactions>  (6) 
["V-B:TYR:539:CZ:9849, V-B:TYR:539:C:9839, V-B:PRO:540:N:9856, V-A:LEU:475:CD1:4258, V-B:PRO:540:CD:9859, H-A:TYR:484:OH:4348, V-B:PRO:540:CB:9857, V-B:TYR:539:CG:9844, V-B:PRO:540:CA:9855, V-A:LEU:475:CD2:4259, V-B:ALA:541:CB:9864, V-B:LEU:363:CD1:8161, V-B:TYR:539:CE2:9848, V-B:TYR:539:CD2:9846, V-A:SER:385:CB:3409, V-B:MET:535:CE:9807, V-B:TYR:531:CE2:9765, V-B:TYR:539:CE1:9847, V-B:TYR:539:CD1:9845, V-B:ILE:538:CD1:9837, V-B:ILE:538:CG2:9835, V-B:ILE:538:CA:9832, V-A:ILE:369:CG2:3237, V-B:GLU:543:CD:9880, H-B:ALA:541:N:9863, V-B:GLU:543:CG:9879, V-B:ILE:538:CB:9834, V-B:PRO:540:CG:9858"]

$$$$
1f_Grossjean_2025
     RDKit          3D

 21 22  0  0  0  0  0  0  0  0999 V2000
  132.8060  124.7930   60.5460 C   0  0  0  0  0  0  0  0  0  0  0  0
  132.1520  123.4400   60.7540 C   0  0  0  0  0  0  0  0  0  0  0  0
  132.7230  122.2700   60.2590 C   0  0  0  0  0  0  0  0  0  0  0  0
  132.0680  121.0530   60.4710 C   0  0  0  0  0  0  0  0  0  0  0  0
  132.7050  119.7850   59.9030 C   0  0  0  0  0  0  0  0  0  0  0  0
  130.8500  121.0380   61.1880 C   0  0  0  0  0  0  0  0  0  0  0  0
  130.1210  119.7800   61.3720 C   0  0  0  0  0  0  0  0  0  0  0  0
  129.5470  118.7860   61.5160 N   0  0  0  0  0  0  0  0  0  0  0  0
  130.3580  122.2700   61.6790 C   0  0  0  0  0  0  0  0  0  0  0  0
  128.8430  122.4480   62.6010 S   0  0  0  0  0  0  0  0  0  0  0  0
  127.6280  123.3160   61.5510 C   0  0  0  0  0  0  0  0  0  0  0  0
  127.5540  122.8170   60.1000 C   0  0  0  0  0  0  0  0  0  0  0  0
  128.4210  122.0660   59.6530 O   0  0  0  0  0  0  0  0  0  0  0  0
  126.5030  123.2900   59.3970 N   0  0  0  0  0  0  0  0  0  0  0  0
  126.1270  123.0390   58.0640 C   0  0  0  0  0  0  0  0  0  0  0  0
  124.8280  123.1750   57.5390 C   0  0  0  0  0  0  0  0  0  0  0  0
  124.5960  122.8940   56.1900 C   0  0  0  0  0  0  0  0  0  0  0  0
  125.6690  122.4880   55.3970 C   0  0  0  0  0  0  0  0  0  0  0  0
  126.9300  122.3540   55.8770 N   0  0  0  0  0  0  0  0  0  0  0  0
  127.1410  122.6300   57.1900 C   0  0  0  0  0  0  0  0  0  0  0  0
  130.9890  123.4490   61.4460 N   0  0  0  0  0  0  0  0  0  0  0  0
  1  2  1  0
  2  3  2  0
  3  4  1  0
  4  5  1  0
  4  6  2  0
  6  7  1  0
  7  8  3  0
  6  9  1  0
  9 10  1  0
 10 11  1  0
 11 12  1  0
 12 13  2  0
 12 14  1  0
 14 15  1  0
 15 16  2  0
 16 17  1  0
 17 18  2  0
 18 19  1  0
 19 20  2  0
  9 21  2  0
 21  2  1  0
 20 15  1  0
M  END
>  <Binding energies>  (7) 
[-7.48]

>  <Ligand effiencies>  (7) 
[-0.34]

>  <Interactions>  (7) 
["V-B:TYR:539:C:9839, V-B:PRO:540:N:9856, V-A:LEU:475:CD1:4258, V-B:PRO:540:CD:9859, H-A:TYR:484:OH:4348, V-B:PRO:540:CB:9857, V-B:TYR:539:CG:9844, V-B:PRO:540:CA:9855, V-A:LEU:475:CD2:4259, V-B:ALA:541:CB:9864, V-B:LEU:363:CD1:8161, V-B:TYR:539:CE2:9848, V-B:TYR:539:CD2:9846, V-A:SER:385:CB:3409, V-B:TYR:531:CZ:9766, V-B:TYR:531:CE2:9765, V-A:ASP:366:CG:3213, V-B:ILE:538:CD1:9837, V-B:ILE:538:CG2:9835, V-B:ILE:538:CA:9832, V-A:ILE:369:CG2:3237, H-B:ASP:366:OD2:8187, V-B:GLU:543:CD:9880, V-B:ILE:538:C:9830, H-B:TYR:539:N:9842, V-B:ILE:538:CB:9834, V-A:SER:385:CA:3407"]

$$$$
1g_Grossjean_2025
     RDKit          3D

 22 23  0  0  0  0  0  0  0  0999 V2000
  126.9860  122.4170   54.7220 C   0  0  0  0  0  0  0  0  0  0  0  0
  126.6700  122.7300   56.1720 C   0  0  0  0  0  0  0  0  0  0  0  0
  125.3670  122.9790   56.5980 C   0  0  0  0  0  0  0  0  0  0  0  0
  125.1380  123.2780   57.9460 C   0  0  0  0  0  0  0  0  0  0  0  0
  123.7030  123.5620   58.3870 C   0  0  0  0  0  0  0  0  0  0  0  0
  126.2310  123.3120   58.8420 C   0  0  0  0  0  0  0  0  0  0  0  0
  126.0220  123.6740   60.2460 C   0  0  0  0  0  0  0  0  0  0  0  0
  125.8550  123.9610   61.3550 N   0  0  0  0  0  0  0  0  0  0  0  0
  127.5160  123.0220   58.3260 C   0  0  0  0  0  0  0  0  0  0  0  0
  128.9960  123.0100   59.3120 S   0  0  0  0  0  0  0  0  0  0  0  0
  128.5910  122.1960   60.8860 C   0  0  0  0  0  0  0  0  0  0  0  0
  129.6980  121.2440   61.3400 C   0  0  0  0  0  0  0  0  0  0  0  0
  130.1070  121.2820   62.5020 O   0  0  0  0  0  0  0  0  0  0  0  0
  130.1770  120.4010   60.4100 N   0  0  0  0  0  0  0  0  0  0  0  0
  131.1910  119.3710   60.6380 C   0  0  0  0  0  0  0  0  0  0  0  0
  130.9880  118.0980   59.8230 C   0  0  0  0  0  0  0  0  0  0  0  0
  129.9530  117.2160   60.1520 C   0  0  0  0  0  0  0  0  0  0  0  0
  129.7670  116.0540   59.4080 C   0  0  0  0  0  0  0  0  0  0  0  0
  130.6130  115.7800   58.3350 C   0  0  0  0  0  0  0  0  0  0  0  0
  131.6420  116.6560   57.9990 C   0  0  0  0  0  0  0  0  0  0  0  0
  131.8300  117.8170   58.7440 C   0  0  0  0  0  0  0  0  0  0  0  0
  127.7310  122.7550   57.0130 N   0  0  0  0  0  0  0  0  0  0  0  0
  1  2  1  0
  2  3  2  0
  3  4  1  0
  4  5  1  0
  4  6  2  0
  6  7  1  0
  7  8  3  0
  6  9  1  0
  9 10  1  0
 10 11  1  0
 11 12  1  0
 12 13  2  0
 12 14  1  0
 14 15  1  0
 15 16  1  0
 16 17  2  0
 17 18  1  0
 18 19  2  0
 19 20  1  0
 20 21  2  0
  9 22  2  0
 22  2  1  0
 21 16  1  0
M  END
>  <Binding energies>  (8) 
[-9.29]

>  <Ligand effiencies>  (8) 
[-0.40391304347826085]

>  <Interactions>  (8) 
["V-A:HIS:383:CE1:3394, V-B:TYR:539:C:9839, V-B:PRO:540:N:9856, V-B:PRO:540:CD:9859, H-A:TYR:484:OH:4348, V-B:PRO:540:CB:9857, V-A:PRO:482:CB:4326, V-B:TYR:539:CG:9844, V-B:PRO:540:CA:9855, V-A:LEU:475:CD2:4259, V-B:ALA:541:CB:9864, V-B:LEU:363:CD1:8161, V-B:TYR:539:CE2:9848, V-B:TYR:539:CD2:9846, V-A:PRO:482:CG:4327, V-A:SER:385:CB:3409, V-B:ASP:366:CG:8185, V-B:MET:535:CE:9807, V-B:TYR:539:CE1:9847, V-B:TYR:539:CD1:9845, V-B:ILE:538:CD1:9837, V-B:ILE:538:CA:9832, H-B:ARG:545:NH2:9900, V-B:ILE:538:C:9830, V-B:VAL:537:C:9822, V-B:TYR:539:CB:9843, V-B:PRO:540:CG:9858, V-B:LEU:363:CA:8157, V-A:LEU:373:CD1:3280, V-B:VAL:344:CG1:7973, V-B:LEU:363:CB:8159, H-B:TYR:539:O:9840, V-A:LEU:373:CD2:3281, V-B:VAL:344:CG2:7974, V-B:ILE:343:CG2:7964, V-B:ILE:343:CB:7963"]

$$$$
1h_Grossjean_2025
     RDKit          3D

 28 29  0  0  0  0  0  0  0  0999 V2000
  126.8200  128.6550   55.4370 C   0  0  0  0  0  0  0  0  0  0  0  0
  126.8850  130.0080   55.0030 O   0  0  0  0  0  0  0  0  0  0  0  0
  127.5890  130.9290   55.7560 C   0  0  0  0  0  0  0  0  0  0  0  0
  127.3330  131.1940   57.1110 C   0  0  0  0  0  0  0  0  0  0  0  0
  128.0770  132.1490   57.8060 C   0  0  0  0  0  0  0  0  0  0  0  0
  127.8030  132.4110   59.2840 C   0  0  0  0  0  0  0  0  0  0  0  0
  126.5960  133.1990   59.5340 N   0  0  0  0  0  0  0  0  0  0  0  0
  126.4310  134.0650   60.5510 C   0  0  0  0  0  0  0  0  0  0  0  0
  127.3020  134.3140   61.3840 O   0  0  0  0  0  0  0  0  0  0  0  0
  125.0690  134.7520   60.6460 C   0  0  0  0  0  0  0  0  0  0  0  0
  123.7410  133.5790   61.0580 S   0  0  0  0  0  0  0  0  0  0  0  0
  124.1730  131.9900   60.3680 C   0  0  0  0  0  0  0  0  0  0  0  0
  124.0350  131.8750   59.0210 N   0  0  0  0  0  0  0  0  0  0  0  0
  124.3490  130.6970   58.4320 C   0  0  0  0  0  0  0  0  0  0  0  0
  124.1730  130.6480   56.9260 C   0  0  0  0  0  0  0  0  0  0  0  0
  124.8080  129.5960   59.1500 C   0  0  0  0  0  0  0  0  0  0  0  0
  124.9520  129.7010   60.5370 C   0  0  0  0  0  0  0  0  0  0  0  0
  125.4580  128.4820   61.3060 C   0  0  0  0  0  0  0  0  0  0  0  0
  124.6300  130.9220   61.1730 C   0  0  0  0  0  0  0  0  0  0  0  0
  124.7690  131.0600   62.6260 C   0  0  0  0  0  0  0  0  0  0  0  0
  124.8790  131.1690   63.7730 N   0  0  0  0  0  0  0  0  0  0  0  0
  129.1120  132.8230   57.1560 C   0  0  0  0  0  0  0  0  0  0  0  0
  129.3940  132.5740   55.8030 C   0  0  0  0  0  0  0  0  0  0  0  0
  130.4020  133.2050   55.0960 O   0  0  0  0  0  0  0  0  0  0  0  0
  131.7610  132.9150   55.4060 C   0  0  0  0  0  0  0  0  0  0  0  0
  128.6180  131.6330   55.1120 C   0  0  0  0  0  0  0  0  0  0  0  0
  128.8870  131.3740   53.7900 O   0  0  0  0  0  0  0  0  0  0  0  0
  130.1150  130.6940   53.5710 C   0  0  0  0  0  0  0  0  0  0  0  0
  1  2  1  0
  2  3  1  0
  3  4  2  0
  4  5  1  0
  5  6  1  0
  6  7  1  0
  7  8  1  0
  8  9  2  0
  8 10  1  0
 10 11  1  0
 11 12  1  0
 12 13  2  0
 13 14  1  0
 14 15  1  0
 14 16  2  0
 16 17  1  0
 17 18  1  0
 17 19  2  0
 19 20  1  0
 20 21  3  0
  5 22  2  0
 22 23  1  0
 23 24  1  0
 24 25  1  0
 23 26  2  0
 26 27  1  0
 27 28  1  0
 26  3  1  0
 19 12  1  0
M  END
>  <Binding energies>  (9) 
[-7.07]

>  <Ligand effiencies>  (9) 
[-0.24379310344827587]

>  <Interactions>  (9) 
["V-B:TYR:531:CE1:9764, V-B:ASP:366:CG:8185, V-A:MET:535:CG:4833, V-B:ILE:369:CG2:8209, V-A:TYR:531:CZ:4794, V-A:ILE:538:CG2:4863, V-A:PRO:540:CB:4885, V-A:PRO:540:CD:4887, V-A:TYR:539:CE1:4875, V-A:TYR:539:CD1:4873, V-A:ILE:538:CB:4862, V-A:TYR:539:CZ:4877, V-A:PRO:540:CA:4883, V-B:LEU:475:CD2:9231, V-A:LEU:363:CD1:3189, V-B:ASP:366:CA:8182, V-A:TYR:539:CE2:4876, V-A:TYR:539:CD2:4874, V-B:ILE:369:CD1:8211, V-A:TYR:539:C:4867, V-A:MET:535:CE:4835, V-B:ASP:366:C:8180, V-A:PRO:540:N:4884, V-B:ASP:366:CB:8184, V-A:ILE:538:CA:4860, V-B:MET:535:CE:9807, V-B:TYR:531:CZ:9766, V-A:TYR:539:CA:4869, V-A:TYR:539:CG:4872, H-A:TYR:539:N:4870, H-B:LYS:534:NZ:9795, H-B:GLY:454:N:9022, H-B:TYR:484:OH:9320"]

$$$$
1i_Grossjean_2025
     RDKit          3D

 20 21  0  0  0  0  0  0  0  0999 V2000
  129.7690  125.1100   58.3870 C   0  0  0  0  0  0  0  0  0  0  0  0
  128.5470  124.4090   57.8230 C   0  0  0  0  0  0  0  0  0  0  0  0
  128.5160  123.9380   56.5130 C   0  0  0  0  0  0  0  0  0  0  0  0
  127.3650  123.2900   56.0500 C   0  0  0  0  0  0  0  0  0  0  0  0
  127.3610  122.7670   54.6150 C   0  0  0  0  0  0  0  0  0  0  0  0
  126.2610  123.1370   56.9210 C   0  0  0  0  0  0  0  0  0  0  0  0
  125.0660  122.4180   56.4730 C   0  0  0  0  0  0  0  0  0  0  0  0
  124.1230  121.8480   56.1180 N   0  0  0  0  0  0  0  0  0  0  0  0
  126.3730  123.6690   58.2270 C   0  0  0  0  0  0  0  0  0  0  0  0
  125.0840  123.5660   59.4500 S   0  0  0  0  0  0  0  0  0  0  0  0
  125.7490  124.2280   61.0070 C   0  0  0  0  0  0  0  0  0  0  0  0
  126.7340  123.2610   61.6690 C   0  0  0  0  0  0  0  0  0  0  0  0
  126.4100  122.6890   62.7100 O   0  0  0  0  0  0  0  0  0  0  0  0
  127.9160  123.1080   61.0330 N   0  0  0  0  0  0  0  0  0  0  0  0
  128.9790  122.3040   61.4160 C   0  0  0  0  0  0  0  0  0  0  0  0
  129.7970  121.6370   60.5050 C   0  0  0  0  0  0  0  0  0  0  0  0
  130.7140  120.9600   61.2760 C   0  0  0  0  0  0  0  0  0  0  0  0
  130.4610  121.2050   62.5830 O   0  0  0  0  0  0  0  0  0  0  0  0
  129.3580  122.0560   62.6600 N   0  0  0  0  0  0  0  0  0  0  0  0
  127.5010  124.2770   58.6720 N   0  0  0  0  0  0  0  0  0  0  0  0
  1  2  1  0
  2  3  2  0
  3  4  1  0
  4  5  1  0
  4  6  2  0
  6  7  1  0
  7  8  3  0
  6  9  1  0
  9 10  1  0
 10 11  1  0
 11 12  1  0
 12 13  2  0
 12 14  1  0
 14 15  1  0
 15 16  1  0
 16 17  2  0
 17 18  1  0
 18 19  1  0
  9 20  2  0
 20  2  1  0
 19 15  2  0
M  END
>  <Binding energies>  (10) 
[-7.04]

>  <Ligand effiencies>  (10) 
[-0.3352380952380952]

>  <Interactions>  (10) 
["V-B:TYR:539:CZ:9849, V-B:PRO:540:N:9856, V-B:PRO:540:CD:9859, H-A:TYR:484:OH:4348, V-B:PRO:540:CB:9857, V-B:PRO:540:CA:9855, V-A:LEU:475:CD2:4259, V-B:LEU:363:CD1:8161, V-B:TYR:539:CE2:9848, V-B:TYR:539:CD2:9846, V-B:MET:535:CE:9807, V-B:TYR:539:CE1:9847, V-B:TYR:539:CD1:9845, V-B:ILE:538:CD1:9837, V-B:ILE:538:CG2:9835, V-B:ILE:538:CA:9832, V-B:GLU:543:CD:9880, H-B:ALA:541:N:9863, V-B:VAL:537:C:9822"]

$$$$
1k_Grossjean_2025
     RDKit          3D

 25 25  0  0  0  0  0  0  0  0999 V2000
  131.6680  132.3710   55.3800 C   0  0  0  0  0  0  0  0  0  0  0  0
  130.5420  133.2330   55.3670 O   0  0  0  0  0  0  0  0  0  0  0  0
  129.3010  132.5460   55.4530 C   0  0  0  0  0  0  0  0  0  0  0  0
  128.6890  132.4130   54.0520 C   0  0  0  0  0  0  0  0  0  0  0  0
  128.2980  131.0640   53.8330 O   0  0  0  0  0  0  0  0  0  0  0  0
  128.3460  130.2570   55.0030 C   0  0  0  0  0  0  0  0  0  0  0  0
  128.0420  128.8010   54.6300 C   0  0  0  0  0  0  0  0  0  0  0  0
  126.7480  128.4500   55.1040 O   0  0  0  0  0  0  0  0  0  0  0  0
  126.4740  128.9200   56.4170 C   0  0  0  0  0  0  0  0  0  0  0  0
  126.8520  127.8360   57.4430 C   0  0  0  0  0  0  0  0  0  0  0  0
  127.2950  126.5770   56.8430 N   0  0  0  0  0  0  0  0  0  0  0  0
  128.2840  125.7980   57.3160 C   0  0  0  0  0  0  0  0  0  0  0  0
  128.9280  126.0710   58.3300 O   0  0  0  0  0  0  0  0  0  0  0  0
  128.5730  124.5280   56.5020 C   0  0  0  0  0  0  0  0  0  0  0  0
  127.5750  123.0620   56.9420 S   0  0  0  0  0  0  0  0  0  0  0  0
  127.3770  122.9980   58.7170 C   0  0  0  0  0  0  0  0  0  0  0  0
  128.4500  122.5450   59.4170 N   0  0  0  0  0  0  0  0  0  0  0  0
  128.3630  122.4620   60.7640 C   0  0  0  0  0  0  0  0  0  0  0  0
  129.5970  121.9390   61.4730 C   0  0  0  0  0  0  0  0  0  0  0  0
  127.2190  122.8310   61.4680 C   0  0  0  0  0  0  0  0  0  0  0  0
  126.1100  123.3060   60.7600 C   0  0  0  0  0  0  0  0  0  0  0  0
  124.8660  123.7060   61.5490 C   0  0  0  0  0  0  0  0  0  0  0  0
  126.1790  123.3970   59.3510 C   0  0  0  0  0  0  0  0  0  0  0  0
  125.0310  123.8880   58.5830 C   0  0  0  0  0  0  0  0  0  0  0  0
  124.1240  124.2750   57.9770 N   0  0  0  0  0  0  0  0  0  0  0  0
  1  2  1  0
  2  3  1  0
  3  4  1  0
  4  5  1  0
  5  6  1  0
  6  7  1  0
  7  8  1  0
  8  9  1  0
  9 10  1  0
 10 11  1  0
 11 12  1  0
 12 13  2  0
 12 14  1  0
 14 15  1  0
 15 16  1  0
 16 17  2  0
 17 18  1  0
 18 19  1  0
 18 20  2  0
 20 21  1  0
 21 22  1  0
 21 23  2  0
 23 24  1  0
 24 25  3  0
 23 16  1  0
M  END
>  <Binding energies>  (11) 
[-6.25]

>  <Ligand effiencies>  (11) 
[-0.2403846153846154]

>  <Interactions>  (11) 
["V-B:TYR:539:CZ:9849, V-B:TYR:539:C:9839, V-B:PRO:540:N:9856, V-B:PRO:540:CB:9857, V-B:PRO:540:CA:9855, V-B:TYR:539:CE2:9848, V-B:TYR:531:CE1:9764, V-A:ILE:538:CG2:4863, V-A:ILE:538:CB:4862, V-A:TYR:539:CE2:4876, V-A:TYR:539:CD2:4874, V-A:MET:535:CE:4835, V-A:ILE:538:CA:4860, V-B:MET:535:CE:9807, H-B:TYR:531:OH:9767, V-A:TYR:539:CG:4872, H-A:TYR:539:N:4870, H-B:LYS:534:NZ:9795, V-B:PRO:540:C:9853, V-B:ASN:362:CB:8148, H-B:MET:535:SD:9806"]

$$$$
1l_Grossjean_2025
     RDKit          3D

 17 17  0  0  0  0  0  0  0  0999 V2000
  130.1370  117.9590   61.2380 C   0  0  0  0  0  0  0  0  0  0  0  0
  129.7880  119.0180   62.1190 O   0  0  0  0  0  0  0  0  0  0  0  0
  129.1010  120.0100   61.4200 N   0  0  0  0  0  0  0  0  0  0  0  0
  129.3050  121.3000   61.7470 C   0  0  0  0  0  0  0  0  0  0  0  0
  130.2280  121.6850   62.4700 O   0  0  0  0  0  0  0  0  0  0  0  0
  128.3050  122.2930   61.1380 C   0  0  0  0  0  0  0  0  0  0  0  0
  128.8560  123.0940   59.5930 S   0  0  0  0  0  0  0  0  0  0  0  0
  127.4740  123.1330   58.4640 C   0  0  0  0  0  0  0  0  0  0  0  0
  127.7540  122.7990   57.1780 N   0  0  0  0  0  0  0  0  0  0  0  0
  126.7510  122.8090   56.2670 C   0  0  0  0  0  0  0  0  0  0  0  0
  127.1420  122.4240   54.8530 C   0  0  0  0  0  0  0  0  0  0  0  0
  125.4410  123.1470   56.5960 C   0  0  0  0  0  0  0  0  0  0  0  0
  125.1400  123.4920   57.9180 C   0  0  0  0  0  0  0  0  0  0  0  0
  123.6960  123.8590   58.2560 C   0  0  0  0  0  0  0  0  0  0  0  0
  126.1710  123.4890   58.8830 C   0  0  0  0  0  0  0  0  0  0  0  0
  125.8840  123.8460   60.2770 C   0  0  0  0  0  0  0  0  0  0  0  0
  125.6560  124.1280   61.3750 N   0  0  0  0  0  0  0  0  0  0  0  0
  1  2  1  0
  2  3  1  0
  3  4  1  0
  4  5  2  0
  4  6  1  0
  6  7  1  0
  7  8  1  0
  8  9  2  0
  9 10  1  0
 10 11  1  0
 10 12  2  0
 12 13  1  0
 13 14  1  0
 13 15  2  0
 15 16  1  0
 16 17  3  0
 15  8  1  0
M  END
>  <Binding energies>  (12) 
[-7.0]

>  <Ligand effiencies>  (12) 
[-0.3888888888888889]

>  <Interactions>  (12) 
["V-B:TYR:539:C:9839, V-B:PRO:540:N:9856, V-A:LEU:475:CD1:4258, H-A:TYR:484:OH:4348, V-B:PRO:540:CB:9857, V-A:PRO:482:CB:4326, V-B:PRO:540:CA:9855, V-A:LEU:475:CD2:4259, V-B:ALA:541:CB:9864, V-B:LEU:363:CD1:8161, V-A:PRO:482:CG:4327, V-B:ASP:366:CG:8185, V-B:ASP:366:CB:8184, V-B:MET:535:CE:9807, V-B:TYR:531:CZ:9766, V-B:TYR:531:CE2:9765, V-B:TYR:539:CE1:9847, V-B:TYR:539:CD1:9845, V-B:ILE:538:CD1:9837, V-B:ILE:538:CA:9832, H-B:ARG:545:NH2:9900, V-B:PRO:540:C:9853, V-B:ALA:541:CA:9862, V-A:LEU:475:CG:4257, V-B:ILE:538:C:9830, V-B:VAL:537:C:9822, V-B:LEU:363:CA:8157, V-B:LEU:363:CB:8159, H-B:TYR:539:O:9840, H-B:PRO:540:O:9854"]

$$$$
1m_Grossjean_2025
     RDKit          3D

 20 20  0  0  0  0  0  0  0  0999 V2000
  129.8060  128.3910   56.4900 C   0  0  0  0  0  0  0  0  0  0  0  0
  129.6230  128.5580   55.0910 O   0  0  0  0  0  0  0  0  0  0  0  0
  128.6800  129.3990   54.6190 C   0  0  0  0  0  0  0  0  0  0  0  0
  127.4710  129.1580   54.5510 O   0  0  0  0  0  0  0  0  0  0  0  0
  129.2940  130.7410   54.1680 C   0  0  0  0  0  0  0  0  0  0  0  0
  130.5700  131.0370   54.8370 N   0  0  0  0  0  0  0  0  0  0  0  0
  130.9950  132.2580   55.2130 C   0  0  0  0  0  0  0  0  0  0  0  0
  130.3450  133.2860   55.0140 O   0  0  0  0  0  0  0  0  0  0  0  0
  132.3630  132.2980   55.9070 C   0  0  0  0  0  0  0  0  0  0  0  0
  132.5330  131.1560   57.3210 S   0  0  0  0  0  0  0  0  0  0  0  0
  131.1290  131.3890   58.3900 C   0  0  0  0  0  0  0  0  0  0  0  0
  129.9520  131.5000   57.7230 N   0  0  0  0  0  0  0  0  0  0  0  0
  128.8140  131.6740   58.4340 C   0  0  0  0  0  0  0  0  0  0  0  0
  127.5360  131.7690   57.6210 C   0  0  0  0  0  0  0  0  0  0  0  0
  128.8020  131.7580   59.8250 C   0  0  0  0  0  0  0  0  0  0  0  0
  130.0120  131.6720   60.5210 C   0  0  0  0  0  0  0  0  0  0  0  0
  129.9760  131.7820   62.0440 C   0  0  0  0  0  0  0  0  0  0  0  0
  131.2140  131.4900   59.8000 C   0  0  0  0  0  0  0  0  0  0  0  0
  132.4970  131.4480   60.5050 C   0  0  0  0  0  0  0  0  0  0  0  0
  133.5100  131.4140   61.0630 N   0  0  0  0  0  0  0  0  0  0  0  0
  1  2  1  0
  2  3  1  0
  3  4  2  0
  3  5  1  0
  5  6  1  0
  6  7  1  0
  7  8  2  0
  7  9  1  0
  9 10  1  0
 10 11  1  0
 11 12  2  0
 12 13  1  0
 13 14  1  0
 13 15  2  0
 15 16  1  0
 16 17  1  0
 16 18  2  0
 18 19  1  0
 19 20  3  0
 18 11  1  0
M  END
>  <Binding energies>  (13) 
[-6.09]

>  <Ligand effiencies>  (13) 
[-0.29]

>  <Interactions>  (13) 
["V-A:TYR:531:CZ:4794, V-A:ILE:538:CG2:4863, V-A:PRO:540:CB:4885, V-A:PRO:540:CD:4887, V-A:TYR:539:CE1:4875, V-A:TYR:539:CD1:4873, V-A:ILE:538:CB:4862, V-A:TYR:539:CZ:4877, V-A:PRO:540:CA:4883, V-A:LEU:363:CD1:3189, V-A:MET:535:CE:4835, V-B:MET:535:CE:9807, V-A:ALA:541:CB:4892, H-A:TYR:531:OH:4795, V-A:GLU:543:CD:4908, H-A:TYR:539:N:4870, H-B:LYS:534:NZ:9795, V-A:ALA:541:CA:4890, V-A:GLU:543:CG:4907"]

$$$$
1n_Grossjean_2025
     RDKit          3D

 27 28  0  0  0  0  0  0  0  0999 V2000
  124.8340  122.7680   55.9780 C   0  0  0  0  0  0  0  0  0  0  0  0
  126.3520  122.7600   55.7720 C   0  0  0  0  0  0  0  0  0  0  0  0
  126.9730  122.0840   56.8580 O   0  0  0  0  0  0  0  0  0  0  0  0
  127.5910  122.7740   57.8520 C   0  0  0  0  0  0  0  0  0  0  0  0
  128.1290  122.2320   58.8220 O   0  0  0  0  0  0  0  0  0  0  0  0
  127.5650  124.2610   57.6470 C   0  0  0  0  0  0  0  0  0  0  0  0
  128.5660  124.9280   56.9240 C   0  0  0  0  0  0  0  0  0  0  0  0
  128.5140  126.3090   56.7540 C   0  0  0  0  0  0  0  0  0  0  0  0
  127.4690  127.0510   57.3070 C   0  0  0  0  0  0  0  0  0  0  0  0
  127.5180  128.4400   57.0790 N   0  0  0  0  0  0  0  0  0  0  0  0
  127.1080  129.1540   56.0080 C   0  0  0  0  0  0  0  0  0  0  0  0
  126.5860  128.6870   54.9960 O   0  0  0  0  0  0  0  0  0  0  0  0
  127.3240  130.6700   56.1010 C   0  0  0  0  0  0  0  0  0  0  0  0
  128.3480  131.2000   55.0740 C   0  0  0  0  0  0  0  0  0  0  0  0
  129.3790  132.5710   55.6750 S   0  0  0  0  0  0  0  0  0  0  0  0
  130.3360  131.9640   57.0480 C   0  0  0  0  0  0  0  0  0  0  0  0
  131.5770  131.5410   56.7000 N   0  0  0  0  0  0  0  0  0  0  0  0
  132.4000  131.0740   57.6680 C   0  0  0  0  0  0  0  0  0  0  0  0
  133.7750  130.6290   57.2070 C   0  0  0  0  0  0  0  0  0  0  0  0
  132.0230  131.0040   59.0070 C   0  0  0  0  0  0  0  0  0  0  0  0
  130.7370  131.4190   59.3730 C   0  0  0  0  0  0  0  0  0  0  0  0
  130.3410  131.3200   60.8450 C   0  0  0  0  0  0  0  0  0  0  0  0
  129.8590  131.9050   58.3790 C   0  0  0  0  0  0  0  0  0  0  0  0
  128.4920  132.2960   58.7310 C   0  0  0  0  0  0  0  0  0  0  0  0
  127.4120  132.6040   59.0110 N   0  0  0  0  0  0  0  0  0  0  0  0
  126.4600  126.3900   58.0220 C   0  0  0  0  0  0  0  0  0  0  0  0
  126.5120  125.0090   58.1880 C   0  0  0  0  0  0  0  0  0  0  0  0
  1  2  1  0
  2  3  1  0
  3  4  1  0
  4  5  2  0
  4  6  1  0
  6  7  2  0
  7  8  1  0
  8  9  2  0
  9 10  1  0
 10 11  1  0
 11 12  2  0
 11 13  1  0
 13 14  1  0
 14 15  1  0
 15 16  1  0
 16 17  2  0
 17 18  1  0
 18 19  1  0
 18 20  2  0
 20 21  1  0
 21 22  1  0
 21 23  2  0
 23 24  1  0
 24 25  3  0
  9 26  1  0
 26 27  2  0
 27  6  1  0
 23 16  1  0
M  END
>  <Binding energies>  (14) 
[-8.11]

>  <Ligand effiencies>  (14) 
[-0.28964285714285715]

>  <Interactions>  (14) 
["V-B:TYR:539:C:9839, V-B:PRO:540:N:9856, V-B:PRO:540:CD:9859, V-B:TYR:539:CG:9844, V-B:PRO:540:CA:9855, V-B:LEU:363:CD1:8161, V-B:TYR:539:CE2:9848, V-B:TYR:539:CD2:9846, V-A:PRO:540:CB:4885, V-A:TYR:539:CD1:4873, V-A:TYR:539:CZ:4877, V-A:PRO:540:CA:4883, V-A:LEU:363:CD1:3189, V-A:TYR:539:C:4867, V-A:PRO:540:N:4884, V-B:MET:535:CE:9807, V-B:TYR:531:CZ:9766, H-B:TYR:531:OH:9767, V-B:TYR:531:CE2:9765, V-A:ASP:366:CG:3213, V-B:ILE:538:CD1:9837, V-B:ILE:538:CG2:9835, V-A:ASP:366:CB:3212, V-B:ILE:538:CA:9832, H-A:TYR:531:OH:4795, H-A:TYR:539:N:4870, H-B:LYS:534:NZ:9795, V-A:LEU:363:CA:3185, H-B:TYR:539:N:9842"]

$$$$
1q_Grossjean_2025
     RDKit          3D

 21 21  0  0  0  0  0  0  0  0999 V2000
  124.5680  122.8480   56.5730 C   0  0  0  0  0  0  0  0  0  0  0  0
  125.7090  122.0050   56.5020 O   0  0  0  0  0  0  0  0  0  0  0  0
  126.8570  122.4470   55.9300 C   0  0  0  0  0  0  0  0  0  0  0  0
  127.2940  122.0920   54.8340 O   0  0  0  0  0  0  0  0  0  0  0  0
  127.6420  123.4550   56.7960 C   0  0  0  0  0  0  0  0  0  0  0  0
  127.1390  123.5420   58.1750 N   0  0  0  0  0  0  0  0  0  0  0  0
  127.6650  122.9200   59.2480 C   0  0  0  0  0  0  0  0  0  0  0  0
  128.6570  122.1910   59.1850 O   0  0  0  0  0  0  0  0  0  0  0  0
  126.9640  123.1830   60.5880 C   0  0  0  0  0  0  0  0  0  0  0  0
  127.9090  123.6280   61.7220 C   0  0  0  0  0  0  0  0  0  0  0  0
  128.6460  122.2430   62.6410 S   0  0  0  0  0  0  0  0  0  0  0  0
  130.0370  121.6250   61.7160 C   0  0  0  0  0  0  0  0  0  0  0  0
  129.8950  120.3320   61.3280 N   0  0  0  0  0  0  0  0  0  0  0  0
  130.8900  119.7500   60.6190 C   0  0  0  0  0  0  0  0  0  0  0  0
  130.6670  118.2990   60.2370 C   0  0  0  0  0  0  0  0  0  0  0  0
  132.0530  120.4280   60.2600 C   0  0  0  0  0  0  0  0  0  0  0  0
  132.2000  121.7680   60.6320 C   0  0  0  0  0  0  0  0  0  0  0  0
  133.4760  122.4960   60.2110 C   0  0  0  0  0  0  0  0  0  0  0  0
  131.1730  122.3990   61.3710 C   0  0  0  0  0  0  0  0  0  0  0  0
  131.2830  123.8160   61.7190 C   0  0  0  0  0  0  0  0  0  0  0  0
  131.3750  124.9370   61.9920 N   0  0  0  0  0  0  0  0  0  0  0  0
  1  2  1  0
  2  3  1  0
  3  4  2  0
  3  5  1  0
  5  6  1  0
  6  7  1  0
  7  8  2  0
  7  9  1  0
  9 10  1  0
 10 11  1  0
 11 12  1  0
 12 13  2  0
 13 14  1  0
 14 15  1  0
 14 16  2  0
 16 17  1  0
 17 18  1  0
 17 19  2  0
 19 20  1  0
 20 21  3  0
 19 12  1  0
M  END
>  <Binding energies>  (15) 
[-6.29]

>  <Ligand effiencies>  (15) 
[-0.2859090909090909]

>  <Interactions>  (15) 
["V-B:TYR:539:CZ:9849, V-B:TYR:539:C:9839, V-B:PRO:540:N:9856, V-B:PRO:540:CD:9859, H-A:TYR:484:OH:4348, V-B:PRO:540:CB:9857, V-B:PRO:540:CA:9855, V-A:LEU:475:CD2:4259, V-B:LEU:363:CD1:8161, V-B:TYR:539:CE2:9848, V-B:TYR:539:CD2:9846, V-B:MET:535:CE:9807, V-B:TYR:531:CZ:9766, H-B:TYR:531:OH:9767, V-B:TYR:531:CE2:9765, V-B:TYR:539:CE1:9847, V-B:TYR:539:CD1:9845, V-B:ILE:538:CD1:9837, V-B:ILE:538:CA:9832, V-A:ILE:369:CG2:3237, V-B:GLU:543:CD:9880, V-A:ILE:369:CD1:3239, V-B:ILE:538:C:9830, H-B:TYR:539:N:9842, V-B:TYR:539:CB:9843, V-A:ILE:369:CB:3236"]

$$$$
2a_Grossjean_2025
     RDKit          3D

 29 30  0  0  0  0  0  0  0  0999 V2000
  126.7490  122.7310   54.7120 C   0  0  0  0  0  0  0  0  0  0  0  0
  125.9690  122.6980   56.0300 C   0  0  0  0  0  0  0  0  0  0  0  0
  126.7510  122.0450   57.0230 O   0  0  0  0  0  0  0  0  0  0  0  0
  127.5310  122.7550   57.8800 C   0  0  0  0  0  0  0  0  0  0  0  0
  128.3060  122.2330   58.6870 O   0  0  0  0  0  0  0  0  0  0  0  0
  127.3710  124.2410   57.7300 C   0  0  0  0  0  0  0  0  0  0  0  0
  126.3190  124.9390   58.3420 C   0  0  0  0  0  0  0  0  0  0  0  0
  126.1990  126.3160   58.1820 C   0  0  0  0  0  0  0  0  0  0  0  0
  127.1180  127.0230   57.4060 C   0  0  0  0  0  0  0  0  0  0  0  0
  126.8910  128.4070   57.3020 N   0  0  0  0  0  0  0  0  0  0  0  0
  126.5320  129.1510   56.2340 C   0  0  0  0  0  0  0  0  0  0  0  0
  126.3550  128.7230   55.0930 O   0  0  0  0  0  0  0  0  0  0  0  0
  126.3410  130.6470   56.5040 C   0  0  0  0  0  0  0  0  0  0  0  0
  127.8560  131.6270   56.2380 S   0  0  0  0  0  0  0  0  0  0  0  0
  129.2070  130.9180   57.1730 C   0  0  0  0  0  0  0  0  0  0  0  0
  128.8520  130.0360   58.1430 N   0  0  0  0  0  0  0  0  0  0  0  0
  129.8200  129.4710   58.8980 C   0  0  0  0  0  0  0  0  0  0  0  0
  129.3440  128.5180   59.9780 C   0  0  0  0  0  0  0  0  0  0  0  0
  131.1720  129.7480   58.7160 C   0  0  0  0  0  0  0  0  0  0  0  0
  131.5630  130.6490   57.7130 C   0  0  0  0  0  0  0  0  0  0  0  0
  133.0630  130.9440   57.5250 C   0  0  0  0  0  0  0  0  0  0  0  0
  133.6330  129.9760   56.8070 F   0  0  0  0  0  0  0  0  0  0  0  0
  133.2220  132.1060   56.8890 F   0  0  0  0  0  0  0  0  0  0  0  0
  133.7210  131.0270   58.6830 F   0  0  0  0  0  0  0  0  0  0  0  0
  130.5560  131.2520   56.9170 C   0  0  0  0  0  0  0  0  0  0  0  0
  130.9080  132.2040   55.8570 C   0  0  0  0  0  0  0  0  0  0  0  0
  131.1850  132.9550   55.0210 N   0  0  0  0  0  0  0  0  0  0  0  0
  128.1770  126.3330   56.7980 C   0  0  0  0  0  0  0  0  0  0  0  0
  128.2990  124.9560   56.9620 C   0  0  0  0  0  0  0  0  0  0  0  0
  1  2  1  0
  2  3  1  0
  3  4  1  0
  4  5  2  0
  4  6  1  0
  6  7  2  0
  7  8  1  0
  8  9  2  0
  9 10  1  0
 10 11  1  0
 11 12  2  0
 11 13  1  0
 13 14  1  0
 14 15  1  0
 15 16  2  0
 16 17  1  0
 17 18  1  0
 17 19  2  0
 19 20  1  0
 20 21  1  0
 21 22  1  0
 21 23  1  0
 21 24  1  0
 20 25  2  0
 25 26  1  0
 26 27  3  0
  9 28  1  0
 28 29  2  0
 29  6  1  0
 25 15  1  0
M  END
>  <Binding energies>  (16) 
[-7.36]

>  <Ligand effiencies>  (16) 
[-0.24533333333333335]

>  <Interactions>  (16) 
["V-B:TYR:539:C:9839, V-B:PRO:540:N:9856, V-B:PRO:540:CA:9855, V-B:TYR:539:CE2:9848, V-B:TYR:539:CD2:9846, V-B:TYR:531:CE1:9764, V-B:ASP:366:CG:8185, V-A:TYR:531:CZ:4794, V-A:PRO:540:CB:4885, V-A:PRO:540:CD:4887, V-A:TYR:539:CE1:4875, V-A:PRO:540:CG:4886, V-A:TYR:539:CZ:4877, V-A:PRO:540:CA:4883, V-A:LEU:363:CD1:3189, V-A:PRO:540:N:4884, V-B:MET:535:CE:9807, V-A:TYR:531:CE2:4793, H-B:TYR:531:OH:9767, V-B:TYR:539:CE1:9847, V-A:ASP:366:CG:3213, V-B:TYR:539:CD1:9845, V-B:ILE:538:CD1:9837, V-A:ASP:366:CB:3212, V-B:ILE:538:CA:9832, H-A:TYR:539:N:4870, H-B:LYS:534:NZ:9795, V-A:ASN:362:C:3172, V-A:LEU:363:CA:3185, H-B:TYR:539:N:9842, V-A:LEU:363:CB:3187, V-A:LEU:363:CG:3188"]

$$$$
2b_Grossjean_2025
     RDKit          3D

 28 29  0  0  0  0  0  0  0  0999 V2000
  125.6930  122.4630   56.3240 C   0  0  0  0  0  0  0  0  0  0  0  0
  126.9530  122.0650   56.8460 O   0  0  0  0  0  0  0  0  0  0  0  0
  127.5340  122.7470   57.8660 C   0  0  0  0  0  0  0  0  0  0  0  0
  128.1340  122.1990   58.7960 O   0  0  0  0  0  0  0  0  0  0  0  0
  127.3720  124.2350   57.7520 C   0  0  0  0  0  0  0  0  0  0  0  0
  126.3390  124.9210   58.4070 C   0  0  0  0  0  0  0  0  0  0  0  0
  126.2160  126.3020   58.2790 C   0  0  0  0  0  0  0  0  0  0  0  0
  127.1220  127.0250   57.5030 C   0  0  0  0  0  0  0  0  0  0  0  0
  126.9010  128.4140   57.4380 N   0  0  0  0  0  0  0  0  0  0  0  0
  126.5360  129.1800   56.3880 C   0  0  0  0  0  0  0  0  0  0  0  0
  126.3490  128.7740   55.2400 O   0  0  0  0  0  0  0  0  0  0  0  0
  126.3720  130.6720   56.6950 C   0  0  0  0  0  0  0  0  0  0  0  0
  127.8830  131.6410   56.3760 S   0  0  0  0  0  0  0  0  0  0  0  0
  129.2470  130.9720   57.3180 C   0  0  0  0  0  0  0  0  0  0  0  0
  128.9100  130.1130   58.3140 N   0  0  0  0  0  0  0  0  0  0  0  0
  129.8910  129.5730   59.0710 C   0  0  0  0  0  0  0  0  0  0  0  0
  129.4310  128.6340   60.1700 C   0  0  0  0  0  0  0  0  0  0  0  0
  131.2380  129.8540   58.8670 C   0  0  0  0  0  0  0  0  0  0  0  0
  131.6110  130.7340   57.8390 C   0  0  0  0  0  0  0  0  0  0  0  0
  133.1070  131.0310   57.6230 C   0  0  0  0  0  0  0  0  0  0  0  0
  133.7280  131.1240   58.8000 F   0  0  0  0  0  0  0  0  0  0  0  0
  133.6710  130.0530   56.9130 F   0  0  0  0  0  0  0  0  0  0  0  0
  133.3170  132.1750   56.9670 F   0  0  0  0  0  0  0  0  0  0  0  0
  130.5920  131.3130   57.0410 C   0  0  0  0  0  0  0  0  0  0  0  0
  130.9230  132.2430   55.9570 C   0  0  0  0  0  0  0  0  0  0  0  0
  131.1850  132.9770   55.1010 N   0  0  0  0  0  0  0  0  0  0  0  0
  128.1540  126.3460   56.8390 C   0  0  0  0  0  0  0  0  0  0  0  0
  128.2750  124.9650   56.9670 C   0  0  0  0  0  0  0  0  0  0  0  0
  1  2  1  0
  2  3  1  0
  3  4  2  0
  3  5  1  0
  5  6  2  0
  6  7  1  0
  7  8  2  0
  8  9  1  0
  9 10  1  0
 10 11  2  0
 10 12  1  0
 12 13  1  0
 13 14  1  0
 14 15  2  0
 15 16  1  0
 16 17  1  0
 16 18  2  0
 18 19  1  0
 19 20  1  0
 20 21  1  0
 20 22  1  0
 20 23  1  0
 19 24  2  0
 24 25  1  0
 25 26  3  0
  8 27  1  0
 27 28  2  0
 28  5  1  0
 24 14  1  0
M  END
>  <Binding energies>  (17) 
[-6.94]

>  <Ligand effiencies>  (17) 
[-0.23931034482758623]

>  <Interactions>  (17) 
["V-B:TYR:539:C:9839, V-B:PRO:540:N:9856, V-B:PRO:540:CD:9859, V-B:TYR:539:CG:9844, V-B:PRO:540:CA:9855, V-B:TYR:539:CE2:9848, V-B:TYR:539:CD2:9846, V-B:TYR:531:CE1:9764, V-B:ASP:366:CG:8185, V-A:TYR:531:CZ:4794, V-A:PRO:540:CB:4885, V-A:PRO:540:CD:4887, V-A:TYR:539:CE1:4875, V-A:PRO:540:CG:4886, V-A:TYR:539:CZ:4877, V-A:PRO:540:CA:4883, V-A:LEU:363:CD1:3189, V-A:PRO:540:N:4884, V-B:MET:535:CE:9807, V-A:TYR:531:CE2:4793, H-B:TYR:531:OH:9767, V-A:ASP:366:CG:3213, V-B:ILE:538:CD1:9837, V-B:ILE:538:CG2:9835, V-A:ASP:366:CB:3212, V-B:ILE:538:CA:9832, H-A:TYR:539:N:4870, H-B:LYS:534:NZ:9795, V-A:ASN:362:C:3172, V-A:LEU:363:CA:3185, H-B:TYR:539:N:9842, V-A:LEU:363:CB:3187, V-A:LEU:363:CG:3188"]

$$$$
2c_Grossjean_2025
     RDKit          3D

 26 27  0  0  0  0  0  0  0  0999 V2000
  132.7380  131.3820   61.9620 C   0  0  0  0  0  0  0  0  0  0  0  0
  131.4090  131.7950   61.6580 O   0  0  0  0  0  0  0  0  0  0  0  0
  130.9720  131.7490   60.3490 C   0  0  0  0  0  0  0  0  0  0  0  0
  129.6620  132.1640   60.1150 C   0  0  0  0  0  0  0  0  0  0  0  0
  129.1300  132.1520   58.8280 C   0  0  0  0  0  0  0  0  0  0  0  0
  129.9130  131.7100   57.7520 C   0  0  0  0  0  0  0  0  0  0  0  0
  129.4710  131.6800   56.4170 N   0  0  0  0  0  0  0  0  0  0  0  0
  129.9480  132.3640   55.3550 C   0  0  0  0  0  0  0  0  0  0  0  0
  130.8530  133.1990   55.4090 O   0  0  0  0  0  0  0  0  0  0  0  0
  129.2460  132.0630   54.0230 C   0  0  0  0  0  0  0  0  0  0  0  0
  128.9970  130.2920   53.6480 S   0  0  0  0  0  0  0  0  0  0  0  0
  128.1010  129.5210   54.9900 C   0  0  0  0  0  0  0  0  0  0  0  0
  126.9200  130.1050   55.3210 N   0  0  0  0  0  0  0  0  0  0  0  0
  126.1940  129.5810   56.3320 C   0  0  0  0  0  0  0  0  0  0  0  0
  124.8970  130.3000   56.6510 C   0  0  0  0  0  0  0  0  0  0  0  0
  126.6020  128.4580   57.0480 C   0  0  0  0  0  0  0  0  0  0  0  0
  127.8140  127.8340   56.7190 C   0  0  0  0  0  0  0  0  0  0  0  0
  128.2510  126.5910   57.5180 C   0  0  0  0  0  0  0  0  0  0  0  0
  129.4030  126.8330   58.1450 F   0  0  0  0  0  0  0  0  0  0  0  0
  127.3220  126.2780   58.4220 F   0  0  0  0  0  0  0  0  0  0  0  0
  128.4330  125.5180   56.7430 F   0  0  0  0  0  0  0  0  0  0  0  0
  128.5890  128.3760   55.6630 C   0  0  0  0  0  0  0  0  0  0  0  0
  129.8660  127.7660   55.2770 C   0  0  0  0  0  0  0  0  0  0  0  0
  130.8740  127.2830   54.9730 N   0  0  0  0  0  0  0  0  0  0  0  0
  131.2310  131.3090   57.9780 C   0  0  0  0  0  0  0  0  0  0  0  0
  131.7580  131.3230   59.2660 C   0  0  0  0  0  0  0  0  0  0  0  0
  1  2  1  0
  2  3  1  0
  3  4  2  0
  4  5  1  0
  5  6  2  0
  6  7  1  0
  7  8  1  0
  8  9  2  0
  8 10  1  0
 10 11  1  0
 11 12  1  0
 12 13  2  0
 13 14  1  0
 14 15  1  0
 14 16  2  0
 16 17  1  0
 17 18  1  0
 18 19  1  0
 18 20  1  0
 18 21  1  0
 17 22  2  0
 22 23  1  0
 23 24  3  0
  6 25  1  0
 25 26  2  0
 26  3  1  0
 22 12  1  0
M  END
>  <Binding energies>  (18) 
[-6.63]

>  <Ligand effiencies>  (18) 
[-0.24555555555555555]

>  <Interactions>  (18) 
["V-B:TYR:531:CE1:9764, V-A:PRO:540:CB:4885, V-A:TYR:539:CE1:4875, V-A:TYR:539:CZ:4877, V-A:PRO:540:CA:4883, V-A:TYR:539:C:4867, V-A:MET:535:CE:4835, V-A:ILE:538:CA:4860, V-B:MET:535:CE:9807, H-A:TYR:531:OH:4795, V-A:GLU:543:CD:4908, H-A:TYR:539:N:4870, H-A:ALA:541:N:4891, H-B:LYS:534:NZ:9795, V-A:ALA:541:C:4888, V-A:PRO:540:C:4881, V-A:ASN:362:CB:3176, V-A:GLU:543:CG:4907"]

$$$$
2d_Ghoteimi_2023
     RDKit          3D

 38 42  0  0  0  0  0  0  0  0999 V2000
  126.3260  135.9180   60.6910 C   0  0  0  0  0  0  0  0  0  0  0  0
  125.3580  135.0920   60.0610 O   0  0  0  0  0  0  0  0  0  0  0  0
  124.6100  134.2360   60.7880 C   0  0  0  0  0  0  0  0  0  0  0  0
  123.3940  134.3280   60.9750 O   0  0  0  0  0  0  0  0  0  0  0  0
  125.4670  133.0990   61.3650 C   0  0  0  0  0  0  0  0  0  0  0  0
  124.4590  131.9590   62.3730 S   0  0  0  0  0  0  0  0  0  0  0  0
  125.2620  130.3690   62.3930 C   0  0  0  0  0  0  0  0  0  0  0  0
  125.7710  130.0420   63.6060 N   0  0  0  0  0  0  0  0  0  0  0  0
  126.4170  128.8600   63.7660 C   0  0  0  0  0  0  0  0  0  0  0  0
  126.9660  128.5760   65.1270 C   0  0  0  0  0  0  0  0  0  0  0  0
  126.1750  127.9510   66.0980 C   0  0  0  0  0  0  0  0  0  0  0  0
  126.6800  127.6840   67.3680 C   0  0  0  0  0  0  0  0  0  0  0  0
  127.9980  128.0220   67.7090 C   0  0  0  0  0  0  0  0  0  0  0  0
  128.5150  127.7760   68.9870 N   0  0  0  0  0  0  0  0  0  0  0  0
  128.1010  126.5980   69.7740 C   0  0  0  0  0  0  0  0  0  0  0  0
  128.4740  126.6910   71.2680 C   0  0  0  0  0  0  0  0  0  0  0  0
  129.8670  126.9260   71.4050 O   0  0  0  0  0  0  0  0  0  0  0  0
  130.2540  128.1410   70.7850 C   0  0  0  0  0  0  0  0  0  0  0  0
  129.9280  128.0950   69.2770 C   0  0  0  0  0  0  0  0  0  0  0  0
  128.7820  128.6600   66.7380 C   0  0  0  0  0  0  0  0  0  0  0  0
  128.2770  128.9290   65.4690 C   0  0  0  0  0  0  0  0  0  0  0  0
  126.5650  127.9690   62.7000 C   0  0  0  0  0  0  0  0  0  0  0  0
  126.0200  128.2680   61.4450 C   0  0  0  0  0  0  0  0  0  0  0  0
  126.1930  127.2570   60.3590 C   0  0  0  0  0  0  0  0  0  0  0  0
  126.3230  125.9030   60.6740 C   0  0  0  0  0  0  0  0  0  0  0  0
  126.4720  124.9510   59.6700 C   0  0  0  0  0  0  0  0  0  0  0  0
  126.4970  125.3280   58.3170 C   0  0  0  0  0  0  0  0  0  0  0  0
  126.6330  124.3890   57.2920 N   0  0  0  0  0  0  0  0  0  0  0  0
  125.6610  123.2920   57.1200 C   0  0  0  0  0  0  0  0  0  0  0  0
  125.7640  122.5860   55.7510 C   0  0  0  0  0  0  0  0  0  0  0  0
  127.0900  122.1260   55.5400 O   0  0  0  0  0  0  0  0  0  0  0  0
  128.0250  123.1950   55.5580 C   0  0  0  0  0  0  0  0  0  0  0  0
  127.9810  123.9130   56.9240 C   0  0  0  0  0  0  0  0  0  0  0  0
  126.3480  126.6870   58.0090 C   0  0  0  0  0  0  0  0  0  0  0  0
  126.1980  127.6390   59.0140 C   0  0  0  0  0  0  0  0  0  0  0  0
  125.3420  129.5010   61.2800 C   0  0  0  0  0  0  0  0  0  0  0  0
  124.7380  129.8510   59.9910 C   0  0  0  0  0  0  0  0  0  0  0  0
  124.2620  130.1230   58.9710 N   0  0  0  0  0  0  0  0  0  0  0  0
  1  2  1  0
  2  3  1  0
  3  4  2  0
  3  5  1  0
  5  6  1  0
  6  7  1  0
  7  8  2  0
  8  9  1  0
  9 10  1  0
 10 11  2  0
 11 12  1  0
 12 13  2  0
 13 14  1  0
 14 15  1  0
 15 16  1  0
 16 17  1  0
 17 18  1  0
 18 19  1  0
 13 20  1  0
 20 21  2  0
  9 22  2  0
 22 23  1  0
 23 24  1  0
 24 25  2  0
 25 26  1  0
 26 27  2  0
 27 28  1  0
 28 29  1  0
 29 30  1  0
 30 31  1  0
 31 32  1  0
 32 33  1  0
 27 34  1  0
 34 35  2  0
 23 36  2  0
 36 37  1  0
 37 38  3  0
 36  7  1  0
 21 10  1  0
 35 24  1  0
 19 14  1  0
 33 28  1  0
M  END
>  <Binding energies>  (19) 
[-7.26]

>  <Ligand effiencies>  (19) 
[-0.19105263157894736]

>  <Interactions>  (19) 
["V-B:TYR:539:CZ:9849, V-B:TYR:539:CG:9844, V-B:TYR:539:CE2:9848, V-B:ASP:366:CG:8185, V-B:ARG:545:CZ:9898, V-B:ILE:369:CG2:8209, V-A:TYR:539:CD1:4873, V-B:LEU:475:CD2:9231, V-B:ASP:366:CA:8182, V-B:ASP:366:CB:8184, V-B:MET:535:CE:9807, V-B:TYR:539:CE1:9847, V-B:TYR:539:CD1:9845, V-B:ILE:538:CD1:9837, V-B:ILE:538:CG2:9835, V-B:ILE:538:CA:9832, V-A:GLU:543:CD:4908, V-B:GLU:543:CD:9880, H-B:GLY:454:N:9022, V-B:ARG:545:CD:9895, H-B:TYR:484:OH:9320, V-A:GLU:543:CG:4907, V-B:ARG:545:CG:9894, V-B:HIS:456:CE1:9042, H-B:TYR:539:N:9842, V-A:GLU:543:CB:4906, V-A:HIS:456:CE1:4070, H-B:SER:385:OG:8382, V-A:HIS:456:CD2:4068, V-B:HIS:456:CD2:9040, V-B:GLU:543:CB:9878, V-A:GLU:543:C:4902, V-A:GLY:544:C:4912"]

$$$$
2d_Grossjean_2025
     RDKit          3D

 24 25  0  0  0  0  0  0  0  0999 V2000
  129.5360  132.2080   59.7490 C   0  0  0  0  0  0  0  0  0  0  0  0
  128.0250  132.0910   59.6730 C   0  0  0  0  0  0  0  0  0  0  0  0
  127.1910  133.1040   60.1420 C   0  0  0  0  0  0  0  0  0  0  0  0
  125.8000  132.9500   60.0450 C   0  0  0  0  0  0  0  0  0  0  0  0
  124.8930  134.0850   60.5590 C   0  0  0  0  0  0  0  0  0  0  0  0
  124.1150  133.6370   61.5450 F   0  0  0  0  0  0  0  0  0  0  0  0
  125.6370  135.0920   61.0200 F   0  0  0  0  0  0  0  0  0  0  0  0
  124.0950  134.5790   59.6100 F   0  0  0  0  0  0  0  0  0  0  0  0
  125.2870  131.7570   59.4760 C   0  0  0  0  0  0  0  0  0  0  0  0
  123.8430  131.5690   59.3100 C   0  0  0  0  0  0  0  0  0  0  0  0
  122.7030  131.4210   59.1790 N   0  0  0  0  0  0  0  0  0  0  0  0
  126.2100  130.7720   59.0510 C   0  0  0  0  0  0  0  0  0  0  0  0
  125.7390  129.2050   58.3440 S   0  0  0  0  0  0  0  0  0  0  0  0
  125.2950  129.4610   56.5940 C   0  0  0  0  0  0  0  0  0  0  0  0
  126.5000  129.8120   55.7160 C   0  0  0  0  0  0  0  0  0  0  0  0
  126.7210  129.1410   54.7070 O   0  0  0  0  0  0  0  0  0  0  0  0
  127.2590  130.8400   56.1500 N   0  0  0  0  0  0  0  0  0  0  0  0
  128.4130  131.3990   55.5710 C   0  0  0  0  0  0  0  0  0  0  0  0
  129.3830  131.8630   56.4630 C   0  0  0  0  0  0  0  0  0  0  0  0
  130.5580  132.4380   55.9850 C   0  0  0  0  0  0  0  0  0  0  0  0
  130.7590  132.5560   54.6120 C   0  0  0  0  0  0  0  0  0  0  0  0
  129.7940  132.1090   53.7140 C   0  0  0  0  0  0  0  0  0  0  0  0
  128.6190  131.5330   54.1870 C   0  0  0  0  0  0  0  0  0  0  0  0
  127.5520  130.9460   59.1320 N   0  0  0  0  0  0  0  0  0  0  0  0
  1  2  1  0
  2  3  2  0
  3  4  1  0
  4  5  1  0
  5  6  1  0
  5  7  1  0
  5  8  1  0
  4  9  2  0
  9 10  1  0
 10 11  3  0
  9 12  1  0
 12 13  1  0
 13 14  1  0
 14 15  1  0
 15 16  2  0
 15 17  1  0
 17 18  1  0
 18 19  2  0
 19 20  1  0
 20 21  2  0
 21 22  1  0
 22 23  2  0
 12 24  2  0
 24  2  1  0
 23 18  1  0
M  END
>  <Binding energies>  (20) 
[-6.35]

>  <Ligand effiencies>  (20) 
[-0.254]

>  <Interactions>  (20) 
["V-B:TYR:531:CE1:9764, V-B:ILE:369:CG2:8209, V-A:ILE:538:CG2:4863, V-A:TYR:539:CE1:4875, V-A:TYR:539:CD1:4873, V-A:ILE:538:CB:4862, V-A:TYR:539:CZ:4877, V-A:PRO:540:CA:4883, V-B:LEU:475:CD2:9231, V-A:TYR:539:CE2:4876, V-B:ILE:369:CD1:8211, V-A:TYR:539:C:4867, V-A:PRO:540:N:4884, V-A:ILE:538:CA:4860, V-B:TYR:531:CZ:9766, H-B:LYS:534:NZ:9795, V-A:PRO:540:C:4881, V-B:ILE:369:CB:8208, V-B:SER:385:CA:8379"]

$$$$
2e_Grossjean_2025
     RDKit          3D

 25 26  0  0  0  0  0  0  0  0999 V2000
  123.2040  129.5630   67.0250 C   0  0  0  0  0  0  0  0  0  0  0  0
  124.3400  129.4020   66.0340 C   0  0  0  0  0  0  0  0  0  0  0  0
  125.5330  128.7640   66.3860 C   0  0  0  0  0  0  0  0  0  0  0  0
  126.5310  128.6430   65.4170 C   0  0  0  0  0  0  0  0  0  0  0  0
  126.3160  129.1560   64.1360 C   0  0  0  0  0  0  0  0  0  0  0  0
  125.1010  129.7910   63.8540 C   0  0  0  0  0  0  0  0  0  0  0  0
  124.9200  130.2500   62.5380 N   0  0  0  0  0  0  0  0  0  0  0  0
  123.7660  130.3540   61.8430 C   0  0  0  0  0  0  0  0  0  0  0  0
  122.6440  130.1220   62.2970 O   0  0  0  0  0  0  0  0  0  0  0  0
  123.9090  130.7510   60.3700 C   0  0  0  0  0  0  0  0  0  0  0  0
  123.7120  132.5450   60.1230 S   0  0  0  0  0  0  0  0  0  0  0  0
  125.2770  133.2610   60.5740 C   0  0  0  0  0  0  0  0  0  0  0  0
  126.1560  132.3920   61.1320 N   0  0  0  0  0  0  0  0  0  0  0  0
  127.3540  132.8630   61.5450 C   0  0  0  0  0  0  0  0  0  0  0  0
  128.2890  131.8390   62.1580 C   0  0  0  0  0  0  0  0  0  0  0  0
  127.7180  134.2040   61.4270 C   0  0  0  0  0  0  0  0  0  0  0  0
  126.8150  135.1170   60.8620 C   0  0  0  0  0  0  0  0  0  0  0  0
  127.2230  136.5990   60.7580 C   0  0  0  0  0  0  0  0  0  0  0  0
  126.5690  137.3180   61.6710 F   0  0  0  0  0  0  0  0  0  0  0  0
  128.5340  136.7260   60.9640 F   0  0  0  0  0  0  0  0  0  0  0  0
  126.9500  137.1250   59.5620 F   0  0  0  0  0  0  0  0  0  0  0  0
  125.5570  134.6380   60.4180 C   0  0  0  0  0  0  0  0  0  0  0  0
  124.5590  135.5470   59.8460 C   0  0  0  0  0  0  0  0  0  0  0  0
  123.7710  136.2650   59.3940 N   0  0  0  0  0  0  0  0  0  0  0  0
  124.1170  129.9070   64.7930 N   0  0  0  0  0  0  0  0  0  0  0  0
  1  2  1  0
  2  3  2  0
  3  4  1  0
  4  5  2  0
  5  6  1  0
  6  7  1  0
  7  8  1  0
  8  9  2  0
  8 10  1  0
 10 11  1  0
 11 12  1  0
 12 13  2  0
 13 14  1  0
 14 15  1  0
 14 16  2  0
 16 17  1  0
 17 18  1  0
 18 19  1  0
 18 20  1  0
 18 21  1  0
 17 22  2  0
 22 23  1  0
 23 24  3  0
  6 25  2  0
 25  2  1  0
 22 12  1  0
M  END
>  <Binding energies>  (21) 
[-7.42]

>  <Ligand effiencies>  (21) 
[-0.2853846153846154]

>  <Interactions>  (21) 
["V-B:ASP:366:CG:8185, V-B:ARG:545:CZ:9898, V-B:ILE:369:CG2:8209, V-A:TYR:539:CE1:4875, V-A:TYR:539:CD1:4873, V-B:LEU:475:CD2:9231, V-B:GLY:454:CA:9021, V-B:ASP:366:CA:8182, V-B:ILE:369:CD1:8211, V-A:TYR:539:C:4867, V-B:ASP:366:CB:8184, V-A:TYR:539:CA:4869, V-A:TYR:539:CG:4872, V-A:ALA:541:CB:4892, V-A:ALA:541:CA:4890, V-A:PRO:540:C:4881, V-B:GLU:543:CD:9880, V-B:GLY:453:C:9014, H-B:GLY:454:N:9022, V-B:ARG:545:CD:9895, H-B:TYR:484:OH:9320, V-B:PRO:482:CG:9299, V-A:TYR:539:CB:4871, V-B:PRO:482:CB:9298, V-B:GLY:453:CA:9016, V-B:SER:385:CB:8381, V-B:SER:385:CA:8379, V-B:ARG:545:CG:9894, V-B:HIS:456:CE1:9042, V-B:TYR:484:CZ:9319, V-B:TYR:484:CE1:9317, H-B:ARG:545:NH1:9899, H-B:SER:385:OG:8382, V-B:LEU:475:CG:9229, V-B:ILE:455:C:9024, V-B:ARG:545:CB:9893, V-B:LEU:475:CD1:9230"]

$$$$
2f_Grossjean_2025
     RDKit          3D

 24 25  0  0  0  0  0  0  0  0999 V2000
  132.8880  124.6380   60.6290 C   0  0  0  0  0  0  0  0  0  0  0  0
  131.5130  124.1580   61.0520 C   0  0  0  0  0  0  0  0  0  0  0  0
  131.2190  122.8020   61.1760 C   0  0  0  0  0  0  0  0  0  0  0  0
  129.9290  122.4080   61.5630 C   0  0  0  0  0  0  0  0  0  0  0  0
  129.6200  120.9030   61.6830 C   0  0  0  0  0  0  0  0  0  0  0  0
  130.3860  120.2100   60.8380 F   0  0  0  0  0  0  0  0  0  0  0  0
  129.8610  120.4870   62.9260 F   0  0  0  0  0  0  0  0  0  0  0  0
  128.3490  120.6120   61.4000 F   0  0  0  0  0  0  0  0  0  0  0  0
  128.9620  123.4130   61.8240 C   0  0  0  0  0  0  0  0  0  0  0  0
  127.5870  123.0510   62.1760 C   0  0  0  0  0  0  0  0  0  0  0  0
  126.5000  122.7650   62.4550 N   0  0  0  0  0  0  0  0  0  0  0  0
  129.3590  124.7660   61.6980 C   0  0  0  0  0  0  0  0  0  0  0  0
  128.2830  126.1540   61.9980 S   0  0  0  0  0  0  0  0  0  0  0  0
  126.7590  125.9090   61.0240 C   0  0  0  0  0  0  0  0  0  0  0  0
  126.9570  125.2160   59.6680 C   0  0  0  0  0  0  0  0  0  0  0  0
  128.0210  125.3230   59.0570 O   0  0  0  0  0  0  0  0  0  0  0  0
  125.8820  124.5260   59.2290 N   0  0  0  0  0  0  0  0  0  0  0  0
  125.7210  123.7740   58.0500 C   0  0  0  0  0  0  0  0  0  0  0  0
  124.5180  123.6200   57.3370 C   0  0  0  0  0  0  0  0  0  0  0  0
  124.4970  122.8480   56.1740 C   0  0  0  0  0  0  0  0  0  0  0  0
  125.6840  122.2510   55.7490 C   0  0  0  0  0  0  0  0  0  0  0  0
  126.8590  122.3900   56.4130 N   0  0  0  0  0  0  0  0  0  0  0  0
  126.8630  123.1440   57.5410 C   0  0  0  0  0  0  0  0  0  0  0  0
  130.6030  125.1270   61.3010 N   0  0  0  0  0  0  0  0  0  0  0  0
  1  2  1  0
  2  3  2  0
  3  4  1  0
  4  5  1  0
  5  6  1  0
  5  7  1  0
  5  8  1  0
  4  9  2  0
  9 10  1  0
 10 11  3  0
  9 12  1  0
 12 13  1  0
 13 14  1  0
 14 15  1  0
 15 16  2  0
 15 17  1  0
 17 18  1  0
 18 19  2  0
 19 20  1  0
 20 21  2  0
 21 22  1  0
 22 23  2  0
 12 24  2  0
 24  2  1  0
 23 18  1  0
M  END
>  <Binding energies>  (22) 
[-6.7]

>  <Ligand effiencies>  (22) 
[-0.268]

>  <Interactions>  (22) 
["V-B:TYR:539:C:9839, V-B:PRO:540:N:9856, V-A:LEU:475:CD1:4258, V-B:PRO:540:CD:9859, V-B:PRO:540:CB:9857, V-B:PRO:540:CA:9855, V-A:LEU:475:CD2:4259, V-B:ALA:541:CB:9864, V-B:LEU:363:CD1:8161, V-B:TYR:539:CD2:9846, V-B:TYR:531:CZ:9766, V-B:TYR:531:CE2:9765, V-A:ASP:366:CG:3213, V-B:ILE:538:CD1:9837, V-B:ILE:538:CG2:9835, V-B:ILE:538:CA:9832, H-B:ASP:366:OD2:8187, V-B:GLU:543:CD:9880, H-B:ALA:541:N:9863, V-A:TYR:484:CZ:4347, V-B:GLU:543:CG:9879, V-A:TYR:484:CE1:4345, V-B:PRO:540:C:9853, V-B:ALA:541:CA:9862, V-A:LEU:475:CG:4257, V-B:ILE:538:C:9830, H-B:TYR:539:N:9842, V-B:ILE:538:CB:9834"]

$$$$
2g_Grossjean_2025
     RDKit          3D

 25 26  0  0  0  0  0  0  0  0999 V2000
  123.3950  131.4610   57.5310 C   0  0  0  0  0  0  0  0  0  0  0  0
  124.0330  130.7670   58.7200 C   0  0  0  0  0  0  0  0  0  0  0  0
  123.5220  130.9090   60.0070 C   0  0  0  0  0  0  0  0  0  0  0  0
  124.1530  130.2520   61.0760 C   0  0  0  0  0  0  0  0  0  0  0  0
  123.5780  130.4290   62.4950 C   0  0  0  0  0  0  0  0  0  0  0  0
  123.5750  129.2610   63.1410 F   0  0  0  0  0  0  0  0  0  0  0  0
  124.3220  131.2990   63.1790 F   0  0  0  0  0  0  0  0  0  0  0  0
  122.3240  130.8850   62.4910 F   0  0  0  0  0  0  0  0  0  0  0  0
  125.2930  129.4540   60.8040 C   0  0  0  0  0  0  0  0  0  0  0  0
  126.0220  128.7940   61.8900 C   0  0  0  0  0  0  0  0  0  0  0  0
  126.5960  128.2720   62.7480 N   0  0  0  0  0  0  0  0  0  0  0  0
  125.7220  129.3440   59.4590 C   0  0  0  0  0  0  0  0  0  0  0  0
  127.1160  128.3660   58.9380 S   0  0  0  0  0  0  0  0  0  0  0  0
  126.7500  127.7390   57.2630 C   0  0  0  0  0  0  0  0  0  0  0  0
  126.8130  128.7980   56.1540 C   0  0  0  0  0  0  0  0  0  0  0  0
  126.6910  128.4920   54.9660 O   0  0  0  0  0  0  0  0  0  0  0  0
  127.0150  130.0610   56.5710 N   0  0  0  0  0  0  0  0  0  0  0  0
  127.1020  131.2380   55.7060 C   0  0  0  0  0  0  0  0  0  0  0  0
  128.5230  131.7370   55.4650 C   0  0  0  0  0  0  0  0  0  0  0  0
  129.3120  132.1400   56.5460 C   0  0  0  0  0  0  0  0  0  0  0  0
  130.6230  132.5590   56.3320 C   0  0  0  0  0  0  0  0  0  0  0  0
  131.1430  132.5650   55.0410 C   0  0  0  0  0  0  0  0  0  0  0  0
  130.3660  132.1530   53.9600 C   0  0  0  0  0  0  0  0  0  0  0  0
  129.0560  131.7330   54.1730 C   0  0  0  0  0  0  0  0  0  0  0  0
  125.1140  130.0040   58.4420 N   0  0  0  0  0  0  0  0  0  0  0  0
  1  2  1  0
  2  3  2  0
  3  4  1  0
  4  5  1  0
  5  6  1  0
  5  7  1  0
  5  8  1  0
  4  9  2  0
  9 10  1  0
 10 11  3  0
  9 12  1  0
 12 13  1  0
 13 14  1  0
 14 15  1  0
 15 16  2  0
 15 17  1  0
 17 18  1  0
 18 19  1  0
 19 20  2  0
 20 21  1  0
 21 22  2  0
 22 23  1  0
 23 24  2  0
 12 25  2  0
 25  2  1  0
 24 19  1  0
M  END
>  <Binding energies>  (23) 
[-6.29]

>  <Ligand effiencies>  (23) 
[-0.24192307692307694]

>  <Interactions>  (23) 
["V-B:TYR:531:CE1:9764, V-B:ASP:366:CG:8185, V-B:ARG:545:CZ:9898, V-B:ILE:369:CG2:8209, V-A:ILE:538:CG2:4863, V-A:PRO:540:CD:4887, V-A:TYR:539:CE1:4875, V-A:ILE:538:CB:4862, V-A:TYR:539:CZ:4877, V-A:PRO:540:CA:4883, V-B:GLY:454:CA:9021, V-B:ASP:366:CA:8182, V-A:TYR:539:CE2:4876, V-B:ILE:369:CD1:8211, V-A:TYR:539:C:4867, V-B:ASP:366:C:8180, V-A:PRO:540:N:4884, V-B:ASP:366:CB:8184, V-A:ILE:538:CA:4860, H-B:TYR:531:OH:9767, H-B:LYS:534:NZ:9795, H-B:ARG:545:NH2:9900, V-B:GLY:453:C:9014, V-B:GLY:453:CA:9016, V-B:ILE:369:CB:8208"]

$$$$
2h_Grossjean_2025
     RDKit          3D

 31 32  0  0  0  0  0  0  0  0999 V2000
  131.2760  132.9330   55.4130 C   0  0  0  0  0  0  0  0  0  0  0  0
  129.8890  133.2060   55.5820 O   0  0  0  0  0  0  0  0  0  0  0  0
  129.1020  132.3110   56.2860 C   0  0  0  0  0  0  0  0  0  0  0  0
  129.0710  132.2290   57.6870 C   0  0  0  0  0  0  0  0  0  0  0  0
  128.2460  131.3060   58.3260 C   0  0  0  0  0  0  0  0  0  0  0  0
  127.4360  130.4460   57.5830 C   0  0  0  0  0  0  0  0  0  0  0  0
  126.5240  129.4570   58.3060 C   0  0  0  0  0  0  0  0  0  0  0  0
  125.6480  130.0820   59.2970 N   0  0  0  0  0  0  0  0  0  0  0  0
  124.5260  130.7670   59.0100 C   0  0  0  0  0  0  0  0  0  0  0  0
  124.1590  131.0100   57.8590 O   0  0  0  0  0  0  0  0  0  0  0  0
  123.7050  131.2310   60.2210 C   0  0  0  0  0  0  0  0  0  0  0  0
  123.4860  133.0360   60.3580 S   0  0  0  0  0  0  0  0  0  0  0  0
  125.0950  133.7270   60.6770 C   0  0  0  0  0  0  0  0  0  0  0  0
  125.9670  132.8470   61.2290 N   0  0  0  0  0  0  0  0  0  0  0  0
  127.2140  133.2720   61.5290 C   0  0  0  0  0  0  0  0  0  0  0  0
  128.1320  132.2370   62.1510 C   0  0  0  0  0  0  0  0  0  0  0  0
  127.6420  134.5770   61.2900 C   0  0  0  0  0  0  0  0  0  0  0  0
  126.7610  135.4960   60.7000 C   0  0  0  0  0  0  0  0  0  0  0  0
  127.2550  136.9310   60.4350 C   0  0  0  0  0  0  0  0  0  0  0  0
  126.6950  137.7730   61.3040 F   0  0  0  0  0  0  0  0  0  0  0  0
  128.5790  137.0520   60.5570 F   0  0  0  0  0  0  0  0  0  0  0  0
  126.9300  137.3060   59.1970 F   0  0  0  0  0  0  0  0  0  0  0  0
  125.4500  135.0620   60.3720 C   0  0  0  0  0  0  0  0  0  0  0  0
  124.5120  135.9660   59.7010 C   0  0  0  0  0  0  0  0  0  0  0  0
  123.7730  136.6800   59.1690 N   0  0  0  0  0  0  0  0  0  0  0  0
  127.4740  130.5010   56.1810 C   0  0  0  0  0  0  0  0  0  0  0  0
  126.6820  129.6550   55.4420 O   0  0  0  0  0  0  0  0  0  0  0  0
  125.3100  130.0260   55.3990 C   0  0  0  0  0  0  0  0  0  0  0  0
  128.2930  131.4460   55.5390 C   0  0  0  0  0  0  0  0  0  0  0  0
  128.3190  131.5140   54.1660 O   0  0  0  0  0  0  0  0  0  0  0  0
  129.4400  130.8730   53.5740 C   0  0  0  0  0  0  0  0  0  0  0  0
  1  2  1  0
  2  3  1  0
  3  4  2  0
  4  5  1  0
  5  6  2  0
  6  7  1  0
  7  8  1  0
  8  9  1  0
  9 10  2  0
  9 11  1  0
 11 12  1  0
 12 13  1  0
 13 14  2  0
 14 15  1  0
 15 16  1  0
 15 17  2  0
 17 18  1  0
 18 19  1  0
 19 20  1  0
 19 21  1  0
 19 22  1  0
 18 23  2  0
 23 24  1  0
 24 25  3  0
  6 26  1  0
 26 27  1  0
 27 28  1  0
 26 29  2  0
 29 30  1  0
 30 31  1  0
 29  3  1  0
 23 13  1  0
M  END
>  <Binding energies>  (24) 
[-6.87]

>  <Ligand effiencies>  (24) 
[-0.2146875]

>  <Interactions>  (24) 
["V-B:TYR:531:CE1:9764, V-A:MET:535:CG:4833, V-B:ILE:369:CG2:8209, V-A:ILE:538:CG2:4863, V-A:PRO:540:CD:4887, V-A:TYR:539:CE1:4875, V-A:TYR:539:CD1:4873, V-A:ILE:538:CB:4862, V-A:TYR:539:CZ:4877, V-A:PRO:540:CA:4883, V-B:LEU:475:CD2:9231, V-B:ASP:366:CA:8182, V-A:TYR:539:CE2:4876, V-B:ILE:369:CD1:8211, V-A:TYR:539:C:4867, V-A:MET:535:CE:4835, V-A:ILE:538:C:4858, V-A:PRO:540:N:4884, V-B:ASP:366:CB:8184, V-A:ILE:538:CA:4860, V-A:TYR:539:CA:4869, V-A:TYR:539:CG:4872, V-A:ALA:541:CB:4892, H-A:TYR:539:N:4870, H-B:LYS:534:NZ:9795, V-A:PRO:540:C:4881, V-B:PRO:482:CG:9299, V-A:TYR:539:CB:4871, V-B:PRO:482:CB:9298, V-B:SER:385:CB:8381, V-B:SER:385:CA:8379, H-A:TYR:539:OH:4878, H-B:SER:385:OG:8382, V-B:LEU:475:CG:9229"]

$$$$
2i_Grossjean_2025
     RDKit          3D

 23 24  0  0  0  0  0  0  0  0999 V2000
  130.3760  125.0320   57.2780 C   0  0  0  0  0  0  0  0  0  0  0  0
  128.9160  124.6710   57.4840 C   0  0  0  0  0  0  0  0  0  0  0  0
  128.2230  123.8850   56.5680 C   0  0  0  0  0  0  0  0  0  0  0  0
  126.8750  123.5770   56.8050 C   0  0  0  0  0  0  0  0  0  0  0  0
  126.1220  122.7060   55.7800 C   0  0  0  0  0  0  0  0  0  0  0  0
  125.3490  123.4740   55.0110 F   0  0  0  0  0  0  0  0  0  0  0  0
  126.9910  122.0550   55.0070 F   0  0  0  0  0  0  0  0  0  0  0  0
  125.3360  121.7940   56.3560 F   0  0  0  0  0  0  0  0  0  0  0  0
  126.2610  124.0820   57.9790 C   0  0  0  0  0  0  0  0  0  0  0  0
  124.8550  123.7890   58.2770 C   0  0  0  0  0  0  0  0  0  0  0  0
  123.7460  123.5590   58.5130 N   0  0  0  0  0  0  0  0  0  0  0  0
  127.0400  124.8740   58.8540 C   0  0  0  0  0  0  0  0  0  0  0  0
  126.3720  125.5700   60.3570 S   0  0  0  0  0  0  0  0  0  0  0  0
  125.6380  124.2190   61.3280 C   0  0  0  0  0  0  0  0  0  0  0  0
  126.6810  123.1890   61.7690 C   0  0  0  0  0  0  0  0  0  0  0  0
  126.4130  122.4270   62.7000 O   0  0  0  0  0  0  0  0  0  0  0  0
  127.8540  123.2170   61.1010 N   0  0  0  0  0  0  0  0  0  0  0  0
  128.9530  122.4040   61.3250 C   0  0  0  0  0  0  0  0  0  0  0  0
  129.8270  121.7960   60.4130 C   0  0  0  0  0  0  0  0  0  0  0  0
  130.7280  121.1110   61.1950 C   0  0  0  0  0  0  0  0  0  0  0  0
  130.4180  121.3030   62.5000 O   0  0  0  0  0  0  0  0  0  0  0  0
  129.2940  122.1290   62.5650 N   0  0  0  0  0  0  0  0  0  0  0  0
  128.3440  125.1590   58.6070 N   0  0  0  0  0  0  0  0  0  0  0  0
  1  2  1  0
  2  3  2  0
  3  4  1  0
  4  5  1  0
  5  6  1  0
  5  7  1  0
  5  8  1  0
  4  9  2  0
  9 10  1  0
 10 11  3  0
  9 12  1  0
 12 13  1  0
 13 14  1  0
 14 15  1  0
 15 16  2  0
 15 17  1  0
 17 18  1  0
 18 19  1  0
 19 20  2  0
 20 21  1  0
 21 22  1  0
 12 23  2  0
 23  2  1  0
 22 18  2  0
M  END
>  <Binding energies>  (25) 
[-6.67]

>  <Ligand effiencies>  (25) 
[-0.27791666666666665]

>  <Interactions>  (25) 
["V-B:TYR:539:CZ:9849, V-B:TYR:539:C:9839, V-B:PRO:540:N:9856, V-B:PRO:540:CD:9859, H-A:TYR:484:OH:4348, V-B:PRO:540:CB:9857, V-B:TYR:539:CG:9844, V-B:PRO:540:CA:9855, V-A:LEU:475:CD2:4259, V-B:TYR:539:CE2:9848, V-B:TYR:539:CD2:9846, V-B:MET:535:CE:9807, V-B:TYR:539:CA:9841, V-B:TYR:531:CZ:9766, V-B:TYR:531:CE2:9765, V-B:TYR:539:CE1:9847, V-B:TYR:539:CD1:9845, V-B:ILE:538:CD1:9837, V-B:ILE:538:CG2:9835, V-B:ILE:538:CA:9832, V-B:GLU:543:CD:9880, H-B:ALA:541:N:9863, V-B:PRO:540:C:9853, V-B:ILE:538:C:9830, V-B:VAL:537:C:9822, V-B:ILE:538:CB:9834, V-B:MET:535:CG:9805, V-B:PRO:540:CG:9858"]

$$$$
2k_Grossjean_2025
     RDKit          3D

 28 28  0  0  0  0  0  0  0  0999 V2000
  132.2460  131.3960   61.0810 C   0  0  0  0  0  0  0  0  0  0  0  0
  131.0280  131.9960   60.6680 O   0  0  0  0  0  0  0  0  0  0  0  0
  130.3570  131.2700   59.6460 C   0  0  0  0  0  0  0  0  0  0  0  0
  129.2780  132.1530   59.0070 C   0  0  0  0  0  0  0  0  0  0  0  0
  129.5630  132.3050   57.6240 O   0  0  0  0  0  0  0  0  0  0  0  0
  130.8000  131.7330   57.2160 C   0  0  0  0  0  0  0  0  0  0  0  0
  131.3380  132.5390   56.0260 C   0  0  0  0  0  0  0  0  0  0  0  0
  130.2260  132.9990   55.2750 O   0  0  0  0  0  0  0  0  0  0  0  0
  130.1460  132.5030   53.9470 C   0  0  0  0  0  0  0  0  0  0  0  0
  129.0150  131.4600   53.8710 C   0  0  0  0  0  0  0  0  0  0  0  0
  128.2570  131.3460   55.1200 N   0  0  0  0  0  0  0  0  0  0  0  0
  127.3740  130.3720   55.4150 C   0  0  0  0  0  0  0  0  0  0  0  0
  127.1240  129.4330   54.6570 O   0  0  0  0  0  0  0  0  0  0  0  0
  126.6620  130.5070   56.7680 C   0  0  0  0  0  0  0  0  0  0  0  0
  125.7860  129.0110   57.3440 S   0  0  0  0  0  0  0  0  0  0  0  0
  125.5750  129.0920   59.1170 C   0  0  0  0  0  0  0  0  0  0  0  0
  126.4130  128.3120   59.8470 N   0  0  0  0  0  0  0  0  0  0  0  0
  126.3060  128.3210   61.1940 C   0  0  0  0  0  0  0  0  0  0  0  0
  127.2700  127.4150   61.9360 C   0  0  0  0  0  0  0  0  0  0  0  0
  125.3770  129.1070   61.8690 C   0  0  0  0  0  0  0  0  0  0  0  0
  124.5060  129.9270   61.1360 C   0  0  0  0  0  0  0  0  0  0  0  0
  123.4870  130.7950   61.9000 C   0  0  0  0  0  0  0  0  0  0  0  0
  123.4850  132.0660   61.4940 F   0  0  0  0  0  0  0  0  0  0  0  0
  122.2540  130.3160   61.7220 F   0  0  0  0  0  0  0  0  0  0  0  0
  123.7680  130.7900   63.2030 F   0  0  0  0  0  0  0  0  0  0  0  0
  124.6010  129.9230   59.7210 C   0  0  0  0  0  0  0  0  0  0  0  0
  123.7130  130.7570   58.9050 C   0  0  0  0  0  0  0  0  0  0  0  0
  123.0120  131.4160   58.2620 N   0  0  0  0  0  0  0  0  0  0  0  0
  1  2  1  0
  2  3  1  0
  3  4  1  0
  4  5  1  0
  5  6  1  0
  6  7  1  0
  7  8  1  0
  8  9  1  0
  9 10  1  0
 10 11  1  0
 11 12  1  0
 12 13  2  0
 12 14  1  0
 14 15  1  0
 15 16  1  0
 16 17  2  0
 17 18  1  0
 18 19  1  0
 18 20  2  0
 20 21  1  0
 21 22  1  0
 22 23  1  0
 22 24  1  0
 22 25  1  0
 21 26  2  0
 26 27  1  0
 27 28  3  0
 26 16  1  0
M  END
>  <Binding energies>  (26) 
[-5.7]

>  <Ligand effiencies>  (26) 
[-0.19655172413793104]

>  <Interactions>  (26) 
["V-B:ASP:366:CG:8185, V-A:ILE:538:CG2:4863, V-A:PRO:540:CB:4885, V-A:PRO:540:CD:4887, V-A:TYR:539:CE1:4875, V-A:ILE:538:CB:4862, V-A:TYR:539:CZ:4877, V-A:PRO:540:CA:4883, V-B:GLY:454:CA:9021, V-B:ASP:366:CA:8182, V-A:TYR:539:CE2:4876, V-B:ILE:369:CD1:8211, V-A:TYR:539:C:4867, V-B:ASP:366:C:8180, V-A:PRO:540:N:4884, V-B:ASP:366:CB:8184, V-A:ILE:538:CA:4860, H-B:TYR:531:OH:9767, H-A:TYR:539:N:4870, H-A:ALA:541:N:4891, H-B:LYS:534:NZ:9795, V-B:GLY:453:C:9014, V-B:GLY:453:CA:9016, H-A:TYR:539:OH:4878"]

$$$$
3aa_Grossjean_2025
     RDKit          3D

 34 36  0  0  0  0  0  0  0  0999 V2000
  128.7220  132.1770   53.9820 C   0  0  0  0  0  0  0  0  0  0  0  0
  130.2400  132.2650   54.1600 C   0  0  0  0  0  0  0  0  0  0  0  0
  130.5370  132.9410   55.3750 O   0  0  0  0  0  0  0  0  0  0  0  0
  131.5720  132.5450   56.1600 C   0  0  0  0  0  0  0  0  0  0  0  0
  132.7460  132.8670   55.9520 O   0  0  0  0  0  0  0  0  0  0  0  0
  131.1490  131.6620   57.3000 C   0  0  0  0  0  0  0  0  0  0  0  0
  131.8290  130.4760   57.6130 C   0  0  0  0  0  0  0  0  0  0  0  0
  131.4130  129.6830   58.6790 C   0  0  0  0  0  0  0  0  0  0  0  0
  130.3180  130.0610   59.4570 C   0  0  0  0  0  0  0  0  0  0  0  0
  129.9830  129.1910   60.5140 N   0  0  0  0  0  0  0  0  0  0  0  0
  129.0450  128.2200   60.5640 C   0  0  0  0  0  0  0  0  0  0  0  0
  128.2670  127.9300   59.6550 O   0  0  0  0  0  0  0  0  0  0  0  0
  128.9670  127.4470   61.8820 C   0  0  0  0  0  0  0  0  0  0  0  0
  130.5580  126.6750   62.3070 S   0  0  0  0  0  0  0  0  0  0  0  0
  130.6130  125.1040   61.4760 C   0  0  0  0  0  0  0  0  0  0  0  0
  129.5090  124.8410   60.7370 N   0  0  0  0  0  0  0  0  0  0  0  0
  129.4200  123.6720   60.0510 C   0  0  0  0  0  0  0  0  0  0  0  0
  128.1740  123.4620   59.2450 C   0  0  0  0  0  0  0  0  0  0  0  0
  128.2440  122.9340   57.9450 C   0  0  0  0  0  0  0  0  0  0  0  0
  127.0910  122.7350   57.1910 C   0  0  0  0  0  0  0  0  0  0  0  0
  125.8500  123.0620   57.7270 C   0  0  0  0  0  0  0  0  0  0  0  0
  125.7540  123.5830   59.0130 C   0  0  0  0  0  0  0  0  0  0  0  0
  126.9080  123.7790   59.7660 C   0  0  0  0  0  0  0  0  0  0  0  0
  130.4580  122.7360   60.0900 C   0  0  0  0  0  0  0  0  0  0  0  0
  131.6050  122.9780   60.8630 C   0  0  0  0  0  0  0  0  0  0  0  0
  132.7210  121.9170   60.8890 C   0  0  0  0  0  0  0  0  0  0  0  0
  132.3550  120.7660   60.3220 F   0  0  0  0  0  0  0  0  0  0  0  0
  133.7930  122.3610   60.2330 F   0  0  0  0  0  0  0  0  0  0  0  0
  133.0660  121.6520   62.1500 F   0  0  0  0  0  0  0  0  0  0  0  0
  131.6850  124.1910   61.5900 C   0  0  0  0  0  0  0  0  0  0  0  0
  132.8310  124.4720   62.4580 C   0  0  0  0  0  0  0  0  0  0  0  0
  133.7370  124.6930   63.1450 N   0  0  0  0  0  0  0  0  0  0  0  0
  129.6250  131.2400   59.1420 C   0  0  0  0  0  0  0  0  0  0  0  0
  130.0400  132.0290   58.0740 C   0  0  0  0  0  0  0  0  0  0  0  0
  1  2  1  0
  2  3  1  0
  3  4  1  0
  4  5  2  0
  4  6  1  0
  6  7  2  0
  7  8  1  0
  8  9  2  0
  9 10  1  0
 10 11  1  0
 11 12  2  0
 11 13  1  0
 13 14  1  0
 14 15  1  0
 15 16  2  0
 16 17  1  0
 17 18  1  0
 18 19  2  0
 19 20  1  0
 20 21  2  0
 21 22  1  0
 22 23  2  0
 17 24  2  0
 24 25  1  0
 25 26  1  0
 26 27  1  0
 26 28  1  0
 26 29  1  0
 25 30  2  0
 30 31  1  0
 31 32  3  0
  9 33  1  0
 33 34  2  0
 34  6  1  0
 30 15  1  0
 23 18  1  0
M  END
>  <Binding energies>  (27) 
[-8.38]

>  <Ligand effiencies>  (27) 
[-0.23942857142857146]

>  <Interactions>  (27) 
["V-B:TYR:539:CZ:9849, V-B:TYR:539:C:9839, V-B:PRO:540:N:9856, V-B:PRO:540:CD:9859, H-A:TYR:484:OH:4348, V-B:PRO:540:CB:9857, V-B:TYR:539:CG:9844, V-B:PRO:540:CA:9855, V-A:LEU:475:CD2:4259, H-A:GLY:454:N:4050, V-B:TYR:539:CE2:9848, V-B:TYR:539:CD2:9846, V-A:ILE:538:CG2:4863, V-A:PRO:540:CB:4885, V-A:PRO:540:CD:4887, V-A:ILE:538:CB:4862, V-A:PRO:540:CA:4883, V-A:TYR:539:CE2:4876, V-A:TYR:539:CD2:4874, V-A:TYR:539:C:4867, V-A:PRO:540:N:4884, V-A:ILE:538:CA:4860, V-A:ASP:366:CG:3213, H-A:GLU:543:OE1:4909, V-A:ILE:369:CG2:3237, H-A:TYR:539:N:4870, V-A:GLY:454:CA:4049, V-A:ILE:369:CD1:3239, H-A:ARG:545:NH2:4928, V-A:ILE:369:CB:3236, H-A:ASP:366:OD1:3214, V-A:ILE:369:CG1:3238"]

$$$$
3ad_Grossjean_2025
     RDKit          3D

 29 31  0  0  0  0  0  0  0  0999 V2000
  130.3890  125.2040   62.4070 N   0  0  0  0  0  0  0  0  0  0  0  0
  130.5220  124.1130   62.0460 C   0  0  0  0  0  0  0  0  0  0  0  0
  130.6950  122.7310   61.5880 C   0  0  0  0  0  0  0  0  0  0  0  0
  131.9250  122.3000   61.0340 C   0  0  0  0  0  0  0  0  0  0  0  0
  133.1540  123.2210   60.9190 C   0  0  0  0  0  0  0  0  0  0  0  0
  134.2200  122.6020   60.4080 F   0  0  0  0  0  0  0  0  0  0  0  0
  132.8730  124.2580   60.1270 F   0  0  0  0  0  0  0  0  0  0  0  0
  133.4990  123.6790   62.1240 F   0  0  0  0  0  0  0  0  0  0  0  0
  132.0230  120.9800   60.5680 C   0  0  0  0  0  0  0  0  0  0  0  0
  130.9260  120.1170   60.6490 C   0  0  0  0  0  0  0  0  0  0  0  0
  130.9720  118.7030   60.1520 C   0  0  0  0  0  0  0  0  0  0  0  0
  131.8870  118.3210   59.1580 C   0  0  0  0  0  0  0  0  0  0  0  0
  131.9360  117.0100   58.6930 C   0  0  0  0  0  0  0  0  0  0  0  0
  131.0660  116.0590   59.2180 C   0  0  0  0  0  0  0  0  0  0  0  0
  130.1520  116.4110   60.2050 C   0  0  0  0  0  0  0  0  0  0  0  0
  130.1070  117.7230   60.6680 C   0  0  0  0  0  0  0  0  0  0  0  0
  129.7470  120.5370   61.1750 N   0  0  0  0  0  0  0  0  0  0  0  0
  129.6340  121.8000   61.6500 C   0  0  0  0  0  0  0  0  0  0  0  0
  128.0260  122.1710   62.3140 S   0  0  0  0  0  0  0  0  0  0  0  0
  127.3760  123.5940   61.3880 C   0  0  0  0  0  0  0  0  0  0  0  0
  127.6410  123.4760   59.8850 C   0  0  0  0  0  0  0  0  0  0  0  0
  128.7850  123.6490   59.4640 O   0  0  0  0  0  0  0  0  0  0  0  0
  126.5620  123.1830   59.1280 N   0  0  0  0  0  0  0  0  0  0  0  0
  126.4620  122.9930   57.7370 C   0  0  0  0  0  0  0  0  0  0  0  0
  125.1620  122.8790   57.2340 C   0  0  0  0  0  0  0  0  0  0  0  0
  124.9510  122.6850   55.8710 C   0  0  0  0  0  0  0  0  0  0  0  0
  126.0400  122.6000   55.0090 C   0  0  0  0  0  0  0  0  0  0  0  0
  127.3390  122.7040   55.4980 C   0  0  0  0  0  0  0  0  0  0  0  0
  127.5560  122.8980   56.8600 C   0  0  0  0  0  0  0  0  0  0  0  0
  1  2  3  0
  2  3  1  0
  3  4  2  0
  4  5  1  0
  5  6  1  0
  5  7  1  0
  5  8  1  0
  4  9  1  0
  9 10  2  0
 10 11  1  0
 11 12  2  0
 12 13  1  0
 13 14  2  0
 14 15  1  0
 15 16  2  0
 10 17  1  0
 17 18  2  0
 18 19  1  0
 19 20  1  0
 20 21  1  0
 21 22  2  0
 21 23  1  0
 23 24  1  0
 24 25  2  0
 25 26  1  0
 26 27  2  0
 27 28  1  0
 28 29  2  0
 18  3  1  0
 29 24  1  0
 16 11  1  0
M  END
>  <Binding energies>  (28) 
[-8.87]

>  <Ligand effiencies>  (28) 
[-0.29566666666666663]

>  <Interactions>  (28) 
["V-A:HIS:383:CE1:3394, V-B:TYR:539:CZ:9849, V-B:TYR:539:C:9839, V-B:PRO:540:N:9856, V-B:PRO:540:CD:9859, H-A:TYR:484:OH:4348, V-B:PRO:540:CB:9857, V-A:PRO:482:CB:4326, V-B:TYR:539:CG:9844, V-B:PRO:540:CA:9855, V-A:LEU:475:CD2:4259, V-B:ALA:541:CB:9864, V-B:LEU:363:CD1:8161, V-B:TYR:539:CE2:9848, V-B:TYR:539:CD2:9846, V-A:PRO:482:CG:4327, V-A:SER:385:CB:3409, V-B:MET:535:CE:9807, V-B:TYR:531:CZ:9766, V-B:TYR:531:CE2:9765, V-B:TYR:539:CE1:9847, V-A:ASP:366:CG:3213, V-B:TYR:539:CD1:9845, V-B:ILE:538:CD1:9837, V-B:ILE:538:CG2:9835, V-B:ILE:538:CA:9832, V-A:ILE:369:CG2:3237, H-B:ASP:366:OD2:8187, V-B:GLU:543:CD:9880, H-B:ALA:541:N:9863, V-A:GLY:454:CA:4049, V-A:ILE:369:CD1:3239, V-B:ILE:538:C:9830, V-B:ILE:538:CB:9834, V-B:TYR:539:CB:9843, V-A:ILE:369:CB:3236, V-A:LEU:373:CD1:3280, V-A:ILE:369:CG1:3238, V-B:VAL:344:CG1:7973, V-A:LEU:373:CD2:3281"]

$$$$
3ai_Grossjean_2025
     RDKit          3D

 28 30  0  0  0  0  0  0  0  0999 V2000
  130.3830  125.3400   62.0750 N   0  0  0  0  0  0  0  0  0  0  0  0
  130.5240  124.2290   61.7820 C   0  0  0  0  0  0  0  0  0  0  0  0
  130.7050  122.8230   61.4120 C   0  0  0  0  0  0  0  0  0  0  0  0
  131.9340  122.3680   60.8740 C   0  0  0  0  0  0  0  0  0  0  0  0
  133.1530  123.2920   60.6890 C   0  0  0  0  0  0  0  0  0  0  0  0
  133.4430  123.9920   61.7870 F   0  0  0  0  0  0  0  0  0  0  0  0
  134.2300  122.5680   60.3770 F   0  0  0  0  0  0  0  0  0  0  0  0
  132.9220  124.1660   59.7090 F   0  0  0  0  0  0  0  0  0  0  0  0
  132.0410  121.0230   60.4900 C   0  0  0  0  0  0  0  0  0  0  0  0
  130.9530  120.1560   60.6360 C   0  0  0  0  0  0  0  0  0  0  0  0
  131.0080  118.7140   60.2330 C   0  0  0  0  0  0  0  0  0  0  0  0
  131.7760  118.3070   59.1300 C   0  0  0  0  0  0  0  0  0  0  0  0
  131.8350  116.9680   58.7530 C   0  0  0  0  0  0  0  0  0  0  0  0
  131.1260  116.0150   59.4760 C   0  0  0  0  0  0  0  0  0  0  0  0
  130.3590  116.3920   60.5740 C   0  0  0  0  0  0  0  0  0  0  0  0
  130.3030  117.7310   60.9490 C   0  0  0  0  0  0  0  0  0  0  0  0
  129.7740  120.5990   61.1440 N   0  0  0  0  0  0  0  0  0  0  0  0
  129.6540  121.8870   61.5440 C   0  0  0  0  0  0  0  0  0  0  0  0
  128.0470  122.2780   62.2040 S   0  0  0  0  0  0  0  0  0  0  0  0
  127.4300  123.7590   61.3340 C   0  0  0  0  0  0  0  0  0  0  0  0
  126.5090  123.4730   60.1390 C   0  0  0  0  0  0  0  0  0  0  0  0
  125.2830  123.5500   60.2550 O   0  0  0  0  0  0  0  0  0  0  0  0
  127.1530  123.1430   58.9970 N   0  0  0  0  0  0  0  0  0  0  0  0
  126.5840  122.8400   57.7670 C   0  0  0  0  0  0  0  0  0  0  0  0
  125.3440  123.3320   57.3600 C   0  0  0  0  0  0  0  0  0  0  0  0
  125.1440  122.8060   56.1050 C   0  0  0  0  0  0  0  0  0  0  0  0
  126.2090  122.0370   55.7720 O   0  0  0  0  0  0  0  0  0  0  0  0
  127.1150  122.0680   56.8340 N   0  0  0  0  0  0  0  0  0  0  0  0
  1  2  3  0
  2  3  1  0
  3  4  2  0
  4  5  1  0
  5  6  1  0
  5  7  1  0
  5  8  1  0
  4  9  1  0
  9 10  2  0
 10 11  1  0
 11 12  2  0
 12 13  1  0
 13 14  2  0
 14 15  1  0
 15 16  2  0
 10 17  1  0
 17 18  2  0
 18 19  1  0
 19 20  1  0
 20 21  1  0
 21 22  2  0
 21 23  1  0
 23 24  1  0
 24 25  1  0
 25 26  2  0
 26 27  1  0
 27 28  1  0
 18  3  1  0
 28 24  2  0
 16 11  1  0
M  END
>  <Binding energies>  (29) 
[-9.06]

>  <Ligand effiencies>  (29) 
[-0.3124137931034483]

>  <Interactions>  (29) 
["V-A:HIS:383:CE1:3394, V-B:TYR:539:C:9839, V-B:PRO:540:N:9856, V-A:LEU:475:CD1:4258, V-B:PRO:540:CD:9859, H-A:TYR:484:OH:4348, V-B:PRO:540:CB:9857, V-A:PRO:482:CB:4326, V-B:TYR:539:CG:9844, V-B:PRO:540:CA:9855, V-A:LEU:475:CD2:4259, V-B:LEU:363:CD1:8161, V-B:TYR:539:CE2:9848, V-B:TYR:539:CD2:9846, V-A:PRO:482:CG:4327, V-A:SER:385:CB:3409, V-B:TYR:531:CZ:9766, V-B:TYR:531:CE2:9765, V-A:ASP:366:CG:3213, V-B:ILE:538:CD1:9837, V-B:ILE:538:CG2:9835, V-A:ILE:369:CG2:3237, V-B:GLU:543:CD:9880, H-B:ALA:541:N:9863, V-A:ILE:369:CD1:3239, V-A:LEU:475:CG:4257, H-B:TYR:539:N:9842, V-B:TYR:539:CB:9843, V-A:ILE:369:CB:3236, V-A:LEU:373:CD1:3280, V-A:ILE:369:CG1:3238, H-B:TYR:539:O:9840, V-A:LEU:373:CD2:3281"]

$$$$
3aj_Grossjean_2025
     RDKit          3D

 28 30  0  0  0  0  0  0  0  0999 V2000
  130.3820  125.2900   62.1920 N   0  0  0  0  0  0  0  0  0  0  0  0
  130.5120  124.1860   61.8720 C   0  0  0  0  0  0  0  0  0  0  0  0
  130.6790  122.7870   61.4670 C   0  0  0  0  0  0  0  0  0  0  0  0
  131.9440  122.2980   61.0570 C   0  0  0  0  0  0  0  0  0  0  0  0
  133.2120  123.1740   61.0510 C   0  0  0  0  0  0  0  0  0  0  0  0
  133.1580  124.1560   60.1480 F   0  0  0  0  0  0  0  0  0  0  0  0
  133.3830  123.7370   62.2480 F   0  0  0  0  0  0  0  0  0  0  0  0
  134.2800  122.4290   60.7680 F   0  0  0  0  0  0  0  0  0  0  0  0
  132.0410  120.9640   60.6330 C   0  0  0  0  0  0  0  0  0  0  0  0
  130.9090  120.1430   60.6150 C   0  0  0  0  0  0  0  0  0  0  0  0
  130.9550  118.7150   60.1630 C   0  0  0  0  0  0  0  0  0  0  0  0
  131.8550  118.3090   59.1660 C   0  0  0  0  0  0  0  0  0  0  0  0
  131.9060  116.9820   58.7440 C   0  0  0  0  0  0  0  0  0  0  0  0
  131.0540  116.0430   59.3160 C   0  0  0  0  0  0  0  0  0  0  0  0
  130.1550  116.4200   60.3070 C   0  0  0  0  0  0  0  0  0  0  0  0
  130.1080  117.7460   60.7270 C   0  0  0  0  0  0  0  0  0  0  0  0
  129.6980  120.6180   61.0020 N   0  0  0  0  0  0  0  0  0  0  0  0
  129.5820  121.8950   61.4380 C   0  0  0  0  0  0  0  0  0  0  0  0
  127.9270  122.3330   61.9240 S   0  0  0  0  0  0  0  0  0  0  0  0
  127.5650  123.9890   61.2470 C   0  0  0  0  0  0  0  0  0  0  0  0
  127.4150  124.0480   59.7200 C   0  0  0  0  0  0  0  0  0  0  0  0
  128.0070  124.9060   59.0600 O   0  0  0  0  0  0  0  0  0  0  0  0
  126.6040  123.1020   59.1960 N   0  0  0  0  0  0  0  0  0  0  0  0
  126.2990  122.9230   57.8530 C   0  0  0  0  0  0  0  0  0  0  0  0
  127.0890  122.4830   56.8970 N   0  0  0  0  0  0  0  0  0  0  0  0
  126.4660  122.4350   55.7360 C   0  0  0  0  0  0  0  0  0  0  0  0
  125.1350  122.8460   55.7340 C   0  0  0  0  0  0  0  0  0  0  0  0
  124.6880  123.3180   57.3450 S   0  0  0  0  0  0  0  0  0  0  0  0
  1  2  3  0
  2  3  1  0
  3  4  2  0
  4  5  1  0
  5  6  1  0
  5  7  1  0
  5  8  1  0
  4  9  1  0
  9 10  2  0
 10 11  1  0
 11 12  2  0
 12 13  1  0
 13 14  2  0
 14 15  1  0
 15 16  2  0
 10 17  1  0
 17 18  2  0
 18 19  1  0
 19 20  1  0
 20 21  1  0
 21 22  2  0
 21 23  1  0
 23 24  1  0
 24 25  2  0
 25 26  1  0
 26 27  2  0
 27 28  1  0
 18  3  1  0
 28 24  1  0
 16 11  1  0
M  END
>  <Binding energies>  (30) 
[-8.11]

>  <Ligand effiencies>  (30) 
[-0.27965517241379306]

>  <Interactions>  (30) 
["V-A:HIS:383:CE1:3394, V-B:TYR:539:C:9839, V-B:PRO:540:N:9856, V-B:PRO:540:CD:9859, H-A:TYR:484:OH:4348, V-B:PRO:540:CB:9857, V-A:PRO:482:CB:4326, V-B:TYR:539:CG:9844, V-B:PRO:540:CA:9855, V-A:LEU:475:CD2:4259, V-B:LEU:363:CD1:8161, V-B:TYR:539:CE2:9848, V-B:TYR:539:CD2:9846, V-A:PRO:482:CG:4327, V-A:SER:385:CB:3409, V-B:TYR:531:CZ:9766, V-B:TYR:531:CE2:9765, V-A:ASP:366:CG:3213, V-B:ILE:538:CD1:9837, V-B:ILE:538:CG2:9835, V-B:ILE:538:CA:9832, V-A:ILE:369:CG2:3237, H-B:ALA:541:N:9863, V-A:GLY:454:CA:4049, V-A:ILE:369:CD1:3239, V-B:ILE:538:C:9830, H-B:TYR:539:N:9842, V-B:TYR:539:CB:9843, V-A:ILE:369:CB:3236, V-A:LEU:373:CD1:3280, V-A:ILE:369:CG1:3238, V-B:VAL:344:CG1:7973, H-B:TYR:539:O:9840, V-A:LEU:373:CD2:3281"]

$$$$
3ak_Grossjean_2025
     RDKit          3D

 33 34  0  0  0  0  0  0  0  0999 V2000
  131.9470  132.3910   55.4280 C   0  0  0  0  0  0  0  0  0  0  0  0
  130.8030  133.2310   55.3970 O   0  0  0  0  0  0  0  0  0  0  0  0
  129.5780  132.5210   55.5130 C   0  0  0  0  0  0  0  0  0  0  0  0
  129.0510  132.2010   54.1090 C   0  0  0  0  0  0  0  0  0  0  0  0
  127.8630  131.4250   54.2260 O   0  0  0  0  0  0  0  0  0  0  0  0
  127.6060  130.8870   55.5200 C   0  0  0  0  0  0  0  0  0  0  0  0
  126.2290  130.2080   55.6470 C   0  0  0  0  0  0  0  0  0  0  0  0
  126.3590  128.8270   55.3390 O   0  0  0  0  0  0  0  0  0  0  0  0
  127.6940  128.3430   55.4120 C   0  0  0  0  0  0  0  0  0  0  0  0
  128.0290  127.9270   56.8560 C   0  0  0  0  0  0  0  0  0  0  0  0
  129.1230  126.9580   56.9470 N   0  0  0  0  0  0  0  0  0  0  0  0
  130.2550  126.9730   56.2180 C   0  0  0  0  0  0  0  0  0  0  0  0
  130.4990  127.8460   55.3840 O   0  0  0  0  0  0  0  0  0  0  0  0
  131.2900  125.8560   56.4330 C   0  0  0  0  0  0  0  0  0  0  0  0
  131.6890  125.4340   58.1690 S   0  0  0  0  0  0  0  0  0  0  0  0
  130.4630  124.2850   58.7760 C   0  0  0  0  0  0  0  0  0  0  0  0
  129.3820  124.1060   57.9770 N   0  0  0  0  0  0  0  0  0  0  0  0
  128.3930  123.2570   58.3550 C   0  0  0  0  0  0  0  0  0  0  0  0
  127.2350  123.1180   57.4120 C   0  0  0  0  0  0  0  0  0  0  0  0
  125.9140  123.1920   57.8810 C   0  0  0  0  0  0  0  0  0  0  0  0
  124.8360  123.0680   57.0090 C   0  0  0  0  0  0  0  0  0  0  0  0
  125.0650  122.8700   55.6520 C   0  0  0  0  0  0  0  0  0  0  0  0
  126.3630  122.7960   55.1610 C   0  0  0  0  0  0  0  0  0  0  0  0
  127.4390  122.9210   56.0350 C   0  0  0  0  0  0  0  0  0  0  0  0
  128.4790  122.5460   59.5570 C   0  0  0  0  0  0  0  0  0  0  0  0
  129.5870  122.7110   60.4010 C   0  0  0  0  0  0  0  0  0  0  0  0
  129.6450  121.9130   61.7180 C   0  0  0  0  0  0  0  0  0  0  0  0
  130.8590  121.3880   61.8800 F   0  0  0  0  0  0  0  0  0  0  0  0
  129.3780  122.7140   62.7500 F   0  0  0  0  0  0  0  0  0  0  0  0
  128.7660  120.9080   61.7540 F   0  0  0  0  0  0  0  0  0  0  0  0
  130.6100  123.6060   60.0050 C   0  0  0  0  0  0  0  0  0  0  0  0
  131.7920  123.8190   60.8470 C   0  0  0  0  0  0  0  0  0  0  0  0
  132.7250  123.9890   61.5120 N   0  0  0  0  0  0  0  0  0  0  0  0
  1  2  1  0
  2  3  1  0
  3  4  1  0
  4  5  1  0
  5  6  1  0
  6  7  1  0
  7  8  1  0
  8  9  1  0
  9 10  1  0
 10 11  1  0
 11 12  1  0
 12 13  2  0
 12 14  1  0
 14 15  1  0
 15 16  1  0
 16 17  2  0
 17 18  1  0
 18 19  1  0
 19 20  2  0
 20 21  1  0
 21 22  2  0
 22 23  1  0
 23 24  2  0
 18 25  2  0
 25 26  1  0
 26 27  1  0
 27 28  1  0
 27 29  1  0
 27 30  1  0
 26 31  2  0
 31 32  1  0
 32 33  3  0
 31 16  1  0
 24 19  1  0
M  END
>  <Binding energies>  (31) 
[-7.91]

>  <Ligand effiencies>  (31) 
[-0.23264705882352943]

>  <Interactions>  (31) 
["V-B:TYR:539:CZ:9849, V-B:TYR:539:C:9839, V-B:PRO:540:N:9856, V-B:PRO:540:CD:9859, H-A:TYR:484:OH:4348, V-B:PRO:540:CB:9857, V-B:TYR:539:CG:9844, V-B:PRO:540:CA:9855, V-A:LEU:475:CD2:4259, V-B:ALA:541:CB:9864, V-B:LEU:363:CD1:8161, V-B:TYR:539:CE2:9848, V-B:TYR:539:CD2:9846, V-B:TYR:531:CE1:9764, V-A:ILE:538:CG2:4863, V-A:PRO:540:CD:4887, V-A:ILE:538:CB:4862, V-A:TYR:539:CZ:4877, V-A:LEU:363:CD1:3189, V-A:TYR:539:CE2:4876, V-A:TYR:539:CD2:4874, V-A:ILE:538:CA:4860, V-B:MET:535:CE:9807, V-B:TYR:531:CZ:9766, H-B:TYR:531:OH:9767, V-B:TYR:531:CE2:9765, V-B:TYR:539:CE1:9847, V-B:TYR:539:CD1:9845, V-B:ILE:538:CD1:9837, V-B:ILE:538:CG2:9835, V-B:ILE:538:CA:9832, H-A:TYR:531:OH:4795, H-B:TYR:539:OH:9850, H-A:TYR:539:N:4870, H-B:LYS:534:NZ:9795, V-B:GLU:543:CD:9880, V-A:TYR:484:CZ:4347, V-A:TYR:484:CE1:4345, V-B:PRO:540:C:9853, V-B:ALA:541:CA:9862"]

$$$$
3bk_Grossjean_2025
     RDKit          3D

 30 31  0  0  0  0  0  0  0  0999 V2000
  124.8740  122.8510   56.4440 C   0  0  0  0  0  0  0  0  0  0  0  0
  126.0060  122.0590   56.1200 O   0  0  0  0  0  0  0  0  0  0  0  0
  127.2390  122.7530   56.2500 C   0  0  0  0  0  0  0  0  0  0  0  0
  127.7470  122.6360   57.6940 C   0  0  0  0  0  0  0  0  0  0  0  0
  128.2930  123.8820   58.1030 O   0  0  0  0  0  0  0  0  0  0  0  0
  127.5200  124.5510   59.0920 C   0  0  0  0  0  0  0  0  0  0  0  0
  126.3900  125.3320   58.4090 C   0  0  0  0  0  0  0  0  0  0  0  0
  126.8350  126.6500   58.1210 O   0  0  0  0  0  0  0  0  0  0  0  0
  128.0610  126.6990   57.4010 C   0  0  0  0  0  0  0  0  0  0  0  0
  128.2210  128.0850   56.7600 C   0  0  0  0  0  0  0  0  0  0  0  0
  126.9930  128.8780   56.8310 N   0  0  0  0  0  0  0  0  0  0  0  0
  126.1940  129.1750   55.7920 C   0  0  0  0  0  0  0  0  0  0  0  0
  126.3990  128.7900   54.6390 O   0  0  0  0  0  0  0  0  0  0  0  0
  124.9550  130.0180   56.1020 C   0  0  0  0  0  0  0  0  0  0  0  0
  124.7250  130.2560   57.8930 S   0  0  0  0  0  0  0  0  0  0  0  0
  126.0380  131.2920   58.5150 C   0  0  0  0  0  0  0  0  0  0  0  0
  127.1540  131.3610   57.7460 N   0  0  0  0  0  0  0  0  0  0  0  0
  128.2070  132.1230   58.1420 C   0  0  0  0  0  0  0  0  0  0  0  0
  129.3920  132.1600   57.2240 C   0  0  0  0  0  0  0  0  0  0  0  0
  130.6770  131.8540   57.6980 C   0  0  0  0  0  0  0  0  0  0  0  0
  131.7820  131.8920   56.8510 C   0  0  0  0  0  0  0  0  0  0  0  0
  131.6150  132.2370   55.5140 C   0  0  0  0  0  0  0  0  0  0  0  0
  130.3510  132.5410   55.0180 C   0  0  0  0  0  0  0  0  0  0  0  0
  129.2490  132.5000   55.8680 C   0  0  0  0  0  0  0  0  0  0  0  0
  128.1570  132.8500   59.3380 C   0  0  0  0  0  0  0  0  0  0  0  0
  127.0150  132.7890   60.1440 C   0  0  0  0  0  0  0  0  0  0  0  0
  127.0020  133.5970   61.4410 C   0  0  0  0  0  0  0  0  0  0  0  0
  125.9230  131.9950   59.7340 C   0  0  0  0  0  0  0  0  0  0  0  0
  124.7130  131.9150   60.5560 C   0  0  0  0  0  0  0  0  0  0  0  0
  123.7570  131.8510   61.2060 N   0  0  0  0  0  0  0  0  0  0  0  0
  1  2  1  0
  2  3  1  0
  3  4  1  0
  4  5  1  0
  5  6  1  0
  6  7  1  0
  7  8  1  0
  8  9  1  0
  9 10  1  0
 10 11  1  0
 11 12  1  0
 12 13  2  0
 12 14  1  0
 14 15  1  0
 15 16  1  0
 16 17  2  0
 17 18  1  0
 18 19  1  0
 19 20  2  0
 20 21  1  0
 21 22  2  0
 22 23  1  0
 23 24  2  0
 18 25  2  0
 25 26  1  0
 26 27  1  0
 26 28  2  0
 28 29  1  0
 29 30  3  0
 28 16  1  0
 24 19  1  0
M  END
>  <Binding energies>  (32) 
[-7.19]

>  <Ligand effiencies>  (32) 
[-0.23193548387096777]

>  <Interactions>  (32) 
["V-B:TYR:539:CZ:9849, V-B:TYR:539:C:9839, V-B:PRO:540:N:9856, V-B:PRO:540:CD:9859, V-B:TYR:539:CG:9844, V-B:PRO:540:CA:9855, V-B:LEU:363:CD1:8161, V-B:TYR:539:CE2:9848, V-B:TYR:539:CD2:9846, V-B:TYR:531:CE1:9764, V-A:ILE:538:CG2:4863, V-A:PRO:540:CB:4885, V-A:TYR:539:CE1:4875, V-A:TYR:539:CD1:4873, V-A:ILE:538:CB:4862, V-A:TYR:539:CZ:4877, V-A:PRO:540:CA:4883, V-B:LEU:475:CD2:9231, V-A:TYR:539:CD2:4874, V-A:TYR:539:C:4867, V-A:PRO:540:N:4884, V-A:ILE:538:CA:4860, V-B:MET:535:CE:9807, V-B:TYR:531:CZ:9766, H-B:TYR:531:OH:9767, V-B:TYR:531:CE2:9765, V-B:TYR:539:CE1:9847, V-A:TYR:539:CG:4872, V-B:TYR:539:CD1:9845, V-B:ILE:538:CD1:9837, V-A:ALA:541:CB:4892, H-B:LYS:534:NZ:9795, H-B:TYR:539:N:9842"]

$$$$
3cb_Grossjean_2025
     RDKit          3D

 30 32  0  0  0  0  0  0  0  0999 V2000
  129.5410  132.4850   53.7250 C   0  0  0  0  0  0  0  0  0  0  0  0
  129.8010  133.0120   55.0170 O   0  0  0  0  0  0  0  0  0  0  0  0
  131.0270  132.8890   55.5890 C   0  0  0  0  0  0  0  0  0  0  0  0
  131.9590  133.6690   55.3730 O   0  0  0  0  0  0  0  0  0  0  0  0
  131.1360  131.7080   56.5110 C   0  0  0  0  0  0  0  0  0  0  0  0
  132.3750  131.2400   56.9760 C   0  0  0  0  0  0  0  0  0  0  0  0
  132.4410  130.1440   57.8310 C   0  0  0  0  0  0  0  0  0  0  0  0
  131.2770  129.4890   58.2360 C   0  0  0  0  0  0  0  0  0  0  0  0
  131.4600  128.3950   59.1040 N   0  0  0  0  0  0  0  0  0  0  0  0
  130.6050  127.8350   59.9870 C   0  0  0  0  0  0  0  0  0  0  0  0
  129.4440  128.2040   60.1760 O   0  0  0  0  0  0  0  0  0  0  0  0
  131.1840  126.6440   60.7670 C   0  0  0  0  0  0  0  0  0  0  0  0
  131.7000  125.2280   59.7370 S   0  0  0  0  0  0  0  0  0  0  0  0
  130.3260  124.1010   59.6320 C   0  0  0  0  0  0  0  0  0  0  0  0
  130.3060  123.1800   60.6270 N   0  0  0  0  0  0  0  0  0  0  0  0
  129.3060  122.2720   60.6490 C   0  0  0  0  0  0  0  0  0  0  0  0
  129.3400  121.2810   61.7970 C   0  0  0  0  0  0  0  0  0  0  0  0
  128.3000  122.2400   59.6880 C   0  0  0  0  0  0  0  0  0  0  0  0
  128.3090  123.1720   58.6410 C   0  0  0  0  0  0  0  0  0  0  0  0
  127.2100  123.0930   57.6310 C   0  0  0  0  0  0  0  0  0  0  0  0
  127.5020  122.7950   56.2940 C   0  0  0  0  0  0  0  0  0  0  0  0
  126.4840  122.7080   55.3480 C   0  0  0  0  0  0  0  0  0  0  0  0
  125.1640  122.9180   55.7370 C   0  0  0  0  0  0  0  0  0  0  0  0
  124.8540  123.2080   57.0620 C   0  0  0  0  0  0  0  0  0  0  0  0
  125.8740  123.2910   58.0070 C   0  0  0  0  0  0  0  0  0  0  0  0
  129.3600  124.1250   58.5960 C   0  0  0  0  0  0  0  0  0  0  0  0
  129.4710  125.0620   57.4750 C   0  0  0  0  0  0  0  0  0  0  0  0
  129.5590  125.8020   56.5900 N   0  0  0  0  0  0  0  0  0  0  0  0
  130.0340  129.9540   57.7790 C   0  0  0  0  0  0  0  0  0  0  0  0
  129.9690  131.0510   56.9230 C   0  0  0  0  0  0  0  0  0  0  0  0
  1  2  1  0
  2  3  1  0
  3  4  2  0
  3  5  1  0
  5  6  2  0
  6  7  1  0
  7  8  2  0
  8  9  1  0
  9 10  1  0
 10 11  2  0
 10 12  1  0
 12 13  1  0
 13 14  1  0
 14 15  2  0
 15 16  1  0
 16 17  1  0
 16 18  2  0
 18 19  1  0
 19 20  1  0
 20 21  2  0
 21 22  1  0
 22 23  2  0
 23 24  1  0
 24 25  2  0
 19 26  2  0
 26 27  1  0
 27 28  3  0
  8 29  1  0
 29 30  2  0
 30  5  1  0
 26 14  1  0
 25 20  1  0
M  END
>  <Binding energies>  (33) 
[-8.77]

>  <Ligand effiencies>  (33) 
[-0.2829032258064516]

>  <Interactions>  (33) 
["V-B:TYR:539:CZ:9849, V-B:TYR:539:C:9839, V-B:PRO:540:N:9856, V-B:PRO:540:CD:9859, V-B:PRO:540:CB:9857, V-B:TYR:539:CG:9844, V-B:PRO:540:CA:9855, V-B:ALA:541:CB:9864, V-B:LEU:363:CD1:8161, V-B:TYR:539:CE2:9848, V-B:TYR:539:CD2:9846, V-A:ILE:538:CG2:4863, V-A:PRO:540:CB:4885, V-A:PRO:540:CD:4887, V-A:ILE:538:CB:4862, V-A:LEU:363:CD1:3189, V-A:TYR:539:C:4867, V-A:PRO:540:N:4884, V-A:ILE:538:CA:4860, V-B:MET:535:CE:9807, V-B:TYR:531:CZ:9766, V-B:TYR:531:CE2:9765, V-B:TYR:539:CE1:9847, V-A:ASP:366:CG:3213, V-B:TYR:539:CD1:9845, V-B:ILE:538:CD1:9837, V-B:ILE:538:CG2:9835, V-A:ASP:366:CB:3212, V-B:ILE:538:CA:9832, H-B:TYR:539:OH:9850, H-A:TYR:539:N:4870, H-A:ASP:366:OD1:3214, H-A:ASP:366:OD2:3215"]

$$$$
3ch_Grossjean_2025
     RDKit          3D

 32 34  0  0  0  0  0  0  0  0999 V2000
  132.2870  132.7820   55.3670 C   0  0  0  0  0  0  0  0  0  0  0  0
  131.1210  132.2420   54.7540 O   0  0  0  0  0  0  0  0  0  0  0  0
  130.5020  131.1400   55.3170 C   0  0  0  0  0  0  0  0  0  0  0  0
  131.0230  130.4160   56.4020 C   0  0  0  0  0  0  0  0  0  0  0  0
  130.3350  129.3130   56.9270 C   0  0  0  0  0  0  0  0  0  0  0  0
  130.7730  128.5310   58.0120 N   0  0  0  0  0  0  0  0  0  0  0  0
  130.0740  128.0400   59.0590 C   0  0  0  0  0  0  0  0  0  0  0  0
  128.8670  128.1900   59.2460 O   0  0  0  0  0  0  0  0  0  0  0  0
  130.8770  127.1980   60.0510 C   0  0  0  0  0  0  0  0  0  0  0  0
  131.5220  125.6760   59.2960 S   0  0  0  0  0  0  0  0  0  0  0  0
  130.2040  124.4840   59.3860 C   0  0  0  0  0  0  0  0  0  0  0  0
  130.2340  123.7150   60.5020 N   0  0  0  0  0  0  0  0  0  0  0  0
  129.2780  122.7720   60.6630 C   0  0  0  0  0  0  0  0  0  0  0  0
  129.3740  121.9440   61.9300 C   0  0  0  0  0  0  0  0  0  0  0  0
  128.2690  122.5590   59.7270 C   0  0  0  0  0  0  0  0  0  0  0  0
  128.2160  123.3490   58.5700 C   0  0  0  0  0  0  0  0  0  0  0  0
  127.1210  123.0780   57.5900 C   0  0  0  0  0  0  0  0  0  0  0  0
  127.4290  122.7450   56.2650 C   0  0  0  0  0  0  0  0  0  0  0  0
  126.4140  122.5000   55.3440 C   0  0  0  0  0  0  0  0  0  0  0  0
  125.0830  122.5900   55.7450 C   0  0  0  0  0  0  0  0  0  0  0  0
  124.7600  122.9270   57.0560 C   0  0  0  0  0  0  0  0  0  0  0  0
  125.7780  123.1730   57.9740 C   0  0  0  0  0  0  0  0  0  0  0  0
  129.2000  124.3560   58.3970 C   0  0  0  0  0  0  0  0  0  0  0  0
  129.1390  125.2720   57.2540 C   0  0  0  0  0  0  0  0  0  0  0  0
  129.0930  125.9950   56.3520 N   0  0  0  0  0  0  0  0  0  0  0  0
  129.1270  128.9250   56.3430 C   0  0  0  0  0  0  0  0  0  0  0  0
  128.5870  129.6310   55.2570 C   0  0  0  0  0  0  0  0  0  0  0  0
  127.3920  129.3040   54.6390 O   0  0  0  0  0  0  0  0  0  0  0  0
  126.2100  129.1790   55.4230 C   0  0  0  0  0  0  0  0  0  0  0  0
  129.2860  130.7350   54.7520 C   0  0  0  0  0  0  0  0  0  0  0  0
  128.7590  131.4460   53.7000 O   0  0  0  0  0  0  0  0  0  0  0  0
  128.6300  132.8390   53.9480 C   0  0  0  0  0  0  0  0  0  0  0  0
  1  2  1  0
  2  3  1  0
  3  4  2  0
  4  5  1  0
  5  6  1  0
  6  7  1  0
  7  8  2  0
  7  9  1  0
  9 10  1  0
 10 11  1  0
 11 12  2  0
 12 13  1  0
 13 14  1  0
 13 15  2  0
 15 16  1  0
 16 17  1  0
 17 18  2  0
 18 19  1  0
 19 20  2  0
 20 21  1  0
 21 22  2  0
 16 23  2  0
 23 24  1  0
 24 25  3  0
  5 26  2  0
 26 27  1  0
 27 28  1  0
 28 29  1  0
 27 30  2  0
 30 31  1  0
 31 32  1  0
 30  3  1  0
 23 11  1  0
 22 17  1  0
M  END
>  <Binding energies>  (34) 
[-7.82]

>  <Ligand effiencies>  (34) 
[-0.23696969696969697]

>  <Interactions>  (34) 
["V-B:TYR:539:CZ:9849, V-B:TYR:539:C:9839, V-B:PRO:540:N:9856, V-B:PRO:540:CD:9859, V-B:PRO:540:CB:9857, V-B:TYR:539:CG:9844, V-B:PRO:540:CA:9855, V-B:ALA:541:CB:9864, V-B:LEU:363:CD1:8161, V-B:TYR:539:CE2:9848, V-B:TYR:539:CD2:9846, V-B:TYR:531:CE1:9764, V-A:ILE:538:CG2:4863, V-A:PRO:540:CB:4885, V-A:PRO:540:CD:4887, V-A:ILE:538:CB:4862, V-A:TYR:539:CZ:4877, V-A:LEU:363:CD1:3189, V-A:TYR:539:CE2:4876, V-A:TYR:539:CD2:4874, V-A:ILE:538:C:4858, V-A:PRO:540:N:4884, V-A:ILE:538:CA:4860, V-B:MET:535:CE:9807, V-B:TYR:531:CZ:9766, V-B:TYR:531:CE2:9765, V-B:TYR:539:CE1:9847, V-A:TYR:539:CG:4872, V-A:ASP:366:CG:3213, V-B:TYR:539:CD1:9845, V-B:ILE:538:CD1:9837, V-B:ILE:538:CG2:9835, V-B:ILE:538:CA:9832, H-A:TYR:531:OH:4795, H-B:LYS:534:NZ:9795, V-B:ILE:538:C:9830, H-A:ASP:366:OD1:3214, V-B:PRO:540:CG:9858"]

$$$$
3ci_Grossjean_2025
     RDKit          3D

 25 27  0  0  0  0  0  0  0  0999 V2000
  127.6530  133.1980   60.9330 C   0  0  0  0  0  0  0  0  0  0  0  0
  127.5140  132.4680   59.6110 C   0  0  0  0  0  0  0  0  0  0  0  0
  128.4950  132.5440   58.6270 C   0  0  0  0  0  0  0  0  0  0  0  0
  128.3280  131.8380   57.4270 C   0  0  0  0  0  0  0  0  0  0  0  0
  129.4130  131.9370   56.4050 C   0  0  0  0  0  0  0  0  0  0  0  0
  129.1150  132.2360   55.0700 C   0  0  0  0  0  0  0  0  0  0  0  0
  130.1290  132.3190   54.1200 C   0  0  0  0  0  0  0  0  0  0  0  0
  131.4490  132.0960   54.5010 C   0  0  0  0  0  0  0  0  0  0  0  0
  131.7620  131.7890   55.8230 C   0  0  0  0  0  0  0  0  0  0  0  0
  130.7460  131.7080   56.7700 C   0  0  0  0  0  0  0  0  0  0  0  0
  127.1470  131.0710   57.2550 C   0  0  0  0  0  0  0  0  0  0  0  0
  126.8980  130.3460   56.0040 C   0  0  0  0  0  0  0  0  0  0  0  0
  126.7030  129.7730   55.0170 N   0  0  0  0  0  0  0  0  0  0  0  0
  126.2030  131.0450   58.3090 C   0  0  0  0  0  0  0  0  0  0  0  0
  124.6910  130.0950   58.2080 S   0  0  0  0  0  0  0  0  0  0  0  0
  123.3640  130.9670   59.1010 C   0  0  0  0  0  0  0  0  0  0  0  0
  123.6160  131.0770   60.6090 C   0  0  0  0  0  0  0  0  0  0  0  0
  123.4530  132.1630   61.1690 O   0  0  0  0  0  0  0  0  0  0  0  0
  124.0230  129.9430   61.2200 N   0  0  0  0  0  0  0  0  0  0  0  0
  124.2910  129.7640   62.5710 C   0  0  0  0  0  0  0  0  0  0  0  0
  125.5460  129.3970   63.0550 C   0  0  0  0  0  0  0  0  0  0  0  0
  125.3950  129.3230   64.4210 C   0  0  0  0  0  0  0  0  0  0  0  0
  124.1150  129.6320   64.7410 O   0  0  0  0  0  0  0  0  0  0  0  0
  123.4250  129.9080   63.5600 N   0  0  0  0  0  0  0  0  0  0  0  0
  126.3860  131.7380   59.4610 N   0  0  0  0  0  0  0  0  0  0  0  0
  1  2  1  0
  2  3  2  0
  3  4  1  0
  4  5  1  0
  5  6  2  0
  6  7  1  0
  7  8  2  0
  8  9  1  0
  9 10  2  0
  4 11  2  0
 11 12  1  0
 12 13  3  0
 11 14  1  0
 14 15  1  0
 15 16  1  0
 16 17  1  0
 17 18  2  0
 17 19  1  0
 19 20  1  0
 20 21  1  0
 21 22  2  0
 22 23  1  0
 23 24  1  0
 14 25  2  0
 25  2  1  0
 10  5  1  0
 24 20  2  0
M  END
>  <Binding energies>  (35) 
[-8.51]

>  <Ligand effiencies>  (35) 
[-0.3273076923076923]

>  <Interactions>  (35) 
["V-B:ASP:366:CG:8185, V-B:ARG:545:CZ:9898, V-B:ILE:369:CG2:8209, V-A:TYR:531:CZ:4794, V-A:ILE:538:CG2:4863, V-A:TYR:539:CE1:4875, V-A:TYR:539:CD1:4873, V-A:ILE:538:CB:4862, V-A:TYR:539:CZ:4877, V-A:PRO:540:CA:4883, V-A:LEU:363:CD1:3189, V-B:ASP:366:CA:8182, V-A:TYR:539:CE2:4876, V-A:TYR:539:CD2:4874, V-B:ILE:369:CD1:8211, V-A:TYR:539:C:4867, V-B:ASP:366:C:8180, V-B:ASP:366:CB:8184, V-A:ILE:538:CA:4860, V-A:TYR:531:CE2:4793, V-A:ALA:541:CB:4892, H-B:LYS:534:NZ:9795, H-B:ASP:366:OD2:8187, H-B:ASP:366:OD1:8186, H-B:ARG:545:NH2:9900, H-B:GLY:454:N:9022, H-B:TYR:484:OH:9320, V-B:ILE:369:CB:8208, H-B:ARG:545:NH1:9899, H-B:ARG:545:NE:9896"]

$$$$
3ck_Grossjean_2025
     RDKit          3D

 30 31  0  0  0  0  0  0  0  0999 V2000
  131.8940  132.7920   55.6890 C   0  0  0  0  0  0  0  0  0  0  0  0
  130.5250  132.9120   55.3350 O   0  0  0  0  0  0  0  0  0  0  0  0
  130.0580  131.8520   54.5130 C   0  0  0  0  0  0  0  0  0  0  0  0
  129.2250  130.8770   55.3570 C   0  0  0  0  0  0  0  0  0  0  0  0
  129.5470  129.5420   54.9870 O   0  0  0  0  0  0  0  0  0  0  0  0
  130.1000  128.7690   56.0440 C   0  0  0  0  0  0  0  0  0  0  0  0
  130.0460  127.2850   55.6600 C   0  0  0  0  0  0  0  0  0  0  0  0
  131.3630  126.8550   55.3480 O   0  0  0  0  0  0  0  0  0  0  0  0
  132.0120  126.1280   56.3800 C   0  0  0  0  0  0  0  0  0  0  0  0
  130.9570  125.4690   57.2880 C   0  0  0  0  0  0  0  0  0  0  0  0
  130.8050  126.1270   58.5900 N   0  0  0  0  0  0  0  0  0  0  0  0
  131.5780  125.9140   59.6710 C   0  0  0  0  0  0  0  0  0  0  0  0
  132.5380  125.1410   59.6740 O   0  0  0  0  0  0  0  0  0  0  0  0
  131.1910  126.7110   60.9270 C   0  0  0  0  0  0  0  0  0  0  0  0
  129.8520  125.9850   61.9340 S   0  0  0  0  0  0  0  0  0  0  0  0
  129.2910  124.4750   61.1600 C   0  0  0  0  0  0  0  0  0  0  0  0
  129.6560  123.3270   61.7830 N   0  0  0  0  0  0  0  0  0  0  0  0
  129.2700  122.1460   61.2500 C   0  0  0  0  0  0  0  0  0  0  0  0
  129.7180  120.9060   62.0000 C   0  0  0  0  0  0  0  0  0  0  0  0
  128.5120  122.0610   60.0850 C   0  0  0  0  0  0  0  0  0  0  0  0
  128.1280  123.2330   59.4210 C   0  0  0  0  0  0  0  0  0  0  0  0
  127.3360  123.0930   58.1630 C   0  0  0  0  0  0  0  0  0  0  0  0
  127.9880  122.9130   56.9380 C   0  0  0  0  0  0  0  0  0  0  0  0
  127.2560  122.7910   55.7590 C   0  0  0  0  0  0  0  0  0  0  0  0
  125.8660  122.8560   55.8010 C   0  0  0  0  0  0  0  0  0  0  0  0
  125.2030  123.0440   57.0120 C   0  0  0  0  0  0  0  0  0  0  0  0
  125.9370  123.1650   58.1880 C   0  0  0  0  0  0  0  0  0  0  0  0
  128.5170  124.4800   59.9770 C   0  0  0  0  0  0  0  0  0  0  0  0
  128.1080  125.7410   59.3480 C   0  0  0  0  0  0  0  0  0  0  0  0
  127.7850  126.7360   58.8520 N   0  0  0  0  0  0  0  0  0  0  0  0
  1  2  1  0
  2  3  1  0
  3  4  1  0
  4  5  1  0
  5  6  1  0
  6  7  1  0
  7  8  1  0
  8  9  1  0
  9 10  1  0
 10 11  1  0
 11 12  1  0
 12 13  2  0
 12 14  1  0
 14 15  1  0
 15 16  1  0
 16 17  2  0
 17 18  1  0
 18 19  1  0
 18 20  2  0
 20 21  1  0
 21 22  1  0
 22 23  2  0
 23 24  1  0
 24 25  2  0
 25 26  1  0
 26 27  2  0
 21 28  2  0
 28 29  1  0
 29 30  3  0
 28 16  1  0
 27 22  1  0
M  END
>  <Binding energies>  (36) 
[-6.49]

>  <Ligand effiencies>  (36) 
[-0.20935483870967742]

>  <Interactions>  (36) 
["V-B:TYR:539:CZ:9849, V-B:TYR:539:C:9839, V-B:PRO:540:N:9856, V-B:PRO:540:CD:9859, H-A:TYR:484:OH:4348, V-B:PRO:540:CB:9857, V-B:TYR:539:CG:9844, V-B:PRO:540:CA:9855, V-A:LEU:475:CD2:4259, V-B:ALA:541:CB:9864, V-B:LEU:363:CD1:8161, V-B:TYR:539:CE2:9848, V-B:TYR:539:CD2:9846, V-A:ILE:538:CG2:4863, V-A:PRO:540:CB:4885, V-A:PRO:540:CD:4887, V-A:ILE:538:CB:4862, V-A:PRO:540:CG:4886, V-A:LEU:363:CD1:3189, V-A:PRO:540:N:4884, V-B:MET:535:CE:9807, V-B:TYR:539:CE1:9847, V-A:ASP:366:CG:3213, V-B:TYR:539:CD1:9845, V-B:ILE:538:CD1:9837, V-A:ASP:366:CB:3212, V-B:ILE:538:CA:9832, H-A:TYR:531:OH:4795, H-B:TYR:539:OH:9850, H-A:TYR:539:N:4870, V-A:TYR:484:CE1:4345"]

$$$$
4aa_Grossjean_2025
     RDKit          3D

 26 28  0  0  0  0  0  0  0  0999 V2000
  132.3310  132.7440   55.6360 C   0  0  0  0  0  0  0  0  0  0  0  0
  131.3590  132.1780   54.5960 C   0  0  0  0  0  0  0  0  0  0  0  0
  130.1700  132.9570   54.5860 O   0  0  0  0  0  0  0  0  0  0  0  0
  128.9470  132.3710   54.6500 C   0  0  0  0  0  0  0  0  0  0  0  0
  128.2300  132.1840   53.6610 O   0  0  0  0  0  0  0  0  0  0  0  0
  128.5490  131.9770   56.0430 C   0  0  0  0  0  0  0  0  0  0  0  0
  127.4280  131.1570   56.2290 C   0  0  0  0  0  0  0  0  0  0  0  0
  127.0310  130.7790   57.5080 C   0  0  0  0  0  0  0  0  0  0  0  0
  127.7500  131.2040   58.6260 C   0  0  0  0  0  0  0  0  0  0  0  0
  127.2560  130.7700   59.8720 N   0  0  0  0  0  0  0  0  0  0  0  0
  127.0690  129.5150   60.3470 C   0  0  0  0  0  0  0  0  0  0  0  0
  127.2780  128.4900   59.6980 O   0  0  0  0  0  0  0  0  0  0  0  0
  126.5610  129.4360   61.7180 C   0  0  0  0  0  0  0  0  0  0  0  0
  124.8570  129.7550   62.0560 S   0  0  0  0  0  0  0  0  0  0  0  0
  125.1040  129.5140   63.7710 C   0  0  0  0  0  0  0  0  0  0  0  0
  124.1070  129.6250   64.6500 N   0  0  0  0  0  0  0  0  0  0  0  0
  124.4330  129.4180   65.9490 C   0  0  0  0  0  0  0  0  0  0  0  0
  123.2850  129.5530   66.9330 C   0  0  0  0  0  0  0  0  0  0  0  0
  125.7190  129.1030   66.3840 C   0  0  0  0  0  0  0  0  0  0  0  0
  126.7620  128.9860   65.4600 C   0  0  0  0  0  0  0  0  0  0  0  0
  128.1480  128.6410   65.9830 C   0  0  0  0  0  0  0  0  0  0  0  0
  126.4600  129.2010   64.0880 C   0  0  0  0  0  0  0  0  0  0  0  0
  127.2700  129.1670   62.8990 C   0  0  0  0  0  0  0  0  0  0  0  0
  128.6140  128.8900   62.9380 N   0  0  0  0  0  0  0  0  0  0  0  0
  128.8700  132.0290   58.4510 C   0  0  0  0  0  0  0  0  0  0  0  0
  129.2640  132.4100   57.1710 C   0  0  0  0  0  0  0  0  0  0  0  0
  1  2  1  0
  2  3  1  0
  3  4  1  0
  4  5  2  0
  4  6  1  0
  6  7  2  0
  7  8  1  0
  8  9  2  0
  9 10  1  0
 10 11  1  0
 11 12  2  0
 11 13  1  0
 13 14  1  0
 14 15  1  0
 15 16  2  0
 16 17  1  0
 17 18  1  0
 17 19  2  0
 19 20  1  0
 20 21  1  0
 20 22  2  0
 22 23  1  0
 23 24  1  0
  9 25  1  0
 25 26  2  0
 26  6  1  0
 23 13  2  0
 22 15  1  0
M  END
>  <Binding energies>  (37) 
[-7.83]

>  <Ligand effiencies>  (37) 
[-0.27]

>  <Interactions>  (37) 
["V-B:ASP:366:CG:8185, V-B:ARG:545:CZ:9898, V-A:ILE:538:CG2:4863, V-A:PRO:540:CB:4885, V-A:PRO:540:CD:4887, V-A:TYR:539:CE1:4875, V-A:TYR:539:CD1:4873, V-A:ILE:538:CB:4862, V-A:PRO:540:CG:4886, V-A:TYR:539:CZ:4877, V-A:PRO:540:CA:4883, V-A:LEU:363:CD1:3189, V-B:GLY:454:CA:9021, V-A:TYR:539:CE2:4876, V-A:TYR:539:CD2:4874, V-A:TYR:539:C:4867, V-A:PRO:540:N:4884, V-A:ILE:538:CA:4860, V-A:TYR:531:CE2:4793, V-A:TYR:539:CG:4872, H-A:GLU:543:OE1:4909, V-A:GLU:543:CD:4908, H-A:TYR:539:N:4870, H-B:LYS:534:NZ:9795, H-B:ARG:545:NH2:9900, V-B:GLY:453:C:9014, H-B:GLY:454:N:9022, V-B:ARG:545:CD:9895, H-B:TYR:484:OH:9320, V-A:GLU:543:CG:4907, V-B:GLY:453:CA:9016, V-B:ARG:545:CG:9894, V-B:HIS:456:CE1:9042, V-B:TYR:484:CZ:9319, V-A:GLU:543:CB:4906, V-B:TYR:484:CE1:9317, H-B:ARG:545:NH1:9899, H-B:GLU:543:OE2:9882, H-A:GLU:543:OE2:4910, H-B:ARG:545:NE:9896, V-B:ILE:455:C:9024, V-B:ARG:545:CB:9893"]

$$$$
4ab_Grossjean_2025
     RDKit          3D

 25 27  0  0  0  0  0  0  0  0999 V2000
  131.1870  132.4100   55.1130 C   0  0  0  0  0  0  0  0  0  0  0  0
  129.9350  133.0640   54.9610 O   0  0  0  0  0  0  0  0  0  0  0  0
  128.7880  132.3520   54.8200 C   0  0  0  0  0  0  0  0  0  0  0  0
  128.2330  132.1640   53.7320 O   0  0  0  0  0  0  0  0  0  0  0  0
  128.2550  131.8220   56.1200 C   0  0  0  0  0  0  0  0  0  0  0  0
  128.6100  132.4620   57.3150 C   0  0  0  0  0  0  0  0  0  0  0  0
  128.1340  131.9930   58.5370 C   0  0  0  0  0  0  0  0  0  0  0  0
  127.2890  130.8840   58.5890 C   0  0  0  0  0  0  0  0  0  0  0  0
  126.8740  130.4920   59.8760 N   0  0  0  0  0  0  0  0  0  0  0  0
  127.0910  129.3360   60.5490 C   0  0  0  0  0  0  0  0  0  0  0  0
  127.6940  128.3670   60.0870 O   0  0  0  0  0  0  0  0  0  0  0  0
  126.5270  129.2860   61.9000 C   0  0  0  0  0  0  0  0  0  0  0  0
  124.8210  129.6510   62.1670 S   0  0  0  0  0  0  0  0  0  0  0  0
  124.9930  129.4230   63.8920 C   0  0  0  0  0  0  0  0  0  0  0  0
  123.9660  129.5700   64.7300 N   0  0  0  0  0  0  0  0  0  0  0  0
  124.2350  129.3670   66.0430 C   0  0  0  0  0  0  0  0  0  0  0  0
  123.0540  129.5440   66.9790 C   0  0  0  0  0  0  0  0  0  0  0  0
  125.4920  129.0210   66.5320 C   0  0  0  0  0  0  0  0  0  0  0  0
  126.5680  128.8680   65.6500 C   0  0  0  0  0  0  0  0  0  0  0  0
  127.9220  128.4920   66.2330 C   0  0  0  0  0  0  0  0  0  0  0  0
  126.3270  129.0770   64.2650 C   0  0  0  0  0  0  0  0  0  0  0  0
  127.1810  129.0120   63.1110 C   0  0  0  0  0  0  0  0  0  0  0  0
  128.5150  128.7030   63.2050 N   0  0  0  0  0  0  0  0  0  0  0  0
  126.9330  130.2330   57.3980 C   0  0  0  0  0  0  0  0  0  0  0  0
  127.4120  130.7020   56.1770 C   0  0  0  0  0  0  0  0  0  0  0  0
  1  2  1  0
  2  3  1  0
  3  4  2  0
  3  5  1  0
  5  6  2  0
  6  7  1  0
  7  8  2  0
  8  9  1  0
  9 10  1  0
 10 11  2  0
 10 12  1  0
 12 13  1  0
 13 14  1  0
 14 15  2  0
 15 16  1  0
 16 17  1  0
 16 18  2  0
 18 19  1  0
 19 20  1  0
 19 21  2  0
 21 22  1  0
 22 23  1  0
  8 24  1  0
 24 25  2  0
 25  5  1  0
 22 12  2  0
 21 14  1  0
M  END
>  <Binding energies>  (38) 
[-7.4]

>  <Ligand effiencies>  (38) 
[-0.2642857142857143]

>  <Interactions>  (38) 
["V-B:ASP:366:CG:8185, V-B:ARG:545:CZ:9898, V-A:ILE:538:CG2:4863, V-A:TYR:539:CE1:4875, V-A:TYR:539:CD1:4873, V-A:ILE:538:CB:4862, V-A:TYR:539:CZ:4877, V-B:GLY:454:CA:9021, V-A:TYR:539:CE2:4876, V-A:TYR:539:CD2:4874, V-A:TYR:539:C:4867, V-A:ILE:538:CA:4860, V-A:TYR:539:CG:4872, H-A:GLU:543:OE1:4909, V-A:GLU:543:CD:4908, H-A:TYR:539:N:4870, H-B:LYS:534:NZ:9795, V-B:GLU:543:CD:9880, H-B:ARG:545:NH2:9900, V-B:GLY:453:C:9014, H-B:GLY:454:N:9022, V-B:ARG:545:CD:9895, H-B:TYR:484:OH:9320, V-A:GLU:543:CG:4907, V-B:GLY:453:CA:9016, V-B:ARG:545:CG:9894, V-B:HIS:456:CE1:9042, V-B:TYR:484:CZ:9319, V-A:GLU:543:CB:4906, H-B:ARG:545:NH1:9899, H-B:GLU:543:OE2:9882, H-A:GLU:543:OE2:4910, H-B:ARG:545:NE:9896, V-B:ILE:455:C:9024, V-B:ARG:545:CB:9893"]

$$$$
4ac_Grossjean_2025
     RDKit          3D

 23 25  0  0  0  0  0  0  0  0999 V2000
  124.0140  129.5620   66.8430 C   0  0  0  0  0  0  0  0  0  0  0  0
  123.7580  129.2980   65.4670 O   0  0  0  0  0  0  0  0  0  0  0  0
  124.7400  129.5670   64.5340 C   0  0  0  0  0  0  0  0  0  0  0  0
  124.3490  130.2930   63.4100 C   0  0  0  0  0  0  0  0  0  0  0  0
  125.2700  130.6130   62.4160 C   0  0  0  0  0  0  0  0  0  0  0  0
  126.6020  130.2160   62.5400 C   0  0  0  0  0  0  0  0  0  0  0  0
  127.4570  130.5720   61.4800 N   0  0  0  0  0  0  0  0  0  0  0  0
  128.6210  131.2650   61.5140 C   0  0  0  0  0  0  0  0  0  0  0  0
  129.1100  131.7400   62.5410 O   0  0  0  0  0  0  0  0  0  0  0  0
  129.2900  131.4330   60.2220 C   0  0  0  0  0  0  0  0  0  0  0  0
  128.4040  132.0720   58.8360 S   0  0  0  0  0  0  0  0  0  0  0  0
  129.8170  131.9470   57.8140 C   0  0  0  0  0  0  0  0  0  0  0  0
  129.7950  132.3090   56.5310 N   0  0  0  0  0  0  0  0  0  0  0  0
  130.9580  132.1610   55.8500 C   0  0  0  0  0  0  0  0  0  0  0  0
  130.9110  132.5790   54.3930 C   0  0  0  0  0  0  0  0  0  0  0  0
  132.1290  131.6620   56.4170 C   0  0  0  0  0  0  0  0  0  0  0  0
  132.1490  131.2830   57.7640 C   0  0  0  0  0  0  0  0  0  0  0  0
  133.4510  130.7450   58.3360 C   0  0  0  0  0  0  0  0  0  0  0  0
  130.9490  131.4260   58.5100 C   0  0  0  0  0  0  0  0  0  0  0  0
  130.6210  131.1440   59.8820 C   0  0  0  0  0  0  0  0  0  0  0  0
  131.5400  130.6350   60.7640 N   0  0  0  0  0  0  0  0  0  0  0  0
  127.0010  129.4740   63.6610 C   0  0  0  0  0  0  0  0  0  0  0  0
  126.0770  129.1560   64.6530 C   0  0  0  0  0  0  0  0  0  0  0  0
  1  2  1  0
  2  3  1  0
  3  4  2  0
  4  5  1  0
  5  6  2  0
  6  7  1  0
  7  8  1  0
  8  9  2  0
  8 10  1  0
 10 11  1  0
 11 12  1  0
 12 13  2  0
 13 14  1  0
 14 15  1  0
 14 16  2  0
 16 17  1  0
 17 18  1  0
 17 19  2  0
 19 20  1  0
 20 21  1  0
  6 22  1  0
 22 23  2  0
 23  3  1  0
 20 10  2  0
 19 12  1  0
M  END
>  <Binding energies>  (39) 
[-7.17]

>  <Ligand effiencies>  (39) 
[-0.27576923076923077]

>  <Interactions>  (39) 
["V-B:ARG:545:CZ:9898, V-A:ILE:538:CG2:4863, V-A:PRO:540:CB:4885, V-A:ILE:538:CB:4862, V-A:PRO:540:CA:4883, V-A:LEU:363:CD1:3189, V-A:TYR:539:C:4867, V-A:PRO:540:N:4884, V-A:ILE:538:CA:4860, V-A:ASP:366:CG:3213, V-A:ASP:366:CB:3212, H-A:GLU:543:OE1:4909, H-B:GLY:454:N:9022, V-B:ARG:545:CD:9895, H-B:TYR:484:OH:9320, V-A:LEU:363:CA:3185, V-B:ARG:545:CG:9894, V-B:HIS:456:CE1:9042, V-B:TYR:484:CZ:9319, V-B:TYR:484:CE1:9317, H-B:ARG:545:NH1:9899, H-A:ASP:366:OD1:3214, H-B:ARG:545:NE:9896"]

$$$$
4ad_Grossjean_2025
     RDKit          3D

 21 23  0  0  0  0  0  0  0  0999 V2000
  130.4310  132.8050   54.6040 C   0  0  0  0  0  0  0  0  0  0  0  0
  130.6470  132.3190   56.0250 C   0  0  0  0  0  0  0  0  0  0  0  0
  131.8570  131.7460   56.4110 C   0  0  0  0  0  0  0  0  0  0  0  0
  132.0330  131.3020   57.7270 C   0  0  0  0  0  0  0  0  0  0  0  0
  133.3710  130.6810   58.1010 C   0  0  0  0  0  0  0  0  0  0  0  0
  130.9470  131.4580   58.6300 C   0  0  0  0  0  0  0  0  0  0  0  0
  130.7850  131.1230   60.0190 C   0  0  0  0  0  0  0  0  0  0  0  0
  131.7880  130.5370   60.7520 N   0  0  0  0  0  0  0  0  0  0  0  0
  129.5240  131.4490   60.5420 C   0  0  0  0  0  0  0  0  0  0  0  0
  129.0160  131.2350   61.8990 C   0  0  0  0  0  0  0  0  0  0  0  0
  129.5470  131.7900   62.8630 O   0  0  0  0  0  0  0  0  0  0  0  0
  127.9440  130.4110   61.9950 N   0  0  0  0  0  0  0  0  0  0  0  0
  127.2520  129.9710   63.1400 C   0  0  0  0  0  0  0  0  0  0  0  0
  125.8570  129.9580   63.0440 C   0  0  0  0  0  0  0  0  0  0  0  0
  125.0840  129.5290   64.1190 C   0  0  0  0  0  0  0  0  0  0  0  0
  125.7060  129.1050   65.2910 C   0  0  0  0  0  0  0  0  0  0  0  0
  127.0940  129.1010   65.3940 C   0  0  0  0  0  0  0  0  0  0  0  0
  127.8700  129.5300   64.3210 C   0  0  0  0  0  0  0  0  0  0  0  0
  128.4980  132.1910   59.3130 S   0  0  0  0  0  0  0  0  0  0  0  0
  129.7610  132.0590   58.1110 C   0  0  0  0  0  0  0  0  0  0  0  0
  129.5910  132.4830   56.8570 N   0  0  0  0  0  0  0  0  0  0  0  0
  1  2  1  0
  2  3  2  0
  3  4  1  0
  4  5  1  0
  4  6  2  0
  6  7  1  0
  7  8  1  0
  7  9  2  0
  9 10  1  0
 10 11  2  0
 10 12  1  0
 12 13  1  0
 13 14  2  0
 14 15  1  0
 15 16  2  0
 16 17  1  0
 17 18  2  0
  9 19  1  0
 19 20  1  0
 20 21  2  0
 21  2  1  0
 20  6  1  0
 18 13  1  0
M  END
>  <Binding energies>  (40) 
[-6.87]

>  <Ligand effiencies>  (40) 
[-0.28625]

>  <Interactions>  (40) 
["V-B:ARG:545:CZ:9898, V-A:ILE:538:CG2:4863, V-A:PRO:540:CB:4885, V-A:ILE:538:CB:4862, V-A:PRO:540:CA:4883, V-A:LEU:363:CD1:3189, V-A:TYR:539:C:4867, V-A:ILE:538:C:4858, V-A:PRO:540:N:4884, V-A:ILE:538:CA:4860, V-A:ASP:366:CG:3213, V-A:ASP:366:CB:3212, H-A:GLU:543:OE1:4909, V-A:GLU:543:CD:4908, V-A:GLU:543:CG:4907, V-A:LEU:363:CA:3185, V-B:TYR:484:CZ:9319, H-A:ASP:366:OD1:3214"]

$$$$
4ae_Grossjean_2025
     RDKit          3D

 22 24  0  0  0  0  0  0  0  0999 V2000
  128.2350  128.8070   66.7030 C   0  0  0  0  0  0  0  0  0  0  0  0
  127.4220  129.0910   65.4550 C   0  0  0  0  0  0  0  0  0  0  0  0
  126.0380  128.8980   65.4240 C   0  0  0  0  0  0  0  0  0  0  0  0
  125.3570  129.1730   64.2380 C   0  0  0  0  0  0  0  0  0  0  0  0
  126.0660  129.6270   63.1240 C   0  0  0  0  0  0  0  0  0  0  0  0
  127.4500  129.8060   63.2260 C   0  0  0  0  0  0  0  0  0  0  0  0
  128.1110  130.2450   62.0660 N   0  0  0  0  0  0  0  0  0  0  0  0
  129.0950  131.1720   61.9500 C   0  0  0  0  0  0  0  0  0  0  0  0
  129.5650  131.7960   62.9030 O   0  0  0  0  0  0  0  0  0  0  0  0
  129.5820  131.4030   60.5880 C   0  0  0  0  0  0  0  0  0  0  0  0
  128.5280  132.1340   59.3770 S   0  0  0  0  0  0  0  0  0  0  0  0
  129.7690  132.0120   58.1520 C   0  0  0  0  0  0  0  0  0  0  0  0
  129.5700  132.4300   56.9020 N   0  0  0  0  0  0  0  0  0  0  0  0
  130.6110  132.2740   56.0490 C   0  0  0  0  0  0  0  0  0  0  0  0
  130.3610  132.7490   54.6300 C   0  0  0  0  0  0  0  0  0  0  0  0
  131.8360  131.7170   56.4150 C   0  0  0  0  0  0  0  0  0  0  0  0
  132.0410  131.2800   57.7290 C   0  0  0  0  0  0  0  0  0  0  0  0
  133.3930  130.6760   58.0780 C   0  0  0  0  0  0  0  0  0  0  0  0
  130.9710  131.4260   58.6520 C   0  0  0  0  0  0  0  0  0  0  0  0
  130.8380  131.0890   60.0440 C   0  0  0  0  0  0  0  0  0  0  0  0
  131.8570  130.5130   60.7600 N   0  0  0  0  0  0  0  0  0  0  0  0
  128.1250  129.5330   64.3810 N   0  0  0  0  0  0  0  0  0  0  0  0
  1  2  1  0
  2  3  2  0
  3  4  1  0
  4  5  2  0
  5  6  1  0
  6  7  1  0
  7  8  1  0
  8  9  2  0
  8 10  1  0
 10 11  1  0
 11 12  1  0
 12 13  2  0
 13 14  1  0
 14 15  1  0
 14 16  2  0
 16 17  1  0
 17 18  1  0
 17 19  2  0
 19 20  1  0
 20 21  1  0
  6 22  2  0
 22  2  1  0
 20 10  2  0
 19 12  1  0
M  END
>  <Binding energies>  (41) 
[-7.1]

>  <Ligand effiencies>  (41) 
[-0.284]

>  <Interactions>  (41) 
["V-B:ARG:545:CZ:9898, V-A:ILE:538:CG2:4863, V-A:PRO:540:CB:4885, V-A:ILE:538:CB:4862, V-A:PRO:540:CA:4883, V-A:LEU:363:CD1:3189, V-A:TYR:539:C:4867, V-A:ILE:538:C:4858, V-A:PRO:540:N:4884, V-A:ILE:538:CA:4860, V-A:ASP:366:CG:3213, V-A:ASP:366:CB:3212, H-A:GLU:543:OE1:4909, V-A:GLU:543:CD:4908, H-B:TYR:484:OH:9320, V-A:GLU:543:CG:4907, V-A:LEU:363:CA:3185, V-B:HIS:456:CE1:9042, V-A:GLU:543:CB:4906, H-A:ASP:366:OD1:3214"]

$$$$
4af_Grossjean_2025
     RDKit          3D

 21 23  0  0  0  0  0  0  0  0999 V2000
  130.3130  132.9140   54.6360 C   0  0  0  0  0  0  0  0  0  0  0  0
  130.4960  132.4090   56.0560 C   0  0  0  0  0  0  0  0  0  0  0  0
  131.7130  131.8750   56.4750 C   0  0  0  0  0  0  0  0  0  0  0  0
  131.8580  131.4130   57.7890 C   0  0  0  0  0  0  0  0  0  0  0  0
  133.2040  130.8360   58.2000 C   0  0  0  0  0  0  0  0  0  0  0  0
  130.7350  131.5110   58.6550 C   0  0  0  0  0  0  0  0  0  0  0  0
  130.5370  131.1410   60.0310 C   0  0  0  0  0  0  0  0  0  0  0  0
  131.5310  130.5730   60.7870 N   0  0  0  0  0  0  0  0  0  0  0  0
  129.2480  131.4130   60.5140 C   0  0  0  0  0  0  0  0  0  0  0  0
  128.6960  131.1410   61.8430 C   0  0  0  0  0  0  0  0  0  0  0  0
  129.3330  131.4300   62.8570 O   0  0  0  0  0  0  0  0  0  0  0  0
  127.4630  130.5800   61.8550 N   0  0  0  0  0  0  0  0  0  0  0  0
  126.6830  130.1550   62.9470 C   0  0  0  0  0  0  0  0  0  0  0  0
  127.1080  129.2790   63.9620 C   0  0  0  0  0  0  0  0  0  0  0  0
  126.2250  128.9230   64.9830 C   0  0  0  0  0  0  0  0  0  0  0  0
  124.9330  129.4490   64.9630 C   0  0  0  0  0  0  0  0  0  0  0  0
  124.4950  130.2890   63.9920 N   0  0  0  0  0  0  0  0  0  0  0  0
  125.3650  130.6260   63.0060 C   0  0  0  0  0  0  0  0  0  0  0  0
  128.2380  132.1410   59.2620 S   0  0  0  0  0  0  0  0  0  0  0  0
  129.5480  132.0780   58.1040 C   0  0  0  0  0  0  0  0  0  0  0  0
  129.4050  132.5200   56.8530 N   0  0  0  0  0  0  0  0  0  0  0  0
  1  2  1  0
  2  3  2  0
  3  4  1  0
  4  5  1  0
  4  6  2  0
  6  7  1  0
  7  8  1  0
  7  9  2  0
  9 10  1  0
 10 11  2  0
 10 12  1  0
 12 13  1  0
 13 14  2  0
 14 15  1  0
 15 16  2  0
 16 17  1  0
 17 18  2  0
  9 19  1  0
 19 20  1  0
 20 21  2  0
 21  2  1  0
 20  6  1  0
 18 13  1  0
M  END
>  <Binding energies>  (42) 
[-6.9]

>  <Ligand effiencies>  (42) 
[-0.28750000000000003]

>  <Interactions>  (42) 
["V-B:ARG:545:CZ:9898, V-A:ILE:538:CG2:4863, V-A:PRO:540:CB:4885, V-A:ILE:538:CB:4862, V-A:PRO:540:CA:4883, V-A:LEU:363:CD1:3189, V-A:TYR:539:C:4867, V-A:ILE:538:C:4858, V-A:PRO:540:N:4884, V-A:ILE:538:CA:4860, V-A:ASP:366:CG:3213, V-A:ASP:366:CB:3212, H-A:GLU:543:OE1:4909, H-B:GLY:454:N:9022, H-B:TYR:484:OH:9320, V-A:LEU:363:CA:3185, H-A:ASP:366:OD1:3214"]

$$$$
4ag_Grossjean_2025
     RDKit          3D

 22 24  0  0  0  0  0  0  0  0999 V2000
  129.7640  132.8690   53.9510 C   0  0  0  0  0  0  0  0  0  0  0  0
  130.2920  132.4180   55.3010 C   0  0  0  0  0  0  0  0  0  0  0  0
  131.5360  131.7990   55.4130 C   0  0  0  0  0  0  0  0  0  0  0  0
  132.0040  131.3910   56.6670 C   0  0  0  0  0  0  0  0  0  0  0  0
  133.3670  130.7200   56.7390 C   0  0  0  0  0  0  0  0  0  0  0  0
  131.1750  131.6320   57.7950 C   0  0  0  0  0  0  0  0  0  0  0  0
  131.3380  131.3510   59.1950 C   0  0  0  0  0  0  0  0  0  0  0  0
  132.4600  130.7370   59.6950 N   0  0  0  0  0  0  0  0  0  0  0  0
  130.2550  131.7590   59.9880 C   0  0  0  0  0  0  0  0  0  0  0  0
  130.0930  131.6400   61.4370 C   0  0  0  0  0  0  0  0  0  0  0  0
  131.0440  131.8030   62.2050 O   0  0  0  0  0  0  0  0  0  0  0  0
  128.8550  131.3250   61.8730 N   0  0  0  0  0  0  0  0  0  0  0  0
  128.4610  131.1820   63.2730 C   0  0  0  0  0  0  0  0  0  0  0  0
  127.0700  130.5890   63.4670 C   0  0  0  0  0  0  0  0  0  0  0  0
  126.8940  129.4880   64.3100 C   0  0  0  0  0  0  0  0  0  0  0  0
  125.6210  128.9600   64.5080 C   0  0  0  0  0  0  0  0  0  0  0  0
  124.5260  129.5420   63.8730 C   0  0  0  0  0  0  0  0  0  0  0  0
  124.6910  130.6490   63.0440 C   0  0  0  0  0  0  0  0  0  0  0  0
  125.9640  131.1770   62.8460 C   0  0  0  0  0  0  0  0  0  0  0  0
  128.9970  132.5170   59.0110 S   0  0  0  0  0  0  0  0  0  0  0  0
  129.9250  132.2750   57.5470 C   0  0  0  0  0  0  0  0  0  0  0  0
  129.4760  132.6660   56.3530 N   0  0  0  0  0  0  0  0  0  0  0  0
  1  2  1  0
  2  3  2  0
  3  4  1  0
  4  5  1  0
  4  6  2  0
  6  7  1  0
  7  8  1  0
  7  9  2  0
  9 10  1  0
 10 11  2  0
 10 12  1  0
 12 13  1  0
 13 14  1  0
 14 15  2  0
 15 16  1  0
 16 17  2  0
 17 18  1  0
 18 19  2  0
  9 20  1  0
 20 21  1  0
 21 22  2  0
 22  2  1  0
 21  6  1  0
 19 14  1  0
M  END
>  <Binding energies>  (43) 
[-7.29]

>  <Ligand effiencies>  (43) 
[-0.2916]

>  <Interactions>  (43) 
["V-B:ARG:545:CZ:9898, V-A:TYR:531:CZ:4794, V-A:ILE:538:CG2:4863, V-A:PRO:540:CB:4885, V-A:ILE:538:CB:4862, V-A:PRO:540:CA:4883, V-A:LEU:363:CD1:3189, V-A:TYR:539:CD2:4874, V-A:TYR:539:C:4867, V-A:ILE:538:C:4858, V-A:PRO:540:N:4884, V-A:ILE:538:CA:4860, V-A:TYR:531:CE2:4793, V-A:ASP:366:CG:3213, V-A:ASP:366:CB:3212, V-A:ALA:541:CB:4892, H-A:GLU:543:OE1:4909, V-A:GLU:543:CD:4908, H-A:TYR:539:N:4870, H-A:ALA:541:N:4891, V-A:GLU:543:CG:4907, H-A:ASP:366:OD1:3214"]

$$$$
4ah_Grossjean_2025
     RDKit          3D

 28 30  0  0  0  0  0  0  0  0999 V2000
  124.1340  129.5580   66.2480 C   0  0  0  0  0  0  0  0  0  0  0  0
  124.0860  129.5420   64.8260 O   0  0  0  0  0  0  0  0  0  0  0  0
  125.2650  129.6170   64.1050 C   0  0  0  0  0  0  0  0  0  0  0  0
  126.1600  128.5460   63.9540 C   0  0  0  0  0  0  0  0  0  0  0  0
  127.3330  128.6940   63.2130 C   0  0  0  0  0  0  0  0  0  0  0  0
  128.2700  127.5060   63.0220 C   0  0  0  0  0  0  0  0  0  0  0  0
  127.9620  126.7030   61.8380 N   0  0  0  0  0  0  0  0  0  0  0  0
  128.4620  125.4780   61.5740 C   0  0  0  0  0  0  0  0  0  0  0  0
  129.2780  124.9200   62.3090 O   0  0  0  0  0  0  0  0  0  0  0  0
  128.0100  124.8560   60.3290 C   0  0  0  0  0  0  0  0  0  0  0  0
  129.1610  124.5290   59.0330 S   0  0  0  0  0  0  0  0  0  0  0  0
  127.8930  123.8900   58.0090 C   0  0  0  0  0  0  0  0  0  0  0  0
  128.1410  123.4280   56.7840 N   0  0  0  0  0  0  0  0  0  0  0  0
  127.0720  122.9590   56.0960 C   0  0  0  0  0  0  0  0  0  0  0  0
  127.3760  122.4410   54.7020 C   0  0  0  0  0  0  0  0  0  0  0  0
  125.7740  122.9410   56.6010 C   0  0  0  0  0  0  0  0  0  0  0  0
  125.5150  123.4290   57.8870 C   0  0  0  0  0  0  0  0  0  0  0  0
  124.0820  123.3890   58.3940 C   0  0  0  0  0  0  0  0  0  0  0  0
  126.6120  123.9310   58.6390 C   0  0  0  0  0  0  0  0  0  0  0  0
  126.7060  124.4980   59.9570 C   0  0  0  0  0  0  0  0  0  0  0  0
  125.6100  124.6580   60.7670 N   0  0  0  0  0  0  0  0  0  0  0  0
  127.6050  129.9130   62.5910 C   0  0  0  0  0  0  0  0  0  0  0  0
  126.7310  131.0030   62.7290 C   0  0  0  0  0  0  0  0  0  0  0  0
  126.9460  132.2420   62.1540 O   0  0  0  0  0  0  0  0  0  0  0  0
  128.2320  132.5530   61.6280 C   0  0  0  0  0  0  0  0  0  0  0  0
  125.5670  130.8430   63.4940 C   0  0  0  0  0  0  0  0  0  0  0  0
  124.6930  131.8960   63.6230 O   0  0  0  0  0  0  0  0  0  0  0  0
  123.9240  132.1540   62.4560 C   0  0  0  0  0  0  0  0  0  0  0  0
  1  2  1  0
  2  3  1  0
  3  4  2  0
  4  5  1  0
  5  6  1  0
  6  7  1  0
  7  8  1  0
  8  9  2  0
  8 10  1  0
 10 11  1  0
 11 12  1  0
 12 13  2  0
 13 14  1  0
 14 15  1  0
 14 16  2  0
 16 17  1  0
 17 18  1  0
 17 19  2  0
 19 20  1  0
 20 21  1  0
  5 22  2  0
 22 23  1  0
 23 24  1  0
 24 25  1  0
 23 26  2  0
 26 27  1  0
 27 28  1  0
 26  3  1  0
 20 10  2  0
 19 12  1  0
M  END
>  <Binding energies>  (44) 
[-6.47]

>  <Ligand effiencies>  (44) 
[-0.20870967741935484]

>  <Interactions>  (44) 
["V-B:TYR:539:CZ:9849, V-B:PRO:540:N:9856, V-B:PRO:540:CD:9859, V-B:PRO:540:CB:9857, V-B:PRO:540:CA:9855, V-B:LEU:363:CD1:8161, V-B:ASP:366:CG:8185, V-B:ARG:545:CZ:9898, V-B:LEU:475:CD2:9231, V-B:GLY:454:CA:9021, V-B:ILE:369:CD1:8211, V-B:MET:535:CE:9807, V-B:TYR:539:CE1:9847, V-B:TYR:539:CD1:9845, V-B:ILE:538:CD1:9837, V-B:ILE:538:CA:9832, V-A:ALA:541:CB:4892, V-A:GLU:543:CD:4908, H-B:ASP:366:OD2:8187, V-B:GLU:543:CD:9880, H-B:GLU:543:OE1:9881, H-B:ARG:545:NH2:9900, H-B:GLY:454:N:9022, V-B:ARG:545:CD:9895, H-B:TYR:484:OH:9320, V-B:ILE:538:C:9830, V-B:VAL:537:C:9822, V-B:ARG:545:CG:9894, V-B:HIS:456:CE1:9042, V-B:TYR:484:CZ:9319, V-B:TYR:484:CE1:9317, H-B:ARG:545:NH1:9899, V-B:PRO:540:CG:9858, V-B:LEU:363:CA:8157, V-B:LEU:363:CB:8159, H-B:ARG:545:NE:9896"]

$$$$
4ai_Grossjean_2025
     RDKit          3D

 20 22  0  0  0  0  0  0  0  0999 V2000
  133.1960  125.0450   64.1700 C   0  0  0  0  0  0  0  0  0  0  0  0
  132.7180  124.8870   62.7380 C   0  0  0  0  0  0  0  0  0  0  0  0
  133.6250  124.7110   61.6950 C   0  0  0  0  0  0  0  0  0  0  0  0
  133.1610  124.5610   60.3830 C   0  0  0  0  0  0  0  0  0  0  0  0
  134.1900  124.3690   59.2790 C   0  0  0  0  0  0  0  0  0  0  0  0
  131.7570  124.5960   60.1670 C   0  0  0  0  0  0  0  0  0  0  0  0
  130.9560  124.4770   58.9790 C   0  0  0  0  0  0  0  0  0  0  0  0
  131.5100  124.2980   57.7360 N   0  0  0  0  0  0  0  0  0  0  0  0
  129.5740  124.5560   59.2120 C   0  0  0  0  0  0  0  0  0  0  0  0
  128.4800  124.4850   58.2410 C   0  0  0  0  0  0  0  0  0  0  0  0
  128.1530  125.4780   57.5890 O   0  0  0  0  0  0  0  0  0  0  0  0
  127.8920  123.2680   58.1160 N   0  0  0  0  0  0  0  0  0  0  0  0
  126.8480  122.9180   57.2700 C   0  0  0  0  0  0  0  0  0  0  0  0
  125.5590  123.4340   57.3970 C   0  0  0  0  0  0  0  0  0  0  0  0
  124.8350  122.8440   56.3870 C   0  0  0  0  0  0  0  0  0  0  0  0
  125.6460  122.0170   55.6860 O   0  0  0  0  0  0  0  0  0  0  0  0
  126.9200  122.0730   56.2540 N   0  0  0  0  0  0  0  0  0  0  0  0
  129.2310  124.8070   60.9250 S   0  0  0  0  0  0  0  0  0  0  0  0
  130.9350  124.7830   61.3190 C   0  0  0  0  0  0  0  0  0  0  0  0
  131.3730  124.9270   62.5710 N   0  0  0  0  0  0  0  0  0  0  0  0
  1  2  1  0
  2  3  2  0
  3  4  1  0
  4  5  1  0
  4  6  2  0
  6  7  1  0
  7  8  1  0
  7  9  2  0
  9 10  1  0
 10 11  2  0
 10 12  1  0
 12 13  1  0
 13 14  1  0
 14 15  2  0
 15 16  1  0
 16 17  1  0
  9 18  1  0
 18 19  1  0
 19 20  2  0
 20  2  1  0
 19  6  1  0
 17 13  2  0
M  END
>  <Binding energies>  (45) 
[-6.57]

>  <Ligand effiencies>  (45) 
[-0.2856521739130435]

>  <Interactions>  (45) 
["V-B:TYR:539:CZ:9849, V-B:TYR:539:C:9839, V-B:PRO:540:N:9856, V-B:PRO:540:CD:9859, H-A:TYR:484:OH:4348, V-B:PRO:540:CB:9857, V-B:LEU:363:CD1:8161, V-B:TYR:539:CE2:9848, V-B:TYR:539:CD2:9846, V-B:TYR:531:CZ:9766, V-B:TYR:531:CE2:9765, V-A:ASP:366:CG:3213, V-B:ILE:538:CD1:9837, V-B:ILE:538:CG2:9835, V-A:ASP:366:CA:3210, V-A:ASP:366:CB:3212, H-B:TYR:539:OH:9850, V-A:ILE:369:CG2:3237, V-A:TYR:484:CZ:4347, V-A:ILE:369:CD1:3239, V-A:ARG:545:CZ:4926, V-A:TYR:484:CE2:4346, H-B:TYR:539:N:9842, V-A:ILE:369:CB:3236, V-A:ILE:369:CG1:3238, H-B:TYR:539:O:9840"]

$$$$
4aj_Grossjean_2025
     RDKit          3D

 20 22  0  0  0  0  0  0  0  0999 V2000
  126.4280  122.4340   54.6180 C   0  0  0  0  0  0  0  0  0  0  0  0
  126.3630  122.7990   56.0900 C   0  0  0  0  0  0  0  0  0  0  0  0
  125.1540  123.1430   56.6900 C   0  0  0  0  0  0  0  0  0  0  0  0
  125.1180  123.4820   58.0480 C   0  0  0  0  0  0  0  0  0  0  0  0
  123.7730  123.8500   58.6560 C   0  0  0  0  0  0  0  0  0  0  0  0
  126.3400  123.4590   58.7700 C   0  0  0  0  0  0  0  0  0  0  0  0
  126.6610  123.7450   60.1430 C   0  0  0  0  0  0  0  0  0  0  0  0
  125.7090  124.1290   61.0520 N   0  0  0  0  0  0  0  0  0  0  0  0
  128.0210  123.5890   60.4540 C   0  0  0  0  0  0  0  0  0  0  0  0
  128.6910  123.8030   61.7390 C   0  0  0  0  0  0  0  0  0  0  0  0
  128.3590  123.1620   62.7380 O   0  0  0  0  0  0  0  0  0  0  0  0
  129.6840  124.7270   61.7290 N   0  0  0  0  0  0  0  0  0  0  0  0
  130.4790  125.1070   62.8020 C   0  0  0  0  0  0  0  0  0  0  0  0
  130.0890  125.5070   63.9940 N   0  0  0  0  0  0  0  0  0  0  0  0
  131.1170  125.7860   64.7720 C   0  0  0  0  0  0  0  0  0  0  0  0
  132.3790  125.6140   64.2090 C   0  0  0  0  0  0  0  0  0  0  0  0
  132.1960  125.0540   62.5730 S   0  0  0  0  0  0  0  0  0  0  0  0
  128.9470  123.0950   59.0360 S   0  0  0  0  0  0  0  0  0  0  0  0
  127.5100  123.0870   58.0400 C   0  0  0  0  0  0  0  0  0  0  0  0
  127.5480  122.7650   56.7470 N   0  0  0  0  0  0  0  0  0  0  0  0
  1  2  1  0
  2  3  2  0
  3  4  1  0
  4  5  1  0
  4  6  2  0
  6  7  1  0
  7  8  1  0
  7  9  2  0
  9 10  1  0
 10 11  2  0
 10 12  1  0
 12 13  1  0
 13 14  2  0
 14 15  1  0
 15 16  2  0
 16 17  1  0
  9 18  1  0
 18 19  1  0
 19 20  2  0
 20  2  1  0
 19  6  1  0
 17 13  1  0
M  END
>  <Binding energies>  (46) 
[-6.39]

>  <Ligand effiencies>  (46) 
[-0.2778260869565217]

>  <Interactions>  (46) 
["V-B:TYR:539:C:9839, V-B:PRO:540:N:9856, H-A:TYR:484:OH:4348, V-B:PRO:540:CB:9857, V-B:PRO:540:CA:9855, V-B:LEU:363:CD1:8161, V-B:TYR:539:CE2:9848, V-B:TYR:539:CD2:9846, V-B:ASP:366:CG:8185, V-B:ASP:366:CB:8184, V-B:MET:535:CE:9807, V-B:TYR:531:CZ:9766, V-B:TYR:531:CE2:9765, V-B:ILE:538:CD1:9837, V-B:ILE:538:CA:9832, V-A:GLU:543:CD:4908, H-B:ASP:366:OD2:8187, V-B:GLU:543:CD:9880, H-B:GLU:543:OE1:9881, V-A:TYR:484:CZ:4347, V-A:ARG:545:CZ:4926, V-A:TYR:484:CE2:4346, V-B:ILE:538:C:9830, V-B:VAL:537:C:9822, H-B:TYR:539:N:9842, V-B:ILE:538:CB:9834, V-B:ILE:538:CG1:9836, V-B:LEU:363:CA:8157, V-B:LEU:363:CB:8159"]

$$$$
4ak_Grossjean_2025
     RDKit          3D

 25 26  0  0  0  0  0  0  0  0999 V2000
  128.1550  128.8000   55.0990 C   0  0  0  0  0  0  0  0  0  0  0  0
  126.8230  129.2790   54.9870 O   0  0  0  0  0  0  0  0  0  0  0  0
  126.6380  130.5720   55.5490 C   0  0  0  0  0  0  0  0  0  0  0  0
  127.8930  131.4200   55.3060 C   0  0  0  0  0  0  0  0  0  0  0  0
  127.9260  131.8330   53.9460 O   0  0  0  0  0  0  0  0  0  0  0  0
  128.8850  132.8480   53.6780 C   0  0  0  0  0  0  0  0  0  0  0  0
  130.2940  132.2890   53.9140 C   0  0  0  0  0  0  0  0  0  0  0  0
  130.8530  132.8970   55.0700 O   0  0  0  0  0  0  0  0  0  0  0  0
  132.2140  132.5540   55.2990 C   0  0  0  0  0  0  0  0  0  0  0  0
  132.3220  131.7490   56.6070 C   0  0  0  0  0  0  0  0  0  0  0  0
  131.2040  131.9680   57.5240 N   0  0  0  0  0  0  0  0  0  0  0  0
  131.0930  131.4370   58.7590 C   0  0  0  0  0  0  0  0  0  0  0  0
  131.9620  130.7130   59.2480 O   0  0  0  0  0  0  0  0  0  0  0  0
  129.8780  131.7770   59.4980 C   0  0  0  0  0  0  0  0  0  0  0  0
  128.5090  132.5160   58.6680 S   0  0  0  0  0  0  0  0  0  0  0  0
  127.5780  132.5640   60.1480 C   0  0  0  0  0  0  0  0  0  0  0  0
  126.3420  133.0630   60.1880 N   0  0  0  0  0  0  0  0  0  0  0  0
  125.7320  133.0430   61.3990 C   0  0  0  0  0  0  0  0  0  0  0  0
  124.3260  133.6130   61.4240 C   0  0  0  0  0  0  0  0  0  0  0  0
  126.3230  132.5410   62.5560 C   0  0  0  0  0  0  0  0  0  0  0  0
  127.6200  132.0180   62.5110 C   0  0  0  0  0  0  0  0  0  0  0  0
  128.2240  131.4850   63.8010 C   0  0  0  0  0  0  0  0  0  0  0  0
  128.2920  132.0230   61.2590 C   0  0  0  0  0  0  0  0  0  0  0  0
  129.5990  131.5750   60.8590 C   0  0  0  0  0  0  0  0  0  0  0  0
  130.4830  131.0080   61.7420 N   0  0  0  0  0  0  0  0  0  0  0  0
  1  2  1  0
  2  3  1  0
  3  4  1  0
  4  5  1  0
  5  6  1  0
  6  7  1  0
  7  8  1  0
  8  9  1  0
  9 10  1  0
 10 11  1  0
 11 12  1  0
 12 13  2  0
 12 14  1  0
 14 15  1  0
 15 16  1  0
 16 17  2  0
 17 18  1  0
 18 19  1  0
 18 20  2  0
 20 21  1  0
 21 22  1  0
 21 23  2  0
 23 24  1  0
 24 25  1  0
 24 14  2  0
 23 16  1  0
M  END
>  <Binding energies>  (47) 
[-6.41]

>  <Ligand effiencies>  (47) 
[-0.22892857142857143]

>  <Interactions>  (47) 
["V-A:ILE:538:CG2:4863, V-A:PRO:540:CB:4885, V-A:PRO:540:CD:4887, V-A:TYR:539:CE1:4875, V-A:TYR:539:CD1:4873, V-A:ILE:538:CB:4862, V-A:TYR:539:CZ:4877, V-A:PRO:540:CA:4883, V-B:LEU:475:CD2:9231, V-A:LEU:363:CD1:3189, V-A:TYR:539:CE2:4876, V-A:TYR:539:CD2:4874, V-B:ILE:369:CD1:8211, V-A:TYR:539:C:4867, V-A:ILE:538:C:4858, V-A:PRO:540:N:4884, V-A:ILE:538:CA:4860, V-B:MET:535:CE:9807, V-A:TYR:531:CE2:4793, V-A:ALA:541:CB:4892, H-A:TYR:539:O:4868, H-A:GLU:543:OE1:4909, V-A:GLU:543:CD:4908, H-A:TYR:539:N:4870, H-B:LYS:534:NZ:9795, V-A:GLU:543:CG:4907, V-B:TYR:484:CE2:9318, V-B:TYR:484:CZ:9319, H-A:ASP:366:OD1:3214"]

$$$$
4al_Grossjean_2025
     RDKit          3D

 16 17  0  0  0  0  0  0  0  0999 V2000
  129.6980  124.5970   62.7300 C   0  0  0  0  0  0  0  0  0  0  0  0
  129.3260  123.3220   62.2260 O   0  0  0  0  0  0  0  0  0  0  0  0
  128.0180  122.9710   62.1140 C   0  0  0  0  0  0  0  0  0  0  0  0
  127.2940  122.6930   63.0730 O   0  0  0  0  0  0  0  0  0  0  0  0
  127.5440  122.9560   60.7130 C   0  0  0  0  0  0  0  0  0  0  0  0
  128.6290  122.4350   59.4210 S   0  0  0  0  0  0  0  0  0  0  0  0
  127.3880  122.6990   58.2170 C   0  0  0  0  0  0  0  0  0  0  0  0
  127.6030  122.4680   56.9220 N   0  0  0  0  0  0  0  0  0  0  0  0
  126.5580  122.7130   56.0920 C   0  0  0  0  0  0  0  0  0  0  0  0
  126.8230  122.4430   54.6220 C   0  0  0  0  0  0  0  0  0  0  0  0
  125.3190  123.1800   56.5240 C   0  0  0  0  0  0  0  0  0  0  0  0
  125.0970  123.4220   57.8840 C   0  0  0  0  0  0  0  0  0  0  0  0
  123.7280  123.9310   58.3070 C   0  0  0  0  0  0  0  0  0  0  0  0
  126.1690  123.1760   58.7840 C   0  0  0  0  0  0  0  0  0  0  0  0
  126.2880  123.3130   60.2090 C   0  0  0  0  0  0  0  0  0  0  0  0
  125.2570  123.7540   60.9970 N   0  0  0  0  0  0  0  0  0  0  0  0
  1  2  1  0
  2  3  1  0
  3  4  2  0
  3  5  1  0
  5  6  1  0
  6  7  1  0
  7  8  2  0
  8  9  1  0
  9 10  1  0
  9 11  2  0
 11 12  1  0
 12 13  1  0
 12 14  2  0
 14 15  1  0
 15 16  1  0
 15  5  2  0
 14  7  1  0
M  END
>  <Binding energies>  (48) 
[-6.08]

>  <Ligand effiencies>  (48) 
[-0.3377777777777778]

>  <Interactions>  (48) 
["V-B:TYR:539:C:9839, V-B:PRO:540:N:9856, H-A:TYR:484:OH:4348, V-B:PRO:540:CB:9857, V-B:PRO:540:CA:9855, V-B:ALA:541:CB:9864, V-B:LEU:363:CD1:8161, V-B:TYR:539:CE2:9848, V-B:TYR:539:CD2:9846, V-B:ASP:366:CG:8185, V-B:ASP:366:CB:8184, V-B:MET:535:CE:9807, V-B:TYR:531:CZ:9766, V-B:TYR:531:CE2:9765, V-B:TYR:539:CE1:9847, V-B:TYR:539:CD1:9845, V-B:ILE:538:CD1:9837, V-B:ILE:538:CA:9832, H-B:ASP:366:OD2:8187, V-B:GLU:543:CD:9880, H-B:GLU:543:OE1:9881, H-B:ALA:541:N:9863, V-B:GLU:543:CG:9879, V-B:ILE:538:C:9830, V-B:VAL:537:C:9822, H-B:TYR:539:N:9842, V-B:ILE:538:CB:9834, V-B:LEU:363:CA:8157, V-B:LEU:363:CB:8159"]

$$$$
4bc_Grossjean_2025
     RDKit          3D

 26 28  0  0  0  0  0  0  0  0999 V2000
  123.9090  129.5640   66.9660 C   0  0  0  0  0  0  0  0  0  0  0  0
  124.9670  128.7190   66.5250 O   0  0  0  0  0  0  0  0  0  0  0  0
  125.7500  129.1200   65.4600 C   0  0  0  0  0  0  0  0  0  0  0  0
  125.0750  129.5330   64.3120 C   0  0  0  0  0  0  0  0  0  0  0  0
  125.7800  129.9550   63.1870 C   0  0  0  0  0  0  0  0  0  0  0  0
  127.1760  129.9770   63.2010 C   0  0  0  0  0  0  0  0  0  0  0  0
  127.8020  130.4020   62.0150 N   0  0  0  0  0  0  0  0  0  0  0  0
  128.8630  131.2300   61.8550 C   0  0  0  0  0  0  0  0  0  0  0  0
  129.4440  131.7900   62.7860 O   0  0  0  0  0  0  0  0  0  0  0  0
  129.2950  131.4410   60.4700 C   0  0  0  0  0  0  0  0  0  0  0  0
  128.2350  132.2610   59.3250 S   0  0  0  0  0  0  0  0  0  0  0  0
  129.4140  132.0950   58.0450 C   0  0  0  0  0  0  0  0  0  0  0  0
  129.1790  132.5640   56.8200 N   0  0  0  0  0  0  0  0  0  0  0  0
  130.1650  132.3750   55.9130 C   0  0  0  0  0  0  0  0  0  0  0  0
  129.8810  132.9210   54.5260 C   0  0  0  0  0  0  0  0  0  0  0  0
  131.3690  131.7340   56.1990 C   0  0  0  0  0  0  0  0  0  0  0  0
  131.6200  131.2380   57.4880 C   0  0  0  0  0  0  0  0  0  0  0  0
  132.9580  130.5380   57.7540 C   0  0  0  0  0  0  0  0  0  0  0  0
  133.6090  131.0400   58.8050 F   0  0  0  0  0  0  0  0  0  0  0  0
  132.7480  129.2440   57.9940 F   0  0  0  0  0  0  0  0  0  0  0  0
  133.7540  130.6660   56.6920 F   0  0  0  0  0  0  0  0  0  0  0  0
  130.6010  131.4230   58.4690 C   0  0  0  0  0  0  0  0  0  0  0  0
  130.5030  131.0630   59.8630 C   0  0  0  0  0  0  0  0  0  0  0  0
  131.5070  130.4100   60.5310 N   0  0  0  0  0  0  0  0  0  0  0  0
  127.8630  129.5500   64.3470 C   0  0  0  0  0  0  0  0  0  0  0  0
  127.1550  129.1290   65.4690 C   0  0  0  0  0  0  0  0  0  0  0  0
  1  2  1  0
  2  3  1  0
  3  4  2  0
  4  5  1  0
  5  6  2  0
  6  7  1  0
  7  8  1  0
  8  9  2  0
  8 10  1  0
 10 11  1  0
 11 12  1  0
 12 13  2  0
 13 14  1  0
 14 15  1  0
 14 16  2  0
 16 17  1  0
 17 18  1  0
 18 19  1  0
 18 20  1  0
 18 21  1  0
 17 22  2  0
 22 23  1  0
 23 24  1  0
  6 25  1  0
 25 26  2  0
 26  3  1  0
 23 10  2  0
 22 12  1  0
M  END
>  <Binding energies>  (49) 
[-6.62]

>  <Ligand effiencies>  (49) 
[-0.22827586206896552]

>  <Interactions>  (49) 
["V-B:ARG:545:CZ:9898, V-A:TYR:531:CZ:4794, V-A:ILE:538:CG2:4863, V-A:PRO:540:CB:4885, V-A:ILE:538:CB:4862, V-A:PRO:540:CA:4883, V-A:LEU:363:CD1:3189, V-A:TYR:539:CD2:4874, V-A:TYR:539:C:4867, V-A:ILE:538:C:4858, V-A:PRO:540:N:4884, V-A:ILE:538:CA:4860, V-A:TYR:531:CE2:4793, V-A:ASP:366:CG:3213, V-A:ASP:366:CB:3212, H-A:GLU:543:OE1:4909, V-A:GLU:543:CD:4908, V-B:ARG:545:CD:9895, H-B:TYR:484:OH:9320, V-A:GLU:543:CG:4907, V-A:ASN:362:C:3172, V-A:LEU:363:CA:3185, V-B:ARG:545:CG:9894, V-B:HIS:456:CE1:9042, V-B:TYR:484:CZ:9319, V-B:TYR:484:CE1:9317, H-A:ASP:366:OD1:3214, H-B:ARG:545:NE:9896"]

$$$$
4bf_Grossjean_2025
     RDKit          3D

 24 26  0  0  0  0  0  0  0  0999 V2000
  129.5290  132.8920   54.6780 C   0  0  0  0  0  0  0  0  0  0  0  0
  129.8380  132.3530   56.0640 C   0  0  0  0  0  0  0  0  0  0  0  0
  131.0790  131.7910   56.3550 C   0  0  0  0  0  0  0  0  0  0  0  0
  131.3500  131.2940   57.6390 C   0  0  0  0  0  0  0  0  0  0  0  0
  132.7280  130.6830   57.9110 C   0  0  0  0  0  0  0  0  0  0  0  0
  133.2650  131.0970   59.0620 F   0  0  0  0  0  0  0  0  0  0  0  0
  132.6300  129.3550   57.9730 F   0  0  0  0  0  0  0  0  0  0  0  0
  133.5720  131.0170   56.9350 F   0  0  0  0  0  0  0  0  0  0  0  0
  130.3090  131.3920   58.6100 C   0  0  0  0  0  0  0  0  0  0  0  0
  130.2190  130.9990   59.9950 C   0  0  0  0  0  0  0  0  0  0  0  0
  131.2580  130.4020   60.6630 N   0  0  0  0  0  0  0  0  0  0  0  0
  128.9810  131.2860   60.5940 C   0  0  0  0  0  0  0  0  0  0  0  0
  128.5400  130.9970   61.9620 C   0  0  0  0  0  0  0  0  0  0  0  0
  129.2460  131.2970   62.9250 O   0  0  0  0  0  0  0  0  0  0  0  0
  127.3240  130.4070   62.0670 N   0  0  0  0  0  0  0  0  0  0  0  0
  126.6410  129.9600   63.2140 C   0  0  0  0  0  0  0  0  0  0  0  0
  127.2010  129.1880   64.2470 C   0  0  0  0  0  0  0  0  0  0  0  0
  126.4050  128.7970   65.3270 C   0  0  0  0  0  0  0  0  0  0  0  0
  125.0650  129.1840   65.3440 C   0  0  0  0  0  0  0  0  0  0  0  0
  124.4990  129.9220   64.3560 N   0  0  0  0  0  0  0  0  0  0  0  0
  125.2850  130.2950   63.3130 C   0  0  0  0  0  0  0  0  0  0  0  0
  127.8820  132.0520   59.4500 S   0  0  0  0  0  0  0  0  0  0  0  0
  129.0840  131.9900   58.1820 C   0  0  0  0  0  0  0  0  0  0  0  0
  128.8310  132.4620   56.9620 N   0  0  0  0  0  0  0  0  0  0  0  0
  1  2  1  0
  2  3  2  0
  3  4  1  0
  4  5  1  0
  5  6  1  0
  5  7  1  0
  5  8  1  0
  4  9  2  0
  9 10  1  0
 10 11  1  0
 10 12  2  0
 12 13  1  0
 13 14  2  0
 13 15  1  0
 15 16  1  0
 16 17  2  0
 17 18  1  0
 18 19  2  0
 19 20  1  0
 20 21  2  0
 12 22  1  0
 22 23  1  0
 23 24  2  0
 24  2  1  0
 23  9  1  0
 21 16  1  0
M  END
>  <Binding energies>  (50) 
[-6.47]

>  <Ligand effiencies>  (50) 
[-0.2396296296296296]

>  <Interactions>  (50) 
["V-B:ARG:545:CZ:9898, V-A:TYR:531:CZ:4794, V-A:PRO:540:CB:4885, V-A:ILE:538:CB:4862, V-A:PRO:540:CA:4883, V-A:LEU:363:CD1:3189, V-A:TYR:539:CE2:4876, V-A:TYR:539:CD2:4874, V-A:TYR:539:C:4867, V-A:ILE:538:C:4858, V-A:PRO:540:N:4884, V-A:ILE:538:CA:4860, V-A:ASP:366:CG:3213, V-A:ASP:366:CB:3212, H-A:GLU:543:OE1:4909, V-B:GLU:543:CD:9880, H-B:GLY:454:N:9022, V-B:ARG:545:CD:9895, H-B:TYR:484:OH:9320, V-A:LEU:363:CA:3185, H-A:ASP:366:OD1:3214"]

$$$$
4bh_Grossjean_2025
     RDKit          3D

 31 33  0  0  0  0  0  0  0  0999 V2000
  126.4760  127.2890   67.4370 C   0  0  0  0  0  0  0  0  0  0  0  0
  125.5530  128.2640   66.9630 O   0  0  0  0  0  0  0  0  0  0  0  0
  125.7120  128.7880   65.6940 C   0  0  0  0  0  0  0  0  0  0  0  0
  126.9350  128.8230   65.0070 C   0  0  0  0  0  0  0  0  0  0  0  0
  127.0230  129.3710   63.7270 C   0  0  0  0  0  0  0  0  0  0  0  0
  128.3510  129.3590   62.9790 C   0  0  0  0  0  0  0  0  0  0  0  0
  128.8380  128.0130   62.6750 N   0  0  0  0  0  0  0  0  0  0  0  0
  128.2250  127.1230   61.8670 C   0  0  0  0  0  0  0  0  0  0  0  0
  127.1440  127.3560   61.3240 O   0  0  0  0  0  0  0  0  0  0  0  0
  128.8980  125.8340   61.7030 C   0  0  0  0  0  0  0  0  0  0  0  0
  127.9500  124.3630   61.5070 S   0  0  0  0  0  0  0  0  0  0  0  0
  129.3990  123.3880   61.4350 C   0  0  0  0  0  0  0  0  0  0  0  0
  129.3390  122.0660   61.2760 N   0  0  0  0  0  0  0  0  0  0  0  0
  130.5270  121.4200   61.2330 C   0  0  0  0  0  0  0  0  0  0  0  0
  130.4370  119.9140   61.0540 C   0  0  0  0  0  0  0  0  0  0  0  0
  131.7610  122.0560   61.3410 C   0  0  0  0  0  0  0  0  0  0  0  0
  131.8290  123.4480   61.5100 C   0  0  0  0  0  0  0  0  0  0  0  0
  133.2090  124.1050   61.6220 C   0  0  0  0  0  0  0  0  0  0  0  0
  134.2090  123.2210   61.6550 F   0  0  0  0  0  0  0  0  0  0  0  0
  133.4160  124.9010   60.5740 F   0  0  0  0  0  0  0  0  0  0  0  0
  133.2760  124.8250   62.7420 F   0  0  0  0  0  0  0  0  0  0  0  0
  130.5950  124.1600   61.5630 C   0  0  0  0  0  0  0  0  0  0  0  0
  130.2740  125.5560   61.7290 C   0  0  0  0  0  0  0  0  0  0  0  0
  131.2310  126.5250   61.8890 N   0  0  0  0  0  0  0  0  0  0  0  0
  125.8720  129.8640   63.1100 C   0  0  0  0  0  0  0  0  0  0  0  0
  124.6360  129.8490   63.7750 C   0  0  0  0  0  0  0  0  0  0  0  0
  123.4600  130.3330   63.2310 O   0  0  0  0  0  0  0  0  0  0  0  0
  123.3200  130.3940   61.8160 C   0  0  0  0  0  0  0  0  0  0  0  0
  124.5710  129.3130   65.0700 C   0  0  0  0  0  0  0  0  0  0  0  0
  123.3630  129.2760   65.7260 O   0  0  0  0  0  0  0  0  0  0  0  0
  123.3770  129.9100   66.9970 C   0  0  0  0  0  0  0  0  0  0  0  0
  1  2  1  0
  2  3  1  0
  3  4  2  0
  4  5  1  0
  5  6  1  0
  6  7  1  0
  7  8  1  0
  8  9  2  0
  8 10  1  0
 10 11  1  0
 11 12  1  0
 12 13  2  0
 13 14  1  0
 14 15  1  0
 14 16  2  0
 16 17  1  0
 17 18  1  0
 18 19  1  0
 18 20  1  0
 18 21  1  0
 17 22  2  0
 22 23  1  0
 23 24  1  0
  5 25  2  0
 25 26  1  0
 26 27  1  0
 27 28  1  0
 26 29  2  0
 29 30  1  0
 30 31  1  0
 29  3  1  0
 23 10  2  0
 22 12  1  0
M  END
>  <Binding energies>  (51) 
[-6.32]

>  <Ligand effiencies>  (51) 
[-0.18588235294117647]

>  <Interactions>  (51) 
["V-A:LEU:475:CD2:4259, V-B:TYR:539:CD2:9846, V-B:ASP:366:CG:8185, V-B:ARG:545:CZ:9898, V-B:GLY:454:CA:9021, V-B:ILE:369:CD1:8211, V-A:ASP:366:CG:3213, V-A:ASP:366:CB:3212, H-A:GLU:543:OE1:4909, V-A:GLU:543:CD:4908, V-B:GLU:543:CD:9880, V-B:GLY:453:C:9014, H-B:GLY:454:N:9022, V-A:GLY:454:CA:4049, V-A:ILE:369:CD1:3239, V-B:ARG:545:CD:9895, V-A:ARG:545:CZ:4926, V-A:GLU:543:CG:4907, V-B:GLY:453:CA:9016, V-B:ARG:545:CG:9894, V-B:HIS:456:CE1:9042, V-B:TYR:484:CZ:9319, V-B:TYR:484:CE1:9317, V-B:GLY:454:C:9019, H-B:ARG:545:NH1:9899, H-A:ASP:366:OD1:3214, H-A:ASP:366:OD2:3215, H-A:GLU:543:OE2:4910, V-A:GLY:453:C:4042, H-B:ARG:545:NE:9896, V-B:ILE:455:C:9024, V-B:GLU:543:CB:9878, H-B:HIS:456:ND1:9039"]

$$$$
4bi_Grossjean_2025
     RDKit          3D

 23 25  0  0  0  0  0  0  0  0999 V2000
  129.2820  132.9000   55.3400 C   0  0  0  0  0  0  0  0  0  0  0  0
  129.3880  132.4180   56.7760 C   0  0  0  0  0  0  0  0  0  0  0  0
  130.5620  131.8430   57.2550 C   0  0  0  0  0  0  0  0  0  0  0  0
  130.6470  131.4050   58.5870 C   0  0  0  0  0  0  0  0  0  0  0  0
  131.9620  130.7870   59.0710 C   0  0  0  0  0  0  0  0  0  0  0  0
  132.8930  130.7240   58.1160 F   0  0  0  0  0  0  0  0  0  0  0  0
  132.4640  131.5150   60.0680 F   0  0  0  0  0  0  0  0  0  0  0  0
  131.7460  129.5430   59.5000 F   0  0  0  0  0  0  0  0  0  0  0  0
  129.4890  131.5730   59.4030 C   0  0  0  0  0  0  0  0  0  0  0  0
  129.2050  131.2500   60.7800 C   0  0  0  0  0  0  0  0  0  0  0  0
  130.1220  130.6530   61.6060 N   0  0  0  0  0  0  0  0  0  0  0  0
  127.9130  131.6080   61.1990 C   0  0  0  0  0  0  0  0  0  0  0  0
  127.2920  131.4170   62.5130 C   0  0  0  0  0  0  0  0  0  0  0  0
  127.5330  132.1920   63.4410 O   0  0  0  0  0  0  0  0  0  0  0  0
  126.4450  130.3620   62.6090 N   0  0  0  0  0  0  0  0  0  0  0  0
  125.7180  129.9600   63.7220 C   0  0  0  0  0  0  0  0  0  0  0  0
  126.2410  129.1320   64.7140 C   0  0  0  0  0  0  0  0  0  0  0  0
  125.2200  128.9730   65.6240 C   0  0  0  0  0  0  0  0  0  0  0  0
  124.1390  129.6710   65.2010 O   0  0  0  0  0  0  0  0  0  0  0  0
  124.4670  130.2920   63.9940 N   0  0  0  0  0  0  0  0  0  0  0  0
  126.9960  132.3380   59.8830 S   0  0  0  0  0  0  0  0  0  0  0  0
  128.3500  132.1770   58.7890 C   0  0  0  0  0  0  0  0  0  0  0  0
  128.2750  132.5920   57.5250 N   0  0  0  0  0  0  0  0  0  0  0  0
  1  2  1  0
  2  3  2  0
  3  4  1  0
  4  5  1  0
  5  6  1  0
  5  7  1  0
  5  8  1  0
  4  9  2  0
  9 10  1  0
 10 11  1  0
 10 12  2  0
 12 13  1  0
 13 14  2  0
 13 15  1  0
 15 16  1  0
 16 17  1  0
 17 18  2  0
 18 19  1  0
 19 20  1  0
 12 21  1  0
 21 22  1  0
 22 23  2  0
 23  2  1  0
 22  9  1  0
 20 16  2  0
M  END
>  <Binding energies>  (52) 
[-6.05]

>  <Ligand effiencies>  (52) 
[-0.2326923076923077]

>  <Interactions>  (52) 
["V-B:ARG:545:CZ:9898, V-A:PRO:540:CB:4885, V-A:TYR:539:CE1:4875, V-A:TYR:539:CD1:4873, V-A:PRO:540:CA:4883, V-A:TYR:539:CE2:4876, V-A:TYR:539:CD2:4874, V-A:TYR:539:C:4867, V-A:ILE:538:C:4858, V-A:PRO:540:N:4884, V-A:ILE:538:CA:4860, V-A:TYR:539:CA:4869, V-A:TYR:539:CG:4872, V-A:ASP:366:CG:3213, V-A:ASP:366:CB:3212, H-A:GLU:543:OE1:4909, V-A:GLU:543:CD:4908, H-B:GLY:454:N:9022, V-B:ARG:545:CD:9895, H-B:TYR:484:OH:9320, V-A:GLU:543:CG:4907, H-B:ARG:545:NE:9896"]

$$$$
4bj_Grossjean_2025
     RDKit          3D

 23 25  0  0  0  0  0  0  0  0999 V2000
  129.6590  132.9130   54.5800 C   0  0  0  0  0  0  0  0  0  0  0  0
  130.0180  132.3660   55.9500 C   0  0  0  0  0  0  0  0  0  0  0  0
  131.2450  131.7460   56.1750 C   0  0  0  0  0  0  0  0  0  0  0  0
  131.5620  131.2400   57.4460 C   0  0  0  0  0  0  0  0  0  0  0  0
  132.9230  130.5630   57.6460 C   0  0  0  0  0  0  0  0  0  0  0  0
  133.7020  130.6300   56.5650 F   0  0  0  0  0  0  0  0  0  0  0  0
  133.5760  131.1520   58.6470 F   0  0  0  0  0  0  0  0  0  0  0  0
  132.7460  129.2730   57.9320 F   0  0  0  0  0  0  0  0  0  0  0  0
  130.5820  131.3930   58.4720 C   0  0  0  0  0  0  0  0  0  0  0  0
  130.5480  131.0070   59.8620 C   0  0  0  0  0  0  0  0  0  0  0  0
  131.5850  130.3500   60.4740 N   0  0  0  0  0  0  0  0  0  0  0  0
  129.3680  131.3710   60.5290 C   0  0  0  0  0  0  0  0  0  0  0  0
  128.9970  131.1300   61.9260 C   0  0  0  0  0  0  0  0  0  0  0  0
  129.4430  131.8420   62.8290 O   0  0  0  0  0  0  0  0  0  0  0  0
  128.1390  130.1010   62.1320 N   0  0  0  0  0  0  0  0  0  0  0  0
  127.6270  129.6730   63.3490 C   0  0  0  0  0  0  0  0  0  0  0  0
  128.2380  129.6270   64.5120 N   0  0  0  0  0  0  0  0  0  0  0  0
  127.4450  129.1710   65.4600 C   0  0  0  0  0  0  0  0  0  0  0  0
  126.1520  128.8330   65.0710 C   0  0  0  0  0  0  0  0  0  0  0  0
  125.9790  129.1300   63.3670 S   0  0  0  0  0  0  0  0  0  0  0  0
  128.2460  132.1870   59.4430 S   0  0  0  0  0  0  0  0  0  0  0  0
  129.3670  132.0520   58.1090 C   0  0  0  0  0  0  0  0  0  0  0  0
  129.0700  132.5290   56.9010 N   0  0  0  0  0  0  0  0  0  0  0  0
  1  2  1  0
  2  3  2  0
  3  4  1  0
  4  5  1  0
  5  6  1  0
  5  7  1  0
  5  8  1  0
  4  9  2  0
  9 10  1  0
 10 11  1  0
 10 12  2  0
 12 13  1  0
 13 14  2  0
 13 15  1  0
 15 16  1  0
 16 17  2  0
 17 18  1  0
 18 19  2  0
 19 20  1  0
 12 21  1  0
 21 22  1  0
 22 23  2  0
 23  2  1  0
 22  9  1  0
 20 16  1  0
M  END
>  <Binding energies>  (53) 
[-5.85]

>  <Ligand effiencies>  (53) 
[-0.22499999999999998]

>  <Interactions>  (53) 
["V-B:ARG:545:CZ:9898, V-A:TYR:531:CZ:4794, V-A:ILE:538:CG2:4863, V-A:PRO:540:CB:4885, V-A:ILE:538:CB:4862, V-A:PRO:540:CA:4883, V-A:LEU:363:CD1:3189, V-A:TYR:539:CD2:4874, V-A:TYR:539:C:4867, V-A:ILE:538:C:4858, V-A:PRO:540:N:4884, V-A:ILE:538:CA:4860, V-A:TYR:531:CE2:4793, V-A:ASP:366:CG:3213, V-A:ASP:366:CB:3212, H-A:GLU:543:OE1:4909, V-A:GLU:543:CD:4908, H-B:TYR:484:OH:9320, V-A:LEU:363:CA:3185, V-B:TYR:484:CZ:9319, H-A:ASP:366:OD1:3214"]

$$$$
4bk_Grossjean_2025
     RDKit          3D

 28 29  0  0  0  0  0  0  0  0999 V2000
  132.7090  131.4160   61.8390 C   0  0  0  0  0  0  0  0  0  0  0  0
  131.7760  131.8650   60.8680 O   0  0  0  0  0  0  0  0  0  0  0  0
  131.8820  131.1830   59.6250 C   0  0  0  0  0  0  0  0  0  0  0  0
  130.5150  131.1720   58.9290 C   0  0  0  0  0  0  0  0  0  0  0  0
  130.5880  131.9310   57.7300 O   0  0  0  0  0  0  0  0  0  0  0  0
  131.7920  131.7360   57.0000 C   0  0  0  0  0  0  0  0  0  0  0  0
  131.8080  132.6710   55.7840 C   0  0  0  0  0  0  0  0  0  0  0  0
  130.4730  132.9390   55.3800 O   0  0  0  0  0  0  0  0  0  0  0  0
  130.1370  132.3990   54.1070 C   0  0  0  0  0  0  0  0  0  0  0  0
  129.1200  131.2590   54.2890 C   0  0  0  0  0  0  0  0  0  0  0  0
  128.4570  131.2660   55.5940 N   0  0  0  0  0  0  0  0  0  0  0  0
  127.2450  130.7340   55.8550 C   0  0  0  0  0  0  0  0  0  0  0  0
  126.5760  130.1610   54.9930 O   0  0  0  0  0  0  0  0  0  0  0  0
  126.7660  130.8680   57.2310 C   0  0  0  0  0  0  0  0  0  0  0  0
  125.5660  129.7440   57.8620 S   0  0  0  0  0  0  0  0  0  0  0  0
  125.5870  130.5290   59.4230 C   0  0  0  0  0  0  0  0  0  0  0  0
  124.8180  130.1050   60.4260 N   0  0  0  0  0  0  0  0  0  0  0  0
  124.9230  130.7920   61.5870 C   0  0  0  0  0  0  0  0  0  0  0  0
  124.0410  130.2900   62.7160 C   0  0  0  0  0  0  0  0  0  0  0  0
  125.7690  131.8830   61.7670 C   0  0  0  0  0  0  0  0  0  0  0  0
  126.5800  132.3360   60.7150 C   0  0  0  0  0  0  0  0  0  0  0  0
  127.4920  133.5430   60.9600 C   0  0  0  0  0  0  0  0  0  0  0  0
  127.1200  134.6260   60.2750 F   0  0  0  0  0  0  0  0  0  0  0  0
  127.4770  133.8640   62.2540 F   0  0  0  0  0  0  0  0  0  0  0  0
  128.7390  133.2480   60.5940 F   0  0  0  0  0  0  0  0  0  0  0  0
  126.4950  131.6320   59.4760 C   0  0  0  0  0  0  0  0  0  0  0  0
  127.1580  131.7970   58.2070 C   0  0  0  0  0  0  0  0  0  0  0  0
  128.0860  132.7790   57.9760 N   0  0  0  0  0  0  0  0  0  0  0  0
  1  2  1  0
  2  3  1  0
  3  4  1  0
  4  5  1  0
  5  6  1  0
  6  7  1  0
  7  8  1  0
  8  9  1  0
  9 10  1  0
 10 11  1  0
 11 12  1  0
 12 13  2  0
 12 14  1  0
 14 15  1  0
 15 16  1  0
 16 17  2  0
 17 18  1  0
 18 19  1  0
 18 20  2  0
 20 21  1  0
 21 22  1  0
 22 23  1  0
 22 24  1  0
 22 25  1  0
 21 26  2  0
 26 27  1  0
 27 28  1  0
 27 14  2  0
 26 16  1  0
M  END
>  <Binding energies>  (54) 
[-5.6]

>  <Ligand effiencies>  (54) 
[-0.18064516129032257]

>  <Interactions>  (54) 
["V-A:ILE:538:CG2:4863, V-A:PRO:540:CB:4885, V-A:PRO:540:CD:4887, V-A:TYR:539:CE1:4875, V-A:TYR:539:CD1:4873, V-A:ILE:538:CB:4862, V-A:TYR:539:CZ:4877, V-A:PRO:540:CA:4883, V-B:LEU:475:CD2:9231, V-A:LEU:363:CD1:3189, V-A:TYR:539:C:4867, V-A:PRO:540:N:4884, V-A:ILE:538:CA:4860, V-A:TYR:539:CG:4872, V-A:ALA:541:CB:4892, H-A:TYR:539:O:4868, V-A:GLU:543:CD:4908, H-A:TYR:539:N:4870, H-A:ALA:541:N:4891, H-B:LYS:534:NZ:9795, V-A:ALA:541:C:4888, V-A:PRO:540:C:4881, V-A:ASN:362:CB:3176, V-A:GLU:543:CG:4907, H-A:TYR:539:OH:4878"]

$$$$
4cd_Grossjean_2025
     RDKit          3D

 29 32  0  0  0  0  0  0  0  0999 V2000
  131.5110  126.6570   62.0930 N   0  0  0  0  0  0  0  0  0  0  0  0
  130.5540  125.6860   61.9420 C   0  0  0  0  0  0  0  0  0  0  0  0
  129.1760  125.9480   62.0060 C   0  0  0  0  0  0  0  0  0  0  0  0
  128.4990  127.2250   62.2520 C   0  0  0  0  0  0  0  0  0  0  0  0
  129.0750  128.2920   62.0380 O   0  0  0  0  0  0  0  0  0  0  0  0
  127.2270  127.1300   62.7100 N   0  0  0  0  0  0  0  0  0  0  0  0
  126.3320  128.1480   63.0890 C   0  0  0  0  0  0  0  0  0  0  0  0
  125.7170  128.8420   62.0430 C   0  0  0  0  0  0  0  0  0  0  0  0
  124.8050  129.8580   62.3160 C   0  0  0  0  0  0  0  0  0  0  0  0
  124.5020  130.1770   63.6360 C   0  0  0  0  0  0  0  0  0  0  0  0
  125.0970  129.4840   64.6880 C   0  0  0  0  0  0  0  0  0  0  0  0
  126.0100  128.4670   64.4190 C   0  0  0  0  0  0  0  0  0  0  0  0
  128.2360  124.4770   61.7590 S   0  0  0  0  0  0  0  0  0  0  0  0
  129.6900  123.5250   61.5810 C   0  0  0  0  0  0  0  0  0  0  0  0
  129.6390  122.2140   61.3580 N   0  0  0  0  0  0  0  0  0  0  0  0
  130.8230  121.5560   61.2470 C   0  0  0  0  0  0  0  0  0  0  0  0
  130.7330  120.0780   60.9980 C   0  0  0  0  0  0  0  0  0  0  0  0
  131.6490  119.4350   60.1500 C   0  0  0  0  0  0  0  0  0  0  0  0
  131.5720  118.0650   59.9160 C   0  0  0  0  0  0  0  0  0  0  0  0
  130.5730  117.3150   60.5290 C   0  0  0  0  0  0  0  0  0  0  0  0
  129.6560  117.9260   61.3760 C   0  0  0  0  0  0  0  0  0  0  0  0
  129.7370  119.2950   61.6090 C   0  0  0  0  0  0  0  0  0  0  0  0
  132.0490  122.2190   61.3410 C   0  0  0  0  0  0  0  0  0  0  0  0
  132.1140  123.6030   61.5720 C   0  0  0  0  0  0  0  0  0  0  0  0
  133.4930  124.2670   61.6680 C   0  0  0  0  0  0  0  0  0  0  0  0
  133.6210  125.0580   62.7370 F   0  0  0  0  0  0  0  0  0  0  0  0
  134.4400  123.3320   61.7490 F   0  0  0  0  0  0  0  0  0  0  0  0
  133.7070  125.0180   60.5890 F   0  0  0  0  0  0  0  0  0  0  0  0
  130.8800  124.3010   61.7030 C   0  0  0  0  0  0  0  0  0  0  0  0
  1  2  1  0
  2  3  2  0
  3  4  1  0
  4  5  2  0
  4  6  1  0
  6  7  1  0
  7  8  2  0
  8  9  1  0
  9 10  2  0
 10 11  1  0
 11 12  2  0
  3 13  1  0
 13 14  1  0
 14 15  2  0
 15 16  1  0
 16 17  1  0
 17 18  2  0
 18 19  1  0
 19 20  2  0
 20 21  1  0
 21 22  2  0
 16 23  2  0
 23 24  1  0
 24 25  1  0
 25 26  1  0
 25 27  1  0
 25 28  1  0
 24 29  2  0
 29  2  1  0
 12  7  1  0
 29 14  1  0
 22 17  1  0
M  END
>  <Binding energies>  (55) 
[-7.23]

>  <Ligand effiencies>  (55) 
[-0.2259375]

>  <Interactions>  (55) 
["V-A:LEU:475:CD1:4258, V-A:PRO:482:CB:4326, V-A:LEU:475:CD2:4259, V-B:ALA:541:CB:9864, V-B:TYR:539:CE2:9848, V-B:TYR:539:CD2:9846, V-A:PRO:482:CG:4327, V-A:SER:385:CB:3409, V-B:ASP:366:CG:8185, V-B:ARG:545:CZ:9898, V-A:ASP:366:CG:3213, V-A:ASP:366:CA:3210, V-A:ASP:366:CB:3212, H-A:GLU:543:OE1:4909, V-A:GLU:543:CD:4908, V-B:GLU:543:CD:9880, H-B:GLU:543:OE1:9881, V-A:GLY:454:CA:4049, V-A:ILE:369:CD1:3239, V-A:ARG:545:CZ:4926, V-A:GLY:453:CA:4044, H-A:ASP:366:OD1:3214, H-B:GLU:543:OE2:9882, H-A:ASP:366:OD2:3215, H-A:GLU:543:OE2:4910, V-A:GLY:453:C:4042"]

$$$$
4cg_Grossjean_2025
     RDKit          3D

 30 33  0  0  0  0  0  0  0  0999 V2000
  126.5600  126.6560   62.1810 N   0  0  0  0  0  0  0  0  0  0  0  0
  126.5570  127.5400   61.1330 C   0  0  0  0  0  0  0  0  0  0  0  0
  126.7670  127.1530   59.8020 C   0  0  0  0  0  0  0  0  0  0  0  0
  126.9700  125.8080   59.2640 C   0  0  0  0  0  0  0  0  0  0  0  0
  127.8630  125.5710   58.4480 O   0  0  0  0  0  0  0  0  0  0  0  0
  126.1020  124.8650   59.6850 N   0  0  0  0  0  0  0  0  0  0  0  0
  126.1290  123.4550   59.2980 C   0  0  0  0  0  0  0  0  0  0  0  0
  126.1130  123.2400   57.7890 C   0  0  0  0  0  0  0  0  0  0  0  0
  127.3160  123.0610   57.1000 C   0  0  0  0  0  0  0  0  0  0  0  0
  127.3030  122.8330   55.7260 C   0  0  0  0  0  0  0  0  0  0  0  0
  126.0880  122.7750   55.0480 C   0  0  0  0  0  0  0  0  0  0  0  0
  124.8850  122.9360   55.7320 C   0  0  0  0  0  0  0  0  0  0  0  0
  124.8960  123.1630   57.1050 C   0  0  0  0  0  0  0  0  0  0  0  0
  126.6780  128.5330   58.7100 S   0  0  0  0  0  0  0  0  0  0  0  0
  126.3830  129.6220   60.0450 C   0  0  0  0  0  0  0  0  0  0  0  0
  126.2160  130.9270   59.8520 N   0  0  0  0  0  0  0  0  0  0  0  0
  125.9870  131.6950   60.9490 C   0  0  0  0  0  0  0  0  0  0  0  0
  125.8050  133.1650   60.6970 C   0  0  0  0  0  0  0  0  0  0  0  0
  126.8790  134.0590   60.8330 C   0  0  0  0  0  0  0  0  0  0  0  0
  126.7150  135.4220   60.6020 C   0  0  0  0  0  0  0  0  0  0  0  0
  125.4670  135.9140   60.2320 C   0  0  0  0  0  0  0  0  0  0  0  0
  124.3850  135.0520   60.0930 C   0  0  0  0  0  0  0  0  0  0  0  0
  124.5540  133.6900   60.3250 C   0  0  0  0  0  0  0  0  0  0  0  0
  125.9470  131.1490   62.2370 C   0  0  0  0  0  0  0  0  0  0  0  0
  126.1230  129.7740   62.4520 C   0  0  0  0  0  0  0  0  0  0  0  0
  126.0670  129.2420   63.8890 C   0  0  0  0  0  0  0  0  0  0  0  0
  125.6640  127.9720   63.9620 F   0  0  0  0  0  0  0  0  0  0  0  0
  127.2780  129.3100   64.4420 F   0  0  0  0  0  0  0  0  0  0  0  0
  125.2140  129.9710   64.6070 F   0  0  0  0  0  0  0  0  0  0  0  0
  126.3480  128.9570   61.3060 C   0  0  0  0  0  0  0  0  0  0  0  0
  1  2  1  0
  2  3  2  0
  3  4  1  0
  4  5  2  0
  4  6  1  0
  6  7  1  0
  7  8  1  0
  8  9  2  0
  9 10  1  0
 10 11  2  0
 11 12  1  0
 12 13  2  0
  3 14  1  0
 14 15  1  0
 15 16  2  0
 16 17  1  0
 17 18  1  0
 18 19  2  0
 19 20  1  0
 20 21  2  0
 21 22  1  0
 22 23  2  0
 17 24  2  0
 24 25  1  0
 25 26  1  0
 26 27  1  0
 26 28  1  0
 26 29  1  0
 25 30  2  0
 30  2  1  0
 13  8  1  0
 30 15  1  0
 23 18  1  0
M  END
>  <Binding energies>  (56) 
[-7.74]

>  <Ligand effiencies>  (56) 
[-0.23454545454545456]

>  <Interactions>  (56) 
["V-B:TYR:539:CZ:9849, V-B:PRO:540:N:9856, V-B:PRO:540:CD:9859, V-B:PRO:540:CB:9857, V-B:PRO:540:CA:9855, V-B:LEU:363:CD1:8161, V-B:ASP:366:CG:8185, V-B:ARG:545:CZ:9898, V-B:ILE:369:CG2:8209, V-A:TYR:539:CE1:4875, V-A:TYR:539:CD1:4873, V-B:LEU:475:CD2:9231, V-B:MET:535:CE:9807, V-B:TYR:531:CZ:9766, V-B:TYR:531:CE2:9765, V-B:TYR:539:CE1:9847, V-B:TYR:539:CD1:9845, V-B:ILE:538:CD1:9837, V-B:ILE:538:CG2:9835, V-B:ILE:538:CA:9832, H-B:ASP:366:OD2:8187, V-B:GLU:543:CD:9880, H-B:GLU:543:OE1:9881, V-B:SER:385:CB:8381, V-B:SER:385:CA:8379, V-B:TYR:484:CZ:9319, H-B:GLU:543:OE2:9882"]

$$$$
4ch_Grossjean_2025
     RDKit          3D

 36 39  0  0  0  0  0  0  0  0999 V2000
  126.4820  127.2510   67.4440 C   0  0  0  0  0  0  0  0  0  0  0  0
  125.4890  128.1300   66.9240 O   0  0  0  0  0  0  0  0  0  0  0  0
  125.6440  128.6530   65.6540 C   0  0  0  0  0  0  0  0  0  0  0  0
  126.8600  128.6550   64.9490 C   0  0  0  0  0  0  0  0  0  0  0  0
  126.9430  129.1990   63.6670 C   0  0  0  0  0  0  0  0  0  0  0  0
  128.2760  129.2170   62.9290 C   0  0  0  0  0  0  0  0  0  0  0  0
  128.8130  127.8900   62.6250 N   0  0  0  0  0  0  0  0  0  0  0  0
  128.1770  126.9290   61.9220 C   0  0  0  0  0  0  0  0  0  0  0  0
  127.0590  127.0970   61.4310 O   0  0  0  0  0  0  0  0  0  0  0  0
  128.9110  125.6760   61.7400 C   0  0  0  0  0  0  0  0  0  0  0  0
  128.0370  124.1800   61.4280 S   0  0  0  0  0  0  0  0  0  0  0  0
  129.5300  123.2790   61.3200 C   0  0  0  0  0  0  0  0  0  0  0  0
  129.5370  121.9700   61.0850 N   0  0  0  0  0  0  0  0  0  0  0  0
  130.7460  121.3560   61.0130 C   0  0  0  0  0  0  0  0  0  0  0  0
  130.7180  119.8770   60.7530 C   0  0  0  0  0  0  0  0  0  0  0  0
  131.6380  119.2840   59.8720 C   0  0  0  0  0  0  0  0  0  0  0  0
  131.6170  117.9140   59.6260 C   0  0  0  0  0  0  0  0  0  0  0  0
  130.6720  117.1140   60.2580 C   0  0  0  0  0  0  0  0  0  0  0  0
  129.7470  117.6750   61.1320 C   0  0  0  0  0  0  0  0  0  0  0  0
  129.7700  119.0460   61.3740 C   0  0  0  0  0  0  0  0  0  0  0  0
  131.9420  122.0570   61.1940 C   0  0  0  0  0  0  0  0  0  0  0  0
  131.9480  123.4390   61.4440 C   0  0  0  0  0  0  0  0  0  0  0  0
  133.2950  124.1460   61.6330 C   0  0  0  0  0  0  0  0  0  0  0  0
  134.3300  123.3030   61.6630 F   0  0  0  0  0  0  0  0  0  0  0  0
  133.5020  124.9980   60.6300 F   0  0  0  0  0  0  0  0  0  0  0  0
  133.2940  124.8160   62.7850 F   0  0  0  0  0  0  0  0  0  0  0  0
  130.6850  124.0950   61.5090 C   0  0  0  0  0  0  0  0  0  0  0  0
  130.2980  125.4660   61.7360 C   0  0  0  0  0  0  0  0  0  0  0  0
  131.2090  126.4720   61.9400 N   0  0  0  0  0  0  0  0  0  0  0  0
  125.8070  129.7640   63.0840 C   0  0  0  0  0  0  0  0  0  0  0  0
  124.5800  129.7770   63.7660 C   0  0  0  0  0  0  0  0  0  0  0  0
  123.4160  130.3170   63.2490 O   0  0  0  0  0  0  0  0  0  0  0  0
  123.2850  130.4770   61.8400 C   0  0  0  0  0  0  0  0  0  0  0  0
  124.5100  129.2120   65.0480 C   0  0  0  0  0  0  0  0  0  0  0  0
  123.3190  129.2320   65.7320 O   0  0  0  0  0  0  0  0  0  0  0  0
  123.3880  129.8790   66.9950 C   0  0  0  0  0  0  0  0  0  0  0  0
  1  2  1  0
  2  3  1  0
  3  4  2  0
  4  5  1  0
  5  6  1  0
  6  7  1  0
  7  8  1  0
  8  9  2  0
  8 10  1  0
 10 11  1  0
 11 12  1  0
 12 13  2  0
 13 14  1  0
 14 15  1  0
 15 16  2  0
 16 17  1  0
 17 18  2  0
 18 19  1  0
 19 20  2  0
 14 21  2  0
 21 22  1  0
 22 23  1  0
 23 24  1  0
 23 25  1  0
 23 26  1  0
 22 27  2  0
 27 28  1  0
 28 29  1  0
  5 30  2  0
 30 31  1  0
 31 32  1  0
 32 33  1  0
 31 34  2  0
 34 35  1  0
 35 36  1  0
 34  3  1  0
 28 10  2  0
 27 12  1  0
 20 15  1  0
M  END
>  <Binding energies>  (57) 
[-8.21]

>  <Ligand effiencies>  (57) 
[-0.21051282051282053]

>  <Interactions>  (57) 
["V-B:TYR:539:C:9839, V-A:LEU:475:CD1:4258, V-A:PRO:482:CB:4326, V-B:TYR:539:CG:9844, V-A:LEU:475:CD2:4259, V-B:ALA:541:CB:9864, V-B:TYR:539:CE2:9848, V-B:TYR:539:CD2:9846, V-A:PRO:482:CG:4327, V-A:SER:385:CB:3409, V-B:ASP:366:CG:8185, V-B:ARG:545:CZ:9898, V-B:GLY:454:CA:9021, V-B:ILE:369:CD1:8211, V-A:ASP:366:CG:3213, V-A:ASP:366:CB:3212, H-A:GLU:543:OE1:4909, V-A:GLU:543:CD:4908, V-B:GLU:543:CD:9880, H-B:ARG:545:NH2:9900, V-B:GLY:453:C:9014, H-B:GLY:454:N:9022, V-A:GLY:454:CA:4049, V-A:ILE:369:CD1:3239, V-B:ARG:545:CD:9895, V-A:ARG:545:CZ:4926, V-B:GLY:453:CA:9016, V-B:ARG:545:CG:9894, V-B:HIS:456:CE1:9042, V-A:GLY:453:CA:4044, V-B:TYR:484:CE1:9317, V-B:GLY:454:C:9019, V-B:TYR:539:CB:9843, H-B:ARG:545:NH1:9899, H-A:ASP:366:OD1:3214, H-B:GLU:543:OE2:9882, H-A:ASP:366:OD2:3215, H-A:GLU:543:OE2:4910, V-A:GLY:453:C:4042, H-B:ARG:545:NE:9896, V-B:ILE:455:C:9024, V-B:GLU:543:CB:9878, H-B:HIS:456:ND1:9039"]

$$$$
4cj_Grossjean_2025
     RDKit          3D

 28 31  0  0  0  0  0  0  0  0999 V2000
  123.5920  130.1520   59.5310 N   0  0  0  0  0  0  0  0  0  0  0  0
  124.8630  130.6290   59.7280 C   0  0  0  0  0  0  0  0  0  0  0  0
  125.3880  130.9180   60.9980 C   0  0  0  0  0  0  0  0  0  0  0  0
  124.7440  130.7770   62.3060 C   0  0  0  0  0  0  0  0  0  0  0  0
  123.7230  131.4140   62.5790 O   0  0  0  0  0  0  0  0  0  0  0  0
  125.3530  129.9240   63.1660 N   0  0  0  0  0  0  0  0  0  0  0  0
  124.9500  129.6130   64.4580 C   0  0  0  0  0  0  0  0  0  0  0  0
  123.7890  129.8660   65.0240 N   0  0  0  0  0  0  0  0  0  0  0  0
  123.7490  129.4260   66.2660 C   0  0  0  0  0  0  0  0  0  0  0  0
  124.9000  128.7970   66.7330 C   0  0  0  0  0  0  0  0  0  0  0  0
  126.0920  128.7860   65.4680 S   0  0  0  0  0  0  0  0  0  0  0  0
  127.0480  131.4980   60.8840 S   0  0  0  0  0  0  0  0  0  0  0  0
  127.0260  131.3510   59.1420 C   0  0  0  0  0  0  0  0  0  0  0  0
  128.0890  131.6640   58.4060 N   0  0  0  0  0  0  0  0  0  0  0  0
  127.9810  131.5110   57.0610 C   0  0  0  0  0  0  0  0  0  0  0  0
  129.2030  131.8610   56.2610 C   0  0  0  0  0  0  0  0  0  0  0  0
  129.1690  131.8530   54.8570 C   0  0  0  0  0  0  0  0  0  0  0  0
  130.3000  132.1710   54.1090 C   0  0  0  0  0  0  0  0  0  0  0  0
  131.4870  132.4990   54.7570 C   0  0  0  0  0  0  0  0  0  0  0  0
  131.5480  132.5120   56.1460 C   0  0  0  0  0  0  0  0  0  0  0  0
  130.4150  132.1950   56.8900 C   0  0  0  0  0  0  0  0  0  0  0  0
  126.7980  131.0680   56.4600 C   0  0  0  0  0  0  0  0  0  0  0  0
  125.6700  130.7380   57.2270 C   0  0  0  0  0  0  0  0  0  0  0  0
  124.4070  130.2550   56.5050 C   0  0  0  0  0  0  0  0  0  0  0  0
  124.5220  130.2760   55.1760 F   0  0  0  0  0  0  0  0  0  0  0  0
  124.1360  129.0000   56.8620 F   0  0  0  0  0  0  0  0  0  0  0  0
  123.3760  131.0360   56.8280 F   0  0  0  0  0  0  0  0  0  0  0  0
  125.7790  130.8760   58.6410 C   0  0  0  0  0  0  0  0  0  0  0  0
  1  2  1  0
  2  3  2  0
  3  4  1  0
  4  5  2  0
  4  6  1  0
  6  7  1  0
  7  8  2  0
  8  9  1  0
  9 10  2  0
 10 11  1  0
  3 12  1  0
 12 13  1  0
 13 14  2  0
 14 15  1  0
 15 16  1  0
 16 17  2  0
 17 18  1  0
 18 19  2  0
 19 20  1  0
 20 21  2  0
 15 22  2  0
 22 23  1  0
 23 24  1  0
 24 25  1  0
 24 26  1  0
 24 27  1  0
 23 28  2  0
 28  2  1  0
 11  7  1  0
 28 13  1  0
 21 16  1  0
M  END
>  <Binding energies>  (58) 
[-7.4]

>  <Ligand effiencies>  (58) 
[-0.23870967741935484]

>  <Interactions>  (58) 
["V-B:TYR:531:CE1:9764, V-B:ASP:366:CG:8185, V-B:ARG:545:CZ:9898, V-A:ILE:538:CG2:4863, V-A:PRO:540:CB:4885, V-A:PRO:540:CD:4887, V-A:TYR:539:CE1:4875, V-A:TYR:539:CD1:4873, V-A:ILE:538:CB:4862, V-A:TYR:539:CZ:4877, V-A:PRO:540:CA:4883, V-B:ASP:366:CA:8182, V-A:TYR:539:CE2:4876, V-A:TYR:539:C:4867, V-B:ASP:366:C:8180, V-A:PRO:540:N:4884, V-B:ASP:366:CB:8184, V-A:ILE:538:CA:4860, V-B:TYR:531:CZ:9766, H-B:ASP:366:OD2:8187, H-B:ASP:366:OD1:8186, V-B:GLY:453:C:9014, H-B:GLY:454:N:9022, V-B:ARG:545:CD:9895, H-B:TYR:484:OH:9320, V-B:GLY:453:CA:9016, V-B:ARG:545:CG:9894, V-B:HIS:456:CE1:9042, H-B:ARG:545:NH1:9899, V-B:ASN:370:CB:8217, V-B:TYR:531:CD1:9762, V-B:ASN:370:CG:8218, H-B:ASP:366:O:8181"]

$$$$
4ck_Grossjean_2025
     RDKit          3D

 33 35  0  0  0  0  0  0  0  0999 V2000
  131.0670  130.9000   57.6900 C   0  0  0  0  0  0  0  0  0  0  0  0
  129.7130  130.9170   57.2660 O   0  0  0  0  0  0  0  0  0  0  0  0
  129.0660  132.1610   57.4930 C   0  0  0  0  0  0  0  0  0  0  0  0
  128.9140  132.8970   56.1560 C   0  0  0  0  0  0  0  0  0  0  0  0
  130.1920  133.0280   55.5500 O   0  0  0  0  0  0  0  0  0  0  0  0
  130.2310  132.5740   54.2040 C   0  0  0  0  0  0  0  0  0  0  0  0
  128.7990  132.3100   53.7210 C   0  0  0  0  0  0  0  0  0  0  0  0
  128.4710  130.9520   53.9820 O   0  0  0  0  0  0  0  0  0  0  0  0
  129.5880  130.0730   53.9380 C   0  0  0  0  0  0  0  0  0  0  0  0
  129.2150  128.7340   54.5930 C   0  0  0  0  0  0  0  0  0  0  0  0
  128.4580  128.9190   55.8310 N   0  0  0  0  0  0  0  0  0  0  0  0
  127.1130  128.9510   55.9380 C   0  0  0  0  0  0  0  0  0  0  0  0
  126.3650  128.7950   54.9710 O   0  0  0  0  0  0  0  0  0  0  0  0
  126.5840  129.1740   57.2840 C   0  0  0  0  0  0  0  0  0  0  0  0
  127.2850  128.3280   58.6600 S   0  0  0  0  0  0  0  0  0  0  0  0
  126.2070  129.1450   59.7670 C   0  0  0  0  0  0  0  0  0  0  0  0
  126.2480  128.9120   61.0760 N   0  0  0  0  0  0  0  0  0  0  0  0
  125.3700  129.5940   61.8570 C   0  0  0  0  0  0  0  0  0  0  0  0
  125.4540  129.3230   63.3320 C   0  0  0  0  0  0  0  0  0  0  0  0
  126.6390  128.8330   63.9060 C   0  0  0  0  0  0  0  0  0  0  0  0
  126.7230  128.5770   65.2730 C   0  0  0  0  0  0  0  0  0  0  0  0
  125.6200  128.8090   66.0870 C   0  0  0  0  0  0  0  0  0  0  0  0
  124.4360  129.2980   65.5450 C   0  0  0  0  0  0  0  0  0  0  0  0
  124.3560  129.5540   64.1790 C   0  0  0  0  0  0  0  0  0  0  0  0
  124.4610  130.5120   61.3210 C   0  0  0  0  0  0  0  0  0  0  0  0
  124.4090  130.7640   59.9400 C   0  0  0  0  0  0  0  0  0  0  0  0
  123.3850  131.7800   59.4190 C   0  0  0  0  0  0  0  0  0  0  0  0
  122.2710  131.2100   58.9560 F   0  0  0  0  0  0  0  0  0  0  0  0
  123.0310  132.6080   60.4010 F   0  0  0  0  0  0  0  0  0  0  0  0
  123.9190  132.4830   58.4200 F   0  0  0  0  0  0  0  0  0  0  0  0
  125.3230  130.0530   59.1120 C   0  0  0  0  0  0  0  0  0  0  0  0
  125.5680  130.0530   57.6900 C   0  0  0  0  0  0  0  0  0  0  0  0
  124.8650  130.8420   56.8150 N   0  0  0  0  0  0  0  0  0  0  0  0
  1  2  1  0
  2  3  1  0
  3  4  1  0
  4  5  1  0
  5  6  1  0
  6  7  1  0
  7  8  1  0
  8  9  1  0
  9 10  1  0
 10 11  1  0
 11 12  1  0
 12 13  2  0
 12 14  1  0
 14 15  1  0
 15 16  1  0
 16 17  2  0
 17 18  1  0
 18 19  1  0
 19 20  2  0
 20 21  1  0
 21 22  2  0
 22 23  1  0
 23 24  2  0
 18 25  2  0
 25 26  1  0
 26 27  1  0
 27 28  1  0
 27 29  1  0
 27 30  1  0
 26 31  2  0
 31 32  1  0
 32 33  1  0
 32 14  2  0
 31 16  1  0
 24 19  1  0
M  END
>  <Binding energies>  (59) 
[-6.59]

>  <Ligand effiencies>  (59) 
[-0.18305555555555555]

>  <Interactions>  (59) 
["V-B:ASP:366:CG:8185, V-B:ARG:545:CZ:9898, V-B:ILE:369:CG2:8209, V-A:ILE:538:CG2:4863, V-A:TYR:539:CE1:4875, V-A:TYR:539:CD1:4873, V-A:ILE:538:CB:4862, V-A:TYR:539:CZ:4877, V-B:ASP:366:CA:8182, V-A:TYR:539:CE2:4876, V-A:TYR:539:CD2:4874, V-B:ILE:369:CD1:8211, V-A:TYR:539:C:4867, V-A:MET:535:CE:4835, V-A:ILE:538:C:4858, V-B:ASP:366:C:8180, V-A:PRO:540:N:4884, V-B:ASP:366:CB:8184, V-A:ILE:538:CA:4860, V-B:MET:535:CE:9807, H-B:TYR:531:OH:9767, V-A:TYR:539:CA:4869, V-A:TYR:539:CG:4872, H-A:TYR:539:N:4870, H-B:LYS:534:NZ:9795, V-B:GLU:543:CD:9880, V-B:ARG:545:CD:9895, V-B:GLY:453:CA:9016, V-B:ILE:369:CB:8208, H-A:TYR:539:OH:4878, V-B:ARG:545:CG:9894, V-B:HIS:456:CE1:9042, V-B:TYR:484:CZ:9319, V-B:ILE:369:CG1:8210, H-B:ASP:366:O:8181, V-B:ILE:369:CA:8206"]

$$$$
4dd_Grossjean_2025
     RDKit          3D

 26 29  0  0  0  0  0  0  0  0999 V2000
  133.4800  124.2640   61.7760 C   0  0  0  0  0  0  0  0  0  0  0  0
  132.1180  123.6000   61.6370 C   0  0  0  0  0  0  0  0  0  0  0  0
  132.0780  122.2220   61.3930 C   0  0  0  0  0  0  0  0  0  0  0  0
  130.8570  121.5510   61.2550 C   0  0  0  0  0  0  0  0  0  0  0  0
  130.7830  120.0770   60.9870 C   0  0  0  0  0  0  0  0  0  0  0  0
  129.7960  119.2830   61.5940 C   0  0  0  0  0  0  0  0  0  0  0  0
  129.7210  117.9150   61.3470 C   0  0  0  0  0  0  0  0  0  0  0  0
  130.6370  117.3180   60.4880 C   0  0  0  0  0  0  0  0  0  0  0  0
  131.6240  118.0790   59.8720 C   0  0  0  0  0  0  0  0  0  0  0  0
  131.6940  119.4480   60.1200 C   0  0  0  0  0  0  0  0  0  0  0  0
  129.6650  122.2030   61.3390 N   0  0  0  0  0  0  0  0  0  0  0  0
  129.7020  123.5130   61.5780 C   0  0  0  0  0  0  0  0  0  0  0  0
  128.2460  124.4710   61.7280 S   0  0  0  0  0  0  0  0  0  0  0  0
  129.1830  125.9380   62.0160 C   0  0  0  0  0  0  0  0  0  0  0  0
  128.5080  127.2140   62.2560 C   0  0  0  0  0  0  0  0  0  0  0  0
  129.0870  128.2810   62.0460 O   0  0  0  0  0  0  0  0  0  0  0  0
  127.2330  127.1210   62.7060 N   0  0  0  0  0  0  0  0  0  0  0  0
  126.3370  128.1390   63.0800 C   0  0  0  0  0  0  0  0  0  0  0  0
  125.7210  128.8270   62.0310 C   0  0  0  0  0  0  0  0  0  0  0  0
  124.8070  129.8430   62.2970 C   0  0  0  0  0  0  0  0  0  0  0  0
  124.5020  130.1670   63.6160 C   0  0  0  0  0  0  0  0  0  0  0  0
  125.0980  129.4810   64.6710 C   0  0  0  0  0  0  0  0  0  0  0  0
  126.0130  128.4650   64.4080 C   0  0  0  0  0  0  0  0  0  0  0  0
  130.5610  125.6710   61.9860 C   0  0  0  0  0  0  0  0  0  0  0  0
  131.5290  126.6270   62.1740 N   0  0  0  0  0  0  0  0  0  0  0  0
  130.8830  124.2900   61.7400 C   0  0  0  0  0  0  0  0  0  0  0  0
  1  2  1  0
  2  3  2  0
  3  4  1  0
  4  5  1  0
  5  6  2  0
  6  7  1  0
  7  8  2  0
  8  9  1  0
  9 10  2  0
  4 11  2  0
 11 12  1  0
 12 13  1  0
 13 14  1  0
 14 15  1  0
 15 16  2  0
 15 17  1  0
 17 18  1  0
 18 19  2  0
 19 20  1  0
 20 21  2  0
 21 22  1  0
 22 23  2  0
 14 24  2  0
 24 25  1  0
 24 26  1  0
 26  2  1  0
 10  5  1  0
 26 12  2  0
 23 18  1  0
M  END
>  <Binding energies>  (60) 
[-7.51]

>  <Ligand effiencies>  (60) 
[-0.2589655172413793]

>  <Interactions>  (60) 
["V-A:LEU:475:CD1:4258, V-A:PRO:482:CB:4326, V-A:LEU:475:CD2:4259, V-B:ALA:541:CB:9864, V-B:TYR:539:CE2:9848, V-B:TYR:539:CD2:9846, V-A:PRO:482:CG:4327, V-A:SER:385:CB:3409, V-B:ASP:366:CG:8185, V-B:ARG:545:CZ:9898, H-A:GLU:543:OE1:4909, V-A:GLU:543:CD:4908, V-B:GLU:543:CD:9880, H-B:GLU:543:OE1:9881, V-A:ILE:369:CD1:3239, V-A:ARG:545:CZ:4926, V-A:LEU:475:CG:4257, H-A:ASP:366:OD1:3214, H-B:GLU:543:OE2:9882, H-A:ASP:366:OD2:3215, H-A:GLU:543:OE2:4910"]

$$$$
4dg_Grossjean_2025
     RDKit          3D

 27 30  0  0  0  0  0  0  0  0999 V2000
  125.9340  129.2260   63.8280 C   0  0  0  0  0  0  0  0  0  0  0  0
  126.0440  129.7640   62.4090 C   0  0  0  0  0  0  0  0  0  0  0  0
  125.9050  131.1430   62.2140 C   0  0  0  0  0  0  0  0  0  0  0  0
  125.9960  131.7020   60.9330 C   0  0  0  0  0  0  0  0  0  0  0  0
  125.8530  133.1780   60.6930 C   0  0  0  0  0  0  0  0  0  0  0  0
  124.6240  133.7270   60.2910 C   0  0  0  0  0  0  0  0  0  0  0  0
  124.4860  135.0940   60.0630 C   0  0  0  0  0  0  0  0  0  0  0  0
  125.5800  135.9360   60.2340 C   0  0  0  0  0  0  0  0  0  0  0  0
  126.8100  135.4190   60.6280 C   0  0  0  0  0  0  0  0  0  0  0  0
  126.9430  134.0520   60.8540 C   0  0  0  0  0  0  0  0  0  0  0  0
  126.2410  130.9390   59.8330 N   0  0  0  0  0  0  0  0  0  0  0  0
  126.3730  129.6260   60.0170 C   0  0  0  0  0  0  0  0  0  0  0  0
  126.6820  128.5310   58.6900 S   0  0  0  0  0  0  0  0  0  0  0  0
  126.7060  127.1460   59.7800 C   0  0  0  0  0  0  0  0  0  0  0  0
  126.8960  125.7970   59.2500 C   0  0  0  0  0  0  0  0  0  0  0  0
  127.7720  125.5510   58.4190 O   0  0  0  0  0  0  0  0  0  0  0  0
  126.0330  124.8610   59.6980 N   0  0  0  0  0  0  0  0  0  0  0  0
  126.0480  123.4470   59.3240 C   0  0  0  0  0  0  0  0  0  0  0  0
  126.0510  123.2200   57.8160 C   0  0  0  0  0  0  0  0  0  0  0  0
  127.2620  123.0270   57.1450 C   0  0  0  0  0  0  0  0  0  0  0  0
  127.2660  122.7880   55.7740 C   0  0  0  0  0  0  0  0  0  0  0  0
  126.0600  122.7320   55.0800 C   0  0  0  0  0  0  0  0  0  0  0  0
  124.8480  122.9070   55.7450 C   0  0  0  0  0  0  0  0  0  0  0  0
  124.8440  123.1440   57.1170 C   0  0  0  0  0  0  0  0  0  0  0  0
  126.4670  127.5370   61.1060 C   0  0  0  0  0  0  0  0  0  0  0  0
  126.4170  126.6630   62.1620 N   0  0  0  0  0  0  0  0  0  0  0  0
  126.2850  128.9540   61.2700 C   0  0  0  0  0  0  0  0  0  0  0  0
  1  2  1  0
  2  3  2  0
  3  4  1  0
  4  5  1  0
  5  6  2  0
  6  7  1  0
  7  8  2  0
  8  9  1  0
  9 10  2  0
  4 11  2  0
 11 12  1  0
 12 13  1  0
 13 14  1  0
 14 15  1  0
 15 16  2  0
 15 17  1  0
 17 18  1  0
 18 19  1  0
 19 20  2  0
 20 21  1  0
 21 22  2  0
 22 23  1  0
 23 24  2  0
 14 25  2  0
 25 26  1  0
 25 27  1  0
 27  2  1  0
 10  5  1  0
 27 12  2  0
 24 19  1  0
M  END
>  <Binding energies>  (61) 
[-8.18]

>  <Ligand effiencies>  (61) 
[-0.27266666666666667]

>  <Interactions>  (61) 
["V-B:TYR:539:CZ:9849, V-B:TYR:539:C:9839, V-B:PRO:540:N:9856, V-B:PRO:540:CD:9859, V-B:PRO:540:CB:9857, V-B:PRO:540:CA:9855, V-B:LEU:363:CD1:8161, V-B:ASP:366:CG:8185, V-B:ARG:545:CZ:9898, V-B:ILE:369:CG2:8209, V-A:TYR:539:CE1:4875, V-A:TYR:539:CD1:4873, V-B:LEU:475:CD2:9231, V-B:MET:535:CE:9807, V-B:TYR:531:CZ:9766, V-B:TYR:531:CE2:9765, V-B:TYR:539:CE1:9847, V-B:TYR:539:CD1:9845, V-B:ILE:538:CD1:9837, V-B:ILE:538:CG2:9835, V-B:ILE:538:CA:9832, H-B:ASP:366:OD2:8187, V-B:GLU:543:CD:9880, H-B:GLU:543:OE1:9881, V-B:SER:385:CB:8381, V-B:SER:385:CA:8379, H-B:GLU:543:OE2:9882"]

$$$$
4dj_Grossjean_2025
     RDKit          3D

 25 28  0  0  0  0  0  0  0  0999 V2000
  124.1930  130.2960   56.4830 C   0  0  0  0  0  0  0  0  0  0  0  0
  125.4890  130.6680   57.1880 C   0  0  0  0  0  0  0  0  0  0  0  0
  126.5920  131.0150   56.3990 C   0  0  0  0  0  0  0  0  0  0  0  0
  127.8140  131.3660   56.9870 C   0  0  0  0  0  0  0  0  0  0  0  0
  129.0130  131.7490   56.1660 C   0  0  0  0  0  0  0  0  0  0  0  0
  128.9640  131.7230   54.7630 C   0  0  0  0  0  0  0  0  0  0  0  0
  130.0720  132.0760   53.9970 C   0  0  0  0  0  0  0  0  0  0  0  0
  131.2520  132.4580   54.6260 C   0  0  0  0  0  0  0  0  0  0  0  0
  131.3300  132.4900   56.0140 C   0  0  0  0  0  0  0  0  0  0  0  0
  130.2200  132.1370   56.7760 C   0  0  0  0  0  0  0  0  0  0  0  0
  127.9780  131.4010   58.3370 N   0  0  0  0  0  0  0  0  0  0  0  0
  126.9290  131.0700   59.0880 C   0  0  0  0  0  0  0  0  0  0  0  0
  127.0040  131.0640   60.8360 S   0  0  0  0  0  0  0  0  0  0  0  0
  125.3190  130.5530   60.9540 C   0  0  0  0  0  0  0  0  0  0  0  0
  124.7020  130.3350   62.2630 C   0  0  0  0  0  0  0  0  0  0  0  0
  123.5120  130.6030   62.4510 O   0  0  0  0  0  0  0  0  0  0  0  0
  125.5230  129.8380   63.2200 N   0  0  0  0  0  0  0  0  0  0  0  0
  125.1910  129.5450   64.5350 C   0  0  0  0  0  0  0  0  0  0  0  0
  124.1190  129.9200   65.2000 N   0  0  0  0  0  0  0  0  0  0  0  0
  124.1290  129.4580   66.4360 C   0  0  0  0  0  0  0  0  0  0  0  0
  125.2290  128.6860   66.7950 C   0  0  0  0  0  0  0  0  0  0  0  0
  126.3040  128.5660   65.4340 S   0  0  0  0  0  0  0  0  0  0  0  0
  124.7480  130.3970   59.6810 C   0  0  0  0  0  0  0  0  0  0  0  0
  123.4510  130.0030   59.4700 N   0  0  0  0  0  0  0  0  0  0  0  0
  125.6480  130.6890   58.5980 C   0  0  0  0  0  0  0  0  0  0  0  0
  1  2  1  0
  2  3  2  0
  3  4  1  0
  4  5  1  0
  5  6  2  0
  6  7  1  0
  7  8  2  0
  8  9  1  0
  9 10  2  0
  4 11  2  0
 11 12  1  0
 12 13  1  0
 13 14  1  0
 14 15  1  0
 15 16  2  0
 15 17  1  0
 17 18  1  0
 18 19  2  0
 19 20  1  0
 20 21  2  0
 21 22  1  0
 14 23  2  0
 23 24  1  0
 23 25  1  0
 25  2  1  0
 10  5  1  0
 25 12  2  0
 22 18  1  0
M  END
>  <Binding energies>  (62) 
[-7.22]

>  <Ligand effiencies>  (62) 
[-0.25785714285714284]

>  <Interactions>  (62) 
["V-B:TYR:531:CE1:9764, V-B:ASP:366:CG:8185, V-B:ARG:545:CZ:9898, V-A:ILE:538:CG2:4863, V-A:PRO:540:CB:4885, V-A:PRO:540:CD:4887, V-A:TYR:539:CE1:4875, V-A:TYR:539:CD1:4873, V-A:ILE:538:CB:4862, V-A:TYR:539:CZ:4877, V-A:PRO:540:CA:4883, V-B:ASP:366:CA:8182, V-A:TYR:539:CE2:4876, V-A:TYR:539:C:4867, V-B:ASP:366:C:8180, V-A:PRO:540:N:4884, V-B:ASP:366:CB:8184, V-A:ILE:538:CA:4860, H-B:ASP:366:OD2:8187, V-B:GLU:543:CD:9880, H-B:ASP:366:OD1:8186, H-B:GLY:454:N:9022, V-B:ARG:545:CD:9895, H-B:TYR:484:OH:9320, V-B:ARG:545:CG:9894, V-B:HIS:456:CE1:9042, V-B:TYR:484:CZ:9319, V-B:TYR:484:CE1:9317, H-B:ASP:366:O:8181"]

$$$$
4ea_Grossjean_2025
     RDKit          3D

 31 34  0  0  0  0  0  0  0  0999 V2000
  128.2220  132.2260   54.1620 C   0  0  0  0  0  0  0  0  0  0  0  0
  129.0700  132.9110   55.2370 C   0  0  0  0  0  0  0  0  0  0  0  0
  130.3600  133.1940   54.7110 O   0  0  0  0  0  0  0  0  0  0  0  0
  131.4850  132.8130   55.3680 C   0  0  0  0  0  0  0  0  0  0  0  0
  132.5280  133.4730   55.3690 O   0  0  0  0  0  0  0  0  0  0  0  0
  131.3340  131.5070   56.0940 C   0  0  0  0  0  0  0  0  0  0  0  0
  130.5320  130.5040   55.5350 C   0  0  0  0  0  0  0  0  0  0  0  0
  130.3710  129.2820   56.1830 C   0  0  0  0  0  0  0  0  0  0  0  0
  131.0070  129.0380   57.4000 C   0  0  0  0  0  0  0  0  0  0  0  0
  130.7730  127.7680   57.9630 N   0  0  0  0  0  0  0  0  0  0  0  0
  131.4780  126.6150   57.8550 C   0  0  0  0  0  0  0  0  0  0  0  0
  132.5120  126.4940   57.1980 O   0  0  0  0  0  0  0  0  0  0  0  0
  130.9260  125.4750   58.5910 C   0  0  0  0  0  0  0  0  0  0  0  0
  131.8620  124.7000   59.8720 S   0  0  0  0  0  0  0  0  0  0  0  0
  130.5800  123.5510   60.1800 C   0  0  0  0  0  0  0  0  0  0  0  0
  130.6870  122.6120   61.1210 N   0  0  0  0  0  0  0  0  0  0  0  0
  129.6230  121.7830   61.2600 C   0  0  0  0  0  0  0  0  0  0  0  0
  129.7660  120.7230   62.3360 C   0  0  0  0  0  0  0  0  0  0  0  0
  128.4670  121.8720   60.4880 C   0  0  0  0  0  0  0  0  0  0  0  0
  128.3590  122.8580   59.5020 C   0  0  0  0  0  0  0  0  0  0  0  0
  127.1240  122.9390   58.6900 C   0  0  0  0  0  0  0  0  0  0  0  0
  127.1030  122.4250   57.3900 C   0  0  0  0  0  0  0  0  0  0  0  0
  125.9410  122.4980   56.6260 C   0  0  0  0  0  0  0  0  0  0  0  0
  124.8000  123.0910   57.1620 C   0  0  0  0  0  0  0  0  0  0  0  0
  124.8110  123.6100   58.4540 C   0  0  0  0  0  0  0  0  0  0  0  0
  125.9740  123.5360   59.2170 C   0  0  0  0  0  0  0  0  0  0  0  0
  129.4540  123.7480   59.3250 C   0  0  0  0  0  0  0  0  0  0  0  0
  129.6780  124.8520   58.4280 C   0  0  0  0  0  0  0  0  0  0  0  0
  128.7440  125.2450   57.5040 N   0  0  0  0  0  0  0  0  0  0  0  0
  131.8130  130.0370   57.9680 C   0  0  0  0  0  0  0  0  0  0  0  0
  131.9730  131.2580   57.3180 C   0  0  0  0  0  0  0  0  0  0  0  0
  1  2  1  0
  2  3  1  0
  3  4  1  0
  4  5  2  0
  4  6  1  0
  6  7  2  0
  7  8  1  0
  8  9  2  0
  9 10  1  0
 10 11  1  0
 11 12  2  0
 11 13  1  0
 13 14  1  0
 14 15  1  0
 15 16  2  0
 16 17  1  0
 17 18  1  0
 17 19  2  0
 19 20  1  0
 20 21  1  0
 21 22  2  0
 22 23  1  0
 23 24  2  0
 24 25  1  0
 25 26  2  0
 20 27  2  0
 27 28  1  0
 28 29  1  0
  9 30  1  0
 30 31  2  0
 31  6  1  0
 28 13  2  0
 27 15  1  0
 26 21  1  0
M  END
>  <Binding energies>  (63) 
[-8.11]

>  <Ligand effiencies>  (63) 
[-0.23852941176470588]

>  <Interactions>  (63) 
["V-B:TYR:539:C:9839, V-B:PRO:540:N:9856, V-A:LEU:475:CD1:4258, V-B:PRO:540:CD:9859, H-A:TYR:484:OH:4348, V-B:PRO:540:CB:9857, V-B:TYR:539:CG:9844, V-B:PRO:540:CA:9855, V-A:LEU:475:CD2:4259, V-B:ALA:541:CB:9864, V-B:LEU:363:CD1:8161, V-B:TYR:539:CE2:9848, V-B:TYR:539:CD2:9846, V-A:ILE:538:CG2:4863, V-A:PRO:540:CB:4885, V-A:PRO:540:CD:4887, V-A:ILE:538:CB:4862, V-A:TYR:539:CZ:4877, V-A:PRO:540:CA:4883, V-A:TYR:539:CE2:4876, V-A:TYR:539:CD2:4874, V-A:TYR:539:C:4867, V-A:ILE:538:C:4858, V-A:PRO:540:N:4884, V-A:ILE:538:CA:4860, V-B:MET:535:CE:9807, V-B:TYR:539:CA:9841, V-B:TYR:531:CE2:9765, V-A:TYR:539:CA:4869, V-A:TYR:539:CG:4872, V-A:ASP:366:CG:3213, V-A:ASP:366:CB:3212, H-B:TYR:539:OH:9850, H-A:TYR:539:N:4870, V-A:TYR:484:CE1:4345, V-B:PRO:540:C:9853"]

$$$$
4eb_Grossjean_2025
     RDKit          3D

 30 33  0  0  0  0  0  0  0  0999 V2000
  127.5020  137.2720   60.4490 C   0  0  0  0  0  0  0  0  0  0  0  0
  126.8250  136.1760   61.0450 O   0  0  0  0  0  0  0  0  0  0  0  0
  125.8030  135.5520   60.4020 C   0  0  0  0  0  0  0  0  0  0  0  0
  124.8780  136.1560   59.8510 O   0  0  0  0  0  0  0  0  0  0  0  0
  125.9110  134.0550   60.4290 C   0  0  0  0  0  0  0  0  0  0  0  0
  127.1780  133.4600   60.3690 C   0  0  0  0  0  0  0  0  0  0  0  0
  127.3110  132.0750   60.3920 C   0  0  0  0  0  0  0  0  0  0  0  0
  126.1840  131.2560   60.4760 C   0  0  0  0  0  0  0  0  0  0  0  0
  126.4390  129.8710   60.4920 N   0  0  0  0  0  0  0  0  0  0  0  0
  126.0100  128.8890   59.6620 C   0  0  0  0  0  0  0  0  0  0  0  0
  125.2750  129.0740   58.6910 O   0  0  0  0  0  0  0  0  0  0  0  0
  126.4840  127.5420   59.9890 C   0  0  0  0  0  0  0  0  0  0  0  0
  127.3170  127.2350   61.5140 S   0  0  0  0  0  0  0  0  0  0  0  0
  127.5120  125.5420   61.1230 C   0  0  0  0  0  0  0  0  0  0  0  0
  128.1210  124.6920   61.9520 N   0  0  0  0  0  0  0  0  0  0  0  0
  128.2070  123.4080   61.5310 C   0  0  0  0  0  0  0  0  0  0  0  0
  128.9040  122.4590   62.4890 C   0  0  0  0  0  0  0  0  0  0  0  0
  127.7030  122.9550   60.3140 C   0  0  0  0  0  0  0  0  0  0  0  0
  127.0640  123.8500   59.4470 C   0  0  0  0  0  0  0  0  0  0  0  0
  126.5330  123.3540   58.1570 C   0  0  0  0  0  0  0  0  0  0  0  0
  127.4050  123.0600   57.1050 C   0  0  0  0  0  0  0  0  0  0  0  0
  126.9070  122.5920   55.8910 C   0  0  0  0  0  0  0  0  0  0  0  0
  125.5340  122.4220   55.7300 C   0  0  0  0  0  0  0  0  0  0  0  0
  124.6560  122.7150   56.7710 C   0  0  0  0  0  0  0  0  0  0  0  0
  125.1560  123.1830   57.9830 C   0  0  0  0  0  0  0  0  0  0  0  0
  126.9530  125.2080   59.8530 C   0  0  0  0  0  0  0  0  0  0  0  0
  126.3740  126.3680   59.2280 C   0  0  0  0  0  0  0  0  0  0  0  0
  125.7710  126.3120   57.9960 N   0  0  0  0  0  0  0  0  0  0  0  0
  124.9110  131.8430   60.5370 C   0  0  0  0  0  0  0  0  0  0  0  0
  124.7790  133.2290   60.5140 C   0  0  0  0  0  0  0  0  0  0  0  0
  1  2  1  0
  2  3  1  0
  3  4  2  0
  3  5  1  0
  5  6  2  0
  6  7  1  0
  7  8  2  0
  8  9  1  0
  9 10  1  0
 10 11  2  0
 10 12  1  0
 12 13  1  0
 13 14  1  0
 14 15  2  0
 15 16  1  0
 16 17  1  0
 16 18  2  0
 18 19  1  0
 19 20  1  0
 20 21  2  0
 21 22  1  0
 22 23  2  0
 23 24  1  0
 24 25  2  0
 19 26  2  0
 26 27  1  0
 27 28  1  0
  8 29  1  0
 29 30  2  0
 30  5  1  0
 27 12  2  0
 26 14  1  0
 25 20  1  0
M  END
>  <Binding energies>  (64) 
[-7.56]

>  <Ligand effiencies>  (64) 
[-0.22909090909090907]

>  <Interactions>  (64) 
["V-B:PRO:540:N:9856, V-B:PRO:540:CD:9859, V-B:PRO:540:CB:9857, V-B:PRO:540:CA:9855, V-B:ALA:541:CB:9864, V-B:LEU:363:CD1:8161, V-B:ASP:366:CG:8185, V-B:ILE:369:CG2:8209, V-A:TYR:539:CE1:4875, V-A:TYR:539:CD1:4873, V-B:LEU:475:CD2:9231, V-A:TYR:539:C:4867, V-B:ASP:366:CB:8184, V-B:MET:535:CE:9807, V-B:TYR:531:CZ:9766, H-B:TYR:531:OH:9767, V-B:TYR:531:CE2:9765, V-B:TYR:539:CE1:9847, V-B:TYR:539:CD1:9845, V-B:ILE:538:CD1:9837, V-B:ILE:538:CG2:9835, V-B:ILE:538:CA:9832, H-B:ASP:366:OD2:8187, V-A:TYR:484:CE1:4345, V-B:PRO:482:CG:9299, V-A:TYR:539:CB:4871, V-B:PRO:482:CB:9298, V-B:ILE:538:C:9830, V-B:ILE:538:CB:9834, V-B:PRO:540:CG:9858, H-B:SER:385:OG:8382"]

$$$$
8b_Ghoteimi_2023
     RDKit          3D

 34 38  0  0  0  0  0  0  0  0999 V2000
  126.7970  137.8400   59.5540 C   0  0  0  0  0  0  0  0  0  0  0  0
  125.6170  137.1440   59.9390 O   0  0  0  0  0  0  0  0  0  0  0  0
  125.6830  135.7840   60.1760 C   0  0  0  0  0  0  0  0  0  0  0  0
  126.9150  135.2840   60.5910 C   0  0  0  0  0  0  0  0  0  0  0  0
  127.0770  133.9270   60.8520 C   0  0  0  0  0  0  0  0  0  0  0  0
  126.0070  133.0330   60.7040 C   0  0  0  0  0  0  0  0  0  0  0  0
  126.1750  131.5720   60.9810 C   0  0  0  0  0  0  0  0  0  0  0  0
  126.4220  131.0910   62.2710 C   0  0  0  0  0  0  0  0  0  0  0  0
  126.5750  129.7210   62.5040 C   0  0  0  0  0  0  0  0  0  0  0  0
  126.8460  129.2450   63.8810 C   0  0  0  0  0  0  0  0  0  0  0  0
  128.1560  129.1870   64.3590 C   0  0  0  0  0  0  0  0  0  0  0  0
  128.4080  128.7480   65.6560 C   0  0  0  0  0  0  0  0  0  0  0  0
  127.3590  128.3610   66.4910 C   0  0  0  0  0  0  0  0  0  0  0  0
  127.7030  127.9420   67.7620 O   0  0  0  0  0  0  0  0  0  0  0  0
  128.9690  127.3230   67.9700 C   0  0  0  0  0  0  0  0  0  0  0  0
  126.0430  128.4170   66.0060 C   0  0  0  0  0  0  0  0  0  0  0  0
  125.7920  128.8560   64.7090 C   0  0  0  0  0  0  0  0  0  0  0  0
  126.4630  128.8380   61.3970 C   0  0  0  0  0  0  0  0  0  0  0  0
  126.5560  127.4060   61.2760 C   0  0  0  0  0  0  0  0  0  0  0  0
  126.7960  126.5930   62.3540 N   0  0  0  0  0  0  0  0  0  0  0  0
  126.3780  126.9340   59.9670 C   0  0  0  0  0  0  0  0  0  0  0  0
  126.4030  125.5510   59.4860 C   0  0  0  0  0  0  0  0  0  0  0  0
  126.8240  124.6410   60.2060 O   0  0  0  0  0  0  0  0  0  0  0  0
  125.9420  125.3650   58.2230 N   0  0  0  0  0  0  0  0  0  0  0  0
  125.8500  124.1690   57.5250 C   0  0  0  0  0  0  0  0  0  0  0  0
  124.6360  123.5440   57.2430 C   0  0  0  0  0  0  0  0  0  0  0  0
  124.9730  122.4030   56.5510 C   0  0  0  0  0  0  0  0  0  0  0  0
  126.3190  122.3450   56.4200 O   0  0  0  0  0  0  0  0  0  0  0  0
  126.8650  123.4710   57.0400 N   0  0  0  0  0  0  0  0  0  0  0  0
  126.0860  128.2630   58.8440 S   0  0  0  0  0  0  0  0  0  0  0  0
  126.2050  129.4390   60.1320 C   0  0  0  0  0  0  0  0  0  0  0  0
  126.0620  130.7450   59.9080 N   0  0  0  0  0  0  0  0  0  0  0  0
  124.7690  133.5430   60.2890 C   0  0  0  0  0  0  0  0  0  0  0  0
  124.6050  134.9000   60.0260 C   0  0  0  0  0  0  0  0  0  0  0  0
  1  2  1  0
  2  3  1  0
  3  4  2  0
  4  5  1  0
  5  6  2  0
  6  7  1  0
  7  8  2  0
  8  9  1  0
  9 10  1  0
 10 11  2  0
 11 12  1  0
 12 13  2  0
 13 14  1  0
 14 15  1  0
 13 16  1  0
 16 17  2  0
  9 18  2  0
 18 19  1  0
 19 20  1  0
 19 21  2  0
 21 22  1  0
 22 23  2  0
 22 24  1  0
 24 25  1  0
 25 26  1  0
 26 27  2  0
 27 28  1  0
 28 29  1  0
 21 30  1  0
 30 31  1  0
 31 32  2  0
  6 33  1  0
 33 34  2  0
 34  3  1  0
 32  7  1  0
 17 10  1  0
 31 18  1  0
 29 25  2  0
M  END
>  <Binding energies>  (65) 
[-8.13]

>  <Ligand effiencies>  (65) 
[-0.21972972972972976]

>  <Interactions>  (65) 
["V-B:PRO:540:N:9856, V-B:PRO:540:CD:9859, V-B:PRO:540:CB:9857, V-B:LEU:363:CD1:8161, V-B:ASP:366:CG:8185, V-B:ARG:545:CZ:9898, V-B:ILE:369:CG2:8209, V-A:TYR:539:CE1:4875, V-A:TYR:539:CD1:4873, V-B:LEU:475:CD2:9231, V-B:ASP:366:CB:8184, V-B:TYR:531:CZ:9766, H-B:TYR:531:OH:9767, V-B:TYR:531:CE2:9765, V-B:ILE:538:CD1:9837, V-B:ILE:538:CG2:9835, V-A:GLU:543:CD:4908, H-B:ASP:366:OD2:8187, V-B:GLU:543:CD:9880, H-B:GLU:543:OE1:9881, V-B:ARG:545:CD:9895, V-A:GLU:543:CG:4907, V-A:TYR:539:CB:4871, V-B:SER:385:CA:8379, V-B:ARG:545:CG:9894, V-B:HIS:456:CE1:9042, H-B:TYR:539:N:9842, V-A:VAL:344:CG1:3001, V-A:GLU:543:CB:4906, V-B:PRO:540:CG:9858, H-B:GLU:543:OE2:9882, V-A:HIS:456:CE1:4070, V-B:HIS:383:CD2:8364, H-B:SER:385:OG:8382, H-B:HIS:383:NE2:8366"]

$$$$
9d_Ghoteimi_2023
     RDKit          3D

 38 43  0  0  0  0  0  0  0  0999 V2000
  124.6150  134.6930   60.4540 C   0  0  0  0  0  0  0  0  0  0  0  0
  123.6810  133.6400   60.6480 O   0  0  0  0  0  0  0  0  0  0  0  0
  123.8650  132.4300   60.0600 C   0  0  0  0  0  0  0  0  0  0  0  0
  123.4810  132.1520   58.9210 O   0  0  0  0  0  0  0  0  0  0  0  0
  124.5730  131.4670   60.9310 C   0  0  0  0  0  0  0  0  0  0  0  0
  124.9840  131.9170   62.5860 S   0  0  0  0  0  0  0  0  0  0  0  0
  125.6980  130.3490   62.8780 C   0  0  0  0  0  0  0  0  0  0  0  0
  126.2060  130.0240   64.0650 N   0  0  0  0  0  0  0  0  0  0  0  0
  126.7220  128.7730   64.1950 C   0  0  0  0  0  0  0  0  0  0  0  0
  127.2640  128.4220   65.5440 C   0  0  0  0  0  0  0  0  0  0  0  0
  126.4650  127.7550   66.4780 C   0  0  0  0  0  0  0  0  0  0  0  0
  126.9590  127.4260   67.7370 C   0  0  0  0  0  0  0  0  0  0  0  0
  128.2770  127.7410   68.1040 C   0  0  0  0  0  0  0  0  0  0  0  0
  128.7820  127.4320   69.3720 N   0  0  0  0  0  0  0  0  0  0  0  0
  129.7610  128.3110   70.0440 C   0  0  0  0  0  0  0  0  0  0  0  0
  130.4620  127.6550   71.2520 C   0  0  0  0  0  0  0  0  0  0  0  0
  129.4960  127.1740   72.1710 O   0  0  0  0  0  0  0  0  0  0  0  0
  128.6560  126.1970   71.5770 C   0  0  0  0  0  0  0  0  0  0  0  0
  127.8990  126.8050   70.3770 C   0  0  0  0  0  0  0  0  0  0  0  0
  129.0690  128.4240   67.1690 C   0  0  0  0  0  0  0  0  0  0  0  0
  128.5730  128.7550   65.9110 C   0  0  0  0  0  0  0  0  0  0  0  0
  126.7580  127.8670   63.1320 C   0  0  0  0  0  0  0  0  0  0  0  0
  126.2420  128.2110   61.8770 C   0  0  0  0  0  0  0  0  0  0  0  0
  126.3300  127.2190   60.7720 C   0  0  0  0  0  0  0  0  0  0  0  0
  126.6550  127.6230   59.4760 C   0  0  0  0  0  0  0  0  0  0  0  0
  126.7540  126.6890   58.4480 C   0  0  0  0  0  0  0  0  0  0  0  0
  126.5490  125.3220   58.6960 C   0  0  0  0  0  0  0  0  0  0  0  0
  126.6340  124.3660   57.6810 N   0  0  0  0  0  0  0  0  0  0  0  0
  125.4820  123.4770   57.4340 C   0  0  0  0  0  0  0  0  0  0  0  0
  125.5490  122.7570   56.0700 C   0  0  0  0  0  0  0  0  0  0  0  0
  126.7730  122.0450   55.9560 O   0  0  0  0  0  0  0  0  0  0  0  0
  127.8940  122.9110   56.0530 C   0  0  0  0  0  0  0  0  0  0  0  0
  127.8860  123.6310   57.4190 C   0  0  0  0  0  0  0  0  0  0  0  0
  126.2220  124.9280   60.0020 C   0  0  0  0  0  0  0  0  0  0  0  0
  126.1210  125.8630   61.0270 C   0  0  0  0  0  0  0  0  0  0  0  0
  125.6590  129.5010   61.7310 C   0  0  0  0  0  0  0  0  0  0  0  0
  124.9920  130.1630   60.6400 C   0  0  0  0  0  0  0  0  0  0  0  0
  124.7670  129.5600   59.4290 N   0  0  0  0  0  0  0  0  0  0  0  0
  1  2  1  0
  2  3  1  0
  3  4  2  0
  3  5  1  0
  5  6  1  0
  6  7  1  0
  7  8  2  0
  8  9  1  0
  9 10  1  0
 10 11  2  0
 11 12  1  0
 12 13  2  0
 13 14  1  0
 14 15  1  0
 15 16  1  0
 16 17  1  0
 17 18  1  0
 18 19  1  0
 13 20  1  0
 20 21  2  0
  9 22  2  0
 22 23  1  0
 23 24  1  0
 24 25  2  0
 25 26  1  0
 26 27  2  0
 27 28  1  0
 28 29  1  0
 29 30  1  0
 30 31  1  0
 31 32  1  0
 32 33  1  0
 27 34  1  0
 34 35  2  0
 23 36  2  0
 36 37  1  0
 37 38  1  0
 37  5  2  0
 36  7  1  0
 21 10  1  0
 35 24  1  0
 19 14  1  0
 33 28  1  0
M  END
>  <Binding energies>  (66) 
[-6.46]

>  <Ligand effiencies>  (66) 
[-0.1615]

>  <Interactions>  (66) 
["V-B:TYR:539:CZ:9849, V-B:PRO:540:CB:9857, V-B:TYR:539:CG:9844, V-B:TYR:539:CE2:9848, V-B:TYR:539:CD2:9846, V-B:ASP:366:CG:8185, V-B:ILE:369:CG2:8209, V-A:TYR:539:CE1:4875, V-A:TYR:539:CD1:4873, V-B:LEU:475:CD2:9231, V-B:ASP:366:CA:8182, V-B:ILE:369:CD1:8211, V-B:ASP:366:CB:8184, V-B:MET:535:CE:9807, V-B:TYR:539:CE1:9847, V-B:TYR:539:CD1:9845, V-B:ILE:538:CD1:9837, V-A:GLU:543:CD:4908, H-B:ASP:366:OD2:8187, V-B:GLU:543:CD:9880, H-B:ASP:366:OD1:8186, H-B:TYR:484:OH:9320, V-A:GLU:543:CG:4907, V-B:ILE:369:CB:8208, V-B:SER:385:CA:8379, V-B:ARG:545:CG:9894, V-B:HIS:456:CE1:9042, H-B:TYR:539:N:9842, V-A:GLU:543:CB:4906, V-A:HIS:456:CE1:4070, V-A:HIS:456:CD2:4068, V-B:HIS:456:CD2:9040, H-B:LYS:547:NZ:9923, V-A:HIS:456:CG:4066, V-B:GLU:543:CB:9878, V-A:GLU:543:C:4902, V-A:GLY:544:C:4912"]

$$$$
RR10_Rahimova_2017
     RDKit          3D

 34 38  0  0  0  0  0  0  0  0999 V2000
  133.5370  124.2980   57.6960 C   0  0  0  0  0  0  0  0  0  0  0  0
  133.4430  124.0550   59.2120 C   0  0  1  0  0  0  0  0  0  0  0  0
  132.5380  125.0980   59.9080 C   0  0  0  0  0  0  0  0  0  0  0  0
  132.4860  124.8560   61.4340 C   0  0  0  0  0  0  0  0  0  0  0  0
  131.9800  123.4320   61.7820 C   0  0  1  0  0  0  0  0  0  0  0  0
  130.5620  123.2830   61.4290 N   0  0  0  0  0  0  0  0  0  0  0  0
  129.7790  122.2430   61.7690 C   0  0  0  0  0  0  0  0  0  0  0  0
  130.1790  121.2950   62.4490 O   0  0  0  0  0  0  0  0  0  0  0  0
  128.3250  122.2710   61.2520 C   0  0  1  0  0  0  0  0  0  0  0  0
  127.4430  123.0780   62.2400 C   0  0  0  0  0  0  0  0  0  0  0  0
  126.0050  123.1870   61.6790 C   0  0  0  0  0  0  0  0  0  0  0  0
  125.9730  123.7200   60.2280 C   0  0  0  0  0  0  0  0  0  0  0  0
  126.8920  122.9350   59.3600 N   0  0  0  0  0  0  0  0  0  0  0  0
  126.7180  123.2570   57.6270 S   0  0  0  0  0  0  0  0  0  0  0  0
  125.3950  123.8530   57.4040 O   0  0  0  0  0  0  0  0  0  0  0  0
  127.1140  122.0440   56.9000 O   0  0  0  0  0  0  0  0  0  0  0  0
  127.9250  124.5340   57.2670 C   0  0  0  0  0  0  0  0  0  0  0  0
  129.2870  124.2480   57.4100 C   0  0  0  0  0  0  0  0  0  0  0  0
  130.2770  125.1990   57.1480 C   0  0  0  0  0  0  0  0  0  0  0  0
  129.8380  126.4580   56.7310 C   0  0  0  0  0  0  0  0  0  0  0  0
  130.4790  127.6260   56.3920 N   0  0  0  0  0  0  0  0  0  0  0  0
  129.5170  128.5570   56.0580 C   0  0  0  0  0  0  0  0  0  0  0  0
  129.8330  129.9640   55.6390 C   0  0  0  0  0  0  0  0  0  0  0  0
  129.2460  130.5120   54.4900 C   0  0  0  0  0  0  0  0  0  0  0  0
  129.5350  131.8170   54.1020 C   0  0  0  0  0  0  0  0  0  0  0  0
  130.4150  132.5840   54.8620 C   0  0  0  0  0  0  0  0  0  0  0  0
  131.0060  132.0560   56.0070 C   0  0  0  0  0  0  0  0  0  0  0  0
  130.7160  130.7490   56.3930 C   0  0  0  0  0  0  0  0  0  0  0  0
  128.3020  128.0650   56.1530 N   0  0  0  0  0  0  0  0  0  0  0  0
  128.4670  126.7710   56.5700 C   0  0  0  0  0  0  0  0  0  0  0  0
  127.4960  125.7950   56.8370 C   0  0  0  0  0  0  0  0  0  0  0  0
  128.2950  122.9170   59.8460 C   0  0  0  0  0  0  0  0  0  0  0  0
  132.8860  122.3960   61.0630 C   0  0  0  0  0  0  0  0  0  0  0  0
  132.9350  122.6300   59.5370 C   0  0  0  0  0  0  0  0  0  0  0  0
  2  1  1  6
  2  3  1  0
  3  4  1  0
  4  5  1  0
  5  6  1  6
  6  7  1  0
  7  8  2  0
  9  7  1  1
  9 10  1  0
 10 11  1  0
 11 12  1  0
 12 13  1  0
 13 14  1  0
 14 15  2  0
 14 16  2  0
 14 17  1  0
 17 18  2  0
 18 19  1  0
 19 20  2  0
 20 21  1  0
 21 22  1  0
 22 23  1  0
 23 24  2  0
 24 25  1  0
 25 26  2  0
 26 27  1  0
 27 28  2  0
 22 29  2  0
 29 30  1  0
 30 31  2  0
 13 32  1  0
  5 33  1  0
 33 34  1  0
 34  2  1  0
 32  9  1  0
 31 17  1  0
 30 20  1  0
 28 23  1  0
M  END
>  <Binding energies>  (67) 
[-10.75]

>  <Ligand effiencies>  (67) 
[-0.2986111111111111]

>  <Interactions>  (67) 
["V-B:TYR:539:CZ:9849, V-B:PRO:540:N:9856, H-A:TYR:484:OH:4348, V-B:PRO:540:CB:9857, V-B:PRO:540:CA:9855, V-A:LEU:475:CD2:4259, V-B:ALA:541:CB:9864, V-B:TYR:539:CE2:9848, V-B:TYR:539:CD2:9846, V-A:ILE:538:CG2:4863, V-A:ILE:538:CB:4862, V-A:ILE:538:CA:4860, V-B:MET:535:CE:9807, H-B:TYR:531:OH:9767, V-A:ASP:366:CG:3213, V-A:ASP:366:CA:3210, V-A:ASP:366:CB:3212, H-A:TYR:531:OH:4795, V-A:ILE:369:CG2:3237, V-B:GLU:543:CD:9880, V-B:GLU:543:CG:9879, V-B:PRO:540:C:9853, V-A:ILE:369:CD1:3239, H-B:TYR:539:N:9842, V-A:ILE:369:CB:3236, V-A:ASP:366:C:3208"]

$$$$
RR12_Rahimova_2017
     RDKit          3D

 26 28  0  0  0  0  0  0  0  0999 V2000
  125.4770  123.6290   61.3100 C   0  0  0  0  0  0  0  0  0  0  0  0
  126.8590  124.1220   60.8620 C   0  0  0  0  0  0  0  0  0  0  0  0
  126.7750  125.2150   59.7810 C   0  0  0  0  0  0  0  0  0  0  0  0
  127.0920  124.6680   58.4640 N   0  0  0  0  0  0  0  0  0  0  0  0
  128.2700  124.8170   57.7490 C   0  0  0  0  0  0  0  0  0  0  0  0
  129.4500  125.6480   58.2240 C   0  0  0  0  0  0  0  0  0  0  0  0
  129.2380  127.1550   57.9930 C   0  0  0  0  0  0  0  0  0  0  0  0
  128.4160  127.4520   56.7240 C   0  0  0  0  0  0  0  0  0  0  0  0
  127.8480  128.8000   56.6910 N   0  0  0  0  0  0  0  0  0  0  0  0
  126.8840  129.2100   55.8460 C   0  0  0  0  0  0  0  0  0  0  0  0
  126.3740  128.4780   54.9950 O   0  0  0  0  0  0  0  0  0  0  0  0
  126.4390  130.6700   56.0060 C   0  0  0  0  0  0  0  0  0  0  0  0
  127.4620  131.4090   56.6750 O   0  0  0  0  0  0  0  0  0  0  0  0
  128.5990  131.7730   55.9780 C   0  0  0  0  0  0  0  0  0  0  0  0
  129.7070  132.1370   56.7470 C   0  0  0  0  0  0  0  0  0  0  0  0
  130.8990  132.5160   56.1350 C   0  0  0  0  0  0  0  0  0  0  0  0
  130.9860  132.5310   54.7460 C   0  0  0  0  0  0  0  0  0  0  0  0
  129.8900  132.1730   53.9640 C   0  0  0  0  0  0  0  0  0  0  0  0
  128.6980  131.7950   54.5770 C   0  0  0  0  0  0  0  0  0  0  0  0
  128.2670  124.1830   56.6030 N   0  0  0  0  0  0  0  0  0  0  0  0
  127.0510  123.5590   56.5510 C   0  0  0  0  0  0  0  0  0  0  0  0
  126.5250  122.7320   55.5470 C   0  0  0  0  0  0  0  0  0  0  0  0
  125.2480  122.2040   55.7320 C   0  0  0  0  0  0  0  0  0  0  0  0
  124.5070  122.4850   56.8810 C   0  0  0  0  0  0  0  0  0  0  0  0
  125.0010  123.3050   57.8970 C   0  0  0  0  0  0  0  0  0  0  0  0
  126.2840  123.8360   57.7100 C   0  0  0  0  0  0  0  0  0  0  0  0
  1  2  1  0
  2  3  1  0
  3  4  1  0
  4  5  1  0
  5  6  1  0
  6  7  1  0
  7  8  1  0
  8  9  1  0
  9 10  1  0
 10 11  2  0
 10 12  1  0
 12 13  1  0
 13 14  1  0
 14 15  2  0
 15 16  1  0
 16 17  2  0
 17 18  1  0
 18 19  2  0
  5 20  2  0
 20 21  1  0
 21 22  2  0
 22 23  1  0
 23 24  2  0
 24 25  1  0
 25 26  2  0
 26  4  1  0
 19 14  1  0
 26 21  1  0
M  END
>  <Binding energies>  (68) 
[-7.26]

>  <Ligand effiencies>  (68) 
[-0.2688888888888889]

>  <Interactions>  (68) 
["V-B:PRO:540:N:9856, V-B:PRO:540:CD:9859, V-B:PRO:540:CB:9857, V-B:PRO:540:CA:9855, V-B:LEU:363:CD1:8161, V-B:TYR:531:CE1:9764, V-A:ILE:538:CG2:4863, V-A:PRO:540:CB:4885, V-A:PRO:540:CD:4887, V-A:TYR:539:CE1:4875, V-A:ILE:538:CB:4862, V-A:TYR:539:CZ:4877, V-A:PRO:540:CA:4883, V-A:TYR:539:CE2:4876, V-A:TYR:539:CD2:4874, V-A:TYR:539:C:4867, V-A:PRO:540:N:4884, V-A:ILE:538:CA:4860, V-B:MET:535:CE:9807, H-B:TYR:531:OH:9767, V-B:ILE:538:CD1:9837, V-B:ILE:538:CG2:9835, V-B:ILE:538:CA:9832, H-B:LYS:534:NZ:9795, V-B:ILE:538:C:9830, V-B:ILE:538:CB:9834, V-B:PRO:540:CG:9858"]

$$$$
RR13_Rahimova_2017
     RDKit          3D

 48 54  0  0  0  0  0  0  0  0999 V2000
  130.5010  121.0610   60.6280 Cl  0  0  0  0  0  0  0  0  0  0  0  0
  131.1660  122.5960   61.0740 C   0  0  0  0  0  0  0  0  0  0  0  0
  132.4100  122.6050   61.7100 C   0  0  0  0  0  0  0  0  0  0  0  0
  132.9880  123.8050   62.1130 C   0  0  0  0  0  0  0  0  0  0  0  0
  132.3240  125.0080   61.8850 C   0  0  0  0  0  0  0  0  0  0  0  0
  131.0830  125.0070   61.2510 C   0  0  0  0  0  0  0  0  0  0  0  0
  130.4890  123.8070   60.8260 C   0  0  0  0  0  0  0  0  0  0  0  0
  129.1010  123.8310   60.1490 C   0  0  1  0  0  0  0  0  0  0  0  0
  128.0020  123.3820   61.1240 C   0  0  0  0  0  0  0  0  0  0  0  0
  128.1600  122.6330   62.1940 N   0  0  0  0  0  0  0  0  0  0  0  0
  126.8890  122.4730   62.7380 N   0  0  0  0  0  0  0  0  0  0  0  0
  125.9550  123.1280   61.9600 N   0  0  0  0  0  0  0  0  0  0  0  0
  126.6630  123.6600   60.9570 N   0  0  0  0  0  0  0  0  0  0  0  0
  126.0050  124.4710   59.9390 C   0  0  0  0  0  0  0  0  0  0  0  0
  125.1160  123.5880   59.0440 C   0  0  0  0  0  0  0  0  0  0  0  0
  125.7860  123.2530   57.7200 C   0  0  0  0  0  0  0  0  0  0  0  0
  125.0060  123.0150   56.5850 C   0  0  0  0  0  0  0  0  0  0  0  0
  125.6200  122.7010   55.3750 C   0  0  0  0  0  0  0  0  0  0  0  0
  127.0100  122.6270   55.3050 C   0  0  0  0  0  0  0  0  0  0  0  0
  127.7920  122.8630   56.4330 C   0  0  0  0  0  0  0  0  0  0  0  0
  127.1790  123.1760   57.6440 C   0  0  0  0  0  0  0  0  0  0  0  0
  128.7840  125.1240   59.4980 N   0  0  0  0  0  0  0  0  0  0  0  0
  129.8180  125.4710   58.5050 C   0  0  0  0  0  0  0  0  0  0  0  0
  129.4260  126.7500   57.7290 C   0  0  0  0  0  0  0  0  0  0  0  0
  129.2980  127.8950   58.6450 N   0  0  0  0  0  0  0  0  0  0  0  0
  129.0040  129.1610   57.9340 C   0  0  1  0  0  0  0  0  0  0  0  0
  130.2290  130.0470   57.6180 C   0  0  0  0  0  0  0  0  0  0  0  0
  131.4960  129.4950   57.8540 C   0  0  0  0  0  0  0  0  0  0  0  0
  132.6580  130.2160   57.5820 C   0  0  0  0  0  0  0  0  0  0  0  0
  132.5690  131.5090   57.0730 C   0  0  0  0  0  0  0  0  0  0  0  0
  131.3210  132.0810   56.8460 C   0  0  0  0  0  0  0  0  0  0  0  0
  130.1500  131.3680   57.1190 C   0  0  0  0  0  0  0  0  0  0  0  0
  128.6470  132.1920   56.8690 Cl  0  0  0  0  0  0  0  0  0  0  0  0
  128.1620  128.9590   56.6720 C   0  0  0  0  0  0  0  0  0  0  0  0
  128.6050  129.0410   55.4390 N   0  0  0  0  0  0  0  0  0  0  0  0
  127.5120  128.7720   54.6210 N   0  0  0  0  0  0  0  0  0  0  0  0
  126.3980  128.5100   55.3920 N   0  0  0  0  0  0  0  0  0  0  0  0
  126.8280  128.6100   56.6550 N   0  0  0  0  0  0  0  0  0  0  0  0
  125.8970  128.4130   57.7610 C   0  0  0  0  0  0  0  0  0  0  0  0
  124.7150  129.3930   57.6490 C   0  0  0  0  0  0  0  0  0  0  0  0
  124.8610  130.5780   58.5900 C   0  0  0  0  0  0  0  0  0  0  0  0
  126.1300  131.0790   58.8890 C   0  0  0  0  0  0  0  0  0  0  0  0
  126.2630  132.1690   59.7460 C   0  0  0  0  0  0  0  0  0  0  0  0
  125.1260  132.7540   60.3010 C   0  0  0  0  0  0  0  0  0  0  0  0
  123.8570  132.2580   60.0050 C   0  0  0  0  0  0  0  0  0  0  0  0
  123.7230  131.1690   59.1490 C   0  0  0  0  0  0  0  0  0  0  0  0
  128.2600  127.5460   59.6320 C   0  0  0  0  0  0  0  0  0  0  0  0
  128.6610  126.2730   60.4120 C   0  0  0  0  0  0  0  0  0  0  0  0
  1  2  1  0
  2  3  2  0
  3  4  1  0
  4  5  2  0
  5  6  1  0
  6  7  2  0
  7  8  1  0
  8  9  1  0
  9 10  2  0
 10 11  1  0
 11 12  2  0
 12 13  1  0
 13 14  1  0
 14 15  1  0
 15 16  1  0
 16 17  2  0
 17 18  1  0
 18 19  2  0
 19 20  1  0
 20 21  2  0
  8 22  1  1
 22 23  1  0
 23 24  1  0
 24 25  1  0
 26 25  1  6
 26 27  1  0
 27 28  2  0
 28 29  1  0
 29 30  2  0
 30 31  1  0
 31 32  2  0
 32 33  1  0
 26 34  1  0
 34 35  2  0
 35 36  1  0
 36 37  2  0
 37 38  1  0
 38 39  1  0
 39 40  1  0
 40 41  1  0
 41 42  2  0
 42 43  1  0
 43 44  2  0
 44 45  1  0
 45 46  2  0
 25 47  1  0
 47 48  1  0
  7  2  1  0
 13  9  1  0
 21 16  1  0
 48 22  1  0
 32 27  1  0
 38 34  1  0
 46 41  1  0
M  END
>  <Binding energies>  (69) 
[-13.39]

>  <Ligand effiencies>  (69) 
[-0.27895833333333336]

>  <Interactions>  (69) 
["V-B:TYR:539:CZ:9849, V-B:PRO:540:N:9856, V-B:PRO:540:CD:9859, V-B:PRO:540:CB:9857, V-B:TYR:539:CG:9844, V-B:PRO:540:CA:9855, V-A:LEU:475:CD2:4259, V-B:LEU:363:CD1:8161, V-B:TYR:539:CE2:9848, V-B:TYR:539:CD2:9846, V-B:TYR:531:CE1:9764, V-B:ASP:366:CG:8185, V-B:ILE:369:CG2:8209, V-A:PRO:540:CB:4885, V-A:PRO:540:CD:4887, V-A:TYR:539:CE1:4875, V-A:TYR:539:CD1:4873, V-A:PRO:540:CA:4883, V-A:LEU:363:CD1:3189, V-B:ASP:366:CA:8182, V-B:ILE:369:CD1:8211, V-A:TYR:539:C:4867, V-A:PRO:540:N:4884, V-B:ASP:366:CB:8184, V-B:MET:535:CE:9807, V-B:TYR:531:CZ:9766, H-B:TYR:531:OH:9767, V-B:TYR:531:CE2:9765, V-B:TYR:539:CE1:9847, V-A:TYR:539:CG:4872, V-A:ASP:366:CG:3213, V-B:TYR:539:CD1:9845, V-B:ILE:538:CD1:9837, V-B:ILE:538:CG2:9835, V-A:ASP:366:CB:3212, V-B:ILE:538:CA:9832, H-B:LYS:534:NZ:9795, H-B:ALA:541:N:9863, V-B:ILE:369:CB:8208, V-B:ILE:538:C:9830"]

$$$$
RR14_Rahimova_2017
     RDKit          3D

 39 43  0  0  0  0  0  0  0  0999 V2000
  131.3920  121.6500   61.8260 C   0  0  0  0  0  0  0  0  0  0  0  0
  130.1060  121.9410   62.3630 O   0  0  0  0  0  0  0  0  0  0  0  0
  129.1020  122.3630   61.5120 C   0  0  0  0  0  0  0  0  0  0  0  0
  129.2700  122.0730   60.1580 C   0  0  0  0  0  0  0  0  0  0  0  0
  128.3230  122.4800   59.2240 C   0  0  0  0  0  0  0  0  0  0  0  0
  127.1940  123.1910   59.6370 C   0  0  0  0  0  0  0  0  0  0  0  0
  126.1880  123.6950   58.6100 C   0  0  0  0  0  0  0  0  0  0  0  0
  126.4590  123.2190   57.2530 N   0  0  0  0  0  0  0  0  0  0  0  0
  125.6970  122.2660   56.7060 N   0  0  0  0  0  0  0  0  0  0  0  0
  126.2480  122.0490   55.4580 N   0  0  0  0  0  0  0  0  0  0  0  0
  127.3500  122.8770   55.2710 N   0  0  0  0  0  0  0  0  0  0  0  0
  127.4630  123.5740   56.3780 C   0  0  0  0  0  0  0  0  0  0  0  0
  128.5470  124.6060   56.6570 C   0  0  0  0  0  0  0  0  0  0  0  0
  128.0650  125.7150   57.4970 N   0  0  0  0  0  0  0  0  0  0  0  0
  128.9650  125.9780   58.6280 C   0  0  0  0  0  0  0  0  0  0  0  0
  130.2450  125.1140   58.6060 C   0  0  0  0  0  0  0  0  0  0  0  0
  131.4520  125.7780   59.3020 C   0  0  0  0  0  0  0  0  0  0  0  0
  131.9630  125.0050   60.4390 N   0  0  0  0  0  0  0  0  0  0  0  0
  131.8670  125.7910   61.6750 C   0  0  0  0  0  0  0  0  0  0  0  0
  132.4460  125.0250   62.8840 C   0  0  0  0  0  0  0  0  0  0  0  0
  133.7810  124.6130   62.6080 O   0  0  0  0  0  0  0  0  0  0  0  0
  133.8570  123.7570   61.4740 C   0  0  0  0  0  0  0  0  0  0  0  0
  133.3230  124.4860   60.2220 C   0  0  0  0  0  0  0  0  0  0  0  0
  127.8910  126.9270   56.6850 C   0  0  0  0  0  0  0  0  0  0  0  0
  126.9020  127.9590   57.2220 C   0  0  0  0  0  0  0  0  0  0  0  0
  126.6280  128.0420   58.5470 C   0  0  0  0  0  0  0  0  0  0  0  0
  125.6460  129.0040   59.0880 C   0  0  0  0  0  0  0  0  0  0  0  0
  125.3530  129.1300   60.4570 C   0  0  0  0  0  0  0  0  0  0  0  0
  126.0430  128.2660   61.5040 C   0  0  0  0  0  0  0  0  0  0  0  0
  124.4070  130.0750   60.8650 C   0  0  0  0  0  0  0  0  0  0  0  0
  123.7610  130.8830   59.9320 C   0  0  0  0  0  0  0  0  0  0  0  0
  124.0470  130.7670   58.5680 C   0  0  0  0  0  0  0  0  0  0  0  0
  123.3250  131.6660   57.5740 C   0  0  0  0  0  0  0  0  0  0  0  0
  124.9950  129.8210   58.1470 C   0  0  0  0  0  0  0  0  0  0  0  0
  125.3140  129.6660   56.7820 N   0  0  0  0  0  0  0  0  0  0  0  0
  126.2060  128.7990   56.2410 C   0  0  0  0  0  0  0  0  0  0  0  0
  126.3760  128.7580   55.0230 O   0  0  0  0  0  0  0  0  0  0  0  0
  127.0020  123.4600   60.9940 C   0  0  0  0  0  0  0  0  0  0  0  0
  127.9510  123.0540   61.9270 C   0  0  0  0  0  0  0  0  0  0  0  0
  1  2  1  0
  2  3  1  0
  3  4  2  0
  4  5  1  0
  5  6  2  0
  6  7  1  0
  7  8  1  0
  8  9  1  0
  9 10  2  0
 10 11  1  0
 11 12  2  0
 12 13  1  0
 13 14  1  0
 14 15  1  0
 15 16  1  0
 16 17  1  0
 17 18  1  0
 18 19  1  0
 19 20  1  0
 20 21  1  0
 21 22  1  0
 22 23  1  0
 14 24  1  0
 24 25  1  0
 25 26  2  0
 26 27  1  0
 27 28  2  0
 28 29  1  0
 28 30  1  0
 30 31  2  0
 31 32  1  0
 32 33  1  0
 32 34  2  0
 34 35  1  0
 35 36  1  0
 36 37  2  0
  6 38  1  0
 38 39  2  0
 39  3  1  0
 12  8  1  0
 23 18  1  0
 36 25  1  0
 34 27  1  0
M  END
>  <Binding energies>  (70) 
[-11.38]

>  <Ligand effiencies>  (70) 
[-0.28450000000000003]

>  <Interactions>  (70) 
["V-B:TYR:539:CZ:9849, V-B:TYR:539:C:9839, V-B:PRO:540:N:9856, H-A:TYR:484:OH:4348, V-B:PRO:540:CB:9857, V-B:PRO:540:CA:9855, V-A:LEU:475:CD2:4259, H-A:GLY:454:N:4050, V-B:TYR:539:CE2:9848, V-B:TYR:539:CD2:9846, V-B:TYR:531:CE1:9764, V-B:ASP:366:CG:8185, V-B:ILE:369:CG2:8209, V-A:TYR:539:CE1:4875, V-A:TYR:539:CZ:4877, V-B:ASP:366:CA:8182, V-B:ILE:369:CD1:8211, V-B:ASP:366:C:8180, V-B:ASP:366:CB:8184, V-B:MET:535:CE:9807, V-B:TYR:531:CZ:9766, H-B:TYR:531:OH:9767, V-A:ASP:366:CG:3213, H-B:LYS:534:NZ:9795, V-B:GLU:543:CD:9880, V-A:ILE:369:CD1:3239, V-A:ARG:545:CZ:4926, V-B:ILE:369:CB:8208, H-A:TYR:539:OH:4878, H-B:TYR:539:N:9842, H-A:ARG:545:NH2:4928"]

$$$$
RR15_Rahimova_2017
     RDKit          3D

 45 49  0  0  0  0  0  0  0  0999 V2000
  133.7520  124.6990   62.0900 C   0  0  0  0  0  0  0  0  0  0  0  0
  133.2350  123.9070   61.0260 O   0  0  0  0  0  0  0  0  0  0  0  0
  132.7610  124.5270   59.8830 C   0  0  0  0  0  0  0  0  0  0  0  0
  133.3810  124.4250   58.6280 C   0  0  0  0  0  0  0  0  0  0  0  0
  132.8520  125.0770   57.5170 C   0  0  0  0  0  0  0  0  0  0  0  0
  131.6920  125.8500   57.6270 C   0  0  0  0  0  0  0  0  0  0  0  0
  131.1250  126.5600   56.4280 C   0  0  0  0  0  0  0  0  0  0  0  0
  131.5210  126.3100   55.1880 N   0  0  0  0  0  0  0  0  0  0  0  0
  130.7890  127.1520   54.3760 N   0  0  0  0  0  0  0  0  0  0  0  0
  129.9920  127.7960   55.2290 N   0  0  0  0  0  0  0  0  0  0  0  0
  129.1500  128.9140   54.8080 C   0  0  0  0  0  0  0  0  0  0  0  0
  127.7470  128.9540   55.4650 C   0  0  0  0  0  0  0  0  0  0  0  0
  126.8030  128.4470   54.8540 O   0  0  0  0  0  0  0  0  0  0  0  0
  127.5950  129.5160   56.7040 N   0  0  0  0  0  0  0  0  0  0  0  0
  127.6380  128.6930   57.9290 C   0  0  0  0  0  0  0  0  0  0  0  0
  126.8120  127.3930   57.8300 C   0  0  0  0  0  0  0  0  0  0  0  0
  127.6450  126.0900   57.8680 C   0  0  0  0  0  0  0  0  0  0  0  0
  127.1070  125.0200   57.0230 N   0  0  0  0  0  0  0  0  0  0  0  0
  128.1350  124.1020   56.5090 C   0  0  0  0  0  0  0  0  0  0  0  0
  127.5070  122.9480   55.6990 C   0  0  0  0  0  0  0  0  0  0  0  0
  126.5260  122.2750   56.4800 O   0  0  0  0  0  0  0  0  0  0  0  0
  125.4730  123.1410   56.8920 C   0  0  0  0  0  0  0  0  0  0  0  0
  126.0450  124.2990   57.7380 C   0  0  0  0  0  0  0  0  0  0  0  0
  127.5690  130.9920   56.9400 C   0  0  2  0  0  0  0  0  0  0  0  0
  128.9820  131.6420   57.0630 C   0  0  0  0  0  0  0  0  0  0  0  0
  129.2440  132.7040   56.4990 O   0  0  0  0  0  0  0  0  0  0  0  0
  129.8570  130.9880   57.8470 N   0  0  0  0  0  0  0  0  0  0  0  0
  131.1950  131.4550   58.1910 C   0  0  0  0  0  0  0  0  0  0  0  0
  131.5660  131.0680   59.6350 C   0  0  2  0  0  0  0  0  0  0  0  0
  130.9810  129.7340   60.1310 C   0  0  0  0  0  0  0  0  0  0  0  0
  129.8070  130.1330   60.9920 C   0  0  0  0  0  0  0  0  0  0  0  0
  130.3020  131.4400   61.5870 C   0  0  0  0  0  0  0  0  0  0  0  0
  130.9570  132.0520   60.4810 O   0  0  0  0  0  0  0  0  0  0  0  0
  126.5380  131.3480   58.0050 C   0  0  0  0  0  0  0  0  0  0  0  0
  126.9690  132.0660   59.1270 C   0  0  0  0  0  0  0  0  0  0  0  0
  126.0720  132.4180   60.1310 C   0  0  0  0  0  0  0  0  0  0  0  0
  124.7330  132.0560   60.0200 C   0  0  0  0  0  0  0  0  0  0  0  0
  123.8610  132.3980   60.9950 F   0  0  0  0  0  0  0  0  0  0  0  0
  124.2850  131.3430   58.9110 C   0  0  0  0  0  0  0  0  0  0  0  0
  125.1830  130.9900   57.9070 C   0  0  0  0  0  0  0  0  0  0  0  0
  130.1920  127.4900   56.5160 N   0  0  0  0  0  0  0  0  0  0  0  0
  131.0740  125.9490   58.8800 C   0  0  0  0  0  0  0  0  0  0  0  0
  131.5930  125.2940   60.0090 C   0  0  0  0  0  0  0  0  0  0  0  0
  131.0170  125.3580   61.2660 O   0  0  0  0  0  0  0  0  0  0  0  0
  130.4290  126.5770   61.7090 C   0  0  0  0  0  0  0  0  0  0  0  0
  1  2  1  0
  2  3  1  0
  3  4  2  0
  4  5  1  0
  5  6  2  0
  6  7  1  0
  7  8  1  0
  8  9  2  0
  9 10  1  0
 10 11  1  0
 11 12  1  0
 12 13  2  0
 12 14  1  0
 14 15  1  0
 15 16  1  0
 16 17  1  0
 17 18  1  0
 18 19  1  0
 19 20  1  0
 20 21  1  0
 21 22  1  0
 22 23  1  0
 24 14  1  1
 24 25  1  0
 25 26  2  0
 25 27  1  0
 27 28  1  0
 29 28  1  6
 29 30  1  0
 30 31  1  0
 31 32  1  0
 32 33  1  0
 24 34  1  0
 34 35  2  0
 35 36  1  0
 36 37  2  0
 37 38  1  0
 37 39  1  0
 39 40  2  0
 10 41  1  0
  6 42  1  0
 42 43  2  0
 43 44  1  0
 44 45  1  0
 43  3  1  0
 41  7  2  0
 23 18  1  0
 33 29  1  0
 40 34  1  0
M  END
>  <Binding energies>  (71) 
[-9.71]

>  <Ligand effiencies>  (71) 
[-0.21108695652173914]

>  <Interactions>  (71) 
["V-B:TYR:539:CZ:9849, V-B:TYR:539:CE2:9848, V-B:ILE:369:CG2:8209, V-A:PRO:540:CB:4885, V-A:TYR:539:CE1:4875, V-A:TYR:539:CD1:4873, V-A:TYR:539:CZ:4877, V-A:PRO:540:CA:4883, V-B:ILE:369:CD1:8211, V-A:MET:535:CE:4835, V-B:MET:535:CE:9807, H-B:TYR:531:OH:9767, V-B:TYR:539:CE1:9847, V-A:ASP:366:CG:3213, V-B:TYR:539:CD1:9845, V-A:ASP:366:CA:3210, V-A:ASP:366:CB:3212, V-A:ALA:541:CB:4892, H-A:TYR:531:OH:4795, H-B:TYR:539:OH:9850, V-A:ILE:369:CG2:3237, V-A:GLU:543:CD:4908, H-A:TYR:539:N:4870, H-A:ALA:541:N:4891, H-B:LYS:534:NZ:9795, V-A:ARG:545:CZ:4926, V-A:GLU:543:CG:4907, H-B:TYR:539:N:9842, V-A:ILE:369:CB:3236, V-A:ASP:366:C:3208"]

$$$$
RR17_Rahimova_2017
     RDKit          3D

 38 41  0  0  0  0  0  0  0  0999 V2000
  132.3660  131.7890   56.7640 C   0  0  0  0  0  0  0  0  0  0  0  0
  132.3540  132.8690   55.6780 C   0  0  0  0  0  0  0  0  0  0  0  0
  131.0110  133.2980   55.4740 O   0  0  0  0  0  0  0  0  0  0  0  0
  130.0040  132.3550   55.3870 C   0  0  0  0  0  0  0  0  0  0  0  0
  129.0750  132.3380   56.4270 C   0  0  0  0  0  0  0  0  0  0  0  0
  128.0270  131.4240   56.4280 C   0  0  0  0  0  0  0  0  0  0  0  0
  127.8860  130.4990   55.3820 C   0  0  0  0  0  0  0  0  0  0  0  0
  126.7450  129.5250   55.4100 C   0  0  0  0  0  0  0  0  0  0  0  0
  126.7870  128.4410   54.8210 O   0  0  0  0  0  0  0  0  0  0  0  0
  125.4860  129.9410   56.2020 C   0  0  0  0  0  0  0  0  0  0  0  0
  125.5140  129.3150   57.9200 S   0  0  0  0  0  0  0  0  0  0  0  0
  124.5960  130.5970   58.7270 C   0  0  0  0  0  0  0  0  0  0  0  0
  123.2960  130.7610   58.6550 N   0  0  0  0  0  0  0  0  0  0  0  0
  122.9630  131.8660   59.4280 N   0  0  0  0  0  0  0  0  0  0  0  0
  124.0760  132.3260   59.9430 C   0  0  0  0  0  0  0  0  0  0  0  0
  124.1660  133.5290   60.8700 C   0  0  0  0  0  0  0  0  0  0  0  0
  124.1830  133.1800   62.2890 N   0  0  0  0  0  0  0  0  0  0  0  0
  124.8430  132.0520   62.8080 C   0  0  0  0  0  0  0  0  0  0  0  0
  126.2090  132.1670   63.0610 C   0  0  0  0  0  0  0  0  0  0  0  0
  126.9240  131.0870   63.5700 C   0  0  0  0  0  0  0  0  0  0  0  0
  126.2780  129.8760   63.8360 C   0  0  0  0  0  0  0  0  0  0  0  0
  127.0790  128.6980   64.3880 C   0  0  0  0  0  0  0  0  0  0  0  0
  127.4270  127.8310   63.4350 F   0  0  0  0  0  0  0  0  0  0  0  0
  128.1950  129.1300   64.9780 F   0  0  0  0  0  0  0  0  0  0  0  0
  126.3400  128.0530   65.2910 F   0  0  0  0  0  0  0  0  0  0  0  0
  124.9060  129.7610   63.5900 C   0  0  0  0  0  0  0  0  0  0  0  0
  124.1910  130.8420   63.0820 C   0  0  0  0  0  0  0  0  0  0  0  0
  125.1540  131.5720   59.5280 N   0  0  0  0  0  0  0  0  0  0  0  0
  126.5040  131.7420   59.8700 C   0  0  0  0  0  0  0  0  0  0  0  0
  127.0480  133.0250   59.9080 C   0  0  0  0  0  0  0  0  0  0  0  0
  128.3880  133.1930   60.2440 C   0  0  0  0  0  0  0  0  0  0  0  0
  129.1880  132.0780   60.5420 C   0  0  0  0  0  0  0  0  0  0  0  0
  130.5250  132.1480   60.8850 O   0  0  0  0  0  0  0  0  0  0  0  0
  131.3130  130.9630   60.8550 C   0  0  0  0  0  0  0  0  0  0  0  0
  128.6270  130.7990   60.4960 C   0  0  0  0  0  0  0  0  0  0  0  0
  127.2870  130.6250   60.1620 C   0  0  0  0  0  0  0  0  0  0  0  0
  128.8210  130.5170   54.3370 C   0  0  0  0  0  0  0  0  0  0  0  0
  129.8680  131.4350   54.3370 C   0  0  0  0  0  0  0  0  0  0  0  0
  1  2  1  0
  2  3  1  0
  3  4  1  0
  4  5  2  0
  5  6  1  0
  6  7  2  0
  7  8  1  0
  8  9  2  0
  8 10  1  0
 10 11  1  0
 11 12  1  0
 12 13  2  0
 13 14  1  0
 14 15  2  0
 15 16  1  0
 16 17  1  0
 17 18  1  0
 18 19  2  0
 19 20  1  0
 20 21  2  0
 21 22  1  0
 22 23  1  0
 22 24  1  0
 22 25  1  0
 21 26  1  0
 26 27  2  0
 15 28  1  0
 28 29  1  0
 29 30  2  0
 30 31  1  0
 31 32  2  0
 32 33  1  0
 33 34  1  0
 32 35  1  0
 35 36  2  0
  7 37  1  0
 37 38  2  0
 38  4  1  0
 28 12  1  0
 36 29  1  0
 27 18  1  0
M  END
>  <Binding energies>  (72) 
[-9.11]

>  <Ligand effiencies>  (72) 
[-0.23358974358974358]

>  <Interactions>  (72) 
["V-B:TYR:531:CE1:9764, V-B:ARG:545:CZ:9898, V-B:ILE:369:CG2:8209, V-A:ILE:538:CG2:4863, V-A:PRO:540:CB:4885, V-A:PRO:540:CD:4887, V-A:TYR:539:CE1:4875, V-A:TYR:539:CD1:4873, V-A:ILE:538:CB:4862, V-A:PRO:540:CG:4886, V-A:TYR:539:CZ:4877, V-A:PRO:540:CA:4883, V-B:LEU:475:CD2:9231, V-A:LEU:363:CD1:3189, V-B:GLY:454:CA:9021, V-B:ASP:366:CA:8182, V-B:ILE:369:CD1:8211, V-A:TYR:539:C:4867, V-A:PRO:540:N:4884, V-B:ASP:366:CB:8184, H-B:TYR:531:OH:9767, V-A:TYR:539:CG:4872, V-A:GLU:543:CD:4908, H-A:TYR:539:N:4870, H-A:ALA:541:N:4891, H-B:LYS:534:NZ:9795, V-B:GLU:543:CD:9880, V-B:GLY:453:C:9014, V-A:GLU:543:CG:4907, V-B:ILE:369:CB:8208, V-B:TYR:484:CZ:9319, V-A:GLU:543:CB:4906, H-B:SER:385:O:8378"]

$$$$
RR19_Rahimova_2017
     RDKit          3D

 46 51  0  0  0  0  0  0  0  0999 V2000
  129.2200  125.5380   62.4550 O   0  0  0  0  0  0  0  0  0  0  0  0
  128.7430  125.1300   61.3920 C   0  0  0  0  0  0  0  0  0  0  0  0
  128.9440  125.6780   60.1660 N   0  0  0  0  0  0  0  0  0  0  0  0
  129.8270  126.6180   59.6950 C   0  0  0  0  0  0  0  0  0  0  0  0
  131.1610  127.2280   60.5400 S   0  0  0  0  0  0  0  0  0  0  0  0
  129.4480  126.9790   58.4260 N   0  0  0  0  0  0  0  0  0  0  0  0
  130.0310  127.7450   57.4700 C   0  0  0  0  0  0  0  0  0  0  0  0
  131.1900  128.1680   57.4770 O   0  0  0  0  0  0  0  0  0  0  0  0
  129.0910  128.1050   56.2920 C   0  0  2  0  0  0  0  0  0  0  0  0
  129.7950  128.7680   55.0730 C   0  0  0  0  0  0  0  0  0  0  0  0
  129.5690  130.2650   54.9300 C   0  0  0  0  0  0  0  0  0  0  0  0
  128.8020  130.7820   53.8640 C   0  0  0  0  0  0  0  0  0  0  0  0
  128.5390  132.1430   53.7930 C   0  0  0  0  0  0  0  0  0  0  0  0
  129.0140  133.0010   54.7790 C   0  0  0  0  0  0  0  0  0  0  0  0
  129.7450  132.5020   55.8500 C   0  0  0  0  0  0  0  0  0  0  0  0
  130.0160  131.1430   55.9400 C   0  0  0  0  0  0  0  0  0  0  0  0
  127.9280  128.9100   56.7560 N   0  0  0  0  0  0  0  0  0  0  0  0
  126.7670  128.9560   56.0420 C   0  0  0  0  0  0  0  0  0  0  0  0
  126.5300  128.4030   54.9660 O   0  0  0  0  0  0  0  0  0  0  0  0
  125.8470  129.8080   56.8350 C   0  0  0  0  0  0  0  0  0  0  0  0
  124.5320  130.2070   56.5920 C   0  0  0  0  0  0  0  0  0  0  0  0
  123.8950  131.0220   57.5340 C   0  0  0  0  0  0  0  0  0  0  0  0
  124.5710  131.4220   58.6950 C   0  0  0  0  0  0  0  0  0  0  0  0
  125.8890  131.0110   58.9200 C   0  0  0  0  0  0  0  0  0  0  0  0
  126.5080  130.2000   57.9680 C   0  0  0  0  0  0  0  0  0  0  0  0
  127.8680  129.6070   57.9300 C   0  0  0  0  0  0  0  0  0  0  0  0
  128.7490  129.7150   58.7840 O   0  0  0  0  0  0  0  0  0  0  0  0
  127.8080  123.8910   61.3970 C   0  0  2  0  0  0  0  0  0  0  0  0
  128.4310  122.6350   62.0710 C   0  0  0  0  0  0  0  0  0  0  0  0
  129.7800  122.2350   61.5020 C   0  0  0  0  0  0  0  0  0  0  0  0
  130.8800  123.1140   61.6020 C   0  0  0  0  0  0  0  0  0  0  0  0
  132.1360  122.7070   61.1720 C   0  0  0  0  0  0  0  0  0  0  0  0
  132.3230  121.4260   60.6680 C   0  0  0  0  0  0  0  0  0  0  0  0
  131.2580  120.5360   60.6000 C   0  0  0  0  0  0  0  0  0  0  0  0
  129.9930  120.9240   61.0240 C   0  0  0  0  0  0  0  0  0  0  0  0
  127.2460  123.5690   60.0550 N   0  0  0  0  0  0  0  0  0  0  0  0
  125.9040  123.5660   59.8210 C   0  0  0  0  0  0  0  0  0  0  0  0
  125.0050  123.7950   60.6320 O   0  0  0  0  0  0  0  0  0  0  0  0
  125.7550  123.2290   58.3840 C   0  0  0  0  0  0  0  0  0  0  0  0
  124.6150  123.0780   57.5930 C   0  0  0  0  0  0  0  0  0  0  0  0
  124.7750  122.7540   56.2410 C   0  0  0  0  0  0  0  0  0  0  0  0
  126.0580  122.5890   55.7020 C   0  0  0  0  0  0  0  0  0  0  0  0
  127.1890  122.7470   56.5110 C   0  0  0  0  0  0  0  0  0  0  0  0
  127.0070  123.0670   57.8570 C   0  0  0  0  0  0  0  0  0  0  0  0
  127.9910  123.2970   58.9420 C   0  0  0  0  0  0  0  0  0  0  0  0
  129.2190  123.2530   58.8580 O   0  0  0  0  0  0  0  0  0  0  0  0
  1  2  2  0
  2  3  1  0
  3  4  1  0
  4  5  2  0
  4  6  1  0
  6  7  1  0
  7  8  2  0
  7  9  1  0
  9 10  1  6
 10 11  1  0
 11 12  2  0
 12 13  1  0
 13 14  2  0
 14 15  1  0
 15 16  2  0
  9 17  1  0
 17 18  1  0
 18 19  2  0
 18 20  1  0
 20 21  2  0
 21 22  1  0
 22 23  2  0
 23 24  1  0
 24 25  2  0
 25 26  1  0
 26 27  2  0
  2 28  1  0
 28 29  1  6
 29 30  1  0
 30 31  2  0
 31 32  1  0
 32 33  2  0
 33 34  1  0
 34 35  2  0
 28 36  1  0
 36 37  1  0
 37 38  2  0
 37 39  1  0
 39 40  2  0
 40 41  1  0
 41 42  2  0
 42 43  1  0
 43 44  2  0
 44 45  1  0
 45 46  2  0
 16 11  1  0
 26 17  1  0
 35 30  1  0
 45 36  1  0
 25 20  1  0
 44 39  1  0
M  END
>  <Binding energies>  (73) 
[-12.08]

>  <Ligand effiencies>  (73) 
[-0.25166666666666665]

>  <Interactions>  (73) 
["V-B:TYR:539:C:9839, V-B:PRO:540:N:9856, V-B:PRO:540:CD:9859, V-B:PRO:540:CB:9857, V-B:TYR:539:CG:9844, V-B:PRO:540:CA:9855, V-A:LEU:475:CD2:4259, V-B:ALA:541:CB:9864, V-B:LEU:363:CD1:8161, V-B:TYR:539:CE2:9848, V-B:TYR:539:CD2:9846, V-B:TYR:531:CE1:9764, V-A:TYR:539:CE1:4875, V-A:TYR:539:CZ:4877, V-B:ASP:366:CA:8182, V-A:TYR:539:CE2:4876, V-A:TYR:539:CD2:4874, V-A:TYR:539:C:4867, V-A:MET:535:CE:4835, V-A:ILE:538:C:4858, V-B:ASP:366:C:8180, V-A:ILE:538:CA:4860, V-B:MET:535:CE:9807, V-B:TYR:531:CZ:9766, H-B:TYR:531:OH:9767, V-B:TYR:531:CE2:9765, V-A:TYR:539:CA:4869, V-B:TYR:539:CE1:9847, V-A:TYR:539:CG:4872, V-A:ASP:366:CG:3213, V-B:TYR:539:CD1:9845, V-B:ILE:538:CD1:9837, V-B:ILE:538:CG2:9835, V-B:ILE:538:CA:9832, H-A:TYR:531:OH:4795, H-B:LYS:534:NZ:9795, V-B:GLU:543:CD:9880, V-B:PRO:540:CG:9858"]

$$$$
RR1_Rahimova_2017
     RDKit          3D

 41 44  0  0  0  0  0  0  0  0999 V2000
  125.3490  122.7110   56.2190 C   0  0  0  0  0  0  0  0  0  0  0  0
  126.7410  122.4400   56.3350 O   0  0  0  0  0  0  0  0  0  0  0  0
  127.4610  123.0300   57.3560 C   0  0  0  0  0  0  0  0  0  0  0  0
  127.7990  124.3920   57.4010 C   0  0  0  0  0  0  0  0  0  0  0  0
  128.5350  124.8970   58.4680 C   0  0  0  0  0  0  0  0  0  0  0  0
  128.9390  124.0580   59.5080 C   0  0  0  0  0  0  0  0  0  0  0  0
  129.7180  124.6530   60.5180 N   0  0  0  0  0  0  0  0  0  0  0  0
  129.8710  124.2860   61.8090 C   0  0  0  0  0  0  0  0  0  0  0  0
  129.2660  123.3610   62.3510 O   0  0  0  0  0  0  0  0  0  0  0  0
  130.8830  125.1310   62.5990 C   0  0  0  0  0  0  0  0  0  0  0  0
  132.6210  124.5770   62.4880 S   0  0  0  0  0  0  0  0  0  0  0  0
  132.3700  123.2100   61.4070 C   0  0  0  0  0  0  0  0  0  0  0  0
  131.8830  122.0540   61.7820 N   0  0  0  0  0  0  0  0  0  0  0  0
  131.8560  121.3410   60.6610 C   0  0  0  0  0  0  0  0  0  0  0  0
  131.3480  119.9280   60.6190 C   0  0  0  0  0  0  0  0  0  0  0  0
  130.2140  119.5330   61.3480 C   0  0  0  0  0  0  0  0  0  0  0  0
  129.7670  118.2120   61.2920 C   0  0  0  0  0  0  0  0  0  0  0  0
  130.4700  117.3060   60.5000 C   0  0  0  0  0  0  0  0  0  0  0  0
  131.5690  117.6520   59.7830 N   0  0  0  0  0  0  0  0  0  0  0  0
  131.9870  118.9420   59.8500 C   0  0  0  0  0  0  0  0  0  0  0  0
  132.3030  121.9610   59.5850 N   0  0  0  0  0  0  0  0  0  0  0  0
  132.6360  123.1640   60.0620 N   0  0  0  0  0  0  0  0  0  0  0  0
  133.1650  124.1970   59.1720 C   0  0  0  0  0  0  0  0  0  0  0  0
  132.2400  125.4080   58.9580 C   0  0  0  0  0  0  0  0  0  0  0  0
  132.1070  126.2660   59.8380 O   0  0  0  0  0  0  0  0  0  0  0  0
  131.6110  125.4390   57.7680 N   0  0  0  0  0  0  0  0  0  0  0  0
  130.8770  126.5720   57.4450 N   0  0  0  0  0  0  0  0  0  0  0  0
  130.9770  127.0510   56.1860 C   0  0  0  0  0  0  0  0  0  0  0  0
  131.5970  126.4870   55.2780 O   0  0  0  0  0  0  0  0  0  0  0  0
  130.2430  128.3490   55.9180 C   0  0  0  0  0  0  0  0  0  0  0  0
  130.8620  129.5720   56.1980 C   0  0  0  0  0  0  0  0  0  0  0  0
  130.2010  130.7750   55.9710 C   0  0  0  0  0  0  0  0  0  0  0  0
  128.8930  130.7910   55.4620 C   0  0  0  0  0  0  0  0  0  0  0  0
  128.1760  131.9510   55.2260 O   0  0  0  0  0  0  0  0  0  0  0  0
  128.6530  132.8870   54.2670 C   0  0  0  0  0  0  0  0  0  0  0  0
  128.2530  129.5770   55.1820 C   0  0  0  0  0  0  0  0  0  0  0  0
  126.9560  129.6470   54.7010 O   0  0  0  0  0  0  0  0  0  0  0  0
  125.8840  129.9060   55.6010 C   0  0  0  0  0  0  0  0  0  0  0  0
  128.9340  128.3670   55.4100 C   0  0  0  0  0  0  0  0  0  0  0  0
  128.6020  122.6970   59.4670 C   0  0  0  0  0  0  0  0  0  0  0  0
  127.8650  122.1950   58.3980 C   0  0  0  0  0  0  0  0  0  0  0  0
  1  2  1  0
  2  3  1  0
  3  4  2  0
  4  5  1  0
  5  6  2  0
  6  7  1  0
  7  8  1  0
  8  9  2  0
  8 10  1  0
 10 11  1  0
 11 12  1  0
 12 13  2  0
 13 14  1  0
 14 15  1  0
 15 16  2  0
 16 17  1  0
 17 18  2  0
 18 19  1  0
 19 20  2  0
 14 21  2  0
 21 22  1  0
 22 23  1  0
 23 24  1  0
 24 25  2  0
 24 26  1  0
 26 27  1  0
 27 28  1  0
 28 29  2  0
 28 30  1  0
 30 31  2  0
 31 32  1  0
 32 33  2  0
 33 34  1  0
 34 35  1  0
 33 36  1  0
 36 37  1  0
 37 38  1  0
 36 39  2  0
  6 40  1  0
 40 41  2  0
 41  3  1  0
 22 12  1  0
 39 30  1  0
 20 15  1  0
M  END
>  <Binding energies>  (74) 
[-8.88]

>  <Ligand effiencies>  (74) 
[-0.20181818181818184]

>  <Interactions>  (74) 
["V-B:TYR:539:CZ:9849, V-B:TYR:539:C:9839, V-B:PRO:540:N:9856, V-A:LEU:475:CD1:4258, V-B:PRO:540:CD:9859, H-A:TYR:484:OH:4348, V-A:PRO:482:CB:4326, V-B:TYR:539:CG:9844, V-B:PRO:540:CA:9855, V-A:LEU:475:CD2:4259, V-B:ALA:541:CB:9864, V-B:LEU:363:CD1:8161, V-B:TYR:539:CE2:9848, V-B:TYR:539:CD2:9846, V-A:PRO:482:CG:4327, V-A:SER:385:CB:3409, V-B:TYR:531:CE1:9764, V-A:TYR:531:CZ:4794, V-A:TYR:539:CZ:4877, V-A:TYR:539:CE2:4876, V-A:TYR:539:CD2:4874, V-A:ILE:538:C:4858, V-A:ILE:538:CA:4860, V-B:MET:535:CE:9807, V-B:TYR:539:CA:9841, V-B:TYR:531:CE2:9765, V-A:TYR:539:CG:4872, V-A:ASP:366:CG:3213, V-B:ILE:538:CD1:9837, V-B:ILE:538:CG2:9835, V-A:ASP:366:CB:3212, H-A:TYR:531:OH:4795, H-B:TYR:539:OH:9850, V-A:ILE:369:CG2:3237, H-B:LYS:534:NZ:9795, V-A:LEU:475:CG:4257, H-B:TYR:539:N:9842, H-A:SER:385:OG:3410"]

$$$$
RR22_Rahimova_2017
     RDKit          3D

 31 36  0  0  0  0  0  0  0  0999 V2000
  123.3800  130.2950   55.2750 O   0  0  0  0  0  0  0  0  0  0  0  0
  124.2800  130.2670   56.1120 C   0  0  0  0  0  0  0  0  0  0  0  0
  124.1650  130.0020   57.4660 N   0  0  0  0  0  0  0  0  0  0  0  0
  125.3280  129.9490   58.2980 C   0  0  1  0  0  0  0  0  0  0  0  0
  125.0840  130.8930   59.3450 O   0  0  0  0  0  0  0  0  0  0  0  0
  125.0700  130.4330   60.6620 C   0  0  0  0  0  0  0  0  0  0  0  0
  124.4770  131.2700   61.6070 C   0  0  0  0  0  0  0  0  0  0  0  0
  124.4600  130.8970   62.9510 C   0  0  0  0  0  0  0  0  0  0  0  0
  125.0430  129.6930   63.3490 C   0  0  0  0  0  0  0  0  0  0  0  0
  125.6370  128.8550   62.4030 C   0  0  0  0  0  0  0  0  0  0  0  0
  125.6390  129.2050   61.0490 C   0  0  0  0  0  0  0  0  0  0  0  0
  126.2930  128.3900   59.9560 C   0  0  1  0  0  0  0  0  0  0  0  0
  126.3760  126.8780   60.0070 C   0  0  0  0  0  0  0  0  0  0  0  0
  126.3520  126.5630   58.5080 C   0  0  0  0  0  0  0  0  0  0  0  0
  126.7940  125.2670   57.9580 C   0  0  0  0  0  0  0  0  0  0  0  0
  125.9370  124.1560   57.9720 C   0  0  0  0  0  0  0  0  0  0  0  0
  126.3570  122.9360   57.4500 C   0  0  0  0  0  0  0  0  0  0  0  0
  127.6360  122.8180   56.9120 C   0  0  0  0  0  0  0  0  0  0  0  0
  128.4990  123.9110   56.8900 C   0  0  0  0  0  0  0  0  0  0  0  0
  128.0790  125.1320   57.4100 C   0  0  0  0  0  0  0  0  0  0  0  0
  125.8860  127.5490   57.8370 N   0  0  0  0  0  0  0  0  0  0  0  0
  125.5470  128.5650   58.7460 N   0  0  0  0  0  0  0  0  0  0  0  0
  126.4830  130.4910   57.4680 C   0  0  0  0  0  0  0  0  0  0  0  0
  127.6490  130.9090   58.0130 C   0  0  0  0  0  0  0  0  0  0  0  0
  128.8480  131.4330   57.3300 C   0  0  0  0  0  0  0  0  0  0  0  0
  130.1490  130.9970   57.6190 C   0  0  0  0  0  0  0  0  0  0  0  0
  131.2350  131.5390   56.9320 C   0  0  0  0  0  0  0  0  0  0  0  0
  130.9910  132.5170   55.9680 C   0  0  0  0  0  0  0  0  0  0  0  0
  129.7450  132.9650   55.6730 N   0  0  0  0  0  0  0  0  0  0  0  0
  128.7010  132.4240   56.3520 C   0  0  0  0  0  0  0  0  0  0  0  0
  126.0360  130.5810   55.7580 S   0  0  0  0  0  0  0  0  0  0  0  0
  1  2  2  0
  2  3  1  0
  4  3  1  6
  4  5  1  0
  5  6  1  0
  6  7  2  0
  7  8  1  0
  8  9  2  0
  9 10  1  0
 10 11  2  0
 11 12  1  0
 12 13  1  1
 13 14  1  0
 14 15  1  0
 15 16  2  0
 16 17  1  0
 17 18  2  0
 18 19  1  0
 19 20  2  0
 14 21  2  0
 21 22  1  0
  4 23  1  0
 23 24  2  0
 24 25  1  0
 25 26  2  0
 26 27  1  0
 27 28  2  0
 28 29  1  0
 29 30  2  0
 23 31  1  0
 31  2  1  0
 22  4  1  0
 30 25  1  0
 11  6  1  0
 22 12  1  0
 20 15  1  0
M  END
>  <Binding energies>  (75) 
[-9.37]

>  <Ligand effiencies>  (75) 
[-0.2928125]

>  <Interactions>  (75) 
["V-B:TYR:539:CZ:9849, V-B:TYR:539:C:9839, V-B:PRO:540:N:9856, V-B:PRO:540:CD:9859, V-B:PRO:540:CB:9857, V-B:TYR:539:CG:9844, V-B:PRO:540:CA:9855, V-B:TYR:539:CE2:9848, V-B:TYR:539:CD2:9846, V-B:TYR:531:CE1:9764, V-B:ASP:366:CG:8185, V-B:ARG:545:CZ:9898, V-A:PRO:540:CB:4885, V-A:PRO:540:CD:4887, V-A:TYR:539:CE1:4875, V-A:TYR:539:CD1:4873, V-A:TYR:539:CZ:4877, V-A:PRO:540:CA:4883, V-B:GLY:454:CA:9021, V-B:ASP:366:CA:8182, V-A:TYR:539:CE2:4876, V-A:TYR:539:CD2:4874, V-A:TYR:539:C:4867, V-B:ASP:366:C:8180, V-A:PRO:540:N:4884, V-B:ASP:366:CB:8184, V-B:MET:535:CE:9807, H-B:TYR:531:OH:9767, V-B:TYR:539:CE1:9847, V-A:TYR:539:CG:4872, V-B:TYR:539:CD1:9845, H-A:TYR:539:N:4870, H-B:LYS:534:NZ:9795, H-A:TYR:539:OH:4878, V-B:ASN:370:CB:8217, V-B:TYR:531:CD1:9762, H-B:ASP:366:O:8181"]

$$$$
RR24_Rahimova_2017
     RDKit          3D

 43 49  0  0  0  0  0  0  0  0999 V2000
  132.3740  132.7050   54.9800 C   0  0  0  0  0  0  0  0  0  0  0  0
  131.3520  131.6680   55.4670 C   0  0  2  0  0  0  0  0  0  0  0  0
  129.9670  131.7950   54.7650 C   0  0  0  0  0  0  0  0  0  0  0  0
  129.4440  132.8900   54.5390 O   0  0  0  0  0  0  0  0  0  0  0  0
  129.4180  130.5800   54.4700 O   0  0  0  0  0  0  0  0  0  0  0  0
  129.2390  129.6530   55.4720 C   0  0  0  0  0  0  0  0  0  0  0  0
  128.0690  129.6870   56.2340 C   0  0  0  0  0  0  0  0  0  0  0  0
  127.8730  128.7490   57.2440 C   0  0  0  0  0  0  0  0  0  0  0  0
  128.8400  127.7700   57.4910 C   0  0  0  0  0  0  0  0  0  0  0  0
  128.6270  126.7520   58.6170 C   0  0  1  0  0  0  0  0  0  0  0  0
  128.3240  127.4400   59.9690 C   0  0  0  0  0  0  0  0  0  0  0  0
  127.2710  127.1060   60.7370 C   0  0  0  0  0  0  0  0  0  0  0  0
  126.3820  126.1250   60.3730 N   0  0  0  0  0  0  0  0  0  0  0  0
  126.5260  125.4310   59.1950 C   0  0  0  0  0  0  0  0  0  0  0  0
  125.5700  124.4890   58.9880 N   0  0  0  0  0  0  0  0  0  0  0  0
  125.5040  123.7580   57.8420 C   0  0  0  0  0  0  0  0  0  0  0  0
  124.4610  123.1620   57.5670 O   0  0  0  0  0  0  0  0  0  0  0  0
  126.6030  123.9100   57.0110 N   0  0  0  0  0  0  0  0  0  0  0  0
  126.6250  123.0700   55.7950 C   0  0  0  0  0  0  0  0  0  0  0  0
  127.6270  124.8350   57.1250 C   0  0  0  0  0  0  0  0  0  0  0  0
  128.5520  124.9480   56.3140 O   0  0  0  0  0  0  0  0  0  0  0  0
  127.5410  125.6730   58.3250 C   0  0  0  0  0  0  0  0  0  0  0  0
  127.2340  127.9140   61.9440 C   0  0  0  0  0  0  0  0  0  0  0  0
  126.3620  127.9580   63.0330 C   0  0  0  0  0  0  0  0  0  0  0  0
  126.6030  128.8710   64.0630 C   0  0  0  0  0  0  0  0  0  0  0  0
  127.7070  129.7270   64.0010 C   0  0  0  0  0  0  0  0  0  0  0  0
  128.5770  129.6770   62.9080 C   0  0  0  0  0  0  0  0  0  0  0  0
  128.3300  128.7640   61.8820 C   0  0  0  0  0  0  0  0  0  0  0  0
  129.0750  128.5010   60.6330 C   0  0  0  0  0  0  0  0  0  0  0  0
  130.1000  129.0270   60.2020 O   0  0  0  0  0  0  0  0  0  0  0  0
  130.0020  127.7280   56.7140 C   0  0  0  0  0  0  0  0  0  0  0  0
  130.1980  128.6640   55.7030 C   0  0  0  0  0  0  0  0  0  0  0  0
  131.2350  131.6520   56.9550 N   0  0  0  0  0  0  0  0  0  0  0  0
  132.2800  131.2820   57.7480 C   0  0  0  0  0  0  0  0  0  0  0  0
  133.4020  130.9210   57.3870 O   0  0  0  0  0  0  0  0  0  0  0  0
  131.7820  131.4060   59.1410 C   0  0  0  0  0  0  0  0  0  0  0  0
  132.4110  131.1590   60.3610 C   0  0  0  0  0  0  0  0  0  0  0  0
  131.6880  131.3670   61.5420 C   0  0  0  0  0  0  0  0  0  0  0  0
  130.3630  131.8160   61.4880 C   0  0  0  0  0  0  0  0  0  0  0  0
  129.7490  132.0580   60.2540 C   0  0  0  0  0  0  0  0  0  0  0  0
  130.4860  131.8430   59.0880 C   0  0  0  0  0  0  0  0  0  0  0  0
  130.1190  132.0120   57.6600 C   0  0  0  0  0  0  0  0  0  0  0  0
  129.0410  132.3980   57.2080 O   0  0  0  0  0  0  0  0  0  0  0  0
  2  1  1  1
  2  3  1  0
  3  4  2  0
  3  5  1  0
  5  6  1  0
  6  7  2  0
  7  8  1  0
  8  9  2  0
 10  9  1  6
 10 11  1  0
 11 12  2  0
 12 13  1  0
 13 14  1  0
 14 15  1  0
 15 16  1  0
 16 17  2  0
 16 18  1  0
 18 19  1  0
 18 20  1  0
 20 21  2  0
 20 22  1  0
 12 23  1  0
 23 24  2  0
 24 25  1  0
 25 26  2  0
 26 27  1  0
 27 28  2  0
 28 29  1  0
 29 30  2  0
  9 31  1  0
 31 32  2  0
  2 33  1  0
 33 34  1  0
 34 35  2  0
 34 36  1  0
 36 37  2  0
 37 38  1  0
 38 39  2  0
 39 40  1  0
 40 41  2  0
 41 42  1  0
 42 43  2  0
 32  6  1  0
 42 33  1  0
 22 10  1  0
 28 23  1  0
 41 36  1  0
 29 11  1  0
 22 14  2  0
M  END
>  <Binding energies>  (76) 
[-10.05]

>  <Ligand effiencies>  (76) 
[-0.22333333333333336]

>  <Interactions>  (76) 
["V-B:PRO:540:CB:9857, V-B:ASP:366:CG:8185, V-B:ARG:545:CZ:9898, V-A:ILE:538:CG2:4863, V-A:PRO:540:CB:4885, V-A:PRO:540:CD:4887, V-A:ILE:538:CB:4862, V-A:PRO:540:CA:4883, V-A:LEU:363:CD1:3189, V-A:TYR:539:C:4867, V-A:PRO:540:N:4884, V-B:MET:535:CE:9807, V-A:TYR:531:CE2:4793, H-B:TYR:531:OH:9767, V-A:ALA:541:CB:4892, H-A:TYR:531:OH:4795, V-A:GLU:543:CD:4908, H-A:TYR:539:N:4870, V-A:ALA:541:CA:4890, V-A:PRO:540:C:4881, H-B:ASP:366:OD2:8187, V-B:GLU:543:CD:9880, H-B:ASP:366:OD1:8186, H-B:GLU:543:OE1:9881, V-A:GLU:543:CG:4907"]

$$$$
RR25_Rahimova_2017
     RDKit          3D

 39 44  0  0  0  0  0  0  0  0999 V2000
  131.3740  126.5570   54.9830 O   0  0  0  0  0  0  0  0  0  0  0  0
  131.1880  127.0610   56.0920 C   0  0  0  0  0  0  0  0  0  0  0  0
  132.1460  127.9450   56.5240 O   0  0  0  0  0  0  0  0  0  0  0  0
  131.9350  128.7570   57.6230 C   0  0  0  0  0  0  0  0  0  0  0  0
  132.6520  129.9520   57.6670 C   0  0  0  0  0  0  0  0  0  0  0  0
  132.4930  130.8150   58.7500 C   0  0  0  0  0  0  0  0  0  0  0  0
  131.6230  130.4960   59.8020 C   0  0  0  0  0  0  0  0  0  0  0  0
  131.4500  131.4200   60.9500 N   0  0  0  0  0  0  0  0  0  0  0  0
  130.3190  131.8120   61.2240 O   0  0  0  0  0  0  0  0  0  0  0  0
  132.4440  131.7600   61.5840 O   0  0  0  0  0  0  0  0  0  0  0  0
  130.9190  129.2820   59.7450 C   0  0  0  0  0  0  0  0  0  0  0  0
  131.0730  128.4010   58.6700 C   0  0  0  0  0  0  0  0  0  0  0  0
  130.3270  127.0840   58.5570 C   0  0  0  0  0  0  0  0  0  0  0  0
  130.0030  126.7930   57.0640 C   0  0  2  0  0  0  0  0  0  0  0  0
  129.3250  125.4020   56.8990 C   0  0  0  0  0  0  0  0  0  0  0  0
  129.7640  124.6890   55.9920 O   0  0  0  0  0  0  0  0  0  0  0  0
  128.3880  124.9390   57.7800 N   0  0  0  0  0  0  0  0  0  0  0  0
  127.6150  125.8320   58.6690 C   0  0  0  0  0  0  0  0  0  0  0  0
  127.4030  125.1290   60.0260 C   0  0  0  0  0  0  0  0  0  0  0  0
  126.7760  123.8150   59.8560 N   0  0  0  0  0  0  0  0  0  0  0  0
  126.4520  123.2010   61.1510 C   0  0  0  0  0  0  0  0  0  0  0  0
  127.5510  123.4380   62.2210 C   0  0  0  0  0  0  0  0  0  0  0  0
  128.9430  123.0760   61.8240 N   0  0  0  0  0  0  0  0  0  0  0  0
  129.1390  121.7480   61.5100 C   0  0  0  0  0  0  0  0  0  0  0  0
  128.2460  120.8960   61.5830 O   0  0  0  0  0  0  0  0  0  0  0  0
  130.5420  121.4100   61.0460 C   0  0  0  0  0  0  0  0  0  0  0  0
  130.8460  120.0930   60.6760 C   0  0  0  0  0  0  0  0  0  0  0  0
  132.1230  119.7490   60.2370 C   0  0  0  0  0  0  0  0  0  0  0  0
  133.1330  120.7050   60.1490 C   0  0  0  0  0  0  0  0  0  0  0  0
  132.8730  122.0490   60.5120 C   0  0  0  0  0  0  0  0  0  0  0  0
  133.8500  123.0700   60.4460 C   0  0  0  0  0  0  0  0  0  0  0  0
  133.5260  124.3740   60.8150 C   0  0  0  0  0  0  0  0  0  0  0  0
  132.2440  124.6960   61.2540 C   0  0  0  0  0  0  0  0  0  0  0  0
  131.2440  123.7180   61.3360 C   0  0  0  0  0  0  0  0  0  0  0  0
  131.5660  122.3880   60.9610 C   0  0  0  0  0  0  0  0  0  0  0  0
  129.8570  124.1090   61.8110 C   0  0  0  0  0  0  0  0  0  0  0  0
  129.5800  125.2670   62.1400 O   0  0  0  0  0  0  0  0  0  0  0  0
  127.6420  122.9520   59.0500 C   0  0  0  0  0  0  0  0  0  0  0  0
  127.8960  123.5490   57.6450 C   0  0  0  0  0  0  0  0  0  0  0  0
  1  2  2  0
  2  3  1  0
  3  4  1  0
  4  5  2  0
  5  6  1  0
  6  7  2  0
  7  8  1  0
  8  9  2  0
  8 10  1  0
  7 11  1  0
 11 12  2  0
 12 13  1  0
 13 14  1  0
 14 15  1  1
 15 16  2  0
 15 17  1  0
 17 18  1  0
 18 19  1  0
 19 20  1  0
 20 21  1  0
 21 22  1  0
 22 23  1  0
 23 24  1  0
 24 25  2  0
 24 26  1  0
 26 27  2  0
 27 28  1  0
 28 29  2  0
 29 30  1  0
 30 31  2  0
 31 32  1  0
 32 33  2  0
 33 34  1  0
 34 35  2  0
 34 36  1  0
 36 37  2  0
 20 38  1  0
 38 39  1  0
 14  2  1  0
 39 17  1  0
 12  4  1  0
 36 23  1  0
 35 26  1  0
 35 30  1  0
M  CHG  2   8   1  10  -1
M  END
>  <Binding energies>  (77) 
[-10.25]

>  <Ligand effiencies>  (77) 
[-0.26282051282051283]

>  <Interactions>  (77) 
["V-B:TYR:539:CZ:9849, V-B:TYR:539:C:9839, V-B:PRO:540:N:9856, V-B:PRO:540:CB:9857, V-B:PRO:540:CA:9855, V-A:LEU:475:CD2:4259, V-B:ALA:541:CB:9864, V-B:TYR:539:CE2:9848, V-B:TYR:539:CD2:9846, V-A:SER:385:CB:3409, V-A:PRO:540:CB:4885, V-A:PRO:540:CA:4883, V-B:MET:535:CE:9807, V-A:ASP:366:CG:3213, V-A:ASP:366:CB:3212, H-A:TYR:531:OH:4795, H-B:TYR:539:OH:9850, V-A:ILE:369:CG2:3237, H-A:ALA:541:N:4891, V-B:GLU:543:CD:9880, H-B:ALA:541:N:9863, V-B:GLU:543:CG:9879, V-B:PRO:540:C:9853, V-A:ILE:369:CD1:3239, V-A:ILE:369:CB:3236, V-A:ILE:369:CG1:3238"]

$$$$
RR27_Rahimova_2017
     RDKit          3D

 39 44  0  0  0  0  0  0  0  0999 V2000
  126.6990  126.5490   57.5970 O   0  0  0  0  0  0  0  0  0  0  0  0
  127.5390  126.0550   58.3540 C   0  0  0  0  0  0  0  0  0  0  0  0
  127.5890  124.5050   58.4900 C   0  0  0  0  0  0  0  0  0  0  0  0
  127.0430  123.7710   57.2500 C   0  0  0  0  0  0  0  0  0  0  0  0
  127.8610  123.4650   56.1520 C   0  0  0  0  0  0  0  0  0  0  0  0
  127.3350  122.7990   55.0480 C   0  0  0  0  0  0  0  0  0  0  0  0
  125.9920  122.4360   55.0370 C   0  0  0  0  0  0  0  0  0  0  0  0
  125.1680  122.7350   56.1190 C   0  0  0  0  0  0  0  0  0  0  0  0
  125.6930  123.4010   57.2220 C   0  0  0  0  0  0  0  0  0  0  0  0
  127.0050  124.0300   59.8340 C   0  0  0  0  0  0  0  0  0  0  0  0
  127.7760  123.3190   60.7630 C   0  0  0  0  0  0  0  0  0  0  0  0
  127.2140  122.8940   61.9650 C   0  0  0  0  0  0  0  0  0  0  0  0
  125.8780  123.1740   62.2380 C   0  0  0  0  0  0  0  0  0  0  0  0
  125.0960  123.8700   61.3200 C   0  0  0  0  0  0  0  0  0  0  0  0
  125.6590  124.2930   60.1200 C   0  0  0  0  0  0  0  0  0  0  0  0
  128.5040  126.8150   58.9450 N   0  0  0  0  0  0  0  0  0  0  0  0
  129.3600  126.3320   60.0400 C   0  0  0  0  0  0  0  0  0  0  0  0
  128.6010  126.6090   61.3570 C   0  0  0  0  0  0  0  0  0  0  0  0
  128.1900  128.1080   61.5120 C   0  0  0  0  0  0  0  0  0  0  0  0
  127.3340  128.4170   62.7540 C   0  0  0  0  0  0  0  0  0  0  0  0
  127.9450  128.2670   63.9660 N   0  0  0  0  0  0  0  0  0  0  0  0
  127.2400  128.5530   65.0950 C   0  0  0  0  0  0  0  0  0  0  0  0
  127.7440  128.4460   66.3640 O   0  0  0  0  0  0  0  0  0  0  0  0
  125.9080  128.9910   64.9670 C   0  0  0  0  0  0  0  0  0  0  0  0
  124.9470  129.3580   65.8630 N   0  0  0  0  0  0  0  0  0  0  0  0
  123.8160  129.6900   65.1410 N   0  0  0  0  0  0  0  0  0  0  0  0
  124.0790  129.5380   63.8260 N   0  0  0  0  0  0  0  0  0  0  0  0
  123.0440  129.7990   62.8290 C   0  0  0  0  0  0  0  0  0  0  0  0
  123.4340  130.8560   61.8040 C   0  0  0  0  0  0  0  0  0  0  0  0
  123.8410  132.1270   62.2240 C   0  0  0  0  0  0  0  0  0  0  0  0
  124.2090  133.0920   61.2850 C   0  0  0  0  0  0  0  0  0  0  0  0
  124.1750  132.7910   59.9240 C   0  0  0  0  0  0  0  0  0  0  0  0
  123.7790  131.5220   59.4990 C   0  0  0  0  0  0  0  0  0  0  0  0
  123.7630  131.1390   57.8150 Cl  0  0  0  0  0  0  0  0  0  0  0  0
  123.4040  130.5600   60.4360 C   0  0  0  0  0  0  0  0  0  0  0  0
  125.3810  129.0960   63.6610 C   0  0  0  0  0  0  0  0  0  0  0  0
  126.0470  128.8140   62.5390 N   0  0  0  0  0  0  0  0  0  0  0  0
  127.5970  128.6890   60.1920 C   0  0  0  0  0  0  0  0  0  0  0  0
  128.4020  128.2820   58.9310 C   0  0  0  0  0  0  0  0  0  0  0  0
  1  2  2  0
  2  3  1  0
  3  4  1  0
  4  5  2  0
  5  6  1  0
  6  7  2  0
  7  8  1  0
  8  9  2  0
  3 10  1  0
 10 11  2  0
 11 12  1  0
 12 13  2  0
 13 14  1  0
 14 15  2  0
  2 16  1  0
 16 17  1  0
 17 18  1  0
 18 19  1  0
 19 20  1  0
 20 21  2  0
 21 22  1  0
 22 23  1  0
 22 24  2  0
 24 25  1  0
 25 26  2  0
 26 27  1  0
 27 28  1  0
 28 29  1  0
 29 30  2  0
 30 31  1  0
 31 32  2  0
 32 33  1  0
 33 34  1  0
 33 35  2  0
 27 36  1  0
 36 37  2  0
 19 38  1  0
 38 39  1  0
  9  4  1  0
 15 10  1  0
 39 16  1  0
 37 20  1  0
 36 24  1  0
 35 29  1  0
M  END
>  <Binding energies>  (78) 
[-10.83]

>  <Ligand effiencies>  (78) 
[-0.27075]

>  <Interactions>  (78) 
["V-B:TYR:539:CZ:9849, V-B:PRO:540:CD:9859, V-B:PRO:540:CB:9857, V-B:PRO:540:CA:9855, V-B:ALA:541:CB:9864, V-B:LEU:363:CD1:8161, V-B:TYR:539:CE2:9848, V-B:ASP:366:CG:8185, V-B:ARG:545:CZ:9898, V-B:ILE:369:CG2:8209, V-A:TYR:539:CE1:4875, V-A:TYR:539:CZ:4877, V-B:LEU:475:CD2:9231, V-B:GLY:454:CA:9021, V-B:ASP:366:CA:8182, V-B:ILE:369:CD1:8211, V-B:ASP:366:C:8180, V-B:ASP:366:CB:8184, V-B:MET:535:CE:9807, H-B:TYR:531:OH:9767, V-B:TYR:531:CE2:9765, V-B:TYR:539:CE1:9847, V-B:TYR:539:CD1:9845, V-B:ILE:538:CD1:9837, V-B:ILE:538:CG2:9835, V-B:ILE:538:CA:9832, V-B:GLU:543:CD:9880, H-B:ARG:545:NH2:9900, V-B:GLU:543:CG:9879, V-B:GLY:453:C:9014, H-B:GLY:454:N:9022, V-B:PRO:540:C:9853, H-B:TYR:484:OH:9320, V-B:GLY:453:CA:9016, V-B:ILE:369:CB:8208, V-B:ILE:538:C:9830, V-B:ILE:538:CB:9834, H-B:ARG:545:NH1:9899, V-B:ILE:538:CG1:9836, H-B:GLU:543:OE2:9882, H-B:ARG:545:NE:9896"]

$$$$
RR28_Rahimova_2017
     RDKit          3D

 46 49  0  0  0  0  0  0  0  0999 V2000
  132.7420  131.6180   61.7360 C   0  0  0  0  0  0  0  0  0  0  0  0
  132.2560  131.0460   60.4080 C   0  0  0  0  0  0  0  0  0  0  0  0
  132.7870  131.4100   59.3600 O   0  0  0  0  0  0  0  0  0  0  0  0
  131.2470  130.1540   60.4750 N   0  0  0  0  0  0  0  0  0  0  0  0
  130.5730  129.4490   59.3620 C   0  0  0  0  0  0  0  0  0  0  0  0
  131.1530  128.0070   59.2780 C   0  0  0  0  0  0  0  0  0  0  0  0
  131.2830  127.2480   60.4510 C   0  0  0  0  0  0  0  0  0  0  0  0
  131.8010  125.9580   60.4140 C   0  0  0  0  0  0  0  0  0  0  0  0
  132.2030  125.3950   59.2010 C   0  0  0  0  0  0  0  0  0  0  0  0
  132.7740  123.9780   59.1810 C   0  0  0  0  0  0  0  0  0  0  0  0
  131.8970  123.0720   59.6160 F   0  0  0  0  0  0  0  0  0  0  0  0
  133.1330  123.6410   57.9420 F   0  0  0  0  0  0  0  0  0  0  0  0
  133.8500  123.9280   59.9680 F   0  0  0  0  0  0  0  0  0  0  0  0
  132.0810  126.1410   58.0260 C   0  0  0  0  0  0  0  0  0  0  0  0
  131.5620  127.4330   58.0640 C   0  0  0  0  0  0  0  0  0  0  0  0
  130.7140  130.2650   58.0280 C   0  0  0  0  0  0  0  0  0  0  0  0
  129.9690  131.6240   58.0590 C   0  0  0  0  0  0  0  0  0  0  0  0
  128.5540  131.3180   58.3240 N   0  0  0  0  0  0  0  0  0  0  0  0
  127.6790  131.1660   57.2930 C   0  0  0  0  0  0  0  0  0  0  0  0
  127.9850  131.4390   56.1300 O   0  0  0  0  0  0  0  0  0  0  0  0
  126.2090  130.7970   57.6080 C   0  0  0  0  0  0  0  0  0  0  0  0
  125.7110  129.4420   57.0350 C   0  0  0  0  0  0  0  0  0  0  0  0
  126.8280  128.4700   56.5860 C   0  0  0  0  0  0  0  0  0  0  0  0
  127.2510  128.5680   55.4310 O   0  0  0  0  0  0  0  0  0  0  0  0
  127.4050  127.6360   57.4980 N   0  0  0  0  0  0  0  0  0  0  0  0
  126.7630  127.2510   58.7600 C   0  0  0  0  0  0  0  0  0  0  0  0
  125.8550  126.0430   58.4410 C   0  0  0  0  0  0  0  0  0  0  0  0
  126.5920  124.8230   57.7860 C   0  0  0  0  0  0  0  0  0  0  0  0
  125.5910  123.9240   57.1730 N   0  0  0  0  0  0  0  0  0  0  0  0
  125.7750  122.6770   56.6960 C   0  0  0  0  0  0  0  0  0  0  0  0
  124.5480  121.9940   56.0990 C   0  0  0  0  0  0  0  0  0  0  0  0
  126.8520  122.0830   56.7170 O   0  0  0  0  0  0  0  0  0  0  0  0
  127.2970  124.0300   58.9340 C   0  0  0  0  0  0  0  0  0  0  0  0
  126.7110  123.8350   60.1960 C   0  0  0  0  0  0  0  0  0  0  0  0
  127.3730  123.1210   61.1910 C   0  0  0  0  0  0  0  0  0  0  0  0
  128.6410  122.5870   60.9520 C   0  0  0  0  0  0  0  0  0  0  0  0
  129.3780  121.7980   62.0330 C   0  0  0  0  0  0  0  0  0  0  0  0
  128.8870  122.0830   63.2410 F   0  0  0  0  0  0  0  0  0  0  0  0
  129.2220  120.4950   61.8060 F   0  0  0  0  0  0  0  0  0  0  0  0
  130.6850  122.0670   62.0480 F   0  0  0  0  0  0  0  0  0  0  0  0
  129.2400  122.7800   59.7070 C   0  0  0  0  0  0  0  0  0  0  0  0
  128.5760  123.4930   58.7140 C   0  0  0  0  0  0  0  0  0  0  0  0
  127.5960  125.3560   56.6920 C   0  0  0  0  0  0  0  0  0  0  0  0
  128.3900  126.6380   57.0630 C   0  0  0  0  0  0  0  0  0  0  0  0
  128.3240  130.7330   59.6530 C   0  0  0  0  0  0  0  0  0  0  0  0
  129.0440  129.3600   59.6760 C   0  0  0  0  0  0  0  0  0  0  0  0
  1  2  1  0
  2  3  2  0
  2  4  1  0
  4  5  1  0
  5  6  1  0
  6  7  2  0
  7  8  1  0
  8  9  2  0
  9 10  1  0
 10 11  1  0
 10 12  1  0
 10 13  1  0
  9 14  1  0
 14 15  2  0
  5 16  1  0
 16 17  1  0
 17 18  1  0
 18 19  1  0
 19 20  2  0
 19 21  1  0
 21 22  1  0
 22 23  1  0
 23 24  2  0
 23 25  1  0
 25 26  1  0
 26 27  1  0
 27 28  1  0
 28 29  1  0
 29 30  1  0
 30 31  1  0
 30 32  2  0
 28 33  1  0
 33 34  2  0
 34 35  1  0
 35 36  2  0
 36 37  1  0
 37 38  1  0
 37 39  1  0
 37 40  1  0
 36 41  1  0
 41 42  2  0
 28 43  1  0
 43 44  1  0
 18 45  1  0
 45 46  1  0
 46  5  1  0
 15  6  1  0
 44 25  1  0
 42 33  1  0
M  END
>  <Binding energies>  (79) 
[-10.17]

>  <Ligand effiencies>  (79) 
[-0.211875]

>  <Interactions>  (79) 
["V-B:TYR:539:CZ:9849, V-B:PRO:540:N:9856, V-B:PRO:540:CD:9859, V-B:PRO:540:CB:9857, V-B:PRO:540:CA:9855, V-A:LEU:475:CD2:4259, V-B:ALA:541:CB:9864, V-B:LEU:363:CD1:8161, V-B:TYR:539:CE2:9848, V-B:TYR:539:CD2:9846, V-B:TYR:531:CE1:9764, V-B:ASP:366:CG:8185, V-A:PRO:540:CB:4885, V-A:TYR:539:CE1:4875, V-A:TYR:539:CZ:4877, V-A:PRO:540:CA:4883, V-B:ASP:366:CB:8184, V-B:MET:535:CE:9807, V-B:TYR:531:CZ:9766, H-B:TYR:531:OH:9767, V-A:ASP:366:CG:3213, V-B:ILE:538:CD1:9837, V-B:ILE:538:CG2:9835, V-A:ASP:366:CB:3212, V-B:ILE:538:CA:9832, H-A:GLU:543:OE1:4909, V-A:ILE:369:CG2:3237, V-A:ALA:541:C:4888, V-A:ASN:362:CB:3176, H-B:ASP:366:OD2:8187, V-B:GLU:543:CD:9880, V-A:TYR:484:CZ:4347, V-B:GLU:543:CG:9879, V-A:TYR:484:CE1:4345, V-B:PRO:540:C:9853, V-A:ILE:369:CD1:3239, V-B:ALA:541:CA:9862, H-B:TYR:539:N:9842, V-B:ILE:538:CB:9834, V-A:ILE:369:CB:3236, H-A:ASP:366:OD1:3214, V-B:PRO:540:CG:9858"]

$$$$
RR29_Rahimova_2017
     RDKit          3D

 18 19  0  0  0  0  0  0  0  0999 V2000
  129.2330  121.3400   61.8330 C   0  0  0  0  0  0  0  0  0  0  0  0
  128.6920  122.7070   62.2240 C   0  0  0  0  0  0  0  0  0  0  0  0
  127.1560  122.8070   62.0960 C   0  0  0  0  0  0  0  0  0  0  0  0
  126.7370  123.9320   61.1260 C   0  0  0  0  0  0  0  0  0  0  0  0
  126.6990  123.4620   59.6800 C   0  0  0  0  0  0  0  0  0  0  0  0
  127.8560  122.9190   59.0860 C   0  0  0  0  0  0  0  0  0  0  0  0
  127.8420  122.4790   57.7550 C   0  0  0  0  0  0  0  0  0  0  0  0
  126.6530  122.6100   57.0470 C   0  0  0  0  0  0  0  0  0  0  0  0
  125.5290  123.1370   57.6170 C   0  0  0  0  0  0  0  0  0  0  0  0
  125.5100  123.5720   58.9380 C   0  0  0  0  0  0  0  0  0  0  0  0
  124.5130  123.1130   56.7140 O   0  0  0  0  0  0  0  0  0  0  0  0
  125.1010  122.7500   55.4930 C   0  0  0  0  0  0  0  0  0  0  0  0
  126.3770  122.2380   55.7680 O   0  0  0  0  0  0  0  0  0  0  0  0
  129.5210  123.6110   62.5980 N   0  0  0  0  0  0  0  0  0  0  0  0
  129.0430  124.8740   62.8710 N   0  0  0  0  0  0  0  0  0  0  0  0
  129.7720  125.8460   63.4440 C   0  0  0  0  0  0  0  0  0  0  0  0
  131.0500  125.7270   63.8060 N   0  0  0  0  0  0  0  0  0  0  0  0
  129.1800  127.0100   63.6670 N   0  0  0  0  0  0  0  0  0  0  0  0
  1  2  1  0
  2  3  1  0
  3  4  1  0
  4  5  1  0
  5  6  2  0
  6  7  1  0
  7  8  2  0
  8  9  1  0
  9 10  2  0
  9 11  1  0
 11 12  1  0
 12 13  1  0
  2 14  2  0
 14 15  1  0
 15 16  1  0
 16 17  1  0
 16 18  2  0
 10  5  1  0
 13  8  1  0
M  CHG  1  18   1
M  END
>  <Binding energies>  (80) 
[-8.41]

>  <Ligand effiencies>  (80) 
[-0.3656521739130435]

>  <Interactions>  (80) 
["V-B:TYR:539:CZ:9849, V-B:TYR:539:C:9839, V-B:PRO:540:N:9856, V-B:PRO:540:CD:9859, H-A:TYR:484:OH:4348, V-B:PRO:540:CB:9857, V-B:TYR:539:CG:9844, V-B:PRO:540:CA:9855, V-B:ALA:541:CB:9864, V-B:LEU:363:CD1:8161, V-B:TYR:539:CE2:9848, V-B:TYR:539:CD2:9846, V-B:TYR:539:CA:9841, V-B:TYR:531:CZ:9766, H-B:TYR:531:OH:9767, V-B:TYR:531:CE2:9765, V-B:TYR:539:CD1:9845, V-B:ILE:538:CD1:9837, V-B:ILE:538:CG2:9835, V-B:ILE:538:CA:9832, H-A:GLU:543:OE1:4909, V-A:GLU:543:CD:4908, V-B:GLU:543:CD:9880, H-B:GLU:543:OE1:9881, V-A:TYR:484:CZ:4347, V-B:GLU:543:CG:9879, V-B:PRO:540:C:9853, H-B:TYR:539:N:9842, V-B:ILE:538:CB:9834, H-B:GLU:543:OE2:9882, H-A:GLU:543:OE2:4910"]

$$$$
RR30_Rahimova_2017
     RDKit          3D

 18 19  0  0  0  0  0  0  0  0999 V2000
  130.1830  116.0990   59.3980 C   0  0  0  0  0  0  0  0  0  0  0  0
  131.2180  117.1970   59.6820 C   0  0  0  0  0  0  0  0  0  0  0  0
  130.6350  118.3410   60.4820 C   0  0  0  0  0  0  0  0  0  0  0  0
  129.6500  118.3080   61.3440 N   0  0  0  0  0  0  0  0  0  0  0  0
  129.4920  119.6150   61.7960 N   0  0  0  0  0  0  0  0  0  0  0  0
  130.3880  120.3280   61.1610 C   0  0  0  0  0  0  0  0  0  0  0  0
  130.6940  122.0580   61.3170 S   0  0  0  0  0  0  0  0  0  0  0  0
  129.0910  122.6000   61.9890 C   0  0  0  0  0  0  0  0  0  0  0  0
  127.9840  122.5810   60.9320 C   0  0  0  0  0  0  0  0  0  0  0  0
  126.8070  122.5290   61.2930 O   0  0  0  0  0  0  0  0  0  0  0  0
  128.3970  122.5890   59.6440 N   0  0  0  0  0  0  0  0  0  0  0  0
  127.5860  122.5730   58.5190 C   0  0  0  0  0  0  0  0  0  0  0  0
  127.8440  122.0590   57.3370 N   0  0  0  0  0  0  0  0  0  0  0  0
  126.7920  122.2310   56.4460 N   0  0  0  0  0  0  0  0  0  0  0  0
  125.7660  122.8650   56.9670 C   0  0  0  0  0  0  0  0  0  0  0  0
  124.5050  123.1740   56.1940 C   0  0  0  0  0  0  0  0  0  0  0  0
  126.0180  123.3090   58.6330 S   0  0  0  0  0  0  0  0  0  0  0  0
  131.1500  119.5860   60.3170 O   0  0  0  0  0  0  0  0  0  0  0  0
  1  2  1  0
  2  3  1  0
  3  4  2  0
  4  5  1  0
  5  6  2  0
  6  7  1  0
  7  8  1  0
  8  9  1  0
  9 10  2  0
  9 11  1  0
 11 12  1  0
 12 13  2  0
 13 14  1  0
 14 15  2  0
 15 16  1  0
 15 17  1  0
  6 18  1  0
 18  3  1  0
 17 12  1  0
M  END
>  <Binding energies>  (81) 
[-6.99]

>  <Ligand effiencies>  (81) 
[-0.3678947368421053]

>  <Interactions>  (81) 
["V-A:HIS:383:CE1:3394, V-B:TYR:539:C:9839, V-B:PRO:540:N:9856, V-B:PRO:540:CD:9859, H-A:TYR:484:OH:4348, V-B:PRO:540:CB:9857, V-B:PRO:540:CA:9855, V-A:LEU:475:CD2:4259, V-B:ALA:541:CB:9864, V-B:LEU:363:CD1:8161, V-B:TYR:539:CE2:9848, V-B:TYR:539:CD2:9846, V-A:PRO:482:CG:4327, V-A:SER:385:CB:3409, V-B:TYR:531:CZ:9766, V-B:TYR:531:CE2:9765, V-B:ILE:538:CD1:9837, H-B:ALA:541:N:9863, H-B:TYR:539:N:9842, V-B:TYR:539:CB:9843, V-B:VAL:344:CG1:7973, H-B:TYR:539:O:9840"]

$$$$
RR31_Rahimova_2017
     RDKit          3D

 18 19  0  0  0  0  0  0  0  0999 V2000
  124.5020  122.5940   55.7370 C   0  0  0  0  0  0  0  0  0  0  0  0
  125.6520  122.8530   56.7020 C   0  0  0  0  0  0  0  0  0  0  0  0
  125.3670  123.1780   58.0290 C   0  0  0  0  0  0  0  0  0  0  0  0
  126.3960  123.4170   58.9370 C   0  0  0  0  0  0  0  0  0  0  0  0
  127.7430  123.3300   58.5480 C   0  0  0  0  0  0  0  0  0  0  0  0
  128.7850  123.5770   59.4430 N   0  0  0  0  0  0  0  0  0  0  0  0
  129.2490  122.5570   60.4040 C   0  0  0  0  0  0  0  0  0  0  0  0
  130.1000  123.1240   61.5640 C   0  0  0  0  0  0  0  0  0  0  0  0
  131.2510  123.8730   61.0520 N   0  0  0  0  0  0  0  0  0  0  0  0
  132.0980  124.3930   62.1290 C   0  0  0  0  0  0  0  0  0  0  0  0
  131.6930  125.8100   62.5830 C   0  0  0  0  0  0  0  0  0  0  0  0
  130.3240  125.8290   63.2820 C   0  0  0  0  0  0  0  0  0  0  0  0
  130.5120  125.7660   64.8020 N   0  0  0  0  0  0  0  0  0  0  0  0
  130.7300  124.9830   60.2540 C   0  0  0  0  0  0  0  0  0  0  0  0
  129.9050  124.4590   59.0570 C   0  0  0  0  0  0  0  0  0  0  0  0
  128.0150  123.0110   57.2090 C   0  0  0  0  0  0  0  0  0  0  0  0
  126.9900  122.7700   56.2860 C   0  0  0  0  0  0  0  0  0  0  0  0
  127.3520  122.4300   54.8460 C   0  0  0  0  0  0  0  0  0  0  0  0
  1  2  1  0
  2  3  2  0
  3  4  1  0
  4  5  2  0
  5  6  1  0
  6  7  1  0
  7  8  1  0
  8  9  1  0
  9 10  1  0
 10 11  1  0
 11 12  1  0
 12 13  1  0
  9 14  1  0
 14 15  1  0
  5 16  1  0
 16 17  2  0
 17 18  1  0
 17  2  1  0
 15  6  1  0
M  CHG  1  13   1
M  END
>  <Binding energies>  (82) 
[-7.74]

>  <Ligand effiencies>  (82) 
[-0.3685714285714286]

>  <Interactions>  (82) 
["V-B:TYR:539:CZ:9849, V-B:PRO:540:N:9856, V-B:PRO:540:CD:9859, H-A:TYR:484:OH:4348, V-B:PRO:540:CB:9857, V-B:TYR:539:CG:9844, V-B:PRO:540:CA:9855, V-B:LEU:363:CD1:8161, V-B:TYR:539:CE2:9848, V-B:TYR:539:CD2:9846, V-B:MET:535:CE:9807, V-B:TYR:531:CZ:9766, V-B:TYR:531:CE2:9765, V-B:TYR:539:CE1:9847, V-B:TYR:539:CD1:9845, V-B:ILE:538:CD1:9837, V-B:ILE:538:CG2:9835, V-B:ILE:538:CA:9832, H-A:GLU:543:OE1:4909, V-A:GLU:543:CD:4908, V-B:GLU:543:CD:9880, H-B:GLU:543:OE1:9881, V-A:TYR:484:CZ:4347, V-A:ARG:545:CZ:4926, V-A:TYR:484:CE2:4346, V-B:ILE:538:C:9830, V-B:VAL:537:C:9822, V-B:ILE:538:CB:9834, H-B:GLU:543:OE2:9882, H-A:GLU:543:OE2:4910"]

$$$$
RR32_Rahimova_2017
     RDKit          3D

 18 20  0  0  0  0  0  0  0  0999 V2000
  125.3680  123.9020   60.9340 C   0  0  0  0  0  0  0  0  0  0  0  0
  126.3840  123.4610   59.8870 C   0  0  0  0  0  0  0  0  0  0  0  0
  127.7040  123.2600   60.2920 C   0  0  0  0  0  0  0  0  0  0  0  0
  128.6590  122.8530   59.3650 C   0  0  0  0  0  0  0  0  0  0  0  0
  129.9670  122.6560   59.7700 N   0  0  0  0  0  0  0  0  0  0  0  0
  130.7280  123.8430   60.2010 C   0  0  0  0  0  0  0  0  0  0  0  0
  132.2240  123.5480   60.4610 C   0  0  0  0  0  0  0  0  0  0  0  0
  132.3660  122.5080   61.4790 N   0  0  0  0  0  0  0  0  0  0  0  0
  133.7770  122.2530   61.7470 C   0  0  0  0  0  0  0  0  0  0  0  0
  131.7180  121.2970   60.9800 C   0  0  0  0  0  0  0  0  0  0  0  0
  130.2150  121.5580   60.7250 C   0  0  0  0  0  0  0  0  0  0  0  0
  128.3640  122.6400   58.0560 N   0  0  0  0  0  0  0  0  0  0  0  0
  127.0860  122.8310   57.6300 C   0  0  0  0  0  0  0  0  0  0  0  0
  126.8070  122.6030   56.2600 C   0  0  0  0  0  0  0  0  0  0  0  0
  125.5200  122.7820   55.7680 C   0  0  0  0  0  0  0  0  0  0  0  0
  124.4920  123.1840   56.6120 C   0  0  0  0  0  0  0  0  0  0  0  0
  124.7320  123.4160   57.9640 C   0  0  0  0  0  0  0  0  0  0  0  0
  126.0360  123.2460   58.5120 C   0  0  0  0  0  0  0  0  0  0  0  0
  1  2  1  0
  2  3  2  0
  3  4  1  0
  4  5  1  0
  5  6  1  0
  6  7  1  0
  7  8  1  0
  8  9  1  0
  8 10  1  0
 10 11  1  0
  4 12  2  0
 12 13  1  0
 13 14  2  0
 14 15  1  0
 15 16  2  0
 16 17  1  0
 17 18  2  0
 18  2  1  0
 11  5  1  0
 18 13  1  0
M  END
>  <Binding energies>  (83) 
[-6.65]

>  <Ligand effiencies>  (83) 
[-0.36944444444444446]

>  <Interactions>  (83) 
["V-B:TYR:539:C:9839, V-B:PRO:540:N:9856, H-A:TYR:484:OH:4348, V-B:PRO:540:CB:9857, V-B:PRO:540:CA:9855, V-A:LEU:475:CD2:4259, V-B:LEU:363:CD1:8161, V-B:TYR:539:CE2:9848, V-B:TYR:539:CD2:9846, V-B:TYR:531:CZ:9766, V-B:TYR:531:CE2:9765, V-B:TYR:539:CD1:9845, V-B:ILE:538:CD1:9837, V-B:ILE:538:CG2:9835, V-B:ILE:538:CA:9832, V-A:GLY:454:CA:4049, V-A:ILE:369:CD1:3239"]

$$$$
RR5_Rahimova_2017
     RDKit          3D

 45 50  0  0  0  0  0  0  0  0999 V2000
  130.6340  125.4960   60.0870 O   0  0  0  0  0  0  0  0  0  0  0  0
  130.5510  125.2660   58.8820 C   0  0  0  0  0  0  0  0  0  0  0  0
  131.7510  125.5640   57.9630 C   0  0  0  0  0  0  0  0  0  0  0  0
  131.5050  126.7420   56.9540 C   0  0  2  0  0  0  0  0  0  0  0  0
  130.4180  127.6690   57.3300 N   0  0  0  0  0  0  0  0  0  0  0  0
  130.6810  128.9080   57.8970 C   0  0  0  0  0  0  0  0  0  0  0  0
  131.7930  129.4000   58.1080 O   0  0  0  0  0  0  0  0  0  0  0  0
  129.5100  129.4940   58.1990 O   0  0  0  0  0  0  0  0  0  0  0  0
  129.4490  130.8410   58.6570 C   0  0  0  0  0  0  0  0  0  0  0  0
  128.6780  131.7280   57.6550 C   0  0  0  0  0  0  0  0  0  0  0  0
  129.3380  131.8210   56.2910 C   0  0  0  0  0  0  0  0  0  0  0  0
  130.6210  132.2630   55.9520 C   0  0  0  0  0  0  0  0  0  0  0  0
  131.0340  132.2410   54.6190 C   0  0  0  0  0  0  0  0  0  0  0  0
  130.1690  131.7820   53.6240 C   0  0  0  0  0  0  0  0  0  0  0  0
  128.8870  131.3420   53.9600 C   0  0  0  0  0  0  0  0  0  0  0  0
  128.4760  131.3650   55.2940 C   0  0  0  0  0  0  0  0  0  0  0  0
  127.2020  130.9770   55.9210 C   0  0  0  0  0  0  0  0  0  0  0  0
  126.0210  130.4770   55.3690 C   0  0  0  0  0  0  0  0  0  0  0  0
  124.9320  130.2070   56.2000 C   0  0  0  0  0  0  0  0  0  0  0  0
  125.0260  130.4330   57.5750 C   0  0  0  0  0  0  0  0  0  0  0  0
  126.2100  130.9280   58.1220 C   0  0  0  0  0  0  0  0  0  0  0  0
  127.3030  131.1980   57.2950 C   0  0  0  0  0  0  0  0  0  0  0  0
  131.2560  126.2000   55.5250 C   0  0  0  0  0  0  0  0  0  0  0  0
  131.9640  126.4290   54.5650 O   0  0  0  0  0  0  0  0  0  0  0  0
  130.1390  125.4150   55.5200 O   0  0  0  0  0  0  0  0  0  0  0  0
  129.4720  124.7240   58.2730 N   0  0  0  0  0  0  0  0  0  0  0  0
  128.1300  124.2850   58.7590 C   0  0  0  0  0  0  0  0  0  0  0  0
  127.4720  125.6450   59.1740 C   0  0  0  0  0  0  0  0  0  0  0  0
  126.6160  126.3400   58.3040 C   0  0  0  0  0  0  0  0  0  0  0  0
  126.0350  127.5470   58.6830 C   0  0  0  0  0  0  0  0  0  0  0  0
  126.3090  128.0850   59.9360 C   0  0  0  0  0  0  0  0  0  0  0  0
  127.1510  127.4170   60.8180 C   0  0  0  0  0  0  0  0  0  0  0  0
  127.7230  126.2060   60.4420 C   0  0  0  0  0  0  0  0  0  0  0  0
  127.3960  123.6040   57.5560 C   0  0  0  0  0  0  0  0  0  0  0  0
  128.0430  123.3780   56.3300 C   0  0  0  0  0  0  0  0  0  0  0  0
  127.3650  122.7870   55.2660 C   0  0  0  0  0  0  0  0  0  0  0  0
  126.0320  122.4180   55.4140 C   0  0  0  0  0  0  0  0  0  0  0  0
  125.3710  122.6290   56.6190 C   0  0  0  0  0  0  0  0  0  0  0  0
  126.0520  123.2100   57.6840 C   0  0  0  0  0  0  0  0  0  0  0  0
  128.3970  123.3420   59.9800 C   0  0  0  0  0  0  0  0  0  0  0  0
  129.5480  122.5340   60.0330 C   0  0  0  0  0  0  0  0  0  0  0  0
  129.7870  121.6870   61.1110 C   0  0  0  0  0  0  0  0  0  0  0  0
  128.8800  121.6370   62.1630 C   0  0  0  0  0  0  0  0  0  0  0  0
  127.7410  122.4330   62.1470 C   0  0  0  0  0  0  0  0  0  0  0  0
  127.5050  123.2790   61.0660 C   0  0  0  0  0  0  0  0  0  0  0  0
  1  2  2  0
  2  3  1  0
  4  3  1  1
  4  5  1  0
  5  6  1  0
  6  7  2  0
  6  8  1  0
  8  9  1  0
  9 10  1  0
 10 11  1  0
 11 12  2  0
 12 13  1  0
 13 14  2  0
 14 15  1  0
 15 16  2  0
 16 17  1  0
 17 18  2  0
 18 19  1  0
 19 20  2  0
 20 21  1  0
 21 22  2  0
  4 23  1  0
 23 24  2  0
 23 25  1  0
  2 26  1  0
 26 27  1  0
 27 28  1  0
 28 29  2  0
 29 30  1  0
 30 31  2  0
 31 32  1  0
 32 33  2  0
 27 34  1  0
 34 35  2  0
 35 36  1  0
 36 37  2  0
 37 38  1  0
 38 39  2  0
 27 40  1  0
 40 41  2  0
 41 42  1  0
 42 43  2  0
 43 44  1  0
 44 45  2  0
 22 10  1  0
 33 28  1  0
 39 34  1  0
 45 40  1  0
 16 11  1  0
 22 17  1  0
M  END
>  <Binding energies>  (84) 
[-11.18]

>  <Ligand effiencies>  (84) 
[-0.23291666666666666]

>  <Interactions>  (84) 
["V-B:TYR:539:CZ:9849, V-B:PRO:540:N:9856, V-B:PRO:540:CD:9859, V-B:PRO:540:CB:9857, V-B:PRO:540:CA:9855, V-B:ALA:541:CB:9864, V-B:TYR:539:CE2:9848, V-B:TYR:539:CD2:9846, V-B:TYR:531:CE1:9764, V-B:ASP:366:CG:8185, V-A:MET:535:CG:4833, V-A:ILE:538:CG2:4863, V-A:TYR:539:CE1:4875, V-A:TYR:539:CD1:4873, V-A:ILE:538:CB:4862, V-A:TYR:539:CZ:4877, V-A:TYR:539:CE2:4876, V-A:PRO:540:N:4884, V-B:ASP:366:CB:8184, V-A:ILE:538:CA:4860, V-B:MET:535:CE:9807, V-B:TYR:539:CE1:9847, V-B:TYR:539:CD1:9845, V-B:ILE:538:CD1:9837, V-B:ILE:538:CG2:9835, V-A:ASP:366:CB:3212, V-B:ILE:538:CA:9832, H-A:TYR:531:OH:4795, H-B:TYR:539:OH:9850, V-B:GLU:543:CD:9880, V-B:GLU:543:CG:9879, V-A:TYR:484:CE1:4345, V-B:PRO:540:C:9853, V-B:ALA:541:CA:9862, V-B:ILE:538:C:9830, V-B:ILE:538:CB:9834"]

$$$$
