1a_Ghoteimi_2023
     RDKit          3D

 67 70  0  0  0  0  0  0  0  0999 V2000
  132.3420  131.3200   56.1470 C   0  0  0  0  0  0  0  0  0  0  0  0
  131.6040  132.5810   55.6890 C   0  0  0  0  0  0  0  0  0  0  0  0
  130.7600  133.0400   56.7380 O   0  0  0  0  0  0  0  0  0  0  0  0
  129.6090  132.3910   57.0470 C   0  0  0  0  0  0  0  0  0  0  0  0
  128.7190  132.1530   56.2240 O   0  0  0  0  0  0  0  0  0  0  0  0
  129.5270  131.9840   58.4900 C   0  0  0  0  0  0  0  0  0  0  0  0
  130.3530  130.9850   59.0280 C   0  0  0  0  0  0  0  0  0  0  0  0
  130.2520  130.6280   60.3690 C   0  0  0  0  0  0  0  0  0  0  0  0
  129.3220  131.2690   61.2020 C   0  0  0  0  0  0  0  0  0  0  0  0
  129.1320  130.9840   62.5680 N   0  0  0  0  0  0  0  0  0  0  0  0
  128.1040  130.3650   63.1880 C   0  0  0  0  0  0  0  0  0  0  0  0
  127.1070  129.9030   62.6340 O   0  0  0  0  0  0  0  0  0  0  0  0
  128.2320  130.2410   64.7060 C   0  0  0  0  0  0  0  0  0  0  0  0
  127.2070  128.8900   65.3590 S   0  0  0  0  0  0  0  0  0  0  0  0
  128.3390  127.6620   65.9700 C   0  0  0  0  0  0  0  0  0  0  0  0
  128.2560  127.4540   67.3060 N   0  0  0  0  0  0  0  0  0  0  0  0
  129.0640  126.5360   67.8980 C   0  0  0  0  0  0  0  0  0  0  0  0
  128.8980  126.3490   69.3790 C   0  0  0  0  0  0  0  0  0  0  0  0
  128.2650  127.3220   70.1700 C   0  0  0  0  0  0  0  0  0  0  0  0
  128.1110  127.1460   71.5420 C   0  0  0  0  0  0  0  0  0  0  0  0
  128.5860  125.9950   72.1670 C   0  0  0  0  0  0  0  0  0  0  0  0
  128.3880  125.9040   73.5320 O   0  0  0  0  0  0  0  0  0  0  0  0
  129.4120  126.3520   74.4130 C   0  0  0  0  0  0  0  0  0  0  0  0
  129.2240  125.0170   71.3920 C   0  0  0  0  0  0  0  0  0  0  0  0
  129.3760  125.1970   70.0200 C   0  0  0  0  0  0  0  0  0  0  0  0
  129.9840  125.8030   67.1390 C   0  0  0  0  0  0  0  0  0  0  0  0
  130.1060  126.0170   65.7600 C   0  0  0  0  0  0  0  0  0  0  0  0
  131.1310  125.2210   65.0200 C   0  0  0  0  0  0  0  0  0  0  0  0
  130.7500  124.2430   64.0960 C   0  0  0  0  0  0  0  0  0  0  0  0
  131.7110  123.5160   63.4000 C   0  0  0  0  0  0  0  0  0  0  0  0
  133.0700  123.7560   63.6070 C   0  0  0  0  0  0  0  0  0  0  0  0
  133.9500  122.9870   62.8710 O   0  0  0  0  0  0  0  0  0  0  0  0
  134.6090  123.5670   61.7510 C   0  0  0  0  0  0  0  0  0  0  0  0
  133.4560  124.7420   64.5270 C   0  0  0  0  0  0  0  0  0  0  0  0
  132.4920  125.4680   65.2230 C   0  0  0  0  0  0  0  0  0  0  0  0
  129.2570  126.9720   65.1500 C   0  0  0  0  0  0  0  0  0  0  0  0
  129.3270  127.2300   63.7080 C   0  0  0  0  0  0  0  0  0  0  0  0
  129.3830  127.4320   62.5690 N   0  0  0  0  0  0  0  0  0  0  0  0
  128.4970  132.2600   60.6690 C   0  0  0  0  0  0  0  0  0  0  0  0
  128.5990  132.6170   59.3270 C   0  0  0  0  0  0  0  0  0  0  0  0
  132.3620  131.2858   57.2463 H   0  0  0  0  0  0  0  0  0  0  0  0
  131.8219  130.4305   55.7619 H   0  0  0  0  0  0  0  0  0  0  0  0
  133.3722  131.3378   55.7619 H   0  0  0  0  0  0  0  0  0  0  0  0
  132.3351  133.3633   55.4369 H   0  0  0  0  0  0  0  0  0  0  0  0
  130.9961  132.3499   54.8019 H   0  0  0  0  0  0  0  0  0  0  0  0
  131.0872  130.4795   58.3834 H   0  0  0  0  0  0  0  0  0  0  0  0
  130.9030  129.8410   60.7775 H   0  0  0  0  0  0  0  0  0  0  0  0
  129.9030  131.2630   63.1570 H   0  0  0  0  0  0  0  0  0  0  0  0
  129.2841  130.0451   64.9602 H   0  0  0  0  0  0  0  0  0  0  0  0
  127.8861  131.1827   65.1573 H   0  0  0  0  0  0  0  0  0  0  0  0
  127.8843  128.2391   69.6968 H   0  0  0  0  0  0  0  0  0  0  0  0
  127.6097  127.9227   72.1383 H   0  0  0  0  0  0  0  0  0  0  0  0
  129.0876  126.2101   75.4545 H   0  0  0  0  0  0  0  0  0  0  0  0
  130.3299  125.7732   74.2327 H   0  0  0  0  0  0  0  0  0  0  0  0
  129.6099  127.4189   74.2327 H   0  0  0  0  0  0  0  0  0  0  0  0
  129.6064  124.1030   71.8700 H   0  0  0  0  0  0  0  0  0  0  0  0
  129.8810  124.4203   69.4270 H   0  0  0  0  0  0  0  0  0  0  0  0
  130.6181  125.0507   67.6309 H   0  0  0  0  0  0  0  0  0  0  0  0
  129.6824  124.0468   63.9179 H   0  0  0  0  0  0  0  0  0  0  0  0
  131.3967  122.7456   62.6805 H   0  0  0  0  0  0  0  0  0  0  0  0
  135.3915  124.2557   62.1022 H   0  0  0  0  0  0  0  0  0  0  0  0
  135.0658  122.7726   61.1425 H   0  0  0  0  0  0  0  0  0  0  0  0
  133.8791  124.1210   61.1425 H   0  0  0  0  0  0  0  0  0  0  0  0
  134.5237  124.9427   64.6995 H   0  0  0  0  0  0  0  0  0  0  0  0
  132.8045  126.2426   65.9388 H   0  0  0  0  0  0  0  0  0  0  0  0
  127.7609  132.7628   61.3135 H   0  0  0  0  0  0  0  0  0  0  0  0
  127.9453  133.4028   58.9206 H   0  0  0  0  0  0  0  0  0  0  0  0
  1  2  1  0
  2  3  1  0
  3  4  1  0
  4  5  2  0
  4  6  1  0
  6  7  2  0
  7  8  1  0
  8  9  2  0
  9 10  1  0
 10 11  1  0
 11 12  2  0
 11 13  1  0
 13 14  1  0
 14 15  1  0
 15 16  2  0
 16 17  1  0
 17 18  1  0
 18 19  2  0
 19 20  1  0
 20 21  2  0
 21 22  1  0
 22 23  1  0
 21 24  1  0
 24 25  2  0
 17 26  2  0
 26 27  1  0
 27 28  1  0
 28 29  2  0
 29 30  1  0
 30 31  2  0
 31 32  1  0
 32 33  1  0
 31 34  1  0
 34 35  2  0
 27 36  2  0
 36 37  1  0
 37 38  3  0
  9 39  1  0
 39 40  2  0
 40  6  1  0
 36 15  1  0
 25 18  1  0
 35 28  1  0
  1 41  1  0
  1 42  1  0
  1 43  1  0
  2 44  1  0
  2 45  1  0
  7 46  1  0
  8 47  1  0
 10 48  1  0
 13 49  1  0
 13 50  1  0
 19 51  1  0
 20 52  1  0
 23 53  1  0
 23 54  1  0
 23 55  1  0
 24 56  1  0
 25 57  1  0
 26 58  1  0
 29 59  1  0
 30 60  1  0
 33 61  1  0
 33 62  1  0
 33 63  1  0
 34 64  1  0
 35 65  1  0
 39 66  1  0
 40 67  1  0
M  END
>  <Binding energies>  (1) 
[-9.8]

>  <Ligand effiencies>  (1) 
[-0.23902439024390246]

>  <Interactions>  (1) 
["V-A:PRO:540:CD:4887, V-A:PRO:540:N:4884, V-A:TYR:539:C:4867, V-A:TYR:531:CE2:4793, V-A:LEU:363:CD1:3189, V-A:GLU:543:CD:4908, V-A:TYR:539:CE2:4876, V-A:PRO:540:CA:4883, V-A:TYR:539:CD2:4874, V-B:HIS:456:CD2:9039, V-B:HIS:456:CE1:9040, H-B:LYS:547:NZ:9923, V-A:HIS:456:CE1:4069, V-A:HIS:456:CD2:4068, V-A:GLU:543:CB:4906, H-A:GLY:454:N:4050, V-A:ILE:369:CD1:3239, V-A:GLY:453:C:4042, V-A:GLY:454:CA:4049, V-A:ARG:545:CZ:4926, H-A:GLU:543:OE1:4909, V-A:TYR:539:CE1:4875, V-A:TYR:539:CD1:4873, H-A:TYR:539:N:4870, V-A:TYR:539:CG:4872"]

$$$$
1a_Grossjean_2025
     RDKit          3D

 45 46  0  0  0  0  0  0  0  0999 V2000
  125.7510  126.9250   74.5410 C   0  0  0  0  0  0  0  0  0  0  0  0
  126.7660  126.9890   73.3960 C   0  0  0  0  0  0  0  0  0  0  0  0
  127.8960  126.1890   73.7190 O   0  0  0  0  0  0  0  0  0  0  0  0
  129.1130  126.4410   73.1700 C   0  0  0  0  0  0  0  0  0  0  0  0
  130.0280  127.0070   73.7760 O   0  0  0  0  0  0  0  0  0  0  0  0
  129.2300  125.9770   71.7470 C   0  0  0  0  0  0  0  0  0  0  0  0
  128.7090  126.7780   70.7220 C   0  0  0  0  0  0  0  0  0  0  0  0
  128.7980  126.3730   69.3930 C   0  0  0  0  0  0  0  0  0  0  0  0
  129.4050  125.1620   69.0610 C   0  0  0  0  0  0  0  0  0  0  0  0
  129.4360  124.8510   67.6870 N   0  0  0  0  0  0  0  0  0  0  0  0
  130.0040  125.5170   66.6600 C   0  0  0  0  0  0  0  0  0  0  0  0
  130.6320  126.5730   66.7510 O   0  0  0  0  0  0  0  0  0  0  0  0
  129.8300  124.8720   65.2830 C   0  0  0  0  0  0  0  0  0  0  0  0
  129.9950  123.0620   65.3490 S   0  0  0  0  0  0  0  0  0  0  0  0
  130.8390  122.5490   63.8700 C   0  0  0  0  0  0  0  0  0  0  0  0
  130.0740  121.8030   63.0340 N   0  0  0  0  0  0  0  0  0  0  0  0
  130.6200  121.3540   61.8800 C   0  0  0  0  0  0  0  0  0  0  0  0
  129.7100  120.5150   61.0020 C   0  0  0  0  0  0  0  0  0  0  0  0
  131.9330  121.6350   61.5090 C   0  0  0  0  0  0  0  0  0  0  0  0
  132.7240  122.4210   62.3540 C   0  0  0  0  0  0  0  0  0  0  0  0
  134.1560  122.7300   61.9200 C   0  0  0  0  0  0  0  0  0  0  0  0
  132.1740  122.9040   63.5640 C   0  0  0  0  0  0  0  0  0  0  0  0
  132.9680  123.7700   64.4420 C   0  0  0  0  0  0  0  0  0  0  0  0
  133.5960  124.4520   65.1320 N   0  0  0  0  0  0  0  0  0  0  0  0
  129.9360  124.3570   70.0800 C   0  0  0  0  0  0  0  0  0  0  0  0
  129.8460  124.7620   71.4090 C   0  0  0  0  0  0  0  0  0  0  0  0
  126.2818  126.9585   75.5039 H   0  0  0  0  0  0  0  0  0  0  0  0
  125.0645  127.7816   74.4708 H   0  0  0  0  0  0  0  0  0  0  0  0
  125.1776  125.9889   74.4708 H   0  0  0  0  0  0  0  0  0  0  0  0
  126.3016  126.6119   72.4729 H   0  0  0  0  0  0  0  0  0  0  0  0
  127.0851  128.0311   73.2468 H   0  0  0  0  0  0  0  0  0  0  0  0
  128.2257  127.7347   70.9695 H   0  0  0  0  0  0  0  0  0  0  0  0
  128.3864  127.0130   68.5987 H   0  0  0  0  0  0  0  0  0  0  0  0
  128.9860  123.9790   67.4550 H   0  0  0  0  0  0  0  0  0  0  0  0
  128.8309  125.1232   64.8975 H   0  0  0  0  0  0  0  0  0  0  0  0
  130.6212  125.2603   64.6248 H   0  0  0  0  0  0  0  0  0  0  0  0
  129.0490  119.9056   61.6357 H   0  0  0  0  0  0  0  0  0  0  0  0
  129.1019  121.1760   60.3669 H   0  0  0  0  0  0  0  0  0  0  0  0
  130.3195  119.8553   60.3669 H   0  0  0  0  0  0  0  0  0  0  0  0
  132.3419  121.2446   60.5654 H   0  0  0  0  0  0  0  0  0  0  0  0
  134.7876  122.8663   62.8102 H   0  0  0  0  0  0  0  0  0  0  0  0
  134.5451  121.8951   61.3187 H   0  0  0  0  0  0  0  0  0  0  0  0
  134.1662  123.6510   61.3187 H   0  0  0  0  0  0  0  0  0  0  0  0
  130.4244  123.4040   69.8284 H   0  0  0  0  0  0  0  0  0  0  0  0
  130.2619  124.1233   72.2022 H   0  0  0  0  0  0  0  0  0  0  0  0
  1  2  1  0
  2  3  1  0
  3  4  1  0
  4  5  2  0
  4  6  1  0
  6  7  2  0
  7  8  1  0
  8  9  2  0
  9 10  1  0
 10 11  1  0
 11 12  2  0
 11 13  1  0
 13 14  1  0
 14 15  1  0
 15 16  2  0
 16 17  1  0
 17 18  1  0
 17 19  2  0
 19 20  1  0
 20 21  1  0
 20 22  2  0
 22 23  1  0
 23 24  3  0
  9 25  1  0
 25 26  2  0
 26  6  1  0
 22 15  1  0
  1 27  1  0
  1 28  1  0
  1 29  1  0
  2 30  1  0
  2 31  1  0
  7 32  1  0
  8 33  1  0
 10 34  1  0
 13 35  1  0
 13 36  1  0
 18 37  1  0
 18 38  1  0
 18 39  1  0
 19 40  1  0
 21 41  1  0
 21 42  1  0
 21 43  1  0
 25 44  1  0
 26 45  1  0
M  END
>  <Binding energies>  (1) 
[-7.94]

>  <Ligand effiencies>  (1) 
[-0.2940740740740741]

>  <Interactions>  (1) 
["V-B:ALA:541:CB:9864, V-B:TYR:539:CD2:9846, V-A:LEU:475:CD1:4258, V-B:GLU:543:C:9874, V-B:GLU:543:CB:9878, H-A:LYS:547:NZ:4951, V-B:HIS:456:CE1:9040, H-B:LYS:547:NZ:9923, V-A:HIS:456:CE1:4069, V-A:HIS:456:CG:4066, V-A:HIS:456:CD2:4068, H-A:HIS:456:NE2:4070, H-A:GLY:454:N:4050, V-B:GLU:543:CG:9879, V-A:TYR:484:CE1:4345, V-B:GLU:543:CA:9876, V-A:ILE:369:CD1:3239, V-A:TYR:484:CZ:4347, H-A:TYR:484:OH:4348, V-A:GLY:454:CA:4049, H-B:GLU:543:O:9875, V-B:LYS:547:CD:9921, V-A:TYR:484:CE2:4346, V-A:TYR:484:CD1:4343"]

$$$$
1aa_Ghoteimi_2023
     RDKit          3D

 67 70  0  0  0  0  0  0  0  0999 V2000
  130.7320  128.0000   57.2530 C   0  0  0  0  0  0  0  0  0  0  0  0
  132.0940  127.2980   57.2230 C   0  0  0  0  0  0  0  0  0  0  0  0
  131.9000  125.8910   57.1470 O   0  0  0  0  0  0  0  0  0  0  0  0
  132.7070  125.0350   57.8240 C   0  0  0  0  0  0  0  0  0  0  0  0
  133.5170  124.2830   57.2720 O   0  0  0  0  0  0  0  0  0  0  0  0
  132.5190  125.0920   59.3130 C   0  0  0  0  0  0  0  0  0  0  0  0
  133.2130  124.2370   60.1820 C   0  0  0  0  0  0  0  0  0  0  0  0
  133.0190  124.3140   61.5590 C   0  0  0  0  0  0  0  0  0  0  0  0
  132.1240  125.2530   62.0930 C   0  0  0  0  0  0  0  0  0  0  0  0
  131.8470  125.4200   63.4620 N   0  0  0  0  0  0  0  0  0  0  0  0
  132.6280  125.2090   64.5470 C   0  0  0  0  0  0  0  0  0  0  0  0
  133.7930  124.8120   64.5090 O   0  0  0  0  0  0  0  0  0  0  0  0
  132.0080  125.4880   65.9250 C   0  0  0  0  0  0  0  0  0  0  0  0
  130.6290  125.0990   65.9440 O   0  0  0  0  0  0  0  0  0  0  0  0
  129.6940  125.8600   66.6310 C   0  0  0  0  0  0  0  0  0  0  0  0
  129.6800  125.7820   67.9910 N   0  0  0  0  0  0  0  0  0  0  0  0
  128.7700  126.5010   68.6990 C   0  0  0  0  0  0  0  0  0  0  0  0
  128.8210  126.3610   70.1940 C   0  0  0  0  0  0  0  0  0  0  0  0
  129.3800  125.2230   70.7940 C   0  0  0  0  0  0  0  0  0  0  0  0
  129.4270  125.0910   72.1790 C   0  0  0  0  0  0  0  0  0  0  0  0
  128.9190  126.0900   73.0060 C   0  0  0  0  0  0  0  0  0  0  0  0
  129.0070  125.8710   74.3670 O   0  0  0  0  0  0  0  0  0  0  0  0
  130.2900  125.6970   74.9610 C   0  0  0  0  0  0  0  0  0  0  0  0
  128.3620  127.2350   72.4220 C   0  0  0  0  0  0  0  0  0  0  0  0
  128.3170  127.3660   71.0370 C   0  0  0  0  0  0  0  0  0  0  0  0
  127.8580  127.3400   68.0460 C   0  0  0  0  0  0  0  0  0  0  0  0
  127.8590  127.4470   66.6490 C   0  0  0  0  0  0  0  0  0  0  0  0
  126.8690  128.3660   66.0130 C   0  0  0  0  0  0  0  0  0  0  0  0
  127.2180  129.0960   64.8720 C   0  0  0  0  0  0  0  0  0  0  0  0
  126.2970  129.9470   64.2680 C   0  0  0  0  0  0  0  0  0  0  0  0
  125.0100  130.0830   64.7870 C   0  0  0  0  0  0  0  0  0  0  0  0
  124.1640  130.9500   64.1220 O   0  0  0  0  0  0  0  0  0  0  0  0
  123.8250  130.6860   62.7650 C   0  0  0  0  0  0  0  0  0  0  0  0
  124.6530  129.3470   65.9260 C   0  0  0  0  0  0  0  0  0  0  0  0
  125.5750  128.4960   66.5300 C   0  0  0  0  0  0  0  0  0  0  0  0
  128.7980  126.6780   65.9220 C   0  0  0  0  0  0  0  0  0  0  0  0
  128.8460  126.6920   64.4590 C   0  0  0  0  0  0  0  0  0  0  0  0
  128.8850  126.7010   63.3030 N   0  0  0  0  0  0  0  0  0  0  0  0
  131.4310  126.1030   61.2300 C   0  0  0  0  0  0  0  0  0  0  0  0
  131.6250  126.0250   59.8550 C   0  0  0  0  0  0  0  0  0  0  0  0
  130.4242  128.1587   58.2971 H   0  0  0  0  0  0  0  0  0  0  0  0
  130.8086  128.9709   56.7417 H   0  0  0  0  0  0  0  0  0  0  0  0
  129.9856  127.3743   56.7417 H   0  0  0  0  0  0  0  0  0  0  0  0
  132.6625  127.6378   56.3448 H   0  0  0  0  0  0  0  0  0  0  0  0
  132.6530  127.5424   58.1383 H   0  0  0  0  0  0  0  0  0  0  0  0
  133.9174  123.4984   59.7718 H   0  0  0  0  0  0  0  0  0  0  0  0
  133.5688  123.6370   62.2294 H   0  0  0  0  0  0  0  0  0  0  0  0
  130.9140  125.7580   63.6540 H   0  0  0  0  0  0  0  0  0  0  0  0
  132.5553  124.9179   66.6901 H   0  0  0  0  0  0  0  0  0  0  0  0
  132.0760  126.5659   66.1336 H   0  0  0  0  0  0  0  0  0  0  0  0
  129.7878  124.4220   70.1599 H   0  0  0  0  0  0  0  0  0  0  0  0
  129.8700  124.1883   72.6250 H   0  0  0  0  0  0  0  0  0  0  0  0
  130.1917  125.7103   76.0565 H   0  0  0  0  0  0  0  0  0  0  0  0
  130.7138  124.7332   74.6426 H   0  0  0  0  0  0  0  0  0  0  0  0
  130.9552  126.5132   74.6426 H   0  0  0  0  0  0  0  0  0  0  0  0
  127.9583  128.0343   73.0609 H   0  0  0  0  0  0  0  0  0  0  0  0
  127.8789  128.2727   70.5943 H   0  0  0  0  0  0  0  0  0  0  0  0
  127.1337  127.9208   68.6360 H   0  0  0  0  0  0  0  0  0  0  0  0
  128.2284  128.9967   64.4487 H   0  0  0  0  0  0  0  0  0  0  0  0
  126.5870  130.5173   63.3732 H   0  0  0  0  0  0  0  0  0  0  0  0
  122.9576  130.0105   62.7285 H   0  0  0  0  0  0  0  0  0  0  0  0
  123.5759  131.6304   62.2589 H   0  0  0  0  0  0  0  0  0  0  0  0
  124.6796  130.2131   62.2589 H   0  0  0  0  0  0  0  0  0  0  0  0
  123.6401  129.4423   66.3442 H   0  0  0  0  0  0  0  0  0  0  0  0
  125.2837  127.9209   67.4213 H   0  0  0  0  0  0  0  0  0  0  0  0
  130.7257  126.8406   61.6405 H   0  0  0  0  0  0  0  0  0  0  0  0
  131.0718  126.7017   59.1871 H   0  0  0  0  0  0  0  0  0  0  0  0
  1  2  1  0
  2  3  1  0
  3  4  1  0
  4  5  2  0
  4  6  1  0
  6  7  2  0
  7  8  1  0
  8  9  2  0
  9 10  1  0
 10 11  1  0
 11 12  2  0
 11 13  1  0
 13 14  1  0
 14 15  1  0
 15 16  2  0
 16 17  1  0
 17 18  1  0
 18 19  2  0
 19 20  1  0
 20 21  2  0
 21 22  1  0
 22 23  1  0
 21 24  1  0
 24 25  2  0
 17 26  2  0
 26 27  1  0
 27 28  1  0
 28 29  2  0
 29 30  1  0
 30 31  2  0
 31 32  1  0
 32 33  1  0
 31 34  1  0
 34 35  2  0
 27 36  2  0
 36 37  1  0
 37 38  3  0
  9 39  1  0
 39 40  2  0
 40  6  1  0
 36 15  1  0
 25 18  1  0
 35 28  1  0
  1 41  1  0
  1 42  1  0
  1 43  1  0
  2 44  1  0
  2 45  1  0
  7 46  1  0
  8 47  1  0
 10 48  1  0
 13 49  1  0
 13 50  1  0
 19 51  1  0
 20 52  1  0
 23 53  1  0
 23 54  1  0
 23 55  1  0
 24 56  1  0
 25 57  1  0
 26 58  1  0
 29 59  1  0
 30 60  1  0
 33 61  1  0
 33 62  1  0
 33 63  1  0
 34 64  1  0
 35 65  1  0
 39 66  1  0
 40 67  1  0
M  END
>  <Binding energies>  (1) 
[-9.27]

>  <Ligand effiencies>  (1) 
[-0.22609756097560973]

>  <Interactions>  (1) 
["V-B:GLU:543:CD:9880, V-B:TYR:539:CZ:9849, V-A:ASP:366:CB:3212, V-A:TYR:531:CZ:4794, V-A:ASP:366:CG:3213, H-A:TYR:531:OH:4795, H-B:TYR:539:OH:9850, V-B:GLU:543:CB:9878, V-B:HIS:456:CD2:9039, V-B:HIS:456:CE1:9040, V-B:ARG:545:CG:9894, H-B:LYS:547:NZ:9923, V-A:HIS:456:CE1:4069, V-A:HIS:456:CD2:4068, H-B:TYR:484:OH:9319, H-B:GLY:454:N:9021, H-A:HIS:456:NE2:4070, V-B:ARG:545:CD:9895, V-B:ARG:545:CZ:9898, H-A:GLY:454:N:4050, V-B:GLU:543:CG:9879, H-A:TYR:484:OH:4348, H-A:GLU:543:OE2:4910, V-A:ASP:366:CA:3210, H-A:ARG:545:NH2:4928, H-A:ARG:545:NE:4924, V-A:ARG:545:CZ:4926"]

$$$$
1b_Ghoteimi_2023
     RDKit          3D

 54 57  0  0  0  0  0  0  0  0999 V2000
  134.0570  124.3350   62.5310 C   0  0  0  0  0  0  0  0  0  0  0  0
  133.6540  124.3010   63.8950 O   0  0  0  0  0  0  0  0  0  0  0  0
  132.4820  124.9300   64.2680 C   0  0  0  0  0  0  0  0  0  0  0  0
  132.3330  125.2240   65.6220 C   0  0  0  0  0  0  0  0  0  0  0  0
  131.1850  125.8560   66.0890 C   0  0  0  0  0  0  0  0  0  0  0  0
  130.1500  126.2190   65.2140 C   0  0  0  0  0  0  0  0  0  0  0  0
  128.9110  126.9000   65.7230 C   0  0  0  0  0  0  0  0  0  0  0  0
  128.2930  127.9590   65.0500 C   0  0  0  0  0  0  0  0  0  0  0  0
  127.1360  128.5570   65.5650 C   0  0  0  0  0  0  0  0  0  0  0  0
  126.5330  129.6860   64.7960 C   0  0  0  0  0  0  0  0  0  0  0  0
  125.2230  129.5940   64.3170 C   0  0  0  0  0  0  0  0  0  0  0  0
  124.6600  130.6400   63.5920 C   0  0  0  0  0  0  0  0  0  0  0  0
  125.3960  131.7960   63.3270 C   0  0  0  0  0  0  0  0  0  0  0  0
  124.7560  132.7810   62.6000 O   0  0  0  0  0  0  0  0  0  0  0  0
  123.7610  132.4090   61.6510 C   0  0  0  0  0  0  0  0  0  0  0  0
  126.7140  131.8890   63.7980 C   0  0  0  0  0  0  0  0  0  0  0  0
  127.2740  130.8410   64.5220 C   0  0  0  0  0  0  0  0  0  0  0  0
  126.6000  128.0560   66.7770 C   0  0  0  0  0  0  0  0  0  0  0  0
  125.3400  128.5820   67.3080 C   0  0  0  0  0  0  0  0  0  0  0  0
  124.3440  128.9990   67.7260 N   0  0  0  0  0  0  0  0  0  0  0  0
  127.2850  126.9980   67.4170 C   0  0  0  0  0  0  0  0  0  0  0  0
  126.7640  126.2500   68.9470 S   0  0  0  0  0  0  0  0  0  0  0  0
  127.8260  126.9010   70.2810 C   0  0  0  0  0  0  0  0  0  0  0  0
  128.3020  125.8560   71.3000 C   0  0  0  0  0  0  0  0  0  0  0  0
  128.1140  126.0230   72.5070 O   0  0  0  0  0  0  0  0  0  0  0  0
  128.9230  124.7840   70.7600 N   0  0  0  0  0  0  0  0  0  0  0  0
  129.4530  123.6900   71.4350 C   0  0  0  0  0  0  0  0  0  0  0  0
  130.6840  123.7220   72.0880 C   0  0  0  0  0  0  0  0  0  0  0  0
  130.8390  122.4620   72.6210 C   0  0  0  0  0  0  0  0  0  0  0  0
  129.7560  121.7120   72.3060 O   0  0  0  0  0  0  0  0  0  0  0  0
  128.8840  122.5020   71.5550 N   0  0  0  0  0  0  0  0  0  0  0  0
  128.3950  126.4290   66.8890 N   0  0  0  0  0  0  0  0  0  0  0  0
  130.3100  125.9170   63.8530 C   0  0  0  0  0  0  0  0  0  0  0  0
  131.4560  125.2840   63.3810 C   0  0  0  0  0  0  0  0  0  0  0  0
  135.1516  124.4274   62.4743 H   0  0  0  0  0  0  0  0  0  0  0  0
  133.7410  123.4070   62.0321 H   0  0  0  0  0  0  0  0  0  0  0  0
  133.5900  125.1969   62.0321 H   0  0  0  0  0  0  0  0  0  0  0  0
  133.1313  124.9536   66.3288 H   0  0  0  0  0  0  0  0  0  0  0  0
  131.0871  126.0749   67.1625 H   0  0  0  0  0  0  0  0  0  0  0  0
  128.7206  128.3264   64.1054 H   0  0  0  0  0  0  0  0  0  0  0  0
  124.6323  128.6874   64.5147 H   0  0  0  0  0  0  0  0  0  0  0  0
  123.6266  130.5551   63.2248 H   0  0  0  0  0  0  0  0  0  0  0  0
  122.8577  132.0713   62.1801 H   0  0  0  0  0  0  0  0  0  0  0  0
  123.5139  133.2755   61.0200 H   0  0  0  0  0  0  0  0  0  0  0  0
  124.1430  131.5930   61.0200 H   0  0  0  0  0  0  0  0  0  0  0  0
  127.3066  132.7931   63.5944 H   0  0  0  0  0  0  0  0  0  0  0  0
  128.3101  130.9213   64.8828 H   0  0  0  0  0  0  0  0  0  0  0  0
  128.7143  127.3560   69.8186 H   0  0  0  0  0  0  0  0  0  0  0  0
  127.2095  127.6187   70.8420 H   0  0  0  0  0  0  0  0  0  0  0  0
  129.0080  124.7560   69.7550 H   0  0  0  0  0  0  0  0  0  0  0  0
  131.3807  124.5701   72.1616 H   0  0  0  0  0  0  0  0  0  0  0  0
  131.7036  122.1194   73.2084 H   0  0  0  0  0  0  0  0  0  0  0  0
  129.5129  126.1862   63.1444 H   0  0  0  0  0  0  0  0  0  0  0  0
  131.5569  125.0608   62.3086 H   0  0  0  0  0  0  0  0  0  0  0  0
  1  2  1  0
  2  3  1  0
  3  4  2  0
  4  5  1  0
  5  6  2  0
  6  7  1  0
  7  8  2  0
  8  9  1  0
  9 10  1  0
 10 11  2  0
 11 12  1  0
 12 13  2  0
 13 14  1  0
 14 15  1  0
 13 16  1  0
 16 17  2  0
  9 18  2  0
 18 19  1  0
 19 20  3  0
 18 21  1  0
 21 22  1  0
 22 23  1  0
 23 24  1  0
 24 25  2  0
 24 26  1  0
 26 27  1  0
 27 28  1  0
 28 29  2  0
 29 30  1  0
 30 31  1  0
 21 32  2  0
  6 33  1  0
 33 34  2  0
 34  3  1  0
 32  7  1  0
 17 10  1  0
 31 27  2  0
  1 35  1  0
  1 36  1  0
  1 37  1  0
  4 38  1  0
  5 39  1  0
  8 40  1  0
 11 41  1  0
 12 42  1  0
 15 43  1  0
 15 44  1  0
 15 45  1  0
 16 46  1  0
 17 47  1  0
 23 48  1  0
 23 49  1  0
 26 50  1  0
 28 51  1  0
 29 52  1  0
 33 53  1  0
 34 54  1  0
M  END
>  <Binding energies>  (1) 
[-9.98]

>  <Ligand effiencies>  (1) 
[-0.28514285714285714]

>  <Interactions>  (1) 
["V-A:GLU:543:CD:4908, V-B:LEU:475:CD1:9229, V-B:GLU:543:C:9874, V-B:GLU:543:CB:9878, V-B:GLY:544:C:9884, V-B:HIS:456:CE1:9040, V-B:ARG:545:CG:9894, H-B:LYS:547:NZ:9923, V-A:HIS:456:CE1:4069, V-A:HIS:456:CG:4066, V-A:HIS:456:CD2:4068, V-A:HIS:456:CB:4065, H-B:TYR:484:OH:9319, H-B:ARG:545:NE:9896, V-B:ILE:369:CD1:8210, V-B:ARG:545:CD:9895, V-B:ARG:545:CZ:9898, H-A:GLY:454:N:4050, V-A:ARG:545:CZ:4926, V-A:GLY:453:CA:4044, H-B:GLU:543:O:9875, V-A:TYR:484:CD2:4344, V-A:TYR:484:CG:4342, V-A:TYR:484:CE2:4346, V-A:TYR:484:CB:4341, V-A:TYR:484:CD1:4343, H-B:ARG:545:N:9892"]

$$$$
1b_Grossjean_2025
     RDKit          3D

 42 43  0  0  0  0  0  0  0  0999 V2000
  125.8130  127.3500   73.4920 C   0  0  0  0  0  0  0  0  0  0  0  0
  127.0010  127.4560   72.7190 O   0  0  0  0  0  0  0  0  0  0  0  0
  127.9280  126.4640   72.7230 C   0  0  0  0  0  0  0  0  0  0  0  0
  128.3170  125.9000   73.7500 O   0  0  0  0  0  0  0  0  0  0  0  0
  128.4280  126.1130   71.3510 C   0  0  0  0  0  0  0  0  0  0  0  0
  129.3160  125.0490   71.1340 C   0  0  0  0  0  0  0  0  0  0  0  0
  129.7610  124.7510   69.8490 C   0  0  0  0  0  0  0  0  0  0  0  0
  129.3310  125.5050   68.7580 C   0  0  0  0  0  0  0  0  0  0  0  0
  129.8470  125.1150   67.5070 N   0  0  0  0  0  0  0  0  0  0  0  0
  129.5600  125.5690   66.2670 C   0  0  0  0  0  0  0  0  0  0  0  0
  128.7550  126.4600   66.0000 O   0  0  0  0  0  0  0  0  0  0  0  0
  130.3330  124.9000   65.1300 C   0  0  0  0  0  0  0  0  0  0  0  0
  130.1040  123.0960   65.1140 S   0  0  0  0  0  0  0  0  0  0  0  0
  130.9420  122.4680   63.6740 C   0  0  0  0  0  0  0  0  0  0  0  0
  130.2000  121.5960   62.9470 N   0  0  0  0  0  0  0  0  0  0  0  0
  130.7400  121.0570   61.8290 C   0  0  0  0  0  0  0  0  0  0  0  0
  129.8470  120.1030   61.0580 C   0  0  0  0  0  0  0  0  0  0  0  0
  132.0330  121.3540   61.4010 C   0  0  0  0  0  0  0  0  0  0  0  0
  132.8130  122.2340   62.1560 C   0  0  0  0  0  0  0  0  0  0  0  0
  134.2330  122.5310   61.6760 C   0  0  0  0  0  0  0  0  0  0  0  0
  132.2710  122.8090   63.3280 C   0  0  0  0  0  0  0  0  0  0  0  0
  133.0850  123.6990   64.1580 C   0  0  0  0  0  0  0  0  0  0  0  0
  133.7310  124.4020   64.8120 N   0  0  0  0  0  0  0  0  0  0  0  0
  128.4430  126.5710   68.9660 C   0  0  0  0  0  0  0  0  0  0  0  0
  127.9980  126.8680   70.2510 C   0  0  0  0  0  0  0  0  0  0  0  0
  126.0683  127.3728   74.5617 H   0  0  0  0  0  0  0  0  0  0  0  0
  125.1458  128.1922   73.2563 H   0  0  0  0  0  0  0  0  0  0  0  0
  125.3054  126.4030   73.2563 H   0  0  0  0  0  0  0  0  0  0  0  0
  129.6633  124.4456   71.9856 H   0  0  0  0  0  0  0  0  0  0  0  0
  130.4575  123.9139   69.6932 H   0  0  0  0  0  0  0  0  0  0  0  0
  130.5280  124.3710   67.5590 H   0  0  0  0  0  0  0  0  0  0  0  0
  129.9807  125.3106   64.1722 H   0  0  0  0  0  0  0  0  0  0  0  0
  131.4031  125.1038   65.2828 H   0  0  0  0  0  0  0  0  0  0  0  0
  129.2710  119.4877   61.7649 H   0  0  0  0  0  0  0  0  0  0  0  0
  129.1556  120.6786   60.4251 H   0  0  0  0  0  0  0  0  0  0  0  0
  130.4670  119.4510   60.4251 H   0  0  0  0  0  0  0  0  0  0  0  0
  132.4337  120.9019   60.4817 H   0  0  0  0  0  0  0  0  0  0  0  0
  134.8926  122.6690   62.5454 H   0  0  0  0  0  0  0  0  0  0  0  0
  134.5982  121.6898   61.0685 H   0  0  0  0  0  0  0  0  0  0  0  0
  134.2304  123.4480   61.0685 H   0  0  0  0  0  0  0  0  0  0  0  0
  128.0979  127.1729   68.1124 H   0  0  0  0  0  0  0  0  0  0  0  0
  127.3009  127.7048   70.4051 H   0  0  0  0  0  0  0  0  0  0  0  0
  1  2  1  0
  2  3  1  0
  3  4  2  0
  3  5  1  0
  5  6  2  0
  6  7  1  0
  7  8  2  0
  8  9  1  0
  9 10  1  0
 10 11  2  0
 10 12  1  0
 12 13  1  0
 13 14  1  0
 14 15  2  0
 15 16  1  0
 16 17  1  0
 16 18  2  0
 18 19  1  0
 19 20  1  0
 19 21  2  0
 21 22  1  0
 22 23  3  0
  8 24  1  0
 24 25  2  0
 25  5  1  0
 21 14  1  0
  1 26  1  0
  1 27  1  0
  1 28  1  0
  6 29  1  0
  7 30  1  0
  9 31  1  0
 12 32  1  0
 12 33  1  0
 17 34  1  0
 17 35  1  0
 17 36  1  0
 18 37  1  0
 20 38  1  0
 20 39  1  0
 20 40  1  0
 24 41  1  0
 25 42  1  0
M  END
>  <Binding energies>  (1) 
[-7.85]

>  <Ligand effiencies>  (1) 
[-0.3019230769230769]

>  <Interactions>  (1) 
["V-B:ALA:541:CB:9864, V-B:TYR:539:CD2:9846, V-A:PRO:482:CG:4327, V-A:LEU:475:CD1:4258, V-B:GLU:543:C:9874, V-B:GLU:543:CB:9878, V-B:HIS:456:CB:9036, V-B:HIS:456:CG:9037, V-B:HIS:456:CE1:9040, H-B:LYS:547:NZ:9923, V-A:HIS:456:CE1:4069, V-A:HIS:456:CG:4066, V-A:HIS:456:CD2:4068, H-A:GLY:454:N:4050, V-A:TYR:484:CE1:4345, V-A:ILE:369:CD1:3239, V-A:TYR:484:CZ:4347, H-A:TYR:484:OH:4348, V-A:GLY:454:CA:4049, H-A:HIS:456:ND1:4067, H-B:GLU:543:O:9875"]

$$$$
1c_Ghoteimi_2023
     RDKit          3D

 54 57  0  0  0  0  0  0  0  0999 V2000
  127.2550  126.6520   74.7270 C   0  0  0  0  0  0  0  0  0  0  0  0
  128.2840  125.8800   74.1180 O   0  0  0  0  0  0  0  0  0  0  0  0
  128.4990  125.9950   72.7570 C   0  0  0  0  0  0  0  0  0  0  0  0
  127.9450  127.1060   72.1280 C   0  0  0  0  0  0  0  0  0  0  0  0
  128.1100  127.3000   70.7590 C   0  0  0  0  0  0  0  0  0  0  0  0
  128.8330  126.3860   69.9780 C   0  0  0  0  0  0  0  0  0  0  0  0
  129.0090  126.5890   68.5010 C   0  0  0  0  0  0  0  0  0  0  0  0
  129.7370  125.7050   67.6970 C   0  0  0  0  0  0  0  0  0  0  0  0
  129.8500  125.9210   66.3190 C   0  0  0  0  0  0  0  0  0  0  0  0
  130.5850  124.9020   65.5130 C   0  0  0  0  0  0  0  0  0  0  0  0
  131.9100  125.1220   65.1240 C   0  0  0  0  0  0  0  0  0  0  0  0
  132.5860  124.1810   64.3540 C   0  0  0  0  0  0  0  0  0  0  0  0
  131.9510  123.0050   63.9550 C   0  0  0  0  0  0  0  0  0  0  0  0
  132.6990  122.1280   63.1930 O   0  0  0  0  0  0  0  0  0  0  0  0
  133.5410  122.6430   62.1670 C   0  0  0  0  0  0  0  0  0  0  0  0
  130.6190  122.7830   64.3380 C   0  0  0  0  0  0  0  0  0  0  0  0
  129.9450  123.7270   65.1080 C   0  0  0  0  0  0  0  0  0  0  0  0
  129.2370  127.0700   65.7650 C   0  0  0  0  0  0  0  0  0  0  0  0
  129.3480  127.3710   64.3330 C   0  0  0  0  0  0  0  0  0  0  0  0
  129.4350  127.6070   63.2040 N   0  0  0  0  0  0  0  0  0  0  0  0
  128.5040  127.9090   66.6290 C   0  0  0  0  0  0  0  0  0  0  0  0
  127.5440  129.2890   66.0440 S   0  0  0  0  0  0  0  0  0  0  0  0
  125.8190  128.8610   66.4480 C   0  0  0  0  0  0  0  0  0  0  0  0
  124.8200  129.5200   65.4910 C   0  0  0  0  0  0  0  0  0  0  0  0
  123.8780  130.1690   65.9470 O   0  0  0  0  0  0  0  0  0  0  0  0
  125.0930  129.3620   64.1770 N   0  0  0  0  0  0  0  0  0  0  0  0
  124.4450  129.9770   63.1170 C   0  0  0  0  0  0  0  0  0  0  0  0
  123.3320  130.6770   63.1470 N   0  0  0  0  0  0  0  0  0  0  0  0
  123.0260  131.1510   61.9550 C   0  0  0  0  0  0  0  0  0  0  0  0
  123.9060  130.8370   60.9240 C   0  0  0  0  0  0  0  0  0  0  0  0
  125.2000  129.8650   61.5600 S   0  0  0  0  0  0  0  0  0  0  0  0
  128.3880  127.6680   67.9570 N   0  0  0  0  0  0  0  0  0  0  0  0
  129.3920  125.2730   70.6240 C   0  0  0  0  0  0  0  0  0  0  0  0
  129.2290  125.0740   71.9910 C   0  0  0  0  0  0  0  0  0  0  0  0
  127.3449  126.5846   75.8212 H   0  0  0  0  0  0  0  0  0  0  0  0
  127.3514  127.7025   74.4152 H   0  0  0  0  0  0  0  0  0  0  0  0
  126.2734  126.2656   74.4152 H   0  0  0  0  0  0  0  0  0  0  0  0
  127.3720  127.8370   72.7173 H   0  0  0  0  0  0  0  0  0  0  0  0
  127.6655  128.1857   70.2814 H   0  0  0  0  0  0  0  0  0  0  0  0
  130.2256  124.8312   68.1528 H   0  0  0  0  0  0  0  0  0  0  0  0
  132.4219  126.0465   65.4293 H   0  0  0  0  0  0  0  0  0  0  0  0
  133.6291  124.3658   64.0576 H   0  0  0  0  0  0  0  0  0  0  0  0
  134.3954  123.1656   62.6218 H   0  0  0  0  0  0  0  0  0  0  0  0
  133.9077  121.8145   61.5433 H   0  0  0  0  0  0  0  0  0  0  0  0
  132.9704  123.3468   61.5433 H   0  0  0  0  0  0  0  0  0  0  0  0
  130.1061  121.8603   64.0288 H   0  0  0  0  0  0  0  0  0  0  0  0
  128.8999  123.5467   65.4002 H   0  0  0  0  0  0  0  0  0  0  0  0
  125.7012  127.7691   66.3864 H   0  0  0  0  0  0  0  0  0  0  0  0
  125.6083  129.2297   67.4627 H   0  0  0  0  0  0  0  0  0  0  0  0
  125.8940  128.7990   63.9330 H   0  0  0  0  0  0  0  0  0  0  0  0
  122.1259  131.7602   61.7854 H   0  0  0  0  0  0  0  0  0  0  0  0
  123.8002  131.1527   59.8756 H   0  0  0  0  0  0  0  0  0  0  0  0
  129.9704  124.5436   70.0380 H   0  0  0  0  0  0  0  0  0  0  0  0
  129.6742  124.1912   72.4732 H   0  0  0  0  0  0  0  0  0  0  0  0
  1  2  1  0
  2  3  1  0
  3  4  2  0
  4  5  1  0
  5  6  2  0
  6  7  1  0
  7  8  2  0
  8  9  1  0
  9 10  1  0
 10 11  2  0
 11 12  1  0
 12 13  2  0
 13 14  1  0
 14 15  1  0
 13 16  1  0
 16 17  2  0
  9 18  2  0
 18 19  1  0
 19 20  3  0
 18 21  1  0
 21 22  1  0
 22 23  1  0
 23 24  1  0
 24 25  2  0
 24 26  1  0
 26 27  1  0
 27 28  2  0
 28 29  1  0
 29 30  2  0
 30 31  1  0
 21 32  2  0
  6 33  1  0
 33 34  2  0
 34  3  1  0
 32  7  1  0
 17 10  1  0
 31 27  1  0
  1 35  1  0
  1 36  1  0
  1 37  1  0
  4 38  1  0
  5 39  1  0
  8 40  1  0
 11 41  1  0
 12 42  1  0
 15 43  1  0
 15 44  1  0
 15 45  1  0
 16 46  1  0
 17 47  1  0
 23 48  1  0
 23 49  1  0
 26 50  1  0
 29 51  1  0
 30 52  1  0
 33 53  1  0
 34 54  1  0
M  END
>  <Binding energies>  (1) 
[-9.42]

>  <Ligand effiencies>  (1) 
[-0.26914285714285713]

>  <Interactions>  (1) 
["V-B:ASP:366:CG:8184, V-A:LEU:475:CD1:4258, V-A:GLU:543:CD:4908, V-B:GLU:543:CB:9878, V-B:HIS:456:CD2:9039, V-B:HIS:456:CE1:9040, V-B:ARG:545:CG:9894, H-B:LYS:547:NZ:9923, V-A:HIS:456:CE1:4069, V-A:HIS:456:CD2:4068, H-B:GLU:543:OE1:9881, H-B:TYR:484:OH:9319, H-B:ARG:545:NE:9896, H-B:GLY:454:N:9021, V-B:ILE:369:CD1:8210, V-B:ARG:545:CD:9895, V-B:ARG:545:CZ:9898, V-B:GLU:543:CG:9879, V-A:TYR:484:CE1:4345, H-B:ARG:545:NH2:9900, H-B:ILE:455:N:9026, V-A:ILE:369:CD1:3239, V-A:GLY:454:CA:4049, V-B:LYS:547:CD:9921"]

$$$$
1c_Grossjean_2025
     RDKit          3D

 40 41  0  0  0  0  0  0  0  0999 V2000
  127.2670  127.1750   73.9600 C   0  0  0  0  0  0  0  0  0  0  0  0
  128.2200  126.2060   73.5380 O   0  0  0  0  0  0  0  0  0  0  0  0
  128.4480  126.0280   72.1870 C   0  0  0  0  0  0  0  0  0  0  0  0
  129.4370  125.1080   71.8380 C   0  0  0  0  0  0  0  0  0  0  0  0
  129.7390  124.8590   70.5030 C   0  0  0  0  0  0  0  0  0  0  0  0
  129.0410  125.5330   69.4890 C   0  0  0  0  0  0  0  0  0  0  0  0
  129.2720  125.3650   68.1100 N   0  0  0  0  0  0  0  0  0  0  0  0
  129.9130  126.1780   67.2430 C   0  0  0  0  0  0  0  0  0  0  0  0
  130.4470  127.2490   67.5300 O   0  0  0  0  0  0  0  0  0  0  0  0
  129.9640  125.6840   65.7960 C   0  0  0  0  0  0  0  0  0  0  0  0
  130.1240  123.8760   65.7030 S   0  0  0  0  0  0  0  0  0  0  0  0
  130.8550  123.4570   64.1340 C   0  0  0  0  0  0  0  0  0  0  0  0
  129.9950  122.8390   63.2850 N   0  0  0  0  0  0  0  0  0  0  0  0
  130.4380  122.4710   62.0600 C   0  0  0  0  0  0  0  0  0  0  0  0
  129.4170  121.7960   61.1650 C   0  0  0  0  0  0  0  0  0  0  0  0
  131.7470  122.6920   61.6380 C   0  0  0  0  0  0  0  0  0  0  0  0
  132.6490  123.3060   62.5120 C   0  0  0  0  0  0  0  0  0  0  0  0
  134.0830  123.5210   62.0330 C   0  0  0  0  0  0  0  0  0  0  0  0
  132.2090  123.6970   63.7980 C   0  0  0  0  0  0  0  0  0  0  0  0
  133.1530  124.2910   64.7480 C   0  0  0  0  0  0  0  0  0  0  0  0
  133.8990  124.7610   65.4970 N   0  0  0  0  0  0  0  0  0  0  0  0
  128.0590  126.4630   69.8340 C   0  0  0  0  0  0  0  0  0  0  0  0
  127.7600  126.7090   71.1710 C   0  0  0  0  0  0  0  0  0  0  0  0
  127.2371  127.2054   75.0592 H   0  0  0  0  0  0  0  0  0  0  0  0
  127.5540  128.1641   73.5735 H   0  0  0  0  0  0  0  0  0  0  0  0
  126.2733  126.9045   73.5735 H   0  0  0  0  0  0  0  0  0  0  0  0
  129.9846  124.5730   72.6279 H   0  0  0  0  0  0  0  0  0  0  0  0
  130.5244  124.1343   70.2423 H   0  0  0  0  0  0  0  0  0  0  0  0
  128.9480  124.4850   67.7380 H   0  0  0  0  0  0  0  0  0  0  0  0
  129.0383  125.9860   65.2842 H   0  0  0  0  0  0  0  0  0  0  0  0
  130.8467  126.1298   65.3143 H   0  0  0  0  0  0  0  0  0  0  0  0
  128.6595  121.2952   61.7857 H   0  0  0  0  0  0  0  0  0  0  0  0
  128.9301  122.5508   60.5300 H   0  0  0  0  0  0  0  0  0  0  0  0
  129.9207  121.0524   60.5300 H   0  0  0  0  0  0  0  0  0  0  0  0
  132.0667  122.3875   60.6305 H   0  0  0  0  0  0  0  0  0  0  0  0
  134.7490  123.6209   62.9027 H   0  0  0  0  0  0  0  0  0  0  0  0
  134.3996  122.6603   61.4256 H   0  0  0  0  0  0  0  0  0  0  0  0
  134.1333  124.4367   61.4256 H   0  0  0  0  0  0  0  0  0  0  0  0
  127.5180  127.0049   69.0443 H   0  0  0  0  0  0  0  0  0  0  0  0
  126.9810  127.4404   71.4323 H   0  0  0  0  0  0  0  0  0  0  0  0
  1  2  1  0
  2  3  1  0
  3  4  2  0
  4  5  1  0
  5  6  2  0
  6  7  1  0
  7  8  1  0
  8  9  2  0
  8 10  1  0
 10 11  1  0
 11 12  1  0
 12 13  2  0
 13 14  1  0
 14 15  1  0
 14 16  2  0
 16 17  1  0
 17 18  1  0
 17 19  2  0
 19 20  1  0
 20 21  3  0
  6 22  1  0
 22 23  2  0
 23  3  1  0
 19 12  1  0
  1 24  1  0
  1 25  1  0
  1 26  1  0
  4 27  1  0
  5 28  1  0
  7 29  1  0
 10 30  1  0
 10 31  1  0
 15 32  1  0
 15 33  1  0
 15 34  1  0
 16 35  1  0
 18 36  1  0
 18 37  1  0
 18 38  1  0
 22 39  1  0
 23 40  1  0
M  END
>  <Binding energies>  (1) 
[-7.14]

>  <Ligand effiencies>  (1) 
[-0.2975]

>  <Interactions>  (1) 
["V-B:ALA:541:CB:9864, V-B:GLU:543:C:9874, V-B:GLU:543:CB:9878, V-B:GLY:544:C:9884, V-B:HIS:456:CE1:9040, H-B:LYS:547:NZ:9923, V-A:HIS:456:CE1:4069, V-A:HIS:456:CG:4066, V-A:HIS:456:CD2:4068, H-A:HIS:456:NE2:4070, H-A:GLY:454:N:4050, V-A:TYR:484:CE1:4345, V-A:ILE:369:CD1:3239, H-A:TYR:484:OH:4348, V-A:GLY:454:CA:4049, H-A:ARG:545:NE:4924, H-B:GLU:543:O:9875"]

$$$$
1d_Ghoteimi_2023
     RDKit          3D

 50 52  0  0  0  0  0  0  0  0999 V2000
  133.5430  124.7680   63.1340 C   0  0  0  0  0  0  0  0  0  0  0  0
  133.5210  124.1420   64.4080 O   0  0  0  0  0  0  0  0  0  0  0  0
  133.7690  124.8540   65.5260 C   0  0  0  0  0  0  0  0  0  0  0  0
  134.7540  124.7430   66.2570 O   0  0  0  0  0  0  0  0  0  0  0  0
  132.6630  125.8620   65.8290 C   0  0  0  0  0  0  0  0  0  0  0  0
  131.0730  125.0430   65.5030 S   0  0  0  0  0  0  0  0  0  0  0  0
  129.8140  126.0150   66.3010 C   0  0  0  0  0  0  0  0  0  0  0  0
  129.7800  125.8650   67.6460 N   0  0  0  0  0  0  0  0  0  0  0  0
  128.8640  126.5460   68.3810 C   0  0  0  0  0  0  0  0  0  0  0  0
  128.8980  126.3290   69.8660 C   0  0  0  0  0  0  0  0  0  0  0  0
  128.4670  127.3240   70.7580 C   0  0  0  0  0  0  0  0  0  0  0  0
  128.5050  127.1230   72.1340 C   0  0  0  0  0  0  0  0  0  0  0  0
  128.9760  125.9240   72.6630 C   0  0  0  0  0  0  0  0  0  0  0  0
  128.9810  125.8140   74.0410 O   0  0  0  0  0  0  0  0  0  0  0  0
  128.1550  126.6820   74.8090 C   0  0  0  0  0  0  0  0  0  0  0  0
  129.4110  124.9200   71.7860 C   0  0  0  0  0  0  0  0  0  0  0  0
  129.3700  125.1250   70.4090 C   0  0  0  0  0  0  0  0  0  0  0  0
  127.9560  127.4130   67.7620 C   0  0  0  0  0  0  0  0  0  0  0  0
  127.9580  127.5750   66.3710 C   0  0  0  0  0  0  0  0  0  0  0  0
  126.9570  128.5110   65.7750 C   0  0  0  0  0  0  0  0  0  0  0  0
  125.6400  128.5250   66.2450 C   0  0  0  0  0  0  0  0  0  0  0  0
  124.7010  129.3940   65.6950 C   0  0  0  0  0  0  0  0  0  0  0  0
  125.0600  130.2690   64.6700 C   0  0  0  0  0  0  0  0  0  0  0  0
  124.0630  131.0900   64.1800 O   0  0  0  0  0  0  0  0  0  0  0  0
  123.7700  131.0730   62.7870 C   0  0  0  0  0  0  0  0  0  0  0  0
  126.3840  130.2680   64.2040 C   0  0  0  0  0  0  0  0  0  0  0  0
  127.3200  129.3980   64.7560 C   0  0  0  0  0  0  0  0  0  0  0  0
  128.9000  126.8410   65.6080 C   0  0  0  0  0  0  0  0  0  0  0  0
  128.8790  126.8920   64.1430 C   0  0  0  0  0  0  0  0  0  0  0  0
  128.8610  126.9330   62.9870 N   0  0  0  0  0  0  0  0  0  0  0  0
  133.5814  125.8598   63.2625 H   0  0  0  0  0  0  0  0  0  0  0  0
  134.4299  124.4331   62.5762 H   0  0  0  0  0  0  0  0  0  0  0  0
  132.6347  124.4962   62.5762 H   0  0  0  0  0  0  0  0  0  0  0  0
  132.7164  126.1726   66.8829 H   0  0  0  0  0  0  0  0  0  0  0  0
  132.7730  126.7584   65.2010 H   0  0  0  0  0  0  0  0  0  0  0  0
  128.0926  128.2794   70.3617 H   0  0  0  0  0  0  0  0  0  0  0  0
  128.1598  127.9187   72.8106 H   0  0  0  0  0  0  0  0  0  0  0  0
  128.3280  126.5002   75.8800 H   0  0  0  0  0  0  0  0  0  0  0  0
  128.3999  127.7275   74.5703 H   0  0  0  0  0  0  0  0  0  0  0  0
  127.0987  126.4892   74.5703 H   0  0  0  0  0  0  0  0  0  0  0  0
  129.7860  123.9669   72.1871 H   0  0  0  0  0  0  0  0  0  0  0  0
  129.7144  124.3273   69.7344 H   0  0  0  0  0  0  0  0  0  0  0  0
  127.2336  127.9727   68.3743 H   0  0  0  0  0  0  0  0  0  0  0  0
  125.3432  127.8438   67.0561 H   0  0  0  0  0  0  0  0  0  0  0  0
  123.6677  129.3903   66.0721 H   0  0  0  0  0  0  0  0  0  0  0  0
  122.6814  131.0098   62.6420 H   0  0  0  0  0  0  0  0  0  0  0  0
  124.1491  131.9946   62.3213 H   0  0  0  0  0  0  0  0  0  0  0  0
  124.2531  130.2014   62.3213 H   0  0  0  0  0  0  0  0  0  0  0  0
  126.6829  130.9568   63.4001 H   0  0  0  0  0  0  0  0  0  0  0  0
  128.3562  129.4081   64.3870 H   0  0  0  0  0  0  0  0  0  0  0  0
  1  2  1  0
  2  3  1  0
  3  4  2  0
  3  5  1  0
  5  6  1  0
  6  7  1  0
  7  8  2  0
  8  9  1  0
  9 10  1  0
 10 11  2  0
 11 12  1  0
 12 13  2  0
 13 14  1  0
 14 15  1  0
 13 16  1  0
 16 17  2  0
  9 18  2  0
 18 19  1  0
 19 20  1  0
 20 21  2  0
 21 22  1  0
 22 23  2  0
 23 24  1  0
 24 25  1  0
 23 26  1  0
 26 27  2  0
 19 28  2  0
 28 29  1  0
 29 30  3  0
 28  7  1  0
 17 10  1  0
 27 20  1  0
  1 31  1  0
  1 32  1  0
  1 33  1  0
  5 34  1  0
  5 35  1  0
 11 36  1  0
 12 37  1  0
 15 38  1  0
 15 39  1  0
 15 40  1  0
 16 41  1  0
 17 42  1  0
 18 43  1  0
 21 44  1  0
 22 45  1  0
 25 46  1  0
 25 47  1  0
 25 48  1  0
 26 49  1  0
 27 50  1  0
M  END
>  <Binding energies>  (1) 
[-8.63]

>  <Ligand effiencies>  (1) 
[-0.2876666666666667]

>  <Interactions>  (1) 
["V-B:GLU:543:CD:9880, V-A:GLU:543:CD:4908, V-B:HIS:456:CE1:9040, V-B:ARG:545:CG:9894, H-B:LYS:547:NZ:9923, V-A:HIS:456:CE1:4069, V-A:HIS:456:CD2:4068, H-B:TYR:484:OH:9319, H-B:GLY:454:N:9021, H-A:HIS:456:NE2:4070, V-B:ARG:545:CD:9895, V-B:ARG:545:CZ:9898, H-A:GLY:454:N:4050, V-B:GLY:454:CA:9020, H-A:TYR:484:OH:4348, H-A:ARG:545:NE:4924, V-A:ARG:545:CZ:4926, V-A:ARG:545:CD:4923, V-A:ARG:545:CG:4922, H-A:ILE:455:N:4055"]

$$$$
1d_Grossjean_2025
     RDKit          3D

 36 37  0  0  0  0  0  0  0  0999 V2000
  123.2750  130.7590   62.4680 C   0  0  0  0  0  0  0  0  0  0  0  0
  124.3190  130.3520   63.4890 C   0  0  0  0  0  0  0  0  0  0  0  0
  123.9680  129.9880   64.7870 C   0  0  0  0  0  0  0  0  0  0  0  0
  124.9740  129.6120   65.6830 C   0  0  0  0  0  0  0  0  0  0  0  0
  124.5630  129.2010   67.0960 C   0  0  0  0  0  0  0  0  0  0  0  0
  126.3220  129.6190   65.2540 C   0  0  0  0  0  0  0  0  0  0  0  0
  127.3860  129.1840   66.1600 C   0  0  0  0  0  0  0  0  0  0  0  0
  128.2250  128.8390   66.8780 N   0  0  0  0  0  0  0  0  0  0  0  0
  126.5880  130.0270   63.9250 C   0  0  0  0  0  0  0  0  0  0  0  0
  128.2190  130.0970   63.2200 S   0  0  0  0  0  0  0  0  0  0  0  0
  128.6350  131.8520   62.9860 C   0  0  0  0  0  0  0  0  0  0  0  0
  129.5960  132.0660   61.8150 C   0  0  0  0  0  0  0  0  0  0  0  0
  129.3950  132.9980   61.0360 O   0  0  0  0  0  0  0  0  0  0  0  0
  130.6290  131.1990   61.7500 N   0  0  0  0  0  0  0  0  0  0  0  0
  131.6690  131.1040   60.8070 C   0  0  0  0  0  0  0  0  0  0  0  0
  131.2690  130.9010   59.4830 C   0  0  0  0  0  0  0  0  0  0  0  0
  132.2180  130.7990   58.4700 C   0  0  0  0  0  0  0  0  0  0  0  0
  133.5720  130.9070   58.7780 C   0  0  0  0  0  0  0  0  0  0  0  0
  133.9840  131.1170   60.0920 C   0  0  0  0  0  0  0  0  0  0  0  0
  133.0370  131.2190   61.1080 C   0  0  0  0  0  0  0  0  0  0  0  0
  125.6020  130.3700   63.0570 N   0  0  0  0  0  0  0  0  0  0  0  0
  122.3717  131.1112   62.9876 H   0  0  0  0  0  0  0  0  0  0  0  0
  123.6741  131.5674   61.8377 H   0  0  0  0  0  0  0  0  0  0  0  0
  123.0217  129.8938   61.8377 H   0  0  0  0  0  0  0  0  0  0  0  0
  122.9144  129.9962   65.1029 H   0  0  0  0  0  0  0  0  0  0  0  0
  125.1426  129.7806   67.8296 H   0  0  0  0  0  0  0  0  0  0  0  0
  123.4902  129.3984   67.2378 H   0  0  0  0  0  0  0  0  0  0  0  0
  124.7604  128.1282   67.2378 H   0  0  0  0  0  0  0  0  0  0  0  0
  127.7089  132.4129   62.7915 H   0  0  0  0  0  0  0  0  0  0  0  0
  129.1325  132.2064   63.9008 H   0  0  0  0  0  0  0  0  0  0  0  0
  130.6840  130.5170   62.4930 H   0  0  0  0  0  0  0  0  0  0  0  0
  130.1990  130.8215   59.2406 H   0  0  0  0  0  0  0  0  0  0  0  0
  131.8999  130.6337   57.4301 H   0  0  0  0  0  0  0  0  0  0  0  0
  134.3219  130.8258   57.9774 H   0  0  0  0  0  0  0  0  0  0  0  0
  135.0553  131.2021   60.3267 H   0  0  0  0  0  0  0  0  0  0  0  0
  133.3596  131.3895   62.1457 H   0  0  0  0  0  0  0  0  0  0  0  0
  1  2  1  0
  2  3  2  0
  3  4  1  0
  4  5  1  0
  4  6  2  0
  6  7  1  0
  7  8  3  0
  6  9  1  0
  9 10  1  0
 10 11  1  0
 11 12  1  0
 12 13  2  0
 12 14  1  0
 14 15  1  0
 15 16  2  0
 16 17  1  0
 17 18  2  0
 18 19  1  0
 19 20  2  0
  9 21  2  0
 21  2  1  0
 20 15  1  0
  1 22  1  0
  1 23  1  0
  1 24  1  0
  3 25  1  0
  5 26  1  0
  5 27  1  0
  5 28  1  0
 11 29  1  0
 11 30  1  0
 14 31  1  0
 16 32  1  0
 17 33  1  0
 18 34  1  0
 19 35  1  0
 20 36  1  0
M  END
>  <Binding energies>  (1) 
[-6.8]

>  <Ligand effiencies>  (1) 
[-0.3090909090909091]

>  <Interactions>  (1) 
["V-B:ASP:366:CG:8184, V-A:ASP:366:CG:3213, V-A:GLU:543:CD:4908, V-A:PRO:540:CB:4885, V-A:PRO:540:CA:4883, V-A:ALA:541:CB:4892, H-A:ALA:541:N:4891, V-B:HIS:456:CE1:9040, V-B:ARG:545:CG:9894, V-B:ILE:369:CD1:8210, V-B:ARG:545:CD:9895, V-B:ARG:545:CZ:9898, V-B:GLY:454:CA:9020, H-A:GLU:543:OE2:4910, V-A:ASN:362:C:3172, V-A:ASN:362:CB:3176, H-A:GLU:543:OE1:4909, V-A:LEU:363:CA:3185, V-A:ALA:541:CA:4890, V-A:LEU:363:CB:3187"]

$$$$
1e_Grossjean_2025
     RDKit          3D

 38 39  0  0  0  0  0  0  0  0999 V2000
  134.8900  125.0770   66.6280 C   0  0  0  0  0  0  0  0  0  0  0  0
  133.8300  125.1260   65.5440 C   0  0  0  0  0  0  0  0  0  0  0  0
  132.5030  125.4580   65.8320 C   0  0  0  0  0  0  0  0  0  0  0  0
  131.5830  125.4800   64.7840 C   0  0  0  0  0  0  0  0  0  0  0  0
  132.0030  125.1710   63.4880 C   0  0  0  0  0  0  0  0  0  0  0  0
  133.3480  124.8510   63.2680 C   0  0  0  0  0  0  0  0  0  0  0  0
  133.7090  124.5380   61.9460 N   0  0  0  0  0  0  0  0  0  0  0  0
  134.3460  123.4390   61.4860 C   0  0  0  0  0  0  0  0  0  0  0  0
  134.7370  122.5040   62.1860 O   0  0  0  0  0  0  0  0  0  0  0  0
  134.6100  123.4040   59.9790 C   0  0  0  0  0  0  0  0  0  0  0  0
  133.0700  123.2640   59.0220 S   0  0  0  0  0  0  0  0  0  0  0  0
  131.7890  122.6380   60.0910 C   0  0  0  0  0  0  0  0  0  0  0  0
  130.9050  123.5890   60.4860 N   0  0  0  0  0  0  0  0  0  0  0  0
  129.8860  123.2340   61.3040 C   0  0  0  0  0  0  0  0  0  0  0  0
  128.9350  124.3470   61.6970 C   0  0  0  0  0  0  0  0  0  0  0  0
  129.7150  121.9310   61.7680 C   0  0  0  0  0  0  0  0  0  0  0  0
  130.6340  120.9480   61.3870 C   0  0  0  0  0  0  0  0  0  0  0  0
  130.4350  119.5320   61.9240 C   0  0  0  0  0  0  0  0  0  0  0  0
  131.7080  121.2970   60.5360 C   0  0  0  0  0  0  0  0  0  0  0  0
  132.7120  120.2930   60.1760 C   0  0  0  0  0  0  0  0  0  0  0  0
  133.5040  119.4980   59.8920 N   0  0  0  0  0  0  0  0  0  0  0  0
  134.2540  124.8240   64.2900 N   0  0  0  0  0  0  0  0  0  0  0  0
  134.4059  125.0994   67.6155 H   0  0  0  0  0  0  0  0  0  0  0  0
  135.4749  124.1509   66.5273 H   0  0  0  0  0  0  0  0  0  0  0  0
  135.5579  125.9452   66.5273 H   0  0  0  0  0  0  0  0  0  0  0  0
  132.1920  125.6960   66.8599 H   0  0  0  0  0  0  0  0  0  0  0  0
  130.5316  125.7394   64.9770 H   0  0  0  0  0  0  0  0  0  0  0  0
  131.2874  125.1790   62.6526 H   0  0  0  0  0  0  0  0  0  0  0  0
  133.5060  125.2600   61.2700 H   0  0  0  0  0  0  0  0  0  0  0  0
  135.1268  124.3302   59.6872 H   0  0  0  0  0  0  0  0  0  0  0  0
  135.2270  122.5195   59.7621 H   0  0  0  0  0  0  0  0  0  0  0  0
  128.8796  124.4118   62.7937 H   0  0  0  0  0  0  0  0  0  0  0  0
  129.3004  125.3019   61.2913 H   0  0  0  0  0  0  0  0  0  0  0  0
  127.9348  124.1350   61.2913 H   0  0  0  0  0  0  0  0  0  0  0  0
  128.8691  121.6793   62.4246 H   0  0  0  0  0  0  0  0  0  0  0  0
  130.4380  119.5531   63.0238 H   0  0  0  0  0  0  0  0  0  0  0  0
  129.4725  119.1365   61.5675 H   0  0  0  0  0  0  0  0  0  0  0  0
  131.2513  118.8866   61.5675 H   0  0  0  0  0  0  0  0  0  0  0  0
  1  2  1  0
  2  3  2  0
  3  4  1  0
  4  5  2  0
  5  6  1  0
  6  7  1  0
  7  8  1  0
  8  9  2  0
  8 10  1  0
 10 11  1  0
 11 12  1  0
 12 13  2  0
 13 14  1  0
 14 15  1  0
 14 16  2  0
 16 17  1  0
 17 18  1  0
 17 19  2  0
 19 20  1  0
 20 21  3  0
  6 22  2  0
 22  2  1  0
 19 12  1  0
  1 23  1  0
  1 24  1  0
  1 25  1  0
  3 26  1  0
  4 27  1  0
  5 28  1  0
  7 29  1  0
 10 30  1  0
 10 31  1  0
 15 32  1  0
 15 33  1  0
 15 34  1  0
 16 35  1  0
 18 36  1  0
 18 37  1  0
 18 38  1  0
M  END
>  <Binding energies>  (1) 
[-6.73]

>  <Ligand effiencies>  (1) 
[-0.29260869565217396]

>  <Interactions>  (1) 
["V-A:PRO:482:CB:4326, V-B:ALA:541:CB:9864, V-B:TYR:539:CE2:9848, V-B:TYR:539:CD2:9846, V-A:PRO:482:CG:4327, V-A:LEU:475:CD1:4258, H-A:ASP:366:OD1:3214, V-A:ASP:366:CG:3213, H-B:TYR:539:OH:9850, V-A:HIS:456:CE1:4069, H-A:GLY:454:N:4050, V-A:ILE:369:CD1:3239, V-A:TRP:381:CH2:3372, V-A:ILE:369:CG2:3237, V-A:ILE:369:CB:3236, V-A:GLY:453:C:4042, V-A:ASP:366:CA:3210, H-A:ARG:545:NH2:4928, H-A:ARG:545:NE:4924, H-A:ARG:545:NH1:4927, V-A:ARG:545:CZ:4926, V-A:GLY:453:CA:4044, V-A:ARG:545:CD:4923, V-A:ARG:545:CG:4922, V-A:ILE:369:CG1:3238, H-A:ASP:366:OD2:3215, V-A:ILE:455:C:4052"]

$$$$
1f_Grossjean_2025
     RDKit          3D

 35 36  0  0  0  0  0  0  0  0999 V2000
  134.2410  124.1940   62.4780 C   0  0  0  0  0  0  0  0  0  0  0  0
  133.3040  123.0480   62.1440 C   0  0  0  0  0  0  0  0  0  0  0  0
  133.7400  121.9320   61.4340 C   0  0  0  0  0  0  0  0  0  0  0  0
  132.8270  120.9120   61.1450 C   0  0  0  0  0  0  0  0  0  0  0  0
  133.3250  119.7070   60.3490 C   0  0  0  0  0  0  0  0  0  0  0  0
  131.4900  121.0340   61.5860 C   0  0  0  0  0  0  0  0  0  0  0  0
  130.5070  120.0030   61.2450 C   0  0  0  0  0  0  0  0  0  0  0  0
  129.7320  119.1880   60.9740 N   0  0  0  0  0  0  0  0  0  0  0  0
  131.1420  122.1890   62.3260 C   0  0  0  0  0  0  0  0  0  0  0  0
  129.5100  122.5160   62.9630 S   0  0  0  0  0  0  0  0  0  0  0  0
  128.6450  123.6180   61.7930 C   0  0  0  0  0  0  0  0  0  0  0  0
  127.9450  122.9030   60.6280 C   0  0  0  0  0  0  0  0  0  0  0  0
  127.9120  121.6720   60.5800 O   0  0  0  0  0  0  0  0  0  0  0  0
  127.4200  123.7280   59.6970 N   0  0  0  0  0  0  0  0  0  0  0  0
  126.7140  123.4190   58.5190 C   0  0  0  0  0  0  0  0  0  0  0  0
  125.4620  123.9490   58.1510 C   0  0  0  0  0  0  0  0  0  0  0  0
  124.8740  123.5570   56.9460 C   0  0  0  0  0  0  0  0  0  0  0  0
  125.5520  122.6470   56.1350 C   0  0  0  0  0  0  0  0  0  0  0  0
  126.7600  122.1260   56.4640 N   0  0  0  0  0  0  0  0  0  0  0  0
  127.3200  122.5160   57.6380 C   0  0  0  0  0  0  0  0  0  0  0  0
  132.0290  123.1840   62.5800 N   0  0  0  0  0  0  0  0  0  0  0  0
  134.3229  124.2942   63.5704 H   0  0  0  0  0  0  0  0  0  0  0  0
  135.2350  123.9908   62.0529 H   0  0  0  0  0  0  0  0  0  0  0  0
  133.8443  125.1278   62.0529 H   0  0  0  0  0  0  0  0  0  0  0  0
  134.7868  121.8536   61.1053 H   0  0  0  0  0  0  0  0  0  0  0  0
  133.6509  118.9183   61.0431 H   0  0  0  0  0  0  0  0  0  0  0  0
  132.5113  119.3244   59.7154 H   0  0  0  0  0  0  0  0  0  0  0  0
  134.1714  120.0105   59.7154 H   0  0  0  0  0  0  0  0  0  0  0  0
  127.8852  124.1825   62.3534 H   0  0  0  0  0  0  0  0  0  0  0  0
  129.4184  124.2574   61.3424 H   0  0  0  0  0  0  0  0  0  0  0  0
  127.5620  124.7160   59.8490 H   0  0  0  0  0  0  0  0  0  0  0  0
  124.9503  124.6673   58.8085 H   0  0  0  0  0  0  0  0  0  0  0  0
  123.8956  123.9581   56.6427 H   0  0  0  0  0  0  0  0  0  0  0  0
  125.0865  122.3385   55.1873 H   0  0  0  0  0  0  0  0  0  0  0  0
  128.3013  122.1005   57.9109 H   0  0  0  0  0  0  0  0  0  0  0  0
  1  2  1  0
  2  3  2  0
  3  4  1  0
  4  5  1  0
  4  6  2  0
  6  7  1  0
  7  8  3  0
  6  9  1  0
  9 10  1  0
 10 11  1  0
 11 12  1  0
 12 13  2  0
 12 14  1  0
 14 15  1  0
 15 16  2  0
 16 17  1  0
 17 18  2  0
 18 19  1  0
 19 20  2  0
  9 21  2  0
 21  2  1  0
 20 15  1  0
  1 22  1  0
  1 23  1  0
  1 24  1  0
  3 25  1  0
  5 26  1  0
  5 27  1  0
  5 28  1  0
 11 29  1  0
 11 30  1  0
 14 31  1  0
 16 32  1  0
 17 33  1  0
 18 34  1  0
 20 35  1  0
M  END
>  <Binding energies>  (1) 
[-7.06]

>  <Ligand effiencies>  (1) 
[-0.32090909090909087]

>  <Interactions>  (1) 
["V-B:PRO:540:CD:9859, V-B:GLU:543:CD:9880, V-B:ILE:538:CB:9834, V-B:ALA:541:CB:9864, V-B:TYR:539:CE2:9848, V-B:TYR:539:CD2:9846, H-B:ALA:541:N:9863, V-B:PRO:540:CB:9857, V-B:PRO:540:N:9856, V-B:TYR:539:C:9839, V-B:LEU:363:CD1:8160, V-B:PRO:540:CA:9855, V-A:LEU:475:CD1:4258, V-B:ILE:538:CG2:9835, V-B:TYR:539:CG:9844, H-B:TYR:539:N:9842, V-B:GLU:543:CG:9879, V-A:ILE:369:CD1:3239, V-A:TRP:381:CH2:3372, V-A:ILE:369:CG2:3237, V-A:GLY:453:C:4042, V-A:GLY:453:CA:4044, V-B:ILE:538:CA:9832"]

$$$$
1g_Grossjean_2025
     RDKit          3D

 39 40  0  0  0  0  0  0  0  0999 V2000
  123.7540  125.9160   74.1350 C   0  0  0  0  0  0  0  0  0  0  0  0
  124.7030  127.0500   74.4740 C   0  0  0  0  0  0  0  0  0  0  0  0
  124.2450  128.2420   75.0320 C   0  0  0  0  0  0  0  0  0  0  0  0
  125.1650  129.2590   75.3090 C   0  0  0  0  0  0  0  0  0  0  0  0
  124.6380  130.5630   75.9070 C   0  0  0  0  0  0  0  0  0  0  0  0
  126.5330  129.0510   75.0250 C   0  0  0  0  0  0  0  0  0  0  0  0
  127.5070  130.1210   75.2570 C   0  0  0  0  0  0  0  0  0  0  0  0
  128.2730  130.9690   75.4410 N   0  0  0  0  0  0  0  0  0  0  0  0
  126.9110  127.8000   74.4820 C   0  0  0  0  0  0  0  0  0  0  0  0
  128.5880  127.3670   74.0740 S   0  0  0  0  0  0  0  0  0  0  0  0
  129.1110  128.4540   72.7140 C   0  0  0  0  0  0  0  0  0  0  0  0
  129.0220  127.7550   71.3560 C   0  0  0  0  0  0  0  0  0  0  0  0
  129.7460  128.1170   70.4280 O   0  0  0  0  0  0  0  0  0  0  0  0
  128.1240  126.7600   71.2560 N   0  0  0  0  0  0  0  0  0  0  0  0
  127.9130  125.9230   70.0750 C   0  0  0  0  0  0  0  0  0  0  0  0
  127.6200  126.7020   68.7970 C   0  0  0  0  0  0  0  0  0  0  0  0
  126.2980  127.0010   68.4490 C   0  0  0  0  0  0  0  0  0  0  0  0
  126.0310  127.7130   67.2830 C   0  0  0  0  0  0  0  0  0  0  0  0
  127.0840  128.1290   66.4710 C   0  0  0  0  0  0  0  0  0  0  0  0
  128.4030  127.8390   66.8150 C   0  0  0  0  0  0  0  0  0  0  0  0
  128.6720  127.1250   67.9800 C   0  0  0  0  0  0  0  0  0  0  0  0
  126.0090  126.8280   74.1950 N   0  0  0  0  0  0  0  0  0  0  0  0
  123.3759  125.4642   75.0639 H   0  0  0  0  0  0  0  0  0  0  0  0
  122.9102  126.3072   73.5476 H   0  0  0  0  0  0  0  0  0  0  0  0
  124.2878  125.1544   73.5476 H   0  0  0  0  0  0  0  0  0  0  0  0
  123.1761  128.3812   75.2514 H   0  0  0  0  0  0  0  0  0  0  0  0
  124.6636  130.4996   77.0049 H   0  0  0  0  0  0  0  0  0  0  0  0
  125.2683  131.4005   75.5733 H   0  0  0  0  0  0  0  0  0  0  0  0
  123.6028  130.7274   75.5733 H   0  0  0  0  0  0  0  0  0  0  0  0
  128.4623  129.3422   72.6996 H   0  0  0  0  0  0  0  0  0  0  0  0
  130.1615  128.7317   72.8854 H   0  0  0  0  0  0  0  0  0  0  0  0
  127.5850  126.5150   72.0750 H   0  0  0  0  0  0  0  0  0  0  0  0
  128.8201  125.3225   69.9120 H   0  0  0  0  0  0  0  0  0  0  0  0
  127.0240  125.3083   70.2797 H   0  0  0  0  0  0  0  0  0  0  0  0
  125.4708  126.6738   69.0960 H   0  0  0  0  0  0  0  0  0  0  0  0
  124.9929  127.9462   67.0038 H   0  0  0  0  0  0  0  0  0  0  0  0
  126.8723  128.6916   65.5498 H   0  0  0  0  0  0  0  0  0  0  0  0
  129.2283  128.1727   66.1689 H   0  0  0  0  0  0  0  0  0  0  0  0
  129.7113  126.8942   68.2568 H   0  0  0  0  0  0  0  0  0  0  0  0
  1  2  1  0
  2  3  2  0
  3  4  1  0
  4  5  1  0
  4  6  2  0
  6  7  1  0
  7  8  3  0
  6  9  1  0
  9 10  1  0
 10 11  1  0
 11 12  1  0
 12 13  2  0
 12 14  1  0
 14 15  1  0
 15 16  1  0
 16 17  2  0
 17 18  1  0
 18 19  2  0
 19 20  1  0
 20 21  2  0
  9 22  2  0
 22  2  1  0
 21 16  1  0
  1 23  1  0
  1 24  1  0
  1 25  1  0
  3 26  1  0
  5 27  1  0
  5 28  1  0
  5 29  1  0
 11 30  1  0
 11 31  1  0
 14 32  1  0
 15 33  1  0
 15 34  1  0
 17 35  1  0
 18 36  1  0
 19 37  1  0
 20 38  1  0
 21 39  1  0
M  END
>  <Binding energies>  (1) 
[-6.9]

>  <Ligand effiencies>  (1) 
[-0.3]

>  <Interactions>  (1) 
["V-B:GLU:543:C:9874, V-B:LYS:471:CG:9189, V-B:GLU:543:CB:9878, V-B:HIS:456:CB:9036, V-B:HIS:456:CG:9037, V-B:GLY:544:C:9884, V-B:HIS:456:CD2:9039, V-B:ARG:545:CA:9891, H-A:LYS:547:NZ:4951, V-B:LYS:471:CD:9190, V-B:HIS:456:CE1:9040, V-B:VAL:457:CA:9046, V-B:HIS:456:C:9032, V-B:ARG:545:CG:9894, V-B:VAL:458:CG2:9058, V-B:LYS:471:CE:9191, H-B:HIS:456:NE2:9041, H-A:HIS:456:NE2:4070, V-B:ARG:545:CD:9895, V-B:LYS:547:CD:9921, V-B:ARG:545:C:9889, V-B:HIS:456:CA:9034, V-B:VAL:457:C:9044, V-B:LYS:547:CG:9920, H-B:LYS:471:NZ:9192, H-B:GLY:544:O:9885, V-B:LYS:547:CB:9919, V-B:ILE:546:CA:9908, V-B:ILE:546:C:9906, V-B:LYS:547:CA:9917"]

$$$$
1h_Grossjean_2025
     RDKit          3D

 51 52  0  0  0  0  0  0  0  0999 V2000
  123.3390  124.3450   60.0020 C   0  0  0  0  0  0  0  0  0  0  0  0
  124.0380  124.1620   58.7760 O   0  0  0  0  0  0  0  0  0  0  0  0
  125.2980  123.5910   58.7910 C   0  0  0  0  0  0  0  0  0  0  0  0
  126.0680  123.4220   59.9530 C   0  0  0  0  0  0  0  0  0  0  0  0
  127.3380  122.8490   59.8910 C   0  0  0  0  0  0  0  0  0  0  0  0
  128.1550  122.6510   61.1650 C   0  0  0  0  0  0  0  0  0  0  0  0
  129.4980  122.1200   60.9330 N   0  0  0  0  0  0  0  0  0  0  0  0
  129.8350  120.8170   60.9590 C   0  0  0  0  0  0  0  0  0  0  0  0
  129.0300  119.9080   61.1600 O   0  0  0  0  0  0  0  0  0  0  0  0
  131.3100  120.4900   60.7300 C   0  0  0  0  0  0  0  0  0  0  0  0
  132.3450  121.9850   60.7130 S   0  0  0  0  0  0  0  0  0  0  0  0
  132.1520  122.8100   62.2850 C   0  0  0  0  0  0  0  0  0  0  0  0
  130.9630  122.6120   62.9120 N   0  0  0  0  0  0  0  0  0  0  0  0
  130.7520  123.2050   64.1110 C   0  0  0  0  0  0  0  0  0  0  0  0
  129.4030  122.9340   64.7510 C   0  0  0  0  0  0  0  0  0  0  0  0
  131.7040  124.0130   64.7280 C   0  0  0  0  0  0  0  0  0  0  0  0
  132.9310  124.2260   64.0910 C   0  0  0  0  0  0  0  0  0  0  0  0
  133.9610  125.1130   64.7870 C   0  0  0  0  0  0  0  0  0  0  0  0
  133.1730  123.6160   62.8390 C   0  0  0  0  0  0  0  0  0  0  0  0
  134.4480  123.8240   62.1470 C   0  0  0  0  0  0  0  0  0  0  0  0
  135.4550  123.9880   61.6010 N   0  0  0  0  0  0  0  0  0  0  0  0
  127.8350  122.4060   58.6650 C   0  0  0  0  0  0  0  0  0  0  0  0
  127.0850  122.5570   57.4880 C   0  0  0  0  0  0  0  0  0  0  0  0
  127.5150  122.1440   56.2400 O   0  0  0  0  0  0  0  0  0  0  0  0
  127.7330  123.1120   55.2190 C   0  0  0  0  0  0  0  0  0  0  0  0
  125.8220  123.1610   57.5630 C   0  0  0  0  0  0  0  0  0  0  0  0
  125.0740  123.3110   56.4210 O   0  0  0  0  0  0  0  0  0  0  0  0
  124.8760  124.6630   56.0310 C   0  0  0  0  0  0  0  0  0  0  0  0
  124.0232  124.1659   60.8445 H   0  0  0  0  0  0  0  0  0  0  0  0
  122.9542  125.3742   60.0546 H   0  0  0  0  0  0  0  0  0  0  0  0
  122.4993  123.6364   60.0546 H   0  0  0  0  0  0  0  0  0  0  0  0
  125.6646  123.7455   60.9239 H   0  0  0  0  0  0  0  0  0  0  0  0
  128.2499  123.6237   61.6699 H   0  0  0  0  0  0  0  0  0  0  0  0
  127.6196  121.9082   61.7746 H   0  0  0  0  0  0  0  0  0  0  0  0
  130.2250  122.8020   60.7740 H   0  0  0  0  0  0  0  0  0  0  0  0
  131.6563  119.8276   61.5370 H   0  0  0  0  0  0  0  0  0  0  0  0
  131.4013  120.0026   59.7481 H   0  0  0  0  0  0  0  0  0  0  0  0
  129.5059  122.9547   65.8460 H   0  0  0  0  0  0  0  0  0  0  0  0
  128.6857  123.7060   64.4355 H   0  0  0  0  0  0  0  0  0  0  0  0
  129.0395  121.9449   64.4355 H   0  0  0  0  0  0  0  0  0  0  0  0
  131.4939  124.4773   65.7028 H   0  0  0  0  0  0  0  0  0  0  0  0
  133.8501  125.0175   65.8772 H   0  0  0  0  0  0  0  0  0  0  0  0
  134.9735  124.7996   64.4926 H   0  0  0  0  0  0  0  0  0  0  0  0
  133.8013  126.1608   64.4926 H   0  0  0  0  0  0  0  0  0  0  0  0
  128.8269  121.9325   58.6201 H   0  0  0  0  0  0  0  0  0  0  0  0
  127.9525  124.0869   55.6788 H   0  0  0  0  0  0  0  0  0  0  0  0
  128.5836  122.8012   54.5947 H   0  0  0  0  0  0  0  0  0  0  0  0
  126.8312  123.1958   54.5947 H   0  0  0  0  0  0  0  0  0  0  0  0
  124.7837  125.2935   56.9276 H   0  0  0  0  0  0  0  0  0  0  0  0
  125.7342  125.0012   55.4317 H   0  0  0  0  0  0  0  0  0  0  0  0
  123.9569  124.7409   55.4317 H   0  0  0  0  0  0  0  0  0  0  0  0
  1  2  1  0
  2  3  1  0
  3  4  2  0
  4  5  1  0
  5  6  1  0
  6  7  1  0
  7  8  1  0
  8  9  2  0
  8 10  1  0
 10 11  1  0
 11 12  1  0
 12 13  2  0
 13 14  1  0
 14 15  1  0
 14 16  2  0
 16 17  1  0
 17 18  1  0
 17 19  2  0
 19 20  1  0
 20 21  3  0
  5 22  2  0
 22 23  1  0
 23 24  1  0
 24 25  1  0
 23 26  2  0
 26 27  1  0
 27 28  1  0
 26  3  1  0
 19 12  1  0
  1 29  1  0
  1 30  1  0
  1 31  1  0
  4 32  1  0
  6 33  1  0
  6 34  1  0
  7 35  1  0
 10 36  1  0
 10 37  1  0
 15 38  1  0
 15 39  1  0
 15 40  1  0
 16 41  1  0
 18 42  1  0
 18 43  1  0
 18 44  1  0
 22 45  1  0
 25 46  1  0
 25 47  1  0
 25 48  1  0
 28 49  1  0
 28 50  1  0
 28 51  1  0
M  END
>  <Binding energies>  (1) 
[-6.98]

>  <Ligand effiencies>  (1) 
[-0.2406896551724138]

>  <Interactions>  (1) 
["V-B:PRO:540:CD:9859, V-B:LEU:363:CA:8156, V-B:ALA:541:CB:9864, V-B:TYR:539:CE2:9848, V-B:TYR:539:CD2:9846, H-B:ALA:541:N:9863, V-B:PRO:540:CB:9857, V-B:PRO:540:N:9856, V-B:TYR:539:C:9839, V-B:LEU:363:CD1:8160, V-B:ASP:366:CG:8184, V-B:PRO:540:CA:9855, V-B:TYR:539:CZ:9849, V-B:ASN:362:CB:8147, V-B:ASN:362:C:8143, V-A:LEU:475:CD1:4258, V-B:TYR:531:CE2:9765, H-B:TYR:539:N:9842, V-B:GLU:543:CB:9878, H-A:GLY:454:N:4050, V-B:GLU:543:CG:9879, V-A:TYR:484:CE1:4345, V-B:GLU:543:CA:9876, V-A:ILE:369:CD1:3239, V-A:GLY:453:C:4042, V-A:GLY:454:CA:4049, V-A:ARG:545:CZ:4926, V-A:GLY:453:CA:4044, V-A:ARG:545:CD:4923, V-B:ILE:538:CA:9832, V-B:TYR:539:CE1:9847, V-B:TYR:539:CD1:9845"]

$$$$
1i_Grossjean_2025
     RDKit          3D

 32 33  0  0  0  0  0  0  0  0999 V2000
  127.9070  130.6690   65.5970 C   0  0  0  0  0  0  0  0  0  0  0  0
  128.2930  129.2600   66.0050 C   0  0  0  0  0  0  0  0  0  0  0  0
  128.4500  128.2450   65.0630 C   0  0  0  0  0  0  0  0  0  0  0  0
  128.8180  126.9660   65.4970 C   0  0  0  0  0  0  0  0  0  0  0  0
  129.0000  125.8750   64.4440 C   0  0  0  0  0  0  0  0  0  0  0  0
  129.0140  126.7340   66.8780 C   0  0  0  0  0  0  0  0  0  0  0  0
  129.4480  125.4160   67.3480 C   0  0  0  0  0  0  0  0  0  0  0  0
  129.7920  124.3750   67.7170 N   0  0  0  0  0  0  0  0  0  0  0  0
  128.8080  127.8180   67.7640 C   0  0  0  0  0  0  0  0  0  0  0  0
  129.0090  127.7040   69.5290 S   0  0  0  0  0  0  0  0  0  0  0  0
  127.7790  126.5170   70.1470 C   0  0  0  0  0  0  0  0  0  0  0  0
  128.3600  125.5930   71.2200 C   0  0  0  0  0  0  0  0  0  0  0  0
  128.1800  125.8610   72.4090 O   0  0  0  0  0  0  0  0  0  0  0  0
  129.0420  124.5220   70.7600 N   0  0  0  0  0  0  0  0  0  0  0  0
  129.6680  123.5370   71.5100 C   0  0  0  0  0  0  0  0  0  0  0  0
  130.9700  123.6620   71.9940 C   0  0  0  0  0  0  0  0  0  0  0  0
  131.2120  122.4920   72.6760 C   0  0  0  0  0  0  0  0  0  0  0  0
  130.1140  121.7020   72.6050 O   0  0  0  0  0  0  0  0  0  0  0  0
  129.1420  122.3750   71.8620 N   0  0  0  0  0  0  0  0  0  0  0  0
  128.4720  129.0590   67.3320 N   0  0  0  0  0  0  0  0  0  0  0  0
  127.7400  131.2786   66.4972 H   0  0  0  0  0  0  0  0  0  0  0  0
  128.7168  131.1124   64.9989 H   0  0  0  0  0  0  0  0  0  0  0  0
  126.9843  130.6378   64.9989 H   0  0  0  0  0  0  0  0  0  0  0  0
  128.2871  128.4460   63.9939 H   0  0  0  0  0  0  0  0  0  0  0  0
  129.1614  124.9077   64.9423 H   0  0  0  0  0  0  0  0  0  0  0  0
  128.0990  125.8179   63.8156 H   0  0  0  0  0  0  0  0  0  0  0  0
  129.8708  126.1135   63.8156 H   0  0  0  0  0  0  0  0  0  0  0  0
  126.9339  127.0738   70.5780 H   0  0  0  0  0  0  0  0  0  0  0  0
  127.4554  125.8928   69.3011 H   0  0  0  0  0  0  0  0  0  0  0  0
  129.1430  124.4330   69.7580 H   0  0  0  0  0  0  0  0  0  0  0  0
  131.6551  124.5121   71.8595 H   0  0  0  0  0  0  0  0  0  0  0  0
  132.1477  122.2385   73.1959 H   0  0  0  0  0  0  0  0  0  0  0  0
  1  2  1  0
  2  3  2  0
  3  4  1  0
  4  5  1  0
  4  6  2  0
  6  7  1  0
  7  8  3  0
  6  9  1  0
  9 10  1  0
 10 11  1  0
 11 12  1  0
 12 13  2  0
 12 14  1  0
 14 15  1  0
 15 16  1  0
 16 17  2  0
 17 18  1  0
 18 19  1  0
  9 20  2  0
 20  2  1  0
 19 15  2  0
  1 21  1  0
  1 22  1  0
  1 23  1  0
  3 24  1  0
  5 25  1  0
  5 26  1  0
  5 27  1  0
 11 28  1  0
 11 29  1  0
 14 30  1  0
 16 31  1  0
 17 32  1  0
M  END
>  <Binding energies>  (1) 
[-7.06]

>  <Ligand effiencies>  (1) 
[-0.33619047619047615]

>  <Interactions>  (1) 
["V-B:GLU:543:CD:9880, V-A:GLU:543:CD:4908, V-B:GLU:543:C:9874, V-B:GLU:543:CB:9878, V-B:GLY:544:C:9884, V-B:HIS:456:CE1:9040, H-B:LYS:547:NZ:9923, V-A:HIS:456:CE1:4069, V-A:HIS:456:CG:4066, V-A:HIS:456:CD2:4068, V-A:ASP:473:CB:4239, V-A:HIS:456:CB:4065, V-A:GLU:543:CB:4906, H-B:HIS:456:NE2:9041, H-A:HIS:456:NE2:4070, V-B:GLU:543:CG:9879, V-A:TYR:484:CE1:4345, H-A:TYR:484:OH:4348, V-B:TYR:484:CZ:9318, V-A:GLU:543:CG:4907, V-B:TYR:484:CE1:9316, H-B:GLU:543:O:9875, V-A:TYR:484:CD2:4344, V-A:TYR:484:CG:4342, V-A:TYR:484:CE2:4346, V-A:TYR:484:CB:4341, V-A:TYR:484:CD1:4343"]

$$$$
1j_Grossjean_2025
     RDKit          3D

 32 33  0  0  0  0  0  0  0  0999 V2000
  128.7190  126.0260   70.3260 C   0  0  0  0  0  0  0  0  0  0  0  0
  128.7690  126.2620   68.8270 C   0  0  0  0  0  0  0  0  0  0  0  0
  129.4250  125.3800   67.9720 C   0  0  0  0  0  0  0  0  0  0  0  0
  129.4270  125.6420   66.5980 C   0  0  0  0  0  0  0  0  0  0  0  0
  130.1390  124.6510   65.6780 C   0  0  0  0  0  0  0  0  0  0  0  0
  128.7720  126.7960   66.1140 C   0  0  0  0  0  0  0  0  0  0  0  0
  128.7160  127.0620   64.6740 C   0  0  0  0  0  0  0  0  0  0  0  0
  128.6730  127.2680   63.5360 N   0  0  0  0  0  0  0  0  0  0  0  0
  128.1540  127.6500   67.0580 C   0  0  0  0  0  0  0  0  0  0  0  0
  127.2880  129.1440   66.6260 S   0  0  0  0  0  0  0  0  0  0  0  0
  125.5090  128.8270   66.8180 C   0  0  0  0  0  0  0  0  0  0  0  0
  124.6740  129.6000   65.7960 C   0  0  0  0  0  0  0  0  0  0  0  0
  123.7550  130.3210   66.1870 O   0  0  0  0  0  0  0  0  0  0  0  0
  125.0280  129.4260   64.5040 N   0  0  0  0  0  0  0  0  0  0  0  0
  124.4270  130.0060   63.3950 C   0  0  0  0  0  0  0  0  0  0  0  0
  123.1700  130.3670   63.2550 N   0  0  0  0  0  0  0  0  0  0  0  0
  122.9460  130.8890   62.0650 C   0  0  0  0  0  0  0  0  0  0  0  0
  124.0410  130.9600   61.2080 C   0  0  0  0  0  0  0  0  0  0  0  0
  125.4340  130.3060   62.0160 S   0  0  0  0  0  0  0  0  0  0  0  0
  128.1390  127.3760   68.3860 N   0  0  0  0  0  0  0  0  0  0  0  0
  128.9191  126.9707   70.8528 H   0  0  0  0  0  0  0  0  0  0  0  0
  127.7222  125.6543   70.6056 H   0  0  0  0  0  0  0  0  0  0  0  0
  129.4795  125.2820   70.6056 H   0  0  0  0  0  0  0  0  0  0  0  0
  129.9341  124.4904   68.3713 H   0  0  0  0  0  0  0  0  0  0  0  0
  130.6741  123.9062   66.2854 H   0  0  0  0  0  0  0  0  0  0  0  0
  129.3983  124.1427   65.0432 H   0  0  0  0  0  0  0  0  0  0  0  0
  130.8571  125.1908   65.0432 H   0  0  0  0  0  0  0  0  0  0  0  0
  125.3241  127.7507   66.6860 H   0  0  0  0  0  0  0  0  0  0  0  0
  125.2113  129.1625   67.8224 H   0  0  0  0  0  0  0  0  0  0  0  0
  125.7850  128.7870   64.3080 H   0  0  0  0  0  0  0  0  0  0  0  0
  121.9501  131.2481   61.7662 H   0  0  0  0  0  0  0  0  0  0  0  0
  124.0268  131.3645   60.1852 H   0  0  0  0  0  0  0  0  0  0  0  0
  1  2  1  0
  2  3  2  0
  3  4  1  0
  4  5  1  0
  4  6  2  0
  6  7  1  0
  7  8  3  0
  6  9  1  0
  9 10  1  0
 10 11  1  0
 11 12  1  0
 12 13  2  0
 12 14  1  0
 14 15  1  0
 15 16  2  0
 16 17  1  0
 17 18  2  0
 18 19  1  0
  9 20  2  0
 20  2  1  0
 19 15  1  0
  1 21  1  0
  1 22  1  0
  1 23  1  0
  3 24  1  0
  5 25  1  0
  5 26  1  0
  5 27  1  0
 11 28  1  0
 11 29  1  0
 14 30  1  0
 17 31  1  0
 18 32  1  0
M  END
>  <Binding energies>  (1) 
[-6.51]

>  <Ligand effiencies>  (1) 
[-0.31]

>  <Interactions>  (1) 
["V-B:GLU:543:CD:9880, V-B:ASP:366:CG:8184, V-A:GLU:543:CD:4908, V-B:GLU:543:C:9874, V-B:GLU:543:CB:9878, V-B:HIS:456:CE1:9040, V-B:ARG:545:CG:9894, V-A:HIS:456:CE1:4069, H-B:GLU:543:OE1:9881, H-B:TYR:484:OH:9319, H-B:GLY:454:N:9021, V-B:ILE:369:CD1:8210, V-B:ARG:545:CD:9895, V-B:ARG:545:CZ:9898, V-A:TYR:484:CE1:4345, H-B:ARG:545:NH2:9900, H-B:ILE:455:N:9026, H-B:ARG:545:NH1:9899"]

$$$$
1k_Grossjean_2025
     RDKit          3D

 50 50  0  0  0  0  0  0  0  0999 V2000
  127.4690  122.8950   55.7240 C   0  0  0  0  0  0  0  0  0  0  0  0
  126.9690  122.1290   56.8080 O   0  0  0  0  0  0  0  0  0  0  0  0
  126.9310  122.8440   58.0360 C   0  0  0  0  0  0  0  0  0  0  0  0
  127.9250  122.2190   59.0240 C   0  0  0  0  0  0  0  0  0  0  0  0
  127.5050  122.4930   60.3540 O   0  0  0  0  0  0  0  0  0  0  0  0
  127.5860  123.8670   60.7080 C   0  0  0  0  0  0  0  0  0  0  0  0
  128.8150  124.0930   61.5980 C   0  0  0  0  0  0  0  0  0  0  0  0
  129.9660  124.2660   60.7820 O   0  0  0  0  0  0  0  0  0  0  0  0
  129.6870  124.8470   59.5150 C   0  0  0  0  0  0  0  0  0  0  0  0
  130.9890  124.9630   58.7010 C   0  0  0  0  0  0  0  0  0  0  0  0
  132.1280  124.2630   59.2970 N   0  0  0  0  0  0  0  0  0  0  0  0
  133.3030  124.0330   58.6840 C   0  0  0  0  0  0  0  0  0  0  0  0
  133.5460  124.4030   57.5350 O   0  0  0  0  0  0  0  0  0  0  0  0
  134.3420  123.2630   59.5140 C   0  0  0  0  0  0  0  0  0  0  0  0
  134.2880  123.5540   61.3170 S   0  0  0  0  0  0  0  0  0  0  0  0
  132.8030  122.8170   61.9860 C   0  0  0  0  0  0  0  0  0  0  0  0
  132.1380  121.9680   61.1590 N   0  0  0  0  0  0  0  0  0  0  0  0
  131.0010  121.3840   61.6000 C   0  0  0  0  0  0  0  0  0  0  0  0
  130.3120  120.4570   60.6170 C   0  0  0  0  0  0  0  0  0  0  0  0
  130.4850  121.6100   62.8750 C   0  0  0  0  0  0  0  0  0  0  0  0
  131.1640  122.4760   63.7380 C   0  0  0  0  0  0  0  0  0  0  0  0
  130.5820  122.7110   65.1300 C   0  0  0  0  0  0  0  0  0  0  0  0
  132.3520  123.1000   63.2950 C   0  0  0  0  0  0  0  0  0  0  0  0
  133.0820  124.0150   64.1770 C   0  0  0  0  0  0  0  0  0  0  0  0
  133.6580  124.7380   64.8740 N   0  0  0  0  0  0  0  0  0  0  0  0
  128.0315  123.7567   56.1126 H   0  0  0  0  0  0  0  0  0  0  0  0
  128.1337  122.2702   55.1094 H   0  0  0  0  0  0  0  0  0  0  0  0
  126.6295  123.2521   55.1094 H   0  0  0  0  0  0  0  0  0  0  0  0
  127.2037  123.8945   57.8570 H   0  0  0  0  0  0  0  0  0  0  0  0
  125.9160  122.7948   58.4572 H   0  0  0  0  0  0  0  0  0  0  0  0
  127.9623  121.1308   58.8679 H   0  0  0  0  0  0  0  0  0  0  0  0
  128.9248  122.6470   58.8591 H   0  0  0  0  0  0  0  0  0  0  0  0
  127.6762  124.4760   59.7964 H   0  0  0  0  0  0  0  0  0  0  0  0
  126.6777  124.1593   61.2552 H   0  0  0  0  0  0  0  0  0  0  0  0
  128.6624  124.9927   62.2122 H   0  0  0  0  0  0  0  0  0  0  0  0
  128.9581  123.2213   62.2535 H   0  0  0  0  0  0  0  0  0  0  0  0
  128.9709  124.2132   58.9715 H   0  0  0  0  0  0  0  0  0  0  0  0
  129.2566  125.8489   59.6597 H   0  0  0  0  0  0  0  0  0  0  0  0
  130.8099  124.5429   57.7003 H   0  0  0  0  0  0  0  0  0  0  0  0
  131.2517  126.0307   58.6713 H   0  0  0  0  0  0  0  0  0  0  0  0
  132.0010  123.9270   60.2400 H   0  0  0  0  0  0  0  0  0  0  0  0
  134.1845  122.1883   59.3401 H   0  0  0  0  0  0  0  0  0  0  0  0
  135.3240  123.6293   59.1802 H   0  0  0  0  0  0  0  0  0  0  0  0
  129.7445  119.6934   61.1691 H   0  0  0  0  0  0  0  0  0  0  0  0
  129.6251  121.0384   59.9845 H   0  0  0  0  0  0  0  0  0  0  0  0
  131.0668  119.9669   59.9845 H   0  0  0  0  0  0  0  0  0  0  0  0
  129.5574  121.1145   63.1976 H   0  0  0  0  0  0  0  0  0  0  0  0
  131.3189  122.4135   65.8905 H   0  0  0  0  0  0  0  0  0  0  0  0
  130.3402  123.7772   65.2511 H   0  0  0  0  0  0  0  0  0  0  0  0
  129.6676  122.1116   65.2511 H   0  0  0  0  0  0  0  0  0  0  0  0
  1  2  1  0
  2  3  1  0
  3  4  1  0
  4  5  1  0
  5  6  1  0
  6  7  1  0
  7  8  1  0
  8  9  1  0
  9 10  1  0
 10 11  1  0
 11 12  1  0
 12 13  2  0
 12 14  1  0
 14 15  1  0
 15 16  1  0
 16 17  2  0
 17 18  1  0
 18 19  1  0
 18 20  2  0
 20 21  1  0
 21 22  1  0
 21 23  2  0
 23 24  1  0
 24 25  3  0
 23 16  1  0
  1 26  1  0
  1 27  1  0
  1 28  1  0
  3 29  1  0
  3 30  1  0
  4 31  1  0
  4 32  1  0
  6 33  1  0
  6 34  1  0
  7 35  1  0
  7 36  1  0
  9 37  1  0
  9 38  1  0
 10 39  1  0
 10 40  1  0
 11 41  1  0
 14 42  1  0
 14 43  1  0
 19 44  1  0
 19 45  1  0
 19 46  1  0
 20 47  1  0
 22 48  1  0
 22 49  1  0
 22 50  1  0
M  END
>  <Binding energies>  (1) 
[-5.77]

>  <Ligand effiencies>  (1) 
[-0.22192307692307692]

>  <Interactions>  (1) 
["V-B:GLU:543:CD:9880, V-B:ALA:541:CB:9864, V-B:TYR:539:CE2:9848, V-B:TYR:539:CD2:9846, H-B:ALA:541:N:9863, V-B:PRO:540:CB:9857, V-B:PRO:540:N:9856, V-B:TYR:539:C:9839, V-B:PRO:540:CA:9855, V-B:TYR:539:CZ:9849, V-A:LEU:475:CD1:4258, V-A:ASP:366:CB:3212, V-A:ASP:366:CG:3213, H-B:TYR:539:OH:9850, H-B:TYR:539:N:9842, H-A:GLY:454:N:4050, V-A:TYR:484:CE1:4345, V-A:ILE:369:CD1:3239, V-A:ILE:369:CG2:3237, V-A:ILE:369:CB:3236, V-A:TYR:484:CZ:4347, H-A:TYR:484:OH:4348, V-A:GLY:454:CA:4049, V-A:ASP:366:CA:3210, H-A:ARG:545:NE:4924, V-B:ILE:538:CA:9832, V-B:TYR:539:CE1:9847, V-A:ILE:369:CG1:3238, V-B:TYR:539:CD1:9845"]

$$$$
1l_Grossjean_2025
     RDKit          3D

 30 30  0  0  0  0  0  0  0  0999 V2000
  132.0940  130.7760   61.3610 C   0  0  0  0  0  0  0  0  0  0  0  0
  131.2530  131.8800   61.6660 O   0  0  0  0  0  0  0  0  0  0  0  0
  130.0170  131.4240   62.1220 N   0  0  0  0  0  0  0  0  0  0  0  0
  128.9420  132.2270   62.0070 C   0  0  0  0  0  0  0  0  0  0  0  0
  128.9250  133.2530   61.3220 O   0  0  0  0  0  0  0  0  0  0  0  0
  127.7020  131.7700   62.7880 C   0  0  0  0  0  0  0  0  0  0  0  0
  127.3770  129.9750   62.7410 S   0  0  0  0  0  0  0  0  0  0  0  0
  126.9840  129.4370   64.3970 C   0  0  0  0  0  0  0  0  0  0  0  0
  127.9970  128.8460   65.0820 N   0  0  0  0  0  0  0  0  0  0  0  0
  127.7680  128.4130   66.3440 C   0  0  0  0  0  0  0  0  0  0  0  0
  128.9470  127.7640   67.0430 C   0  0  0  0  0  0  0  0  0  0  0  0
  126.5320  128.5500   66.9720 C   0  0  0  0  0  0  0  0  0  0  0  0
  125.4820  129.1590   66.2780 C   0  0  0  0  0  0  0  0  0  0  0  0
  124.1360  129.3000   66.9880 C   0  0  0  0  0  0  0  0  0  0  0  0
  125.6990  129.6170   64.9600 C   0  0  0  0  0  0  0  0  0  0  0  0
  124.6160  130.2590   64.2090 C   0  0  0  0  0  0  0  0  0  0  0  0
  123.7600  130.7650   63.6180 N   0  0  0  0  0  0  0  0  0  0  0  0
  132.4459  130.3140   62.2952 H   0  0  0  0  0  0  0  0  0  0  0  0
  131.5291  130.0354   60.7758 H   0  0  0  0  0  0  0  0  0  0  0  0
  132.9580  131.1239   60.7758 H   0  0  0  0  0  0  0  0  0  0  0  0
  130.1110  130.7080   62.8280 H   0  0  0  0  0  0  0  0  0  0  0  0
  127.8334  132.0653   63.8395 H   0  0  0  0  0  0  0  0  0  0  0  0
  126.8396  132.2507   62.3030 H   0  0  0  0  0  0  0  0  0  0  0  0
  128.8133  127.8376   68.1324 H   0  0  0  0  0  0  0  0  0  0  0  0
  129.0083  126.7050   66.7518 H   0  0  0  0  0  0  0  0  0  0  0  0
  129.8746  128.2786   66.7518 H   0  0  0  0  0  0  0  0  0  0  0  0
  126.3843  128.1844   67.9989 H   0  0  0  0  0  0  0  0  0  0  0  0
  124.2923  129.2836   68.0767 H   0  0  0  0  0  0  0  0  0  0  0  0
  123.6671  130.2522   66.6992 H   0  0  0  0  0  0  0  0  0  0  0  0
  123.4799  128.4657   66.6992 H   0  0  0  0  0  0  0  0  0  0  0  0
  1  2  1  0
  2  3  1  0
  3  4  1  0
  4  5  2  0
  4  6  1  0
  6  7  1  0
  7  8  1  0
  8  9  2  0
  9 10  1  0
 10 11  1  0
 10 12  2  0
 12 13  1  0
 13 14  1  0
 13 15  2  0
 15 16  1  0
 16 17  3  0
 15  8  1  0
  1 18  1  0
  1 19  1  0
  1 20  1  0
  3 21  1  0
  6 22  1  0
  6 23  1  0
 11 24  1  0
 11 25  1  0
 11 26  1  0
 12 27  1  0
 14 28  1  0
 14 29  1  0
 14 30  1  0
M  END
>  <Binding energies>  (1) 
[-6.02]

>  <Ligand effiencies>  (1) 
[-0.33444444444444443]

>  <Interactions>  (1) 
["V-A:GLU:543:CD:4908, V-A:ALA:541:CB:4892, H-A:ALA:541:N:4891, V-B:HIS:456:CE1:9040, V-B:ARG:545:CG:9894, H-B:GLY:454:N:9021, V-B:ARG:545:CD:9895, V-B:ARG:545:CZ:9898, H-B:ARG:545:NH2:9900, H-A:GLU:543:OE1:4909, V-B:ILE:455:C:9023"]

$$$$
1m_Grossjean_2025
     RDKit          3D

 35 35  0  0  0  0  0  0  0  0999 V2000
  132.3350  132.6200   55.3960 C   0  0  0  0  0  0  0  0  0  0  0  0
  131.0170  132.9500   54.9810 O   0  0  0  0  0  0  0  0  0  0  0  0
  129.9610  132.6850   55.7780 C   0  0  0  0  0  0  0  0  0  0  0  0
  129.7280  133.2260   56.8630 O   0  0  0  0  0  0  0  0  0  0  0  0
  129.0430  131.6080   55.1630 C   0  0  0  0  0  0  0  0  0  0  0  0
  128.2940  130.8520   56.1770 N   0  0  0  0  0  0  0  0  0  0  0  0
  127.0760  130.3020   56.0060 C   0  0  0  0  0  0  0  0  0  0  0  0
  126.4400  130.3930   54.9540 O   0  0  0  0  0  0  0  0  0  0  0  0
  126.5140  129.5490   57.2190 C   0  0  0  0  0  0  0  0  0  0  0  0
  125.6700  130.6040   58.4470 S   0  0  0  0  0  0  0  0  0  0  0  0
  126.9050  131.5800   59.2770 C   0  0  0  0  0  0  0  0  0  0  0  0
  128.1770  131.1880   59.0090 N   0  0  0  0  0  0  0  0  0  0  0  0
  129.2010  131.8620   59.5810 C   0  0  0  0  0  0  0  0  0  0  0  0
  130.5930  131.3800   59.2180 C   0  0  0  0  0  0  0  0  0  0  0  0
  129.0040  132.9370   60.4450 C   0  0  0  0  0  0  0  0  0  0  0  0
  127.6970  133.3330   60.7500 C   0  0  0  0  0  0  0  0  0  0  0  0
  127.5050  134.5030   61.7130 C   0  0  0  0  0  0  0  0  0  0  0  0
  126.6110  132.6430   60.1650 C   0  0  0  0  0  0  0  0  0  0  0  0
  125.2350  133.0090   60.5090 C   0  0  0  0  0  0  0  0  0  0  0  0
  124.1490  133.2980   60.7810 N   0  0  0  0  0  0  0  0  0  0  0  0
  132.3813  132.6084   56.4950 H   0  0  0  0  0  0  0  0  0  0  0  0
  132.6040  131.6268   55.0072 H   0  0  0  0  0  0  0  0  0  0  0  0
  133.0403  133.3693   55.0072 H   0  0  0  0  0  0  0  0  0  0  0  0
  128.3253  132.1002   54.4902 H   0  0  0  0  0  0  0  0  0  0  0  0
  129.6839  130.8946   54.6241 H   0  0  0  0  0  0  0  0  0  0  0  0
  128.7400  130.7560   57.0780 H   0  0  0  0  0  0  0  0  0  0  0  0
  125.7927  128.8025   56.8550 H   0  0  0  0  0  0  0  0  0  0  0  0
  127.3767  129.1014   57.7342 H   0  0  0  0  0  0  0  0  0  0  0  0
  131.1639  131.1823   60.1372 H   0  0  0  0  0  0  0  0  0  0  0  0
  130.5183  130.4554   58.6268 H   0  0  0  0  0  0  0  0  0  0  0  0
  131.1061  132.1528   58.6268 H   0  0  0  0  0  0  0  0  0  0  0  0
  129.8636  133.4669   60.8812 H   0  0  0  0  0  0  0  0  0  0  0  0
  127.5648  134.1386   62.7492 H   0  0  0  0  0  0  0  0  0  0  0  0
  128.2923  135.2519   61.5417 H   0  0  0  0  0  0  0  0  0  0  0  0
  126.5197  134.9610   61.5417 H   0  0  0  0  0  0  0  0  0  0  0  0
  1  2  1  0
  2  3  1  0
  3  4  2  0
  3  5  1  0
  5  6  1  0
  6  7  1  0
  7  8  2  0
  7  9  1  0
  9 10  1  0
 10 11  1  0
 11 12  2  0
 12 13  1  0
 13 14  1  0
 13 15  2  0
 15 16  1  0
 16 17  1  0
 16 18  2  0
 18 19  1  0
 19 20  3  0
 18 11  1  0
  1 21  1  0
  1 22  1  0
  1 23  1  0
  5 24  1  0
  5 25  1  0
  6 26  1  0
  9 27  1  0
  9 28  1  0
 14 29  1  0
 14 30  1  0
 14 31  1  0
 15 32  1  0
 17 33  1  0
 17 34  1  0
 17 35  1  0
M  END
>  <Binding energies>  (1) 
[-5.47]

>  <Ligand effiencies>  (1) 
[-0.2604761904761905]

>  <Interactions>  (1) 
["V-A:PRO:540:CD:4887, V-A:TYR:539:C:4867, V-A:ILE:538:CD1:4865, V-A:ILE:538:CA:4860, V-A:LEU:363:CD1:3189, V-A:TYR:539:CE2:4876, V-A:PRO:540:C:4881, V-A:PRO:540:CB:4885, V-A:PRO:540:CA:4883, V-A:TYR:539:CD2:4874, V-A:ILE:538:CG2:4863, V-B:LEU:475:CD1:9229, V-A:ALA:541:CB:4892, V-A:TYR:539:CE1:4875, V-A:TYR:539:CD1:4873, V-A:TYR:539:CZ:4877, H-A:TYR:539:N:4870, V-A:TYR:539:CG:4872, H-A:TYR:539:OH:4878, H-B:TYR:531:OH:9767"]

$$$$
1n_Grossjean_2025
     RDKit          3D

 48 49  0  0  0  0  0  0  0  0999 V2000
  126.1870  127.0140   73.7630 C   0  0  0  0  0  0  0  0  0  0  0  0
  127.3250  126.9830   74.7890 C   0  0  0  0  0  0  0  0  0  0  0  0
  128.2610  125.9760   74.4260 O   0  0  0  0  0  0  0  0  0  0  0  0
  129.4090  126.2890   73.7720 C   0  0  0  0  0  0  0  0  0  0  0  0
  130.4250  126.7010   74.3410 O   0  0  0  0  0  0  0  0  0  0  0  0
  129.3250  126.0710   72.2890 C   0  0  0  0  0  0  0  0  0  0  0  0
  128.7740  127.0330   71.4270 C   0  0  0  0  0  0  0  0  0  0  0  0
  128.7090  126.7990   70.0570 C   0  0  0  0  0  0  0  0  0  0  0  0
  129.1830  125.6010   69.5200 C   0  0  0  0  0  0  0  0  0  0  0  0
  129.0630  125.4670   68.1230 N   0  0  0  0  0  0  0  0  0  0  0  0
  129.3530  126.3480   67.1430 C   0  0  0  0  0  0  0  0  0  0  0  0
  129.8050  127.4810   67.3120 O   0  0  0  0  0  0  0  0  0  0  0  0
  129.0890  125.8600   65.7120 C   0  0  0  0  0  0  0  0  0  0  0  0
  130.2620  125.0490   65.1220 C   0  0  0  0  0  0  0  0  0  0  0  0
  130.0180  123.2480   65.1410 S   0  0  0  0  0  0  0  0  0  0  0  0
  130.8820  122.5720   63.7390 C   0  0  0  0  0  0  0  0  0  0  0  0
  130.1250  121.7330   62.9870 N   0  0  0  0  0  0  0  0  0  0  0  0
  130.6750  121.1720   61.8850 C   0  0  0  0  0  0  0  0  0  0  0  0
  129.7660  120.2550   61.0890 C   0  0  0  0  0  0  0  0  0  0  0  0
  131.9890  121.4160   61.4930 C   0  0  0  0  0  0  0  0  0  0  0  0
  132.7840  122.2630   62.2730 C   0  0  0  0  0  0  0  0  0  0  0  0
  134.2260  122.5050   61.8320 C   0  0  0  0  0  0  0  0  0  0  0  0
  132.2330  122.8560   63.4320 C   0  0  0  0  0  0  0  0  0  0  0  0
  133.0620  123.7050   64.2900 C   0  0  0  0  0  0  0  0  0  0  0  0
  133.7190  124.3740   64.9680 N   0  0  0  0  0  0  0  0  0  0  0  0
  129.7440  124.6400   70.3730 C   0  0  0  0  0  0  0  0  0  0  0  0
  129.8120  124.8770   71.7430 C   0  0  0  0  0  0  0  0  0  0  0  0
  125.2207  127.0403   74.2879 H   0  0  0  0  0  0  0  0  0  0  0  0
  126.2862  127.9098   73.1323 H   0  0  0  0  0  0  0  0  0  0  0  0
  126.2373  126.1142   73.1323 H   0  0  0  0  0  0  0  0  0  0  0  0
  127.8277  127.9612   74.8091 H   0  0  0  0  0  0  0  0  0  0  0  0
  126.9153  126.7617   75.7856 H   0  0  0  0  0  0  0  0  0  0  0  0
  128.3909  127.9787   71.8380 H   0  0  0  0  0  0  0  0  0  0  0  0
  128.2809  127.5637   69.3922 H   0  0  0  0  0  0  0  0  0  0  0  0
  128.7460  124.5560   67.8220 H   0  0  0  0  0  0  0  0  0  0  0  0
  128.1920  125.2233   65.7193 H   0  0  0  0  0  0  0  0  0  0  0  0
  128.9568  126.7513   65.0810 H   0  0  0  0  0  0  0  0  0  0  0  0
  130.4076  125.3650   64.0785 H   0  0  0  0  0  0  0  0  0  0  0  0
  131.1352  125.2531   65.7591 H   0  0  0  0  0  0  0  0  0  0  0  0
  129.1631  119.6468   61.7794 H   0  0  0  0  0  0  0  0  0  0  0  0
  129.1000  120.8589   60.4552 H   0  0  0  0  0  0  0  0  0  0  0  0
  130.3757  119.5943   60.4552 H   0  0  0  0  0  0  0  0  0  0  0  0
  132.3958  120.9497   60.5836 H   0  0  0  0  0  0  0  0  0  0  0  0
  134.8675  122.6127   62.7190 H   0  0  0  0  0  0  0  0  0  0  0  0
  134.5732  121.6526   61.2297 H   0  0  0  0  0  0  0  0  0  0  0  0
  134.2759  123.4241   61.2297 H   0  0  0  0  0  0  0  0  0  0  0  0
  130.1310  123.6973   69.9589 H   0  0  0  0  0  0  0  0  0  0  0  0
  130.2536  124.1172   72.4046 H   0  0  0  0  0  0  0  0  0  0  0  0
  1  2  1  0
  2  3  1  0
  3  4  1  0
  4  5  2  0
  4  6  1  0
  6  7  2  0
  7  8  1  0
  8  9  2  0
  9 10  1  0
 10 11  1  0
 11 12  2  0
 11 13  1  0
 13 14  1  0
 14 15  1  0
 15 16  1  0
 16 17  2  0
 17 18  1  0
 18 19  1  0
 18 20  2  0
 20 21  1  0
 21 22  1  0
 21 23  2  0
 23 24  1  0
 24 25  3  0
  9 26  1  0
 26 27  2  0
 27  6  1  0
 23 16  1  0
  1 28  1  0
  1 29  1  0
  1 30  1  0
  2 31  1  0
  2 32  1  0
  7 33  1  0
  8 34  1  0
 10 35  1  0
 13 36  1  0
 13 37  1  0
 14 38  1  0
 14 39  1  0
 19 40  1  0
 19 41  1  0
 19 42  1  0
 20 43  1  0
 22 44  1  0
 22 45  1  0
 22 46  1  0
 26 47  1  0
 27 48  1  0
M  END
>  <Binding energies>  (1) 
[-8.3]

>  <Ligand effiencies>  (1) 
[-0.29642857142857143]

>  <Interactions>  (1) 
["V-B:GLU:543:CD:9880, V-B:ALA:541:CB:9864, V-B:TYR:539:CD2:9846, V-A:PRO:482:CG:4327, V-A:LEU:475:CD1:4258, V-B:GLU:543:C:9874, V-B:GLU:543:CB:9878, H-A:LYS:547:NZ:4951, V-B:HIS:456:CE1:9040, H-B:LYS:547:NZ:9923, V-A:HIS:456:CE1:4069, V-A:HIS:456:CG:4066, V-A:HIS:456:CD2:4068, H-A:HIS:456:NE2:4070, H-A:GLY:454:N:4050, V-B:GLU:543:CG:9879, V-A:TYR:484:CE1:4345, V-A:ILE:369:CD1:3239, V-A:TYR:484:CZ:4347, H-A:TYR:484:OH:4348, V-A:GLY:454:CA:4049, H-B:GLU:543:O:9875, V-B:LYS:547:CD:9921"]

$$$$
1o_Grossjean_2025
     RDKit          3D

 45 46  0  0  0  0  0  0  0  0999 V2000
  127.0520  126.6860   74.3820 C   0  0  0  0  0  0  0  0  0  0  0  0
  128.2490  125.9300   74.4960 O   0  0  0  0  0  0  0  0  0  0  0  0
  129.3750  126.2980   73.8320 C   0  0  0  0  0  0  0  0  0  0  0  0
  130.3740  126.7600   74.3910 O   0  0  0  0  0  0  0  0  0  0  0  0
  129.2860  126.0840   72.3480 C   0  0  0  0  0  0  0  0  0  0  0  0
  128.7520  127.0560   71.4890 C   0  0  0  0  0  0  0  0  0  0  0  0
  128.6870  126.8270   70.1170 C   0  0  0  0  0  0  0  0  0  0  0  0
  129.1460  125.6250   69.5770 C   0  0  0  0  0  0  0  0  0  0  0  0
  129.0410  125.5030   68.1770 N   0  0  0  0  0  0  0  0  0  0  0  0
  129.4510  126.3430   67.2020 C   0  0  0  0  0  0  0  0  0  0  0  0
  130.0610  127.3970   67.3830 O   0  0  0  0  0  0  0  0  0  0  0  0
  129.1380  125.8930   65.7670 C   0  0  0  0  0  0  0  0  0  0  0  0
  130.3020  125.1350   65.0970 C   0  0  0  0  0  0  0  0  0  0  0  0
  130.1220  123.3270   65.1340 S   0  0  0  0  0  0  0  0  0  0  0  0
  130.9590  122.6480   63.7150 C   0  0  0  0  0  0  0  0  0  0  0  0
  130.2080  121.7550   63.0210 N   0  0  0  0  0  0  0  0  0  0  0  0
  130.7370  121.1790   61.9160 C   0  0  0  0  0  0  0  0  0  0  0  0
  129.8340  120.2030   61.1850 C   0  0  0  0  0  0  0  0  0  0  0  0
  132.0270  121.4550   61.4690 C   0  0  0  0  0  0  0  0  0  0  0  0
  132.8190  122.3540   62.1910 C   0  0  0  0  0  0  0  0  0  0  0  0
  134.2350  122.6300   61.6870 C   0  0  0  0  0  0  0  0  0  0  0  0
  132.2900  122.9660   63.3500 C   0  0  0  0  0  0  0  0  0  0  0  0
  133.1240  123.8630   64.1520 C   0  0  0  0  0  0  0  0  0  0  0  0
  133.7850  124.5730   64.7830 N   0  0  0  0  0  0  0  0  0  0  0  0
  129.6860  124.6510   70.4300 C   0  0  0  0  0  0  0  0  0  0  0  0
  129.7520  124.8820   71.8010 C   0  0  0  0  0  0  0  0  0  0  0  0
  126.6726  126.9256   75.3863 H   0  0  0  0  0  0  0  0  0  0  0  0
  127.2578  127.6183   73.8357 H   0  0  0  0  0  0  0  0  0  0  0  0
  126.2986  126.0996   73.8357 H   0  0  0  0  0  0  0  0  0  0  0  0
  128.3820  128.0059   71.9022 H   0  0  0  0  0  0  0  0  0  0  0  0
  128.2706  127.5996   69.4538 H   0  0  0  0  0  0  0  0  0  0  0  0
  128.6120  124.6420   67.8700 H   0  0  0  0  0  0  0  0  0  0  0  0
  128.2595  125.2315   65.7925 H   0  0  0  0  0  0  0  0  0  0  0  0
  128.9565  126.8011   65.1734 H   0  0  0  0  0  0  0  0  0  0  0  0
  130.3648  125.4553   64.0465 H   0  0  0  0  0  0  0  0  0  0  0  0
  131.2108  125.3770   65.6675 H   0  0  0  0  0  0  0  0  0  0  0  0
  129.2765  119.6004   61.9172 H   0  0  0  0  0  0  0  0  0  0  0  0
  129.1262  120.7605   60.5540 H   0  0  0  0  0  0  0  0  0  0  0  0
  130.4447  119.5406   60.5540 H   0  0  0  0  0  0  0  0  0  0  0  0
  132.4176  120.9727   60.5608 H   0  0  0  0  0  0  0  0  0  0  0  0
  134.9105  122.7617   62.5451 H   0  0  0  0  0  0  0  0  0  0  0  0
  134.5787  121.7820   61.0765 H   0  0  0  0  0  0  0  0  0  0  0  0
  134.2351  123.5451   61.0765 H   0  0  0  0  0  0  0  0  0  0  0  0
  130.0580  123.7028   70.0146 H   0  0  0  0  0  0  0  0  0  0  0  0
  130.1750  124.1116   72.4624 H   0  0  0  0  0  0  0  0  0  0  0  0
  1  2  1  0
  2  3  1  0
  3  4  2  0
  3  5  1  0
  5  6  2  0
  6  7  1  0
  7  8  2  0
  8  9  1  0
  9 10  1  0
 10 11  2  0
 10 12  1  0
 12 13  1  0
 13 14  1  0
 14 15  1  0
 15 16  2  0
 16 17  1  0
 17 18  1  0
 17 19  2  0
 19 20  1  0
 20 21  1  0
 20 22  2  0
 22 23  1  0
 23 24  3  0
  8 25  1  0
 25 26  2  0
 26  5  1  0
 22 15  1  0
  1 27  1  0
  1 28  1  0
  1 29  1  0
  6 30  1  0
  7 31  1  0
  9 32  1  0
 12 33  1  0
 12 34  1  0
 13 35  1  0
 13 36  1  0
 18 37  1  0
 18 38  1  0
 18 39  1  0
 19 40  1  0
 21 41  1  0
 21 42  1  0
 21 43  1  0
 25 44  1  0
 26 45  1  0
M  END
>  <Binding energies>  (1) 
[-8.13]

>  <Ligand effiencies>  (1) 
[-0.30111111111111116]

>  <Interactions>  (1) 
["V-B:GLU:543:CD:9880, V-B:ALA:541:CB:9864, V-B:TYR:539:CD2:9846, V-A:PRO:482:CG:4327, V-A:LEU:475:CD1:4258, V-B:GLU:543:C:9874, V-B:GLU:543:CB:9878, H-A:LYS:547:NZ:4951, V-B:HIS:456:CE1:9040, H-B:LYS:547:NZ:9923, V-A:HIS:456:CE1:4069, V-A:HIS:456:CG:4066, V-A:HIS:456:CD2:4068, H-A:HIS:456:NE2:4070, H-A:GLY:454:N:4050, V-B:GLU:543:CG:9879, V-A:TYR:484:CE1:4345, V-A:ILE:369:CD1:3239, V-A:TYR:484:CZ:4347, H-A:TYR:484:OH:4348, V-B:LYS:547:CE:9922, V-A:GLY:454:CA:4049, H-B:GLU:543:O:9875, V-B:LYS:547:CD:9921"]

$$$$
1p_Grossjean_2025
     RDKit          3D

 35 36  0  0  0  0  0  0  0  0999 V2000
  133.1200  131.4050   62.4440 C   0  0  0  0  0  0  0  0  0  0  0  0
  132.1980  131.4450   61.2400 C   0  0  0  0  0  0  0  0  0  0  0  0
  132.6320  131.0460   59.9770 C   0  0  0  0  0  0  0  0  0  0  0  0
  131.7430  131.1160   58.8990 C   0  0  0  0  0  0  0  0  0  0  0  0
  132.2440  130.6880   57.5210 C   0  0  0  0  0  0  0  0  0  0  0  0
  130.4260  131.5800   59.1190 C   0  0  0  0  0  0  0  0  0  0  0  0
  129.4910  131.7070   58.0000 C   0  0  0  0  0  0  0  0  0  0  0  0
  128.7530  131.8070   57.1140 N   0  0  0  0  0  0  0  0  0  0  0  0
  130.0650  131.9420   60.4390 C   0  0  0  0  0  0  0  0  0  0  0  0
  128.4510  132.5340   60.8900 S   0  0  0  0  0  0  0  0  0  0  0  0
  127.4760  131.0820   61.3820 C   0  0  0  0  0  0  0  0  0  0  0  0
  128.0350  130.3460   62.6150 C   0  0  0  0  0  0  0  0  0  0  0  0
  127.2060  130.5660   63.8890 C   0  0  0  0  0  0  0  0  0  0  0  0
  127.5980  131.3700   64.7370 O   0  0  0  0  0  0  0  0  0  0  0  0
  126.0660  129.8440   63.9760 N   0  0  0  0  0  0  0  0  0  0  0  0
  125.1420  129.8550   65.0130 C   0  0  0  0  0  0  0  0  0  0  0  0
  125.3780  129.2540   66.2500 C   0  0  0  0  0  0  0  0  0  0  0  0
  124.2380  129.4850   66.9840 C   0  0  0  0  0  0  0  0  0  0  0  0
  123.3600  130.1860   66.2290 O   0  0  0  0  0  0  0  0  0  0  0  0
  123.9440  130.4140   64.9810 N   0  0  0  0  0  0  0  0  0  0  0  0
  130.9420  131.8900   61.4740 N   0  0  0  0  0  0  0  0  0  0  0  0
  132.5205  131.4310   63.3659 H   0  0  0  0  0  0  0  0  0  0  0  0
  133.7151  130.4802   62.4196 H   0  0  0  0  0  0  0  0  0  0  0  0
  133.7929  132.2748   62.4196 H   0  0  0  0  0  0  0  0  0  0  0  0
  133.6592  130.6811   59.8299 H   0  0  0  0  0  0  0  0  0  0  0  0
  133.0756  129.9775   57.6376 H   0  0  0  0  0  0  0  0  0  0  0  0
  131.4252  130.2062   56.9665 H   0  0  0  0  0  0  0  0  0  0  0  0
  132.5920  131.5720   56.9665 H   0  0  0  0  0  0  0  0  0  0  0  0
  126.4521  131.4130   61.6104 H   0  0  0  0  0  0  0  0  0  0  0  0
  127.5118  130.3726   60.5421 H   0  0  0  0  0  0  0  0  0  0  0  0
  128.0576  129.2682   62.3963 H   0  0  0  0  0  0  0  0  0  0  0  0
  129.0381  130.7542   62.8077 H   0  0  0  0  0  0  0  0  0  0  0  0
  125.8560  129.2170   63.2140 H   0  0  0  0  0  0  0  0  0  0  0  0
  126.2807  128.7125   66.5692 H   0  0  0  0  0  0  0  0  0  0  0  0
  124.0671  129.1532   68.0188 H   0  0  0  0  0  0  0  0  0  0  0  0
  1  2  1  0
  2  3  2  0
  3  4  1  0
  4  5  1  0
  4  6  2  0
  6  7  1  0
  7  8  3  0
  6  9  1  0
  9 10  1  0
 10 11  1  0
 11 12  1  0
 12 13  1  0
 13 14  2  0
 13 15  1  0
 15 16  1  0
 16 17  1  0
 17 18  2  0
 18 19  1  0
 19 20  1  0
  9 21  2  0
 21  2  1  0
 20 16  2  0
  1 22  1  0
  1 23  1  0
  1 24  1  0
  3 25  1  0
  5 26  1  0
  5 27  1  0
  5 28  1  0
 11 29  1  0
 11 30  1  0
 12 31  1  0
 12 32  1  0
 15 33  1  0
 17 34  1  0
 18 35  1  0
M  END
>  <Binding energies>  (1) 
[-6.78]

>  <Ligand effiencies>  (1) 
[-0.30818181818181817]

>  <Interactions>  (1) 
["V-A:PRO:540:N:4884, V-A:GLU:543:CD:4908, V-A:PRO:540:C:4881, V-A:PRO:540:CB:4885, V-A:PRO:540:CA:4883, H-A:ALA:541:N:4891, V-B:HIS:456:CE1:9040, V-B:ARG:545:CG:9894, H-B:GLU:543:OE1:9881, H-B:TYR:484:OH:9319, H-B:ARG:545:NE:9896, H-B:GLY:454:N:9021, V-B:ARG:545:CD:9895, V-B:ARG:545:CZ:9898, H-B:ILE:455:N:9026, V-A:ASN:362:CB:3176, V-B:TYR:484:CZ:9318, V-A:ASN:362:CG:3177, V-B:ILE:455:C:9023"]

$$$$
1q_Grossjean_2025
     RDKit          3D

 38 38  0  0  0  0  0  0  0  0999 V2000
  126.9420  126.6520   73.7390 C   0  0  0  0  0  0  0  0  0  0  0  0
  128.2000  126.0080   73.5950 O   0  0  0  0  0  0  0  0  0  0  0  0
  129.3360  126.7370   73.4650 C   0  0  0  0  0  0  0  0  0  0  0  0
  130.1440  126.9710   74.3650 O   0  0  0  0  0  0  0  0  0  0  0  0
  129.5530  127.3140   72.0500 C   0  0  0  0  0  0  0  0  0  0  0  0
  128.6360  126.7450   71.0500 N   0  0  0  0  0  0  0  0  0  0  0  0
  128.6270  127.0330   69.7350 C   0  0  0  0  0  0  0  0  0  0  0  0
  129.4120  127.8260   69.2120 O   0  0  0  0  0  0  0  0  0  0  0  0
  127.5760  126.2940   68.8930 C   0  0  0  0  0  0  0  0  0  0  0  0
  127.3710  126.8770   67.4810 C   0  0  0  0  0  0  0  0  0  0  0  0
  125.9610  128.0170   67.3620 S   0  0  0  0  0  0  0  0  0  0  0  0
  126.0180  128.8270   65.7760 C   0  0  0  0  0  0  0  0  0  0  0  0
  127.1610  128.5820   65.0860 N   0  0  0  0  0  0  0  0  0  0  0  0
  127.3210  129.1460   63.8670 C   0  0  0  0  0  0  0  0  0  0  0  0
  128.6320  128.8390   63.1660 C   0  0  0  0  0  0  0  0  0  0  0  0
  126.3540  129.9600   63.2820 C   0  0  0  0  0  0  0  0  0  0  0  0
  125.1620  130.1990   63.9720 C   0  0  0  0  0  0  0  0  0  0  0  0
  124.1090  131.0820   63.3020 C   0  0  0  0  0  0  0  0  0  0  0  0
  124.9700  129.6200   65.2460 C   0  0  0  0  0  0  0  0  0  0  0  0
  123.7050  129.8130   65.9570 C   0  0  0  0  0  0  0  0  0  0  0  0
  122.7030  129.9670   66.5160 N   0  0  0  0  0  0  0  0  0  0  0  0
  126.7109  126.7703   74.8079 H   0  0  0  0  0  0  0  0  0  0  0  0
  126.9798  127.6417   73.2603 H   0  0  0  0  0  0  0  0  0  0  0  0
  126.1612  126.0427   73.2603 H   0  0  0  0  0  0  0  0  0  0  0  0
  129.3986  128.4025   72.0879 H   0  0  0  0  0  0  0  0  0  0  0  0
  130.5769  127.0548   71.7425 H   0  0  0  0  0  0  0  0  0  0  0  0
  127.9420  126.1020   71.4030 H   0  0  0  0  0  0  0  0  0  0  0  0
  127.8919  125.2454   68.7903 H   0  0  0  0  0  0  0  0  0  0  0  0
  126.6169  126.4015   69.4207 H   0  0  0  0  0  0  0  0  0  0  0  0
  128.2830  127.4207   67.1936 H   0  0  0  0  0  0  0  0  0  0  0  0
  127.1592  126.0311   66.8105 H   0  0  0  0  0  0  0  0  0  0  0  0
  129.4150  128.6557   63.9166 H   0  0  0  0  0  0  0  0  0  0  0  0
  128.5107  127.9450   62.5367 H   0  0  0  0  0  0  0  0  0  0  0  0
  128.9203  129.6939   62.5367 H   0  0  0  0  0  0  0  0  0  0  0  0
  126.5257  130.4080   62.2921 H   0  0  0  0  0  0  0  0  0  0  0  0
  123.5082  131.5858   64.0735 H   0  0  0  0  0  0  0  0  0  0  0  0
  124.6077  131.8360   62.6752 H   0  0  0  0  0  0  0  0  0  0  0  0
  123.4535  130.4596   62.6752 H   0  0  0  0  0  0  0  0  0  0  0  0
  1  2  1  0
  2  3  1  0
  3  4  2  0
  3  5  1  0
  5  6  1  0
  6  7  1  0
  7  8  2  0
  7  9  1  0
  9 10  1  0
 10 11  1  0
 11 12  1  0
 12 13  2  0
 13 14  1  0
 14 15  1  0
 14 16  2  0
 16 17  1  0
 17 18  1  0
 17 19  2  0
 19 20  1  0
 20 21  3  0
 19 12  1  0
  1 22  1  0
  1 23  1  0
  1 24  1  0
  5 25  1  0
  5 26  1  0
  6 27  1  0
  9 28  1  0
  9 29  1  0
 10 30  1  0
 10 31  1  0
 15 32  1  0
 15 33  1  0
 15 34  1  0
 16 35  1  0
 18 36  1  0
 18 37  1  0
 18 38  1  0
M  END
>  <Binding energies>  (1) 
[-6.13]

>  <Ligand effiencies>  (1) 
[-0.2786363636363636]

>  <Interactions>  (1) 
["V-A:GLU:543:CD:4908, V-B:GLU:543:C:9874, V-B:GLU:543:CB:9878, V-B:GLY:544:C:9884, H-A:LYS:547:NZ:4951, V-B:HIS:456:CE1:9040, V-B:ARG:545:CG:9894, H-B:LYS:547:NZ:9923, V-A:HIS:456:CD2:4068, H-B:ARG:545:NE:9896, H-B:GLY:454:N:9021, H-B:HIS:456:NE2:9041, H-A:HIS:456:NE2:4070, V-B:ARG:545:CD:9895, V-B:ARG:545:CZ:9898, V-B:GLY:454:CA:9020, H-B:ILE:455:N:9026, V-B:LYS:547:CE:9922, V-B:LYS:547:CD:9921, H-B:GLY:544:O:9885"]

$$$$
2a_Ghoteimi_2023
     RDKit          3D

 85 90  0  0  0  0  0  0  0  0999 V2000
  132.3810  131.2200   55.7900 C   0  0  0  0  0  0  0  0  0  0  0  0
  131.9750  132.6400   55.3830 C   0  0  0  0  0  0  0  0  0  0  0  0
  131.0880  133.1740   56.3570 O   0  0  0  0  0  0  0  0  0  0  0  0
  129.9080  132.5640   56.6420 C   0  0  0  0  0  0  0  0  0  0  0  0
  129.0480  132.3160   55.7910 O   0  0  0  0  0  0  0  0  0  0  0  0
  129.7580  132.2140   58.0950 C   0  0  0  0  0  0  0  0  0  0  0  0
  130.7350  131.4840   58.7880 C   0  0  0  0  0  0  0  0  0  0  0  0
  130.5650  131.1780   60.1340 C   0  0  0  0  0  0  0  0  0  0  0  0
  129.4220  131.5970   60.8180 C   0  0  0  0  0  0  0  0  0  0  0  0
  129.3520  131.2290   62.1750 N   0  0  0  0  0  0  0  0  0  0  0  0
  128.3120  131.2870   63.0350 C   0  0  0  0  0  0  0  0  0  0  0  0
  127.1990  131.7430   62.7710 O   0  0  0  0  0  0  0  0  0  0  0  0
  128.6050  130.7690   64.4490 C   0  0  0  0  0  0  0  0  0  0  0  0
  127.3130  129.6860   65.1380 S   0  0  0  0  0  0  0  0  0  0  0  0
  128.1470  128.1930   65.6250 C   0  0  0  0  0  0  0  0  0  0  0  0
  128.3140  128.0690   66.9620 N   0  0  0  0  0  0  0  0  0  0  0  0
  128.9460  126.9760   67.4570 C   0  0  0  0  0  0  0  0  0  0  0  0
  129.1030  126.9110   68.9420 C   0  0  0  0  0  0  0  0  0  0  0  0
  128.9940  125.6970   69.6320 C   0  0  0  0  0  0  0  0  0  0  0  0
  129.1290  125.6450   71.0160 C   0  0  0  0  0  0  0  0  0  0  0  0
  129.3850  126.8030   71.7640 C   0  0  0  0  0  0  0  0  0  0  0  0
  129.4890  126.7400   73.1570 N   0  0  0  0  0  0  0  0  0  0  0  0
  128.6860  127.6210   74.0300 C   0  0  0  0  0  0  0  0  0  0  0  0
  128.6540  127.1740   75.5060 C   0  0  0  0  0  0  0  0  0  0  0  0
  129.9770  127.0370   76.0010 O   0  0  0  0  0  0  0  0  0  0  0  0
  130.7050  126.0630   75.2700 C   0  0  0  0  0  0  0  0  0  0  0  0
  130.8000  126.4740   73.7860 C   0  0  0  0  0  0  0  0  0  0  0  0
  129.4820  128.0200   71.0690 C   0  0  0  0  0  0  0  0  0  0  0  0
  129.3490  128.0710   69.6850 C   0  0  0  0  0  0  0  0  0  0  0  0
  129.4160  125.9680   66.6110 C   0  0  0  0  0  0  0  0  0  0  0  0
  129.2550  126.0740   65.2230 C   0  0  0  0  0  0  0  0  0  0  0  0
  129.7870  124.9640   64.3760 C   0  0  0  0  0  0  0  0  0  0  0  0
  130.6790  125.2380   63.3360 C   0  0  0  0  0  0  0  0  0  0  0  0
  131.1640  124.2130   62.5290 C   0  0  0  0  0  0  0  0  0  0  0  0
  130.7750  122.8820   62.7410 C   0  0  0  0  0  0  0  0  0  0  0  0
  131.2370  121.8400   61.9310 N   0  0  0  0  0  0  0  0  0  0  0  0
  132.4730  122.0280   61.1450 C   0  0  0  0  0  0  0  0  0  0  0  0
  133.0700  120.7050   60.6210 C   0  0  0  0  0  0  0  0  0  0  0  0
  132.0970  119.9970   59.8680 O   0  0  0  0  0  0  0  0  0  0  0  0
  130.9550  119.6840   60.6490 C   0  0  0  0  0  0  0  0  0  0  0  0
  130.3040  120.9790   61.1780 C   0  0  0  0  0  0  0  0  0  0  0  0
  129.8710  122.6160   63.7790 C   0  0  0  0  0  0  0  0  0  0  0  0
  129.3840  123.6410   64.5850 C   0  0  0  0  0  0  0  0  0  0  0  0
  128.5960  127.2170   64.7070 C   0  0  0  0  0  0  0  0  0  0  0  0
  128.3480  127.3570   63.2690 C   0  0  0  0  0  0  0  0  0  0  0  0
  128.1540  127.4660   62.1330 N   0  0  0  0  0  0  0  0  0  0  0  0
  128.4370  132.3210   60.1300 C   0  0  0  0  0  0  0  0  0  0  0  0
  128.6090  132.6280   58.7820 C   0  0  0  0  0  0  0  0  0  0  0  0
  132.4024  131.1450   56.8872 H   0  0  0  0  0  0  0  0  0  0  0  0
  131.6525  130.5008   55.3875 H   0  0  0  0  0  0  0  0  0  0  0  0
  133.3796  130.9946   55.3875 H   0  0  0  0  0  0  0  0  0  0  0  0
  132.8718  133.2735   55.3166 H   0  0  0  0  0  0  0  0  0  0  0  0
  131.4735  132.6129   54.4043 H   0  0  0  0  0  0  0  0  0  0  0  0
  131.6424  131.1511   58.2629 H   0  0  0  0  0  0  0  0  0  0  0  0
  131.3372  130.6012   60.6641 H   0  0  0  0  0  0  0  0  0  0  0  0
  130.2250  130.8950   62.5570 H   0  0  0  0  0  0  0  0  0  0  0  0
  129.5479  130.2033   64.4194 H   0  0  0  0  0  0  0  0  0  0  0  0
  128.6545  131.6526   65.1024 H   0  0  0  0  0  0  0  0  0  0  0  0
  128.7988  124.7709   69.0715 H   0  0  0  0  0  0  0  0  0  0  0  0
  129.0332  124.6784   71.5323 H   0  0  0  0  0  0  0  0  0  0  0  0
  129.1102  128.6349   73.9839 H   0  0  0  0  0  0  0  0  0  0  0  0
  127.6507  127.5804   73.6606 H   0  0  0  0  0  0  0  0  0  0  0  0
  128.1180  127.9266   76.1029 H   0  0  0  0  0  0  0  0  0  0  0  0
  128.1395  126.2045   75.5783 H   0  0  0  0  0  0  0  0  0  0  0  0
  131.7184  125.9763   75.6889 H   0  0  0  0  0  0  0  0  0  0  0  0
  130.1854  125.0962   75.3428 H   0  0  0  0  0  0  0  0  0  0  0  0
  131.4097  127.3870   73.7170 H   0  0  0  0  0  0  0  0  0  0  0  0
  131.2490  125.6271   73.2464 H   0  0  0  0  0  0  0  0  0  0  0  0
  129.6663  128.9488   71.6288 H   0  0  0  0  0  0  0  0  0  0  0  0
  129.4385  129.0374   69.1672 H   0  0  0  0  0  0  0  0  0  0  0  0
  129.9156  125.0856   67.0373 H   0  0  0  0  0  0  0  0  0  0  0  0
  131.0010  126.2738   63.1533 H   0  0  0  0  0  0  0  0  0  0  0  0
  131.8626  124.4501   61.7130 H   0  0  0  0  0  0  0  0  0  0  0  0
  132.2445  122.6732   60.2839 H   0  0  0  0  0  0  0  0  0  0  0  0
  133.2196  122.4798   61.8147 H   0  0  0  0  0  0  0  0  0  0  0  0
  133.9368  120.9251   59.9805 H   0  0  0  0  0  0  0  0  0  0  0  0
  133.3842  120.0876   61.4755 H   0  0  0  0  0  0  0  0  0  0  0  0
  130.2284  119.1384   60.0289 H   0  0  0  0  0  0  0  0  0  0  0  0
  131.2616  119.0605   61.5018 H   0  0  0  0  0  0  0  0  0  0  0  0
  129.9174  121.5500   60.3209 H   0  0  0  0  0  0  0  0  0  0  0  0
  129.5057  120.6801   61.8732 H   0  0  0  0  0  0  0  0  0  0  0  0
  129.5417  121.5820   63.9591 H   0  0  0  0  0  0  0  0  0  0  0  0
  128.6757  123.4084   65.3938 H   0  0  0  0  0  0  0  0  0  0  0  0
  127.5273  132.6469   60.6557 H   0  0  0  0  0  0  0  0  0  0  0  0
  127.8347  133.2014   58.2514 H   0  0  0  0  0  0  0  0  0  0  0  0
  1  2  1  0
  2  3  1  0
  3  4  1  0
  4  5  2  0
  4  6  1  0
  6  7  2  0
  7  8  1  0
  8  9  2  0
  9 10  1  0
 10 11  1  0
 11 12  2  0
 11 13  1  0
 13 14  1  0
 14 15  1  0
 15 16  2  0
 16 17  1  0
 17 18  1  0
 18 19  2  0
 19 20  1  0
 20 21  2  0
 21 22  1  0
 22 23  1  0
 23 24  1  0
 24 25  1  0
 25 26  1  0
 26 27  1  0
 21 28  1  0
 28 29  2  0
 17 30  2  0
 30 31  1  0
 31 32  1  0
 32 33  2  0
 33 34  1  0
 34 35  2  0
 35 36  1  0
 36 37  1  0
 37 38  1  0
 38 39  1  0
 39 40  1  0
 40 41  1  0
 35 42  1  0
 42 43  2  0
 31 44  2  0
 44 45  1  0
 45 46  3  0
  9 47  1  0
 47 48  2  0
 48  6  1  0
 44 15  1  0
 29 18  1  0
 43 32  1  0
 27 22  1  0
 41 36  1  0
  1 49  1  0
  1 50  1  0
  1 51  1  0
  2 52  1  0
  2 53  1  0
  7 54  1  0
  8 55  1  0
 10 56  1  0
 13 57  1  0
 13 58  1  0
 19 59  1  0
 20 60  1  0
 23 61  1  0
 23 62  1  0
 24 63  1  0
 24 64  1  0
 26 65  1  0
 26 66  1  0
 27 67  1  0
 27 68  1  0
 28 69  1  0
 29 70  1  0
 30 71  1  0
 33 72  1  0
 34 73  1  0
 37 74  1  0
 37 75  1  0
 38 76  1  0
 38 77  1  0
 40 78  1  0
 40 79  1  0
 41 80  1  0
 41 81  1  0
 42 82  1  0
 43 83  1  0
 47 84  1  0
 48 85  1  0
M  END
>  <Binding energies>  (1) 
[-11.26]

>  <Ligand effiencies>  (1) 
[-0.22979591836734695]

>  <Interactions>  (1) 
["V-B:GLU:543:CD:9880, V-B:ALA:541:CB:9864, V-B:TYR:539:CE2:9848, V-B:TYR:539:CD2:9846, V-A:LEU:475:CD1:4258, V-A:PRO:540:CD:4887, V-A:PRO:540:N:4884, V-A:TYR:539:C:4867, V-A:TYR:531:CE2:4793, V-A:ILE:538:CD1:4865, V-A:TYR:531:CZ:4794, V-A:ILE:538:CA:4860, V-A:LEU:363:CD1:3189, V-A:GLU:543:CD:4908, V-A:TYR:539:CE2:4876, V-A:PRO:540:CB:4885, V-A:PRO:540:CA:4883, V-A:TYR:539:CD2:4874, V-A:ILE:538:CG2:4863, V-A:ALA:541:CB:4892, V-B:GLU:543:C:9874, V-B:GLU:543:CB:9878, V-B:HIS:456:CD2:9039, H-A:LYS:547:NZ:4951, V-B:HIS:456:CE1:9040, V-A:HIS:456:CE1:4069, V-A:HIS:456:CD2:4068, H-B:TYR:484:OH:9319, V-A:GLU:543:CB:4906, V-B:GLU:543:CG:9879, V-A:TRP:381:CZ2:3370, V-B:GLU:543:CA:9876, V-A:ILE:369:CD1:3239, V-A:TRP:381:CH2:3372, V-A:ILE:369:CG2:3237, H-A:GLU:543:OE1:4909, V-A:TYR:539:CE1:4875, V-A:TYR:539:CD1:4873, V-A:TYR:539:CZ:4877, H-A:TYR:539:N:4870, V-A:TYR:539:CG:4872, V-A:TYR:539:CA:4869, V-A:GLU:543:CG:4907"]

$$$$
2a_Grossjean_2025
     RDKit          3D

 45 46  0  0  0  0  0  0  0  0999 V2000
  124.6260  127.0560   73.7410 C   0  0  0  0  0  0  0  0  0  0  0  0
  126.0660  127.4190   74.1150 C   0  0  0  0  0  0  0  0  0  0  0  0
  126.8980  127.2810   72.9690 O   0  0  0  0  0  0  0  0  0  0  0  0
  127.9500  126.4220   72.9660 C   0  0  0  0  0  0  0  0  0  0  0  0
  128.4480  125.9520   73.9930 O   0  0  0  0  0  0  0  0  0  0  0  0
  128.4340  126.0850   71.5840 C   0  0  0  0  0  0  0  0  0  0  0  0
  129.3310  125.0330   71.3490 C   0  0  0  0  0  0  0  0  0  0  0  0
  129.7610  124.7470   70.0570 C   0  0  0  0  0  0  0  0  0  0  0  0
  129.3110  125.5080   68.9760 C   0  0  0  0  0  0  0  0  0  0  0  0
  129.8220  125.1390   67.7180 N   0  0  0  0  0  0  0  0  0  0  0  0
  129.5890  125.6680   66.4980 C   0  0  0  0  0  0  0  0  0  0  0  0
  128.8240  126.6030   66.2580 O   0  0  0  0  0  0  0  0  0  0  0  0
  130.3550  125.0200   65.3400 C   0  0  0  0  0  0  0  0  0  0  0  0
  130.1200  123.2140   65.2390 S   0  0  0  0  0  0  0  0  0  0  0  0
  130.8570  122.5920   63.7320 C   0  0  0  0  0  0  0  0  0  0  0  0
  130.0550  121.8110   62.9630 N   0  0  0  0  0  0  0  0  0  0  0  0
  130.5500  121.2960   61.8160 C   0  0  0  0  0  0  0  0  0  0  0  0
  129.6040  120.4120   61.0260 C   0  0  0  0  0  0  0  0  0  0  0  0
  131.8500  121.5410   61.3820 C   0  0  0  0  0  0  0  0  0  0  0  0
  132.6940  122.3530   62.1560 C   0  0  0  0  0  0  0  0  0  0  0  0
  134.1290  122.6140   61.6620 C   0  0  0  0  0  0  0  0  0  0  0  0
  134.9990  121.9110   62.3880 F   0  0  0  0  0  0  0  0  0  0  0  0
  134.2430  122.2560   60.3820 F   0  0  0  0  0  0  0  0  0  0  0  0
  134.4790  123.9000   61.7520 F   0  0  0  0  0  0  0  0  0  0  0  0
  132.1880  122.8960   63.3640 C   0  0  0  0  0  0  0  0  0  0  0  0
  133.0270  123.7480   64.2130 C   0  0  0  0  0  0  0  0  0  0  0  0
  133.6900  124.4210   64.8830 N   0  0  0  0  0  0  0  0  0  0  0  0
  128.4080  126.5560   69.2030 C   0  0  0  0  0  0  0  0  0  0  0  0
  127.9750  126.8380   70.4960 C   0  0  0  0  0  0  0  0  0  0  0  0
  124.0356  126.9072   74.6571 H   0  0  0  0  0  0  0  0  0  0  0  0
  124.1845  127.8709   73.1486 H   0  0  0  0  0  0  0  0  0  0  0  0
  124.6236  126.1291   73.1486 H   0  0  0  0  0  0  0  0  0  0  0  0
  126.1020  128.4587   74.4723 H   0  0  0  0  0  0  0  0  0  0  0  0
  126.4206  126.7478   74.9111 H   0  0  0  0  0  0  0  0  0  0  0  0
  129.6974  124.4294   72.1924 H   0  0  0  0  0  0  0  0  0  0  0  0
  130.4605  123.9155   69.8858 H   0  0  0  0  0  0  0  0  0  0  0  0
  130.4990  124.3920   67.7520 H   0  0  0  0  0  0  0  0  0  0  0  0
  130.0093  125.4701   64.3977 H   0  0  0  0  0  0  0  0  0  0  0  0
  131.4257  125.1994   65.5174 H   0  0  0  0  0  0  0  0  0  0  0  0
  128.9806  119.8295   61.7203 H   0  0  0  0  0  0  0  0  0  0  0  0
  128.9594  121.0389   60.3924 H   0  0  0  0  0  0  0  0  0  0  0  0
  130.1859  119.7265   60.3924 H   0  0  0  0  0  0  0  0  0  0  0  0
  132.2126  121.1021   60.4408 H   0  0  0  0  0  0  0  0  0  0  0  0
  128.0407  127.1568   68.3579 H   0  0  0  0  0  0  0  0  0  0  0  0
  127.2649  127.6610   70.6647 H   0  0  0  0  0  0  0  0  0  0  0  0
  1  2  1  0
  2  3  1  0
  3  4  1  0
  4  5  2  0
  4  6  1  0
  6  7  2  0
  7  8  1  0
  8  9  2  0
  9 10  1  0
 10 11  1  0
 11 12  2  0
 11 13  1  0
 13 14  1  0
 14 15  1  0
 15 16  2  0
 16 17  1  0
 17 18  1  0
 17 19  2  0
 19 20  1  0
 20 21  1  0
 21 22  1  0
 21 23  1  0
 21 24  1  0
 20 25  2  0
 25 26  1  0
 26 27  3  0
  9 28  1  0
 28 29  2  0
 29  6  1  0
 25 15  1  0
  1 30  1  0
  1 31  1  0
  1 32  1  0
  2 33  1  0
  2 34  1  0
  7 35  1  0
  8 36  1  0
 10 37  1  0
 13 38  1  0
 13 39  1  0
 18 40  1  0
 18 41  1  0
 18 42  1  0
 19 43  1  0
 28 44  1  0
 29 45  1  0
M  END
>  <Binding energies>  (1) 
[-7.61]

>  <Ligand effiencies>  (1) 
[-0.25366666666666665]

>  <Interactions>  (1) 
["V-B:ALA:541:CB:9864, V-B:TYR:539:CD2:9846, V-A:LEU:475:CD1:4258, V-A:ASP:366:CG:3213, V-B:GLU:543:C:9874, V-B:GLU:543:CB:9878, V-B:HIS:456:CB:9036, V-B:ARG:545:CA:9891, V-B:HIS:456:CE1:9040, H-B:LYS:547:NZ:9923, V-A:HIS:456:CE1:4069, V-A:HIS:456:CG:4066, V-A:HIS:456:CD2:4068, H-A:GLY:454:N:4050, V-A:TYR:484:CE1:4345, V-A:ILE:369:CD1:3239, V-A:ILE:369:CG2:3237, V-A:ILE:369:CB:3236, V-A:GLY:453:C:4042, V-A:TYR:484:CZ:4347, H-A:TYR:484:OH:4348, V-A:GLY:454:CA:4049, H-A:HIS:456:ND1:4067, H-B:GLU:543:O:9875, V-B:ARG:545:C:9889, V-A:ILE:369:CG1:3238"]

$$$$
2aa_Ghoteimi_2023
     RDKit          3D

 85 90  0  0  0  0  0  0  0  0999 V2000
  132.0900  132.1260   54.9980 C   0  0  0  0  0  0  0  0  0  0  0  0
  130.8460  131.2440   54.8510 C   0  0  0  0  0  0  0  0  0  0  0  0
  130.2020  131.1250   56.1130 O   0  0  0  0  0  0  0  0  0  0  0  0
  129.5790  132.1880   56.6860 C   0  0  0  0  0  0  0  0  0  0  0  0
  129.8290  133.3620   56.3940 O   0  0  0  0  0  0  0  0  0  0  0  0
  128.5420  131.7920   57.6980 C   0  0  0  0  0  0  0  0  0  0  0  0
  127.8130  130.5990   57.5840 C   0  0  0  0  0  0  0  0  0  0  0  0
  126.8620  130.2580   58.5410 C   0  0  0  0  0  0  0  0  0  0  0  0
  126.6140  131.1030   59.6250 C   0  0  0  0  0  0  0  0  0  0  0  0
  125.6340  130.6590   60.5340 N   0  0  0  0  0  0  0  0  0  0  0  0
  124.6660  131.3530   61.1700 C   0  0  0  0  0  0  0  0  0  0  0  0
  124.4500  132.5580   61.0290 O   0  0  0  0  0  0  0  0  0  0  0  0
  123.7890  130.5130   62.1070 C   0  0  0  0  0  0  0  0  0  0  0  0
  124.2770  130.6220   63.4490 O   0  0  0  0  0  0  0  0  0  0  0  0
  125.5160  130.0930   63.7850 C   0  0  0  0  0  0  0  0  0  0  0  0
  126.5160  130.1700   62.8630 N   0  0  0  0  0  0  0  0  0  0  0  0
  127.7400  129.6660   63.1610 C   0  0  0  0  0  0  0  0  0  0  0  0
  128.7880  129.7820   62.0990 C   0  0  0  0  0  0  0  0  0  0  0  0
  129.1560  128.6700   61.3350 C   0  0  0  0  0  0  0  0  0  0  0  0
  130.1260  128.7730   60.3410 C   0  0  0  0  0  0  0  0  0  0  0  0
  130.7540  129.9980   60.0650 C   0  0  0  0  0  0  0  0  0  0  0  0
  131.7390  130.1170   59.0780 N   0  0  0  0  0  0  0  0  0  0  0  0
  133.0180  130.8070   59.3460 C   0  0  0  0  0  0  0  0  0  0  0  0
  133.8180  131.1520   58.0720 C   0  0  0  0  0  0  0  0  0  0  0  0
  134.0250  129.9830   57.2960 O   0  0  0  0  0  0  0  0  0  0  0  0
  132.7940  129.4030   56.8920 C   0  0  0  0  0  0  0  0  0  0  0  0
  131.9640  129.0050   58.1310 C   0  0  0  0  0  0  0  0  0  0  0  0
  130.3960  131.1050   60.8480 C   0  0  0  0  0  0  0  0  0  0  0  0
  129.4280  131.0000   61.8430 C   0  0  0  0  0  0  0  0  0  0  0  0
  127.9890  129.0530   64.3930 C   0  0  0  0  0  0  0  0  0  0  0  0
  126.9750  128.9510   65.3530 C   0  0  0  0  0  0  0  0  0  0  0  0
  127.2940  128.2630   66.6410 C   0  0  0  0  0  0  0  0  0  0  0  0
  128.5310  128.4610   67.2590 C   0  0  0  0  0  0  0  0  0  0  0  0
  128.8430  127.8080   68.4490 C   0  0  0  0  0  0  0  0  0  0  0  0
  127.9300  126.9250   69.0470 C   0  0  0  0  0  0  0  0  0  0  0  0
  128.2200  126.2610   70.2420 N   0  0  0  0  0  0  0  0  0  0  0  0
  128.1360  126.9500   71.5440 C   0  0  0  0  0  0  0  0  0  0  0  0
  128.1400  125.9870   72.7510 C   0  0  0  0  0  0  0  0  0  0  0  0
  129.2830  125.1460   72.6960 O   0  0  0  0  0  0  0  0  0  0  0  0
  129.3000  124.3660   71.5110 C   0  0  0  0  0  0  0  0  0  0  0  0
  129.3280  125.2850   70.2720 C   0  0  0  0  0  0  0  0  0  0  0  0
  126.6890  126.7380   68.4230 C   0  0  0  0  0  0  0  0  0  0  0  0
  126.3770  127.3910   67.2350 C   0  0  0  0  0  0  0  0  0  0  0  0
  125.7080  129.4990   65.0450 C   0  0  0  0  0  0  0  0  0  0  0  0
  124.6040  129.4830   66.0070 C   0  0  0  0  0  0  0  0  0  0  0  0
  123.7310  129.4700   66.7680 N   0  0  0  0  0  0  0  0  0  0  0  0
  127.3440  132.2930   59.7500 C   0  0  0  0  0  0  0  0  0  0  0  0
  128.2980  132.6310   58.7930 C   0  0  0  0  0  0  0  0  0  0  0  0
  132.3066  132.2795   56.0655 H   0  0  0  0  0  0  0  0  0  0  0  0
  132.9478  131.6332   54.5170 H   0  0  0  0  0  0  0  0  0  0  0  0
  131.9089  133.0986   54.5170 H   0  0  0  0  0  0  0  0  0  0  0  0
  130.1549  131.7012   54.1276 H   0  0  0  0  0  0  0  0  0  0  0  0
  131.1418  130.2468   54.4930 H   0  0  0  0  0  0  0  0  0  0  0  0
  127.9945  129.9279   56.7316 H   0  0  0  0  0  0  0  0  0  0  0  0
  126.3017  129.3164   58.4430 H   0  0  0  0  0  0  0  0  0  0  0  0
  125.6450  129.6620   60.6970 H   0  0  0  0  0  0  0  0  0  0  0  0
  122.7525  130.8787   62.0637 H   0  0  0  0  0  0  0  0  0  0  0  0
  123.8218  129.4599   61.7911 H   0  0  0  0  0  0  0  0  0  0  0  0
  128.6723  127.6999   61.5219 H   0  0  0  0  0  0  0  0  0  0  0  0
  130.4047  127.8798   59.7626 H   0  0  0  0  0  0  0  0  0  0  0  0
  132.8017  131.7420   59.8836 H   0  0  0  0  0  0  0  0  0  0  0  0
  133.6376  130.1158   59.9363 H   0  0  0  0  0  0  0  0  0  0  0  0
  133.2569  131.8885   57.4781 H   0  0  0  0  0  0  0  0  0  0  0  0
  134.7935  131.5701   58.3611 H   0  0  0  0  0  0  0  0  0  0  0  0
  132.2276  130.1315   56.2932 H   0  0  0  0  0  0  0  0  0  0  0  0
  132.9990  128.5043   56.2918 H   0  0  0  0  0  0  0  0  0  0  0  0
  130.9855  128.6363   57.7896 H   0  0  0  0  0  0  0  0  0  0  0  0
  132.5381  128.2361   58.6688 H   0  0  0  0  0  0  0  0  0  0  0  0
  130.8885  132.0729   60.6730 H   0  0  0  0  0  0  0  0  0  0  0  0
  129.1623  131.8872   62.4366 H   0  0  0  0  0  0  0  0  0  0  0  0
  128.9886  128.6481   64.6094 H   0  0  0  0  0  0  0  0  0  0  0  0
  129.2660  129.1394   66.8012 H   0  0  0  0  0  0  0  0  0  0  0  0
  129.8177  127.9865   68.9266 H   0  0  0  0  0  0  0  0  0  0  0  0
  128.9979  127.6273   71.6359 H   0  0  0  0  0  0  0  0  0  0  0  0
  127.1778  127.4898   71.5635 H   0  0  0  0  0  0  0  0  0  0  0  0
  128.1615  126.5708   73.6830 H   0  0  0  0  0  0  0  0  0  0  0  0
  127.2324  125.3661   72.7213 H   0  0  0  0  0  0  0  0  0  0  0  0
  130.1946  123.7259   71.5095 H   0  0  0  0  0  0  0  0  0  0  0  0
  128.3941  123.7430   71.4769 H   0  0  0  0  0  0  0  0  0  0  0  0
  130.2794  125.8370   70.2685 H   0  0  0  0  0  0  0  0  0  0  0  0
  129.2184  124.6411   69.3869 H   0  0  0  0  0  0  0  0  0  0  0  0
  125.9497  126.0639   68.8801 H   0  0  0  0  0  0  0  0  0  0  0  0
  125.4003  127.2197   66.7589 H   0  0  0  0  0  0  0  0  0  0  0  0
  127.1632  132.9609   60.6051 H   0  0  0  0  0  0  0  0  0  0  0  0
  128.8661  133.5671   58.8982 H   0  0  0  0  0  0  0  0  0  0  0  0
  1  2  1  0
  2  3  1  0
  3  4  1  0
  4  5  2  0
  4  6  1  0
  6  7  2  0
  7  8  1  0
  8  9  2  0
  9 10  1  0
 10 11  1  0
 11 12  2  0
 11 13  1  0
 13 14  1  0
 14 15  1  0
 15 16  2  0
 16 17  1  0
 17 18  1  0
 18 19  2  0
 19 20  1  0
 20 21  2  0
 21 22  1  0
 22 23  1  0
 23 24  1  0
 24 25  1  0
 25 26  1  0
 26 27  1  0
 21 28  1  0
 28 29  2  0
 17 30  2  0
 30 31  1  0
 31 32  1  0
 32 33  2  0
 33 34  1  0
 34 35  2  0
 35 36  1  0
 36 37  1  0
 37 38  1  0
 38 39  1  0
 39 40  1  0
 40 41  1  0
 35 42  1  0
 42 43  2  0
 31 44  2  0
 44 45  1  0
 45 46  3  0
  9 47  1  0
 47 48  2  0
 48  6  1  0
 44 15  1  0
 29 18  1  0
 43 32  1  0
 27 22  1  0
 41 36  1  0
  1 49  1  0
  1 50  1  0
  1 51  1  0
  2 52  1  0
  2 53  1  0
  7 54  1  0
  8 55  1  0
 10 56  1  0
 13 57  1  0
 13 58  1  0
 19 59  1  0
 20 60  1  0
 23 61  1  0
 23 62  1  0
 24 63  1  0
 24 64  1  0
 26 65  1  0
 26 66  1  0
 27 67  1  0
 27 68  1  0
 28 69  1  0
 29 70  1  0
 30 71  1  0
 33 72  1  0
 34 73  1  0
 37 74  1  0
 37 75  1  0
 38 76  1  0
 38 77  1  0
 40 78  1  0
 40 79  1  0
 41 80  1  0
 41 81  1  0
 42 82  1  0
 43 83  1  0
 47 84  1  0
 48 85  1  0
M  END
>  <Binding energies>  (1) 
[-10.84]

>  <Ligand effiencies>  (1) 
[-0.22122448979591836]

>  <Interactions>  (1) 
["H-B:ASP:366:OD1:8185, V-B:ASP:366:CG:8184, V-A:ASP:366:CB:3212, V-A:TYR:539:C:4867, V-A:TYR:531:CE2:4793, V-A:ILE:538:CD1:4865, V-A:TYR:531:CZ:4794, V-A:ASP:366:CG:3213, V-A:LEU:363:CD1:3189, V-A:GLU:543:CD:4908, V-A:TYR:539:CE2:4876, V-A:PRO:540:CB:4885, V-A:PRO:540:CA:4883, V-A:TYR:539:CD2:4874, V-B:GLU:543:C:9874, V-B:GLU:543:CB:9878, V-B:GLY:544:C:9884, V-B:ARG:545:CA:9891, V-B:HIS:456:CE1:9040, V-B:ARG:545:CG:9894, H-B:LYS:547:NZ:9923, V-A:HIS:456:CE1:4069, V-A:HIS:456:CD2:4068, H-B:TYR:484:OH:9319, H-B:ARG:545:NE:9896, V-A:GLU:543:CB:4906, H-B:GLY:454:N:9021, V-B:ARG:545:CD:9895, V-B:ARG:545:CZ:9898, H-B:ARG:545:NH2:9900, H-B:ILE:455:N:9026, V-B:LYS:547:CE:9922, V-A:TYR:539:CE1:4875, V-A:TYR:539:CD1:4873, V-A:TYR:539:CZ:4877, H-A:TYR:539:N:4870, V-A:TYR:539:CG:4872, V-A:LEU:363:CA:3185, V-A:LEU:363:CB:3187, V-A:LEU:363:CG:3188"]

$$$$
2b_Ghoteimi_2023
     RDKit          3D

 72 77  0  0  0  0  0  0  0  0999 V2000
  130.1240  124.3690   67.9540 N   0  0  0  0  0  0  0  0  0  0  0  0
  129.8090  125.2890   67.3270 C   0  0  0  0  0  0  0  0  0  0  0  0
  129.4110  126.4520   66.5280 C   0  0  0  0  0  0  0  0  0  0  0  0
  129.3850  126.3780   65.1130 C   0  0  0  0  0  0  0  0  0  0  0  0
  129.7470  125.1540   64.3380 C   0  0  0  0  0  0  0  0  0  0  0  0
  128.9650  124.7490   63.2550 C   0  0  0  0  0  0  0  0  0  0  0  0
  129.2970  123.6080   62.5300 C   0  0  0  0  0  0  0  0  0  0  0  0
  130.4120  122.8300   62.8810 C   0  0  0  0  0  0  0  0  0  0  0  0
  130.7730  121.6890   62.1620 N   0  0  0  0  0  0  0  0  0  0  0  0
  129.7380  120.9640   61.3980 C   0  0  0  0  0  0  0  0  0  0  0  0
  130.1730  119.5450   60.9740 C   0  0  0  0  0  0  0  0  0  0  0  0
  131.3940  119.6030   60.2530 O   0  0  0  0  0  0  0  0  0  0  0  0
  132.4370  120.1680   61.0320 C   0  0  0  0  0  0  0  0  0  0  0  0
  132.0620  121.6050   61.4480 C   0  0  0  0  0  0  0  0  0  0  0  0
  131.1890  123.2420   63.9720 C   0  0  0  0  0  0  0  0  0  0  0  0
  130.8590  124.3860   64.6950 C   0  0  0  0  0  0  0  0  0  0  0  0
  128.9930  127.5130   64.3930 C   0  0  0  0  0  0  0  0  0  0  0  0
  128.6070  128.6770   65.0630 C   0  0  0  0  0  0  0  0  0  0  0  0
  128.1510  129.9060   64.3420 C   0  0  0  0  0  0  0  0  0  0  0  0
  127.6040  129.8180   63.0570 C   0  0  0  0  0  0  0  0  0  0  0  0
  127.1630  130.9550   62.3860 C   0  0  0  0  0  0  0  0  0  0  0  0
  127.2640  132.2280   62.9710 C   0  0  0  0  0  0  0  0  0  0  0  0
  126.7970  133.3760   62.3220 N   0  0  0  0  0  0  0  0  0  0  0  0
  127.7410  134.2390   61.5820 C   0  0  0  0  0  0  0  0  0  0  0  0
  127.1770  135.6400   61.2610 C   0  0  0  0  0  0  0  0  0  0  0  0
  125.9460  135.5190   60.5650 O   0  0  0  0  0  0  0  0  0  0  0  0
  124.9770  134.8320   61.3390 C   0  0  0  0  0  0  0  0  0  0  0  0
  125.4750  133.4080   61.6670 C   0  0  0  0  0  0  0  0  0  0  0  0
  127.8060  132.3100   64.2610 C   0  0  0  0  0  0  0  0  0  0  0  0
  128.2440  131.1720   64.9320 C   0  0  0  0  0  0  0  0  0  0  0  0
  128.6300  128.7450   66.4180 N   0  0  0  0  0  0  0  0  0  0  0  0
  129.0380  127.6720   67.1350 C   0  0  0  0  0  0  0  0  0  0  0  0
  129.0120  127.9380   68.8950 S   0  0  0  0  0  0  0  0  0  0  0  0
  127.8280  126.7590   69.6110 C   0  0  0  0  0  0  0  0  0  0  0  0
  128.4330  125.9710   70.7730 C   0  0  0  0  0  0  0  0  0  0  0  0
  128.3970  126.4470   71.9100 O   0  0  0  0  0  0  0  0  0  0  0  0
  128.9810  124.7800   70.4460 N   0  0  0  0  0  0  0  0  0  0  0  0
  129.5830  123.8670   71.3000 C   0  0  0  0  0  0  0  0  0  0  0  0
  130.6970  124.1760   72.0800 C   0  0  0  0  0  0  0  0  0  0  0  0
  130.9800  123.0210   72.7710 C   0  0  0  0  0  0  0  0  0  0  0  0
  130.0830  122.0670   72.4270 O   0  0  0  0  0  0  0  0  0  0  0  0
  129.2010  122.6160   71.4940 N   0  0  0  0  0  0  0  0  0  0  0  0
  128.0790  125.3364   62.9721 H   0  0  0  0  0  0  0  0  0  0  0  0
  128.6776  123.3119   61.6706 H   0  0  0  0  0  0  0  0  0  0  0  0
  128.8369  120.8806   62.0233 H   0  0  0  0  0  0  0  0  0  0  0  0
  129.5524  121.5363   60.4772 H   0  0  0  0  0  0  0  0  0  0  0  0
  130.3097  118.9233   61.8711 H   0  0  0  0  0  0  0  0  0  0  0  0
  129.3956  119.1081   60.3300 H   0  0  0  0  0  0  0  0  0  0  0  0
  132.5918  119.5561   61.9329 H   0  0  0  0  0  0  0  0  0  0  0  0
  133.3613  120.1930   60.4361 H   0  0  0  0  0  0  0  0  0  0  0  0
  132.8519  121.9951   62.1067 H   0  0  0  0  0  0  0  0  0  0  0  0
  131.9622  122.1955   60.5253 H   0  0  0  0  0  0  0  0  0  0  0  0
  132.0721  122.6536   64.2616 H   0  0  0  0  0  0  0  0  0  0  0  0
  131.4779  124.6872   65.5530 H   0  0  0  0  0  0  0  0  0  0  0  0
  128.9888  127.4883   63.2933 H   0  0  0  0  0  0  0  0  0  0  0  0
  127.5213  128.8353   62.5697 H   0  0  0  0  0  0  0  0  0  0  0  0
  126.7280  130.8549   61.3806 H   0  0  0  0  0  0  0  0  0  0  0  0
  128.6499  134.3609   62.1895 H   0  0  0  0  0  0  0  0  0  0  0  0
  127.9434  133.7449   60.6203 H   0  0  0  0  0  0  0  0  0  0  0  0
  127.0127  136.1904   62.1991 H   0  0  0  0  0  0  0  0  0  0  0  0
  127.8965  136.1837   60.6311 H   0  0  0  0  0  0  0  0  0  0  0  0
  124.8028  135.3816   62.2758 H   0  0  0  0  0  0  0  0  0  0  0  0
  124.0403  134.7637   60.7664 H   0  0  0  0  0  0  0  0  0  0  0  0
  124.7444  132.9307   62.3366 H   0  0  0  0  0  0  0  0  0  0  0  0
  125.5786  132.8762   60.7097 H   0  0  0  0  0  0  0  0  0  0  0  0
  127.8866  133.2911   64.7518 H   0  0  0  0  0  0  0  0  0  0  0  0
  128.6698  131.2689   65.9416 H   0  0  0  0  0  0  0  0  0  0  0  0
  126.9518  127.3142   69.9770 H   0  0  0  0  0  0  0  0  0  0  0  0
  127.5465  126.0422   68.8256 H   0  0  0  0  0  0  0  0  0  0  0  0
  128.9310  124.4990   69.4780 H   0  0  0  0  0  0  0  0  0  0  0  0
  131.2330  125.1352   72.1314 H   0  0  0  0  0  0  0  0  0  0  0  0
  131.8037  122.8928   73.4887 H   0  0  0  0  0  0  0  0  0  0  0  0
  1  2  3  0
  2  3  1  0
  3  4  2  0
  4  5  1  0
  5  6  2  0
  6  7  1  0
  7  8  2  0
  8  9  1  0
  9 10  1  0
 10 11  1  0
 11 12  1  0
 12 13  1  0
 13 14  1  0
  8 15  1  0
 15 16  2  0
  4 17  1  0
 17 18  2  0
 18 19  1  0
 19 20  2  0
 20 21  1  0
 21 22  2  0
 22 23  1  0
 23 24  1  0
 24 25  1  0
 25 26  1  0
 26 27  1  0
 27 28  1  0
 22 29  1  0
 29 30  2  0
 18 31  1  0
 31 32  2  0
 32 33  1  0
 33 34  1  0
 34 35  1  0
 35 36  2  0
 35 37  1  0
 37 38  1  0
 38 39  1  0
 39 40  2  0
 40 41  1  0
 41 42  1  0
 32  3  1  0
 42 38  2  0
 16  5  1  0
 30 19  1  0
 14  9  1  0
 28 23  1  0
  6 43  1  0
  7 44  1  0
 10 45  1  0
 10 46  1  0
 11 47  1  0
 11 48  1  0
 13 49  1  0
 13 50  1  0
 14 51  1  0
 14 52  1  0
 15 53  1  0
 16 54  1  0
 17 55  1  0
 20 56  1  0
 21 57  1  0
 24 58  1  0
 24 59  1  0
 25 60  1  0
 25 61  1  0
 27 62  1  0
 27 63  1  0
 28 64  1  0
 28 65  1  0
 29 66  1  0
 30 67  1  0
 34 68  1  0
 34 69  1  0
 37 70  1  0
 39 71  1  0
 40 72  1  0
M  END
>  <Binding energies>  (1) 
[-11.16]

>  <Ligand effiencies>  (1) 
[-0.25953488372093025]

>  <Interactions>  (1) 
["V-A:PRO:482:CB:4326, V-B:GLU:543:CD:9880, V-B:ALA:541:CB:9864, V-B:TYR:539:CD2:9846, V-A:PRO:482:CG:4327, V-A:LEU:475:CD1:4258, V-B:PRO:482:CB:9297, V-A:GLU:543:CD:4908, V-B:PRO:482:CG:9298, V-A:TYR:539:CD2:4874, V-B:LEU:475:CD1:9229, V-A:ALA:541:CB:4892, V-B:GLU:543:C:9874, V-B:GLY:544:C:9884, V-B:HIS:456:CE1:9040, H-B:LYS:547:NZ:9923, V-A:HIS:456:CE1:4069, V-A:HIS:456:CG:4066, V-A:HIS:456:CD2:4068, V-A:HIS:456:CB:4065, V-A:GLU:543:CB:4906, H-B:HIS:456:NE2:9041, H-A:HIS:456:NE2:4070, V-B:GLU:543:CG:9879, V-A:TYR:484:CE1:4345, V-A:TRP:381:CH2:3372, V-A:TYR:484:CZ:4347, H-A:TYR:484:OH:4348, V-B:TRP:381:CH2:8343, V-B:TYR:484:CE1:9316, H-B:GLU:543:O:9875, V-A:TYR:484:CD2:4344, V-B:TRP:381:CZ2:8341"]

$$$$
2b_Grossjean_2025
     RDKit          3D

 42 43  0  0  0  0  0  0  0  0999 V2000
  126.8930  126.9560   73.8990 C   0  0  0  0  0  0  0  0  0  0  0  0
  128.0440  126.1480   74.0970 O   0  0  0  0  0  0  0  0  0  0  0  0
  129.2290  126.4620   73.5120 C   0  0  0  0  0  0  0  0  0  0  0  0
  130.1730  126.9730   74.1220 O   0  0  0  0  0  0  0  0  0  0  0  0
  129.2750  126.1290   72.0490 C   0  0  0  0  0  0  0  0  0  0  0  0
  128.8160  127.0230   71.0700 C   0  0  0  0  0  0  0  0  0  0  0  0
  128.8710  126.6830   69.7210 C   0  0  0  0  0  0  0  0  0  0  0  0
  129.3890  125.4510   69.3230 C   0  0  0  0  0  0  0  0  0  0  0  0
  129.3920  125.2070   67.9360 N   0  0  0  0  0  0  0  0  0  0  0  0
  129.8170  125.9930   66.9240 C   0  0  0  0  0  0  0  0  0  0  0  0
  130.2750  127.1290   67.0470 O   0  0  0  0  0  0  0  0  0  0  0  0
  129.6810  125.3840   65.5240 C   0  0  0  0  0  0  0  0  0  0  0  0
  129.9680  123.5840   65.4940 S   0  0  0  0  0  0  0  0  0  0  0  0
  130.5750  123.0900   63.8860 C   0  0  0  0  0  0  0  0  0  0  0  0
  129.6590  122.5250   63.0590 N   0  0  0  0  0  0  0  0  0  0  0  0
  130.0490  122.1220   61.8290 C   0  0  0  0  0  0  0  0  0  0  0  0
  128.9690  121.4900   60.9720 C   0  0  0  0  0  0  0  0  0  0  0  0
  131.3540  122.2710   61.3690 C   0  0  0  0  0  0  0  0  0  0  0  0
  132.3160  122.8600   62.2040 C   0  0  0  0  0  0  0  0  0  0  0  0
  133.7550  123.0210   61.6780 C   0  0  0  0  0  0  0  0  0  0  0  0
  133.7780  122.8570   60.3540 F   0  0  0  0  0  0  0  0  0  0  0  0
  134.2160  124.2390   61.9700 F   0  0  0  0  0  0  0  0  0  0  0  0
  134.6020  122.1350   62.2070 F   0  0  0  0  0  0  0  0  0  0  0  0
  131.9220  123.2810   63.5000 C   0  0  0  0  0  0  0  0  0  0  0  0
  132.8870  123.8960   64.4160 C   0  0  0  0  0  0  0  0  0  0  0  0
  133.6490  124.3820   65.1390 N   0  0  0  0  0  0  0  0  0  0  0  0
  129.8420  124.5480   70.2960 C   0  0  0  0  0  0  0  0  0  0  0  0
  129.7850  124.8890   71.6440 C   0  0  0  0  0  0  0  0  0  0  0  0
  126.4775  127.2477   74.8748 H   0  0  0  0  0  0  0  0  0  0  0  0
  127.1710  127.8582   73.3344 H   0  0  0  0  0  0  0  0  0  0  0  0
  126.1390  126.3880   73.3344 H   0  0  0  0  0  0  0  0  0  0  0  0
  128.4096  128.0000   71.3705 H   0  0  0  0  0  0  0  0  0  0  0  0
  128.5033  127.3912   68.9638 H   0  0  0  0  0  0  0  0  0  0  0  0
  128.9690  124.3300   67.6690 H   0  0  0  0  0  0  0  0  0  0  0  0
  128.6644  125.5823   65.1535 H   0  0  0  0  0  0  0  0  0  0  0  0
  130.4497  125.8486   64.8889 H   0  0  0  0  0  0  0  0  0  0  0  0
  128.2021  121.0412   61.6205 H   0  0  0  0  0  0  0  0  0  0  0  0
  128.5072  122.2604   60.3370 H   0  0  0  0  0  0  0  0  0  0  0  0
  129.4144  120.7100   60.3370 H   0  0  0  0  0  0  0  0  0  0  0  0
  131.6290  121.9302   60.3599 H   0  0  0  0  0  0  0  0  0  0  0  0
  130.2427  123.5693   69.9933 H   0  0  0  0  0  0  0  0  0  0  0  0
  130.1448  124.1761   72.4005 H   0  0  0  0  0  0  0  0  0  0  0  0
  1  2  1  0
  2  3  1  0
  3  4  2  0
  3  5  1  0
  5  6  2  0
  6  7  1  0
  7  8  2  0
  8  9  1  0
  9 10  1  0
 10 11  2  0
 10 12  1  0
 12 13  1  0
 13 14  1  0
 14 15  2  0
 15 16  1  0
 16 17  1  0
 16 18  2  0
 18 19  1  0
 19 20  1  0
 20 21  1  0
 20 22  1  0
 20 23  1  0
 19 24  2  0
 24 25  1  0
 25 26  3  0
  8 27  1  0
 27 28  2  0
 28  5  1  0
 24 14  1  0
  1 29  1  0
  1 30  1  0
  1 31  1  0
  6 32  1  0
  7 33  1  0
  9 34  1  0
 12 35  1  0
 12 36  1  0
 17 37  1  0
 17 38  1  0
 17 39  1  0
 18 40  1  0
 27 41  1  0
 28 42  1  0
M  END
>  <Binding energies>  (1) 
[-7.51]

>  <Ligand effiencies>  (1) 
[-0.2589655172413793]

>  <Interactions>  (1) 
["V-B:ALA:541:CB:9864, V-B:TYR:539:CD2:9846, V-B:ALA:541:CA:9862, V-A:LEU:475:CD1:4258, V-A:ASP:366:CG:3213, V-B:GLU:543:C:9874, V-B:GLU:543:CB:9878, H-A:LYS:547:NZ:4951, V-B:HIS:456:CE1:9040, H-B:LYS:547:NZ:9923, V-A:HIS:456:CE1:4069, V-A:HIS:456:CG:4066, V-A:HIS:456:CD2:4068, H-A:HIS:456:NE2:4070, H-A:GLY:454:N:4050, V-B:GLU:543:CG:9879, V-A:TYR:484:CE1:4345, V-A:ILE:369:CD1:3239, V-A:ILE:369:CG2:3237, V-A:ILE:369:CB:3236, V-A:GLY:453:C:4042, V-A:TYR:484:CZ:4347, H-A:TYR:484:OH:4348, V-A:GLY:454:CA:4049, H-B:GLU:543:O:9875, V-B:LYS:547:CD:9921"]

$$$$
2c_Ghoteimi_2023
     RDKit          3D

 72 77  0  0  0  0  0  0  0  0999 V2000
  128.2770  127.2340   63.3300 N   0  0  0  0  0  0  0  0  0  0  0  0
  128.4560  126.9820   64.4450 C   0  0  0  0  0  0  0  0  0  0  0  0
  128.6860  126.6580   65.8560 C   0  0  0  0  0  0  0  0  0  0  0  0
  129.3570  125.4650   66.2220 C   0  0  0  0  0  0  0  0  0  0  0  0
  129.8680  124.4630   65.2400 C   0  0  0  0  0  0  0  0  0  0  0  0
  130.8320  124.8300   64.2990 C   0  0  0  0  0  0  0  0  0  0  0  0
  131.3170  123.9010   63.3820 C   0  0  0  0  0  0  0  0  0  0  0  0
  130.8400  122.5800   63.3720 C   0  0  0  0  0  0  0  0  0  0  0  0
  131.3270  121.6270   62.4750 N   0  0  0  0  0  0  0  0  0  0  0  0
  130.3730  120.8390   61.6700 C   0  0  0  0  0  0  0  0  0  0  0  0
  131.0060  119.5850   61.0300 C   0  0  0  0  0  0  0  0  0  0  0  0
  132.1390  119.9520   60.2570 O   0  0  0  0  0  0  0  0  0  0  0  0
  133.1310  120.5850   61.0500 C   0  0  0  0  0  0  0  0  0  0  0  0
  132.5550  121.8650   61.6910 C   0  0  0  0  0  0  0  0  0  0  0  0
  129.8700  122.2220   64.3180 C   0  0  0  0  0  0  0  0  0  0  0  0
  129.3870  123.1510   65.2360 C   0  0  0  0  0  0  0  0  0  0  0  0
  129.5550  125.2030   67.5840 C   0  0  0  0  0  0  0  0  0  0  0  0
  129.1240  126.1150   68.5510 C   0  0  0  0  0  0  0  0  0  0  0  0
  129.3270  125.8900   70.0150 C   0  0  0  0  0  0  0  0  0  0  0  0
  129.7520  124.6470   70.4950 C   0  0  0  0  0  0  0  0  0  0  0  0
  129.9490  124.4330   71.8570 C   0  0  0  0  0  0  0  0  0  0  0  0
  129.7160  125.4530   72.7930 C   0  0  0  0  0  0  0  0  0  0  0  0
  129.9330  125.2620   74.1610 N   0  0  0  0  0  0  0  0  0  0  0  0
  131.2090  124.6850   74.6300 C   0  0  0  0  0  0  0  0  0  0  0  0
  131.1620  124.1800   76.0880 C   0  0  0  0  0  0  0  0  0  0  0  0
  130.7330  125.2210   76.9490 O   0  0  0  0  0  0  0  0  0  0  0  0
  129.4340  125.6760   76.6070 C   0  0  0  0  0  0  0  0  0  0  0  0
  129.4260  126.2220   75.1640 C   0  0  0  0  0  0  0  0  0  0  0  0
  129.3020  126.7010   72.3060 C   0  0  0  0  0  0  0  0  0  0  0  0
  129.1070  126.9150   70.9440 C   0  0  0  0  0  0  0  0  0  0  0  0
  128.4840  127.2590   68.1980 N   0  0  0  0  0  0  0  0  0  0  0  0
  128.2520  127.5200   66.8890 C   0  0  0  0  0  0  0  0  0  0  0  0
  127.3940  129.0520   66.6100 S   0  0  0  0  0  0  0  0  0  0  0  0
  125.6180  128.7340   66.8370 C   0  0  0  0  0  0  0  0  0  0  0  0
  124.7650  129.4890   65.8170 C   0  0  0  0  0  0  0  0  0  0  0  0
  123.8430  130.2050   66.2130 O   0  0  0  0  0  0  0  0  0  0  0  0
  125.0990  129.2990   64.5230 N   0  0  0  0  0  0  0  0  0  0  0  0
  124.4950  129.8790   63.4170 C   0  0  0  0  0  0  0  0  0  0  0  0
  123.2800  130.3730   63.3260 N   0  0  0  0  0  0  0  0  0  0  0  0
  123.0390  130.8520   62.1220 C   0  0  0  0  0  0  0  0  0  0  0  0
  124.0780  130.7500   61.2010 C   0  0  0  0  0  0  0  0  0  0  0  0
  125.4380  129.9850   61.9650 S   0  0  0  0  0  0  0  0  0  0  0  0
  131.2118  125.8622   64.2819 H   0  0  0  0  0  0  0  0  0  0  0  0
  132.0844  124.2060   62.6553 H   0  0  0  0  0  0  0  0  0  0  0  0
  129.5466  120.5193   62.3217 H   0  0  0  0  0  0  0  0  0  0  0  0
  130.0269  121.4848   60.8495 H   0  0  0  0  0  0  0  0  0  0  0  0
  131.3164  118.8889   61.8231 H   0  0  0  0  0  0  0  0  0  0  0  0
  130.2653  119.1009   60.3766 H   0  0  0  0  0  0  0  0  0  0  0  0
  133.4584  119.8961   61.8425 H   0  0  0  0  0  0  0  0  0  0  0  0
  133.9865  120.8532   60.4127 H   0  0  0  0  0  0  0  0  0  0  0  0
  133.3170  122.2940   62.3583 H   0  0  0  0  0  0  0  0  0  0  0  0
  132.2890  122.5475   60.8704 H   0  0  0  0  0  0  0  0  0  0  0  0
  129.4845  121.1919   64.3356 H   0  0  0  0  0  0  0  0  0  0  0  0
  128.6200  122.8494   65.9645 H   0  0  0  0  0  0  0  0  0  0  0  0
  130.0533  124.2727   67.8943 H   0  0  0  0  0  0  0  0  0  0  0  0
  129.9334  123.8258   69.7859 H   0  0  0  0  0  0  0  0  0  0  0  0
  130.2930  123.4479   72.2053 H   0  0  0  0  0  0  0  0  0  0  0  0
  131.4682  123.8384   73.9773 H   0  0  0  0  0  0  0  0  0  0  0  0
  131.9590  125.4888   74.5918 H   0  0  0  0  0  0  0  0  0  0  0  0
  130.4596  123.3364   76.1586 H   0  0  0  0  0  0  0  0  0  0  0  0
  132.1685  123.8544   76.3895 H   0  0  0  0  0  0  0  0  0  0  0  0
  128.7237  124.8395   76.6834 H   0  0  0  0  0  0  0  0  0  0  0  0
  129.1409  126.4803   77.2978 H   0  0  0  0  0  0  0  0  0  0  0  0
  128.3918  126.4869   74.8990 H   0  0  0  0  0  0  0  0  0  0  0  0
  130.1005  127.0908   75.1460 H   0  0  0  0  0  0  0  0  0  0  0  0
  129.1281  127.5259   73.0126 H   0  0  0  0  0  0  0  0  0  0  0  0
  128.7754  127.9032   70.5925 H   0  0  0  0  0  0  0  0  0  0  0  0
  125.4334  127.6554   66.7251 H   0  0  0  0  0  0  0  0  0  0  0  0
  125.3361  129.0844   67.8409 H   0  0  0  0  0  0  0  0  0  0  0  0
  125.8830  128.6940   64.3270 H   0  0  0  0  0  0  0  0  0  0  0  0
  122.0722  131.3064   61.8598 H   0  0  0  0  0  0  0  0  0  0  0  0
  124.0435  131.0976   60.1579 H   0  0  0  0  0  0  0  0  0  0  0  0
  1  2  3  0
  2  3  1  0
  3  4  2  0
  4  5  1  0
  5  6  2  0
  6  7  1  0
  7  8  2  0
  8  9  1  0
  9 10  1  0
 10 11  1  0
 11 12  1  0
 12 13  1  0
 13 14  1  0
  8 15  1  0
 15 16  2  0
  4 17  1  0
 17 18  2  0
 18 19  1  0
 19 20  2  0
 20 21  1  0
 21 22  2  0
 22 23  1  0
 23 24  1  0
 24 25  1  0
 25 26  1  0
 26 27  1  0
 27 28  1  0
 22 29  1  0
 29 30  2  0
 18 31  1  0
 31 32  2  0
 32 33  1  0
 33 34  1  0
 34 35  1  0
 35 36  2  0
 35 37  1  0
 37 38  1  0
 38 39  2  0
 39 40  1  0
 40 41  2  0
 41 42  1  0
 32  3  1  0
 42 38  1  0
 16  5  1  0
 30 19  1  0
 14  9  1  0
 28 23  1  0
  6 43  1  0
  7 44  1  0
 10 45  1  0
 10 46  1  0
 11 47  1  0
 11 48  1  0
 13 49  1  0
 13 50  1  0
 14 51  1  0
 14 52  1  0
 15 53  1  0
 16 54  1  0
 17 55  1  0
 20 56  1  0
 21 57  1  0
 24 58  1  0
 24 59  1  0
 25 60  1  0
 25 61  1  0
 27 62  1  0
 27 63  1  0
 28 64  1  0
 28 65  1  0
 29 66  1  0
 30 67  1  0
 34 68  1  0
 34 69  1  0
 37 70  1  0
 40 71  1  0
 41 72  1  0
M  END
>  <Binding energies>  (1) 
[-10.68]

>  <Ligand effiencies>  (1) 
[-0.2483720930232558]

>  <Interactions>  (1) 
["V-B:GLU:543:CD:9880, V-B:ALA:541:CB:9864, V-B:TYR:539:CD2:9846, V-B:ASP:366:CG:8184, V-A:PRO:482:CG:4327, V-A:LEU:475:CD1:4258, V-B:GLU:543:C:9874, V-B:GLU:543:CB:9878, V-B:HIS:456:CE1:9040, V-B:ARG:545:CG:9894, V-A:HIS:456:CE1:4069, V-A:HIS:456:CG:4066, V-A:HIS:456:CD2:4068, H-B:GLU:543:OE1:9881, H-B:TYR:484:OH:9319, H-B:GLY:454:N:9021, V-B:ILE:369:CD1:8210, V-B:ARG:545:CD:9895, V-B:ARG:545:CZ:9898, V-B:GLU:543:CG:9879, V-A:TRP:381:CZ2:3370, V-A:TYR:484:CE1:4345, H-B:ARG:545:NH2:9900, H-B:ILE:455:N:9026, V-B:GLU:543:CA:9876, V-A:ILE:369:CD1:3239, V-A:TRP:381:CH2:3372, V-A:ILE:369:CG2:3237, H-B:ARG:545:NH1:9899, V-A:TYR:484:CZ:4347"]

$$$$
2c_Grossjean_2025
     RDKit          3D

 40 41  0  0  0  0  0  0  0  0999 V2000
  129.3460  127.3560   67.1940 C   0  0  0  0  0  0  0  0  0  0  0  0
  128.4030  128.3730   67.5180 O   0  0  0  0  0  0  0  0  0  0  0  0
  127.6020  128.8910   66.5190 C   0  0  0  0  0  0  0  0  0  0  0  0
  128.2400  129.6550   65.5430 C   0  0  0  0  0  0  0  0  0  0  0  0
  127.5160  130.2200   64.4960 C   0  0  0  0  0  0  0  0  0  0  0  0
  126.1280  130.0320   64.4230 C   0  0  0  0  0  0  0  0  0  0  0  0
  125.3170  130.5470   63.3960 N   0  0  0  0  0  0  0  0  0  0  0  0
  123.9700  130.5360   63.3000 C   0  0  0  0  0  0  0  0  0  0  0  0
  123.2140  129.9990   64.1120 O   0  0  0  0  0  0  0  0  0  0  0  0
  123.4050  131.2240   62.0490 C   0  0  0  0  0  0  0  0  0  0  0  0
  124.4380  131.0950   60.5470 S   0  0  0  0  0  0  0  0  0  0  0  0
  125.9800  131.9610   60.8110 C   0  0  0  0  0  0  0  0  0  0  0  0
  127.0870  131.1780   60.8910 N   0  0  0  0  0  0  0  0  0  0  0  0
  128.2870  131.7630   61.0990 C   0  0  0  0  0  0  0  0  0  0  0  0
  129.4710  130.8200   61.1940 C   0  0  0  0  0  0  0  0  0  0  0  0
  128.4380  133.1420   61.2260 C   0  0  0  0  0  0  0  0  0  0  0  0
  127.3110  133.9700   61.1390 C   0  0  0  0  0  0  0  0  0  0  0  0
  127.4950  135.4940   61.2790 C   0  0  0  0  0  0  0  0  0  0  0  0
  128.7920  135.7900   61.3760 F   0  0  0  0  0  0  0  0  0  0  0  0
  126.9870  136.1170   60.2150 F   0  0  0  0  0  0  0  0  0  0  0  0
  126.8890  135.9890   62.3610 F   0  0  0  0  0  0  0  0  0  0  0  0
  126.0440  133.3700   60.9260 C   0  0  0  0  0  0  0  0  0  0  0  0
  124.8300  134.1870   60.8290 C   0  0  0  0  0  0  0  0  0  0  0  0
  123.8730  134.8330   60.7520 N   0  0  0  0  0  0  0  0  0  0  0  0
  125.4870  129.2550   65.3890 C   0  0  0  0  0  0  0  0  0  0  0  0
  126.2150  128.6910   66.4330 C   0  0  0  0  0  0  0  0  0  0  0  0
  129.7492  126.9212   68.1205 H   0  0  0  0  0  0  0  0  0  0  0  0
  128.8500  126.5700   66.6056 H   0  0  0  0  0  0  0  0  0  0  0  0
  130.1672  127.7913   66.6056 H   0  0  0  0  0  0  0  0  0  0  0  0
  129.3270  129.8133   65.6004 H   0  0  0  0  0  0  0  0  0  0  0  0
  128.0323  130.8132   63.7269 H   0  0  0  0  0  0  0  0  0  0  0  0
  125.8220  130.9160   62.6040 H   0  0  0  0  0  0  0  0  0  0  0  0
  122.4263  130.7735   61.8271 H   0  0  0  0  0  0  0  0  0  0  0  0
  123.3547  132.2961   62.2902 H   0  0  0  0  0  0  0  0  0  0  0  0
  129.7064  130.6325   62.2520 H   0  0  0  0  0  0  0  0  0  0  0  0
  129.2231  129.8692   60.6994 H   0  0  0  0  0  0  0  0  0  0  0  0
  130.3422  131.2743   60.6994 H   0  0  0  0  0  0  0  0  0  0  0  0
  129.4342  133.5775   61.3933 H   0  0  0  0  0  0  0  0  0  0  0  0
  124.4017  129.0875   65.3252 H   0  0  0  0  0  0  0  0  0  0  0  0
  125.7010  128.0857   67.1942 H   0  0  0  0  0  0  0  0  0  0  0  0
  1  2  1  0
  2  3  1  0
  3  4  2  0
  4  5  1  0
  5  6  2  0
  6  7  1  0
  7  8  1  0
  8  9  2  0
  8 10  1  0
 10 11  1  0
 11 12  1  0
 12 13  2  0
 13 14  1  0
 14 15  1  0
 14 16  2  0
 16 17  1  0
 17 18  1  0
 18 19  1  0
 18 20  1  0
 18 21  1  0
 17 22  2  0
 22 23  1  0
 23 24  3  0
  6 25  1  0
 25 26  2  0
 26  3  1  0
 22 12  1  0
  1 27  1  0
  1 28  1  0
  1 29  1  0
  4 30  1  0
  5 31  1  0
  7 32  1  0
 10 33  1  0
 10 34  1  0
 15 35  1  0
 15 36  1  0
 15 37  1  0
 16 38  1  0
 25 39  1  0
 26 40  1  0
M  END
>  <Binding energies>  (1) 
[-5.92]

>  <Ligand effiencies>  (1) 
[-0.21925925925925926]

>  <Interactions>  (1) 
["V-A:TYR:539:C:4867, V-B:PRO:482:CB:9297, V-A:GLU:543:CD:4908, V-A:TYR:539:CE2:4876, V-A:PRO:540:C:4881, V-B:PRO:482:CG:9298, V-A:PRO:540:CA:4883, V-A:TYR:539:CD2:4874, V-B:LEU:475:CD1:9229, V-A:ALA:541:CB:4892, V-B:HIS:456:CE1:9040, V-A:HIS:456:CE1:4069, H-B:ARG:545:NE:9896, V-A:GLU:543:CB:4906, H-B:GLY:454:N:9021, V-B:ILE:369:CD1:8210, V-B:ILE:369:CG2:8208, V-B:ARG:545:CZ:9898, H-B:ARG:545:NH2:9900, H-B:ARG:545:NH1:9899, V-B:TRP:381:CH2:8343, V-A:TYR:539:CG:4872, V-A:GLU:543:CG:4907, V-B:TRP:381:CZ2:8341, V-A:ALA:541:CA:4890, V-B:TRP:381:CZ3:8342, V-A:TYR:539:CB:4871, V-B:PRO:482:CD:9299"]

$$$$
2d_Ghoteimi_2023
     RDKit          3D

 68 72  0  0  0  0  0  0  0  0999 V2000
  126.2670  134.2310   61.2680 C   0  0  0  0  0  0  0  0  0  0  0  0
  125.2560  133.3840   60.7430 O   0  0  0  0  0  0  0  0  0  0  0  0
  124.1440  133.1190   61.4590 C   0  0  0  0  0  0  0  0  0  0  0  0
  123.4320  133.9610   62.0140 O   0  0  0  0  0  0  0  0  0  0  0  0
  123.8510  131.6120   61.4980 C   0  0  0  0  0  0  0  0  0  0  0  0
  123.7450  131.0040   63.2160 S   0  0  0  0  0  0  0  0  0  0  0  0
  125.3420  130.3720   63.6870 C   0  0  0  0  0  0  0  0  0  0  0  0
  126.2960  130.5720   62.7450 N   0  0  0  0  0  0  0  0  0  0  0  0
  127.5610  130.1350   62.9670 C   0  0  0  0  0  0  0  0  0  0  0  0
  128.5530  130.3760   61.8760 C   0  0  0  0  0  0  0  0  0  0  0  0
  129.3060  129.3200   61.3510 C   0  0  0  0  0  0  0  0  0  0  0  0
  130.2320  129.5370   60.3350 C   0  0  0  0  0  0  0  0  0  0  0  0
  130.4320  130.8180   59.7980 C   0  0  0  0  0  0  0  0  0  0  0  0
  131.3720  131.0570   58.7890 N   0  0  0  0  0  0  0  0  0  0  0  0
  132.4400  130.0850   58.4830 C   0  0  0  0  0  0  0  0  0  0  0  0
  133.5800  130.6700   57.6230 C   0  0  0  0  0  0  0  0  0  0  0  0
  133.0490  131.2280   56.4320 O   0  0  0  0  0  0  0  0  0  0  0  0
  132.1350  132.2760   56.7100 C   0  0  0  0  0  0  0  0  0  0  0  0
  130.9540  131.7410   57.5480 C   0  0  0  0  0  0  0  0  0  0  0  0
  129.6850  131.8760   60.3360 C   0  0  0  0  0  0  0  0  0  0  0  0
  128.7610  131.6590   61.3540 C   0  0  0  0  0  0  0  0  0  0  0  0
  127.9000  129.4830   64.1560 C   0  0  0  0  0  0  0  0  0  0  0  0
  126.9420  129.2930   65.1590 C   0  0  0  0  0  0  0  0  0  0  0  0
  127.3820  128.6140   66.4140 C   0  0  0  0  0  0  0  0  0  0  0  0
  128.5800  128.9830   67.0300 C   0  0  0  0  0  0  0  0  0  0  0  0
  128.9930  128.3660   68.2060 C   0  0  0  0  0  0  0  0  0  0  0  0
  128.2200  127.3550   68.8000 C   0  0  0  0  0  0  0  0  0  0  0  0
  128.6100  126.7300   69.9880 N   0  0  0  0  0  0  0  0  0  0  0  0
  129.1080  125.3410   69.9990 C   0  0  0  0  0  0  0  0  0  0  0  0
  129.8170  124.9510   71.3140 C   0  0  0  0  0  0  0  0  0  0  0  0
  128.9580  125.1910   72.4180 O   0  0  0  0  0  0  0  0  0  0  0  0
  128.5850  126.5570   72.5060 C   0  0  0  0  0  0  0  0  0  0  0  0
  127.8420  126.9860   71.2220 C   0  0  0  0  0  0  0  0  0  0  0  0
  127.0110  127.0030   68.1850 C   0  0  0  0  0  0  0  0  0  0  0  0
  126.5970  127.6220   67.0090 C   0  0  0  0  0  0  0  0  0  0  0  0
  125.6210  129.7530   64.9280 C   0  0  0  0  0  0  0  0  0  0  0  0
  124.5880  129.5950   65.9550 C   0  0  0  0  0  0  0  0  0  0  0  0
  123.7750  129.4680   66.7700 N   0  0  0  0  0  0  0  0  0  0  0  0
  126.2341  134.2035   62.3672 H   0  0  0  0  0  0  0  0  0  0  0  0
  127.2519  133.8845   60.9218 H   0  0  0  0  0  0  0  0  0  0  0  0
  126.0984  135.2614   60.9218 H   0  0  0  0  0  0  0  0  0  0  0  0
  122.8948  131.4192   60.9896 H   0  0  0  0  0  0  0  0  0  0  0  0
  124.6729  131.0843   60.9920 H   0  0  0  0  0  0  0  0  0  0  0  0
  129.1640  128.3036   61.7470 H   0  0  0  0  0  0  0  0  0  0  0  0
  130.8169  128.6903   59.9464 H   0  0  0  0  0  0  0  0  0  0  0  0
  132.8679  129.7284   59.4316 H   0  0  0  0  0  0  0  0  0  0  0  0
  131.9801  129.2734   57.9001 H   0  0  0  0  0  0  0  0  0  0  0  0
  134.1009  131.4539   58.1923 H   0  0  0  0  0  0  0  0  0  0  0  0
  134.2861  129.8675   57.3634 H   0  0  0  0  0  0  0  0  0  0  0  0
  132.6504  133.0688   57.2721 H   0  0  0  0  0  0  0  0  0  0  0  0
  131.7502  132.6794   55.7617 H   0  0  0  0  0  0  0  0  0  0  0  0
  130.3075  132.5887   57.8189 H   0  0  0  0  0  0  0  0  0  0  0  0
  130.4305  130.9968   56.9298 H   0  0  0  0  0  0  0  0  0  0  0  0
  129.8318  132.8944   59.9469 H   0  0  0  0  0  0  0  0  0  0  0  0
  128.1860  132.5070   61.7542 H   0  0  0  0  0  0  0  0  0  0  0  0
  128.9265  129.1167   64.3046 H   0  0  0  0  0  0  0  0  0  0  0  0
  129.2034  129.7699   66.5803 H   0  0  0  0  0  0  0  0  0  0  0  0
  129.9380  128.6740   68.6773 H   0  0  0  0  0  0  0  0  0  0  0  0
  128.2541  124.6638   69.8498 H   0  0  0  0  0  0  0  0  0  0  0  0
  129.8523  125.2579   69.1933 H   0  0  0  0  0  0  0  0  0  0  0  0
  130.0808  123.8836   71.2830 H   0  0  0  0  0  0  0  0  0  0  0  0
  130.7280  125.5572   71.4267 H   0  0  0  0  0  0  0  0  0  0  0  0
  127.9241  126.6989   73.3738 H   0  0  0  0  0  0  0  0  0  0  0  0
  129.4900  127.1714   72.6216 H   0  0  0  0  0  0  0  0  0  0  0  0
  126.8946  126.4300   71.1649 H   0  0  0  0  0  0  0  0  0  0  0  0
  127.6827  128.0725   71.2862 H   0  0  0  0  0  0  0  0  0  0  0  0
  126.3792  126.2252   68.6388 H   0  0  0  0  0  0  0  0  0  0  0  0
  125.6444  127.3282   66.5440 H   0  0  0  0  0  0  0  0  0  0  0  0
  1  2  1  0
  2  3  1  0
  3  4  2  0
  3  5  1  0
  5  6  1  0
  6  7  1  0
  7  8  2  0
  8  9  1  0
  9 10  1  0
 10 11  2  0
 11 12  1  0
 12 13  2  0
 13 14  1  0
 14 15  1  0
 15 16  1  0
 16 17  1  0
 17 18  1  0
 18 19  1  0
 13 20  1  0
 20 21  2  0
  9 22  2  0
 22 23  1  0
 23 24  1  0
 24 25  2  0
 25 26  1  0
 26 27  2  0
 27 28  1  0
 28 29  1  0
 29 30  1  0
 30 31  1  0
 31 32  1  0
 32 33  1  0
 27 34  1  0
 34 35  2  0
 23 36  2  0
 36 37  1  0
 37 38  3  0
 36  7  1  0
 21 10  1  0
 35 24  1  0
 19 14  1  0
 33 28  1  0
  1 39  1  0
  1 40  1  0
  1 41  1  0
  5 42  1  0
  5 43  1  0
 11 44  1  0
 12 45  1  0
 15 46  1  0
 15 47  1  0
 16 48  1  0
 16 49  1  0
 18 50  1  0
 18 51  1  0
 19 52  1  0
 19 53  1  0
 20 54  1  0
 21 55  1  0
 22 56  1  0
 25 57  1  0
 26 58  1  0
 29 59  1  0
 29 60  1  0
 30 61  1  0
 30 62  1  0
 32 63  1  0
 32 64  1  0
 33 65  1  0
 33 66  1  0
 34 67  1  0
 35 68  1  0
M  END
>  <Binding energies>  (1) 
[-9.1]

>  <Ligand effiencies>  (1) 
[-0.2394736842105263]

>  <Interactions>  (1) 
["V-A:PRO:540:CD:4887, V-A:PRO:540:N:4884, V-A:ASP:366:CB:3212, V-A:PRO:540:CG:4886, V-A:ASP:366:CG:3213, V-A:LEU:363:CD1:3189, V-A:GLU:543:CD:4908, V-A:TYR:539:CE2:4876, V-A:PRO:540:CB:4885, V-A:PRO:540:CA:4883, V-A:TYR:539:CD2:4874, V-B:LEU:475:CD1:9229, V-B:GLU:543:C:9874, V-B:GLU:543:CB:9878, V-B:HIS:456:CE1:9040, V-B:ARG:545:CG:9894, H-B:LYS:547:NZ:9923, V-A:HIS:456:CE1:4069, V-A:HIS:456:CG:4066, V-A:HIS:456:CD2:4068, H-B:TYR:484:OH:9319, H-B:ARG:545:NE:9896, V-A:GLU:543:CB:4906, H-B:GLY:454:N:9021, V-B:ILE:369:CD1:8210, V-B:ARG:545:CD:9895, V-B:ILE:369:CG2:8208, V-B:ARG:545:CZ:9898, H-B:ILE:455:N:9026, V-A:GLU:543:CG:4907, V-A:LEU:363:CA:3185, V-A:LEU:363:CB:3187"]

$$$$
2d_Grossjean_2025
     RDKit          3D

 36 37  0  0  0  0  0  0  0  0999 V2000
  129.1410  130.6640   61.3420 C   0  0  0  0  0  0  0  0  0  0  0  0
  128.0300  131.6870   61.2050 C   0  0  0  0  0  0  0  0  0  0  0  0
  128.2740  133.0520   61.3370 C   0  0  0  0  0  0  0  0  0  0  0  0
  127.2140  133.9590   61.1960 C   0  0  0  0  0  0  0  0  0  0  0  0
  127.5050  135.4660   61.3360 C   0  0  0  0  0  0  0  0  0  0  0  0
  128.8210  135.6710   61.4120 F   0  0  0  0  0  0  0  0  0  0  0  0
  127.0270  136.1240   60.2780 F   0  0  0  0  0  0  0  0  0  0  0  0
  126.9510  136.0010   62.4250 F   0  0  0  0  0  0  0  0  0  0  0  0
  125.9170  133.4510   60.9290 C   0  0  0  0  0  0  0  0  0  0  0  0
  124.7850  134.3590   60.7280 C   0  0  0  0  0  0  0  0  0  0  0  0
  123.8920  135.0770   60.5680 N   0  0  0  0  0  0  0  0  0  0  0  0
  125.7590  132.0480   60.8370 C   0  0  0  0  0  0  0  0  0  0  0  0
  124.1980  131.2400   60.5380 S   0  0  0  0  0  0  0  0  0  0  0  0
  123.1710  131.3760   62.0390 C   0  0  0  0  0  0  0  0  0  0  0  0
  123.7640  130.6340   63.2400 C   0  0  0  0  0  0  0  0  0  0  0  0
  123.0120  130.0000   63.9820 O   0  0  0  0  0  0  0  0  0  0  0  0
  125.0970  130.7640   63.4070 N   0  0  0  0  0  0  0  0  0  0  0  0
  125.9270  130.2080   64.3990 C   0  0  0  0  0  0  0  0  0  0  0  0
  127.2650  130.6080   64.3730 C   0  0  0  0  0  0  0  0  0  0  0  0
  128.1650  130.1080   65.3100 C   0  0  0  0  0  0  0  0  0  0  0  0
  127.7270  129.1980   66.2700 C   0  0  0  0  0  0  0  0  0  0  0  0
  126.3990  128.7820   66.2980 C   0  0  0  0  0  0  0  0  0  0  0  0
  125.4960  129.2810   65.3630 C   0  0  0  0  0  0  0  0  0  0  0  0
  126.7980  131.1860   60.9540 N   0  0  0  0  0  0  0  0  0  0  0  0
  129.3407  130.4801   62.4080 H   0  0  0  0  0  0  0  0  0  0  0  0
  128.8357  129.7242   60.8587 H   0  0  0  0  0  0  0  0  0  0  0  0
  130.0525  131.0456   60.8587 H   0  0  0  0  0  0  0  0  0  0  0  0
  129.2901  133.4155   61.5501 H   0  0  0  0  0  0  0  0  0  0  0  0
  123.0703  132.4400   62.2994 H   0  0  0  0  0  0  0  0  0  0  0  0
  122.1983  130.9138   61.8147 H   0  0  0  0  0  0  0  0  0  0  0  0
  125.5690  131.3890   62.7700 H   0  0  0  0  0  0  0  0  0  0  0  0
  127.6089  131.3209   63.6091 H   0  0  0  0  0  0  0  0  0  0  0  0
  129.2168  130.4297   65.2926 H   0  0  0  0  0  0  0  0  0  0  0  0
  128.4371  128.8048   67.0124 H   0  0  0  0  0  0  0  0  0  0  0  0
  126.0635  128.0604   67.0574 H   0  0  0  0  0  0  0  0  0  0  0  0
  124.4471  128.9501   65.3790 H   0  0  0  0  0  0  0  0  0  0  0  0
  1  2  1  0
  2  3  2  0
  3  4  1  0
  4  5  1  0
  5  6  1  0
  5  7  1  0
  5  8  1  0
  4  9  2  0
  9 10  1  0
 10 11  3  0
  9 12  1  0
 12 13  1  0
 13 14  1  0
 14 15  1  0
 15 16  2  0
 15 17  1  0
 17 18  1  0
 18 19  2  0
 19 20  1  0
 20 21  2  0
 21 22  1  0
 22 23  2  0
 12 24  2  0
 24  2  1  0
 23 18  1  0
  1 25  1  0
  1 26  1  0
  1 27  1  0
  3 28  1  0
 14 29  1  0
 14 30  1  0
 17 31  1  0
 19 32  1  0
 20 33  1  0
 21 34  1  0
 22 35  1  0
 23 36  1  0
M  END
>  <Binding energies>  (1) 
[-5.85]

>  <Ligand effiencies>  (1) 
[-0.23399999999999999]

>  <Interactions>  (1) 
["V-A:TYR:539:C:4867, V-B:PRO:482:CB:9297, V-A:GLU:543:CD:4908, V-A:TYR:539:CE2:4876, V-A:PRO:540:C:4881, V-B:PRO:482:CG:9298, V-A:PRO:540:CA:4883, V-A:TYR:539:CD2:4874, V-B:LEU:475:CD1:9229, V-A:ALA:541:CB:4892, V-B:HIS:456:CE1:9040, H-B:ARG:545:NE:9896, V-A:GLU:543:CB:4906, H-B:GLY:454:N:9021, V-B:ILE:369:CD1:8210, V-B:ILE:369:CG2:8208, V-B:ARG:545:CZ:9898, V-B:GLY:454:CA:9020, H-B:ARG:545:NH2:9900, H-B:ARG:545:NH1:9899, V-B:TRP:381:CH2:8343, V-A:TYR:539:CG:4872, V-B:TRP:381:CZ2:8341, V-A:ALA:541:CA:4890, V-B:LEU:475:CG:9228, V-B:TRP:381:CZ3:8342"]

$$$$
2e_Grossjean_2025
     RDKit          3D

 38 39  0  0  0  0  0  0  0  0999 V2000
  123.0470  133.6930   62.4970 C   0  0  0  0  0  0  0  0  0  0  0  0
  123.6340  132.3160   62.2530 C   0  0  0  0  0  0  0  0  0  0  0  0
  123.7600  131.7920   60.9650 C   0  0  0  0  0  0  0  0  0  0  0  0
  124.3200  130.5220   60.8160 C   0  0  0  0  0  0  0  0  0  0  0  0
  124.7370  129.8150   61.9470 C   0  0  0  0  0  0  0  0  0  0  0  0
  124.5730  130.3960   63.2100 C   0  0  0  0  0  0  0  0  0  0  0  0
  125.0480  129.6600   64.3090 N   0  0  0  0  0  0  0  0  0  0  0  0
  124.6170  129.7010   65.5890 C   0  0  0  0  0  0  0  0  0  0  0  0
  123.6580  130.3630   65.9910 O   0  0  0  0  0  0  0  0  0  0  0  0
  125.4360  128.8860   66.5940 C   0  0  0  0  0  0  0  0  0  0  0  0
  127.1840  129.3950   66.6250 S   0  0  0  0  0  0  0  0  0  0  0  0
  128.0540  128.1670   65.6750 C   0  0  0  0  0  0  0  0  0  0  0  0
  127.7080  128.1170   64.3650 N   0  0  0  0  0  0  0  0  0  0  0  0
  128.2880  127.1820   63.5800 C   0  0  0  0  0  0  0  0  0  0  0  0
  127.8570  127.1830   62.1260 C   0  0  0  0  0  0  0  0  0  0  0  0
  129.2200  126.2650   64.0640 C   0  0  0  0  0  0  0  0  0  0  0  0
  129.5810  126.2970   65.4190 C   0  0  0  0  0  0  0  0  0  0  0  0
  130.5960  125.2650   65.9430 C   0  0  0  0  0  0  0  0  0  0  0  0
  130.1260  124.6790   67.0450 F   0  0  0  0  0  0  0  0  0  0  0  0
  130.8160  124.3310   65.0170 F   0  0  0  0  0  0  0  0  0  0  0  0
  131.7740  125.8110   66.2520 F   0  0  0  0  0  0  0  0  0  0  0  0
  128.9860  127.2750   66.2540 C   0  0  0  0  0  0  0  0  0  0  0  0
  129.2990  127.3420   67.6850 C   0  0  0  0  0  0  0  0  0  0  0  0
  129.5460  127.3940   68.8150 N   0  0  0  0  0  0  0  0  0  0  0  0
  124.0330  131.6410   63.3620 N   0  0  0  0  0  0  0  0  0  0  0  0
  122.9705  133.8724   63.5796 H   0  0  0  0  0  0  0  0  0  0  0  0
  123.6986  134.4549   62.0442 H   0  0  0  0  0  0  0  0  0  0  0  0
  122.0462  133.7504   62.0442 H   0  0  0  0  0  0  0  0  0  0  0  0
  123.4259  132.3663   60.0884 H   0  0  0  0  0  0  0  0  0  0  0  0
  124.4323  130.0806   59.8147 H   0  0  0  0  0  0  0  0  0  0  0  0
  125.1875  128.8166   61.8463 H   0  0  0  0  0  0  0  0  0  0  0  0
  125.7760  128.9950   64.0930 H   0  0  0  0  0  0  0  0  0  0  0  0
  125.0077  129.0264   67.5974 H   0  0  0  0  0  0  0  0  0  0  0  0
  125.3957  127.8304   66.2873 H   0  0  0  0  0  0  0  0  0  0  0  0
  126.7585  127.1855   62.0692 H   0  0  0  0  0  0  0  0  0  0  0  0
  128.2520  128.0802   61.6271 H   0  0  0  0  0  0  0  0  0  0  0  0
  128.2479  126.2839   61.6271 H   0  0  0  0  0  0  0  0  0  0  0  0
  129.6688  125.5220   63.3883 H   0  0  0  0  0  0  0  0  0  0  0  0
  1  2  1  0
  2  3  2  0
  3  4  1  0
  4  5  2  0
  5  6  1  0
  6  7  1  0
  7  8  1  0
  8  9  2  0
  8 10  1  0
 10 11  1  0
 11 12  1  0
 12 13  2  0
 13 14  1  0
 14 15  1  0
 14 16  2  0
 16 17  1  0
 17 18  1  0
 18 19  1  0
 18 20  1  0
 18 21  1  0
 17 22  2  0
 22 23  1  0
 23 24  3  0
  6 25  2  0
 25  2  1  0
 22 12  1  0
  1 26  1  0
  1 27  1  0
  1 28  1  0
  3 29  1  0
  4 30  1  0
  5 31  1  0
  7 32  1  0
 10 33  1  0
 10 34  1  0
 15 35  1  0
 15 36  1  0
 15 37  1  0
 16 38  1  0
M  END
>  <Binding energies>  (1) 
[-6.11]

>  <Ligand effiencies>  (1) 
[-0.23500000000000001]

>  <Interactions>  (1) 
["V-B:GLU:543:CD:9880, V-B:ASP:366:CG:8184, V-A:GLU:543:CD:4908, V-B:LEU:475:CD1:9229, V-B:HIS:456:CE1:9040, V-B:ARG:545:CG:9894, V-A:HIS:456:CE1:4069, H-B:GLU:543:OE1:9881, H-B:TYR:484:OH:9319, H-B:GLY:454:N:9021, H-A:HIS:456:NE2:4070, V-B:ILE:369:CD1:8210, V-B:ARG:545:CD:9895, V-B:ILE:369:CG2:8208, V-B:ARG:545:CZ:9898, V-B:GLU:543:CG:9879, V-B:GLY:454:CA:9020, V-A:TYR:484:CE1:4345, H-B:ILE:455:N:9026, V-A:TYR:484:CZ:4347"]

$$$$
2f_Grossjean_2025
     RDKit          3D

 35 36  0  0  0  0  0  0  0  0999 V2000
  129.7370  132.3860   60.1230 C   0  0  0  0  0  0  0  0  0  0  0  0
  128.2320  132.2350   60.0110 C   0  0  0  0  0  0  0  0  0  0  0  0
  127.3640  133.2360   60.4410 C   0  0  0  0  0  0  0  0  0  0  0  0
  125.9780  133.0450   60.3230 C   0  0  0  0  0  0  0  0  0  0  0  0
  125.0350  134.1590   60.8160 C   0  0  0  0  0  0  0  0  0  0  0  0
  124.2620  133.7020   61.8030 F   0  0  0  0  0  0  0  0  0  0  0  0
  125.7470  135.1920   61.2680 F   0  0  0  0  0  0  0  0  0  0  0  0
  124.2280  134.6160   59.8560 F   0  0  0  0  0  0  0  0  0  0  0  0
  125.5060  131.8330   59.7590 C   0  0  0  0  0  0  0  0  0  0  0  0
  124.0690  131.5630   59.6670 C   0  0  0  0  0  0  0  0  0  0  0  0
  122.9330  131.3510   59.5940 N   0  0  0  0  0  0  0  0  0  0  0  0
  126.4620  130.8830   59.3250 C   0  0  0  0  0  0  0  0  0  0  0  0
  126.0500  129.3160   58.5850 S   0  0  0  0  0  0  0  0  0  0  0  0
  125.5290  129.6240   56.8630 C   0  0  0  0  0  0  0  0  0  0  0  0
  126.6030  130.2450   55.9590 C   0  0  0  0  0  0  0  0  0  0  0  0
  126.3750  130.4550   54.7670 O   0  0  0  0  0  0  0  0  0  0  0  0
  127.7740  130.5060   56.5780 N   0  0  0  0  0  0  0  0  0  0  0  0
  128.9520  131.0760   56.0610 C   0  0  0  0  0  0  0  0  0  0  0  0
  129.7600  130.5120   55.0570 C   0  0  0  0  0  0  0  0  0  0  0  0
  130.9050  131.1870   54.6290 C   0  0  0  0  0  0  0  0  0  0  0  0
  131.2120  132.4150   55.2140 C   0  0  0  0  0  0  0  0  0  0  0  0
  130.4460  132.9860   56.1780 N   0  0  0  0  0  0  0  0  0  0  0  0
  129.3360  132.3170   56.5820 C   0  0  0  0  0  0  0  0  0  0  0  0
  127.7960  131.0750   59.4680 N   0  0  0  0  0  0  0  0  0  0  0  0
  130.0246  132.4149   61.1843 H   0  0  0  0  0  0  0  0  0  0  0  0
  130.2286  131.5327   59.6329 H   0  0  0  0  0  0  0  0  0  0  0  0
  130.0493  133.3200   59.6329 H   0  0  0  0  0  0  0  0  0  0  0  0
  127.7610  134.1681   60.8694 H   0  0  0  0  0  0  0  0  0  0  0  0
  125.2260  128.6631   56.4216 H   0  0  0  0  0  0  0  0  0  0  0  0
  124.7118  130.3584   56.9169 H   0  0  0  0  0  0  0  0  0  0  0  0
  127.8390  130.2270   57.5470 H   0  0  0  0  0  0  0  0  0  0  0  0
  129.4909  129.5432   54.6109 H   0  0  0  0  0  0  0  0  0  0  0  0
  131.5505  130.7595   53.8476 H   0  0  0  0  0  0  0  0  0  0  0  0
  132.1159  132.9449   54.8790 H   0  0  0  0  0  0  0  0  0  0  0  0
  128.7057  132.7739   57.3591 H   0  0  0  0  0  0  0  0  0  0  0  0
  1  2  1  0
  2  3  2  0
  3  4  1  0
  4  5  1  0
  5  6  1  0
  5  7  1  0
  5  8  1  0
  4  9  2  0
  9 10  1  0
 10 11  3  0
  9 12  1  0
 12 13  1  0
 13 14  1  0
 14 15  1  0
 15 16  2  0
 15 17  1  0
 17 18  1  0
 18 19  2  0
 19 20  1  0
 20 21  2  0
 21 22  1  0
 22 23  2  0
 12 24  2  0
 24  2  1  0
 23 18  1  0
  1 25  1  0
  1 26  1  0
  1 27  1  0
  3 28  1  0
 14 29  1  0
 14 30  1  0
 17 31  1  0
 19 32  1  0
 20 33  1  0
 21 34  1  0
 23 35  1  0
M  END
>  <Binding energies>  (1) 
[-5.93]

>  <Ligand effiencies>  (1) 
[-0.2372]

>  <Interactions>  (1) 
["V-A:PRO:540:N:4884, V-A:TYR:539:C:4867, V-A:TYR:531:CE2:4793, V-A:ILE:538:CD1:4865, V-A:TYR:531:CZ:4794, V-A:ILE:538:CA:4860, V-A:TYR:539:CE2:4876, V-A:PRO:540:C:4881, V-A:PRO:540:CA:4883, V-A:TYR:539:CD2:4874, V-B:LEU:475:CD1:9229, V-B:TYR:531:CZ:9766, V-B:ILE:369:CG2:8208, V-B:TRP:381:CH2:8343, V-A:TYR:539:CE1:4875, V-A:TYR:539:CD1:4873, V-A:TYR:539:CZ:4877, H-A:TYR:539:N:4870, V-A:TYR:539:CG:4872, H-A:TYR:539:OH:4878, H-B:TYR:531:OH:9767, V-B:TRP:381:CZ2:8341"]

$$$$
2g_Grossjean_2025
     RDKit          3D

 39 40  0  0  0  0  0  0  0  0999 V2000
  133.5110  126.2330   75.5430 C   0  0  0  0  0  0  0  0  0  0  0  0
  132.4170  125.7840   74.5920 C   0  0  0  0  0  0  0  0  0  0  0  0
  132.3460  124.4730   74.1280 C   0  0  0  0  0  0  0  0  0  0  0  0
  131.3190  124.1090   73.2440 C   0  0  0  0  0  0  0  0  0  0  0  0
  131.2620  122.6560   72.7340 C   0  0  0  0  0  0  0  0  0  0  0  0
  132.4940  122.1580   72.6170 F   0  0  0  0  0  0  0  0  0  0  0  0
  130.5710  121.9030   73.5920 F   0  0  0  0  0  0  0  0  0  0  0  0
  130.6740  122.5500   71.5400 F   0  0  0  0  0  0  0  0  0  0  0  0
  130.3750  125.0950   72.8570 C   0  0  0  0  0  0  0  0  0  0  0  0
  129.3180  124.7820   71.8920 C   0  0  0  0  0  0  0  0  0  0  0  0
  128.4830  124.5340   71.1310 N   0  0  0  0  0  0  0  0  0  0  0  0
  130.5090  126.3950   73.4040 C   0  0  0  0  0  0  0  0  0  0  0  0
  129.4010  127.7410   73.0450 S   0  0  0  0  0  0  0  0  0  0  0  0
  130.0150  128.5700   71.5400 C   0  0  0  0  0  0  0  0  0  0  0  0
  129.3760  128.0820   70.2320 C   0  0  0  0  0  0  0  0  0  0  0  0
  129.7510  128.5050   69.1370 O   0  0  0  0  0  0  0  0  0  0  0  0
  128.3890  127.1780   70.3740 N   0  0  0  0  0  0  0  0  0  0  0  0
  127.6380  126.5620   69.2790 C   0  0  0  0  0  0  0  0  0  0  0  0
  128.4320  126.3950   67.9880 C   0  0  0  0  0  0  0  0  0  0  0  0
  129.4430  125.4330   67.9120 C   0  0  0  0  0  0  0  0  0  0  0  0
  130.1440  125.2520   66.7220 C   0  0  0  0  0  0  0  0  0  0  0  0
  129.8250  126.0270   65.6100 C   0  0  0  0  0  0  0  0  0  0  0  0
  128.8100  126.9790   65.6750 C   0  0  0  0  0  0  0  0  0  0  0  0
  128.1080  127.1600   66.8630 C   0  0  0  0  0  0  0  0  0  0  0  0
  131.5220  126.7340   74.2390 N   0  0  0  0  0  0  0  0  0  0  0  0
  133.1741  126.0947   76.5810 H   0  0  0  0  0  0  0  0  0  0  0  0
  134.4170  125.6340   75.3687 H   0  0  0  0  0  0  0  0  0  0  0  0
  133.7350  127.2958   75.3687 H   0  0  0  0  0  0  0  0  0  0  0  0
  133.0888  123.7290   74.4518 H   0  0  0  0  0  0  0  0  0  0  0  0
  129.8162  129.6475   71.6372 H   0  0  0  0  0  0  0  0  0  0  0  0
  131.0866  128.3319   71.4697 H   0  0  0  0  0  0  0  0  0  0  0  0
  128.1560  126.8630   71.3040 H   0  0  0  0  0  0  0  0  0  0  0  0
  127.3029  125.5673   69.6082 H   0  0  0  0  0  0  0  0  0  0  0  0
  126.8034  127.2407   69.0493 H   0  0  0  0  0  0  0  0  0  0  0  0
  129.6851  124.8188   68.7919 H   0  0  0  0  0  0  0  0  0  0  0  0
  130.9453  124.5009   66.6610 H   0  0  0  0  0  0  0  0  0  0  0  0
  130.3800  125.8861   64.6708 H   0  0  0  0  0  0  0  0  0  0  0  0
  128.5643  127.5853   64.7907 H   0  0  0  0  0  0  0  0  0  0  0  0
  127.2994  127.9038   66.9170 H   0  0  0  0  0  0  0  0  0  0  0  0
  1  2  1  0
  2  3  2  0
  3  4  1  0
  4  5  1  0
  5  6  1  0
  5  7  1  0
  5  8  1  0
  4  9  2  0
  9 10  1  0
 10 11  3  0
  9 12  1  0
 12 13  1  0
 13 14  1  0
 14 15  1  0
 15 16  2  0
 15 17  1  0
 17 18  1  0
 18 19  1  0
 19 20  2  0
 20 21  1  0
 21 22  2  0
 22 23  1  0
 23 24  2  0
 12 25  2  0
 25  2  1  0
 24 19  1  0
  1 26  1  0
  1 27  1  0
  1 28  1  0
  3 29  1  0
 14 30  1  0
 14 31  1  0
 17 32  1  0
 18 33  1  0
 18 34  1  0
 20 35  1  0
 21 36  1  0
 22 37  1  0
 23 38  1  0
 24 39  1  0
M  END
>  <Binding energies>  (1) 
[-6.11]

>  <Ligand effiencies>  (1) 
[-0.23500000000000001]

>  <Interactions>  (1) 
["V-B:GLU:543:CD:9880, V-A:GLU:543:CD:4908, V-B:GLU:543:C:9874, V-B:GLU:543:CB:9878, V-B:GLY:544:C:9884, V-B:HIS:456:CD2:9039, H-A:LYS:547:NZ:4951, V-B:HIS:456:CE1:9040, H-B:LYS:547:NZ:9923, V-A:HIS:456:CE1:4069, V-A:ASP:473:CG:4240, V-A:HIS:456:CG:4066, V-A:HIS:456:CD2:4068, V-A:ASP:473:CB:4239, V-A:HIS:456:CB:4065, H-B:HIS:456:NE2:9041, H-A:HIS:456:NE2:4070, V-A:TYR:484:CE1:4345, V-A:TYR:484:CZ:4347, V-A:LYS:547:CD:4949, V-A:TYR:484:CD2:4344, V-A:VAL:458:CG2:4087, H-B:GLY:544:O:9885, V-A:TYR:484:CG:4342, V-A:TYR:484:CE2:4346, V-A:TYR:484:CB:4341, V-A:TYR:484:CD1:4343, V-A:ASP:473:CA:4237, V-A:ASP:473:C:4235"]

$$$$
2h_Grossjean_2025
     RDKit          3D

 51 52  0  0  0  0  0  0  0  0999 V2000
  132.7440  126.6280   74.3180 C   0  0  0  0  0  0  0  0  0  0  0  0
  131.3670  126.9600   74.4560 O   0  0  0  0  0  0  0  0  0  0  0  0
  130.5240  126.8250   73.3670 C   0  0  0  0  0  0  0  0  0  0  0  0
  130.0940  127.8980   72.5700 C   0  0  0  0  0  0  0  0  0  0  0  0
  129.2500  127.6820   71.4840 C   0  0  0  0  0  0  0  0  0  0  0  0
  128.8160  126.3940   71.1690 C   0  0  0  0  0  0  0  0  0  0  0  0
  127.9070  126.1800   69.9600 C   0  0  0  0  0  0  0  0  0  0  0  0
  128.6320  126.0420   68.6970 N   0  0  0  0  0  0  0  0  0  0  0  0
  129.4320  126.9810   68.1610 C   0  0  0  0  0  0  0  0  0  0  0  0
  129.5740  128.1040   68.6470 O   0  0  0  0  0  0  0  0  0  0  0  0
  130.1820  126.5640   66.8880 C   0  0  0  0  0  0  0  0  0  0  0  0
  130.2680  124.7660   66.5980 S   0  0  0  0  0  0  0  0  0  0  0  0
  130.5770  124.5400   64.8600 C   0  0  0  0  0  0  0  0  0  0  0  0
  129.4500  124.4610   64.1110 N   0  0  0  0  0  0  0  0  0  0  0  0
  129.5690  124.2700   62.7780 C   0  0  0  0  0  0  0  0  0  0  0  0
  128.2670  124.1840   62.0050 C   0  0  0  0  0  0  0  0  0  0  0  0
  130.8040  124.1570   62.1420 C   0  0  0  0  0  0  0  0  0  0  0  0
  131.9820  124.2570   62.8970 C   0  0  0  0  0  0  0  0  0  0  0  0
  133.3380  124.1390   62.1750 C   0  0  0  0  0  0  0  0  0  0  0  0
  134.1600  125.1020   62.5900 F   0  0  0  0  0  0  0  0  0  0  0  0
  133.9440  122.9710   62.4010 F   0  0  0  0  0  0  0  0  0  0  0  0
  133.1670  124.2540   60.8570 F   0  0  0  0  0  0  0  0  0  0  0  0
  131.8740  124.4640   64.2960 C   0  0  0  0  0  0  0  0  0  0  0  0
  133.0730  124.6340   65.1210 C   0  0  0  0  0  0  0  0  0  0  0  0
  134.0210  124.7710   65.7690 N   0  0  0  0  0  0  0  0  0  0  0  0
  129.2180  125.3150   71.9700 C   0  0  0  0  0  0  0  0  0  0  0  0
  128.7920  124.0430   71.6680 O   0  0  0  0  0  0  0  0  0  0  0  0
  129.7110  123.2850   70.8930 C   0  0  0  0  0  0  0  0  0  0  0  0
  130.0850  125.5320   73.0550 C   0  0  0  0  0  0  0  0  0  0  0  0
  130.4950  124.4740   73.8310 O   0  0  0  0  0  0  0  0  0  0  0  0
  131.6260  123.7820   73.3190 C   0  0  0  0  0  0  0  0  0  0  0  0
  133.1965  126.5189   75.3146 H   0  0  0  0  0  0  0  0  0  0  0  0
  132.8394  125.6811   73.7663 H   0  0  0  0  0  0  0  0  0  0  0  0
  133.2604  127.4274   73.7663 H   0  0  0  0  0  0  0  0  0  0  0  0
  130.4273  128.9194   72.8060 H   0  0  0  0  0  0  0  0  0  0  0  0
  128.9227  128.5336   70.8694 H   0  0  0  0  0  0  0  0  0  0  0  0
  127.3192  125.2649   70.1249 H   0  0  0  0  0  0  0  0  0  0  0  0
  127.2736  127.0750   69.8713 H   0  0  0  0  0  0  0  0  0  0  0  0
  128.5930  125.1330   68.2580 H   0  0  0  0  0  0  0  0  0  0  0  0
  129.6753  127.0246   66.0271 H   0  0  0  0  0  0  0  0  0  0  0  0
  131.2200  126.9044   67.0174 H   0  0  0  0  0  0  0  0  0  0  0  0
  127.4248  124.1284   62.7104 H   0  0  0  0  0  0  0  0  0  0  0  0
  128.1567  125.0768   61.3720 H   0  0  0  0  0  0  0  0  0  0  0  0
  128.2751  123.2844   61.3720 H   0  0  0  0  0  0  0  0  0  0  0  0
  130.8546  123.9906   61.0558 H   0  0  0  0  0  0  0  0  0  0  0  0
  130.3844  122.7296   71.5624 H   0  0  0  0  0  0  0  0  0  0  0  0
  129.1585  122.5765   70.2584 H   0  0  0  0  0  0  0  0  0  0  0  0
  130.3014  123.9622   70.2584 H   0  0  0  0  0  0  0  0  0  0  0  0
  132.2364  123.4085   74.1544 H   0  0  0  0  0  0  0  0  0  0  0  0
  131.2897  122.9349   72.7032 H   0  0  0  0  0  0  0  0  0  0  0  0
  132.2272  124.4671   72.7032 H   0  0  0  0  0  0  0  0  0  0  0  0
  1  2  1  0
  2  3  1  0
  3  4  2  0
  4  5  1  0
  5  6  2  0
  6  7  1  0
  7  8  1  0
  8  9  1  0
  9 10  2  0
  9 11  1  0
 11 12  1  0
 12 13  1  0
 13 14  2  0
 14 15  1  0
 15 16  1  0
 15 17  2  0
 17 18  1  0
 18 19  1  0
 19 20  1  0
 19 21  1  0
 19 22  1  0
 18 23  2  0
 23 24  1  0
 24 25  3  0
  6 26  1  0
 26 27  1  0
 27 28  1  0
 26 29  2  0
 29 30  1  0
 30 31  1  0
 29  3  1  0
 23 13  1  0
  1 32  1  0
  1 33  1  0
  1 34  1  0
  4 35  1  0
  5 36  1  0
  7 37  1  0
  7 38  1  0
  8 39  1  0
 11 40  1  0
 11 41  1  0
 16 42  1  0
 16 43  1  0
 16 44  1  0
 17 45  1  0
 28 46  1  0
 28 47  1  0
 28 48  1  0
 31 49  1  0
 31 50  1  0
 31 51  1  0
M  END
>  <Binding energies>  (1) 
[-6.85]

>  <Ligand effiencies>  (1) 
[-0.2140625]

>  <Interactions>  (1) 
["V-B:GLU:543:CD:9880, V-A:ASP:366:CG:3213, V-A:GLU:543:CD:4908, V-B:GLU:543:C:9874, V-B:GLY:544:C:9884, H-A:LYS:547:NZ:4951, V-B:HIS:456:CE1:9040, H-B:LYS:547:NZ:9923, V-A:HIS:456:CE1:4069, V-A:HIS:456:CG:4066, V-A:HIS:456:CD2:4068, V-A:HIS:456:CB:4065, V-A:LYS:547:CE:4950, H-A:HIS:456:NE2:4070, H-A:GLY:454:N:4050, V-B:GLU:543:CG:9879, V-A:TYR:484:CE1:4345, V-A:ILE:369:CD1:3239, V-A:TYR:484:CZ:4347, H-A:TYR:484:OH:4348, V-A:GLY:454:CA:4049, H-A:ARG:545:NE:4924, V-A:ARG:545:CZ:4926, V-A:GLY:453:CA:4044, H-B:GLU:543:O:9875, V-A:LYS:547:CD:4949, V-A:TYR:484:CD2:4344, V-A:TYR:484:CG:4342, V-A:TYR:484:CE2:4346, V-A:TYR:484:CD1:4343"]

$$$$
2i_Grossjean_2025
     RDKit          3D

 32 33  0  0  0  0  0  0  0  0999 V2000
  127.8690  130.3600   65.4930 C   0  0  0  0  0  0  0  0  0  0  0  0
  128.3570  129.0260   66.0260 C   0  0  0  0  0  0  0  0  0  0  0  0
  128.6560  127.9650   65.1750 C   0  0  0  0  0  0  0  0  0  0  0  0
  129.1070  126.7520   65.7160 C   0  0  0  0  0  0  0  0  0  0  0  0
  129.4330  125.5890   64.7600 C   0  0  0  0  0  0  0  0  0  0  0  0
  128.8530  125.7950   63.5770 F   0  0  0  0  0  0  0  0  0  0  0  0
  130.7510  125.4950   64.5850 F   0  0  0  0  0  0  0  0  0  0  0  0
  129.0050  124.4100   65.2170 F   0  0  0  0  0  0  0  0  0  0  0  0
  129.2420  126.6480   67.1240 C   0  0  0  0  0  0  0  0  0  0  0  0
  129.7100  125.4040   67.7440 C   0  0  0  0  0  0  0  0  0  0  0  0
  130.0800  124.4230   68.2330 N   0  0  0  0  0  0  0  0  0  0  0  0
  128.9140  127.7740   67.9140 C   0  0  0  0  0  0  0  0  0  0  0  0
  129.0380  127.7570   69.6950 S   0  0  0  0  0  0  0  0  0  0  0  0
  127.7810  126.6100   70.3380 C   0  0  0  0  0  0  0  0  0  0  0  0
  128.3620  125.6250   71.3550 C   0  0  0  0  0  0  0  0  0  0  0  0
  128.2250  125.8560   72.5580 O   0  0  0  0  0  0  0  0  0  0  0  0
  129.0190  124.5650   70.8380 N   0  0  0  0  0  0  0  0  0  0  0  0
  129.6420  123.5520   71.5480 C   0  0  0  0  0  0  0  0  0  0  0  0
  130.9100  123.5170   72.1470 C   0  0  0  0  0  0  0  0  0  0  0  0
  130.9950  122.2650   72.7120 C   0  0  0  0  0  0  0  0  0  0  0  0
  129.8440  121.5910   72.4730 O   0  0  0  0  0  0  0  0  0  0  0  0
  128.9950  122.4230   71.7390 N   0  0  0  0  0  0  0  0  0  0  0  0
  128.4810  128.9400   67.3690 N   0  0  0  0  0  0  0  0  0  0  0  0
  127.6259  131.0246   66.3352 H   0  0  0  0  0  0  0  0  0  0  0  0
  128.6571  130.8199   64.8787 H   0  0  0  0  0  0  0  0  0  0  0  0
  126.9702  130.2028   64.8787 H   0  0  0  0  0  0  0  0  0  0  0  0
  128.5394  128.0773   64.0870 H   0  0  0  0  0  0  0  0  0  0  0  0
  126.9854  127.1932   70.8246 H   0  0  0  0  0  0  0  0  0  0  0  0
  127.3902  126.0282   69.4902 H   0  0  0  0  0  0  0  0  0  0  0  0
  129.0990  124.5070   69.8340 H   0  0  0  0  0  0  0  0  0  0  0  0
  131.6683  124.3137   72.1618 H   0  0  0  0  0  0  0  0  0  0  0  0
  131.8593  121.8739   73.2687 H   0  0  0  0  0  0  0  0  0  0  0  0
  1  2  1  0
  2  3  2  0
  3  4  1  0
  4  5  1  0
  5  6  1  0
  5  7  1  0
  5  8  1  0
  4  9  2  0
  9 10  1  0
 10 11  3  0
  9 12  1  0
 12 13  1  0
 13 14  1  0
 14 15  1  0
 15 16  2  0
 15 17  1  0
 17 18  1  0
 18 19  1  0
 19 20  2  0
 20 21  1  0
 21 22  1  0
 12 23  2  0
 23  2  1  0
 22 18  2  0
  1 24  1  0
  1 25  1  0
  1 26  1  0
  3 27  1  0
 14 28  1  0
 14 29  1  0
 17 30  1  0
 19 31  1  0
 20 32  1  0
M  END
>  <Binding energies>  (1) 
[-6.75]

>  <Ligand effiencies>  (1) 
[-0.28125]

>  <Interactions>  (1) 
["V-B:GLU:543:CD:9880, V-A:GLU:543:CD:4908, V-B:GLU:543:C:9874, V-B:GLU:543:CB:9878, V-B:GLY:544:C:9884, V-B:HIS:456:CE1:9040, H-B:LYS:547:NZ:9923, V-A:HIS:456:CE1:4069, V-A:HIS:456:CG:4066, V-A:HIS:456:CD2:4068, V-A:ASP:473:CB:4239, V-A:HIS:456:CB:4065, V-A:GLU:543:CB:4906, H-B:HIS:456:NE2:9041, H-A:HIS:456:NE2:4070, V-B:GLU:543:CG:9879, V-A:TYR:484:CE1:4345, V-B:GLU:543:CA:9876, V-A:TYR:484:CZ:4347, H-A:TYR:484:OH:4348, V-B:TYR:484:CZ:9318, V-A:GLU:543:CG:4907, V-B:TYR:484:CE1:9316, H-B:GLU:543:O:9875, V-A:TYR:484:CD2:4344, V-A:TYR:484:CG:4342, V-A:TYR:484:CE2:4346, V-A:TYR:484:CB:4341, V-A:TYR:484:CD1:4343"]

$$$$
2j_Grossjean_2025
     RDKit          3D

 32 33  0  0  0  0  0  0  0  0999 V2000
  127.8660  130.2520   65.4670 C   0  0  0  0  0  0  0  0  0  0  0  0
  128.3580  128.9320   66.0310 C   0  0  0  0  0  0  0  0  0  0  0  0
  128.6870  127.8620   65.2020 C   0  0  0  0  0  0  0  0  0  0  0  0
  129.1410  126.6620   65.7700 C   0  0  0  0  0  0  0  0  0  0  0  0
  129.5010  125.4890   64.8390 C   0  0  0  0  0  0  0  0  0  0  0  0
  129.0060  125.7070   63.6200 F   0  0  0  0  0  0  0  0  0  0  0  0
  130.8260  125.3650   64.7520 F   0  0  0  0  0  0  0  0  0  0  0  0
  129.0160  124.3220   65.2670 F   0  0  0  0  0  0  0  0  0  0  0  0
  129.2490  126.5800   67.1810 C   0  0  0  0  0  0  0  0  0  0  0  0
  129.7170  125.3510   67.8290 C   0  0  0  0  0  0  0  0  0  0  0  0
  130.0880  124.3810   68.3400 N   0  0  0  0  0  0  0  0  0  0  0  0
  128.8930  127.7160   67.9470 C   0  0  0  0  0  0  0  0  0  0  0  0
  128.9910  127.7270   69.7320 S   0  0  0  0  0  0  0  0  0  0  0  0
  127.9180  126.3970   70.3740 C   0  0  0  0  0  0  0  0  0  0  0  0
  128.5420  125.5470   71.4910 C   0  0  0  0  0  0  0  0  0  0  0  0
  128.3950  125.8580   72.6750 O   0  0  0  0  0  0  0  0  0  0  0  0
  129.2480  124.4780   71.0610 N   0  0  0  0  0  0  0  0  0  0  0  0
  129.9100  123.5480   71.8520 C   0  0  0  0  0  0  0  0  0  0  0  0
  129.6780  122.2570   71.9450 N   0  0  0  0  0  0  0  0  0  0  0  0
  130.5020  121.6750   72.7950 C   0  0  0  0  0  0  0  0  0  0  0  0
  131.4320  122.5040   73.4150 C   0  0  0  0  0  0  0  0  0  0  0  0
  131.2050  124.1310   72.8470 S   0  0  0  0  0  0  0  0  0  0  0  0
  128.4570  128.8690   67.3780 N   0  0  0  0  0  0  0  0  0  0  0  0
  127.6125  130.9322   66.2935 H   0  0  0  0  0  0  0  0  0  0  0  0
  128.6560  130.7040   64.8493 H   0  0  0  0  0  0  0  0  0  0  0  0
  126.9728  130.0767   64.8493 H   0  0  0  0  0  0  0  0  0  0  0  0
  128.5916  127.9571   64.1103 H   0  0  0  0  0  0  0  0  0  0  0  0
  127.0001  126.8581   70.7674 H   0  0  0  0  0  0  0  0  0  0  0  0
  127.7347  125.7139   69.5315 H   0  0  0  0  0  0  0  0  0  0  0  0
  129.3090  124.3290   70.0640 H   0  0  0  0  0  0  0  0  0  0  0  0
  130.4566  120.5956   73.0020 H   0  0  0  0  0  0  0  0  0  0  0  0
  132.1882  122.1819   74.1460 H   0  0  0  0  0  0  0  0  0  0  0  0
  1  2  1  0
  2  3  2  0
  3  4  1  0
  4  5  1  0
  5  6  1  0
  5  7  1  0
  5  8  1  0
  4  9  2  0
  9 10  1  0
 10 11  3  0
  9 12  1  0
 12 13  1  0
 13 14  1  0
 14 15  1  0
 15 16  2  0
 15 17  1  0
 17 18  1  0
 18 19  2  0
 19 20  1  0
 20 21  2  0
 21 22  1  0
 12 23  2  0
 23  2  1  0
 22 18  1  0
  1 24  1  0
  1 25  1  0
  1 26  1  0
  3 27  1  0
 14 28  1  0
 14 29  1  0
 17 30  1  0
 20 31  1  0
 21 32  1  0
M  END
>  <Binding energies>  (1) 
[-6.17]

>  <Ligand effiencies>  (1) 
[-0.25708333333333333]

>  <Interactions>  (1) 
["V-B:GLU:543:CD:9880, V-A:GLU:543:CD:4908, V-B:GLU:543:CB:9878, V-B:GLY:544:C:9884, V-B:HIS:456:CE1:9040, H-B:LYS:547:NZ:9923, V-A:HIS:456:CE1:4069, V-A:ASP:473:CG:4240, V-A:HIS:456:CG:4066, V-A:HIS:456:CD2:4068, V-A:ASP:473:CB:4239, V-A:HIS:456:CB:4065, V-A:GLU:543:CB:4906, H-B:HIS:456:NE2:9041, H-A:HIS:456:NE2:4070, V-B:GLU:543:CG:9879, V-A:TYR:484:CE1:4345, V-B:GLU:543:CA:9876, V-A:TYR:484:CZ:4347, H-A:TYR:484:OH:4348, V-B:TYR:484:CZ:9318, V-A:GLU:543:CG:4907, H-B:GLU:543:O:9875, V-A:TYR:484:CD2:4344, V-A:TYR:484:CG:4342, V-A:TYR:484:CB:4341, V-A:TYR:484:CD1:4343"]

$$$$
2k_Grossjean_2025
     RDKit          3D

 50 50  0  0  0  0  0  0  0  0999 V2000
  127.1130  123.0510   55.0530 C   0  0  0  0  0  0  0  0  0  0  0  0
  126.9260  122.1210   56.1090 O   0  0  0  0  0  0  0  0  0  0  0  0
  127.1520  122.6760   57.3990 C   0  0  0  0  0  0  0  0  0  0  0  0
  125.8740  123.3590   57.9000 C   0  0  0  0  0  0  0  0  0  0  0  0
  125.7960  123.2180   59.3110 O   0  0  0  0  0  0  0  0  0  0  0  0
  126.7070  124.0390   60.0320 C   0  0  0  0  0  0  0  0  0  0  0  0
  127.2100  123.2520   61.2500 C   0  0  0  0  0  0  0  0  0  0  0  0
  127.8590  122.0830   60.7750 O   0  0  0  0  0  0  0  0  0  0  0  0
  129.2780  122.1180   60.8250 C   0  0  0  0  0  0  0  0  0  0  0  0
  129.7360  121.7630   62.2510 C   0  0  0  0  0  0  0  0  0  0  0  0
  129.6340  122.8900   63.1820 N   0  0  0  0  0  0  0  0  0  0  0  0
  129.8390  122.8280   64.5120 C   0  0  0  0  0  0  0  0  0  0  0  0
  130.1700  121.7970   65.1000 O   0  0  0  0  0  0  0  0  0  0  0  0
  129.6120  124.1380   65.2810 C   0  0  0  0  0  0  0  0  0  0  0  0
  130.4340  125.6110   64.5800 S   0  0  0  0  0  0  0  0  0  0  0  0
  131.2970  125.1530   63.0830 C   0  0  0  0  0  0  0  0  0  0  0  0
  130.6180  125.3580   61.9250 N   0  0  0  0  0  0  0  0  0  0  0  0
  131.2080  125.0300   60.7550 C   0  0  0  0  0  0  0  0  0  0  0  0
  130.3810  125.2790   59.5080 C   0  0  0  0  0  0  0  0  0  0  0  0
  132.4930  124.5000   60.6840 C   0  0  0  0  0  0  0  0  0  0  0  0
  133.2170  124.2860   61.8670 C   0  0  0  0  0  0  0  0  0  0  0  0
  134.6400  123.7030   61.7710 C   0  0  0  0  0  0  0  0  0  0  0  0
  135.0780  123.6140   60.5140 F   0  0  0  0  0  0  0  0  0  0  0  0
  135.4970  124.4750   62.4410 F   0  0  0  0  0  0  0  0  0  0  0  0
  134.6660  122.4760   62.2920 F   0  0  0  0  0  0  0  0  0  0  0  0
  132.6070  124.6180   63.1040 C   0  0  0  0  0  0  0  0  0  0  0  0
  133.3150  124.4120   64.3710 C   0  0  0  0  0  0  0  0  0  0  0  0
  133.8750  124.2500   65.3710 N   0  0  0  0  0  0  0  0  0  0  0  0
  127.3134  124.0476   55.4733 H   0  0  0  0  0  0  0  0  0  0  0  0
  127.9658  122.7360   54.4337 H   0  0  0  0  0  0  0  0  0  0  0  0
  126.2047  123.0901   54.4337 H   0  0  0  0  0  0  0  0  0  0  0  0
  127.4358  121.8746   58.0970 H   0  0  0  0  0  0  0  0  0  0  0  0
  127.9616  123.4182   57.3390 H   0  0  0  0  0  0  0  0  0  0  0  0
  125.8994  124.4268   57.6371 H   0  0  0  0  0  0  0  0  0  0  0  0
  124.9953  122.8921   57.4311 H   0  0  0  0  0  0  0  0  0  0  0  0
  127.5564  124.3070   59.3864 H   0  0  0  0  0  0  0  0  0  0  0  0
  126.2059  124.9619   60.3594 H   0  0  0  0  0  0  0  0  0  0  0  0
  127.9189  123.8658   61.8250 H   0  0  0  0  0  0  0  0  0  0  0  0
  126.3697  122.9840   61.9073 H   0  0  0  0  0  0  0  0  0  0  0  0
  129.6906  121.3886   60.1124 H   0  0  0  0  0  0  0  0  0  0  0  0
  129.6354  123.1236   60.5585 H   0  0  0  0  0  0  0  0  0  0  0  0
  129.1091  120.9406   62.6260 H   0  0  0  0  0  0  0  0  0  0  0  0
  130.7968  121.4776   62.1946 H   0  0  0  0  0  0  0  0  0  0  0  0
  129.3810  123.7790   62.7770 H   0  0  0  0  0  0  0  0  0  0  0  0
  128.5298  124.3333   65.3065 H   0  0  0  0  0  0  0  0  0  0  0  0
  130.0577  123.9868   66.2752 H   0  0  0  0  0  0  0  0  0  0  0  0
  129.3647  125.5850   59.7971 H   0  0  0  0  0  0  0  0  0  0  0  0
  130.8482  126.0763   58.9113 H   0  0  0  0  0  0  0  0  0  0  0  0
  130.3303  124.3563   58.9113 H   0  0  0  0  0  0  0  0  0  0  0  0
  132.9373  124.2510   59.7090 H   0  0  0  0  0  0  0  0  0  0  0  0
  1  2  1  0
  2  3  1  0
  3  4  1  0
  4  5  1  0
  5  6  1  0
  6  7  1  0
  7  8  1  0
  8  9  1  0
  9 10  1  0
 10 11  1  0
 11 12  1  0
 12 13  2  0
 12 14  1  0
 14 15  1  0
 15 16  1  0
 16 17  2  0
 17 18  1  0
 18 19  1  0
 18 20  2  0
 20 21  1  0
 21 22  1  0
 22 23  1  0
 22 24  1  0
 22 25  1  0
 21 26  2  0
 26 27  1  0
 27 28  3  0
 26 16  1  0
  1 29  1  0
  1 30  1  0
  1 31  1  0
  3 32  1  0
  3 33  1  0
  4 34  1  0
  4 35  1  0
  6 36  1  0
  6 37  1  0
  7 38  1  0
  7 39  1  0
  9 40  1  0
  9 41  1  0
 10 42  1  0
 10 43  1  0
 11 44  1  0
 14 45  1  0
 14 46  1  0
 19 47  1  0
 19 48  1  0
 19 49  1  0
 20 50  1  0
M  END
>  <Binding energies>  (1) 
[-5.21]

>  <Ligand effiencies>  (1) 
[-0.1796551724137931]

>  <Interactions>  (1) 
["V-B:GLU:543:CD:9880, V-B:ILE:538:CB:9834, V-B:ALA:541:CB:9864, V-B:TYR:539:CE2:9848, V-B:TYR:539:CD2:9846, H-B:ALA:541:N:9863, V-B:PRO:540:CB:9857, V-B:PRO:540:N:9856, V-B:TYR:539:C:9839, V-B:PRO:540:CA:9855, V-A:ASP:366:CG:3213, V-B:ILE:538:CG2:9835, H-B:TYR:539:N:9842, V-B:GLU:543:CB:9878, H-A:GLY:454:N:4050, V-B:GLU:543:CG:9879, V-A:TYR:484:CE1:4345, V-B:GLU:543:CA:9876, V-A:ILE:369:CD1:3239, V-A:ILE:369:CG2:3237, V-A:ILE:369:CB:3236, V-A:GLY:453:C:4042, H-A:TYR:484:OH:4348, V-A:GLY:454:CA:4049, V-A:ASP:366:CA:3210, V-A:ARG:545:CZ:4926, V-A:GLY:453:CA:4044, V-B:ILE:538:CA:9832, V-B:TYR:539:CE1:9847, V-A:ILE:369:CG1:3238, V-B:TYR:539:CD1:9845"]

$$$$
3aa_Grossjean_2025
     RDKit          3D

 52 54  0  0  0  0  0  0  0  0999 V2000
  125.9330  126.9730   73.8720 C   0  0  0  0  0  0  0  0  0  0  0  0
  127.1160  126.9540   74.8440 C   0  0  0  0  0  0  0  0  0  0  0  0
  128.0310  125.9360   74.4580 O   0  0  0  0  0  0  0  0  0  0  0  0
  129.2170  126.2460   73.8750 C   0  0  0  0  0  0  0  0  0  0  0  0
  130.2060  126.6320   74.5060 O   0  0  0  0  0  0  0  0  0  0  0  0
  129.2030  126.0890   72.3810 C   0  0  0  0  0  0  0  0  0  0  0  0
  129.7120  124.9440   71.7490 C   0  0  0  0  0  0  0  0  0  0  0  0
  129.6790  124.8290   70.3620 C   0  0  0  0  0  0  0  0  0  0  0  0
  129.1330  125.8480   69.5800 C   0  0  0  0  0  0  0  0  0  0  0  0
  129.1460  125.6300   68.1880 N   0  0  0  0  0  0  0  0  0  0  0  0
  129.3350  126.5100   67.1800 C   0  0  0  0  0  0  0  0  0  0  0  0
  129.5160  127.7210   67.3140 O   0  0  0  0  0  0  0  0  0  0  0  0
  129.3030  125.9160   65.7710 C   0  0  0  0  0  0  0  0  0  0  0  0
  130.0400  124.2540   65.7220 S   0  0  0  0  0  0  0  0  0  0  0  0
  130.6430  124.0000   64.0680 C   0  0  0  0  0  0  0  0  0  0  0  0
  129.6630  123.7690   63.1620 N   0  0  0  0  0  0  0  0  0  0  0  0
  129.9860  123.5570   61.8600 C   0  0  0  0  0  0  0  0  0  0  0  0
  128.8450  123.3240   60.9170 C   0  0  0  0  0  0  0  0  0  0  0  0
  129.0840  122.9510   59.5840 C   0  0  0  0  0  0  0  0  0  0  0  0
  128.0280  122.7320   58.7020 C   0  0  0  0  0  0  0  0  0  0  0  0
  126.7180  122.8830   59.1420 C   0  0  0  0  0  0  0  0  0  0  0  0
  126.4550  123.2480   60.4580 C   0  0  0  0  0  0  0  0  0  0  0  0
  127.5110  123.4650   61.3380 C   0  0  0  0  0  0  0  0  0  0  0  0
  131.3190  123.5810   61.4380 C   0  0  0  0  0  0  0  0  0  0  0  0
  132.3530  123.8000   62.3610 C   0  0  0  0  0  0  0  0  0  0  0  0
  133.8090  123.8080   61.8590 C   0  0  0  0  0  0  0  0  0  0  0  0
  134.5570  124.7390   62.4530 F   0  0  0  0  0  0  0  0  0  0  0  0
  134.3820  122.6270   62.0930 F   0  0  0  0  0  0  0  0  0  0  0  0
  133.8350  124.0480   60.5470 F   0  0  0  0  0  0  0  0  0  0  0  0
  132.0110  124.0050   63.7200 C   0  0  0  0  0  0  0  0  0  0  0  0
  133.0520  124.1810   64.7380 C   0  0  0  0  0  0  0  0  0  0  0  0
  133.8740  124.3200   65.5410 N   0  0  0  0  0  0  0  0  0  0  0  0
  128.6340  127.0010   70.2040 C   0  0  0  0  0  0  0  0  0  0  0  0
  128.6700  127.1150   71.5900 C   0  0  0  0  0  0  0  0  0  0  0  0
  124.9915  126.9881   74.4406 H   0  0  0  0  0  0  0  0  0  0  0  0
  125.9933  127.8703   73.2386 H   0  0  0  0  0  0  0  0  0  0  0  0
  125.9644  126.0742   73.2386 H   0  0  0  0  0  0  0  0  0  0  0  0
  127.6232  127.9299   74.8233 H   0  0  0  0  0  0  0  0  0  0  0  0
  126.7509  126.7518   75.8617 H   0  0  0  0  0  0  0  0  0  0  0  0
  130.1402  124.1313   72.3541 H   0  0  0  0  0  0  0  0  0  0  0  0
  130.0862  123.9285   69.8789 H   0  0  0  0  0  0  0  0  0  0  0  0
  128.9350  124.6800   67.9160 H   0  0  0  0  0  0  0  0  0  0  0  0
  128.2575  125.8519   65.4352 H   0  0  0  0  0  0  0  0  0  0  0  0
  129.8909  126.5704   65.1106 H   0  0  0  0  0  0  0  0  0  0  0  0
  130.1190  122.8302   59.2317 H   0  0  0  0  0  0  0  0  0  0  0  0
  128.2302  122.4405   57.6608 H   0  0  0  0  0  0  0  0  0  0  0  0
  125.8842  122.7127   58.4450 H   0  0  0  0  0  0  0  0  0  0  0  0
  125.4166  123.3647   60.8018 H   0  0  0  0  0  0  0  0  0  0  0  0
  127.2988  123.7512   62.3787 H   0  0  0  0  0  0  0  0  0  0  0  0
  131.5586  123.4272   60.3755 H   0  0  0  0  0  0  0  0  0  0  0  0
  128.2137  127.8161   69.5966 H   0  0  0  0  0  0  0  0  0  0  0  0
  128.2750  128.0221   72.0708 H   0  0  0  0  0  0  0  0  0  0  0  0
  1  2  1  0
  2  3  1  0
  3  4  1  0
  4  5  2  0
  4  6  1  0
  6  7  2  0
  7  8  1  0
  8  9  2  0
  9 10  1  0
 10 11  1  0
 11 12  2  0
 11 13  1  0
 13 14  1  0
 14 15  1  0
 15 16  2  0
 16 17  1  0
 17 18  1  0
 18 19  2  0
 19 20  1  0
 20 21  2  0
 21 22  1  0
 22 23  2  0
 17 24  2  0
 24 25  1  0
 25 26  1  0
 26 27  1  0
 26 28  1  0
 26 29  1  0
 25 30  2  0
 30 31  1  0
 31 32  3  0
  9 33  1  0
 33 34  2  0
 34  6  1  0
 30 15  1  0
 23 18  1  0
  1 35  1  0
  1 36  1  0
  1 37  1  0
  2 38  1  0
  2 39  1  0
  7 40  1  0
  8 41  1  0
 10 42  1  0
 13 43  1  0
 13 44  1  0
 19 45  1  0
 20 46  1  0
 21 47  1  0
 22 48  1  0
 23 49  1  0
 24 50  1  0
 33 51  1  0
 34 52  1  0
M  END
>  <Binding energies>  (1) 
[-8.5]

>  <Ligand effiencies>  (1) 
[-0.24285714285714285]

>  <Interactions>  (1) 
["V-B:GLU:543:CD:9880, V-B:TYR:539:CE2:9848, V-B:TYR:539:CD2:9846, V-B:PRO:540:CB:9857, V-B:PRO:540:N:9856, V-B:TYR:539:C:9839, V-B:PRO:540:C:9853, V-B:PRO:540:CA:9855, V-A:ASP:366:CG:3213, V-B:GLU:543:C:9874, V-B:GLU:543:CB:9878, H-A:LYS:547:NZ:4951, V-B:HIS:456:CE1:9040, H-B:LYS:547:NZ:9923, V-A:HIS:456:CE1:4069, V-A:HIS:456:CG:4066, V-A:HIS:456:CD2:4068, H-A:GLY:454:N:4050, V-B:GLU:543:CG:9879, V-A:ILE:369:CD1:3239, V-A:GLY:453:C:4042, H-A:TYR:484:OH:4348, V-A:GLY:454:CA:4049, V-A:ARG:545:CZ:4926, V-A:GLY:453:CA:4044, H-B:GLU:543:O:9875, V-B:LYS:547:CD:9921"]

$$$$
3ab_Grossjean_2025
     RDKit          3D

 49 51  0  0  0  0  0  0  0  0999 V2000
  129.1120  132.8660   57.3790 C   0  0  0  0  0  0  0  0  0  0  0  0
  129.7560  133.0710   56.1290 O   0  0  0  0  0  0  0  0  0  0  0  0
  131.0140  132.6130   55.9070 C   0  0  0  0  0  0  0  0  0  0  0  0
  131.8910  133.2760   55.3460 O   0  0  0  0  0  0  0  0  0  0  0  0
  131.2360  131.2180   56.4170 C   0  0  0  0  0  0  0  0  0  0  0  0
  130.2750  130.2070   56.2580 C   0  0  0  0  0  0  0  0  0  0  0  0
  130.5080  128.9230   56.7400 C   0  0  0  0  0  0  0  0  0  0  0  0
  131.7130  128.6250   57.3950 C   0  0  0  0  0  0  0  0  0  0  0  0
  132.0570  127.3620   57.9160 N   0  0  0  0  0  0  0  0  0  0  0  0
  131.9780  126.1400   57.3480 C   0  0  0  0  0  0  0  0  0  0  0  0
  131.5550  125.9030   56.2170 O   0  0  0  0  0  0  0  0  0  0  0  0
  132.4630  124.9800   58.2200 C   0  0  0  0  0  0  0  0  0  0  0  0
  131.6800  124.9830   59.8610 S   0  0  0  0  0  0  0  0  0  0  0  0
  130.6130  123.5600   59.9460 C   0  0  0  0  0  0  0  0  0  0  0  0
  129.4450  123.7190   59.2810 N   0  0  0  0  0  0  0  0  0  0  0  0
  128.5360  122.7090   59.2590 C   0  0  0  0  0  0  0  0  0  0  0  0
  127.2690  122.9640   58.4980 C   0  0  0  0  0  0  0  0  0  0  0  0
  127.1330  122.5410   57.1660 C   0  0  0  0  0  0  0  0  0  0  0  0
  125.9590  122.7740   56.4550 C   0  0  0  0  0  0  0  0  0  0  0  0
  124.9010  123.4370   57.0680 C   0  0  0  0  0  0  0  0  0  0  0  0
  125.0110  123.8710   58.3850 C   0  0  0  0  0  0  0  0  0  0  0  0
  126.1870  123.6360   59.0920 C   0  0  0  0  0  0  0  0  0  0  0  0
  128.7840  121.5090   59.9340 C   0  0  0  0  0  0  0  0  0  0  0  0
  129.9780  121.3280   60.6460 C   0  0  0  0  0  0  0  0  0  0  0  0
  130.2090  119.9930   61.3810 C   0  0  0  0  0  0  0  0  0  0  0  0
  130.1990  120.1260   62.7090 F   0  0  0  0  0  0  0  0  0  0  0  0
  129.2530  119.1200   61.0600 F   0  0  0  0  0  0  0  0  0  0  0  0
  131.3930  119.4830   61.0370 F   0  0  0  0  0  0  0  0  0  0  0  0
  130.9230  122.3840   60.6650 C   0  0  0  0  0  0  0  0  0  0  0  0
  132.1610  122.2680   61.4400 C   0  0  0  0  0  0  0  0  0  0  0  0
  133.1380  122.1740   62.0530 N   0  0  0  0  0  0  0  0  0  0  0  0
  132.6730  129.6260   57.5500 C   0  0  0  0  0  0  0  0  0  0  0  0
  132.4370  130.9100   57.0680 C   0  0  0  0  0  0  0  0  0  0  0  0
  129.8151  133.0898   58.1948 H   0  0  0  0  0  0  0  0  0  0  0  0
  128.2387  133.5306   57.4549 H   0  0  0  0  0  0  0  0  0  0  0  0
  128.7836  131.8189   57.4549 H   0  0  0  0  0  0  0  0  0  0  0  0
  129.3275  130.4326   55.7467 H   0  0  0  0  0  0  0  0  0  0  0  0
  129.7467  128.1401   56.6076 H   0  0  0  0  0  0  0  0  0  0  0  0
  132.3790  127.3880   58.8720 H   0  0  0  0  0  0  0  0  0  0  0  0
  132.2239  124.0326   57.7148 H   0  0  0  0  0  0  0  0  0  0  0  0
  133.5478  125.0941   58.3624 H   0  0  0  0  0  0  0  0  0  0  0  0
  127.9673  122.0172   56.6766 H   0  0  0  0  0  0  0  0  0  0  0  0
  125.8684  122.4351   55.4124 H   0  0  0  0  0  0  0  0  0  0  0  0
  123.9719  123.6192   56.5080 H   0  0  0  0  0  0  0  0  0  0  0  0
  124.1730  124.3972   58.8654 H   0  0  0  0  0  0  0  0  0  0  0  0
  126.2707  123.9820   60.1328 H   0  0  0  0  0  0  0  0  0  0  0  0
  128.0371  120.7020   59.9059 H   0  0  0  0  0  0  0  0  0  0  0  0
  133.6226  129.3986   58.0565 H   0  0  0  0  0  0  0  0  0  0  0  0
  133.2010  131.6903   57.1996 H   0  0  0  0  0  0  0  0  0  0  0  0
  1  2  1  0
  2  3  1  0
  3  4  2  0
  3  5  1  0
  5  6  2  0
  6  7  1  0
  7  8  2  0
  8  9  1  0
  9 10  1  0
 10 11  2  0
 10 12  1  0
 12 13  1  0
 13 14  1  0
 14 15  2  0
 15 16  1  0
 16 17  1  0
 17 18  2  0
 18 19  1  0
 19 20  2  0
 20 21  1  0
 21 22  2  0
 16 23  2  0
 23 24  1  0
 24 25  1  0
 25 26  1  0
 25 27  1  0
 25 28  1  0
 24 29  2  0
 29 30  1  0
 30 31  3  0
  8 32  1  0
 32 33  2  0
 33  5  1  0
 29 14  1  0
 22 17  1  0
  1 34  1  0
  1 35  1  0
  1 36  1  0
  6 37  1  0
  7 38  1  0
  9 39  1  0
 12 40  1  0
 12 41  1  0
 18 42  1  0
 19 43  1  0
 20 44  1  0
 21 45  1  0
 22 46  1  0
 23 47  1  0
 32 48  1  0
 33 49  1  0
M  END
>  <Binding energies>  (1) 
[-8.57]

>  <Ligand effiencies>  (1) 
[-0.2520588235294118]

>  <Interactions>  (1) 
["V-B:PRO:540:CD:9859, V-A:PRO:482:CB:4326, V-B:ILE:538:CB:9834, V-B:ALA:541:CB:9864, V-B:TYR:539:CE2:9848, V-B:TYR:539:CD2:9846, V-B:PRO:540:CB:9857, V-B:PRO:540:N:9856, V-B:TYR:539:C:9839, V-B:LEU:363:CD1:8160, V-B:PRO:540:C:9853, V-B:PRO:540:CA:9855, V-A:PRO:482:CG:4327, V-B:ALA:541:CA:9862, V-A:LEU:475:CD1:4258, V-A:PRO:540:CD:4887, V-A:PRO:540:N:4884, V-A:ASP:366:CB:3212, V-A:TYR:539:C:4867, H-A:ASP:366:OD1:3214, V-A:ASP:366:CG:3213, V-A:LEU:363:CD1:3189, V-A:TYR:539:CE2:4876, H-A:TYR:531:OH:4795, V-A:PRO:540:CB:4885, V-A:PRO:540:CA:4883, V-A:TYR:539:CD2:4874, V-B:TYR:539:CG:9844, H-B:TYR:539:OH:9850, V-A:TRP:381:CZ2:3370, V-A:TRP:381:CH2:3372, V-A:TYR:539:CE1:4875, V-A:TYR:539:CD1:4873, V-A:TYR:539:CZ:4877, H-A:TYR:539:N:4870, V-A:TYR:539:CG:4872, V-A:TYR:539:CA:4869, H-A:ASP:366:OD2:3215, V-A:LEU:475:CD2:4259, V-A:PRO:482:CD:4328"]

$$$$
3ac_Grossjean_2025
     RDKit          3D

 47 49  0  0  0  0  0  0  0  0999 V2000
  127.2250  126.7110   74.3950 C   0  0  0  0  0  0  0  0  0  0  0  0
  128.2120  125.8980   73.7680 O   0  0  0  0  0  0  0  0  0  0  0  0
  128.3480  125.9410   72.3930 C   0  0  0  0  0  0  0  0  0  0  0  0
  129.2010  124.9970   71.8220 C   0  0  0  0  0  0  0  0  0  0  0  0
  129.3960  124.9610   70.4450 C   0  0  0  0  0  0  0  0  0  0  0  0
  128.7470  125.8770   69.6170 C   0  0  0  0  0  0  0  0  0  0  0  0
  128.9910  125.7490   68.2370 N   0  0  0  0  0  0  0  0  0  0  0  0
  129.6240  126.6010   67.4010 C   0  0  0  0  0  0  0  0  0  0  0  0
  130.1530  127.6620   67.7340 O   0  0  0  0  0  0  0  0  0  0  0  0
  129.6670  126.1740   65.9340 C   0  0  0  0  0  0  0  0  0  0  0  0
  130.0070  124.3970   65.7440 S   0  0  0  0  0  0  0  0  0  0  0  0
  130.6410  124.1090   64.1030 C   0  0  0  0  0  0  0  0  0  0  0  0
  129.6690  123.8690   63.1900 N   0  0  0  0  0  0  0  0  0  0  0  0
  130.0000  123.6370   61.8930 C   0  0  0  0  0  0  0  0  0  0  0  0
  128.8660  123.3730   60.9490 C   0  0  0  0  0  0  0  0  0  0  0  0
  127.5330  123.4840   61.3790 C   0  0  0  0  0  0  0  0  0  0  0  0
  126.4750  123.2450   60.5060 C   0  0  0  0  0  0  0  0  0  0  0  0
  126.7360  122.8900   59.1870 C   0  0  0  0  0  0  0  0  0  0  0  0
  128.0460  122.7680   58.7370 C   0  0  0  0  0  0  0  0  0  0  0  0
  129.1010  123.0070   59.6130 C   0  0  0  0  0  0  0  0  0  0  0  0
  131.3380  123.6260   61.4870 C   0  0  0  0  0  0  0  0  0  0  0  0
  132.3650  123.8490   62.4160 C   0  0  0  0  0  0  0  0  0  0  0  0
  133.8260  123.8220   61.9260 C   0  0  0  0  0  0  0  0  0  0  0  0
  134.5820  124.7600   62.4990 F   0  0  0  0  0  0  0  0  0  0  0  0
  134.3830  122.6410   62.2000 F   0  0  0  0  0  0  0  0  0  0  0  0
  133.8650  124.0220   60.6080 F   0  0  0  0  0  0  0  0  0  0  0  0
  132.0150  124.0850   63.7690 C   0  0  0  0  0  0  0  0  0  0  0  0
  133.0540  124.2460   64.7880 C   0  0  0  0  0  0  0  0  0  0  0  0
  133.8760  124.3730   65.5930 N   0  0  0  0  0  0  0  0  0  0  0  0
  127.8810  126.8260   70.1830 C   0  0  0  0  0  0  0  0  0  0  0  0
  127.6870  126.8590   71.5610 C   0  0  0  0  0  0  0  0  0  0  0  0
  127.3233  126.6300   75.4876 H   0  0  0  0  0  0  0  0  0  0  0  0
  127.3657  127.7587   74.0908 H   0  0  0  0  0  0  0  0  0  0  0  0
  126.2236  126.3722   74.0908 H   0  0  0  0  0  0  0  0  0  0  0  0
  129.7241  124.2747   72.4659 H   0  0  0  0  0  0  0  0  0  0  0  0
  130.0655  124.2062   70.0068 H   0  0  0  0  0  0  0  0  0  0  0  0
  128.6890  124.8720   67.8390 H   0  0  0  0  0  0  0  0  0  0  0  0
  128.6952  126.4001   65.4708 H   0  0  0  0  0  0  0  0  0  0  0  0
  130.4824  126.7275   65.4454 H   0  0  0  0  0  0  0  0  0  0  0  0
  127.3220  123.7641   62.4216 H   0  0  0  0  0  0  0  0  0  0  0  0
  125.4369  123.3366   60.8582 H   0  0  0  0  0  0  0  0  0  0  0  0
  125.9010  122.7046   58.4954 H   0  0  0  0  0  0  0  0  0  0  0  0
  128.2477  122.4839   57.6936 H   0  0  0  0  0  0  0  0  0  0  0  0
  130.1358  122.9077   59.2534 H   0  0  0  0  0  0  0  0  0  0  0  0
  131.5869  123.4412   60.4316 H   0  0  0  0  0  0  0  0  0  0  0  0
  127.3552  127.5443   69.5368 H   0  0  0  0  0  0  0  0  0  0  0  0
  127.0122  127.6083   72.0006 H   0  0  0  0  0  0  0  0  0  0  0  0
  1  2  1  0
  2  3  1  0
  3  4  2  0
  4  5  1  0
  5  6  2  0
  6  7  1  0
  7  8  1  0
  8  9  2  0
  8 10  1  0
 10 11  1  0
 11 12  1  0
 12 13  2  0
 13 14  1  0
 14 15  1  0
 15 16  2  0
 16 17  1  0
 17 18  2  0
 18 19  1  0
 19 20  2  0
 14 21  2  0
 21 22  1  0
 22 23  1  0
 23 24  1  0
 23 25  1  0
 23 26  1  0
 22 27  2  0
 27 28  1  0
 28 29  3  0
  6 30  1  0
 30 31  2  0
 31  3  1  0
 27 12  1  0
 20 15  1  0
  1 32  1  0
  1 33  1  0
  1 34  1  0
  4 35  1  0
  5 36  1  0
  7 37  1  0
 10 38  1  0
 10 39  1  0
 16 40  1  0
 17 41  1  0
 18 42  1  0
 19 43  1  0
 20 44  1  0
 21 45  1  0
 30 46  1  0
 31 47  1  0
M  END
>  <Binding energies>  (1) 
[-7.98]

>  <Ligand effiencies>  (1) 
[-0.249375]

>  <Interactions>  (1) 
["V-B:GLU:543:CD:9880, V-B:TYR:539:CE2:9848, V-B:TYR:539:CD2:9846, V-B:PRO:540:CB:9857, V-B:PRO:540:N:9856, V-B:TYR:539:C:9839, V-B:PRO:540:C:9853, V-B:PRO:540:CA:9855, V-A:ASP:366:CG:3213, V-B:GLU:543:C:9874, V-B:GLU:543:CB:9878, V-B:GLY:544:C:9884, V-B:HIS:456:CE1:9040, H-B:LYS:547:NZ:9923, V-A:HIS:456:CE1:4069, V-A:HIS:456:CD2:4068, H-A:HIS:456:NE2:4070, H-A:GLY:454:N:4050, V-B:GLU:543:CG:9879, V-A:ILE:369:CD1:3239, V-A:GLY:453:C:4042, H-A:TYR:484:OH:4348, V-A:GLY:454:CA:4049, V-A:ARG:545:CZ:4926, V-A:GLY:453:CA:4044, H-B:GLU:543:O:9875, V-B:LYS:547:CD:9921"]

$$$$
3ad_Grossjean_2025
     RDKit          3D

 43 45  0  0  0  0  0  0  0  0999 V2000
  133.6050  130.3090   57.5010 N   0  0  0  0  0  0  0  0  0  0  0  0
  132.6220  130.7570   57.9170 C   0  0  0  0  0  0  0  0  0  0  0  0
  131.3760  131.3250   58.4410 C   0  0  0  0  0  0  0  0  0  0  0  0
  130.5030  132.0560   57.5990 C   0  0  0  0  0  0  0  0  0  0  0  0
  130.7750  132.2620   56.0970 C   0  0  0  0  0  0  0  0  0  0  0  0
  131.8940  132.9490   55.8610 F   0  0  0  0  0  0  0  0  0  0  0  0
  130.8940  131.0790   55.4900 F   0  0  0  0  0  0  0  0  0  0  0  0
  129.7680  132.9350   55.5370 F   0  0  0  0  0  0  0  0  0  0  0  0
  129.3470  132.6190   58.1600 C   0  0  0  0  0  0  0  0  0  0  0  0
  129.0710  132.4590   59.5220 C   0  0  0  0  0  0  0  0  0  0  0  0
  127.8580  133.0520   60.1760 C   0  0  0  0  0  0  0  0  0  0  0  0
  126.5910  132.4790   59.9890 C   0  0  0  0  0  0  0  0  0  0  0  0
  125.4610  133.0230   60.5940 C   0  0  0  0  0  0  0  0  0  0  0  0
  125.5850  134.1530   61.3970 C   0  0  0  0  0  0  0  0  0  0  0  0
  126.8300  134.7380   61.6000 C   0  0  0  0  0  0  0  0  0  0  0  0
  127.9580  134.1900   60.9940 C   0  0  0  0  0  0  0  0  0  0  0  0
  129.9140  131.7630   60.3260 N   0  0  0  0  0  0  0  0  0  0  0  0
  131.0260  131.1930   59.8040 C   0  0  0  0  0  0  0  0  0  0  0  0
  132.0040  130.3110   60.9990 S   0  0  0  0  0  0  0  0  0  0  0  0
  131.2650  128.6610   61.1880 C   0  0  0  0  0  0  0  0  0  0  0  0
  129.7840  128.7310   61.5660 C   0  0  0  0  0  0  0  0  0  0  0  0
  129.0620  127.7590   61.3410 O   0  0  0  0  0  0  0  0  0  0  0  0
  129.3850  129.8900   62.1310 N   0  0  0  0  0  0  0  0  0  0  0  0
  128.1150  130.2730   62.6010 C   0  0  0  0  0  0  0  0  0  0  0  0
  128.0880  131.4070   63.4180 C   0  0  0  0  0  0  0  0  0  0  0  0
  126.8820  131.8700   63.9400 C   0  0  0  0  0  0  0  0  0  0  0  0
  125.7010  131.1950   63.6490 C   0  0  0  0  0  0  0  0  0  0  0  0
  125.7140  130.0600   62.8430 C   0  0  0  0  0  0  0  0  0  0  0  0
  126.9170  129.5930   62.3190 C   0  0  0  0  0  0  0  0  0  0  0  0
  128.6534  133.1897   57.5250 H   0  0  0  0  0  0  0  0  0  0  0  0
  126.4888  131.5862   59.3546 H   0  0  0  0  0  0  0  0  0  0  0  0
  124.4747  132.5617   60.4380 H   0  0  0  0  0  0  0  0  0  0  0  0
  124.6931  134.5857   61.8737 H   0  0  0  0  0  0  0  0  0  0  0  0
  126.9237  135.6301   62.2367 H   0  0  0  0  0  0  0  0  0  0  0  0
  128.9413  134.6548   61.1582 H   0  0  0  0  0  0  0  0  0  0  0  0
  131.3624  128.1181   60.2363 H   0  0  0  0  0  0  0  0  0  0  0  0
  131.7968  128.1438   62.0002 H   0  0  0  0  0  0  0  0  0  0  0  0
  130.0840  130.6140   62.2010 H   0  0  0  0  0  0  0  0  0  0  0  0
  129.0238  131.9366   63.6500 H   0  0  0  0  0  0  0  0  0  0  0  0
  126.8638  132.7650   64.5792 H   0  0  0  0  0  0  0  0  0  0  0  0
  124.7484  131.5613   64.0594 H   0  0  0  0  0  0  0  0  0  0  0  0
  124.7749  129.5324   62.6201 H   0  0  0  0  0  0  0  0  0  0  0  0
  126.9299  128.6937   61.6856 H   0  0  0  0  0  0  0  0  0  0  0  0
  1  2  3  0
  2  3  1  0
  3  4  2  0
  4  5  1  0
  5  6  1  0
  5  7  1  0
  5  8  1  0
  4  9  1  0
  9 10  2  0
 10 11  1  0
 11 12  2  0
 12 13  1  0
 13 14  2  0
 14 15  1  0
 15 16  2  0
 10 17  1  0
 17 18  2  0
 18 19  1  0
 19 20  1  0
 20 21  1  0
 21 22  2  0
 21 23  1  0
 23 24  1  0
 24 25  2  0
 25 26  1  0
 26 27  2  0
 27 28  1  0
 28 29  2  0
 18  3  1  0
 29 24  1  0
 16 11  1  0
  9 30  1  0
 12 31  1  0
 13 32  1  0
 14 33  1  0
 15 34  1  0
 16 35  1  0
 20 36  1  0
 20 37  1  0
 23 38  1  0
 25 39  1  0
 26 40  1  0
 27 41  1  0
 28 42  1  0
 29 43  1  0
M  END
>  <Binding energies>  (1) 
[-6.71]

>  <Ligand effiencies>  (1) 
[-0.22366666666666665]

>  <Interactions>  (1) 
["V-A:PRO:540:CD:4887, V-A:PRO:540:N:4884, V-A:TYR:539:C:4867, V-A:PRO:540:CG:4886, V-A:ILE:538:CA:4860, V-A:LEU:363:CD1:3189, V-A:GLU:543:CD:4908, V-A:TYR:539:CE2:4876, V-A:PRO:540:CB:4885, V-A:PRO:540:CA:4883, V-A:TYR:539:CD2:4874, V-A:ILE:538:CG2:4863, V-B:LEU:475:CD1:9229, V-A:ALA:541:CB:4892, H-A:ARG:545:NH2:4928, H-A:GLU:543:OE1:4909, V-A:TYR:539:CE1:4875, V-A:TYR:539:CD1:4873, V-A:TYR:539:CG:4872, V-A:TYR:539:CA:4869"]

$$$$
3af_Grossjean_2025
     RDKit          3D

 42 44  0  0  0  0  0  0  0  0999 V2000
  124.2130  132.4010   61.1690 N   0  0  0  0  0  0  0  0  0  0  0  0
  125.2220  132.3280   60.6070 C   0  0  0  0  0  0  0  0  0  0  0  0
  126.5000  132.2360   59.8970 C   0  0  0  0  0  0  0  0  0  0  0  0
  127.5760  133.0940   60.2310 C   0  0  0  0  0  0  0  0  0  0  0  0
  127.4930  134.1260   61.3740 C   0  0  0  0  0  0  0  0  0  0  0  0
  126.4280  134.9240   61.2760 F   0  0  0  0  0  0  0  0  0  0  0  0
  127.4190  133.4990   62.5490 F   0  0  0  0  0  0  0  0  0  0  0  0
  128.5750  134.9050   61.3660 F   0  0  0  0  0  0  0  0  0  0  0  0
  128.7610  133.0050   59.4860 C   0  0  0  0  0  0  0  0  0  0  0  0
  128.8690  132.0880   58.4360 C   0  0  0  0  0  0  0  0  0  0  0  0
  130.1050  131.9650   57.5950 C   0  0  0  0  0  0  0  0  0  0  0  0
  131.2140  131.2350   58.0530 C   0  0  0  0  0  0  0  0  0  0  0  0
  132.3630  131.1150   57.2760 C   0  0  0  0  0  0  0  0  0  0  0  0
  132.4180  131.7240   56.0270 C   0  0  0  0  0  0  0  0  0  0  0  0
  131.3330  132.4500   55.5490 C   0  0  0  0  0  0  0  0  0  0  0  0
  130.1850  132.5670   56.3290 C   0  0  0  0  0  0  0  0  0  0  0  0
  127.8340  131.2700   58.1160 N   0  0  0  0  0  0  0  0  0  0  0  0
  126.6870  131.3210   58.8360 C   0  0  0  0  0  0  0  0  0  0  0  0
  125.4520  130.1640   58.2780 S   0  0  0  0  0  0  0  0  0  0  0  0
  125.9500  128.5030   58.8260 C   0  0  0  0  0  0  0  0  0  0  0  0
  126.0480  128.4120   60.3480 C   0  0  0  0  0  0  0  0  0  0  0  0
  126.7080  127.5040   60.8520 O   0  0  0  0  0  0  0  0  0  0  0  0
  125.3730  129.3630   61.0290 N   0  0  0  0  0  0  0  0  0  0  0  0
  125.2520  129.5570   62.4190 C   0  0  0  0  0  0  0  0  0  0  0  0
  126.2660  129.3410   63.3700 C   0  0  0  0  0  0  0  0  0  0  0  0
  126.0060  129.5730   64.7230 C   0  0  0  0  0  0  0  0  0  0  0  0
  124.7350  130.0150   65.0930 C   0  0  0  0  0  0  0  0  0  0  0  0
  123.7410  130.2310   64.1960 N   0  0  0  0  0  0  0  0  0  0  0  0
  124.0100  130.0010   62.8860 C   0  0  0  0  0  0  0  0  0  0  0  0
  129.6103  133.6604   59.7292 H   0  0  0  0  0  0  0  0  0  0  0  0
  131.1742  130.7510   59.0400 H   0  0  0  0  0  0  0  0  0  0  0  0
  133.2240  130.5407   57.6486 H   0  0  0  0  0  0  0  0  0  0  0  0
  133.3260  131.6307   55.4132 H   0  0  0  0  0  0  0  0  0  0  0  0
  131.3809  132.9294   54.5601 H   0  0  0  0  0  0  0  0  0  0  0  0
  129.3273  133.1402   55.9471 H   0  0  0  0  0  0  0  0  0  0  0  0
  125.2058  127.7739   58.4731 H   0  0  0  0  0  0  0  0  0  0  0  0
  126.9440  128.2888   58.4065 H   0  0  0  0  0  0  0  0  0  0  0  0
  124.8840  130.0470   60.4720 H   0  0  0  0  0  0  0  0  0  0  0  0
  127.2586  128.9912   63.0499 H   0  0  0  0  0  0  0  0  0  0  0  0
  126.7867  129.4107   65.4807 H   0  0  0  0  0  0  0  0  0  0  0  0
  124.5305  130.1961   66.1586 H   0  0  0  0  0  0  0  0  0  0  0  0
  123.2089  130.1728   62.1520 H   0  0  0  0  0  0  0  0  0  0  0  0
  1  2  3  0
  2  3  1  0
  3  4  2  0
  4  5  1  0
  5  6  1  0
  5  7  1  0
  5  8  1  0
  4  9  1  0
  9 10  2  0
 10 11  1  0
 11 12  2  0
 12 13  1  0
 13 14  2  0
 14 15  1  0
 15 16  2  0
 10 17  1  0
 17 18  2  0
 18 19  1  0
 19 20  1  0
 20 21  1  0
 21 22  2  0
 21 23  1  0
 23 24  1  0
 24 25  2  0
 25 26  1  0
 26 27  2  0
 27 28  1  0
 28 29  2  0
 18  3  1  0
 29 24  1  0
 16 11  1  0
  9 30  1  0
 12 31  1  0
 13 32  1  0
 14 33  1  0
 15 34  1  0
 16 35  1  0
 20 36  1  0
 20 37  1  0
 23 38  1  0
 25 39  1  0
 26 40  1  0
 27 41  1  0
 29 42  1  0
M  END
>  <Binding energies>  (1) 
[-6.78]

>  <Ligand effiencies>  (1) 
[-0.226]

>  <Interactions>  (1) 
["H-B:ASP:366:OD1:8185, V-B:ASP:366:CG:8184, V-A:PRO:540:CD:4887, V-A:PRO:540:N:4884, V-A:TYR:539:C:4867, V-A:TYR:531:CE2:4793, V-A:LEU:363:CD1:3189, V-A:TYR:539:CE2:4876, V-A:PRO:540:C:4881, V-B:PRO:482:CG:9298, V-A:PRO:540:CB:4885, V-A:PRO:540:CA:4883, V-A:TYR:539:CD2:4874, V-B:LEU:475:CD1:9229, V-A:ALA:541:CB:4892, H-B:ARG:545:NE:9896, H-B:GLY:454:N:9021, V-B:ARG:545:CZ:9898, H-B:ARG:545:NH2:9900, H-B:ARG:545:NH1:9899, V-B:TRP:381:CH2:8343, H-B:ASP:366:OD2:8186, V-A:TYR:539:CD1:4873, V-A:TYR:539:CZ:4877, H-A:TYR:539:OH:4878, V-A:ALA:541:CA:4890"]

$$$$
3ag_Grossjean_2025
     RDKit          3D

 46 48  0  0  0  0  0  0  0  0999 V2000
  133.6330  130.3710   57.6530 N   0  0  0  0  0  0  0  0  0  0  0  0
  132.6380  130.8100   58.0530 C   0  0  0  0  0  0  0  0  0  0  0  0
  131.3790  131.3670   58.5540 C   0  0  0  0  0  0  0  0  0  0  0  0
  130.5010  132.0650   57.6890 C   0  0  0  0  0  0  0  0  0  0  0  0
  130.7750  132.2300   56.1820 C   0  0  0  0  0  0  0  0  0  0  0  0
  130.8650  131.0630   55.5410 F   0  0  0  0  0  0  0  0  0  0  0  0
  129.7880  132.9250   55.6150 F   0  0  0  0  0  0  0  0  0  0  0  0
  131.9250  132.8780   55.9920 F   0  0  0  0  0  0  0  0  0  0  0  0
  129.3330  132.6260   58.2290 C   0  0  0  0  0  0  0  0  0  0  0  0
  129.0570  132.5050   59.5950 C   0  0  0  0  0  0  0  0  0  0  0  0
  127.8270  133.0860   60.2240 C   0  0  0  0  0  0  0  0  0  0  0  0
  126.5760  132.4720   60.0540 C   0  0  0  0  0  0  0  0  0  0  0  0
  125.4300  133.0070   60.6360 C   0  0  0  0  0  0  0  0  0  0  0  0
  125.5200  134.1670   61.3980 C   0  0  0  0  0  0  0  0  0  0  0  0
  126.7470  134.7970   61.5800 C   0  0  0  0  0  0  0  0  0  0  0  0
  127.8900  134.2600   60.9960 C   0  0  0  0  0  0  0  0  0  0  0  0
  129.8950  131.8250   60.4190 N   0  0  0  0  0  0  0  0  0  0  0  0
  131.0180  131.2580   59.9160 C   0  0  0  0  0  0  0  0  0  0  0  0
  131.9930  130.4070   61.1370 S   0  0  0  0  0  0  0  0  0  0  0  0
  131.2490  128.7650   61.3760 C   0  0  0  0  0  0  0  0  0  0  0  0
  129.7270  128.8350   61.5120 C   0  0  0  0  0  0  0  0  0  0  0  0
  129.0320  127.8980   61.1170 O   0  0  0  0  0  0  0  0  0  0  0  0
  129.2290  129.9470   62.0790 N   0  0  0  0  0  0  0  0  0  0  0  0
  127.8130  130.2060   62.3380 C   0  0  0  0  0  0  0  0  0  0  0  0
  127.3330  129.7270   63.7040 C   0  0  0  0  0  0  0  0  0  0  0  0
  128.2650  129.3850   64.6870 C   0  0  0  0  0  0  0  0  0  0  0  0
  127.8310  128.9750   65.9450 C   0  0  0  0  0  0  0  0  0  0  0  0
  126.4660  128.9190   66.2190 C   0  0  0  0  0  0  0  0  0  0  0  0
  125.5310  129.2740   65.2490 C   0  0  0  0  0  0  0  0  0  0  0  0
  125.9650  129.6840   63.9910 C   0  0  0  0  0  0  0  0  0  0  0  0
  128.6311  133.1636   57.5745 H   0  0  0  0  0  0  0  0  0  0  0  0
  126.5001  131.5545   59.4520 H   0  0  0  0  0  0  0  0  0  0  0  0
  124.4570  132.5141   60.4937 H   0  0  0  0  0  0  0  0  0  0  0  0
  124.6152  134.5891   61.8597 H   0  0  0  0  0  0  0  0  0  0  0  0
  126.8131  135.7149   62.1825 H   0  0  0  0  0  0  0  0  0  0  0  0
  128.8583  134.7616   61.1404 H   0  0  0  0  0  0  0  0  0  0  0  0
  131.4987  128.1335   60.5107 H   0  0  0  0  0  0  0  0  0  0  0  0
  131.6525  128.3437   62.3086 H   0  0  0  0  0  0  0  0  0  0  0  0
  129.8730  130.6620   62.3830 H   0  0  0  0  0  0  0  0  0  0  0  0
  127.6425  131.2907   62.2726 H   0  0  0  0  0  0  0  0  0  0  0  0
  127.2439  129.6408   61.5852 H   0  0  0  0  0  0  0  0  0  0  0  0
  129.3414  129.4396   64.4672 H   0  0  0  0  0  0  0  0  0  0  0  0
  128.5620  128.6968   66.7185 H   0  0  0  0  0  0  0  0  0  0  0  0
  126.1230  128.5911   67.2114 H   0  0  0  0  0  0  0  0  0  0  0  0
  124.4555  129.2306   65.4758 H   0  0  0  0  0  0  0  0  0  0  0  0
  125.2323  129.9739   63.2235 H   0  0  0  0  0  0  0  0  0  0  0  0
  1  2  3  0
  2  3  1  0
  3  4  2  0
  4  5  1  0
  5  6  1  0
  5  7  1  0
  5  8  1  0
  4  9  1  0
  9 10  2  0
 10 11  1  0
 11 12  2  0
 12 13  1  0
 13 14  2  0
 14 15  1  0
 15 16  2  0
 10 17  1  0
 17 18  2  0
 18 19  1  0
 19 20  1  0
 20 21  1  0
 21 22  2  0
 21 23  1  0
 23 24  1  0
 24 25  1  0
 25 26  2  0
 26 27  1  0
 27 28  2  0
 28 29  1  0
 29 30  2  0
 18  3  1  0
 30 25  1  0
 16 11  1  0
  9 31  1  0
 12 32  1  0
 13 33  1  0
 14 34  1  0
 15 35  1  0
 16 36  1  0
 20 37  1  0
 20 38  1  0
 23 39  1  0
 24 40  1  0
 24 41  1  0
 26 42  1  0
 27 43  1  0
 28 44  1  0
 29 45  1  0
 30 46  1  0
M  END
>  <Binding energies>  (1) 
[-7.12]

>  <Ligand effiencies>  (1) 
[-0.2296774193548387]

>  <Interactions>  (1) 
["V-A:PRO:540:CD:4887, V-A:PRO:540:N:4884, V-A:TYR:539:C:4867, V-A:PRO:540:CG:4886, V-A:ILE:538:CA:4860, V-A:LEU:363:CD1:3189, V-A:GLU:543:CD:4908, V-A:TYR:539:CE2:4876, V-A:PRO:540:CB:4885, V-A:PRO:540:CA:4883, V-A:TYR:539:CD2:4874, V-A:ILE:538:CG2:4863, V-B:LEU:475:CD1:9229, V-A:ALA:541:CB:4892, H-A:ALA:541:N:4891, V-B:HIS:456:CE1:9040, V-A:GLU:543:CB:4906, V-B:ARG:545:CZ:9898, H-A:ARG:545:NH2:4928, H-A:GLU:543:OE1:4909, V-A:TYR:539:CE1:4875, V-A:TYR:539:CD1:4873, V-A:TYR:539:CG:4872, V-A:TYR:539:CA:4869"]

$$$$
3ai_Grossjean_2025
     RDKit          3D

 39 41  0  0  0  0  0  0  0  0999 V2000
  130.0710  124.3790   68.3960 N   0  0  0  0  0  0  0  0  0  0  0  0
  129.4410  125.1740   67.8380 C   0  0  0  0  0  0  0  0  0  0  0  0
  128.6440  126.1800   67.1290 C   0  0  0  0  0  0  0  0  0  0  0  0
  129.0010  126.5980   65.8240 C   0  0  0  0  0  0  0  0  0  0  0  0
  130.1980  126.0040   65.0580 C   0  0  0  0  0  0  0  0  0  0  0  0
  130.4390  126.6310   63.9050 F   0  0  0  0  0  0  0  0  0  0  0  0
  131.3030  126.0920   65.8020 F   0  0  0  0  0  0  0  0  0  0  0  0
  129.9700  124.7210   64.7730 F   0  0  0  0  0  0  0  0  0  0  0  0
  128.2340  127.5990   65.2080 C   0  0  0  0  0  0  0  0  0  0  0  0
  127.1440  128.1670   65.8750 C   0  0  0  0  0  0  0  0  0  0  0  0
  126.2980  129.2460   65.2690 C   0  0  0  0  0  0  0  0  0  0  0  0
  124.9300  129.3380   65.5720 C   0  0  0  0  0  0  0  0  0  0  0  0
  124.1380  130.3390   65.0170 C   0  0  0  0  0  0  0  0  0  0  0  0
  124.7070  131.2670   64.1500 C   0  0  0  0  0  0  0  0  0  0  0  0
  126.0600  131.2000   63.8360 C   0  0  0  0  0  0  0  0  0  0  0  0
  126.8480  130.1970   64.3930 C   0  0  0  0  0  0  0  0  0  0  0  0
  126.8110  127.7690   67.1300 N   0  0  0  0  0  0  0  0  0  0  0  0
  127.5220  126.7880   67.7360 C   0  0  0  0  0  0  0  0  0  0  0  0
  126.9260  126.3840   69.3650 S   0  0  0  0  0  0  0  0  0  0  0  0
  128.1990  126.8940   70.5690 C   0  0  0  0  0  0  0  0  0  0  0  0
  128.6700  125.7860   71.5220 C   0  0  0  0  0  0  0  0  0  0  0  0
  128.6820  125.9660   72.7420 O   0  0  0  0  0  0  0  0  0  0  0  0
  129.0570  124.6430   70.9120 N   0  0  0  0  0  0  0  0  0  0  0  0
  129.5200  123.4810   71.5160 C   0  0  0  0  0  0  0  0  0  0  0  0
  130.7410  123.4050   72.1850 C   0  0  0  0  0  0  0  0  0  0  0  0
  130.8260  122.1060   72.6280 C   0  0  0  0  0  0  0  0  0  0  0  0
  129.7140  121.4340   72.2480 O   0  0  0  0  0  0  0  0  0  0  0  0
  128.8930  122.3170   71.5440 N   0  0  0  0  0  0  0  0  0  0  0  0
  128.4919  127.9389   64.1941 H   0  0  0  0  0  0  0  0  0  0  0  0
  124.4772  128.6076   66.2587 H   0  0  0  0  0  0  0  0  0  0  0  0
  123.0673  130.3963   65.2626 H   0  0  0  0  0  0  0  0  0  0  0  0
  124.0825  132.0586   63.7103 H   0  0  0  0  0  0  0  0  0  0  0  0
  126.5054  131.9362   63.1507 H   0  0  0  0  0  0  0  0  0  0  0  0
  127.9182  130.1480   64.1435 H   0  0  0  0  0  0  0  0  0  0  0  0
  129.0732  127.2568   70.0086 H   0  0  0  0  0  0  0  0  0  0  0  0
  127.7344  127.6660   71.2000 H   0  0  0  0  0  0  0  0  0  0  0  0
  129.0040  124.6160   69.9040 H   0  0  0  0  0  0  0  0  0  0  0  0
  131.4770  124.2100   72.3276 H   0  0  0  0  0  0  0  0  0  0  0  0
  131.6639  121.6808   73.1999 H   0  0  0  0  0  0  0  0  0  0  0  0
  1  2  3  0
  2  3  1  0
  3  4  2  0
  4  5  1  0
  5  6  1  0
  5  7  1  0
  5  8  1  0
  4  9  1  0
  9 10  2  0
 10 11  1  0
 11 12  2  0
 12 13  1  0
 13 14  2  0
 14 15  1  0
 15 16  2  0
 10 17  1  0
 17 18  2  0
 18 19  1  0
 19 20  1  0
 20 21  1  0
 21 22  2  0
 21 23  1  0
 23 24  1  0
 24 25  1  0
 25 26  2  0
 26 27  1  0
 27 28  1  0
 18  3  1  0
 28 24  2  0
 16 11  1  0
  9 29  1  0
 12 30  1  0
 13 31  1  0
 14 32  1  0
 15 33  1  0
 16 34  1  0
 20 35  1  0
 20 36  1  0
 23 37  1  0
 25 38  1  0
 26 39  1  0
M  END
>  <Binding energies>  (1) 
[-7.98]

>  <Ligand effiencies>  (1) 
[-0.2751724137931035]

>  <Interactions>  (1) 
["V-B:GLU:543:CD:9880, V-A:GLU:543:CD:4908, V-B:LEU:475:CD1:9229, V-B:GLU:543:C:9874, V-B:GLU:543:CB:9878, V-B:HIS:456:CE1:9040, H-B:LYS:547:NZ:9923, V-A:HIS:456:CE1:4069, V-A:HIS:456:CG:4066, V-A:HIS:456:CD2:4068, V-A:ASP:473:CB:4239, V-A:HIS:456:CB:4065, H-A:HIS:456:NE2:4070, V-B:ARG:545:CD:9895, V-B:ARG:545:CZ:9898, V-B:GLU:543:CG:9879, V-B:GLY:454:CA:9020, V-A:TYR:484:CE1:4345, V-A:TYR:484:CZ:4347, H-A:TYR:484:OH:4348, H-B:GLU:543:O:9875, V-A:TYR:484:CD2:4344, V-A:TYR:484:CG:4342, V-A:TYR:484:CE2:4346, V-A:TYR:484:CB:4341, V-A:TYR:484:CD1:4343, H-B:ARG:545:N:9892"]

$$$$
3aj_Grossjean_2025
     RDKit          3D

 39 41  0  0  0  0  0  0  0  0999 V2000
  127.9830  127.8540   63.3500 N   0  0  0  0  0  0  0  0  0  0  0  0
  128.2530  127.4650   64.4050 C   0  0  0  0  0  0  0  0  0  0  0  0
  128.5960  126.9700   65.7420 C   0  0  0  0  0  0  0  0  0  0  0  0
  129.3270  125.7680   65.9030 C   0  0  0  0  0  0  0  0  0  0  0  0
  129.8380  124.9390   64.7080 C   0  0  0  0  0  0  0  0  0  0  0  0
  128.9100  124.7660   63.7640 F   0  0  0  0  0  0  0  0  0  0  0  0
  130.8800  125.5480   64.1420 F   0  0  0  0  0  0  0  0  0  0  0  0
  130.2160  123.7290   65.1210 F   0  0  0  0  0  0  0  0  0  0  0  0
  129.5890  125.3120   67.2040 C   0  0  0  0  0  0  0  0  0  0  0  0
  129.1320  126.0340   68.3120 C   0  0  0  0  0  0  0  0  0  0  0  0
  129.3760  125.5870   69.7210 C   0  0  0  0  0  0  0  0  0  0  0  0
  130.0200  124.3690   69.9850 C   0  0  0  0  0  0  0  0  0  0  0  0
  130.2530  123.9500   71.2930 C   0  0  0  0  0  0  0  0  0  0  0  0
  129.8420  124.7470   72.3570 C   0  0  0  0  0  0  0  0  0  0  0  0
  129.2030  125.9600   72.1210 C   0  0  0  0  0  0  0  0  0  0  0  0
  128.9740  126.3750   70.8130 C   0  0  0  0  0  0  0  0  0  0  0  0
  128.4260  127.1820   68.1520 N   0  0  0  0  0  0  0  0  0  0  0  0
  128.1800  127.6550   66.9070 C   0  0  0  0  0  0  0  0  0  0  0  0
  127.2630  129.1800   66.8950 S   0  0  0  0  0  0  0  0  0  0  0  0
  125.4900  128.7650   66.7720 C   0  0  0  0  0  0  0  0  0  0  0  0
  124.7120  129.5460   65.7020 C   0  0  0  0  0  0  0  0  0  0  0  0
  123.7680  130.2740   66.0140 O   0  0  0  0  0  0  0  0  0  0  0  0
  125.1530  129.3610   64.4370 N   0  0  0  0  0  0  0  0  0  0  0  0
  124.6400  129.9470   63.2870 C   0  0  0  0  0  0  0  0  0  0  0  0
  123.5680  130.7010   63.1740 N   0  0  0  0  0  0  0  0  0  0  0  0
  123.3780  131.0910   61.9290 C   0  0  0  0  0  0  0  0  0  0  0  0
  124.3130  130.6490   60.9960 C   0  0  0  0  0  0  0  0  0  0  0  0
  125.4980  129.6690   61.8050 S   0  0  0  0  0  0  0  0  0  0  0  0
  130.1568  124.3818   67.3536 H   0  0  0  0  0  0  0  0  0  0  0  0
  130.3458  123.7355   69.1469 H   0  0  0  0  0  0  0  0  0  0  0  0
  130.7600  122.9927   71.4840 H   0  0  0  0  0  0  0  0  0  0  0  0
  130.0233  124.4162   73.3903 H   0  0  0  0  0  0  0  0  0  0  0  0
  128.8804  126.5880   72.9645 H   0  0  0  0  0  0  0  0  0  0  0  0
  128.4701  127.3356   70.6306 H   0  0  0  0  0  0  0  0  0  0  0  0
  125.4060  127.6930   66.5403 H   0  0  0  0  0  0  0  0  0  0  0  0
  125.0426  129.0399   67.7386 H   0  0  0  0  0  0  0  0  0  0  0  0
  125.9400  128.7440   64.3030 H   0  0  0  0  0  0  0  0  0  0  0  0
  122.5290  131.7294   61.6432 H   0  0  0  0  0  0  0  0  0  0  0  0
  124.3029  130.8825   59.9211 H   0  0  0  0  0  0  0  0  0  0  0  0
  1  2  3  0
  2  3  1  0
  3  4  2  0
  4  5  1  0
  5  6  1  0
  5  7  1  0
  5  8  1  0
  4  9  1  0
  9 10  2  0
 10 11  1  0
 11 12  2  0
 12 13  1  0
 13 14  2  0
 14 15  1  0
 15 16  2  0
 10 17  1  0
 17 18  2  0
 18 19  1  0
 19 20  1  0
 20 21  1  0
 21 22  2  0
 21 23  1  0
 23 24  1  0
 24 25  2  0
 25 26  1  0
 26 27  2  0
 27 28  1  0
 18  3  1  0
 28 24  1  0
 16 11  1  0
  9 29  1  0
 12 30  1  0
 13 31  1  0
 14 32  1  0
 15 33  1  0
 16 34  1  0
 20 35  1  0
 20 36  1  0
 23 37  1  0
 26 38  1  0
 27 39  1  0
M  END
>  <Binding energies>  (1) 
[-7.12]

>  <Ligand effiencies>  (1) 
[-0.24551724137931036]

>  <Interactions>  (1) 
["V-B:GLU:543:CD:9880, V-B:ASP:366:CG:8184, V-B:GLU:543:CB:9878, V-B:HIS:456:CE1:9040, V-B:ARG:545:CG:9894, V-A:HIS:456:CE1:4069, V-A:HIS:456:CG:4066, V-A:HIS:456:CD2:4068, H-B:GLU:543:OE1:9881, H-B:TYR:484:OH:9319, H-B:GLY:454:N:9021, V-B:ILE:369:CD1:8210, V-B:ARG:545:CD:9895, V-B:ARG:545:CZ:9898, V-B:GLU:543:CG:9879, V-A:TYR:484:CE1:4345, H-B:ARG:545:NH2:9900, H-B:ILE:455:N:9026, V-A:TYR:484:CZ:4347, V-A:TYR:484:CE2:4346, V-A:TYR:484:CD1:4343"]

$$$$
3ak_Grossjean_2025
     RDKit          3D

 57 58  0  0  0  0  0  0  0  0999 V2000
  124.4650  125.0390   57.2380 C   0  0  0  0  0  0  0  0  0  0  0  0
  125.0410  124.6970   55.9870 O   0  0  0  0  0  0  0  0  0  0  0  0
  125.2740  123.3040   55.8340 C   0  0  0  0  0  0  0  0  0  0  0  0
  126.7860  123.0460   55.8500 C   0  0  0  0  0  0  0  0  0  0  0  0
  127.0720  122.0300   56.8070 O   0  0  0  0  0  0  0  0  0  0  0  0
  127.7470  122.4670   57.9830 C   0  0  0  0  0  0  0  0  0  0  0  0
  126.8050  123.0120   59.0720 C   0  0  0  0  0  0  0  0  0  0  0  0
  127.2410  122.5480   60.3430 O   0  0  0  0  0  0  0  0  0  0  0  0
  128.6420  122.6700   60.5500 C   0  0  0  0  0  0  0  0  0  0  0  0
  129.0070  122.2390   61.9820 C   0  0  0  0  0  0  0  0  0  0  0  0
  129.4140  123.3510   62.8430 N   0  0  0  0  0  0  0  0  0  0  0  0
  129.6660  123.2770   64.1640 C   0  0  0  0  0  0  0  0  0  0  0  0
  129.5930  122.2240   64.7980 O   0  0  0  0  0  0  0  0  0  0  0  0
  130.0620  124.5590   64.9160 C   0  0  0  0  0  0  0  0  0  0  0  0
  130.5480  125.9940   63.8860 S   0  0  0  0  0  0  0  0  0  0  0  0
  131.4340  125.3980   62.4550 C   0  0  0  0  0  0  0  0  0  0  0  0
  130.8220  125.5950   61.2620 N   0  0  0  0  0  0  0  0  0  0  0  0
  131.4140  125.1710   60.1170 C   0  0  0  0  0  0  0  0  0  0  0  0
  130.6670  125.4300   58.8430 C   0  0  0  0  0  0  0  0  0  0  0  0
  129.2630  125.4260   58.8200 C   0  0  0  0  0  0  0  0  0  0  0  0
  128.5640  125.6700   57.6410 C   0  0  0  0  0  0  0  0  0  0  0  0
  129.2610  125.9240   56.4650 C   0  0  0  0  0  0  0  0  0  0  0  0
  130.6510  125.9370   56.4600 C   0  0  0  0  0  0  0  0  0  0  0  0
  131.3480  125.6930   57.6410 C   0  0  0  0  0  0  0  0  0  0  0  0
  132.6640  124.5440   60.1460 C   0  0  0  0  0  0  0  0  0  0  0  0
  133.3210  124.3290   61.3660 C   0  0  0  0  0  0  0  0  0  0  0  0
  134.6960  123.6330   61.3590 C   0  0  0  0  0  0  0  0  0  0  0  0
  134.5990  122.4240   61.9120 F   0  0  0  0  0  0  0  0  0  0  0  0
  135.1340  123.5010   60.1060 F   0  0  0  0  0  0  0  0  0  0  0  0
  135.6240  124.3120   62.0370 F   0  0  0  0  0  0  0  0  0  0  0  0
  132.6920  124.7650   62.5580 C   0  0  0  0  0  0  0  0  0  0  0  0
  133.3320  124.5670   63.8630 C   0  0  0  0  0  0  0  0  0  0  0  0
  133.8360  124.4100   64.8940 N   0  0  0  0  0  0  0  0  0  0  0  0
  125.1023  124.6606   58.0508 H   0  0  0  0  0  0  0  0  0  0  0  0
  124.3816  126.1330   57.3165 H   0  0  0  0  0  0  0  0  0  0  0  0
  123.4646  124.5885   57.3165 H   0  0  0  0  0  0  0  0  0  0  0  0
  124.7978  122.7573   56.6613 H   0  0  0  0  0  0  0  0  0  0  0  0
  124.8480  122.9584   54.8805 H   0  0  0  0  0  0  0  0  0  0  0  0
  127.1148  122.7170   54.8532 H   0  0  0  0  0  0  0  0  0  0  0  0
  127.3184  123.9704   56.1183 H   0  0  0  0  0  0  0  0  0  0  0  0
  128.3039  121.6152   58.4004 H   0  0  0  0  0  0  0  0  0  0  0  0
  128.4069  123.2952   57.6854 H   0  0  0  0  0  0  0  0  0  0  0  0
  126.8220  124.1118   59.0563 H   0  0  0  0  0  0  0  0  0  0  0  0
  125.7797  122.6614   58.8827 H   0  0  0  0  0  0  0  0  0  0  0  0
  129.1728  122.0286   59.8310 H   0  0  0  0  0  0  0  0  0  0  0  0
  128.9363  123.7199   60.4050 H   0  0  0  0  0  0  0  0  0  0  0  0
  128.1294  121.7530   62.4332 H   0  0  0  0  0  0  0  0  0  0  0  0
  129.8682  121.5590   61.9046 H   0  0  0  0  0  0  0  0  0  0  0  0
  129.5150  124.2480   62.3900 H   0  0  0  0  0  0  0  0  0  0  0  0
  129.2026  124.8647   65.5308 H   0  0  0  0  0  0  0  0  0  0  0  0
  130.9626  124.2938   65.4892 H   0  0  0  0  0  0  0  0  0  0  0  0
  128.7068  125.2270   59.7479 H   0  0  0  0  0  0  0  0  0  0  0  0
  127.4640  125.6619   57.6398 H   0  0  0  0  0  0  0  0  0  0  0  0
  128.7091  126.1158   55.5330 H   0  0  0  0  0  0  0  0  0  0  0  0
  131.1981  126.1391   55.5274 H   0  0  0  0  0  0  0  0  0  0  0  0
  132.4479  125.7062   57.6334 H   0  0  0  0  0  0  0  0  0  0  0  0
  133.1342  124.2178   59.2066 H   0  0  0  0  0  0  0  0  0  0  0  0
  1  2  1  0
  2  3  1  0
  3  4  1  0
  4  5  1  0
  5  6  1  0
  6  7  1  0
  7  8  1  0
  8  9  1  0
  9 10  1  0
 10 11  1  0
 11 12  1  0
 12 13  2  0
 12 14  1  0
 14 15  1  0
 15 16  1  0
 16 17  2  0
 17 18  1  0
 18 19  1  0
 19 20  2  0
 20 21  1  0
 21 22  2  0
 22 23  1  0
 23 24  2  0
 18 25  2  0
 25 26  1  0
 26 27  1  0
 27 28  1  0
 27 29  1  0
 27 30  1  0
 26 31  2  0
 31 32  1  0
 32 33  3  0
 31 16  1  0
 24 19  1  0
  1 34  1  0
  1 35  1  0
  1 36  1  0
  3 37  1  0
  3 38  1  0
  4 39  1  0
  4 40  1  0
  6 41  1  0
  6 42  1  0
  7 43  1  0
  7 44  1  0
  9 45  1  0
  9 46  1  0
 10 47  1  0
 10 48  1  0
 11 49  1  0
 14 50  1  0
 14 51  1  0
 20 52  1  0
 21 53  1  0
 22 54  1  0
 23 55  1  0
 24 56  1  0
 25 57  1  0
M  END
>  <Binding energies>  (1) 
[-5.53]

>  <Ligand effiencies>  (1) 
[-0.16264705882352942]

>  <Interactions>  (1) 
["V-B:ILE:538:CB:9834, V-B:ALA:541:CB:9864, V-B:TYR:539:CE2:9848, V-B:TYR:539:CD2:9846, H-B:ALA:541:N:9863, V-B:PRO:540:CB:9857, V-B:PRO:540:N:9856, V-B:TYR:539:C:9839, V-B:LEU:363:CD1:8160, V-B:PRO:540:CA:9855, V-B:TYR:539:CZ:9849, V-A:ASP:366:CG:3213, V-B:ILE:538:CG2:9835, V-B:TYR:539:CG:9844, H-B:TYR:539:N:9842, H-A:GLY:454:N:4050, V-B:GLU:543:CG:9879, V-A:ILE:369:CD1:3239, V-A:ILE:369:CG2:3237, V-A:ILE:369:CB:3236, V-A:GLY:453:C:4042, H-A:TYR:484:OH:4348, V-A:GLY:454:CA:4049, V-A:ASP:366:CA:3210, V-A:ARG:545:CZ:4926, V-A:GLY:453:CA:4044, H-B:TYR:531:OH:9767, V-A:ILE:369:CG1:3238"]

$$$$
3bc_Grossjean_2025
     RDKit          3D

 47 49  0  0  0  0  0  0  0  0999 V2000
  133.8360  129.6460   56.8040 C   0  0  0  0  0  0  0  0  0  0  0  0
  134.1040  130.6510   57.7760 O   0  0  0  0  0  0  0  0  0  0  0  0
  133.2400  130.8000   58.8450 C   0  0  0  0  0  0  0  0  0  0  0  0
  131.8840  130.6130   58.5790 C   0  0  0  0  0  0  0  0  0  0  0  0
  130.9380  130.7430   59.5920 C   0  0  0  0  0  0  0  0  0  0  0  0
  131.3380  131.0720   60.8890 C   0  0  0  0  0  0  0  0  0  0  0  0
  130.3120  131.1690   61.8480 N   0  0  0  0  0  0  0  0  0  0  0  0
  129.3970  132.1460   62.0210 C   0  0  0  0  0  0  0  0  0  0  0  0
  129.2880  133.1410   61.3010 O   0  0  0  0  0  0  0  0  0  0  0  0
  128.4290  131.9190   63.1910 C   0  0  0  0  0  0  0  0  0  0  0  0
  127.2280  130.5670   62.9530 S   0  0  0  0  0  0  0  0  0  0  0  0
  126.3950  130.8450   61.4060 C   0  0  0  0  0  0  0  0  0  0  0  0
  127.2370  131.0230   60.3580 N   0  0  0  0  0  0  0  0  0  0  0  0
  126.7340  131.2430   59.1150 C   0  0  0  0  0  0  0  0  0  0  0  0
  127.7310  131.4520   58.0150 C   0  0  0  0  0  0  0  0  0  0  0  0
  128.6580  132.5030   58.0780 C   0  0  0  0  0  0  0  0  0  0  0  0
  129.5870  132.7030   57.0600 C   0  0  0  0  0  0  0  0  0  0  0  0
  129.6000  131.8510   55.9610 C   0  0  0  0  0  0  0  0  0  0  0  0
  128.6910  130.8020   55.8730 C   0  0  0  0  0  0  0  0  0  0  0  0
  127.7620  130.6070   56.8930 C   0  0  0  0  0  0  0  0  0  0  0  0
  125.3530  131.2890   58.8970 C   0  0  0  0  0  0  0  0  0  0  0  0
  124.4700  131.0830   59.9640 C   0  0  0  0  0  0  0  0  0  0  0  0
  122.9700  131.1250   59.6760 C   0  0  0  0  0  0  0  0  0  0  0  0
  124.9900  130.8440   61.2540 C   0  0  0  0  0  0  0  0  0  0  0  0
  124.0860  130.5780   62.3750 C   0  0  0  0  0  0  0  0  0  0  0  0
  123.3700  130.3690   63.2600 N   0  0  0  0  0  0  0  0  0  0  0  0
  132.7010  131.2500   61.1680 C   0  0  0  0  0  0  0  0  0  0  0  0
  133.6440  131.1180   60.1510 C   0  0  0  0  0  0  0  0  0  0  0  0
  133.5845  128.7030   57.3114 H   0  0  0  0  0  0  0  0  0  0  0  0
  132.9904  129.9607   56.1748 H   0  0  0  0  0  0  0  0  0  0  0  0
  134.7260  129.4978   56.1748 H   0  0  0  0  0  0  0  0  0  0  0  0
  131.5587  130.3604   57.5590 H   0  0  0  0  0  0  0  0  0  0  0  0
  129.8721  130.5861   59.3702 H   0  0  0  0  0  0  0  0  0  0  0  0
  130.2250  130.3620   62.4480 H   0  0  0  0  0  0  0  0  0  0  0  0
  129.0252  131.6910   64.0868 H   0  0  0  0  0  0  0  0  0  0  0  0
  127.8367  132.8416   63.2810 H   0  0  0  0  0  0  0  0  0  0  0  0
  128.6510  133.1798   58.9451 H   0  0  0  0  0  0  0  0  0  0  0  0
  130.3076  133.5316   57.1249 H   0  0  0  0  0  0  0  0  0  0  0  0
  130.3336  132.0076   55.1565 H   0  0  0  0  0  0  0  0  0  0  0  0
  128.7054  130.1297   55.0025 H   0  0  0  0  0  0  0  0  0  0  0  0
  127.0419  129.7788   56.8186 H   0  0  0  0  0  0  0  0  0  0  0  0
  124.9611  131.4868   57.8884 H   0  0  0  0  0  0  0  0  0  0  0  0
  122.4147  131.1405   60.6254 H   0  0  0  0  0  0  0  0  0  0  0  0
  122.7329  132.0301   59.0976 H   0  0  0  0  0  0  0  0  0  0  0  0
  122.6826  130.2346   59.0976 H   0  0  0  0  0  0  0  0  0  0  0  0
  133.0256  131.4939   62.1903 H   0  0  0  0  0  0  0  0  0  0  0  0
  134.7115  131.2639   60.3729 H   0  0  0  0  0  0  0  0  0  0  0  0
  1  2  1  0
  2  3  1  0
  3  4  2  0
  4  5  1  0
  5  6  2  0
  6  7  1  0
  7  8  1  0
  8  9  2  0
  8 10  1  0
 10 11  1  0
 11 12  1  0
 12 13  2  0
 13 14  1  0
 14 15  1  0
 15 16  2  0
 16 17  1  0
 17 18  2  0
 18 19  1  0
 19 20  2  0
 14 21  2  0
 21 22  1  0
 22 23  1  0
 22 24  2  0
 24 25  1  0
 25 26  3  0
  6 27  1  0
 27 28  2  0
 28  3  1  0
 24 12  1  0
 20 15  1  0
  1 29  1  0
  1 30  1  0
  1 31  1  0
  4 32  1  0
  5 33  1  0
  7 34  1  0
 10 35  1  0
 10 36  1  0
 16 37  1  0
 17 38  1  0
 18 39  1  0
 19 40  1  0
 20 41  1  0
 21 42  1  0
 23 43  1  0
 23 44  1  0
 23 45  1  0
 27 46  1  0
 28 47  1  0
M  END
>  <Binding energies>  (1) 
[-7.69]

>  <Ligand effiencies>  (1) 
[-0.26517241379310347]

>  <Interactions>  (1) 
["V-B:ASP:366:CG:8184, V-A:PRO:540:N:4884, V-A:ASP:366:CB:3212, V-A:TYR:539:C:4867, V-A:TYR:531:CE2:4793, V-A:TYR:531:CZ:4794, V-A:ASP:366:CG:3213, V-A:LEU:363:CD1:3189, V-A:GLU:543:CD:4908, V-A:TYR:539:CE2:4876, V-A:PRO:540:CB:4885, V-A:PRO:540:CA:4883, V-A:TYR:539:CD2:4874, V-A:ALA:541:CB:4892, H-A:ALA:541:N:4891, V-B:ASP:366:CB:8183, H-B:GLY:454:N:9021, V-B:ILE:369:CD1:8210, V-B:ILE:369:CG2:8208, H-B:ARG:545:NH2:9900, H-B:ARG:545:NH1:9899, V-A:ASN:362:C:3172, V-A:ASN:362:CB:3176, H-A:GLU:543:OE1:4909, V-A:TYR:539:CE1:4875, V-A:TYR:539:CD1:4873, V-A:TYR:539:CZ:4877, V-A:TYR:539:CG:4872, V-A:TYR:539:CA:4869, V-A:LEU:363:CA:3185, V-B:ASP:366:CA:8181, V-A:ALA:541:CA:4890, V-B:ILE:369:CB:8207, H-A:LEU:363:N:3186"]

$$$$
3bd_Grossjean_2025
     RDKit          3D

 43 45  0  0  0  0  0  0  0  0999 V2000
  126.6400  135.9990   61.7400 C   0  0  0  0  0  0  0  0  0  0  0  0
  126.6920  134.5540   61.2480 C   0  0  0  0  0  0  0  0  0  0  0  0
  127.9460  133.9740   61.0280 C   0  0  0  0  0  0  0  0  0  0  0  0
  128.0360  132.6530   60.5740 C   0  0  0  0  0  0  0  0  0  0  0  0
  129.3480  131.9700   60.3220 C   0  0  0  0  0  0  0  0  0  0  0  0
  129.8150  131.7750   59.0120 C   0  0  0  0  0  0  0  0  0  0  0  0
  131.0310  131.1400   58.7710 C   0  0  0  0  0  0  0  0  0  0  0  0
  131.7980  130.6900   59.8410 C   0  0  0  0  0  0  0  0  0  0  0  0
  131.3560  130.8680   61.1470 C   0  0  0  0  0  0  0  0  0  0  0  0
  130.1400  131.5030   61.3840 C   0  0  0  0  0  0  0  0  0  0  0  0
  126.9160  131.9160   60.3550 N   0  0  0  0  0  0  0  0  0  0  0  0
  125.6910  132.4620   60.5630 C   0  0  0  0  0  0  0  0  0  0  0  0
  124.3010  131.3930   60.2290 S   0  0  0  0  0  0  0  0  0  0  0  0
  123.3460  131.2130   61.7650 C   0  0  0  0  0  0  0  0  0  0  0  0
  124.1580  130.5340   62.8680 C   0  0  0  0  0  0  0  0  0  0  0  0
  123.6160  130.2920   63.9470 O   0  0  0  0  0  0  0  0  0  0  0  0
  125.4450  130.2590   62.5640 N   0  0  0  0  0  0  0  0  0  0  0  0
  126.4240  129.6230   63.3490 C   0  0  0  0  0  0  0  0  0  0  0  0
  127.3760  128.8710   62.6550 C   0  0  0  0  0  0  0  0  0  0  0  0
  128.3790  128.1990   63.3480 C   0  0  0  0  0  0  0  0  0  0  0  0
  128.4250  128.2690   64.7370 C   0  0  0  0  0  0  0  0  0  0  0  0
  127.4740  129.0040   65.4420 C   0  0  0  0  0  0  0  0  0  0  0  0
  126.4710  129.6790   64.7520 C   0  0  0  0  0  0  0  0  0  0  0  0
  125.5290  133.7900   61.0120 C   0  0  0  0  0  0  0  0  0  0  0  0
  124.2000  134.3680   61.2350 C   0  0  0  0  0  0  0  0  0  0  0  0
  123.1520  134.8250   61.4120 N   0  0  0  0  0  0  0  0  0  0  0  0
  126.6395  136.0120   62.8399 H   0  0  0  0  0  0  0  0  0  0  0  0
  127.5191  136.5451   61.3672 H   0  0  0  0  0  0  0  0  0  0  0  0
  125.7239  136.4805   61.3672 H   0  0  0  0  0  0  0  0  0  0  0  0
  128.8611  134.5560   61.2118 H   0  0  0  0  0  0  0  0  0  0  0  0
  129.2113  132.1291   58.1634 H   0  0  0  0  0  0  0  0  0  0  0  0
  131.3834  130.9949   57.7391 H   0  0  0  0  0  0  0  0  0  0  0  0
  132.7597  130.1905   59.6525 H   0  0  0  0  0  0  0  0  0  0  0  0
  131.9647  130.5085   61.9898 H   0  0  0  0  0  0  0  0  0  0  0  0
  129.7940  131.6412   62.4190 H   0  0  0  0  0  0  0  0  0  0  0  0
  123.0404  132.2110   62.1122 H   0  0  0  0  0  0  0  0  0  0  0  0
  122.4714  130.5817   61.5493 H   0  0  0  0  0  0  0  0  0  0  0  0
  125.7770  130.5990   61.6730 H   0  0  0  0  0  0  0  0  0  0  0  0
  127.3325  128.8100   61.5576 H   0  0  0  0  0  0  0  0  0  0  0  0
  129.1325  127.6147   62.7995 H   0  0  0  0  0  0  0  0  0  0  0  0
  129.2193  127.7393   65.2834 H   0  0  0  0  0  0  0  0  0  0  0  0
  127.5157  129.0507   66.5402 H   0  0  0  0  0  0  0  0  0  0  0  0
  125.7154  130.2561   65.3051 H   0  0  0  0  0  0  0  0  0  0  0  0
  1  2  1  0
  2  3  2  0
  3  4  1  0
  4  5  1  0
  5  6  2  0
  6  7  1  0
  7  8  2  0
  8  9  1  0
  9 10  2  0
  4 11  2  0
 11 12  1  0
 12 13  1  0
 13 14  1  0
 14 15  1  0
 15 16  2  0
 15 17  1  0
 17 18  1  0
 18 19  2  0
 19 20  1  0
 20 21  2  0
 21 22  1  0
 22 23  2  0
 12 24  2  0
 24 25  1  0
 25 26  3  0
 24  2  1  0
 10  5  1  0
 23 18  1  0
  1 27  1  0
  1 28  1  0
  1 29  1  0
  3 30  1  0
  6 31  1  0
  7 32  1  0
  8 33  1  0
  9 34  1  0
 10 35  1  0
 14 36  1  0
 14 37  1  0
 17 38  1  0
 19 39  1  0
 20 40  1  0
 21 41  1  0
 22 42  1  0
 23 43  1  0
M  END
>  <Binding energies>  (1) 
[-7.32]

>  <Ligand effiencies>  (1) 
[-0.27111111111111114]

>  <Interactions>  (1) 
["V-B:ASP:366:CG:8184, V-A:PRO:540:N:4884, V-B:PRO:482:CB:9297, V-A:GLU:543:CD:4908, V-A:TYR:539:CE2:4876, V-B:PRO:482:CG:9298, V-A:PRO:540:CB:4885, V-A:PRO:540:CA:4883, V-A:TYR:539:CD2:4874, V-B:LEU:475:CD1:9229, V-A:ALA:541:CB:4892, H-B:GLY:454:N:9021, V-B:ILE:369:CD1:8210, V-B:ILE:369:CG2:8208, V-B:ARG:545:CZ:9898, H-B:ARG:545:NH2:9900, H-B:ARG:545:NH1:9899, V-B:TRP:381:CH2:8343, V-B:TRP:381:CZ2:8341"]

$$$$
3be_Grossjean_2025
     RDKit          3D

 45 47  0  0  0  0  0  0  0  0999 V2000
  126.2240  128.1800   66.7130 C   0  0  0  0  0  0  0  0  0  0  0  0
  126.6760  129.2460   65.7350 C   0  0  0  0  0  0  0  0  0  0  0  0
  127.9080  129.8900   65.8730 C   0  0  0  0  0  0  0  0  0  0  0  0
  128.2580  130.8640   64.9370 C   0  0  0  0  0  0  0  0  0  0  0  0
  127.3770  131.1670   63.8950 C   0  0  0  0  0  0  0  0  0  0  0  0
  126.1600  130.4820   63.8130 C   0  0  0  0  0  0  0  0  0  0  0  0
  125.3120  130.8400   62.7490 N   0  0  0  0  0  0  0  0  0  0  0  0
  123.9640  130.7800   62.6840 C   0  0  0  0  0  0  0  0  0  0  0  0
  123.2370  130.3750   63.5940 O   0  0  0  0  0  0  0  0  0  0  0  0
  123.3620  131.2670   61.3570 C   0  0  0  0  0  0  0  0  0  0  0  0
  124.5380  131.3760   59.9650 S   0  0  0  0  0  0  0  0  0  0  0  0
  125.8490  132.4830   60.4350 C   0  0  0  0  0  0  0  0  0  0  0  0
  127.0880  131.9580   60.2710 N   0  0  0  0  0  0  0  0  0  0  0  0
  128.1840  132.6970   60.5870 C   0  0  0  0  0  0  0  0  0  0  0  0
  129.5170  132.0380   60.3900 C   0  0  0  0  0  0  0  0  0  0  0  0
  130.0200  131.8060   59.1000 C   0  0  0  0  0  0  0  0  0  0  0  0
  131.2540  131.1930   58.9100 C   0  0  0  0  0  0  0  0  0  0  0  0
  132.0070  130.8000   60.0120 C   0  0  0  0  0  0  0  0  0  0  0  0
  131.5310  131.0150   61.3010 C   0  0  0  0  0  0  0  0  0  0  0  0
  130.2950  131.6290   61.4860 C   0  0  0  0  0  0  0  0  0  0  0  0
  128.0530  133.9980   61.0860 C   0  0  0  0  0  0  0  0  0  0  0  0
  126.7830  134.5630   61.2380 C   0  0  0  0  0  0  0  0  0  0  0  0
  126.6890  135.9920   61.7690 C   0  0  0  0  0  0  0  0  0  0  0  0
  125.6430  133.8030   60.8970 C   0  0  0  0  0  0  0  0  0  0  0  0
  124.3070  134.3940   60.9960 C   0  0  0  0  0  0  0  0  0  0  0  0
  123.2520  134.8630   61.0760 N   0  0  0  0  0  0  0  0  0  0  0  0
  125.8110  129.5300   64.7280 N   0  0  0  0  0  0  0  0  0  0  0  0
  126.3759  128.5382   67.7419 H   0  0  0  0  0  0  0  0  0  0  0  0
  125.1571  127.9647   66.5535 H   0  0  0  0  0  0  0  0  0  0  0  0
  126.8109  127.2634   66.5535 H   0  0  0  0  0  0  0  0  0  0  0  0
  128.5865  129.6352   66.7004 H   0  0  0  0  0  0  0  0  0  0  0  0
  129.2207  131.3898   65.0186 H   0  0  0  0  0  0  0  0  0  0  0  0
  127.6370  131.9333   63.1499 H   0  0  0  0  0  0  0  0  0  0  0  0
  125.7910  131.1580   61.9190 H   0  0  0  0  0  0  0  0  0  0  0  0
  122.5597  130.5708   61.0712 H   0  0  0  0  0  0  0  0  0  0  0  0
  123.0087  132.2926   61.5397 H   0  0  0  0  0  0  0  0  0  0  0  0
  129.4285  132.1140   58.2252 H   0  0  0  0  0  0  0  0  0  0  0  0
  131.6332  131.0195   57.8921 H   0  0  0  0  0  0  0  0  0  0  0  0
  132.9839  130.3167   59.8630 H   0  0  0  0  0  0  0  0  0  0  0  0
  132.1280  130.7015   62.1701 H   0  0  0  0  0  0  0  0  0  0  0  0
  129.9216  131.7966   62.5070 H   0  0  0  0  0  0  0  0  0  0  0  0
  128.9486  134.5757   61.3585 H   0  0  0  0  0  0  0  0  0  0  0  0
  126.6901  135.9753   62.8689 H   0  0  0  0  0  0  0  0  0  0  0  0
  127.5508  136.5739   61.4103 H   0  0  0  0  0  0  0  0  0  0  0  0
  125.7584  136.4560   61.4103 H   0  0  0  0  0  0  0  0  0  0  0  0
  1  2  1  0
  2  3  2  0
  3  4  1  0
  4  5  2  0
  5  6  1  0
  6  7  1  0
  7  8  1  0
  8  9  2  0
  8 10  1  0
 10 11  1  0
 11 12  1  0
 12 13  2  0
 13 14  1  0
 14 15  1  0
 15 16  2  0
 16 17  1  0
 17 18  2  0
 18 19  1  0
 19 20  2  0
 14 21  2  0
 21 22  1  0
 22 23  1  0
 22 24  2  0
 24 25  1  0
 25 26  3  0
  6 27  2  0
 27  2  1  0
 24 12  1  0
 20 15  1  0
  1 28  1  0
  1 29  1  0
  1 30  1  0
  3 31  1  0
  4 32  1  0
  5 33  1  0
  7 34  1  0
 10 35  1  0
 10 36  1  0
 16 37  1  0
 17 38  1  0
 18 39  1  0
 19 40  1  0
 20 41  1  0
 21 42  1  0
 23 43  1  0
 23 44  1  0
 23 45  1  0
M  END
>  <Binding energies>  (1) 
[-7.85]

>  <Ligand effiencies>  (1) 
[-0.28035714285714286]

>  <Interactions>  (1) 
["V-B:ASP:366:CG:8184, V-A:PRO:540:N:4884, V-B:PRO:482:CB:9297, V-A:GLU:543:CD:4908, V-A:TYR:539:CE2:4876, V-B:PRO:482:CG:9298, V-A:PRO:540:CB:4885, V-A:PRO:540:CA:4883, V-A:TYR:539:CD2:4874, V-B:LEU:475:CD1:9229, V-A:ALA:541:CB:4892, V-B:HIS:456:CE1:9040, V-B:ARG:545:CG:9894, H-B:TYR:484:OH:9319, V-A:GLU:543:CB:4906, H-B:GLY:454:N:9021, V-B:ILE:369:CD1:8210, V-B:ILE:369:CG2:8208, H-B:ARG:545:NH2:9900, H-B:ARG:545:NH1:9899, V-B:TRP:381:CH2:8343, V-B:TRP:381:CZ2:8341"]

$$$$
3bf_Grossjean_2025
     RDKit          3D

 42 44  0  0  0  0  0  0  0  0999 V2000
  123.0860  131.1180   59.6770 C   0  0  0  0  0  0  0  0  0  0  0  0
  124.5900  131.0140   59.9180 C   0  0  0  0  0  0  0  0  0  0  0  0
  125.4480  131.2310   58.8350 C   0  0  0  0  0  0  0  0  0  0  0  0
  126.8340  131.1600   59.0160 C   0  0  0  0  0  0  0  0  0  0  0  0
  127.8070  131.4040   57.9020 C   0  0  0  0  0  0  0  0  0  0  0  0
  127.7750  130.6200   56.7390 C   0  0  0  0  0  0  0  0  0  0  0  0
  128.6760  130.8390   55.7000 C   0  0  0  0  0  0  0  0  0  0  0  0
  129.6250  131.8510   55.8130 C   0  0  0  0  0  0  0  0  0  0  0  0
  129.6780  132.6410   56.9560 C   0  0  0  0  0  0  0  0  0  0  0  0
  128.7760  132.4170   57.9930 C   0  0  0  0  0  0  0  0  0  0  0  0
  127.3640  130.8820   60.2370 N   0  0  0  0  0  0  0  0  0  0  0  0
  126.5450  130.6450   61.2910 C   0  0  0  0  0  0  0  0  0  0  0  0
  127.4140  130.2920   62.8040 S   0  0  0  0  0  0  0  0  0  0  0  0
  128.6330  131.6220   63.0800 C   0  0  0  0  0  0  0  0  0  0  0  0
  129.5850  131.8880   61.9050 C   0  0  0  0  0  0  0  0  0  0  0  0
  129.4590  132.8970   61.2090 O   0  0  0  0  0  0  0  0  0  0  0  0
  130.5510  130.9580   61.7410 N   0  0  0  0  0  0  0  0  0  0  0  0
  131.5630  130.8990   60.7650 C   0  0  0  0  0  0  0  0  0  0  0  0
  131.1700  130.6180   59.4520 C   0  0  0  0  0  0  0  0  0  0  0  0
  132.1260  130.5590   58.4360 C   0  0  0  0  0  0  0  0  0  0  0  0
  133.4620  130.7900   58.7650 C   0  0  0  0  0  0  0  0  0  0  0  0
  133.8710  131.0740   60.0270 N   0  0  0  0  0  0  0  0  0  0  0  0
  132.9300  131.1280   61.0040 C   0  0  0  0  0  0  0  0  0  0  0  0
  125.1390  130.7180   61.1850 C   0  0  0  0  0  0  0  0  0  0  0  0
  124.2590  130.5370   62.3430 C   0  0  0  0  0  0  0  0  0  0  0  0
  123.5640  130.3930   63.2570 N   0  0  0  0  0  0  0  0  0  0  0  0
  122.5615  131.1543   60.6432 H   0  0  0  0  0  0  0  0  0  0  0  0
  122.8684  132.0333   59.1071 H   0  0  0  0  0  0  0  0  0  0  0  0
  122.7445  130.2413   59.1071 H   0  0  0  0  0  0  0  0  0  0  0  0
  125.0337  131.4574   57.8415 H   0  0  0  0  0  0  0  0  0  0  0  0
  127.0262  129.8195   56.6464 H   0  0  0  0  0  0  0  0  0  0  0  0
  128.6379  130.2154   54.7946 H   0  0  0  0  0  0  0  0  0  0  0  0
  130.3372  132.0268   54.9933 H   0  0  0  0  0  0  0  0  0  0  0  0
  130.4295  133.4398   57.0408 H   0  0  0  0  0  0  0  0  0  0  0  0
  128.8229  133.0424   58.8967 H   0  0  0  0  0  0  0  0  0  0  0  0
  128.0822  132.5509   63.2891 H   0  0  0  0  0  0  0  0  0  0  0  0
  129.2649  131.2892   63.9166 H   0  0  0  0  0  0  0  0  0  0  0  0
  130.5910  130.2230   62.4320 H   0  0  0  0  0  0  0  0  0  0  0  0
  130.1089  130.4437   59.2203 H   0  0  0  0  0  0  0  0  0  0  0  0
  131.8324  130.3355   57.3997 H   0  0  0  0  0  0  0  0  0  0  0  0
  134.2167  130.7397   57.9663 H   0  0  0  0  0  0  0  0  0  0  0  0
  133.2514  131.3616   62.0297 H   0  0  0  0  0  0  0  0  0  0  0  0
  1  2  1  0
  2  3  2  0
  3  4  1  0
  4  5  1  0
  5  6  2  0
  6  7  1  0
  7  8  2  0
  8  9  1  0
  9 10  2  0
  4 11  2  0
 11 12  1  0
 12 13  1  0
 13 14  1  0
 14 15  1  0
 15 16  2  0
 15 17  1  0
 17 18  1  0
 18 19  2  0
 19 20  1  0
 20 21  2  0
 21 22  1  0
 22 23  2  0
 12 24  2  0
 24 25  1  0
 25 26  3  0
 24  2  1  0
 10  5  1  0
 23 18  1  0
  1 27  1  0
  1 28  1  0
  1 29  1  0
  3 30  1  0
  6 31  1  0
  7 32  1  0
  8 33  1  0
  9 34  1  0
 10 35  1  0
 14 36  1  0
 14 37  1  0
 17 38  1  0
 19 39  1  0
 20 40  1  0
 21 41  1  0
 23 42  1  0
M  END
>  <Binding energies>  (1) 
[-7.51]

>  <Ligand effiencies>  (1) 
[-0.27814814814814814]

>  <Interactions>  (1) 
["V-B:ASP:366:CG:8184, V-A:PRO:540:N:4884, V-A:TYR:539:C:4867, V-A:ASP:366:CG:3213, V-A:GLU:543:CD:4908, V-A:TYR:539:CE2:4876, V-A:PRO:540:CB:4885, V-A:PRO:540:CA:4883, V-A:TYR:539:CD2:4874, V-A:ALA:541:CB:4892, H-A:ALA:541:N:4891, V-B:ASP:366:CB:8183, H-B:GLY:454:N:9021, V-B:ILE:369:CD1:8210, V-B:ILE:369:CG2:8208, H-B:ARG:545:NH2:9900, H-B:ARG:545:NH1:9899, H-A:GLU:543:OE2:4910, V-A:ASN:362:CB:3176, H-A:GLU:543:OE1:4909, V-A:TYR:539:CE1:4875, V-A:TYR:539:CD1:4873, V-A:TYR:539:CZ:4877, V-A:TYR:539:CG:4872, V-A:TYR:539:CA:4869, V-A:LEU:363:CA:3185, V-B:ASP:366:CA:8181, V-B:ILE:369:CB:8207, H-A:LEU:363:N:3186"]

$$$$
3bg_Grossjean_2025
     RDKit          3D

 46 48  0  0  0  0  0  0  0  0999 V2000
  123.2770  129.6470   66.6440 C   0  0  0  0  0  0  0  0  0  0  0  0
  124.6830  129.2820   66.1710 C   0  0  0  0  0  0  0  0  0  0  0  0
  125.4790  128.4940   67.0080 C   0  0  0  0  0  0  0  0  0  0  0  0
  126.7720  128.1290   66.6090 C   0  0  0  0  0  0  0  0  0  0  0  0
  127.6740  127.2750   67.4560 C   0  0  0  0  0  0  0  0  0  0  0  0
  127.3170  126.9240   68.7690 C   0  0  0  0  0  0  0  0  0  0  0  0
  128.1410  126.1190   69.5490 C   0  0  0  0  0  0  0  0  0  0  0  0
  129.3430  125.6510   69.0290 C   0  0  0  0  0  0  0  0  0  0  0  0
  129.7280  125.9920   67.7380 C   0  0  0  0  0  0  0  0  0  0  0  0
  128.9020  126.7990   66.9610 C   0  0  0  0  0  0  0  0  0  0  0  0
  127.2580  128.5220   65.4010 N   0  0  0  0  0  0  0  0  0  0  0  0
  126.4970  129.2850   64.5750 C   0  0  0  0  0  0  0  0  0  0  0  0
  127.2400  129.7020   63.0050 S   0  0  0  0  0  0  0  0  0  0  0  0
  128.3860  131.0950   63.2690 C   0  0  0  0  0  0  0  0  0  0  0  0
  129.1550  131.4490   61.9920 C   0  0  0  0  0  0  0  0  0  0  0  0
  129.5000  132.6130   61.7870 O   0  0  0  0  0  0  0  0  0  0  0  0
  129.3920  130.4400   61.1370 N   0  0  0  0  0  0  0  0  0  0  0  0
  129.9420  130.5800   59.7880 C   0  0  0  0  0  0  0  0  0  0  0  0
  131.4530  130.7760   59.8100 C   0  0  0  0  0  0  0  0  0  0  0  0
  132.1110  131.0140   61.0220 C   0  0  0  0  0  0  0  0  0  0  0  0
  133.4890  131.2020   61.0420 C   0  0  0  0  0  0  0  0  0  0  0  0
  134.2110  131.1400   59.8500 C   0  0  0  0  0  0  0  0  0  0  0  0
  133.5660  130.8820   58.6420 C   0  0  0  0  0  0  0  0  0  0  0  0
  132.1860  130.6950   58.6230 C   0  0  0  0  0  0  0  0  0  0  0  0
  125.1950  129.6990   64.9250 C   0  0  0  0  0  0  0  0  0  0  0  0
  124.3820  130.5190   64.0230 C   0  0  0  0  0  0  0  0  0  0  0  0
  123.7390  131.1670   63.3110 N   0  0  0  0  0  0  0  0  0  0  0  0
  123.2503  129.6539   67.7437 H   0  0  0  0  0  0  0  0  0  0  0  0
  123.0098  130.6443   66.2645 H   0  0  0  0  0  0  0  0  0  0  0  0
  122.5585  128.9056   66.2645 H   0  0  0  0  0  0  0  0  0  0  0  0
  125.0898  128.1600   67.9811 H   0  0  0  0  0  0  0  0  0  0  0  0
  126.3688  127.2924   69.1877 H   0  0  0  0  0  0  0  0  0  0  0  0
  127.8427  125.8534   70.5739 H   0  0  0  0  0  0  0  0  0  0  0  0
  129.9917  125.0082   69.6422 H   0  0  0  0  0  0  0  0  0  0  0  0
  130.6822  125.6254   67.3316 H   0  0  0  0  0  0  0  0  0  0  0  0
  129.2149  127.0695   65.9417 H   0  0  0  0  0  0  0  0  0  0  0  0
  127.8093  131.9741   63.5926 H   0  0  0  0  0  0  0  0  0  0  0  0
  129.1158  130.7967   64.0360 H   0  0  0  0  0  0  0  0  0  0  0  0
  129.0670  129.5170   61.3870 H   0  0  0  0  0  0  0  0  0  0  0  0
  129.7092  129.6718   59.2126 H   0  0  0  0  0  0  0  0  0  0  0  0
  129.4888  131.4688   59.3247 H   0  0  0  0  0  0  0  0  0  0  0  0
  131.5377  131.0524   61.9600 H   0  0  0  0  0  0  0  0  0  0  0  0
  134.0066  131.3985   61.9925 H   0  0  0  0  0  0  0  0  0  0  0  0
  135.2998  131.2962   59.8638 H   0  0  0  0  0  0  0  0  0  0  0  0
  134.1441  130.8263   57.7078 H   0  0  0  0  0  0  0  0  0  0  0  0
  131.6729  130.4835   57.6733 H   0  0  0  0  0  0  0  0  0  0  0  0
  1  2  1  0
  2  3  2  0
  3  4  1  0
  4  5  1  0
  5  6  2  0
  6  7  1  0
  7  8  2  0
  8  9  1  0
  9 10  2  0
  4 11  2  0
 11 12  1  0
 12 13  1  0
 13 14  1  0
 14 15  1  0
 15 16  2  0
 15 17  1  0
 17 18  1  0
 18 19  1  0
 19 20  2  0
 20 21  1  0
 21 22  2  0
 22 23  1  0
 23 24  2  0
 12 25  2  0
 25 26  1  0
 26 27  3  0
 25  2  1  0
 10  5  1  0
 24 19  1  0
  1 28  1  0
  1 29  1  0
  1 30  1  0
  3 31  1  0
  6 32  1  0
  7 33  1  0
  8 34  1  0
  9 35  1  0
 10 36  1  0
 14 37  1  0
 14 38  1  0
 17 39  1  0
 18 40  1  0
 18 41  1  0
 20 42  1  0
 21 43  1  0
 22 44  1  0
 23 45  1  0
 24 46  1  0
M  END
>  <Binding energies>  (1) 
[-8.16]

>  <Ligand effiencies>  (1) 
[-0.2914285714285714]

>  <Interactions>  (1) 
["V-A:ASP:366:CG:3213, V-A:LEU:363:CD1:3189, V-A:PRO:540:CB:4885, V-A:PRO:540:CA:4883, V-A:ALA:541:CB:4892, H-A:ALA:541:N:4891, V-B:GLU:543:C:9874, V-B:GLU:543:CB:9878, V-B:GLY:544:C:9884, V-B:HIS:456:CE1:9040, V-B:ARG:545:CG:9894, V-A:HIS:456:CE1:4069, H-B:GLY:454:N:9021, V-B:ARG:545:CD:9895, V-B:ARG:545:CZ:9898, V-B:GLY:454:CA:9020, V-A:ASN:362:C:3172, V-A:ASN:362:CB:3176, H-A:GLU:543:OE1:4909, V-A:LEU:363:CA:3185, V-A:ASN:362:CA:3174, V-A:LEU:363:CB:3187, V-B:ILE:455:C:9023"]

$$$$
3bk_Grossjean_2025
     RDKit          3D

 57 58  0  0  0  0  0  0  0  0999 V2000
  132.9000  124.9160   64.8520 C   0  0  0  0  0  0  0  0  0  0  0  0
  134.2050  124.7330   64.3260 O   0  0  0  0  0  0  0  0  0  0  0  0
  134.2430  124.6960   62.9060 C   0  0  0  0  0  0  0  0  0  0  0  0
  133.0950  123.8210   62.3830 C   0  0  0  0  0  0  0  0  0  0  0  0
  133.5480  123.0650   61.2690 O   0  0  0  0  0  0  0  0  0  0  0  0
  133.2920  123.6820   60.0140 C   0  0  0  0  0  0  0  0  0  0  0  0
  131.7880  123.6170   59.7150 C   0  0  0  0  0  0  0  0  0  0  0  0
  131.5370  124.1810   58.4350 O   0  0  0  0  0  0  0  0  0  0  0  0
  131.2500  125.5730   58.4670 C   0  0  0  0  0  0  0  0  0  0  0  0
  129.8140  125.8100   57.9750 C   0  0  0  0  0  0  0  0  0  0  0  0
  129.4410  124.9020   56.8880 N   0  0  0  0  0  0  0  0  0  0  0  0
  128.4570  125.1140   55.9980 C   0  0  0  0  0  0  0  0  0  0  0  0
  127.7540  126.1260   55.9840 O   0  0  0  0  0  0  0  0  0  0  0  0
  128.2460  124.0270   54.9420 C   0  0  0  0  0  0  0  0  0  0  0  0
  127.5510  122.5050   55.6610 S   0  0  0  0  0  0  0  0  0  0  0  0
  127.0460  122.8340   57.3410 C   0  0  0  0  0  0  0  0  0  0  0  0
  127.9090  122.4340   58.3100 N   0  0  0  0  0  0  0  0  0  0  0  0
  127.6060  122.6410   59.6180 C   0  0  0  0  0  0  0  0  0  0  0  0
  128.6240  122.1890   60.6220 C   0  0  0  0  0  0  0  0  0  0  0  0
  129.3410  120.9970   60.4290 C   0  0  0  0  0  0  0  0  0  0  0  0
  130.2840  120.5690   61.3610 C   0  0  0  0  0  0  0  0  0  0  0  0
  130.5230  121.3300   62.5000 C   0  0  0  0  0  0  0  0  0  0  0  0
  129.8290  122.5170   62.7130 C   0  0  0  0  0  0  0  0  0  0  0  0
  128.8890  122.9420   61.7790 C   0  0  0  0  0  0  0  0  0  0  0  0
  126.4120  123.2700   59.9880 C   0  0  0  0  0  0  0  0  0  0  0  0
  125.5090  123.6870   59.0030 C   0  0  0  0  0  0  0  0  0  0  0  0
  124.2170  124.3680   59.4490 C   0  0  0  0  0  0  0  0  0  0  0  0
  125.8220  123.4690   57.6440 C   0  0  0  0  0  0  0  0  0  0  0  0
  124.8980  123.8980   56.5910 C   0  0  0  0  0  0  0  0  0  0  0  0
  124.1670  124.2360   55.7590 N   0  0  0  0  0  0  0  0  0  0  0  0
  132.9435  124.9099   65.9511 H   0  0  0  0  0  0  0  0  0  0  0  0
  132.4971  125.8794   64.5063 H   0  0  0  0  0  0  0  0  0  0  0  0
  132.2477  124.1005   64.5063 H   0  0  0  0  0  0  0  0  0  0  0  0
  134.1351  125.7166   62.5101 H   0  0  0  0  0  0  0  0  0  0  0  0
  135.2038  124.2733   62.5770 H   0  0  0  0  0  0  0  0  0  0  0  0
  132.7619  123.1385   63.1787 H   0  0  0  0  0  0  0  0  0  0  0  0
  132.2554  124.4616   62.0754 H   0  0  0  0  0  0  0  0  0  0  0  0
  133.6148  124.7330   60.0485 H   0  0  0  0  0  0  0  0  0  0  0  0
  133.8481  123.1558   59.2241 H   0  0  0  0  0  0  0  0  0  0  0  0
  131.4566  122.5681   59.7254 H   0  0  0  0  0  0  0  0  0  0  0  0
  131.2362  124.1823   60.4805 H   0  0  0  0  0  0  0  0  0  0  0  0
  131.3509  125.9448   59.4973 H   0  0  0  0  0  0  0  0  0  0  0  0
  131.9549  126.1084   57.8140 H   0  0  0  0  0  0  0  0  0  0  0  0
  129.1222  125.6572   58.8165 H   0  0  0  0  0  0  0  0  0  0  0  0
  129.7564  126.8383   57.5887 H   0  0  0  0  0  0  0  0  0  0  0  0
  130.0080  124.0730   56.7920 H   0  0  0  0  0  0  0  0  0  0  0  0
  127.5542  124.4059   54.1753 H   0  0  0  0  0  0  0  0  0  0  0  0
  129.2257  123.7810   54.5064 H   0  0  0  0  0  0  0  0  0  0  0  0
  129.1554  120.3925   59.5289 H   0  0  0  0  0  0  0  0  0  0  0  0
  130.8374  119.6327   61.1965 H   0  0  0  0  0  0  0  0  0  0  0  0
  131.2656  120.9914   63.2375 H   0  0  0  0  0  0  0  0  0  0  0  0
  130.0223  123.1163   63.6149 H   0  0  0  0  0  0  0  0  0  0  0  0
  128.3445  123.8825   61.9489 H   0  0  0  0  0  0  0  0  0  0  0  0
  126.1834  123.4365   61.0510 H   0  0  0  0  0  0  0  0  0  0  0  0
  124.1747  124.3903   60.5480 H   0  0  0  0  0  0  0  0  0  0  0  0
  124.1916  125.3967   59.0602 H   0  0  0  0  0  0  0  0  0  0  0  0
  123.3540  123.8076   59.0602 H   0  0  0  0  0  0  0  0  0  0  0  0
  1  2  1  0
  2  3  1  0
  3  4  1  0
  4  5  1  0
  5  6  1  0
  6  7  1  0
  7  8  1  0
  8  9  1  0
  9 10  1  0
 10 11  1  0
 11 12  1  0
 12 13  2  0
 12 14  1  0
 14 15  1  0
 15 16  1  0
 16 17  2  0
 17 18  1  0
 18 19  1  0
 19 20  2  0
 20 21  1  0
 21 22  2  0
 22 23  1  0
 23 24  2  0
 18 25  2  0
 25 26  1  0
 26 27  1  0
 26 28  2  0
 28 29  1  0
 29 30  3  0
 28 16  1  0
 24 19  1  0
  1 31  1  0
  1 32  1  0
  1 33  1  0
  3 34  1  0
  3 35  1  0
  4 36  1  0
  4 37  1  0
  6 38  1  0
  6 39  1  0
  7 40  1  0
  7 41  1  0
  9 42  1  0
  9 43  1  0
 10 44  1  0
 10 45  1  0
 11 46  1  0
 14 47  1  0
 14 48  1  0
 20 49  1  0
 21 50  1  0
 22 51  1  0
 23 52  1  0
 24 53  1  0
 25 54  1  0
 27 55  1  0
 27 56  1  0
 27 57  1  0
M  END
>  <Binding energies>  (1) 
[-6.7]

>  <Ligand effiencies>  (1) 
[-0.2161290322580645]

>  <Interactions>  (1) 
["V-B:ALA:541:CB:9864, V-B:TYR:539:CE2:9848, V-B:TYR:539:CD2:9846, V-B:PRO:540:CB:9857, V-B:PRO:540:N:9856, V-B:TYR:539:C:9839, V-B:LEU:363:CD1:8160, V-B:ASP:366:CG:8184, V-B:PRO:540:CA:9855, V-B:TYR:539:CZ:9849, V-A:LEU:475:CD1:4258, V-A:ASP:366:CG:3213, H-B:TYR:539:OH:9850, H-B:TYR:539:N:9842, H-A:GLY:454:N:4050, V-A:GLY:453:C:4042, H-A:ARG:545:NH2:4928, H-A:ARG:545:NE:4924, V-A:ARG:545:CZ:4926, V-A:GLY:453:CA:4044, H-B:TYR:531:OH:9767, V-B:TYR:539:CE1:9847"]

$$$$
3ca_Grossjean_2025
     RDKit          3D

 52 54  0  0  0  0  0  0  0  0999 V2000
  124.7960  127.3670   73.6420 C   0  0  0  0  0  0  0  0  0  0  0  0
  126.2860  127.7130   73.5940 C   0  0  0  0  0  0  0  0  0  0  0  0
  126.7670  127.5560   72.2650 O   0  0  0  0  0  0  0  0  0  0  0  0
  127.6940  126.6120   71.9610 C   0  0  0  0  0  0  0  0  0  0  0  0
  128.2930  125.9480   72.8130 O   0  0  0  0  0  0  0  0  0  0  0  0
  127.9160  126.4510   70.4850 C   0  0  0  0  0  0  0  0  0  0  0  0
  126.8370  126.6250   69.6080 C   0  0  0  0  0  0  0  0  0  0  0  0
  127.0110  126.4810   68.2340 C   0  0  0  0  0  0  0  0  0  0  0  0
  128.2620  126.1550   67.7100 C   0  0  0  0  0  0  0  0  0  0  0  0
  128.3280  126.0360   66.3080 N   0  0  0  0  0  0  0  0  0  0  0  0
  129.3220  125.5560   65.5300 C   0  0  0  0  0  0  0  0  0  0  0  0
  130.3890  125.1000   65.9380 O   0  0  0  0  0  0  0  0  0  0  0  0
  129.0430  125.5830   64.0230 C   0  0  0  0  0  0  0  0  0  0  0  0
  130.3620  124.8000   63.0350 S   0  0  0  0  0  0  0  0  0  0  0  0
  129.6590  123.5530   61.9640 C   0  0  0  0  0  0  0  0  0  0  0  0
  130.1200  122.2910   62.1510 N   0  0  0  0  0  0  0  0  0  0  0  0
  129.6190  121.2930   61.3900 C   0  0  0  0  0  0  0  0  0  0  0  0
  130.1710  119.9100   61.6710 C   0  0  0  0  0  0  0  0  0  0  0  0
  128.6550  121.5120   60.4090 C   0  0  0  0  0  0  0  0  0  0  0  0
  128.1760  122.8090   60.1840 C   0  0  0  0  0  0  0  0  0  0  0  0
  127.1530  122.9970   59.1120 C   0  0  0  0  0  0  0  0  0  0  0  0
  127.4220  122.5790   57.8030 C   0  0  0  0  0  0  0  0  0  0  0  0
  126.4780  122.7590   56.7950 C   0  0  0  0  0  0  0  0  0  0  0  0
  125.2590  123.3630   57.0930 C   0  0  0  0  0  0  0  0  0  0  0  0
  124.9780  123.7910   58.3880 C   0  0  0  0  0  0  0  0  0  0  0  0
  125.9250  123.6100   59.3930 C   0  0  0  0  0  0  0  0  0  0  0  0
  128.6820  123.8620   60.9880 C   0  0  0  0  0  0  0  0  0  0  0  0
  128.1810  125.2320   60.8340 C   0  0  0  0  0  0  0  0  0  0  0  0
  127.7850  126.3130   60.7110 N   0  0  0  0  0  0  0  0  0  0  0  0
  129.3500  125.9870   68.5800 C   0  0  0  0  0  0  0  0  0  0  0  0
  129.1750  126.1330   69.9540 C   0  0  0  0  0  0  0  0  0  0  0  0
  124.4707  127.2915   74.6901 H   0  0  0  0  0  0  0  0  0  0  0  0
  124.2200  128.1553   73.1352 H   0  0  0  0  0  0  0  0  0  0  0  0
  124.6263  126.4056   73.1352 H   0  0  0  0  0  0  0  0  0  0  0  0
  126.4309  128.7549   73.9156 H   0  0  0  0  0  0  0  0  0  0  0  0
  126.8401  127.0411   74.2660 H   0  0  0  0  0  0  0  0  0  0  0  0
  125.8441  126.8775   70.0084 H   0  0  0  0  0  0  0  0  0  0  0  0
  126.1560  126.6253   67.5571 H   0  0  0  0  0  0  0  0  0  0  0  0
  127.4820  126.3070   65.8300 H   0  0  0  0  0  0  0  0  0  0  0  0
  128.0998  125.0500   63.8323 H   0  0  0  0  0  0  0  0  0  0  0  0
  128.9891  126.6388   63.7189 H   0  0  0  0  0  0  0  0  0  0  0  0
  130.2333  119.7540   62.7581 H   0  0  0  0  0  0  0  0  0  0  0  0
  129.5061  119.1531   61.2294 H   0  0  0  0  0  0  0  0  0  0  0  0
  131.1744  119.8190   61.2294 H   0  0  0  0  0  0  0  0  0  0  0  0
  128.2715  120.6703   59.8136 H   0  0  0  0  0  0  0  0  0  0  0  0
  128.3865  122.1047   57.5690 H   0  0  0  0  0  0  0  0  0  0  0  0
  126.6940  122.4259   55.7691 H   0  0  0  0  0  0  0  0  0  0  0  0
  124.5115  123.5032   56.2983 H   0  0  0  0  0  0  0  0  0  0  0  0
  124.0139  124.2691   58.6158 H   0  0  0  0  0  0  0  0  0  0  0  0
  125.7070  123.9511   60.4158 H   0  0  0  0  0  0  0  0  0  0  0  0
  130.3428  125.7396   68.1762 H   0  0  0  0  0  0  0  0  0  0  0  0
  130.0325  125.9976   70.6296 H   0  0  0  0  0  0  0  0  0  0  0  0
  1  2  1  0
  2  3  1  0
  3  4  1  0
  4  5  2  0
  4  6  1  0
  6  7  2  0
  7  8  1  0
  8  9  2  0
  9 10  1  0
 10 11  1  0
 11 12  2  0
 11 13  1  0
 13 14  1  0
 14 15  1  0
 15 16  2  0
 16 17  1  0
 17 18  1  0
 17 19  2  0
 19 20  1  0
 20 21  1  0
 21 22  2  0
 22 23  1  0
 23 24  2  0
 24 25  1  0
 25 26  2  0
 20 27  2  0
 27 28  1  0
 28 29  3  0
  9 30  1  0
 30 31  2  0
 31  6  1  0
 27 15  1  0
 26 21  1  0
  1 32  1  0
  1 33  1  0
  1 34  1  0
  2 35  1  0
  2 36  1  0
  7 37  1  0
  8 38  1  0
 10 39  1  0
 13 40  1  0
 13 41  1  0
 18 42  1  0
 18 43  1  0
 18 44  1  0
 19 45  1  0
 22 46  1  0
 23 47  1  0
 24 48  1  0
 25 49  1  0
 26 50  1  0
 30 51  1  0
 31 52  1  0
M  END
>  <Binding energies>  (1) 
[-8.49]

>  <Ligand effiencies>  (1) 
[-0.2653125]

>  <Interactions>  (1) 
["V-B:PRO:540:CD:9859, V-A:PRO:482:CB:4326, V-B:GLU:543:CD:9880, V-B:ALA:541:CB:9864, V-B:TYR:539:CE2:9848, V-B:TYR:539:CD2:9846, V-B:PRO:540:CB:9857, V-B:PRO:540:N:9856, V-B:TYR:539:C:9839, V-B:LEU:363:CD1:8160, V-B:PRO:540:C:9853, V-B:PRO:540:CA:9855, V-A:PRO:482:CG:4327, V-A:LEU:475:CD1:4258, V-B:GLU:543:C:9874, V-B:GLU:543:CB:9878, V-B:HIS:456:CB:9036, V-B:HIS:456:CG:9037, V-B:GLY:544:C:9884, V-B:HIS:456:CD2:9039, V-B:ARG:545:CA:9891, V-B:HIS:456:CE1:9040, V-B:ARG:545:CG:9894, H-B:LYS:547:NZ:9923, V-A:HIS:456:CE1:4069, V-A:HIS:456:CD2:4068, H-B:GLU:543:OE1:9881, H-B:HIS:456:NE2:9041, V-B:GLU:543:CG:9879, V-B:GLU:543:CA:9876, H-A:TYR:484:OH:4348, V-B:ARG:545:C:9889, V-B:HIS:456:CA:9034"]

$$$$
3cb_Grossjean_2025
     RDKit          3D

 49 51  0  0  0  0  0  0  0  0999 V2000
  132.1400  126.2060   74.3840 C   0  0  0  0  0  0  0  0  0  0  0  0
  130.8920  126.8830   74.4150 O   0  0  0  0  0  0  0  0  0  0  0  0
  129.7420  126.2490   74.0710 C   0  0  0  0  0  0  0  0  0  0  0  0
  128.9190  125.8390   74.8940 O   0  0  0  0  0  0  0  0  0  0  0  0
  129.5730  126.0920   72.5860 C   0  0  0  0  0  0  0  0  0  0  0  0
  129.1450  127.1510   71.7710 C   0  0  0  0  0  0  0  0  0  0  0  0
  129.0010  126.9730   70.3980 C   0  0  0  0  0  0  0  0  0  0  0  0
  129.2740  125.7380   69.8110 C   0  0  0  0  0  0  0  0  0  0  0  0
  129.0980  125.6710   68.4150 N   0  0  0  0  0  0  0  0  0  0  0  0
  129.4050  126.5720   67.4570 C   0  0  0  0  0  0  0  0  0  0  0  0
  129.9400  127.6630   67.6600 O   0  0  0  0  0  0  0  0  0  0  0  0
  129.0480  126.1310   66.0290 C   0  0  0  0  0  0  0  0  0  0  0  0
  129.5460  124.4270   65.6030 S   0  0  0  0  0  0  0  0  0  0  0  0
  131.0860  124.5170   64.7130 C   0  0  0  0  0  0  0  0  0  0  0  0
  132.1540  124.7720   65.5080 N   0  0  0  0  0  0  0  0  0  0  0  0
  133.3770  124.8620   64.9410 C   0  0  0  0  0  0  0  0  0  0  0  0
  134.5270  125.1370   65.8920 C   0  0  0  0  0  0  0  0  0  0  0  0
  133.5830  124.7090   63.5730 C   0  0  0  0  0  0  0  0  0  0  0  0
  132.4920  124.4610   62.7300 C   0  0  0  0  0  0  0  0  0  0  0  0
  132.7640  124.3100   61.2680 C   0  0  0  0  0  0  0  0  0  0  0  0
  132.0920  125.1160   60.3400 C   0  0  0  0  0  0  0  0  0  0  0  0
  132.3470  124.9900   58.9760 C   0  0  0  0  0  0  0  0  0  0  0  0
  133.2800  124.0570   58.5340 C   0  0  0  0  0  0  0  0  0  0  0  0
  133.9620  123.2530   59.4420 C   0  0  0  0  0  0  0  0  0  0  0  0
  133.7070  123.3820   60.8050 C   0  0  0  0  0  0  0  0  0  0  0  0
  131.1990  124.3770   63.3080 C   0  0  0  0  0  0  0  0  0  0  0  0
  130.0120  124.2120   62.4630 C   0  0  0  0  0  0  0  0  0  0  0  0
  129.0750  124.0810   61.7970 N   0  0  0  0  0  0  0  0  0  0  0  0
  129.7060  124.6750   70.6190 C   0  0  0  0  0  0  0  0  0  0  0  0
  129.8510  124.8540   71.9920 C   0  0  0  0  0  0  0  0  0  0  0  0
  132.4821  126.0204   75.4128 H   0  0  0  0  0  0  0  0  0  0  0  0
  132.0240  125.2471   73.8576 H   0  0  0  0  0  0  0  0  0  0  0  0
  132.8805  126.8261   73.8576 H   0  0  0  0  0  0  0  0  0  0  0  0
  128.9215  128.1297   72.2207 H   0  0  0  0  0  0  0  0  0  0  0  0
  128.6691  127.8136   69.7709 H   0  0  0  0  0  0  0  0  0  0  0  0
  128.7030  124.7980   68.0920 H   0  0  0  0  0  0  0  0  0  0  0  0
  127.9571  126.2078   65.9104 H   0  0  0  0  0  0  0  0  0  0  0  0
  129.6075  126.7939   65.3527 H   0  0  0  0  0  0  0  0  0  0  0  0
  134.1727  125.0523   66.9299 H   0  0  0  0  0  0  0  0  0  0  0  0
  135.3298  124.4055   65.7177 H   0  0  0  0  0  0  0  0  0  0  0  0
  134.9121  126.1526   65.7177 H   0  0  0  0  0  0  0  0  0  0  0  0
  134.5981  124.7825   63.1556 H   0  0  0  0  0  0  0  0  0  0  0  0
  131.3566  125.8548   60.6912 H   0  0  0  0  0  0  0  0  0  0  0  0
  131.8138  125.6244   58.2527 H   0  0  0  0  0  0  0  0  0  0  0  0
  133.4801  123.9542   57.4573 H   0  0  0  0  0  0  0  0  0  0  0  0
  134.6992  122.5188   59.0849 H   0  0  0  0  0  0  0  0  0  0  0  0
  134.2499  122.7507   61.5239 H   0  0  0  0  0  0  0  0  0  0  0  0
  129.9306  123.6979   70.1664 H   0  0  0  0  0  0  0  0  0  0  0  0
  130.1876  124.0140   72.6174 H   0  0  0  0  0  0  0  0  0  0  0  0
  1  2  1  0
  2  3  1  0
  3  4  2  0
  3  5  1  0
  5  6  2  0
  6  7  1  0
  7  8  2  0
  8  9  1  0
  9 10  1  0
 10 11  2  0
 10 12  1  0
 12 13  1  0
 13 14  1  0
 14 15  2  0
 15 16  1  0
 16 17  1  0
 16 18  2  0
 18 19  1  0
 19 20  1  0
 20 21  2  0
 21 22  1  0
 22 23  2  0
 23 24  1  0
 24 25  2  0
 19 26  2  0
 26 27  1  0
 27 28  3  0
  8 29  1  0
 29 30  2  0
 30  5  1  0
 26 14  1  0
 25 20  1  0
  1 31  1  0
  1 32  1  0
  1 33  1  0
  6 34  1  0
  7 35  1  0
  9 36  1  0
 12 37  1  0
 12 38  1  0
 17 39  1  0
 17 40  1  0
 17 41  1  0
 18 42  1  0
 21 43  1  0
 22 44  1  0
 23 45  1  0
 24 46  1  0
 25 47  1  0
 29 48  1  0
 30 49  1  0
M  END
>  <Binding energies>  (1) 
[-8.17]

>  <Ligand effiencies>  (1) 
[-0.2635483870967742]

>  <Interactions>  (1) 
["V-B:TYR:539:CE2:9848, V-A:ASP:366:CB:3212, V-A:ASP:366:CG:3213, V-B:GLU:543:C:9874, V-B:GLU:543:CB:9878, H-A:LYS:547:NZ:4951, V-B:HIS:456:CE1:9040, H-B:LYS:547:NZ:9923, V-A:HIS:456:CE1:4069, V-A:HIS:456:CG:4066, V-A:HIS:456:CD2:4068, V-A:HIS:456:CB:4065, H-A:HIS:456:NE2:4070, V-B:GLU:543:CG:9879, V-A:ILE:369:CD1:3239, V-A:ILE:369:CG2:3237, V-A:ILE:369:CB:3236, V-A:GLY:453:C:4042, H-A:TYR:484:OH:4348, V-A:ASP:366:CA:3210, V-A:ARG:545:CZ:4926, V-A:GLY:453:CA:4044, V-A:ARG:545:CD:4923, H-B:GLU:543:O:9875, V-A:LYS:547:CD:4949, V-A:ARG:545:CG:4922"]

$$$$
3ce_Grossjean_2025
     RDKit          3D

 45 47  0  0  0  0  0  0  0  0999 V2000
  123.3630  129.7740   66.6180 C   0  0  0  0  0  0  0  0  0  0  0  0
  124.4550  129.7850   65.5660 C   0  0  0  0  0  0  0  0  0  0  0  0
  125.7170  129.2390   65.8160 C   0  0  0  0  0  0  0  0  0  0  0  0
  126.6690  129.2760   64.7980 C   0  0  0  0  0  0  0  0  0  0  0  0
  126.3430  129.8520   63.5670 C   0  0  0  0  0  0  0  0  0  0  0  0
  125.0630  130.3900   63.3870 C   0  0  0  0  0  0  0  0  0  0  0  0
  124.7850  130.9380   62.1240 N   0  0  0  0  0  0  0  0  0  0  0  0
  123.5830  131.0860   61.5240 C   0  0  0  0  0  0  0  0  0  0  0  0
  122.5020  130.7550   62.0150 O   0  0  0  0  0  0  0  0  0  0  0  0
  123.6090  131.7250   60.1350 C   0  0  0  0  0  0  0  0  0  0  0  0
  124.7380  130.8530   59.0090 S   0  0  0  0  0  0  0  0  0  0  0  0
  126.3150  131.6550   59.1890 C   0  0  0  0  0  0  0  0  0  0  0  0
  126.4050  132.4550   60.2800 N   0  0  0  0  0  0  0  0  0  0  0  0
  127.5720  133.0970   60.5160 C   0  0  0  0  0  0  0  0  0  0  0  0
  127.6080  133.9650   61.7590 C   0  0  0  0  0  0  0  0  0  0  0  0
  128.6760  132.9790   59.6760 C   0  0  0  0  0  0  0  0  0  0  0  0
  128.5940  132.1780   58.5300 C   0  0  0  0  0  0  0  0  0  0  0  0
  129.7960  132.1030   57.6470 C   0  0  0  0  0  0  0  0  0  0  0  0
  129.7510  132.6320   56.3510 C   0  0  0  0  0  0  0  0  0  0  0  0
  130.8660  132.5600   55.5200 C   0  0  0  0  0  0  0  0  0  0  0  0
  132.0300  131.9510   55.9780 C   0  0  0  0  0  0  0  0  0  0  0  0
  132.0880  131.4100   57.2600 C   0  0  0  0  0  0  0  0  0  0  0  0
  130.9730  131.4850   58.0900 C   0  0  0  0  0  0  0  0  0  0  0  0
  127.3820  131.4880   58.2750 C   0  0  0  0  0  0  0  0  0  0  0  0
  127.2420  130.6230   57.0990 C   0  0  0  0  0  0  0  0  0  0  0  0
  127.1330  129.9410   56.1710 N   0  0  0  0  0  0  0  0  0  0  0  0
  124.1240  130.3510   64.3770 N   0  0  0  0  0  0  0  0  0  0  0  0
  123.8184  129.7786   67.6193 H   0  0  0  0  0  0  0  0  0  0  0  0
  122.7302  130.6658   66.4989 H   0  0  0  0  0  0  0  0  0  0  0  0
  122.7483  128.8696   66.4989 H   0  0  0  0  0  0  0  0  0  0  0  0
  125.9535  128.7909   66.7923 H   0  0  0  0  0  0  0  0  0  0  0  0
  127.6714  128.8541   64.9628 H   0  0  0  0  0  0  0  0  0  0  0  0
  127.0810  129.8822   62.7518 H   0  0  0  0  0  0  0  0  0  0  0  0
  125.5790  131.3480   61.6540 H   0  0  0  0  0  0  0  0  0  0  0  0
  122.5939  131.6980   59.7121 H   0  0  0  0  0  0  0  0  0  0  0  0
  123.9665  132.7597   60.2424 H   0  0  0  0  0  0  0  0  0  0  0  0
  127.5815  133.3255   62.6536 H   0  0  0  0  0  0  0  0  0  0  0  0
  128.5317  134.5623   61.7625 H   0  0  0  0  0  0  0  0  0  0  0  0
  126.7369  134.6368   61.7625 H   0  0  0  0  0  0  0  0  0  0  0  0
  129.6087  133.5126   59.9114 H   0  0  0  0  0  0  0  0  0  0  0  0
  128.8284  133.1077   55.9870 H   0  0  0  0  0  0  0  0  0  0  0  0
  130.8266  132.9830   54.5053 H   0  0  0  0  0  0  0  0  0  0  0  0
  132.9115  131.8964   55.3223 H   0  0  0  0  0  0  0  0  0  0  0  0
  133.0099  130.9260   57.6148 H   0  0  0  0  0  0  0  0  0  0  0  0
  131.0162  131.0557   59.1018 H   0  0  0  0  0  0  0  0  0  0  0  0
  1  2  1  0
  2  3  2  0
  3  4  1  0
  4  5  2  0
  5  6  1  0
  6  7  1  0
  7  8  1  0
  8  9  2  0
  8 10  1  0
 10 11  1  0
 11 12  1  0
 12 13  2  0
 13 14  1  0
 14 15  1  0
 14 16  2  0
 16 17  1  0
 17 18  1  0
 18 19  2  0
 19 20  1  0
 20 21  2  0
 21 22  1  0
 22 23  2  0
 17 24  2  0
 24 25  1  0
 25 26  3  0
  6 27  2  0
 27  2  1  0
 24 12  1  0
 23 18  1  0
  1 28  1  0
  1 29  1  0
  1 30  1  0
  3 31  1  0
  4 32  1  0
  5 33  1  0
  7 34  1  0
 10 35  1  0
 10 36  1  0
 15 37  1  0
 15 38  1  0
 15 39  1  0
 16 40  1  0
 19 41  1  0
 20 42  1  0
 21 43  1  0
 22 44  1  0
 23 45  1  0
M  END
>  <Binding energies>  (1) 
[-8.42]

>  <Ligand effiencies>  (1) 
[-0.3007142857142857]

>  <Interactions>  (1) 
["V-B:ASP:366:CG:8184, V-A:PRO:540:CD:4887, V-A:PRO:540:N:4884, V-A:TYR:539:C:4867, V-A:ILE:538:CA:4860, V-A:LEU:363:CD1:3189, V-A:TYR:539:CE2:4876, V-A:PRO:540:CB:4885, V-A:PRO:540:CA:4883, V-A:TYR:539:CD2:4874, V-B:LEU:475:CD1:9229, V-A:ALA:541:CB:4892, V-B:ARG:545:CG:9894, H-B:TYR:484:OH:9319, H-B:GLY:454:N:9021, V-B:ILE:369:CD1:8210, V-B:ARG:545:CD:9895, V-B:ILE:369:CG2:8208, V-B:ARG:545:CZ:9898, V-B:GLY:454:CA:9020, H-B:ARG:545:NH2:9900, V-A:TYR:539:CE1:4875, V-A:TYR:539:CD1:4873, V-A:TYR:539:CZ:4877, V-A:TYR:539:CG:4872, V-A:TYR:539:CA:4869, H-A:TYR:539:OH:4878, H-B:TYR:531:OH:9767, V-B:ILE:455:C:9023, V-B:ILE:369:CB:8207, V-B:GLY:454:C:9018"]

$$$$
3ch_Grossjean_2025
     RDKit          3D

 55 57  0  0  0  0  0  0  0  0999 V2000
  123.0700  124.3250   59.5330 C   0  0  0  0  0  0  0  0  0  0  0  0
  123.7550  123.9450   58.3440 O   0  0  0  0  0  0  0  0  0  0  0  0
  125.1060  123.6550   58.3980 C   0  0  0  0  0  0  0  0  0  0  0  0
  125.9270  123.9380   59.5020 C   0  0  0  0  0  0  0  0  0  0  0  0
  127.2890  123.6060   59.4890 C   0  0  0  0  0  0  0  0  0  0  0  0
  128.1870  123.8450   60.5470 N   0  0  0  0  0  0  0  0  0  0  0  0
  128.2100  123.3230   61.7940 C   0  0  0  0  0  0  0  0  0  0  0  0
  127.4130  122.4960   62.2360 O   0  0  0  0  0  0  0  0  0  0  0  0
  129.3600  123.7930   62.6840 C   0  0  0  0  0  0  0  0  0  0  0  0
  129.8930  125.4830   62.2810 S   0  0  0  0  0  0  0  0  0  0  0  0
  129.0730  126.5500   63.4460 C   0  0  0  0  0  0  0  0  0  0  0  0
  128.4360  127.6010   62.8740 N   0  0  0  0  0  0  0  0  0  0  0  0
  127.7870  128.4770   63.6740 C   0  0  0  0  0  0  0  0  0  0  0  0
  127.1010  129.6320   62.9700 C   0  0  0  0  0  0  0  0  0  0  0  0
  127.7510  128.3430   65.0600 C   0  0  0  0  0  0  0  0  0  0  0  0
  128.3970  127.2580   65.6700 C   0  0  0  0  0  0  0  0  0  0  0  0
  128.3400  127.1600   67.1600 C   0  0  0  0  0  0  0  0  0  0  0  0
  127.2250  126.5880   67.7840 C   0  0  0  0  0  0  0  0  0  0  0  0
  127.1600  126.5010   69.1730 C   0  0  0  0  0  0  0  0  0  0  0  0
  128.2120  126.9910   69.9440 C   0  0  0  0  0  0  0  0  0  0  0  0
  129.3240  127.5690   69.3380 C   0  0  0  0  0  0  0  0  0  0  0  0
  129.3840  127.6550   67.9500 C   0  0  0  0  0  0  0  0  0  0  0  0
  129.0650  126.3200   64.8420 C   0  0  0  0  0  0  0  0  0  0  0  0
  129.6770  125.1180   65.4160 C   0  0  0  0  0  0  0  0  0  0  0  0
  130.1620  124.1700   65.8690 N   0  0  0  0  0  0  0  0  0  0  0  0
  127.8320  123.0060   58.3520 C   0  0  0  0  0  0  0  0  0  0  0  0
  127.0330  122.7160   57.2350 C   0  0  0  0  0  0  0  0  0  0  0  0
  127.5070  122.1150   56.0810 O   0  0  0  0  0  0  0  0  0  0  0  0
  127.5490  122.8620   54.8700 C   0  0  0  0  0  0  0  0  0  0  0  0
  125.6730  123.0480   57.2700 C   0  0  0  0  0  0  0  0  0  0  0  0
  124.8760  122.7520   56.1890 O   0  0  0  0  0  0  0  0  0  0  0  0
  124.5230  123.8830   55.4030 C   0  0  0  0  0  0  0  0  0  0  0  0
  123.6509  124.0027   60.4097 H   0  0  0  0  0  0  0  0  0  0  0  0
  122.9506  125.4183   59.5539 H   0  0  0  0  0  0  0  0  0  0  0  0
  122.0793  123.8475   59.5539 H   0  0  0  0  0  0  0  0  0  0  0  0
  125.4957  124.4264   60.3882 H   0  0  0  0  0  0  0  0  0  0  0  0
  128.9450  124.4700   60.3140 H   0  0  0  0  0  0  0  0  0  0  0  0
  129.0299  123.7662   63.7330 H   0  0  0  0  0  0  0  0  0  0  0  0
  130.2140  123.1203   62.5159 H   0  0  0  0  0  0  0  0  0  0  0  0
  126.6893  130.3251   63.7184 H   0  0  0  0  0  0  0  0  0  0  0  0
  127.8303  130.1629   62.3405 H   0  0  0  0  0  0  0  0  0  0  0  0
  126.2859  129.2456   62.3405 H   0  0  0  0  0  0  0  0  0  0  0  0
  127.2183  129.0848   65.6732 H   0  0  0  0  0  0  0  0  0  0  0  0
  126.3943  126.2045   67.1733 H   0  0  0  0  0  0  0  0  0  0  0  0
  126.2829  126.0479   69.6583 H   0  0  0  0  0  0  0  0  0  0  0  0
  128.1635  126.9205   71.0407 H   0  0  0  0  0  0  0  0  0  0  0  0
  130.1505  127.9555   69.9524 H   0  0  0  0  0  0  0  0  0  0  0  0
  130.2597  128.1161   67.4697 H   0  0  0  0  0  0  0  0  0  0  0  0
  128.9031  122.7564   58.3308 H   0  0  0  0  0  0  0  0  0  0  0  0
  127.6093  123.9353   55.1032 H   0  0  0  0  0  0  0  0  0  0  0  0
  128.4318  122.5636   54.2855 H   0  0  0  0  0  0  0  0  0  0  0  0
  126.6383  122.6644   54.2855 H   0  0  0  0  0  0  0  0  0  0  0  0
  124.2612  124.7219   56.0645 H   0  0  0  0  0  0  0  0  0  0  0  0
  125.3747  124.1686   54.7682 H   0  0  0  0  0  0  0  0  0  0  0  0
  123.6600  123.6334   54.7682 H   0  0  0  0  0  0  0  0  0  0  0  0
  1  2  1  0
  2  3  1  0
  3  4  2  0
  4  5  1  0
  5  6  1  0
  6  7  1  0
  7  8  2  0
  7  9  1  0
  9 10  1  0
 10 11  1  0
 11 12  2  0
 12 13  1  0
 13 14  1  0
 13 15  2  0
 15 16  1  0
 16 17  1  0
 17 18  2  0
 18 19  1  0
 19 20  2  0
 20 21  1  0
 21 22  2  0
 16 23  2  0
 23 24  1  0
 24 25  3  0
  5 26  2  0
 26 27  1  0
 27 28  1  0
 28 29  1  0
 27 30  2  0
 30 31  1  0
 31 32  1  0
 30  3  1  0
 23 11  1  0
 22 17  1  0
  1 33  1  0
  1 34  1  0
  1 35  1  0
  4 36  1  0
  6 37  1  0
  9 38  1  0
  9 39  1  0
 14 40  1  0
 14 41  1  0
 14 42  1  0
 15 43  1  0
 18 44  1  0
 19 45  1  0
 20 46  1  0
 21 47  1  0
 22 48  1  0
 26 49  1  0
 29 50  1  0
 29 51  1  0
 29 52  1  0
 32 53  1  0
 32 54  1  0
 32 55  1  0
M  END
>  <Binding energies>  (1) 
[-7.79]

>  <Ligand effiencies>  (1) 
[-0.23606060606060605]

>  <Interactions>  (1) 
["V-B:PRO:540:CD:9859, V-B:LEU:363:CA:8156, V-B:GLU:543:CD:9880, V-B:ILE:538:CB:9834, V-B:ALA:541:CB:9864, V-B:TYR:539:CE2:9848, V-B:TYR:539:CD2:9846, H-B:ALA:541:N:9863, V-B:PRO:540:CB:9857, V-B:PRO:540:N:9856, V-B:TYR:539:C:9839, V-B:LEU:363:CD1:8160, V-B:ASP:366:CG:8184, V-B:PRO:540:CA:9855, V-B:TYR:539:CZ:9849, V-B:ASN:362:C:8143, V-B:ILE:538:CG2:9835, V-B:TYR:531:CE2:9765, H-B:TYR:539:N:9842, V-B:GLU:543:C:9874, V-B:GLU:543:CB:9878, V-B:GLY:544:C:9884, V-B:HIS:456:CE1:9040, V-A:HIS:456:CE1:4069, V-B:GLU:543:CG:9879, H-A:TYR:484:OH:4348, V-B:ILE:538:CA:9832, V-B:TYR:539:CE1:9847, V-B:TYR:539:CD1:9845, V-B:LEU:363:CB:8158"]

$$$$
3ci_Grossjean_2025
     RDKit          3D

 39 41  0  0  0  0  0  0  0  0999 V2000
  128.0230  133.2180   61.1710 C   0  0  0  0  0  0  0  0  0  0  0  0
  127.9480  132.5250   59.8240 C   0  0  0  0  0  0  0  0  0  0  0  0
  129.0120  132.5540   58.9270 C   0  0  0  0  0  0  0  0  0  0  0  0
  128.9010  131.8850   57.7000 C   0  0  0  0  0  0  0  0  0  0  0  0
  130.0730  131.9300   56.7750 C   0  0  0  0  0  0  0  0  0  0  0  0
  131.3020  131.3690   57.1480 C   0  0  0  0  0  0  0  0  0  0  0  0
  132.3940  131.4210   56.2860 C   0  0  0  0  0  0  0  0  0  0  0  0
  132.2640  132.0420   55.0470 C   0  0  0  0  0  0  0  0  0  0  0  0
  131.0520  132.6120   54.6650 C   0  0  0  0  0  0  0  0  0  0  0  0
  129.9620  132.5580   55.5290 C   0  0  0  0  0  0  0  0  0  0  0  0
  127.6900  131.2060   57.4090 C   0  0  0  0  0  0  0  0  0  0  0  0
  127.5000  130.5250   56.1240 C   0  0  0  0  0  0  0  0  0  0  0  0
  127.3520  129.9880   55.1090 N   0  0  0  0  0  0  0  0  0  0  0  0
  126.6600  131.2230   58.3800 C   0  0  0  0  0  0  0  0  0  0  0  0
  125.1020  130.3820   58.1280 S   0  0  0  0  0  0  0  0  0  0  0  0
  123.7510  131.3780   58.8410 C   0  0  0  0  0  0  0  0  0  0  0  0
  123.4000  130.9850   60.2800 C   0  0  0  0  0  0  0  0  0  0  0  0
  122.2220  130.7760   60.5770 O   0  0  0  0  0  0  0  0  0  0  0  0
  124.4420  130.9110   61.1390 N   0  0  0  0  0  0  0  0  0  0  0  0
  124.4020  130.5530   62.4790 C   0  0  0  0  0  0  0  0  0  0  0  0
  125.5450  130.2530   63.2200 C   0  0  0  0  0  0  0  0  0  0  0  0
  125.0850  129.9490   64.4810 C   0  0  0  0  0  0  0  0  0  0  0  0
  123.7350  130.0620   64.4980 O   0  0  0  0  0  0  0  0  0  0  0  0
  123.3140  130.4430   63.2230 N   0  0  0  0  0  0  0  0  0  0  0  0
  126.7910  131.8790   59.5610 N   0  0  0  0  0  0  0  0  0  0  0  0
  127.9420  132.4698   61.9733 H   0  0  0  0  0  0  0  0  0  0  0  0
  128.9836  133.7468   61.2583 H   0  0  0  0  0  0  0  0  0  0  0  0
  127.1978  133.9400   61.2583 H   0  0  0  0  0  0  0  0  0  0  0  0
  129.9340  133.0983   59.1793 H   0  0  0  0  0  0  0  0  0  0  0  0
  131.4046  130.8837   58.1298 H   0  0  0  0  0  0  0  0  0  0  0  0
  133.3543  130.9738   56.5824 H   0  0  0  0  0  0  0  0  0  0  0  0
  133.1254  132.0829   54.3641 H   0  0  0  0  0  0  0  0  0  0  0  0
  130.9566  133.1026   53.6851 H   0  0  0  0  0  0  0  0  0  0  0  0
  129.0058  133.0124   55.2302 H   0  0  0  0  0  0  0  0  0  0  0  0
  124.0550  132.4351   58.8324 H   0  0  0  0  0  0  0  0  0  0  0  0
  122.8559  131.1981   58.2275 H   0  0  0  0  0  0  0  0  0  0  0  0
  125.3590  131.1120   60.7700 H   0  0  0  0  0  0  0  0  0  0  0  0
  126.5884  130.2582   62.8718 H   0  0  0  0  0  0  0  0  0  0  0  0
  125.7124  129.6607   65.3373 H   0  0  0  0  0  0  0  0  0  0  0  0
  1  2  1  0
  2  3  2  0
  3  4  1  0
  4  5  1  0
  5  6  2  0
  6  7  1  0
  7  8  2  0
  8  9  1  0
  9 10  2  0
  4 11  2  0
 11 12  1  0
 12 13  3  0
 11 14  1  0
 14 15  1  0
 15 16  1  0
 16 17  1  0
 17 18  2  0
 17 19  1  0
 19 20  1  0
 20 21  1  0
 21 22  2  0
 22 23  1  0
 23 24  1  0
 14 25  2  0
 25  2  1  0
 10  5  1  0
 24 20  2  0
  1 26  1  0
  1 27  1  0
  1 28  1  0
  3 29  1  0
  6 30  1  0
  7 31  1  0
  8 32  1  0
  9 33  1  0
 10 34  1  0
 16 35  1  0
 16 36  1  0
 19 37  1  0
 21 38  1  0
 22 39  1  0
M  END
>  <Binding energies>  (1) 
[-8.06]

>  <Ligand effiencies>  (1) 
[-0.31]

>  <Interactions>  (1) 
["V-B:ASP:366:CG:8184, V-A:PRO:540:N:4884, V-A:TYR:539:C:4867, V-A:TYR:531:CE2:4793, V-A:ILE:538:CD1:4865, V-A:ILE:538:CA:4860, V-A:LEU:363:CD1:3189, V-A:TYR:539:CE2:4876, V-A:PRO:540:CA:4883, V-A:TYR:539:CD2:4874, V-A:ALA:541:CB:4892, V-B:ASP:366:CB:8183, H-B:ARG:545:NE:9896, H-B:GLY:454:N:9021, V-B:ILE:369:CD1:8210, V-B:ILE:369:CG2:8208, V-B:ARG:545:CZ:9898, H-B:ARG:545:NH2:9900, H-B:ARG:545:NH1:9899, V-A:TYR:539:CE1:4875, V-A:TYR:539:CD1:4873, V-A:TYR:539:CZ:4877, H-A:TYR:539:OH:4878, H-B:TYR:531:OH:9767, V-B:ASP:366:CA:8181"]

$$$$
3cj_Grossjean_2025
     RDKit          3D

 39 41  0  0  0  0  0  0  0  0999 V2000
  128.0630  133.2460   61.3550 C   0  0  0  0  0  0  0  0  0  0  0  0
  127.9240  132.5520   60.0140 C   0  0  0  0  0  0  0  0  0  0  0  0
  128.9250  132.6270   59.0480 C   0  0  0  0  0  0  0  0  0  0  0  0
  128.7650  131.9510   57.8310 C   0  0  0  0  0  0  0  0  0  0  0  0
  129.8900  132.0070   56.8520 C   0  0  0  0  0  0  0  0  0  0  0  0
  131.1550  131.5140   57.1940 C   0  0  0  0  0  0  0  0  0  0  0  0
  132.2070  131.5780   56.2840 C   0  0  0  0  0  0  0  0  0  0  0  0
  131.9990  132.1420   55.0290 C   0  0  0  0  0  0  0  0  0  0  0  0
  130.7490  132.6450   54.6770 C   0  0  0  0  0  0  0  0  0  0  0  0
  129.6980  132.5790   55.5890 C   0  0  0  0  0  0  0  0  0  0  0  0
  127.5630  131.2350   57.6100 C   0  0  0  0  0  0  0  0  0  0  0  0
  127.3240  130.5310   56.3460 C   0  0  0  0  0  0  0  0  0  0  0  0
  127.1370  129.9750   55.3480 N   0  0  0  0  0  0  0  0  0  0  0  0
  126.6030  131.2080   58.6470 C   0  0  0  0  0  0  0  0  0  0  0  0
  125.1130  130.2390   58.5540 S   0  0  0  0  0  0  0  0  0  0  0  0
  123.8520  131.2370   59.4080 C   0  0  0  0  0  0  0  0  0  0  0  0
  124.1540  131.3820   60.9030 C   0  0  0  0  0  0  0  0  0  0  0  0
  124.1570  132.5020   61.4170 O   0  0  0  0  0  0  0  0  0  0  0  0
  124.3640  130.2230   61.5650 N   0  0  0  0  0  0  0  0  0  0  0  0
  124.5220  130.0690   62.9330 C   0  0  0  0  0  0  0  0  0  0  0  0
  123.6350  130.2900   63.8790 N   0  0  0  0  0  0  0  0  0  0  0  0
  124.1200  130.0080   65.0710 C   0  0  0  0  0  0  0  0  0  0  0  0
  125.4330  129.5470   65.1100 C   0  0  0  0  0  0  0  0  0  0  0  0
  126.0580  129.4850   63.4890 S   0  0  0  0  0  0  0  0  0  0  0  0
  126.7860  131.8470   59.8310 N   0  0  0  0  0  0  0  0  0  0  0  0
  127.9165  132.5145   62.1634 H   0  0  0  0  0  0  0  0  0  0  0  0
  129.0673  133.6871   61.4372 H   0  0  0  0  0  0  0  0  0  0  0  0
  127.3060  134.0399   61.4372 H   0  0  0  0  0  0  0  0  0  0  0  0
  129.8357  133.2135   59.2395 H   0  0  0  0  0  0  0  0  0  0  0  0
  131.3189  131.0731   58.1884 H   0  0  0  0  0  0  0  0  0  0  0  0
  133.1976  131.1846   56.5559 H   0  0  0  0  0  0  0  0  0  0  0  0
  132.8290  132.1909   54.3088 H   0  0  0  0  0  0  0  0  0  0  0  0
  130.5924  133.0920   53.6842 H   0  0  0  0  0  0  0  0  0  0  0  0
  128.7107  132.9790   55.3148 H   0  0  0  0  0  0  0  0  0  0  0  0
  123.8222  132.2378   58.9525 H   0  0  0  0  0  0  0  0  0  0  0  0
  122.8841  130.7249   59.3039 H   0  0  0  0  0  0  0  0  0  0  0  0
  124.3180  129.3680   61.0300 H   0  0  0  0  0  0  0  0  0  0  0  0
  123.5205  130.1301   65.9851 H   0  0  0  0  0  0  0  0  0  0  0  0
  125.9855  129.2673   66.0192 H   0  0  0  0  0  0  0  0  0  0  0  0
  1  2  1  0
  2  3  2  0
  3  4  1  0
  4  5  1  0
  5  6  2  0
  6  7  1  0
  7  8  2  0
  8  9  1  0
  9 10  2  0
  4 11  2  0
 11 12  1  0
 12 13  3  0
 11 14  1  0
 14 15  1  0
 15 16  1  0
 16 17  1  0
 17 18  2  0
 17 19  1  0
 19 20  1  0
 20 21  2  0
 21 22  1  0
 22 23  2  0
 23 24  1  0
 14 25  2  0
 25  2  1  0
 10  5  1  0
 24 20  1  0
  1 26  1  0
  1 27  1  0
  1 28  1  0
  3 29  1  0
  6 30  1  0
  7 31  1  0
  8 32  1  0
  9 33  1  0
 10 34  1  0
 16 35  1  0
 16 36  1  0
 19 37  1  0
 22 38  1  0
 23 39  1  0
M  END
>  <Binding energies>  (1) 
[-7.89]

>  <Ligand effiencies>  (1) 
[-0.30346153846153845]

>  <Interactions>  (1) 
["H-B:ASP:366:OD1:8185, V-B:ASP:366:CG:8184, V-A:PRO:540:N:4884, V-A:TYR:539:C:4867, V-A:TYR:531:CE2:4793, V-A:ILE:538:CD1:4865, V-A:ILE:538:CA:4860, V-A:LEU:363:CD1:3189, V-A:TYR:539:CE2:4876, V-A:PRO:540:CB:4885, V-A:PRO:540:CA:4883, V-A:TYR:539:CD2:4874, V-A:ALA:541:CB:4892, V-B:ASP:366:CB:8183, H-B:GLY:454:N:9021, V-B:ARG:545:CD:9895, V-B:ILE:369:CG2:8208, V-B:ARG:545:CZ:9898, V-B:GLY:454:CA:9020, H-B:ARG:545:NH2:9900, H-B:ARG:545:NH1:9899, V-A:TYR:539:CE1:4875, H-B:ASP:366:OD2:8186, V-A:TYR:539:CD1:4873, V-A:TYR:539:CZ:4877, V-A:TYR:539:CG:4872, H-A:TYR:539:OH:4878, H-B:TYR:531:OH:9767, V-B:ASP:366:CA:8181, V-A:ILE:538:C:4858"]

$$$$
3ck_Grossjean_2025
     RDKit          3D

 57 58  0  0  0  0  0  0  0  0999 V2000
  126.5690  123.2070   55.6420 C   0  0  0  0  0  0  0  0  0  0  0  0
  126.7680  122.1150   56.5270 O   0  0  0  0  0  0  0  0  0  0  0  0
  127.3900  122.4840   57.7500 C   0  0  0  0  0  0  0  0  0  0  0  0
  126.4860  123.4630   58.5110 C   0  0  0  0  0  0  0  0  0  0  0  0
  127.0680  123.7550   59.7750 O   0  0  0  0  0  0  0  0  0  0  0  0
  127.4320  125.1200   59.9400 C   0  0  0  0  0  0  0  0  0  0  0  0
  128.6830  125.2010   60.8230 C   0  0  0  0  0  0  0  0  0  0  0  0
  129.7300  124.4840   60.1840 O   0  0  0  0  0  0  0  0  0  0  0  0
  129.7040  124.5320   58.7660 C   0  0  0  0  0  0  0  0  0  0  0  0
  131.1160  124.8450   58.2350 C   0  0  0  0  0  0  0  0  0  0  0  0
  132.1890  124.4900   59.1680 N   0  0  0  0  0  0  0  0  0  0  0  0
  133.3830  123.9700   58.8290 C   0  0  0  0  0  0  0  0  0  0  0  0
  133.7190  123.7540   57.6630 O   0  0  0  0  0  0  0  0  0  0  0  0
  134.3250  123.6570   60.0030 C   0  0  0  0  0  0  0  0  0  0  0  0
  133.8910  122.1800   60.9840 S   0  0  0  0  0  0  0  0  0  0  0  0
  132.2350  122.3710   61.6280 C   0  0  0  0  0  0  0  0  0  0  0  0
  131.2700  121.6720   60.9790 N   0  0  0  0  0  0  0  0  0  0  0  0
  129.9930  121.7730   61.4090 C   0  0  0  0  0  0  0  0  0  0  0  0
  128.9700  120.9670   60.6330 C   0  0  0  0  0  0  0  0  0  0  0  0
  129.6270  122.5670   62.4930 C   0  0  0  0  0  0  0  0  0  0  0  0
  130.6060  123.3020   63.1750 C   0  0  0  0  0  0  0  0  0  0  0  0
  130.1640  124.1580   64.3170 C   0  0  0  0  0  0  0  0  0  0  0  0
  129.8740  123.5800   65.5580 C   0  0  0  0  0  0  0  0  0  0  0  0
  129.4520  124.3710   66.6250 C   0  0  0  0  0  0  0  0  0  0  0  0
  129.3130  125.7450   66.4500 C   0  0  0  0  0  0  0  0  0  0  0  0
  129.5890  126.3340   65.2190 C   0  0  0  0  0  0  0  0  0  0  0  0
  130.0110  125.5410   64.1550 C   0  0  0  0  0  0  0  0  0  0  0  0
  131.9530  123.1960   62.7410 C   0  0  0  0  0  0  0  0  0  0  0  0
  133.0250  123.9100   63.4430 C   0  0  0  0  0  0  0  0  0  0  0  0
  133.8710  124.4730   63.9970 N   0  0  0  0  0  0  0  0  0  0  0  0
  126.4017  124.1251   56.2243 H   0  0  0  0  0  0  0  0  0  0  0  0
  127.4591  123.3320   55.0080 H   0  0  0  0  0  0  0  0  0  0  0  0
  125.6920  123.0100   55.0080 H   0  0  0  0  0  0  0  0  0  0  0  0
  127.5547  121.5855   58.3629 H   0  0  0  0  0  0  0  0  0  0  0  0
  128.3555  122.9667   57.5383 H   0  0  0  0  0  0  0  0  0  0  0  0
  126.3808  124.3921   57.9316 H   0  0  0  0  0  0  0  0  0  0  0  0
  125.4942  123.0104   58.6579 H   0  0  0  0  0  0  0  0  0  0  0  0
  127.6449  125.5661   58.9573 H   0  0  0  0  0  0  0  0  0  0  0  0
  126.6061  125.6696   60.4152 H   0  0  0  0  0  0  0  0  0  0  0  0
  128.9784  126.2526   60.9532 H   0  0  0  0  0  0  0  0  0  0  0  0
  128.4762  124.7665   61.8122 H   0  0  0  0  0  0  0  0  0  0  0  0
  129.3718  123.5600   58.3726 H   0  0  0  0  0  0  0  0  0  0  0  0
  129.0075  125.3182   58.4392 H   0  0  0  0  0  0  0  0  0  0  0  0
  131.2681  124.2838   57.3013 H   0  0  0  0  0  0  0  0  0  0  0  0
  131.1685  125.9333   58.0842 H   0  0  0  0  0  0  0  0  0  0  0  0
  131.9980  124.6510   60.1460 H   0  0  0  0  0  0  0  0  0  0  0  0
  135.3363  123.5090   59.5963 H   0  0  0  0  0  0  0  0  0  0  0  0
  134.2455  124.5115   60.6911 H   0  0  0  0  0  0  0  0  0  0  0  0
  128.3056  120.4435   61.3362 H   0  0  0  0  0  0  0  0  0  0  0  0
  128.3752  121.6418   59.9999 H   0  0  0  0  0  0  0  0  0  0  0  0
  129.4869  120.2308   59.9999 H   0  0  0  0  0  0  0  0  0  0  0  0
  128.5755  122.6169   62.8120 H   0  0  0  0  0  0  0  0  0  0  0  0
  129.9799  122.4934   65.6923 H   0  0  0  0  0  0  0  0  0  0  0  0
  129.2300  123.9123   67.5998 H   0  0  0  0  0  0  0  0  0  0  0  0
  128.9821  126.3710   67.2918 H   0  0  0  0  0  0  0  0  0  0  0  0
  129.4743  127.4201   65.0876 H   0  0  0  0  0  0  0  0  0  0  0  0
  130.2257  126.0038   63.1805 H   0  0  0  0  0  0  0  0  0  0  0  0
  1  2  1  0
  2  3  1  0
  3  4  1  0
  4  5  1  0
  5  6  1  0
  6  7  1  0
  7  8  1  0
  8  9  1  0
  9 10  1  0
 10 11  1  0
 11 12  1  0
 12 13  2  0
 12 14  1  0
 14 15  1  0
 15 16  1  0
 16 17  2  0
 17 18  1  0
 18 19  1  0
 18 20  2  0
 20 21  1  0
 21 22  1  0
 22 23  2  0
 23 24  1  0
 24 25  2  0
 25 26  1  0
 26 27  2  0
 21 28  2  0
 28 29  1  0
 29 30  3  0
 28 16  1  0
 27 22  1  0
  1 31  1  0
  1 32  1  0
  1 33  1  0
  3 34  1  0
  3 35  1  0
  4 36  1  0
  4 37  1  0
  6 38  1  0
  6 39  1  0
  7 40  1  0
  7 41  1  0
  9 42  1  0
  9 43  1  0
 10 44  1  0
 10 45  1  0
 11 46  1  0
 14 47  1  0
 14 48  1  0
 19 49  1  0
 19 50  1  0
 19 51  1  0
 20 52  1  0
 23 53  1  0
 24 54  1  0
 25 55  1  0
 26 56  1  0
 27 57  1  0
M  END
>  <Binding energies>  (1) 
[-6.42]

>  <Ligand effiencies>  (1) 
[-0.20709677419354838]

>  <Interactions>  (1) 
["V-B:ILE:538:CB:9834, V-B:ALA:541:CB:9864, V-B:TYR:539:CE2:9848, V-B:TYR:539:CD2:9846, V-B:PRO:540:CB:9857, V-B:PRO:540:N:9856, V-B:TYR:539:C:9839, V-B:PRO:540:C:9853, V-B:PRO:540:CA:9855, V-B:TYR:539:CZ:9849, V-B:ALA:541:CA:9862, V-A:ASP:366:CB:3212, V-A:ASP:366:CG:3213, V-A:GLU:543:CD:4908, V-B:ILE:538:CG2:9835, V-B:TYR:539:CG:9844, H-B:TYR:539:OH:9850, H-B:TYR:539:N:9842, V-B:GLU:543:C:9874, V-B:GLU:543:CB:9878, H-A:GLY:454:N:4050, V-B:GLU:543:CG:9879, V-A:TYR:484:CE1:4345, V-B:GLU:543:CA:9876, V-A:ILE:369:CD1:3239, V-A:ILE:369:CG2:3237, V-A:ILE:369:CB:3236, V-A:TYR:484:CZ:4347, V-A:ASP:366:CA:3210, V-B:ILE:538:CA:9832, H-A:ASP:366:OD2:3215"]

$$$$
4aa_Grossjean_2025
     RDKit          3D

 45 47  0  0  0  0  0  0  0  0999 V2000
  125.5280  126.9220   74.5090 C   0  0  0  0  0  0  0  0  0  0  0  0
  126.6080  127.0620   73.4310 C   0  0  0  0  0  0  0  0  0  0  0  0
  127.7120  126.2290   73.7580 O   0  0  0  0  0  0  0  0  0  0  0  0
  128.9640  126.5200   73.3200 C   0  0  0  0  0  0  0  0  0  0  0  0
  129.8190  127.0740   74.0200 O   0  0  0  0  0  0  0  0  0  0  0  0
  129.2070  126.1070   71.8980 C   0  0  0  0  0  0  0  0  0  0  0  0
  129.7560  124.8440   71.6360 C   0  0  0  0  0  0  0  0  0  0  0  0
  129.9980  124.4340   70.3280 C   0  0  0  0  0  0  0  0  0  0  0  0
  129.6870  125.2710   69.2550 C   0  0  0  0  0  0  0  0  0  0  0  0
  129.9800  124.7590   67.9760 N   0  0  0  0  0  0  0  0  0  0  0  0
  129.4860  125.1050   66.7630 C   0  0  0  0  0  0  0  0  0  0  0  0
  128.6100  125.9530   66.5890 O   0  0  0  0  0  0  0  0  0  0  0  0
  130.0490  124.3730   65.6270 C   0  0  0  0  0  0  0  0  0  0  0  0
  129.3740  122.8130   65.1490 S   0  0  0  0  0  0  0  0  0  0  0  0
  130.5540  122.6410   63.8710 C   0  0  0  0  0  0  0  0  0  0  0  0
  130.5760  121.5750   63.0690 N   0  0  0  0  0  0  0  0  0  0  0  0
  131.5450  121.5630   62.1220 C   0  0  0  0  0  0  0  0  0  0  0  0
  131.5560  120.3390   61.2240 C   0  0  0  0  0  0  0  0  0  0  0  0
  132.4800  122.5830   61.9560 C   0  0  0  0  0  0  0  0  0  0  0  0
  132.4530  123.7010   62.7970 C   0  0  0  0  0  0  0  0  0  0  0  0
  133.4930  124.7890   62.5760 C   0  0  0  0  0  0  0  0  0  0  0  0
  131.4540  123.7480   63.8060 C   0  0  0  0  0  0  0  0  0  0  0  0
  131.1460  124.7190   64.8220 C   0  0  0  0  0  0  0  0  0  0  0  0
  131.8700  125.8750   64.9720 N   0  0  0  0  0  0  0  0  0  0  0  0
  129.1420  126.5380   69.5070 C   0  0  0  0  0  0  0  0  0  0  0  0
  128.9040  126.9490   70.8160 C   0  0  0  0  0  0  0  0  0  0  0  0
  125.9931  126.9823   75.5040 H   0  0  0  0  0  0  0  0  0  0  0  0
  124.7923  127.7323   74.3984 H   0  0  0  0  0  0  0  0  0  0  0  0
  125.0233  125.9509   74.3984 H   0  0  0  0  0  0  0  0  0  0  0  0
  126.1958  126.7595   72.4571 H   0  0  0  0  0  0  0  0  0  0  0  0
  126.9408  128.1091   73.3780 H   0  0  0  0  0  0  0  0  0  0  0  0
  129.9977  124.1708   72.4717 H   0  0  0  0  0  0  0  0  0  0  0  0
  130.4374  123.4435   70.1386 H   0  0  0  0  0  0  0  0  0  0  0  0
  130.6560  124.0080   67.9770 H   0  0  0  0  0  0  0  0  0  0  0  0
  131.5642  119.4299   61.8433 H   0  0  0  0  0  0  0  0  0  0  0  0
  130.6578  120.3420   60.5890 H   0  0  0  0  0  0  0  0  0  0  0  0
  132.4540  120.3582   60.5890 H   0  0  0  0  0  0  0  0  0  0  0  0
  133.2394  122.5092   61.1636 H   0  0  0  0  0  0  0  0  0  0  0  0
  133.8478  125.1601   63.5488 H   0  0  0  0  0  0  0  0  0  0  0  0
  134.3409  124.3762   62.0097 H   0  0  0  0  0  0  0  0  0  0  0  0
  133.0424  125.6174   62.0097 H   0  0  0  0  0  0  0  0  0  0  0  0
  132.2100  126.3970   64.1770 H   0  0  0  0  0  0  0  0  0  0  0  0
  132.0900  126.2430   65.8860 H   0  0  0  0  0  0  0  0  0  0  0  0
  128.9019  127.2088   68.6689 H   0  0  0  0  0  0  0  0  0  0  0  0
  128.4741  127.9438   71.0044 H   0  0  0  0  0  0  0  0  0  0  0  0
  1  2  1  0
  2  3  1  0
  3  4  1  0
  4  5  2  0
  4  6  1  0
  6  7  2  0
  7  8  1  0
  8  9  2  0
  9 10  1  0
 10 11  1  0
 11 12  2  0
 11 13  1  0
 13 14  1  0
 14 15  1  0
 15 16  2  0
 16 17  1  0
 17 18  1  0
 17 19  2  0
 19 20  1  0
 20 21  1  0
 20 22  2  0
 22 23  1  0
 23 24  1  0
  9 25  1  0
 25 26  2  0
 26  6  1  0
 23 13  2  0
 22 15  1  0
  1 27  1  0
  1 28  1  0
  1 29  1  0
  2 30  1  0
  2 31  1  0
  7 32  1  0
  8 33  1  0
 10 34  1  0
 18 35  1  0
 18 36  1  0
 18 37  1  0
 19 38  1  0
 21 39  1  0
 21 40  1  0
 21 41  1  0
 24 42  1  0
 24 43  1  0
 25 44  1  0
 26 45  1  0
M  END
>  <Binding energies>  (1) 
[-7.74]

>  <Ligand effiencies>  (1) 
[-0.26689655172413795]

>  <Interactions>  (1) 
["V-B:ALA:541:CB:9864, V-A:LEU:475:CD1:4258, V-A:ASP:366:CG:3213, V-A:GLU:543:CD:4908, V-B:GLU:543:C:9874, V-B:GLU:543:CB:9878, H-A:LYS:547:NZ:4951, V-B:HIS:456:CE1:9040, H-B:LYS:547:NZ:9923, V-A:HIS:456:CE1:4069, V-A:HIS:456:CG:4066, V-A:HIS:456:CD2:4068, V-B:GLU:543:CG:9879, V-A:TYR:484:CE1:4345, V-B:GLU:543:CA:9876, V-A:TYR:484:CZ:4347, H-A:TYR:484:OH:4348, H-A:GLU:543:OE2:4910, H-A:HIS:456:ND1:4067, V-A:ARG:545:CZ:4926, H-B:GLU:543:O:9875, V-B:LYS:547:CD:9921"]

$$$$
4ab_Grossjean_2025
     RDKit          3D

 42 44  0  0  0  0  0  0  0  0999 V2000
  126.2970  126.6780   74.0840 C   0  0  0  0  0  0  0  0  0  0  0  0
  127.5720  126.1510   73.7470 O   0  0  0  0  0  0  0  0  0  0  0  0
  128.4930  126.9090   73.1000 C   0  0  0  0  0  0  0  0  0  0  0  0
  129.0430  127.8920   73.6070 O   0  0  0  0  0  0  0  0  0  0  0  0
  128.7720  126.4390   71.7020 C   0  0  0  0  0  0  0  0  0  0  0  0
  129.4780  125.2430   71.5110 C   0  0  0  0  0  0  0  0  0  0  0  0
  129.7540  124.7810   70.2270 C   0  0  0  0  0  0  0  0  0  0  0  0
  129.3240  125.4970   69.1100 C   0  0  0  0  0  0  0  0  0  0  0  0
  129.6630  124.9420   67.8620 N   0  0  0  0  0  0  0  0  0  0  0  0
  130.2660  125.5100   66.7890 C   0  0  0  0  0  0  0  0  0  0  0  0
  130.5960  126.6950   66.7250 O   0  0  0  0  0  0  0  0  0  0  0  0
  130.4930  124.6130   65.6530 C   0  0  0  0  0  0  0  0  0  0  0  0
  129.3880  123.2720   65.3440 S   0  0  0  0  0  0  0  0  0  0  0  0
  130.3350  122.7460   63.9710 C   0  0  0  0  0  0  0  0  0  0  0  0
  129.9930  121.6820   63.2430 N   0  0  0  0  0  0  0  0  0  0  0  0
  130.8130  121.3800   62.2080 C   0  0  0  0  0  0  0  0  0  0  0  0
  130.4090  120.1630   61.3960 C   0  0  0  0  0  0  0  0  0  0  0  0
  131.9540  122.1110   61.8840 C   0  0  0  0  0  0  0  0  0  0  0  0
  132.3110  123.2270   62.6510 C   0  0  0  0  0  0  0  0  0  0  0  0
  133.5670  123.9910   62.2590 C   0  0  0  0  0  0  0  0  0  0  0  0
  131.4770  123.5730   63.7480 C   0  0  0  0  0  0  0  0  0  0  0  0
  131.5460  124.6250   64.7250 C   0  0  0  0  0  0  0  0  0  0  0  0
  132.5570  125.5530   64.7310 N   0  0  0  0  0  0  0  0  0  0  0  0
  128.6210  126.6980   69.2910 C   0  0  0  0  0  0  0  0  0  0  0  0
  128.3480  127.1600   70.5760 C   0  0  0  0  0  0  0  0  0  0  0  0
  126.1953  126.7201   75.1785 H   0  0  0  0  0  0  0  0  0  0  0  0
  126.1972  127.6911   73.6673 H   0  0  0  0  0  0  0  0  0  0  0  0
  125.5110  126.0310   73.6673 H   0  0  0  0  0  0  0  0  0  0  0  0
  129.8168  124.6646   72.3832 H   0  0  0  0  0  0  0  0  0  0  0  0
  130.3152  123.8446   70.0925 H   0  0  0  0  0  0  0  0  0  0  0  0
  129.4010  123.9740   67.7560 H   0  0  0  0  0  0  0  0  0  0  0  0
  130.1366  119.3424   62.0760 H   0  0  0  0  0  0  0  0  0  0  0  0
  129.5464  120.4153   60.7617 H   0  0  0  0  0  0  0  0  0  0  0  0
  131.2512  119.8493   60.7617 H   0  0  0  0  0  0  0  0  0  0  0  0
  132.5741  121.8117   61.0262 H   0  0  0  0  0  0  0  0  0  0  0  0
  134.0980  124.3140   63.1666 H   0  0  0  0  0  0  0  0  0  0  0  0
  134.2223  123.3384   61.6635 H   0  0  0  0  0  0  0  0  0  0  0  0
  133.2888  124.8730   61.6635 H   0  0  0  0  0  0  0  0  0  0  0  0
  133.3930  125.4340   64.1780 H   0  0  0  0  0  0  0  0  0  0  0  0
  132.5000  126.3880   65.2980 H   0  0  0  0  0  0  0  0  0  0  0  0
  128.2852  127.2751   68.4168 H   0  0  0  0  0  0  0  0  0  0  0  0
  127.7937  128.1007   70.7095 H   0  0  0  0  0  0  0  0  0  0  0  0
  1  2  1  0
  2  3  1  0
  3  4  2  0
  3  5  1  0
  5  6  2  0
  6  7  1  0
  7  8  2  0
  8  9  1  0
  9 10  1  0
 10 11  2  0
 10 12  1  0
 12 13  1  0
 13 14  1  0
 14 15  2  0
 15 16  1  0
 16 17  1  0
 16 18  2  0
 18 19  1  0
 19 20  1  0
 19 21  2  0
 21 22  1  0
 22 23  1  0
  8 24  1  0
 24 25  2  0
 25  5  1  0
 22 12  2  0
 21 14  1  0
  1 26  1  0
  1 27  1  0
  1 28  1  0
  6 29  1  0
  7 30  1  0
  9 31  1  0
 17 32  1  0
 17 33  1  0
 17 34  1  0
 18 35  1  0
 20 36  1  0
 20 37  1  0
 20 38  1  0
 23 39  1  0
 23 40  1  0
 24 41  1  0
 25 42  1  0
M  END
>  <Binding energies>  (1) 
[-7.24]

>  <Ligand effiencies>  (1) 
[-0.25857142857142856]

>  <Interactions>  (1) 
["V-B:ALA:541:CB:9864, V-A:LEU:475:CD1:4258, V-B:GLU:543:C:9874, V-B:GLU:543:CB:9878, H-A:LYS:547:NZ:4951, V-B:HIS:456:CE1:9040, H-B:LYS:547:NZ:9923, V-A:HIS:456:CE1:4069, V-A:HIS:456:CG:4066, V-A:HIS:456:CD2:4068, H-A:HIS:456:NE2:4070, V-B:GLU:543:CG:9879, V-A:TYR:484:CE1:4345, V-B:GLU:543:CA:9876, V-A:TYR:484:CZ:4347, H-A:TYR:484:OH:4348, V-B:LYS:547:CE:9922, H-A:GLU:543:OE2:4910, V-A:ARG:545:CZ:4926, H-B:GLU:543:O:9875, V-B:LYS:547:CD:9921"]

$$$$
4ac_Grossjean_2025
     RDKit          3D

 40 42  0  0  0  0  0  0  0  0999 V2000
  132.3250  132.2700   54.9950 C   0  0  0  0  0  0  0  0  0  0  0  0
  131.2080  132.9960   55.4980 O   0  0  0  0  0  0  0  0  0  0  0  0
  130.6260  132.6000   56.6860 C   0  0  0  0  0  0  0  0  0  0  0  0
  129.2980  132.9780   56.8850 C   0  0  0  0  0  0  0  0  0  0  0  0
  128.6280  132.6230   58.0520 C   0  0  0  0  0  0  0  0  0  0  0  0
  129.2770  131.8750   59.0350 C   0  0  0  0  0  0  0  0  0  0  0  0
  128.5240  131.5750   60.1860 N   0  0  0  0  0  0  0  0  0  0  0  0
  127.9060  132.4160   61.0500 C   0  0  0  0  0  0  0  0  0  0  0  0
  127.9470  133.6450   60.9630 O   0  0  0  0  0  0  0  0  0  0  0  0
  127.1680  131.7690   62.1370 C   0  0  0  0  0  0  0  0  0  0  0  0
  125.4270  132.0050   62.2980 S   0  0  0  0  0  0  0  0  0  0  0  0
  125.3710  130.9830   63.7160 C   0  0  0  0  0  0  0  0  0  0  0  0
  124.2330  130.7390   64.3660 N   0  0  0  0  0  0  0  0  0  0  0  0
  124.3270  129.9310   65.4500 C   0  0  0  0  0  0  0  0  0  0  0  0
  123.0210  129.6660   66.1750 C   0  0  0  0  0  0  0  0  0  0  0  0
  125.5220  129.3690   65.8960 C   0  0  0  0  0  0  0  0  0  0  0  0
  126.7150  129.6270   65.2110 C   0  0  0  0  0  0  0  0  0  0  0  0
  127.9930  128.9910   65.7360 C   0  0  0  0  0  0  0  0  0  0  0  0
  126.6540  130.4690   64.0680 C   0  0  0  0  0  0  0  0  0  0  0  0
  127.6610  130.9310   63.1500 C   0  0  0  0  0  0  0  0  0  0  0  0
  128.9800  130.5750   63.2710 N   0  0  0  0  0  0  0  0  0  0  0  0
  130.6160  131.5020   58.8490 C   0  0  0  0  0  0  0  0  0  0  0  0
  131.2830  131.8590   57.6800 C   0  0  0  0  0  0  0  0  0  0  0  0
  132.9198  131.8834   55.8357 H   0  0  0  0  0  0  0  0  0  0  0  0
  131.9696  131.4298   54.3804 H   0  0  0  0  0  0  0  0  0  0  0  0
  132.9485  132.9359   54.3804 H   0  0  0  0  0  0  0  0  0  0  0  0
  128.7758  133.5618   56.1127 H   0  0  0  0  0  0  0  0  0  0  0  0
  127.5831  132.9332   58.2000 H   0  0  0  0  0  0  0  0  0  0  0  0
  128.4700  130.5910   60.4070 H   0  0  0  0  0  0  0  0  0  0  0  0
  123.1911  129.7005   67.2612 H   0  0  0  0  0  0  0  0  0  0  0  0
  122.2839  130.4329   65.8947 H   0  0  0  0  0  0  0  0  0  0  0  0
  122.6411  128.6725   65.8947 H   0  0  0  0  0  0  0  0  0  0  0  0
  125.5275  128.7228   66.7862 H   0  0  0  0  0  0  0  0  0  0  0  0
  127.9806  128.9972   66.8359 H   0  0  0  0  0  0  0  0  0  0  0  0
  128.0612  127.9539   65.3759 H   0  0  0  0  0  0  0  0  0  0  0  0
  128.8615  129.5620   65.3759 H   0  0  0  0  0  0  0  0  0  0  0  0
  129.3440  129.7260   62.8630 H   0  0  0  0  0  0  0  0  0  0  0  0
  129.6360  131.1560   63.7760 H   0  0  0  0  0  0  0  0  0  0  0  0
  131.1397  130.9271   59.6270 H   0  0  0  0  0  0  0  0  0  0  0  0
  132.3311  131.5583   57.5349 H   0  0  0  0  0  0  0  0  0  0  0  0
  1  2  1  0
  2  3  1  0
  3  4  2  0
  4  5  1  0
  5  6  2  0
  6  7  1  0
  7  8  1  0
  8  9  2  0
  8 10  1  0
 10 11  1  0
 11 12  1  0
 12 13  2  0
 13 14  1  0
 14 15  1  0
 14 16  2  0
 16 17  1  0
 17 18  1  0
 17 19  2  0
 19 20  1  0
 20 21  1  0
  6 22  1  0
 22 23  2  0
 23  3  1  0
 20 10  2  0
 19 12  1  0
  1 24  1  0
  1 25  1  0
  1 26  1  0
  4 27  1  0
  5 28  1  0
  7 29  1  0
 15 30  1  0
 15 31  1  0
 15 32  1  0
 16 33  1  0
 18 34  1  0
 18 35  1  0
 18 36  1  0
 21 37  1  0
 21 38  1  0
 22 39  1  0
 23 40  1  0
M  END
>  <Binding energies>  (1) 
[-7.3]

>  <Ligand effiencies>  (1) 
[-0.28076923076923077]

>  <Interactions>  (1) 
["V-A:PRO:540:CD:4887, V-A:PRO:540:N:4884, V-A:TYR:539:C:4867, V-A:TYR:531:CE2:4793, V-A:ILE:538:CD1:4865, V-A:LEU:363:CD1:3189, V-A:GLU:543:CD:4908, V-A:TYR:539:CE2:4876, V-A:PRO:540:CB:4885, V-A:PRO:540:CA:4883, V-A:TYR:539:CD2:4874, V-A:ILE:538:CG2:4863, V-B:LEU:475:CD1:9229, V-B:ARG:545:CG:9894, H-B:TYR:484:OH:9319, V-A:GLU:543:CB:4906, H-B:GLY:454:N:9021, V-B:GLY:453:C:9013, V-B:GLY:453:CA:9015, V-B:ARG:545:CD:9895, V-B:ARG:545:CZ:9898, V-B:GLY:454:CA:9020, H-A:GLU:543:OE1:4909, V-A:TYR:539:CE1:4875, V-A:TYR:539:CD1:4873, V-A:TYR:539:CZ:4877, H-A:TYR:539:N:4870, V-A:TYR:539:CG:4872, V-A:TYR:539:CA:4869, V-A:TYR:539:CB:4871"]

$$$$
4ad_Grossjean_2025
     RDKit          3D

 36 38  0  0  0  0  0  0  0  0999 V2000
  130.2920  132.6270   55.6500 C   0  0  0  0  0  0  0  0  0  0  0  0
  130.0980  132.2820   57.1140 C   0  0  0  0  0  0  0  0  0  0  0  0
  131.1400  131.7500   57.8710 C   0  0  0  0  0  0  0  0  0  0  0  0
  130.9370  131.4360   59.2200 C   0  0  0  0  0  0  0  0  0  0  0  0
  132.1030  130.8550   60.0040 C   0  0  0  0  0  0  0  0  0  0  0  0
  129.6500  131.6810   59.7710 C   0  0  0  0  0  0  0  0  0  0  0  0
  129.1040  131.4830   61.0870 C   0  0  0  0  0  0  0  0  0  0  0  0
  129.8510  130.9720   62.1190 N   0  0  0  0  0  0  0  0  0  0  0  0
  127.7570  131.8590   61.2090 C   0  0  0  0  0  0  0  0  0  0  0  0
  126.8920  131.7790   62.3880 C   0  0  0  0  0  0  0  0  0  0  0  0
  126.3370  132.7880   62.8290 O   0  0  0  0  0  0  0  0  0  0  0  0
  126.7520  130.5420   62.9230 N   0  0  0  0  0  0  0  0  0  0  0  0
  126.0360  130.1360   64.0660 C   0  0  0  0  0  0  0  0  0  0  0  0
  126.7620  129.4130   65.0170 C   0  0  0  0  0  0  0  0  0  0  0  0
  126.1450  128.9760   66.1870 C   0  0  0  0  0  0  0  0  0  0  0  0
  124.8030  129.2690   66.4100 C   0  0  0  0  0  0  0  0  0  0  0  0
  124.0720  130.0000   65.4760 C   0  0  0  0  0  0  0  0  0  0  0  0
  124.6860  130.4380   64.3060 C   0  0  0  0  0  0  0  0  0  0  0  0
  127.1280  132.4780   59.6810 S   0  0  0  0  0  0  0  0  0  0  0  0
  128.6680  132.2280   58.8910 C   0  0  0  0  0  0  0  0  0  0  0  0
  128.8590  132.5280   57.6050 N   0  0  0  0  0  0  0  0  0  0  0  0
  130.8296  133.5831   55.5667 H   0  0  0  0  0  0  0  0  0  0  0  0
  130.8764  131.8339   55.1607 H   0  0  0  0  0  0  0  0  0  0  0  0
  129.3107  132.7143   55.1607 H   0  0  0  0  0  0  0  0  0  0  0  0
  132.1227  131.5767   57.4082 H   0  0  0  0  0  0  0  0  0  0  0  0
  131.9056  130.9534   61.0817 H   0  0  0  0  0  0  0  0  0  0  0  0
  132.2229  129.7918   59.7488 H   0  0  0  0  0  0  0  0  0  0  0  0
  133.0241  131.3995   59.7488 H   0  0  0  0  0  0  0  0  0  0  0  0
  130.1420  131.5400   62.9010 H   0  0  0  0  0  0  0  0  0  0  0  0
  130.1330  130.0010   62.1320 H   0  0  0  0  0  0  0  0  0  0  0  0
  127.2110  129.7900   62.4300 H   0  0  0  0  0  0  0  0  0  0  0  0
  127.8243  129.1884   64.8408 H   0  0  0  0  0  0  0  0  0  0  0  0
  126.7161  128.4018   66.9314 H   0  0  0  0  0  0  0  0  0  0  0  0
  124.3149  128.9203   67.3321 H   0  0  0  0  0  0  0  0  0  0  0  0
  123.0127  130.2304   65.6626 H   0  0  0  0  0  0  0  0  0  0  0  0
  124.1135  131.0208   63.5694 H   0  0  0  0  0  0  0  0  0  0  0  0
  1  2  1  0
  2  3  2  0
  3  4  1  0
  4  5  1  0
  4  6  2  0
  6  7  1  0
  7  8  1  0
  7  9  2  0
  9 10  1  0
 10 11  2  0
 10 12  1  0
 12 13  1  0
 13 14  2  0
 14 15  1  0
 15 16  2  0
 16 17  1  0
 17 18  2  0
  9 19  1  0
 19 20  1  0
 20 21  2  0
 21  2  1  0
 20  6  1  0
 18 13  1  0
  1 22  1  0
  1 23  1  0
  1 24  1  0
  3 25  1  0
  5 26  1  0
  5 27  1  0
  5 28  1  0
  8 29  1  0
  8 30  1  0
 12 31  1  0
 14 32  1  0
 15 33  1  0
 16 34  1  0
 17 35  1  0
 18 36  1  0
M  END
>  <Binding energies>  (1) 
[-6.56]

>  <Ligand effiencies>  (1) 
[-0.2733333333333333]

>  <Interactions>  (1) 
["V-A:PRO:540:N:4884, V-A:TYR:539:C:4867, V-A:GLU:543:CD:4908, V-A:TYR:539:CE2:4876, V-A:PRO:540:CB:4885, V-A:PRO:540:CA:4883, V-A:TYR:539:CD2:4874, V-B:HIS:456:CE1:9040, V-B:ARG:545:CG:9894, V-B:ARG:545:CD:9895, V-B:ARG:545:CZ:9898, V-B:GLY:454:CA:9020, H-A:GLU:543:OE1:4909, V-A:TYR:539:CE1:4875, V-A:TYR:539:CD1:4873, V-A:TYR:539:CZ:4877"]

$$$$
4ae_Grossjean_2025
     RDKit          3D

 38 40  0  0  0  0  0  0  0  0999 V2000
  128.2310  119.9200   72.9400 C   0  0  0  0  0  0  0  0  0  0  0  0
  129.2780  120.9970   72.7360 C   0  0  0  0  0  0  0  0  0  0  0  0
  130.4520  121.0290   73.4930 C   0  0  0  0  0  0  0  0  0  0  0  0
  131.3670  122.0550   73.2570 C   0  0  0  0  0  0  0  0  0  0  0  0
  131.0890  123.0150   72.2810 C   0  0  0  0  0  0  0  0  0  0  0  0
  129.8980  122.9200   71.5530 C   0  0  0  0  0  0  0  0  0  0  0  0
  129.6660  123.9270   70.6000 N   0  0  0  0  0  0  0  0  0  0  0  0
  129.5340  125.2640   70.7930 C   0  0  0  0  0  0  0  0  0  0  0  0
  129.5980  125.8070   71.8970 O   0  0  0  0  0  0  0  0  0  0  0  0
  129.3000  126.0520   69.5810 C   0  0  0  0  0  0  0  0  0  0  0  0
  128.8000  127.7400   69.6990 S   0  0  0  0  0  0  0  0  0  0  0  0
  128.7130  127.8860   67.9590 C   0  0  0  0  0  0  0  0  0  0  0  0
  128.3540  129.0230   67.3630 N   0  0  0  0  0  0  0  0  0  0  0  0
  128.3210  129.0020   66.0090 C   0  0  0  0  0  0  0  0  0  0  0  0
  127.9040  130.3050   65.3520 C   0  0  0  0  0  0  0  0  0  0  0  0
  128.6380  127.8810   65.2430 C   0  0  0  0  0  0  0  0  0  0  0  0
  129.0150  126.6880   65.8720 C   0  0  0  0  0  0  0  0  0  0  0  0
  129.3470  125.4910   64.9940 C   0  0  0  0  0  0  0  0  0  0  0  0
  129.0590  126.6720   67.2930 C   0  0  0  0  0  0  0  0  0  0  0  0
  129.3920  125.6420   68.2410 C   0  0  0  0  0  0  0  0  0  0  0  0
  129.7620  124.3800   67.8520 N   0  0  0  0  0  0  0  0  0  0  0  0
  128.9950  121.9230   71.7840 N   0  0  0  0  0  0  0  0  0  0  0  0
  128.0750  119.7596   74.0170 H   0  0  0  0  0  0  0  0  0  0  0  0
  127.2851  120.2355   72.4755 H   0  0  0  0  0  0  0  0  0  0  0  0
  128.5731  118.9834   72.4755 H   0  0  0  0  0  0  0  0  0  0  0  0
  130.6500  120.2630   74.2572 H   0  0  0  0  0  0  0  0  0  0  0  0
  132.3011  122.1078   73.8355 H   0  0  0  0  0  0  0  0  0  0  0  0
  131.7968  123.8345   72.0875 H   0  0  0  0  0  0  0  0  0  0  0  0
  129.5320  123.5930   69.6570 H   0  0  0  0  0  0  0  0  0  0  0  0
  127.6664  131.0474   66.1282 H   0  0  0  0  0  0  0  0  0  0  0  0
  128.7271  130.6798   64.7258 H   0  0  0  0  0  0  0  0  0  0  0  0
  127.0163  130.1323   64.7258 H   0  0  0  0  0  0  0  0  0  0  0  0
  128.5920  127.9337   64.1452 H   0  0  0  0  0  0  0  0  0  0  0  0
  129.5870  124.6256   65.6293 H   0  0  0  0  0  0  0  0  0  0  0  0
  128.4816  125.2508   64.3589 H   0  0  0  0  0  0  0  0  0  0  0  0
  130.2125  125.7309   64.3589 H   0  0  0  0  0  0  0  0  0  0  0  0
  129.1170  123.6020   67.8810 H   0  0  0  0  0  0  0  0  0  0  0  0
  130.6970  124.1850   67.5220 H   0  0  0  0  0  0  0  0  0  0  0  0
  1  2  1  0
  2  3  2  0
  3  4  1  0
  4  5  2  0
  5  6  1  0
  6  7  1  0
  7  8  1  0
  8  9  2  0
  8 10  1  0
 10 11  1  0
 11 12  1  0
 12 13  2  0
 13 14  1  0
 14 15  1  0
 14 16  2  0
 16 17  1  0
 17 18  1  0
 17 19  2  0
 19 20  1  0
 20 21  1  0
  6 22  2  0
 22  2  1  0
 20 10  2  0
 19 12  1  0
  1 23  1  0
  1 24  1  0
  1 25  1  0
  3 26  1  0
  4 27  1  0
  5 28  1  0
  7 29  1  0
 15 30  1  0
 15 31  1  0
 15 32  1  0
 16 33  1  0
 18 34  1  0
 18 35  1  0
 18 36  1  0
 21 37  1  0
 21 38  1  0
M  END
>  <Binding energies>  (1) 
[-7.47]

>  <Ligand effiencies>  (1) 
[-0.2988]

>  <Interactions>  (1) 
["V-B:GLU:543:CD:9880, V-A:GLU:543:CD:4908, V-B:GLU:543:C:9874, V-B:GLU:543:CB:9878, V-B:HIS:456:CE1:9040, H-B:LYS:547:NZ:9923, V-A:HIS:456:CE1:4069, V-A:ASP:473:CG:4240, V-A:HIS:456:CG:4066, V-A:HIS:456:CD2:4068, V-A:ASP:473:CB:4239, V-A:HIS:456:CB:4065, V-A:GLU:543:CB:4906, H-B:HIS:456:NE2:9041, H-A:HIS:456:NE2:4070, V-B:GLU:543:CG:9879, V-A:TYR:484:CE1:4345, V-B:GLU:543:CA:9876, V-A:TYR:484:CZ:4347, H-A:TYR:484:OH:4348, V-B:LYS:547:CE:9922, H-A:HIS:456:ND1:4067, V-A:GLU:543:CG:4907, H-B:GLU:543:O:9875, V-A:TYR:484:CD2:4344, V-A:TYR:484:CG:4342, V-A:TYR:484:CE2:4346, V-A:TYR:484:CB:4341, V-A:TYR:484:CD1:4343"]

$$$$
4af_Grossjean_2025
     RDKit          3D

 35 37  0  0  0  0  0  0  0  0999 V2000
  128.1050  130.1280   64.4110 C   0  0  0  0  0  0  0  0  0  0  0  0
  128.4680  128.8800   65.1950 C   0  0  0  0  0  0  0  0  0  0  0  0
  128.7190  127.6730   64.5450 C   0  0  0  0  0  0  0  0  0  0  0  0
  129.0500  126.5340   65.2890 C   0  0  0  0  0  0  0  0  0  0  0  0
  129.3140  125.2400   64.5360 C   0  0  0  0  0  0  0  0  0  0  0  0
  129.1140  126.6600   66.7030 C   0  0  0  0  0  0  0  0  0  0  0  0
  129.4130  125.7180   67.7490 C   0  0  0  0  0  0  0  0  0  0  0  0
  129.7170  124.4060   67.4860 N   0  0  0  0  0  0  0  0  0  0  0  0
  129.3650  126.2650   69.0400 C   0  0  0  0  0  0  0  0  0  0  0  0
  129.5830  125.5940   70.3230 C   0  0  0  0  0  0  0  0  0  0  0  0
  129.5760  126.2340   71.3750 O   0  0  0  0  0  0  0  0  0  0  0  0
  129.7700  124.2530   70.2510 N   0  0  0  0  0  0  0  0  0  0  0  0
  130.0480  123.3320   71.2790 C   0  0  0  0  0  0  0  0  0  0  0  0
  131.2030  123.3280   72.0810 C   0  0  0  0  0  0  0  0  0  0  0  0
  131.3640  122.3430   73.0560 C   0  0  0  0  0  0  0  0  0  0  0  0
  130.3650  121.3790   73.2050 C   0  0  0  0  0  0  0  0  0  0  0  0
  129.2460  121.3560   72.4390 N   0  0  0  0  0  0  0  0  0  0  0  0
  129.1040  122.3200   71.4950 C   0  0  0  0  0  0  0  0  0  0  0  0
  128.9400  127.9780   68.9910 S   0  0  0  0  0  0  0  0  0  0  0  0
  128.8340  127.9500   67.2460 C   0  0  0  0  0  0  0  0  0  0  0  0
  128.5200  129.0380   66.5400 N   0  0  0  0  0  0  0  0  0  0  0  0
  127.8677  130.9438   65.1097 H   0  0  0  0  0  0  0  0  0  0  0  0
  128.9545  130.4231   63.7776 H   0  0  0  0  0  0  0  0  0  0  0  0
  127.2297  129.9215   63.7776 H   0  0  0  0  0  0  0  0  0  0  0  0
  128.6571  127.6152   63.4483 H   0  0  0  0  0  0  0  0  0  0  0  0
  129.4804  124.4246   65.2553 H   0  0  0  0  0  0  0  0  0  0  0  0
  128.4463  125.0000   63.9039 H   0  0  0  0  0  0  0  0  0  0  0  0
  130.2063  125.3591   63.9039 H   0  0  0  0  0  0  0  0  0  0  0  0
  129.0500  123.6630   67.6380 H   0  0  0  0  0  0  0  0  0  0  0  0
  130.6240  124.1400   67.1260 H   0  0  0  0  0  0  0  0  0  0  0  0
  129.6950  123.8420   69.3320 H   0  0  0  0  0  0  0  0  0  0  0  0
  131.9760  124.0979   71.9404 H   0  0  0  0  0  0  0  0  0  0  0  0
  132.2597  122.3263   73.6943 H   0  0  0  0  0  0  0  0  0  0  0  0
  130.4909  120.6052   73.9766 H   0  0  0  0  0  0  0  0  0  0  0  0
  128.2011  122.3061   70.8669 H   0  0  0  0  0  0  0  0  0  0  0  0
  1  2  1  0
  2  3  2  0
  3  4  1  0
  4  5  1  0
  4  6  2  0
  6  7  1  0
  7  8  1  0
  7  9  2  0
  9 10  1  0
 10 11  2  0
 10 12  1  0
 12 13  1  0
 13 14  2  0
 14 15  1  0
 15 16  2  0
 16 17  1  0
 17 18  2  0
  9 19  1  0
 19 20  1  0
 20 21  2  0
 21  2  1  0
 20  6  1  0
 18 13  1  0
  1 22  1  0
  1 23  1  0
  1 24  1  0
  3 25  1  0
  5 26  1  0
  5 27  1  0
  5 28  1  0
  8 29  1  0
  8 30  1  0
 12 31  1  0
 14 32  1  0
 15 33  1  0
 16 34  1  0
 18 35  1  0
M  END
>  <Binding energies>  (1) 
[-6.91]

>  <Ligand effiencies>  (1) 
[-0.28791666666666665]

>  <Interactions>  (1) 
["V-B:GLU:543:CD:9880, V-A:GLU:543:CD:4908, V-B:GLU:543:C:9874, V-B:GLU:543:CB:9878, V-B:HIS:456:CE1:9040, H-B:LYS:547:NZ:9923, V-A:HIS:456:CE1:4069, V-A:ASP:473:CG:4240, V-A:HIS:456:CG:4066, V-A:HIS:456:CD2:4068, V-A:ASP:473:CB:4239, V-A:HIS:456:CB:4065, V-A:GLU:543:CB:4906, H-A:HIS:456:NE2:4070, V-B:GLU:543:CG:9879, V-A:TYR:484:CE1:4345, V-B:GLU:543:CA:9876, V-A:TYR:484:CZ:4347, H-A:TYR:484:OH:4348, V-B:LYS:547:CE:9922, V-B:GLY:544:CA:9886, H-B:GLU:543:O:9875, V-A:TYR:484:CD2:4344, V-A:TYR:484:CG:4342, V-A:TYR:484:CE2:4346, V-A:TYR:484:CB:4341, V-A:TYR:484:CD1:4343"]

$$$$
4ag_Grossjean_2025
     RDKit          3D

 39 41  0  0  0  0  0  0  0  0999 V2000
  133.2900  126.0190   75.7410 C   0  0  0  0  0  0  0  0  0  0  0  0
  132.2680  125.6260   74.6900 C   0  0  0  0  0  0  0  0  0  0  0  0
  132.2070  124.3220   74.2020 C   0  0  0  0  0  0  0  0  0  0  0  0
  131.2570  123.9810   73.2330 C   0  0  0  0  0  0  0  0  0  0  0  0
  131.2290  122.5450   72.7320 C   0  0  0  0  0  0  0  0  0  0  0  0
  130.3780  125.0000   72.7790 C   0  0  0  0  0  0  0  0  0  0  0  0
  129.3090  125.0000   71.8170 C   0  0  0  0  0  0  0  0  0  0  0  0
  128.9480  123.8740   71.1200 N   0  0  0  0  0  0  0  0  0  0  0  0
  128.6840  126.2460   71.6610 C   0  0  0  0  0  0  0  0  0  0  0  0
  127.5670  126.5990   70.7850 C   0  0  0  0  0  0  0  0  0  0  0  0
  126.6830  127.3760   71.1530 O   0  0  0  0  0  0  0  0  0  0  0  0
  127.5560  126.0120   69.5700 N   0  0  0  0  0  0  0  0  0  0  0  0
  126.5550  126.2370   68.5280 C   0  0  0  0  0  0  0  0  0  0  0  0
  126.8800  127.4000   67.5980 C   0  0  0  0  0  0  0  0  0  0  0  0
  125.8440  128.1250   67.0020 C   0  0  0  0  0  0  0  0  0  0  0  0
  126.1380  129.2040   66.1720 C   0  0  0  0  0  0  0  0  0  0  0  0
  127.4660  129.5610   65.9490 C   0  0  0  0  0  0  0  0  0  0  0  0
  128.5030  128.8530   66.5520 C   0  0  0  0  0  0  0  0  0  0  0  0
  128.2090  127.7750   67.3830 C   0  0  0  0  0  0  0  0  0  0  0  0
  129.4020  127.4600   72.7200 S   0  0  0  0  0  0  0  0  0  0  0  0
  130.5410  126.2950   73.3570 C   0  0  0  0  0  0  0  0  0  0  0  0
  131.4450  126.6230   74.2820 N   0  0  0  0  0  0  0  0  0  0  0  0
  132.8666  125.8562   76.7431 H   0  0  0  0  0  0  0  0  0  0  0  0
  134.1944  125.4045   75.6208 H   0  0  0  0  0  0  0  0  0  0  0  0
  133.5497  127.0811   75.6208 H   0  0  0  0  0  0  0  0  0  0  0  0
  132.9059  123.5607   74.5787 H   0  0  0  0  0  0  0  0  0  0  0  0
  131.2156  121.8574   73.5905 H   0  0  0  0  0  0  0  0  0  0  0  0
  130.3276  122.3871   72.1216 H   0  0  0  0  0  0  0  0  0  0  0  0
  132.1236  122.3521   72.1216 H   0  0  0  0  0  0  0  0  0  0  0  0
  128.0080  123.7380   70.7770 H   0  0  0  0  0  0  0  0  0  0  0  0
  129.6170  123.1410   70.9240 H   0  0  0  0  0  0  0  0  0  0  0  0
  128.3410  125.4310   69.3140 H   0  0  0  0  0  0  0  0  0  0  0  0
  126.4739  125.3221   67.9227 H   0  0  0  0  0  0  0  0  0  0  0  0
  125.6146  126.4910   69.0391 H   0  0  0  0  0  0  0  0  0  0  0  0
  124.7971  127.8434   67.1885 H   0  0  0  0  0  0  0  0  0  0  0  0
  125.3255  129.7716   65.6948 H   0  0  0  0  0  0  0  0  0  0  0  0
  127.6980  130.4106   65.2900 H   0  0  0  0  0  0  0  0  0  0  0  0
  129.5486  129.1439   66.3727 H   0  0  0  0  0  0  0  0  0  0  0  0
  129.0231  127.2184   67.8704 H   0  0  0  0  0  0  0  0  0  0  0  0
  1  2  1  0
  2  3  2  0
  3  4  1  0
  4  5  1  0
  4  6  2  0
  6  7  1  0
  7  8  1  0
  7  9  2  0
  9 10  1  0
 10 11  2  0
 10 12  1  0
 12 13  1  0
 13 14  1  0
 14 15  2  0
 15 16  1  0
 16 17  2  0
 17 18  1  0
 18 19  2  0
  9 20  1  0
 20 21  1  0
 21 22  2  0
 22  2  1  0
 21  6  1  0
 19 14  1  0
  1 23  1  0
  1 24  1  0
  1 25  1  0
  3 26  1  0
  5 27  1  0
  5 28  1  0
  5 29  1  0
  8 30  1  0
  8 31  1  0
 12 32  1  0
 13 33  1  0
 13 34  1  0
 15 35  1  0
 16 36  1  0
 17 37  1  0
 18 38  1  0
 19 39  1  0
M  END
>  <Binding energies>  (1) 
[-7.29]

>  <Ligand effiencies>  (1) 
[-0.2916]

>  <Interactions>  (1) 
["V-A:GLU:543:CD:4908, V-B:GLU:543:C:9874, V-B:GLU:543:CB:9878, V-B:GLY:544:C:9884, V-B:ARG:545:CA:9891, H-A:LYS:547:NZ:4951, V-B:HIS:456:CE1:9040, V-B:ARG:545:CG:9894, V-A:HIS:456:CG:4066, V-A:HIS:456:CD2:4068, V-A:ASP:473:CB:4239, V-A:HIS:456:CB:4065, V-A:GLU:543:CB:4906, H-B:HIS:456:NE2:9041, V-B:ARG:545:CD:9895, V-B:GLY:544:CA:9886, V-A:GLU:543:CG:4907, H-B:GLU:543:O:9875, V-A:LYS:547:CD:4949, V-A:TYR:484:CD2:4344, V-A:VAL:458:CG2:4087, H-B:GLY:544:O:9885, V-A:TYR:484:CG:4342, V-A:TYR:484:CE2:4346"]

$$$$
4ah_Grossjean_2025
     RDKit          3D

 51 53  0  0  0  0  0  0  0  0999 V2000
  131.6330  122.1670   72.6280 C   0  0  0  0  0  0  0  0  0  0  0  0
  130.3270  122.7310   72.6320 O   0  0  0  0  0  0  0  0  0  0  0  0
  130.1810  124.1070   72.6370 C   0  0  0  0  0  0  0  0  0  0  0  0
  129.3050  124.8060   71.7920 C   0  0  0  0  0  0  0  0  0  0  0  0
  129.2110  126.1970   71.8520 C   0  0  0  0  0  0  0  0  0  0  0  0
  128.2200  126.9350   70.9590 C   0  0  0  0  0  0  0  0  0  0  0  0
  128.3980  126.6570   69.5330 N   0  0  0  0  0  0  0  0  0  0  0  0
  129.1520  127.3850   68.6830 C   0  0  0  0  0  0  0  0  0  0  0  0
  129.7490  128.4050   69.0320 O   0  0  0  0  0  0  0  0  0  0  0  0
  129.1890  126.9170   67.2980 C   0  0  0  0  0  0  0  0  0  0  0  0
  128.7300  128.0010   65.9840 S   0  0  0  0  0  0  0  0  0  0  0  0
  128.9910  126.7430   64.7960 C   0  0  0  0  0  0  0  0  0  0  0  0
  128.8030  126.9530   63.4930 N   0  0  0  0  0  0  0  0  0  0  0  0
  129.0420  125.8970   62.6790 C   0  0  0  0  0  0  0  0  0  0  0  0
  128.8200  126.1560   61.2010 C   0  0  0  0  0  0  0  0  0  0  0  0
  129.4610  124.6480   63.1330 C   0  0  0  0  0  0  0  0  0  0  0  0
  129.6560  124.4290   64.5020 C   0  0  0  0  0  0  0  0  0  0  0  0
  130.1130  123.0500   64.9490 C   0  0  0  0  0  0  0  0  0  0  0  0
  129.4130  125.5140   65.3880 C   0  0  0  0  0  0  0  0  0  0  0  0
  129.5060  125.6380   66.8180 C   0  0  0  0  0  0  0  0  0  0  0  0
  129.8810  124.5930   67.6220 N   0  0  0  0  0  0  0  0  0  0  0  0
  129.9770  126.8990   72.7830 C   0  0  0  0  0  0  0  0  0  0  0  0
  130.8660  126.2270   73.6380 C   0  0  0  0  0  0  0  0  0  0  0  0
  131.6660  126.8600   74.5720 O   0  0  0  0  0  0  0  0  0  0  0  0
  133.0730  126.6490   74.5420 C   0  0  0  0  0  0  0  0  0  0  0  0
  130.9630  124.8310   73.5500 C   0  0  0  0  0  0  0  0  0  0  0  0
  131.8150  124.1580   74.3930 O   0  0  0  0  0  0  0  0  0  0  0  0
  131.2740  123.9070   75.6820 C   0  0  0  0  0  0  0  0  0  0  0  0
  131.9723  122.0205   73.6641 H   0  0  0  0  0  0  0  0  0  0  0  0
  131.6122  121.1977   72.1084 H   0  0  0  0  0  0  0  0  0  0  0  0
  132.3244  122.8468   72.1084 H   0  0  0  0  0  0  0  0  0  0  0  0
  128.6847  124.2503   71.0734 H   0  0  0  0  0  0  0  0  0  0  0  0
  127.2017  126.6354   71.2474 H   0  0  0  0  0  0  0  0  0  0  0  0
  128.3953  128.0114   71.1026 H   0  0  0  0  0  0  0  0  0  0  0  0
  128.0050  125.7900   69.1990 H   0  0  0  0  0  0  0  0  0  0  0  0
  128.1087  126.9859   61.0770 H   0  0  0  0  0  0  0  0  0  0  0  0
  129.7771  126.4195   60.7271 H   0  0  0  0  0  0  0  0  0  0  0  0
  128.4132  125.2505   60.7271 H   0  0  0  0  0  0  0  0  0  0  0  0
  129.6387  123.8335   62.4153 H   0  0  0  0  0  0  0  0  0  0  0  0
  130.1273  123.0069   66.0481 H   0  0  0  0  0  0  0  0  0  0  0  0
  129.4187  122.2900   64.5612 H   0  0  0  0  0  0  0  0  0  0  0  0
  131.1238  122.8551   64.5612 H   0  0  0  0  0  0  0  0  0  0  0  0
  129.2070  124.0490   68.1400 H   0  0  0  0  0  0  0  0  0  0  0  0
  130.8530  124.3350   67.7270 H   0  0  0  0  0  0  0  0  0  0  0  0
  129.8835  127.9931   72.8483 H   0  0  0  0  0  0  0  0  0  0  0  0
  133.4571  126.5914   75.5711 H   0  0  0  0  0  0  0  0  0  0  0  0
  133.2915  125.7080   74.0158 H   0  0  0  0  0  0  0  0  0  0  0  0
  133.5579  127.4845   74.0158 H   0  0  0  0  0  0  0  0  0  0  0  0
  131.9881  124.2383   76.4503 H   0  0  0  0  0  0  0  0  0  0  0  0
  130.3294  124.4589   75.7970 H   0  0  0  0  0  0  0  0  0  0  0  0
  131.0854  122.8294   75.7970 H   0  0  0  0  0  0  0  0  0  0  0  0
  1  2  1  0
  2  3  1  0
  3  4  2  0
  4  5  1  0
  5  6  1  0
  6  7  1  0
  7  8  1  0
  8  9  2  0
  8 10  1  0
 10 11  1  0
 11 12  1  0
 12 13  2  0
 13 14  1  0
 14 15  1  0
 14 16  2  0
 16 17  1  0
 17 18  1  0
 17 19  2  0
 19 20  1  0
 20 21  1  0
  5 22  2  0
 22 23  1  0
 23 24  1  0
 24 25  1  0
 23 26  2  0
 26 27  1  0
 27 28  1  0
 26  3  1  0
 20 10  2  0
 19 12  1  0
  1 29  1  0
  1 30  1  0
  1 31  1  0
  4 32  1  0
  6 33  1  0
  6 34  1  0
  7 35  1  0
 15 36  1  0
 15 37  1  0
 15 38  1  0
 16 39  1  0
 18 40  1  0
 18 41  1  0
 18 42  1  0
 21 43  1  0
 21 44  1  0
 22 45  1  0
 25 46  1  0
 25 47  1  0
 25 48  1  0
 28 49  1  0
 28 50  1  0
 28 51  1  0
M  END
>  <Binding energies>  (1) 
[-6.98]

>  <Ligand effiencies>  (1) 
[-0.22516129032258067]

>  <Interactions>  (1) 
["V-B:GLU:543:CD:9880, V-A:GLU:543:CD:4908, V-B:GLU:543:C:9874, V-B:GLU:543:CB:9878, H-A:LYS:547:NZ:4951, V-B:HIS:456:CE1:9040, H-B:LYS:547:NZ:9923, V-A:HIS:456:CE1:4069, V-A:ASP:473:CG:4240, V-A:HIS:456:CG:4066, V-A:HIS:456:CD2:4068, V-A:ASP:473:CB:4239, V-A:HIS:456:CB:4065, V-A:LYS:547:CE:4950, H-B:HIS:456:NE2:9041, H-A:HIS:456:NE2:4070, V-B:GLU:543:CG:9879, V-A:TYR:484:CE1:4345, V-A:TYR:484:CZ:4347, H-A:TYR:484:OH:4348, H-A:HIS:456:ND1:4067, H-B:GLU:543:O:9875, V-A:LYS:547:CD:4949, V-A:TYR:484:CD2:4344, H-B:GLY:544:O:9885, V-A:TYR:484:CG:4342, V-A:TYR:484:CE2:4346, V-A:TYR:484:CB:4341"]

$$$$
4ai_Grossjean_2025
     RDKit          3D

 32 34  0  0  0  0  0  0  0  0999 V2000
  127.8920  130.2620   65.1860 C   0  0  0  0  0  0  0  0  0  0  0  0
  128.3010  128.9660   65.8600 C   0  0  0  0  0  0  0  0  0  0  0  0
  128.6120  127.8340   65.1090 C   0  0  0  0  0  0  0  0  0  0  0  0
  128.9930  126.6500   65.7520 C   0  0  0  0  0  0  0  0  0  0  0  0
  129.3250  125.4430   64.8880 C   0  0  0  0  0  0  0  0  0  0  0  0
  129.0480  126.6550   67.1720 C   0  0  0  0  0  0  0  0  0  0  0  0
  129.3920  125.6410   68.1310 C   0  0  0  0  0  0  0  0  0  0  0  0
  129.7520  124.3700   67.7570 N   0  0  0  0  0  0  0  0  0  0  0  0
  129.3290  126.0720   69.4660 C   0  0  0  0  0  0  0  0  0  0  0  0
  129.6010  125.3080   70.6850 C   0  0  0  0  0  0  0  0  0  0  0  0
  129.7330  125.8790   71.7690 O   0  0  0  0  0  0  0  0  0  0  0  0
  129.6740  123.9630   70.5230 N   0  0  0  0  0  0  0  0  0  0  0  0
  129.9080  123.0060   71.5010 C   0  0  0  0  0  0  0  0  0  0  0  0
  131.0900  122.9440   72.2390 C   0  0  0  0  0  0  0  0  0  0  0  0
  130.9290  121.8720   73.0860 C   0  0  0  0  0  0  0  0  0  0  0  0
  129.7120  121.3170   72.8710 O   0  0  0  0  0  0  0  0  0  0  0  0
  129.0740  122.0450   71.8660 N   0  0  0  0  0  0  0  0  0  0  0  0
  128.8130  127.7570   69.5660 S   0  0  0  0  0  0  0  0  0  0  0  0
  128.7050  127.8780   67.8230 C   0  0  0  0  0  0  0  0  0  0  0  0
  128.3410  129.0070   67.2150 N   0  0  0  0  0  0  0  0  0  0  0  0
  127.6545  131.0147   65.9522 H   0  0  0  0  0  0  0  0  0  0  0  0
  128.7190  130.6258   64.5585 H   0  0  0  0  0  0  0  0  0  0  0  0
  127.0060  130.0852   64.5585 H   0  0  0  0  0  0  0  0  0  0  0  0
  128.5581  127.8707   64.0109 H   0  0  0  0  0  0  0  0  0  0  0  0
  129.5613  124.5840   65.5333 H   0  0  0  0  0  0  0  0  0  0  0  0
  128.4609  125.1978   64.2530 H   0  0  0  0  0  0  0  0  0  0  0  0
  130.1929  125.6742   64.2530 H   0  0  0  0  0  0  0  0  0  0  0  0
  129.1070  123.5960   67.8100 H   0  0  0  0  0  0  0  0  0  0  0  0
  130.6830  124.1670   67.4200 H   0  0  0  0  0  0  0  0  0  0  0  0
  129.5360  123.6040   69.5900 H   0  0  0  0  0  0  0  0  0  0  0  0
  131.9628  123.6089   72.1606 H   0  0  0  0  0  0  0  0  0  0  0  0
  131.6696  121.5217   73.8200 H   0  0  0  0  0  0  0  0  0  0  0  0
  1  2  1  0
  2  3  2  0
  3  4  1  0
  4  5  1  0
  4  6  2  0
  6  7  1  0
  7  8  1  0
  7  9  2  0
  9 10  1  0
 10 11  2  0
 10 12  1  0
 12 13  1  0
 13 14  1  0
 14 15  2  0
 15 16  1  0
 16 17  1  0
  9 18  1  0
 18 19  1  0
 19 20  2  0
 20  2  1  0
 19  6  1  0
 17 13  2  0
  1 21  1  0
  1 22  1  0
  1 23  1  0
  3 24  1  0
  5 25  1  0
  5 26  1  0
  5 27  1  0
  8 28  1  0
  8 29  1  0
 12 30  1  0
 14 31  1  0
 15 32  1  0
M  END
>  <Binding energies>  (1) 
[-7.67]

>  <Ligand effiencies>  (1) 
[-0.3334782608695652]

>  <Interactions>  (1) 
["V-B:GLU:543:CD:9880, V-A:GLU:543:CD:4908, V-B:GLU:543:C:9874, V-B:GLU:543:CB:9878, V-B:HIS:456:CE1:9040, H-B:LYS:547:NZ:9923, V-A:HIS:456:CE1:4069, V-A:ASP:473:CG:4240, V-A:HIS:456:CG:4066, V-A:HIS:456:CD2:4068, V-A:ASP:473:CB:4239, V-A:HIS:456:CB:4065, V-A:GLU:543:CB:4906, H-A:HIS:456:NE2:4070, V-B:GLU:543:CG:9879, V-A:TYR:484:CE1:4345, V-B:GLU:543:CA:9876, V-A:TYR:484:CZ:4347, H-A:TYR:484:OH:4348, H-A:HIS:456:ND1:4067, H-B:GLU:543:O:9875, V-A:TYR:484:CD2:4344, V-A:TYR:484:CG:4342, V-A:TYR:484:CE2:4346, V-A:TYR:484:CB:4341, V-A:TYR:484:CD1:4343"]

$$$$
4aj_Grossjean_2025
     RDKit          3D

 32 34  0  0  0  0  0  0  0  0999 V2000
  128.2030  130.3270   65.3570 C   0  0  0  0  0  0  0  0  0  0  0  0
  128.5430  129.0170   66.0420 C   0  0  0  0  0  0  0  0  0  0  0  0
  128.9250  127.8990   65.3040 C   0  0  0  0  0  0  0  0  0  0  0  0
  129.2290  126.6990   65.9570 C   0  0  0  0  0  0  0  0  0  0  0  0
  129.6410  125.5080   65.1060 C   0  0  0  0  0  0  0  0  0  0  0  0
  129.1340  126.6720   67.3740 C   0  0  0  0  0  0  0  0  0  0  0  0
  129.3660  125.6340   68.3420 C   0  0  0  0  0  0  0  0  0  0  0  0
  129.7570  124.3700   67.9800 N   0  0  0  0  0  0  0  0  0  0  0  0
  129.1620  126.0370   69.6700 C   0  0  0  0  0  0  0  0  0  0  0  0
  129.2960  125.2440   70.8940 C   0  0  0  0  0  0  0  0  0  0  0  0
  128.7500  125.6030   71.9400 O   0  0  0  0  0  0  0  0  0  0  0  0
  130.0340  124.1130   70.7770 N   0  0  0  0  0  0  0  0  0  0  0  0
  130.3040  123.1860   71.7740 C   0  0  0  0  0  0  0  0  0  0  0  0
  129.7110  122.0300   71.9840 N   0  0  0  0  0  0  0  0  0  0  0  0
  130.2270  121.4020   73.0230 C   0  0  0  0  0  0  0  0  0  0  0  0
  131.2650  122.0540   73.6830 C   0  0  0  0  0  0  0  0  0  0  0  0
  131.5740  123.5710   72.8900 S   0  0  0  0  0  0  0  0  0  0  0  0
  128.6560  127.7260   69.7530 S   0  0  0  0  0  0  0  0  0  0  0  0
  128.7340  127.8850   68.0130 C   0  0  0  0  0  0  0  0  0  0  0  0
  128.4430  129.0290   67.3940 N   0  0  0  0  0  0  0  0  0  0  0  0
  128.0032  131.0970   66.1167 H   0  0  0  0  0  0  0  0  0  0  0  0
  129.0490  130.6426   64.7288 H   0  0  0  0  0  0  0  0  0  0  0  0
  127.3103  130.1914   64.7288 H   0  0  0  0  0  0  0  0  0  0  0  0
  128.9878  127.9593   64.2075 H   0  0  0  0  0  0  0  0  0  0  0  0
  129.9301  124.6723   65.7603 H   0  0  0  0  0  0  0  0  0  0  0  0
  128.7967  125.2014   64.4711 H   0  0  0  0  0  0  0  0  0  0  0  0
  130.4943  125.7887   64.4711 H   0  0  0  0  0  0  0  0  0  0  0  0
  130.6770  124.1820   67.6070 H   0  0  0  0  0  0  0  0  0  0  0  0
  129.1340  123.5800   68.0740 H   0  0  0  0  0  0  0  0  0  0  0  0
  130.4310  123.9110   69.8700 H   0  0  0  0  0  0  0  0  0  0  0  0
  129.8579  120.4186   73.3495 H   0  0  0  0  0  0  0  0  0  0  0  0
  131.8026  121.6718   74.5633 H   0  0  0  0  0  0  0  0  0  0  0  0
  1  2  1  0
  2  3  2  0
  3  4  1  0
  4  5  1  0
  4  6  2  0
  6  7  1  0
  7  8  1  0
  7  9  2  0
  9 10  1  0
 10 11  2  0
 10 12  1  0
 12 13  1  0
 13 14  2  0
 14 15  1  0
 15 16  2  0
 16 17  1  0
  9 18  1  0
 18 19  1  0
 19 20  2  0
 20  2  1  0
 19  6  1  0
 17 13  1  0
  1 21  1  0
  1 22  1  0
  1 23  1  0
  3 24  1  0
  5 25  1  0
  5 26  1  0
  5 27  1  0
  8 28  1  0
  8 29  1  0
 12 30  1  0
 15 31  1  0
 16 32  1  0
M  END
>  <Binding energies>  (1) 
[-6.56]

>  <Ligand effiencies>  (1) 
[-0.2852173913043478]

>  <Interactions>  (1) 
["V-A:GLU:543:CD:4908, V-B:GLU:543:C:9874, V-B:GLU:543:CB:9878, V-B:HIS:456:CE1:9040, H-B:LYS:547:NZ:9923, V-A:HIS:456:CE1:4069, V-A:ASP:473:CG:4240, V-A:HIS:456:CG:4066, V-A:HIS:456:CD2:4068, V-A:ASP:473:CB:4239, V-A:HIS:456:CB:4065, V-A:GLU:543:CB:4906, H-B:HIS:456:NE2:9041, V-B:GLU:543:CG:9879, V-A:TYR:484:CE1:4345, V-B:GLU:543:CA:9876, V-A:TYR:484:CZ:4347, H-A:TYR:484:OH:4348, H-A:HIS:456:ND1:4067, V-A:GLU:543:CG:4907, H-B:GLU:543:O:9875, V-A:TYR:484:CD2:4344, V-A:TYR:484:CG:4342, V-A:TYR:484:CE2:4346, V-A:TYR:484:CB:4341, V-A:TYR:484:CD1:4343"]

$$$$
4ak_Grossjean_2025
     RDKit          3D

 50 51  0  0  0  0  0  0  0  0999 V2000
  128.2550  130.8850   56.3870 C   0  0  0  0  0  0  0  0  0  0  0  0
  128.6550  131.7540   57.4350 O   0  0  0  0  0  0  0  0  0  0  0  0
  129.3710  132.8960   56.9830 C   0  0  0  0  0  0  0  0  0  0  0  0
  129.8920  132.6430   55.5620 C   0  0  0  0  0  0  0  0  0  0  0  0
  131.1220  133.3320   55.3820 O   0  0  0  0  0  0  0  0  0  0  0  0
  132.2500  132.6380   55.8980 C   0  0  0  0  0  0  0  0  0  0  0  0
  131.9910  131.1280   55.8290 C   0  0  0  0  0  0  0  0  0  0  0  0
  131.4470  130.6870   57.0650 O   0  0  0  0  0  0  0  0  0  0  0  0
  132.4160  130.1720   57.9690 C   0  0  0  0  0  0  0  0  0  0  0  0
  132.1950  130.7930   59.3600 C   0  0  0  0  0  0  0  0  0  0  0  0
  130.8410  131.3060   59.5650 N   0  0  0  0  0  0  0  0  0  0  0  0
  130.3610  131.8000   60.7240 C   0  0  0  0  0  0  0  0  0  0  0  0
  131.0500  131.8850   61.7420 O   0  0  0  0  0  0  0  0  0  0  0  0
  128.9670  132.2420   60.7070 C   0  0  0  0  0  0  0  0  0  0  0  0
  128.5300  133.8320   61.3320 S   0  0  0  0  0  0  0  0  0  0  0  0
  126.8440  133.5690   60.9500 C   0  0  0  0  0  0  0  0  0  0  0  0
  125.9110  134.4860   61.2090 N   0  0  0  0  0  0  0  0  0  0  0  0
  124.6410  134.1560   60.8660 C   0  0  0  0  0  0  0  0  0  0  0  0
  123.5940  135.2130   61.1670 C   0  0  0  0  0  0  0  0  0  0  0  0
  124.2880  132.9450   60.2750 C   0  0  0  0  0  0  0  0  0  0  0  0
  125.2700  131.9840   60.0050 C   0  0  0  0  0  0  0  0  0  0  0  0
  124.8350  130.6760   59.3640 C   0  0  0  0  0  0  0  0  0  0  0  0
  126.6120  132.2940   60.3520 C   0  0  0  0  0  0  0  0  0  0  0  0
  127.8420  131.5600   60.2200 C   0  0  0  0  0  0  0  0  0  0  0  0
  127.8910  130.3050   59.6670 N   0  0  0  0  0  0  0  0  0  0  0  0
  127.8314  129.9647   56.8154 H   0  0  0  0  0  0  0  0  0  0  0  0
  127.4959  131.3839   55.7666 H   0  0  0  0  0  0  0  0  0  0  0  0
  129.1276  130.6328   55.7666 H   0  0  0  0  0  0  0  0  0  0  0  0
  128.7028  133.7698   56.9785 H   0  0  0  0  0  0  0  0  0  0  0  0
  130.2196  133.0872   57.6563 H   0  0  0  0  0  0  0  0  0  0  0  0
  130.0504  131.5644   55.4155 H   0  0  0  0  0  0  0  0  0  0  0  0
  129.1559  133.0066   54.8299 H   0  0  0  0  0  0  0  0  0  0  0  0
  133.1392  132.8860   55.2999 H   0  0  0  0  0  0  0  0  0  0  0  0
  132.4192  132.9355   56.9434 H   0  0  0  0  0  0  0  0  0  0  0  0
  131.2798  130.9141   55.0175 H   0  0  0  0  0  0  0  0  0  0  0  0
  132.9366  130.6009   55.6341 H   0  0  0  0  0  0  0  0  0  0  0  0
  132.3133  129.0787   58.0342 H   0  0  0  0  0  0  0  0  0  0  0  0
  133.4250  130.4227   57.6097 H   0  0  0  0  0  0  0  0  0  0  0  0
  132.3936  130.0229   60.1199 H   0  0  0  0  0  0  0  0  0  0  0  0
  132.8799  131.6498   59.4427 H   0  0  0  0  0  0  0  0  0  0  0  0
  130.2240  131.2710   58.7650 H   0  0  0  0  0  0  0  0  0  0  0  0
  123.4858  135.3222   62.2562 H   0  0  0  0  0  0  0  0  0  0  0  0
  123.9068  136.1734   60.7315 H   0  0  0  0  0  0  0  0  0  0  0  0
  122.6306  134.9093   60.7315 H   0  0  0  0  0  0  0  0  0  0  0  0
  123.2371  132.7435   60.0202 H   0  0  0  0  0  0  0  0  0  0  0  0
  124.5921  129.9456   60.1498 H   0  0  0  0  0  0  0  0  0  0  0  0
  123.9468  130.8514   58.7392 H   0  0  0  0  0  0  0  0  0  0  0  0
  125.6513  130.2846   58.7392 H   0  0  0  0  0  0  0  0  0  0  0  0
  127.6270  129.4810   60.1890 H   0  0  0  0  0  0  0  0  0  0  0  0
  128.1910  130.1630   58.7130 H   0  0  0  0  0  0  0  0  0  0  0  0
  1  2  1  0
  2  3  1  0
  3  4  1  0
  4  5  1  0
  5  6  1  0
  6  7  1  0
  7  8  1  0
  8  9  1  0
  9 10  1  0
 10 11  1  0
 11 12  1  0
 12 13  2  0
 12 14  1  0
 14 15  1  0
 15 16  1  0
 16 17  2  0
 17 18  1  0
 18 19  1  0
 18 20  2  0
 20 21  1  0
 21 22  1  0
 21 23  2  0
 23 24  1  0
 24 25  1  0
 24 14  2  0
 23 16  1  0
  1 26  1  0
  1 27  1  0
  1 28  1  0
  3 29  1  0
  3 30  1  0
  4 31  1  0
  4 32  1  0
  6 33  1  0
  6 34  1  0
  7 35  1  0
  7 36  1  0
  9 37  1  0
  9 38  1  0
 10 39  1  0
 10 40  1  0
 11 41  1  0
 19 42  1  0
 19 43  1  0
 19 44  1  0
 20 45  1  0
 22 46  1  0
 22 47  1  0
 22 48  1  0
 25 49  1  0
 25 50  1  0
M  END
>  <Binding energies>  (1) 
[-5.09]

>  <Ligand effiencies>  (1) 
[-0.18178571428571427]

>  <Interactions>  (1) 
["V-B:ASP:366:CG:8184, V-A:PRO:540:CD:4887, V-A:PRO:540:N:4884, V-A:TYR:539:C:4867, V-A:PRO:540:CG:4886, V-A:TYR:531:CE2:4793, V-A:TYR:531:CZ:4794, V-A:LEU:363:CD1:3189, V-A:TYR:539:CE2:4876, V-A:PRO:540:C:4881, H-A:TYR:531:OH:4795, V-A:PRO:540:CB:4885, V-A:PRO:540:CA:4883, V-A:TYR:539:CD2:4874, V-A:ILE:538:CG2:4863, V-B:LEU:475:CD1:9229, V-A:ALA:541:CB:4892, H-A:ALA:541:N:4891, V-B:ILE:369:CG2:8208, V-B:TRP:381:CH2:8343, V-A:TYR:539:CE1:4875, V-A:TYR:539:CD1:4873, V-A:TYR:539:CZ:4877, H-A:TYR:539:N:4870, V-A:TYR:539:CG:4872, V-A:TYR:539:CA:4869, V-B:TRP:381:CZ2:8341, V-A:ALA:541:CA:4890"]

$$$$
4al_Grossjean_2025
     RDKit          3D

 28 29  0  0  0  0  0  0  0  0999 V2000
  124.6710  131.5870   63.6380 C   0  0  0  0  0  0  0  0  0  0  0  0
  124.1230  130.3760   64.1370 O   0  0  0  0  0  0  0  0  0  0  0  0
  124.1620  130.0870   65.4630 C   0  0  0  0  0  0  0  0  0  0  0  0
  123.3320  130.4900   66.2820 O   0  0  0  0  0  0  0  0  0  0  0  0
  125.3100  129.2320   65.8330 C   0  0  0  0  0  0  0  0  0  0  0  0
  126.6520  129.0220   64.7050 S   0  0  0  0  0  0  0  0  0  0  0  0
  127.4850  127.9710   65.8270 C   0  0  0  0  0  0  0  0  0  0  0  0
  128.6680  127.4280   65.5390 N   0  0  0  0  0  0  0  0  0  0  0  0
  129.2070  126.6310   66.4950 C   0  0  0  0  0  0  0  0  0  0  0  0
  130.5540  126.0240   66.1470 C   0  0  0  0  0  0  0  0  0  0  0  0
  128.5950  126.3680   67.7190 C   0  0  0  0  0  0  0  0  0  0  0  0
  127.3540  126.9380   68.0180 C   0  0  0  0  0  0  0  0  0  0  0  0
  126.7260  126.6220   69.3660 C   0  0  0  0  0  0  0  0  0  0  0  0
  126.7580  127.7800   67.0400 C   0  0  0  0  0  0  0  0  0  0  0  0
  125.5220  128.5110   67.0140 C   0  0  0  0  0  0  0  0  0  0  0  0
  124.6350  128.4990   68.0600 N   0  0  0  0  0  0  0  0  0  0  0  0
  124.9628  132.2318   64.4801 H   0  0  0  0  0  0  0  0  0  0  0  0
  125.5557  131.3634   63.0237 H   0  0  0  0  0  0  0  0  0  0  0  0
  123.9191  132.1040   63.0237 H   0  0  0  0  0  0  0  0  0  0  0  0
  131.0962  125.7797   67.0724 H   0  0  0  0  0  0  0  0  0  0  0  0
  130.4020  125.1074   65.5582 H   0  0  0  0  0  0  0  0  0  0  0  0
  131.1400  126.7451   65.5582 H   0  0  0  0  0  0  0  0  0  0  0  0
  129.0888  125.7114   68.4505 H   0  0  0  0  0  0  0  0  0  0  0  0
  127.3960  126.9591   70.1707 H   0  0  0  0  0  0  0  0  0  0  0  0
  125.7601  127.1414   69.4513 H   0  0  0  0  0  0  0  0  0  0  0  0
  126.5675  125.5368   69.4513 H   0  0  0  0  0  0  0  0  0  0  0  0
  123.7810  129.0370   68.0420 H   0  0  0  0  0  0  0  0  0  0  0  0
  124.8070  127.9460   68.8890 H   0  0  0  0  0  0  0  0  0  0  0  0
  1  2  1  0
  2  3  1  0
  3  4  2  0
  3  5  1  0
  5  6  1  0
  6  7  1  0
  7  8  2  0
  8  9  1  0
  9 10  1  0
  9 11  2  0
 11 12  1  0
 12 13  1  0
 12 14  2  0
 14 15  1  0
 15 16  1  0
 15  5  2  0
 14  7  1  0
  1 17  1  0
  1 18  1  0
  1 19  1  0
 10 20  1  0
 10 21  1  0
 10 22  1  0
 11 23  1  0
 13 24  1  0
 13 25  1  0
 13 26  1  0
 16 27  1  0
 16 28  1  0
M  END
>  <Binding energies>  (1) 
[-5.19]

>  <Ligand effiencies>  (1) 
[-0.28833333333333333]

>  <Interactions>  (1) 
["V-B:GLU:543:CD:9880, V-A:GLU:543:CD:4908, V-B:LEU:475:CD1:9229, V-B:GLU:543:C:9874, V-B:GLU:543:CB:9878, V-B:GLY:544:C:9884, V-B:ARG:545:CA:9891, V-B:HIS:456:CE1:9040, V-B:ARG:545:CG:9894, V-A:HIS:456:CE1:4069, H-B:TYR:484:OH:9319, H-B:GLY:454:N:9021, V-B:ARG:545:CD:9895, V-B:ARG:545:CZ:9898, V-B:GLY:454:CA:9020, H-B:ARG:545:NH2:9900, H-B:ILE:455:N:9026, V-B:ARG:545:CB:9893, H-B:HIS:456:ND1:9038, H-B:ILE:455:O:9024"]

$$$$
4ba_Grossjean_2025
     RDKit          3D

 44 46  0  0  0  0  0  0  0  0999 V2000
  125.4330  127.2210   73.7340 C   0  0  0  0  0  0  0  0  0  0  0  0
  126.5940  127.5230   72.7690 C   0  0  0  0  0  0  0  0  0  0  0  0
  127.7000  126.4480   72.7190 C   0  0  0  0  0  0  0  0  0  0  0  0
  128.0460  125.8850   73.7600 O   0  0  0  0  0  0  0  0  0  0  0  0
  128.3060  126.1320   71.3830 C   0  0  0  0  0  0  0  0  0  0  0  0
  129.1720  125.0370   71.2620 C   0  0  0  0  0  0  0  0  0  0  0  0
  129.7490  124.7220   70.0360 C   0  0  0  0  0  0  0  0  0  0  0  0
  129.4710  125.4910   68.9050 C   0  0  0  0  0  0  0  0  0  0  0  0
  130.1160  125.0890   67.7190 N   0  0  0  0  0  0  0  0  0  0  0  0
  129.7120  125.1940   66.4290 C   0  0  0  0  0  0  0  0  0  0  0  0
  128.6230  125.6530   66.0800 O   0  0  0  0  0  0  0  0  0  0  0  0
  130.6620  124.6920   65.4340 C   0  0  0  0  0  0  0  0  0  0  0  0
  132.2860  125.3690   65.3390 S   0  0  0  0  0  0  0  0  0  0  0  0
  132.6860  124.3390   63.9840 C   0  0  0  0  0  0  0  0  0  0  0  0
  133.8860  124.3870   63.4070 N   0  0  0  0  0  0  0  0  0  0  0  0
  134.0780  123.5440   62.3670 C   0  0  0  0  0  0  0  0  0  0  0  0
  135.4480  123.6210   61.7170 C   0  0  0  0  0  0  0  0  0  0  0  0
  133.1110  122.6590   61.8990 C   0  0  0  0  0  0  0  0  0  0  0  0
  131.8450  122.6030   62.5040 C   0  0  0  0  0  0  0  0  0  0  0  0
  130.8140  121.6110   61.9550 C   0  0  0  0  0  0  0  0  0  0  0  0
  130.4080  120.7230   62.8640 F   0  0  0  0  0  0  0  0  0  0  0  0
  129.7350  122.2690   61.5300 F   0  0  0  0  0  0  0  0  0  0  0  0
  131.3420  120.9290   60.9380 F   0  0  0  0  0  0  0  0  0  0  0  0
  131.6080  123.4850   63.6000 C   0  0  0  0  0  0  0  0  0  0  0  0
  130.4600  123.7170   64.4430 C   0  0  0  0  0  0  0  0  0  0  0  0
  129.2770  123.0390   64.2850 N   0  0  0  0  0  0  0  0  0  0  0  0
  128.6110  126.5930   69.0190 C   0  0  0  0  0  0  0  0  0  0  0  0
  128.0340  126.9070   70.2460 C   0  0  0  0  0  0  0  0  0  0  0  0
  125.7856  127.3127   74.7719 H   0  0  0  0  0  0  0  0  0  0  0  0
  124.6158  127.9365   73.5598 H   0  0  0  0  0  0  0  0  0  0  0  0
  125.0680  126.1980   73.5598 H   0  0  0  0  0  0  0  0  0  0  0  0
  126.1768  127.6300   71.7568 H   0  0  0  0  0  0  0  0  0  0  0  0
  127.0738  128.4390   73.1441 H   0  0  0  0  0  0  0  0  0  0  0  0
  129.3977  124.4207   72.1448 H   0  0  0  0  0  0  0  0  0  0  0  0
  130.4290  123.8609   69.9575 H   0  0  0  0  0  0  0  0  0  0  0  0
  131.0080  124.6440   67.8660 H   0  0  0  0  0  0  0  0  0  0  0  0
  136.2221  123.6645   62.4973 H   0  0  0  0  0  0  0  0  0  0  0  0
  135.6076  122.7304   61.0914 H   0  0  0  0  0  0  0  0  0  0  0  0
  135.5068  124.5239   61.0914 H   0  0  0  0  0  0  0  0  0  0  0  0
  133.3401  121.9989   61.0494 H   0  0  0  0  0  0  0  0  0  0  0  0
  129.2180  122.1860   63.7490 H   0  0  0  0  0  0  0  0  0  0  0  0
  128.4190  123.3770   64.6970 H   0  0  0  0  0  0  0  0  0  0  0  0
  128.3918  127.2111   68.1359 H   0  0  0  0  0  0  0  0  0  0  0  0
  127.3581  127.7713   70.3248 H   0  0  0  0  0  0  0  0  0  0  0  0
  1  2  1  0
  2  3  1  0
  3  4  2  0
  3  5  1  0
  5  6  2  0
  6  7  1  0
  7  8  2  0
  8  9  1  0
  9 10  1  0
 10 11  2  0
 10 12  1  0
 12 13  1  0
 13 14  1  0
 14 15  2  0
 15 16  1  0
 16 17  1  0
 16 18  2  0
 18 19  1  0
 19 20  1  0
 20 21  1  0
 20 22  1  0
 20 23  1  0
 19 24  2  0
 24 25  1  0
 25 26  1  0
  8 27  1  0
 27 28  2  0
 28  5  1  0
 25 12  2  0
 24 14  1  0
  1 29  1  0
  1 30  1  0
  1 31  1  0
  2 32  1  0
  2 33  1  0
  6 34  1  0
  7 35  1  0
  9 36  1  0
 17 37  1  0
 17 38  1  0
 17 39  1  0
 18 40  1  0
 26 41  1  0
 26 42  1  0
 27 43  1  0
 28 44  1  0
M  END
>  <Binding energies>  (1) 
[-7.37]

>  <Ligand effiencies>  (1) 
[-0.23774193548387096]

>  <Interactions>  (1) 
["V-B:ALA:541:CB:9864, V-B:TYR:539:CE2:9848, V-B:TYR:539:CD2:9846, V-A:LEU:475:CD1:4258, V-B:GLU:543:C:9874, V-B:GLU:543:CB:9878, V-B:HIS:456:CB:9036, V-B:HIS:456:CG:9037, V-B:GLY:544:C:9884, V-B:HIS:456:CD2:9039, V-B:HIS:456:CE1:9040, H-B:LYS:547:NZ:9923, V-A:HIS:456:CE1:4069, V-A:HIS:456:CG:4066, V-A:HIS:456:CD2:4068, H-A:GLY:454:N:4050, V-B:GLU:543:CG:9879, V-A:TYR:484:CE1:4345, V-B:GLU:543:CA:9876, V-A:ILE:369:CD1:3239, V-A:GLY:453:C:4042, V-A:TYR:484:CZ:4347, H-A:TYR:484:OH:4348, V-A:GLY:454:CA:4049, H-A:HIS:456:ND1:4067, V-A:GLY:453:CA:4044"]

$$$$
4bb_Grossjean_2025
     RDKit          3D

 41 43  0  0  0  0  0  0  0  0999 V2000
  128.2540  128.1710   73.3030 C   0  0  0  0  0  0  0  0  0  0  0  0
  128.3900  126.6700   73.0350 C   0  0  0  0  0  0  0  0  0  0  0  0
  128.2210  125.8950   73.9770 O   0  0  0  0  0  0  0  0  0  0  0  0
  128.7310  126.2250   71.6440 C   0  0  0  0  0  0  0  0  0  0  0  0
  129.4180  125.0190   71.4580 C   0  0  0  0  0  0  0  0  0  0  0  0
  129.7480  124.5840   70.1780 C   0  0  0  0  0  0  0  0  0  0  0  0
  129.3910  125.3400   69.0600 C   0  0  0  0  0  0  0  0  0  0  0  0
  129.7760  124.8080   67.8130 N   0  0  0  0  0  0  0  0  0  0  0  0
  129.3220  125.0900   66.5680 C   0  0  0  0  0  0  0  0  0  0  0  0
  128.4200  125.8910   66.3250 O   0  0  0  0  0  0  0  0  0  0  0  0
  129.9640  124.3400   65.4850 C   0  0  0  0  0  0  0  0  0  0  0  0
  129.3140  122.7830   64.9770 S   0  0  0  0  0  0  0  0  0  0  0  0
  130.5830  122.5860   63.7910 C   0  0  0  0  0  0  0  0  0  0  0  0
  130.6430  121.5090   63.0090 N   0  0  0  0  0  0  0  0  0  0  0  0
  131.6720  121.4700   62.1310 C   0  0  0  0  0  0  0  0  0  0  0  0
  131.7210  120.2350   61.2490 C   0  0  0  0  0  0  0  0  0  0  0  0
  132.6320  122.4720   62.0170 C   0  0  0  0  0  0  0  0  0  0  0  0
  132.5730  123.6090   62.8370 C   0  0  0  0  0  0  0  0  0  0  0  0
  133.6520  124.6850   62.6750 C   0  0  0  0  0  0  0  0  0  0  0  0
  134.1980  125.0550   63.8360 F   0  0  0  0  0  0  0  0  0  0  0  0
  134.6340  124.2250   61.8990 F   0  0  0  0  0  0  0  0  0  0  0  0
  133.1230  125.7740   62.1180 F   0  0  0  0  0  0  0  0  0  0  0  0
  131.5000  123.6820   63.7760 C   0  0  0  0  0  0  0  0  0  0  0  0
  131.1220  124.6660   64.7590 C   0  0  0  0  0  0  0  0  0  0  0  0
  131.8310  125.8230   64.9600 N   0  0  0  0  0  0  0  0  0  0  0  0
  128.7090  126.5530   69.2390 C   0  0  0  0  0  0  0  0  0  0  0  0
  128.3820  126.9880   70.5210 C   0  0  0  0  0  0  0  0  0  0  0  0
  128.2378  128.3497   74.3883 H   0  0  0  0  0  0  0  0  0  0  0  0
  129.1077  128.7020   72.8567 H   0  0  0  0  0  0  0  0  0  0  0  0
  127.3188  128.5399   72.8567 H   0  0  0  0  0  0  0  0  0  0  0  0
  129.6990  124.4108   72.3304 H   0  0  0  0  0  0  0  0  0  0  0  0
  130.2938  123.6381   70.0462 H   0  0  0  0  0  0  0  0  0  0  0  0
  130.4860  124.0930   67.8730 H   0  0  0  0  0  0  0  0  0  0  0  0
  131.7567  119.3348   61.8802 H   0  0  0  0  0  0  0  0  0  0  0  0
  130.8235  120.2021   60.6139 H   0  0  0  0  0  0  0  0  0  0  0  0
  132.6183  120.2733   60.6139 H   0  0  0  0  0  0  0  0  0  0  0  0
  133.4418  122.3716   61.2794 H   0  0  0  0  0  0  0  0  0  0  0  0
  132.3100  126.2940   64.2050 H   0  0  0  0  0  0  0  0  0  0  0  0
  131.8990  126.2470   65.8750 H   0  0  0  0  0  0  0  0  0  0  0  0
  128.4321  127.1614   68.3654 H   0  0  0  0  0  0  0  0  0  0  0  0
  127.8450  127.9388   70.6535 H   0  0  0  0  0  0  0  0  0  0  0  0
  1  2  1  0
  2  3  2  0
  2  4  1  0
  4  5  2  0
  5  6  1  0
  6  7  2  0
  7  8  1  0
  8  9  1  0
  9 10  2  0
  9 11  1  0
 11 12  1  0
 12 13  1  0
 13 14  2  0
 14 15  1  0
 15 16  1  0
 15 17  2  0
 17 18  1  0
 18 19  1  0
 19 20  1  0
 19 21  1  0
 19 22  1  0
 18 23  2  0
 23 24  1  0
 24 25  1  0
  7 26  1  0
 26 27  2  0
 27  4  1  0
 24 11  2  0
 23 13  1  0
  1 28  1  0
  1 29  1  0
  1 30  1  0
  5 31  1  0
  6 32  1  0
  8 33  1  0
 16 34  1  0
 16 35  1  0
 16 36  1  0
 17 37  1  0
 25 38  1  0
 25 39  1  0
 26 40  1  0
 27 41  1  0
M  END
>  <Binding energies>  (1) 
[-7.29]

>  <Ligand effiencies>  (1) 
[-0.243]

>  <Interactions>  (1) 
["V-B:ALA:541:CB:9864, V-A:LEU:475:CD1:4258, V-A:ASP:366:CG:3213, V-A:GLU:543:CD:4908, V-B:GLU:543:C:9874, V-B:GLU:543:CB:9878, V-B:HIS:456:CG:9037, V-B:HIS:456:CD2:9039, V-B:HIS:456:CE1:9040, H-B:LYS:547:NZ:9923, V-A:HIS:456:CE1:4069, V-A:HIS:456:CG:4066, V-A:HIS:456:CD2:4068, V-B:GLU:543:CG:9879, V-A:TYR:484:CE1:4345, V-B:GLU:543:CA:9876, V-A:TRP:381:CH2:3372, V-A:GLY:453:C:4042, V-A:TYR:484:CZ:4347, H-A:TYR:484:OH:4348, H-A:GLU:543:OE2:4910, H-A:HIS:456:ND1:4067, V-A:ARG:545:CZ:4926, V-A:GLY:453:CA:4044, H-B:GLU:543:O:9875"]

$$$$
4bc_Grossjean_2025
     RDKit          3D

 40 42  0  0  0  0  0  0  0  0999 V2000
  132.3220  132.2090   55.1150 C   0  0  0  0  0  0  0  0  0  0  0  0
  131.2990  133.0200   55.6840 O   0  0  0  0  0  0  0  0  0  0  0  0
  130.6800  132.6050   56.8480 C   0  0  0  0  0  0  0  0  0  0  0  0
  129.3440  132.9720   57.0070 C   0  0  0  0  0  0  0  0  0  0  0  0
  128.6380  132.6000   58.1480 C   0  0  0  0  0  0  0  0  0  0  0  0
  129.2590  131.8450   59.1450 C   0  0  0  0  0  0  0  0  0  0  0  0
  128.4720  131.5300   60.2670 N   0  0  0  0  0  0  0  0  0  0  0  0
  127.4340  132.2150   60.8060 C   0  0  0  0  0  0  0  0  0  0  0  0
  127.0310  133.2980   60.3810 O   0  0  0  0  0  0  0  0  0  0  0  0
  126.7980  131.5830   61.9660 C   0  0  0  0  0  0  0  0  0  0  0  0
  125.1040  131.9030   62.3320 S   0  0  0  0  0  0  0  0  0  0  0  0
  125.1620  130.8580   63.7320 C   0  0  0  0  0  0  0  0  0  0  0  0
  124.0900  130.6650   64.5000 N   0  0  0  0  0  0  0  0  0  0  0  0
  124.2580  129.8370   65.5570 C   0  0  0  0  0  0  0  0  0  0  0  0
  123.0240  129.6260   66.4150 C   0  0  0  0  0  0  0  0  0  0  0  0
  125.4600  129.2040   65.8610 C   0  0  0  0  0  0  0  0  0  0  0  0
  126.5930  129.4040   65.0560 C   0  0  0  0  0  0  0  0  0  0  0  0
  127.8950  128.6880   65.4340 C   0  0  0  0  0  0  0  0  0  0  0  0
  128.8430  129.5220   65.8630 F   0  0  0  0  0  0  0  0  0  0  0  0
  127.6590  127.8130   66.4110 F   0  0  0  0  0  0  0  0  0  0  0  0
  128.3800  128.0440   64.3720 F   0  0  0  0  0  0  0  0  0  0  0  0
  126.4490  130.2710   63.9320 C   0  0  0  0  0  0  0  0  0  0  0  0
  127.3630  130.7040   62.9030 C   0  0  0  0  0  0  0  0  0  0  0  0
  128.6690  130.2880   62.8500 N   0  0  0  0  0  0  0  0  0  0  0  0
  130.6070  131.4830   58.9980 C   0  0  0  0  0  0  0  0  0  0  0  0
  131.3100  131.8580   57.8560 C   0  0  0  0  0  0  0  0  0  0  0  0
  132.9101  131.7428   55.9192 H   0  0  0  0  0  0  0  0  0  0  0  0
  131.8651  131.4251   54.4931 H   0  0  0  0  0  0  0  0  0  0  0  0
  132.9810  132.8327   54.4931 H   0  0  0  0  0  0  0  0  0  0  0  0
  128.8435  133.5606   56.2240 H   0  0  0  0  0  0  0  0  0  0  0  0
  127.5867  132.9021   58.2645 H   0  0  0  0  0  0  0  0  0  0  0  0
  128.7490  130.6870   60.7480 H   0  0  0  0  0  0  0  0  0  0  0  0
  123.3038  129.6738   67.4777 H   0  0  0  0  0  0  0  0  0  0  0  0
  122.2855  130.4109   66.1946 H   0  0  0  0  0  0  0  0  0  0  0  0
  122.5883  128.6403   66.1946 H   0  0  0  0  0  0  0  0  0  0  0  0
  125.5227  128.5427   66.7378 H   0  0  0  0  0  0  0  0  0  0  0  0
  128.9400  129.4350   62.3830 H   0  0  0  0  0  0  0  0  0  0  0  0
  129.4090  130.8270   63.2790 H   0  0  0  0  0  0  0  0  0  0  0  0
  131.1088  130.9023   59.7860 H   0  0  0  0  0  0  0  0  0  0  0  0
  132.3649  131.5673   57.7430 H   0  0  0  0  0  0  0  0  0  0  0  0
  1  2  1  0
  2  3  1  0
  3  4  2  0
  4  5  1  0
  5  6  2  0
  6  7  1  0
  7  8  1  0
  8  9  2  0
  8 10  1  0
 10 11  1  0
 11 12  1  0
 12 13  2  0
 13 14  1  0
 14 15  1  0
 14 16  2  0
 16 17  1  0
 17 18  1  0
 18 19  1  0
 18 20  1  0
 18 21  1  0
 17 22  2  0
 22 23  1  0
 23 24  1  0
  6 25  1  0
 25 26  2  0
 26  3  1  0
 23 10  2  0
 22 12  1  0
  1 27  1  0
  1 28  1  0
  1 29  1  0
  4 30  1  0
  5 31  1  0
  7 32  1  0
 15 33  1  0
 15 34  1  0
 15 35  1  0
 16 36  1  0
 24 37  1  0
 24 38  1  0
 25 39  1  0
 26 40  1  0
M  END
>  <Binding energies>  (1) 
[-6.72]

>  <Ligand effiencies>  (1) 
[-0.23172413793103447]

>  <Interactions>  (1) 
["V-A:PRO:540:CD:4887, V-A:PRO:540:N:4884, V-A:TYR:539:C:4867, V-A:TYR:531:CE2:4793, V-A:ILE:538:CD1:4865, V-A:LEU:363:CD1:3189, V-A:GLU:543:CD:4908, V-A:TYR:539:CE2:4876, V-A:PRO:540:CB:4885, V-A:PRO:540:CA:4883, V-A:TYR:539:CD2:4874, V-A:ILE:538:CG2:4863, V-B:LEU:475:CD1:9229, V-B:ARG:545:CG:9894, H-B:TYR:484:OH:9319, V-A:GLU:543:CB:4906, H-B:GLY:454:N:9021, V-B:GLY:453:C:9013, V-B:GLY:453:CA:9015, V-B:ARG:545:CD:9895, V-B:ARG:545:CZ:9898, V-B:GLY:454:CA:9020, H-A:GLU:543:OE1:4909, V-A:TYR:539:CE1:4875, V-A:TYR:539:CD1:4873, V-A:TYR:539:CZ:4877, H-A:TYR:539:N:4870, V-A:TYR:539:CG:4872, V-A:TYR:539:CA:4869, V-A:GLU:543:CG:4907, V-B:ILE:455:C:9023"]

$$$$
4bd_Grossjean_2025
     RDKit          3D

 36 38  0  0  0  0  0  0  0  0999 V2000
  130.0600  132.5900   55.6290 C   0  0  0  0  0  0  0  0  0  0  0  0
  129.9290  132.2400   57.1010 C   0  0  0  0  0  0  0  0  0  0  0  0
  131.0100  131.7350   57.8180 C   0  0  0  0  0  0  0  0  0  0  0  0
  130.8750  131.4140   59.1770 C   0  0  0  0  0  0  0  0  0  0  0  0
  132.0920  130.8570   59.9240 C   0  0  0  0  0  0  0  0  0  0  0  0
  133.1820  130.7740   59.1570 F   0  0  0  0  0  0  0  0  0  0  0  0
  132.3890  131.6450   60.9560 F   0  0  0  0  0  0  0  0  0  0  0  0
  131.8250  129.6290   60.3690 F   0  0  0  0  0  0  0  0  0  0  0  0
  129.5980  131.6300   59.7750 C   0  0  0  0  0  0  0  0  0  0  0  0
  129.0910  131.4260   61.1100 C   0  0  0  0  0  0  0  0  0  0  0  0
  129.8670  130.9360   62.1280 N   0  0  0  0  0  0  0  0  0  0  0  0
  127.7380  131.7710   61.2700 C   0  0  0  0  0  0  0  0  0  0  0  0
  126.9080  131.6750   62.4740 C   0  0  0  0  0  0  0  0  0  0  0  0
  126.3200  132.6650   62.9120 O   0  0  0  0  0  0  0  0  0  0  0  0
  126.8360  130.4420   63.0340 N   0  0  0  0  0  0  0  0  0  0  0  0
  126.1680  130.0270   64.2010 C   0  0  0  0  0  0  0  0  0  0  0  0
  124.8120  130.3580   64.2810 C   0  0  0  0  0  0  0  0  0  0  0  0
  124.0620  129.9830   65.3920 C   0  0  0  0  0  0  0  0  0  0  0  0
  124.6650  129.2670   66.4220 C   0  0  0  0  0  0  0  0  0  0  0  0
  126.0110  128.9190   66.3490 C   0  0  0  0  0  0  0  0  0  0  0  0
  126.7650  129.2930   65.2390 C   0  0  0  0  0  0  0  0  0  0  0  0
  127.0510  132.3700   59.7620 S   0  0  0  0  0  0  0  0  0  0  0  0
  128.5720  132.1530   58.9280 C   0  0  0  0  0  0  0  0  0  0  0  0
  128.7070  132.4560   57.6380 N   0  0  0  0  0  0  0  0  0  0  0  0
  130.4440  133.6159   55.5288 H   0  0  0  0  0  0  0  0  0  0  0  0
  130.7566  131.8890   55.1460 H   0  0  0  0  0  0  0  0  0  0  0  0
  129.0743  132.5186   55.1460 H   0  0  0  0  0  0  0  0  0  0  0  0
  131.9771  131.5865   57.3154 H   0  0  0  0  0  0  0  0  0  0  0  0
  130.1310  131.5040   62.9210 H   0  0  0  0  0  0  0  0  0  0  0  0
  130.1990  129.9810   62.1240 H   0  0  0  0  0  0  0  0  0  0  0  0
  127.3130  129.7020   62.5410 H   0  0  0  0  0  0  0  0  0  0  0  0
  124.3357  130.9173   63.4623 H   0  0  0  0  0  0  0  0  0  0  0  0
  122.9972  130.2514   65.4557 H   0  0  0  0  0  0  0  0  0  0  0  0
  124.0729  128.9735   67.3014 H   0  0  0  0  0  0  0  0  0  0  0  0
  126.4782  128.3498   67.1662 H   0  0  0  0  0  0  0  0  0  0  0  0
  127.8271  129.0137   65.1755 H   0  0  0  0  0  0  0  0  0  0  0  0
  1  2  1  0
  2  3  2  0
  3  4  1  0
  4  5  1  0
  5  6  1  0
  5  7  1  0
  5  8  1  0
  4  9  2  0
  9 10  1  0
 10 11  1  0
 10 12  2  0
 12 13  1  0
 13 14  2  0
 13 15  1  0
 15 16  1  0
 16 17  2  0
 17 18  1  0
 18 19  2  0
 19 20  1  0
 20 21  2  0
 12 22  1  0
 22 23  1  0
 23 24  2  0
 24  2  1  0
 23  9  1  0
 21 16  1  0
  1 25  1  0
  1 26  1  0
  1 27  1  0
  3 28  1  0
 11 29  1  0
 11 30  1  0
 15 31  1  0
 17 32  1  0
 18 33  1  0
 19 34  1  0
 20 35  1  0
 21 36  1  0
M  END
>  <Binding energies>  (1) 
[-6.23]

>  <Ligand effiencies>  (1) 
[-0.23074074074074075]

>  <Interactions>  (1) 
["V-A:PRO:540:N:4884, V-A:TYR:539:C:4867, V-A:ASP:366:CG:3213, V-A:GLU:543:CD:4908, V-A:TYR:539:CE2:4876, V-A:PRO:540:C:4881, V-A:PRO:540:CB:4885, V-A:PRO:540:CA:4883, V-A:TYR:539:CD2:4874, V-B:HIS:456:CE1:9040, V-B:ARG:545:CG:9894, V-B:ARG:545:CD:9895, V-B:ARG:545:CZ:9898, V-B:GLY:454:CA:9020, H-A:GLU:543:OE1:4909, V-A:TYR:539:CE1:4875, V-A:TYR:539:CD1:4873, V-A:TYR:539:CZ:4877, V-A:LEU:363:CA:3185"]

$$$$
4be_Grossjean_2025
     RDKit          3D

 38 40  0  0  0  0  0  0  0  0999 V2000
  128.1040  119.9230   72.8010 C   0  0  0  0  0  0  0  0  0  0  0  0
  129.1610  121.0000   72.6450 C   0  0  0  0  0  0  0  0  0  0  0  0
  130.3130  121.0120   73.4340 C   0  0  0  0  0  0  0  0  0  0  0  0
  131.2420  122.0360   73.2370 C   0  0  0  0  0  0  0  0  0  0  0  0
  130.9980  123.0110   72.2680 C   0  0  0  0  0  0  0  0  0  0  0  0
  129.8250  122.9360   71.5080 C   0  0  0  0  0  0  0  0  0  0  0  0
  129.6360  123.9520   70.5530 N   0  0  0  0  0  0  0  0  0  0  0  0
  129.3930  125.2710   70.7510 C   0  0  0  0  0  0  0  0  0  0  0  0
  129.3050  125.7940   71.8640 O   0  0  0  0  0  0  0  0  0  0  0  0
  129.2120  126.0670   69.5330 C   0  0  0  0  0  0  0  0  0  0  0  0
  128.6800  127.7440   69.6430 S   0  0  0  0  0  0  0  0  0  0  0  0
  128.6900  127.9080   67.9030 C   0  0  0  0  0  0  0  0  0  0  0  0
  128.3540  129.0530   67.3110 N   0  0  0  0  0  0  0  0  0  0  0  0
  128.4020  129.0600   65.9590 C   0  0  0  0  0  0  0  0  0  0  0  0
  128.0130  130.3720   65.3040 C   0  0  0  0  0  0  0  0  0  0  0  0
  128.7770  127.9590   65.1930 C   0  0  0  0  0  0  0  0  0  0  0  0
  129.1330  126.7500   65.8100 C   0  0  0  0  0  0  0  0  0  0  0  0
  129.5410  125.5680   64.9260 C   0  0  0  0  0  0  0  0  0  0  0  0
  129.1730  125.7180   63.6510 F   0  0  0  0  0  0  0  0  0  0  0  0
  130.8670  125.4280   64.9420 F   0  0  0  0  0  0  0  0  0  0  0  0
  128.9750  124.4490   65.3770 F   0  0  0  0  0  0  0  0  0  0  0  0
  129.0880  126.7080   67.2360 C   0  0  0  0  0  0  0  0  0  0  0  0
  129.3700  125.6700   68.1970 C   0  0  0  0  0  0  0  0  0  0  0  0
  129.7640  124.4080   67.8300 N   0  0  0  0  0  0  0  0  0  0  0  0
  128.9100  121.9400   71.6980 N   0  0  0  0  0  0  0  0  0  0  0  0
  127.9232  119.7388   73.8703 H   0  0  0  0  0  0  0  0  0  0  0  0
  127.1702  120.2537   72.3229 H   0  0  0  0  0  0  0  0  0  0  0  0
  128.4522  118.9955   72.3229 H   0  0  0  0  0  0  0  0  0  0  0  0
  130.4846  120.2338   74.1923 H   0  0  0  0  0  0  0  0  0  0  0  0
  132.1602  122.0741   73.8415 H   0  0  0  0  0  0  0  0  0  0  0  0
  131.7175  123.8267   72.1041 H   0  0  0  0  0  0  0  0  0  0  0  0
  129.6450  123.6350   69.5950 H   0  0  0  0  0  0  0  0  0  0  0  0
  127.7917  131.1184   66.0812 H   0  0  0  0  0  0  0  0  0  0  0  0
  128.8437  130.7298   64.6780 H   0  0  0  0  0  0  0  0  0  0  0  0
  127.1215  130.2191   64.6780 H   0  0  0  0  0  0  0  0  0  0  0  0
  128.7943  128.0377   64.0960 H   0  0  0  0  0  0  0  0  0  0  0  0
  129.1300  123.6230   67.8470 H   0  0  0  0  0  0  0  0  0  0  0  0
  130.7130  124.2200   67.5360 H   0  0  0  0  0  0  0  0  0  0  0  0
  1  2  1  0
  2  3  2  0
  3  4  1  0
  4  5  2  0
  5  6  1  0
  6  7  1  0
  7  8  1  0
  8  9  2  0
  8 10  1  0
 10 11  1  0
 11 12  1  0
 12 13  2  0
 13 14  1  0
 14 15  1  0
 14 16  2  0
 16 17  1  0
 17 18  1  0
 18 19  1  0
 18 20  1  0
 18 21  1  0
 17 22  2  0
 22 23  1  0
 23 24  1  0
  6 25  2  0
 25  2  1  0
 23 10  2  0
 22 12  1  0
  1 26  1  0
  1 27  1  0
  1 28  1  0
  3 29  1  0
  4 30  1  0
  5 31  1  0
  7 32  1  0
 15 33  1  0
 15 34  1  0
 15 35  1  0
 16 36  1  0
 24 37  1  0
 24 38  1  0
M  END
>  <Binding energies>  (1) 
[-7.09]

>  <Ligand effiencies>  (1) 
[-0.2532142857142857]

>  <Interactions>  (1) 
["V-B:GLU:543:CD:9880, V-A:GLU:543:CD:4908, V-B:GLU:543:C:9874, V-B:GLU:543:CB:9878, V-B:HIS:456:CE1:9040, H-B:LYS:547:NZ:9923, V-A:HIS:456:CE1:4069, V-A:ASP:473:CG:4240, V-A:HIS:456:CG:4066, V-A:HIS:456:CD2:4068, V-A:ASP:473:CB:4239, V-A:HIS:456:CB:4065, V-A:GLU:543:CB:4906, H-B:HIS:456:NE2:9041, H-A:HIS:456:NE2:4070, V-B:GLU:543:CG:9879, V-A:TYR:484:CE1:4345, V-B:GLU:543:CA:9876, V-A:TYR:484:CZ:4347, H-A:TYR:484:OH:4348, V-B:LYS:547:CE:9922, H-A:HIS:456:ND1:4067, V-A:GLU:543:CG:4907, H-B:GLU:543:O:9875, V-A:TYR:484:CD2:4344, V-A:TYR:484:CG:4342, V-A:TYR:484:CE2:4346, V-A:TYR:484:CB:4341, V-A:TYR:484:CD1:4343"]

$$$$
4bf_Grossjean_2025
     RDKit          3D

 35 37  0  0  0  0  0  0  0  0999 V2000
  127.8530  129.9630   64.3230 C   0  0  0  0  0  0  0  0  0  0  0  0
  128.2960  128.7430   65.1110 C   0  0  0  0  0  0  0  0  0  0  0  0
  128.7080  127.5820   64.4640 C   0  0  0  0  0  0  0  0  0  0  0  0
  129.1120  126.4610   65.2050 C   0  0  0  0  0  0  0  0  0  0  0  0
  129.5550  125.2040   64.4490 C   0  0  0  0  0  0  0  0  0  0  0  0
  129.0080  124.0840   64.9310 F   0  0  0  0  0  0  0  0  0  0  0  0
  129.2040  125.3000   63.1670 F   0  0  0  0  0  0  0  0  0  0  0  0
  130.8790  125.0680   64.5350 F   0  0  0  0  0  0  0  0  0  0  0  0
  129.0790  126.5720   66.6270 C   0  0  0  0  0  0  0  0  0  0  0  0
  129.4090  125.6560   67.6910 C   0  0  0  0  0  0  0  0  0  0  0  0
  129.8660  124.3840   67.4570 N   0  0  0  0  0  0  0  0  0  0  0  0
  129.2250  126.1820   68.9810 C   0  0  0  0  0  0  0  0  0  0  0  0
  129.4310  125.5240   70.2750 C   0  0  0  0  0  0  0  0  0  0  0  0
  129.3330  126.1590   71.3240 O   0  0  0  0  0  0  0  0  0  0  0  0
  129.7140  124.1990   70.2130 N   0  0  0  0  0  0  0  0  0  0  0  0
  130.0090  123.2970   71.2520 C   0  0  0  0  0  0  0  0  0  0  0  0
  131.1730  123.3140   72.0400 C   0  0  0  0  0  0  0  0  0  0  0  0
  131.3510  122.3480   73.0330 C   0  0  0  0  0  0  0  0  0  0  0  0
  130.3590  121.3830   73.2110 C   0  0  0  0  0  0  0  0  0  0  0  0
  129.2310  121.3400   72.4600 N   0  0  0  0  0  0  0  0  0  0  0  0
  129.0730  122.2860   71.4980 C   0  0  0  0  0  0  0  0  0  0  0  0
  128.6300  127.8390   68.9130 S   0  0  0  0  0  0  0  0  0  0  0  0
  128.6350  127.8190   67.1650 C   0  0  0  0  0  0  0  0  0  0  0  0
  128.2540  128.8820   66.4570 N   0  0  0  0  0  0  0  0  0  0  0  0
  127.5623  130.7635   65.0192 H   0  0  0  0  0  0  0  0  0  0  0  0
  128.6821  130.3112   63.6895 H   0  0  0  0  0  0  0  0  0  0  0  0
  126.9937  129.6981   63.6895 H   0  0  0  0  0  0  0  0  0  0  0  0
  128.7170  127.5428   63.3647 H   0  0  0  0  0  0  0  0  0  0  0  0
  129.3230  123.5680   67.7020 H   0  0  0  0  0  0  0  0  0  0  0  0
  130.7650  124.2200   67.0260 H   0  0  0  0  0  0  0  0  0  0  0  0
  129.7070  123.7860   69.2920 H   0  0  0  0  0  0  0  0  0  0  0  0
  131.9403  124.0848   71.8753 H   0  0  0  0  0  0  0  0  0  0  0  0
  132.2539  122.3480   73.6613 H   0  0  0  0  0  0  0  0  0  0  0  0
  130.4982  120.6240   73.9949 H   0  0  0  0  0  0  0  0  0  0  0  0
  128.1629  122.2559   70.8809 H   0  0  0  0  0  0  0  0  0  0  0  0
  1  2  1  0
  2  3  2  0
  3  4  1  0
  4  5  1  0
  5  6  1  0
  5  7  1  0
  5  8  1  0
  4  9  2  0
  9 10  1  0
 10 11  1  0
 10 12  2  0
 12 13  1  0
 13 14  2  0
 13 15  1  0
 15 16  1  0
 16 17  2  0
 17 18  1  0
 18 19  2  0
 19 20  1  0
 20 21  2  0
 12 22  1  0
 22 23  1  0
 23 24  2  0
 24  2  1  0
 23  9  1  0
 21 16  1  0
  1 25  1  0
  1 26  1  0
  1 27  1  0
  3 28  1  0
 11 29  1  0
 11 30  1  0
 15 31  1  0
 17 32  1  0
 18 33  1  0
 19 34  1  0
 21 35  1  0
M  END
>  <Binding energies>  (1) 
[-6.62]

>  <Ligand effiencies>  (1) 
[-0.2451851851851852]

>  <Interactions>  (1) 
["V-B:GLU:543:CD:9880, V-A:GLU:543:CD:4908, V-B:GLU:543:C:9874, V-B:GLU:543:CB:9878, V-B:HIS:456:CE1:9040, H-B:LYS:547:NZ:9923, V-A:HIS:456:CE1:4069, V-A:ASP:473:CG:4240, V-A:HIS:456:CG:4066, V-A:HIS:456:CD2:4068, V-A:ASP:473:CB:4239, V-A:HIS:456:CB:4065, H-A:HIS:456:NE2:4070, V-B:GLU:543:CG:9879, V-A:TYR:484:CE1:4345, V-B:GLU:543:CA:9876, V-A:TYR:484:CZ:4347, H-A:TYR:484:OH:4348, V-B:LYS:547:CE:9922, V-B:GLY:544:CA:9886, H-B:GLU:543:O:9875, V-A:TYR:484:CD2:4344, V-A:TYR:484:CG:4342, V-A:TYR:484:CE2:4346, V-A:TYR:484:CB:4341, V-A:TYR:484:CD1:4343"]

$$$$
4bg_Grossjean_2025
     RDKit          3D

 39 41  0  0  0  0  0  0  0  0999 V2000
  133.3040  126.1480   75.7090 C   0  0  0  0  0  0  0  0  0  0  0  0
  132.2740  125.7270   74.6760 C   0  0  0  0  0  0  0  0  0  0  0  0
  132.2460  124.4260   74.1810 C   0  0  0  0  0  0  0  0  0  0  0  0
  131.2910  124.0510   73.2220 C   0  0  0  0  0  0  0  0  0  0  0  0
  131.2990  122.6080   72.7060 C   0  0  0  0  0  0  0  0  0  0  0  0
  130.8520  122.5000   71.4530 F   0  0  0  0  0  0  0  0  0  0  0  0
  132.5420  122.1280   72.7300 F   0  0  0  0  0  0  0  0  0  0  0  0
  130.5190  121.8490   73.4750 F   0  0  0  0  0  0  0  0  0  0  0  0
  130.3710  125.0530   72.7920 C   0  0  0  0  0  0  0  0  0  0  0  0
  129.2840  125.0450   71.8430 C   0  0  0  0  0  0  0  0  0  0  0  0
  128.9410  123.9340   71.1150 N   0  0  0  0  0  0  0  0  0  0  0  0
  128.6070  126.2700   71.7400 C   0  0  0  0  0  0  0  0  0  0  0  0
  127.4900  126.6230   70.8640 C   0  0  0  0  0  0  0  0  0  0  0  0
  126.6000  127.3900   71.2350 O   0  0  0  0  0  0  0  0  0  0  0  0
  127.5190  126.0900   69.6250 N   0  0  0  0  0  0  0  0  0  0  0  0
  126.5050  126.2910   68.5900 C   0  0  0  0  0  0  0  0  0  0  0  0
  126.8560  127.3920   67.5980 C   0  0  0  0  0  0  0  0  0  0  0  0
  125.8410  128.1250   66.9750 C   0  0  0  0  0  0  0  0  0  0  0  0
  126.1660  129.1560   66.0980 C   0  0  0  0  0  0  0  0  0  0  0  0
  127.5040  129.4610   65.8560 C   0  0  0  0  0  0  0  0  0  0  0  0
  128.5200  128.7460   66.4850 C   0  0  0  0  0  0  0  0  0  0  0  0
  128.1960  127.7140   67.3620 C   0  0  0  0  0  0  0  0  0  0  0  0
  129.3220  127.4890   72.7910 S   0  0  0  0  0  0  0  0  0  0  0  0
  130.5040  126.3470   73.3840 C   0  0  0  0  0  0  0  0  0  0  0  0
  131.4140  126.6970   74.2930 N   0  0  0  0  0  0  0  0  0  0  0  0
  132.8996  125.9827   76.7185 H   0  0  0  0  0  0  0  0  0  0  0  0
  134.2191  125.5518   75.5784 H   0  0  0  0  0  0  0  0  0  0  0  0
  133.5395  127.2145   75.5784 H   0  0  0  0  0  0  0  0  0  0  0  0
  132.9763  123.6874   74.5432 H   0  0  0  0  0  0  0  0  0  0  0  0
  129.6060  123.4540   70.5270 H   0  0  0  0  0  0  0  0  0  0  0  0
  128.0020  123.5620   71.1370 H   0  0  0  0  0  0  0  0  0  0  0  0
  128.2350  125.4080   69.4170 H   0  0  0  0  0  0  0  0  0  0  0  0
  126.3829  125.3490   68.0352 H   0  0  0  0  0  0  0  0  0  0  0  0
  125.5803  126.5991   69.0999 H   0  0  0  0  0  0  0  0  0  0  0  0
  124.7864  127.8870   67.1779 H   0  0  0  0  0  0  0  0  0  0  0  0
  125.3700  129.7275   65.5982 H   0  0  0  0  0  0  0  0  0  0  0  0
  127.7601  130.2745   65.1613 H   0  0  0  0  0  0  0  0  0  0  0  0
  129.5735  128.9952   66.2900 H   0  0  0  0  0  0  0  0  0  0  0  0
  128.9942  127.1521   67.8691 H   0  0  0  0  0  0  0  0  0  0  0  0
  1  2  1  0
  2  3  2  0
  3  4  1  0
  4  5  1  0
  5  6  1  0
  5  7  1  0
  5  8  1  0
  4  9  2  0
  9 10  1  0
 10 11  1  0
 10 12  2  0
 12 13  1  0
 13 14  2  0
 13 15  1  0
 15 16  1  0
 16 17  1  0
 17 18  2  0
 18 19  1  0
 19 20  2  0
 20 21  1  0
 21 22  2  0
 12 23  1  0
 23 24  1  0
 24 25  2  0
 25  2  1  0
 24  9  1  0
 22 17  1  0
  1 26  1  0
  1 27  1  0
  1 28  1  0
  3 29  1  0
 11 30  1  0
 11 31  1  0
 15 32  1  0
 16 33  1  0
 16 34  1  0
 18 35  1  0
 19 36  1  0
 20 37  1  0
 21 38  1  0
 22 39  1  0
M  END
>  <Binding energies>  (1) 
[-6.98]

>  <Ligand effiencies>  (1) 
[-0.2492857142857143]

>  <Interactions>  (1) 
["V-A:GLU:543:CD:4908, V-B:GLU:543:C:9874, V-B:GLU:543:CB:9878, V-B:GLY:544:C:9884, V-B:ARG:545:CA:9891, H-A:LYS:547:NZ:4951, V-B:HIS:456:CE1:9040, V-B:ARG:545:CG:9894, V-A:ASP:473:CG:4240, V-A:HIS:456:CG:4066, V-A:HIS:456:CD2:4068, V-A:ASP:473:CB:4239, V-A:HIS:456:CB:4065, V-A:GLU:543:CB:4906, H-B:HIS:456:NE2:9041, V-B:ARG:545:CD:9895, V-A:TYR:484:CE1:4345, V-A:TYR:484:CZ:4347, V-B:GLY:544:CA:9886, V-A:GLU:543:CG:4907, H-B:GLU:543:O:9875, V-A:LYS:547:CD:4949, V-A:TYR:484:CD2:4344, V-A:VAL:458:CG2:4087, H-B:GLY:544:O:9885, V-A:TYR:484:CG:4342, V-A:TYR:484:CE2:4346, V-A:TYR:484:CB:4341, V-A:TYR:484:CD1:4343, V-A:ASP:473:CA:4237, V-A:ASP:473:C:4235"]

$$$$
4bh_Grossjean_2025
     RDKit          3D

 51 53  0  0  0  0  0  0  0  0999 V2000
  123.2890  131.2790   62.0730 C   0  0  0  0  0  0  0  0  0  0  0  0
  123.7590  131.8520   63.2880 O   0  0  0  0  0  0  0  0  0  0  0  0
  124.9020  131.3460   63.8800 C   0  0  0  0  0  0  0  0  0  0  0  0
  126.1760  131.9180   63.7380 C   0  0  0  0  0  0  0  0  0  0  0  0
  127.2880  131.3530   64.3630 C   0  0  0  0  0  0  0  0  0  0  0  0
  128.6550  132.0140   64.2350 C   0  0  0  0  0  0  0  0  0  0  0  0
  129.3210  131.7370   62.9620 N   0  0  0  0  0  0  0  0  0  0  0  0
  129.0260  132.3220   61.7820 C   0  0  0  0  0  0  0  0  0  0  0  0
  128.1130  133.1410   61.6590 O   0  0  0  0  0  0  0  0  0  0  0  0
  129.8280  131.8950   60.6350 C   0  0  0  0  0  0  0  0  0  0  0  0
  131.2880  130.9440   60.8850 S   0  0  0  0  0  0  0  0  0  0  0  0
  131.6160  130.9180   59.1680 C   0  0  0  0  0  0  0  0  0  0  0  0
  132.6820  130.2890   58.6740 N   0  0  0  0  0  0  0  0  0  0  0  0
  132.8290  130.3360   57.3300 C   0  0  0  0  0  0  0  0  0  0  0  0
  134.0500  129.6150   56.7880 C   0  0  0  0  0  0  0  0  0  0  0  0
  131.9430  130.9880   56.4760 C   0  0  0  0  0  0  0  0  0  0  0  0
  130.8200  131.6540   56.9910 C   0  0  0  0  0  0  0  0  0  0  0  0
  129.8720  132.3560   56.0120 C   0  0  0  0  0  0  0  0  0  0  0  0
  129.4160  133.5240   56.4710 F   0  0  0  0  0  0  0  0  0  0  0  0
  130.5060  132.5990   54.8660 F   0  0  0  0  0  0  0  0  0  0  0  0
  128.8140  131.5800   55.7750 F   0  0  0  0  0  0  0  0  0  0  0  0
  130.6370  131.6260   58.4050 C   0  0  0  0  0  0  0  0  0  0  0  0
  129.6330  132.1860   59.2760 C   0  0  0  0  0  0  0  0  0  0  0  0
  128.5780  132.9300   58.8120 N   0  0  0  0  0  0  0  0  0  0  0  0
  127.1260  130.2200   65.1620 C   0  0  0  0  0  0  0  0  0  0  0  0
  125.8650  129.6220   65.3160 C   0  0  0  0  0  0  0  0  0  0  0  0
  125.6340  128.4920   66.0790 O   0  0  0  0  0  0  0  0  0  0  0  0
  126.6960  127.9430   66.8520 C   0  0  0  0  0  0  0  0  0  0  0  0
  124.7620  130.1920   64.6640 C   0  0  0  0  0  0  0  0  0  0  0  0
  123.5180  129.6270   64.8200 O   0  0  0  0  0  0  0  0  0  0  0  0
  123.0360  129.6540   66.1560 C   0  0  0  0  0  0  0  0  0  0  0  0
  122.6064  130.4468   62.3000 H   0  0  0  0  0  0  0  0  0  0  0  0
  122.7542  132.0432   61.4899 H   0  0  0  0  0  0  0  0  0  0  0  0
  124.1431  130.9041   61.4899 H   0  0  0  0  0  0  0  0  0  0  0  0
  126.2992  132.8236   63.1259 H   0  0  0  0  0  0  0  0  0  0  0  0
  128.5258  133.1022   64.3306 H   0  0  0  0  0  0  0  0  0  0  0  0
  129.2911  131.5976   65.0300 H   0  0  0  0  0  0  0  0  0  0  0  0
  130.1350  131.1400   63.0080 H   0  0  0  0  0  0  0  0  0  0  0  0
  134.6638  129.2526   57.6258 H   0  0  0  0  0  0  0  0  0  0  0  0
  133.7288  128.7616   56.1727 H   0  0  0  0  0  0  0  0  0  0  0  0
  134.6422  130.3084   56.1727 H   0  0  0  0  0  0  0  0  0  0  0  0
  132.1244  130.9810   55.3911 H   0  0  0  0  0  0  0  0  0  0  0  0
  128.2050  132.8050   57.8810 H   0  0  0  0  0  0  0  0  0  0  0  0
  128.1410  133.6370   59.3860 H   0  0  0  0  0  0  0  0  0  0  0  0
  127.9974  129.7901   65.6776 H   0  0  0  0  0  0  0  0  0  0  0  0
  126.4693  128.0602   67.9220 H   0  0  0  0  0  0  0  0  0  0  0  0
  126.8072  126.8745   66.6156 H   0  0  0  0  0  0  0  0  0  0  0  0
  127.6321  128.4701   66.6156 H   0  0  0  0  0  0  0  0  0  0  0  0
  123.8854  129.6064   66.8533 H   0  0  0  0  0  0  0  0  0  0  0  0
  122.4749  130.5850   66.3246 H   0  0  0  0  0  0  0  0  0  0  0  0
  122.3744  128.7915   66.3246 H   0  0  0  0  0  0  0  0  0  0  0  0
  1  2  1  0
  2  3  1  0
  3  4  2  0
  4  5  1  0
  5  6  1  0
  6  7  1  0
  7  8  1  0
  8  9  2  0
  8 10  1  0
 10 11  1  0
 11 12  1  0
 12 13  2  0
 13 14  1  0
 14 15  1  0
 14 16  2  0
 16 17  1  0
 17 18  1  0
 18 19  1  0
 18 20  1  0
 18 21  1  0
 17 22  2  0
 22 23  1  0
 23 24  1  0
  5 25  2  0
 25 26  1  0
 26 27  1  0
 27 28  1  0
 26 29  2  0
 29 30  1  0
 30 31  1  0
 29  3  1  0
 23 10  2  0
 22 12  1  0
  1 32  1  0
  1 33  1  0
  1 34  1  0
  4 35  1  0
  6 36  1  0
  6 37  1  0
  7 38  1  0
 15 39  1  0
 15 40  1  0
 15 41  1  0
 16 42  1  0
 24 43  1  0
 24 44  1  0
 25 45  1  0
 28 46  1  0
 28 47  1  0
 28 48  1  0
 31 49  1  0
 31 50  1  0
 31 51  1  0
M  END
>  <Binding energies>  (1) 
[-6.88]

>  <Ligand effiencies>  (1) 
[-0.2023529411764706]

>  <Interactions>  (1) 
["V-A:PRO:540:N:4884, V-A:ASP:366:CB:3212, V-A:TYR:539:C:4867, V-A:TYR:531:CE2:4793, V-A:TYR:531:CZ:4794, V-A:ASP:366:CG:3213, V-A:ILE:538:CA:4860, V-A:LEU:363:CD1:3189, V-A:GLU:543:CD:4908, V-A:TYR:539:CE2:4876, V-A:PRO:540:CB:4885, V-A:PRO:540:CA:4883, V-A:TYR:539:CD2:4874, V-B:LEU:475:CD1:9229, V-A:ALA:541:CB:4892, H-A:ALA:541:N:4891, V-B:HIS:456:CE1:9040, V-B:ARG:545:CG:9894, H-B:TYR:484:OH:9319, H-B:ARG:545:NE:9896, V-A:GLU:543:CB:4906, H-B:GLY:454:N:9021, V-B:GLY:453:C:9013, V-B:GLY:453:CA:9015, V-B:ILE:369:CD1:8210, V-B:ARG:545:CD:9895, V-B:ARG:545:CZ:9898, V-B:GLY:454:CA:9020, H-B:ARG:545:NH2:9900, H-B:ARG:545:NH1:9899, H-A:GLU:543:OE1:4909, V-A:TYR:539:CE1:4875, V-A:TYR:539:CD1:4873, V-A:TYR:539:CZ:4877, V-A:TYR:539:CG:4872, V-A:TYR:539:CA:4869, V-B:TYR:484:CZ:9318, V-A:LEU:363:CA:3185, H-A:TYR:539:O:4868, V-A:ILE:538:C:4858, V-A:TYR:539:CB:4871"]

$$$$
4bi_Grossjean_2025
     RDKit          3D

 32 34  0  0  0  0  0  0  0  0999 V2000
  127.9100  130.2510   65.1290 C   0  0  0  0  0  0  0  0  0  0  0  0
  128.3190  128.9580   65.8100 C   0  0  0  0  0  0  0  0  0  0  0  0
  128.6980  127.8430   65.0660 C   0  0  0  0  0  0  0  0  0  0  0  0
  129.0780  126.6540   65.7100 C   0  0  0  0  0  0  0  0  0  0  0  0
  129.4950  125.4570   64.8490 C   0  0  0  0  0  0  0  0  0  0  0  0
  129.0130  124.2970   65.3000 F   0  0  0  0  0  0  0  0  0  0  0  0
  129.0460  125.6180   63.6050 F   0  0  0  0  0  0  0  0  0  0  0  0
  130.8240  125.3570   64.8280 F   0  0  0  0  0  0  0  0  0  0  0  0
  129.0530  126.6480   67.1360 C   0  0  0  0  0  0  0  0  0  0  0  0
  129.3640  125.6390   68.1190 C   0  0  0  0  0  0  0  0  0  0  0  0
  129.7750  124.3750   67.7790 N   0  0  0  0  0  0  0  0  0  0  0  0
  129.2150  126.0670   69.4490 C   0  0  0  0  0  0  0  0  0  0  0  0
  129.4310  125.3060   70.6830 C   0  0  0  0  0  0  0  0  0  0  0  0
  129.3600  125.8580   71.7830 O   0  0  0  0  0  0  0  0  0  0  0  0
  129.6870  123.9850   70.5150 N   0  0  0  0  0  0  0  0  0  0  0  0
  129.9160  123.0360   71.5030 C   0  0  0  0  0  0  0  0  0  0  0  0
  131.0890  122.9860   72.2540 C   0  0  0  0  0  0  0  0  0  0  0  0
  130.9230  121.9190   73.1080 C   0  0  0  0  0  0  0  0  0  0  0  0
  129.7110  121.3570   72.8830 O   0  0  0  0  0  0  0  0  0  0  0  0
  129.0830  122.0730   71.8620 N   0  0  0  0  0  0  0  0  0  0  0  0
  128.6580  127.7370   69.5220 S   0  0  0  0  0  0  0  0  0  0  0  0
  128.6450  127.8580   67.7780 C   0  0  0  0  0  0  0  0  0  0  0  0
  128.2860  128.9840   67.1620 N   0  0  0  0  0  0  0  0  0  0  0  0
  127.6708  131.0071   65.8913 H   0  0  0  0  0  0  0  0  0  0  0  0
  128.7377  130.6124   64.5011 H   0  0  0  0  0  0  0  0  0  0  0  0
  127.0250  130.0707   64.5011 H   0  0  0  0  0  0  0  0  0  0  0  0
  128.6997  127.8940   63.9672 H   0  0  0  0  0  0  0  0  0  0  0  0
  130.7130  124.1880   67.4550 H   0  0  0  0  0  0  0  0  0  0  0  0
  129.1480  123.5850   67.8360 H   0  0  0  0  0  0  0  0  0  0  0  0
  129.7080  123.6380   69.5670 H   0  0  0  0  0  0  0  0  0  0  0  0
  131.9594  123.6546   72.1803 H   0  0  0  0  0  0  0  0  0  0  0  0
  131.6565  121.5776   73.8532 H   0  0  0  0  0  0  0  0  0  0  0  0
  1  2  1  0
  2  3  2  0
  3  4  1  0
  4  5  1  0
  5  6  1  0
  5  7  1  0
  5  8  1  0
  4  9  2  0
  9 10  1  0
 10 11  1  0
 10 12  2  0
 12 13  1  0
 13 14  2  0
 13 15  1  0
 15 16  1  0
 16 17  1  0
 17 18  2  0
 18 19  1  0
 19 20  1  0
 12 21  1  0
 21 22  1  0
 22 23  2  0
 23  2  1  0
 22  9  1  0
 20 16  2  0
  1 24  1  0
  1 25  1  0
  1 26  1  0
  3 27  1  0
 11 28  1  0
 11 29  1  0
 15 30  1  0
 17 31  1  0
 18 32  1  0
M  END
>  <Binding energies>  (1) 
[-7.4]

>  <Ligand effiencies>  (1) 
[-0.2846153846153846]

>  <Interactions>  (1) 
["V-B:GLU:543:CD:9880, V-A:GLU:543:CD:4908, V-B:GLU:543:C:9874, V-B:GLU:543:CB:9878, V-B:HIS:456:CE1:9040, H-B:LYS:547:NZ:9923, V-A:HIS:456:CE1:4069, V-A:ASP:473:CG:4240, V-A:HIS:456:CG:4066, V-A:HIS:456:CD2:4068, V-A:ASP:473:CB:4239, V-A:HIS:456:CB:4065, V-A:GLU:543:CB:4906, H-A:HIS:456:NE2:4070, V-B:GLU:543:CG:9879, V-A:TYR:484:CE1:4345, V-B:GLU:543:CA:9876, V-A:TYR:484:CZ:4347, H-A:TYR:484:OH:4348, H-A:HIS:456:ND1:4067, H-B:GLU:543:O:9875, V-A:TYR:484:CD2:4344, V-A:TYR:484:CG:4342, V-A:TYR:484:CE2:4346, V-A:TYR:484:CB:4341, V-A:TYR:484:CD1:4343"]

$$$$
4bj_Grossjean_2025
     RDKit          3D

 32 34  0  0  0  0  0  0  0  0999 V2000
  127.7560  130.1940   65.1560 C   0  0  0  0  0  0  0  0  0  0  0  0
  128.2340  128.9200   65.8280 C   0  0  0  0  0  0  0  0  0  0  0  0
  128.6200  127.8130   65.0760 C   0  0  0  0  0  0  0  0  0  0  0  0
  129.0550  126.6390   65.7110 C   0  0  0  0  0  0  0  0  0  0  0  0
  129.4670  125.4460   64.8410 C   0  0  0  0  0  0  0  0  0  0  0  0
  129.0110  124.2800   65.3040 F   0  0  0  0  0  0  0  0  0  0  0  0
  128.9890  125.6010   63.6070 F   0  0  0  0  0  0  0  0  0  0  0  0
  130.7970  125.3640   64.7920 F   0  0  0  0  0  0  0  0  0  0  0  0
  129.0830  126.6400   67.1370 C   0  0  0  0  0  0  0  0  0  0  0  0
  129.4550  125.6450   68.1130 C   0  0  0  0  0  0  0  0  0  0  0  0
  129.8890  124.3910   67.7640 N   0  0  0  0  0  0  0  0  0  0  0  0
  129.3410  126.0760   69.4450 C   0  0  0  0  0  0  0  0  0  0  0  0
  129.6230  125.3290   70.6730 C   0  0  0  0  0  0  0  0  0  0  0  0
  129.6760  125.9040   71.7630 O   0  0  0  0  0  0  0  0  0  0  0  0
  129.7990  123.9940   70.5160 N   0  0  0  0  0  0  0  0  0  0  0  0
  130.0650  123.0650   71.5130 C   0  0  0  0  0  0  0  0  0  0  0  0
  129.3260  122.0410   71.8810 N   0  0  0  0  0  0  0  0  0  0  0  0
  129.8890  121.3630   72.8600 C   0  0  0  0  0  0  0  0  0  0  0  0
  131.1170  121.8380   73.3110 C   0  0  0  0  0  0  0  0  0  0  0  0
  131.5460  123.2520   72.3950 S   0  0  0  0  0  0  0  0  0  0  0  0
  128.7430  127.7310   69.5310 S   0  0  0  0  0  0  0  0  0  0  0  0
  128.6650  127.8420   67.7880 C   0  0  0  0  0  0  0  0  0  0  0  0
  128.2500  128.9530   67.1810 N   0  0  0  0  0  0  0  0  0  0  0  0
  127.4792  130.9318   65.9235 H   0  0  0  0  0  0  0  0  0  0  0  0
  128.5621  130.6023   64.5287 H   0  0  0  0  0  0  0  0  0  0  0  0
  126.8803  129.9713   64.5287 H   0  0  0  0  0  0  0  0  0  0  0  0
  128.5838  127.8589   63.9776 H   0  0  0  0  0  0  0  0  0  0  0  0
  130.8280  124.2220   67.4360 H   0  0  0  0  0  0  0  0  0  0  0  0
  129.2750  123.5890   67.8190 H   0  0  0  0  0  0  0  0  0  0  0  0
  129.7260  123.6240   69.5800 H   0  0  0  0  0  0  0  0  0  0  0  0
  129.4152  120.4714   73.2966 H   0  0  0  0  0  0  0  0  0  0  0  0
  131.7185  121.3913   74.1163 H   0  0  0  0  0  0  0  0  0  0  0  0
  1  2  1  0
  2  3  2  0
  3  4  1  0
  4  5  1  0
  5  6  1  0
  5  7  1  0
  5  8  1  0
  4  9  2  0
  9 10  1  0
 10 11  1  0
 10 12  2  0
 12 13  1  0
 13 14  2  0
 13 15  1  0
 15 16  1  0
 16 17  2  0
 17 18  1  0
 18 19  2  0
 19 20  1  0
 12 21  1  0
 21 22  1  0
 22 23  2  0
 23  2  1  0
 22  9  1  0
 20 16  1  0
  1 24  1  0
  1 25  1  0
  1 26  1  0
  3 27  1  0
 11 28  1  0
 11 29  1  0
 15 30  1  0
 18 31  1  0
 19 32  1  0
M  END
>  <Binding energies>  (1) 
[-6.52]

>  <Ligand effiencies>  (1) 
[-0.25076923076923074]

>  <Interactions>  (1) 
["V-B:GLU:543:CD:9880, V-A:GLU:543:CD:4908, V-B:GLU:543:C:9874, V-B:GLU:543:CB:9878, V-B:HIS:456:CE1:9040, H-B:LYS:547:NZ:9923, V-A:HIS:456:CE1:4069, V-A:ASP:473:CG:4240, V-A:HIS:456:CG:4066, V-A:HIS:456:CD2:4068, V-A:ASP:473:CB:4239, V-A:HIS:456:CB:4065, V-A:GLU:543:CB:4906, H-A:HIS:456:NE2:4070, V-B:GLU:543:CG:9879, V-A:TYR:484:CE1:4345, V-B:GLU:543:CA:9876, V-A:TYR:484:CZ:4347, H-A:TYR:484:OH:4348, V-B:LYS:547:CE:9922, H-A:HIS:456:ND1:4067, H-B:GLU:543:O:9875, V-A:TYR:484:CD2:4344, V-A:TYR:484:CG:4342, V-A:TYR:484:CE2:4346, V-A:TYR:484:CB:4341, V-A:TYR:484:CD1:4343"]

$$$$
4bk_Grossjean_2025
     RDKit          3D

 50 51  0  0  0  0  0  0  0  0999 V2000
  134.5770  125.0100   66.2770 C   0  0  0  0  0  0  0  0  0  0  0  0
  134.1460  124.7630   64.9470 O   0  0  0  0  0  0  0  0  0  0  0  0
  132.9170  125.3990   64.6230 C   0  0  0  0  0  0  0  0  0  0  0  0
  131.7640  124.4010   64.7920 C   0  0  0  0  0  0  0  0  0  0  0  0
  130.8740  124.8730   65.7940 O   0  0  0  0  0  0  0  0  0  0  0  0
  130.1930  126.0690   65.4400 C   0  0  0  0  0  0  0  0  0  0  0  0
  129.5860  126.7030   66.6990 C   0  0  0  0  0  0  0  0  0  0  0  0
  128.3760  126.0330   67.0250 O   0  0  0  0  0  0  0  0  0  0  0  0
  127.2370  126.8850   67.0520 C   0  0  0  0  0  0  0  0  0  0  0  0
  126.6540  126.9120   68.4760 C   0  0  0  0  0  0  0  0  0  0  0  0
  127.6300  126.5890   69.5170 N   0  0  0  0  0  0  0  0  0  0  0  0
  127.4800  126.8460   70.8330 C   0  0  0  0  0  0  0  0  0  0  0  0
  126.4660  127.3750   71.2910 O   0  0  0  0  0  0  0  0  0  0  0  0
  128.5940  126.4500   71.6970 C   0  0  0  0  0  0  0  0  0  0  0  0
  129.2270  127.5770   72.8940 S   0  0  0  0  0  0  0  0  0  0  0  0
  130.3950  126.4010   73.4480 C   0  0  0  0  0  0  0  0  0  0  0  0
  131.2510  126.6790   74.4300 N   0  0  0  0  0  0  0  0  0  0  0  0
  132.1060  125.6880   74.7720 C   0  0  0  0  0  0  0  0  0  0  0  0
  133.0700  126.0270   75.8950 C   0  0  0  0  0  0  0  0  0  0  0  0
  132.1250  124.4370   74.1610 C   0  0  0  0  0  0  0  0  0  0  0  0
  131.2280  124.1370   73.1250 C   0  0  0  0  0  0  0  0  0  0  0  0
  131.2900  122.7490   72.4810 C   0  0  0  0  0  0  0  0  0  0  0  0
  130.4030  121.8940   72.9960 F   0  0  0  0  0  0  0  0  0  0  0  0
  131.0400  122.8460   71.1750 F   0  0  0  0  0  0  0  0  0  0  0  0
  132.5010  122.2220   72.6590 F   0  0  0  0  0  0  0  0  0  0  0  0
  130.3110  125.1610   72.7400 C   0  0  0  0  0  0  0  0  0  0  0  0
  129.2670  125.2200   71.7480 C   0  0  0  0  0  0  0  0  0  0  0  0
  128.9640  124.1660   70.9250 N   0  0  0  0  0  0  0  0  0  0  0  0
  133.8454  124.5907   66.9834 H   0  0  0  0  0  0  0  0  0  0  0  0
  135.5564  124.5361   66.4391 H   0  0  0  0  0  0  0  0  0  0  0  0
  134.6632  126.0946   66.4391 H   0  0  0  0  0  0  0  0  0  0  0  0
  132.7604  126.2570   65.2933 H   0  0  0  0  0  0  0  0  0  0  0  0
  132.9491  125.7488   63.5806 H   0  0  0  0  0  0  0  0  0  0  0  0
  131.2236  124.2999   63.8393 H   0  0  0  0  0  0  0  0  0  0  0  0
  132.1666  123.4217   65.0900 H   0  0  0  0  0  0  0  0  0  0  0  0
  130.9026  126.7729   64.9805 H   0  0  0  0  0  0  0  0  0  0  0  0
  129.3916  125.8366   64.7233 H   0  0  0  0  0  0  0  0  0  0  0  0
  130.2944  126.6101   67.5354 H   0  0  0  0  0  0  0  0  0  0  0  0
  129.3795  127.7673   66.5129 H   0  0  0  0  0  0  0  0  0  0  0  0
  127.5325  127.9026   66.7569 H   0  0  0  0  0  0  0  0  0  0  0  0
  126.4782  126.5072   66.3509 H   0  0  0  0  0  0  0  0  0  0  0  0
  126.2593  127.9201   68.6707 H   0  0  0  0  0  0  0  0  0  0  0  0
  125.8717  126.1399   68.5179 H   0  0  0  0  0  0  0  0  0  0  0  0
  128.4850  126.1530   69.2050 H   0  0  0  0  0  0  0  0  0  0  0  0
  132.5792  125.8544   76.8642 H   0  0  0  0  0  0  0  0  0  0  0  0
  133.9626  125.3888   75.8172 H   0  0  0  0  0  0  0  0  0  0  0  0
  133.3667  127.0834   75.8172 H   0  0  0  0  0  0  0  0  0  0  0  0
  132.8488  123.6782   74.4932 H   0  0  0  0  0  0  0  0  0  0  0  0
  129.4750  123.9890   70.0710 H   0  0  0  0  0  0  0  0  0  0  0  0
  128.2170  123.5220   71.1490 H   0  0  0  0  0  0  0  0  0  0  0  0
  1  2  1  0
  2  3  1  0
  3  4  1  0
  4  5  1  0
  5  6  1  0
  6  7  1  0
  7  8  1  0
  8  9  1  0
  9 10  1  0
 10 11  1  0
 11 12  1  0
 12 13  2  0
 12 14  1  0
 14 15  1  0
 15 16  1  0
 16 17  2  0
 17 18  1  0
 18 19  1  0
 18 20  2  0
 20 21  1  0
 21 22  1  0
 22 23  1  0
 22 24  1  0
 22 25  1  0
 21 26  2  0
 26 27  1  0
 27 28  1  0
 27 14  2  0
 26 16  1  0
  1 29  1  0
  1 30  1  0
  1 31  1  0
  3 32  1  0
  3 33  1  0
  4 34  1  0
  4 35  1  0
  6 36  1  0
  6 37  1  0
  7 38  1  0
  7 39  1  0
  9 40  1  0
  9 41  1  0
 10 42  1  0
 10 43  1  0
 11 44  1  0
 19 45  1  0
 19 46  1  0
 19 47  1  0
 20 48  1  0
 28 49  1  0
 28 50  1  0
M  END
>  <Binding energies>  (1) 
[-5.62]

>  <Ligand effiencies>  (1) 
[-0.18129032258064517]

>  <Interactions>  (1) 
["V-B:GLU:543:CD:9880, V-A:GLU:543:CD:4908, V-B:GLU:543:C:9874, V-B:GLU:543:CB:9878, V-B:GLY:544:C:9884, V-B:ARG:545:CA:9891, H-A:LYS:547:NZ:4951, V-B:HIS:456:CE1:9040, V-B:ARG:545:CG:9894, V-A:HIS:456:CE1:4069, V-A:ASP:473:CG:4240, V-A:HIS:456:CG:4066, V-A:HIS:456:CD2:4068, V-A:ASP:473:CB:4239, V-A:HIS:456:CB:4065, H-B:HIS:456:NE2:9041, H-A:GLY:454:N:4050, V-A:TYR:484:CE1:4345, V-A:GLY:453:C:4042, V-A:TYR:484:CZ:4347, H-A:TYR:484:OH:4348, V-B:GLY:544:CA:9886, H-A:ARG:545:NE:4924, V-A:ARG:545:CZ:4926, V-A:GLY:453:CA:4044, V-A:ARG:545:CD:4923, H-B:GLU:543:O:9875, V-A:LYS:547:CD:4949, V-A:TYR:484:CD2:4344, V-A:VAL:458:CG2:4087, V-A:ARG:545:CG:4922, H-B:GLY:544:O:9885, V-A:TYR:484:CG:4342, V-A:TYR:484:CE2:4346, V-A:TYR:484:CB:4341, V-A:TYR:484:CD1:4343, V-A:ASP:473:CA:4237, V-A:ASP:473:C:4235"]

$$$$
4ca_Grossjean_2025
     RDKit          3D

 52 55  0  0  0  0  0  0  0  0999 V2000
  126.4470  124.2350   54.6790 C   0  0  0  0  0  0  0  0  0  0  0  0
  127.6130  123.2420   54.6690 C   0  0  0  0  0  0  0  0  0  0  0  0
  127.4110  122.2650   55.6830 O   0  0  0  0  0  0  0  0  0  0  0  0
  126.3950  122.3810   56.5770 C   0  0  0  0  0  0  0  0  0  0  0  0
  125.2170  122.1290   56.3040 O   0  0  0  0  0  0  0  0  0  0  0  0
  126.8480  122.8430   57.9310 C   0  0  0  0  0  0  0  0  0  0  0  0
  125.9950  123.6450   58.7010 C   0  0  0  0  0  0  0  0  0  0  0  0
  126.3850  124.0850   59.9630 C   0  0  0  0  0  0  0  0  0  0  0  0
  127.6350  123.7410   60.4780 C   0  0  0  0  0  0  0  0  0  0  0  0
  127.9220  124.2330   61.7660 N   0  0  0  0  0  0  0  0  0  0  0  0
  129.1100  124.3570   62.4070 C   0  0  0  0  0  0  0  0  0  0  0  0
  130.2000  124.0820   61.9040 O   0  0  0  0  0  0  0  0  0  0  0  0
  129.0310  124.8740   63.7750 C   0  0  0  0  0  0  0  0  0  0  0  0
  129.5090  123.8590   65.1340 S   0  0  0  0  0  0  0  0  0  0  0  0
  129.1800  125.1470   66.2690 C   0  0  0  0  0  0  0  0  0  0  0  0
  129.3670  124.9840   67.5770 N   0  0  0  0  0  0  0  0  0  0  0  0
  129.0980  126.0450   68.3800 C   0  0  0  0  0  0  0  0  0  0  0  0
  129.3280  125.8330   69.8490 C   0  0  0  0  0  0  0  0  0  0  0  0
  129.7920  124.5990   70.3330 C   0  0  0  0  0  0  0  0  0  0  0  0
  130.0020  124.3950   71.6940 C   0  0  0  0  0  0  0  0  0  0  0  0
  129.7490  125.4250   72.5940 C   0  0  0  0  0  0  0  0  0  0  0  0
  129.2860  126.6560   72.1420 C   0  0  0  0  0  0  0  0  0  0  0  0
  129.0770  126.8560   70.7800 C   0  0  0  0  0  0  0  0  0  0  0  0
  128.6210  127.2570   67.8690 C   0  0  0  0  0  0  0  0  0  0  0  0
  128.4160  127.4370   66.4920 C   0  0  0  0  0  0  0  0  0  0  0  0
  127.8940  128.7930   66.0000 C   0  0  0  0  0  0  0  0  0  0  0  0
  126.6110  128.7590   65.6370 F   0  0  0  0  0  0  0  0  0  0  0  0
  128.0110  129.7000   66.9690 F   0  0  0  0  0  0  0  0  0  0  0  0
  128.5980  129.1880   64.9390 F   0  0  0  0  0  0  0  0  0  0  0  0
  128.7120  126.3360   65.6390 C   0  0  0  0  0  0  0  0  0  0  0  0
  128.6390  126.1510   64.2100 C   0  0  0  0  0  0  0  0  0  0  0  0
  128.2200  127.1390   63.3560 N   0  0  0  0  0  0  0  0  0  0  0  0
  128.4930  122.9340   59.7170 C   0  0  0  0  0  0  0  0  0  0  0  0
  128.1010  122.4930   58.4560 C   0  0  0  0  0  0  0  0  0  0  0  0
  126.1730  124.4683   55.7185 H   0  0  0  0  0  0  0  0  0  0  0  0
  126.7476  125.1587   54.1629 H   0  0  0  0  0  0  0  0  0  0  0  0
  125.5829  123.7911   54.1629 H   0  0  0  0  0  0  0  0  0  0  0  0
  127.6651  122.7472   53.6879 H   0  0  0  0  0  0  0  0  0  0  0  0
  128.5542  123.7789   54.8587 H   0  0  0  0  0  0  0  0  0  0  0  0
  125.0089  123.9293   58.3050 H   0  0  0  0  0  0  0  0  0  0  0  0
  125.7022  124.7087   60.5586 H   0  0  0  0  0  0  0  0  0  0  0  0
  127.1120  124.5490   62.2770 H   0  0  0  0  0  0  0  0  0  0  0  0
  129.9926  123.7808   69.6256 H   0  0  0  0  0  0  0  0  0  0  0  0
  130.3668  123.4226   72.0565 H   0  0  0  0  0  0  0  0  0  0  0  0
  129.9161  125.2649   73.6694 H   0  0  0  0  0  0  0  0  0  0  0  0
  129.0859  127.4677   72.8569 H   0  0  0  0  0  0  0  0  0  0  0  0
  128.7094  127.8307   70.4266 H   0  0  0  0  0  0  0  0  0  0  0  0
  128.4024  128.0848   68.5596 H   0  0  0  0  0  0  0  0  0  0  0  0
  127.2400  127.3100   63.1750 H   0  0  0  0  0  0  0  0  0  0  0  0
  128.8800  127.7360   62.8760 H   0  0  0  0  0  0  0  0  0  0  0  0
  129.4773  122.6490   60.1170 H   0  0  0  0  0  0  0  0  0  0  0  0
  128.7815  121.8629   57.8645 H   0  0  0  0  0  0  0  0  0  0  0  0
  1  2  1  0
  2  3  1  0
  3  4  1  0
  4  5  2  0
  4  6  1  0
  6  7  2  0
  7  8  1  0
  8  9  2  0
  9 10  1  0
 10 11  1  0
 11 12  2  0
 11 13  1  0
 13 14  1  0
 14 15  1  0
 15 16  2  0
 16 17  1  0
 17 18  1  0
 18 19  2  0
 19 20  1  0
 20 21  2  0
 21 22  1  0
 22 23  2  0
 17 24  2  0
 24 25  1  0
 25 26  1  0
 26 27  1  0
 26 28  1  0
 26 29  1  0
 25 30  2  0
 30 31  1  0
 31 32  1  0
  9 33  1  0
 33 34  2  0
 34  6  1  0
 31 13  2  0
 30 15  1  0
 23 18  1  0
  1 35  1  0
  1 36  1  0
  1 37  1  0
  2 38  1  0
  2 39  1  0
  7 40  1  0
  8 41  1  0
 10 42  1  0
 19 43  1  0
 20 44  1  0
 21 45  1  0
 22 46  1  0
 23 47  1  0
 24 48  1  0
 32 49  1  0
 32 50  1  0
 33 51  1  0
 34 52  1  0
M  END
>  <Binding energies>  (1) 
[-8.24]

>  <Ligand effiencies>  (1) 
[-0.2227027027027027]

>  <Interactions>  (1) 
["V-B:PRO:540:CD:9859, V-B:GLU:543:CD:9880, V-B:ILE:538:CB:9834, V-B:TYR:539:CE2:9848, V-B:TYR:539:CD2:9846, V-B:PRO:540:CB:9857, V-B:PRO:540:N:9856, V-B:TYR:539:C:9839, V-B:PRO:540:CA:9855, V-B:TYR:539:CZ:9849, H-B:GLU:543:OE2:9882, V-A:GLU:543:CD:4908, V-B:ILE:538:CG2:9835, V-B:TYR:539:CA:9841, V-B:TYR:539:CG:9844, H-B:TYR:539:N:9842, V-B:GLU:543:CB:9878, V-B:HIS:456:CE1:9040, V-A:HIS:456:CE1:4069, V-A:HIS:456:CG:4066, V-A:HIS:456:CD2:4068, H-B:GLU:543:OE1:9881, V-A:GLU:543:CB:4906, V-B:GLU:543:CG:9879, V-A:TYR:484:CE1:4345, V-B:GLU:543:CA:9876, V-A:TYR:484:CZ:4347, H-A:TYR:484:OH:4348, H-A:GLU:543:OE1:4909, V-B:TYR:484:CZ:9318, V-A:GLU:543:CG:4907, V-B:TYR:484:CE1:9316, V-B:ILE:538:CA:9832, V-B:TYR:539:CE1:9847, V-B:TYR:539:CD1:9845"]

$$$$
4cb_Grossjean_2025
     RDKit          3D

 49 52  0  0  0  0  0  0  0  0999 V2000
  127.6440  124.1210   54.6430 C   0  0  0  0  0  0  0  0  0  0  0  0
  127.9230  123.0700   55.5570 O   0  0  0  0  0  0  0  0  0  0  0  0
  126.9900  122.6590   56.4550 C   0  0  0  0  0  0  0  0  0  0  0  0
  125.9690  122.0390   56.1410 O   0  0  0  0  0  0  0  0  0  0  0  0
  127.3240  123.0330   57.8710 C   0  0  0  0  0  0  0  0  0  0  0  0
  127.1080  124.3490   58.3000 C   0  0  0  0  0  0  0  0  0  0  0  0
  127.3990  124.7250   59.6080 C   0  0  0  0  0  0  0  0  0  0  0  0
  127.9190  123.7970   60.5110 C   0  0  0  0  0  0  0  0  0  0  0  0
  128.1640  124.2810   61.8110 N   0  0  0  0  0  0  0  0  0  0  0  0
  129.3130  124.3150   62.5280 C   0  0  0  0  0  0  0  0  0  0  0  0
  130.4070  123.9410   62.1000 O   0  0  0  0  0  0  0  0  0  0  0  0
  129.1900  124.8570   63.8840 C   0  0  0  0  0  0  0  0  0  0  0  0
  129.7110  123.9030   65.2710 S   0  0  0  0  0  0  0  0  0  0  0  0
  129.2950  125.1940   66.3730 C   0  0  0  0  0  0  0  0  0  0  0  0
  129.4740  125.0730   67.6860 N   0  0  0  0  0  0  0  0  0  0  0  0
  129.1310  126.1340   68.4620 C   0  0  0  0  0  0  0  0  0  0  0  0
  129.3510  125.9680   69.9380 C   0  0  0  0  0  0  0  0  0  0  0  0
  129.1500  127.0440   70.8180 C   0  0  0  0  0  0  0  0  0  0  0  0
  129.3560  126.8990   72.1870 C   0  0  0  0  0  0  0  0  0  0  0  0
  129.7660  125.6710   72.6980 C   0  0  0  0  0  0  0  0  0  0  0  0
  129.9740  124.5900   71.8470 C   0  0  0  0  0  0  0  0  0  0  0  0
  129.7690  124.7410   70.4790 C   0  0  0  0  0  0  0  0  0  0  0  0
  128.5890  127.3020   67.9160 C   0  0  0  0  0  0  0  0  0  0  0  0
  128.3920  127.4400   66.5340 C   0  0  0  0  0  0  0  0  0  0  0  0
  127.7950  128.7490   66.0030 C   0  0  0  0  0  0  0  0  0  0  0  0
  127.7620  129.7180   66.9200 F   0  0  0  0  0  0  0  0  0  0  0  0
  128.5250  129.1940   64.9800 F   0  0  0  0  0  0  0  0  0  0  0  0
  126.5440  128.5420   65.5940 F   0  0  0  0  0  0  0  0  0  0  0  0
  128.7640  126.3390   65.7090 C   0  0  0  0  0  0  0  0  0  0  0  0
  128.7210  126.1190   64.2840 C   0  0  0  0  0  0  0  0  0  0  0  0
  128.2590  127.0630   63.4030 N   0  0  0  0  0  0  0  0  0  0  0  0
  128.1360  122.4760   60.0910 C   0  0  0  0  0  0  0  0  0  0  0  0
  127.8420  122.1020   58.7830 C   0  0  0  0  0  0  0  0  0  0  0  0
  127.4008  125.0372   55.2010 H   0  0  0  0  0  0  0  0  0  0  0  0
  128.5257  124.3003   54.0101 H   0  0  0  0  0  0  0  0  0  0  0  0
  126.7895  123.8394   54.0101 H   0  0  0  0  0  0  0  0  0  0  0  0
  126.7046  125.0921   57.5964 H   0  0  0  0  0  0  0  0  0  0  0  0
  127.2179  125.7605   59.9321 H   0  0  0  0  0  0  0  0  0  0  0  0
  127.3500  124.6680   62.2660 H   0  0  0  0  0  0  0  0  0  0  0  0
  128.8248  128.0162   70.4193 H   0  0  0  0  0  0  0  0  0  0  0  0
  129.1953  127.7520   72.8627 H   0  0  0  0  0  0  0  0  0  0  0  0
  129.9264  125.5545   73.7800 H   0  0  0  0  0  0  0  0  0  0  0  0
  130.2989  123.6209   72.2536 H   0  0  0  0  0  0  0  0  0  0  0  0
  129.9372  123.8845   69.8096 H   0  0  0  0  0  0  0  0  0  0  0  0
  128.3113  128.1301   68.5846 H   0  0  0  0  0  0  0  0  0  0  0  0
  127.2740  127.1850   63.2190 H   0  0  0  0  0  0  0  0  0  0  0  0
  128.8930  127.6740   62.9070 H   0  0  0  0  0  0  0  0  0  0  0  0
  128.5392  121.7347   60.7966 H   0  0  0  0  0  0  0  0  0  0  0  0
  128.0178  121.0650   58.4611 H   0  0  0  0  0  0  0  0  0  0  0  0
  1  2  1  0
  2  3  1  0
  3  4  2  0
  3  5  1  0
  5  6  2  0
  6  7  1  0
  7  8  2  0
  8  9  1  0
  9 10  1  0
 10 11  2  0
 10 12  1  0
 12 13  1  0
 13 14  1  0
 14 15  2  0
 15 16  1  0
 16 17  1  0
 17 18  2  0
 18 19  1  0
 19 20  2  0
 20 21  1  0
 21 22  2  0
 16 23  2  0
 23 24  1  0
 24 25  1  0
 25 26  1  0
 25 27  1  0
 25 28  1  0
 24 29  2  0
 29 30  1  0
 30 31  1  0
  8 32  1  0
 32 33  2  0
 33  5  1  0
 30 12  2  0
 29 14  1  0
 22 17  1  0
  1 34  1  0
  1 35  1  0
  1 36  1  0
  6 37  1  0
  7 38  1  0
  9 39  1  0
 18 40  1  0
 19 41  1  0
 20 42  1  0
 21 43  1  0
 22 44  1  0
 23 45  1  0
 31 46  1  0
 31 47  1  0
 32 48  1  0
 33 49  1  0
M  END
>  <Binding energies>  (1) 
[-7.67]

>  <Ligand effiencies>  (1) 
[-0.21305555555555555]

>  <Interactions>  (1) 
["V-B:GLU:543:CD:9880, V-B:TYR:539:CE2:9848, V-B:TYR:539:CD2:9846, V-B:PRO:540:N:9856, V-B:TYR:539:C:9839, V-B:PRO:540:CA:9855, H-B:GLU:543:OE2:9882, V-A:GLU:543:CD:4908, V-B:TYR:539:CG:9844, H-B:TYR:539:OH:9850, H-B:TYR:539:N:9842, V-B:GLU:543:CB:9878, V-B:HIS:456:CE1:9040, V-A:HIS:456:CE1:4069, V-A:HIS:456:CG:4066, V-A:HIS:456:CD2:4068, H-B:GLU:543:OE1:9881, V-A:GLU:543:CB:4906, V-B:GLU:543:CG:9879, V-A:TYR:484:CE1:4345, V-B:GLU:543:CA:9876, H-A:TYR:484:OH:4348, H-A:GLU:543:OE1:4909, V-B:TYR:484:CZ:9318, V-A:GLU:543:CG:4907, V-B:TYR:484:CE1:9316, V-B:TYR:539:CE1:9847"]

$$$$
4cc_Grossjean_2025
     RDKit          3D

 47 50  0  0  0  0  0  0  0  0999 V2000
  129.4600  125.0840   70.4170 C   0  0  0  0  0  0  0  0  0  0  0  0
  128.3170  125.9070   70.2160 O   0  0  0  0  0  0  0  0  0  0  0  0
  128.2060  126.6340   69.0460 C   0  0  0  0  0  0  0  0  0  0  0  0
  129.3070  127.4110   68.6900 C   0  0  0  0  0  0  0  0  0  0  0  0
  129.2890  128.1760   67.5270 C   0  0  0  0  0  0  0  0  0  0  0  0
  128.1590  128.1820   66.7070 C   0  0  0  0  0  0  0  0  0  0  0  0
  128.2380  128.9720   65.5450 N   0  0  0  0  0  0  0  0  0  0  0  0
  127.2510  129.6170   64.8780 C   0  0  0  0  0  0  0  0  0  0  0  0
  126.0730  129.6340   65.2400 O   0  0  0  0  0  0  0  0  0  0  0  0
  127.6680  130.3210   63.6610 C   0  0  0  0  0  0  0  0  0  0  0  0
  128.6880  129.5110   62.4730 S   0  0  0  0  0  0  0  0  0  0  0  0
  128.6920  130.9260   61.4470 C   0  0  0  0  0  0  0  0  0  0  0  0
  129.3500  130.9430   60.2900 N   0  0  0  0  0  0  0  0  0  0  0  0
  129.2880  132.0850   59.5570 C   0  0  0  0  0  0  0  0  0  0  0  0
  130.0410  132.0760   58.2590 C   0  0  0  0  0  0  0  0  0  0  0  0
  131.3250  131.5120   58.1770 C   0  0  0  0  0  0  0  0  0  0  0  0
  132.0300  131.5010   56.9770 C   0  0  0  0  0  0  0  0  0  0  0  0
  131.4600  132.0570   55.8360 C   0  0  0  0  0  0  0  0  0  0  0  0
  130.1920  132.6250   55.8900 C   0  0  0  0  0  0  0  0  0  0  0  0
  129.4900  132.6340   57.0930 C   0  0  0  0  0  0  0  0  0  0  0  0
  128.5800  133.2080   59.9970 C   0  0  0  0  0  0  0  0  0  0  0  0
  127.8850  133.2010   61.2170 C   0  0  0  0  0  0  0  0  0  0  0  0
  127.1250  134.4660   61.6340 C   0  0  0  0  0  0  0  0  0  0  0  0
  127.5090  134.9400   62.8220 F   0  0  0  0  0  0  0  0  0  0  0  0
  127.3260  135.4300   60.7360 F   0  0  0  0  0  0  0  0  0  0  0  0
  125.8210  134.2030   61.7120 F   0  0  0  0  0  0  0  0  0  0  0  0
  127.9360  132.0060   61.9900 C   0  0  0  0  0  0  0  0  0  0  0  0
  127.3640  131.6310   63.2600 C   0  0  0  0  0  0  0  0  0  0  0  0
  126.5900  132.4850   64.0050 N   0  0  0  0  0  0  0  0  0  0  0  0
  127.0520  127.3930   67.0520 C   0  0  0  0  0  0  0  0  0  0  0  0
  127.0750  126.6290   68.2150 C   0  0  0  0  0  0  0  0  0  0  0  0
  129.6357  124.9575   71.4955 H   0  0  0  0  0  0  0  0  0  0  0  0
  129.2892  124.1002   69.9555 H   0  0  0  0  0  0  0  0  0  0  0  0
  130.3388  125.5580   69.9555 H   0  0  0  0  0  0  0  0  0  0  0  0
  130.1986  127.4198   69.3341 H   0  0  0  0  0  0  0  0  0  0  0  0
  130.1681  128.7778   67.2532 H   0  0  0  0  0  0  0  0  0  0  0  0
  129.1730  129.0910   65.1830 H   0  0  0  0  0  0  0  0  0  0  0  0
  131.7808  131.0718   59.0761 H   0  0  0  0  0  0  0  0  0  0  0  0
  133.0342  131.0544   56.9308 H   0  0  0  0  0  0  0  0  0  0  0  0
  132.0153  132.0472   54.8865 H   0  0  0  0  0  0  0  0  0  0  0  0
  129.7451  133.0654   54.9865 H   0  0  0  0  0  0  0  0  0  0  0  0
  128.4876  133.0854   57.1309 H   0  0  0  0  0  0  0  0  0  0  0  0
  128.5674  134.1150   59.3748 H   0  0  0  0  0  0  0  0  0  0  0  0
  126.2220  132.2210   64.9080 H   0  0  0  0  0  0  0  0  0  0  0  0
  126.3600  133.4100   63.6720 H   0  0  0  0  0  0  0  0  0  0  0  0
  126.1644  127.3780   66.4025 H   0  0  0  0  0  0  0  0  0  0  0  0
  126.2013  126.0174   68.4846 H   0  0  0  0  0  0  0  0  0  0  0  0
  1  2  1  0
  2  3  1  0
  3  4  2  0
  4  5  1  0
  5  6  2  0
  6  7  1  0
  7  8  1  0
  8  9  2  0
  8 10  1  0
 10 11  1  0
 11 12  1  0
 12 13  2  0
 13 14  1  0
 14 15  1  0
 15 16  2  0
 16 17  1  0
 17 18  2  0
 18 19  1  0
 19 20  2  0
 14 21  2  0
 21 22  1  0
 22 23  1  0
 23 24  1  0
 23 25  1  0
 23 26  1  0
 22 27  2  0
 27 28  1  0
 28 29  1  0
  6 30  1  0
 30 31  2  0
 31  3  1  0
 28 10  2  0
 27 12  1  0
 20 15  1  0
  1 32  1  0
  1 33  1  0
  1 34  1  0
  4 35  1  0
  5 36  1  0
  7 37  1  0
 16 38  1  0
 17 39  1  0
 18 40  1  0
 19 41  1  0
 20 42  1  0
 21 43  1  0
 29 44  1  0
 29 45  1  0
 30 46  1  0
 31 47  1  0
M  END
>  <Binding energies>  (1) 
[-7.32]

>  <Ligand effiencies>  (1) 
[-0.21529411764705883]

>  <Interactions>  (1) 
["V-A:PRO:540:N:4884, V-A:TYR:539:C:4867, V-B:PRO:482:CB:9297, V-A:LEU:363:CD1:3189, V-A:GLU:543:CD:4908, V-A:TYR:539:CE2:4876, V-B:PRO:482:CG:9298, V-A:PRO:540:CB:4885, V-A:PRO:540:CA:4883, V-A:TYR:539:CD2:4874, V-B:LEU:475:CD1:9229, V-A:ALA:541:CB:4892, V-B:GLU:543:C:9874, V-B:GLU:543:CB:9878, V-B:HIS:456:CE1:9040, V-A:HIS:456:CE1:4069, V-A:HIS:456:CD2:4068, H-B:TYR:484:OH:9319, V-A:GLU:543:CB:4906, V-B:TRP:381:CH2:8343, H-A:GLU:543:OE2:4910, H-A:GLU:543:OE1:4909, V-A:TYR:539:CE1:4875, V-A:TYR:539:CD1:4873, V-A:TYR:539:CZ:4877, V-A:TYR:539:CG:4872, V-A:TYR:539:CA:4869, V-A:GLU:543:CG:4907, V-A:ALA:541:CA:4890, V-B:LEU:475:CG:9228, V-B:LEU:475:CD2:9230"]

$$$$
4cd_Grossjean_2025
     RDKit          3D

 43 46  0  0  0  0  0  0  0  0999 V2000
  126.5340  132.4610   63.9240 N   0  0  0  0  0  0  0  0  0  0  0  0
  127.3450  131.6190   63.2060 C   0  0  0  0  0  0  0  0  0  0  0  0
  127.6840  130.3260   63.6360 C   0  0  0  0  0  0  0  0  0  0  0  0
  127.2910  129.6410   64.8710 C   0  0  0  0  0  0  0  0  0  0  0  0
  126.2670  129.9680   65.4710 O   0  0  0  0  0  0  0  0  0  0  0  0
  128.1200  128.6470   65.2730 N   0  0  0  0  0  0  0  0  0  0  0  0
  128.0600  127.8400   66.4250 C   0  0  0  0  0  0  0  0  0  0  0  0
  129.2880  127.4940   66.9950 C   0  0  0  0  0  0  0  0  0  0  0  0
  129.3330  126.7100   68.1440 C   0  0  0  0  0  0  0  0  0  0  0  0
  128.1470  126.2750   68.7290 C   0  0  0  0  0  0  0  0  0  0  0  0
  126.9160  126.6240   68.1790 C   0  0  0  0  0  0  0  0  0  0  0  0
  126.8670  127.4090   67.0290 C   0  0  0  0  0  0  0  0  0  0  0  0
  128.7310  129.5220   62.4680 S   0  0  0  0  0  0  0  0  0  0  0  0
  128.7140  130.9210   61.4210 C   0  0  0  0  0  0  0  0  0  0  0  0
  129.3850  130.9370   60.2720 N   0  0  0  0  0  0  0  0  0  0  0  0
  129.3230  132.0750   59.5320 C   0  0  0  0  0  0  0  0  0  0  0  0
  130.0920  132.0650   58.2430 C   0  0  0  0  0  0  0  0  0  0  0  0
  131.3720  131.4920   58.1750 C   0  0  0  0  0  0  0  0  0  0  0  0
  132.0910  131.4780   56.9820 C   0  0  0  0  0  0  0  0  0  0  0  0
  131.5360  132.0390   55.8370 C   0  0  0  0  0  0  0  0  0  0  0  0
  130.2690  132.6090   55.8760 C   0  0  0  0  0  0  0  0  0  0  0  0
  129.5530  132.6190   57.0690 C   0  0  0  0  0  0  0  0  0  0  0  0
  128.5720  133.1820   59.9400 C   0  0  0  0  0  0  0  0  0  0  0  0
  127.8570  133.1740   61.1490 C   0  0  0  0  0  0  0  0  0  0  0  0
  127.0580  134.4230   61.5370 C   0  0  0  0  0  0  0  0  0  0  0  0
  127.1600  135.4090   60.6430 F   0  0  0  0  0  0  0  0  0  0  0  0
  125.7660  134.1160   61.6470 F   0  0  0  0  0  0  0  0  0  0  0  0
  127.4990  134.8960   62.7030 F   0  0  0  0  0  0  0  0  0  0  0  0
  127.9250  131.9910   61.9380 C   0  0  0  0  0  0  0  0  0  0  0  0
  126.1210  132.1830   64.8030 H   0  0  0  0  0  0  0  0  0  0  0  0
  126.3240  133.3940   63.5970 H   0  0  0  0  0  0  0  0  0  0  0  0
  128.8920  128.4360   64.6580 H   0  0  0  0  0  0  0  0  0  0  0  0
  130.2235  127.8429   66.5334 H   0  0  0  0  0  0  0  0  0  0  0  0
  130.3013  126.4353   68.5879 H   0  0  0  0  0  0  0  0  0  0  0  0
  128.1825  125.6501   69.6336 H   0  0  0  0  0  0  0  0  0  0  0  0
  125.9841  126.2805   68.6517 H   0  0  0  0  0  0  0  0  0  0  0  0
  125.8963  127.6907   66.5949 H   0  0  0  0  0  0  0  0  0  0  0  0
  131.8142  131.0469   59.0785 H   0  0  0  0  0  0  0  0  0  0  0  0
  133.0929  131.0254   56.9458 H   0  0  0  0  0  0  0  0  0  0  0  0
  132.1033  132.0316   54.8946 H   0  0  0  0  0  0  0  0  0  0  0  0
  129.8340  133.0505   54.9672 H   0  0  0  0  0  0  0  0  0  0  0  0
  128.5490  133.0677   57.0938 H   0  0  0  0  0  0  0  0  0  0  0  0
  128.5406  134.0770   59.3012 H   0  0  0  0  0  0  0  0  0  0  0  0
  1  2  1  0
  2  3  2  0
  3  4  1  0
  4  5  2  0
  4  6  1  0
  6  7  1  0
  7  8  2  0
  8  9  1  0
  9 10  2  0
 10 11  1  0
 11 12  2  0
  3 13  1  0
 13 14  1  0
 14 15  2  0
 15 16  1  0
 16 17  1  0
 17 18  2  0
 18 19  1  0
 19 20  2  0
 20 21  1  0
 21 22  2  0
 16 23  2  0
 23 24  1  0
 24 25  1  0
 25 26  1  0
 25 27  1  0
 25 28  1  0
 24 29  2  0
 29  2  1  0
 12  7  1  0
 29 14  1  0
 22 17  1  0
  1 30  1  0
  1 31  1  0
  6 32  1  0
  8 33  1  0
  9 34  1  0
 10 35  1  0
 11 36  1  0
 12 37  1  0
 18 38  1  0
 19 39  1  0
 20 40  1  0
 21 41  1  0
 22 42  1  0
 23 43  1  0
M  END
>  <Binding energies>  (1) 
[-7.19]

>  <Ligand effiencies>  (1) 
[-0.2246875]

>  <Interactions>  (1) 
["V-B:GLU:543:CD:9880, V-A:PRO:540:N:4884, V-A:TYR:539:C:4867, V-B:PRO:482:CB:9297, V-A:LEU:363:CD1:3189, V-A:GLU:543:CD:4908, V-A:TYR:539:CE2:4876, V-B:PRO:482:CG:9298, V-A:PRO:540:CB:4885, V-A:PRO:540:CA:4883, V-A:TYR:539:CD2:4874, V-B:LEU:475:CD1:9229, V-A:ALA:541:CB:4892, V-B:GLU:543:C:9874, V-B:GLU:543:CB:9878, V-B:HIS:456:CE1:9040, V-B:ARG:545:CG:9894, V-A:HIS:456:CE1:4069, H-B:TYR:484:OH:9319, V-B:TRP:381:CH2:8343, H-A:GLU:543:OE2:4910, H-A:GLU:543:OE1:4909, V-A:TYR:539:CE1:4875, V-A:TYR:539:CD1:4873, V-A:TYR:539:CG:4872, V-A:TYR:539:CA:4869, V-A:ALA:541:CA:4890, V-B:LEU:475:CD2:9230"]

$$$$
4ce_Grossjean_2025
     RDKit          3D

 45 48  0  0  0  0  0  0  0  0999 V2000
  128.5850  119.7280   73.3920 C   0  0  0  0  0  0  0  0  0  0  0  0
  129.4990  120.8950   73.0670 C   0  0  0  0  0  0  0  0  0  0  0  0
  130.7260  121.0640   73.7140 C   0  0  0  0  0  0  0  0  0  0  0  0
  131.5190  122.1560   73.3590 C   0  0  0  0  0  0  0  0  0  0  0  0
  131.0730  123.0410   72.3760 C   0  0  0  0  0  0  0  0  0  0  0  0
  129.8300  122.8160   71.7710 C   0  0  0  0  0  0  0  0  0  0  0  0
  129.4470  123.7280   70.7720 N   0  0  0  0  0  0  0  0  0  0  0  0
  129.1860  125.0540   70.8880 C   0  0  0  0  0  0  0  0  0  0  0  0
  129.2700  125.6780   71.9470 O   0  0  0  0  0  0  0  0  0  0  0  0
  128.7870  125.7280   69.6500 C   0  0  0  0  0  0  0  0  0  0  0  0
  127.5220  126.9550   69.6770 S   0  0  0  0  0  0  0  0  0  0  0  0
  127.7000  127.2390   67.9620 C   0  0  0  0  0  0  0  0  0  0  0  0
  126.9560  128.1410   67.3270 N   0  0  0  0  0  0  0  0  0  0  0  0
  127.1760  128.3030   65.9960 C   0  0  0  0  0  0  0  0  0  0  0  0
  126.3250  129.3310   65.3110 C   0  0  0  0  0  0  0  0  0  0  0  0
  124.9370  129.3690   65.5240 C   0  0  0  0  0  0  0  0  0  0  0  0
  124.1400  130.3170   64.8870 C   0  0  0  0  0  0  0  0  0  0  0  0
  124.7220  131.2430   64.0270 C   0  0  0  0  0  0  0  0  0  0  0  0
  126.0940  131.2260   63.7990 C   0  0  0  0  0  0  0  0  0  0  0  0
  126.8870  130.2750   64.4360 C   0  0  0  0  0  0  0  0  0  0  0  0
  128.1260  127.5420   65.3060 C   0  0  0  0  0  0  0  0  0  0  0  0
  128.9120  126.5840   65.9650 C   0  0  0  0  0  0  0  0  0  0  0  0
  129.9350  125.7870   65.1480 C   0  0  0  0  0  0  0  0  0  0  0  0
  129.6430  124.4880   65.0660 F   0  0  0  0  0  0  0  0  0  0  0  0
  129.9880  126.2640   63.9040 F   0  0  0  0  0  0  0  0  0  0  0  0
  131.1390  125.8910   65.7100 F   0  0  0  0  0  0  0  0  0  0  0  0
  128.7000  126.4170   67.3640 C   0  0  0  0  0  0  0  0  0  0  0  0
  129.3050  125.5610   68.3550 C   0  0  0  0  0  0  0  0  0  0  0  0
  130.2990  124.6660   68.0550 N   0  0  0  0  0  0  0  0  0  0  0  0
  129.0510  121.7480   72.1100 N   0  0  0  0  0  0  0  0  0  0  0  0
  128.5011  119.6209   74.4836 H   0  0  0  0  0  0  0  0  0  0  0  0
  127.5886  119.9124   72.9640 H   0  0  0  0  0  0  0  0  0  0  0  0
  129.0028  118.8048   72.9640 H   0  0  0  0  0  0  0  0  0  0  0  0
  131.0588  120.3532   74.4847 H   0  0  0  0  0  0  0  0  0  0  0  0
  132.4895  122.3183   73.8507 H   0  0  0  0  0  0  0  0  0  0  0  0
  131.6891  123.9031   72.0806 H   0  0  0  0  0  0  0  0  0  0  0  0
  129.4010  123.3400   69.8410 H   0  0  0  0  0  0  0  0  0  0  0  0
  124.4728  128.6394   66.2038 H   0  0  0  0  0  0  0  0  0  0  0  0
  123.0543  130.3336   65.0632 H   0  0  0  0  0  0  0  0  0  0  0  0
  124.0934  131.9929   63.5245 H   0  0  0  0  0  0  0  0  0  0  0  0
  126.5504  131.9602   63.1188 H   0  0  0  0  0  0  0  0  0  0  0  0
  127.9712  130.2629   64.2509 H   0  0  0  0  0  0  0  0  0  0  0  0
  128.2595  127.6977   64.2253 H   0  0  0  0  0  0  0  0  0  0  0  0
  130.5000  124.3890   67.1040 H   0  0  0  0  0  0  0  0  0  0  0  0
  130.8660  124.2470   68.7790 H   0  0  0  0  0  0  0  0  0  0  0  0
  1  2  1  0
  2  3  2  0
  3  4  1  0
  4  5  2  0
  5  6  1  0
  6  7  1  0
  7  8  1  0
  8  9  2  0
  8 10  1  0
 10 11  1  0
 11 12  1  0
 12 13  2  0
 13 14  1  0
 14 15  1  0
 15 16  2  0
 16 17  1  0
 17 18  2  0
 18 19  1  0
 19 20  2  0
 14 21  2  0
 21 22  1  0
 22 23  1  0
 23 24  1  0
 23 25  1  0
 23 26  1  0
 22 27  2  0
 27 28  1  0
 28 29  1  0
  6 30  2  0
 30  2  1  0
 28 10  2  0
 27 12  1  0
 20 15  1  0
  1 31  1  0
  1 32  1  0
  1 33  1  0
  3 34  1  0
  4 35  1  0
  5 36  1  0
  7 37  1  0
 16 38  1  0
 17 39  1  0
 18 40  1  0
 19 41  1  0
 20 42  1  0
 21 43  1  0
 29 44  1  0
 29 45  1  0
M  END
>  <Binding energies>  (1) 
[-8.14]

>  <Ligand effiencies>  (1) 
[-0.24666666666666667]

>  <Interactions>  (1) 
["V-B:GLU:543:CD:9880, V-A:GLU:543:CD:4908, V-B:GLU:543:C:9874, V-B:GLU:543:CB:9878, V-B:GLY:544:C:9884, V-B:HIS:456:CE1:9040, H-B:LYS:547:NZ:9923, V-A:HIS:456:CE1:4069, V-A:ASP:473:CG:4240, V-A:HIS:456:CG:4066, V-A:HIS:456:CD2:4068, V-A:ASP:473:CB:4239, V-A:HIS:456:CB:4065, V-B:ARG:545:CD:9895, V-B:ARG:545:CZ:9898, V-B:GLU:543:CG:9879, V-B:GLY:454:CA:9020, V-A:TYR:484:CE1:4345, V-A:TYR:484:CZ:4347, H-A:TYR:484:OH:4348, V-B:LYS:547:CE:9922, H-A:HIS:456:ND1:4067, H-B:GLU:543:O:9875, V-A:TYR:484:CD2:4344, V-A:TYR:484:CG:4342, V-A:TYR:484:CE2:4346, V-A:TYR:484:CB:4341, V-A:TYR:484:CD1:4343"]

$$$$
4cf_Grossjean_2025
     RDKit          3D

 42 45  0  0  0  0  0  0  0  0999 V2000
  129.7940  124.3980   67.5250 N   0  0  0  0  0  0  0  0  0  0  0  0
  129.3730  125.6800   67.7660 C   0  0  0  0  0  0  0  0  0  0  0  0
  129.2300  126.2130   69.0580 C   0  0  0  0  0  0  0  0  0  0  0  0
  129.4460  125.5520   70.3480 C   0  0  0  0  0  0  0  0  0  0  0  0
  129.3400  126.1820   71.4010 O   0  0  0  0  0  0  0  0  0  0  0  0
  129.7480  124.2330   70.2810 N   0  0  0  0  0  0  0  0  0  0  0  0
  130.0590  123.3290   71.3150 C   0  0  0  0  0  0  0  0  0  0  0  0
  131.1930  123.3980   72.1470 C   0  0  0  0  0  0  0  0  0  0  0  0
  131.3900  122.4250   73.1280 C   0  0  0  0  0  0  0  0  0  0  0  0
  130.4480  121.4030   73.2540 C   0  0  0  0  0  0  0  0  0  0  0  0
  129.3510  121.3090   72.4620 N   0  0  0  0  0  0  0  0  0  0  0  0
  129.1750  122.2620   71.5100 C   0  0  0  0  0  0  0  0  0  0  0  0
  128.6780  127.8850   68.9990 S   0  0  0  0  0  0  0  0  0  0  0  0
  128.6350  127.8560   67.2510 C   0  0  0  0  0  0  0  0  0  0  0  0
  128.2560  128.9210   66.5480 N   0  0  0  0  0  0  0  0  0  0  0  0
  128.2400  128.7970   65.1940 C   0  0  0  0  0  0  0  0  0  0  0  0
  127.8000  130.0110   64.4280 C   0  0  0  0  0  0  0  0  0  0  0  0
  128.1780  131.2970   64.8440 C   0  0  0  0  0  0  0  0  0  0  0  0
  127.7760  132.4280   64.1380 C   0  0  0  0  0  0  0  0  0  0  0  0
  126.9880  132.2860   63.0000 C   0  0  0  0  0  0  0  0  0  0  0  0
  126.6020  131.0230   62.5630 C   0  0  0  0  0  0  0  0  0  0  0  0
  127.0070  129.8960   63.2720 C   0  0  0  0  0  0  0  0  0  0  0  0
  128.6270  127.6160   64.5550 C   0  0  0  0  0  0  0  0  0  0  0  0
  129.0330  126.4890   65.2880 C   0  0  0  0  0  0  0  0  0  0  0  0
  129.4400  125.2240   64.5230 C   0  0  0  0  0  0  0  0  0  0  0  0
  128.9970  124.1020   65.0930 F   0  0  0  0  0  0  0  0  0  0  0  0
  128.9450  125.2660   63.2870 F   0  0  0  0  0  0  0  0  0  0  0  0
  130.7690  125.1410   64.4620 F   0  0  0  0  0  0  0  0  0  0  0  0
  129.0370  126.6010   66.7080 C   0  0  0  0  0  0  0  0  0  0  0  0
  129.1970  123.5990   67.6900 H   0  0  0  0  0  0  0  0  0  0  0  0
  130.7210  124.2060   67.1700 H   0  0  0  0  0  0  0  0  0  0  0  0
  129.7510  123.8240   69.3580 H   0  0  0  0  0  0  0  0  0  0  0  0
  131.9198  124.2145   72.0244 H   0  0  0  0  0  0  0  0  0  0  0  0
  132.2692  122.4629   73.7880 H   0  0  0  0  0  0  0  0  0  0  0  0
  130.6022  120.6394   74.0306 H   0  0  0  0  0  0  0  0  0  0  0  0
  128.2915  122.1912   70.8585 H   0  0  0  0  0  0  0  0  0  0  0  0
  128.8020  131.4134   65.7424 H   0  0  0  0  0  0  0  0  0  0  0  0
  128.0800  133.4289   64.4783 H   0  0  0  0  0  0  0  0  0  0  0  0
  126.6681  133.1785   62.4422 H   0  0  0  0  0  0  0  0  0  0  0  0
  125.9801  130.9157   61.6620 H   0  0  0  0  0  0  0  0  0  0  0  0
  126.7019  128.8986   62.9225 H   0  0  0  0  0  0  0  0  0  0  0  0
  128.6133  127.5682   63.4561 H   0  0  0  0  0  0  0  0  0  0  0  0
  1  2  1  0
  2  3  2  0
  3  4  1  0
  4  5  2  0
  4  6  1  0
  6  7  1  0
  7  8  2  0
  8  9  1  0
  9 10  2  0
 10 11  1  0
 11 12  2  0
  3 13  1  0
 13 14  1  0
 14 15  2  0
 15 16  1  0
 16 17  1  0
 17 18  2  0
 18 19  1  0
 19 20  2  0
 20 21  1  0
 21 22  2  0
 16 23  2  0
 23 24  1  0
 24 25  1  0
 25 26  1  0
 25 27  1  0
 25 28  1  0
 24 29  2  0
 29  2  1  0
 12  7  1  0
 29 14  1  0
 22 17  1  0
  1 30  1  0
  1 31  1  0
  6 32  1  0
  8 33  1  0
  9 34  1  0
 10 35  1  0
 12 36  1  0
 18 37  1  0
 19 38  1  0
 20 39  1  0
 21 40  1  0
 22 41  1  0
 23 42  1  0
M  END
>  <Binding energies>  (1) 
[-7.65]

>  <Ligand effiencies>  (1) 
[-0.2390625]

>  <Interactions>  (1) 
["V-B:GLU:543:CD:9880, V-A:GLU:543:CD:4908, V-B:LEU:475:CD1:9229, V-A:ALA:541:CB:4892, V-B:GLU:543:C:9874, V-B:GLU:543:CB:9878, V-B:HIS:456:CE1:9040, H-B:LYS:547:NZ:9923, V-A:HIS:456:CE1:4069, V-A:ASP:473:CG:4240, V-A:HIS:456:CG:4066, V-A:HIS:456:CD2:4068, V-A:ASP:473:CB:4239, V-A:HIS:456:CB:4065, V-A:GLU:543:CB:4906, H-A:HIS:456:NE2:4070, V-B:GLU:543:CG:9879, V-A:TYR:484:CE1:4345, V-B:GLU:543:CA:9876, V-A:TYR:484:CZ:4347, H-A:TYR:484:OH:4348, V-B:LYS:547:CE:9922, V-B:GLY:544:CA:9886, H-A:HIS:456:ND1:4067, V-B:TYR:484:CE1:9316, H-B:GLU:543:O:9875, V-A:TYR:484:CD2:4344, V-A:TYR:484:CG:4342, V-A:TYR:484:CE2:4346, V-A:TYR:484:CB:4341, V-A:TYR:484:CD1:4343"]

$$$$
4cg_Grossjean_2025
     RDKit          3D

 46 49  0  0  0  0  0  0  0  0999 V2000
  125.6170  126.0810   58.7740 N   0  0  0  0  0  0  0  0  0  0  0  0
  126.5710  125.8020   59.7180 C   0  0  0  0  0  0  0  0  0  0  0  0
  126.8980  126.6800   60.7610 C   0  0  0  0  0  0  0  0  0  0  0  0
  126.3010  127.9760   61.0840 C   0  0  0  0  0  0  0  0  0  0  0  0
  125.8970  128.7350   60.2000 O   0  0  0  0  0  0  0  0  0  0  0  0
  126.2600  128.2990   62.3940 N   0  0  0  0  0  0  0  0  0  0  0  0
  125.6900  129.5270   62.9460 C   0  0  0  0  0  0  0  0  0  0  0  0
  125.3210  129.4140   64.4210 C   0  0  0  0  0  0  0  0  0  0  0  0
  126.2450  128.8920   65.3300 C   0  0  0  0  0  0  0  0  0  0  0  0
  125.9230  128.8160   66.6830 C   0  0  0  0  0  0  0  0  0  0  0  0
  124.6830  129.2710   67.1230 C   0  0  0  0  0  0  0  0  0  0  0  0
  123.7630  129.8080   66.2240 C   0  0  0  0  0  0  0  0  0  0  0  0
  124.0850  129.8850   64.8720 C   0  0  0  0  0  0  0  0  0  0  0  0
  128.1470  126.0040   61.8030 S   0  0  0  0  0  0  0  0  0  0  0  0
  128.2400  124.5600   60.8210 C   0  0  0  0  0  0  0  0  0  0  0  0
  129.0820  123.5740   61.1160 N   0  0  0  0  0  0  0  0  0  0  0  0
  129.0810  122.4880   60.2990 C   0  0  0  0  0  0  0  0  0  0  0  0
  130.0450  121.3930   60.6580 C   0  0  0  0  0  0  0  0  0  0  0  0
  131.4320  121.6130   60.6240 C   0  0  0  0  0  0  0  0  0  0  0  0
  132.3280  120.6010   60.9550 C   0  0  0  0  0  0  0  0  0  0  0  0
  131.8500  119.3480   61.3240 C   0  0  0  0  0  0  0  0  0  0  0  0
  130.4820  119.1010   61.3630 C   0  0  0  0  0  0  0  0  0  0  0  0
  129.5890  120.1160   61.0320 C   0  0  0  0  0  0  0  0  0  0  0  0
  128.2460  122.4090   59.1790 C   0  0  0  0  0  0  0  0  0  0  0  0
  127.3540  123.4440   58.8580 C   0  0  0  0  0  0  0  0  0  0  0  0
  126.4680  123.2920   57.6160 C   0  0  0  0  0  0  0  0  0  0  0  0
  125.1660  123.2550   57.9030 F   0  0  0  0  0  0  0  0  0  0  0  0
  126.6670  124.3210   56.7920 F   0  0  0  0  0  0  0  0  0  0  0  0
  126.7690  122.1590   56.9840 F   0  0  0  0  0  0  0  0  0  0  0  0
  127.3370  124.5800   59.7180 C   0  0  0  0  0  0  0  0  0  0  0  0
  125.0830  126.9390   58.7890 H   0  0  0  0  0  0  0  0  0  0  0  0
  125.4190  125.4370   58.0200 H   0  0  0  0  0  0  0  0  0  0  0  0
  126.5400  127.5990   63.0650 H   0  0  0  0  0  0  0  0  0  0  0  0
  126.4271  130.3355   62.8320 H   0  0  0  0  0  0  0  0  0  0  0  0
  124.7608  129.7304   62.3936 H   0  0  0  0  0  0  0  0  0  0  0  0
  127.2261  128.5413   64.9773 H   0  0  0  0  0  0  0  0  0  0  0  0
  126.6449  128.3985   67.4003 H   0  0  0  0  0  0  0  0  0  0  0  0
  124.4267  129.2061   68.1908 H   0  0  0  0  0  0  0  0  0  0  0  0
  122.7873  130.1691   66.5812 H   0  0  0  0  0  0  0  0  0  0  0  0
  123.3670  130.3163   64.1590 H   0  0  0  0  0  0  0  0  0  0  0  0
  131.8161  122.6012   60.3310 H   0  0  0  0  0  0  0  0  0  0  0  0
  133.4110  120.7914   60.9249 H   0  0  0  0  0  0  0  0  0  0  0  0
  132.5580  118.5480   61.5864 H   0  0  0  0  0  0  0  0  0  0  0  0
  130.1076  118.1085   61.6540 H   0  0  0  0  0  0  0  0  0  0  0  0
  128.5078  119.9160   61.0634 H   0  0  0  0  0  0  0  0  0  0  0  0
  128.2896  121.5171   58.5367 H   0  0  0  0  0  0  0  0  0  0  0  0
  1  2  1  0
  2  3  2  0
  3  4  1  0
  4  5  2  0
  4  6  1  0
  6  7  1  0
  7  8  1  0
  8  9  2  0
  9 10  1  0
 10 11  2  0
 11 12  1  0
 12 13  2  0
  3 14  1  0
 14 15  1  0
 15 16  2  0
 16 17  1  0
 17 18  1  0
 18 19  2  0
 19 20  1  0
 20 21  2  0
 21 22  1  0
 22 23  2  0
 17 24  2  0
 24 25  1  0
 25 26  1  0
 26 27  1  0
 26 28  1  0
 26 29  1  0
 25 30  2  0
 30  2  1  0
 13  8  1  0
 30 15  1  0
 23 18  1  0
  1 31  1  0
  1 32  1  0
  6 33  1  0
  7 34  1  0
  7 35  1  0
  9 36  1  0
 10 37  1  0
 11 38  1  0
 12 39  1  0
 13 40  1  0
 19 41  1  0
 20 42  1  0
 21 43  1  0
 22 44  1  0
 23 45  1  0
 24 46  1  0
M  END
>  <Binding energies>  (1) 
[-7.35]

>  <Ligand effiencies>  (1) 
[-0.22272727272727272]

>  <Interactions>  (1) 
["V-B:PRO:540:CD:9859, V-A:PRO:482:CB:4326, V-B:GLU:543:CD:9880, V-B:ALA:541:CB:9864, V-B:TYR:539:CE2:9848, V-B:TYR:539:CD2:9846, V-B:PRO:540:CB:9857, V-B:PRO:540:N:9856, H-B:ASP:366:OD1:8185, V-B:TYR:539:C:9839, V-B:LEU:363:CD1:8160, V-B:ASP:366:CG:8184, V-B:PRO:540:CA:9855, V-A:PRO:482:CG:4327, H-B:GLU:543:OE2:9882, V-B:ALA:541:CA:9862, V-A:LEU:475:CD1:4258, V-B:TYR:539:CA:9841, V-B:TYR:539:CG:9844, V-B:HIS:456:CE1:9040, V-B:ARG:545:CG:9894, H-B:GLU:543:OE1:9881, V-B:ARG:545:CD:9895, V-B:ARG:545:CZ:9898, V-A:TRP:381:CZ2:3370, V-B:GLY:454:CA:9020, V-A:TRP:381:CH2:3372, V-B:TYR:484:CZ:9318"]

$$$$
4ch_Grossjean_2025
     RDKit          3D

 58 61  0  0  0  0  0  0  0  0999 V2000
  127.4560  123.1800   55.2710 C   0  0  0  0  0  0  0  0  0  0  0  0
  126.9970  122.2030   56.1990 O   0  0  0  0  0  0  0  0  0  0  0  0
  126.9080  122.5300   57.5400 C   0  0  0  0  0  0  0  0  0  0  0  0
  127.8720  122.1770   58.4990 C   0  0  0  0  0  0  0  0  0  0  0  0
  127.7170  122.5430   59.8370 C   0  0  0  0  0  0  0  0  0  0  0  0
  128.7600  122.1280   60.8680 C   0  0  0  0  0  0  0  0  0  0  0  0
  128.7430  122.9260   62.0950 N   0  0  0  0  0  0  0  0  0  0  0  0
  129.7220  123.7610   62.5010 C   0  0  0  0  0  0  0  0  0  0  0  0
  130.7450  123.9540   61.8400 O   0  0  0  0  0  0  0  0  0  0  0  0
  129.4860  124.4600   63.7650 C   0  0  0  0  0  0  0  0  0  0  0  0
  129.8220  123.6550   65.2940 S   0  0  0  0  0  0  0  0  0  0  0  0
  129.3390  125.0710   66.1960 C   0  0  0  0  0  0  0  0  0  0  0  0
  129.3650  125.0900   67.5260 N   0  0  0  0  0  0  0  0  0  0  0  0
  128.9770  126.2380   68.1400 C   0  0  0  0  0  0  0  0  0  0  0  0
  129.0110  126.2250   69.6410 C   0  0  0  0  0  0  0  0  0  0  0  0
  128.6890  127.3760   70.3780 C   0  0  0  0  0  0  0  0  0  0  0  0
  128.7200  127.3710   71.7700 C   0  0  0  0  0  0  0  0  0  0  0  0
  129.0740  126.2100   72.4480 C   0  0  0  0  0  0  0  0  0  0  0  0
  129.4010  125.0560   71.7430 C   0  0  0  0  0  0  0  0  0  0  0  0
  129.3710  125.0670   70.3510 C   0  0  0  0  0  0  0  0  0  0  0  0
  128.5490  127.3550   67.4150 C   0  0  0  0  0  0  0  0  0  0  0  0
  128.5170  127.3460   66.0110 C   0  0  0  0  0  0  0  0  0  0  0  0
  128.0370  128.6040   65.2790 C   0  0  0  0  0  0  0  0  0  0  0  0
  128.6970  128.8330   64.1410 F   0  0  0  0  0  0  0  0  0  0  0  0
  126.7460  128.4840   64.9730 F   0  0  0  0  0  0  0  0  0  0  0  0
  128.2070  129.6720   66.0580 F   0  0  0  0  0  0  0  0  0  0  0  0
  128.9340  126.1510   65.3570 C   0  0  0  0  0  0  0  0  0  0  0  0
  129.0400  125.7750   63.9680 C   0  0  0  0  0  0  0  0  0  0  0  0
  128.7220  126.6260   62.9410 N   0  0  0  0  0  0  0  0  0  0  0  0
  126.5820  123.2540   60.2290 C   0  0  0  0  0  0  0  0  0  0  0  0
  125.6020  123.6180   59.2920 C   0  0  0  0  0  0  0  0  0  0  0  0
  124.4550  124.3220   59.6100 O   0  0  0  0  0  0  0  0  0  0  0  0
  123.5950  123.8330   60.6340 C   0  0  0  0  0  0  0  0  0  0  0  0
  125.7800  123.2550   57.9490 C   0  0  0  0  0  0  0  0  0  0  0  0
  124.8220  123.5920   57.0250 O   0  0  0  0  0  0  0  0  0  0  0  0
  124.7520  124.9840   56.7440 C   0  0  0  0  0  0  0  0  0  0  0  0
  127.8617  124.0436   55.8184 H   0  0  0  0  0  0  0  0  0  0  0  0
  128.2434  122.7438   54.6388 H   0  0  0  0  0  0  0  0  0  0  0  0
  126.6176  123.5076   54.6388 H   0  0  0  0  0  0  0  0  0  0  0  0
  128.7599  121.6051   58.1916 H   0  0  0  0  0  0  0  0  0  0  0  0
  128.5790  121.0770   61.1377 H   0  0  0  0  0  0  0  0  0  0  0  0
  129.7441  122.2858   60.4025 H   0  0  0  0  0  0  0  0  0  0  0  0
  127.9580  122.7750   62.7120 H   0  0  0  0  0  0  0  0  0  0  0  0
  128.4075  128.2971   69.8467 H   0  0  0  0  0  0  0  0  0  0  0  0
  128.4654  128.2822   72.3312 H   0  0  0  0  0  0  0  0  0  0  0  0
  129.0957  126.2038   73.5478 H   0  0  0  0  0  0  0  0  0  0  0  0
  129.6818  124.1395   72.2826 H   0  0  0  0  0  0  0  0  0  0  0  0
  129.6336  124.1534   69.7975 H   0  0  0  0  0  0  0  0  0  0  0  0
  128.2310  128.2588   67.9555 H   0  0  0  0  0  0  0  0  0  0  0  0
  127.8120  127.0600   62.8680 H   0  0  0  0  0  0  0  0  0  0  0  0
  129.3930  126.8520   62.2200 H   0  0  0  0  0  0  0  0  0  0  0  0
  126.4536  123.5327   61.2853 H   0  0  0  0  0  0  0  0  0  0  0  0
  124.0219  124.0757   61.6183 H   0  0  0  0  0  0  0  0  0  0  0  0
  122.6054  124.3035   60.5374 H   0  0  0  0  0  0  0  0  0  0  0  0
  123.4933  122.7420   60.5374 H   0  0  0  0  0  0  0  0  0  0  0  0
  124.7237  125.5477   57.6882 H   0  0  0  0  0  0  0  0  0  0  0  0
  125.6361  125.2857   56.1632 H   0  0  0  0  0  0  0  0  0  0  0  0
  123.8421  125.1955   56.1632 H   0  0  0  0  0  0  0  0  0  0  0  0
  1  2  1  0
  2  3  1  0
  3  4  2  0
  4  5  1  0
  5  6  1  0
  6  7  1  0
  7  8  1  0
  8  9  2  0
  8 10  1  0
 10 11  1  0
 11 12  1  0
 12 13  2  0
 13 14  1  0
 14 15  1  0
 15 16  2  0
 16 17  1  0
 17 18  2  0
 18 19  1  0
 19 20  2  0
 14 21  2  0
 21 22  1  0
 22 23  1  0
 23 24  1  0
 23 25  1  0
 23 26  1  0
 22 27  2  0
 27 28  1  0
 28 29  1  0
  5 30  2  0
 30 31  1  0
 31 32  1  0
 32 33  1  0
 31 34  2  0
 34 35  1  0
 35 36  1  0
 34  3  1  0
 28 10  2  0
 27 12  1  0
 20 15  1  0
  1 37  1  0
  1 38  1  0
  1 39  1  0
  4 40  1  0
  6 41  1  0
  6 42  1  0
  7 43  1  0
 16 44  1  0
 17 45  1  0
 18 46  1  0
 19 47  1  0
 20 48  1  0
 21 49  1  0
 29 50  1  0
 29 51  1  0
 30 52  1  0
 33 53  1  0
 33 54  1  0
 33 55  1  0
 36 56  1  0
 36 57  1  0
 36 58  1  0
M  END
>  <Binding energies>  (1) 
[-7.54]

>  <Ligand effiencies>  (1) 
[-0.19333333333333333]

>  <Interactions>  (1) 
["V-B:PRO:540:CD:9859, V-B:LEU:363:CA:8156, V-B:GLU:543:CD:9880, V-B:ALA:541:CB:9864, V-B:TYR:539:CE2:9848, V-B:TYR:539:CD2:9846, V-B:PRO:540:CB:9857, V-B:PRO:540:N:9856, V-B:TYR:539:C:9839, V-B:LEU:363:CD1:8160, V-B:PRO:540:C:9853, V-B:PRO:540:CA:9855, V-B:TYR:539:CZ:9849, V-B:ASN:362:CB:8147, V-B:ASN:362:C:8143, H-B:GLU:543:OE2:9882, V-A:GLU:543:CD:4908, V-B:TYR:531:CE2:9765, V-B:TYR:539:CG:9844, H-B:TYR:539:N:9842, V-B:GLU:543:CB:9878, V-B:HIS:456:CD2:9039, V-B:HIS:456:CE1:9040, V-A:HIS:456:CE1:4069, V-A:HIS:456:CD2:4068, H-B:GLU:543:OE1:9881, V-A:GLU:543:CB:4906, V-B:GLU:543:CG:9879, V-A:TYR:484:CE1:4345, V-B:GLU:543:CA:9876, V-A:TYR:484:CZ:4347, H-A:TYR:484:OH:4348, V-A:GLU:543:CG:4907, V-B:ILE:538:CA:9832, V-B:TYR:539:CE1:9847, V-B:TYR:539:CD1:9845"]

$$$$
4ci_Grossjean_2025
     RDKit          3D

 39 42  0  0  0  0  0  0  0  0999 V2000
  129.9220  124.3870   67.6870 N   0  0  0  0  0  0  0  0  0  0  0  0
  129.4250  125.6230   68.0070 C   0  0  0  0  0  0  0  0  0  0  0  0
  129.2810  126.0760   69.3280 C   0  0  0  0  0  0  0  0  0  0  0  0
  129.6200  125.3820   70.5740 C   0  0  0  0  0  0  0  0  0  0  0  0
  129.7800  126.0120   71.6220 O   0  0  0  0  0  0  0  0  0  0  0  0
  129.7500  124.0350   70.4740 N   0  0  0  0  0  0  0  0  0  0  0  0
  130.0660  123.1390   71.4870 C   0  0  0  0  0  0  0  0  0  0  0  0
  131.2380  123.2180   72.2380 C   0  0  0  0  0  0  0  0  0  0  0  0
  131.1720  122.1650   73.1200 C   0  0  0  0  0  0  0  0  0  0  0  0
  130.0180  121.4850   72.9110 O   0  0  0  0  0  0  0  0  0  0  0  0
  129.3260  122.1120   71.8730 N   0  0  0  0  0  0  0  0  0  0  0  0
  128.6230  127.7100   69.3740 S   0  0  0  0  0  0  0  0  0  0  0  0
  128.5360  127.7720   67.6290 C   0  0  0  0  0  0  0  0  0  0  0  0
  128.0780  128.8480   66.9930 N   0  0  0  0  0  0  0  0  0  0  0  0
  128.0510  128.8040   65.6350 C   0  0  0  0  0  0  0  0  0  0  0  0
  127.5250  130.0310   64.9470 C   0  0  0  0  0  0  0  0  0  0  0  0
  128.2920  131.2060   64.8840 C   0  0  0  0  0  0  0  0  0  0  0  0
  127.8100  132.3470   64.2460 C   0  0  0  0  0  0  0  0  0  0  0  0
  126.5480  132.3280   63.6610 C   0  0  0  0  0  0  0  0  0  0  0  0
  125.7660  131.1800   63.7120 C   0  0  0  0  0  0  0  0  0  0  0  0
  126.2510  130.0430   64.3520 C   0  0  0  0  0  0  0  0  0  0  0  0
  128.4680  127.6730   64.9250 C   0  0  0  0  0  0  0  0  0  0  0  0
  128.9530  126.5330   65.5860 C   0  0  0  0  0  0  0  0  0  0  0  0
  129.3920  125.3290   64.7440 C   0  0  0  0  0  0  0  0  0  0  0  0
  130.7140  125.2640   64.5740 F   0  0  0  0  0  0  0  0  0  0  0  0
  129.0120  124.2000   65.3420 F   0  0  0  0  0  0  0  0  0  0  0  0
  128.8360  125.3960   63.5350 F   0  0  0  0  0  0  0  0  0  0  0  0
  128.9970  126.5730   67.0090 C   0  0  0  0  0  0  0  0  0  0  0  0
  130.8620  124.2620   67.3370 H   0  0  0  0  0  0  0  0  0  0  0  0
  129.3630  123.5510   67.7960 H   0  0  0  0  0  0  0  0  0  0  0  0
  129.6050  123.6260   69.5640 H   0  0  0  0  0  0  0  0  0  0  0  0
  132.0424  123.9625   72.1450 H   0  0  0  0  0  0  0  0  0  0  0  0
  131.9331  121.9148   73.8738 H   0  0  0  0  0  0  0  0  0  0  0  0
  129.2900  131.2257   65.3461 H   0  0  0  0  0  0  0  0  0  0  0  0
  128.4244  133.2585   64.2051 H   0  0  0  0  0  0  0  0  0  0  0  0
  126.1666  133.2271   63.1549 H   0  0  0  0  0  0  0  0  0  0  0  0
  124.7684  131.1700   63.2487 H   0  0  0  0  0  0  0  0  0  0  0  0
  125.6268  129.1382   64.3930 H   0  0  0  0  0  0  0  0  0  0  0  0
  128.4149  127.6768   63.8263 H   0  0  0  0  0  0  0  0  0  0  0  0
  1  2  1  0
  2  3  2  0
  3  4  1  0
  4  5  2  0
  4  6  1  0
  6  7  1  0
  7  8  1  0
  8  9  2  0
  9 10  1  0
 10 11  1  0
  3 12  1  0
 12 13  1  0
 13 14  2  0
 14 15  1  0
 15 16  1  0
 16 17  2  0
 17 18  1  0
 18 19  2  0
 19 20  1  0
 20 21  2  0
 15 22  2  0
 22 23  1  0
 23 24  1  0
 24 25  1  0
 24 26  1  0
 24 27  1  0
 23 28  2  0
 28  2  1  0
 11  7  2  0
 28 13  1  0
 21 16  1  0
  1 29  1  0
  1 30  1  0
  6 31  1  0
  8 32  1  0
  9 33  1  0
 17 34  1  0
 18 35  1  0
 19 36  1  0
 20 37  1  0
 21 38  1  0
 22 39  1  0
M  END
>  <Binding energies>  (1) 
[-8.49]

>  <Ligand effiencies>  (1) 
[-0.2738709677419355]

>  <Interactions>  (1) 
["V-B:GLU:543:CD:9880, V-A:GLU:543:CD:4908, V-B:LEU:475:CD1:9229, V-A:ALA:541:CB:4892, V-B:GLU:543:C:9874, V-B:GLU:543:CB:9878, V-B:HIS:456:CE1:9040, H-B:LYS:547:NZ:9923, V-A:HIS:456:CE1:4069, V-A:ASP:473:CG:4240, V-A:HIS:456:CG:4066, V-A:HIS:456:CD2:4068, V-A:ASP:473:CB:4239, V-A:HIS:456:CB:4065, V-A:GLU:543:CB:4906, H-A:HIS:456:NE2:4070, V-B:GLU:543:CG:9879, V-A:TYR:484:CE1:4345, V-B:GLU:543:CA:9876, V-A:TYR:484:CZ:4347, H-A:TYR:484:OH:4348, H-A:HIS:456:ND1:4067, H-B:GLU:543:O:9875, V-A:TYR:484:CD2:4344, V-A:TYR:484:CG:4342, V-A:TYR:484:CE2:4346, V-A:TYR:484:CB:4341, V-A:TYR:484:CD1:4343"]

$$$$
4cj_Grossjean_2025
     RDKit          3D

 39 42  0  0  0  0  0  0  0  0999 V2000
  130.3070  124.7030   68.1380 N   0  0  0  0  0  0  0  0  0  0  0  0
  129.2690  125.5570   68.4140 C   0  0  0  0  0  0  0  0  0  0  0  0
  128.6940  125.6810   69.6890 C   0  0  0  0  0  0  0  0  0  0  0  0
  129.0540  124.9820   70.9260 C   0  0  0  0  0  0  0  0  0  0  0  0
  128.8890  125.5180   72.0240 O   0  0  0  0  0  0  0  0  0  0  0  0
  129.5760  123.7410   70.7620 N   0  0  0  0  0  0  0  0  0  0  0  0
  129.9950  122.8750   71.7630 C   0  0  0  0  0  0  0  0  0  0  0  0
  129.4080  121.7700   72.1720 N   0  0  0  0  0  0  0  0  0  0  0  0
  130.0870  121.1920   73.1430 C   0  0  0  0  0  0  0  0  0  0  0  0
  131.2570  121.8320   73.5430 C   0  0  0  0  0  0  0  0  0  0  0  0
  131.4700  123.2690   72.5860 S   0  0  0  0  0  0  0  0  0  0  0  0
  127.3970  126.8730   69.6900 S   0  0  0  0  0  0  0  0  0  0  0  0
  127.6320  127.1940   67.9870 C   0  0  0  0  0  0  0  0  0  0  0  0
  126.8880  128.0880   67.3410 N   0  0  0  0  0  0  0  0  0  0  0  0
  127.1480  128.2750   66.0210 C   0  0  0  0  0  0  0  0  0  0  0  0
  126.3000  129.3010   65.3250 C   0  0  0  0  0  0  0  0  0  0  0  0
  124.9200  129.3790   65.5710 C   0  0  0  0  0  0  0  0  0  0  0  0
  124.1270  130.3240   64.9240 C   0  0  0  0  0  0  0  0  0  0  0  0
  124.7060  131.2050   64.0160 C   0  0  0  0  0  0  0  0  0  0  0  0
  126.0700  131.1480   63.7520 C   0  0  0  0  0  0  0  0  0  0  0  0
  126.8580  130.2030   64.4020 C   0  0  0  0  0  0  0  0  0  0  0  0
  128.1360  127.5460   65.3520 C   0  0  0  0  0  0  0  0  0  0  0  0
  128.9250  126.5980   66.0240 C   0  0  0  0  0  0  0  0  0  0  0  0
  129.9930  125.8360   65.2310 C   0  0  0  0  0  0  0  0  0  0  0  0
  131.1990  125.8790   65.8000 F   0  0  0  0  0  0  0  0  0  0  0  0
  129.6450  124.5540   65.1260 F   0  0  0  0  0  0  0  0  0  0  0  0
  130.1090  126.3610   64.0110 F   0  0  0  0  0  0  0  0  0  0  0  0
  128.6730  126.4080   67.4130 C   0  0  0  0  0  0  0  0  0  0  0  0
  130.9230  124.3580   68.8610 H   0  0  0  0  0  0  0  0  0  0  0  0
  130.4870  124.3840   67.1960 H   0  0  0  0  0  0  0  0  0  0  0  0
  129.6840  123.4040   69.8170 H   0  0  0  0  0  0  0  0  0  0  0  0
  129.7480  120.2561   73.6112 H   0  0  0  0  0  0  0  0  0  0  0  0
  131.9364  121.4852   74.3356 H   0  0  0  0  0  0  0  0  0  0  0  0
  124.4575  128.6827   66.2861 H   0  0  0  0  0  0  0  0  0  0  0  0
  123.0476  130.3735   65.1301 H   0  0  0  0  0  0  0  0  0  0  0  0
  124.0808  131.9512   63.5038 H   0  0  0  0  0  0  0  0  0  0  0  0
  126.5237  131.8462   63.0332 H   0  0  0  0  0  0  0  0  0  0  0  0
  127.9365  130.1609   64.1899 H   0  0  0  0  0  0  0  0  0  0  0  0
  128.2986  127.7184   64.2778 H   0  0  0  0  0  0  0  0  0  0  0  0
  1  2  1  0
  2  3  2  0
  3  4  1  0
  4  5  2  0
  4  6  1  0
  6  7  1  0
  7  8  2  0
  8  9  1  0
  9 10  2  0
 10 11  1  0
  3 12  1  0
 12 13  1  0
 13 14  2  0
 14 15  1  0
 15 16  1  0
 16 17  2  0
 17 18  1  0
 18 19  2  0
 19 20  1  0
 20 21  2  0
 15 22  2  0
 22 23  1  0
 23 24  1  0
 24 25  1  0
 24 26  1  0
 24 27  1  0
 23 28  2  0
 28  2  1  0
 11  7  1  0
 28 13  1  0
 21 16  1  0
  1 29  1  0
  1 30  1  0
  6 31  1  0
  9 32  1  0
 10 33  1  0
 17 34  1  0
 18 35  1  0
 19 36  1  0
 20 37  1  0
 21 38  1  0
 22 39  1  0
M  END
>  <Binding energies>  (1) 
[-7.66]

>  <Ligand effiencies>  (1) 
[-0.2470967741935484]

>  <Interactions>  (1) 
["V-B:GLU:543:CD:9880, V-A:GLU:543:CD:4908, V-B:GLU:543:C:9874, V-B:GLU:543:CB:9878, V-B:GLY:544:C:9884, V-B:HIS:456:CE1:9040, H-B:LYS:547:NZ:9923, V-A:HIS:456:CE1:4069, V-A:ASP:473:CG:4240, V-A:HIS:456:CG:4066, V-A:HIS:456:CD2:4068, V-A:ASP:473:CB:4239, V-A:HIS:456:CB:4065, V-B:ARG:545:CD:9895, V-B:ARG:545:CZ:9898, V-B:GLU:543:CG:9879, V-B:GLY:454:CA:9020, V-A:TYR:484:CE1:4345, V-A:TYR:484:CZ:4347, H-A:TYR:484:OH:4348, H-A:HIS:456:ND1:4067, H-B:GLU:543:O:9875, V-A:TYR:484:CD2:4344, V-A:TYR:484:CG:4342, V-A:TYR:484:CE2:4346, V-A:TYR:484:CB:4341, V-A:TYR:484:CD1:4343"]

$$$$
4ck_Grossjean_2025
     RDKit          3D

 57 59  0  0  0  0  0  0  0  0999 V2000
  134.6380  124.3100   75.3100 C   0  0  0  0  0  0  0  0  0  0  0  0
  135.0610  125.5900   74.8670 O   0  0  0  0  0  0  0  0  0  0  0  0
  133.9870  126.4500   74.5140 C   0  0  0  0  0  0  0  0  0  0  0  0
  132.8410  126.2570   75.5150 C   0  0  0  0  0  0  0  0  0  0  0  0
  131.6410  126.7690   74.9520 O   0  0  0  0  0  0  0  0  0  0  0  0
  130.6250  125.7880   74.7900 C   0  0  0  0  0  0  0  0  0  0  0  0
  131.2680  124.4670   74.3510 C   0  0  0  0  0  0  0  0  0  0  0  0
  131.3950  124.4680   72.9360 O   0  0  0  0  0  0  0  0  0  0  0  0
  131.4210  123.1670   72.3600 C   0  0  0  0  0  0  0  0  0  0  0  0
  130.0210  122.8050   71.8420 C   0  0  0  0  0  0  0  0  0  0  0  0
  129.5890  123.6910   70.7600 N   0  0  0  0  0  0  0  0  0  0  0  0
  129.0920  124.9360   70.9090 C   0  0  0  0  0  0  0  0  0  0  0  0
  128.9750  125.4790   72.0100 O   0  0  0  0  0  0  0  0  0  0  0  0
  128.7040  125.6220   69.6760 C   0  0  0  0  0  0  0  0  0  0  0  0
  127.4170  126.8250   69.7010 S   0  0  0  0  0  0  0  0  0  0  0  0
  127.6310  127.1510   67.9970 C   0  0  0  0  0  0  0  0  0  0  0  0
  126.8840  128.0510   67.3630 N   0  0  0  0  0  0  0  0  0  0  0  0
  127.1220  128.2350   66.0380 C   0  0  0  0  0  0  0  0  0  0  0  0
  126.2750  129.2700   65.3560 C   0  0  0  0  0  0  0  0  0  0  0  0
  124.9040  129.3790   65.6400 C   0  0  0  0  0  0  0  0  0  0  0  0
  124.1120  130.3360   65.0090 C   0  0  0  0  0  0  0  0  0  0  0  0
  124.6830  131.2010   64.0820 C   0  0  0  0  0  0  0  0  0  0  0  0
  126.0390  131.1190   63.7850 C   0  0  0  0  0  0  0  0  0  0  0  0
  126.8280  130.1610   64.4190 C   0  0  0  0  0  0  0  0  0  0  0  0
  128.1150  127.5210   65.3590 C   0  0  0  0  0  0  0  0  0  0  0  0
  128.9080  126.5690   66.0180 C   0  0  0  0  0  0  0  0  0  0  0  0
  129.9760  125.8190   65.2130 C   0  0  0  0  0  0  0  0  0  0  0  0
  129.6930  124.5260   65.0430 F   0  0  0  0  0  0  0  0  0  0  0  0
  130.0930  126.3640   64.0020 F   0  0  0  0  0  0  0  0  0  0  0  0
  131.1480  125.8920   65.8430 F   0  0  0  0  0  0  0  0  0  0  0  0
  128.6650  126.3660   67.4070 C   0  0  0  0  0  0  0  0  0  0  0  0
  129.2670  125.5040   68.3960 C   0  0  0  0  0  0  0  0  0  0  0  0
  130.2960  124.6450   68.1060 N   0  0  0  0  0  0  0  0  0  0  0  0
  134.6303  124.2867   76.4097 H   0  0  0  0  0  0  0  0  0  0  0  0
  133.6251  124.1074   74.9318 H   0  0  0  0  0  0  0  0  0  0  0  0
  135.3307  123.5437   74.9318 H   0  0  0  0  0  0  0  0  0  0  0  0
  134.3279  127.4955   74.5411 H   0  0  0  0  0  0  0  0  0  0  0  0
  133.6375  126.2097   73.4991 H   0  0  0  0  0  0  0  0  0  0  0  0
  132.7182  125.1857   75.7323 H   0  0  0  0  0  0  0  0  0  0  0  0
  133.0702  126.7919   76.4485 H   0  0  0  0  0  0  0  0  0  0  0  0
  130.0985  125.6419   75.7447 H   0  0  0  0  0  0  0  0  0  0  0  0
  129.9062  126.1216   74.0271 H   0  0  0  0  0  0  0  0  0  0  0  0
  132.2622  124.3687   74.8114 H   0  0  0  0  0  0  0  0  0  0  0  0
  130.6403  123.6217   74.6695 H   0  0  0  0  0  0  0  0  0  0  0  0
  132.1361  123.1508   71.5243 H   0  0  0  0  0  0  0  0  0  0  0  0
  131.7289  122.4360   73.1222 H   0  0  0  0  0  0  0  0  0  0  0  0
  130.0374  121.7705   71.4684 H   0  0  0  0  0  0  0  0  0  0  0  0
  129.3117  122.9167   72.6754 H   0  0  0  0  0  0  0  0  0  0  0  0
  129.7380  123.3490   69.8220 H   0  0  0  0  0  0  0  0  0  0  0  0
  124.4477  128.6974   66.3729 H   0  0  0  0  0  0  0  0  0  0  0  0
  123.0396  130.4070   65.2432 H   0  0  0  0  0  0  0  0  0  0  0  0
  124.0582  131.9548   63.5805 H   0  0  0  0  0  0  0  0  0  0  0  0
  126.4869  131.8072   63.0530 H   0  0  0  0  0  0  0  0  0  0  0  0
  127.9006  130.1008   64.1827 H   0  0  0  0  0  0  0  0  0  0  0  0
  128.2774  127.7095   64.2875 H   0  0  0  0  0  0  0  0  0  0  0  0
  130.8970  124.2650   68.8230 H   0  0  0  0  0  0  0  0  0  0  0  0
  130.4850  124.3550   67.1550 H   0  0  0  0  0  0  0  0  0  0  0  0
  1  2  1  0
  2  3  1  0
  3  4  1  0
  4  5  1  0
  5  6  1  0
  6  7  1  0
  7  8  1  0
  8  9  1  0
  9 10  1  0
 10 11  1  0
 11 12  1  0
 12 13  2  0
 12 14  1  0
 14 15  1  0
 15 16  1  0
 16 17  2  0
 17 18  1  0
 18 19  1  0
 19 20  2  0
 20 21  1  0
 21 22  2  0
 22 23  1  0
 23 24  2  0
 18 25  2  0
 25 26  1  0
 26 27  1  0
 27 28  1  0
 27 29  1  0
 27 30  1  0
 26 31  2  0
 31 32  1  0
 32 33  1  0
 32 14  2  0
 31 16  1  0
 24 19  1  0
  1 34  1  0
  1 35  1  0
  1 36  1  0
  3 37  1  0
  3 38  1  0
  4 39  1  0
  4 40  1  0
  6 41  1  0
  6 42  1  0
  7 43  1  0
  7 44  1  0
  9 45  1  0
  9 46  1  0
 10 47  1  0
 10 48  1  0
 11 49  1  0
 20 50  1  0
 21 51  1  0
 22 52  1  0
 23 53  1  0
 24 54  1  0
 25 55  1  0
 33 56  1  0
 33 57  1  0
M  END
>  <Binding energies>  (1) 
[-6.74]

>  <Ligand effiencies>  (1) 
[-0.18722222222222223]

>  <Interactions>  (1) 
["V-B:GLU:543:CD:9880, V-A:GLU:543:CD:4908, V-B:GLU:543:C:9874, V-B:GLU:543:CB:9878, V-B:GLY:544:C:9884, H-A:LYS:547:NZ:4951, V-B:HIS:456:CE1:9040, H-B:LYS:547:NZ:9923, V-A:HIS:456:CE1:4069, V-A:HIS:456:CG:4066, V-A:HIS:456:CD2:4068, V-A:HIS:456:C:4061, V-A:HIS:456:CB:4065, V-B:ARG:545:CD:9895, V-B:ARG:545:CZ:9898, V-B:GLU:543:CG:9879, V-B:GLY:454:CA:9020, V-A:TYR:484:CE1:4345, V-A:TYR:484:CZ:4347, H-A:TYR:484:OH:4348, H-A:HIS:456:ND1:4067, H-B:GLU:543:O:9875, V-A:LYS:547:CD:4949, V-A:TYR:484:CD2:4344, V-A:VAL:458:CG2:4087, V-A:TYR:484:CG:4342, V-A:TYR:484:CE2:4346, V-A:TYR:484:CB:4341, V-A:TYR:484:CD1:4343, H-A:VAL:457:N:4076"]

$$$$
4dd_Grossjean_2025
     RDKit          3D

 43 46  0  0  0  0  0  0  0  0999 V2000
  122.9270  130.9890   60.1590 C   0  0  0  0  0  0  0  0  0  0  0  0
  124.1820  130.6430   60.9460 C   0  0  0  0  0  0  0  0  0  0  0  0
  124.0490  130.3650   62.3120 C   0  0  0  0  0  0  0  0  0  0  0  0
  125.1660  130.0390   63.0910 C   0  0  0  0  0  0  0  0  0  0  0  0
  125.0540  129.7420   64.5570 C   0  0  0  0  0  0  0  0  0  0  0  0
  126.1340  129.1900   65.2640 C   0  0  0  0  0  0  0  0  0  0  0  0
  126.0380  128.9150   66.6260 C   0  0  0  0  0  0  0  0  0  0  0  0
  124.8550  129.1870   67.3030 C   0  0  0  0  0  0  0  0  0  0  0  0
  123.7700  129.7360   66.6290 C   0  0  0  0  0  0  0  0  0  0  0  0
  123.8700  130.0120   65.2670 C   0  0  0  0  0  0  0  0  0  0  0  0
  126.4200  129.9910   62.5650 N   0  0  0  0  0  0  0  0  0  0  0  0
  126.5470  130.2490   61.2650 C   0  0  0  0  0  0  0  0  0  0  0  0
  128.0980  130.2040   60.4560 S   0  0  0  0  0  0  0  0  0  0  0  0
  127.3580  130.6290   58.9110 C   0  0  0  0  0  0  0  0  0  0  0  0
  128.1780  130.7500   57.7050 C   0  0  0  0  0  0  0  0  0  0  0  0
  127.9220  130.0830   56.7010 O   0  0  0  0  0  0  0  0  0  0  0  0
  129.2020  131.6350   57.7850 N   0  0  0  0  0  0  0  0  0  0  0  0
  130.1940  131.9470   56.8390 C   0  0  0  0  0  0  0  0  0  0  0  0
  131.5150  131.8610   57.2880 C   0  0  0  0  0  0  0  0  0  0  0  0
  132.5710  132.1360   56.4220 C   0  0  0  0  0  0  0  0  0  0  0  0
  132.3060  132.4890   55.1020 C   0  0  0  0  0  0  0  0  0  0  0  0
  130.9960  132.5660   54.6380 C   0  0  0  0  0  0  0  0  0  0  0  0
  129.9380  132.2930   55.5010 C   0  0  0  0  0  0  0  0  0  0  0  0
  125.9710  130.7980   59.0450 C   0  0  0  0  0  0  0  0  0  0  0  0
  125.1390  131.1360   58.0060 N   0  0  0  0  0  0  0  0  0  0  0  0
  125.4820  130.5830   60.3810 C   0  0  0  0  0  0  0  0  0  0  0  0
  122.1073  131.2150   60.8568 H   0  0  0  0  0  0  0  0  0  0  0  0
  123.1218  131.8669   59.5255 H   0  0  0  0  0  0  0  0  0  0  0  0
  122.6444  130.1353   59.5255 H   0  0  0  0  0  0  0  0  0  0  0  0
  123.0539  130.4032   62.7793 H   0  0  0  0  0  0  0  0  0  0  0  0
  127.0722  128.9709   64.7331 H   0  0  0  0  0  0  0  0  0  0  0  0
  126.8953  128.4841   67.1639 H   0  0  0  0  0  0  0  0  0  0  0  0
  124.7768  128.9667   68.3779 H   0  0  0  0  0  0  0  0  0  0  0  0
  122.8362  129.9516   67.1689 H   0  0  0  0  0  0  0  0  0  0  0  0
  123.0094  130.4480   64.7385 H   0  0  0  0  0  0  0  0  0  0  0  0
  129.2630  132.1650   58.6420 H   0  0  0  0  0  0  0  0  0  0  0  0
  131.7216  131.5749   58.3298 H   0  0  0  0  0  0  0  0  0  0  0  0
  133.6094  132.0744   56.7797 H   0  0  0  0  0  0  0  0  0  0  0  0
  133.1397  132.7092   54.4190 H   0  0  0  0  0  0  0  0  0  0  0  0
  130.7970  132.8419   53.5919 H   0  0  0  0  0  0  0  0  0  0  0  0
  128.9019  132.3481   55.1357 H   0  0  0  0  0  0  0  0  0  0  0  0
  124.3800  131.7930   58.1230 H   0  0  0  0  0  0  0  0  0  0  0  0
  125.2630  130.7390   57.0860 H   0  0  0  0  0  0  0  0  0  0  0  0
  1  2  1  0
  2  3  2  0
  3  4  1  0
  4  5  1  0
  5  6  2  0
  6  7  1  0
  7  8  2  0
  8  9  1  0
  9 10  2  0
  4 11  2  0
 11 12  1  0
 12 13  1  0
 13 14  1  0
 14 15  1  0
 15 16  2  0
 15 17  1  0
 17 18  1  0
 18 19  2  0
 19 20  1  0
 20 21  2  0
 21 22  1  0
 22 23  2  0
 14 24  2  0
 24 25  1  0
 24 26  1  0
 26  2  1  0
 10  5  1  0
 26 12  2  0
 23 18  1  0
  1 27  1  0
  1 28  1  0
  1 29  1  0
  3 30  1  0
  6 31  1  0
  7 32  1  0
  8 33  1  0
  9 34  1  0
 10 35  1  0
 17 36  1  0
 19 37  1  0
 20 38  1  0
 21 39  1  0
 22 40  1  0
 23 41  1  0
 25 42  1  0
 25 43  1  0
M  END
>  <Binding energies>  (1) 
[-7.65]

>  <Ligand effiencies>  (1) 
[-0.2637931034482759]

>  <Interactions>  (1) 
["V-B:ASP:366:CG:8184, V-A:PRO:540:CD:4887, V-A:PRO:540:N:4884, V-A:PRO:540:CG:4886, V-A:TYR:531:CE2:4793, V-A:ILE:538:CD1:4865, V-A:ILE:538:CA:4860, V-A:LEU:363:CD1:3189, V-A:TYR:539:CE2:4876, V-A:PRO:540:CB:4885, V-A:PRO:540:CA:4883, V-A:ILE:538:CG2:4863, V-B:ASP:366:CB:8183, V-B:HIS:456:CE1:9040, V-B:ARG:545:CG:9894, V-B:ILE:369:CD1:8210, V-B:ARG:545:CD:9895, V-B:ILE:369:CG2:8208, V-B:ARG:545:CZ:9898, V-B:GLY:454:CA:9020, V-A:TYR:539:CE1:4875, V-A:TYR:539:CD1:4873, V-A:TYR:539:CZ:4877, V-B:TYR:484:CZ:9318, H-A:TYR:539:OH:4878, V-B:ASP:366:CA:8181, H-A:TYR:539:O:4868, V-B:ILE:455:C:9023, V-B:ILE:369:CB:8207"]

$$$$
4dg_Grossjean_2025
     RDKit          3D

 46 49  0  0  0  0  0  0  0  0999 V2000
  122.9350  131.1600   59.4860 C   0  0  0  0  0  0  0  0  0  0  0  0
  124.4040  131.0620   59.8680 C   0  0  0  0  0  0  0  0  0  0  0  0
  125.3610  131.2930   58.8740 C   0  0  0  0  0  0  0  0  0  0  0  0
  126.7300  131.2190   59.1610 C   0  0  0  0  0  0  0  0  0  0  0  0
  127.7810  131.4630   58.1150 C   0  0  0  0  0  0  0  0  0  0  0  0
  128.8310  132.3660   58.3460 C   0  0  0  0  0  0  0  0  0  0  0  0
  129.8060  132.6000   57.3790 C   0  0  0  0  0  0  0  0  0  0  0  0
  129.7440  131.9310   56.1610 C   0  0  0  0  0  0  0  0  0  0  0  0
  128.7120  131.0340   55.9040 C   0  0  0  0  0  0  0  0  0  0  0  0
  127.7400  130.8040   56.8730 C   0  0  0  0  0  0  0  0  0  0  0  0
  127.1870  130.9380   60.4120 N   0  0  0  0  0  0  0  0  0  0  0  0
  126.2760  130.7170   61.3590 C   0  0  0  0  0  0  0  0  0  0  0  0
  126.7260  130.3400   63.0060 S   0  0  0  0  0  0  0  0  0  0  0  0
  125.0350  130.2280   63.4890 C   0  0  0  0  0  0  0  0  0  0  0  0
  124.6850  129.8680   64.8620 C   0  0  0  0  0  0  0  0  0  0  0  0
  123.7800  130.4460   65.4670 O   0  0  0  0  0  0  0  0  0  0  0  0
  125.4360  128.9000   65.4270 N   0  0  0  0  0  0  0  0  0  0  0  0
  125.2540  128.3650   66.7760 C   0  0  0  0  0  0  0  0  0  0  0  0
  126.5160  127.7320   67.3520 C   0  0  0  0  0  0  0  0  0  0  0  0
  126.4190  126.8500   68.4330 C   0  0  0  0  0  0  0  0  0  0  0  0
  127.5650  126.2460   68.9410 C   0  0  0  0  0  0  0  0  0  0  0  0
  128.8020  126.5160   68.3610 C   0  0  0  0  0  0  0  0  0  0  0  0
  128.9050  127.3810   67.2740 C   0  0  0  0  0  0  0  0  0  0  0  0
  127.7580  127.9850   66.7640 C   0  0  0  0  0  0  0  0  0  0  0  0
  124.1780  130.4600   62.4030 C   0  0  0  0  0  0  0  0  0  0  0  0
  122.8090  130.4220   62.4880 N   0  0  0  0  0  0  0  0  0  0  0  0
  124.8650  130.7550   61.1740 C   0  0  0  0  0  0  0  0  0  0  0  0
  122.3210  131.2010   60.3978 H   0  0  0  0  0  0  0  0  0  0  0  0
  122.7706  132.0711   58.8920 H   0  0  0  0  0  0  0  0  0  0  0  0
  122.6510  130.2788   58.8920 H   0  0  0  0  0  0  0  0  0  0  0  0
  125.0337  131.5362   57.8524 H   0  0  0  0  0  0  0  0  0  0  0  0
  128.8847  132.8980   59.3073 H   0  0  0  0  0  0  0  0  0  0  0  0
  130.6216  133.3109   57.5778 H   0  0  0  0  0  0  0  0  0  0  0  0
  130.5147  132.1120   55.3973 H   0  0  0  0  0  0  0  0  0  0  0  0
  128.6646  130.5087   54.9387 H   0  0  0  0  0  0  0  0  0  0  0  0
  126.9256  130.0947   56.6641 H   0  0  0  0  0  0  0  0  0  0  0  0
  126.1070  128.4180   64.8460 H   0  0  0  0  0  0  0  0  0  0  0  0
  124.9428  129.1866   67.4379 H   0  0  0  0  0  0  0  0  0  0  0  0
  124.4939  127.5725   66.7111 H   0  0  0  0  0  0  0  0  0  0  0  0
  125.4379  126.6340   68.8811 H   0  0  0  0  0  0  0  0  0  0  0  0
  127.4942  125.5585   69.7967 H   0  0  0  0  0  0  0  0  0  0  0  0
  129.7078  126.0409   68.7658 H   0  0  0  0  0  0  0  0  0  0  0  0
  129.8862  127.5859   66.8210 H   0  0  0  0  0  0  0  0  0  0  0  0
  127.8300  128.6607   65.8990 H   0  0  0  0  0  0  0  0  0  0  0  0
  122.2760  129.6270   62.1670 H   0  0  0  0  0  0  0  0  0  0  0  0
  122.2870  131.1910   62.8860 H   0  0  0  0  0  0  0  0  0  0  0  0
  1  2  1  0
  2  3  2  0
  3  4  1  0
  4  5  1  0
  5  6  2  0
  6  7  1  0
  7  8  2  0
  8  9  1  0
  9 10  2  0
  4 11  2  0
 11 12  1  0
 12 13  1  0
 13 14  1  0
 14 15  1  0
 15 16  2  0
 15 17  1  0
 17 18  1  0
 18 19  1  0
 19 20  2  0
 20 21  1  0
 21 22  2  0
 22 23  1  0
 23 24  2  0
 14 25  2  0
 25 26  1  0
 25 27  1  0
 27  2  1  0
 10  5  1  0
 27 12  2  0
 24 19  1  0
  1 28  1  0
  1 29  1  0
  1 30  1  0
  3 31  1  0
  6 32  1  0
  7 33  1  0
  8 34  1  0
  9 35  1  0
 10 36  1  0
 17 37  1  0
 18 38  1  0
 18 39  1  0
 20 40  1  0
 21 41  1  0
 22 42  1  0
 23 43  1  0
 24 44  1  0
 26 45  1  0
 26 46  1  0
M  END
>  <Binding energies>  (1) 
[-8.1]

>  <Ligand effiencies>  (1) 
[-0.26999999999999996]

>  <Interactions>  (1) 
["H-B:ASP:366:OD1:8185, V-B:ASP:366:CG:8184, V-A:PRO:540:N:4884, V-A:TYR:539:C:4867, V-A:TYR:539:CE2:4876, V-A:PRO:540:CA:4883, V-A:TYR:539:CD2:4874, V-B:ASP:366:CB:8183, V-B:GLU:543:C:9874, V-B:GLU:543:CB:9878, V-B:GLY:544:C:9884, V-B:ARG:545:CA:9891, V-B:HIS:456:CE1:9040, V-B:ARG:545:CG:9894, V-A:HIS:456:CE1:4069, H-B:GLU:543:OE1:9881, H-B:TYR:484:OH:9319, H-B:GLY:454:N:9021, V-B:GLY:453:C:9013, V-B:GLY:453:CA:9015, V-B:ILE:369:CD1:8210, V-B:ARG:545:CD:9895, V-B:ILE:369:CG2:8208, V-B:ARG:545:CZ:9898, H-B:ILE:455:N:9026, V-A:TYR:539:CE1:4875, H-B:ASP:366:OD2:8186, V-A:TYR:539:CD1:4873, V-A:TYR:539:CZ:4877, V-A:TYR:539:CG:4872, V-B:ASP:366:CA:8181, V-B:ASP:366:C:8179, V-B:ILE:369:CB:8207"]

$$$$
4dj_Grossjean_2025
     RDKit          3D

 39 42  0  0  0  0  0  0  0  0999 V2000
  129.2780  125.3010   64.8750 C   0  0  0  0  0  0  0  0  0  0  0  0
  128.8620  126.5080   65.7040 C   0  0  0  0  0  0  0  0  0  0  0  0
  128.3760  127.6340   65.0310 C   0  0  0  0  0  0  0  0  0  0  0  0
  127.9790  128.7780   65.7350 C   0  0  0  0  0  0  0  0  0  0  0  0
  127.4480  129.9990   65.0400 C   0  0  0  0  0  0  0  0  0  0  0  0
  128.2470  131.1440   64.8840 C   0  0  0  0  0  0  0  0  0  0  0  0
  127.7620  132.2800   64.2410 C   0  0  0  0  0  0  0  0  0  0  0  0
  126.4610  132.2880   63.7470 C   0  0  0  0  0  0  0  0  0  0  0  0
  125.6460  131.1710   63.8910 C   0  0  0  0  0  0  0  0  0  0  0  0
  126.1370  130.0380   64.5330 C   0  0  0  0  0  0  0  0  0  0  0  0
  128.0310  128.8390   67.0940 N   0  0  0  0  0  0  0  0  0  0  0  0
  128.4950  127.7680   67.7360 C   0  0  0  0  0  0  0  0  0  0  0  0
  128.6230  127.7140   69.4800 S   0  0  0  0  0  0  0  0  0  0  0  0
  129.2670  126.0710   69.4280 C   0  0  0  0  0  0  0  0  0  0  0  0
  129.6260  125.3780   70.6660 C   0  0  0  0  0  0  0  0  0  0  0  0
  129.7720  126.0050   71.7200 O   0  0  0  0  0  0  0  0  0  0  0  0
  129.7870  124.0370   70.5590 N   0  0  0  0  0  0  0  0  0  0  0  0
  130.1280  123.1530   71.5730 C   0  0  0  0  0  0  0  0  0  0  0  0
  129.5560  122.0050   71.8710 N   0  0  0  0  0  0  0  0  0  0  0  0
  130.1410  121.4250   72.9000 C   0  0  0  0  0  0  0  0  0  0  0  0
  131.2180  122.1050   73.4610 C   0  0  0  0  0  0  0  0  0  0  0  0
  131.4680  123.5870   72.5860 S   0  0  0  0  0  0  0  0  0  0  0  0
  129.3710  125.6100   68.1070 C   0  0  0  0  0  0  0  0  0  0  0  0
  129.8440  124.3670   67.7670 N   0  0  0  0  0  0  0  0  0  0  0  0
  128.9330  126.5600   67.1200 C   0  0  0  0  0  0  0  0  0  0  0  0
  129.5622  124.4763   65.5451 H   0  0  0  0  0  0  0  0  0  0  0  0
  128.4371  124.9846   64.2404 H   0  0  0  0  0  0  0  0  0  0  0  0
  130.1353  125.5699   64.2404 H   0  0  0  0  0  0  0  0  0  0  0  0
  128.3046  127.6208   63.9334 H   0  0  0  0  0  0  0  0  0  0  0  0
  129.2744  131.1431   65.2769 H   0  0  0  0  0  0  0  0  0  0  0  0
  128.4035  133.1659   64.1242 H   0  0  0  0  0  0  0  0  0  0  0  0
  126.0749  133.1842   63.2392 H   0  0  0  0  0  0  0  0  0  0  0  0
  124.6181  131.1826   63.4994 H   0  0  0  0  0  0  0  0  0  0  0  0
  125.4878  129.1572   64.6458 H   0  0  0  0  0  0  0  0  0  0  0  0
  129.6520  123.6250   69.6470 H   0  0  0  0  0  0  0  0  0  0  0  0
  129.7970  120.4571   73.2935 H   0  0  0  0  0  0  0  0  0  0  0  0
  131.8144  121.7608   74.3188 H   0  0  0  0  0  0  0  0  0  0  0  0
  129.2500  123.5520   67.7650 H   0  0  0  0  0  0  0  0  0  0  0  0
  130.8110  124.2280   67.5080 H   0  0  0  0  0  0  0  0  0  0  0  0
  1  2  1  0
  2  3  2  0
  3  4  1  0
  4  5  1  0
  5  6  2  0
  6  7  1  0
  7  8  2  0
  8  9  1  0
  9 10  2  0
  4 11  2  0
 11 12  1  0
 12 13  1  0
 13 14  1  0
 14 15  1  0
 15 16  2  0
 15 17  1  0
 17 18  1  0
 18 19  2  0
 19 20  1  0
 20 21  2  0
 21 22  1  0
 14 23  2  0
 23 24  1  0
 23 25  1  0
 25  2  1  0
 10  5  1  0
 25 12  2  0
 22 18  1  0
  1 26  1  0
  1 27  1  0
  1 28  1  0
  3 29  1  0
  6 30  1  0
  7 31  1  0
  8 32  1  0
  9 33  1  0
 10 34  1  0
 17 35  1  0
 20 36  1  0
 21 37  1  0
 24 38  1  0
 24 39  1  0
M  END
>  <Binding energies>  (1) 
[-8.01]

>  <Ligand effiencies>  (1) 
[-0.2860714285714286]

>  <Interactions>  (1) 
["V-B:GLU:543:CD:9880, V-A:GLU:543:CD:4908, V-B:LEU:475:CD1:9229, V-A:ALA:541:CB:4892, V-B:GLU:543:C:9874, V-B:GLU:543:CB:9878, V-B:HIS:456:CE1:9040, H-B:LYS:547:NZ:9923, V-A:HIS:456:CE1:4069, V-A:ASP:473:CG:4240, V-A:HIS:456:CG:4066, V-A:HIS:456:CD2:4068, V-A:ASP:473:CB:4239, V-A:HIS:456:CB:4065, V-A:GLU:543:CB:4906, H-A:HIS:456:NE2:4070, V-B:GLU:543:CG:9879, V-A:TYR:484:CE1:4345, V-B:GLU:543:CA:9876, V-A:TYR:484:CZ:4347, H-A:TYR:484:OH:4348, H-A:HIS:456:ND1:4067, H-B:GLU:543:O:9875, V-A:TYR:484:CD2:4344, V-A:TYR:484:CG:4342, V-A:TYR:484:CE2:4346, V-A:TYR:484:CB:4341, V-A:TYR:484:CD1:4343"]

$$$$
4ea_Grossjean_2025
     RDKit          3D

 52 55  0  0  0  0  0  0  0  0999 V2000
  129.3440  131.1730   54.8990 C   0  0  0  0  0  0  0  0  0  0  0  0
  129.8460  132.6190   54.9200 C   0  0  0  0  0  0  0  0  0  0  0  0
  130.1470  132.9960   56.2570 O   0  0  0  0  0  0  0  0  0  0  0  0
  131.2500  132.5200   56.8890 C   0  0  0  0  0  0  0  0  0  0  0  0
  132.4010  132.7160   56.4870 O   0  0  0  0  0  0  0  0  0  0  0  0
  130.9320  131.7310   58.1270 C   0  0  0  0  0  0  0  0  0  0  0  0
  129.8380  132.1110   58.9150 C   0  0  0  0  0  0  0  0  0  0  0  0
  129.5160  131.4010   60.0680 C   0  0  0  0  0  0  0  0  0  0  0  0
  130.2780  130.2980   60.4570 C   0  0  0  0  0  0  0  0  0  0  0  0
  129.8590  129.6580   61.6390 N   0  0  0  0  0  0  0  0  0  0  0  0
  128.6340  129.5900   62.2150 C   0  0  0  0  0  0  0  0  0  0  0  0
  127.6220  130.1200   61.7550 O   0  0  0  0  0  0  0  0  0  0  0  0
  128.5710  128.8240   63.4620 C   0  0  0  0  0  0  0  0  0  0  0  0
  127.4560  129.2960   64.7470 S   0  0  0  0  0  0  0  0  0  0  0  0
  127.9870  127.9750   65.7610 C   0  0  0  0  0  0  0  0  0  0  0  0
  127.4760  127.7690   66.9760 N   0  0  0  0  0  0  0  0  0  0  0  0
  127.9740  126.7100   67.6600 C   0  0  0  0  0  0  0  0  0  0  0  0
  127.3790  126.4940   69.0390 C   0  0  0  0  0  0  0  0  0  0  0  0
  128.9610  125.8610   67.1640 C   0  0  0  0  0  0  0  0  0  0  0  0
  129.4940  126.0800   65.8890 C   0  0  0  0  0  0  0  0  0  0  0  0
  130.5420  125.1690   65.3750 C   0  0  0  0  0  0  0  0  0  0  0  0
  131.8920  125.5150   65.4900 C   0  0  0  0  0  0  0  0  0  0  0  0
  132.8780  124.6580   65.0090 C   0  0  0  0  0  0  0  0  0  0  0  0
  132.5130  123.4550   64.4090 C   0  0  0  0  0  0  0  0  0  0  0  0
  131.1710  123.1030   64.2850 C   0  0  0  0  0  0  0  0  0  0  0  0
  130.1860  123.9610   64.7660 C   0  0  0  0  0  0  0  0  0  0  0  0
  128.9980  127.1820   65.1380 C   0  0  0  0  0  0  0  0  0  0  0  0
  129.3120  127.6880   63.8270 C   0  0  0  0  0  0  0  0  0  0  0  0
  130.2540  127.1010   63.0220 N   0  0  0  0  0  0  0  0  0  0  0  0
  131.3760  129.9110   59.6730 C   0  0  0  0  0  0  0  0  0  0  0  0
  131.6960  130.6230   58.5200 C   0  0  0  0  0  0  0  0  0  0  0  0
  129.2191  130.8132   55.9310 H   0  0  0  0  0  0  0  0  0  0  0  0
  128.3776  131.1279   54.3755 H   0  0  0  0  0  0  0  0  0  0  0  0
  130.0746  130.5388   54.3755 H   0  0  0  0  0  0  0  0  0  0  0  0
  130.7527  132.7015   54.3027 H   0  0  0  0  0  0  0  0  0  0  0  0
  129.0672  133.2837   54.5178 H   0  0  0  0  0  0  0  0  0  0  0  0
  129.2283  132.9778   58.6201 H   0  0  0  0  0  0  0  0  0  0  0  0
  128.6544  131.7114   60.6774 H   0  0  0  0  0  0  0  0  0  0  0  0
  130.6000  129.1750   62.1270 H   0  0  0  0  0  0  0  0  0  0  0  0
  128.1212  126.7634   69.8049 H   0  0  0  0  0  0  0  0  0  0  0  0
  126.4858  127.1252   69.1559 H   0  0  0  0  0  0  0  0  0  0  0  0
  127.0987  125.4368   69.1559 H   0  0  0  0  0  0  0  0  0  0  0  0
  129.3209  125.0194   67.7741 H   0  0  0  0  0  0  0  0  0  0  0  0
  132.1757  126.4672   65.9620 H   0  0  0  0  0  0  0  0  0  0  0  0
  133.9399  124.9294   65.1023 H   0  0  0  0  0  0  0  0  0  0  0  0
  133.2916  122.7769   64.0297 H   0  0  0  0  0  0  0  0  0  0  0  0
  130.8909  122.1516   63.8093 H   0  0  0  0  0  0  0  0  0  0  0  0
  129.1249  123.6884   64.6670 H   0  0  0  0  0  0  0  0  0  0  0  0
  129.9970  126.5080   62.2450 H   0  0  0  0  0  0  0  0  0  0  0  0
  131.2430  127.2410   63.1800 H   0  0  0  0  0  0  0  0  0  0  0  0
  131.9845  129.0441   59.9698 H   0  0  0  0  0  0  0  0  0  0  0  0
  132.5577  130.3128   57.9107 H   0  0  0  0  0  0  0  0  0  0  0  0
  1  2  1  0
  2  3  1  0
  3  4  1  0
  4  5  2  0
  4  6  1  0
  6  7  2  0
  7  8  1  0
  8  9  2  0
  9 10  1  0
 10 11  1  0
 11 12  2  0
 11 13  1  0
 13 14  1  0
 14 15  1  0
 15 16  2  0
 16 17  1  0
 17 18  1  0
 17 19  2  0
 19 20  1  0
 20 21  1  0
 21 22  2  0
 22 23  1  0
 23 24  2  0
 24 25  1  0
 25 26  2  0
 20 27  2  0
 27 28  1  0
 28 29  1  0
  9 30  1  0
 30 31  2  0
 31  6  1  0
 28 13  2  0
 27 15  1  0
 26 21  1  0
  1 32  1  0
  1 33  1  0
  1 34  1  0
  2 35  1  0
  2 36  1  0
  7 37  1  0
  8 38  1  0
 10 39  1  0
 18 40  1  0
 18 41  1  0
 18 42  1  0
 19 43  1  0
 22 44  1  0
 23 45  1  0
 24 46  1  0
 25 47  1  0
 26 48  1  0
 29 49  1  0
 29 50  1  0
 30 51  1  0
 31 52  1  0
M  END
>  <Binding energies>  (1) 
[-8.24]

>  <Ligand effiencies>  (1) 
[-0.2423529411764706]

>  <Interactions>  (1) 
["V-A:LEU:475:CD1:4258, V-A:PRO:540:CD:4887, V-A:PRO:540:N:4884, V-A:TYR:539:C:4867, V-A:ILE:538:CA:4860, V-A:GLU:543:CD:4908, V-A:PRO:540:CB:4885, V-A:PRO:540:CA:4883, V-B:GLU:543:C:9874, V-B:GLU:543:CB:9878, V-B:GLY:544:C:9884, V-B:HIS:456:CE1:9040, V-A:HIS:456:CE1:4069, V-B:GLU:543:CG:9879, H-A:GLU:543:OE2:4910, V-A:GLY:454:CA:4049, H-A:GLU:543:OE1:4909, V-A:TYR:539:CE1:4875, V-A:TYR:539:CD1:4873, H-A:TYR:539:N:4870"]

$$$$
4eb_Grossjean_2025
     RDKit          3D

 49 52  0  0  0  0  0  0  0  0999 V2000
  130.1200  132.6000   54.8680 C   0  0  0  0  0  0  0  0  0  0  0  0
  130.4050  132.9840   56.2060 O   0  0  0  0  0  0  0  0  0  0  0  0
  131.3910  132.3730   56.9130 C   0  0  0  0  0  0  0  0  0  0  0  0
  132.5720  132.3550   56.5550 O   0  0  0  0  0  0  0  0  0  0  0  0
  130.9010  131.7230   58.1750 C   0  0  0  0  0  0  0  0  0  0  0  0
  131.6340  130.6640   58.7270 C   0  0  0  0  0  0  0  0  0  0  0  0
  131.2060  130.0410   59.8960 C   0  0  0  0  0  0  0  0  0  0  0  0
  130.0390  130.4610   60.5360 C   0  0  0  0  0  0  0  0  0  0  0  0
  129.7030  129.7580   61.7090 N   0  0  0  0  0  0  0  0  0  0  0  0
  128.4910  129.4840   62.2520 C   0  0  0  0  0  0  0  0  0  0  0  0
  127.4170  129.8360   61.7640 O   0  0  0  0  0  0  0  0  0  0  0  0
  128.5250  128.7170   63.5000 C   0  0  0  0  0  0  0  0  0  0  0  0
  127.4410  129.1300   64.8300 S   0  0  0  0  0  0  0  0  0  0  0  0
  128.0870  127.8410   65.8210 C   0  0  0  0  0  0  0  0  0  0  0  0
  127.6400  127.6100   67.0560 N   0  0  0  0  0  0  0  0  0  0  0  0
  128.2230  126.5820   67.7180 C   0  0  0  0  0  0  0  0  0  0  0  0
  127.6990  126.3360   69.1220 C   0  0  0  0  0  0  0  0  0  0  0  0
  129.2330  125.7870   67.1800 C   0  0  0  0  0  0  0  0  0  0  0  0
  129.6990  126.0340   65.8840 C   0  0  0  0  0  0  0  0  0  0  0  0
  130.7730  125.1800   65.3250 C   0  0  0  0  0  0  0  0  0  0  0  0
  130.4500  124.0470   64.5730 C   0  0  0  0  0  0  0  0  0  0  0  0
  131.4590  123.2450   64.0460 C   0  0  0  0  0  0  0  0  0  0  0  0
  132.7930  123.5750   64.2750 C   0  0  0  0  0  0  0  0  0  0  0  0
  133.1250  124.7010   65.0270 C   0  0  0  0  0  0  0  0  0  0  0  0
  132.1140  125.5020   65.5520 C   0  0  0  0  0  0  0  0  0  0  0  0
  129.1120  127.1040   65.1560 C   0  0  0  0  0  0  0  0  0  0  0  0
  129.3410  127.6250   63.8340 C   0  0  0  0  0  0  0  0  0  0  0  0
  130.2800  127.0890   62.9880 N   0  0  0  0  0  0  0  0  0  0  0  0
  129.2980  131.5200   59.9900 C   0  0  0  0  0  0  0  0  0  0  0  0
  129.7280  132.1430   58.8210 C   0  0  0  0  0  0  0  0  0  0  0  0
  129.4644  131.7167   54.8718 H   0  0  0  0  0  0  0  0  0  0  0  0
  129.6163  133.4283   54.3482 H   0  0  0  0  0  0  0  0  0  0  0  0
  131.0587  132.3577   54.3482 H   0  0  0  0  0  0  0  0  0  0  0  0
  132.5552  130.3221   58.2325 H   0  0  0  0  0  0  0  0  0  0  0  0
  131.7920  129.2115   60.3185 H   0  0  0  0  0  0  0  0  0  0  0  0
  130.5000  129.4070   62.2180 H   0  0  0  0  0  0  0  0  0  0  0  0
  128.4404  126.6841   69.8563 H   0  0  0  0  0  0  0  0  0  0  0  0
  126.7568  126.8859   69.2633 H   0  0  0  0  0  0  0  0  0  0  0  0
  127.5202  125.2599   69.2633 H   0  0  0  0  0  0  0  0  0  0  0  0
  129.6633  124.9666   67.7731 H   0  0  0  0  0  0  0  0  0  0  0  0
  129.3955  123.7881   64.3969 H   0  0  0  0  0  0  0  0  0  0  0  0
  131.2040  122.3552   63.4517 H   0  0  0  0  0  0  0  0  0  0  0  0
  133.5907  122.9420   63.8591 H   0  0  0  0  0  0  0  0  0  0  0  0
  134.1803  124.9555   65.2048 H   0  0  0  0  0  0  0  0  0  0  0  0
  132.3715  126.3906   66.1470 H   0  0  0  0  0  0  0  0  0  0  0  0
  130.0150  126.5800   62.1570 H   0  0  0  0  0  0  0  0  0  0  0  0
  131.2700  127.1860   63.1690 H   0  0  0  0  0  0  0  0  0  0  0  0
  128.3763  131.8586   60.4859 H   0  0  0  0  0  0  0  0  0  0  0  0
  129.1420  132.9731   58.3995 H   0  0  0  0  0  0  0  0  0  0  0  0
  1  2  1  0
  2  3  1  0
  3  4  2  0
  3  5  1  0
  5  6  2  0
  6  7  1  0
  7  8  2  0
  8  9  1  0
  9 10  1  0
 10 11  2  0
 10 12  1  0
 12 13  1  0
 13 14  1  0
 14 15  2  0
 15 16  1  0
 16 17  1  0
 16 18  2  0
 18 19  1  0
 19 20  1  0
 20 21  2  0
 21 22  1  0
 22 23  2  0
 23 24  1  0
 24 25  2  0
 19 26  2  0
 26 27  1  0
 27 28  1  0
  8 29  1  0
 29 30  2  0
 30  5  1  0
 27 12  2  0
 26 14  1  0
 25 20  1  0
  1 31  1  0
  1 32  1  0
  1 33  1  0
  6 34  1  0
  7 35  1  0
  9 36  1  0
 17 37  1  0
 17 38  1  0
 17 39  1  0
 18 40  1  0
 21 41  1  0
 22 42  1  0
 23 43  1  0
 24 44  1  0
 25 45  1  0
 28 46  1  0
 28 47  1  0
 29 48  1  0
 30 49  1  0
M  END
>  <Binding energies>  (1) 
[-8.22]

>  <Ligand effiencies>  (1) 
[-0.2490909090909091]

>  <Interactions>  (1) 
["V-A:LEU:475:CD1:4258, V-A:PRO:540:CD:4887, V-A:PRO:540:N:4884, V-A:TYR:539:C:4867, V-A:ILE:538:CA:4860, V-A:GLU:543:CD:4908, V-A:PRO:540:CB:4885, V-A:PRO:540:CA:4883, V-B:GLU:543:C:9874, V-B:GLU:543:CB:9878, V-B:GLY:544:C:9884, V-B:HIS:456:CE1:9040, V-A:HIS:456:CE1:4069, H-A:GLU:543:OE2:4910, V-A:GLY:454:CA:4049, H-A:GLU:543:OE1:4909, V-A:TYR:539:CE1:4875, V-A:TYR:539:CD1:4873, H-A:TYR:539:N:4870"]

$$$$
8a_Ghoteimi_2023
     RDKit          3D

 67 71  0  0  0  0  0  0  0  0999 V2000
  132.6980  131.4610   56.8540 C   0  0  0  0  0  0  0  0  0  0  0  0
  131.9200  132.5140   56.0600 C   0  0  0  0  0  0  0  0  0  0  0  0
  130.8450  133.0040   56.8520 O   0  0  0  0  0  0  0  0  0  0  0  0
  129.6930  132.2960   56.9870 C   0  0  0  0  0  0  0  0  0  0  0  0
  128.8670  132.1630   56.0790 O   0  0  0  0  0  0  0  0  0  0  0  0
  129.5220  131.6950   58.3520 C   0  0  0  0  0  0  0  0  0  0  0  0
  129.9540  130.3830   58.5810 C   0  0  0  0  0  0  0  0  0  0  0  0
  129.8090  129.7970   59.8350 C   0  0  0  0  0  0  0  0  0  0  0  0
  129.2290  130.5090   60.8870 C   0  0  0  0  0  0  0  0  0  0  0  0
  129.1290  129.8140   62.1080 N   0  0  0  0  0  0  0  0  0  0  0  0
  128.0480  129.5620   62.8880 C   0  0  0  0  0  0  0  0  0  0  0  0
  126.9040  129.9330   62.6290 O   0  0  0  0  0  0  0  0  0  0  0  0
  128.3220  128.7880   64.1030 C   0  0  0  0  0  0  0  0  0  0  0  0
  127.4780  129.1600   65.6050 S   0  0  0  0  0  0  0  0  0  0  0  0
  128.3340  127.8950   66.4550 C   0  0  0  0  0  0  0  0  0  0  0  0
  128.1370  127.6650   67.7530 N   0  0  0  0  0  0  0  0  0  0  0  0
  128.8580  126.6610   68.3180 C   0  0  0  0  0  0  0  0  0  0  0  0
  128.6360  126.4340   69.7790 C   0  0  0  0  0  0  0  0  0  0  0  0
  127.7220  127.2140   70.5020 C   0  0  0  0  0  0  0  0  0  0  0  0
  127.5280  127.0060   71.8640 C   0  0  0  0  0  0  0  0  0  0  0  0
  128.2380  126.0130   72.5370 C   0  0  0  0  0  0  0  0  0  0  0  0
  127.9820  125.8800   73.8890 O   0  0  0  0  0  0  0  0  0  0  0  0
  128.4330  126.8910   74.7830 C   0  0  0  0  0  0  0  0  0  0  0  0
  129.1490  125.2230   71.8230 C   0  0  0  0  0  0  0  0  0  0  0  0
  129.3440  125.4360   70.4600 C   0  0  0  0  0  0  0  0  0  0  0  0
  129.7640  125.8900   67.5860 C   0  0  0  0  0  0  0  0  0  0  0  0
  129.9620  126.1170   66.2200 C   0  0  0  0  0  0  0  0  0  0  0  0
  130.9140  125.2460   65.4830 C   0  0  0  0  0  0  0  0  0  0  0  0
  130.4400  124.1840   64.7100 C   0  0  0  0  0  0  0  0  0  0  0  0
  131.3260  123.3790   64.0010 C   0  0  0  0  0  0  0  0  0  0  0  0
  132.6990  123.6230   64.0470 C   0  0  0  0  0  0  0  0  0  0  0  0
  133.5030  122.7730   63.3120 O   0  0  0  0  0  0  0  0  0  0  0  0
  133.7220  123.0450   61.9330 C   0  0  0  0  0  0  0  0  0  0  0  0
  133.1770  124.6950   64.8170 C   0  0  0  0  0  0  0  0  0  0  0  0
  132.2870  125.5010   65.5240 C   0  0  0  0  0  0  0  0  0  0  0  0
  129.2340  127.1780   65.6120 C   0  0  0  0  0  0  0  0  0  0  0  0
  129.2190  127.7220   64.2770 C   0  0  0  0  0  0  0  0  0  0  0  0
  130.0290  127.2440   63.2770 N   0  0  0  0  0  0  0  0  0  0  0  0
  128.7970  131.8260   60.6680 C   0  0  0  0  0  0  0  0  0  0  0  0
  128.9440  132.4100   59.4120 C   0  0  0  0  0  0  0  0  0  0  0  0
  132.5647  131.6414   57.9309 H   0  0  0  0  0  0  0  0  0  0  0  0
  132.3217  130.4589   56.6008 H   0  0  0  0  0  0  0  0  0  0  0  0
  133.7665  131.5263   56.6008 H   0  0  0  0  0  0  0  0  0  0  0  0
  132.5909  133.3452   55.7973 H   0  0  0  0  0  0  0  0  0  0  0  0
  131.5218  132.0606   55.1403 H   0  0  0  0  0  0  0  0  0  0  0  0
  130.4125  129.8098   57.7617 H   0  0  0  0  0  0  0  0  0  0  0  0
  130.1538  128.7653   59.9987 H   0  0  0  0  0  0  0  0  0  0  0  0
  130.0050  129.4390   62.4400 H   0  0  0  0  0  0  0  0  0  0  0  0
  127.1513  128.0001   69.9859 H   0  0  0  0  0  0  0  0  0  0  0  0
  126.8085  127.6302   72.4142 H   0  0  0  0  0  0  0  0  0  0  0  0
  128.2838  126.5565   75.8202 H   0  0  0  0  0  0  0  0  0  0  0  0
  129.5022  127.0831   74.6099 H   0  0  0  0  0  0  0  0  0  0  0  0
  127.8617  127.8149   74.6099 H   0  0  0  0  0  0  0  0  0  0  0  0
  129.7120  124.4322   72.3403 H   0  0  0  0  0  0  0  0  0  0  0  0
  130.0642  124.8115   69.9111 H   0  0  0  0  0  0  0  0  0  0  0  0
  130.3297  125.0931   68.0909 H   0  0  0  0  0  0  0  0  0  0  0  0
  129.3597  123.9827   64.6614 H   0  0  0  0  0  0  0  0  0  0  0  0
  130.9407  122.5429   63.3989 H   0  0  0  0  0  0  0  0  0  0  0  0
  134.4089  123.8982   61.8321 H   0  0  0  0  0  0  0  0  0  0  0  0
  134.1628  122.1603   61.4503 H   0  0  0  0  0  0  0  0  0  0  0  0
  132.7636  123.2868   61.4503 H   0  0  0  0  0  0  0  0  0  0  0  0
  134.2569  124.8993   64.8624 H   0  0  0  0  0  0  0  0  0  0  0  0
  132.6682  126.3442   66.1187 H   0  0  0  0  0  0  0  0  0  0  0  0
  131.0280  127.3990   63.2900 H   0  0  0  0  0  0  0  0  0  0  0  0
  129.6580  126.7200   62.4980 H   0  0  0  0  0  0  0  0  0  0  0  0
  128.3415  132.3982   61.4896 H   0  0  0  0  0  0  0  0  0  0  0  0
  128.6032  133.4431   59.2493 H   0  0  0  0  0  0  0  0  0  0  0  0
  1  2  1  0
  2  3  1  0
  3  4  1  0
  4  5  2  0
  4  6  1  0
  6  7  2  0
  7  8  1  0
  8  9  2  0
  9 10  1  0
 10 11  1  0
 11 12  2  0
 11 13  1  0
 13 14  1  0
 14 15  1  0
 15 16  2  0
 16 17  1  0
 17 18  1  0
 18 19  2  0
 19 20  1  0
 20 21  2  0
 21 22  1  0
 22 23  1  0
 21 24  1  0
 24 25  2  0
 17 26  2  0
 26 27  1  0
 27 28  1  0
 28 29  2  0
 29 30  1  0
 30 31  2  0
 31 32  1  0
 32 33  1  0
 31 34  1  0
 34 35  2  0
 27 36  2  0
 36 37  1  0
 37 38  1  0
  9 39  1  0
 39 40  2  0
 40  6  1  0
 37 13  2  0
 36 15  1  0
 25 18  1  0
 35 28  1  0
  1 41  1  0
  1 42  1  0
  1 43  1  0
  2 44  1  0
  2 45  1  0
  7 46  1  0
  8 47  1  0
 10 48  1  0
 19 49  1  0
 20 50  1  0
 23 51  1  0
 23 52  1  0
 23 53  1  0
 24 54  1  0
 25 55  1  0
 26 56  1  0
 29 57  1  0
 30 58  1  0
 33 59  1  0
 33 60  1  0
 33 61  1  0
 34 62  1  0
 35 63  1  0
 38 64  1  0
 38 65  1  0
 39 66  1  0
 40 67  1  0
M  END
>  <Binding energies>  (1) 
[-9.79]

>  <Ligand effiencies>  (1) 
[-0.22767441860465115]

>  <Interactions>  (1) 
["V-A:PRO:540:CD:4887, V-A:PRO:540:N:4884, V-A:TYR:539:C:4867, V-A:LEU:363:CD1:3189, V-A:GLU:543:CD:4908, V-A:PRO:540:CB:4885, V-A:PRO:540:CA:4883, V-B:HIS:456:CG:9037, V-B:GLY:544:C:9884, V-B:HIS:456:CD2:9039, V-B:HIS:456:CE1:9040, H-B:LYS:547:NZ:9923, V-A:HIS:456:CE1:4069, V-A:HIS:456:CD2:4068, H-A:GLY:454:N:4050, V-A:ILE:369:CD1:3239, H-A:GLU:543:OE2:4910, V-A:GLY:454:CA:4049, V-A:ARG:545:CZ:4926, H-A:GLU:543:OE1:4909, V-A:TYR:539:CE1:4875, V-A:TYR:539:CD1:4873, H-A:TYR:539:N:4870"]

$$$$
8b_Ghoteimi_2023
     RDKit          3D

 54 58  0  0  0  0  0  0  0  0999 V2000
  123.4120  131.6670   62.0160 C   0  0  0  0  0  0  0  0  0  0  0  0
  123.9580  132.0040   63.2870 O   0  0  0  0  0  0  0  0  0  0  0  0
  124.8000  131.1080   63.9170 C   0  0  0  0  0  0  0  0  0  0  0  0
  124.2200  130.2700   64.8670 C   0  0  0  0  0  0  0  0  0  0  0  0
  124.9910  129.3370   65.5530 C   0  0  0  0  0  0  0  0  0  0  0  0
  126.3670  129.2170   65.3050 C   0  0  0  0  0  0  0  0  0  0  0  0
  127.2010  128.2170   66.0400 C   0  0  0  0  0  0  0  0  0  0  0  0
  128.2160  127.4940   65.4040 C   0  0  0  0  0  0  0  0  0  0  0  0
  128.9820  126.5650   66.1150 C   0  0  0  0  0  0  0  0  0  0  0  0
  130.0430  125.8090   65.4090 C   0  0  0  0  0  0  0  0  0  0  0  0
  131.3630  125.8650   65.8580 C   0  0  0  0  0  0  0  0  0  0  0  0
  132.3570  125.1460   65.2000 C   0  0  0  0  0  0  0  0  0  0  0  0
  132.0480  124.3650   64.0850 C   0  0  0  0  0  0  0  0  0  0  0  0
  133.0980  123.6860   63.4970 O   0  0  0  0  0  0  0  0  0  0  0  0
  133.8700  124.3350   62.4930 C   0  0  0  0  0  0  0  0  0  0  0  0
  130.7200  124.3140   63.6340 C   0  0  0  0  0  0  0  0  0  0  0  0
  129.7270  125.0320   64.2930 C   0  0  0  0  0  0  0  0  0  0  0  0
  128.7040  126.3850   67.4960 C   0  0  0  0  0  0  0  0  0  0  0  0
  129.2840  125.5400   68.5080 C   0  0  0  0  0  0  0  0  0  0  0  0
  130.3200  124.6820   68.2410 N   0  0  0  0  0  0  0  0  0  0  0  0
  128.6940  125.6820   69.7730 C   0  0  0  0  0  0  0  0  0  0  0  0
  129.0330  124.9900   71.0190 C   0  0  0  0  0  0  0  0  0  0  0  0
  128.8050  125.5150   72.1120 O   0  0  0  0  0  0  0  0  0  0  0  0
  129.6010  123.7670   70.8690 N   0  0  0  0  0  0  0  0  0  0  0  0
  130.0140  122.8990   71.8700 C   0  0  0  0  0  0  0  0  0  0  0  0
  131.1710  123.0990   72.6230 C   0  0  0  0  0  0  0  0  0  0  0  0
  131.2240  122.0320   73.4890 C   0  0  0  0  0  0  0  0  0  0  0  0
  130.1540  121.2320   73.2730 O   0  0  0  0  0  0  0  0  0  0  0  0
  129.3930  121.7920   72.2450 N   0  0  0  0  0  0  0  0  0  0  0  0
  127.3970  126.8770   69.7420 S   0  0  0  0  0  0  0  0  0  0  0  0
  127.6520  127.1780   68.0380 C   0  0  0  0  0  0  0  0  0  0  0  0
  126.9190  128.0620   67.3620 N   0  0  0  0  0  0  0  0  0  0  0  0
  126.9430  130.0600   64.3460 C   0  0  0  0  0  0  0  0  0  0  0  0
  126.1740  130.9960   63.6590 C   0  0  0  0  0  0  0  0  0  0  0  0
  122.4836  131.0940   62.1560 H   0  0  0  0  0  0  0  0  0  0  0  0
  123.1936  132.5876   61.4550 H   0  0  0  0  0  0  0  0  0  0  0  0
  124.1370  131.0591   61.4550 H   0  0  0  0  0  0  0  0  0  0  0  0
  123.1429  130.3468   65.0765 H   0  0  0  0  0  0  0  0  0  0  0  0
  124.5155  128.6844   66.3000 H   0  0  0  0  0  0  0  0  0  0  0  0
  128.4133  127.6579   64.3343 H   0  0  0  0  0  0  0  0  0  0  0  0
  131.6188  126.4789   66.7342 H   0  0  0  0  0  0  0  0  0  0  0  0
  133.3947  125.1937   65.5618 H   0  0  0  0  0  0  0  0  0  0  0  0
  134.6290  124.9730   62.9693 H   0  0  0  0  0  0  0  0  0  0  0  0
  134.3668  123.5793   61.8668 H   0  0  0  0  0  0  0  0  0  0  0  0
  133.2109  124.9543   61.8668 H   0  0  0  0  0  0  0  0  0  0  0  0
  130.4631  123.7037   62.7556 H   0  0  0  0  0  0  0  0  0  0  0  0
  128.6885  124.9872   63.9331 H   0  0  0  0  0  0  0  0  0  0  0  0
  130.4990  124.3490   67.3040 H   0  0  0  0  0  0  0  0  0  0  0  0
  130.9370  124.3520   68.9690 H   0  0  0  0  0  0  0  0  0  0  0  0
  129.7400  123.4390   69.9250 H   0  0  0  0  0  0  0  0  0  0  0  0
  131.8865  123.9306   72.5417 H   0  0  0  0  0  0  0  0  0  0  0  0
  132.0106  121.8568   74.2377 H   0  0  0  0  0  0  0  0  0  0  0  0
  128.0192  129.9815   64.1323 H   0  0  0  0  0  0  0  0  0  0  0  0
  126.6461  131.6500   62.9111 H   0  0  0  0  0  0  0  0  0  0  0  0
  1  2  1  0
  2  3  1  0
  3  4  2  0
  4  5  1  0
  5  6  2  0
  6  7  1  0
  7  8  2  0
  8  9  1  0
  9 10  1  0
 10 11  2  0
 11 12  1  0
 12 13  2  0
 13 14  1  0
 14 15  1  0
 13 16  1  0
 16 17  2  0
  9 18  2  0
 18 19  1  0
 19 20  1  0
 19 21  2  0
 21 22  1  0
 22 23  2  0
 22 24  1  0
 24 25  1  0
 25 26  1  0
 26 27  2  0
 27 28  1  0
 28 29  1  0
 21 30  1  0
 30 31  1  0
 31 32  2  0
  6 33  1  0
 33 34  2  0
 34  3  1  0
 32  7  1  0
 17 10  1  0
 31 18  1  0
 29 25  2  0
  1 35  1  0
  1 36  1  0
  1 37  1  0
  4 38  1  0
  5 39  1  0
  8 40  1  0
 11 41  1  0
 12 42  1  0
 15 43  1  0
 15 44  1  0
 15 45  1  0
 16 46  1  0
 17 47  1  0
 20 48  1  0
 20 49  1  0
 24 50  1  0
 26 51  1  0
 27 52  1  0
 33 53  1  0
 34 54  1  0
M  END
>  <Binding energies>  (1) 
[-9.61]

>  <Ligand effiencies>  (1) 
[-0.25972972972972974]

>  <Interactions>  (1) 
["V-B:GLU:543:CD:9880, V-A:GLU:543:CD:4908, V-B:GLU:543:C:9874, V-B:GLU:543:CB:9878, V-B:GLY:544:C:9884, V-B:HIS:456:CE1:9040, H-B:LYS:547:NZ:9923, V-A:HIS:456:CE1:4069, V-A:ASP:473:CG:4240, V-A:HIS:456:CG:4066, V-A:ASP:473:CB:4239, V-A:HIS:456:CB:4065, H-B:GLY:454:N:9021, V-B:ILE:369:CD1:8210, V-B:ARG:545:CD:9895, V-B:ARG:545:CZ:9898, H-A:GLY:454:N:4050, V-B:GLU:543:CG:9879, V-B:GLY:454:CA:9020, V-A:TYR:484:CE1:4345, V-A:TYR:484:CZ:4347, H-A:TYR:484:OH:4348, H-A:HIS:456:ND1:4067, V-A:ARG:545:CZ:4926, H-B:GLU:543:O:9875, V-A:TYR:484:CD2:4344, V-A:TYR:484:CG:4342, V-A:TYR:484:CE2:4346, V-A:TYR:484:CB:4341, V-A:TYR:484:CD1:4343"]

$$$$
8c_Ghoteimi_2023
     RDKit          3D

 54 58  0  0  0  0  0  0  0  0999 V2000
  123.7170  131.8910   61.8970 C   0  0  0  0  0  0  0  0  0  0  0  0
  123.9000  131.9740   63.3050 O   0  0  0  0  0  0  0  0  0  0  0  0
  124.7460  131.0770   63.9290 C   0  0  0  0  0  0  0  0  0  0  0  0
  124.1710  130.2320   64.8760 C   0  0  0  0  0  0  0  0  0  0  0  0
  124.9480  129.2990   65.5560 C   0  0  0  0  0  0  0  0  0  0  0  0
  126.3240  129.1870   65.3060 C   0  0  0  0  0  0  0  0  0  0  0  0
  127.1650  128.1890   66.0370 C   0  0  0  0  0  0  0  0  0  0  0  0
  128.1720  127.4630   65.3940 C   0  0  0  0  0  0  0  0  0  0  0  0
  128.9470  126.5370   66.1010 C   0  0  0  0  0  0  0  0  0  0  0  0
  130.0000  125.7780   65.3890 C   0  0  0  0  0  0  0  0  0  0  0  0
  129.6700  124.9730   64.2960 C   0  0  0  0  0  0  0  0  0  0  0  0
  130.6620  124.2680   63.6220 C   0  0  0  0  0  0  0  0  0  0  0  0
  131.9940  124.3530   64.0280 C   0  0  0  0  0  0  0  0  0  0  0  0
  132.9110  123.6200   63.2980 O   0  0  0  0  0  0  0  0  0  0  0  0
  133.7910  124.2980   62.4100 C   0  0  0  0  0  0  0  0  0  0  0  0
  132.3230  125.1590   65.1300 C   0  0  0  0  0  0  0  0  0  0  0  0
  131.3300  125.8650   65.8030 C   0  0  0  0  0  0  0  0  0  0  0  0
  128.6820  126.3640   67.4860 C   0  0  0  0  0  0  0  0  0  0  0  0
  129.2710  125.5220   68.4940 C   0  0  0  0  0  0  0  0  0  0  0  0
  130.3030  124.6600   68.2210 N   0  0  0  0  0  0  0  0  0  0  0  0
  128.6940  125.6680   69.7650 C   0  0  0  0  0  0  0  0  0  0  0  0
  129.0440  124.9810   71.0100 C   0  0  0  0  0  0  0  0  0  0  0  0
  128.8350  125.5110   72.1030 O   0  0  0  0  0  0  0  0  0  0  0  0
  129.6000  123.7530   70.8590 N   0  0  0  0  0  0  0  0  0  0  0  0
  130.0170  122.8970   71.8690 C   0  0  0  0  0  0  0  0  0  0  0  0
  129.4870  121.7460   72.2230 N   0  0  0  0  0  0  0  0  0  0  0  0
  130.1450  121.1970   73.2240 C   0  0  0  0  0  0  0  0  0  0  0  0
  131.2390  121.9080   73.7060 C   0  0  0  0  0  0  0  0  0  0  0  0
  131.4060  123.3770   72.7910 S   0  0  0  0  0  0  0  0  0  0  0  0
  127.3990  126.8660   69.7430 S   0  0  0  0  0  0  0  0  0  0  0  0
  127.6360  127.1600   68.0360 C   0  0  0  0  0  0  0  0  0  0  0  0
  126.8970  128.0410   67.3630 N   0  0  0  0  0  0  0  0  0  0  0  0
  126.8940  130.0390   64.3510 C   0  0  0  0  0  0  0  0  0  0  0  0
  126.1200  130.9730   63.6690 C   0  0  0  0  0  0  0  0  0  0  0  0
  122.7348  131.4455   61.6805 H   0  0  0  0  0  0  0  0  0  0  0  0
  123.7663  132.8996   61.4607 H   0  0  0  0  0  0  0  0  0  0  0  0
  124.5083  131.2637   61.4607 H   0  0  0  0  0  0  0  0  0  0  0  0
  123.0939  130.3030   65.0879 H   0  0  0  0  0  0  0  0  0  0  0  0
  124.4767  128.6400   66.3000 H   0  0  0  0  0  0  0  0  0  0  0  0
  128.3570  127.6214   64.3213 H   0  0  0  0  0  0  0  0  0  0  0  0
  128.6230  124.8964   63.9674 H   0  0  0  0  0  0  0  0  0  0  0  0
  130.3937  123.6379   62.7612 H   0  0  0  0  0  0  0  0  0  0  0  0
  134.5308  124.8680   62.9911 H   0  0  0  0  0  0  0  0  0  0  0  0
  134.3096  123.5637   61.7760 H   0  0  0  0  0  0  0  0  0  0  0  0
  133.2132  124.9867   61.7760 H   0  0  0  0  0  0  0  0  0  0  0  0
  133.3690  125.2326   65.4624 H   0  0  0  0  0  0  0  0  0  0  0  0
  131.5948  126.4945   66.6653 H   0  0  0  0  0  0  0  0  0  0  0  0
  130.9020  124.3050   68.9540 H   0  0  0  0  0  0  0  0  0  0  0  0
  130.5030  124.3520   67.2800 H   0  0  0  0  0  0  0  0  0  0  0  0
  129.7250  123.4140   69.9170 H   0  0  0  0  0  0  0  0  0  0  0  0
  129.8457  120.2300   73.6546 H   0  0  0  0  0  0  0  0  0  0  0  0
  131.8927  121.5920   74.5323 H   0  0  0  0  0  0  0  0  0  0  0  0
  127.9706  129.9685   64.1368 H   0  0  0  0  0  0  0  0  0  0  0  0
  126.5879  131.6323   62.9230 H   0  0  0  0  0  0  0  0  0  0  0  0
  1  2  1  0
  2  3  1  0
  3  4  2  0
  4  5  1  0
  5  6  2  0
  6  7  1  0
  7  8  2  0
  8  9  1  0
  9 10  1  0
 10 11  2  0
 11 12  1  0
 12 13  2  0
 13 14  1  0
 14 15  1  0
 13 16  1  0
 16 17  2  0
  9 18  2  0
 18 19  1  0
 19 20  1  0
 19 21  2  0
 21 22  1  0
 22 23  2  0
 22 24  1  0
 24 25  1  0
 25 26  2  0
 26 27  1  0
 27 28  2  0
 28 29  1  0
 21 30  1  0
 30 31  1  0
 31 32  2  0
  6 33  1  0
 33 34  2  0
 34  3  1  0
 32  7  1  0
 17 10  1  0
 31 18  1  0
 29 25  1  0
  1 35  1  0
  1 36  1  0
  1 37  1  0
  4 38  1  0
  5 39  1  0
  8 40  1  0
 11 41  1  0
 12 42  1  0
 15 43  1  0
 15 44  1  0
 15 45  1  0
 16 46  1  0
 17 47  1  0
 20 48  1  0
 20 49  1  0
 24 50  1  0
 27 51  1  0
 28 52  1  0
 33 53  1  0
 34 54  1  0
M  END
>  <Binding energies>  (1) 
[-9.14]

>  <Ligand effiencies>  (1) 
[-0.24702702702702703]

>  <Interactions>  (1) 
["V-B:GLU:543:CD:9880, V-A:GLU:543:CD:4908, V-B:GLU:543:C:9874, V-B:GLU:543:CB:9878, V-B:GLY:544:C:9884, V-B:HIS:456:CE1:9040, H-B:LYS:547:NZ:9923, V-A:HIS:456:CE1:4069, V-A:ASP:473:CG:4240, V-A:HIS:456:CG:4066, V-A:HIS:456:CD2:4068, V-A:ASP:473:CB:4239, V-A:HIS:456:CB:4065, H-B:GLY:454:N:9021, V-B:ILE:369:CD1:8210, V-B:ARG:545:CD:9895, V-B:ARG:545:CZ:9898, H-A:GLY:454:N:4050, V-B:GLU:543:CG:9879, V-B:GLY:454:CA:9020, V-A:TYR:484:CE1:4345, V-A:TYR:484:CZ:4347, H-A:TYR:484:OH:4348, H-A:HIS:456:ND1:4067, H-B:GLU:543:O:9875, V-A:TYR:484:CD2:4344, V-A:TYR:484:CG:4342, V-A:TYR:484:CE2:4346, V-A:TYR:484:CB:4341, V-A:TYR:484:CD1:4343"]

$$$$
8d_Ghoteimi_2023
     RDKit          3D

 50 53  0  0  0  0  0  0  0  0999 V2000
  130.9970  123.2400   72.0820 C   0  0  0  0  0  0  0  0  0  0  0  0
  129.6930  123.5840   71.6330 O   0  0  0  0  0  0  0  0  0  0  0  0
  129.2220  124.8510   71.7680 C   0  0  0  0  0  0  0  0  0  0  0  0
  129.1280  125.4410   72.8470 O   0  0  0  0  0  0  0  0  0  0  0  0
  128.8280  125.4590   70.4780 C   0  0  0  0  0  0  0  0  0  0  0  0
  127.4960  126.6150   70.4210 S   0  0  0  0  0  0  0  0  0  0  0  0
  127.6870  126.8080   68.6930 C   0  0  0  0  0  0  0  0  0  0  0  0
  126.9060  127.6250   67.9860 N   0  0  0  0  0  0  0  0  0  0  0  0
  127.1410  127.7020   66.6490 C   0  0  0  0  0  0  0  0  0  0  0  0
  126.2490  128.6220   65.8780 C   0  0  0  0  0  0  0  0  0  0  0  0
  126.6530  129.1640   64.6500 C   0  0  0  0  0  0  0  0  0  0  0  0
  125.8180  130.0200   63.9370 C   0  0  0  0  0  0  0  0  0  0  0  0
  124.5600  130.3580   64.4320 C   0  0  0  0  0  0  0  0  0  0  0  0
  123.8000  131.2130   63.6580 O   0  0  0  0  0  0  0  0  0  0  0  0
  123.3760  130.7890   62.3670 C   0  0  0  0  0  0  0  0  0  0  0  0
  124.1440  129.8210   65.6590 C   0  0  0  0  0  0  0  0  0  0  0  0
  124.9820  128.9640   66.3690 C   0  0  0  0  0  0  0  0  0  0  0  0
  128.1480  126.9590   66.0240 C   0  0  0  0  0  0  0  0  0  0  0  0
  128.9680  126.1050   66.7660 C   0  0  0  0  0  0  0  0  0  0  0  0
  130.0320  125.3380   66.0770 C   0  0  0  0  0  0  0  0  0  0  0  0
  131.3220  125.8610   65.9770 C   0  0  0  0  0  0  0  0  0  0  0  0
  132.3190  125.1440   65.3210 C   0  0  0  0  0  0  0  0  0  0  0  0
  132.0440  123.8960   64.7610 C   0  0  0  0  0  0  0  0  0  0  0  0
  133.0930  123.2580   64.1290 O   0  0  0  0  0  0  0  0  0  0  0  0
  133.5420  123.7410   62.8680 C   0  0  0  0  0  0  0  0  0  0  0  0
  130.7450  123.3700   64.8660 C   0  0  0  0  0  0  0  0  0  0  0  0
  129.7490  124.0890   65.5210 C   0  0  0  0  0  0  0  0  0  0  0  0
  128.7430  126.0110   68.1650 C   0  0  0  0  0  0  0  0  0  0  0  0
  129.3760  125.2510   69.2070 C   0  0  0  0  0  0  0  0  0  0  0  0
  130.4210  124.3950   68.9670 N   0  0  0  0  0  0  0  0  0  0  0  0
  131.0166  123.2348   73.1818 H   0  0  0  0  0  0  0  0  0  0  0  0
  131.2627  122.2410   71.7058 H   0  0  0  0  0  0  0  0  0  0  0  0
  131.7209  123.9779   71.7058 H   0  0  0  0  0  0  0  0  0  0  0  0
  127.6432  128.9095   64.2442 H   0  0  0  0  0  0  0  0  0  0  0  0
  126.1542  130.4331   62.9746 H   0  0  0  0  0  0  0  0  0  0  0  0
  122.6017  130.0147   62.4713 H   0  0  0  0  0  0  0  0  0  0  0  0
  122.9642  131.6474   61.8160 H   0  0  0  0  0  0  0  0  0  0  0  0
  124.2344  130.3772   61.8160 H   0  0  0  0  0  0  0  0  0  0  0  0
  123.1531  130.0773   66.0620 H   0  0  0  0  0  0  0  0  0  0  0  0
  124.6437  128.5493   67.3301 H   0  0  0  0  0  0  0  0  0  0  0  0
  128.2958  127.0479   64.9376 H   0  0  0  0  0  0  0  0  0  0  0  0
  131.5517  126.8424   66.4177 H   0  0  0  0  0  0  0  0  0  0  0  0
  133.3323  125.5651   65.2435 H   0  0  0  0  0  0  0  0  0  0  0  0
  134.2834  124.5385   63.0237 H   0  0  0  0  0  0  0  0  0  0  0  0
  134.0027  122.9174   62.3028 H   0  0  0  0  0  0  0  0  0  0  0  0
  132.6870  124.1404   62.3028 H   0  0  0  0  0  0  0  0  0  0  0  0
  130.5145  122.3871   64.4293 H   0  0  0  0  0  0  0  0  0  0  0  0
  128.7346  123.6712   65.6008 H   0  0  0  0  0  0  0  0  0  0  0  0
  130.8950  124.3790   68.0750 H   0  0  0  0  0  0  0  0  0  0  0  0
  130.7560  123.7560   69.6730 H   0  0  0  0  0  0  0  0  0  0  0  0
  1  2  1  0
  2  3  1  0
  3  4  2  0
  3  5  1  0
  5  6  1  0
  6  7  1  0
  7  8  2  0
  8  9  1  0
  9 10  1  0
 10 11  2  0
 11 12  1  0
 12 13  2  0
 13 14  1  0
 14 15  1  0
 13 16  1  0
 16 17  2  0
  9 18  2  0
 18 19  1  0
 19 20  1  0
 20 21  2  0
 21 22  1  0
 22 23  2  0
 23 24  1  0
 24 25  1  0
 23 26  1  0
 26 27  2  0
 19 28  2  0
 28 29  1  0
 29 30  1  0
 29  5  2  0
 28  7  1  0
 17 10  1  0
 27 20  1  0
  1 31  1  0
  1 32  1  0
  1 33  1  0
 11 34  1  0
 12 35  1  0
 15 36  1  0
 15 37  1  0
 15 38  1  0
 16 39  1  0
 17 40  1  0
 18 41  1  0
 21 42  1  0
 22 43  1  0
 25 44  1  0
 25 45  1  0
 25 46  1  0
 26 47  1  0
 27 48  1  0
 30 49  1  0
 30 50  1  0
M  END
>  <Binding energies>  (1) 
[-8.09]

>  <Ligand effiencies>  (1) 
[-0.2528125]

>  <Interactions>  (1) 
["V-B:GLU:543:CD:9880, V-B:ASP:366:CG:8184, V-A:GLU:543:CD:4908, V-B:GLU:543:C:9874, V-B:GLU:543:CB:9878, V-B:GLY:544:C:9884, V-B:HIS:456:CE1:9040, V-B:ARG:545:CG:9894, H-B:LYS:547:NZ:9923, V-A:HIS:456:CE1:4069, V-A:HIS:456:CG:4066, V-A:HIS:456:CD2:4068, V-A:HIS:456:CB:4065, H-B:GLY:454:N:9021, V-B:ILE:369:CD1:8210, V-B:ARG:545:CD:9895, V-B:ARG:545:CZ:9898, H-A:GLY:454:N:4050, V-B:GLU:543:CG:9879, V-A:TYR:484:CE1:4345, V-B:GLU:543:CA:9876, V-A:TYR:484:CZ:4347, H-A:TYR:484:OH:4348, V-A:GLY:454:CA:4049, H-A:HIS:456:ND1:4067, H-B:GLU:543:O:9875, V-A:TYR:484:CD2:4344, V-A:TYR:484:CG:4342, V-A:TYR:484:CE2:4346, V-A:TYR:484:CD1:4343"]

$$$$
9a_Ghoteimi_2023
     RDKit          3D

 85 91  0  0  0  0  0  0  0  0999 V2000
  131.8880  132.0810   54.6290 C   0  0  0  0  0  0  0  0  0  0  0  0
  132.2070  132.2360   56.1190 C   0  0  0  0  0  0  0  0  0  0  0  0
  131.1850  133.0010   56.7460 O   0  0  0  0  0  0  0  0  0  0  0  0
  129.9310  132.5040   56.8980 C   0  0  0  0  0  0  0  0  0  0  0  0
  129.0570  132.5880   56.0290 O   0  0  0  0  0  0  0  0  0  0  0  0
  129.7090  131.8480   58.2300 C   0  0  0  0  0  0  0  0  0  0  0  0
  130.6180  130.8820   58.6780 C   0  0  0  0  0  0  0  0  0  0  0  0
  130.4390  130.2540   59.9080 C   0  0  0  0  0  0  0  0  0  0  0  0
  129.3500  130.5800   60.7160 C   0  0  0  0  0  0  0  0  0  0  0  0
  129.2690  129.8820   61.9360 N   0  0  0  0  0  0  0  0  0  0  0  0
  128.2730  129.8320   62.8550 C   0  0  0  0  0  0  0  0  0  0  0  0
  127.2040  130.4340   62.7510 O   0  0  0  0  0  0  0  0  0  0  0  0
  128.5390  128.9840   64.0210 C   0  0  0  0  0  0  0  0  0  0  0  0
  128.2950  129.6110   65.6520 S   0  0  0  0  0  0  0  0  0  0  0  0
  128.7850  128.0890   66.3590 C   0  0  0  0  0  0  0  0  0  0  0  0
  128.7950  127.9030   67.6790 N   0  0  0  0  0  0  0  0  0  0  0  0
  129.1810  126.6790   68.1260 C   0  0  0  0  0  0  0  0  0  0  0  0
  129.1740  126.4890   69.6080 C   0  0  0  0  0  0  0  0  0  0  0  0
  128.9780  127.5790   70.4640 C   0  0  0  0  0  0  0  0  0  0  0  0
  128.9690  127.4110   71.8460 C   0  0  0  0  0  0  0  0  0  0  0  0
  129.1420  126.1440   72.4240 C   0  0  0  0  0  0  0  0  0  0  0  0
  129.1550  125.9630   73.8110 N   0  0  0  0  0  0  0  0  0  0  0  0
  130.4050  125.6660   74.5400 C   0  0  0  0  0  0  0  0  0  0  0  0
  130.1810  125.1460   75.9750 C   0  0  0  0  0  0  0  0  0  0  0  0
  129.3720  126.0560   76.7020 O   0  0  0  0  0  0  0  0  0  0  0  0
  128.1000  126.2200   76.0940 C   0  0  0  0  0  0  0  0  0  0  0  0
  128.2660  126.7780   74.6660 C   0  0  0  0  0  0  0  0  0  0  0  0
  129.3530  125.0570   71.5630 C   0  0  0  0  0  0  0  0  0  0  0  0
  129.3650  125.2260   70.1810 C   0  0  0  0  0  0  0  0  0  0  0  0
  129.5800  125.6590   67.2580 C   0  0  0  0  0  0  0  0  0  0  0  0
  129.5900  125.8580   65.8730 C   0  0  0  0  0  0  0  0  0  0  0  0
  130.0580  124.7530   64.9980 C   0  0  0  0  0  0  0  0  0  0  0  0
  129.3640  123.5410   64.9490 C   0  0  0  0  0  0  0  0  0  0  0  0
  129.7960  122.5120   64.1180 C   0  0  0  0  0  0  0  0  0  0  0  0
  130.9240  122.6730   63.2980 C   0  0  0  0  0  0  0  0  0  0  0  0
  131.3830  121.6510   62.4640 N   0  0  0  0  0  0  0  0  0  0  0  0
  132.6550  121.8320   61.7360 C   0  0  0  0  0  0  0  0  0  0  0  0
  133.2280  120.5160   61.1700 C   0  0  0  0  0  0  0  0  0  0  0  0
  132.2610  119.8780   60.3490 O   0  0  0  0  0  0  0  0  0  0  0  0
  131.0830  119.5650   61.0740 C   0  0  0  0  0  0  0  0  0  0  0  0
  130.4520  120.8570   61.6380 C   0  0  0  0  0  0  0  0  0  0  0  0
  131.6120  123.8950   63.3530 C   0  0  0  0  0  0  0  0  0  0  0  0
  131.1820  124.9220   64.1870 C   0  0  0  0  0  0  0  0  0  0  0  0
  129.1550  127.1210   65.3800 C   0  0  0  0  0  0  0  0  0  0  0  0
  128.9810  127.6530   64.0510 C   0  0  0  0  0  0  0  0  0  0  0  0
  129.2160  126.9090   62.9230 N   0  0  0  0  0  0  0  0  0  0  0  0
  128.4340  131.5500   60.2770 C   0  0  0  0  0  0  0  0  0  0  0  0
  128.6150  132.1760   59.0470 C   0  0  0  0  0  0  0  0  0  0  0  0
  130.9042  131.6030   54.5125 H   0  0  0  0  0  0  0  0  0  0  0  0
  131.8728  133.0722   54.1522 H   0  0  0  0  0  0  0  0  0  0  0  0
  132.6579  131.4565   54.1522 H   0  0  0  0  0  0  0  0  0  0  0  0
  132.2609  131.2423   56.5877 H   0  0  0  0  0  0  0  0  0  0  0  0
  133.1728  132.7494   56.2355 H   0  0  0  0  0  0  0  0  0  0  0  0
  131.4825  130.6163   58.0519 H   0  0  0  0  0  0  0  0  0  0  0  0
  131.1614  129.4958   60.2445 H   0  0  0  0  0  0  0  0  0  0  0  0
  130.0890  129.3330   62.1500 H   0  0  0  0  0  0  0  0  0  0  0  0
  128.8290  128.5825   70.0388 H   0  0  0  0  0  0  0  0  0  0  0  0
  128.8238  128.2864   72.4960 H   0  0  0  0  0  0  0  0  0  0  0  0
  130.9614  124.9019   73.9773 H   0  0  0  0  0  0  0  0  0  0  0  0
  130.9585  126.6128   74.6253 H   0  0  0  0  0  0  0  0  0  0  0  0
  129.6806  124.1673   75.9334 H   0  0  0  0  0  0  0  0  0  0  0  0
  131.1541  125.0476   76.4784 H   0  0  0  0  0  0  0  0  0  0  0  0
  127.5901  125.2464   76.0477 H   0  0  0  0  0  0  0  0  0  0  0  0
  127.5031  126.9257   76.6903 H   0  0  0  0  0  0  0  0  0  0  0  0
  127.2740  126.8229   74.1928 H   0  0  0  0  0  0  0  0  0  0  0  0
  128.7305  127.7707   74.7599 H   0  0  0  0  0  0  0  0  0  0  0  0
  129.5116  124.0543   71.9867 H   0  0  0  0  0  0  0  0  0  0  0  0
  129.5269  124.3544   69.5298 H   0  0  0  0  0  0  0  0  0  0  0  0
  129.8903  124.6870   67.6690 H   0  0  0  0  0  0  0  0  0  0  0  0
  128.4689  123.3993   65.5725 H   0  0  0  0  0  0  0  0  0  0  0  0
  129.2462  121.5594   64.1034 H   0  0  0  0  0  0  0  0  0  0  0  0
  132.4829  122.5258   60.8999 H   0  0  0  0  0  0  0  0  0  0  0  0
  133.3890  122.2235   62.4558 H   0  0  0  0  0  0  0  0  0  0  0  0
  134.1247  120.7366   60.5723 H   0  0  0  0  0  0  0  0  0  0  0  0
  133.4901  119.8484   62.0040 H   0  0  0  0  0  0  0  0  0  0  0  0
  130.3638  119.0702   60.4047 H   0  0  0  0  0  0  0  0  0  0  0  0
  131.3389  118.8941   61.9073 H   0  0  0  0  0  0  0  0  0  0  0  0
  130.1170  121.4786   60.7946 H   0  0  0  0  0  0  0  0  0  0  0  0
  129.6178  120.5545   62.2880 H   0  0  0  0  0  0  0  0  0  0  0  0
  132.5046  124.0429   62.7273 H   0  0  0  0  0  0  0  0  0  0  0  0
  131.7317  125.8746   64.2077 H   0  0  0  0  0  0  0  0  0  0  0  0
  128.5050  126.3160   62.5180 H   0  0  0  0  0  0  0  0  0  0  0  0
  130.1130  126.9290   62.4570 H   0  0  0  0  0  0  0  0  0  0  0  0
  127.5719  131.8155   60.9064 H   0  0  0  0  0  0  0  0  0  0  0  0
  127.8935  132.9356   58.7115 H   0  0  0  0  0  0  0  0  0  0  0  0
  1  2  1  0
  2  3  1  0
  3  4  1  0
  4  5  2  0
  4  6  1  0
  6  7  2  0
  7  8  1  0
  8  9  2  0
  9 10  1  0
 10 11  1  0
 11 12  2  0
 11 13  1  0
 13 14  1  0
 14 15  1  0
 15 16  2  0
 16 17  1  0
 17 18  1  0
 18 19  2  0
 19 20  1  0
 20 21  2  0
 21 22  1  0
 22 23  1  0
 23 24  1  0
 24 25  1  0
 25 26  1  0
 26 27  1  0
 21 28  1  0
 28 29  2  0
 17 30  2  0
 30 31  1  0
 31 32  1  0
 32 33  2  0
 33 34  1  0
 34 35  2  0
 35 36  1  0
 36 37  1  0
 37 38  1  0
 38 39  1  0
 39 40  1  0
 40 41  1  0
 35 42  1  0
 42 43  2  0
 31 44  2  0
 44 45  1  0
 45 46  1  0
  9 47  1  0
 47 48  2  0
 48  6  1  0
 45 13  2  0
 44 15  1  0
 29 18  1  0
 43 32  1  0
 27 22  1  0
 41 36  1  0
  1 49  1  0
  1 50  1  0
  1 51  1  0
  2 52  1  0
  2 53  1  0
  7 54  1  0
  8 55  1  0
 10 56  1  0
 19 57  1  0
 20 58  1  0
 23 59  1  0
 23 60  1  0
 24 61  1  0
 24 62  1  0
 26 63  1  0
 26 64  1  0
 27 65  1  0
 27 66  1  0
 28 67  1  0
 29 68  1  0
 30 69  1  0
 33 70  1  0
 34 71  1  0
 37 72  1  0
 37 73  1  0
 38 74  1  0
 38 75  1  0
 40 76  1  0
 40 77  1  0
 41 78  1  0
 41 79  1  0
 42 80  1  0
 43 81  1  0
 46 82  1  0
 46 83  1  0
 47 84  1  0
 48 85  1  0
M  END
>  <Binding energies>  (1) 
[-10.49]

>  <Ligand effiencies>  (1) 
[-0.20568627450980392]

>  <Interactions>  (1) 
["V-B:ALA:541:CB:9864, V-B:TYR:539:CD2:9846, H-B:GLU:543:OE2:9882, V-A:LEU:475:CD1:4258, V-A:PRO:540:CD:4887, V-A:PRO:540:N:4884, V-A:TYR:539:C:4867, V-A:TYR:531:CE2:4793, V-A:ILE:538:CD1:4865, V-A:ILE:538:CA:4860, V-A:LEU:363:CD1:3189, V-A:GLU:543:CD:4908, V-A:TYR:539:CE2:4876, V-A:PRO:540:CB:4885, V-A:PRO:540:CA:4883, V-B:GLU:543:CB:9878, V-B:HIS:456:CE1:9040, V-A:HIS:456:CE1:4069, V-A:HIS:456:CD2:4068, H-B:GLU:543:OE1:9881, V-A:GLU:543:CB:4906, V-B:GLU:543:CG:9879, V-A:TRP:381:CZ2:3370, V-A:TYR:484:CE1:4345, V-B:GLU:543:CA:9876, V-A:ILE:369:CD1:3239, V-A:TRP:381:CH2:3372, V-A:ILE:369:CG2:3237, H-A:GLU:543:OE2:4910, H-A:GLU:543:OE1:4909, V-A:TYR:539:CD1:4873, H-A:TYR:539:N:4870, V-A:GLU:543:CG:4907, V-B:LYS:547:CD:9921"]

$$$$
9b_Ghoteimi_2023
     RDKit          3D

 72 78  0  0  0  0  0  0  0  0999 V2000
  129.8490  124.3080   67.5260 N   0  0  0  0  0  0  0  0  0  0  0  0
  129.4280  125.5870   67.7840 C   0  0  0  0  0  0  0  0  0  0  0  0
  129.2160  126.0850   69.0790 C   0  0  0  0  0  0  0  0  0  0  0  0
  129.4090  125.4060   70.3630 C   0  0  0  0  0  0  0  0  0  0  0  0
  129.3060  126.0240   71.4240 O   0  0  0  0  0  0  0  0  0  0  0  0
  129.7050  124.0840   70.2830 N   0  0  0  0  0  0  0  0  0  0  0  0
  129.9480  123.2060   71.3320 C   0  0  0  0  0  0  0  0  0  0  0  0
  131.0830  123.2770   72.1370 C   0  0  0  0  0  0  0  0  0  0  0  0
  130.9450  122.2510   73.0430 C   0  0  0  0  0  0  0  0  0  0  0  0
  129.7850  121.5960   72.7960 O   0  0  0  0  0  0  0  0  0  0  0  0
  129.1620  122.2110   71.7090 N   0  0  0  0  0  0  0  0  0  0  0  0
  128.6470  127.7540   69.0350 S   0  0  0  0  0  0  0  0  0  0  0  0
  128.6790  127.7670   67.2880 C   0  0  0  0  0  0  0  0  0  0  0  0
  128.2990  128.8360   66.5910 N   0  0  0  0  0  0  0  0  0  0  0  0
  128.3450  128.7370   65.2360 C   0  0  0  0  0  0  0  0  0  0  0  0
  127.8930  129.9430   64.4780 C   0  0  0  0  0  0  0  0  0  0  0  0
  128.2500  131.2330   64.8890 C   0  0  0  0  0  0  0  0  0  0  0  0
  127.8150  132.3530   64.1880 C   0  0  0  0  0  0  0  0  0  0  0  0
  126.9940  132.2250   63.0570 C   0  0  0  0  0  0  0  0  0  0  0  0
  126.5500  133.3420   62.3390 N   0  0  0  0  0  0  0  0  0  0  0  0
  125.3240  133.2910   61.5180 C   0  0  0  0  0  0  0  0  0  0  0  0
  124.8040  134.6780   61.0890 C   0  0  0  0  0  0  0  0  0  0  0  0
  125.8300  135.3960   60.4230 O   0  0  0  0  0  0  0  0  0  0  0  0
  126.9530  135.5990   61.2650 C   0  0  0  0  0  0  0  0  0  0  0  0
  127.5390  134.2400   61.7060 C   0  0  0  0  0  0  0  0  0  0  0  0
  126.6560  130.9300   62.6380 C   0  0  0  0  0  0  0  0  0  0  0  0
  127.0950  129.8100   63.3370 C   0  0  0  0  0  0  0  0  0  0  0  0
  128.7940  127.5850   64.5870 C   0  0  0  0  0  0  0  0  0  0  0  0
  129.2140  126.4660   65.3160 C   0  0  0  0  0  0  0  0  0  0  0  0
  129.7110  125.2770   64.5790 C   0  0  0  0  0  0  0  0  0  0  0  0
  128.9670  124.7370   63.5290 C   0  0  0  0  0  0  0  0  0  0  0  0
  129.4390  123.6340   62.8240 C   0  0  0  0  0  0  0  0  0  0  0  0
  130.6690  123.0400   63.1500 C   0  0  0  0  0  0  0  0  0  0  0  0
  131.1690  121.9430   62.4450 N   0  0  0  0  0  0  0  0  0  0  0  0
  130.2340  121.0690   61.7100 C   0  0  0  0  0  0  0  0  0  0  0  0
  130.8490  119.7060   61.3260 C   0  0  0  0  0  0  0  0  0  0  0  0
  132.0410  119.9050   60.5800 O   0  0  0  0  0  0  0  0  0  0  0  0
  133.0100  120.6320   61.3220 C   0  0  0  0  0  0  0  0  0  0  0  0
  132.4480  122.0160   61.7110 C   0  0  0  0  0  0  0  0  0  0  0  0
  131.4160  123.6030   64.1950 C   0  0  0  0  0  0  0  0  0  0  0  0
  130.9440  124.7070   64.9000 C   0  0  0  0  0  0  0  0  0  0  0  0
  129.1420  126.5350   66.7360 C   0  0  0  0  0  0  0  0  0  0  0  0
  130.7920  124.1080   67.2200 H   0  0  0  0  0  0  0  0  0  0  0  0
  129.2280  123.5170   67.6330 H   0  0  0  0  0  0  0  0  0  0  0  0
  129.7560  123.6800   69.3600 H   0  0  0  0  0  0  0  0  0  0  0  0
  131.9107  123.9978   72.0639 H   0  0  0  0  0  0  0  0  0  0  0  0
  131.6613  122.0024   73.8399 H   0  0  0  0  0  0  0  0  0  0  0  0
  128.8835  131.3626   65.7789 H   0  0  0  0  0  0  0  0  0  0  0  0
  128.1193  133.3548   64.5255 H   0  0  0  0  0  0  0  0  0  0  0  0
  125.5376  132.7052   60.6118 H   0  0  0  0  0  0  0  0  0  0  0  0
  124.5406  132.8336   62.1402 H   0  0  0  0  0  0  0  0  0  0  0  0
  123.9478  134.5520   60.4100 H   0  0  0  0  0  0  0  0  0  0  0  0
  124.4922  135.2389   61.9824 H   0  0  0  0  0  0  0  0  0  0  0  0
  127.7205  136.1655   60.7173 H   0  0  0  0  0  0  0  0  0  0  0  0
  126.6374  136.1610   62.1564 H   0  0  0  0  0  0  0  0  0  0  0  0
  127.9488  133.7346   60.8191 H   0  0  0  0  0  0  0  0  0  0  0  0
  128.3091  134.4529   62.4621 H   0  0  0  0  0  0  0  0  0  0  0  0
  126.0330  130.7975   61.7412 H   0  0  0  0  0  0  0  0  0  0  0  0
  126.8107  128.8064   62.9876 H   0  0  0  0  0  0  0  0  0  0  0  0
  128.8180  127.5563   63.4876 H   0  0  0  0  0  0  0  0  0  0  0  0
  128.0006  125.1865   63.2568 H   0  0  0  0  0  0  0  0  0  0  0  0
  128.8397  123.2212   61.9991 H   0  0  0  0  0  0  0  0  0  0  0  0
  129.3528  120.8889   62.3433 H   0  0  0  0  0  0  0  0  0  0  0  0
  129.9722  121.5845   60.7742 H   0  0  0  0  0  0  0  0  0  0  0  0
  131.0814  119.1404   62.2404 H   0  0  0  0  0  0  0  0  0  0  0  0
  130.1286  119.1441   60.7134 H   0  0  0  0  0  0  0  0  0  0  0  0
  133.2649  120.0728   62.2343 H   0  0  0  0  0  0  0  0  0  0  0  0
  133.9099  120.7684   60.7043 H   0  0  0  0  0  0  0  0  0  0  0  0
  133.1865  122.5263   62.3468 H   0  0  0  0  0  0  0  0  0  0  0  0
  132.2559  122.5634   60.7764 H   0  0  0  0  0  0  0  0  0  0  0  0
  132.3895  123.1658   64.4617 H   0  0  0  0  0  0  0  0  0  0  0  0
  131.5469  125.1329   65.7155 H   0  0  0  0  0  0  0  0  0  0  0  0
  1  2  1  0
  2  3  2  0
  3  4  1  0
  4  5  2  0
  4  6  1  0
  6  7  1  0
  7  8  1  0
  8  9  2  0
  9 10  1  0
 10 11  1  0
  3 12  1  0
 12 13  1  0
 13 14  2  0
 14 15  1  0
 15 16  1  0
 16 17  2  0
 17 18  1  0
 18 19  2  0
 19 20  1  0
 20 21  1  0
 21 22  1  0
 22 23  1  0
 23 24  1  0
 24 25  1  0
 19 26  1  0
 26 27  2  0
 15 28  2  0
 28 29  1  0
 29 30  1  0
 30 31  2  0
 31 32  1  0
 32 33  2  0
 33 34  1  0
 34 35  1  0
 35 36  1  0
 36 37  1  0
 37 38  1  0
 38 39  1  0
 33 40  1  0
 40 41  2  0
 29 42  2  0
 42  2  1  0
 11  7  2  0
 42 13  1  0
 27 16  1  0
 41 30  1  0
 25 20  1  0
 39 34  1  0
  1 43  1  0
  1 44  1  0
  6 45  1  0
  8 46  1  0
  9 47  1  0
 17 48  1  0
 18 49  1  0
 21 50  1  0
 21 51  1  0
 22 52  1  0
 22 53  1  0
 24 54  1  0
 24 55  1  0
 25 56  1  0
 25 57  1  0
 26 58  1  0
 27 59  1  0
 28 60  1  0
 31 61  1  0
 32 62  1  0
 35 63  1  0
 35 64  1  0
 36 65  1  0
 36 66  1  0
 38 67  1  0
 38 68  1  0
 39 69  1  0
 39 70  1  0
 40 71  1  0
 41 72  1  0
M  END
>  <Binding energies>  (1) 
[-12.21]

>  <Ligand effiencies>  (1) 
[-0.27133333333333337]

>  <Interactions>  (1) 
["V-A:PRO:482:CB:4326, V-B:GLU:543:CD:9880, V-B:ALA:541:CB:9864, V-A:PRO:482:CG:4327, V-A:LEU:475:CD1:4258, V-B:PRO:482:CB:9297, V-A:GLU:543:CD:4908, V-A:TYR:539:CE2:4876, V-B:PRO:482:CG:9298, V-A:TYR:539:CD2:4874, V-B:LEU:475:CD1:9229, V-A:ALA:541:CB:4892, V-B:GLU:543:C:9874, V-B:GLU:543:CB:9878, V-B:HIS:456:CE1:9040, H-B:LYS:547:NZ:9923, V-A:HIS:456:CE1:4069, V-A:HIS:456:CG:4066, V-A:HIS:456:CD2:4068, V-A:ASP:473:CB:4239, V-A:HIS:456:CB:4065, V-A:GLU:543:CB:4906, H-A:HIS:456:NE2:4070, V-B:ILE:369:CG2:8208, V-B:GLU:543:CG:9879, V-A:TYR:484:CE1:4345, V-B:GLU:543:CA:9876, V-A:ILE:369:CD1:3239, V-A:TRP:381:CH2:3372, V-A:TYR:484:CZ:4347, H-A:TYR:484:OH:4348, V-B:TRP:381:CH2:8343, H-A:HIS:456:ND1:4067, V-B:TYR:484:CE1:9316, H-B:GLU:543:O:9875, V-A:TYR:484:CD2:4344, V-B:TRP:381:CZ2:8341, V-A:TYR:484:CG:4342, V-A:TYR:484:CE2:4346, V-A:TYR:484:CB:4341, V-A:TYR:484:CD1:4343"]

$$$$
9c_Ghoteimi_2023
     RDKit          3D

 72 78  0  0  0  0  0  0  0  0999 V2000
  129.8420  124.2310   67.5100 N   0  0  0  0  0  0  0  0  0  0  0  0
  129.4140  125.5030   67.7950 C   0  0  0  0  0  0  0  0  0  0  0  0
  129.1920  125.9710   69.0990 C   0  0  0  0  0  0  0  0  0  0  0  0
  129.3760  125.2600   70.3680 C   0  0  0  0  0  0  0  0  0  0  0  0
  129.2520  125.8480   71.4440 O   0  0  0  0  0  0  0  0  0  0  0  0
  129.6900  123.9460   70.2580 N   0  0  0  0  0  0  0  0  0  0  0  0
  129.9290  123.0550   71.2960 C   0  0  0  0  0  0  0  0  0  0  0  0
  129.2340  121.9870   71.6210 N   0  0  0  0  0  0  0  0  0  0  0  0
  129.7490  121.3750   72.6700 C   0  0  0  0  0  0  0  0  0  0  0  0
  130.8900  121.9510   73.2210 C   0  0  0  0  0  0  0  0  0  0  0  0
  131.3040  123.3700   72.3060 S   0  0  0  0  0  0  0  0  0  0  0  0
  128.6190  127.6380   69.0900 S   0  0  0  0  0  0  0  0  0  0  0  0
  128.6620  127.6920   67.3440 C   0  0  0  0  0  0  0  0  0  0  0  0
  128.2840  128.7760   66.6690 N   0  0  0  0  0  0  0  0  0  0  0  0
  128.3390  128.7080   65.3130 C   0  0  0  0  0  0  0  0  0  0  0  0
  127.8900  129.9310   64.5810 C   0  0  0  0  0  0  0  0  0  0  0  0
  128.2520  131.2110   65.0160 C   0  0  0  0  0  0  0  0  0  0  0  0
  127.8230  132.3460   64.3360 C   0  0  0  0  0  0  0  0  0  0  0  0
  127.0030  132.2440   63.2000 C   0  0  0  0  0  0  0  0  0  0  0  0
  126.5700  133.3760   62.5010 N   0  0  0  0  0  0  0  0  0  0  0  0
  125.2980  133.3750   61.7490 C   0  0  0  0  0  0  0  0  0  0  0  0
  124.8120  134.7830   61.3430 C   0  0  0  0  0  0  0  0  0  0  0  0
  125.8300  135.4540   60.6170 O   0  0  0  0  0  0  0  0  0  0  0  0
  127.0050  135.6110   61.3950 C   0  0  0  0  0  0  0  0  0  0  0  0
  127.5570  134.2290   61.8080 C   0  0  0  0  0  0  0  0  0  0  0  0
  126.6600  130.9590   62.7570 C   0  0  0  0  0  0  0  0  0  0  0  0
  127.0930  129.8230   63.4360 C   0  0  0  0  0  0  0  0  0  0  0  0
  128.7960  127.5730   64.6400 C   0  0  0  0  0  0  0  0  0  0  0  0
  129.2150  126.4390   65.3460 C   0  0  0  0  0  0  0  0  0  0  0  0
  129.7220  125.2690   64.5860 C   0  0  0  0  0  0  0  0  0  0  0  0
  130.9450  124.6870   64.9220 C   0  0  0  0  0  0  0  0  0  0  0  0
  131.4160  123.5790   64.2230 C   0  0  0  0  0  0  0  0  0  0  0  0
  130.6750  123.0250   63.1670 C   0  0  0  0  0  0  0  0  0  0  0  0
  131.1230  121.9060   62.4590 N   0  0  0  0  0  0  0  0  0  0  0  0
  130.1400  121.0610   61.7510 C   0  0  0  0  0  0  0  0  0  0  0  0
  130.7000  119.6780   61.3540 C   0  0  0  0  0  0  0  0  0  0  0  0
  131.8780  119.8360   60.5780 O   0  0  0  0  0  0  0  0  0  0  0  0
  132.8880  120.5290   61.2930 C   0  0  0  0  0  0  0  0  0  0  0  0
  132.3840  121.9330   61.6940 C   0  0  0  0  0  0  0  0  0  0  0  0
  129.4380  123.6050   62.8520 C   0  0  0  0  0  0  0  0  0  0  0  0
  128.9670  124.7130   63.5520 C   0  0  0  0  0  0  0  0  0  0  0  0
  129.1320  126.4740   66.7670 C   0  0  0  0  0  0  0  0  0  0  0  0
  129.2400  123.4280   67.6250 H   0  0  0  0  0  0  0  0  0  0  0  0
  130.7790  124.0540   67.1760 H   0  0  0  0  0  0  0  0  0  0  0  0
  129.7580  123.5610   69.3270 H   0  0  0  0  0  0  0  0  0  0  0  0
  129.3016  120.4603   73.0861 H   0  0  0  0  0  0  0  0  0  0  0  0
  131.4405  121.5701   74.0939 H   0  0  0  0  0  0  0  0  0  0  0  0
  128.8851  131.3211   65.9088 H   0  0  0  0  0  0  0  0  0  0  0  0
  128.1309  133.3397   64.6936 H   0  0  0  0  0  0  0  0  0  0  0  0
  125.4362  132.7790   60.8348 H   0  0  0  0  0  0  0  0  0  0  0  0
  124.5323  132.9522   62.4160 H   0  0  0  0  0  0  0  0  0  0  0  0
  123.9146  134.6918   60.7134 H   0  0  0  0  0  0  0  0  0  0  0  0
  124.5732  135.3592   62.2491 H   0  0  0  0  0  0  0  0  0  0  0  0
  127.7642  136.1441   60.8038 H   0  0  0  0  0  0  0  0  0  0  0  0
  126.7629  136.1871   62.3003 H   0  0  0  0  0  0  0  0  0  0  0  0
  127.8928  133.7045   60.9013 H   0  0  0  0  0  0  0  0  0  0  0  0
  128.3778  134.4107   62.5174 H   0  0  0  0  0  0  0  0  0  0  0  0
  126.0377  130.8460   61.8570 H   0  0  0  0  0  0  0  0  0  0  0  0
  126.8047  128.8275   63.0674 H   0  0  0  0  0  0  0  0  0  0  0  0
  128.8272  127.5699   63.5404 H   0  0  0  0  0  0  0  0  0  0  0  0
  131.5414  125.1069   65.7454 H   0  0  0  0  0  0  0  0  0  0  0  0
  132.3815  123.1317   64.5017 H   0  0  0  0  0  0  0  0  0  0  0  0
  129.2708  120.9106   62.4082 H   0  0  0  0  0  0  0  0  0  0  0  0
  129.8700  121.5832   60.8213 H   0  0  0  0  0  0  0  0  0  0  0  0
  130.9367  119.1061   62.2633 H   0  0  0  0  0  0  0  0  0  0  0  0
  129.9461  119.1398   60.7607 H   0  0  0  0  0  0  0  0  0  0  0  0
  133.1464  119.9622   62.1996 H   0  0  0  0  0  0  0  0  0  0  0  0
  133.7760  120.6339   60.6524 H   0  0  0  0  0  0  0  0  0  0  0  0
  133.1555  122.4176   62.3104 H   0  0  0  0  0  0  0  0  0  0  0  0
  132.1877  122.4858   60.7634 H   0  0  0  0  0  0  0  0  0  0  0  0
  128.8306  123.1786   62.0400 H   0  0  0  0  0  0  0  0  0  0  0  0
  127.9938  125.1528   63.2884 H   0  0  0  0  0  0  0  0  0  0  0  0
  1  2  1  0
  2  3  2  0
  3  4  1  0
  4  5  2  0
  4  6  1  0
  6  7  1  0
  7  8  2  0
  8  9  1  0
  9 10  2  0
 10 11  1  0
  3 12  1  0
 12 13  1  0
 13 14  2  0
 14 15  1  0
 15 16  1  0
 16 17  2  0
 17 18  1  0
 18 19  2  0
 19 20  1  0
 20 21  1  0
 21 22  1  0
 22 23  1  0
 23 24  1  0
 24 25  1  0
 19 26  1  0
 26 27  2  0
 15 28  2  0
 28 29  1  0
 29 30  1  0
 30 31  2  0
 31 32  1  0
 32 33  2  0
 33 34  1  0
 34 35  1  0
 35 36  1  0
 36 37  1  0
 37 38  1  0
 38 39  1  0
 33 40  1  0
 40 41  2  0
 29 42  2  0
 42  2  1  0
 11  7  1  0
 42 13  1  0
 27 16  1  0
 41 30  1  0
 25 20  1  0
 39 34  1  0
  1 43  1  0
  1 44  1  0
  6 45  1  0
  9 46  1  0
 10 47  1  0
 17 48  1  0
 18 49  1  0
 21 50  1  0
 21 51  1  0
 22 52  1  0
 22 53  1  0
 24 54  1  0
 24 55  1  0
 25 56  1  0
 25 57  1  0
 26 58  1  0
 27 59  1  0
 28 60  1  0
 31 61  1  0
 32 62  1  0
 35 63  1  0
 35 64  1  0
 36 65  1  0
 36 66  1  0
 38 67  1  0
 38 68  1  0
 39 69  1  0
 39 70  1  0
 40 71  1  0
 41 72  1  0
M  END
>  <Binding energies>  (1) 
[-11.11]

>  <Ligand effiencies>  (1) 
[-0.24688888888888888]

>  <Interactions>  (1) 
["V-A:PRO:482:CB:4326, V-B:GLU:543:CD:9880, V-B:ALA:541:CB:9864, V-A:PRO:482:CG:4327, V-A:LEU:475:CD1:4258, V-B:PRO:482:CB:9297, V-A:GLU:543:CD:4908, V-B:PRO:482:CG:9298, V-A:TYR:539:CD2:4874, V-B:LEU:475:CD1:9229, V-A:ALA:541:CB:4892, V-B:GLU:543:C:9874, V-B:GLU:543:CB:9878, V-B:HIS:456:CE1:9040, H-B:LYS:547:NZ:9923, V-A:HIS:456:CE1:4069, V-A:ASP:473:CG:4240, V-A:HIS:456:CG:4066, V-A:HIS:456:CD2:4068, V-A:ASP:473:CB:4239, V-A:HIS:456:CB:4065, V-A:GLU:543:CB:4906, H-A:HIS:456:NE2:4070, V-B:GLU:543:CG:9879, V-A:TYR:484:CE1:4345, V-B:GLU:543:CA:9876, V-A:TRP:381:CH2:3372, V-A:TYR:484:CZ:4347, H-A:TYR:484:OH:4348, V-B:LYS:547:CE:9922, V-B:TRP:381:CH2:8343, H-A:HIS:456:ND1:4067, V-B:TYR:484:CZ:9318, V-B:TYR:484:CE1:9316, H-B:GLU:543:O:9875, V-A:TYR:484:CD2:4344, V-B:TRP:381:CZ2:8341, V-A:TYR:484:CG:4342, V-A:TYR:484:CE2:4346, V-A:TYR:484:CB:4341, V-A:TYR:484:CD1:4343"]

$$$$
9d_Ghoteimi_2023
     RDKit          3D

 68 73  0  0  0  0  0  0  0  0999 V2000
  132.7920  124.4880   64.6910 C   0  0  0  0  0  0  0  0  0  0  0  0
  132.1070  123.2810   64.3910 O   0  0  0  0  0  0  0  0  0  0  0  0
  130.7740  123.1590   64.6240 C   0  0  0  0  0  0  0  0  0  0  0  0
  130.1830  122.0790   64.7000 O   0  0  0  0  0  0  0  0  0  0  0  0
  130.0940  124.4650   64.7740 C   0  0  0  0  0  0  0  0  0  0  0  0
  129.7170  125.4270   63.3450 S   0  0  0  0  0  0  0  0  0  0  0  0
  128.9700  126.6650   64.3280 C   0  0  0  0  0  0  0  0  0  0  0  0
  128.4100  127.7440   63.7840 N   0  0  0  0  0  0  0  0  0  0  0  0
  127.8400  128.6390   64.6330 C   0  0  0  0  0  0  0  0  0  0  0  0
  127.1960  129.8290   63.9990 C   0  0  0  0  0  0  0  0  0  0  0  0
  125.9030  129.7400   63.4720 C   0  0  0  0  0  0  0  0  0  0  0  0
  125.2950  130.8420   62.8770 C   0  0  0  0  0  0  0  0  0  0  0  0
  125.9540  132.0790   62.7980 C   0  0  0  0  0  0  0  0  0  0  0  0
  125.3630  133.1910   62.1880 N   0  0  0  0  0  0  0  0  0  0  0  0
  125.9890  133.8520   61.0250 C   0  0  0  0  0  0  0  0  0  0  0  0
  125.3990  135.2420   60.7050 C   0  0  0  0  0  0  0  0  0  0  0  0
  123.9940  135.1470   60.5410 O   0  0  0  0  0  0  0  0  0  0  0  0
  123.3650  134.6720   61.7200 C   0  0  0  0  0  0  0  0  0  0  0  0
  123.8910  133.2650   62.0730 C   0  0  0  0  0  0  0  0  0  0  0  0
  127.2560  132.1590   63.3140 C   0  0  0  0  0  0  0  0  0  0  0  0
  127.8650  131.0560   63.9060 C   0  0  0  0  0  0  0  0  0  0  0  0
  127.8620  128.4690   66.0200 C   0  0  0  0  0  0  0  0  0  0  0  0
  128.4660  127.3460   66.5970 C   0  0  0  0  0  0  0  0  0  0  0  0
  128.4850  127.2280   68.0790 C   0  0  0  0  0  0  0  0  0  0  0  0
  129.3750  127.9850   68.8430 C   0  0  0  0  0  0  0  0  0  0  0  0
  129.3770  127.8850   70.2320 C   0  0  0  0  0  0  0  0  0  0  0  0
  128.4760  127.0360   70.8940 C   0  0  0  0  0  0  0  0  0  0  0  0
  128.4630  126.9110   72.2850 N   0  0  0  0  0  0  0  0  0  0  0  0
  129.3670  125.9360   72.9260 C   0  0  0  0  0  0  0  0  0  0  0  0
  129.5380  126.1690   74.4420 C   0  0  0  0  0  0  0  0  0  0  0  0
  128.2690  126.1790   75.0800 O   0  0  0  0  0  0  0  0  0  0  0  0
  127.4330  127.2070   74.5670 C   0  0  0  0  0  0  0  0  0  0  0  0
  127.2070  126.9950   73.0550 C   0  0  0  0  0  0  0  0  0  0  0  0
  127.5870  126.2800   70.1160 C   0  0  0  0  0  0  0  0  0  0  0  0
  127.5880  126.3790   68.7280 C   0  0  0  0  0  0  0  0  0  0  0  0
  129.0320  126.3760   65.7240 C   0  0  0  0  0  0  0  0  0  0  0  0
  129.6640  125.1010   65.9440 C   0  0  0  0  0  0  0  0  0  0  0  0
  129.8100  124.5480   67.1910 N   0  0  0  0  0  0  0  0  0  0  0  0
  132.8607  124.6091   65.7821 H   0  0  0  0  0  0  0  0  0  0  0  0
  133.8041  124.4517   64.2616 H   0  0  0  0  0  0  0  0  0  0  0  0
  132.2419  125.3383   64.2616 H   0  0  0  0  0  0  0  0  0  0  0  0
  125.3590  128.7856   63.5286 H   0  0  0  0  0  0  0  0  0  0  0  0
  124.2813  130.7418   62.4618 H   0  0  0  0  0  0  0  0  0  0  0  0
  127.0632  133.9703   61.2302 H   0  0  0  0  0  0  0  0  0  0  0  0
  125.7947  133.2130   60.1510 H   0  0  0  0  0  0  0  0  0  0  0  0
  125.6233  135.9319   61.5318 H   0  0  0  0  0  0  0  0  0  0  0  0
  125.8464  135.6180   59.7731 H   0  0  0  0  0  0  0  0  0  0  0  0
  123.5818  135.3601   62.5503 H   0  0  0  0  0  0  0  0  0  0  0  0
  122.2793  134.6182   61.5516 H   0  0  0  0  0  0  0  0  0  0  0  0
  123.4521  132.9617   63.0350 H   0  0  0  0  0  0  0  0  0  0  0  0
  123.5996  132.5974   61.2488 H   0  0  0  0  0  0  0  0  0  0  0  0
  127.8053  133.1099   63.2497 H   0  0  0  0  0  0  0  0  0  0  0  0
  128.8854  131.1493   64.3061 H   0  0  0  0  0  0  0  0  0  0  0  0
  127.3983  129.2282   66.6670 H   0  0  0  0  0  0  0  0  0  0  0  0
  130.0803  128.6658   68.3439 H   0  0  0  0  0  0  0  0  0  0  0  0
  130.0938  128.4789   70.8180 H   0  0  0  0  0  0  0  0  0  0  0  0
  128.9582  124.9265   72.7716 H   0  0  0  0  0  0  0  0  0  0  0  0
  130.3577  126.0565   72.4635 H   0  0  0  0  0  0  0  0  0  0  0  0
  130.1527  125.3619   74.8672 H   0  0  0  0  0  0  0  0  0  0  0  0
  130.0304  127.1392   74.6041 H   0  0  0  0  0  0  0  0  0  0  0  0
  126.4642  127.1829   75.0875 H   0  0  0  0  0  0  0  0  0  0  0  0
  127.9174  128.1815   74.7276 H   0  0  0  0  0  0  0  0  0  0  0  0
  126.6469  126.0590   72.9132 H   0  0  0  0  0  0  0  0  0  0  0  0
  126.6530  127.8690   72.6819 H   0  0  0  0  0  0  0  0  0  0  0  0
  126.8786  125.5989   70.6103 H   0  0  0  0  0  0  0  0  0  0  0  0
  126.8761  125.7833   68.1379 H   0  0  0  0  0  0  0  0  0  0  0  0
  130.7200  124.3520   67.5820 H   0  0  0  0  0  0  0  0  0  0  0  0
  129.0090  124.3230   67.7650 H   0  0  0  0  0  0  0  0  0  0  0  0
  1  2  1  0
  2  3  1  0
  3  4  2  0
  3  5  1  0
  5  6  1  0
  6  7  1  0
  7  8  2  0
  8  9  1  0
  9 10  1  0
 10 11  2  0
 11 12  1  0
 12 13  2  0
 13 14  1  0
 14 15  1  0
 15 16  1  0
 16 17  1  0
 17 18  1  0
 18 19  1  0
 13 20  1  0
 20 21  2  0
  9 22  2  0
 22 23  1  0
 23 24  1  0
 24 25  2  0
 25 26  1  0
 26 27  2  0
 27 28  1  0
 28 29  1  0
 29 30  1  0
 30 31  1  0
 31 32  1  0
 32 33  1  0
 27 34  1  0
 34 35  2  0
 23 36  2  0
 36 37  1  0
 37 38  1  0
 37  5  2  0
 36  7  1  0
 21 10  1  0
 35 24  1  0
 19 14  1  0
 33 28  1  0
  1 39  1  0
  1 40  1  0
  1 41  1  0
 11 42  1  0
 12 43  1  0
 15 44  1  0
 15 45  1  0
 16 46  1  0
 16 47  1  0
 18 48  1  0
 18 49  1  0
 19 50  1  0
 19 51  1  0
 20 52  1  0
 21 53  1  0
 22 54  1  0
 25 55  1  0
 26 56  1  0
 29 57  1  0
 29 58  1  0
 30 59  1  0
 30 60  1  0
 32 61  1  0
 32 62  1  0
 33 63  1  0
 33 64  1  0
 34 65  1  0
 35 66  1  0
 38 67  1  0
 38 68  1  0
M  END
>  <Binding energies>  (1) 
[-9.46]

>  <Ligand effiencies>  (1) 
[-0.23650000000000002]

>  <Interactions>  (1) 
["V-B:GLU:543:CD:9880, V-A:TYR:539:CE2:4876, V-A:TYR:539:CD2:4874, V-B:LEU:475:CD1:9229, V-A:ALA:541:CB:4892, V-B:GLU:543:C:9874, V-B:GLU:543:CB:9878, V-B:GLY:544:C:9884, V-B:HIS:456:CE1:9040, H-B:LYS:547:NZ:9923, V-A:HIS:456:CE1:4069, V-A:HIS:456:CD2:4068, V-B:ILE:369:CD1:8210, V-B:ILE:369:CG2:8208, V-B:GLU:543:CG:9879, V-B:GLY:454:CA:9020, V-A:TYR:484:CE1:4345, V-B:GLU:543:CA:9876, V-A:TYR:484:CZ:4347, H-A:TYR:484:OH:4348, V-B:TRP:381:CH2:8343, H-A:HIS:456:ND1:4067, H-B:GLU:543:O:9875, V-B:TRP:381:CZ2:8341, V-B:TRP:381:CZ3:8342"]

$$$$
RR10_Rahimova_2017
     RDKit          3D

 66 70  0  0  0  0  0  0  0  0999 V2000
  127.4960  122.5110   54.8870 C   0  0  0  0  0  0  0  0  0  0  0  0
  127.1810  123.3640   56.1280 C   0  0  1  0  0  0  0  0  0  0  0  0
  126.5560  122.5200   57.2630 C   0  0  0  0  0  0  0  0  0  0  0  0
  126.2160  123.4030   58.4860 C   0  0  0  0  0  0  0  0  0  0  0  0
  127.4600  124.1480   59.0330 C   0  0  1  0  0  0  0  0  0  0  0  0
  128.4120  123.2020   59.6300 N   0  0  0  0  0  0  0  0  0  0  0  0
  128.1950  122.4710   60.7390 C   0  0  0  0  0  0  0  0  0  0  0  0
  127.1350  122.5070   61.3700 O   0  0  0  0  0  0  0  0  0  0  0  0
  129.3530  121.5700   61.2150 C   0  0  1  0  0  0  0  0  0  0  0  0
  129.4880  120.3560   60.2600 C   0  0  0  0  0  0  0  0  0  0  0  0
  130.7070  119.5000   60.6800 C   0  0  0  0  0  0  0  0  0  0  0  0
  132.0000  120.3380   60.8190 C   0  0  0  0  0  0  0  0  0  0  0  0
  131.7700  121.5160   61.6980 N   0  0  0  0  0  0  0  0  0  0  0  0
  133.2440  122.3780   62.1700 S   0  0  0  0  0  0  0  0  0  0  0  0
  133.6970  123.1710   61.0200 O   0  0  0  0  0  0  0  0  0  0  0  0
  134.1490  121.4100   62.8020 O   0  0  0  0  0  0  0  0  0  0  0  0
  132.7200  123.5450   63.4260 C   0  0  0  0  0  0  0  0  0  0  0  0
  133.5380  124.6380   63.7290 C   0  0  0  0  0  0  0  0  0  0  0  0
  133.1880  125.5820   64.6990 C   0  0  0  0  0  0  0  0  0  0  0  0
  131.9710  125.3810   65.3550 C   0  0  0  0  0  0  0  0  0  0  0  0
  131.2970  126.0600   66.3420 N   0  0  0  0  0  0  0  0  0  0  0  0
  130.1220  125.3840   66.5980 C   0  0  0  0  0  0  0  0  0  0  0  0
  129.1200  125.8200   67.6270 C   0  0  0  0  0  0  0  0  0  0  0  0
  127.9240  126.4370   67.2360 C   0  0  0  0  0  0  0  0  0  0  0  0
  126.9920  126.8380   68.1900 C   0  0  0  0  0  0  0  0  0  0  0  0
  127.2510  126.6250   69.5410 C   0  0  0  0  0  0  0  0  0  0  0  0
  128.4340  126.0130   69.9460 C   0  0  0  0  0  0  0  0  0  0  0  0
  129.3660  125.6120   68.9910 C   0  0  0  0  0  0  0  0  0  0  0  0
  129.9920  124.3190   65.8370 N   0  0  0  0  0  0  0  0  0  0  0  0
  131.1200  124.2890   65.0600 C   0  0  0  0  0  0  0  0  0  0  0  0
  131.4960  123.3590   64.0800 C   0  0  0  0  0  0  0  0  0  0  0  0
  130.6650  122.3930   61.2350 C   0  0  0  0  0  0  0  0  0  0  0  0
  128.0880  124.9760   57.8790 C   0  0  0  0  0  0  0  0  0  0  0  0
  128.4360  124.0960   56.6580 C   0  0  0  0  0  0  0  0  0  0  0  0
  127.8609  121.5229   55.2042 H   0  0  0  0  0  0  0  0  0  0  0  0
  126.5836  122.3889   54.2847 H   0  0  0  0  0  0  0  0  0  0  0  0
  128.2687  123.0112   54.2847 H   0  0  0  0  0  0  0  0  0  0  0  0
  126.4467  124.1162   55.8040 H   0  0  0  0  0  0  0  0  0  0  0  0
  125.6344  122.0464   56.8937 H   0  0  0  0  0  0  0  0  0  0  0  0
  127.2837  121.7558   57.5735 H   0  0  0  0  0  0  0  0  0  0  0  0
  125.4609  124.1453   58.1882 H   0  0  0  0  0  0  0  0  0  0  0  0
  125.8381  122.7457   59.2829 H   0  0  0  0  0  0  0  0  0  0  0  0
  127.1684  124.8386   59.8380 H   0  0  0  0  0  0  0  0  0  0  0  0
  129.3400  123.1980   59.2310 H   0  0  0  0  0  0  0  0  0  0  0  0
  129.1487  121.1996   62.2304 H   0  0  0  0  0  0  0  0  0  0  0  0
  128.5751  119.7446   60.3134 H   0  0  0  0  0  0  0  0  0  0  0  0
  129.6303  120.7148   59.2299 H   0  0  0  0  0  0  0  0  0  0  0  0
  130.4882  119.0258   61.6481 H   0  0  0  0  0  0  0  0  0  0  0  0
  130.8770  118.7515   59.8921 H   0  0  0  0  0  0  0  0  0  0  0  0
  132.7917  119.7110   61.2549 H   0  0  0  0  0  0  0  0  0  0  0  0
  132.3006  120.6932   59.8223 H   0  0  0  0  0  0  0  0  0  0  0  0
  134.4874  124.7589   63.1867 H   0  0  0  0  0  0  0  0  0  0  0  0
  133.8371  126.4385   64.9335 H   0  0  0  0  0  0  0  0  0  0  0  0
  131.5710  126.9020   66.8290 H   0  0  0  0  0  0  0  0  0  0  0  0
  127.7200  126.6057   66.1683 H   0  0  0  0  0  0  0  0  0  0  0  0
  126.0547  127.3212   67.8771 H   0  0  0  0  0  0  0  0  0  0  0  0
  126.5152  126.9427   70.2944 H   0  0  0  0  0  0  0  0  0  0  0  0
  128.6321  125.8467   71.0152 H   0  0  0  0  0  0  0  0  0  0  0  0
  130.3014  125.1288   69.3098 H   0  0  0  0  0  0  0  0  0  0  0  0
  130.8468  122.5064   63.8318 H   0  0  0  0  0  0  0  0  0  0  0  0
  130.5567  123.2456   61.9215 H   0  0  0  0  0  0  0  0  0  0  0  0
  130.8850  122.7722   60.2261 H   0  0  0  0  0  0  0  0  0  0  0  0
  127.3714  125.7498   57.5664 H   0  0  0  0  0  0  0  0  0  0  0  0
  129.0208  125.4246   58.2513 H   0  0  0  0  0  0  0  0  0  0  0  0
  128.8449  124.7332   55.8600 H   0  0  0  0  0  0  0  0  0  0  0  0
  129.1766  123.3437   56.9673 H   0  0  0  0  0  0  0  0  0  0  0  0
  1  2  1  0
  2  3  1  0
  3  4  1  0
  4  5  1  0
  5  6  1  0
  6  7  1  0
  7  8  2  0
  7  9  1  0
  9 10  1  0
 10 11  1  0
 11 12  1  0
 12 13  1  0
 13 14  1  0
 14 15  2  0
 14 16  2  0
 14 17  1  0
 17 18  2  0
 18 19  1  0
 19 20  2  0
 20 21  1  0
 21 22  1  0
 22 23  1  0
 23 24  2  0
 24 25  1  0
 25 26  2  0
 26 27  1  0
 27 28  2  0
 22 29  2  0
 29 30  1  0
 30 31  2  0
 13 32  1  0
  5 33  1  0
 33 34  1  0
 34  2  1  0
 32  9  1  0
 31 17  1  0
 30 20  1  0
 28 23  1  0
  1 35  1  0
  1 36  1  0
  1 37  1  0
  2 38  1  6
  3 39  1  0
  3 40  1  0
  4 41  1  0
  4 42  1  0
  5 43  1  1
  6 44  1  0
  9 45  1  1
 10 46  1  0
 10 47  1  0
 11 48  1  0
 11 49  1  0
 12 50  1  0
 12 51  1  0
 18 52  1  0
 19 53  1  0
 21 54  1  0
 24 55  1  0
 25 56  1  0
 26 57  1  0
 27 58  1  0
 28 59  1  0
 31 60  1  0
 32 61  1  0
 32 62  1  0
 33 63  1  0
 33 64  1  0
 34 65  1  0
 34 66  1  0
M  END
>  <Binding energies>  (1) 
[-10.16]

>  <Ligand effiencies>  (1) 
[-0.2822222222222222]

>  <Interactions>  (1) 
["V-B:PRO:540:CD:9859, V-B:ILE:538:CB:9834, V-B:ALA:541:CB:9864, V-B:TYR:539:CE2:9848, V-B:TYR:539:CD2:9846, H-B:ALA:541:N:9863, V-B:PRO:540:CB:9857, V-B:PRO:540:N:9856, V-B:TYR:539:C:9839, V-B:PRO:540:CA:9855, V-B:TYR:539:CZ:9849, V-A:PRO:482:CG:4327, V-A:LEU:475:CD1:4258, V-A:GLU:543:CD:4908, V-B:ILE:538:CG2:9835, V-B:TYR:539:CG:9844, V-B:GLU:543:CB:9878, V-B:GLY:544:C:9884, V-B:HIS:456:CE1:9040, V-B:ARG:545:CG:9894, V-A:HIS:456:CE1:4069, H-A:GLY:454:N:4050, V-A:TRP:381:CZ2:3370, V-A:TRP:381:CH2:3372, V-A:TYR:484:CZ:4347, H-A:TYR:484:OH:4348, H-A:GLU:543:OE2:4910, V-A:GLY:454:CA:4049, V-A:ARG:545:CZ:4926, V-A:ARG:545:CD:4923, V-B:ILE:538:CA:9832, V-B:ILE:538:C:9830, V-B:TYR:539:CE1:9847, V-B:TYR:539:CD1:9845"]

$$$$
RR11_Rahimova_2017
     RDKit          3D

 55 60  0  0  0  0  0  0  0  0999 V2000
  134.7080  123.3270   59.9890 N   0  0  0  0  0  0  0  0  0  0  0  0
  133.8680  123.7500   61.0180 C   0  0  0  0  0  0  0  0  0  0  0  0
  134.2130  123.4950   62.3440 C   0  0  0  0  0  0  0  0  0  0  0  0
  133.3750  123.9200   63.3710 C   0  0  0  0  0  0  0  0  0  0  0  0
  132.1850  124.6020   63.0830 C   0  0  0  0  0  0  0  0  0  0  0  0
  131.2860  125.0650   64.1900 C   0  0  0  0  0  0  0  0  0  0  0  0
  130.6800  126.2320   64.2180 N   0  0  0  0  0  0  0  0  0  0  0  0
  129.9590  126.2380   65.3830 C   0  0  0  0  0  0  0  0  0  0  0  0
  129.1250  127.2370   65.9030 C   0  0  0  0  0  0  0  0  0  0  0  0
  128.4760  126.9960   67.1200 C   0  0  0  0  0  0  0  0  0  0  0  0
  127.5680  128.0650   67.7130 C   0  0  0  0  0  0  0  0  0  0  0  0
  126.5370  128.5840   66.7210 C   0  0  0  0  0  0  0  0  0  0  0  0
  125.2520  128.9110   67.1710 C   0  0  0  0  0  0  0  0  0  0  0  0
  124.2750  129.3990   66.3020 C   0  0  0  0  0  0  0  0  0  0  0  0
  124.6130  129.5630   64.9520 C   0  0  0  0  0  0  0  0  0  0  0  0
  123.8420  130.0120   63.9120 N   0  0  0  0  0  0  0  0  0  0  0  0
  124.6260  129.9720   62.8560 C   0  0  0  0  0  0  0  0  0  0  0  0
  124.2030  130.3630   61.4690 C   0  0  0  0  0  0  0  0  0  0  0  0
  123.0350  131.1080   61.2660 C   0  0  0  0  0  0  0  0  0  0  0  0
  122.6360  131.4610   59.9790 C   0  0  0  0  0  0  0  0  0  0  0  0
  123.4040  131.0700   58.8850 C   0  0  0  0  0  0  0  0  0  0  0  0
  123.0030  131.4190   57.5960 N   0  0  0  0  0  0  0  0  0  0  0  0
  124.5700  130.3320   59.0720 C   0  0  0  0  0  0  0  0  0  0  0  0
  124.9680  129.9800   60.3590 C   0  0  0  0  0  0  0  0  0  0  0  0
  125.8900  129.5190   63.1680 N   0  0  0  0  0  0  0  0  0  0  0  0
  125.9200  129.2410   64.5140 C   0  0  0  0  0  0  0  0  0  0  0  0
  126.9040  128.7570   65.3800 C   0  0  0  0  0  0  0  0  0  0  0  0
  128.6790  125.7960   67.8110 C   0  0  0  0  0  0  0  0  0  0  0  0
  129.5080  124.7830   67.3220 C   0  0  0  0  0  0  0  0  0  0  0  0
  130.1360  125.0300   66.0990 C   0  0  0  0  0  0  0  0  0  0  0  0
  130.9940  124.3060   65.3050 N   0  0  0  0  0  0  0  0  0  0  0  0
  131.8500  124.8510   61.7450 C   0  0  0  0  0  0  0  0  0  0  0  0
  132.6880  124.4270   60.7160 C   0  0  0  0  0  0  0  0  0  0  0  0
  134.5800  122.4080   59.5890 H   0  0  0  0  0  0  0  0  0  0  0  0
  135.4080  123.9580   59.6300 H   0  0  0  0  0  0  0  0  0  0  0  0
  135.1448  122.9594   62.5783 H   0  0  0  0  0  0  0  0  0  0  0  0
  133.6490  123.7189   64.4172 H   0  0  0  0  0  0  0  0  0  0  0  0
  128.9837  128.1876   65.3679 H   0  0  0  0  0  0  0  0  0  0  0  0
  127.0389  127.6362   68.5769 H   0  0  0  0  0  0  0  0  0  0  0  0
  128.2040  128.9145   68.0025 H   0  0  0  0  0  0  0  0  0  0  0  0
  125.0066  128.7801   68.2353 H   0  0  0  0  0  0  0  0  0  0  0  0
  123.2675  129.6480   66.6667 H   0  0  0  0  0  0  0  0  0  0  0  0
  122.4278  131.4169   62.1296 H   0  0  0  0  0  0  0  0  0  0  0  0
  121.7173  132.0467   59.8272 H   0  0  0  0  0  0  0  0  0  0  0  0
  122.0300  131.6220   57.4150 H   0  0  0  0  0  0  0  0  0  0  0  0
  123.6960  131.4990   56.8650 H   0  0  0  0  0  0  0  0  0  0  0  0
  125.1751  130.0279   58.2052 H   0  0  0  0  0  0  0  0  0  0  0  0
  125.8893  129.3972   60.5055 H   0  0  0  0  0  0  0  0  0  0  0  0
  126.6290  129.4210   62.4870 H   0  0  0  0  0  0  0  0  0  0  0  0
  127.9187  128.5229   65.0257 H   0  0  0  0  0  0  0  0  0  0  0  0
  128.1678  125.6449   68.7732 H   0  0  0  0  0  0  0  0  0  0  0  0
  129.6580  123.8415   67.8707 H   0  0  0  0  0  0  0  0  0  0  0  0
  131.3690  123.3820   65.4610 H   0  0  0  0  0  0  0  0  0  0  0  0
  130.9186  125.3851   61.5056 H   0  0  0  0  0  0  0  0  0  0  0  0
  132.4190  124.6260   59.6681 H   0  0  0  0  0  0  0  0  0  0  0  0
  1  2  1  0
  2  3  2  0
  3  4  1  0
  4  5  2  0
  5  6  1  0
  6  7  2  0
  7  8  1  0
  8  9  2  0
  9 10  1  0
 10 11  1  0
 11 12  1  0
 12 13  2  0
 13 14  1  0
 14 15  2  0
 15 16  1  0
 16 17  2  0
 17 18  1  0
 18 19  2  0
 19 20  1  0
 20 21  2  0
 21 22  1  0
 21 23  1  0
 23 24  2  0
 17 25  1  0
 25 26  1  0
 26 27  2  0
 10 28  2  0
 28 29  1  0
 29 30  2  0
 30 31  1  0
  5 32  1  0
 32 33  2  0
 33  2  1  0
 31  6  1  0
 30  8  1  0
 27 12  1  0
 26 15  1  0
 24 18  1  0
  1 34  1  0
  1 35  1  0
  3 36  1  0
  4 37  1  0
  9 38  1  0
 11 39  1  0
 11 40  1  0
 13 41  1  0
 14 42  1  0
 19 43  1  0
 20 44  1  0
 22 45  1  0
 22 46  1  0
 23 47  1  0
 24 48  1  0
 25 49  1  0
 27 50  1  0
 28 51  1  0
 29 52  1  0
 31 53  1  0
 32 54  1  0
 33 55  1  0
M  END
>  <Binding energies>  (1) 
[-8.82]

>  <Ligand effiencies>  (1) 
[-0.22615384615384615]

>  <Interactions>  (1) 
["V-B:ASP:366:CG:8184, V-A:ASP:366:CG:3213, V-A:GLU:543:CD:4908, V-B:ASP:366:CB:8183, V-B:GLU:543:C:9874, V-B:GLU:543:CB:9878, V-B:HIS:456:CE1:9040, V-B:ARG:545:CG:9894, V-A:HIS:456:CE1:4069, H-B:ARG:545:NE:9896, H-B:GLY:454:N:9021, V-B:ILE:369:CD1:8210, V-B:ARG:545:CD:9895, V-B:ILE:369:CG2:8208, V-B:ARG:545:CZ:9898, V-A:TYR:484:CE1:4345, H-B:ARG:545:NH2:9900, V-B:GLU:543:CA:9876, V-A:ILE:369:CD1:3239, V-A:ILE:369:CG2:3237, V-A:ILE:369:CB:3236, V-A:GLY:453:C:4042, H-B:ARG:545:NH1:9899, V-A:TYR:484:CZ:4347, H-A:TYR:484:OH:4348, V-A:GLY:454:CA:4049, V-A:ASP:366:CA:3210, V-A:TYR:539:CZ:4877, H-A:TYR:539:OH:4878, V-B:ASP:366:CA:8181, V-A:ILE:369:CG1:3238, V-B:ASP:366:C:8179, V-B:ASN:370:CB:8216, V-B:ILE:369:CG1:8209, V-B:ILE:369:CB:8207, H-A:ASP:366:OD2:3215, H-B:ASP:366:O:8180, H-A:CYS:365:O:3206"]

$$$$
RR11_Rahimova_2017-again1
     RDKit          3D

 56 61  0  0  0  0  0  0  0  0999 V2000
  123.0580  131.6100   57.6230 N   0  0  0  0  0  0  0  0  0  0  0  0
  123.4310  131.2040   58.9030 C   0  0  0  0  0  0  0  0  0  0  0  0
  122.6300  131.5300   59.9960 C   0  0  0  0  0  0  0  0  0  0  0  0
  123.0060  131.1260   61.2750 C   0  0  0  0  0  0  0  0  0  0  0  0
  124.1840  130.3940   61.4710 C   0  0  0  0  0  0  0  0  0  0  0  0
  124.5920  129.9660   62.8510 C   0  0  0  0  0  0  0  0  0  0  0  0
  123.8190  130.0430   63.9110 N   0  0  0  0  0  0  0  0  0  0  0  0
  124.5810  129.5740   64.9500 C   0  0  0  0  0  0  0  0  0  0  0  0
  124.2490  129.4430   66.3050 C   0  0  0  0  0  0  0  0  0  0  0  0
  125.2210  128.9460   67.1750 C   0  0  0  0  0  0  0  0  0  0  0  0
  126.4960  128.5880   66.7240 C   0  0  0  0  0  0  0  0  0  0  0  0
  127.5190  128.0560   67.7170 C   0  0  0  0  0  0  0  0  0  0  0  0
  128.4520  127.0230   67.1000 C   0  0  0  0  0  0  0  0  0  0  0  0
  128.6070  125.7760   67.7170 C   0  0  0  0  0  0  0  0  0  0  0  0
  129.4500  124.7890   67.2000 C   0  0  0  0  0  0  0  0  0  0  0  0
  130.1360  125.1060   66.0240 C   0  0  0  0  0  0  0  0  0  0  0  0
  131.0440  124.3850   65.2590 N   0  0  0  0  0  0  0  0  0  0  0  0
  131.4530  125.1350   64.1810 C   0  0  0  0  0  0  0  0  0  0  0  0
  132.4350  124.7330   63.1280 C   0  0  0  0  0  0  0  0  0  0  0  0
  131.9890  124.4000   61.8430 C   0  0  0  0  0  0  0  0  0  0  0  0
  132.9000  124.0330   60.8560 C   0  0  0  0  0  0  0  0  0  0  0  0
  134.2620  123.9970   61.1490 C   0  0  0  0  0  0  0  0  0  0  0  0
  135.1730  123.6340   60.1590 N   0  0  0  0  0  0  0  0  0  0  0  0
  134.7160  124.3260   62.4260 C   0  0  0  0  0  0  0  0  0  0  0  0
  133.8050  124.6930   63.4120 C   0  0  0  0  0  0  0  0  0  0  0  0
  130.7880  126.3360   64.2680 N   0  0  0  0  0  0  0  0  0  0  0  0
  129.9740  126.3500   65.3920 C   0  0  0  0  0  0  0  0  0  0  0  0
  129.1240  127.3300   65.9100 C   0  0  0  0  0  0  0  0  0  0  0  0
  126.8430  128.6870   65.3690 C   0  0  0  0  0  0  0  0  0  0  0  0
  125.8690  129.1930   64.5050 C   0  0  0  0  0  0  0  0  0  0  0  0
  125.8360  129.4520   63.1550 N   0  0  0  0  0  0  0  0  0  0  0  0
  124.9790  130.0720   60.3630 C   0  0  0  0  0  0  0  0  0  0  0  0
  124.6040  130.4750   59.0840 C   0  0  0  0  0  0  0  0  0  0  0  0
  123.4310  132.4700   57.2470 H   0  0  0  0  0  0  0  0  0  0  0  0
  122.3890  131.0610   57.1030 H   0  0  0  0  0  0  0  0  0  0  0  0
  121.7036  132.1046   59.8491 H   0  0  0  0  0  0  0  0  0  0  0  0
  122.3733  131.3837   62.1372 H   0  0  0  0  0  0  0  0  0  0  0  0
  123.2510  129.7238   66.6726 H   0  0  0  0  0  0  0  0  0  0  0  0
  124.9783  128.8330   68.2419 H   0  0  0  0  0  0  0  0  0  0  0  0
  128.1217  128.8984   68.0872 H   0  0  0  0  0  0  0  0  0  0  0  0
  126.9677  127.5627   68.5311 H   0  0  0  0  0  0  0  0  0  0  0  0
  128.0463  125.5662   68.6398 H   0  0  0  0  0  0  0  0  0  0  0  0
  129.5678  123.8127   67.6930 H   0  0  0  0  0  0  0  0  0  0  0  0
  131.3870  123.4510   65.4310 H   0  0  0  0  0  0  0  0  0  0  0  0
  130.9139  124.4285   61.6123 H   0  0  0  0  0  0  0  0  0  0  0  0
  132.5456  123.7722   59.8478 H   0  0  0  0  0  0  0  0  0  0  0  0
  135.1740  122.6870   59.8060 H   0  0  0  0  0  0  0  0  0  0  0  0
  135.8410  124.3130   59.8240 H   0  0  0  0  0  0  0  0  0  0  0  0
  135.7918  124.2955   62.6534 H   0  0  0  0  0  0  0  0  0  0  0  0
  134.1632  124.9528   64.4191 H   0  0  0  0  0  0  0  0  0  0  0  0
  130.9130  127.0720   63.5900 H   0  0  0  0  0  0  0  0  0  0  0  0
  128.9886  128.2985   65.4064 H   0  0  0  0  0  0  0  0  0  0  0  0
  127.8345  128.3809   65.0040 H   0  0  0  0  0  0  0  0  0  0  0  0
  126.5640  129.3190   62.4690 H   0  0  0  0  0  0  0  0  0  0  0  0
  125.9059  129.4968   60.5046 H   0  0  0  0  0  0  0  0  0  0  0  0
  125.2326  130.2183   58.2186 H   0  0  0  0  0  0  0  0  0  0  0  0
  1  2  1  0
  2  3  2  0
  3  4  1  0
  4  5  2  0
  5  6  1  0
  6  7  2  0
  7  8  1  0
  8  9  2  0
  9 10  1  0
 10 11  2  0
 11 12  1  0
 12 13  1  0
 13 14  2  0
 14 15  1  0
 15 16  2  0
 16 17  1  0
 17 18  1  0
 18 19  1  0
 19 20  2  0
 20 21  1  0
 21 22  2  0
 22 23  1  0
 22 24  1  0
 24 25  2  0
 18 26  2  0
 26 27  1  0
 27 28  2  0
 11 29  1  0
 29 30  2  0
 30 31  1  0
  5 32  1  0
 32 33  2  0
 33  2  1  0
 31  6  1  0
 30  8  1  0
 28 13  1  0
 27 16  1  0
 25 19  1  0
  1 34  1  0
  1 35  1  0
  3 36  1  0
  4 37  1  0
  9 38  1  0
 10 39  1  0
 12 40  1  0
 12 41  1  0
 14 42  1  0
 15 43  1  0
 17 44  1  0
 20 45  1  0
 21 46  1  0
 23 47  1  0
 23 48  1  0
 24 49  1  0
 25 50  1  0
 26 51  1  0
 28 52  1  0
 29 53  1  0
 31 54  1  0
 32 55  1  0
 33 56  1  0
M  CHG  1  26   1
M  END
>  <Binding energies>  (1) 
[-9.8]

>  <Ligand effiencies>  (1) 
[-0.24500000000000002]

>  <Interactions>  (1) 
["V-B:ASP:366:CG:8184, V-A:ASP:366:CB:3212, V-A:ASP:366:CG:3213, V-A:GLU:543:CD:4908, V-A:TYR:539:CE2:4876, V-B:ASP:366:CB:8183, V-B:GLU:543:C:9874, V-B:GLU:543:CB:9878, V-B:HIS:456:CE1:9040, V-B:ARG:545:CG:9894, V-A:HIS:456:CE1:4069, H-B:ARG:545:NE:9896, H-B:GLY:454:N:9021, V-B:ILE:369:CD1:8210, V-B:ARG:545:CD:9895, V-B:ILE:369:CG2:8208, V-B:ARG:545:CZ:9898, V-A:TYR:484:CE1:4345, H-B:ARG:545:NH2:9900, V-B:GLU:543:CA:9876, V-A:ILE:369:CD1:3239, V-A:ILE:369:CG2:3237, V-A:ILE:369:CB:3236, V-A:GLY:453:C:4042, H-B:ARG:545:NH1:9899, V-A:TYR:484:CZ:4347, H-A:TYR:484:OH:4348, H-A:GLU:543:OE2:4910, V-A:ASP:366:CA:3210, V-A:ARG:545:CZ:4926, H-A:GLU:543:OE1:4909, V-A:TYR:539:CZ:4877, V-A:GLY:453:CA:4044, H-A:TYR:539:OH:4878, V-B:ASP:366:CA:8181, V-A:ILE:369:CG1:3238, V-B:ASP:366:C:8179, V-B:ASN:370:CB:8216, V-B:ILE:369:CG1:8209, V-B:ILE:369:CB:8207, H-A:ASP:366:OD2:3215, H-B:ASP:366:O:8180, H-A:CYS:365:O:3206"]

$$$$
RR11_Rahimova_2017-again2
     RDKit          3D

 57 62  0  0  0  0  0  0  0  0999 V2000
  128.7900  125.4130   70.1720 N   0  0  0  0  0  0  0  0  0  0  0  0
  128.4180  126.3030   69.1670 C   0  0  0  0  0  0  0  0  0  0  0  0
  127.0910  126.3590   68.7460 C   0  0  0  0  0  0  0  0  0  0  0  0
  126.7200  127.2440   67.7370 C   0  0  0  0  0  0  0  0  0  0  0  0
  127.6750  128.0790   67.1440 C   0  0  0  0  0  0  0  0  0  0  0  0
  127.2800  129.0220   66.0540 C   0  0  0  0  0  0  0  0  0  0  0  0
  126.2040  128.8950   65.2050 N   0  0  0  0  0  0  0  0  0  0  0  0
  126.1500  129.9790   64.3390 C   0  0  0  0  0  0  0  0  0  0  0  0
  125.2550  130.3090   63.3170 C   0  0  0  0  0  0  0  0  0  0  0  0
  125.4840  131.5110   62.6370 C   0  0  0  0  0  0  0  0  0  0  0  0
  124.5400  131.9270   61.5170 C   0  0  0  0  0  0  0  0  0  0  0  0
  124.6200  131.0090   60.3060 C   0  0  0  0  0  0  0  0  0  0  0  0
  123.9670  131.3690   59.1210 C   0  0  0  0  0  0  0  0  0  0  0  0
  124.0050  130.5670   57.9780 C   0  0  0  0  0  0  0  0  0  0  0  0
  124.7350  129.3800   58.0700 C   0  0  0  0  0  0  0  0  0  0  0  0
  124.9690  128.3660   57.1510 N   0  0  0  0  0  0  0  0  0  0  0  0
  125.7550  127.3880   57.7160 C   0  0  0  0  0  0  0  0  0  0  0  0
  126.2190  126.1240   57.0670 C   0  0  0  0  0  0  0  0  0  0  0  0
  125.6740  124.8930   57.4510 C   0  0  0  0  0  0  0  0  0  0  0  0
  126.0980  123.7160   56.8400 C   0  0  0  0  0  0  0  0  0  0  0  0
  127.0690  123.7640   55.8420 C   0  0  0  0  0  0  0  0  0  0  0  0
  127.4900  122.5860   55.2260 N   0  0  0  0  0  0  0  0  0  0  0  0
  127.6220  124.9840   55.4550 C   0  0  0  0  0  0  0  0  0  0  0  0
  127.1970  126.1610   56.0660 C   0  0  0  0  0  0  0  0  0  0  0  0
  126.0230  127.8000   59.0000 N   0  0  0  0  0  0  0  0  0  0  0  0
  125.4050  129.0180   59.2500 C   0  0  0  0  0  0  0  0  0  0  0  0
  125.3690  129.8270   60.3890 C   0  0  0  0  0  0  0  0  0  0  0  0
  126.5790  132.3250   62.9520 C   0  0  0  0  0  0  0  0  0  0  0  0
  127.4800  131.9970   63.9680 C   0  0  0  0  0  0  0  0  0  0  0  0
  127.2390  130.8070   64.6590 C   0  0  0  0  0  0  0  0  0  0  0  0
  127.9100  130.1950   65.7090 N   0  0  0  0  0  0  0  0  0  0  0  0
  129.0050  128.0180   67.5780 C   0  0  0  0  0  0  0  0  0  0  0  0
  129.3760  127.1330   68.5860 C   0  0  0  0  0  0  0  0  0  0  0  0
  128.9240  125.7530   71.1140 H   0  0  0  0  0  0  0  0  0  0  0  0
  128.9870  124.4500   69.9370 H   0  0  0  0  0  0  0  0  0  0  0  0
  126.3377  125.7052   69.2099 H   0  0  0  0  0  0  0  0  0  0  0  0
  125.6724  127.2874   67.4044 H   0  0  0  0  0  0  0  0  0  0  0  0
  125.5700  128.1110   65.2500 H   0  0  0  0  0  0  0  0  0  0  0  0
  124.4096  129.6542   63.0590 H   0  0  0  0  0  0  0  0  0  0  0  0
  123.5097  131.9117   61.9020 H   0  0  0  0  0  0  0  0  0  0  0  0
  124.8386  132.9337   61.1894 H   0  0  0  0  0  0  0  0  0  0  0  0
  123.4056  132.3144   59.0891 H   0  0  0  0  0  0  0  0  0  0  0  0
  123.4861  130.8558   57.0521 H   0  0  0  0  0  0  0  0  0  0  0  0
  124.6310  128.3060   56.2010 H   0  0  0  0  0  0  0  0  0  0  0  0
  124.9074  124.8555   58.2390 H   0  0  0  0  0  0  0  0  0  0  0  0
  125.6675  122.7506   57.1444 H   0  0  0  0  0  0  0  0  0  0  0  0
  126.8590  121.8010   55.1690 H   0  0  0  0  0  0  0  0  0  0  0  0
  128.4430  122.5090   54.9010 H   0  0  0  0  0  0  0  0  0  0  0  0
  128.3915  125.0167   54.6696 H   0  0  0  0  0  0  0  0  0  0  0  0
  127.6317  127.1242   55.7607 H   0  0  0  0  0  0  0  0  0  0  0  0
  126.5870  127.2550   59.6370 H   0  0  0  0  0  0  0  0  0  0  0  0
  125.9041  129.5489   61.3089 H   0  0  0  0  0  0  0  0  0  0  0  0
  126.7347  133.2523   62.3812 H   0  0  0  0  0  0  0  0  0  0  0  0
  128.3362  132.6432   64.2117 H   0  0  0  0  0  0  0  0  0  0  0  0
  128.7370  130.5240   66.1850 H   0  0  0  0  0  0  0  0  0  0  0  0
  129.7606  128.6731   67.1198 H   0  0  0  0  0  0  0  0  0  0  0  0
  130.4220  127.0884   68.9234 H   0  0  0  0  0  0  0  0  0  0  0  0
  1  2  1  0
  2  3  2  0
  3  4  1  0
  4  5  2  0
  5  6  1  0
  6  7  1  0
  7  8  1  0
  8  9  2  0
  9 10  1  0
 10 11  1  0
 11 12  1  0
 12 13  2  0
 13 14  1  0
 14 15  2  0
 15 16  1  0
 16 17  1  0
 17 18  1  0
 18 19  2  0
 19 20  1  0
 20 21  2  0
 21 22  1  0
 21 23  1  0
 23 24  2  0
 17 25  2  0
 25 26  1  0
 26 27  2  0
 10 28  2  0
 28 29  1  0
 29 30  2  0
 30 31  1  0
  5 32  1  0
 32 33  2  0
 33  2  1  0
 31  6  2  0
 30  8  1  0
 27 12  1  0
 26 15  1  0
 24 18  1  0
  1 34  1  0
  1 35  1  0
  3 36  1  0
  4 37  1  0
  7 38  1  0
  9 39  1  0
 11 40  1  0
 11 41  1  0
 13 42  1  0
 14 43  1  0
 16 44  1  0
 19 45  1  0
 20 46  1  0
 22 47  1  0
 22 48  1  0
 23 49  1  0
 24 50  1  0
 25 51  1  0
 27 52  1  0
 28 53  1  0
 29 54  1  0
 31 55  1  0
 32 56  1  0
 33 57  1  0
M  CHG  2  25   1  31   1
M  END
>  <Binding energies>  (1) 
[-9.58]

>  <Ligand effiencies>  (1) 
[-0.23365853658536587]

>  <Interactions>  (1) 
["V-B:ILE:538:CB:9834, H-B:ASP:366:OD1:8185, V-B:ASP:366:CG:8184, V-B:TYR:539:CZ:9849, V-A:GLU:543:CD:4908, V-A:TYR:539:CE2:4876, V-B:LEU:475:CD1:9229, V-A:ALA:541:CB:4892, V-B:ILE:538:CG2:9835, V-B:ASP:366:CB:8183, V-B:TYR:539:CG:9844, H-B:TYR:539:OH:9850, V-B:TYR:531:CZ:9766, V-B:GLU:543:C:9874, V-B:GLU:543:CB:9878, V-B:GLY:544:C:9884, V-B:HIS:456:CE1:9040, V-B:ARG:545:CG:9894, V-A:HIS:456:CE1:4069, H-B:GLU:543:OE1:9881, H-B:TYR:484:OH:9319, V-A:GLU:543:CB:4906, V-B:ILE:369:CG2:8208, H-A:GLU:543:OE1:4909, V-A:TYR:539:CZ:4877, V-B:TYR:484:CZ:9318, V-B:TYR:484:CE1:9316, H-B:TYR:531:OH:9767, V-B:ASP:366:CA:8181, H-B:GLU:543:O:9875, V-B:ILE:538:CA:9832, V-B:ILE:538:C:9830, V-B:TYR:539:CE1:9847, V-B:TYR:539:CD1:9845, H-B:GLY:544:O:9885"]

$$$$
RR12_Rahimova_2017
     RDKit          3D

 51 53  0  0  0  0  0  0  0  0999 V2000
  129.7440  124.9140   66.9430 C   0  0  0  0  0  0  0  0  0  0  0  0
  129.1960  125.9370   65.9390 C   0  0  0  0  0  0  0  0  0  0  0  0
  129.0540  127.3450   66.5460 C   0  0  0  0  0  0  0  0  0  0  0  0
  127.6480  127.6700   66.7750 N   0  0  0  0  0  0  0  0  0  0  0  0
  126.8420  127.2420   67.8180 C   0  0  0  0  0  0  0  0  0  0  0  0
  127.3010  126.2900   68.9080 C   0  0  0  0  0  0  0  0  0  0  0  0
  128.5000  126.8410   69.7020 C   0  0  0  0  0  0  0  0  0  0  0  0
  129.1080  125.8000   70.6620 C   0  0  0  0  0  0  0  0  0  0  0  0
  128.6300  125.9180   72.0390 N   0  0  0  0  0  0  0  0  0  0  0  0
  129.3380  126.4360   73.0600 C   0  0  0  0  0  0  0  0  0  0  0  0
  130.4860  126.8680   72.9350 O   0  0  0  0  0  0  0  0  0  0  0  0
  128.6230  126.4640   74.4160 C   0  0  0  0  0  0  0  0  0  0  0  0
  127.3000  125.9470   74.2680 O   0  0  0  0  0  0  0  0  0  0  0  0
  126.2200  126.7620   74.5510 C   0  0  0  0  0  0  0  0  0  0  0  0
  126.4950  127.9330   75.2600 C   0  0  0  0  0  0  0  0  0  0  0  0
  125.4710  128.8190   75.5880 C   0  0  0  0  0  0  0  0  0  0  0  0
  124.1640  128.5330   75.2040 C   0  0  0  0  0  0  0  0  0  0  0  0
  123.8720  127.3680   74.4980 C   0  0  0  0  0  0  0  0  0  0  0  0
  124.8960  126.4830   74.1710 C   0  0  0  0  0  0  0  0  0  0  0  0
  125.6250  127.7270   67.7670 N   0  0  0  0  0  0  0  0  0  0  0  0
  125.6150  128.5330   66.6630 C   0  0  0  0  0  0  0  0  0  0  0  0
  124.5660  129.3100   66.1470 C   0  0  0  0  0  0  0  0  0  0  0  0
  124.8090  130.0610   64.9970 C   0  0  0  0  0  0  0  0  0  0  0  0
  126.0560  130.0470   64.3720 C   0  0  0  0  0  0  0  0  0  0  0  0
  127.1190  129.2840   64.8600 C   0  0  0  0  0  0  0  0  0  0  0  0
  126.8750  128.5280   66.0140 C   0  0  0  0  0  0  0  0  0  0  0  0
  129.5545  125.2677   67.9672 H   0  0  0  0  0  0  0  0  0  0  0  0
  129.2434  123.9464   66.7907 H   0  0  0  0  0  0  0  0  0  0  0  0
  130.8268  124.7946   66.7907 H   0  0  0  0  0  0  0  0  0  0  0  0
  129.8821  125.9909   65.0809 H   0  0  0  0  0  0  0  0  0  0  0  0
  128.1930  125.6021   65.6361 H   0  0  0  0  0  0  0  0  0  0  0  0
  129.5935  127.3812   67.5039 H   0  0  0  0  0  0  0  0  0  0  0  0
  129.4759  128.0775   65.8421 H   0  0  0  0  0  0  0  0  0  0  0  0
  126.4655  126.1194   69.6029 H   0  0  0  0  0  0  0  0  0  0  0  0
  127.6202  125.3551   68.4242 H   0  0  0  0  0  0  0  0  0  0  0  0
  129.2765  127.1593   68.9908 H   0  0  0  0  0  0  0  0  0  0  0  0
  128.1364  127.6816   70.3112 H   0  0  0  0  0  0  0  0  0  0  0  0
  128.8537  124.7960   70.2913 H   0  0  0  0  0  0  0  0  0  0  0  0
  130.1933  125.9783   70.6829 H   0  0  0  0  0  0  0  0  0  0  0  0
  127.6940  125.5860   72.2180 H   0  0  0  0  0  0  0  0  0  0  0  0
  129.1794  125.8465   75.1366 H   0  0  0  0  0  0  0  0  0  0  0  0
  128.5727  127.5000   74.7824 H   0  0  0  0  0  0  0  0  0  0  0  0
  127.5285  128.1579   75.5621 H   0  0  0  0  0  0  0  0  0  0  0  0
  125.6942  129.7395   76.1474 H   0  0  0  0  0  0  0  0  0  0  0  0
  123.3548  129.2327   75.4601 H   0  0  0  0  0  0  0  0  0  0  0  0
  122.8362  127.1481   74.2000 H   0  0  0  0  0  0  0  0  0  0  0  0
  124.6680  125.5626   73.6135 H   0  0  0  0  0  0  0  0  0  0  0  0
  123.5806  129.3262   66.6356 H   0  0  0  0  0  0  0  0  0  0  0  0
  124.0012  130.6766   64.5745 H   0  0  0  0  0  0  0  0  0  0  0  0
  126.2065  130.6551   63.4678 H   0  0  0  0  0  0  0  0  0  0  0  0
  128.1001  129.2769   64.3626 H   0  0  0  0  0  0  0  0  0  0  0  0
  1  2  1  0
  2  3  1  0
  3  4  1  0
  4  5  1  0
  5  6  1  0
  6  7  1  0
  7  8  1  0
  8  9  1  0
  9 10  1  0
 10 11  2  0
 10 12  1  0
 12 13  1  0
 13 14  1  0
 14 15  2  0
 15 16  1  0
 16 17  2  0
 17 18  1  0
 18 19  2  0
  5 20  2  0
 20 21  1  0
 21 22  2  0
 22 23  1  0
 23 24  2  0
 24 25  1  0
 25 26  2  0
 26  4  1  0
 19 14  1  0
 26 21  1  0
  1 27  1  0
  1 28  1  0
  1 29  1  0
  2 30  1  0
  2 31  1  0
  3 32  1  0
  3 33  1  0
  6 34  1  0
  6 35  1  0
  7 36  1  0
  7 37  1  0
  8 38  1  0
  8 39  1  0
  9 40  1  0
 12 41  1  0
 12 42  1  0
 15 43  1  0
 16 44  1  0
 17 45  1  0
 18 46  1  0
 19 47  1  0
 22 48  1  0
 23 49  1  0
 24 50  1  0
 25 51  1  0
M  END
>  <Binding energies>  (1) 
[-6.92]

>  <Ligand effiencies>  (1) 
[-0.2562962962962963]

>  <Interactions>  (1) 
["V-A:GLU:543:CD:4908, V-B:GLU:543:C:9874, V-B:GLU:543:CB:9878, V-B:HIS:456:CB:9036, V-B:GLY:544:C:9884, H-A:LYS:547:NZ:4951, V-B:HIS:456:CE1:9040, V-B:VAL:457:CA:9046, V-B:HIS:456:C:9032, V-B:ARG:545:CG:9894, H-B:LYS:547:NZ:9923, V-B:VAL:458:CG2:9058, V-A:HIS:456:CE1:4069, V-A:HIS:456:CD2:4068, H-A:HIS:456:NE2:4070, V-B:ARG:545:CD:9895, V-B:ARG:545:CZ:9898, V-B:GLU:543:CG:9879, V-A:TYR:484:CE1:4345, V-A:TYR:484:CZ:4347, V-B:LYS:547:CD:9921, V-B:ARG:545:C:9889, V-B:HIS:456:CA:9034, V-B:VAL:457:C:9044, V-B:LYS:547:CG:9920, H-B:GLY:544:O:9885"]

$$$$
RR13_Rahimova_2017
     RDKit          3D

 84 90  0  0  0  0  0  0  0  0999 V2000
  126.0310  130.4570   58.0390 Cl  0  0  0  0  0  0  0  0  0  0  0  0
  127.1550  131.5050   58.8350 C   0  0  0  0  0  0  0  0  0  0  0  0
  126.7220  132.1730   59.9830 C   0  0  0  0  0  0  0  0  0  0  0  0
  127.5710  133.0460   60.6560 C   0  0  0  0  0  0  0  0  0  0  0  0
  128.8630  133.2610   60.1830 C   0  0  0  0  0  0  0  0  0  0  0  0
  129.3030  132.5990   59.0390 C   0  0  0  0  0  0  0  0  0  0  0  0
  128.4650  131.7050   58.3530 C   0  0  0  0  0  0  0  0  0  0  0  0
  128.9680  131.0020   57.0720 C   0  0  1  0  0  0  0  0  0  0  0  0
  130.0520  131.8380   56.3740 C   0  0  0  0  0  0  0  0  0  0  0  0
  129.9030  133.0300   55.8400 N   0  0  0  0  0  0  0  0  0  0  0  0
  131.1430  133.3680   55.3090 N   0  0  0  0  0  0  0  0  0  0  0  0
  132.0440  132.3410   55.5170 N   0  0  0  0  0  0  0  0  0  0  0  0
  131.3400  131.3990   56.1540 N   0  0  0  0  0  0  0  0  0  0  0  0
  131.9820  130.1610   56.5790 C   0  0  0  0  0  0  0  0  0  0  0  0
  133.2790  130.4700   57.3510 C   0  0  0  0  0  0  0  0  0  0  0  0
  133.0180  130.7630   58.8200 C   0  0  0  0  0  0  0  0  0  0  0  0
  134.0790  131.1060   59.6620 C   0  0  0  0  0  0  0  0  0  0  0  0
  133.8410  131.3670   61.0090 C   0  0  0  0  0  0  0  0  0  0  0  0
  132.5420  131.2830   61.5080 C   0  0  0  0  0  0  0  0  0  0  0  0
  131.4810  130.9400   60.6740 C   0  0  0  0  0  0  0  0  0  0  0  0
  131.7190  130.6790   59.3270 C   0  0  0  0  0  0  0  0  0  0  0  0
  129.3930  129.6000   57.2960 N   0  0  0  0  0  0  0  0  0  0  0  0
  128.6260  128.6830   56.4320 C   0  0  0  0  0  0  0  0  0  0  0  0
  129.1540  127.2350   56.5620 C   0  0  0  0  0  0  0  0  0  0  0  0
  129.0130  126.7540   57.9470 N   0  0  0  0  0  0  0  0  0  0  0  0
  129.4310  125.3410   58.1000 C   0  0  1  0  0  0  0  0  0  0  0  0
  128.5920  124.3090   57.3150 C   0  0  0  0  0  0  0  0  0  0  0  0
  128.5980  124.4100   55.9170 C   0  0  0  0  0  0  0  0  0  0  0  0
  127.8830  123.5110   55.1260 C   0  0  0  0  0  0  0  0  0  0  0  0
  127.1440  122.4960   55.7260 C   0  0  0  0  0  0  0  0  0  0  0  0
  127.1120  122.3870   57.1130 C   0  0  0  0  0  0  0  0  0  0  0  0
  127.8210  123.2860   57.9150 C   0  0  0  0  0  0  0  0  0  0  0  0
  127.6620  123.1100   59.6300 Cl  0  0  0  0  0  0  0  0  0  0  0  0
  130.9210  125.1220   57.8300 C   0  0  0  0  0  0  0  0  0  0  0  0
  131.5680  125.5190   56.7580 N   0  0  0  0  0  0  0  0  0  0  0  0
  132.8900  125.1270   56.9420 N   0  0  0  0  0  0  0  0  0  0  0  0
  133.0310  124.4960   58.1610 N   0  0  0  0  0  0  0  0  0  0  0  0
  131.8070  124.5230   58.7010 N   0  0  0  0  0  0  0  0  0  0  0  0
  131.5710  123.9150   60.0060 C   0  0  0  0  0  0  0  0  0  0  0  0
  132.5120  122.7150   60.2170 C   0  0  0  0  0  0  0  0  0  0  0  0
  131.7550  121.4500   60.5900 C   0  0  0  0  0  0  0  0  0  0  0  0
  130.3580  121.4580   60.6260 C   0  0  0  0  0  0  0  0  0  0  0  0
  129.6650  120.2970   60.9600 C   0  0  0  0  0  0  0  0  0  0  0  0
  130.3710  119.1330   61.2580 C   0  0  0  0  0  0  0  0  0  0  0  0
  131.7650  119.1200   61.2240 C   0  0  0  0  0  0  0  0  0  0  0  0
  132.4580  120.2790   60.8890 C   0  0  0  0  0  0  0  0  0  0  0  0
  129.7850  127.6690   58.8060 C   0  0  0  0  0  0  0  0  0  0  0  0
  129.2450  129.1130   58.6790 C   0  0  0  0  0  0  0  0  0  0  0  0
  125.7012  132.0074   60.3580 H   0  0  0  0  0  0  0  0  0  0  0  0
  127.2221  133.5657   61.5605 H   0  0  0  0  0  0  0  0  0  0  0  0
  129.5352  133.9526   60.7120 H   0  0  0  0  0  0  0  0  0  0  0  0
  130.3225  132.7793   58.6673 H   0  0  0  0  0  0  0  0  0  0  0  0
  128.1060  130.9335   56.3921 H   0  0  0  0  0  0  0  0  0  0  0  0
  131.2956  129.6016   57.2316 H   0  0  0  0  0  0  0  0  0  0  0  0
  132.2284  129.5618   55.6900 H   0  0  0  0  0  0  0  0  0  0  0  0
  133.9505  129.6019   57.2769 H   0  0  0  0  0  0  0  0  0  0  0  0
  133.7324  131.3667   56.9035 H   0  0  0  0  0  0  0  0  0  0  0  0
  135.1014  131.1698   59.2612 H   0  0  0  0  0  0  0  0  0  0  0  0
  134.6732  131.6379   61.6754 H   0  0  0  0  0  0  0  0  0  0  0  0
  132.3532  131.4899   62.5718 H   0  0  0  0  0  0  0  0  0  0  0  0
  130.4596  130.8755   61.0773 H   0  0  0  0  0  0  0  0  0  0  0  0
  130.8852  130.4070   58.6631 H   0  0  0  0  0  0  0  0  0  0  0  0
  127.5672  128.7088   56.7290 H   0  0  0  0  0  0  0  0  0  0  0  0
  128.7386  129.0067   55.3868 H   0  0  0  0  0  0  0  0  0  0  0  0
  128.5795  126.5792   55.8913 H   0  0  0  0  0  0  0  0  0  0  0  0
  130.2193  127.2201   56.2882 H   0  0  0  0  0  0  0  0  0  0  0  0
  129.2305  125.1486   59.1643 H   0  0  0  0  0  0  0  0  0  0  0  0
  129.1766  125.2121   55.4355 H   0  0  0  0  0  0  0  0  0  0  0  0
  127.9032  123.6041   54.0301 H   0  0  0  0  0  0  0  0  0  0  0  0
  126.5856  121.7805   55.1045 H   0  0  0  0  0  0  0  0  0  0  0  0
  126.5230  121.5855   57.5828 H   0  0  0  0  0  0  0  0  0  0  0  0
  131.7543  124.6620   60.7924 H   0  0  0  0  0  0  0  0  0  0  0  0
  130.5295  123.5643   60.0532 H   0  0  0  0  0  0  0  0  0  0  0  0
  133.0685  122.5332   59.2857 H   0  0  0  0  0  0  0  0  0  0  0  0
  133.1904  122.9598   61.0475 H   0  0  0  0  0  0  0  0  0  0  0  0
  129.8064  122.3802   60.3908 H   0  0  0  0  0  0  0  0  0  0  0  0
  128.5654  120.2988   60.9885 H   0  0  0  0  0  0  0  0  0  0  0  0
  129.8237  118.2162   61.5224 H   0  0  0  0  0  0  0  0  0  0  0  0
  132.3145  118.1971   61.4611 H   0  0  0  0  0  0  0  0  0  0  0  0
  133.5576  120.2741   60.8594 H   0  0  0  0  0  0  0  0  0  0  0  0
  129.7005  127.3413   59.8526 H   0  0  0  0  0  0  0  0  0  0  0  0
  130.8381  127.6529   58.4885 H   0  0  0  0  0  0  0  0  0  0  0  0
  128.1804  129.1269   58.9556 H   0  0  0  0  0  0  0  0  0  0  0  0
  129.8200  129.7680   59.3501 H   0  0  0  0  0  0  0  0  0  0  0  0
  1  2  1  0
  2  3  2  0
  3  4  1  0
  4  5  2  0
  5  6  1  0
  6  7  2  0
  7  8  1  0
  8  9  1  0
  9 10  2  0
 10 11  1  0
 11 12  2  0
 12 13  1  0
 13 14  1  0
 14 15  1  0
 15 16  1  0
 16 17  2  0
 17 18  1  0
 18 19  2  0
 19 20  1  0
 20 21  2  0
  8 22  1  0
 22 23  1  0
 23 24  1  0
 24 25  1  0
 25 26  1  0
 26 27  1  0
 27 28  2  0
 28 29  1  0
 29 30  2  0
 30 31  1  0
 31 32  2  0
 32 33  1  0
 26 34  1  0
 34 35  2  0
 35 36  1  0
 36 37  2  0
 37 38  1  0
 38 39  1  0
 39 40  1  0
 40 41  1  0
 41 42  2  0
 42 43  1  0
 43 44  2  0
 44 45  1  0
 45 46  2  0
 25 47  1  0
 47 48  1  0
  7  2  1  0
 13  9  1  0
 21 16  1  0
 48 22  1  0
 32 27  1  0
 38 34  1  0
 46 41  1  0
  3 49  1  0
  4 50  1  0
  5 51  1  0
  6 52  1  0
  8 53  1  6
 14 54  1  0
 14 55  1  0
 15 56  1  0
 15 57  1  0
 17 58  1  0
 18 59  1  0
 19 60  1  0
 20 61  1  0
 21 62  1  0
 23 63  1  0
 23 64  1  0
 24 65  1  0
 24 66  1  0
 26 67  1  1
 28 68  1  0
 29 69  1  0
 30 70  1  0
 31 71  1  0
 39 72  1  0
 39 73  1  0
 40 74  1  0
 40 75  1  0
 42 76  1  0
 43 77  1  0
 44 78  1  0
 45 79  1  0
 46 80  1  0
 47 81  1  0
 47 82  1  0
 48 83  1  0
 48 84  1  0
M  END
>  <Binding energies>  (1) 
[-13.38]

>  <Ligand effiencies>  (1) 
[-0.27875]

>  <Interactions>  (1) 
["V-B:PRO:540:CD:9859, V-A:PRO:482:CB:4326, V-B:ILE:538:CB:9834, V-B:ALA:541:CB:9864, V-B:TYR:539:CE2:9848, V-B:TYR:539:CD2:9846, V-B:PRO:540:N:9856, V-B:TYR:539:C:9839, V-B:PRO:540:CA:9855, V-B:TYR:539:CZ:9849, V-A:PRO:482:CG:4327, V-A:LEU:475:CD1:4258, V-A:PRO:540:N:4884, V-A:ASP:366:CB:3212, V-A:TYR:539:C:4867, V-A:TYR:531:CE2:4793, V-A:TYR:531:CZ:4794, V-A:ASP:366:CG:3213, V-A:LEU:363:CD1:3189, V-A:TYR:539:CE2:4876, V-A:PRO:540:C:4881, H-A:TYR:531:OH:4795, V-A:PRO:540:CB:4885, V-A:PRO:540:CA:4883, V-A:TYR:539:CD2:4874, V-B:ILE:538:CG2:9835, V-B:TYR:539:CA:9841, V-B:TYR:539:CG:9844, H-B:TYR:539:OH:9850, V-A:TRP:381:CZ2:3370, V-A:TRP:381:CH2:3372, V-A:ASN:362:C:3172, V-A:ASN:362:CB:3176, V-A:TYR:539:CZ:4877, H-A:TYR:539:N:4870, V-A:LEU:363:CA:3185, V-B:ILE:538:CA:9832, V-B:ILE:538:C:9830, V-B:TYR:539:CE1:9847, V-B:TYR:539:CD1:9845, V-A:ASN:362:CA:3174, V-A:LEU:363:CB:3187"]

$$$$
RR14_Rahimova_2017
     RDKit          3D

 76 80  0  0  0  0  0  0  0  0999 V2000
  128.8040  125.9050   70.1710 C   0  0  0  0  0  0  0  0  0  0  0  0
  127.5990  125.9420   69.4150 O   0  0  0  0  0  0  0  0  0  0  0  0
  127.4720  126.8680   68.3970 C   0  0  0  0  0  0  0  0  0  0  0  0
  128.6400  127.5170   67.9960 C   0  0  0  0  0  0  0  0  0  0  0  0
  128.6060  128.4830   66.9950 C   0  0  0  0  0  0  0  0  0  0  0  0
  127.3940  128.8150   66.3860 C   0  0  0  0  0  0  0  0  0  0  0  0
  127.3420  129.9190   65.3370 C   0  0  0  0  0  0  0  0  0  0  0  0
  126.0880  129.9430   64.5840 N   0  0  0  0  0  0  0  0  0  0  0  0
  125.0150  130.5710   65.0780 N   0  0  0  0  0  0  0  0  0  0  0  0
  124.0250  130.3680   64.1360 N   0  0  0  0  0  0  0  0  0  0  0  0
  124.5180  129.6070   63.0810 N   0  0  0  0  0  0  0  0  0  0  0  0
  125.7710  129.3550   63.3780 C   0  0  0  0  0  0  0  0  0  0  0  0
  126.7240  128.5260   62.5290 C   0  0  0  0  0  0  0  0  0  0  0  0
  128.1100  129.0190   62.5940 N   0  0  0  0  0  0  0  0  0  0  0  0
  129.0720  127.9280   62.7960 C   0  0  0  0  0  0  0  0  0  0  0  0
  128.5750  126.5660   62.2640 C   0  0  0  0  0  0  0  0  0  0  0  0
  129.4930  125.9490   61.1870 C   0  0  0  0  0  0  0  0  0  0  0  0
  129.0480  124.6270   60.7340 N   0  0  0  0  0  0  0  0  0  0  0  0
  127.5920  124.6160   60.5440 C   0  0  0  0  0  0  0  0  0  0  0  0
  127.0840  123.2230   60.1160 C   0  0  0  0  0  0  0  0  0  0  0  0
  127.5140  122.2380   61.0490 O   0  0  0  0  0  0  0  0  0  0  0  0
  128.9320  122.1720   61.1490 C   0  0  0  0  0  0  0  0  0  0  0  0
  129.4960  123.5330   61.6090 C   0  0  0  0  0  0  0  0  0  0  0  0
  128.4350  129.7750   61.3760 C   0  0  0  0  0  0  0  0  0  0  0  0
  127.8140  131.1650   61.2620 C   0  0  0  0  0  0  0  0  0  0  0  0
  126.4690  131.3310   61.2510 C   0  0  0  0  0  0  0  0  0  0  0  0
  125.8420  132.6610   61.1020 C   0  0  0  0  0  0  0  0  0  0  0  0
  124.4530  132.8720   61.1070 C   0  0  0  0  0  0  0  0  0  0  0  0
  123.4710  131.7190   61.2700 C   0  0  0  0  0  0  0  0  0  0  0  0
  123.9630  134.1720   60.9610 C   0  0  0  0  0  0  0  0  0  0  0  0
  124.8350  135.2490   60.8130 C   0  0  0  0  0  0  0  0  0  0  0  0
  126.2180  135.0500   60.8100 C   0  0  0  0  0  0  0  0  0  0  0  0
  127.1450  136.2480   60.6480 C   0  0  0  0  0  0  0  0  0  0  0  0
  126.7220  133.7480   60.9550 C   0  0  0  0  0  0  0  0  0  0  0  0
  128.1110  133.4990   60.9550 N   0  0  0  0  0  0  0  0  0  0  0  0
  128.7290  132.2980   61.0880 C   0  0  0  0  0  0  0  0  0  0  0  0
  129.9570  132.2220   61.0540 O   0  0  0  0  0  0  0  0  0  0  0  0
  126.2240  128.1510   66.7600 C   0  0  0  0  0  0  0  0  0  0  0  0
  126.2600  127.1860   67.7620 C   0  0  0  0  0  0  0  0  0  0  0  0
  128.5638  125.9124   71.2444 H   0  0  0  0  0  0  0  0  0  0  0  0
  129.3623  124.9893   69.9265 H   0  0  0  0  0  0  0  0  0  0  0  0
  129.4174  126.7847   69.9265 H   0  0  0  0  0  0  0  0  0  0  0  0
  129.5967  127.2627   68.4756 H   0  0  0  0  0  0  0  0  0  0  0  0
  129.5338  128.9851   66.6834 H   0  0  0  0  0  0  0  0  0  0  0  0
  127.4638  130.8879   65.8434 H   0  0  0  0  0  0  0  0  0  0  0  0
  128.1505  129.7230   64.6173 H   0  0  0  0  0  0  0  0  0  0  0  0
  126.7021  127.4862   62.8871 H   0  0  0  0  0  0  0  0  0  0  0  0
  126.3912  128.6002   61.4832 H   0  0  0  0  0  0  0  0  0  0  0  0
  130.0061  128.1859   62.2755 H   0  0  0  0  0  0  0  0  0  0  0  0
  129.2171  127.8196   63.8810 H   0  0  0  0  0  0  0  0  0  0  0  0
  128.5114  125.8651   63.1094 H   0  0  0  0  0  0  0  0  0  0  0  0
  127.5976  126.7424   61.7912 H   0  0  0  0  0  0  0  0  0  0  0  0
  129.5175  126.6253   60.3198 H   0  0  0  0  0  0  0  0  0  0  0  0
  130.4869  125.8207   61.6405 H   0  0  0  0  0  0  0  0  0  0  0  0
  127.1067  124.8975   61.4902 H   0  0  0  0  0  0  0  0  0  0  0  0
  127.3443  125.3319   59.7464 H   0  0  0  0  0  0  0  0  0  0  0  0
  125.9847  123.2325   60.0776 H   0  0  0  0  0  0  0  0  0  0  0  0
  127.4909  122.9806   59.1232 H   0  0  0  0  0  0  0  0  0  0  0  0
  129.2094  121.3977   61.8795 H   0  0  0  0  0  0  0  0  0  0  0  0
  129.3510  121.9239   60.1626 H   0  0  0  0  0  0  0  0  0  0  0  0
  129.1536  123.7332   62.6350 H   0  0  0  0  0  0  0  0  0  0  0  0
  130.5940  123.4838   61.5645 H   0  0  0  0  0  0  0  0  0  0  0  0
  129.5281  129.8909   61.3341 H   0  0  0  0  0  0  0  0  0  0  0  0
  128.0103  129.1928   60.5449 H   0  0  0  0  0  0  0  0  0  0  0  0
  125.8229  130.4470   61.3564 H   0  0  0  0  0  0  0  0  0  0  0  0
  123.3066  131.5259   62.3404 H   0  0  0  0  0  0  0  0  0  0  0  0
  122.5149  131.9816   60.7937 H   0  0  0  0  0  0  0  0  0  0  0  0
  123.8824  130.8169   60.7937 H   0  0  0  0  0  0  0  0  0  0  0  0
  122.8771  134.3475   60.9629 H   0  0  0  0  0  0  0  0  0  0  0  0
  124.4306  136.2654   60.6974 H   0  0  0  0  0  0  0  0  0  0  0  0
  127.4356  136.6236   61.6402 H   0  0  0  0  0  0  0  0  0  0  0  0
  128.0447  135.9431   60.0934 H   0  0  0  0  0  0  0  0  0  0  0  0
  126.6241  137.0424   60.0934 H   0  0  0  0  0  0  0  0  0  0  0  0
  128.7360  134.2810   60.8380 H   0  0  0  0  0  0  0  0  0  0  0  0
  125.2729  128.3909   66.2621 H   0  0  0  0  0  0  0  0  0  0  0  0
  125.3349  126.6697   68.0582 H   0  0  0  0  0  0  0  0  0  0  0  0
  1  2  1  0
  2  3  1  0
  3  4  2  0
  4  5  1  0
  5  6  2  0
  6  7  1  0
  7  8  1  0
  8  9  1  0
  9 10  2  0
 10 11  1  0
 11 12  2  0
 12 13  1  0
 13 14  1  0
 14 15  1  0
 15 16  1  0
 16 17  1  0
 17 18  1  0
 18 19  1  0
 19 20  1  0
 20 21  1  0
 21 22  1  0
 22 23  1  0
 14 24  1  0
 24 25  1  0
 25 26  2  0
 26 27  1  0
 27 28  2  0
 28 29  1  0
 28 30  1  0
 30 31  2  0
 31 32  1  0
 32 33  1  0
 32 34  2  0
 34 35  1  0
 35 36  1  0
 36 37  2  0
  6 38  1  0
 38 39  2  0
 39  3  1  0
 12  8  1  0
 23 18  1  0
 36 25  1  0
 34 27  1  0
  1 40  1  0
  1 41  1  0
  1 42  1  0
  4 43  1  0
  5 44  1  0
  7 45  1  0
  7 46  1  0
 13 47  1  0
 13 48  1  0
 15 49  1  0
 15 50  1  0
 16 51  1  0
 16 52  1  0
 17 53  1  0
 17 54  1  0
 19 55  1  0
 19 56  1  0
 20 57  1  0
 20 58  1  0
 22 59  1  0
 22 60  1  0
 23 61  1  0
 23 62  1  0
 24 63  1  0
 24 64  1  0
 26 65  1  0
 29 66  1  0
 29 67  1  0
 29 68  1  0
 30 69  1  0
 31 70  1  0
 33 71  1  0
 33 72  1  0
 33 73  1  0
 35 74  1  0
 38 75  1  0
 39 76  1  0
M  END
>  <Binding energies>  (1) 
[-8.99]

>  <Ligand effiencies>  (1) 
[-0.22475]

>  <Interactions>  (1) 
["V-B:GLU:543:CD:9880, V-B:ALA:541:CB:9864, H-B:ALA:541:N:9863, V-B:PRO:540:CA:9855, V-B:PRO:482:CB:9297, V-A:GLU:543:CD:4908, V-A:TYR:539:CE2:4876, V-B:PRO:482:CG:9298, V-A:TYR:539:CD2:4874, V-B:LEU:475:CD1:9229, V-A:ALA:541:CB:4892, H-A:ALA:541:N:4891, V-B:GLU:543:CB:9878, V-B:HIS:456:CE1:9040, V-B:ARG:545:CG:9894, H-B:TYR:484:OH:9319, V-A:GLU:543:CB:4906, H-B:GLY:454:N:9021, V-B:ILE:369:CD1:8210, V-B:ILE:369:CG2:8208, V-B:ARG:545:CZ:9898, H-B:ARG:545:NH2:9900, V-B:TRP:381:CH2:8343, V-B:TRP:381:CZ2:8341, H-A:TYR:539:O:4868, V-B:TRP:381:CZ3:8342"]

$$$$
RR15_Rahimova_2017
     RDKit          3D

 85 89  0  0  0  0  0  0  0  0999 V2000
  130.2300  125.5400   74.5170 C   0  0  0  0  0  0  0  0  0  0  0  0
  129.0280  125.5090   73.7550 O   0  0  0  0  0  0  0  0  0  0  0  0
  129.0620  125.8520   72.4140 C   0  0  0  0  0  0  0  0  0  0  0  0
  128.8360  127.1530   71.9390 C   0  0  0  0  0  0  0  0  0  0  0  0
  128.8830  127.4300   70.5750 C   0  0  0  0  0  0  0  0  0  0  0  0
  129.1530  126.4180   69.6470 C   0  0  0  0  0  0  0  0  0  0  0  0
  129.1970  126.7170   68.1740 C   0  0  0  0  0  0  0  0  0  0  0  0
  129.4220  127.9300   67.6910 N   0  0  0  0  0  0  0  0  0  0  0  0
  129.3780  127.8090   66.3170 N   0  0  0  0  0  0  0  0  0  0  0  0
  129.1670  126.5060   66.1240 N   0  0  0  0  0  0  0  0  0  0  0  0
  128.8890  125.9550   64.7990 C   0  0  0  0  0  0  0  0  0  0  0  0
  129.3130  124.4780   64.6080 C   0  0  0  0  0  0  0  0  0  0  0  0
  129.4750  123.7830   65.6140 O   0  0  0  0  0  0  0  0  0  0  0  0
  129.4650  123.9740   63.3440 N   0  0  0  0  0  0  0  0  0  0  0  0
  130.3040  122.7870   63.0870 C   0  0  0  0  0  0  0  0  0  0  0  0
  131.8180  123.0930   63.0710 C   0  0  0  0  0  0  0  0  0  0  0  0
  132.5980  122.4460   61.9020 C   0  0  0  0  0  0  0  0  0  0  0  0
  132.8530  123.3610   60.7850 N   0  0  0  0  0  0  0  0  0  0  0  0
  134.0790  123.0460   60.0360 C   0  0  0  0  0  0  0  0  0  0  0  0
  134.2560  123.9840   58.8220 C   0  0  0  0  0  0  0  0  0  0  0  0
  133.0960  123.9450   57.9980 O   0  0  0  0  0  0  0  0  0  0  0  0
  131.9220  124.3500   58.6950 C   0  0  0  0  0  0  0  0  0  0  0  0
  131.6800  123.4200   59.9030 C   0  0  0  0  0  0  0  0  0  0  0  0
  128.6650  124.4410   62.1710 C   0  0  2  0  0  0  0  0  0  0  0  0
  128.1040  123.2870   61.2820 C   0  0  0  0  0  0  0  0  0  0  0  0
  127.2560  122.5070   61.7140 O   0  0  0  0  0  0  0  0  0  0  0  0
  128.5790  123.2380   60.0250 N   0  0  0  0  0  0  0  0  0  0  0  0
  128.1280  122.3170   58.9880 C   0  0  0  0  0  0  0  0  0  0  0  0
  127.6540  123.0770   57.7360 C   0  0  2  0  0  0  0  0  0  0  0  0
  126.4760  124.0420   57.9560 C   0  0  0  0  0  0  0  0  0  0  0  0
  125.2710  123.2940   57.4380 C   0  0  0  0  0  0  0  0  0  0  0  0
  125.8810  122.4990   56.2960 C   0  0  0  0  0  0  0  0  0  0  0  0
  127.1290  122.0850   56.8420 O   0  0  0  0  0  0  0  0  0  0  0  0
  129.3690  125.5930   61.4640 C   0  0  0  0  0  0  0  0  0  0  0  0
  128.6850  126.2530   60.4350 C   0  0  0  0  0  0  0  0  0  0  0  0
  129.2790  127.3110   59.7540 C   0  0  0  0  0  0  0  0  0  0  0  0
  130.5650  127.7200   60.0980 C   0  0  0  0  0  0  0  0  0  0  0  0
  131.1420  128.7480   59.4370 F   0  0  0  0  0  0  0  0  0  0  0  0
  131.2600  127.0770   61.1190 C   0  0  0  0  0  0  0  0  0  0  0  0
  130.6650  126.0170   61.7990 C   0  0  0  0  0  0  0  0  0  0  0  0
  129.0080  125.7960   67.2470 N   0  0  0  0  0  0  0  0  0  0  0  0
  129.3800  125.1210   70.1250 C   0  0  0  0  0  0  0  0  0  0  0  0
  129.3400  124.8260   71.4990 C   0  0  0  0  0  0  0  0  0  0  0  0
  129.5610  123.5630   72.0190 O   0  0  0  0  0  0  0  0  0  0  0  0
  130.8800  123.0290   72.0340 C   0  0  0  0  0  0  0  0  0  0  0  0
  129.9846  125.5337   75.5893 H   0  0  0  0  0  0  0  0  0  0  0  0
  130.8402  124.6573   74.2753 H   0  0  0  0  0  0  0  0  0  0  0  0
  130.7939  126.4530   74.2753 H   0  0  0  0  0  0  0  0  0  0  0  0
  128.6194  127.9625   72.6516 H   0  0  0  0  0  0  0  0  0  0  0  0
  128.7057  128.4569   70.2228 H   0  0  0  0  0  0  0  0  0  0  0  0
  127.8062  126.0262   64.6191 H   0  0  0  0  0  0  0  0  0  0  0  0
  129.4868  126.5433   64.0873 H   0  0  0  0  0  0  0  0  0  0  0  0
  130.1073  122.0447   63.8746 H   0  0  0  0  0  0  0  0  0  0  0  0
  130.0391  122.4146   62.0864 H   0  0  0  0  0  0  0  0  0  0  0  0
  131.9461  124.1836   63.0058 H   0  0  0  0  0  0  0  0  0  0  0  0
  132.2309  122.6621   63.9950 H   0  0  0  0  0  0  0  0  0  0  0  0
  133.5650  122.0885   62.2856 H   0  0  0  0  0  0  0  0  0  0  0  0
  131.9730  121.6292   61.5119 H   0  0  0  0  0  0  0  0  0  0  0  0
  134.9454  123.1587   60.7044 H   0  0  0  0  0  0  0  0  0  0  0  0
  134.0022  122.0129   59.6662 H   0  0  0  0  0  0  0  0  0  0  0  0
  134.4147  125.0127   59.1777 H   0  0  0  0  0  0  0  0  0  0  0  0
  135.1248  123.6516   58.2350 H   0  0  0  0  0  0  0  0  0  0  0  0
  132.0471  125.3836   59.0499 H   0  0  0  0  0  0  0  0  0  0  0  0
  131.0593  124.2917   58.0150 H   0  0  0  0  0  0  0  0  0  0  0  0
  130.8207  123.7970   60.4770 H   0  0  0  0  0  0  0  0  0  0  0  0
  131.4849  122.4065   59.5226 H   0  0  0  0  0  0  0  0  0  0  0  0
  127.7242  124.8773   62.5377 H   0  0  0  0  0  0  0  0  0  0  0  0
  129.2530  123.9330   59.7380 H   0  0  0  0  0  0  0  0  0  0  0  0
  128.9602  121.6531   58.7111 H   0  0  0  0  0  0  0  0  0  0  0  0
  127.2823  121.7349   59.3830 H   0  0  0  0  0  0  0  0  0  0  0  0
  128.5176  123.6619   57.3866 H   0  0  0  0  0  0  0  0  0  0  0  0
  126.3589  124.2750   59.0246 H   0  0  0  0  0  0  0  0  0  0  0  0
  126.6227  125.0041   57.4432 H   0  0  0  0  0  0  0  0  0  0  0  0
  124.8466  122.6323   58.2075 H   0  0  0  0  0  0  0  0  0  0  0  0
  124.4337  123.9416   57.1387 H   0  0  0  0  0  0  0  0  0  0  0  0
  125.2544  121.6334   56.0348 H   0  0  0  0  0  0  0  0  0  0  0  0
  125.9791  123.0747   55.3638 H   0  0  0  0  0  0  0  0  0  0  0  0
  127.6688  125.9318   60.1628 H   0  0  0  0  0  0  0  0  0  0  0  0
  128.7346  127.8227   58.9466 H   0  0  0  0  0  0  0  0  0  0  0  0
  132.2751  127.4049   61.3875 H   0  0  0  0  0  0  0  0  0  0  0  0
  131.2146  125.5081   62.6046 H   0  0  0  0  0  0  0  0  0  0  0  0
  129.5946  124.3144   69.4085 H   0  0  0  0  0  0  0  0  0  0  0  0
  131.2097  122.8955   73.0749 H   0  0  0  0  0  0  0  0  0  0  0  0
  130.8879  122.0569   71.5193 H   0  0  0  0  0  0  0  0  0  0  0  0
  131.5620  123.7219   71.5193 H   0  0  0  0  0  0  0  0  0  0  0  0
  1  2  1  0
  2  3  1  0
  3  4  2  0
  4  5  1  0
  5  6  2  0
  6  7  1  0
  7  8  1  0
  8  9  2  0
  9 10  1  0
 10 11  1  0
 11 12  1  0
 12 13  2  0
 12 14  1  0
 14 15  1  0
 15 16  1  0
 16 17  1  0
 17 18  1  0
 18 19  1  0
 19 20  1  0
 20 21  1  0
 21 22  1  0
 22 23  1  0
 14 24  1  0
 24 25  1  0
 25 26  2  0
 25 27  1  0
 27 28  1  0
 28 29  1  0
 29 30  1  0
 30 31  1  0
 31 32  1  0
 32 33  1  0
 24 34  1  0
 34 35  2  0
 35 36  1  0
 36 37  2  0
 37 38  1  0
 37 39  1  0
 39 40  2  0
 10 41  1  0
  6 42  1  0
 42 43  2  0
 43 44  1  0
 44 45  1  0
 43  3  1  0
 41  7  2  0
 23 18  1  0
 33 29  1  0
 40 34  1  0
  1 46  1  0
  1 47  1  0
  1 48  1  0
  4 49  1  0
  5 50  1  0
 11 51  1  0
 11 52  1  0
 15 53  1  0
 15 54  1  0
 16 55  1  0
 16 56  1  0
 17 57  1  0
 17 58  1  0
 19 59  1  0
 19 60  1  0
 20 61  1  0
 20 62  1  0
 22 63  1  0
 22 64  1  0
 23 65  1  0
 23 66  1  0
 24 67  1  1
 27 68  1  0
 28 69  1  0
 28 70  1  0
 29 71  1  6
 30 72  1  0
 30 73  1  0
 31 74  1  0
 31 75  1  0
 32 76  1  0
 32 77  1  0
 35 78  1  0
 36 79  1  0
 39 80  1  0
 40 81  1  0
 42 82  1  0
 45 83  1  0
 45 84  1  0
 45 85  1  0
M  END
>  <Binding energies>  (1) 
[-9.48]

>  <Ligand effiencies>  (1) 
[-0.20608695652173914]

>  <Interactions>  (1) 
["V-B:PRO:540:CD:9859, V-B:GLU:543:CD:9880, V-B:ILE:538:CB:9834, V-B:ALA:541:CB:9864, V-B:TYR:539:CE2:9848, V-B:TYR:539:CD2:9846, H-B:ALA:541:N:9863, V-B:PRO:540:CB:9857, V-B:PRO:540:N:9856, V-B:TYR:539:C:9839, V-B:LEU:363:CD1:8160, V-B:PRO:540:CA:9855, V-B:TYR:539:CZ:9849, V-A:LEU:475:CD1:4258, V-A:ASP:366:CB:3212, V-A:ASP:366:CG:3213, V-B:ILE:538:CG2:9835, H-B:TYR:539:OH:9850, H-B:TYR:539:N:9842, V-B:GLU:543:CB:9878, V-B:HIS:456:CE1:9040, H-B:LYS:547:NZ:9923, V-A:HIS:456:CE1:4069, V-A:HIS:456:CG:4066, V-A:HIS:456:CD2:4068, V-A:HIS:456:CB:4065, H-A:HIS:456:NE2:4070, V-B:GLU:543:CG:9879, V-A:ILE:369:CD1:3239, V-A:ILE:369:CG2:3237, V-A:ILE:369:CB:3236, V-A:TYR:484:CZ:4347, H-A:TYR:484:OH:4348, V-A:ASP:366:CA:3210, V-A:ASP:366:C:3208, V-A:TYR:484:CD2:4344, V-B:ILE:538:CA:9832, V-A:TYR:484:CG:4342, V-A:TYR:484:CE2:4346, V-A:TYR:484:CD1:4343"]

$$$$
RR16_Rahimova_2017
     RDKit          3D

 80 85  0  0  0  0  0  0  0  0999 V2000
  129.6430  124.8110   73.1870 O   0  0  0  0  0  0  0  0  0  0  0  0
  129.0770  126.1630   73.1200 S   0  0  0  0  0  0  0  0  0  0  0  0
  129.7670  127.3000   73.7390 O   0  0  0  0  0  0  0  0  0  0  0  0
  127.4420  126.0880   73.7810 N   0  0  0  0  0  0  0  0  0  0  0  0
  127.0560  126.9090   74.9520 C   0  0  0  0  0  0  0  0  0  0  0  0
  127.3930  128.3960   74.6650 C   0  0  0  0  0  0  0  0  0  0  0  0
  126.8400  129.4480   75.6460 C   0  0  0  0  0  0  0  0  0  0  0  0
  125.4320  129.9540   75.2900 C   0  0  0  0  0  0  0  0  0  0  0  0
  124.3060  128.9040   75.3470 C   0  0  0  0  0  0  0  0  0  0  0  0
  124.5580  127.5600   74.6350 C   0  0  0  0  0  0  0  0  0  0  0  0
  125.5780  126.6110   75.2950 C   0  0  0  0  0  0  0  0  0  0  0  0
  128.8400  126.5400   71.3870 C   0  0  0  0  0  0  0  0  0  0  0  0
  129.5270  127.6030   70.7970 C   0  0  0  0  0  0  0  0  0  0  0  0
  129.2420  127.9620   69.4820 C   0  0  0  0  0  0  0  0  0  0  0  0
  128.2740  127.2570   68.7650 C   0  0  0  0  0  0  0  0  0  0  0  0
  127.8050  127.8050   67.1250 S   0  0  0  0  0  0  0  0  0  0  0  0
  128.3180  129.1700   66.9540 O   0  0  0  0  0  0  0  0  0  0  0  0
  126.3730  127.5260   66.9600 O   0  0  0  0  0  0  0  0  0  0  0  0
  128.7050  126.7320   66.0350 N   0  0  0  0  0  0  0  0  0  0  0  0
  128.5030  127.0110   64.5900 C   0  0  0  0  0  0  0  0  0  0  0  0
  129.0600  125.8560   63.7330 C   0  0  0  0  0  0  0  0  0  0  0  0
  130.5340  125.5380   64.0870 C   0  0  0  0  0  0  0  0  0  0  0  0
  131.0920  124.3630   63.2800 C   0  0  0  0  0  0  0  0  0  0  0  0
  132.4770  124.1540   63.2220 C   0  0  0  0  0  0  0  0  0  0  0  0
  133.0290  123.0910   62.5050 C   0  0  0  0  0  0  0  0  0  0  0  0
  134.3860  122.9000   62.4630 O   0  0  0  0  0  0  0  0  0  0  0  0
  132.1560  122.2220   61.8340 C   0  0  0  0  0  0  0  0  0  0  0  0
  132.4010  121.1080   61.0830 N   0  0  0  0  0  0  0  0  0  0  0  0
  131.1850  120.6050   60.6780 N   0  0  0  0  0  0  0  0  0  0  0  0
  130.2130  121.4200   61.1340 N   0  0  0  0  0  0  0  0  0  0  0  0
  128.8120  121.0790   60.9240 C   0  0  0  0  0  0  0  0  0  0  0  0
  128.0440  122.1750   60.1990 C   0  0  0  0  0  0  0  0  0  0  0  0
  127.5150  123.2540   60.9150 C   0  0  0  0  0  0  0  0  0  0  0  0
  126.8300  124.2710   60.2500 C   0  0  0  0  0  0  0  0  0  0  0  0
  126.6710  124.2160   58.8640 C   0  0  0  0  0  0  0  0  0  0  0  0
  127.1990  123.1440   58.1440 C   0  0  0  0  0  0  0  0  0  0  0  0
  127.0130  123.0780   56.4290 Cl  0  0  0  0  0  0  0  0  0  0  0  0
  127.8810  122.1240   58.8100 C   0  0  0  0  0  0  0  0  0  0  0  0
  130.7590  122.4440   61.8900 C   0  0  0  0  0  0  0  0  0  0  0  0
  130.2060  123.5110   62.6050 C   0  0  0  0  0  0  0  0  0  0  0  0
  130.7500  125.3750   65.6140 C   0  0  0  0  0  0  0  0  0  0  0  0
  130.1300  126.5390   66.4120 C   0  0  0  0  0  0  0  0  0  0  0  0
  127.6180  126.1680   69.3430 C   0  0  0  0  0  0  0  0  0  0  0  0
  127.8990  125.8110   70.6570 C   0  0  0  0  0  0  0  0  0  0  0  0
  126.6900  125.8310   73.1350 H   0  0  0  0  0  0  0  0  0  0  0  0
  127.6293  126.6554   75.8559 H   0  0  0  0  0  0  0  0  0  0  0  0
  128.4888  128.4917   74.6611 H   0  0  0  0  0  0  0  0  0  0  0  0
  126.9007  128.6173   73.7065 H   0  0  0  0  0  0  0  0  0  0  0  0
  126.8032  128.9997   76.6498 H   0  0  0  0  0  0  0  0  0  0  0  0
  127.5133  130.3164   75.5952 H   0  0  0  0  0  0  0  0  0  0  0  0
  125.1762  130.7611   75.9922 H   0  0  0  0  0  0  0  0  0  0  0  0
  125.4875  130.2747   74.2393 H   0  0  0  0  0  0  0  0  0  0  0  0
  124.1112  128.6852   76.4073 H   0  0  0  0  0  0  0  0  0  0  0  0
  123.4660  129.3598   74.8023 H   0  0  0  0  0  0  0  0  0  0  0  0
  123.5969  127.0282   74.5757 H   0  0  0  0  0  0  0  0  0  0  0  0
  124.9955  127.8248   73.6611 H   0  0  0  0  0  0  0  0  0  0  0  0
  125.4581  126.6848   76.3860 H   0  0  0  0  0  0  0  0  0  0  0  0
  125.3653  125.6057   74.9024 H   0  0  0  0  0  0  0  0  0  0  0  0
  130.2891  128.1538   71.3678 H   0  0  0  0  0  0  0  0  0  0  0  0
  129.7781  128.7985   69.0099 H   0  0  0  0  0  0  0  0  0  0  0  0
  127.4272  127.1237   64.3902 H   0  0  0  0  0  0  0  0  0  0  0  0
  129.0366  127.9368   64.3288 H   0  0  0  0  0  0  0  0  0  0  0  0
  128.4500  124.9572   63.9066 H   0  0  0  0  0  0  0  0  0  0  0  0
  129.0197  126.1625   62.6773 H   0  0  0  0  0  0  0  0  0  0  0  0
  131.1235  126.4165   63.7857 H   0  0  0  0  0  0  0  0  0  0  0  0
  133.1460  124.8454   63.7552 H   0  0  0  0  0  0  0  0  0  0  0  0
  134.6470  122.1550   61.9170 H   0  0  0  0  0  0  0  0  0  0  0  0
  128.7598  120.1575   60.3255 H   0  0  0  0  0  0  0  0  0  0  0  0
  128.3497  120.9476   61.9134 H   0  0  0  0  0  0  0  0  0  0  0  0
  127.6397  123.3007   62.0069 H   0  0  0  0  0  0  0  0  0  0  0  0
  126.4149  125.1167   60.8178 H   0  0  0  0  0  0  0  0  0  0  0  0
  126.1297  125.0175   58.3400 H   0  0  0  0  0  0  0  0  0  0  0  0
  128.2918  121.2771   58.2408 H   0  0  0  0  0  0  0  0  0  0  0  0
  129.1188  123.6755   62.6367 H   0  0  0  0  0  0  0  0  0  0  0  0
  130.2846  124.4332   65.9400 H   0  0  0  0  0  0  0  0  0  0  0  0
  131.8332  125.3705   65.8055 H   0  0  0  0  0  0  0  0  0  0  0  0
  130.1922  126.3138   67.4869 H   0  0  0  0  0  0  0  0  0  0  0  0
  130.6851  127.4607   66.1833 H   0  0  0  0  0  0  0  0  0  0  0  0
  126.8816  125.5947   68.7607 H   0  0  0  0  0  0  0  0  0  0  0  0
  127.3820  124.9575   71.1198 H   0  0  0  0  0  0  0  0  0  0  0  0
  1  2  2  0
  2  3  2  0
  2  4  1  0
  4  5  1  0
  5  6  1  0
  6  7  1  0
  7  8  1  0
  8  9  1  0
  9 10  1  0
 10 11  1  0
  2 12  1  0
 12 13  2  0
 13 14  1  0
 14 15  2  0
 15 16  1  0
 16 17  2  0
 16 18  2  0
 16 19  1  0
 19 20  1  0
 20 21  1  0
 21 22  1  0
 22 23  1  0
 23 24  2  0
 24 25  1  0
 25 26  1  0
 25 27  2  0
 27 28  1  0
 28 29  2  0
 29 30  1  0
 30 31  1  0
 31 32  1  0
 32 33  2  0
 33 34  1  0
 34 35  2  0
 35 36  1  0
 36 37  1  0
 36 38  2  0
 30 39  1  0
 39 40  2  0
 22 41  1  0
 41 42  1  0
 15 43  1  0
 43 44  2  0
 11  5  1  0
 44 12  1  0
 42 19  1  0
 40 23  1  0
 39 27  1  0
 38 32  1  0
  4 45  1  0
  5 46  1  0
  6 47  1  0
  6 48  1  0
  7 49  1  0
  7 50  1  0
  8 51  1  0
  8 52  1  0
  9 53  1  0
  9 54  1  0
 10 55  1  0
 10 56  1  0
 11 57  1  0
 11 58  1  0
 13 59  1  0
 14 60  1  0
 20 61  1  0
 20 62  1  0
 21 63  1  0
 21 64  1  0
 22 65  1  0
 24 66  1  0
 26 67  1  0
 31 68  1  0
 31 69  1  0
 33 70  1  0
 34 71  1  0
 35 72  1  0
 38 73  1  0
 40 74  1  0
 41 75  1  0
 41 76  1  0
 42 77  1  0
 42 78  1  0
 43 79  1  0
 44 80  1  0
M  END
>  <Binding energies>  (1) 
[-10.24]

>  <Ligand effiencies>  (1) 
[-0.21333333333333335]

>  <Interactions>  (1) 
["V-B:GLU:543:CD:9880, V-B:ALA:541:CB:9864, V-B:TYR:539:CE2:9848, V-B:TYR:539:CD2:9846, V-B:PRO:540:N:9856, V-B:TYR:539:C:9839, V-B:PRO:540:C:9853, V-B:PRO:540:CA:9855, V-B:ALA:541:CA:9862, V-A:LEU:475:CD1:4258, V-A:GLU:543:CD:4908, V-B:TYR:539:CG:9844, V-B:GLU:543:C:9874, V-B:HIS:456:CB:9036, V-B:HIS:456:CG:9037, V-B:GLY:544:C:9884, V-B:HIS:456:CD2:9039, H-A:LYS:547:NZ:4951, V-B:HIS:456:CE1:9040, V-B:VAL:457:CA:9046, V-B:HIS:456:C:9032, H-B:LYS:547:NZ:9923, V-B:VAL:458:CG2:9058, V-A:HIS:456:CE1:4069, V-B:LYS:471:CE:9191, V-A:HIS:456:CD2:4068, H-A:GLY:454:N:4050, V-B:GLU:543:CG:9879, V-B:GLY:544:CA:9886, V-B:LYS:547:CD:9921, V-B:HIS:456:CA:9034, V-B:VAL:457:C:9044, V-B:LYS:547:CG:9920, H-B:GLY:544:O:9885, V-B:LYS:547:CB:9919"]

$$$$
RR17_Rahimova_2017
     RDKit          3D

 63 66  0  0  0  0  0  0  0  0999 V2000
  130.0660  132.5880   56.9380 C   0  0  0  0  0  0  0  0  0  0  0  0
  129.0280  131.9930   57.8930 C   0  0  0  0  0  0  0  0  0  0  0  0
  129.0900  132.6940   59.1320 O   0  0  0  0  0  0  0  0  0  0  0  0
  127.9160  133.0270   59.7820 C   0  0  0  0  0  0  0  0  0  0  0  0
  126.8160  132.2070   59.5380 C   0  0  0  0  0  0  0  0  0  0  0  0
  125.5910  132.4630   60.1460 C   0  0  0  0  0  0  0  0  0  0  0  0
  125.4410  133.5530   61.0160 C   0  0  0  0  0  0  0  0  0  0  0  0
  124.1080  133.8050   61.6580 C   0  0  0  0  0  0  0  0  0  0  0  0
  123.3590  134.7150   61.2930 O   0  0  0  0  0  0  0  0  0  0  0  0
  123.7060  132.8760   62.8260 C   0  0  0  0  0  0  0  0  0  0  0  0
  123.7190  131.1130   62.3400 S   0  0  0  0  0  0  0  0  0  0  0  0
  124.1970  130.3760   63.8780 C   0  0  0  0  0  0  0  0  0  0  0  0
  123.3740  129.8740   64.7680 N   0  0  0  0  0  0  0  0  0  0  0  0
  124.1350  129.3890   65.8250 N   0  0  0  0  0  0  0  0  0  0  0  0
  125.3910  129.6140   65.5310 C   0  0  0  0  0  0  0  0  0  0  0  0
  126.5670  129.2280   66.4150 C   0  0  0  0  0  0  0  0  0  0  0  0
  126.8160  127.7890   66.4720 N   0  0  0  0  0  0  0  0  0  0  0  0
  127.3990  127.1400   67.5750 C   0  0  0  0  0  0  0  0  0  0  0  0
  128.7110  126.6890   67.4350 C   0  0  0  0  0  0  0  0  0  0  0  0
  129.3470  126.0340   68.4860 C   0  0  0  0  0  0  0  0  0  0  0  0
  128.6760  125.8260   69.6950 C   0  0  0  0  0  0  0  0  0  0  0  0
  129.3860  125.0990   70.8360 C   0  0  0  0  0  0  0  0  0  0  0  0
  128.5740  124.2610   71.4850 F   0  0  0  0  0  0  0  0  0  0  0  0
  130.4170  124.3940   70.3690 F   0  0  0  0  0  0  0  0  0  0  0  0
  129.8430  125.9980   71.7080 F   0  0  0  0  0  0  0  0  0  0  0  0
  127.3630  126.2850   69.8400 C   0  0  0  0  0  0  0  0  0  0  0  0
  126.7280  126.9400   68.7890 C   0  0  0  0  0  0  0  0  0  0  0  0
  125.5010  130.2500   64.3120 N   0  0  0  0  0  0  0  0  0  0  0  0
  126.6740  130.6470   63.6520 C   0  0  0  0  0  0  0  0  0  0  0  0
  127.1710  129.8690   62.6060 C   0  0  0  0  0  0  0  0  0  0  0  0
  128.3370  130.2610   61.9540 C   0  0  0  0  0  0  0  0  0  0  0  0
  129.0080  131.4310   62.3450 C   0  0  0  0  0  0  0  0  0  0  0  0
  130.1680  131.8970   61.7560 O   0  0  0  0  0  0  0  0  0  0  0  0
  130.9820  130.9930   61.0160 C   0  0  0  0  0  0  0  0  0  0  0  0
  128.4960  132.1960   63.3960 C   0  0  0  0  0  0  0  0  0  0  0  0
  127.3310  131.8110   64.0520 C   0  0  0  0  0  0  0  0  0  0  0  0
  126.5490  134.3770   61.2610 C   0  0  0  0  0  0  0  0  0  0  0  0
  127.7740  134.1180   60.6520 C   0  0  0  0  0  0  0  0  0  0  0  0
  130.8759  133.0523   57.5198 H   0  0  0  0  0  0  0  0  0  0  0  0
  130.4806  131.7904   56.3040 H   0  0  0  0  0  0  0  0  0  0  0  0
  129.5873  133.3488   56.3040 H   0  0  0  0  0  0  0  0  0  0  0  0
  128.0228  132.0978   57.4586 H   0  0  0  0  0  0  0  0  0  0  0  0
  129.2382  130.9257   58.0561 H   0  0  0  0  0  0  0  0  0  0  0  0
  126.9172  131.3485   58.8577 H   0  0  0  0  0  0  0  0  0  0  0  0
  124.7331  131.8052   59.9428 H   0  0  0  0  0  0  0  0  0  0  0  0
  124.4152  133.0207   63.6543 H   0  0  0  0  0  0  0  0  0  0  0  0
  122.6807  133.1362   63.1278 H   0  0  0  0  0  0  0  0  0  0  0  0
  127.4699  129.7208   66.0254 H   0  0  0  0  0  0  0  0  0  0  0  0
  126.3184  129.5504   67.4369 H   0  0  0  0  0  0  0  0  0  0  0  0
  126.7550  127.2740   65.6060 H   0  0  0  0  0  0  0  0  0  0  0  0
  129.2468  126.8518   66.4882 H   0  0  0  0  0  0  0  0  0  0  0  0
  130.3810  125.6788   68.3649 H   0  0  0  0  0  0  0  0  0  0  0  0
  126.8297  126.1276   70.7891 H   0  0  0  0  0  0  0  0  0  0  0  0
  125.6964  127.3018   68.9115 H   0  0  0  0  0  0  0  0  0  0  0  0
  126.6456  128.9528   62.2987 H   0  0  0  0  0  0  0  0  0  0  0  0
  128.7344  129.6516   61.1290 H   0  0  0  0  0  0  0  0  0  0  0  0
  131.5523  130.3597   61.7115 H   0  0  0  0  0  0  0  0  0  0  0  0
  130.3438  130.3595   60.3824 H   0  0  0  0  0  0  0  0  0  0  0  0
  131.6787  131.5615   60.3824 H   0  0  0  0  0  0  0  0  0  0  0  0
  129.0192  133.1119   63.7080 H   0  0  0  0  0  0  0  0  0  0  0  0
  126.9319  132.4183   64.8778 H   0  0  0  0  0  0  0  0  0  0  0  0
  126.4494  135.2361   61.9407 H   0  0  0  0  0  0  0  0  0  0  0  0
  128.6348  134.7723   60.8542 H   0  0  0  0  0  0  0  0  0  0  0  0
  1  2  1  0
  2  3  1  0
  3  4  1  0
  4  5  2  0
  5  6  1  0
  6  7  2  0
  7  8  1  0
  8  9  2  0
  8 10  1  0
 10 11  1  0
 11 12  1  0
 12 13  2  0
 13 14  1  0
 14 15  2  0
 15 16  1  0
 16 17  1  0
 17 18  1  0
 18 19  2  0
 19 20  1  0
 20 21  2  0
 21 22  1  0
 22 23  1  0
 22 24  1  0
 22 25  1  0
 21 26  1  0
 26 27  2  0
 15 28  1  0
 28 29  1  0
 29 30  2  0
 30 31  1  0
 31 32  2  0
 32 33  1  0
 33 34  1  0
 32 35  1  0
 35 36  2  0
  7 37  1  0
 37 38  2  0
 38  4  1  0
 28 12  1  0
 36 29  1  0
 27 18  1  0
  1 39  1  0
  1 40  1  0
  1 41  1  0
  2 42  1  0
  2 43  1  0
  5 44  1  0
  6 45  1  0
 10 46  1  0
 10 47  1  0
 16 48  1  0
 16 49  1  0
 17 50  1  0
 19 51  1  0
 20 52  1  0
 26 53  1  0
 27 54  1  0
 30 55  1  0
 31 56  1  0
 34 57  1  0
 34 58  1  0
 34 59  1  0
 35 60  1  0
 36 61  1  0
 37 62  1  0
 38 63  1  0
M  END
>  <Binding energies>  (1) 
[-9.08]

>  <Ligand effiencies>  (1) 
[-0.23282051282051283]

>  <Interactions>  (1) 
["V-B:GLU:543:CD:9880, V-A:PRO:540:N:4884, V-A:TYR:539:C:4867, V-A:TYR:539:CE2:4876, V-A:PRO:540:CA:4883, V-A:TYR:539:CD2:4874, V-B:LEU:475:CD1:9229, V-A:ALA:541:CB:4892, H-A:ALA:541:N:4891, V-B:GLU:543:C:9874, V-B:GLU:543:CB:9878, V-B:GLY:544:C:9884, V-B:ARG:545:CA:9891, V-B:HIS:456:CE1:9040, V-B:ARG:545:CG:9894, V-A:HIS:456:CE1:4069, V-A:HIS:456:CG:4066, V-A:HIS:456:CD2:4068, H-B:GLU:543:OE1:9881, H-B:TYR:484:OH:9319, H-B:ARG:545:NE:9896, H-B:GLY:454:N:9021, V-B:ILE:369:CD1:8210, V-B:ILE:369:CG2:8208, V-B:ARG:545:CZ:9898, V-B:GLY:454:CA:9020, V-A:TYR:484:CE1:4345, H-B:ARG:545:NH2:9900, H-B:ARG:545:NH1:9899, V-A:TYR:484:CZ:4347, V-B:LYS:547:CE:9922, V-B:GLY:544:CA:9886, V-A:TYR:539:CD1:4873, V-A:TYR:539:CZ:4877, V-A:TYR:539:CA:4869, V-B:TYR:484:CZ:9318, V-A:TYR:484:CE2:4346"]

$$$$
RR18_Rahimova_2017
     RDKit          3D

 56 61  0  0  0  0  0  0  0  0999 V2000
  126.3080  127.8680   58.0710 C   0  0  0  0  0  0  0  0  0  0  0  0
  127.1630  128.2180   59.2620 C   0  0  0  0  0  0  0  0  0  0  0  0
  128.1640  127.5600   59.9590 C   0  0  0  0  0  0  0  0  0  0  0  0
  128.5740  128.4170   60.9800 C   0  0  0  0  0  0  0  0  0  0  0  0
  127.8110  129.5680   60.8690 C   0  0  0  0  0  0  0  0  0  0  0  0
  127.7540  130.8790   61.6480 C   0  0  1  0  0  0  0  0  0  0  0  0
  127.4770  132.0910   60.7090 C   0  0  0  0  0  0  0  0  0  0  0  0
  128.4510  132.4760   59.6930 C   0  0  0  0  0  0  0  0  0  0  0  0
  129.2850  133.3620   59.8940 O   0  0  0  0  0  0  0  0  0  0  0  0
  128.3610  131.7700   58.5420 N   0  0  0  0  0  0  0  0  0  0  0  0
  129.1070  131.8710   57.3480 C   0  0  0  0  0  0  0  0  0  0  0  0
  130.3240  132.5700   57.2510 C   0  0  0  0  0  0  0  0  0  0  0  0
  131.0090  132.6370   56.0390 C   0  0  0  0  0  0  0  0  0  0  0  0
  130.4890  132.0160   54.9080 C   0  0  0  0  0  0  0  0  0  0  0  0
  129.2790  131.3300   54.9860 C   0  0  0  0  0  0  0  0  0  0  0  0
  128.5810  131.2530   56.1950 C   0  0  0  0  0  0  0  0  0  0  0  0
  127.2580  130.4930   56.2270 C   0  0  0  0  0  0  0  0  0  0  0  0
  126.2700  132.7090   60.7900 C   0  0  0  0  0  0  0  0  0  0  0  0
  125.3140  132.4280   61.7180 N   0  0  0  0  0  0  0  0  0  0  0  0
  125.5650  131.5800   62.6460 C   0  0  0  0  0  0  0  0  0  0  0  0
  124.4990  131.2300   63.9860 S   0  0  0  0  0  0  0  0  0  0  0  0
  125.6650  130.0570   64.6750 C   0  0  0  0  0  0  0  0  0  0  0  0
  125.5180  129.3150   65.8270 C   0  0  0  0  0  0  0  0  0  0  0  0
  124.3370  129.5010   66.6840 C   0  0  0  0  0  0  0  0  0  0  0  0
  123.3640  130.2400   66.5410 O   0  0  0  0  0  0  0  0  0  0  0  0
  124.4850  128.7010   67.7450 N   0  0  0  0  0  0  0  0  0  0  0  0
  125.6240  127.9570   67.6950 C   0  0  0  0  0  0  0  0  0  0  0  0
  126.0740  127.0190   68.6240 C   0  0  0  0  0  0  0  0  0  0  0  0
  127.2600  126.3370   68.3700 C   0  0  0  0  0  0  0  0  0  0  0  0
  127.9660  126.5940   67.1960 C   0  0  0  0  0  0  0  0  0  0  0  0
  127.4950  127.5400   66.2810 C   0  0  0  0  0  0  0  0  0  0  0  0
  126.3100  128.2570   66.5310 C   0  0  0  0  0  0  0  0  0  0  0  0
  126.8390  130.0210   63.8020 C   0  0  0  0  0  0  0  0  0  0  0  0
  127.8640  129.3710   63.9840 O   0  0  0  0  0  0  0  0  0  0  0  0
  126.6980  130.8350   62.7210 N   0  0  0  0  0  0  0  0  0  0  0  0
  126.9530  129.4380   59.8210 O   0  0  0  0  0  0  0  0  0  0  0  0
  125.3416  127.4724   58.4169 H   0  0  0  0  0  0  0  0  0  0  0  0
  126.1389  128.7693   57.4635 H   0  0  0  0  0  0  0  0  0  0  0  0
  126.8195  127.1069   57.4635 H   0  0  0  0  0  0  0  0  0  0  0  0
  128.5590  126.5554   59.7476 H   0  0  0  0  0  0  0  0  0  0  0  0
  129.3538  128.2173   61.7297 H   0  0  0  0  0  0  0  0  0  0  0  0
  128.7403  131.0084   62.1176 H   0  0  0  0  0  0  0  0  0  0  0  0
  127.6910  131.0160   58.5410 H   0  0  0  0  0  0  0  0  0  0  0  0
  130.7387  133.0682   58.1397 H   0  0  0  0  0  0  0  0  0  0  0  0
  131.9625  133.1819   55.9767 H   0  0  0  0  0  0  0  0  0  0  0  0
  131.0327  132.0666   53.9531 H   0  0  0  0  0  0  0  0  0  0  0  0
  128.8690  130.8445   54.0882 H   0  0  0  0  0  0  0  0  0  0  0  0
  126.9590  130.3212   57.2716 H   0  0  0  0  0  0  0  0  0  0  0  0
  126.4833  131.0838   55.7163 H   0  0  0  0  0  0  0  0  0  0  0  0
  127.3781  129.5262   55.7163 H   0  0  0  0  0  0  0  0  0  0  0  0
  126.0487  133.4939   60.0518 H   0  0  0  0  0  0  0  0  0  0  0  0
  123.8070  128.6440   68.4910 H   0  0  0  0  0  0  0  0  0  0  0  0
  125.5010  126.8217   69.5420 H   0  0  0  0  0  0  0  0  0  0  0  0
  127.6385  125.5987   69.0922 H   0  0  0  0  0  0  0  0  0  0  0  0
  128.8989  126.0494   66.9884 H   0  0  0  0  0  0  0  0  0  0  0  0
  128.0574  127.7263   65.3542 H   0  0  0  0  0  0  0  0  0  0  0  0
  1  2  1  0
  2  3  2  0
  3  4  1  0
  4  5  2  0
  5  6  1  0
  6  7  1  0
  7  8  1  0
  8  9  2  0
  8 10  1  0
 10 11  1  0
 11 12  2  0
 12 13  1  0
 13 14  2  0
 14 15  1  0
 15 16  2  0
 16 17  1  0
  7 18  2  0
 18 19  1  0
 19 20  2  0
 20 21  1  0
 21 22  1  0
 22 23  2  0
 23 24  1  0
 24 25  2  0
 24 26  1  0
 26 27  1  0
 27 28  2  0
 28 29  1  0
 29 30  2  0
 30 31  1  0
 31 32  2  0
 22 33  1  0
 33 34  2  0
 33 35  1  0
  5 36  1  0
 36  2  1  0
 35  6  1  0
 16 11  1  0
 35 20  1  0
 32 23  1  0
 32 27  1  0
  1 37  1  0
  1 38  1  0
  1 39  1  0
  3 40  1  0
  4 41  1  0
  6 42  1  1
 10 43  1  0
 12 44  1  0
 13 45  1  0
 14 46  1  0
 15 47  1  0
 17 48  1  0
 17 49  1  0
 17 50  1  0
 18 51  1  0
 26 52  1  0
 28 53  1  0
 29 54  1  0
 30 55  1  0
 31 56  1  0
M  END
>  <Binding energies>  (1) 
[-9.12]

>  <Ligand effiencies>  (1) 
[-0.24]

>  <Interactions>  (1) 
["V-B:GLU:543:CD:9880, V-A:PRO:540:CD:4887, V-A:PRO:540:N:4884, V-A:TYR:539:C:4867, V-A:TYR:539:CE2:4876, V-A:PRO:540:CB:4885, V-A:PRO:540:CA:4883, H-A:ALA:541:N:4891, V-B:GLU:543:C:9874, V-B:GLU:543:CB:9878, V-B:GLY:544:C:9884, V-B:ARG:545:CA:9891, V-B:HIS:456:CE1:9040, V-B:ARG:545:CG:9894, H-B:TYR:484:OH:9319, H-B:GLY:454:N:9021, V-B:ARG:545:CD:9895, V-B:GLY:454:CA:9020, H-B:ILE:455:N:9026, V-B:ARG:545:CB:9893, V-A:TYR:539:CE1:4875, V-A:TYR:539:CZ:4877, V-B:TYR:484:CZ:9318, H-B:HIS:456:ND1:9038, H-B:ILE:455:O:9024"]

$$$$
RR19_Rahimova_2017
     RDKit          3D

 72 77  0  0  0  0  0  0  0  0999 V2000
  128.8680  125.1770   59.5390 O   0  0  0  0  0  0  0  0  0  0  0  0
  128.4970  125.6210   60.6290 C   0  0  0  0  0  0  0  0  0  0  0  0
  127.7070  126.7080   60.8190 N   0  0  0  0  0  0  0  0  0  0  0  0
  126.9410  127.4680   59.9690 C   0  0  0  0  0  0  0  0  0  0  0  0
  126.5680  127.0800   58.3640 S   0  0  0  0  0  0  0  0  0  0  0  0
  126.5280  128.5940   60.6380 N   0  0  0  0  0  0  0  0  0  0  0  0
  125.6570  129.5870   60.3270 C   0  0  0  0  0  0  0  0  0  0  0  0
  124.8670  129.5960   59.3800 O   0  0  0  0  0  0  0  0  0  0  0  0
  125.7280  130.8070   61.2790 C   0  0  2  0  0  0  0  0  0  0  0  0
  126.9870  131.7030   61.0990 C   0  0  0  0  0  0  0  0  0  0  0  0
  126.7330  133.2000   61.1760 C   0  0  0  0  0  0  0  0  0  0  0  0
  125.4170  133.7100   61.2170 C   0  0  0  0  0  0  0  0  0  0  0  0
  125.2050  135.0740   61.3670 C   0  0  0  0  0  0  0  0  0  0  0  0
  126.2830  135.9410   61.4960 C   0  0  0  0  0  0  0  0  0  0  0  0
  127.5830  135.4500   61.4870 C   0  0  0  0  0  0  0  0  0  0  0  0
  127.8160  134.0900   61.3400 C   0  0  0  0  0  0  0  0  0  0  0  0
  125.5490  130.3960   62.6980 N   0  0  0  0  0  0  0  0  0  0  0  0
  124.3830  130.6360   63.3640 C   0  0  0  0  0  0  0  0  0  0  0  0
  123.3840  131.2150   62.9350 O   0  0  0  0  0  0  0  0  0  0  0  0
  124.5700  130.0500   64.7140 C   0  0  0  0  0  0  0  0  0  0  0  0
  123.7160  130.0010   65.8160 C   0  0  0  0  0  0  0  0  0  0  0  0
  124.1600  129.3650   66.9810 C   0  0  0  0  0  0  0  0  0  0  0  0
  125.4370  128.7910   67.0290 C   0  0  0  0  0  0  0  0  0  0  0  0
  126.2790  128.8490   65.9120 C   0  0  0  0  0  0  0  0  0  0  0  0
  125.8170  129.4890   64.7610 C   0  0  0  0  0  0  0  0  0  0  0  0
  126.4620  129.7010   63.4410 C   0  0  0  0  0  0  0  0  0  0  0  0
  127.5800  129.3210   63.0910 O   0  0  0  0  0  0  0  0  0  0  0  0
  128.9540  124.9230   61.9380 C   0  0  2  0  0  0  0  0  0  0  0  0
  129.8880  125.7950   62.8250 C   0  0  0  0  0  0  0  0  0  0  0  0
  129.5820  125.7130   64.3090 C   0  0  0  0  0  0  0  0  0  0  0  0
  129.9390  124.5610   65.0430 C   0  0  0  0  0  0  0  0  0  0  0  0
  129.7510  124.5290   66.4190 C   0  0  0  0  0  0  0  0  0  0  0  0
  129.2370  125.6360   67.0820 C   0  0  0  0  0  0  0  0  0  0  0  0
  128.9170  126.7910   66.3780 C   0  0  0  0  0  0  0  0  0  0  0  0
  129.0970  126.8430   65.0020 C   0  0  0  0  0  0  0  0  0  0  0  0
  129.5260  123.5640   61.7140 N   0  0  0  0  0  0  0  0  0  0  0  0
  128.7330  122.4850   61.4620 C   0  0  0  0  0  0  0  0  0  0  0  0
  127.5030  122.4600   61.4020 O   0  0  0  0  0  0  0  0  0  0  0  0
  129.6660  121.3470   61.2740 C   0  0  0  0  0  0  0  0  0  0  0  0
  129.4230  120.0000   60.9990 C   0  0  0  0  0  0  0  0  0  0  0  0
  130.5140  119.1350   60.8690 C   0  0  0  0  0  0  0  0  0  0  0  0
  131.8210  119.6200   61.0100 C   0  0  0  0  0  0  0  0  0  0  0  0
  132.0450  120.9740   61.2840 C   0  0  0  0  0  0  0  0  0  0  0  0
  130.9420  121.8200   61.4120 C   0  0  0  0  0  0  0  0  0  0  0  0
  130.8610  123.2740   61.6920 C   0  0  0  0  0  0  0  0  0  0  0  0
  131.7980  124.0540   61.8660 O   0  0  0  0  0  0  0  0  0  0  0  0
  127.5840  126.9480   61.7920 H   0  0  0  0  0  0  0  0  0  0  0  0
  127.0410  128.7680   61.4900 H   0  0  0  0  0  0  0  0  0  0  0  0
  124.8833  131.4477   60.9857 H   0  0  0  0  0  0  0  0  0  0  0  0
  127.7078  131.4392   61.8870 H   0  0  0  0  0  0  0  0  0  0  0  0
  127.3571  131.5083   60.0816 H   0  0  0  0  0  0  0  0  0  0  0  0
  124.5595  133.0265   61.1301 H   0  0  0  0  0  0  0  0  0  0  0  0
  124.1789  135.4700   61.3838 H   0  0  0  0  0  0  0  0  0  0  0  0
  126.1066  137.0212   61.6058 H   0  0  0  0  0  0  0  0  0  0  0  0
  128.4308  136.1423   61.5969 H   0  0  0  0  0  0  0  0  0  0  0  0
  128.8464  133.7050   61.3513 H   0  0  0  0  0  0  0  0  0  0  0  0
  122.7142  130.4530   65.7703 H   0  0  0  0  0  0  0  0  0  0  0  0
  123.5037  129.3157   67.8624 H   0  0  0  0  0  0  0  0  0  0  0  0
  125.7795  128.2928   67.9479 H   0  0  0  0  0  0  0  0  0  0  0  0
  127.2828  128.4000   65.9409 H   0  0  0  0  0  0  0  0  0  0  0  0
  128.0234  124.7894   62.5091 H   0  0  0  0  0  0  0  0  0  0  0  0
  130.9247  125.4630   62.6666 H   0  0  0  0  0  0  0  0  0  0  0  0
  129.7279  126.8408   62.5241 H   0  0  0  0  0  0  0  0  0  0  0  0
  130.3658  123.6892   64.5255 H   0  0  0  0  0  0  0  0  0  0  0  0
  130.0104  123.6228   66.9861 H   0  0  0  0  0  0  0  0  0  0  0  0
  129.0823  125.5984   68.1704 H   0  0  0  0  0  0  0  0  0  0  0  0
  128.5199  127.6666   66.9125 H   0  0  0  0  0  0  0  0  0  0  0  0
  128.8614  127.7658   64.4515 H   0  0  0  0  0  0  0  0  0  0  0  0
  128.3944  119.6268   60.8869 H   0  0  0  0  0  0  0  0  0  0  0  0
  130.3454  118.0692   60.6551 H   0  0  0  0  0  0  0  0  0  0  0  0
  132.6743  118.9338   60.9049 H   0  0  0  0  0  0  0  0  0  0  0  0
  133.0678  121.3631   61.3960 H   0  0  0  0  0  0  0  0  0  0  0  0
  1  2  2  0
  2  3  1  0
  3  4  1  0
  4  5  2  0
  4  6  1  0
  6  7  1  0
  7  8  2  0
  7  9  1  0
  9 10  1  0
 10 11  1  0
 11 12  2  0
 12 13  1  0
 13 14  2  0
 14 15  1  0
 15 16  2  0
  9 17  1  0
 17 18  1  0
 18 19  2  0
 18 20  1  0
 20 21  2  0
 21 22  1  0
 22 23  2  0
 23 24  1  0
 24 25  2  0
 25 26  1  0
 26 27  2  0
  2 28  1  0
 28 29  1  0
 29 30  1  0
 30 31  2  0
 31 32  1  0
 32 33  2  0
 33 34  1  0
 34 35  2  0
 28 36  1  0
 36 37  1  0
 37 38  2  0
 37 39  1  0
 39 40  2  0
 40 41  1  0
 41 42  2  0
 42 43  1  0
 43 44  2  0
 44 45  1  0
 45 46  2  0
 16 11  1  0
 26 17  1  0
 35 30  1  0
 45 36  1  0
 25 20  1  0
 44 39  1  0
  3 47  1  0
  6 48  1  0
  9 49  1  6
 10 50  1  0
 10 51  1  0
 12 52  1  0
 13 53  1  0
 14 54  1  0
 15 55  1  0
 16 56  1  0
 21 57  1  0
 22 58  1  0
 23 59  1  0
 24 60  1  0
 28 61  1  1
 29 62  1  0
 29 63  1  0
 31 64  1  0
 32 65  1  0
 33 66  1  0
 34 67  1  0
 35 68  1  0
 40 69  1  0
 41 70  1  0
 42 71  1  0
 43 72  1  0
M  END
>  <Binding energies>  (1) 
[-11.33]

>  <Ligand effiencies>  (1) 
[-0.23604166666666668]

>  <Interactions>  (1) 
["V-A:PRO:482:CB:4326, V-B:GLU:543:CD:9880, V-B:ALA:541:CB:9864, V-B:TYR:539:CD2:9846, H-B:ALA:541:N:9863, V-B:ASP:366:CG:8184, V-A:PRO:482:CG:4327, H-B:GLU:543:OE2:9882, V-B:ALA:541:CA:9862, V-A:LEU:475:CD1:4258, V-B:PRO:482:CB:9297, V-A:GLU:543:CD:4908, V-A:TYR:539:CE2:4876, V-B:PRO:482:CG:9298, V-B:LEU:475:CD1:9229, V-A:ALA:541:CB:4892, V-B:GLU:543:CB:9878, V-B:HIS:456:CE1:9040, V-B:ARG:545:CG:9894, V-A:HIS:456:CE1:4069, H-B:GLU:543:OE1:9881, H-B:GLY:454:N:9021, V-B:GLY:453:C:9013, V-B:ARG:545:CD:9895, V-B:ARG:545:CZ:9898, V-B:GLU:543:CG:9879, V-A:TRP:381:CZ2:3370, V-B:GLY:454:CA:9020, V-A:TYR:484:CE1:4345, V-B:GLU:543:CA:9876, V-A:TRP:381:CH2:3372, V-A:TYR:484:CZ:4347, V-B:TRP:381:CH2:8343, V-B:TRP:381:CZ2:8341, V-B:ILE:455:C:9023, V-B:TRP:381:CZ3:8342"]

$$$$
RR19_Rahimova_2017-again1
     RDKit          3D

 71 76  0  0  0  0  0  0  0  0999 V2000
  128.6160  125.1650   62.6660 O   0  0  0  0  0  0  0  0  0  0  0  0
  128.4860  125.8140   61.6250 C   0  0  0  0  0  0  0  0  0  0  0  0
  128.3110  127.1540   61.5450 N   0  0  0  0  0  0  0  0  0  0  0  0
  128.3660  128.1550   62.4730 C   0  0  0  0  0  0  0  0  0  0  0  0
  128.5680  128.0790   64.1400 S   0  0  0  0  0  0  0  0  0  0  0  0
  128.3010  129.3480   61.7750 N   0  0  0  0  0  0  0  0  0  0  0  0
  128.7350  129.6240   60.5880 C   0  0  0  0  0  0  0  0  0  0  0  0
  129.2480  128.8870   59.7230 O   0  0  0  0  0  0  0  0  0  0  0  0
  128.6170  131.1270   60.1630 C   0  0  2  0  0  0  0  0  0  0  0  0
  127.1290  131.6110   60.1840 C   0  0  0  0  0  0  0  0  0  0  0  0
  126.9410  133.0650   60.6070 C   0  0  0  0  0  0  0  0  0  0  0  0
  125.6620  133.6270   60.6210 C   0  0  0  0  0  0  0  0  0  0  0  0
  125.4870  134.9490   61.0210 C   0  0  0  0  0  0  0  0  0  0  0  0
  126.5930  135.7070   61.4030 C   0  0  0  0  0  0  0  0  0  0  0  0
  127.8730  135.1540   61.3870 C   0  0  0  0  0  0  0  0  0  0  0  0
  128.0470  133.8320   60.9860 C   0  0  0  0  0  0  0  0  0  0  0  0
  129.3630  131.4550   58.9040 N   0  0  0  0  0  0  0  0  0  0  0  0
  128.7150  131.6630   57.7230 C   0  0  0  0  0  0  0  0  0  0  0  0
  127.5020  131.6050   57.5160 O   0  0  0  0  0  0  0  0  0  0  0  0
  129.7810  131.9720   56.7370 C   0  0  0  0  0  0  0  0  0  0  0  0
  129.7090  132.2640   55.3740 C   0  0  0  0  0  0  0  0  0  0  0  0
  130.8970  132.5200   54.6810 C   0  0  0  0  0  0  0  0  0  0  0  0
  132.1280  132.4830   55.3490 C   0  0  0  0  0  0  0  0  0  0  0  0
  132.1790  132.1880   56.7150 C   0  0  0  0  0  0  0  0  0  0  0  0
  130.9830  131.9340   57.3890 C   0  0  0  0  0  0  0  0  0  0  0  0
  130.7210  131.6020   58.8090 C   0  0  0  0  0  0  0  0  0  0  0  0
  131.5510  131.4850   59.7090 O   0  0  0  0  0  0  0  0  0  0  0  0
  128.5150  125.0810   60.2510 C   0  0  2  0  0  0  0  0  0  0  0  0
  127.1520  125.1000   59.5020 C   0  0  0  0  0  0  0  0  0  0  0  0
  127.1620  124.3500   58.1820 C   0  0  0  0  0  0  0  0  0  0  0  0
  128.1280  124.6580   57.2010 C   0  0  0  0  0  0  0  0  0  0  0  0
  128.2000  123.9060   56.0360 C   0  0  0  0  0  0  0  0  0  0  0  0
  127.3400  122.8310   55.8420 C   0  0  0  0  0  0  0  0  0  0  0  0
  126.4090  122.4930   56.8160 C   0  0  0  0  0  0  0  0  0  0  0  0
  126.3220  123.2330   57.9880 C   0  0  0  0  0  0  0  0  0  0  0  0
  129.1060  123.7090   60.3050 N   0  0  0  0  0  0  0  0  0  0  0  0
  130.4260  123.4890   60.0450 C   0  0  0  0  0  0  0  0  0  0  0  0
  131.2610  124.3120   59.6700 O   0  0  0  0  0  0  0  0  0  0  0  0
  130.6470  122.0480   60.3190 C   0  0  0  0  0  0  0  0  0  0  0  0
  131.8030  121.2680   60.2370 C   0  0  0  0  0  0  0  0  0  0  0  0
  131.7230  119.9140   60.5810 C   0  0  0  0  0  0  0  0  0  0  0  0
  130.5040  119.3620   60.9960 C   0  0  0  0  0  0  0  0  0  0  0  0
  129.3560  120.1590   61.0690 C   0  0  0  0  0  0  0  0  0  0  0  0
  129.4570  121.5070   60.7240 C   0  0  0  0  0  0  0  0  0  0  0  0
  128.4440  122.5910   60.7280 C   0  0  0  0  0  0  0  0  0  0  0  0
  127.2600  122.5020   61.0560 O   0  0  0  0  0  0  0  0  0  0  0  0
  128.2010  127.4950   60.6010 H   0  0  0  0  0  0  0  0  0  0  0  0
  129.1382  131.7218   60.9276 H   0  0  0  0  0  0  0  0  0  0  0  0
  126.7148  131.4916   59.1720 H   0  0  0  0  0  0  0  0  0  0  0  0
  126.6117  130.9976   60.9364 H   0  0  0  0  0  0  0  0  0  0  0  0
  124.7933  133.0250   60.3160 H   0  0  0  0  0  0  0  0  0  0  0  0
  124.4809  135.3934   61.0356 H   0  0  0  0  0  0  0  0  0  0  0  0
  126.4546  136.7512   61.7200 H   0  0  0  0  0  0  0  0  0  0  0  0
  128.7405  135.7589   61.6895 H   0  0  0  0  0  0  0  0  0  0  0  0
  129.0546  133.3910   60.9674 H   0  0  0  0  0  0  0  0  0  0  0  0
  128.7391  132.2922   54.8559 H   0  0  0  0  0  0  0  0  0  0  0  0
  130.8645  132.7515   53.6061 H   0  0  0  0  0  0  0  0  0  0  0  0
  133.0575  132.6867   54.7971 H   0  0  0  0  0  0  0  0  0  0  0  0
  133.1412  132.1567   57.2472 H   0  0  0  0  0  0  0  0  0  0  0  0
  129.2076  125.6841   59.6455 H   0  0  0  0  0  0  0  0  0  0  0  0
  126.3928  124.6429   60.1537 H   0  0  0  0  0  0  0  0  0  0  0  0
  126.9320  126.1522   59.2684 H   0  0  0  0  0  0  0  0  0  0  0  0
  128.8246  125.4945   57.3592 H   0  0  0  0  0  0  0  0  0  0  0  0
  128.9403  124.1618   55.2636 H   0  0  0  0  0  0  0  0  0  0  0  0
  127.3971  122.2452   54.9127 H   0  0  0  0  0  0  0  0  0  0  0  0
  125.7380  121.6358   56.6583 H   0  0  0  0  0  0  0  0  0  0  0  0
  125.5978  122.9482   58.7655 H   0  0  0  0  0  0  0  0  0  0  0  0
  132.7559  121.7088   59.9090 H   0  0  0  0  0  0  0  0  0  0  0  0
  132.6206  119.2806   60.5254 H   0  0  0  0  0  0  0  0  0  0  0  0
  130.4490  118.2970   61.2658 H   0  0  0  0  0  0  0  0  0  0  0  0
  128.3949  119.7319   61.3914 H   0  0  0  0  0  0  0  0  0  0  0  0
  1  2  2  0
  2  3  1  0
  3  4  1  0
  4  5  2  0
  4  6  1  0
  6  7  2  0
  7  8  1  0
  7  9  1  0
  9 10  1  0
 10 11  1  0
 11 12  2  0
 12 13  1  0
 13 14  2  0
 14 15  1  0
 15 16  2  0
  9 17  1  0
 17 18  1  0
 18 19  2  0
 18 20  1  0
 20 21  2  0
 21 22  1  0
 22 23  2  0
 23 24  1  0
 24 25  2  0
 25 26  1  0
 26 27  2  0
  2 28  1  0
 28 29  1  0
 29 30  1  0
 30 31  2  0
 31 32  1  0
 32 33  2  0
 33 34  1  0
 34 35  2  0
 28 36  1  0
 36 37  1  0
 37 38  2  0
 37 39  1  0
 39 40  2  0
 40 41  1  0
 41 42  2  0
 42 43  1  0
 43 44  2  0
 44 45  1  0
 45 46  2  0
 16 11  1  0
 26 17  1  0
 35 30  1  0
 45 36  1  0
 25 20  1  0
 44 39  1  0
  3 47  1  0
  9 48  1  1
 10 49  1  0
 10 50  1  0
 12 51  1  0
 13 52  1  0
 14 53  1  0
 15 54  1  0
 16 55  1  0
 21 56  1  0
 22 57  1  0
 23 58  1  0
 24 59  1  0
 28 60  1  6
 29 61  1  0
 29 62  1  0
 31 63  1  0
 32 64  1  0
 33 65  1  0
 34 66  1  0
 35 67  1  0
 40 68  1  0
 41 69  1  0
 42 70  1  0
 43 71  1  0
M  CHG  1   8  -1
M  END
>  <Binding energies>  (1) 
[-10.54]

>  <Ligand effiencies>  (1) 
[-0.22425531914893615]

>  <Interactions>  (1) 
["V-B:PRO:540:CD:9859, V-A:PRO:482:CB:4326, V-B:GLU:543:CD:9880, V-B:ALA:541:CB:9864, V-B:TYR:539:CE2:9848, V-B:TYR:539:CD2:9846, H-B:ALA:541:N:9863, V-B:PRO:540:CB:9857, V-B:PRO:540:N:9856, V-B:TYR:539:C:9839, V-B:PRO:540:C:9853, V-B:PRO:540:CA:9855, V-B:TYR:539:CZ:9849, V-A:PRO:482:CG:4327, V-B:ALA:541:CA:9862, V-A:LEU:475:CD1:4258, V-A:PRO:540:CD:4887, V-A:PRO:540:N:4884, V-A:TYR:539:C:4867, V-A:PRO:540:CG:4886, V-B:PRO:482:CB:9297, V-A:ILE:538:CD1:4865, V-A:ILE:538:CA:4860, V-A:LEU:363:CD1:3189, V-A:GLU:543:CD:4908, V-A:TYR:539:CE2:4876, V-A:PRO:540:C:4881, V-B:PRO:482:CG:9298, V-A:PRO:540:CB:4885, V-A:PRO:540:CA:4883, V-A:TYR:539:CD2:4874, V-A:ILE:538:CG2:4863, V-B:LEU:475:CD1:9229, V-A:ALA:541:CB:4892, V-A:TRP:381:CZ2:3370, V-A:TRP:381:CH2:3372, V-B:TRP:381:CH2:8343, V-A:TYR:539:CE1:4875, V-A:TYR:539:CD1:4873, V-A:TYR:539:CZ:4877, H-A:TYR:539:OH:4878, V-B:TRP:381:CZ2:8341, V-B:ILE:538:CA:9832, V-B:TYR:539:CE1:9847, V-B:TYR:539:CD1:9845, V-A:ALA:541:CA:4890"]

$$$$
RR1_Rahimova_2017
     RDKit          3D

 68 71  0  0  0  0  0  0  0  0999 V2000
  133.8170  123.9170   59.5510 C   0  0  0  0  0  0  0  0  0  0  0  0
  134.1960  123.4550   60.8430 O   0  0  0  0  0  0  0  0  0  0  0  0
  133.4880  123.8840   61.9480 C   0  0  0  0  0  0  0  0  0  0  0  0
  133.4790  123.2260   63.1880 C   0  0  0  0  0  0  0  0  0  0  0  0
  132.7270  123.7300   64.2450 C   0  0  0  0  0  0  0  0  0  0  0  0
  131.9790  124.8970   64.0860 C   0  0  0  0  0  0  0  0  0  0  0  0
  131.2160  125.3010   65.1980 N   0  0  0  0  0  0  0  0  0  0  0  0
  130.2390  124.6360   65.8520 C   0  0  0  0  0  0  0  0  0  0  0  0
  129.7920  123.5390   65.5170 O   0  0  0  0  0  0  0  0  0  0  0  0
  129.6890  125.3620   67.0900 C   0  0  0  0  0  0  0  0  0  0  0  0
  129.9750  127.1670   67.1310 S   0  0  0  0  0  0  0  0  0  0  0  0
  128.3210  127.6790   66.8070 C   0  0  0  0  0  0  0  0  0  0  0  0
  127.9620  128.3980   65.7740 N   0  0  0  0  0  0  0  0  0  0  0  0
  126.6480  128.5340   65.9210 C   0  0  0  0  0  0  0  0  0  0  0  0
  125.8030  129.2910   64.9370 C   0  0  0  0  0  0  0  0  0  0  0  0
  126.2920  129.6470   63.6700 C   0  0  0  0  0  0  0  0  0  0  0  0
  125.4840  130.3530   62.7770 C   0  0  0  0  0  0  0  0  0  0  0  0
  124.1910  130.6890   63.1740 C   0  0  0  0  0  0  0  0  0  0  0  0
  123.6860  130.3610   64.3900 N   0  0  0  0  0  0  0  0  0  0  0  0
  124.4870  129.6740   65.2430 C   0  0  0  0  0  0  0  0  0  0  0  0
  126.1360  127.9550   66.9910 N   0  0  0  0  0  0  0  0  0  0  0  0
  127.2110  127.4050   67.5640 N   0  0  0  0  0  0  0  0  0  0  0  0
  127.0800  126.6260   68.7960 C   0  0  0  0  0  0  0  0  0  0  0  0
  128.3100  126.6600   69.7190 C   0  0  0  0  0  0  0  0  0  0  0  0
  128.8380  127.7330   70.0320 O   0  0  0  0  0  0  0  0  0  0  0  0
  128.7420  125.4540   70.1350 N   0  0  0  0  0  0  0  0  0  0  0  0
  129.7530  125.4120   71.0850 N   0  0  0  0  0  0  0  0  0  0  0  0
  129.8720  124.2920   71.8300 C   0  0  0  0  0  0  0  0  0  0  0  0
  129.2070  123.2660   71.6500 O   0  0  0  0  0  0  0  0  0  0  0  0
  130.9190  124.3410   72.9240 C   0  0  0  0  0  0  0  0  0  0  0  0
  131.7500  123.2370   73.1460 C   0  0  0  0  0  0  0  0  0  0  0  0
  132.7100  123.2560   74.1520 C   0  0  0  0  0  0  0  0  0  0  0  0
  132.8640  124.3820   74.9770 C   0  0  0  0  0  0  0  0  0  0  0  0
  133.7880  124.4600   76.0040 O   0  0  0  0  0  0  0  0  0  0  0  0
  134.9810  123.6870   75.9330 C   0  0  0  0  0  0  0  0  0  0  0  0
  132.0360  125.4950   74.7770 C   0  0  0  0  0  0  0  0  0  0  0  0
  132.2140  126.5710   75.6300 O   0  0  0  0  0  0  0  0  0  0  0  0
  131.8980  126.4350   77.0110 C   0  0  0  0  0  0  0  0  0  0  0  0
  131.0740  125.4660   73.7510 C   0  0  0  0  0  0  0  0  0  0  0  0
  131.9850  125.5580   62.8490 C   0  0  0  0  0  0  0  0  0  0  0  0
  132.7390  125.0520   61.7940 C   0  0  0  0  0  0  0  0  0  0  0  0
  133.1224  124.7637   59.6536 H   0  0  0  0  0  0  0  0  0  0  0  0
  134.7123  124.2418   59.0005 H   0  0  0  0  0  0  0  0  0  0  0  0
  133.3235  123.1025   59.0005 H   0  0  0  0  0  0  0  0  0  0  0  0
  134.0691  122.3078   63.3248 H   0  0  0  0  0  0  0  0  0  0  0  0
  132.7223  123.2051   65.2117 H   0  0  0  0  0  0  0  0  0  0  0  0
  131.4160  126.2360   65.5230 H   0  0  0  0  0  0  0  0  0  0  0  0
  128.6034  125.1893   67.1305 H   0  0  0  0  0  0  0  0  0  0  0  0
  130.2344  124.9488   67.9513 H   0  0  0  0  0  0  0  0  0  0  0  0
  127.3158  129.3685   63.3798 H   0  0  0  0  0  0  0  0  0  0  0  0
  125.8592  130.6376   61.7829 H   0  0  0  0  0  0  0  0  0  0  0  0
  123.5522  131.2441   62.4712 H   0  0  0  0  0  0  0  0  0  0  0  0
  124.0830  129.4019   66.2293 H   0  0  0  0  0  0  0  0  0  0  0  0
  126.2201  127.0186   69.3584 H   0  0  0  0  0  0  0  0  0  0  0  0
  126.9565  125.5778   68.4860 H   0  0  0  0  0  0  0  0  0  0  0  0
  128.2120  124.5950   70.0660 H   0  0  0  0  0  0  0  0  0  0  0  0
  129.9260  126.3250   71.4800 H   0  0  0  0  0  0  0  0  0  0  0  0
  131.6423  122.3418   72.5160 H   0  0  0  0  0  0  0  0  0  0  0  0
  133.3563  122.3788   74.3033 H   0  0  0  0  0  0  0  0  0  0  0  0
  135.3317  123.4597   76.9505 H   0  0  0  0  0  0  0  0  0  0  0  0
  134.7782  122.7482   75.3968 H   0  0  0  0  0  0  0  0  0  0  0  0
  135.7550  124.2557   75.3968 H   0  0  0  0  0  0  0  0  0  0  0  0
  132.7410  126.7978   77.6175 H   0  0  0  0  0  0  0  0  0  0  0  0
  130.9993  127.0260   77.2415 H   0  0  0  0  0  0  0  0  0  0  0  0
  131.7095  125.3761   77.2415 H   0  0  0  0  0  0  0  0  0  0  0  0
  130.4293  126.3431   73.5929 H   0  0  0  0  0  0  0  0  0  0  0  0
  131.3942  126.4758   62.7126 H   0  0  0  0  0  0  0  0  0  0  0  0
  132.7447  125.5783   60.8281 H   0  0  0  0  0  0  0  0  0  0  0  0
  1  2  1  0
  2  3  1  0
  3  4  2  0
  4  5  1  0
  5  6  2  0
  6  7  1  0
  7  8  1  0
  8  9  2  0
  8 10  1  0
 10 11  1  0
 11 12  1  0
 12 13  2  0
 13 14  1  0
 14 15  1  0
 15 16  2  0
 16 17  1  0
 17 18  2  0
 18 19  1  0
 19 20  2  0
 14 21  2  0
 21 22  1  0
 22 23  1  0
 23 24  1  0
 24 25  2  0
 24 26  1  0
 26 27  1  0
 27 28  1  0
 28 29  2  0
 28 30  1  0
 30 31  2  0
 31 32  1  0
 32 33  2  0
 33 34  1  0
 34 35  1  0
 33 36  1  0
 36 37  1  0
 37 38  1  0
 36 39  2  0
  6 40  1  0
 40 41  2  0
 41  3  1  0
 22 12  1  0
 39 30  1  0
 20 15  1  0
  1 42  1  0
  1 43  1  0
  1 44  1  0
  4 45  1  0
  5 46  1  0
  7 47  1  0
 10 48  1  0
 10 49  1  0
 16 50  1  0
 17 51  1  0
 18 52  1  0
 20 53  1  0
 23 54  1  0
 23 55  1  0
 26 56  1  0
 27 57  1  0
 31 58  1  0
 32 59  1  0
 35 60  1  0
 35 61  1  0
 35 62  1  0
 38 63  1  0
 38 64  1  0
 38 65  1  0
 39 66  1  0
 40 67  1  0
 41 68  1  0
M  END
>  <Binding energies>  (1) 
[-9.76]

>  <Ligand effiencies>  (1) 
[-0.2218181818181818]

>  <Interactions>  (1) 
["V-A:ASP:366:CB:3212, V-A:ASP:366:CG:3213, V-B:GLU:543:C:9874, V-B:GLU:543:CB:9878, V-B:GLY:544:C:9884, H-A:LYS:547:NZ:4951, V-B:HIS:456:CE1:9040, H-B:LYS:547:NZ:9923, V-A:HIS:456:CE1:4069, V-A:ASP:473:CG:4240, V-A:HIS:456:CG:4066, V-A:HIS:456:CD2:4068, V-A:ASP:473:CB:4239, V-A:HIS:456:C:4061, V-A:HIS:456:CB:4065, H-B:GLY:454:N:9021, H-B:HIS:456:NE2:9041, H-A:HIS:456:NE2:4070, V-B:ARG:545:CD:9895, V-B:ARG:545:CZ:9898, V-A:TYR:484:CE1:4345, H-B:ARG:545:NH2:9900, V-A:ILE:369:CG2:3237, V-A:TYR:484:CZ:4347, H-A:TYR:484:OH:4348, H-A:GLU:543:OE2:4910, V-A:GLY:454:CA:4049, V-A:ASP:366:CA:3210, V-A:ARG:545:CZ:4926, H-B:GLU:543:O:9875, V-A:LYS:547:CD:4949, V-A:VAL:458:CG2:4087, V-A:LYS:471:CD:4219, H-B:GLY:544:O:9885, V-A:LYS:471:CG:4218, V-A:LYS:471:CB:4217"]

$$$$
RR20_Rahimova_2017
     RDKit          3D

 68 73  0  0  0  0  0  0  0  0999 V2000
  123.5610  130.3920   76.3340 C   0  0  0  0  0  0  0  0  0  0  0  0
  124.5810  129.5270   75.6160 C   0  0  0  0  0  0  0  0  0  0  0  0
  124.1900  128.3100   75.0570 C   0  0  0  0  0  0  0  0  0  0  0  0
  125.1220  127.5200   74.3910 C   0  0  0  0  0  0  0  0  0  0  0  0
  126.4560  127.9330   74.2900 C   0  0  0  0  0  0  0  0  0  0  0  0
  127.4490  127.0690   73.5440 C   0  0  0  0  0  0  0  0  0  0  0  0
  127.5000  125.8730   73.8390 O   0  0  0  0  0  0  0  0  0  0  0  0
  128.2300  127.6310   72.5760 N   0  0  0  0  0  0  0  0  0  0  0  0
  129.5540  128.1970   72.8850 C   0  0  0  0  0  0  0  0  0  0  0  0
  130.1770  128.5810   71.5540 C   0  0  0  0  0  0  0  0  0  0  0  0
  129.3170  127.8590   70.5620 C   0  0  0  0  0  0  0  0  0  0  0  0
  129.4600  127.7670   69.1770 C   0  0  0  0  0  0  0  0  0  0  0  0
  128.4580  127.1800   68.3940 C   0  0  0  0  0  0  0  0  0  0  0  0
  128.6150  127.0720   66.9030 C   0  0  0  0  0  0  0  0  0  0  0  0
  128.3410  128.1350   66.1630 N   0  0  0  0  0  0  0  0  0  0  0  0
  128.5320  127.9350   64.8840 C   0  0  0  0  0  0  0  0  0  0  0  0
  128.3470  128.8310   63.8420 N   0  0  0  0  0  0  0  0  0  0  0  0
  127.3420  128.8280   62.9330 C   0  0  0  0  0  0  0  0  0  0  0  0
  126.4190  128.0110   62.9300 O   0  0  0  0  0  0  0  0  0  0  0  0
  127.3380  129.9320   61.8500 C   0  0  0  0  0  0  0  0  0  0  0  0
  126.1470  130.7990   61.9150 N   0  0  0  0  0  0  0  0  0  0  0  0
  125.5280  130.8040   63.2490 C   0  0  0  0  0  0  0  0  0  0  0  0
  124.1510  131.5030   63.1950 C   0  0  0  0  0  0  0  0  0  0  0  0
  124.1790  132.8190   62.4180 C   0  0  0  0  0  0  0  0  0  0  0  0
  123.1100  133.7190   62.4850 C   0  0  0  0  0  0  0  0  0  0  0  0
  123.1190  134.9000   61.7470 C   0  0  0  0  0  0  0  0  0  0  0  0
  124.2050  135.1970   60.9300 C   0  0  0  0  0  0  0  0  0  0  0  0
  125.2810  134.3140   60.8610 C   0  0  0  0  0  0  0  0  0  0  0  0
  125.2840  133.1240   61.5960 C   0  0  0  0  0  0  0  0  0  0  0  0
  126.4890  132.1830   61.5650 C   0  0  0  0  0  0  0  0  0  0  0  0
  129.0740  126.3520   64.4850 S   0  0  0  0  0  0  0  0  0  0  0  0
  129.0290  125.9320   66.1810 C   0  0  0  0  0  0  0  0  0  0  0  0
  129.3770  124.5310   66.6330 C   0  0  0  0  0  0  0  0  0  0  0  0
  127.2860  126.7390   69.0270 C   0  0  0  0  0  0  0  0  0  0  0  0
  127.1320  126.8470   70.4090 C   0  0  0  0  0  0  0  0  0  0  0  0
  128.1770  127.3580   71.1900 C   0  0  0  0  0  0  0  0  0  0  0  0
  126.8350  129.1690   74.8280 C   0  0  0  0  0  0  0  0  0  0  0  0
  125.9020  129.9610   75.4940 C   0  0  0  0  0  0  0  0  0  0  0  0
  123.6888  130.2837   77.4212 H   0  0  0  0  0  0  0  0  0  0  0  0
  123.7084  131.4446   76.0506 H   0  0  0  0  0  0  0  0  0  0  0  0
  122.5466  130.0746   76.0506 H   0  0  0  0  0  0  0  0  0  0  0  0
  123.1457  127.9752   75.1427 H   0  0  0  0  0  0  0  0  0  0  0  0
  124.8091  126.5660   73.9415 H   0  0  0  0  0  0  0  0  0  0  0  0
  129.4482  129.0848   73.5258 H   0  0  0  0  0  0  0  0  0  0  0  0
  130.1814  127.4726   73.4250 H   0  0  0  0  0  0  0  0  0  0  0  0
  130.1351  129.6689   71.3965 H   0  0  0  0  0  0  0  0  0  0  0  0
  131.2421  128.3161   71.4800 H   0  0  0  0  0  0  0  0  0  0  0  0
  130.3681  128.1591   68.6957 H   0  0  0  0  0  0  0  0  0  0  0  0
  129.0450  129.5560   63.7530 H   0  0  0  0  0  0  0  0  0  0  0  0
  128.2338  130.5565   61.9828 H   0  0  0  0  0  0  0  0  0  0  0  0
  127.3276  129.4317   60.8704 H   0  0  0  0  0  0  0  0  0  0  0  0
  125.3962  129.7673   63.5924 H   0  0  0  0  0  0  0  0  0  0  0  0
  126.1809  131.3500   63.9459 H   0  0  0  0  0  0  0  0  0  0  0  0
  123.4327  130.8252   62.7106 H   0  0  0  0  0  0  0  0  0  0  0  0
  123.8606  131.7380   64.2296 H   0  0  0  0  0  0  0  0  0  0  0  0
  122.2492  133.4903   63.1305 H   0  0  0  0  0  0  0  0  0  0  0  0
  122.2696  135.5961   61.8100 H   0  0  0  0  0  0  0  0  0  0  0  0
  124.2144  136.1256   60.3404 H   0  0  0  0  0  0  0  0  0  0  0  0
  126.1407  134.5565   60.2190 H   0  0  0  0  0  0  0  0  0  0  0  0
  126.9150  132.1928   60.5509 H   0  0  0  0  0  0  0  0  0  0  0  0
  127.2068  132.5439   62.3163 H   0  0  0  0  0  0  0  0  0  0  0  0
  129.3866  124.4922   67.7323 H   0  0  0  0  0  0  0  0  0  0  0  0
  128.6270  123.8245   66.2477 H   0  0  0  0  0  0  0  0  0  0  0  0
  130.3704  124.2575   66.2477 H   0  0  0  0  0  0  0  0  0  0  0  0
  126.4765  126.3015   68.4242 H   0  0  0  0  0  0  0  0  0  0  0  0
  126.1918  126.5316   70.8849 H   0  0  0  0  0  0  0  0  0  0  0  0
  127.8736  129.5161   74.7244 H   0  0  0  0  0  0  0  0  0  0  0  0
  126.2061  130.9271   75.9231 H   0  0  0  0  0  0  0  0  0  0  0  0
  1  2  1  0
  2  3  2  0
  3  4  1  0
  4  5  2  0
  5  6  1  0
  6  7  2  0
  6  8  1  0
  8  9  1  0
  9 10  1  0
 10 11  1  0
 11 12  2  0
 12 13  1  0
 13 14  1  0
 14 15  1  0
 15 16  2  0
 16 17  1  0
 17 18  1  0
 18 19  2  0
 18 20  1  0
 20 21  1  0
 21 22  1  0
 22 23  1  0
 23 24  1  0
 24 25  2  0
 25 26  1  0
 26 27  2  0
 27 28  1  0
 28 29  2  0
 29 30  1  0
 16 31  1  0
 31 32  1  0
 32 33  1  0
 13 34  2  0
 34 35  1  0
 35 36  2  0
  5 37  1  0
 37 38  2  0
 38  2  1  0
 36  8  1  0
 36 11  1  0
 32 14  2  0
 30 21  1  0
 29 24  1  0
  1 39  1  0
  1 40  1  0
  1 41  1  0
  3 42  1  0
  4 43  1  0
  9 44  1  0
  9 45  1  0
 10 46  1  0
 10 47  1  0
 12 48  1  0
 17 49  1  0
 20 50  1  0
 20 51  1  0
 22 52  1  0
 22 53  1  0
 23 54  1  0
 23 55  1  0
 25 56  1  0
 26 57  1  0
 27 58  1  0
 28 59  1  0
 30 60  1  0
 30 61  1  0
 33 62  1  0
 33 63  1  0
 33 64  1  0
 34 65  1  0
 35 66  1  0
 37 67  1  0
 38 68  1  0
M  END
>  <Binding energies>  (1) 
[-10.91]

>  <Ligand effiencies>  (1) 
[-0.27974358974358976]

>  <Interactions>  (1) 
["V-B:GLU:543:CD:9880, V-A:GLU:543:CD:4908, V-A:TYR:539:CE2:4876, V-A:TYR:539:CD2:4874, V-B:LEU:475:CD1:9229, V-B:GLU:543:C:9874, V-B:LYS:471:CG:9189, V-B:GLU:543:CB:9878, V-B:HIS:456:CB:9036, V-B:HIS:456:CG:9037, V-B:GLY:544:C:9884, V-B:HIS:456:CD2:9039, V-B:LYS:471:CD:9190, V-B:HIS:456:CE1:9040, V-B:VAL:457:CA:9046, V-B:HIS:456:C:9032, V-B:LYS:471:C:9184, H-B:LYS:547:NZ:9923, V-B:VAL:458:CG2:9058, V-A:HIS:456:CE1:4069, V-B:LYS:471:CE:9191, V-A:HIS:456:CD2:4068, V-A:LYS:547:CE:4950, V-B:ILE:369:CD1:8210, V-B:ILE:369:CG2:8208, V-B:GLU:543:CG:9879, V-B:GLY:454:CA:9020, V-A:TYR:484:CE1:4345, H-B:ARG:545:NH2:9900, V-B:GLU:543:CA:9876, V-A:TYR:484:CZ:4347, V-B:TRP:381:CH2:8343, H-A:GLU:543:OE2:4910, H-A:GLU:543:OE1:4909, V-B:HIS:456:CA:9034, V-B:VAL:457:C:9044, V-B:TRP:381:CZ2:8341, V-B:SER:385:C:8376"]

$$$$
RR20_Rahimova_2017-again1
     RDKit          3D

 68 73  0  0  0  0  0  0  0  0999 V2000
  123.6970  130.3680   76.3940 C   0  0  0  0  0  0  0  0  0  0  0  0
  124.6300  129.4860   75.5820 C   0  0  0  0  0  0  0  0  0  0  0  0
  124.1460  128.3150   74.9970 C   0  0  0  0  0  0  0  0  0  0  0  0
  124.9980  127.5100   74.2470 C   0  0  0  0  0  0  0  0  0  0  0  0
  126.3430  127.8620   74.0840 C   0  0  0  0  0  0  0  0  0  0  0  0
  127.2490  126.9830   73.2510 C   0  0  0  0  0  0  0  0  0  0  0  0
  127.2080  125.7670   73.4490 O   0  0  0  0  0  0  0  0  0  0  0  0
  128.0470  127.5580   72.3040 N   0  0  0  0  0  0  0  0  0  0  0  0
  129.3140  128.2160   72.6640 C   0  0  0  0  0  0  0  0  0  0  0  0
  129.9880  128.5940   71.3550 C   0  0  0  0  0  0  0  0  0  0  0  0
  129.2290  127.7860   70.3450 C   0  0  0  0  0  0  0  0  0  0  0  0
  129.4520  127.6610   68.9740 C   0  0  0  0  0  0  0  0  0  0  0  0
  128.5300  126.9880   68.1570 C   0  0  0  0  0  0  0  0  0  0  0  0
  128.7660  126.8590   66.6800 C   0  0  0  0  0  0  0  0  0  0  0  0
  128.5360  127.9140   65.9140 N   0  0  0  0  0  0  0  0  0  0  0  0
  128.7600  127.7090   64.6390 C   0  0  0  0  0  0  0  0  0  0  0  0
  128.5830  128.5640   63.5840 N   0  0  0  0  0  0  0  0  0  0  0  0
  129.0760  128.3950   62.4030 C   0  0  0  0  0  0  0  0  0  0  0  0
  129.7250  127.4550   61.9050 O   0  0  0  0  0  0  0  0  0  0  0  0
  128.7970  129.5640   61.4360 C   0  0  0  0  0  0  0  0  0  0  0  0
  129.7850  130.7330   61.7180 N   0  0  2  0  0  0  0  0  0  0  0  0
  129.1150  132.1170   61.5940 C   0  0  0  0  0  0  0  0  0  0  0  0
  128.6870  132.3650   60.1360 C   0  0  0  0  0  0  0  0  0  0  0  0
  129.7940  132.0750   59.1270 C   0  0  0  0  0  0  0  0  0  0  0  0
  129.7260  132.6280   57.8430 C   0  0  0  0  0  0  0  0  0  0  0  0
  130.6920  132.3470   56.8810 C   0  0  0  0  0  0  0  0  0  0  0  0
  131.7510  131.5030   57.1960 C   0  0  0  0  0  0  0  0  0  0  0  0
  131.8400  130.9560   58.4730 C   0  0  0  0  0  0  0  0  0  0  0  0
  130.8830  131.2330   59.4560 C   0  0  0  0  0  0  0  0  0  0  0  0
  131.0690  130.6410   60.8590 C   0  0  0  0  0  0  0  0  0  0  0  0
  129.2740  126.1000   64.2890 S   0  0  0  0  0  0  0  0  0  0  0  0
  129.2170  125.7140   65.9920 C   0  0  0  0  0  0  0  0  0  0  0  0
  129.6360  124.3450   66.4840 C   0  0  0  0  0  0  0  0  0  0  0  0
  127.3600  126.4880   68.7450 C   0  0  0  0  0  0  0  0  0  0  0  0
  127.1250  126.6280   70.1130 C   0  0  0  0  0  0  0  0  0  0  0  0
  128.0900  127.2320   70.9300 C   0  0  0  0  0  0  0  0  0  0  0  0
  126.8130  129.0540   74.6490 C   0  0  0  0  0  0  0  0  0  0  0  0
  125.9610  129.8600   75.3990 C   0  0  0  0  0  0  0  0  0  0  0  0
  123.8746  130.2001   77.4665 H   0  0  0  0  0  0  0  0  0  0  0  0
  123.8874  131.4240   76.1517 H   0  0  0  0  0  0  0  0  0  0  0  0
  122.6534  130.1186   76.1517 H   0  0  0  0  0  0  0  0  0  0  0  0
  123.0921  128.0287   75.1286 H   0  0  0  0  0  0  0  0  0  0  0  0
  124.6124  126.5919   73.7796 H   0  0  0  0  0  0  0  0  0  0  0  0
  129.1179  129.1163   73.2648 H   0  0  0  0  0  0  0  0  0  0  0  0
  129.9525  127.5509   73.2639 H   0  0  0  0  0  0  0  0  0  0  0  0
  129.8897  129.6713   71.1554 H   0  0  0  0  0  0  0  0  0  0  0  0
  131.0697  128.3942   71.3486 H   0  0  0  0  0  0  0  0  0  0  0  0
  130.3596  128.0942   68.5283 H   0  0  0  0  0  0  0  0  0  0  0  0
  128.9268  129.2188   60.3997 H   0  0  0  0  0  0  0  0  0  0  0  0
  127.7660  129.9179   61.5840 H   0  0  0  0  0  0  0  0  0  0  0  0
  130.0620  130.6350   62.6870 H   0  0  0  0  0  0  0  0  0  0  0  0
  128.2290  132.1527   62.2450 H   0  0  0  0  0  0  0  0  0  0  0  0
  129.8319  132.8942   61.8975 H   0  0  0  0  0  0  0  0  0  0  0  0
  127.8281  131.7165   59.9087 H   0  0  0  0  0  0  0  0  0  0  0  0
  128.4344  133.4319   60.0465 H   0  0  0  0  0  0  0  0  0  0  0  0
  128.8919  133.2986   57.5889 H   0  0  0  0  0  0  0  0  0  0  0  0
  130.6179  132.7903   55.8770 H   0  0  0  0  0  0  0  0  0  0  0  0
  132.5148  131.2686   56.4399 H   0  0  0  0  0  0  0  0  0  0  0  0
  132.6819  130.2907   58.7151 H   0  0  0  0  0  0  0  0  0  0  0  0
  131.3519  129.5826   60.7603 H   0  0  0  0  0  0  0  0  0  0  0  0
  131.8519  131.2242   61.3659 H   0  0  0  0  0  0  0  0  0  0  0  0
  129.6388  124.3357   67.5840 H   0  0  0  0  0  0  0  0  0  0  0  0
  128.9280  123.5894   66.1128 H   0  0  0  0  0  0  0  0  0  0  0  0
  130.6456  124.1151   66.1128 H   0  0  0  0  0  0  0  0  0  0  0  0
  126.6149  125.9769   68.1176 H   0  0  0  0  0  0  0  0  0  0  0  0
  126.1831  126.2646   70.5499 H   0  0  0  0  0  0  0  0  0  0  0  0
  127.8604  129.3549   74.4995 H   0  0  0  0  0  0  0  0  0  0  0  0
  126.3374  130.7914   75.8471 H   0  0  0  0  0  0  0  0  0  0  0  0
  1  2  1  0
  2  3  2  0
  3  4  1  0
  4  5  2  0
  5  6  1  0
  6  7  2  0
  6  8  1  0
  8  9  1  0
  9 10  1  0
 10 11  1  0
 11 12  2  0
 12 13  1  0
 13 14  1  0
 14 15  1  0
 15 16  2  0
 16 17  1  0
 17 18  2  0
 18 19  1  0
 18 20  1  0
 20 21  1  0
 21 22  1  0
 22 23  1  0
 23 24  1  0
 24 25  2  0
 25 26  1  0
 26 27  2  0
 27 28  1  0
 28 29  2  0
 29 30  1  0
 16 31  1  0
 31 32  1  0
 32 33  1  0
 13 34  2  0
 34 35  1  0
 35 36  2  0
  5 37  1  0
 37 38  2  0
 38  2  1  0
 36  8  1  0
 36 11  1  0
 32 14  2  0
 30 21  1  0
 29 24  1  0
  1 39  1  0
  1 40  1  0
  1 41  1  0
  3 42  1  0
  4 43  1  0
  9 44  1  0
  9 45  1  0
 10 46  1  0
 10 47  1  0
 12 48  1  0
 20 49  1  0
 20 50  1  0
 21 51  1  1
 22 52  1  0
 22 53  1  0
 23 54  1  0
 23 55  1  0
 25 56  1  0
 26 57  1  0
 27 58  1  0
 28 59  1  0
 30 60  1  0
 30 61  1  0
 33 62  1  0
 33 63  1  0
 33 64  1  0
 34 65  1  0
 35 66  1  0
 37 67  1  0
 38 68  1  0
M  CHG  2  19  -1  21   1
M  END
>  <Binding energies>  (1) 
[-10.67]

>  <Ligand effiencies>  (1) 
[-0.2735897435897436]

>  <Interactions>  (1) 
["V-B:GLU:543:CD:9880, V-A:PRO:540:CD:4887, V-A:PRO:540:N:4884, V-A:TYR:539:C:4867, V-A:GLU:543:CD:4908, V-A:PRO:540:CB:4885, V-A:PRO:540:CA:4883, V-A:ALA:541:CB:4892, V-B:GLU:543:C:9874, V-B:LYS:471:CG:9189, V-B:GLU:543:CB:9878, V-B:HIS:456:CB:9036, V-B:HIS:456:CG:9037, V-B:GLY:544:C:9884, V-B:HIS:456:CD2:9039, V-B:ARG:545:CA:9891, V-B:LYS:471:CD:9190, V-B:HIS:456:CE1:9040, V-B:VAL:457:CA:9046, V-B:HIS:456:C:9032, V-B:LYS:471:C:9184, H-B:LYS:547:NZ:9923, V-B:VAL:458:CG2:9058, V-A:HIS:456:CE1:4069, V-B:LYS:471:CE:9191, V-A:HIS:456:CD2:4068, V-B:GLU:543:CG:9879, V-A:TYR:484:CE1:4345, V-B:GLU:543:CA:9876, V-A:TYR:484:CZ:4347, H-A:GLU:543:OE1:4909, V-B:HIS:456:CA:9034, V-B:VAL:457:C:9044, V-B:LYS:471:CB:9188"]

$$$$
RR21_Rahimova_2017
     RDKit          3D

 62 67  0  0  0  0  0  0  0  0999 V2000
  123.9240  130.4640   62.9830 C   0  0  0  0  0  0  0  0  0  0  0  0
  124.0890  130.5720   64.3930 O   0  0  0  0  0  0  0  0  0  0  0  0
  125.0380  129.7890   65.0250 C   0  0  0  0  0  0  0  0  0  0  0  0
  126.3090  129.5080   64.4960 C   0  0  0  0  0  0  0  0  0  0  0  0
  127.2100  128.7100   65.2000 C   0  0  0  0  0  0  0  0  0  0  0  0
  126.8680  128.1760   66.4480 C   0  0  0  0  0  0  0  0  0  0  0  0
  127.8390  127.3230   67.2050 C   0  0  0  0  0  0  0  0  0  0  0  0
  127.8630  127.3680   68.5220 N   0  0  0  0  0  0  0  0  0  0  0  0
  128.8160  126.5120   68.9190 N   0  0  0  0  0  0  0  0  0  0  0  0
  129.0950  126.2980   70.2950 C   0  0  0  0  0  0  0  0  0  0  0  0
  129.4430  125.0230   70.7660 C   0  0  0  0  0  0  0  0  0  0  0  0
  129.7180  124.8260   72.1170 C   0  0  0  0  0  0  0  0  0  0  0  0
  129.6460  125.9020   73.0000 C   0  0  0  0  0  0  0  0  0  0  0  0
  129.2980  127.1710   72.5450 C   0  0  0  0  0  0  0  0  0  0  0  0
  129.0220  127.3710   71.1950 C   0  0  0  0  0  0  0  0  0  0  0  0
  129.3920  125.9050   67.8310 C   0  0  0  0  0  0  0  0  0  0  0  0
  128.7930  126.4170   66.6890 C   0  0  0  0  0  0  0  0  0  0  0  0
  129.0380  126.0460   65.3040 C   0  0  0  0  0  0  0  0  0  0  0  0
  130.1990  125.6480   64.7360 C   0  0  0  0  0  0  0  0  0  0  0  0
  131.7880  125.4650   65.5120 S   0  0  0  0  0  0  0  0  0  0  0  0
  132.4580  124.9210   63.9810 C   0  0  0  0  0  0  0  0  0  0  0  0
  133.6760  124.5500   63.7320 N   0  0  0  0  0  0  0  0  0  0  0  0
  134.0880  124.1170   62.4420 C   0  0  0  0  0  0  0  0  0  0  0  0
  135.2140  123.7300   62.1310 O   0  0  0  0  0  0  0  0  0  0  0  0
  132.9930  124.1520   61.4110 C   0  0  0  0  0  0  0  0  0  0  0  0
  133.3260  123.7260   59.9750 C   0  0  0  0  0  0  0  0  0  0  0  0
  132.4880  124.4210   58.9030 C   0  0  0  0  0  0  0  0  0  0  0  0
  133.1160  125.0890   57.8490 C   0  0  0  0  0  0  0  0  0  0  0  0
  132.3520  125.7080   56.8620 C   0  0  0  0  0  0  0  0  0  0  0  0
  130.9580  125.6580   56.9260 C   0  0  0  0  0  0  0  0  0  0  0  0
  130.1300  126.3230   55.8420 C   0  0  0  0  0  0  0  0  0  0  0  0
  130.3280  124.9800   57.9730 C   0  0  0  0  0  0  0  0  0  0  0  0
  131.0920  124.3620   58.9590 C   0  0  0  0  0  0  0  0  0  0  0  0
  131.7850  124.5310   61.6720 N   0  0  0  0  0  0  0  0  0  0  0  0
  131.5130  124.9210   62.9890 N   0  0  0  0  0  0  0  0  0  0  0  0
  130.2570  125.3100   63.3200 C   0  0  0  0  0  0  0  0  0  0  0  0
  129.3050  125.3610   62.5330 O   0  0  0  0  0  0  0  0  0  0  0  0
  125.6000  128.4510   66.9720 C   0  0  0  0  0  0  0  0  0  0  0  0
  124.6970  129.2490   66.2690 C   0  0  0  0  0  0  0  0  0  0  0  0
  123.4780  129.4960   66.8040 F   0  0  0  0  0  0  0  0  0  0  0  0
  123.0221  129.8737   62.7635 H   0  0  0  0  0  0  0  0  0  0  0  0
  123.8193  131.4689   62.5480 H   0  0  0  0  0  0  0  0  0  0  0  0
  124.8031  129.9660   62.5480 H   0  0  0  0  0  0  0  0  0  0  0  0
  126.5958  129.9212   63.5177 H   0  0  0  0  0  0  0  0  0  0  0  0
  128.2001  128.4978   64.7702 H   0  0  0  0  0  0  0  0  0  0  0  0
  129.4988  124.1763   70.0660 H   0  0  0  0  0  0  0  0  0  0  0  0
  129.9907  123.8260   72.4854 H   0  0  0  0  0  0  0  0  0  0  0  0
  129.8662  125.7471   74.0665 H   0  0  0  0  0  0  0  0  0  0  0  0
  129.2413  128.0133   73.2502 H   0  0  0  0  0  0  0  0  0  0  0  0
  128.7461  128.3727   70.8337 H   0  0  0  0  0  0  0  0  0  0  0  0
  130.1881  125.1464   67.8594 H   0  0  0  0  0  0  0  0  0  0  0  0
  128.1678  126.0955   64.6329 H   0  0  0  0  0  0  0  0  0  0  0  0
  134.3854  123.9531   59.7851 H   0  0  0  0  0  0  0  0  0  0  0  0
  133.0999  122.6518   59.9045 H   0  0  0  0  0  0  0  0  0  0  0  0
  134.2142  125.1263   57.7983 H   0  0  0  0  0  0  0  0  0  0  0  0
  132.8465  126.2356   56.0331 H   0  0  0  0  0  0  0  0  0  0  0  0
  129.3523  126.9476   56.3059 H   0  0  0  0  0  0  0  0  0  0  0  0
  130.7811  126.9520   55.2172 H   0  0  0  0  0  0  0  0  0  0  0  0
  129.6563  125.5515   55.2172 H   0  0  0  0  0  0  0  0  0  0  0  0
  129.2299  124.9347   58.0180 H   0  0  0  0  0  0  0  0  0  0  0  0
  130.5972  123.8268   59.7828 H   0  0  0  0  0  0  0  0  0  0  0  0
  125.3122  128.0337   67.9482 H   0  0  0  0  0  0  0  0  0  0  0  0
  1  2  1  0
  2  3  1  0
  3  4  2  0
  4  5  1  0
  5  6  2  0
  6  7  1  0
  7  8  2  0
  8  9  1  0
  9 10  1  0
 10 11  2  0
 11 12  1  0
 12 13  2  0
 13 14  1  0
 14 15  2  0
  9 16  1  0
 16 17  2  0
 17 18  1  0
 18 19  2  0
 19 20  1  0
 20 21  1  0
 21 22  2  0
 22 23  1  0
 23 24  2  0
 23 25  1  0
 25 26  1  0
 26 27  1  0
 27 28  2  0
 28 29  1  0
 29 30  2  0
 30 31  1  0
 30 32  1  0
 32 33  2  0
 25 34  2  0
 34 35  1  0
 35 36  1  0
 36 37  2  0
  6 38  1  0
 38 39  2  0
 39 40  1  0
 39  3  1  0
 17  7  1  0
 36 19  1  0
 15 10  1  0
 35 21  1  0
 33 27  1  0
  1 41  1  0
  1 42  1  0
  1 43  1  0
  4 44  1  0
  5 45  1  0
 11 46  1  0
 12 47  1  0
 13 48  1  0
 14 49  1  0
 15 50  1  0
 16 51  1  0
 18 52  1  0
 26 53  1  0
 26 54  1  0
 28 55  1  0
 29 56  1  0
 31 57  1  0
 31 58  1  0
 31 59  1  0
 32 60  1  0
 33 61  1  0
 38 62  1  0
M  END
>  <Binding energies>  (1) 
[-10.41]

>  <Ligand effiencies>  (1) 
[-0.26025]

>  <Interactions>  (1) 
["V-B:GLU:543:CD:9880, V-B:TYR:539:CE2:9848, V-B:TYR:539:CZ:9849, V-A:ASP:366:CB:3212, V-A:ASP:366:CG:3213, V-B:GLU:543:CB:9878, V-B:HIS:456:CE1:9040, V-B:ARG:545:CG:9894, V-A:HIS:456:CE1:4069, V-A:HIS:456:CD2:4068, H-B:TYR:484:OH:9319, H-B:GLY:454:N:9021, V-B:ARG:545:CD:9895, V-B:ARG:545:CZ:9898, H-A:GLY:454:N:4050, V-B:GLU:543:CG:9879, V-A:GLY:453:C:4042, V-A:ASP:366:CA:3210, H-A:ARG:545:NH2:4928, V-A:ARG:545:CZ:4926, V-A:ASP:366:C:3208, V-B:ILE:455:C:9023"]

$$$$
RR22_Rahimova_2017
     RDKit          3D

 49 54  0  0  0  0  0  0  0  0999 V2000
  129.7580  133.3350   54.6390 O   0  0  0  0  0  0  0  0  0  0  0  0
  129.7180  132.5330   55.5700 C   0  0  0  0  0  0  0  0  0  0  0  0
  130.4330  132.5780   56.7540 N   0  0  0  0  0  0  0  0  0  0  0  0
  130.2240  131.5910   57.7690 C   0  0  1  0  0  0  0  0  0  0  0  0
  131.5170  131.0320   58.0190 O   0  0  0  0  0  0  0  0  0  0  0  0
  132.0420  131.1270   59.3080 C   0  0  0  0  0  0  0  0  0  0  0  0
  133.4150  130.9180   59.4380 C   0  0  0  0  0  0  0  0  0  0  0  0
  134.0060  130.9560   60.7010 C   0  0  0  0  0  0  0  0  0  0  0  0
  133.2230  131.1960   61.8310 C   0  0  0  0  0  0  0  0  0  0  0  0
  131.8490  131.4040   61.7020 C   0  0  0  0  0  0  0  0  0  0  0  0
  131.2470  131.3930   60.4400 C   0  0  0  0  0  0  0  0  0  0  0  0
  129.7640  131.5640   60.1970 C   0  0  1  0  0  0  0  0  0  0  0  0
  128.8900  132.4310   61.0800 C   0  0  0  0  0  0  0  0  0  0  0  0
  127.8410  132.8740   60.0550 C   0  0  0  0  0  0  0  0  0  0  0  0
  126.5280  133.4250   60.4440 C   0  0  0  0  0  0  0  0  0  0  0  0
  125.3610  132.6600   60.2940 C   0  0  0  0  0  0  0  0  0  0  0  0
  124.1250  133.1840   60.6630 C   0  0  0  0  0  0  0  0  0  0  0  0
  124.0480  134.4720   61.1840 C   0  0  0  0  0  0  0  0  0  0  0  0
  125.1960  135.2440   61.3400 C   0  0  0  0  0  0  0  0  0  0  0  0
  126.4330  134.7210   60.9730 C   0  0  0  0  0  0  0  0  0  0  0  0
  128.2720  132.7240   58.8590 N   0  0  0  0  0  0  0  0  0  0  0  0
  129.5790  132.2130   58.9340 N   0  0  0  0  0  0  0  0  0  0  0  0
  129.3780  130.4940   57.1410 C   0  0  0  0  0  0  0  0  0  0  0  0
  129.2640  129.2540   57.6730 C   0  0  0  0  0  0  0  0  0  0  0  0
  128.4690  128.1120   57.1820 C   0  0  0  0  0  0  0  0  0  0  0  0
  127.3030  127.6590   57.8170 C   0  0  0  0  0  0  0  0  0  0  0  0
  126.6020  126.5710   57.2960 C   0  0  0  0  0  0  0  0  0  0  0  0
  127.0920  125.9540   56.1450 C   0  0  0  0  0  0  0  0  0  0  0  0
  128.2210  126.3640   55.5140 N   0  0  0  0  0  0  0  0  0  0  0  0
  128.8880  127.4250   56.0370 C   0  0  0  0  0  0  0  0  0  0  0  0
  128.6770  131.0430   55.6110 S   0  0  0  0  0  0  0  0  0  0  0  0
  131.1410  133.2800   56.9040 H   0  0  0  0  0  0  0  0  0  0  0  0
  134.0301  130.7237   58.5470 H   0  0  0  0  0  0  0  0  0  0  0  0
  135.0893  130.7968   60.8063 H   0  0  0  0  0  0  0  0  0  0  0  0
  133.6903  131.2213   62.8265 H   0  0  0  0  0  0  0  0  0  0  0  0
  131.2359  131.5777   62.5986 H   0  0  0  0  0  0  0  0  0  0  0  0
  129.4505  130.5216   60.3552 H   0  0  0  0  0  0  0  0  0  0  0  0
  128.4406  131.8551   61.9024 H   0  0  0  0  0  0  0  0  0  0  0  0
  129.4148  133.2508   61.5924 H   0  0  0  0  0  0  0  0  0  0  0  0
  125.4231  131.6416   59.8829 H   0  0  0  0  0  0  0  0  0  0  0  0
  123.2123  132.5818   60.5431 H   0  0  0  0  0  0  0  0  0  0  0  0
  123.0707  134.8842   61.4754 H   0  0  0  0  0  0  0  0  0  0  0  0
  125.1261  136.2619   61.7511 H   0  0  0  0  0  0  0  0  0  0  0  0
  127.3418  135.3279   61.0986 H   0  0  0  0  0  0  0  0  0  0  0  0
  129.8401  129.0743   58.5927 H   0  0  0  0  0  0  0  0  0  0  0  0
  126.9413  128.1618   58.7260 H   0  0  0  0  0  0  0  0  0  0  0  0
  125.6841  126.2082   57.7817 H   0  0  0  0  0  0  0  0  0  0  0  0
  126.5391  125.0979   55.7309 H   0  0  0  0  0  0  0  0  0  0  0  0
  129.8063  127.7623   55.5340 H   0  0  0  0  0  0  0  0  0  0  0  0
  1  2  2  0
  2  3  1  0
  3  4  1  0
  4  5  1  1
  5  6  1  0
  6  7  2  0
  7  8  1  0
  8  9  2  0
  9 10  1  0
 10 11  2  0
 11 12  1  0
 12 13  1  0
 13 14  1  0
 14 15  1  0
 15 16  2  0
 16 17  1  0
 17 18  2  0
 18 19  1  0
 19 20  2  0
 14 21  2  0
 21 22  1  0
  4 23  1  0
 23 24  2  0
 24 25  1  0
 25 26  2  0
 26 27  1  0
 27 28  2  0
 28 29  1  0
 29 30  2  0
 23 31  1  0
 31  2  1  0
 22  4  1  0
 30 25  1  0
 11  6  1  0
 22 12  1  0
 20 15  1  0
  3 32  1  0
  7 33  1  0
  8 34  1  0
  9 35  1  0
 10 36  1  0
 12 37  1  6
 13 38  1  0
 13 39  1  0
 16 40  1  0
 17 41  1  0
 18 42  1  0
 19 43  1  0
 20 44  1  0
 24 45  1  0
 26 46  1  0
 27 47  1  0
 28 48  1  0
 30 49  1  0
M  END
>  <Binding energies>  (1) 
[-8.73]

>  <Ligand effiencies>  (1) 
[-0.2728125]

>  <Interactions>  (1) 
["V-A:PRO:540:CD:4887, V-A:PRO:540:N:4884, V-A:TYR:539:C:4867, V-A:ASP:366:CG:3213, V-A:GLU:543:CD:4908, V-A:TYR:539:CE2:4876, V-A:PRO:540:CB:4885, V-A:PRO:540:CA:4883, V-A:TYR:539:CD2:4874, V-B:LEU:475:CD1:9229, V-A:ALA:541:CB:4892, V-B:ILE:369:CD1:8210, V-B:ILE:369:CG2:8208, V-B:TRP:381:CH2:8343, V-A:ASN:362:C:3172, V-A:ASN:362:CB:3176, V-A:TYR:539:CE1:4875, V-A:TYR:539:CD1:4873, H-A:TYR:539:N:4870, V-A:TYR:539:CG:4872, V-A:ASN:362:CG:3177, V-A:LEU:363:CA:3185, V-B:TRP:381:CZ2:8341, H-A:TYR:539:O:4868, V-A:ASN:362:CA:3174"]

$$$$
RR23_Rahimova_2017
     RDKit          3D

 65 70  0  0  0  0  0  0  0  0999 V2000
  123.7080  130.3380   76.3250 C   0  0  0  0  0  0  0  0  0  0  0  0
  124.7290  129.4870   75.5920 C   0  0  0  0  0  0  0  0  0  0  0  0
  126.0520  129.9170   75.4890 C   0  0  0  0  0  0  0  0  0  0  0  0
  126.9900  129.1310   74.8250 C   0  0  0  0  0  0  0  0  0  0  0  0
  126.6090  127.9140   74.2470 C   0  0  0  0  0  0  0  0  0  0  0  0
  127.6460  127.0650   73.5480 C   0  0  0  0  0  0  0  0  0  0  0  0
  127.8350  125.9250   73.9770 O   0  0  0  0  0  0  0  0  0  0  0  0
  128.3170  127.5760   72.4730 N   0  0  0  0  0  0  0  0  0  0  0  0
  129.6480  128.1880   72.6160 C   0  0  0  0  0  0  0  0  0  0  0  0
  130.1290  128.5000   71.2080 C   0  0  0  0  0  0  0  0  0  0  0  0
  129.1950  127.6990   70.3510 C   0  0  0  0  0  0  0  0  0  0  0  0
  129.2060  127.5210   68.9680 C   0  0  0  0  0  0  0  0  0  0  0  0
  128.1460  126.8600   68.3290 C   0  0  0  0  0  0  0  0  0  0  0  0
  128.1180  126.6430   66.8090 C   0  0  2  0  0  0  0  0  0  0  0  0
  129.3520  126.0680   66.3170 N   0  0  0  0  0  0  0  0  0  0  0  0
  129.6220  126.4630   65.1380 C   0  0  0  0  0  0  0  0  0  0  0  0
  130.7060  126.1520   64.3770 N   0  0  0  0  0  0  0  0  0  0  0  0
  131.8180  125.4670   64.7360 C   0  0  0  0  0  0  0  0  0  0  0  0
  132.0210  124.9580   65.8400 O   0  0  0  0  0  0  0  0  0  0  0  0
  132.8960  125.3380   63.6470 C   0  0  0  0  0  0  0  0  0  0  0  0
  132.7490  124.0290   62.9720 N   0  0  0  0  0  0  0  0  0  0  0  0
  133.9020  123.2560   62.9110 N   0  0  0  0  0  0  0  0  0  0  0  0
  133.9060  122.0920   62.3450 N   0  0  0  0  0  0  0  0  0  0  0  0
  132.7310  121.5890   61.7810 C   0  0  0  0  0  0  0  0  0  0  0  0
  132.7710  120.3300   61.1770 C   0  0  0  0  0  0  0  0  0  0  0  0
  131.6130  119.8010   60.6050 C   0  0  0  0  0  0  0  0  0  0  0  0
  130.4200  120.5270   60.6340 C   0  0  0  0  0  0  0  0  0  0  0  0
  130.3790  121.7860   61.2370 C   0  0  0  0  0  0  0  0  0  0  0  0
  131.5390  122.3150   61.8130 C   0  0  0  0  0  0  0  0  0  0  0  0
  131.5170  123.6770   62.4670 C   0  0  0  0  0  0  0  0  0  0  0  0
  130.5130  124.3920   62.5290 O   0  0  0  0  0  0  0  0  0  0  0  0
  128.4560  127.5790   64.3710 S   0  0  0  0  0  0  0  0  0  0  0  0
  127.7400  127.9000   65.9920 C   0  0  2  0  0  0  0  0  0  0  0  0
  128.2700  129.2510   66.5170 C   0  0  0  0  0  0  0  0  0  0  0  0
  127.0590  126.4280   69.0980 C   0  0  0  0  0  0  0  0  0  0  0  0
  127.0370  126.6240   70.4790 C   0  0  0  0  0  0  0  0  0  0  0  0
  128.1360  127.2130   71.1200 C   0  0  0  0  0  0  0  0  0  0  0  0
  125.2840  127.4750   74.3780 C   0  0  0  0  0  0  0  0  0  0  0  0
  124.3480  128.2610   75.0440 C   0  0  0  0  0  0  0  0  0  0  0  0
  123.8461  130.2229   77.4102 H   0  0  0  0  0  0  0  0  0  0  0  0
  123.8440  131.3938   76.0480 H   0  0  0  0  0  0  0  0  0  0  0  0
  122.6940  130.0140   76.0480 H   0  0  0  0  0  0  0  0  0  0  0  0
  126.3543  130.8772   75.9324 H   0  0  0  0  0  0  0  0  0  0  0  0
  128.0348  129.4676   74.7542 H   0  0  0  0  0  0  0  0  0  0  0  0
  129.5803  129.1122   73.2087 H   0  0  0  0  0  0  0  0  0  0  0  0
  130.3442  127.5130   73.1354 H   0  0  0  0  0  0  0  0  0  0  0  0
  130.0436  129.5747   70.9894 H   0  0  0  0  0  0  0  0  0  0  0  0
  131.1884  128.2525   71.0456 H   0  0  0  0  0  0  0  0  0  0  0  0
  130.0506  127.9010   68.3745 H   0  0  0  0  0  0  0  0  0  0  0  0
  127.3047  125.9194   66.6512 H   0  0  0  0  0  0  0  0  0  0  0  0
  130.7040  126.5180   63.4360 H   0  0  0  0  0  0  0  0  0  0  0  0
  132.7753  126.1471   62.9117 H   0  0  0  0  0  0  0  0  0  0  0  0
  133.8942  125.4092   64.1037 H   0  0  0  0  0  0  0  0  0  0  0  0
  133.7105  119.7584   61.1523 H   0  0  0  0  0  0  0  0  0  0  0  0
  131.6399  118.8093   60.1299 H   0  0  0  0  0  0  0  0  0  0  0  0
  129.5105  120.1060   60.1807 H   0  0  0  0  0  0  0  0  0  0  0  0
  129.4400  122.3585   61.2589 H   0  0  0  0  0  0  0  0  0  0  0  0
  126.6481  128.0284   66.0269 H   0  0  0  0  0  0  0  0  0  0  0  0
  128.2671  129.2435   67.6170 H   0  0  0  0  0  0  0  0  0  0  0  0
  129.2965  129.4082   66.1541 H   0  0  0  0  0  0  0  0  0  0  0  0
  127.6242  130.0642   66.1541 H   0  0  0  0  0  0  0  0  0  0  0  0
  126.2113  125.9276   68.6070 H   0  0  0  0  0  0  0  0  0  0  0  0
  126.1580  126.3166   71.0646 H   0  0  0  0  0  0  0  0  0  0  0  0
  124.9831  126.5061   73.9530 H   0  0  0  0  0  0  0  0  0  0  0  0
  123.3078  127.9160   75.1385 H   0  0  0  0  0  0  0  0  0  0  0  0
  1  2  1  0
  2  3  2  0
  3  4  1  0
  4  5  2  0
  5  6  1  0
  6  7  2  0
  6  8  1  0
  8  9  1  0
  9 10  1  0
 10 11  1  0
 11 12  2  0
 12 13  1  0
 13 14  1  0
 14 15  1  0
 15 16  2  0
 16 17  1  0
 17 18  1  0
 18 19  2  0
 18 20  1  0
 20 21  1  0
 21 22  1  0
 22 23  2  0
 23 24  1  0
 24 25  2  0
 25 26  1  0
 26 27  2  0
 27 28  1  0
 28 29  2  0
 29 30  1  0
 30 31  2  0
 16 32  1  0
 32 33  1  0
 33 34  1  0
 13 35  2  0
 35 36  1  0
 36 37  2  0
  5 38  1  0
 38 39  2  0
 39  2  1  0
 37  8  1  0
 37 11  1  0
 33 14  1  0
 30 21  1  0
 29 24  1  0
  1 40  1  0
  1 41  1  0
  1 42  1  0
  3 43  1  0
  4 44  1  0
  9 45  1  0
  9 46  1  0
 10 47  1  0
 10 48  1  0
 12 49  1  0
 14 50  1  1
 17 51  1  0
 20 52  1  0
 20 53  1  0
 25 54  1  0
 26 55  1  0
 27 56  1  0
 28 57  1  0
 33 58  1  6
 34 59  1  0
 34 60  1  0
 34 61  1  0
 35 62  1  0
 36 63  1  0
 38 64  1  0
 39 65  1  0
M  END
>  <Binding energies>  (1) 
[-11.02]

>  <Ligand effiencies>  (1) 
[-0.27549999999999997]

>  <Interactions>  (1) 
["V-B:TYR:539:CE2:9848, V-B:TYR:539:CD2:9846, V-A:LEU:475:CD1:4258, V-A:GLU:543:CD:4908, V-B:GLU:543:C:9874, V-B:LYS:471:CG:9189, V-B:GLU:543:CB:9878, V-B:HIS:456:CB:9036, V-B:HIS:456:CG:9037, V-B:GLY:544:C:9884, V-B:HIS:456:CD2:9039, V-B:ARG:545:CA:9891, V-B:LYS:471:CD:9190, V-B:HIS:456:CE1:9040, V-B:VAL:457:CA:9046, V-B:HIS:456:C:9032, V-B:LYS:471:C:9184, H-B:LYS:547:NZ:9923, V-B:VAL:458:CG2:9058, V-A:HIS:456:CE1:4069, V-B:LYS:471:CE:9191, V-A:HIS:456:CD2:4068, V-A:GLU:543:CB:4906, V-A:LYS:547:CE:4950, V-A:GLU:543:C:4902, H-A:GLY:454:N:4050, V-A:TRP:381:CZ2:3370, V-A:TRP:381:CH2:3372, H-A:TYR:484:OH:4348, H-A:GLU:543:OE2:4910, V-A:ARG:545:CZ:4926, H-A:GLU:543:OE1:4909, V-A:GLU:543:CG:4907, V-B:HIS:456:CA:9034, V-B:VAL:457:C:9044"]

$$$$
RR24_Rahimova_2017
     RDKit          3D

 65 71  0  0  0  0  0  0  0  0999 V2000
  128.4960  125.9510   68.9960 C   0  0  0  0  0  0  0  0  0  0  0  0
  128.5010  126.0720   67.4650 C   0  0  2  0  0  0  0  0  0  0  0  0
  129.9200  126.3200   66.8740 C   0  0  0  0  0  0  0  0  0  0  0  0
  130.3800  127.4570   66.7260 O   0  0  0  0  0  0  0  0  0  0  0  0
  130.5530  125.1600   66.5290 O   0  0  0  0  0  0  0  0  0  0  0  0
  130.3700  124.6350   65.2690 C   0  0  0  0  0  0  0  0  0  0  0  0
  130.9480  125.2750   64.1710 C   0  0  0  0  0  0  0  0  0  0  0  0
  130.7780  124.7480   62.8940 C   0  0  0  0  0  0  0  0  0  0  0  0
  130.0380  123.5770   62.7100 C   0  0  0  0  0  0  0  0  0  0  0  0
  129.8380  123.0130   61.2980 C   0  0  1  0  0  0  0  0  0  0  0  0
  128.4160  123.2950   60.7590 C   0  0  0  0  0  0  0  0  0  0  0  0
  128.1910  123.8520   59.5550 C   0  0  0  0  0  0  0  0  0  0  0  0
  129.2130  124.2150   58.7140 N   0  0  0  0  0  0  0  0  0  0  0  0
  130.5290  124.0250   59.0650 C   0  0  0  0  0  0  0  0  0  0  0  0
  131.4170  124.4280   58.1190 N   0  0  0  0  0  0  0  0  0  0  0  0
  132.7620  124.3910   58.3210 C   0  0  0  0  0  0  0  0  0  0  0  0
  133.5000  125.0480   57.5850 O   0  0  0  0  0  0  0  0  0  0  0  0
  133.1430  123.7210   59.4740 N   0  0  0  0  0  0  0  0  0  0  0  0
  134.5960  123.5730   59.6940 C   0  0  0  0  0  0  0  0  0  0  0  0
  132.3270  123.2730   60.4990 C   0  0  0  0  0  0  0  0  0  0  0  0
  132.7410  122.7280   61.5270 O   0  0  0  0  0  0  0  0  0  0  0  0
  130.8950  123.4780   60.2540 C   0  0  0  0  0  0  0  0  0  0  0  0
  126.7660  124.0000   59.3120 C   0  0  0  0  0  0  0  0  0  0  0  0
  126.0310  124.5140   58.2420 C   0  0  0  0  0  0  0  0  0  0  0  0
  124.6360  124.5160   58.3120 C   0  0  0  0  0  0  0  0  0  0  0  0
  123.9860  124.0070   59.4400 C   0  0  0  0  0  0  0  0  0  0  0  0
  124.7270  123.4930   60.5080 C   0  0  0  0  0  0  0  0  0  0  0  0
  126.1210  123.4950   60.4340 C   0  0  0  0  0  0  0  0  0  0  0  0
  127.1340  123.0200   61.4000 C   0  0  0  0  0  0  0  0  0  0  0  0
  126.9850  122.5030   62.5050 O   0  0  0  0  0  0  0  0  0  0  0  0
  129.4750  122.9290   63.8150 C   0  0  0  0  0  0  0  0  0  0  0  0
  129.6470  123.4530   65.0920 C   0  0  0  0  0  0  0  0  0  0  0  0
  127.5010  127.0660   66.9770 N   0  0  0  0  0  0  0  0  0  0  0  0
  127.6550  127.7060   65.7840 C   0  0  0  0  0  0  0  0  0  0  0  0
  128.5820  127.5800   64.9820 O   0  0  0  0  0  0  0  0  0  0  0  0
  126.4690  128.5890   65.6530 C   0  0  0  0  0  0  0  0  0  0  0  0
  126.0970  129.4740   64.6400 C   0  0  0  0  0  0  0  0  0  0  0  0
  124.9020  130.1890   64.7820 C   0  0  0  0  0  0  0  0  0  0  0  0
  124.1030  130.0100   65.9180 C   0  0  0  0  0  0  0  0  0  0  0  0
  124.4930  129.1170   66.9220 C   0  0  0  0  0  0  0  0  0  0  0  0
  125.6890  128.4150   66.7640 C   0  0  0  0  0  0  0  0  0  0  0  0
  126.3540  127.4160   67.6360 C   0  0  0  0  0  0  0  0  0  0  0  0
  125.9540  126.9900   68.7200 O   0  0  0  0  0  0  0  0  0  0  0  0
  128.5375  126.9551   69.4433 H   0  0  0  0  0  0  0  0  0  0  0  0
  127.5761  125.4427   69.3206 H   0  0  0  0  0  0  0  0  0  0  0  0
  129.3708  125.3685   69.3206 H   0  0  0  0  0  0  0  0  0  0  0  0
  128.1879  125.0891   67.0830 H   0  0  0  0  0  0  0  0  0  0  0  0
  131.5362  126.1933   64.3147 H   0  0  0  0  0  0  0  0  0  0  0  0
  131.2274  125.2547   62.0272 H   0  0  0  0  0  0  0  0  0  0  0  0
  129.9785  121.9293   61.4236 H   0  0  0  0  0  0  0  0  0  0  0  0
  128.9990  124.6280   57.8170 H   0  0  0  0  0  0  0  0  0  0  0  0
  131.0990  124.7970   57.2360 H   0  0  0  0  0  0  0  0  0  0  0  0
  134.8030  123.5519   60.7741 H   0  0  0  0  0  0  0  0  0  0  0  0
  134.9425  122.6349   59.2359 H   0  0  0  0  0  0  0  0  0  0  0  0
  135.1246  124.4220   59.2359 H   0  0  0  0  0  0  0  0  0  0  0  0
  126.5444  124.9126   57.3545 H   0  0  0  0  0  0  0  0  0  0  0  0
  124.0463  124.9199   57.4758 H   0  0  0  0  0  0  0  0  0  0  0  0
  122.8870  124.0110   59.4874 H   0  0  0  0  0  0  0  0  0  0  0  0
  124.2176  123.0916   61.3965 H   0  0  0  0  0  0  0  0  0  0  0  0
  128.8959  122.0045   63.6737 H   0  0  0  0  0  0  0  0  0  0  0  0
  129.2141  122.9370   65.9617 H   0  0  0  0  0  0  0  0  0  0  0  0
  126.7290  129.6068   63.7495 H   0  0  0  0  0  0  0  0  0  0  0  0
  124.5893  130.8944   63.9980 H   0  0  0  0  0  0  0  0  0  0  0  0
  123.1643  130.5741   66.0215 H   0  0  0  0  0  0  0  0  0  0  0  0
  123.8702  128.9712   67.8169 H   0  0  0  0  0  0  0  0  0  0  0  0
  1  2  1  0
  2  3  1  0
  3  4  2  0
  3  5  1  0
  5  6  1  0
  6  7  2  0
  7  8  1  0
  8  9  2  0
  9 10  1  0
 10 11  1  0
 11 12  2  0
 12 13  1  0
 13 14  1  0
 14 15  1  0
 15 16  1  0
 16 17  2  0
 16 18  1  0
 18 19  1  0
 18 20  1  0
 20 21  2  0
 20 22  1  0
 12 23  1  0
 23 24  2  0
 24 25  1  0
 25 26  2  0
 26 27  1  0
 27 28  2  0
 28 29  1  0
 29 30  2  0
  9 31  1  0
 31 32  2  0
  2 33  1  0
 33 34  1  0
 34 35  2  0
 34 36  1  0
 36 37  2  0
 37 38  1  0
 38 39  2  0
 39 40  1  0
 40 41  2  0
 41 42  1  0
 42 43  2  0
 32  6  1  0
 42 33  1  0
 22 10  1  0
 28 23  1  0
 41 36  1  0
 29 11  1  0
 22 14  2  0
  1 44  1  0
  1 45  1  0
  1 46  1  0
  2 47  1  6
  7 48  1  0
  8 49  1  0
 10 50  1  1
 13 51  1  0
 15 52  1  0
 19 53  1  0
 19 54  1  0
 19 55  1  0
 24 56  1  0
 25 57  1  0
 26 58  1  0
 27 59  1  0
 31 60  1  0
 32 61  1  0
 37 62  1  0
 38 63  1  0
 39 64  1  0
 40 65  1  0
M  END
>  <Binding energies>  (1) 
[-10.33]

>  <Ligand effiencies>  (1) 
[-0.22955555555555557]

>  <Interactions>  (1) 
["V-B:GLU:543:CD:9880, V-B:ALA:541:CB:9864, V-B:TYR:539:CE2:9848, H-B:ALA:541:N:9863, V-B:PRO:540:CB:9857, V-B:LEU:363:CD1:8160, V-B:PRO:540:CA:9855, V-B:TYR:539:CZ:9849, V-A:ASP:366:CB:3212, V-A:ASP:366:CG:3213, H-B:TYR:539:OH:9850, V-B:GLU:543:C:9874, V-B:GLU:543:CB:9878, V-B:HIS:456:CE1:9040, V-B:ARG:545:CG:9894, V-A:HIS:456:CE1:4069, H-A:HIS:456:NE2:4070, V-B:ARG:545:CD:9895, V-B:ARG:545:CZ:9898, V-B:GLU:543:CG:9879, V-B:GLY:454:CA:9020, V-A:TYR:484:CE1:4345, V-B:GLU:543:CA:9876, V-A:ILE:369:CD1:3239, V-A:ILE:369:CG2:3237, V-A:ILE:369:CB:3236, H-A:TYR:484:OH:4348, V-A:ASP:366:CA:3210, V-A:ILE:369:CG1:3238, H-B:ARG:545:N:9892"]

$$$$
RR24_Rahimova_2017-again1
     RDKit          3D

 63 69  0  0  0  0  0  0  0  0999 V2000
  128.6260  125.4870   67.0610 C   0  0  0  0  0  0  0  0  0  0  0  0
  128.9070  126.9950   67.0870 C   0  0  2  0  0  0  0  0  0  0  0  0
  129.4540  127.4980   68.4550 C   0  0  0  0  0  0  0  0  0  0  0  0
  129.8040  128.6710   68.6290 O   0  0  0  0  0  0  0  0  0  0  0  0
  129.5190  126.5060   69.3920 O   0  0  0  0  0  0  0  0  0  0  0  0
  129.3480  126.8150   70.7220 C   0  0  0  0  0  0  0  0  0  0  0  0
  128.6090  125.9560   71.5380 C   0  0  0  0  0  0  0  0  0  0  0  0
  128.4480  126.2510   72.8880 C   0  0  0  0  0  0  0  0  0  0  0  0
  129.0300  127.4010   73.4320 C   0  0  0  0  0  0  0  0  0  0  0  0
  128.8540  127.7300   74.9210 C   0  0  1  0  0  0  0  0  0  0  0  0
  127.6930  128.7280   75.1440 C   0  0  0  0  0  0  0  0  0  0  0  0
  127.5110  130.0110   74.7580 C   0  0  0  0  0  0  0  0  0  0  0  0
  128.3700  130.7130   74.1020 O   0  0  0  0  0  0  0  0  0  0  0  0
  126.1880  130.4800   75.1670 C   0  0  0  0  0  0  0  0  0  0  0  0
  125.5260  131.7030   75.0000 C   0  0  0  0  0  0  0  0  0  0  0  0
  124.2340  131.8620   75.5030 C   0  0  0  0  0  0  0  0  0  0  0  0
  123.6080  130.8070   76.1710 C   0  0  0  0  0  0  0  0  0  0  0  0
  124.2730  129.5900   76.3370 C   0  0  0  0  0  0  0  0  0  0  0  0
  125.5650  129.4320   75.8290 C   0  0  0  0  0  0  0  0  0  0  0  0
  126.4960  128.3190   75.8580 C   0  0  0  0  0  0  0  0  0  0  0  0
  126.3790  127.1630   76.3970 N   0  0  0  0  0  0  0  0  0  0  0  0
  127.4180  126.2800   76.4280 C   0  0  0  0  0  0  0  0  0  0  0  0
  127.1570  125.1730   77.1830 N   0  0  0  0  0  0  0  0  0  0  0  0
  128.0490  124.2520   77.2800 C   0  0  0  0  0  0  0  0  0  0  0  0
  127.7010  123.2910   77.9870 O   0  0  0  0  0  0  0  0  0  0  0  0
  129.2880  124.3440   76.6480 N   0  0  0  0  0  0  0  0  0  0  0  0
  130.3350  123.2990   76.7400 C   0  0  0  0  0  0  0  0  0  0  0  0
  129.6460  125.4340   75.8790 C   0  0  0  0  0  0  0  0  0  0  0  0
  130.7400  125.5660   75.3220 O   0  0  0  0  0  0  0  0  0  0  0  0
  128.6060  126.4630   75.7730 C   0  0  0  0  0  0  0  0  0  0  0  0
  129.7790  128.2520   72.6140 C   0  0  0  0  0  0  0  0  0  0  0  0
  129.9430  127.9570   71.2640 C   0  0  0  0  0  0  0  0  0  0  0  0
  127.7350  127.7920   66.6180 N   0  0  0  0  0  0  0  0  0  0  0  0
  126.5870  127.8680   67.3480 C   0  0  0  0  0  0  0  0  0  0  0  0
  126.3490  127.3280   68.4300 O   0  0  0  0  0  0  0  0  0  0  0  0
  125.6770  128.7410   66.5640 C   0  0  0  0  0  0  0  0  0  0  0  0
  124.3720  129.1640   66.8180 C   0  0  0  0  0  0  0  0  0  0  0  0
  123.7460  130.0000   65.8860 C   0  0  0  0  0  0  0  0  0  0  0  0
  124.4230  130.3980   64.7260 C   0  0  0  0  0  0  0  0  0  0  0  0
  125.7320  129.9630   64.4900 C   0  0  0  0  0  0  0  0  0  0  0  0
  126.3390  129.1290   65.4310 C   0  0  0  0  0  0  0  0  0  0  0  0
  127.6910  128.5180   65.4590 C   0  0  0  0  0  0  0  0  0  0  0  0
  128.5830  128.6410   64.6200 O   0  0  0  0  0  0  0  0  0  0  0  0
  128.5556  125.1093   68.0917 H   0  0  0  0  0  0  0  0  0  0  0  0
  127.6775  125.2998   66.5363 H   0  0  0  0  0  0  0  0  0  0  0  0
  129.4434  124.9707   66.5363 H   0  0  0  0  0  0  0  0  0  0  0  0
  129.7202  127.1611   66.3651 H   0  0  0  0  0  0  0  0  0  0  0  0
  128.1551  125.0480   71.1143 H   0  0  0  0  0  0  0  0  0  0  0  0
  127.8610  125.5777   73.5299 H   0  0  0  0  0  0  0  0  0  0  0  0
  129.7982  128.1906   75.2472 H   0  0  0  0  0  0  0  0  0  0  0  0
  126.0216  132.5332   74.4755 H   0  0  0  0  0  0  0  0  0  0  0  0
  123.7080  132.8193   75.3733 H   0  0  0  0  0  0  0  0  0  0  0  0
  122.5897  130.9348   76.5669 H   0  0  0  0  0  0  0  0  0  0  0  0
  123.7817  128.7596   76.8653 H   0  0  0  0  0  0  0  0  0  0  0  0
  130.5485  123.0860   77.7979 H   0  0  0  0  0  0  0  0  0  0  0  0
  129.9823  122.3820   76.2452 H   0  0  0  0  0  0  0  0  0  0  0  0
  131.2513  123.6534   76.2452 H   0  0  0  0  0  0  0  0  0  0  0  0
  130.2395  129.1564   73.0383 H   0  0  0  0  0  0  0  0  0  0  0  0
  130.5408  128.6226   70.6239 H   0  0  0  0  0  0  0  0  0  0  0  0
  123.8464  128.8474   67.7309 H   0  0  0  0  0  0  0  0  0  0  0  0
  122.7174  130.3461   66.0654 H   0  0  0  0  0  0  0  0  0  0  0  0
  123.9240  131.0547   63.9981 H   0  0  0  0  0  0  0  0  0  0  0  0
  126.2713  130.2716   63.5823 H   0  0  0  0  0  0  0  0  0  0  0  0
  1  2  1  0
  2  3  1  0
  3  4  2  0
  3  5  1  0
  5  6  1  0
  6  7  2  0
  7  8  1  0
  8  9  2  0
  9 10  1  0
 10 11  1  0
 11 12  2  0
 12 13  1  0
 12 14  1  0
 14 15  2  0
 15 16  1  0
 16 17  2  0
 17 18  1  0
 18 19  2  0
 19 20  1  0
 20 21  2  0
 21 22  1  0
 22 23  1  0
 23 24  2  0
 24 25  1  0
 24 26  1  0
 26 27  1  0
 26 28  1  0
 28 29  2  0
 28 30  1  0
  9 31  1  0
 31 32  2  0
  2 33  1  0
 33 34  1  0
 34 35  2  0
 34 36  1  0
 36 37  2  0
 37 38  1  0
 38 39  2  0
 39 40  1  0
 40 41  2  0
 41 42  1  0
 42 43  2  0
 32  6  1  0
 42 33  1  0
 30 10  1  0
 41 36  1  0
 20 11  1  0
 30 22  2  0
 19 14  1  0
  1 44  1  0
  1 45  1  0
  1 46  1  0
  2 47  1  6
  7 48  1  0
  8 49  1  0
 10 50  1  1
 15 51  1  0
 16 52  1  0
 17 53  1  0
 18 54  1  0
 27 55  1  0
 27 56  1  0
 27 57  1  0
 31 58  1  0
 32 59  1  0
 37 60  1  0
 38 61  1  0
 39 62  1  0
 40 63  1  0
M  CHG  2  13  -1  25  -1
M  END
>  <Binding energies>  (1) 
[-9.99]

>  <Ligand effiencies>  (1) 
[-0.23232558139534884]

>  <Interactions>  (1) 
["V-B:GLU:543:C:9874, V-B:LYS:471:CG:9189, V-B:GLU:543:CB:9878, V-B:HIS:456:CB:9036, V-B:HIS:456:CG:9037, V-B:HIS:456:CD2:9039, H-A:LYS:547:NZ:4951, V-B:LYS:471:CD:9190, V-B:HIS:456:CE1:9040, V-B:VAL:457:CA:9046, V-B:HIS:456:C:9032, V-B:LYS:471:C:9184, V-B:ARG:545:CG:9894, H-B:LYS:547:NZ:9923, V-B:VAL:458:CG2:9058, V-A:HIS:456:CE1:4069, V-B:LYS:471:CE:9191, V-A:HIS:456:CD2:4068, V-A:LYS:547:CE:4950, H-B:HIS:456:NE2:9041, H-A:HIS:456:NE2:4070, V-B:ARG:545:CD:9895, V-B:ARG:545:CZ:9898, V-B:GLU:543:CG:9879, V-B:GLY:454:CA:9020, V-B:GLU:543:CA:9876, V-B:LYS:547:CE:9922, V-B:LYS:547:CD:9921, V-B:HIS:456:CA:9034, V-B:VAL:457:C:9044, V-B:ASP:473:CG:9211, V-B:ASP:473:CB:9210, V-B:ASP:473:CA:9208"]

$$$$
RR25_Rahimova_2017
     RDKit          3D

 63 68  0  0  0  0  0  0  0  0999 V2000
  123.0220  129.8410   66.5680 O   0  0  0  0  0  0  0  0  0  0  0  0
  124.1710  129.4500   66.3570 C   0  0  0  0  0  0  0  0  0  0  0  0
  124.7960  128.8150   67.4010 O   0  0  0  0  0  0  0  0  0  0  0  0
  125.9770  128.1180   67.2190 C   0  0  0  0  0  0  0  0  0  0  0  0
  126.2420  127.0880   68.1200 C   0  0  0  0  0  0  0  0  0  0  0  0
  127.4180  126.3490   68.0000 C   0  0  0  0  0  0  0  0  0  0  0  0
  128.3430  126.6310   66.9840 C   0  0  0  0  0  0  0  0  0  0  0  0
  129.5900  125.8370   66.8540 N   0  0  0  0  0  0  0  0  0  0  0  0
  130.4100  126.1670   66.0010 O   0  0  0  0  0  0  0  0  0  0  0  0
  129.7580  124.8790   67.6030 O   0  0  0  0  0  0  0  0  0  0  0  0
  128.0620  127.6800   66.0940 C   0  0  0  0  0  0  0  0  0  0  0  0
  126.8920  128.4360   66.2060 C   0  0  0  0  0  0  0  0  0  0  0  0
  126.5380  129.5720   65.2630 C   0  0  0  0  0  0  0  0  0  0  0  0
  124.9990  129.6150   65.0490 C   0  0  2  0  0  0  0  0  0  0  0  0
  124.5890  130.8280   64.1660 C   0  0  0  0  0  0  0  0  0  0  0  0
  124.1530  131.8140   64.7670 O   0  0  0  0  0  0  0  0  0  0  0  0
  124.8140  130.8560   62.8180 N   0  0  0  0  0  0  0  0  0  0  0  0
  125.0310  129.6330   62.0170 C   0  0  0  0  0  0  0  0  0  0  0  0
  126.0780  129.9290   60.9220 C   0  0  0  0  0  0  0  0  0  0  0  0
  125.6860  131.0810   60.1050 N   0  0  0  0  0  0  0  0  0  0  0  0
  126.6110  131.2840   58.9810 C   0  0  0  0  0  0  0  0  0  0  0  0
  127.6920  132.3570   59.2770 C   0  0  0  0  0  0  0  0  0  0  0  0
  129.1100  131.9000   59.1940 N   0  0  0  0  0  0  0  0  0  0  0  0
  129.5410  131.5410   57.9350 C   0  0  0  0  0  0  0  0  0  0  0  0
  128.8080  131.5560   56.9390 O   0  0  0  0  0  0  0  0  0  0  0  0
  131.0020  131.1420   57.8560 C   0  0  0  0  0  0  0  0  0  0  0  0
  131.5520  130.7830   56.6190 C   0  0  0  0  0  0  0  0  0  0  0  0
  132.8920  130.4180   56.5090 C   0  0  0  0  0  0  0  0  0  0  0  0
  133.7250  130.4040   57.6270 C   0  0  0  0  0  0  0  0  0  0  0  0
  133.2130  130.7580   58.8990 C   0  0  0  0  0  0  0  0  0  0  0  0
  134.0020  130.7660   60.0730 C   0  0  0  0  0  0  0  0  0  0  0  0
  133.4350  131.1290   61.2940 C   0  0  0  0  0  0  0  0  0  0  0  0
  132.0920  131.4870   61.3810 C   0  0  0  0  0  0  0  0  0  0  0  0
  131.2730  131.4940   60.2450 C   0  0  0  0  0  0  0  0  0  0  0  0
  131.8420  131.1270   58.9990 C   0  0  0  0  0  0  0  0  0  0  0  0
  129.8170  131.8980   60.3790 C   0  0  0  0  0  0  0  0  0  0  0  0
  129.3230  132.2150   61.4660 O   0  0  0  0  0  0  0  0  0  0  0  0
  125.5880  132.2760   60.9460 C   0  0  0  0  0  0  0  0  0  0  0  0
  124.5340  132.1010   62.0660 C   0  0  0  0  0  0  0  0  0  0  0  0
  125.5258  126.8591   68.9229 H   0  0  0  0  0  0  0  0  0  0  0  0
  127.6230  125.5349   68.7107 H   0  0  0  0  0  0  0  0  0  0  0  0
  128.7779  127.9116   65.2916 H   0  0  0  0  0  0  0  0  0  0  0  0
  126.8736  130.5255   65.6969 H   0  0  0  0  0  0  0  0  0  0  0  0
  127.0359  129.4109   64.2955 H   0  0  0  0  0  0  0  0  0  0  0  0
  124.7279  128.7149   64.4777 H   0  0  0  0  0  0  0  0  0  0  0  0
  125.3967  128.8255   62.6684 H   0  0  0  0  0  0  0  0  0  0  0  0
  124.0845  129.3206   61.5516 H   0  0  0  0  0  0  0  0  0  0  0  0
  127.0455  130.1419   61.4001 H   0  0  0  0  0  0  0  0  0  0  0  0
  126.1519  129.0487   60.2665 H   0  0  0  0  0  0  0  0  0  0  0  0
  127.1134  130.3301   58.7628 H   0  0  0  0  0  0  0  0  0  0  0  0
  126.0184  131.6388   58.1249 H   0  0  0  0  0  0  0  0  0  0  0  0
  127.5598  133.1757   58.5543 H   0  0  0  0  0  0  0  0  0  0  0  0
  127.5371  132.6513   60.3255 H   0  0  0  0  0  0  0  0  0  0  0  0
  130.9166  130.7893   55.7211 H   0  0  0  0  0  0  0  0  0  0  0  0
  133.2985  130.1369   55.5263 H   0  0  0  0  0  0  0  0  0  0  0  0
  134.7817  130.1175   57.5208 H   0  0  0  0  0  0  0  0  0  0  0  0
  135.0644  130.4854   60.0226 H   0  0  0  0  0  0  0  0  0  0  0  0
  134.0571  131.1327   62.2012 H   0  0  0  0  0  0  0  0  0  0  0  0
  131.6683  131.7684   62.3563 H   0  0  0  0  0  0  0  0  0  0  0  0
  126.5683  132.4701   61.4058 H   0  0  0  0  0  0  0  0  0  0  0  0
  125.2777  133.1187   60.3108 H   0  0  0  0  0  0  0  0  0  0  0  0
  124.5802  132.9609   62.7504 H   0  0  0  0  0  0  0  0  0  0  0  0
  123.5307  132.0413   61.6190 H   0  0  0  0  0  0  0  0  0  0  0  0
  1  2  2  0
  2  3  1  0
  3  4  1  0
  4  5  2  0
  5  6  1  0
  6  7  2  0
  7  8  1  0
  8  9  2  0
  8 10  1  0
  7 11  1  0
 11 12  2  0
 12 13  1  0
 13 14  1  0
 14 15  1  0
 15 16  2  0
 15 17  1  0
 17 18  1  0
 18 19  1  0
 19 20  1  0
 20 21  1  0
 21 22  1  0
 22 23  1  0
 23 24  1  0
 24 25  2  0
 24 26  1  0
 26 27  2  0
 27 28  1  0
 28 29  2  0
 29 30  1  0
 30 31  2  0
 31 32  1  0
 32 33  2  0
 33 34  1  0
 34 35  2  0
 34 36  1  0
 36 37  2  0
 20 38  1  0
 38 39  1  0
 14  2  1  0
 39 17  1  0
 12  4  1  0
 36 23  1  0
 35 26  1  0
 35 30  1  0
  5 40  1  0
  6 41  1  0
 11 42  1  0
 13 43  1  0
 13 44  1  0
 14 45  1  6
 18 46  1  0
 18 47  1  0
 19 48  1  0
 19 49  1  0
 21 50  1  0
 21 51  1  0
 22 52  1  0
 22 53  1  0
 27 54  1  0
 28 55  1  0
 29 56  1  0
 31 57  1  0
 32 58  1  0
 33 59  1  0
 38 60  1  0
 38 61  1  0
 39 62  1  0
 39 63  1  0
M  CHG  2   8   1  10  -1
M  END
>  <Binding energies>  (1) 
[-11.34]

>  <Ligand effiencies>  (1) 
[-0.2907692307692308]

>  <Interactions>  (1) 
["V-B:ASP:366:CG:8184, V-A:ASP:366:CB:3212, V-A:TYR:531:CE2:4793, V-A:TYR:531:CZ:4794, V-A:ASP:366:CG:3213, V-A:LEU:363:CD1:3189, V-A:TYR:539:CE2:4876, V-A:PRO:540:C:4881, V-A:PRO:540:CB:4885, V-A:PRO:540:CA:4883, V-A:TYR:539:CD2:4874, H-A:ALA:541:N:4891, V-B:GLU:543:C:9874, V-B:GLU:543:CB:9878, V-B:ARG:545:CA:9891, V-B:HIS:456:CE1:9040, V-B:ARG:545:CG:9894, V-A:HIS:456:CE1:4069, H-B:TYR:484:OH:9319, H-B:ARG:545:NE:9896, H-B:GLY:454:N:9021, V-B:ARG:545:CD:9895, V-B:ARG:545:CZ:9898, V-B:GLY:454:CA:9020, H-B:ILE:455:N:9026, H-A:TYR:484:OH:4348, V-A:ASN:362:C:3172, V-A:ASN:362:CB:3176, V-A:TYR:539:CZ:4877, V-A:LEU:363:CA:3185, V-A:LEU:363:CB:3187"]

$$$$
RR26_Rahimova_2017
     RDKit          3D

 59 65  0  0  0  0  0  0  0  0999 V2000
  124.2620  132.4010   61.9700 C   0  0  0  0  0  0  0  0  0  0  0  0
  125.3920  133.4000   61.7540 C   0  0  0  0  0  0  0  0  0  0  0  0
  125.0940  134.6110   61.1200 C   0  0  0  0  0  0  0  0  0  0  0  0
  126.0800  135.5770   60.9320 C   0  0  0  0  0  0  0  0  0  0  0  0
  127.3750  135.3430   61.3840 C   0  0  0  0  0  0  0  0  0  0  0  0
  127.6840  134.1420   62.0180 C   0  0  0  0  0  0  0  0  0  0  0  0
  126.7070  133.1530   62.2080 C   0  0  0  0  0  0  0  0  0  0  0  0
  127.1280  131.8810   62.8860 C   0  0  0  0  0  0  0  0  0  0  0  0
  127.4310  131.8310   64.1800 N   0  0  0  0  0  0  0  0  0  0  0  0
  127.7200  130.5680   64.3420 C   0  0  0  0  0  0  0  0  0  0  0  0
  128.2240  129.5730   65.6570 S   0  0  0  0  0  0  0  0  0  0  0  0
  128.2410  128.1520   64.5460 C   0  0  0  0  0  0  0  0  0  0  0  0
  128.5680  126.8750   64.8410 C   0  0  0  0  0  0  0  0  0  0  0  0
  128.9790  126.3280   66.1250 C   0  0  0  0  0  0  0  0  0  0  0  0
  128.5430  126.6900   67.3900 C   0  0  0  0  0  0  0  0  0  0  0  0
  129.1710  125.8800   68.3010 N   0  0  0  0  0  0  0  0  0  0  0  0
  129.0340  125.8760   69.7130 C   0  0  0  0  0  0  0  0  0  0  0  0
  129.6170  124.8630   70.4890 C   0  0  0  0  0  0  0  0  0  0  0  0
  129.4720  124.8700   71.8730 C   0  0  0  0  0  0  0  0  0  0  0  0
  128.7480  125.8890   72.4870 C   0  0  0  0  0  0  0  0  0  0  0  0
  128.1670  126.9030   71.7290 C   0  0  0  0  0  0  0  0  0  0  0  0
  128.3080  126.8980   70.3440 C   0  0  0  0  0  0  0  0  0  0  0  0
  129.9650  125.0000   67.6720 N   0  0  0  0  0  0  0  0  0  0  0  0
  129.8660  125.2580   66.3830 C   0  0  0  0  0  0  0  0  0  0  0  0
  130.6490  124.4460   65.3970 C   0  0  0  0  0  0  0  0  0  0  0  0
  130.1360  123.2350   64.9080 C   0  0  0  0  0  0  0  0  0  0  0  0
  130.8590  122.4690   63.9920 C   0  0  0  0  0  0  0  0  0  0  0  0
  132.1080  122.9110   63.5590 C   0  0  0  0  0  0  0  0  0  0  0  0
  132.6230  124.1280   64.0260 C   0  0  0  0  0  0  0  0  0  0  0  0
  131.9010  124.8880   64.9450 C   0  0  0  0  0  0  0  0  0  0  0  0
  133.8750  124.5830   63.6580 O   0  0  0  0  0  0  0  0  0  0  0  0
  134.3910  123.9760   62.4700 C   0  0  0  0  0  0  0  0  0  0  0  0
  134.1630  122.4450   62.4980 C   0  0  0  0  0  0  0  0  0  0  0  0
  132.7680  122.1470   62.6170 O   0  0  0  0  0  0  0  0  0  0  0  0
  127.8570  128.5090   63.1830 C   0  0  0  0  0  0  0  0  0  0  0  0
  127.7700  127.7900   62.1870 O   0  0  0  0  0  0  0  0  0  0  0  0
  127.5860  129.8860   63.1900 N   0  0  0  0  0  0  0  0  0  0  0  0
  127.1950  130.7310   62.2320 N   0  0  0  0  0  0  0  0  0  0  0  0
  124.1002  132.2580   63.0486 H   0  0  0  0  0  0  0  0  0  0  0  0
  123.3401  132.7848   61.5087 H   0  0  0  0  0  0  0  0  0  0  0  0
  124.5299  131.4390   61.5087 H   0  0  0  0  0  0  0  0  0  0  0  0
  124.0702  134.8024   60.7662 H   0  0  0  0  0  0  0  0  0  0  0  0
  125.8352  136.5231   60.4271 H   0  0  0  0  0  0  0  0  0  0  0  0
  128.1542  136.1061   61.2407 H   0  0  0  0  0  0  0  0  0  0  0  0
  128.7094  133.9662   62.3752 H   0  0  0  0  0  0  0  0  0  0  0  0
  128.5172  126.1598   64.0068 H   0  0  0  0  0  0  0  0  0  0  0  0
  127.8207  127.4865   67.6221 H   0  0  0  0  0  0  0  0  0  0  0  0
  130.1906  124.0607   70.0019 H   0  0  0  0  0  0  0  0  0  0  0  0
  129.9276  124.0736   72.4798 H   0  0  0  0  0  0  0  0  0  0  0  0
  128.6339  125.8932   73.5811 H   0  0  0  0  0  0  0  0  0  0  0  0
  127.5988  127.7049   72.2230 H   0  0  0  0  0  0  0  0  0  0  0  0
  127.8493  127.6969   69.7428 H   0  0  0  0  0  0  0  0  0  0  0  0
  129.1513  122.8847   65.2509 H   0  0  0  0  0  0  0  0  0  0  0  0
  130.4456  121.5223   63.6142 H   0  0  0  0  0  0  0  0  0  0  0  0
  132.3144  125.8371   65.3167 H   0  0  0  0  0  0  0  0  0  0  0  0
  133.8790  124.4019   61.5946 H   0  0  0  0  0  0  0  0  0  0  0  0
  135.4716  124.1729   62.4114 H   0  0  0  0  0  0  0  0  0  0  0  0
  134.5489  122.0047   61.5668 H   0  0  0  0  0  0  0  0  0  0  0  0
  134.6918  122.0228   63.3653 H   0  0  0  0  0  0  0  0  0  0  0  0
  1  2  1  0
  2  3  2  0
  3  4  1  0
  4  5  2  0
  5  6  1  0
  6  7  2  0
  7  8  1  0
  8  9  1  0
  9 10  2  0
 10 11  1  0
 11 12  1  0
 12 13  2  0
 13 14  1  0
 14 15  2  0
 15 16  1  0
 16 17  1  0
 17 18  2  0
 18 19  1  0
 19 20  2  0
 20 21  1  0
 21 22  2  0
 16 23  1  0
 23 24  2  0
 24 25  1  0
 25 26  2  0
 26 27  1  0
 27 28  2  0
 28 29  1  0
 29 30  2  0
 29 31  1  0
 31 32  1  0
 32 33  1  0
 33 34  1  0
 12 35  1  0
 35 36  2  0
 35 37  1  0
 37 38  1  0
  7  2  1  0
 38  8  2  0
 37 10  1  0
 24 14  1  0
 30 25  1  0
 22 17  1  0
 34 28  1  0
  1 39  1  0
  1 40  1  0
  1 41  1  0
  3 42  1  0
  4 43  1  0
  5 44  1  0
  6 45  1  0
 13 46  1  0
 15 47  1  0
 18 48  1  0
 19 49  1  0
 20 50  1  0
 21 51  1  0
 22 52  1  0
 26 53  1  0
 27 54  1  0
 30 55  1  0
 32 56  1  0
 32 57  1  0
 33 58  1  0
 33 59  1  0
M  END
>  <Binding energies>  (1) 
[-10.14]

>  <Ligand effiencies>  (1) 
[-0.26684210526315794]

>  <Interactions>  (1) 
["V-B:GLU:543:CD:9880, V-A:LEU:475:CD1:4258, V-B:PRO:482:CB:9297, V-A:GLU:543:CD:4908, V-A:TYR:539:CE2:4876, V-B:PRO:482:CG:9298, V-A:TYR:539:CD2:4874, V-B:LEU:475:CD1:9229, V-A:ALA:541:CB:4892, V-B:GLU:543:CB:9878, V-B:HIS:456:CE1:9040, V-A:HIS:456:CE1:4069, V-A:HIS:456:CD2:4068, H-B:TYR:484:OH:9319, V-A:GLU:543:CB:4906, H-A:HIS:456:NE2:4070, V-B:ILE:369:CD1:8210, H-A:GLY:454:N:4050, V-B:GLU:543:CG:9879, V-A:TYR:484:CE1:4345, V-A:ILE:369:CD1:3239, V-A:GLY:453:C:4042, V-A:TYR:484:CZ:4347, H-A:TYR:484:OH:4348, V-B:TRP:381:CH2:8343, V-A:GLY:454:CA:4049, H-A:ARG:545:NH2:4928, V-A:GLY:453:CA:4044, V-A:GLU:543:CG:4907, V-B:TRP:381:CZ2:8341, V-B:TRP:381:CZ3:8342"]

$$$$
RR27_Rahimova_2017
     RDKit          3D

 66 71  0  0  0  0  0  0  0  0999 V2000
  133.5430  124.4800   62.1410 O   0  0  0  0  0  0  0  0  0  0  0  0
  132.4810  123.8930   62.3670 C   0  0  0  0  0  0  0  0  0  0  0  0
  131.5600  123.5430   61.1610 C   0  0  0  0  0  0  0  0  0  0  0  0
  131.1730  122.0540   61.1090 C   0  0  0  0  0  0  0  0  0  0  0  0
  129.8330  121.6380   61.0510 C   0  0  0  0  0  0  0  0  0  0  0  0
  129.5190  120.2830   61.0020 C   0  0  0  0  0  0  0  0  0  0  0  0
  130.5400  119.3380   61.0110 C   0  0  0  0  0  0  0  0  0  0  0  0
  131.8730  119.7340   61.0710 C   0  0  0  0  0  0  0  0  0  0  0  0
  132.1880  121.0890   61.1200 C   0  0  0  0  0  0  0  0  0  0  0  0
  132.1050  124.1190   59.8400 C   0  0  0  0  0  0  0  0  0  0  0  0
  131.4830  125.1950   59.1930 C   0  0  0  0  0  0  0  0  0  0  0  0
  131.9950  125.6840   57.9940 C   0  0  0  0  0  0  0  0  0  0  0  0
  133.1270  125.0960   57.4350 C   0  0  0  0  0  0  0  0  0  0  0  0
  133.7480  124.0190   58.0610 C   0  0  0  0  0  0  0  0  0  0  0  0
  133.2350  123.5300   59.2590 C   0  0  0  0  0  0  0  0  0  0  0  0
  132.1750  123.4200   63.6090 N   0  0  0  0  0  0  0  0  0  0  0  0
  130.8350  122.9480   63.9890 C   0  0  0  0  0  0  0  0  0  0  0  0
  130.0450  124.1840   64.4720 C   0  0  0  0  0  0  0  0  0  0  0  0
  130.7740  124.9550   65.6180 C   0  0  0  0  0  0  0  0  0  0  0  0
  130.0830  126.2590   66.0600 C   0  0  0  0  0  0  0  0  0  0  0  0
  130.2510  126.6230   67.3650 N   0  0  0  0  0  0  0  0  0  0  0  0
  129.6830  127.7820   67.8000 C   0  0  0  0  0  0  0  0  0  0  0  0
  129.7840  128.2540   69.0820 O   0  0  0  0  0  0  0  0  0  0  0  0
  128.9440  128.5570   66.8850 C   0  0  0  0  0  0  0  0  0  0  0  0
  128.2690  129.7380   66.9830 N   0  0  0  0  0  0  0  0  0  0  0  0
  127.7250  130.0050   65.7400 N   0  0  0  0  0  0  0  0  0  0  0  0
  128.0670  129.0110   64.8930 N   0  0  0  0  0  0  0  0  0  0  0  0
  127.6020  129.0260   63.5080 C   0  0  0  0  0  0  0  0  0  0  0  0
  128.0960  130.2240   62.7090 C   0  0  0  0  0  0  0  0  0  0  0  0
  127.4430  131.4560   62.8120 C   0  0  0  0  0  0  0  0  0  0  0  0
  127.9030  132.5580   62.0870 C   0  0  0  0  0  0  0  0  0  0  0  0
  129.0200  132.4340   61.2620 C   0  0  0  0  0  0  0  0  0  0  0  0
  129.6820  131.2100   61.1630 C   0  0  0  0  0  0  0  0  0  0  0  0
  131.0820  131.0610   60.1620 Cl  0  0  0  0  0  0  0  0  0  0  0  0
  129.2190  130.1070   61.8800 C   0  0  0  0  0  0  0  0  0  0  0  0
  128.8310  128.0720   65.5650 C   0  0  0  0  0  0  0  0  0  0  0  0
  129.3700  126.9360   65.1140 N   0  0  0  0  0  0  0  0  0  0  0  0
  132.2960  125.1300   65.3250 C   0  0  0  0  0  0  0  0  0  0  0  0
  132.9630  123.8440   64.7760 C   0  0  0  0  0  0  0  0  0  0  0  0
  130.5992  124.0536   61.3227 H   0  0  0  0  0  0  0  0  0  0  0  0
  129.0274  122.3869   61.0443 H   0  0  0  0  0  0  0  0  0  0  0  0
  128.4683  119.9607   60.9564 H   0  0  0  0  0  0  0  0  0  0  0  0
  130.2913  118.2673   60.9703 H   0  0  0  0  0  0  0  0  0  0  0  0
  132.6737  118.9798   61.0797 H   0  0  0  0  0  0  0  0  0  0  0  0
  133.2409  121.4039   61.1677 H   0  0  0  0  0  0  0  0  0  0  0  0
  130.5866  125.6553   59.6341 H   0  0  0  0  0  0  0  0  0  0  0  0
  131.5072  126.5315   57.4902 H   0  0  0  0  0  0  0  0  0  0  0  0
  133.5339  125.4862   56.4904 H   0  0  0  0  0  0  0  0  0  0  0  0
  134.6393  123.5569   57.6115 H   0  0  0  0  0  0  0  0  0  0  0  0
  133.7204  122.6752   59.7527 H   0  0  0  0  0  0  0  0  0  0  0  0
  130.3337  122.4938   63.1216 H   0  0  0  0  0  0  0  0  0  0  0  0
  130.8954  122.1854   64.7794 H   0  0  0  0  0  0  0  0  0  0  0  0
  129.9058  124.8672   63.6212 H   0  0  0  0  0  0  0  0  0  0  0  0
  129.0830  123.8288   64.8700 H   0  0  0  0  0  0  0  0  0  0  0  0
  130.6897  124.3068   66.5027 H   0  0  0  0  0  0  0  0  0  0  0  0
  129.7690  129.2120   69.1270 H   0  0  0  0  0  0  0  0  0  0  0  0
  127.9552  128.1092   63.0133 H   0  0  0  0  0  0  0  0  0  0  0  0
  126.5043  129.0907   63.5384 H   0  0  0  0  0  0  0  0  0  0  0  0
  126.5643  131.5579   63.4659 H   0  0  0  0  0  0  0  0  0  0  0  0
  127.3835  133.5243   62.1671 H   0  0  0  0  0  0  0  0  0  0  0  0
  129.3794  133.3015   60.6890 H   0  0  0  0  0  0  0  0  0  0  0  0
  129.7380  129.1409   61.7941 H   0  0  0  0  0  0  0  0  0  0  0  0
  132.4192  125.9322   64.5825 H   0  0  0  0  0  0  0  0  0  0  0  0
  132.7872  125.3715   66.2791 H   0  0  0  0  0  0  0  0  0  0  0  0
  134.0003  124.0541   64.4761 H   0  0  0  0  0  0  0  0  0  0  0  0
  132.9882  123.0552   65.5422 H   0  0  0  0  0  0  0  0  0  0  0  0
  1  2  2  0
  2  3  1  0
  3  4  1  0
  4  5  2  0
  5  6  1  0
  6  7  2  0
  7  8  1  0
  8  9  2  0
  3 10  1  0
 10 11  2  0
 11 12  1  0
 12 13  2  0
 13 14  1  0
 14 15  2  0
  2 16  1  0
 16 17  1  0
 17 18  1  0
 18 19  1  0
 19 20  1  0
 20 21  2  0
 21 22  1  0
 22 23  1  0
 22 24  2  0
 24 25  1  0
 25 26  2  0
 26 27  1  0
 27 28  1  0
 28 29  1  0
 29 30  2  0
 30 31  1  0
 31 32  2  0
 32 33  1  0
 33 34  1  0
 33 35  2  0
 27 36  1  0
 36 37  2  0
 19 38  1  0
 38 39  1  0
  9  4  1  0
 15 10  1  0
 39 16  1  0
 37 20  1  0
 36 24  1  0
 35 29  1  0
  3 40  1  0
  5 41  1  0
  6 42  1  0
  7 43  1  0
  8 44  1  0
  9 45  1  0
 11 46  1  0
 12 47  1  0
 13 48  1  0
 14 49  1  0
 15 50  1  0
 17 51  1  0
 17 52  1  0
 18 53  1  0
 18 54  1  0
 19 55  1  0
 23 56  1  0
 28 57  1  0
 28 58  1  0
 30 59  1  0
 31 60  1  0
 32 61  1  0
 35 62  1  0
 38 63  1  0
 38 64  1  0
 39 65  1  0
 39 66  1  0
M  END
>  <Binding energies>  (1) 
[-9.98]

>  <Ligand effiencies>  (1) 
[-0.2495]

>  <Interactions>  (1) 
["V-A:PRO:482:CB:4326, V-B:ALA:541:CB:9864, V-B:TYR:539:CE2:9848, V-B:TYR:539:CD2:9846, V-A:PRO:482:CG:4327, V-B:ALA:541:CA:9862, V-A:LEU:475:CD1:4258, V-A:ASP:366:CB:3212, V-A:ASP:366:CG:3213, V-A:GLU:543:CD:4908, V-A:PRO:540:CB:4885, V-A:PRO:540:CA:4883, V-A:ALA:541:CB:4892, V-B:HIS:456:CE1:9040, V-A:HIS:456:CE1:4069, H-B:TYR:484:OH:9319, V-A:GLU:543:CB:4906, H-B:HIS:456:NE2:9041, H-A:HIS:456:NE2:4070, V-B:GLU:543:CG:9879, V-A:TRP:381:CZ2:3370, V-A:TRP:381:CH2:3372, V-A:ILE:369:CG2:3237, V-A:ILE:369:CB:3236, V-A:GLY:454:CA:4049, V-A:ASP:366:CA:3210, H-A:ARG:545:NH2:4928, V-A:ASP:366:C:3208, V-A:GLU:543:CG:4907, H-A:GLU:543:O:4903"]

$$$$
RR27_Rahimova_2017-again1
     RDKit          3D

 66 71  0  0  0  0  0  0  0  0999 V2000
  129.3460  126.0260   74.5460 O   0  0  0  0  0  0  0  0  0  0  0  0
  129.2740  125.7700   73.3400 C   0  0  0  0  0  0  0  0  0  0  0  0
  127.9630  126.1420   72.5850 C   0  0  0  0  0  0  0  0  0  0  0  0
  128.2320  126.6930   71.1710 C   0  0  0  0  0  0  0  0  0  0  0  0
  129.1640  127.7150   70.9350 C   0  0  0  0  0  0  0  0  0  0  0  0
  129.3810  128.1850   69.6430 C   0  0  0  0  0  0  0  0  0  0  0  0
  128.6670  127.6380   68.5800 C   0  0  0  0  0  0  0  0  0  0  0  0
  127.7410  126.6240   68.7980 C   0  0  0  0  0  0  0  0  0  0  0  0
  127.5240  126.1520   70.0900 C   0  0  0  0  0  0  0  0  0  0  0  0
  127.0420  127.0390   73.4340 C   0  0  0  0  0  0  0  0  0  0  0  0
  125.7340  126.6470   73.7560 C   0  0  0  0  0  0  0  0  0  0  0  0
  124.9120  127.4830   74.5070 C   0  0  0  0  0  0  0  0  0  0  0  0
  125.3950  128.7140   74.9430 C   0  0  0  0  0  0  0  0  0  0  0  0
  126.6900  129.1170   74.6300 C   0  0  0  0  0  0  0  0  0  0  0  0
  127.5090  128.2850   73.8720 C   0  0  0  0  0  0  0  0  0  0  0  0
  130.3630  125.3270   72.6450 N   0  0  0  0  0  0  0  0  0  0  0  0
  130.2890  124.7440   71.2990 C   0  0  0  0  0  0  0  0  0  0  0  0
  129.9720  123.2380   71.4540 C   0  0  0  0  0  0  0  0  0  0  0  0
  130.7780  122.4860   72.5640 C   0  0  0  0  0  0  0  0  0  0  0  0
  130.0580  121.2470   73.1070 C   0  0  0  0  0  0  0  0  0  0  0  0
  128.8800  120.9270   72.6730 N   0  0  0  0  0  0  0  0  0  0  0  0
  128.3330  119.8110   73.2310 C   0  0  0  0  0  0  0  0  0  0  0  0
  128.9140  119.0080   74.2010 C   0  0  0  0  0  0  0  0  0  0  0  0
  128.1040  118.0150   74.5220 N   0  0  0  0  0  0  0  0  0  0  0  0
  126.9540  118.1480   73.7510 N   0  0  0  0  0  0  0  0  0  0  0  0
  127.1210  119.2280   72.9680 N   0  0  0  0  0  0  0  0  0  0  0  0
  126.0740  119.6550   72.0480 C   0  0  0  0  0  0  0  0  0  0  0  0
  124.6720  119.5100   72.6200 C   0  0  0  0  0  0  0  0  0  0  0  0
  124.3800  120.0010   73.8980 C   0  0  0  0  0  0  0  0  0  0  0  0
  123.0980  119.8600   74.4280 C   0  0  0  0  0  0  0  0  0  0  0  0
  122.1000  119.2300   73.6850 C   0  0  0  0  0  0  0  0  0  0  0  0
  122.3830  118.7430   72.4080 C   0  0  0  0  0  0  0  0  0  0  0  0
  121.1490  117.9610   71.4910 Cl  0  0  0  0  0  0  0  0  0  0  0  0
  123.6650  118.8840   71.8760 C   0  0  0  0  0  0  0  0  0  0  0  0
  130.2470  119.3440   74.7020 C   0  0  0  0  0  0  0  0  0  0  0  0
  130.9180  118.7570   75.5470 O   0  0  0  0  0  0  0  0  0  0  0  0
  130.7060  120.4820   74.0710 N   0  0  0  0  0  0  0  0  0  0  0  0
  131.3660  123.3750   73.7040 C   0  0  0  0  0  0  0  0  0  0  0  0
  131.5600  124.8750   73.3690 C   0  0  0  0  0  0  0  0  0  0  0  0
  127.4052  125.2071   72.4273 H   0  0  0  0  0  0  0  0  0  0  0  0
  129.7263  128.1472   71.7758 H   0  0  0  0  0  0  0  0  0  0  0  0
  130.1136  128.9854   69.4624 H   0  0  0  0  0  0  0  0  0  0  0  0
  128.8370  128.0112   67.5593 H   0  0  0  0  0  0  0  0  0  0  0  0
  127.1818  126.1961   67.9529 H   0  0  0  0  0  0  0  0  0  0  0  0
  126.7920  125.3493   70.2629 H   0  0  0  0  0  0  0  0  0  0  0  0
  125.3554  125.6729   73.4129 H   0  0  0  0  0  0  0  0  0  0  0  0
  123.8862  127.1725   74.7546 H   0  0  0  0  0  0  0  0  0  0  0  0
  124.7478  129.3735   75.5398 H   0  0  0  0  0  0  0  0  0  0  0  0
  127.0650  130.0899   74.9805 H   0  0  0  0  0  0  0  0  0  0  0  0
  128.5288  128.6078   73.6154 H   0  0  0  0  0  0  0  0  0  0  0  0
  129.4932  125.2365   70.7209 H   0  0  0  0  0  0  0  0  0  0  0  0
  131.2412  124.8838   70.7663 H   0  0  0  0  0  0  0  0  0  0  0  0
  128.9018  123.1403   71.6886 H   0  0  0  0  0  0  0  0  0  0  0  0
  130.2645  122.7705   70.5022 H   0  0  0  0  0  0  0  0  0  0  0  0
  131.6648  122.1335   72.0169 H   0  0  0  0  0  0  0  0  0  0  0  0
  126.2405  120.7129   71.7968 H   0  0  0  0  0  0  0  0  0  0  0  0
  126.1331  119.0037   71.1635 H   0  0  0  0  0  0  0  0  0  0  0  0
  125.1645  120.4997   74.4861 H   0  0  0  0  0  0  0  0  0  0  0  0
  122.8736  120.2461   75.4333 H   0  0  0  0  0  0  0  0  0  0  0  0
  121.0898  119.1169   74.1054 H   0  0  0  0  0  0  0  0  0  0  0  0
  123.8853  118.5019   70.8683 H   0  0  0  0  0  0  0  0  0  0  0  0
  131.6240  120.7850   74.3630 H   0  0  0  0  0  0  0  0  0  0  0  0
  130.6861  123.3087   74.5662 H   0  0  0  0  0  0  0  0  0  0  0  0
  132.3759  122.9821   73.8932 H   0  0  0  0  0  0  0  0  0  0  0  0
  131.6784  125.4543   74.2966 H   0  0  0  0  0  0  0  0  0  0  0  0
  132.4609  125.0204   72.7548 H   0  0  0  0  0  0  0  0  0  0  0  0
  1  2  2  0
  2  3  1  0
  3  4  1  0
  4  5  2  0
  5  6  1  0
  6  7  2  0
  7  8  1  0
  8  9  2  0
  3 10  1  0
 10 11  2  0
 11 12  1  0
 12 13  2  0
 13 14  1  0
 14 15  2  0
  2 16  1  0
 16 17  1  0
 17 18  1  0
 18 19  1  0
 19 20  1  0
 20 21  2  0
 21 22  1  0
 22 23  2  0
 23 24  1  0
 24 25  2  0
 25 26  1  0
 26 27  1  0
 27 28  1  0
 28 29  2  0
 29 30  1  0
 30 31  2  0
 31 32  1  0
 32 33  1  0
 32 34  2  0
 23 35  1  0
 35 36  2  0
 35 37  1  0
 19 38  1  0
 38 39  1  0
  9  4  1  0
 15 10  1  0
 39 16  1  0
 37 20  1  0
 26 22  1  0
 34 28  1  0
  3 40  1  0
  5 41  1  0
  6 42  1  0
  7 43  1  0
  8 44  1  0
  9 45  1  0
 11 46  1  0
 12 47  1  0
 13 48  1  0
 14 49  1  0
 15 50  1  0
 17 51  1  0
 17 52  1  0
 18 53  1  0
 18 54  1  0
 19 55  1  0
 27 56  1  0
 27 57  1  0
 29 58  1  0
 30 59  1  0
 31 60  1  0
 34 61  1  0
 37 62  1  0
 38 63  1  0
 38 64  1  0
 39 65  1  0
 39 66  1  0
M  END
>  <Binding energies>  (1) 
[-10.4]

>  <Ligand effiencies>  (1) 
[-0.26]

>  <Interactions>  (1) 
["V-B:GLU:543:C:9874, V-B:HIS:456:CB:9036, V-B:HIS:456:CG:9037, V-B:GLY:544:C:9884, V-B:HIS:456:CD2:9039, V-B:HIS:456:CE1:9040, H-B:LYS:547:NZ:9923, V-B:VAL:458:CG2:9058, V-A:HIS:456:CE1:4069, V-A:ASP:473:CG:4240, V-A:HIS:456:CG:4066, V-A:HIS:456:CD2:4068, V-A:ASP:473:CB:4239, V-A:HIS:456:CB:4065, V-A:TYR:484:CE1:4345, V-A:TYR:484:CZ:4347, V-B:LYS:547:CE:9922, V-B:GLY:544:CA:9886, V-B:LYS:547:CD:9921, V-A:TYR:484:CD2:4344, V-B:LYS:547:CG:9920, V-A:TYR:484:CG:4342, V-A:TYR:484:CE2:4346, V-A:TYR:484:CB:4341, V-A:TYR:484:CD1:4343, V-A:TYR:484:C:4337, V-B:VAL:542:CG1:9871, V-B:GLU:357:CB:8105, H-A:ASP:473:OD1:4241, V-B:LYS:547:CA:9917, V-B:ARG:356:CB:8088, V-B:ARG:356:CG:8089, H-A:ASP:473:OD2:4242, V-B:ARG:356:CD:8090, V-B:GLU:357:CA:8103"]

$$$$
RR28_Rahimova_2017
     RDKit          3D

 82 85  0  0  0  0  0  0  0  0999 V2000
  134.1860  125.1340   64.5850 C   0  0  0  0  0  0  0  0  0  0  0  0
  132.8180  124.4620   64.6020 C   0  0  0  0  0  0  0  0  0  0  0  0
  132.7420  123.2440   64.7520 O   0  0  0  0  0  0  0  0  0  0  0  0
  131.7520  125.2730   64.4450 N   0  0  0  0  0  0  0  0  0  0  0  0
  130.3180  124.9040   64.4110 C   0  0  0  0  0  0  0  0  0  0  0  0
  129.6650  125.3700   65.7440 C   0  0  0  0  0  0  0  0  0  0  0  0
  128.6320  126.3190   65.7090 C   0  0  0  0  0  0  0  0  0  0  0  0
  128.0270  126.7610   66.8820 C   0  0  0  0  0  0  0  0  0  0  0  0
  128.4440  126.2660   68.1180 C   0  0  0  0  0  0  0  0  0  0  0  0
  127.7720  126.7670   69.3960 C   0  0  0  0  0  0  0  0  0  0  0  0
  127.5990  125.7940   70.2930 F   0  0  0  0  0  0  0  0  0  0  0  0
  128.5080  127.7230   69.9620 F   0  0  0  0  0  0  0  0  0  0  0  0
  126.5750  127.2710   69.0920 F   0  0  0  0  0  0  0  0  0  0  0  0
  129.4730  125.3220   68.1670 C   0  0  0  0  0  0  0  0  0  0  0  0
  130.0770  124.8800   66.9930 C   0  0  0  0  0  0  0  0  0  0  0  0
  130.1510  123.3690   64.1280 C   0  0  0  0  0  0  0  0  0  0  0  0
  130.6350  122.9480   62.7170 C   0  0  0  0  0  0  0  0  0  0  0  0
  129.8460  123.7340   61.7550 N   0  0  0  0  0  0  0  0  0  0  0  0
  128.7030  123.2220   61.2230 C   0  0  0  0  0  0  0  0  0  0  0  0
  128.3760  122.0440   61.3860 O   0  0  0  0  0  0  0  0  0  0  0  0
  127.8730  124.0950   60.2510 C   0  0  0  0  0  0  0  0  0  0  0  0
  127.6290  125.5630   60.6970 C   0  0  0  0  0  0  0  0  0  0  0  0
  127.9600  126.6360   59.6330 C   0  0  0  0  0  0  0  0  0  0  0  0
  128.5060  126.2660   58.5890 O   0  0  0  0  0  0  0  0  0  0  0  0
  127.5250  127.9160   59.8060 N   0  0  0  0  0  0  0  0  0  0  0  0
  127.1670  128.4770   61.1140 C   0  0  0  0  0  0  0  0  0  0  0  0
  128.4790  128.9860   61.7500 C   0  0  0  0  0  0  0  0  0  0  0  0
  129.2660  130.0300   60.8830 C   0  0  0  0  0  0  0  0  0  0  0  0
  130.6530  130.1300   61.3860 N   0  0  0  0  0  0  0  0  0  0  0  0
  131.6770  130.8350   60.8650 C   0  0  0  0  0  0  0  0  0  0  0  0
  133.0110  130.7300   61.5980 C   0  0  0  0  0  0  0  0  0  0  0  0
  131.5910  131.5340   59.8570 O   0  0  0  0  0  0  0  0  0  0  0  0
  128.5860  131.4220   61.0950 C   0  0  0  0  0  0  0  0  0  0  0  0
  127.9170  131.7700   62.2810 C   0  0  0  0  0  0  0  0  0  0  0  0
  127.3250  133.0210   62.4300 C   0  0  0  0  0  0  0  0  0  0  0  0
  127.3850  133.9570   61.3950 C   0  0  0  0  0  0  0  0  0  0  0  0
  126.7430  135.3360   61.5440 C   0  0  0  0  0  0  0  0  0  0  0  0
  127.2520  135.9790   62.5970 F   0  0  0  0  0  0  0  0  0  0  0  0
  126.9880  136.0530   60.4480 F   0  0  0  0  0  0  0  0  0  0  0  0
  125.4210  135.2610   61.7090 F   0  0  0  0  0  0  0  0  0  0  0  0
  128.0380  133.6230   60.2080 C   0  0  0  0  0  0  0  0  0  0  0  0
  128.6290  132.3720   60.0620 C   0  0  0  0  0  0  0  0  0  0  0  0
  129.2590  129.5580   59.3780 C   0  0  0  0  0  0  0  0  0  0  0  0
  127.9230  128.9640   58.8570 C   0  0  0  0  0  0  0  0  0  0  0  0
  130.1090  125.1780   61.8270 C   0  0  0  0  0  0  0  0  0  0  0  0
  129.6340  125.6570   63.2230 C   0  0  0  0  0  0  0  0  0  0  0  0
  134.5255  125.3008   65.6179 H   0  0  0  0  0  0  0  0  0  0  0  0
  134.9059  124.4870   64.0624 H   0  0  0  0  0  0  0  0  0  0  0  0
  134.1139  126.0992   64.0624 H   0  0  0  0  0  0  0  0  0  0  0  0
  131.9390  126.2550   64.3080 H   0  0  0  0  0  0  0  0  0  0  0  0
  128.2957  126.7192   64.7411 H   0  0  0  0  0  0  0  0  0  0  0  0
  127.2169  127.5036   66.8344 H   0  0  0  0  0  0  0  0  0  0  0  0
  129.8073  124.9263   69.1374 H   0  0  0  0  0  0  0  0  0  0  0  0
  130.8871  124.1376   67.0450 H   0  0  0  0  0  0  0  0  0  0  0  0
  130.7320  122.8109   64.8770 H   0  0  0  0  0  0  0  0  0  0  0  0
  129.0759  123.1432   64.1838 H   0  0  0  0  0  0  0  0  0  0  0  0
  131.7063  123.1689   62.6007 H   0  0  0  0  0  0  0  0  0  0  0  0
  130.5004  121.8683   62.5551 H   0  0  0  0  0  0  0  0  0  0  0  0
  128.4003  124.1192   59.2859 H   0  0  0  0  0  0  0  0  0  0  0  0
  126.8780  123.6280   60.2073 H   0  0  0  0  0  0  0  0  0  0  0  0
  126.5672  125.6655   60.9654 H   0  0  0  0  0  0  0  0  0  0  0  0
  128.3134  125.7451   61.5387 H   0  0  0  0  0  0  0  0  0  0  0  0
  126.4582  129.3088   60.9890 H   0  0  0  0  0  0  0  0  0  0  0  0
  126.6845  127.7212   61.7511 H   0  0  0  0  0  0  0  0  0  0  0  0
  128.2327  129.4567   62.7132 H   0  0  0  0  0  0  0  0  0  0  0  0
  129.1353  128.1092   61.8520 H   0  0  0  0  0  0  0  0  0  0  0  0
  130.8500  129.5670   62.1990 H   0  0  0  0  0  0  0  0  0  0  0  0
  132.8349  130.7439   62.6837 H   0  0  0  0  0  0  0  0  0  0  0  0
  133.5095  129.7898   61.3194 H   0  0  0  0  0  0  0  0  0  0  0  0
  133.6504  131.5806   61.3194 H   0  0  0  0  0  0  0  0  0  0  0  0
  127.8603  131.0426   63.1042 H   0  0  0  0  0  0  0  0  0  0  0  0
  126.8075  133.2736   63.3672 H   0  0  0  0  0  0  0  0  0  0  0  0
  128.0857  134.3512   59.3849 H   0  0  0  0  0  0  0  0  0  0  0  0
  129.1393  132.1226   59.1200 H   0  0  0  0  0  0  0  0  0  0  0  0
  129.5077  130.4273   58.7516 H   0  0  0  0  0  0  0  0  0  0  0  0
  129.9901  128.7381   59.3211 H   0  0  0  0  0  0  0  0  0  0  0  0
  127.1521  129.7474   58.8129 H   0  0  0  0  0  0  0  0  0  0  0  0
  128.0425  128.5535   57.8435 H   0  0  0  0  0  0  0  0  0  0  0  0
  131.1850  125.3723   61.7070 H   0  0  0  0  0  0  0  0  0  0  0  0
  129.5776  125.7139   61.0267 H   0  0  0  0  0  0  0  0  0  0  0  0
  129.8575  126.7299   63.3169 H   0  0  0  0  0  0  0  0  0  0  0  0
  128.5562  125.4464   63.2862 H   0  0  0  0  0  0  0  0  0  0  0  0
  1  2  1  0
  2  3  2  0
  2  4  1  0
  4  5  1  0
  5  6  1  0
  6  7  2  0
  7  8  1  0
  8  9  2  0
  9 10  1  0
 10 11  1  0
 10 12  1  0
 10 13  1  0
  9 14  1  0
 14 15  2  0
  5 16  1  0
 16 17  1  0
 17 18  1  0
 18 19  1  0
 19 20  2  0
 19 21  1  0
 21 22  1  0
 22 23  1  0
 23 24  2  0
 23 25  1  0
 25 26  1  0
 26 27  1  0
 27 28  1  0
 28 29  1  0
 29 30  1  0
 30 31  1  0
 30 32  2  0
 28 33  1  0
 33 34  2  0
 34 35  1  0
 35 36  2  0
 36 37  1  0
 37 38  1  0
 37 39  1  0
 37 40  1  0
 36 41  1  0
 41 42  2  0
 28 43  1  0
 43 44  1  0
 18 45  1  0
 45 46  1  0
 46  5  1  0
 15  6  1  0
 44 25  1  0
 42 33  1  0
  1 47  1  0
  1 48  1  0
  1 49  1  0
  4 50  1  0
  7 51  1  0
  8 52  1  0
 14 53  1  0
 15 54  1  0
 16 55  1  0
 16 56  1  0
 17 57  1  0
 17 58  1  0
 21 59  1  0
 21 60  1  0
 22 61  1  0
 22 62  1  0
 26 63  1  0
 26 64  1  0
 27 65  1  0
 27 66  1  0
 29 67  1  0
 31 68  1  0
 31 69  1  0
 31 70  1  0
 34 71  1  0
 35 72  1  0
 41 73  1  0
 42 74  1  0
 43 75  1  0
 43 76  1  0
 44 77  1  0
 44 78  1  0
 45 79  1  0
 45 80  1  0
 46 81  1  0
 46 82  1  0
M  END
>  <Binding energies>  (1) 
[-9.1]

>  <Ligand effiencies>  (1) 
[-0.18958333333333333]

>  <Interactions>  (1) 
["V-B:GLU:543:CD:9880, H-B:ALA:541:N:9863, V-A:TYR:539:C:4867, V-B:PRO:482:CB:9297, V-A:GLU:543:CD:4908, V-A:TYR:539:CE2:4876, V-B:PRO:482:CG:9298, V-A:PRO:540:CB:4885, V-A:PRO:540:CA:4883, V-A:TYR:539:CD2:4874, V-B:LEU:475:CD1:9229, V-A:ALA:541:CB:4892, V-B:GLU:543:C:9874, V-B:GLU:543:CB:9878, V-B:GLY:544:C:9884, V-B:HIS:456:CD2:9039, V-B:ARG:545:CA:9891, V-B:HIS:456:CE1:9040, V-B:ARG:545:CG:9894, V-A:HIS:456:CE1:4069, H-A:GLY:454:N:4050, V-B:GLU:543:CG:9879, V-A:TYR:484:CE1:4345, V-A:GLY:453:C:4042, V-A:TYR:484:CZ:4347, H-A:TYR:484:OH:4348, V-B:GLY:544:CA:9886, V-B:TRP:381:CH2:8343, H-A:GLU:543:OE2:4910, V-A:ASN:362:CB:3176, V-A:ARG:545:CZ:4926, H-A:GLU:543:OE1:4909, V-A:GLY:453:CA:4044, V-A:ARG:545:CD:4923, V-B:TRP:381:CZ2:8341, V-B:LEU:475:CG:9228, V-B:LEU:475:CD2:9230, V-B:TRP:381:CZ3:8342"]

$$$$
RR29_Rahimova_2017
     RDKit          3D

 35 36  0  0  0  0  0  0  0  0999 V2000
  128.6800  133.7070   60.7160 C   0  0  0  0  0  0  0  0  0  0  0  0
  129.0920  132.2530   60.8920 C   0  0  0  0  0  0  0  0  0  0  0  0
  128.0720  131.2610   60.2890 C   0  0  0  0  0  0  0  0  0  0  0  0
  127.7690  131.5820   58.8100 C   0  0  0  0  0  0  0  0  0  0  0  0
  129.0070  131.4800   57.9330 C   0  0  0  0  0  0  0  0  0  0  0  0
  129.7400  130.2780   57.8850 C   0  0  0  0  0  0  0  0  0  0  0  0
  130.8830  130.1620   57.0820 C   0  0  0  0  0  0  0  0  0  0  0  0
  131.2690  131.2790   56.3490 C   0  0  0  0  0  0  0  0  0  0  0  0
  130.5640  132.4490   56.3930 C   0  0  0  0  0  0  0  0  0  0  0  0
  129.4210  132.5890   57.1720 C   0  0  0  0  0  0  0  0  0  0  0  0
  131.1420  133.3540   55.5600 O   0  0  0  0  0  0  0  0  0  0  0  0
  132.3560  132.7770   55.1580 C   0  0  0  0  0  0  0  0  0  0  0  0
  132.3100  131.4140   55.4860 O   0  0  0  0  0  0  0  0  0  0  0  0
  130.1880  131.9950   61.5030 N   0  0  0  0  0  0  0  0  0  0  0  0
  130.5200  130.6780   61.7380 N   0  0  0  0  0  0  0  0  0  0  0  0
  131.4190  129.9890   61.0160 C   0  0  0  0  0  0  0  0  0  0  0  0
  132.1180  130.4860   59.9950 N   0  0  0  0  0  0  0  0  0  0  0  0
  131.6290  128.7220   61.3410 N   0  0  0  0  0  0  0  0  0  0  0  0
  128.5480  134.1728   61.7037 H   0  0  0  0  0  0  0  0  0  0  0  0
  129.4612  134.2446   60.1585 H   0  0  0  0  0  0  0  0  0  0  0  0
  127.7329  133.7548   60.1585 H   0  0  0  0  0  0  0  0  0  0  0  0
  128.4827  130.2428   60.3558 H   0  0  0  0  0  0  0  0  0  0  0  0
  127.1340  131.3459   60.8574 H   0  0  0  0  0  0  0  0  0  0  0  0
  127.0144  130.8717   58.4411 H   0  0  0  0  0  0  0  0  0  0  0  0
  127.4038  132.6183   58.7581 H   0  0  0  0  0  0  0  0  0  0  0  0
  129.4106  129.4179   58.4864 H   0  0  0  0  0  0  0  0  0  0  0  0
  131.4533  129.2226   57.0334 H   0  0  0  0  0  0  0  0  0  0  0  0
  128.8593  133.5346   57.1928 H   0  0  0  0  0  0  0  0  0  0  0  0
  132.4863  132.8968   54.0723 H   0  0  0  0  0  0  0  0  0  0  0  0
  133.2013  133.2665   55.6639 H   0  0  0  0  0  0  0  0  0  0  0  0
  130.0270  130.2140   62.4870 H   0  0  0  0  0  0  0  0  0  0  0  0
  132.9770  130.0410   59.7040 H   0  0  0  0  0  0  0  0  0  0  0  0
  131.7890  131.3160   59.5240 H   0  0  0  0  0  0  0  0  0  0  0  0
  130.9310  128.2120   61.8640 H   0  0  0  0  0  0  0  0  0  0  0  0
  132.4840  128.2660   61.0580 H   0  0  0  0  0  0  0  0  0  0  0  0
  1  2  1  0
  2  3  1  0
  3  4  1  0
  4  5  1  0
  5  6  2  0
  6  7  1  0
  7  8  2  0
  8  9  1  0
  9 10  2  0
  9 11  1  0
 11 12  1  0
 12 13  1  0
  2 14  2  0
 14 15  1  0
 15 16  1  0
 16 17  1  0
 16 18  2  0
 10  5  1  0
 13  8  1  0
  1 19  1  0
  1 20  1  0
  1 21  1  0
  3 22  1  0
  3 23  1  0
  4 24  1  0
  4 25  1  0
  6 26  1  0
  7 27  1  0
 10 28  1  0
 12 29  1  0
 12 30  1  0
 15 31  1  0
 17 32  1  0
 17 33  1  0
 18 34  1  0
 18 35  1  0
M  CHG  1  18   1
M  END
>  <Binding energies>  (1) 
[-6.96]

>  <Ligand effiencies>  (1) 
[-0.3026086956521739]

>  <Interactions>  (1) 
["V-A:PRO:540:CD:4887, V-A:PRO:540:N:4884, V-A:TYR:539:C:4867, V-A:ILE:538:CD1:4865, H-A:ASP:366:OD1:3214, V-A:ASP:366:CG:3213, V-A:ILE:538:CA:4860, V-A:LEU:363:CD1:3189, V-A:GLU:543:CD:4908, V-A:TYR:539:CE2:4876, V-A:PRO:540:C:4881, H-A:TYR:531:OH:4795, V-A:PRO:540:CB:4885, V-A:PRO:540:CA:4883, V-A:TYR:539:CD2:4874, V-A:ILE:538:CG2:4863, V-A:ALA:541:CB:4892, H-A:ALA:541:N:4891, H-A:GLU:543:OE2:4910, H-A:GLU:543:OE1:4909, V-A:TYR:539:CE1:4875, V-A:TYR:539:CD1:4873, V-A:TYR:539:CZ:4877, H-A:TYR:539:N:4870, V-A:TYR:539:CG:4872, V-A:ILE:538:CB:4862, H-A:ASP:366:OD2:3215"]

$$$$
RR29_Rahimova_2017-again1
     RDKit          3D

 34 35  0  0  0  0  0  0  0  0999 V2000
  128.1520  132.2330   62.7750 C   0  0  0  0  0  0  0  0  0  0  0  0
  129.2070  132.2910   61.6810 C   0  0  0  0  0  0  0  0  0  0  0  0
  128.6810  132.8600   60.3500 C   0  0  0  0  0  0  0  0  0  0  0  0
  128.3290  131.7350   59.3530 C   0  0  0  0  0  0  0  0  0  0  0  0
  129.3970  131.5560   58.2850 C   0  0  0  0  0  0  0  0  0  0  0  0
  130.0220  130.3040   58.1190 C   0  0  0  0  0  0  0  0  0  0  0  0
  131.0080  130.1160   57.1400 C   0  0  0  0  0  0  0  0  0  0  0  0
  131.3480  131.2090   56.3520 C   0  0  0  0  0  0  0  0  0  0  0  0
  130.7470  132.4270   56.5100 C   0  0  0  0  0  0  0  0  0  0  0  0
  129.7600  132.6390   57.4660 C   0  0  0  0  0  0  0  0  0  0  0  0
  131.2450  133.2960   55.5920 O   0  0  0  0  0  0  0  0  0  0  0  0
  132.3320  132.6380   54.9990 C   0  0  0  0  0  0  0  0  0  0  0  0
  132.2410  131.2780   55.3300 O   0  0  0  0  0  0  0  0  0  0  0  0
  130.3950  131.8650   61.9320 N   0  0  0  0  0  0  0  0  0  0  0  0
  131.2560  131.9050   60.9660 N   0  0  0  0  0  0  0  0  0  0  0  0
  131.9160  130.8330   60.7190 C   0  0  0  0  0  0  0  0  0  0  0  0
  131.8290  129.5780   61.3830 N   0  0  0  0  0  0  0  0  0  0  0  0
  132.8710  130.7840   59.6810 N   0  0  0  0  0  0  0  0  0  0  0  0
  128.6425  132.2600   63.7592 H   0  0  0  0  0  0  0  0  0  0  0  0
  127.4759  133.0953   62.6785 H   0  0  0  0  0  0  0  0  0  0  0  0
  127.5745  131.3018   62.6785 H   0  0  0  0  0  0  0  0  0  0  0  0
  127.7786  133.4570   60.5483 H   0  0  0  0  0  0  0  0  0  0  0  0
  129.4716  133.4813   59.9040 H   0  0  0  0  0  0  0  0  0  0  0  0
  128.2217  130.7913   59.9078 H   0  0  0  0  0  0  0  0  0  0  0  0
  127.3917  132.0130   58.8488 H   0  0  0  0  0  0  0  0  0  0  0  0
  129.7325  129.4629   58.7661 H   0  0  0  0  0  0  0  0  0  0  0  0
  131.4945  129.1393   57.0008 H   0  0  0  0  0  0  0  0  0  0  0  0
  129.2790  133.6220   57.5777 H   0  0  0  0  0  0  0  0  0  0  0  0
  132.2934  132.7609   53.9066 H   0  0  0  0  0  0  0  0  0  0  0  0
  133.2812  133.0595   55.3615 H   0  0  0  0  0  0  0  0  0  0  0  0
  131.2010  129.4250   62.1600 H   0  0  0  0  0  0  0  0  0  0  0  0
  132.3950  128.7860   61.1220 H   0  0  0  0  0  0  0  0  0  0  0  0
  133.0740  131.5850   59.1010 H   0  0  0  0  0  0  0  0  0  0  0  0
  133.4030  129.9530   59.4740 H   0  0  0  0  0  0  0  0  0  0  0  0
  1  2  1  0
  2  3  1  0
  3  4  1  0
  4  5  1  0
  5  6  2  0
  6  7  1  0
  7  8  2  0
  8  9  1  0
  9 10  2  0
  9 11  1  0
 11 12  1  0
 12 13  1  0
  2 14  2  0
 14 15  1  0
 15 16  2  0
 16 17  1  0
 16 18  1  0
 10  5  1  0
 13  8  1  0
  1 19  1  0
  1 20  1  0
  1 21  1  0
  3 22  1  0
  3 23  1  0
  4 24  1  0
  4 25  1  0
  6 26  1  0
  7 27  1  0
 10 28  1  0
 12 29  1  0
 12 30  1  0
 17 31  1  0
 17 32  1  0
 18 33  1  0
 18 34  1  0
M  END
>  <Binding energies>  (1) 
[-7.05]

>  <Ligand effiencies>  (1) 
[-0.32045454545454544]

>  <Interactions>  (1) 
["V-A:PRO:540:CD:4887, V-A:PRO:540:N:4884, V-A:TYR:539:C:4867, V-A:TYR:531:CE2:4793, V-A:ILE:538:CD1:4865, H-A:ASP:366:OD1:3214, V-A:ILE:538:CA:4860, V-A:LEU:363:CD1:3189, V-A:GLU:543:CD:4908, H-A:TYR:531:OH:4795, V-A:PRO:540:CB:4885, V-A:PRO:540:CA:4883, V-A:ILE:538:CG2:4863, V-A:ALA:541:CB:4892, H-A:ALA:541:N:4891, H-A:GLU:543:OE2:4910, H-A:GLU:543:OE1:4909, V-A:TYR:539:CD1:4873, H-A:TYR:539:N:4870, V-A:TYR:539:CG:4872, V-A:TYR:539:CA:4869, V-A:ILE:538:CB:4862"]

$$$$
RR2_Rahimova_2017
     RDKit          3D

 76 80  0  0  0  0  0  0  0  0999 V2000
  134.0880  129.7220   57.1550 C   0  0  0  0  0  0  0  0  0  0  0  0
  133.2360  130.6060   56.4350 O   0  0  0  0  0  0  0  0  0  0  0  0
  131.9870  130.9060   56.9460 C   0  0  0  0  0  0  0  0  0  0  0  0
  131.2620  130.0670   57.8040 C   0  0  0  0  0  0  0  0  0  0  0  0
  130.0060  130.4520   58.2670 C   0  0  0  0  0  0  0  0  0  0  0  0
  129.4470  131.6790   57.8830 C   0  0  0  0  0  0  0  0  0  0  0  0
  128.0750  132.0720   58.3960 C   0  0  0  0  0  0  0  0  0  0  0  0
  127.9380  133.0780   59.1010 O   0  0  0  0  0  0  0  0  0  0  0  0
  127.0570  131.2530   58.0440 N   0  0  0  0  0  0  0  0  0  0  0  0
  125.7940  131.5150   58.5640 N   0  0  0  0  0  0  0  0  0  0  0  0
  124.9390  130.4830   58.7140 C   0  0  0  0  0  0  0  0  0  0  0  0
  125.1170  129.3480   58.2620 O   0  0  0  0  0  0  0  0  0  0  0  0
  123.6760  130.7840   59.5320 C   0  0  0  0  0  0  0  0  0  0  0  0
  123.8390  132.1560   60.7330 S   0  0  0  0  0  0  0  0  0  0  0  0
  124.0450  131.2500   62.2360 C   0  0  0  0  0  0  0  0  0  0  0  0
  123.0380  130.8240   62.9560 N   0  0  0  0  0  0  0  0  0  0  0  0
  123.5620  130.2240   64.0920 N   0  0  0  0  0  0  0  0  0  0  0  0
  124.8700  130.2830   64.0020 C   0  0  0  0  0  0  0  0  0  0  0  0
  125.7910  129.7220   65.0360 C   0  0  0  0  0  0  0  0  0  0  0  0
  125.2870  128.8850   66.0350 C   0  0  0  0  0  0  0  0  0  0  0  0
  126.1350  128.3640   67.0070 C   0  0  0  0  0  0  0  0  0  0  0  0
  127.5020  128.6610   66.9790 C   0  0  0  0  0  0  0  0  0  0  0  0
  128.4020  128.1730   67.9380 N   0  0  0  0  0  0  0  0  0  0  0  0
  128.6010  126.4570   68.3580 S   0  0  0  0  0  0  0  0  0  0  0  0
  127.2440  125.9130   68.4870 O   0  0  0  0  0  0  0  0  0  0  0  0
  129.5550  126.3680   69.4700 O   0  0  0  0  0  0  0  0  0  0  0  0
  129.3250  125.6990   66.9060 C   0  0  0  0  0  0  0  0  0  0  0  0
  129.8010  126.4870   65.8550 C   0  0  0  0  0  0  0  0  0  0  0  0
  130.3450  125.8780   64.7280 C   0  0  0  0  0  0  0  0  0  0  0  0
  130.4200  124.4850   64.6540 C   0  0  0  0  0  0  0  0  0  0  0  0
  131.0010  123.8220   63.4180 C   0  0  0  0  0  0  0  0  0  0  0  0
  129.9400  123.7000   65.7050 C   0  0  0  0  0  0  0  0  0  0  0  0
  129.3940  124.3070   66.8320 C   0  0  0  0  0  0  0  0  0  0  0  0
  128.0050  129.4940   65.9790 C   0  0  0  0  0  0  0  0  0  0  0  0
  127.1560  130.0210   65.0110 C   0  0  0  0  0  0  0  0  0  0  0  0
  125.2490  130.9320   62.8390 N   0  0  0  0  0  0  0  0  0  0  0  0
  126.5500  131.2400   62.3900 C   0  0  0  0  0  0  0  0  0  0  0  0
  127.0360  132.5430   62.5050 C   0  0  0  0  0  0  0  0  0  0  0  0
  128.3230  132.8390   62.0650 C   0  0  0  0  0  0  0  0  0  0  0  0
  129.1300  131.8460   61.5090 C   0  0  0  0  0  0  0  0  0  0  0  0
  130.3910  132.2360   61.1000 O   0  0  0  0  0  0  0  0  0  0  0  0
  131.5060  131.3970   61.3880 C   0  0  0  0  0  0  0  0  0  0  0  0
  128.6320  130.5370   61.3970 C   0  0  0  0  0  0  0  0  0  0  0  0
  127.3470  130.2350   61.8380 C   0  0  0  0  0  0  0  0  0  0  0  0
  130.1820  132.5160   57.0300 C   0  0  0  0  0  0  0  0  0  0  0  0
  131.4380  132.1290   56.5690 C   0  0  0  0  0  0  0  0  0  0  0  0
  133.9434  129.8720   58.2351 H   0  0  0  0  0  0  0  0  0  0  0  0
  133.8428  128.6821   56.8932 H   0  0  0  0  0  0  0  0  0  0  0  0
  135.1362  129.9287   56.8932 H   0  0  0  0  0  0  0  0  0  0  0  0
  131.6869  129.1005   58.1129 H   0  0  0  0  0  0  0  0  0  0  0  0
  129.4469  129.7863   58.9410 H   0  0  0  0  0  0  0  0  0  0  0  0
  127.2010  130.2640   57.8950 H   0  0  0  0  0  0  0  0  0  0  0  0
  125.7600  132.3520   59.1300 H   0  0  0  0  0  0  0  0  0  0  0  0
  122.8681  131.0391   58.8304 H   0  0  0  0  0  0  0  0  0  0  0  0
  123.4715  129.8801   60.1246 H   0  0  0  0  0  0  0  0  0  0  0  0
  124.2155  128.6371   66.0529 H   0  0  0  0  0  0  0  0  0  0  0  0
  125.7300  127.7172   67.7992 H   0  0  0  0  0  0  0  0  0  0  0  0
  128.9980  128.8400   68.4050 H   0  0  0  0  0  0  0  0  0  0  0  0
  129.7460  127.5838   65.9180 H   0  0  0  0  0  0  0  0  0  0  0  0
  130.7160  126.4937   63.8953 H   0  0  0  0  0  0  0  0  0  0  0  0
  131.6978  123.0269   63.7217 H   0  0  0  0  0  0  0  0  0  0  0  0
  130.1876  123.3874   62.8184 H   0  0  0  0  0  0  0  0  0  0  0  0
  131.5386  124.5713   62.8184 H   0  0  0  0  0  0  0  0  0  0  0  0
  129.9935  122.6031   65.6419 H   0  0  0  0  0  0  0  0  0  0  0  0
  129.0178  123.6913   67.6623 H   0  0  0  0  0  0  0  0  0  0  0  0
  129.0780  129.7352   65.9559 H   0  0  0  0  0  0  0  0  0  0  0  0
  127.5601  130.6747   64.2240 H   0  0  0  0  0  0  0  0  0  0  0  0
  126.4055  133.3319   62.9410 H   0  0  0  0  0  0  0  0  0  0  0  0
  128.7074  133.8656   62.1565 H   0  0  0  0  0  0  0  0  0  0  0  0
  131.6254  131.3071   62.4778 H   0  0  0  0  0  0  0  0  0  0  0  0
  131.3367  130.4004   60.9543 H   0  0  0  0  0  0  0  0  0  0  0  0
  132.4167  131.8357   60.9543 H   0  0  0  0  0  0  0  0  0  0  0  0
  129.2604  129.7476   60.9589 H   0  0  0  0  0  0  0  0  0  0  0  0
  126.9607  129.2087   61.7521 H   0  0  0  0  0  0  0  0  0  0  0  0
  129.7630  133.4856   56.7229 H   0  0  0  0  0  0  0  0  0  0  0  0
  132.0020  132.7961   55.9004 H   0  0  0  0  0  0  0  0  0  0  0  0
  1  2  1  0
  2  3  1  0
  3  4  2  0
  4  5  1  0
  5  6  2  0
  6  7  1  0
  7  8  2  0
  7  9  1  0
  9 10  1  0
 10 11  1  0
 11 12  2  0
 11 13  1  0
 13 14  1  0
 14 15  1  0
 15 16  2  0
 16 17  1  0
 17 18  2  0
 18 19  1  0
 19 20  2  0
 20 21  1  0
 21 22  2  0
 22 23  1  0
 23 24  1  0
 24 25  2  0
 24 26  2  0
 24 27  1  0
 27 28  2  0
 28 29  1  0
 29 30  2  0
 30 31  1  0
 30 32  1  0
 32 33  2  0
 22 34  1  0
 34 35  2  0
 18 36  1  0
 36 37  1  0
 37 38  2  0
 38 39  1  0
 39 40  2  0
 40 41  1  0
 41 42  1  0
 40 43  1  0
 43 44  2  0
  6 45  1  0
 45 46  2  0
 46  3  1  0
 36 15  1  0
 44 37  1  0
 35 19  1  0
 33 27  1  0
  1 47  1  0
  1 48  1  0
  1 49  1  0
  4 50  1  0
  5 51  1  0
  9 52  1  0
 10 53  1  0
 13 54  1  0
 13 55  1  0
 20 56  1  0
 21 57  1  0
 23 58  1  0
 28 59  1  0
 29 60  1  0
 31 61  1  0
 31 62  1  0
 31 63  1  0
 32 64  1  0
 33 65  1  0
 34 66  1  0
 35 67  1  0
 38 68  1  0
 39 69  1  0
 42 70  1  0
 42 71  1  0
 42 72  1  0
 43 73  1  0
 44 74  1  0
 45 75  1  0
 46 76  1  0
M  END
>  <Binding energies>  (1) 
[-10.52]

>  <Ligand effiencies>  (1) 
[-0.2146938775510204]

>  <Interactions>  (1) 
["V-B:ASP:366:CG:8184, V-A:PRO:540:CD:4887, V-A:PRO:540:N:4884, V-A:ASP:366:CB:3212, V-A:TYR:539:C:4867, V-A:TYR:531:CE2:4793, V-A:TYR:531:CZ:4794, V-A:ASP:366:CG:3213, V-A:LEU:363:CD1:3189, V-A:GLU:543:CD:4908, V-A:TYR:539:CE2:4876, H-A:TYR:531:OH:4795, V-A:PRO:540:CB:4885, V-A:PRO:540:CA:4883, V-A:TYR:539:CD2:4874, V-B:LEU:475:CD1:9229, V-A:ALA:541:CB:4892, H-A:ALA:541:N:4891, V-B:ASP:366:CB:8183, V-B:GLU:543:C:9874, V-B:GLU:543:CB:9878, V-B:HIS:456:CE1:9040, V-B:ARG:545:CG:9894, V-A:HIS:456:CE1:4069, H-B:ARG:545:NE:9896, V-A:GLU:543:CB:4906, H-B:GLY:454:N:9021, H-A:HIS:456:NE2:4070, V-B:ARG:545:CD:9895, V-B:ARG:545:CZ:9898, V-B:GLU:543:CG:9879, V-A:TYR:484:CE1:4345, H-B:ARG:545:NH2:9900, V-B:GLU:543:CA:9876, H-B:ARG:545:NH1:9899, V-A:TYR:484:CZ:4347, V-A:TYR:539:CE1:4875, V-A:TYR:539:CZ:4877, H-A:TYR:539:OH:4878, V-A:LEU:363:CA:3185, V-B:ASP:366:CA:8181, H-A:GLU:543:O:4903"]

$$$$
RR30_Rahimova_2017
     RDKit          3D

 29 30  0  0  0  0  0  0  0  0999 V2000
  130.4700  126.4240   56.6230 C   0  0  0  0  0  0  0  0  0  0  0  0
  131.7300  126.4950   57.4970 C   0  0  0  0  0  0  0  0  0  0  0  0
  132.1560  125.1330   57.9980 C   0  0  0  0  0  0  0  0  0  0  0  0
  133.2020  124.4290   57.6420 N   0  0  0  0  0  0  0  0  0  0  0  0
  133.1410  123.2510   58.3830 N   0  0  0  0  0  0  0  0  0  0  0  0
  132.0590  123.3400   59.1140 C   0  0  0  0  0  0  0  0  0  0  0  0
  131.4460  122.1620   60.2750 S   0  0  0  0  0  0  0  0  0  0  0  0
  129.9700  123.0470   60.8690 C   0  0  0  0  0  0  0  0  0  0  0  0
  128.7320  122.7430   60.0200 C   0  0  0  0  0  0  0  0  0  0  0  0
  127.7920  122.1270   60.5260 O   0  0  0  0  0  0  0  0  0  0  0  0
  128.7820  123.1560   58.7340 N   0  0  0  0  0  0  0  0  0  0  0  0
  127.7910  122.9940   57.7770 C   0  0  0  0  0  0  0  0  0  0  0  0
  127.4890  121.9130   57.0940 N   0  0  0  0  0  0  0  0  0  0  0  0
  126.4320  122.1210   56.2170 N   0  0  0  0  0  0  0  0  0  0  0  0
  125.9570  123.3450   56.2540 C   0  0  0  0  0  0  0  0  0  0  0  0
  124.8090  123.8140   55.3900 C   0  0  0  0  0  0  0  0  0  0  0  0
  126.7910  124.3610   57.3980 S   0  0  0  0  0  0  0  0  0  0  0  0
  131.3900  124.5060   58.9260 O   0  0  0  0  0  0  0  0  0  0  0  0
  129.5795  126.3738   57.2668 H   0  0  0  0  0  0  0  0  0  0  0  0
  130.4133  127.3204   55.9879 H   0  0  0  0  0  0  0  0  0  0  0  0
  130.5143  125.5269   55.9879 H   0  0  0  0  0  0  0  0  0  0  0  0
  132.5493  126.9260   56.9028 H   0  0  0  0  0  0  0  0  0  0  0  0
  131.4986  127.1194   58.3725 H   0  0  0  0  0  0  0  0  0  0  0  0
  129.7700  122.7450   61.9077 H   0  0  0  0  0  0  0  0  0  0  0  0
  130.1718  124.1260   60.7974 H   0  0  0  0  0  0  0  0  0  0  0  0
  129.6210  123.6270   58.4250 H   0  0  0  0  0  0  0  0  0  0  0  0
  123.9817  124.1520   56.0313 H   0  0  0  0  0  0  0  0  0  0  0  0
  125.1446  124.6471   54.7549 H   0  0  0  0  0  0  0  0  0  0  0  0
  124.4652  122.9842   54.7549 H   0  0  0  0  0  0  0  0  0  0  0  0
  1  2  1  0
  2  3  1  0
  3  4  2  0
  4  5  1  0
  5  6  2  0
  6  7  1  0
  7  8  1  0
  8  9  1  0
  9 10  2  0
  9 11  1  0
 11 12  1  0
 12 13  2  0
 13 14  1  0
 14 15  2  0
 15 16  1  0
 15 17  1  0
  6 18  1  0
 18  3  1  0
 17 12  1  0
  1 19  1  0
  1 20  1  0
  1 21  1  0
  2 22  1  0
  2 23  1  0
  8 24  1  0
  8 25  1  0
 11 26  1  0
 16 27  1  0
 16 28  1  0
 16 29  1  0
M  END
>  <Binding energies>  (1) 
[-6.02]

>  <Ligand effiencies>  (1) 
[-0.31684210526315787]

>  <Interactions>  (1) 
["V-B:ILE:538:CB:9834, V-B:TYR:539:CE2:9848, V-B:TYR:539:CD2:9846, H-B:ALA:541:N:9863, V-B:LEU:363:CD1:8160, V-B:TYR:539:CZ:9849, V-A:ASP:366:CB:3212, V-A:ASP:366:CG:3213, V-B:ILE:538:CG2:9835, V-B:TYR:531:CE2:9765, H-B:TYR:539:OH:9850, H-B:TYR:539:N:9842"]

$$$$
RR31_Rahimova_2017
     RDKit          3D

 44 45  0  0  0  0  0  0  0  0999 V2000
  133.4860  119.5680   61.3970 C   0  0  0  0  0  0  0  0  0  0  0  0
  132.2780  120.4060   61.0000 C   0  0  0  0  0  0  0  0  0  0  0  0
  131.0120  119.8190   61.0020 C   0  0  0  0  0  0  0  0  0  0  0  0
  129.8870  120.5600   60.6470 C   0  0  0  0  0  0  0  0  0  0  0  0
  129.9920  121.9130   60.2870 C   0  0  0  0  0  0  0  0  0  0  0  0
  128.8750  122.6660   59.9190 N   0  0  0  0  0  0  0  0  0  0  0  0
  127.8660  122.1560   58.9700 C   0  0  0  0  0  0  0  0  0  0  0  0
  126.9500  123.2510   58.3740 C   0  0  0  0  0  0  0  0  0  0  0  0
  126.2840  124.0100   59.4360 N   0  0  0  0  0  0  0  0  0  0  0  0
  125.3800  125.0340   58.9010 C   0  0  0  0  0  0  0  0  0  0  0  0
  123.9990  124.4720   58.5070 C   0  0  0  0  0  0  0  0  0  0  0  0
  123.0720  124.3010   59.7200 C   0  0  0  0  0  0  0  0  0  0  0  0
  123.7930  124.7440   60.9980 N   0  0  0  0  0  0  0  0  0  0  0  0
  127.3280  124.6460   60.2390 C   0  0  0  0  0  0  0  0  0  0  0  0
  128.2440  123.5840   60.8880 C   0  0  0  0  0  0  0  0  0  0  0  0
  131.2720  122.4880   60.2800 C   0  0  0  0  0  0  0  0  0  0  0  0
  132.4100  121.7550   60.6330 C   0  0  0  0  0  0  0  0  0  0  0  0
  133.7720  122.4370   60.6030 C   0  0  0  0  0  0  0  0  0  0  0  0
  133.5547  119.5203   62.4938 H   0  0  0  0  0  0  0  0  0  0  0  0
  133.3760  118.5512   60.9920 H   0  0  0  0  0  0  0  0  0  0  0  0
  134.3999  120.0271   60.9920 H   0  0  0  0  0  0  0  0  0  0  0  0
  130.9014  118.7621   61.2863 H   0  0  0  0  0  0  0  0  0  0  0  0
  128.8990  120.0765   60.6488 H   0  0  0  0  0  0  0  0  0  0  0  0
  128.3912  121.6567   58.1424 H   0  0  0  0  0  0  0  0  0  0  0  0
  127.2162  121.4714   59.5349 H   0  0  0  0  0  0  0  0  0  0  0  0
  127.5579  123.9381   57.7671 H   0  0  0  0  0  0  0  0  0  0  0  0
  126.1819  122.7672   57.7528 H   0  0  0  0  0  0  0  0  0  0  0  0
  125.2370  125.8102   59.6672 H   0  0  0  0  0  0  0  0  0  0  0  0
  125.8434  125.4379   57.9888 H   0  0  0  0  0  0  0  0  0  0  0  0
  123.5256  125.1637   57.7946 H   0  0  0  0  0  0  0  0  0  0  0  0
  124.1546  123.4792   58.0596 H   0  0  0  0  0  0  0  0  0  0  0  0
  122.1705  124.9153   59.5789 H   0  0  0  0  0  0  0  0  0  0  0  0
  122.7910  123.2416   59.8129 H   0  0  0  0  0  0  0  0  0  0  0  0
  123.3370  124.3500   61.8090 H   0  0  0  0  0  0  0  0  0  0  0  0
  123.7780  125.7510   61.0740 H   0  0  0  0  0  0  0  0  0  0  0  0
  124.7540  124.4330   60.9830 H   0  0  0  0  0  0  0  0  0  0  0  0
  127.9336  125.2980   59.5923 H   0  0  0  0  0  0  0  0  0  0  0  0
  126.8505  125.2346   61.0362 H   0  0  0  0  0  0  0  0  0  0  0  0
  129.0398  124.1044   61.4411 H   0  0  0  0  0  0  0  0  0  0  0  0
  127.6075  122.9699   61.5420 H   0  0  0  0  0  0  0  0  0  0  0  0
  131.3835  123.5430   59.9893 H   0  0  0  0  0  0  0  0  0  0  0  0
  134.1181  122.6103   61.6327 H   0  0  0  0  0  0  0  0  0  0  0  0
  134.4928  121.7935   60.0773 H   0  0  0  0  0  0  0  0  0  0  0  0
  133.6885  123.3997   60.0773 H   0  0  0  0  0  0  0  0  0  0  0  0
  1  2  1  0
  2  3  2  0
  3  4  1  0
  4  5  2  0
  5  6  1  0
  6  7  1  0
  7  8  1  0
  8  9  1  0
  9 10  1  0
 10 11  1  0
 11 12  1  0
 12 13  1  0
  9 14  1  0
 14 15  1  0
  5 16  1  0
 16 17  2  0
 17 18  1  0
 17  2  1  0
 15  6  1  0
  1 19  1  0
  1 20  1  0
  1 21  1  0
  3 22  1  0
  4 23  1  0
  7 24  1  0
  7 25  1  0
  8 26  1  0
  8 27  1  0
 10 28  1  0
 10 29  1  0
 11 30  1  0
 11 31  1  0
 12 32  1  0
 12 33  1  0
 13 34  1  0
 13 35  1  0
 13 36  1  0
 14 37  1  0
 14 38  1  0
 15 39  1  0
 15 40  1  0
 16 41  1  0
 18 42  1  0
 18 43  1  0
 18 44  1  0
M  CHG  1  13   1
M  END
>  <Binding energies>  (1) 
[-6.41]

>  <Ligand effiencies>  (1) 
[-0.30523809523809525]

>  <Interactions>  (1) 
["V-B:LEU:363:CA:8156, V-B:GLU:543:CD:9880, V-B:ALA:541:CB:9864, V-B:TYR:539:CE2:9848, V-B:TYR:539:CD2:9846, V-B:PRO:540:CB:9857, V-B:PRO:540:N:9856, H-B:ASP:366:OD1:8185, V-B:TYR:539:C:9839, V-B:LEU:363:CD1:8160, V-B:ASP:366:CG:8184, V-B:PRO:540:CA:9855, V-B:ASN:362:CB:8147, V-B:ASN:362:C:8143, H-B:GLU:543:OE2:9882, V-A:LEU:475:CD1:4258, V-B:ARG:545:CZ:9898, V-A:ILE:369:CD1:3239, V-A:TRP:381:CH2:3372, V-A:ILE:369:CG2:3237, H-B:ASP:366:OD2:8186, V-B:LEU:363:CB:8158"]

$$$$
RR32_Rahimova_2017
     RDKit          3D

 37 39  0  0  0  0  0  0  0  0999 V2000
  131.8690  130.8260   60.0850 C   0  0  0  0  0  0  0  0  0  0  0  0
  130.8400  131.4960   59.1800 C   0  0  0  0  0  0  0  0  0  0  0  0
  129.6280  131.8960   59.7430 C   0  0  0  0  0  0  0  0  0  0  0  0
  128.6660  132.5140   58.9480 C   0  0  0  0  0  0  0  0  0  0  0  0
  127.4650  132.9090   59.5100 N   0  0  0  0  0  0  0  0  0  0  0  0
  126.4760  131.8550   59.8020 C   0  0  0  0  0  0  0  0  0  0  0  0
  125.1060  132.4120   60.2550 C   0  0  0  0  0  0  0  0  0  0  0  0
  125.2670  133.2430   61.4470 N   0  0  0  0  0  0  0  0  0  0  0  0
  123.9710  133.7410   61.8930 C   0  0  0  0  0  0  0  0  0  0  0  0
  126.1480  134.3570   61.1050 C   0  0  0  0  0  0  0  0  0  0  0  0
  127.5330  133.8310   60.6610 C   0  0  0  0  0  0  0  0  0  0  0  0
  128.8530  132.7500   57.6240 N   0  0  0  0  0  0  0  0  0  0  0  0
  130.0240  132.3680   57.0450 C   0  0  0  0  0  0  0  0  0  0  0  0
  130.1900  132.6240   55.6620 C   0  0  0  0  0  0  0  0  0  0  0  0
  131.3660  132.2570   55.0180 C   0  0  0  0  0  0  0  0  0  0  0  0
  132.3910  131.6360   55.7220 C   0  0  0  0  0  0  0  0  0  0  0  0
  132.2600  131.3700   57.0820 C   0  0  0  0  0  0  0  0  0  0  0  0
  131.0720  131.7280   57.7840 C   0  0  0  0  0  0  0  0  0  0  0  0
  131.6007  131.0007   61.1374 H   0  0  0  0  0  0  0  0  0  0  0  0
  131.8841  129.7444   59.8851 H   0  0  0  0  0  0  0  0  0  0  0  0
  132.8642  131.2497   59.8851 H   0  0  0  0  0  0  0  0  0  0  0  0
  129.4327  131.7238   60.8117 H   0  0  0  0  0  0  0  0  0  0  0  0
  126.3258  131.2551   58.8923 H   0  0  0  0  0  0  0  0  0  0  0  0
  126.8749  131.2542   60.6326 H   0  0  0  0  0  0  0  0  0  0  0  0
  124.6747  133.0185   59.4450 H   0  0  0  0  0  0  0  0  0  0  0  0
  124.4376  131.5711   60.4918 H   0  0  0  0  0  0  0  0  0  0  0  0
  123.9412  133.7524   62.9925 H   0  0  0  0  0  0  0  0  0  0  0  0
  123.8192  134.7615   61.5114 H   0  0  0  0  0  0  0  0  0  0  0  0
  123.1749  133.0847   61.5114 H   0  0  0  0  0  0  0  0  0  0  0  0
  125.6994  134.9352   60.2838 H   0  0  0  0  0  0  0  0  0  0  0  0
  126.2759  134.9964   61.9909 H   0  0  0  0  0  0  0  0  0  0  0  0
  128.1605  134.6907   60.3833 H   0  0  0  0  0  0  0  0  0  0  0  0
  127.9540  133.2670   61.5063 H   0  0  0  0  0  0  0  0  0  0  0  0
  129.3853  133.1151   55.0953 H   0  0  0  0  0  0  0  0  0  0  0  0
  131.4862  132.4595   53.9435 H   0  0  0  0  0  0  0  0  0  0  0  0
  133.3158  131.3516   55.1987 H   0  0  0  0  0  0  0  0  0  0  0  0
  133.0827  130.8778   57.6214 H   0  0  0  0  0  0  0  0  0  0  0  0
  1  2  1  0
  2  3  2  0
  3  4  1  0
  4  5  1  0
  5  6  1  0
  6  7  1  0
  7  8  1  0
  8  9  1  0
  8 10  1  0
 10 11  1  0
  4 12  2  0
 12 13  1  0
 13 14  2  0
 14 15  1  0
 15 16  2  0
 16 17  1  0
 17 18  2  0
 18  2  1  0
 11  5  1  0
 18 13  1  0
  1 19  1  0
  1 20  1  0
  1 21  1  0
  3 22  1  0
  6 23  1  0
  6 24  1  0
  7 25  1  0
  7 26  1  0
  9 27  1  0
  9 28  1  0
  9 29  1  0
 10 30  1  0
 10 31  1  0
 11 32  1  0
 11 33  1  0
 14 34  1  0
 15 35  1  0
 16 36  1  0
 17 37  1  0
M  END
>  <Binding energies>  (1) 
[-6.25]

>  <Ligand effiencies>  (1) 
[-0.3472222222222222]

>  <Interactions>  (1) 
["V-A:PRO:540:N:4884, V-A:TYR:539:C:4867, V-A:TYR:531:CE2:4793, V-A:ILE:538:CD1:4865, V-A:ILE:538:CA:4860, V-A:LEU:363:CD1:3189, V-A:TYR:539:CE2:4876, V-A:PRO:540:CB:4885, V-A:PRO:540:CA:4883, V-A:TYR:539:CD2:4874, V-B:LEU:475:CD1:9229, V-B:ILE:369:CD1:8210, V-B:ILE:369:CG2:8208, V-A:TYR:539:CE1:4875, V-A:TYR:539:CD1:4873, V-A:TYR:539:CZ:4877"]

$$$$
RR32_Rahimova_2017-again1
     RDKit          3D

 38 40  0  0  0  0  0  0  0  0999 V2000
  127.4920  131.0800   56.9720 C   0  0  0  0  0  0  0  0  0  0  0  0
  128.8880  131.2440   57.5570 C   0  0  0  0  0  0  0  0  0  0  0  0
  129.1300  130.9370   58.8950 C   0  0  0  0  0  0  0  0  0  0  0  0
  130.4150  131.0840   59.4290 C   0  0  0  0  0  0  0  0  0  0  0  0
  130.6780  130.7920   60.7720 N   0  0  0  0  0  0  0  0  0  0  0  0
  129.5730  130.6950   61.7460 C   0  0  0  0  0  0  0  0  0  0  0  0
  128.9430  129.2830   61.7910 C   0  0  0  0  0  0  0  0  0  0  0  0
  130.0280  128.2740   62.2160 N   0  0  0  0  0  0  0  0  0  0  0  0
  129.4580  126.8430   62.2620 C   0  0  0  0  0  0  0  0  0  0  0  0
  131.2020  128.3620   61.2200 C   0  0  0  0  0  0  0  0  0  0  0  0
  131.7140  129.8220   61.1880 C   0  0  0  0  0  0  0  0  0  0  0  0
  131.4470  131.5520   58.6740 N   0  0  0  0  0  0  0  0  0  0  0  0
  131.2420  131.8570   57.3640 C   0  0  0  0  0  0  0  0  0  0  0  0
  132.3400  132.3270   56.6050 C   0  0  0  0  0  0  0  0  0  0  0  0
  132.1760  132.6480   55.2610 C   0  0  0  0  0  0  0  0  0  0  0  0
  130.9340  132.5140   54.6480 C   0  0  0  0  0  0  0  0  0  0  0  0
  129.8340  132.0570   55.3690 C   0  0  0  0  0  0  0  0  0  0  0  0
  129.9620  131.7170   56.7450 C   0  0  0  0  0  0  0  0  0  0  0  0
  126.7600  130.9940   57.7886 H   0  0  0  0  0  0  0  0  0  0  0  0
  127.2489  131.9558   56.3524 H   0  0  0  0  0  0  0  0  0  0  0  0
  127.4585  130.1717   56.3524 H   0  0  0  0  0  0  0  0  0  0  0  0
  128.3087  130.5782   59.5327 H   0  0  0  0  0  0  0  0  0  0  0  0
  129.9618  130.9395   62.7455 H   0  0  0  0  0  0  0  0  0  0  0  0
  128.7891  131.4001   61.4323 H   0  0  0  0  0  0  0  0  0  0  0  0
  128.1179  129.2683   62.5183 H   0  0  0  0  0  0  0  0  0  0  0  0
  128.5486  129.0156   60.7996 H   0  0  0  0  0  0  0  0  0  0  0  0
  130.3650  128.5340   63.1320 H   0  0  0  0  0  0  0  0  0  0  0  0
  129.3338  126.5313   63.3096 H   0  0  0  0  0  0  0  0  0  0  0  0
  128.4823  126.8205   61.7546 H   0  0  0  0  0  0  0  0  0  0  0  0
  130.1510  126.1558   61.7546 H   0  0  0  0  0  0  0  0  0  0  0  0
  132.0126  127.6920   61.5425 H   0  0  0  0  0  0  0  0  0  0  0  0
  130.8673  128.0591   60.2169 H   0  0  0  0  0  0  0  0  0  0  0  0
  132.0625  130.0928   62.1956 H   0  0  0  0  0  0  0  0  0  0  0  0
  132.5239  129.8689   60.4452 H   0  0  0  0  0  0  0  0  0  0  0  0
  133.3263  132.4389   57.0790 H   0  0  0  0  0  0  0  0  0  0  0  0
  133.0355  133.0108   54.6782 H   0  0  0  0  0  0  0  0  0  0  0  0
  130.8202  132.7713   53.5846 H   0  0  0  0  0  0  0  0  0  0  0  0
  128.8582  131.9580   54.8710 H   0  0  0  0  0  0  0  0  0  0  0  0
  1  2  1  0
  2  3  2  0
  3  4  1  0
  4  5  1  0
  5  6  1  0
  6  7  1  0
  7  8  1  0
  8  9  1  0
  8 10  1  0
 10 11  1  0
  4 12  2  0
 12 13  1  0
 13 14  2  0
 14 15  1  0
 15 16  2  0
 16 17  1  0
 17 18  2  0
 18  2  1  0
 11  5  1  0
 18 13  1  0
  1 19  1  0
  1 20  1  0
  1 21  1  0
  3 22  1  0
  6 23  1  0
  6 24  1  0
  7 25  1  0
  7 26  1  0
  8 27  1  0
  9 28  1  0
  9 29  1  0
  9 30  1  0
 10 31  1  0
 10 32  1  0
 11 33  1  0
 11 34  1  0
 14 35  1  0
 15 36  1  0
 16 37  1  0
 17 38  1  0
M  CHG  1   8   1
M  END
>  <Binding energies>  (1) 
[-6.42]

>  <Ligand effiencies>  (1) 
[-0.33789473684210525]

>  <Interactions>  (1) 
["V-A:PRO:540:CD:4887, V-A:PRO:540:N:4884, V-A:PRO:540:CG:4886, V-A:ILE:538:CD1:4865, V-A:ILE:538:CA:4860, V-A:LEU:363:CD1:3189, V-A:GLU:543:CD:4908, V-A:TYR:539:CE2:4876, V-A:PRO:540:CB:4885, V-A:PRO:540:CA:4883, V-A:ILE:538:CG2:4863, H-A:GLU:543:OE2:4910, H-A:GLU:543:OE1:4909, V-A:TYR:539:CE1:4875, V-A:TYR:539:CD1:4873, V-A:TYR:539:CZ:4877"]

$$$$
RR32_Rahimova_2017-again2
     RDKit          3D

 39 41  0  0  0  0  0  0  0  0999 V2000
  128.6240  132.2680   58.2260 C   0  0  0  0  0  0  0  0  0  0  0  0
  129.2000  132.0860   59.6240 C   0  0  0  0  0  0  0  0  0  0  0  0
  128.4110  132.3480   60.7480 C   0  0  0  0  0  0  0  0  0  0  0  0
  128.9250  132.1920   62.0420 C   0  0  0  0  0  0  0  0  0  0  0  0
  128.1490  132.4340   63.2330 N   0  0  0  0  0  0  0  0  0  0  0  0
  126.6650  132.3490   63.2060 C   0  0  0  0  0  0  0  0  0  0  0  0
  126.1950  130.8840   63.4140 C   0  0  0  0  0  0  0  0  0  0  0  0
  126.7150  130.3630   64.7750 N   0  0  0  0  0  0  0  0  0  0  0  0
  126.3160  128.8910   64.9920 C   0  0  0  0  0  0  0  0  0  0  0  0
  128.2490  130.5400   64.8640 C   0  0  0  0  0  0  0  0  0  0  0  0
  128.6100  132.0240   64.5840 C   0  0  0  0  0  0  0  0  0  0  0  0
  130.2010  131.7750   62.1680 N   0  0  0  0  0  0  0  0  0  0  0  0
  131.0500  131.4930   61.1230 C   0  0  0  0  0  0  0  0  0  0  0  0
  132.3740  131.0610   61.3670 C   0  0  0  0  0  0  0  0  0  0  0  0
  133.2040  130.7810   60.2850 C   0  0  0  0  0  0  0  0  0  0  0  0
  132.7410  130.9240   58.9790 C   0  0  0  0  0  0  0  0  0  0  0  0
  131.4370  131.3490   58.7240 C   0  0  0  0  0  0  0  0  0  0  0  0
  130.5500  131.6470   59.7970 C   0  0  0  0  0  0  0  0  0  0  0  0
  127.5775  132.5987   58.3008 H   0  0  0  0  0  0  0  0  0  0  0  0
  129.2098  133.0248   57.6837 H   0  0  0  0  0  0  0  0  0  0  0  0
  128.6686  131.3120   57.6837 H   0  0  0  0  0  0  0  0  0  0  0  0
  127.3713  132.6815   60.6145 H   0  0  0  0  0  0  0  0  0  0  0  0
  126.2527  132.9779   64.0088 H   0  0  0  0  0  0  0  0  0  0  0  0
  126.3087  132.6988   62.2259 H   0  0  0  0  0  0  0  0  0  0  0  0
  125.0957  130.8467   63.4030 H   0  0  0  0  0  0  0  0  0  0  0  0
  126.5917  130.2536   62.6046 H   0  0  0  0  0  0  0  0  0  0  0  0
  126.2970  130.9300   65.5020 H   0  0  0  0  0  0  0  0  0  0  0  0
  126.2593  128.6816   66.0704 H   0  0  0  0  0  0  0  0  0  0  0  0
  125.3351  128.7051   64.5303 H   0  0  0  0  0  0  0  0  0  0  0  0
  127.0688  128.2352   64.5303 H   0  0  0  0  0  0  0  0  0  0  0  0
  128.5935  130.2614   65.8708 H   0  0  0  0  0  0  0  0  0  0  0  0
  128.7388  129.8943   64.1202 H   0  0  0  0  0  0  0  0  0  0  0  0
  128.1261  132.6613   65.3388 H   0  0  0  0  0  0  0  0  0  0  0  0
  129.7033  132.1356   64.6320 H   0  0  0  0  0  0  0  0  0  0  0  0
  130.5580  131.6540   63.1040 H   0  0  0  0  0  0  0  0  0  0  0  0
  132.7430  130.9478   62.3971 H   0  0  0  0  0  0  0  0  0  0  0  0
  134.2357  130.4435   60.4631 H   0  0  0  0  0  0  0  0  0  0  0  0
  133.4126  130.6988   58.1375 H   0  0  0  0  0  0  0  0  0  0  0  0
  131.0912  131.4548   57.6851 H   0  0  0  0  0  0  0  0  0  0  0  0
  1  2  1  0
  2  3  2  0
  3  4  1  0
  4  5  1  0
  5  6  1  0
  6  7  1  0
  7  8  1  0
  8  9  1  0
  8 10  1  0
 10 11  1  0
  4 12  2  0
 12 13  1  0
 13 14  2  0
 14 15  1  0
 15 16  2  0
 16 17  1  0
 17 18  2  0
 18  2  1  0
 11  5  1  0
 18 13  1  0
  1 19  1  0
  1 20  1  0
  1 21  1  0
  3 22  1  0
  6 23  1  0
  6 24  1  0
  7 25  1  0
  7 26  1  0
  8 27  1  0
  9 28  1  0
  9 29  1  0
  9 30  1  0
 10 31  1  0
 10 32  1  0
 11 33  1  0
 11 34  1  0
 12 35  1  0
 14 36  1  0
 15 37  1  0
 16 38  1  0
 17 39  1  0
M  CHG  2   8   1  12   1
M  END
>  <Binding energies>  (1) 
[-6.89]

>  <Ligand effiencies>  (1) 
[-0.3445]

>  <Interactions>  (1) 
["V-A:PRO:540:N:4884, V-A:TYR:539:C:4867, V-A:ASP:366:CG:3213, V-A:GLU:543:CD:4908, V-A:TYR:539:CE2:4876, V-A:PRO:540:C:4881, V-A:PRO:540:CB:4885, V-A:PRO:540:CA:4883, V-A:TYR:539:CD2:4874, V-B:LEU:475:CD1:9229, V-A:ALA:541:CB:4892, H-B:TYR:484:OH:9319, V-A:GLU:543:CB:4906, V-A:ASN:362:CB:3176, H-A:GLU:543:OE1:4909, V-A:TYR:539:CZ:4877, V-A:ALA:541:CA:4890"]

$$$$
RR33_Rahimova_2017
     RDKit          3D

 36 37  0  0  0  0  0  0  0  0999 V2000
  123.7180  131.7370   75.9920 C   0  0  0  0  0  0  0  0  0  0  0  0
  123.4770  130.2730   76.3700 C   0  0  0  0  0  0  0  0  0  0  0  0
  124.7360  129.6470   76.6020 O   0  0  0  0  0  0  0  0  0  0  0  0
  125.3370  128.9340   75.5830 C   0  0  0  0  0  0  0  0  0  0  0  0
  126.6570  129.2670   75.2850 C   0  0  0  0  0  0  0  0  0  0  0  0
  127.3440  128.6050   74.2710 C   0  0  0  0  0  0  0  0  0  0  0  0
  126.7160  127.5940   73.5370 C   0  0  0  0  0  0  0  0  0  0  0  0
  127.4550  126.8840   72.4480 C   0  0  0  0  0  0  0  0  0  0  0  0
  127.4550  127.1650   71.1640 N   0  0  0  0  0  0  0  0  0  0  0  0
  128.2520  126.2640   70.6100 C   0  0  0  0  0  0  0  0  0  0  0  0
  128.5160  126.2710   69.1190 C   0  0  0  0  0  0  0  0  0  0  0  0
  129.4800  125.2410   68.7640 N   0  0  0  0  0  0  0  0  0  0  0  0
  129.6930  125.2130   67.3260 C   0  0  0  0  0  0  0  0  0  0  0  0
  128.7480  125.4140   71.5900 C   0  0  0  0  0  0  0  0  0  0  0  0
  129.6780  124.2250   71.6100 C   0  0  0  0  0  0  0  0  0  0  0  0
  128.2300  125.8170   72.7730 O   0  0  0  0  0  0  0  0  0  0  0  0
  125.3930  127.2540   73.8350 C   0  0  0  0  0  0  0  0  0  0  0  0
  124.7060  127.9170   74.8490 C   0  0  0  0  0  0  0  0  0  0  0  0
  123.8173  132.3402   76.9065 H   0  0  0  0  0  0  0  0  0  0  0  0
  124.6411  131.8154   75.3990 H   0  0  0  0  0  0  0  0  0  0  0  0
  122.8687  132.1072   75.3990 H   0  0  0  0  0  0  0  0  0  0  0  0
  122.8649  130.2224   77.2826 H   0  0  0  0  0  0  0  0  0  0  0  0
  122.9474  129.7581   75.5549 H   0  0  0  0  0  0  0  0  0  0  0  0
  127.1609  130.0605   75.8564 H   0  0  0  0  0  0  0  0  0  0  0  0
  128.3855  128.8785   74.0463 H   0  0  0  0  0  0  0  0  0  0  0  0
  127.5732  126.0833   68.5842 H   0  0  0  0  0  0  0  0  0  0  0  0
  128.9255  127.2520   68.8364 H   0  0  0  0  0  0  0  0  0  0  0  0
  129.1300  124.3410   69.0610 H   0  0  0  0  0  0  0  0  0  0  0  0
  130.7637  125.0723   67.1166 H   0  0  0  0  0  0  0  0  0  0  0  0
  129.1212  124.3823   66.8867 H   0  0  0  0  0  0  0  0  0  0  0  0
  129.3553  126.1633   66.8867 H   0  0  0  0  0  0  0  0  0  0  0  0
  129.8954  123.9470   72.6519 H   0  0  0  0  0  0  0  0  0  0  0  0
  129.2007  123.3775   71.0964 H   0  0  0  0  0  0  0  0  0  0  0  0
  130.6156  124.4841   71.0964 H   0  0  0  0  0  0  0  0  0  0  0  0
  124.8916  126.4579   73.2651 H   0  0  0  0  0  0  0  0  0  0  0  0
  123.6651  127.6428   75.0756 H   0  0  0  0  0  0  0  0  0  0  0  0
  1  2  1  0
  2  3  1  0
  3  4  1  0
  4  5  2  0
  5  6  1  0
  6  7  2  0
  7  8  1  0
  8  9  2  0
  9 10  1  0
 10 11  1  0
 11 12  1  0
 12 13  1  0
 10 14  2  0
 14 15  1  0
 14 16  1  0
  7 17  1  0
 17 18  2  0
 18  4  1  0
 16  8  1  0
  1 19  1  0
  1 20  1  0
  1 21  1  0
  2 22  1  0
  2 23  1  0
  5 24  1  0
  6 25  1  0
 11 26  1  0
 11 27  1  0
 12 28  1  0
 13 29  1  0
 13 30  1  0
 13 31  1  0
 15 32  1  0
 15 33  1  0
 15 34  1  0
 17 35  1  0
 18 36  1  0
M  END
>  <Binding energies>  (1) 
[-5.9]

>  <Ligand effiencies>  (1) 
[-0.3105263157894737]

>  <Interactions>  (1) 
["V-B:LYS:471:CG:9189, V-B:GLU:543:CB:9878, V-B:HIS:456:CB:9036, V-B:HIS:456:CG:9037, V-B:GLY:544:C:9884, V-B:HIS:456:CD2:9039, V-B:VAL:457:CA:9046, V-B:HIS:456:C:9032, V-B:LYS:471:C:9184, H-B:LYS:547:NZ:9923, V-B:VAL:458:CG2:9058, V-A:HIS:456:CE1:4069, V-B:LYS:471:CE:9191, V-A:HIS:456:CD2:4068, H-B:HIS:456:NE2:9041, H-A:HIS:456:NE2:4070, V-A:TYR:484:CE1:4345, V-A:TYR:484:CZ:4347, H-B:GLU:543:O:9875, V-B:VAL:457:C:9044, V-B:ASP:473:CG:9211, V-B:ASP:473:CB:9210, V-B:LYS:471:CB:9188, V-B:LEU:472:C:9197, V-B:LEU:472:CA:9199"]

$$$$
RR33_Rahimova_2017-again1
     RDKit          3D

 37 38  0  0  0  0  0  0  0  0999 V2000
  133.6690  119.1260   60.9390 C   0  0  0  0  0  0  0  0  0  0  0  0
  133.7290  120.6280   61.2280 C   0  0  0  0  0  0  0  0  0  0  0  0
  132.5840  120.9960   61.9900 O   0  0  0  0  0  0  0  0  0  0  0  0
  131.4170  121.3430   61.3350 C   0  0  0  0  0  0  0  0  0  0  0  0
  131.4220  122.5620   60.6580 C   0  0  0  0  0  0  0  0  0  0  0  0
  130.2930  122.9970   59.9690 C   0  0  0  0  0  0  0  0  0  0  0  0
  129.1350  122.2130   59.9500 C   0  0  0  0  0  0  0  0  0  0  0  0
  127.9200  122.6750   59.2110 C   0  0  0  0  0  0  0  0  0  0  0  0
  126.9680  123.4700   59.6480 N   0  0  0  0  0  0  0  0  0  0  0  0
  126.1170  123.5880   58.6410 C   0  0  0  0  0  0  0  0  0  0  0  0
  124.8620  124.4300   58.7680 C   0  0  0  0  0  0  0  0  0  0  0  0
  124.6180  124.7470   60.2530 N   0  0  0  0  0  0  0  0  0  0  0  0
  123.3830  124.0450   60.8360 C   0  0  0  0  0  0  0  0  0  0  0  0
  126.5660  122.8340   57.5630 C   0  0  0  0  0  0  0  0  0  0  0  0
  126.0670  122.5500   56.1680 C   0  0  0  0  0  0  0  0  0  0  0  0
  127.7290  122.2500   57.9360 O   0  0  0  0  0  0  0  0  0  0  0  0
  129.1250  120.9890   60.6290 C   0  0  0  0  0  0  0  0  0  0  0  0
  130.2550  120.5560   61.3160 C   0  0  0  0  0  0  0  0  0  0  0  0
  133.6468  118.5706   61.8882 H   0  0  0  0  0  0  0  0  0  0  0  0
  132.7611  118.8999   60.3606 H   0  0  0  0  0  0  0  0  0  0  0  0
  134.5560  118.8282   60.3606 H   0  0  0  0  0  0  0  0  0  0  0  0
  134.6415  120.8585   61.7975 H   0  0  0  0  0  0  0  0  0  0  0  0
  133.7442  121.1897   60.2823 H   0  0  0  0  0  0  0  0  0  0  0  0
  132.3274  123.1866   60.6684 H   0  0  0  0  0  0  0  0  0  0  0  0
  130.3119  123.9602   59.4380 H   0  0  0  0  0  0  0  0  0  0  0  0
  124.9890  125.3677   58.2070 H   0  0  0  0  0  0  0  0  0  0  0  0
  124.0022  123.8782   58.3603 H   0  0  0  0  0  0  0  0  0  0  0  0
  125.4320  124.4740   60.7830 H   0  0  0  0  0  0  0  0  0  0  0  0
  124.5030  125.7460   60.3540 H   0  0  0  0  0  0  0  0  0  0  0  0
  123.4304  124.0720   61.9346 H   0  0  0  0  0  0  0  0  0  0  0  0
  122.4731  124.5609   60.4955 H   0  0  0  0  0  0  0  0  0  0  0  0
  123.3608  122.9993   60.4955 H   0  0  0  0  0  0  0  0  0  0  0  0
  125.1122  122.0066   56.2237 H   0  0  0  0  0  0  0  0  0  0  0  0
  125.9182  123.4987   55.6316 H   0  0  0  0  0  0  0  0  0  0  0  0
  126.8067  121.9376   55.6316 H   0  0  0  0  0  0  0  0  0  0  0  0
  128.2186  120.3658   60.6195 H   0  0  0  0  0  0  0  0  0  0  0  0
  130.2375  119.5926   61.8466 H   0  0  0  0  0  0  0  0  0  0  0  0
  1  2  1  0
  2  3  1  0
  3  4  1  0
  4  5  2  0
  5  6  1  0
  6  7  2  0
  7  8  1  0
  8  9  2  0
  9 10  1  0
 10 11  1  0
 11 12  1  0
 12 13  1  0
 10 14  2  0
 14 15  1  0
 14 16  1  0
  7 17  1  0
 17 18  2  0
 18  4  1  0
 16  8  1  0
  1 19  1  0
  1 20  1  0
  1 21  1  0
  2 22  1  0
  2 23  1  0
  5 24  1  0
  6 25  1  0
 11 26  1  0
 11 27  1  0
 12 28  1  0
 12 29  1  0
 13 30  1  0
 13 31  1  0
 13 32  1  0
 15 33  1  0
 15 34  1  0
 15 35  1  0
 17 36  1  0
 18 37  1  0
M  CHG  1  12   1
M  END
>  <Binding energies>  (1) 
[-6.28]

>  <Ligand effiencies>  (1) 
[-0.314]

>  <Interactions>  (1) 
["V-B:PRO:540:CD:9859, V-B:LEU:363:CA:8156, V-B:GLU:543:CD:9880, V-B:ILE:538:CB:9834, V-B:ALA:541:CB:9864, V-B:TYR:539:CE2:9848, V-B:TYR:539:CD2:9846, V-B:PRO:540:CB:9857, V-B:PRO:540:N:9856, H-B:ASP:366:OD1:8185, V-B:TYR:539:C:9839, V-B:ASP:366:CG:8184, V-B:PRO:540:CA:9855, V-B:ASN:362:CB:8147, V-B:ASN:362:C:8143, H-B:GLU:543:OE2:9882, V-A:LEU:475:CD1:4258, V-B:ILE:538:CG2:9835, V-A:SER:385:C:3405, V-A:TRP:381:CZ2:3370, V-A:SER:385:CA:3407, V-A:ILE:369:CD1:3239, V-A:TRP:381:CH2:3372, V-A:ILE:369:CG2:3237, H-B:ASP:366:OD2:8186, V-B:ILE:538:CA:9832, V-B:ASN:362:CA:8145"]

$$$$
RR3_Rahimova_2017
     RDKit          3D

 63 69  0  0  0  0  0  0  0  0999 V2000
  123.9190  132.1490   62.2810 C   0  0  0  0  0  0  0  0  0  0  0  0
  125.1260  132.5770   62.8230 C   0  0  0  0  0  0  0  0  0  0  0  0
  125.8170  131.7520   63.7050 C   0  0  0  0  0  0  0  0  0  0  0  0
  125.3130  130.4910   64.0560 C   0  0  0  0  0  0  0  0  0  0  0  0
  126.0580  129.6040   65.0040 C   0  0  0  0  0  0  0  0  0  0  0  0
  127.4440  129.4300   64.8900 C   0  0  0  0  0  0  0  0  0  0  0  0
  128.1360  128.6020   65.7690 C   0  0  0  0  0  0  0  0  0  0  0  0
  127.4550  127.9210   66.7820 C   0  0  0  0  0  0  0  0  0  0  0  0
  128.1920  127.0260   67.7270 C   0  0  0  0  0  0  0  0  0  0  0  0
  128.2850  127.3490   69.0120 N   0  0  0  0  0  0  0  0  0  0  0  0
  128.9360  126.3730   69.5980 C   0  0  0  0  0  0  0  0  0  0  0  0
  129.2650  126.3150   71.0200 C   0  0  0  0  0  0  0  0  0  0  0  0
  129.0020  127.3030   71.9540 C   0  0  0  0  0  0  0  0  0  0  0  0
  129.4370  126.9110   73.1920 N   0  0  0  0  0  0  0  0  0  0  0  0
  130.0020  125.6570   73.1160 C   0  0  0  0  0  0  0  0  0  0  0  0
  130.5790  124.8530   74.1050 C   0  0  0  0  0  0  0  0  0  0  0  0
  131.0720  123.6120   73.7040 C   0  0  0  0  0  0  0  0  0  0  0  0
  131.0000  123.1860   72.3820 C   0  0  0  0  0  0  0  0  0  0  0  0
  130.4250  123.9870   71.3970 C   0  0  0  0  0  0  0  0  0  0  0  0
  129.9120  125.2480   71.7480 C   0  0  0  0  0  0  0  0  0  0  0  0
  129.2810  125.4050   68.6960 N   0  0  0  0  0  0  0  0  0  0  0  0
  128.8340  125.8040   67.4630 C   0  0  0  0  0  0  0  0  0  0  0  0
  129.0840  125.0190   66.2170 C   0  0  0  0  0  0  0  0  0  0  0  0
  129.0300  125.6470   64.9720 C   0  0  0  0  0  0  0  0  0  0  0  0
  129.2500  124.9170   63.8080 C   0  0  0  0  0  0  0  0  0  0  0  0
  129.5320  123.5440   63.8610 C   0  0  0  0  0  0  0  0  0  0  0  0
  129.7480  122.7580   62.6060 C   0  0  0  0  0  0  0  0  0  0  0  0
  130.9150  121.9990   62.4240 C   0  0  0  0  0  0  0  0  0  0  0  0
  131.1140  121.2640   61.2580 C   0  0  0  0  0  0  0  0  0  0  0  0
  130.1450  121.2790   60.2600 C   0  0  0  0  0  0  0  0  0  0  0  0
  128.9800  122.0230   60.4200 C   0  0  0  0  0  0  0  0  0  0  0  0
  128.7850  122.7580   61.5860 C   0  0  0  0  0  0  0  0  0  0  0  0
  129.6000  122.9290   65.1190 C   0  0  0  0  0  0  0  0  0  0  0  0
  129.3800  123.6560   66.2850 C   0  0  0  0  0  0  0  0  0  0  0  0
  126.0760  128.0980   66.9120 C   0  0  0  0  0  0  0  0  0  0  0  0
  125.3860  128.9270   66.0310 C   0  0  0  0  0  0  0  0  0  0  0  0
  124.0930  130.0800   63.4980 C   0  0  0  0  0  0  0  0  0  0  0  0
  123.3990  130.9030   62.6150 C   0  0  0  0  0  0  0  0  0  0  0  0
  123.3719  132.8002   61.5835 H   0  0  0  0  0  0  0  0  0  0  0  0
  125.5327  133.5635   62.5556 H   0  0  0  0  0  0  0  0  0  0  0  0
  126.7713  132.0933   64.1327 H   0  0  0  0  0  0  0  0  0  0  0  0
  127.9927  129.9553   64.0944 H   0  0  0  0  0  0  0  0  0  0  0  0
  129.2247  128.4829   65.6660 H   0  0  0  0  0  0  0  0  0  0  0  0
  128.5141  128.2639   71.7334 H   0  0  0  0  0  0  0  0  0  0  0  0
  129.3350  127.4920   74.0120 H   0  0  0  0  0  0  0  0  0  0  0  0
  130.6409  125.1850   75.1519 H   0  0  0  0  0  0  0  0  0  0  0  0
  131.5308  122.9513   74.4543 H   0  0  0  0  0  0  0  0  0  0  0  0
  131.4038  122.1999   72.1091 H   0  0  0  0  0  0  0  0  0  0  0  0
  130.3731  123.6362   70.3557 H   0  0  0  0  0  0  0  0  0  0  0  0
  129.7970  124.5600   68.8970 H   0  0  0  0  0  0  0  0  0  0  0  0
  128.8126  126.7236   64.9105 H   0  0  0  0  0  0  0  0  0  0  0  0
  129.2021  125.4236   62.8328 H   0  0  0  0  0  0  0  0  0  0  0  0
  131.6819  121.9847   63.2124 H   0  0  0  0  0  0  0  0  0  0  0  0
  132.0332  120.6743   61.1268 H   0  0  0  0  0  0  0  0  0  0  0  0
  130.3007  120.6990   59.3384 H   0  0  0  0  0  0  0  0  0  0  0  0
  128.2163  122.0303   59.6284 H   0  0  0  0  0  0  0  0  0  0  0  0
  127.8638  123.3464   61.7091 H   0  0  0  0  0  0  0  0  0  0  0  0
  129.8308  121.8555   65.1854 H   0  0  0  0  0  0  0  0  0  0  0  0
  129.4394  123.1557   67.2628 H   0  0  0  0  0  0  0  0  0  0  0  0
  125.5315  127.5796   67.7150 H   0  0  0  0  0  0  0  0  0  0  0  0
  124.2989  129.0522   66.1426 H   0  0  0  0  0  0  0  0  0  0  0  0
  123.6796  129.0952   63.7614 H   0  0  0  0  0  0  0  0  0  0  0  0
  122.4438  130.5693   62.1835 H   0  0  0  0  0  0  0  0  0  0  0  0
  1  2  2  0
  2  3  1  0
  3  4  2  0
  4  5  1  0
  5  6  2  0
  6  7  1  0
  7  8  2  0
  8  9  1  0
  9 10  1  0
 10 11  2  0
 11 12  1  0
 12 13  2  0
 13 14  1  0
 14 15  1  0
 15 16  2  0
 16 17  1  0
 17 18  2  0
 18 19  1  0
 19 20  2  0
 11 21  1  0
 21 22  1  0
 22 23  1  0
 23 24  2  0
 24 25  1  0
 25 26  2  0
 26 27  1  0
 27 28  2  0
 28 29  1  0
 29 30  2  0
 30 31  1  0
 31 32  2  0
 26 33  1  0
 33 34  2  0
  8 35  1  0
 35 36  2  0
  4 37  1  0
 37 38  2  0
 38  1  1  0
 36  5  1  0
 22  9  2  0
 34 23  1  0
 20 12  1  0
 32 27  1  0
 20 15  1  0
  1 39  1  0
  2 40  1  0
  3 41  1  0
  6 42  1  0
  7 43  1  0
 13 44  1  0
 14 45  1  0
 16 46  1  0
 17 47  1  0
 18 48  1  0
 19 49  1  0
 21 50  1  0
 24 51  1  0
 25 52  1  0
 28 53  1  0
 29 54  1  0
 30 55  1  0
 31 56  1  0
 32 57  1  0
 33 58  1  0
 34 59  1  0
 35 60  1  0
 36 61  1  0
 37 62  1  0
 38 63  1  0
M  END
>  <Binding energies>  (1) 
[-10.36]

>  <Ligand effiencies>  (1) 
[-0.259]

>  <Interactions>  (1) 
["V-B:GLU:543:CD:9880, V-B:ALA:541:CB:9864, V-B:TYR:539:CE2:9848, V-B:TYR:539:CD2:9846, V-A:LEU:475:CD1:4258, V-A:GLU:543:CD:4908, V-B:LEU:475:CD1:9229, V-B:GLU:543:C:9874, V-B:GLU:543:CB:9878, V-B:HIS:456:CE1:9040, V-B:ARG:545:CG:9894, V-A:HIS:456:CE1:4069, V-A:HIS:456:CG:4066, V-A:HIS:456:CD2:4068, V-A:HIS:456:CB:4065, H-B:HIS:456:NE2:9041, V-B:ILE:369:CD1:8210, V-B:ARG:545:CD:9895, V-B:ARG:545:CZ:9898, V-B:GLU:543:CG:9879, V-B:GLY:454:CA:9020, V-A:TYR:484:CE1:4345, V-B:GLU:543:CA:9876, V-A:TYR:484:CZ:4347, H-A:TYR:484:OH:4348, H-B:GLU:543:O:9875, V-A:TYR:484:CD2:4344, V-A:TYR:484:CG:4342, V-A:TYR:484:CE2:4346"]

$$$$
RR4_Rahimova_2017
     RDKit          3D

 66 70  0  0  0  0  0  0  0  0999 V2000
  127.0510  126.6200   74.3690 C   0  0  0  0  0  0  0  0  0  0  0  0
  128.1180  125.8750   73.7920 O   0  0  0  0  0  0  0  0  0  0  0  0
  128.3350  125.9530   72.4300 C   0  0  0  0  0  0  0  0  0  0  0  0
  127.6440  126.9480   71.7420 C   0  0  0  0  0  0  0  0  0  0  0  0
  127.8010  127.1020   70.3680 C   0  0  0  0  0  0  0  0  0  0  0  0
  128.6540  126.2610   69.6390 C   0  0  0  0  0  0  0  0  0  0  0  0
  128.8210  126.4290   68.1550 C   0  0  0  0  0  0  0  0  0  0  0  0
  129.7030  125.6510   67.3990 C   0  0  0  0  0  0  0  0  0  0  0  0
  129.8190  125.8430   66.0160 C   0  0  0  0  0  0  0  0  0  0  0  0
  130.7610  124.9550   65.2700 C   0  0  0  0  0  0  0  0  0  0  0  0
  132.1010  125.3240   65.1160 C   0  0  0  0  0  0  0  0  0  0  0  0
  132.9880  124.4970   64.4320 C   0  0  0  0  0  0  0  0  0  0  0  0
  132.5570  123.2850   63.8960 C   0  0  0  0  0  0  0  0  0  0  0  0
  133.5070  122.5300   63.2350 O   0  0  0  0  0  0  0  0  0  0  0  0
  134.1030  123.0470   62.0500 C   0  0  0  0  0  0  0  0  0  0  0  0
  131.2140  122.9080   64.0530 C   0  0  0  0  0  0  0  0  0  0  0  0
  130.3290  123.7360   64.7370 C   0  0  0  0  0  0  0  0  0  0  0  0
  129.0450  126.8620   65.4090 C   0  0  0  0  0  0  0  0  0  0  0  0
  129.1280  127.1050   63.9660 C   0  0  0  0  0  0  0  0  0  0  0  0
  129.1930  127.2970   62.8270 N   0  0  0  0  0  0  0  0  0  0  0  0
  128.1960  127.6300   66.2380 C   0  0  0  0  0  0  0  0  0  0  0  0
  127.1630  128.9560   65.6510 S   0  0  0  0  0  0  0  0  0  0  0  0
  128.2460  130.3660   65.2440 C   0  0  0  0  0  0  0  0  0  0  0  0
  128.0370  130.9460   63.8380 C   0  0  0  0  0  0  0  0  0  0  0  0
  127.3360  131.9460   63.6710 O   0  0  0  0  0  0  0  0  0  0  0  0
  128.6610  130.2670   62.8480 N   0  0  0  0  0  0  0  0  0  0  0  0
  128.6670  130.5410   61.4770 C   0  0  0  0  0  0  0  0  0  0  0  0
  127.3090  130.2040   60.4370 S   0  0  0  0  0  0  0  0  0  0  0  0
  128.1540  130.8080   59.0450 C   0  0  0  0  0  0  0  0  0  0  0  0
  129.4440  131.2510   59.3770 C   0  0  0  0  0  0  0  0  0  0  0  0
  129.7270  131.1130   60.7580 C   0  0  0  0  0  0  0  0  0  0  0  0
  130.9920  131.5170   61.3640 C   0  0  0  0  0  0  0  0  0  0  0  0
  131.9950  131.8370   61.8430 N   0  0  0  0  0  0  0  0  0  0  0  0
  130.3770  131.8650   58.3260 C   0  0  0  0  0  0  0  0  0  0  0  0
  129.5830  132.2730   57.0640 C   0  0  0  0  0  0  0  0  0  0  0  0
  128.6080  131.1720   56.6110 C   0  0  0  0  0  0  0  0  0  0  0  0
  127.5150  130.8980   57.6660 C   0  0  0  0  0  0  0  0  0  0  0  0
  128.0790  127.4020   67.5670 N   0  0  0  0  0  0  0  0  0  0  0  0
  129.3490  125.2630   70.3410 C   0  0  0  0  0  0  0  0  0  0  0  0
  129.1940  125.1070   71.7150 C   0  0  0  0  0  0  0  0  0  0  0  0
  127.1208  126.5712   75.4657 H   0  0  0  0  0  0  0  0  0  0  0  0
  127.1180  127.6686   74.0436 H   0  0  0  0  0  0  0  0  0  0  0  0
  126.0897  126.1958   74.0436 H   0  0  0  0  0  0  0  0  0  0  0  0
  126.9670  127.6191   72.2909 H   0  0  0  0  0  0  0  0  0  0  0  0
  127.2473  127.8959   69.8455 H   0  0  0  0  0  0  0  0  0  0  0  0
  130.3118  124.8806   67.8949 H   0  0  0  0  0  0  0  0  0  0  0  0
  132.4571  126.2751   65.5386 H   0  0  0  0  0  0  0  0  0  0  0  0
  134.0380  124.8029   64.3137 H   0  0  0  0  0  0  0  0  0  0  0  0
  134.9086  123.7458   62.3196 H   0  0  0  0  0  0  0  0  0  0  0  0
  134.5190  122.2189   61.4574 H   0  0  0  0  0  0  0  0  0  0  0  0
  133.3419  123.5758   61.4574 H   0  0  0  0  0  0  0  0  0  0  0  0
  130.8598  121.9546   63.6339 H   0  0  0  0  0  0  0  0  0  0  0  0
  129.2799  123.4290   64.8597 H   0  0  0  0  0  0  0  0  0  0  0  0
  128.0589  131.1652   65.9763 H   0  0  0  0  0  0  0  0  0  0  0  0
  129.2779  129.9862   65.2749 H   0  0  0  0  0  0  0  0  0  0  0  0
  129.2050  129.4630   63.1230 H   0  0  0  0  0  0  0  0  0  0  0  0
  130.8631  132.7557   58.7507 H   0  0  0  0  0  0  0  0  0  0  0  0
  131.1323  131.1172   58.0428 H   0  0  0  0  0  0  0  0  0  0  0  0
  129.0095  133.1852   57.2855 H   0  0  0  0  0  0  0  0  0  0  0  0
  130.3041  132.4419   56.2506 H   0  0  0  0  0  0  0  0  0  0  0  0
  128.1260  131.4879   55.6740 H   0  0  0  0  0  0  0  0  0  0  0  0
  129.1837  130.2454   56.4695 H   0  0  0  0  0  0  0  0  0  0  0  0
  126.7806  131.7168   57.6546 H   0  0  0  0  0  0  0  0  0  0  0  0
  127.0091  129.9494   57.4330 H   0  0  0  0  0  0  0  0  0  0  0  0
  130.0284  124.5922   69.7947 H   0  0  0  0  0  0  0  0  0  0  0  0
  129.7479  124.3164   72.2423 H   0  0  0  0  0  0  0  0  0  0  0  0
  1  2  1  0
  2  3  1  0
  3  4  2  0
  4  5  1  0
  5  6  2  0
  6  7  1  0
  7  8  2  0
  8  9  1  0
  9 10  1  0
 10 11  2  0
 11 12  1  0
 12 13  2  0
 13 14  1  0
 14 15  1  0
 13 16  1  0
 16 17  2  0
  9 18  2  0
 18 19  1  0
 19 20  3  0
 18 21  1  0
 21 22  1  0
 22 23  1  0
 23 24  1  0
 24 25  2  0
 24 26  1  0
 26 27  1  0
 27 28  1  0
 28 29  1  0
 29 30  2  0
 30 31  1  0
 31 32  1  0
 32 33  3  0
 30 34  1  0
 34 35  1  0
 35 36  1  0
 36 37  1  0
 21 38  2  0
  6 39  1  0
 39 40  2  0
 40  3  1  0
 38  7  1  0
 17 10  1  0
 31 27  2  0
 37 29  1  0
  1 41  1  0
  1 42  1  0
  1 43  1  0
  4 44  1  0
  5 45  1  0
  8 46  1  0
 11 47  1  0
 12 48  1  0
 15 49  1  0
 15 50  1  0
 15 51  1  0
 16 52  1  0
 17 53  1  0
 23 54  1  0
 23 55  1  0
 26 56  1  0
 34 57  1  0
 34 58  1  0
 35 59  1  0
 35 60  1  0
 36 61  1  0
 36 62  1  0
 37 63  1  0
 37 64  1  0
 39 65  1  0
 40 66  1  0
M  END
>  <Binding energies>  (1) 
[-10.38]

>  <Ligand effiencies>  (1) 
[-0.2531707317073171]

>  <Interactions>  (1) 
["V-B:GLU:543:CD:9880, V-A:LEU:475:CD1:4258, V-A:PRO:540:N:4884, V-A:TYR:539:C:4867, V-A:GLU:543:CD:4908, V-A:TYR:539:CE2:4876, V-A:PRO:540:C:4881, V-A:PRO:540:CB:4885, V-A:PRO:540:CA:4883, H-A:ALA:541:N:4891, V-B:GLY:544:C:9884, V-B:HIS:456:CE1:9040, H-B:LYS:547:NZ:9923, V-A:HIS:456:CE1:4069, V-A:HIS:456:CD2:4068, H-B:TYR:484:OH:9319, V-A:GLU:543:CB:4906, H-A:GLY:454:N:4050, V-A:ILE:369:CD1:3239, V-B:LYS:547:CE:9922, H-A:GLU:543:OE2:4910, V-A:GLY:454:CA:4049, H-A:GLU:543:OE1:4909, V-A:TYR:539:CE1:4875, V-A:TYR:539:CD1:4873, V-A:TYR:539:CZ:4877, V-A:GLU:543:CG:4907, V-B:LYS:547:CD:9921"]

$$$$
RR5_Rahimova_2017
     RDKit          3D

 77 82  0  0  0  0  0  0  0  0999 V2000
  129.1560  132.5890   58.8180 O   0  0  0  0  0  0  0  0  0  0  0  0
  129.2640  131.5220   59.4210 C   0  0  0  0  0  0  0  0  0  0  0  0
  130.5500  130.6880   59.2730 C   0  0  0  0  0  0  0  0  0  0  0  0
  131.2260  130.3070   60.6380 C   0  0  2  0  0  0  0  0  0  0  0  0
  130.4470  129.3760   61.4800 N   0  0  0  0  0  0  0  0  0  0  0  0
  129.6020  128.4250   60.9240 C   0  0  0  0  0  0  0  0  0  0  0  0
  129.4300  128.2060   59.7230 O   0  0  0  0  0  0  0  0  0  0  0  0
  128.9770  127.7780   61.9230 O   0  0  0  0  0  0  0  0  0  0  0  0
  129.6470  127.4700   63.1420 C   0  0  0  0  0  0  0  0  0  0  0  0
  128.7500  126.6070   64.0580 C   0  0  0  0  0  0  0  0  0  0  0  0
  129.0660  125.1240   63.9980 C   0  0  0  0  0  0  0  0  0  0  0  0
  129.0650  124.2580   62.9000 C   0  0  0  0  0  0  0  0  0  0  0  0
  129.4140  122.9170   63.0720 C   0  0  0  0  0  0  0  0  0  0  0  0
  129.7630  122.4400   64.3360 C   0  0  0  0  0  0  0  0  0  0  0  0
  129.7620  123.3020   65.4350 C   0  0  0  0  0  0  0  0  0  0  0  0
  129.4120  124.6420   65.2610 C   0  0  0  0  0  0  0  0  0  0  0  0
  129.3190  125.7510   66.2230 C   0  0  0  0  0  0  0  0  0  0  0  0
  129.5460  125.7940   67.6010 C   0  0  0  0  0  0  0  0  0  0  0  0
  129.3610  126.9920   68.2930 C   0  0  0  0  0  0  0  0  0  0  0  0
  128.9550  128.1410   67.6110 C   0  0  0  0  0  0  0  0  0  0  0  0
  128.7340  128.0940   66.2350 C   0  0  0  0  0  0  0  0  0  0  0  0
  128.9200  126.8990   65.5370 C   0  0  0  0  0  0  0  0  0  0  0  0
  131.5760  131.5770   61.4510 C   0  0  0  0  0  0  0  0  0  0  0  0
  132.6310  132.1750   61.3810 O   0  0  0  0  0  0  0  0  0  0  0  0
  130.5150  131.9260   62.2370 O   0  0  0  0  0  0  0  0  0  0  0  0
  128.3330  131.0120   60.2580 N   0  0  0  0  0  0  0  0  0  0  0  0
  126.9790  131.4710   60.6920 C   0  0  0  0  0  0  0  0  0  0  0  0
  126.8050  130.7320   62.0610 C   0  0  0  0  0  0  0  0  0  0  0  0
  126.1010  129.5200   62.1550 C   0  0  0  0  0  0  0  0  0  0  0  0
  125.9540  128.8700   63.3780 C   0  0  0  0  0  0  0  0  0  0  0  0
  126.5000  129.4270   64.5290 C   0  0  0  0  0  0  0  0  0  0  0  0
  127.2040  130.6240   64.4650 C   0  0  0  0  0  0  0  0  0  0  0  0
  127.3590  131.2680   63.2410 C   0  0  0  0  0  0  0  0  0  0  0  0
  127.0430  133.0270   60.8520 C   0  0  0  0  0  0  0  0  0  0  0  0
  128.2220  133.6820   61.2420 C   0  0  0  0  0  0  0  0  0  0  0  0
  128.2510  135.0650   61.3970 C   0  0  0  0  0  0  0  0  0  0  0  0
  127.1000  135.8120   61.1680 C   0  0  0  0  0  0  0  0  0  0  0  0
  125.9200  135.1870   60.7780 C   0  0  0  0  0  0  0  0  0  0  0  0
  125.8960  133.8060   60.6140 C   0  0  0  0  0  0  0  0  0  0  0  0
  125.9780  130.9690   59.5970 C   0  0  0  0  0  0  0  0  0  0  0  0
  124.6040  131.2580   59.6840 C   0  0  0  0  0  0  0  0  0  0  0  0
  123.7090  130.8070   58.7190 C   0  0  0  0  0  0  0  0  0  0  0  0
  124.1740  130.0610   57.6420 C   0  0  0  0  0  0  0  0  0  0  0  0
  125.5270  129.7710   57.5200 C   0  0  0  0  0  0  0  0  0  0  0  0
  126.4190  130.2240   58.4880 C   0  0  0  0  0  0  0  0  0  0  0  0
  130.3000  129.7589   58.7398 H   0  0  0  0  0  0  0  0  0  0  0  0
  131.2714  131.3111   58.7241 H   0  0  0  0  0  0  0  0  0  0  0  0
  132.1410  129.7657   60.3557 H   0  0  0  0  0  0  0  0  0  0  0  0
  130.4030  129.5530   62.4730 H   0  0  0  0  0  0  0  0  0  0  0  0
  130.5704  126.9165   62.9162 H   0  0  0  0  0  0  0  0  0  0  0  0
  129.8819  128.4101   63.6626 H   0  0  0  0  0  0  0  0  0  0  0  0
  127.7491  126.8586   63.6773 H   0  0  0  0  0  0  0  0  0  0  0  0
  128.7899  124.6324   61.9030 H   0  0  0  0  0  0  0  0  0  0  0  0
  129.4138  122.2350   62.2090 H   0  0  0  0  0  0  0  0  0  0  0  0
  130.0394  121.3834   64.4671 H   0  0  0  0  0  0  0  0  0  0  0  0
  130.0355  122.9269   66.4322 H   0  0  0  0  0  0  0  0  0  0  0  0
  129.8685  124.8893   68.1372 H   0  0  0  0  0  0  0  0  0  0  0  0
  129.5355  127.0312   69.3784 H   0  0  0  0  0  0  0  0  0  0  0  0
  128.8095  129.0834   68.1594 H   0  0  0  0  0  0  0  0  0  0  0  0
  128.4128  128.9992   65.6989 H   0  0  0  0  0  0  0  0  0  0  0  0
  130.5080  131.4510   63.0710 H   0  0  0  0  0  0  0  0  0  0  0  0
  128.5430  130.0820   60.5900 H   0  0  0  0  0  0  0  0  0  0  0  0
  125.6595  129.0779   61.2497 H   0  0  0  0  0  0  0  0  0  0  0  0
  125.4067  127.9174   63.4332 H   0  0  0  0  0  0  0  0  0  0  0  0
  126.3742  128.9176   65.4958 H   0  0  0  0  0  0  0  0  0  0  0  0
  127.6365  131.0601   65.3775 H   0  0  0  0  0  0  0  0  0  0  0  0
  127.9233  132.2111   63.1937 H   0  0  0  0  0  0  0  0  0  0  0  0
  129.1338  133.0952   61.4273 H   0  0  0  0  0  0  0  0  0  0  0  0
  129.1821  135.5662   61.6999 H   0  0  0  0  0  0  0  0  0  0  0  0
  127.1231  136.9043   61.2962 H   0  0  0  0  0  0  0  0  0  0  0  0
  125.0115  135.7813   60.6004 H   0  0  0  0  0  0  0  0  0  0  0  0
  124.9654  133.3151   60.2931 H   0  0  0  0  0  0  0  0  0  0  0  0
  124.2301  131.8518   60.5311 H   0  0  0  0  0  0  0  0  0  0  0  0
  122.6376  131.0398   58.8079 H   0  0  0  0  0  0  0  0  0  0  0  0
  123.4664  129.6982   56.8820 H   0  0  0  0  0  0  0  0  0  0  0  0
  125.8918  129.1863   56.6627 H   0  0  0  0  0  0  0  0  0  0  0  0
  127.4898  129.9949   58.3838 H   0  0  0  0  0  0  0  0  0  0  0  0
  1  2  2  0
  2  3  1  0
  3  4  1  0
  4  5  1  0
  5  6  1  0
  6  7  2  0
  6  8  1  0
  8  9  1  0
  9 10  1  0
 10 11  1  0
 11 12  2  0
 12 13  1  0
 13 14  2  0
 14 15  1  0
 15 16  2  0
 16 17  1  0
 17 18  2  0
 18 19  1  0
 19 20  2  0
 20 21  1  0
 21 22  2  0
  4 23  1  0
 23 24  2  0
 23 25  1  0
  2 26  1  0
 26 27  1  0
 27 28  1  0
 28 29  2  0
 29 30  1  0
 30 31  2  0
 31 32  1  0
 32 33  2  0
 27 34  1  0
 34 35  2  0
 35 36  1  0
 36 37  2  0
 37 38  1  0
 38 39  2  0
 27 40  1  0
 40 41  2  0
 41 42  1  0
 42 43  2  0
 43 44  1  0
 44 45  2  0
 22 10  1  0
 33 28  1  0
 39 34  1  0
 45 40  1  0
 16 11  1  0
 22 17  1  0
  3 46  1  0
  3 47  1  0
  4 48  1  6
  5 49  1  0
  9 50  1  0
  9 51  1  0
 10 52  1  0
 12 53  1  0
 13 54  1  0
 14 55  1  0
 15 56  1  0
 18 57  1  0
 19 58  1  0
 20 59  1  0
 21 60  1  0
 25 61  1  0
 26 62  1  0
 29 63  1  0
 30 64  1  0
 31 65  1  0
 32 66  1  0
 33 67  1  0
 35 68  1  0
 36 69  1  0
 37 70  1  0
 38 71  1  0
 39 72  1  0
 41 73  1  0
 42 74  1  0
 43 75  1  0
 44 76  1  0
 45 77  1  0
M  END
>  <Binding energies>  (1) 
[-10.8]

>  <Ligand effiencies>  (1) 
[-0.225]

>  <Interactions>  (1) 
["V-B:GLU:543:CD:9880, V-B:ALA:541:CB:9864, V-B:ASP:366:CG:8184, V-A:TYR:539:C:4867, V-B:PRO:482:CB:9297, V-A:GLU:543:CD:4908, V-A:TYR:539:CE2:4876, V-A:PRO:540:C:4881, V-B:PRO:482:CG:9298, V-A:PRO:540:CB:4885, V-A:PRO:540:CA:4883, V-A:TYR:539:CD2:4874, V-B:LEU:475:CD1:9229, V-A:ALA:541:CB:4892, H-A:ALA:541:N:4891, V-B:ASP:366:CB:8183, V-B:GLU:543:CB:9878, V-B:HIS:456:CE1:9040, V-A:HIS:456:CE1:4069, V-A:GLU:543:CB:4906, V-B:ILE:369:CG2:8208, V-B:ARG:545:CZ:9898, V-B:GLU:543:CG:9879, V-A:TYR:484:CE1:4345, V-B:GLU:543:CA:9876, V-A:TYR:484:CZ:4347, V-B:TRP:381:CH2:8343, H-A:GLU:543:OE2:4910, H-A:GLU:543:OE1:4909, V-B:ASP:366:CA:8181, V-B:TRP:381:CZ2:8341, V-A:ALA:541:CA:4890"]

$$$$
RR5_Rahimova_2017-again1
     RDKit          3D

 76 81  0  0  0  0  0  0  0  0999 V2000
  124.4870  130.5910   60.1990 O   0  0  0  0  0  0  0  0  0  0  0  0
  125.1890  130.5550   59.1890 C   0  0  0  0  0  0  0  0  0  0  0  0
  124.5500  130.1160   57.8550 C   0  0  0  0  0  0  0  0  0  0  0  0
  125.4120  129.1910   56.9350 C   0  0  2  0  0  0  0  0  0  0  0  0
  126.0520  128.1460   57.7620 N   0  0  0  0  0  0  0  0  0  0  0  0
  125.5000  126.8770   57.8910 C   0  0  0  0  0  0  0  0  0  0  0  0
  124.4490  126.4780   57.3820 O   0  0  0  0  0  0  0  0  0  0  0  0
  126.3050  126.1330   58.6730 O   0  0  0  0  0  0  0  0  0  0  0  0
  125.8040  125.4990   59.8450 C   0  0  0  0  0  0  0  0  0  0  0  0
  125.8490  123.9680   59.6790 C   0  0  0  0  0  0  0  0  0  0  0  0
  125.9980  123.5190   58.2360 C   0  0  0  0  0  0  0  0  0  0  0  0
  125.1680  123.7570   57.1380 C   0  0  0  0  0  0  0  0  0  0  0  0
  125.5120  123.2540   55.8820 C   0  0  0  0  0  0  0  0  0  0  0  0
  126.6820  122.5080   55.7220 C   0  0  0  0  0  0  0  0  0  0  0  0
  127.5110  122.2640   56.8180 C   0  0  0  0  0  0  0  0  0  0  0  0
  127.1640  122.7700   58.0730 C   0  0  0  0  0  0  0  0  0  0  0  0
  127.8330  122.6580   59.3790 C   0  0  0  0  0  0  0  0  0  0  0  0
  129.0120  122.0110   59.7550 C   0  0  0  0  0  0  0  0  0  0  0  0
  129.4240  122.0480   61.0880 C   0  0  0  0  0  0  0  0  0  0  0  0
  128.6610  122.7280   62.0390 C   0  0  0  0  0  0  0  0  0  0  0  0
  127.4830  123.3750   61.6600 C   0  0  0  0  0  0  0  0  0  0  0  0
  127.0690  123.3430   60.3250 C   0  0  0  0  0  0  0  0  0  0  0  0
  126.4740  130.0120   56.0970 C   0  0  0  0  0  0  0  0  0  0  0  0
  126.0780  130.3590   54.9600 O   0  0  0  0  0  0  0  0  0  0  0  0
  127.5680  130.2610   56.6580 O   0  0  0  0  0  0  0  0  0  0  0  0
  126.4630  131.0020   59.1640 N   0  0  0  0  0  0  0  0  0  0  0  0
  127.3130  131.4970   60.2770 C   0  0  0  0  0  0  0  0  0  0  0  0
  126.8980  132.9520   60.6640 C   0  0  0  0  0  0  0  0  0  0  0  0
  127.8670  133.9160   60.9920 C   0  0  0  0  0  0  0  0  0  0  0  0
  127.5010  135.2170   61.3250 C   0  0  0  0  0  0  0  0  0  0  0  0
  126.1560  135.5750   61.3300 C   0  0  0  0  0  0  0  0  0  0  0  0
  125.1770  134.6410   61.0040 C   0  0  0  0  0  0  0  0  0  0  0  0
  125.5460  133.3400   60.6730 C   0  0  0  0  0  0  0  0  0  0  0  0
  127.1790  130.7080   61.6190 C   0  0  0  0  0  0  0  0  0  0  0  0
  126.9850  129.3150   61.6210 C   0  0  0  0  0  0  0  0  0  0  0  0
  126.8640  128.6090   62.8150 C   0  0  0  0  0  0  0  0  0  0  0  0
  126.9410  129.2870   64.0270 C   0  0  0  0  0  0  0  0  0  0  0  0
  127.1430  130.6640   64.0530 C   0  0  0  0  0  0  0  0  0  0  0  0
  127.2640  131.3660   62.8570 C   0  0  0  0  0  0  0  0  0  0  0  0
  128.7660  131.4750   59.6890 C   0  0  0  0  0  0  0  0  0  0  0  0
  129.0680  132.0510   58.4430 C   0  0  0  0  0  0  0  0  0  0  0  0
  130.3660  132.0400   57.9430 C   0  0  0  0  0  0  0  0  0  0  0  0
  131.3880  131.4640   58.6890 C   0  0  0  0  0  0  0  0  0  0  0  0
  131.1220  130.9080   59.9360 C   0  0  0  0  0  0  0  0  0  0  0  0
  129.8220  130.9200   60.4330 C   0  0  0  0  0  0  0  0  0  0  0  0
  123.6203  129.5778   58.0918 H   0  0  0  0  0  0  0  0  0  0  0  0
  124.4098  131.0444   57.2820 H   0  0  0  0  0  0  0  0  0  0  0  0
  124.7527  128.7097   56.1976 H   0  0  0  0  0  0  0  0  0  0  0  0
  126.9460  128.3470   58.1870 H   0  0  0  0  0  0  0  0  0  0  0  0
  126.4211  125.7897   60.7080 H   0  0  0  0  0  0  0  0  0  0  0  0
  124.7623  125.8131   60.0070 H   0  0  0  0  0  0  0  0  0  0  0  0
  124.8965  123.6567   60.1326 H   0  0  0  0  0  0  0  0  0  0  0  0
  124.2439  124.3404   57.2629 H   0  0  0  0  0  0  0  0  0  0  0  0
  124.8604  123.4455   55.0167 H   0  0  0  0  0  0  0  0  0  0  0  0
  126.9503  122.1124   54.7313 H   0  0  0  0  0  0  0  0  0  0  0  0
  128.4326  121.6764   56.6942 H   0  0  0  0  0  0  0  0  0  0  0  0
  129.6125  121.4753   59.0050 H   0  0  0  0  0  0  0  0  0  0  0  0
  130.3519  121.5403   61.3899 H   0  0  0  0  0  0  0  0  0  0  0  0
  128.9884  122.7542   63.0888 H   0  0  0  0  0  0  0  0  0  0  0  0
  126.8818  123.9090   62.4106 H   0  0  0  0  0  0  0  0  0  0  0  0
  126.9620  130.8660   58.2980 H   0  0  0  0  0  0  0  0  0  0  0  0
  128.9312  133.6379   60.9854 H   0  0  0  0  0  0  0  0  0  0  0  0
  128.2712  135.9588   61.5830 H   0  0  0  0  0  0  0  0  0  0  0  0
  125.8649  136.6026   61.5933 H   0  0  0  0  0  0  0  0  0  0  0  0
  124.1156  134.9297   61.0079 H   0  0  0  0  0  0  0  0  0  0  0  0
  124.7693  132.6051   60.4149 H   0  0  0  0  0  0  0  0  0  0  0  0
  126.9280  128.7749   60.6644 H   0  0  0  0  0  0  0  0  0  0  0  0
  126.7082  127.5202   62.7998 H   0  0  0  0  0  0  0  0  0  0  0  0
  126.8416  128.7314   64.9712 H   0  0  0  0  0  0  0  0  0  0  0  0
  127.2067  131.1950   65.0142 H   0  0  0  0  0  0  0  0  0  0  0  0
  127.4288  132.4533   62.8819 H   0  0  0  0  0  0  0  0  0  0  0  0
  128.2650  132.5180   57.8538 H   0  0  0  0  0  0  0  0  0  0  0  0
  130.5830  132.4854   56.9609 H   0  0  0  0  0  0  0  0  0  0  0  0
  132.4132  131.4478   58.2907 H   0  0  0  0  0  0  0  0  0  0  0  0
  131.9353  130.4609   60.5265 H   0  0  0  0  0  0  0  0  0  0  0  0
  129.6175  130.4883   61.4239 H   0  0  0  0  0  0  0  0  0  0  0  0
  1  2  2  0
  2  3  1  0
  3  4  1  0
  4  5  1  0
  5  6  1  0
  6  7  2  0
  6  8  1  0
  8  9  1  0
  9 10  1  0
 10 11  1  0
 11 12  2  0
 12 13  1  0
 13 14  2  0
 14 15  1  0
 15 16  2  0
 16 17  1  0
 17 18  2  0
 18 19  1  0
 19 20  2  0
 20 21  1  0
 21 22  2  0
  4 23  1  0
 23 24  2  0
 23 25  1  0
  2 26  1  0
 26 27  1  0
 27 28  1  0
 28 29  2  0
 29 30  1  0
 30 31  2  0
 31 32  1  0
 32 33  2  0
 27 34  1  0
 34 35  2  0
 35 36  1  0
 36 37  2  0
 37 38  1  0
 38 39  2  0
 27 40  1  0
 40 41  2  0
 41 42  1  0
 42 43  2  0
 43 44  1  0
 44 45  2  0
 22 10  1  0
 33 28  1  0
 39 34  1  0
 45 40  1  0
 16 11  1  0
 22 17  1  0
  3 46  1  0
  3 47  1  0
  4 48  1  6
  5 49  1  0
  9 50  1  0
  9 51  1  0
 10 52  1  0
 12 53  1  0
 13 54  1  0
 14 55  1  0
 15 56  1  0
 18 57  1  0
 19 58  1  0
 20 59  1  0
 21 60  1  0
 26 61  1  0
 29 62  1  0
 30 63  1  0
 31 64  1  0
 32 65  1  0
 33 66  1  0
 35 67  1  0
 36 68  1  0
 37 69  1  0
 38 70  1  0
 39 71  1  0
 41 72  1  0
 42 73  1  0
 43 74  1  0
 44 75  1  0
 45 76  1  0
M  CHG  1  25  -1
M  END
>  <Binding energies>  (1) 
[-9.82]

>  <Ligand effiencies>  (1) 
[-0.20893617021276598]

>  <Interactions>  (1) 
["V-B:GLU:543:CD:9880, V-B:ILE:538:CB:9834, V-B:ALA:541:CB:9864, V-B:TYR:539:CE2:9848, V-B:TYR:539:CD2:9846, V-B:PRO:540:CB:9857, V-B:PRO:540:N:9856, V-B:TYR:539:C:9839, V-B:LEU:363:CD1:8160, V-B:ASP:366:CG:8184, V-B:PRO:540:CA:9855, V-B:TYR:539:CZ:9849, V-A:PRO:540:N:4884, V-A:TYR:539:C:4867, V-B:PRO:482:CB:9297, V-A:TYR:539:CE2:4876, V-B:PRO:482:CG:9298, V-A:PRO:540:CB:4885, V-A:PRO:540:CA:4883, V-A:TYR:539:CD2:4874, V-B:LEU:475:CD1:9229, V-A:ALA:541:CB:4892, V-B:ILE:538:CG2:9835, V-B:TYR:539:CA:9841, V-B:ASP:366:CB:8183, V-B:TYR:539:CG:9844, V-B:TYR:531:CZ:9766, V-B:GLU:543:CG:9879, V-B:TRP:381:CH2:8343, V-A:TYR:539:CZ:4877, H-A:TYR:539:OH:4878, H-B:TYR:531:OH:9767, V-B:TRP:381:CZ2:8341, V-B:ILE:538:CA:9832, V-B:ILE:538:C:9830, V-B:TYR:539:CE1:9847, V-B:TYR:539:CD1:9845"]

$$$$
RR6_Rahimova_2017
     RDKit          3D

 63 66  0  0  0  0  0  0  0  0999 V2000
  127.8810  123.8420   55.0870 C   0  0  0  0  0  0  0  0  0  0  0  0
  128.2560  123.7230   56.4520 O   0  0  0  0  0  0  0  0  0  0  0  0
  127.5440  122.9440   57.3060 C   0  0  0  0  0  0  0  0  0  0  0  0
  126.7080  122.1150   56.9330 O   0  0  0  0  0  0  0  0  0  0  0  0
  127.8740  123.1900   58.7500 C   0  0  0  0  0  0  0  0  0  0  0  0
  127.7880  124.4660   59.3260 C   0  0  0  0  0  0  0  0  0  0  0  0
  128.1080  124.6630   60.6670 C   0  0  0  0  0  0  0  0  0  0  0  0
  128.5270  123.5820   61.4570 C   0  0  0  0  0  0  0  0  0  0  0  0
  128.9010  123.6740   62.8100 N   0  0  0  0  0  0  0  0  0  0  0  0
  129.6320  122.8170   63.5560 C   0  0  0  0  0  0  0  0  0  0  0  0
  130.1270  121.7630   63.1550 O   0  0  0  0  0  0  0  0  0  0  0  0
  129.7840  123.1910   65.0350 C   0  0  0  0  0  0  0  0  0  0  0  0
  130.6910  124.7500   65.3070 S   0  0  0  0  0  0  0  0  0  0  0  0
  129.5900  125.8370   66.1880 C   0  0  0  0  0  0  0  0  0  0  0  0
  129.7190  125.7890   67.5360 N   0  0  0  0  0  0  0  0  0  0  0  0
  128.9530  126.5950   68.3150 C   0  0  0  0  0  0  0  0  0  0  0  0
  129.2010  126.5250   69.7930 C   0  0  0  0  0  0  0  0  0  0  0  0
  129.3420  125.2900   70.4450 C   0  0  0  0  0  0  0  0  0  0  0  0
  129.5590  125.2250   71.8180 C   0  0  0  0  0  0  0  0  0  0  0  0
  129.6450  126.3980   72.5670 C   0  0  0  0  0  0  0  0  0  0  0  0
  129.8720  126.3220   74.0660 C   0  0  0  0  0  0  0  0  0  0  0  0
  129.5100  127.6340   71.9390 C   0  0  0  0  0  0  0  0  0  0  0  0
  129.2940  127.6930   70.5660 C   0  0  0  0  0  0  0  0  0  0  0  0
  128.0210  127.4660   67.7420 C   0  0  0  0  0  0  0  0  0  0  0  0
  127.8650  127.5310   66.3500 C   0  0  0  0  0  0  0  0  0  0  0  0
  126.8650  128.4960   65.8060 C   0  0  0  0  0  0  0  0  0  0  0  0
  127.1940  129.3100   64.7180 C   0  0  0  0  0  0  0  0  0  0  0  0
  126.2620  130.2020   64.1940 C   0  0  0  0  0  0  0  0  0  0  0  0
  124.9840  130.2940   64.7420 C   0  0  0  0  0  0  0  0  0  0  0  0
  124.1250  131.2040   64.1570 O   0  0  0  0  0  0  0  0  0  0  0  0
  123.8440  131.0970   62.7650 C   0  0  0  0  0  0  0  0  0  0  0  0
  124.6470  129.4760   65.8310 C   0  0  0  0  0  0  0  0  0  0  0  0
  125.5810  128.5850   66.3520 C   0  0  0  0  0  0  0  0  0  0  0  0
  128.6680  126.6870   65.5440 C   0  0  0  0  0  0  0  0  0  0  0  0
  128.5360  126.6830   64.0830 C   0  0  0  0  0  0  0  0  0  0  0  0
  128.4330  126.6820   62.9310 N   0  0  0  0  0  0  0  0  0  0  0  0
  128.5980  122.3080   60.8920 C   0  0  0  0  0  0  0  0  0  0  0  0
  128.2800  122.1140   59.5500 C   0  0  0  0  0  0  0  0  0  0  0  0
  126.8344  124.1741   55.0219 H   0  0  0  0  0  0  0  0  0  0  0  0
  128.5308  124.5781   54.5911 H   0  0  0  0  0  0  0  0  0  0  0  0
  127.9875  122.8659   54.5911 H   0  0  0  0  0  0  0  0  0  0  0  0
  127.4645  125.3197   58.7123 H   0  0  0  0  0  0  0  0  0  0  0  0
  128.0321  125.6680   61.1076 H   0  0  0  0  0  0  0  0  0  0  0  0
  128.4910  124.4530   63.3030 H   0  0  0  0  0  0  0  0  0  0  0  0
  128.7799  123.2924   65.4726 H   0  0  0  0  0  0  0  0  0  0  0  0
  130.3700  122.3907   65.5106 H   0  0  0  0  0  0  0  0  0  0  0  0
  129.2800  124.3594   69.8618 H   0  0  0  0  0  0  0  0  0  0  0  0
  129.6627  124.2480   72.3126 H   0  0  0  0  0  0  0  0  0  0  0  0
  128.9557  126.6288   74.5916 H   0  0  0  0  0  0  0  0  0  0  0  0
  130.1273  125.2894   74.3463 H   0  0  0  0  0  0  0  0  0  0  0  0
  130.6975  126.9928   74.3463 H   0  0  0  0  0  0  0  0  0  0  0  0
  129.5740  128.5612   72.5273 H   0  0  0  0  0  0  0  0  0  0  0  0
  129.1942  128.6732   70.0770 H   0  0  0  0  0  0  0  0  0  0  0  0
  127.4042  128.1064   68.3896 H   0  0  0  0  0  0  0  0  0  0  0  0
  128.1975  129.2452   64.2722 H   0  0  0  0  0  0  0  0  0  0  0  0
  126.5367  130.8393   63.3405 H   0  0  0  0  0  0  0  0  0  0  0  0
  122.8243  130.7087   62.6256 H   0  0  0  0  0  0  0  0  0  0  0  0
  123.9257  132.0892   62.2971 H   0  0  0  0  0  0  0  0  0  0  0  0
  124.5649  130.4105   62.2971 H   0  0  0  0  0  0  0  0  0  0  0  0
  123.6422  129.5389   66.2742 H   0  0  0  0  0  0  0  0  0  0  0  0
  125.3059  127.9440   67.2025 H   0  0  0  0  0  0  0  0  0  0  0  0
  128.9069  121.4521   61.5101 H   0  0  0  0  0  0  0  0  0  0  0  0
  128.3483  121.1064   59.1141 H   0  0  0  0  0  0  0  0  0  0  0  0
  1  2  1  0
  2  3  1  0
  3  4  2  0
  3  5  1  0
  5  6  2  0
  6  7  1  0
  7  8  2  0
  8  9  1  0
  9 10  1  0
 10 11  2  0
 10 12  1  0
 12 13  1  0
 13 14  1  0
 14 15  2  0
 15 16  1  0
 16 17  1  0
 17 18  2  0
 18 19  1  0
 19 20  2  0
 20 21  1  0
 20 22  1  0
 22 23  2  0
 16 24  2  0
 24 25  1  0
 25 26  1  0
 26 27  2  0
 27 28  1  0
 28 29  2  0
 29 30  1  0
 30 31  1  0
 29 32  1  0
 32 33  2  0
 25 34  2  0
 34 35  1  0
 35 36  3  0
  8 37  1  0
 37 38  2  0
 38  5  1  0
 34 14  1  0
 23 17  1  0
 33 26  1  0
  1 39  1  0
  1 40  1  0
  1 41  1  0
  6 42  1  0
  7 43  1  0
  9 44  1  0
 12 45  1  0
 12 46  1  0
 18 47  1  0
 19 48  1  0
 21 49  1  0
 21 50  1  0
 21 51  1  0
 22 52  1  0
 23 53  1  0
 24 54  1  0
 27 55  1  0
 28 56  1  0
 31 57  1  0
 31 58  1  0
 31 59  1  0
 32 60  1  0
 33 61  1  0
 37 62  1  0
 38 63  1  0
M  END
>  <Binding energies>  (1) 
[-9.66]

>  <Ligand effiencies>  (1) 
[-0.24769230769230768]

>  <Interactions>  (1) 
["V-B:GLU:543:CD:9880, V-B:ALA:541:CB:9864, V-B:TYR:539:CE2:9848, V-B:TYR:539:CD2:9846, V-B:PRO:540:N:9856, V-B:TYR:539:C:9839, V-B:PRO:540:CA:9855, V-B:TYR:539:CZ:9849, H-B:GLU:543:OE2:9882, H-B:TYR:539:OH:9850, H-B:TYR:539:N:9842, V-B:GLU:543:CB:9878, V-B:HIS:456:CE1:9040, V-B:ARG:545:CG:9894, V-A:HIS:456:CE1:4069, V-A:HIS:456:CD2:4068, H-B:GLU:543:OE1:9881, H-B:TYR:484:OH:9319, H-B:GLY:454:N:9021, H-A:HIS:456:NE2:4070, V-B:ARG:545:CD:9895, V-B:ARG:545:CZ:9898, V-B:GLU:543:CG:9879, V-B:GLY:454:CA:9020, V-A:TYR:484:CE1:4345, V-B:GLU:543:CA:9876, H-A:TYR:484:OH:4348, V-B:TYR:539:CE1:9847"]

$$$$
RR7_Rahimova_2017
     RDKit          3D

 80 86  0  0  0  0  0  0  0  0999 V2000
  125.6320  128.4140   66.8920 C   0  0  0  0  0  0  0  0  0  0  0  0
  124.7910  129.3410   66.2120 O   0  0  0  0  0  0  0  0  0  0  0  0
  125.2200  129.8880   65.0180 C   0  0  0  0  0  0  0  0  0  0  0  0
  124.2490  130.0810   64.0370 C   0  0  0  0  0  0  0  0  0  0  0  0
  124.5860  130.6310   62.8050 C   0  0  0  0  0  0  0  0  0  0  0  0
  125.9110  130.9910   62.5180 C   0  0  0  0  0  0  0  0  0  0  0  0
  126.3110  131.6400   61.1560 C   0  0  0  0  0  0  0  0  0  0  0  0
  125.2160  131.3870   60.2470 O   0  0  0  0  0  0  0  0  0  0  0  0
  124.9930  130.0670   59.7420 C   0  0  0  0  0  0  0  0  0  0  0  0
  125.4790  130.0000   58.2850 C   0  0  1  0  0  0  0  0  0  0  0  0
  126.5800  129.0950   58.2580 O   0  0  0  0  0  0  0  0  0  0  0  0
  126.3520  128.0200   57.3940 C   0  0  1  0  0  0  0  0  0  0  0  0
  126.9950  126.8240   57.9040 N   0  0  0  0  0  0  0  0  0  0  0  0
  128.2250  126.7190   58.5300 C   0  0  0  0  0  0  0  0  0  0  0  0
  128.5890  125.5020   58.8520 N   0  0  0  0  0  0  0  0  0  0  0  0
  127.5700  124.7210   58.3780 C   0  0  0  0  0  0  0  0  0  0  0  0
  127.3650  123.3270   58.3930 C   0  0  0  0  0  0  0  0  0  0  0  0
  128.3350  122.5090   59.0010 N   0  0  0  0  0  0  0  0  0  0  0  0
  128.4430  122.1360   60.2990 C   0  0  0  0  0  0  0  0  0  0  0  0
  127.6720  122.4950   61.1910 O   0  0  0  0  0  0  0  0  0  0  0  0
  129.6220  121.2450   60.6280 C   0  0  0  0  0  0  0  0  0  0  0  0
  130.9230  121.7680   60.5760 C   0  0  0  0  0  0  0  0  0  0  0  0
  132.0210  120.9680   60.8800 C   0  0  0  0  0  0  0  0  0  0  0  0
  131.8270  119.6390   61.2430 C   0  0  0  0  0  0  0  0  0  0  0  0
  130.5440  119.1020   61.3050 C   0  0  0  0  0  0  0  0  0  0  0  0
  129.4450  119.9010   60.9990 C   0  0  0  0  0  0  0  0  0  0  0  0
  126.2370  122.8120   57.8160 N   0  0  0  0  0  0  0  0  0  0  0  0
  125.3610  123.6820   57.2490 C   0  0  0  0  0  0  0  0  0  0  0  0
  125.4580  125.0370   57.1820 N   0  0  0  0  0  0  0  0  0  0  0  0
  126.5680  125.5130   57.7610 C   0  0  0  0  0  0  0  0  0  0  0  0
  124.8370  127.9270   57.2590 C   0  0  0  0  0  0  0  0  0  0  0  0
  124.4720  129.4010   57.2920 C   0  0  2  0  0  0  0  0  0  0  0  0
  124.5560  129.9990   56.0100 O   0  0  0  0  0  0  0  0  0  0  0  0
  126.4680  133.1800   61.2600 C   0  0  0  0  0  0  0  0  0  0  0  0
  125.3950  134.0250   60.9300 C   0  0  0  0  0  0  0  0  0  0  0  0
  125.5290  135.4070   61.0060 C   0  0  0  0  0  0  0  0  0  0  0  0
  126.7390  135.9620   61.4110 C   0  0  0  0  0  0  0  0  0  0  0  0
  127.8160  135.1440   61.7420 C   0  0  0  0  0  0  0  0  0  0  0  0
  127.6810  133.7610   61.6650 C   0  0  0  0  0  0  0  0  0  0  0  0
  127.6370  131.1270   60.5260 C   0  0  0  0  0  0  0  0  0  0  0  0
  128.2020  131.7870   59.4230 C   0  0  0  0  0  0  0  0  0  0  0  0
  129.3820  131.3300   58.8460 C   0  0  0  0  0  0  0  0  0  0  0  0
  130.0080  130.1980   59.3620 C   0  0  0  0  0  0  0  0  0  0  0  0
  129.4590  129.5200   60.4450 C   0  0  0  0  0  0  0  0  0  0  0  0
  128.2780  129.9790   61.0210 C   0  0  0  0  0  0  0  0  0  0  0  0
  126.8810  130.8070   63.5130 C   0  0  0  0  0  0  0  0  0  0  0  0
  126.5440  130.2580   64.7470 C   0  0  0  0  0  0  0  0  0  0  0  0
  125.5158  128.5421   67.9783 H   0  0  0  0  0  0  0  0  0  0  0  0
  125.3496  127.3886   66.6114 H   0  0  0  0  0  0  0  0  0  0  0  0
  126.6800  128.5955   66.6114 H   0  0  0  0  0  0  0  0  0  0  0  0
  123.2061  129.7955   64.2392 H   0  0  0  0  0  0  0  0  0  0  0  0
  123.8043  130.7856   62.0466 H   0  0  0  0  0  0  0  0  0  0  0  0
  125.5508  129.3401   60.3507 H   0  0  0  0  0  0  0  0  0  0  0  0
  123.9202  129.8279   59.7874 H   0  0  0  0  0  0  0  0  0  0  0  0
  125.6898  131.0375   57.9866 H   0  0  0  0  0  0  0  0  0  0  0  0
  126.7919  128.1522   56.3945 H   0  0  0  0  0  0  0  0  0  0  0  0
  128.8535  127.5964   58.7425 H   0  0  0  0  0  0  0  0  0  0  0  0
  129.0430  122.1610   58.3710 H   0  0  0  0  0  0  0  0  0  0  0  0
  131.0767  122.8197   60.2925 H   0  0  0  0  0  0  0  0  0  0  0  0
  133.0379  121.3849   60.8334 H   0  0  0  0  0  0  0  0  0  0  0  0
  132.6948  119.0071   61.4831 H   0  0  0  0  0  0  0  0  0  0  0  0
  130.3988  118.0508   61.5945 H   0  0  0  0  0  0  0  0  0  0  0  0
  128.4312  119.4771   61.0480 H   0  0  0  0  0  0  0  0  0  0  0  0
  124.4662  123.2373   56.7891 H   0  0  0  0  0  0  0  0  0  0  0  0
  124.5409  127.4553   56.3104 H   0  0  0  0  0  0  0  0  0  0  0  0
  124.3428  127.3125   58.0258 H   0  0  0  0  0  0  0  0  0  0  0  0
  123.4295  129.5739   57.5974 H   0  0  0  0  0  0  0  0  0  0  0  0
  125.1910  130.7180   56.0480 H   0  0  0  0  0  0  0  0  0  0  0  0
  124.4381  133.5884   60.6079 H   0  0  0  0  0  0  0  0  0  0  0  0
  124.6817  136.0590   60.7470 H   0  0  0  0  0  0  0  0  0  0  0  0
  126.8455  137.0552   61.4701 H   0  0  0  0  0  0  0  0  0  0  0  0
  128.7694  135.5889   62.0630 H   0  0  0  0  0  0  0  0  0  0  0  0
  128.5335  133.1159   61.9241 H   0  0  0  0  0  0  0  0  0  0  0  0
  127.7049  132.6771   59.0099 H   0  0  0  0  0  0  0  0  0  0  0  0
  129.8186  131.8599   57.9866 H   0  0  0  0  0  0  0  0  0  0  0  0
  130.9436  129.8375   58.9096 H   0  0  0  0  0  0  0  0  0  0  0  0
  129.9564  128.6241   60.8450 H   0  0  0  0  0  0  0  0  0  0  0  0
  127.8418  129.4370   61.8730 H   0  0  0  0  0  0  0  0  0  0  0  0
  127.9227  131.1004   63.3160 H   0  0  0  0  0  0  0  0  0  0  0  0
  127.3205  130.1140   65.5127 H   0  0  0  0  0  0  0  0  0  0  0  0
  1  2  1  0
  2  3  1  0
  3  4  2  0
  4  5  1  0
  5  6  2  0
  6  7  1  0
  7  8  1  0
  8  9  1  0
  9 10  1  0
 10 11  1  0
 11 12  1  0
 12 13  1  0
 13 14  1  0
 14 15  2  0
 15 16  1  0
 16 17  2  0
 17 18  1  0
 18 19  1  0
 19 20  2  0
 19 21  1  0
 21 22  2  0
 22 23  1  0
 23 24  2  0
 24 25  1  0
 25 26  2  0
 17 27  1  0
 27 28  2  0
 28 29  1  0
 29 30  2  0
 12 31  1  0
 31 32  1  0
 32 33  1  0
  7 34  1  0
 34 35  2  0
 35 36  1  0
 36 37  2  0
 37 38  1  0
 38 39  2  0
  7 40  1  0
 40 41  2  0
 41 42  1  0
 42 43  2  0
 43 44  1  0
 44 45  2  0
  6 46  1  0
 46 47  2  0
 47  3  1  0
 32 10  1  0
 39 34  1  0
 45 40  1  0
 30 13  1  0
 30 16  1  0
 26 21  1  0
  1 48  1  0
  1 49  1  0
  1 50  1  0
  4 51  1  0
  5 52  1  0
  9 53  1  0
  9 54  1  0
 10 55  1  6
 12 56  1  6
 14 57  1  0
 18 58  1  0
 22 59  1  0
 23 60  1  0
 24 61  1  0
 25 62  1  0
 26 63  1  0
 28 64  1  0
 31 65  1  0
 31 66  1  0
 32 67  1  1
 33 68  1  0
 35 69  1  0
 36 70  1  0
 37 71  1  0
 38 72  1  0
 39 73  1  0
 41 74  1  0
 42 75  1  0
 43 76  1  0
 44 77  1  0
 45 78  1  0
 46 79  1  0
 47 80  1  0
M  END
>  <Binding energies>  (1) 
[-9.89]

>  <Ligand effiencies>  (1) 
[-0.20183673469387756]

>  <Interactions>  (1) 
["V-A:PRO:482:CB:4326, V-B:ALA:541:CB:9864, V-B:TYR:539:CE2:9848, V-B:TYR:539:CD2:9846, H-B:ALA:541:N:9863, V-B:PRO:540:CB:9857, V-B:TYR:539:C:9839, V-B:LEU:363:CD1:8160, V-B:ASP:366:CG:8184, V-B:PRO:540:CA:9855, V-A:PRO:482:CG:4327, V-B:ALA:541:CA:9862, V-A:LEU:475:CD1:4258, V-B:PRO:482:CB:9297, V-A:TYR:539:CE2:4876, V-B:PRO:482:CG:9298, V-A:TYR:539:CD2:4874, V-B:LEU:475:CD1:9229, V-A:ALA:541:CB:4892, V-B:ASP:366:CB:8183, V-B:TYR:531:CZ:9766, V-B:HIS:456:CE1:9040, V-B:ARG:545:CG:9894, H-B:TYR:484:OH:9319, H-B:ARG:545:NE:9896, V-B:ARG:545:CD:9895, V-B:ARG:545:CZ:9898, V-A:TRP:381:CZ2:3370, V-A:TRP:381:CH2:3372, V-B:TRP:381:CH2:8343, H-B:TYR:539:O:9840, H-A:TYR:539:OH:4878, H-B:TYR:531:OH:9767, V-B:TRP:381:CZ2:8341, V-A:ALA:541:CA:4890, V-B:TRP:381:CZ3:8342, H-B:ASN:370:OD1:8218"]

$$$$
RR8_A_Rahimova_2017
     RDKit          3D

 73 77  0  0  0  0  0  0  0  0999 V2000
  129.9810  127.3240   66.9060 O   0  0  0  0  0  0  0  0  0  0  0  0
  128.8650  127.1250   67.3990 C   0  0  0  0  0  0  0  0  0  0  0  0
  128.6110  126.2280   68.4020 O   0  0  0  0  0  0  0  0  0  0  0  0
  129.1850  126.4780   69.6550 C   0  0  1  0  0  0  0  0  0  0  0  0
  129.2880  127.8490   69.9110 O   0  0  0  0  0  0  0  0  0  0  0  0
  129.0130  128.1550   71.2750 C   0  0  2  0  0  0  0  0  0  0  0  0
  130.2130  128.9210   71.8580 C   0  0  0  0  0  0  0  0  0  0  0  0
  129.7300  129.9740   72.6800 O   0  0  0  0  0  0  0  0  0  0  0  0
  130.1560  131.2670   72.2730 C   0  0  0  0  0  0  0  0  0  0  0  0
  129.5360  132.3230   73.1770 C   0  0  0  0  0  0  0  0  0  0  0  0
  128.7580  131.9340   74.2700 C   0  0  0  0  0  0  0  0  0  0  0  0
  128.1940  132.8980   75.1030 C   0  0  0  0  0  0  0  0  0  0  0  0
  128.4130  134.2490   74.8410 C   0  0  0  0  0  0  0  0  0  0  0  0
  129.1920  134.6460   73.7570 C   0  0  0  0  0  0  0  0  0  0  0  0
  129.7570  133.6820   72.9250 C   0  0  0  0  0  0  0  0  0  0  0  0
  128.7340  126.7850   71.9080 C   0  0  1  0  0  0  0  0  0  0  0  0
  127.6810  126.8150   72.8690 O   0  0  0  0  0  0  0  0  0  0  0  0
  127.9080  127.6370   74.0080 C   0  0  0  0  0  0  0  0  0  0  0  0
  126.5820  128.1550   74.5480 C   0  0  0  0  0  0  0  0  0  0  0  0
  126.5430  129.3660   75.2460 C   0  0  0  0  0  0  0  0  0  0  0  0
  125.3360  129.8410   75.7510 C   0  0  0  0  0  0  0  0  0  0  0  0
  124.1690  129.1020   75.5600 C   0  0  0  0  0  0  0  0  0  0  0  0
  124.2000  127.8920   74.8720 C   0  0  0  0  0  0  0  0  0  0  0  0
  125.4080  127.4150   74.3680 C   0  0  0  0  0  0  0  0  0  0  0  0
  128.2520  125.9500   70.7360 C   0  0  2  0  0  0  0  0  0  0  0  0
  128.4170  124.5610   71.0070 O   0  0  0  0  0  0  0  0  0  0  0  0
  129.7200  124.0380   70.7750 C   0  0  0  0  0  0  0  0  0  0  0  0
  130.4140  123.7670   72.1010 C   0  0  0  0  0  0  0  0  0  0  0  0
  130.8230  124.8320   72.9110 C   0  0  0  0  0  0  0  0  0  0  0  0
  131.4490  124.5790   74.1290 C   0  0  0  0  0  0  0  0  0  0  0  0
  131.6610  123.2630   74.5360 C   0  0  0  0  0  0  0  0  0  0  0  0
  131.2520  122.1980   73.7380 C   0  0  0  0  0  0  0  0  0  0  0  0
  130.6250  122.4500   72.5190 C   0  0  0  0  0  0  0  0  0  0  0  0
  127.6340  127.8630   66.9570 C   0  0  0  0  0  0  0  0  0  0  0  0
  127.6790  128.8480   65.9590 C   0  0  0  0  0  0  0  0  0  0  0  0
  126.5200  129.5160   65.5720 C   0  0  0  0  0  0  0  0  0  0  0  0
  125.2900  129.2190   66.1730 C   0  0  0  0  0  0  0  0  0  0  0  0
  124.0560  129.9300   65.7590 N   0  0  0  0  0  0  0  0  0  0  0  0
  123.3160  130.3790   66.6290 O   0  0  0  0  0  0  0  0  0  0  0  0
  123.8180  130.0460   64.5600 O   0  0  0  0  0  0  0  0  0  0  0  0
  125.2470  128.2370   67.1710 C   0  0  0  0  0  0  0  0  0  0  0  0
  126.4040  127.5690   67.5590 C   0  0  0  0  0  0  0  0  0  0  0  0
  130.1769  126.0024   69.6565 H   0  0  0  0  0  0  0  0  0  0  0  0
  128.1534  128.8172   71.4553 H   0  0  0  0  0  0  0  0  0  0  0  0
  130.8312  128.2375   72.4585 H   0  0  0  0  0  0  0  0  0  0  0  0
  130.8237  129.3347   71.0420 H   0  0  0  0  0  0  0  0  0  0  0  0
  131.2523  131.3278   72.3392 H   0  0  0  0  0  0  0  0  0  0  0  0
  129.8366  131.4445   71.2355 H   0  0  0  0  0  0  0  0  0  0  0  0
  128.5905  130.8660   74.4732 H   0  0  0  0  0  0  0  0  0  0  0  0
  127.5791  132.5942   75.9630 H   0  0  0  0  0  0  0  0  0  0  0  0
  127.9658  135.0100   75.4974 H   0  0  0  0  0  0  0  0  0  0  0  0
  129.3602  135.7148   73.5588 H   0  0  0  0  0  0  0  0  0  0  0  0
  130.3770  133.9889   72.0698 H   0  0  0  0  0  0  0  0  0  0  0  0
  129.6279  126.4133   72.4302 H   0  0  0  0  0  0  0  0  0  0  0  0
  128.4138  127.0482   74.7874 H   0  0  0  0  0  0  0  0  0  0  0  0
  128.5383  128.4906   73.7178 H   0  0  0  0  0  0  0  0  0  0  0  0
  127.4669  129.9438   75.3961 H   0  0  0  0  0  0  0  0  0  0  0  0
  125.3029  130.7947   76.2981 H   0  0  0  0  0  0  0  0  0  0  0  0
  123.2147  129.4787   75.9567 H   0  0  0  0  0  0  0  0  0  0  0  0
  123.2747  127.3151   74.7270 H   0  0  0  0  0  0  0  0  0  0  0  0
  125.4390  126.4568   73.8286 H   0  0  0  0  0  0  0  0  0  0  0  0
  127.1855  126.0294   70.4787 H   0  0  0  0  0  0  0  0  0  0  0  0
  129.6402  123.0995   70.2068 H   0  0  0  0  0  0  0  0  0  0  0  0
  130.3073  124.7711   70.2026 H   0  0  0  0  0  0  0  0  0  0  0  0
  130.6502  125.8686   72.5859 H   0  0  0  0  0  0  0  0  0  0  0  0
  131.7746  125.4139   74.7669 H   0  0  0  0  0  0  0  0  0  0  0  0
  132.1566  123.0637   75.4976 H   0  0  0  0  0  0  0  0  0  0  0  0
  131.4229  121.1627   74.0680 H   0  0  0  0  0  0  0  0  0  0  0  0
  130.2963  121.6126   71.8860 H   0  0  0  0  0  0  0  0  0  0  0  0
  128.6373  129.0946   65.4784 H   0  0  0  0  0  0  0  0  0  0  0  0
  126.5709  130.2845   64.7866 H   0  0  0  0  0  0  0  0  0  0  0  0
  124.2890  127.9916   67.6527 H   0  0  0  0  0  0  0  0  0  0  0  0
  126.3523  126.8025   68.3462 H   0  0  0  0  0  0  0  0  0  0  0  0
  1  2  2  0
  2  3  1  0
  3  4  1  0
  4  5  1  0
  5  6  1  0
  6  7  1  0
  7  8  1  0
  8  9  1  0
  9 10  1  0
 10 11  2  0
 11 12  1  0
 12 13  2  0
 13 14  1  0
 14 15  2  0
  6 16  1  0
 16 17  1  0
 17 18  1  0
 18 19  1  0
 19 20  2  0
 20 21  1  0
 21 22  2  0
 22 23  1  0
 23 24  2  0
 16 25  1  0
 25 26  1  0
 26 27  1  0
 27 28  1  0
 28 29  2  0
 29 30  1  0
 30 31  2  0
 31 32  1  0
 32 33  2  0
  2 34  1  0
 34 35  2  0
 35 36  1  0
 36 37  2  0
 37 38  1  0
 38 39  2  0
 38 40  1  0
 37 41  1  0
 41 42  2  0
 25  4  1  0
 33 28  1  0
 42 34  1  0
 15 10  1  0
 24 19  1  0
  4 43  1  6
  6 44  1  6
  7 45  1  0
  7 46  1  0
  9 47  1  0
  9 48  1  0
 11 49  1  0
 12 50  1  0
 13 51  1  0
 14 52  1  0
 15 53  1  0
 16 54  1  1
 18 55  1  0
 18 56  1  0
 20 57  1  0
 21 58  1  0
 22 59  1  0
 23 60  1  0
 24 61  1  0
 25 62  1  6
 27 63  1  0
 27 64  1  0
 29 65  1  0
 30 66  1  0
 31 67  1  0
 32 68  1  0
 33 69  1  0
 35 70  1  0
 36 71  1  0
 41 72  1  0
 42 73  1  0
M  CHG  2  38   1  40  -1
M  END
>  <Binding energies>  (1) 
[-11.04]

>  <Ligand effiencies>  (1) 
[-0.26285714285714284]

>  <Interactions>  (1) 
["V-B:GLU:543:CB:9878, V-B:HIS:456:CB:9036, V-B:HIS:456:CG:9037, V-B:GLY:544:C:9884, V-B:HIS:456:CD2:9039, H-A:LYS:547:NZ:4951, V-B:HIS:456:CE1:9040, V-B:VAL:457:CA:9046, V-B:HIS:456:C:9032, V-B:ARG:545:CG:9894, H-B:LYS:547:NZ:9923, V-B:VAL:458:CG2:9058, V-A:HIS:456:CE1:4069, V-B:LYS:471:CE:9191, V-A:ASP:473:CG:4240, V-A:HIS:456:CG:4066, V-A:HIS:456:CD2:4068, V-A:ASP:473:CB:4239, V-A:HIS:456:CB:4065, H-B:TYR:484:OH:9319, H-B:ARG:545:NE:9896, V-A:LYS:547:CE:4950, V-A:GLY:544:CA:4914, H-B:GLY:454:N:9021, H-B:HIS:456:NE2:9041, H-A:HIS:456:NE2:4070, V-A:GLU:543:C:4902, V-B:ARG:545:CD:9895, V-B:ARG:545:CZ:9898, V-B:GLY:454:CA:9020, V-A:TYR:484:CE1:4345, H-B:ARG:545:NH2:9900, H-B:ILE:455:N:9026, V-B:ARG:545:CB:9893, H-B:ARG:545:NH1:9899, V-A:TYR:484:CZ:4347, V-A:TYR:484:CD2:4344, V-B:HIS:456:CA:9034, V-B:VAL:457:C:9044, V-B:ASP:473:CG:9211, V-A:GLY:544:C:4912, V-A:TYR:484:CG:4342, V-A:TYR:484:CE2:4346, V-A:TYR:484:CB:4341, V-A:TYR:484:CD1:4343, V-B:TYR:484:CB:9312"]

$$$$
RR8_B_Rahimova_2017
     RDKit          3D

 73 77  0  0  0  0  0  0  0  0999 V2000
  129.7280  127.9060   68.5820 O   0  0  0  0  0  0  0  0  0  0  0  0
  129.2960  127.7370   67.4370 C   0  0  0  0  0  0  0  0  0  0  0  0
  129.9800  127.0970   66.4400 O   0  0  0  0  0  0  0  0  0  0  0  0
  129.6300  125.7670   66.1440 C   0  0  2  0  0  0  0  0  0  0  0  0
  130.7320  124.9080   66.2220 O   0  0  0  0  0  0  0  0  0  0  0  0
  131.3830  124.7770   64.9590 C   0  0  2  0  0  0  0  0  0  0  0  0
  132.8540  125.2090   65.0920 C   0  0  0  0  0  0  0  0  0  0  0  0
  133.6700  124.3340   64.3240 O   0  0  0  0  0  0  0  0  0  0  0  0
  133.8940  124.7470   62.9840 C   0  0  0  0  0  0  0  0  0  0  0  0
  133.6020  123.5860   62.0460 C   0  0  0  0  0  0  0  0  0  0  0  0
  133.8740  122.2770   62.4560 C   0  0  0  0  0  0  0  0  0  0  0  0
  133.6320  121.2110   61.5930 C   0  0  0  0  0  0  0  0  0  0  0  0
  133.1150  121.4580   60.3220 C   0  0  0  0  0  0  0  0  0  0  0  0
  132.8350  122.7580   59.9090 C   0  0  0  0  0  0  0  0  0  0  0  0
  133.0810  123.8250   60.7710 C   0  0  0  0  0  0  0  0  0  0  0  0
  130.5310  125.6220   64.0040 C   0  0  1  0  0  0  0  0  0  0  0  0
  130.4940  125.0060   62.7130 O   0  0  0  0  0  0  0  0  0  0  0  0
  129.2840  124.3380   62.3470 C   0  0  0  0  0  0  0  0  0  0  0  0
  129.5250  122.8850   61.9470 C   0  0  0  0  0  0  0  0  0  0  0  0
  130.2860  122.0490   62.7690 C   0  0  0  0  0  0  0  0  0  0  0  0
  130.4760  120.7150   62.4170 C   0  0  0  0  0  0  0  0  0  0  0  0
  129.9090  120.2240   61.2430 C   0  0  0  0  0  0  0  0  0  0  0  0
  129.1530  121.0530   60.4170 C   0  0  0  0  0  0  0  0  0  0  0  0
  128.9590  122.3860   60.7700 C   0  0  0  0  0  0  0  0  0  0  0  0
  129.1700  125.6730   64.6900 C   0  0  2  0  0  0  0  0  0  0  0  0
  128.4330  126.8090   64.2450 O   0  0  0  0  0  0  0  0  0  0  0  0
  129.0730  127.6120   63.2660 C   0  0  0  0  0  0  0  0  0  0  0  0
  128.0750  128.6460   62.7730 C   0  0  0  0  0  0  0  0  0  0  0  0
  128.4400  129.9920   62.6840 C   0  0  0  0  0  0  0  0  0  0  0  0
  127.5110  130.9340   62.2490 C   0  0  0  0  0  0  0  0  0  0  0  0
  126.2240  130.5280   61.9050 C   0  0  0  0  0  0  0  0  0  0  0  0
  125.8540  129.1870   61.9900 C   0  0  0  0  0  0  0  0  0  0  0  0
  126.7820  128.2440   62.4240 C   0  0  0  0  0  0  0  0  0  0  0  0
  127.9630  128.2530   66.9770 C   0  0  0  0  0  0  0  0  0  0  0  0
  126.7580  127.7010   67.4370 C   0  0  0  0  0  0  0  0  0  0  0  0
  125.5380  128.1930   66.9870 C   0  0  0  0  0  0  0  0  0  0  0  0
  125.4900  129.2420   66.0610 C   0  0  0  0  0  0  0  0  0  0  0  0
  124.1870  129.7480   65.5620 N   0  0  0  0  0  0  0  0  0  0  0  0
  123.2670  129.8930   66.3620 O   0  0  0  0  0  0  0  0  0  0  0  0
  124.0760  130.0090   64.3670 O   0  0  0  0  0  0  0  0  0  0  0  0
  126.6930  129.7970   65.6070 C   0  0  0  0  0  0  0  0  0  0  0  0
  127.9140  129.3110   66.0610 C   0  0  0  0  0  0  0  0  0  0  0  0
  128.8530  125.4816   66.8684 H   0  0  0  0  0  0  0  0  0  0  0  0
  131.4452  123.7496   64.5709 H   0  0  0  0  0  0  0  0  0  0  0  0
  132.9698  126.2387   64.7228 H   0  0  0  0  0  0  0  0  0  0  0  0
  133.1577  125.1652   66.1483 H   0  0  0  0  0  0  0  0  0  0  0  0
  133.2299  125.5902   62.7432 H   0  0  0  0  0  0  0  0  0  0  0  0
  134.9410  125.0629   62.8654 H   0  0  0  0  0  0  0  0  0  0  0  0
  134.2795  122.0891   63.4611 H   0  0  0  0  0  0  0  0  0  0  0  0
  133.8474  120.1806   61.9122 H   0  0  0  0  0  0  0  0  0  0  0  0
  132.9263  120.6172   59.6383 H   0  0  0  0  0  0  0  0  0  0  0  0
  132.4213  122.9420   58.9065 H   0  0  0  0  0  0  0  0  0  0  0  0
  132.8654  124.8543   60.4484 H   0  0  0  0  0  0  0  0  0  0  0  0
  130.9187  126.6352   63.8220 H   0  0  0  0  0  0  0  0  0  0  0  0
  128.5944  124.3597   63.2038 H   0  0  0  0  0  0  0  0  0  0  0  0
  128.8595  124.8613   61.4775 H   0  0  0  0  0  0  0  0  0  0  0  0
  130.7342  122.4442   63.6926 H   0  0  0  0  0  0  0  0  0  0  0  0
  131.0708  120.0523   63.0628 H   0  0  0  0  0  0  0  0  0  0  0  0
  130.0598  119.1704   60.9652 H   0  0  0  0  0  0  0  0  0  0  0  0
  128.7116  120.6566   59.4907 H   0  0  0  0  0  0  0  0  0  0  0  0
  128.3612  123.0455   60.1237 H   0  0  0  0  0  0  0  0  0  0  0  0
  128.4833  124.8355   64.4976 H   0  0  0  0  0  0  0  0  0  0  0  0
  129.9436  128.1170   63.7099 H   0  0  0  0  0  0  0  0  0  0  0  0
  129.4176  126.9874   62.4287 H   0  0  0  0  0  0  0  0  0  0  0  0
  129.4582  130.3066   62.9567 H   0  0  0  0  0  0  0  0  0  0  0  0
  127.7928  131.9949   62.1774 H   0  0  0  0  0  0  0  0  0  0  0  0
  125.4916  131.2738   61.5625 H   0  0  0  0  0  0  0  0  0  0  0  0
  124.8352  128.8755   61.7159 H   0  0  0  0  0  0  0  0  0  0  0  0
  126.4981  127.1835   62.4923 H   0  0  0  0  0  0  0  0  0  0  0  0
  126.7786  126.8720   68.1597 H   0  0  0  0  0  0  0  0  0  0  0  0
  124.6017  127.7540   67.3620 H   0  0  0  0  0  0  0  0  0  0  0  0
  126.6717  130.6257   64.8840 H   0  0  0  0  0  0  0  0  0  0  0  0
  128.8494  129.7614   65.6975 H   0  0  0  0  0  0  0  0  0  0  0  0
  1  2  2  0
  2  3  1  0
  3  4  1  0
  4  5  1  0
  5  6  1  0
  6  7  1  0
  7  8  1  0
  8  9  1  0
  9 10  1  0
 10 11  2  0
 11 12  1  0
 12 13  2  0
 13 14  1  0
 14 15  2  0
  6 16  1  0
 16 17  1  0
 17 18  1  0
 18 19  1  0
 19 20  2  0
 20 21  1  0
 21 22  2  0
 22 23  1  0
 23 24  2  0
 16 25  1  0
 25 26  1  0
 26 27  1  0
 27 28  1  0
 28 29  2  0
 29 30  1  0
 30 31  2  0
 31 32  1  0
 32 33  2  0
  2 34  1  0
 34 35  2  0
 35 36  1  0
 36 37  2  0
 37 38  1  0
 38 39  2  0
 38 40  1  0
 37 41  1  0
 41 42  2  0
 25  4  1  0
 33 28  1  0
 42 34  1  0
 15 10  1  0
 24 19  1  0
  4 43  1  1
  6 44  1  6
  7 45  1  0
  7 46  1  0
  9 47  1  0
  9 48  1  0
 11 49  1  0
 12 50  1  0
 13 51  1  0
 14 52  1  0
 15 53  1  0
 16 54  1  6
 18 55  1  0
 18 56  1  0
 20 57  1  0
 21 58  1  0
 22 59  1  0
 23 60  1  0
 24 61  1  0
 25 62  1  1
 27 63  1  0
 27 64  1  0
 29 65  1  0
 30 66  1  0
 31 67  1  0
 32 68  1  0
 33 69  1  0
 35 70  1  0
 36 71  1  0
 41 72  1  0
 42 73  1  0
M  CHG  2  38   1  40  -1
M  END
>  <Binding energies>  (1) 
[-9.31]

>  <Ligand effiencies>  (1) 
[-0.22166666666666668]

>  <Interactions>  (1) 
["V-B:GLU:543:CD:9880, V-B:ALA:541:CB:9864, V-B:TYR:539:CE2:9848, V-B:TYR:539:CD2:9846, V-B:TYR:539:C:9839, V-A:PRO:482:CG:4327, V-A:LEU:475:CD1:4258, V-A:ASP:366:CG:3213, V-A:GLU:543:CD:4908, V-B:GLU:543:CB:9878, V-B:HIS:456:CE1:9040, V-B:ARG:545:CG:9894, V-A:HIS:456:CE1:4069, H-B:TYR:484:OH:9319, H-B:ARG:545:NE:9896, V-A:GLU:543:CB:4906, H-B:GLY:454:N:9021, H-A:HIS:456:NE2:4070, V-B:ARG:545:CD:9895, V-B:ARG:545:CZ:9898, H-A:GLY:454:N:4050, V-B:GLU:543:CG:9879, H-B:ARG:545:NH2:9900, H-B:ILE:455:N:9026, V-A:ILE:369:CD1:3239, V-A:ILE:369:CG2:3237, H-A:TYR:484:OH:4348, V-A:GLY:454:CA:4049, V-A:ARG:545:CZ:4926, V-A:GLY:453:CA:4044, V-B:TYR:484:CZ:9318, V-A:GLU:543:CG:4907"]

$$$$
RR9_Rahimova_2017
     RDKit          3D

 64 68  0  0  0  0  0  0  0  0999 V2000
  131.1400  123.0800   72.2980 C   0  0  0  0  0  0  0  0  0  0  0  0
  130.2020  123.4500   71.1440 C   0  0  0  0  0  0  0  0  0  0  0  0
  129.5810  124.6970   71.4430 O   0  0  0  0  0  0  0  0  0  0  0  0
  128.9750  125.4130   70.4280 C   0  0  0  0  0  0  0  0  0  0  0  0
  127.8700  126.1840   70.7830 C   0  0  0  0  0  0  0  0  0  0  0  0
  127.1950  126.9360   69.8270 C   0  0  0  0  0  0  0  0  0  0  0  0
  127.6070  126.9390   68.4860 C   0  0  0  0  0  0  0  0  0  0  0  0
  126.8800  127.7450   67.4510 C   0  0  0  0  0  0  0  0  0  0  0  0
  127.4680  128.0590   66.2160 C   0  0  0  0  0  0  0  0  0  0  0  0
  126.7770  128.8040   65.2440 C   0  0  0  0  0  0  0  0  0  0  0  0
  127.4230  129.0210   63.9020 C   0  0  0  0  0  0  0  0  0  0  0  0
  128.3040  129.8690   63.7650 O   0  0  0  0  0  0  0  0  0  0  0  0
  126.9550  128.2550   62.8960 N   0  0  0  0  0  0  0  0  0  0  0  0
  127.3290  128.3700   61.4830 C   0  0  0  0  0  0  0  0  0  0  0  0
  126.4910  129.4220   60.7190 C   0  0  0  0  0  0  0  0  0  0  0  0
  127.2410  130.7040   60.3740 C   0  0  0  0  0  0  0  0  0  0  0  0
  127.9070  131.4190   61.3740 C   0  0  0  0  0  0  0  0  0  0  0  0
  128.6200  132.5700   61.0500 C   0  0  0  0  0  0  0  0  0  0  0  0
  128.6590  133.0060   59.7280 C   0  0  0  0  0  0  0  0  0  0  0  0
  127.9940  132.3020   58.7260 C   0  0  0  0  0  0  0  0  0  0  0  0
  127.2820  131.1500   59.0500 C   0  0  0  0  0  0  0  0  0  0  0  0
  125.4770  129.2430   65.5960 C   0  0  0  0  0  0  0  0  0  0  0  0
  124.4030  130.0240   65.0300 C   0  0  0  0  0  0  0  0  0  0  0  0
  124.3540  130.7760   63.7410 C   0  0  0  0  0  0  0  0  0  0  0  0
  125.1360  131.9220   63.5650 C   0  0  0  0  0  0  0  0  0  0  0  0
  125.0770  132.6310   62.3680 C   0  0  0  0  0  0  0  0  0  0  0  0
  124.2390  132.1950   61.3410 C   0  0  0  0  0  0  0  0  0  0  0  0
  124.1610  132.9780   60.0430 C   0  0  0  0  0  0  0  0  0  0  0  0
  123.4560  131.0520   61.5130 C   0  0  0  0  0  0  0  0  0  0  0  0
  123.5180  130.3440   62.7090 C   0  0  0  0  0  0  0  0  0  0  0  0
  123.3680  130.0410   65.8400 N   0  0  0  0  0  0  0  0  0  0  0  0
  123.7010  129.3630   66.9500 N   0  0  0  0  0  0  0  0  0  0  0  0
  124.9790  128.8630   66.8660 C   0  0  0  0  0  0  0  0  0  0  0  0
  125.6220  128.1490   67.7880 N   0  0  0  0  0  0  0  0  0  0  0  0
  128.7180  126.1590   68.1370 C   0  0  0  0  0  0  0  0  0  0  0  0
  129.3970  125.4060   69.0920 C   0  0  0  0  0  0  0  0  0  0  0  0
  130.6379  123.2780   73.2565 H   0  0  0  0  0  0  0  0  0  0  0  0
  131.3981  122.0127   72.2329 H   0  0  0  0  0  0  0  0  0  0  0  0
  132.0572  123.6837   72.2329 H   0  0  0  0  0  0  0  0  0  0  0  0
  130.7789  123.5378   70.2115 H   0  0  0  0  0  0  0  0  0  0  0  0
  129.4364  122.6703   71.0181 H   0  0  0  0  0  0  0  0  0  0  0  0
  127.5284  126.1981   71.8285 H   0  0  0  0  0  0  0  0  0  0  0  0
  126.3245  127.5378   70.1272 H   0  0  0  0  0  0  0  0  0  0  0  0
  128.4911  127.7150   66.0039 H   0  0  0  0  0  0  0  0  0  0  0  0
  126.2930  127.5270   63.1210 H   0  0  0  0  0  0  0  0  0  0  0  0
  128.3894  128.6562   61.4234 H   0  0  0  0  0  0  0  0  0  0  0  0
  127.1397  127.3940   61.0123 H   0  0  0  0  0  0  0  0  0  0  0  0
  126.1413  128.9663   59.7809 H   0  0  0  0  0  0  0  0  0  0  0  0
  125.6697  129.7130   61.3904 H   0  0  0  0  0  0  0  0  0  0  0  0
  127.8676  131.0720   62.4171 H   0  0  0  0  0  0  0  0  0  0  0  0
  129.1495  133.1318   61.8336 H   0  0  0  0  0  0  0  0  0  0  0  0
  129.2210  133.9162   59.4719 H   0  0  0  0  0  0  0  0  0  0  0  0
  128.0313  132.6544   57.6847 H   0  0  0  0  0  0  0  0  0  0  0  0
  126.7521  130.5913   58.2644 H   0  0  0  0  0  0  0  0  0  0  0  0
  125.7988  132.2639   64.3735 H   0  0  0  0  0  0  0  0  0  0  0  0
  125.6904  133.5339   62.2321 H   0  0  0  0  0  0  0  0  0  0  0  0
  124.0542  134.0496   60.2671 H   0  0  0  0  0  0  0  0  0  0  0  0
  125.0798  132.8149   59.4606 H   0  0  0  0  0  0  0  0  0  0  0  0
  123.2924  132.6369   59.4606 H   0  0  0  0  0  0  0  0  0  0  0  0
  122.7917  130.7120   60.7049 H   0  0  0  0  0  0  0  0  0  0  0  0
  122.9058  129.4399   62.8424 H   0  0  0  0  0  0  0  0  0  0  0  0
  123.0440  129.2680   67.7120 H   0  0  0  0  0  0  0  0  0  0  0  0
  129.0594  126.1412   67.0915 H   0  0  0  0  0  0  0  0  0  0  0  0
  130.2683  124.8033   68.7960 H   0  0  0  0  0  0  0  0  0  0  0  0
  1  2  1  0
  2  3  1  0
  3  4  1  0
  4  5  2  0
  5  6  1  0
  6  7  2  0
  7  8  1  0
  8  9  2  0
  9 10  1  0
 10 11  1  0
 11 12  2  0
 11 13  1  0
 13 14  1  0
 14 15  1  0
 15 16  1  0
 16 17  2  0
 17 18  1  0
 18 19  2  0
 19 20  1  0
 20 21  2  0
 10 22  2  0
 22 23  1  0
 23 24  1  0
 24 25  2  0
 25 26  1  0
 26 27  2  0
 27 28  1  0
 27 29  1  0
 29 30  2  0
 23 31  2  0
 31 32  1  0
 32 33  1  0
 33 34  2  0
  7 35  1  0
 35 36  2  0
 36  4  1  0
 34  8  1  0
 21 16  1  0
 33 22  1  0
 30 24  1  0
  1 37  1  0
  1 38  1  0
  1 39  1  0
  2 40  1  0
  2 41  1  0
  5 42  1  0
  6 43  1  0
  9 44  1  0
 13 45  1  0
 14 46  1  0
 14 47  1  0
 15 48  1  0
 15 49  1  0
 17 50  1  0
 18 51  1  0
 19 52  1  0
 20 53  1  0
 21 54  1  0
 25 55  1  0
 26 56  1  0
 28 57  1  0
 28 58  1  0
 28 59  1  0
 29 60  1  0
 30 61  1  0
 32 62  1  0
 35 63  1  0
 36 64  1  0
M  END
>  <Binding energies>  (1) 
[-9.55]

>  <Ligand effiencies>  (1) 
[-0.2513157894736842]

>  <Interactions>  (1) 
["V-B:GLU:543:CD:9880, V-B:ASP:366:CG:8184, H-B:GLU:543:OE2:9882, V-A:PRO:540:N:4884, V-A:TYR:539:C:4867, V-A:TYR:539:CE2:4876, V-A:PRO:540:CA:4883, V-A:TYR:539:CD2:4874, V-B:LEU:475:CD1:9229, V-A:ALA:541:CB:4892, V-B:GLU:543:C:9874, V-B:GLU:543:CB:9878, V-B:GLY:544:C:9884, V-B:HIS:456:CE1:9040, V-B:ARG:545:CG:9894, H-B:LYS:547:NZ:9923, V-A:HIS:456:CE1:4069, V-A:HIS:456:CG:4066, V-A:HIS:456:CD2:4068, V-A:HIS:456:CB:4065, H-B:GLU:543:OE1:9881, H-B:TYR:484:OH:9319, H-B:ARG:545:NE:9896, H-B:GLY:454:N:9021, H-A:HIS:456:NE2:4070, V-B:ILE:369:CD1:8210, V-B:ARG:545:CD:9895, V-B:ILE:369:CG2:8208, V-B:ARG:545:CZ:9898, V-B:GLY:454:CA:9020, V-A:TYR:484:CE1:4345, H-B:ILE:455:N:9026, V-B:ARG:545:CB:9893, V-A:TYR:484:CZ:4347, V-A:TYR:539:CZ:4877, V-A:TYR:484:CD2:4344, V-B:ILE:455:C:9023, H-B:HIS:456:ND1:9038, V-A:TYR:484:CG:4342, V-A:TYR:484:CE2:4346, V-A:TYR:484:CD1:4343, H-B:ILE:455:O:9024"]

$$$$
