1a_Grossjean_2025
     RDKit          3D

 26 27  0  0  0  0  0  0  0  0999 V2000
  125.7510  126.9250   74.5410 C   0  0  0  0  0  0  0  0  0  0  0  0
  126.7660  126.9890   73.3960 C   0  0  0  0  0  0  0  0  0  0  0  0
  127.8960  126.1890   73.7190 O   0  0  0  0  0  0  0  0  0  0  0  0
  129.1130  126.4410   73.1700 C   0  0  0  0  0  0  0  0  0  0  0  0
  130.0280  127.0070   73.7760 O   0  0  0  0  0  0  0  0  0  0  0  0
  129.2300  125.9770   71.7470 C   0  0  0  0  0  0  0  0  0  0  0  0
  128.7090  126.7780   70.7220 C   0  0  0  0  0  0  0  0  0  0  0  0
  128.7980  126.3730   69.3930 C   0  0  0  0  0  0  0  0  0  0  0  0
  129.4050  125.1620   69.0610 C   0  0  0  0  0  0  0  0  0  0  0  0
  129.4360  124.8510   67.6870 N   0  0  0  0  0  0  0  0  0  0  0  0
  130.0040  125.5170   66.6600 C   0  0  0  0  0  0  0  0  0  0  0  0
  130.6320  126.5730   66.7510 O   0  0  0  0  0  0  0  0  0  0  0  0
  129.8300  124.8720   65.2830 C   0  0  0  0  0  0  0  0  0  0  0  0
  129.9950  123.0620   65.3490 S   0  0  0  0  0  0  0  0  0  0  0  0
  130.8390  122.5490   63.8700 C   0  0  0  0  0  0  0  0  0  0  0  0
  130.0740  121.8030   63.0340 N   0  0  0  0  0  0  0  0  0  0  0  0
  130.6200  121.3540   61.8800 C   0  0  0  0  0  0  0  0  0  0  0  0
  129.7100  120.5150   61.0020 C   0  0  0  0  0  0  0  0  0  0  0  0
  131.9330  121.6350   61.5090 C   0  0  0  0  0  0  0  0  0  0  0  0
  132.7240  122.4210   62.3540 C   0  0  0  0  0  0  0  0  0  0  0  0
  134.1560  122.7300   61.9200 C   0  0  0  0  0  0  0  0  0  0  0  0
  132.1740  122.9040   63.5640 C   0  0  0  0  0  0  0  0  0  0  0  0
  132.9680  123.7700   64.4420 C   0  0  0  0  0  0  0  0  0  0  0  0
  133.5960  124.4520   65.1320 N   0  0  0  0  0  0  0  0  0  0  0  0
  129.9360  124.3570   70.0800 C   0  0  0  0  0  0  0  0  0  0  0  0
  129.8460  124.7620   71.4090 C   0  0  0  0  0  0  0  0  0  0  0  0
  1  2  1  0
  2  3  1  0
  3  4  1  0
  4  5  2  0
  4  6  1  0
  6  7  2  0
  7  8  1  0
  8  9  2  0
  9 10  1  0
 10 11  1  0
 11 12  2  0
 11 13  1  0
 13 14  1  0
 14 15  1  0
 15 16  2  0
 16 17  1  0
 17 18  1  0
 17 19  2  0
 19 20  1  0
 20 21  1  0
 20 22  2  0
 22 23  1  0
 23 24  3  0
  9 25  1  0
 25 26  2  0
 26  6  1  0
 22 15  1  0
M  END
>  <Binding energies>  (1) 
[-7.94]

>  <Ligand effiencies>  (1) 
[-0.2940740740740741]

>  <Interactions>  (1) 
["V-B:ALA:541:CB:9864, V-B:TYR:539:CD2:9846, V-A:LEU:475:CD1:4258, V-B:GLU:543:C:9874, V-B:GLU:543:CB:9878, H-A:LYS:547:NZ:4951, V-B:HIS:456:CE1:9040, H-B:LYS:547:NZ:9923, V-A:HIS:456:CE1:4069, V-A:HIS:456:CG:4066, V-A:HIS:456:CD2:4068, H-A:HIS:456:NE2:4070, H-A:GLY:454:N:4050, V-B:GLU:543:CG:9879, V-A:TYR:484:CE1:4345, V-B:GLU:543:CA:9876, V-A:ILE:369:CD1:3239, V-A:TYR:484:CZ:4347, H-A:TYR:484:OH:4348, V-A:GLY:454:CA:4049, H-B:GLU:543:O:9875, V-B:LYS:547:CD:9921, V-A:TYR:484:CE2:4346, V-A:TYR:484:CD1:4343"]

$$$$
1aa_Ghoteimi_2023
     RDKit          3D

 40 43  0  0  0  0  0  0  0  0999 V2000
  130.7320  128.0000   57.2530 C   0  0  0  0  0  0  0  0  0  0  0  0
  132.0940  127.2980   57.2230 C   0  0  0  0  0  0  0  0  0  0  0  0
  131.9000  125.8910   57.1470 O   0  0  0  0  0  0  0  0  0  0  0  0
  132.7070  125.0350   57.8240 C   0  0  0  0  0  0  0  0  0  0  0  0
  133.5170  124.2830   57.2720 O   0  0  0  0  0  0  0  0  0  0  0  0
  132.5190  125.0920   59.3130 C   0  0  0  0  0  0  0  0  0  0  0  0
  133.2130  124.2370   60.1820 C   0  0  0  0  0  0  0  0  0  0  0  0
  133.0190  124.3140   61.5590 C   0  0  0  0  0  0  0  0  0  0  0  0
  132.1240  125.2530   62.0930 C   0  0  0  0  0  0  0  0  0  0  0  0
  131.8470  125.4200   63.4620 N   0  0  0  0  0  0  0  0  0  0  0  0
  132.6280  125.2090   64.5470 C   0  0  0  0  0  0  0  0  0  0  0  0
  133.7930  124.8120   64.5090 O   0  0  0  0  0  0  0  0  0  0  0  0
  132.0080  125.4880   65.9250 C   0  0  0  0  0  0  0  0  0  0  0  0
  130.6290  125.0990   65.9440 O   0  0  0  0  0  0  0  0  0  0  0  0
  129.6940  125.8600   66.6310 C   0  0  0  0  0  0  0  0  0  0  0  0
  129.6800  125.7820   67.9910 N   0  0  0  0  0  0  0  0  0  0  0  0
  128.7700  126.5010   68.6990 C   0  0  0  0  0  0  0  0  0  0  0  0
  128.8210  126.3610   70.1940 C   0  0  0  0  0  0  0  0  0  0  0  0
  129.3800  125.2230   70.7940 C   0  0  0  0  0  0  0  0  0  0  0  0
  129.4270  125.0910   72.1790 C   0  0  0  0  0  0  0  0  0  0  0  0
  128.9190  126.0900   73.0060 C   0  0  0  0  0  0  0  0  0  0  0  0
  129.0070  125.8710   74.3670 O   0  0  0  0  0  0  0  0  0  0  0  0
  130.2900  125.6970   74.9610 C   0  0  0  0  0  0  0  0  0  0  0  0
  128.3620  127.2350   72.4220 C   0  0  0  0  0  0  0  0  0  0  0  0
  128.3170  127.3660   71.0370 C   0  0  0  0  0  0  0  0  0  0  0  0
  127.8580  127.3400   68.0460 C   0  0  0  0  0  0  0  0  0  0  0  0
  127.8590  127.4470   66.6490 C   0  0  0  0  0  0  0  0  0  0  0  0
  126.8690  128.3660   66.0130 C   0  0  0  0  0  0  0  0  0  0  0  0
  127.2180  129.0960   64.8720 C   0  0  0  0  0  0  0  0  0  0  0  0
  126.2970  129.9470   64.2680 C   0  0  0  0  0  0  0  0  0  0  0  0
  125.0100  130.0830   64.7870 C   0  0  0  0  0  0  0  0  0  0  0  0
  124.1640  130.9500   64.1220 O   0  0  0  0  0  0  0  0  0  0  0  0
  123.8250  130.6860   62.7650 C   0  0  0  0  0  0  0  0  0  0  0  0
  124.6530  129.3470   65.9260 C   0  0  0  0  0  0  0  0  0  0  0  0
  125.5750  128.4960   66.5300 C   0  0  0  0  0  0  0  0  0  0  0  0
  128.7980  126.6780   65.9220 C   0  0  0  0  0  0  0  0  0  0  0  0
  128.8460  126.6920   64.4590 C   0  0  0  0  0  0  0  0  0  0  0  0
  128.8850  126.7010   63.3030 N   0  0  0  0  0  0  0  0  0  0  0  0
  131.4310  126.1030   61.2300 C   0  0  0  0  0  0  0  0  0  0  0  0
  131.6250  126.0250   59.8550 C   0  0  0  0  0  0  0  0  0  0  0  0
  1  2  1  0
  2  3  1  0
  3  4  1  0
  4  5  2  0
  4  6  1  0
  6  7  2  0
  7  8  1  0
  8  9  2  0
  9 10  1  0
 10 11  1  0
 11 12  2  0
 11 13  1  0
 13 14  1  0
 14 15  1  0
 15 16  2  0
 16 17  1  0
 17 18  1  0
 18 19  2  0
 19 20  1  0
 20 21  2  0
 21 22  1  0
 22 23  1  0
 21 24  1  0
 24 25  2  0
 17 26  2  0
 26 27  1  0
 27 28  1  0
 28 29  2  0
 29 30  1  0
 30 31  2  0
 31 32  1  0
 32 33  1  0
 31 34  1  0
 34 35  2  0
 27 36  2  0
 36 37  1  0
 37 38  3  0
  9 39  1  0
 39 40  2  0
 40  6  1  0
 36 15  1  0
 25 18  1  0
 35 28  1  0
M  END
>  <Binding energies>  (2) 
[-9.27]

>  <Ligand effiencies>  (2) 
[-0.22609756097560973]

>  <Interactions>  (2) 
["V-B:GLU:543:CD:9880, V-B:TYR:539:CZ:9849, V-A:ASP:366:CB:3212, V-A:TYR:531:CZ:4794, V-A:ASP:366:CG:3213, H-A:TYR:531:OH:4795, H-B:TYR:539:OH:9850, V-B:GLU:543:CB:9878, V-B:HIS:456:CD2:9039, V-B:HIS:456:CE1:9040, V-B:ARG:545:CG:9894, H-B:LYS:547:NZ:9923, V-A:HIS:456:CE1:4069, V-A:HIS:456:CD2:4068, H-B:TYR:484:OH:9319, H-B:GLY:454:N:9021, H-A:HIS:456:NE2:4070, V-B:ARG:545:CD:9895, V-B:ARG:545:CZ:9898, H-A:GLY:454:N:4050, V-B:GLU:543:CG:9879, H-A:TYR:484:OH:4348, H-A:GLU:543:OE2:4910, V-A:ASP:366:CA:3210, H-A:ARG:545:NH2:4928, H-A:ARG:545:NE:4924, V-A:ARG:545:CZ:4926"]

$$$$
1b_Grossjean_2025
     RDKit          3D

 25 26  0  0  0  0  0  0  0  0999 V2000
  125.8130  127.3500   73.4920 C   0  0  0  0  0  0  0  0  0  0  0  0
  127.0010  127.4560   72.7190 O   0  0  0  0  0  0  0  0  0  0  0  0
  127.9280  126.4640   72.7230 C   0  0  0  0  0  0  0  0  0  0  0  0
  128.3170  125.9000   73.7500 O   0  0  0  0  0  0  0  0  0  0  0  0
  128.4280  126.1130   71.3510 C   0  0  0  0  0  0  0  0  0  0  0  0
  129.3160  125.0490   71.1340 C   0  0  0  0  0  0  0  0  0  0  0  0
  129.7610  124.7510   69.8490 C   0  0  0  0  0  0  0  0  0  0  0  0
  129.3310  125.5050   68.7580 C   0  0  0  0  0  0  0  0  0  0  0  0
  129.8470  125.1150   67.5070 N   0  0  0  0  0  0  0  0  0  0  0  0
  129.5600  125.5690   66.2670 C   0  0  0  0  0  0  0  0  0  0  0  0
  128.7550  126.4600   66.0000 O   0  0  0  0  0  0  0  0  0  0  0  0
  130.3330  124.9000   65.1300 C   0  0  0  0  0  0  0  0  0  0  0  0
  130.1040  123.0960   65.1140 S   0  0  0  0  0  0  0  0  0  0  0  0
  130.9420  122.4680   63.6740 C   0  0  0  0  0  0  0  0  0  0  0  0
  130.2000  121.5960   62.9470 N   0  0  0  0  0  0  0  0  0  0  0  0
  130.7400  121.0570   61.8290 C   0  0  0  0  0  0  0  0  0  0  0  0
  129.8470  120.1030   61.0580 C   0  0  0  0  0  0  0  0  0  0  0  0
  132.0330  121.3540   61.4010 C   0  0  0  0  0  0  0  0  0  0  0  0
  132.8130  122.2340   62.1560 C   0  0  0  0  0  0  0  0  0  0  0  0
  134.2330  122.5310   61.6760 C   0  0  0  0  0  0  0  0  0  0  0  0
  132.2710  122.8090   63.3280 C   0  0  0  0  0  0  0  0  0  0  0  0
  133.0850  123.6990   64.1580 C   0  0  0  0  0  0  0  0  0  0  0  0
  133.7310  124.4020   64.8120 N   0  0  0  0  0  0  0  0  0  0  0  0
  128.4430  126.5710   68.9660 C   0  0  0  0  0  0  0  0  0  0  0  0
  127.9980  126.8680   70.2510 C   0  0  0  0  0  0  0  0  0  0  0  0
  1  2  1  0
  2  3  1  0
  3  4  2  0
  3  5  1  0
  5  6  2  0
  6  7  1  0
  7  8  2  0
  8  9  1  0
  9 10  1  0
 10 11  2  0
 10 12  1  0
 12 13  1  0
 13 14  1  0
 14 15  2  0
 15 16  1  0
 16 17  1  0
 16 18  2  0
 18 19  1  0
 19 20  1  0
 19 21  2  0
 21 22  1  0
 22 23  3  0
  8 24  1  0
 24 25  2  0
 25  5  1  0
 21 14  1  0
M  END
>  <Binding energies>  (3) 
[-7.85]

>  <Ligand effiencies>  (3) 
[-0.3019230769230769]

>  <Interactions>  (3) 
["V-B:ALA:541:CB:9864, V-B:TYR:539:CD2:9846, V-A:PRO:482:CG:4327, V-A:LEU:475:CD1:4258, V-B:GLU:543:C:9874, V-B:GLU:543:CB:9878, V-B:HIS:456:CB:9036, V-B:HIS:456:CG:9037, V-B:HIS:456:CE1:9040, H-B:LYS:547:NZ:9923, V-A:HIS:456:CE1:4069, V-A:HIS:456:CG:4066, V-A:HIS:456:CD2:4068, H-A:GLY:454:N:4050, V-A:TYR:484:CE1:4345, V-A:ILE:369:CD1:3239, V-A:TYR:484:CZ:4347, H-A:TYR:484:OH:4348, V-A:GLY:454:CA:4049, H-A:HIS:456:ND1:4067, H-B:GLU:543:O:9875"]

$$$$
1c_Grossjean_2025
     RDKit          3D

 23 24  0  0  0  0  0  0  0  0999 V2000
  127.2670  127.1750   73.9600 C   0  0  0  0  0  0  0  0  0  0  0  0
  128.2200  126.2060   73.5380 O   0  0  0  0  0  0  0  0  0  0  0  0
  128.4480  126.0280   72.1870 C   0  0  0  0  0  0  0  0  0  0  0  0
  129.4370  125.1080   71.8380 C   0  0  0  0  0  0  0  0  0  0  0  0
  129.7390  124.8590   70.5030 C   0  0  0  0  0  0  0  0  0  0  0  0
  129.0410  125.5330   69.4890 C   0  0  0  0  0  0  0  0  0  0  0  0
  129.2720  125.3650   68.1100 N   0  0  0  0  0  0  0  0  0  0  0  0
  129.9130  126.1780   67.2430 C   0  0  0  0  0  0  0  0  0  0  0  0
  130.4470  127.2490   67.5300 O   0  0  0  0  0  0  0  0  0  0  0  0
  129.9640  125.6840   65.7960 C   0  0  0  0  0  0  0  0  0  0  0  0
  130.1240  123.8760   65.7030 S   0  0  0  0  0  0  0  0  0  0  0  0
  130.8550  123.4570   64.1340 C   0  0  0  0  0  0  0  0  0  0  0  0
  129.9950  122.8390   63.2850 N   0  0  0  0  0  0  0  0  0  0  0  0
  130.4380  122.4710   62.0600 C   0  0  0  0  0  0  0  0  0  0  0  0
  129.4170  121.7960   61.1650 C   0  0  0  0  0  0  0  0  0  0  0  0
  131.7470  122.6920   61.6380 C   0  0  0  0  0  0  0  0  0  0  0  0
  132.6490  123.3060   62.5120 C   0  0  0  0  0  0  0  0  0  0  0  0
  134.0830  123.5210   62.0330 C   0  0  0  0  0  0  0  0  0  0  0  0
  132.2090  123.6970   63.7980 C   0  0  0  0  0  0  0  0  0  0  0  0
  133.1530  124.2910   64.7480 C   0  0  0  0  0  0  0  0  0  0  0  0
  133.8990  124.7610   65.4970 N   0  0  0  0  0  0  0  0  0  0  0  0
  128.0590  126.4630   69.8340 C   0  0  0  0  0  0  0  0  0  0  0  0
  127.7600  126.7090   71.1710 C   0  0  0  0  0  0  0  0  0  0  0  0
  1  2  1  0
  2  3  1  0
  3  4  2  0
  4  5  1  0
  5  6  2  0
  6  7  1  0
  7  8  1  0
  8  9  2  0
  8 10  1  0
 10 11  1  0
 11 12  1  0
 12 13  2  0
 13 14  1  0
 14 15  1  0
 14 16  2  0
 16 17  1  0
 17 18  1  0
 17 19  2  0
 19 20  1  0
 20 21  3  0
  6 22  1  0
 22 23  2  0
 23  3  1  0
 19 12  1  0
M  END
>  <Binding energies>  (4) 
[-7.14]

>  <Ligand effiencies>  (4) 
[-0.2975]

>  <Interactions>  (4) 
["V-B:ALA:541:CB:9864, V-B:GLU:543:C:9874, V-B:GLU:543:CB:9878, V-B:GLY:544:C:9884, V-B:HIS:456:CE1:9040, H-B:LYS:547:NZ:9923, V-A:HIS:456:CE1:4069, V-A:HIS:456:CG:4066, V-A:HIS:456:CD2:4068, H-A:HIS:456:NE2:4070, H-A:GLY:454:N:4050, V-A:TYR:484:CE1:4345, V-A:ILE:369:CD1:3239, H-A:TYR:484:OH:4348, V-A:GLY:454:CA:4049, H-A:ARG:545:NE:4924, H-B:GLU:543:O:9875"]

$$$$
1d_Grossjean_2025
     RDKit          3D

 21 22  0  0  0  0  0  0  0  0999 V2000
  123.2750  130.7590   62.4680 C   0  0  0  0  0  0  0  0  0  0  0  0
  124.3190  130.3520   63.4890 C   0  0  0  0  0  0  0  0  0  0  0  0
  123.9680  129.9880   64.7870 C   0  0  0  0  0  0  0  0  0  0  0  0
  124.9740  129.6120   65.6830 C   0  0  0  0  0  0  0  0  0  0  0  0
  124.5630  129.2010   67.0960 C   0  0  0  0  0  0  0  0  0  0  0  0
  126.3220  129.6190   65.2540 C   0  0  0  0  0  0  0  0  0  0  0  0
  127.3860  129.1840   66.1600 C   0  0  0  0  0  0  0  0  0  0  0  0
  128.2250  128.8390   66.8780 N   0  0  0  0  0  0  0  0  0  0  0  0
  126.5880  130.0270   63.9250 C   0  0  0  0  0  0  0  0  0  0  0  0
  128.2190  130.0970   63.2200 S   0  0  0  0  0  0  0  0  0  0  0  0
  128.6350  131.8520   62.9860 C   0  0  0  0  0  0  0  0  0  0  0  0
  129.5960  132.0660   61.8150 C   0  0  0  0  0  0  0  0  0  0  0  0
  129.3950  132.9980   61.0360 O   0  0  0  0  0  0  0  0  0  0  0  0
  130.6290  131.1990   61.7500 N   0  0  0  0  0  0  0  0  0  0  0  0
  131.6690  131.1040   60.8070 C   0  0  0  0  0  0  0  0  0  0  0  0
  131.2690  130.9010   59.4830 C   0  0  0  0  0  0  0  0  0  0  0  0
  132.2180  130.7990   58.4700 C   0  0  0  0  0  0  0  0  0  0  0  0
  133.5720  130.9070   58.7780 C   0  0  0  0  0  0  0  0  0  0  0  0
  133.9840  131.1170   60.0920 C   0  0  0  0  0  0  0  0  0  0  0  0
  133.0370  131.2190   61.1080 C   0  0  0  0  0  0  0  0  0  0  0  0
  125.6020  130.3700   63.0570 N   0  0  0  0  0  0  0  0  0  0  0  0
  1  2  1  0
  2  3  2  0
  3  4  1  0
  4  5  1  0
  4  6  2  0
  6  7  1  0
  7  8  3  0
  6  9  1  0
  9 10  1  0
 10 11  1  0
 11 12  1  0
 12 13  2  0
 12 14  1  0
 14 15  1  0
 15 16  2  0
 16 17  1  0
 17 18  2  0
 18 19  1  0
 19 20  2  0
  9 21  2  0
 21  2  1  0
 20 15  1  0
M  END
>  <Binding energies>  (5) 
[-6.8]

>  <Ligand effiencies>  (5) 
[-0.3090909090909091]

>  <Interactions>  (5) 
["V-B:ASP:366:CG:8184, V-A:ASP:366:CG:3213, V-A:GLU:543:CD:4908, V-A:PRO:540:CB:4885, V-A:PRO:540:CA:4883, V-A:ALA:541:CB:4892, H-A:ALA:541:N:4891, V-B:HIS:456:CE1:9040, V-B:ARG:545:CG:9894, V-B:ILE:369:CD1:8210, V-B:ARG:545:CD:9895, V-B:ARG:545:CZ:9898, V-B:GLY:454:CA:9020, H-A:GLU:543:OE2:4910, V-A:ASN:362:C:3172, V-A:ASN:362:CB:3176, H-A:GLU:543:OE1:4909, V-A:LEU:363:CA:3185, V-A:ALA:541:CA:4890, V-A:LEU:363:CB:3187"]

$$$$
1e_Grossjean_2025
     RDKit          3D

 22 23  0  0  0  0  0  0  0  0999 V2000
  134.8900  125.0770   66.6280 C   0  0  0  0  0  0  0  0  0  0  0  0
  133.8300  125.1260   65.5440 C   0  0  0  0  0  0  0  0  0  0  0  0
  132.5030  125.4580   65.8320 C   0  0  0  0  0  0  0  0  0  0  0  0
  131.5830  125.4800   64.7840 C   0  0  0  0  0  0  0  0  0  0  0  0
  132.0030  125.1710   63.4880 C   0  0  0  0  0  0  0  0  0  0  0  0
  133.3480  124.8510   63.2680 C   0  0  0  0  0  0  0  0  0  0  0  0
  133.7090  124.5380   61.9460 N   0  0  0  0  0  0  0  0  0  0  0  0
  134.3460  123.4390   61.4860 C   0  0  0  0  0  0  0  0  0  0  0  0
  134.7370  122.5040   62.1860 O   0  0  0  0  0  0  0  0  0  0  0  0
  134.6100  123.4040   59.9790 C   0  0  0  0  0  0  0  0  0  0  0  0
  133.0700  123.2640   59.0220 S   0  0  0  0  0  0  0  0  0  0  0  0
  131.7890  122.6380   60.0910 C   0  0  0  0  0  0  0  0  0  0  0  0
  130.9050  123.5890   60.4860 N   0  0  0  0  0  0  0  0  0  0  0  0
  129.8860  123.2340   61.3040 C   0  0  0  0  0  0  0  0  0  0  0  0
  128.9350  124.3470   61.6970 C   0  0  0  0  0  0  0  0  0  0  0  0
  129.7150  121.9310   61.7680 C   0  0  0  0  0  0  0  0  0  0  0  0
  130.6340  120.9480   61.3870 C   0  0  0  0  0  0  0  0  0  0  0  0
  130.4350  119.5320   61.9240 C   0  0  0  0  0  0  0  0  0  0  0  0
  131.7080  121.2970   60.5360 C   0  0  0  0  0  0  0  0  0  0  0  0
  132.7120  120.2930   60.1760 C   0  0  0  0  0  0  0  0  0  0  0  0
  133.5040  119.4980   59.8920 N   0  0  0  0  0  0  0  0  0  0  0  0
  134.2540  124.8240   64.2900 N   0  0  0  0  0  0  0  0  0  0  0  0
  1  2  1  0
  2  3  2  0
  3  4  1  0
  4  5  2  0
  5  6  1  0
  6  7  1  0
  7  8  1  0
  8  9  2  0
  8 10  1  0
 10 11  1  0
 11 12  1  0
 12 13  2  0
 13 14  1  0
 14 15  1  0
 14 16  2  0
 16 17  1  0
 17 18  1  0
 17 19  2  0
 19 20  1  0
 20 21  3  0
  6 22  2  0
 22  2  1  0
 19 12  1  0
M  END
>  <Binding energies>  (6) 
[-6.73]

>  <Ligand effiencies>  (6) 
[-0.29260869565217396]

>  <Interactions>  (6) 
["V-A:PRO:482:CB:4326, V-B:ALA:541:CB:9864, V-B:TYR:539:CE2:9848, V-B:TYR:539:CD2:9846, V-A:PRO:482:CG:4327, V-A:LEU:475:CD1:4258, H-A:ASP:366:OD1:3214, V-A:ASP:366:CG:3213, H-B:TYR:539:OH:9850, V-A:HIS:456:CE1:4069, H-A:GLY:454:N:4050, V-A:ILE:369:CD1:3239, V-A:TRP:381:CH2:3372, V-A:ILE:369:CG2:3237, V-A:ILE:369:CB:3236, V-A:GLY:453:C:4042, V-A:ASP:366:CA:3210, H-A:ARG:545:NH2:4928, H-A:ARG:545:NE:4924, H-A:ARG:545:NH1:4927, V-A:ARG:545:CZ:4926, V-A:GLY:453:CA:4044, V-A:ARG:545:CD:4923, V-A:ARG:545:CG:4922, V-A:ILE:369:CG1:3238, H-A:ASP:366:OD2:3215, V-A:ILE:455:C:4052"]

$$$$
1f_Grossjean_2025
     RDKit          3D

 21 22  0  0  0  0  0  0  0  0999 V2000
  134.2410  124.1940   62.4780 C   0  0  0  0  0  0  0  0  0  0  0  0
  133.3040  123.0480   62.1440 C   0  0  0  0  0  0  0  0  0  0  0  0
  133.7400  121.9320   61.4340 C   0  0  0  0  0  0  0  0  0  0  0  0
  132.8270  120.9120   61.1450 C   0  0  0  0  0  0  0  0  0  0  0  0
  133.3250  119.7070   60.3490 C   0  0  0  0  0  0  0  0  0  0  0  0
  131.4900  121.0340   61.5860 C   0  0  0  0  0  0  0  0  0  0  0  0
  130.5070  120.0030   61.2450 C   0  0  0  0  0  0  0  0  0  0  0  0
  129.7320  119.1880   60.9740 N   0  0  0  0  0  0  0  0  0  0  0  0
  131.1420  122.1890   62.3260 C   0  0  0  0  0  0  0  0  0  0  0  0
  129.5100  122.5160   62.9630 S   0  0  0  0  0  0  0  0  0  0  0  0
  128.6450  123.6180   61.7930 C   0  0  0  0  0  0  0  0  0  0  0  0
  127.9450  122.9030   60.6280 C   0  0  0  0  0  0  0  0  0  0  0  0
  127.9120  121.6720   60.5800 O   0  0  0  0  0  0  0  0  0  0  0  0
  127.4200  123.7280   59.6970 N   0  0  0  0  0  0  0  0  0  0  0  0
  126.7140  123.4190   58.5190 C   0  0  0  0  0  0  0  0  0  0  0  0
  125.4620  123.9490   58.1510 C   0  0  0  0  0  0  0  0  0  0  0  0
  124.8740  123.5570   56.9460 C   0  0  0  0  0  0  0  0  0  0  0  0
  125.5520  122.6470   56.1350 C   0  0  0  0  0  0  0  0  0  0  0  0
  126.7600  122.1260   56.4640 N   0  0  0  0  0  0  0  0  0  0  0  0
  127.3200  122.5160   57.6380 C   0  0  0  0  0  0  0  0  0  0  0  0
  132.0290  123.1840   62.5800 N   0  0  0  0  0  0  0  0  0  0  0  0
  1  2  1  0
  2  3  2  0
  3  4  1  0
  4  5  1  0
  4  6  2  0
  6  7  1  0
  7  8  3  0
  6  9  1  0
  9 10  1  0
 10 11  1  0
 11 12  1  0
 12 13  2  0
 12 14  1  0
 14 15  1  0
 15 16  2  0
 16 17  1  0
 17 18  2  0
 18 19  1  0
 19 20  2  0
  9 21  2  0
 21  2  1  0
 20 15  1  0
M  END
>  <Binding energies>  (7) 
[-7.06]

>  <Ligand effiencies>  (7) 
[-0.32090909090909087]

>  <Interactions>  (7) 
["V-B:PRO:540:CD:9859, V-B:GLU:543:CD:9880, V-B:ILE:538:CB:9834, V-B:ALA:541:CB:9864, V-B:TYR:539:CE2:9848, V-B:TYR:539:CD2:9846, H-B:ALA:541:N:9863, V-B:PRO:540:CB:9857, V-B:PRO:540:N:9856, V-B:TYR:539:C:9839, V-B:LEU:363:CD1:8160, V-B:PRO:540:CA:9855, V-A:LEU:475:CD1:4258, V-B:ILE:538:CG2:9835, V-B:TYR:539:CG:9844, H-B:TYR:539:N:9842, V-B:GLU:543:CG:9879, V-A:ILE:369:CD1:3239, V-A:TRP:381:CH2:3372, V-A:ILE:369:CG2:3237, V-A:GLY:453:C:4042, V-A:GLY:453:CA:4044, V-B:ILE:538:CA:9832"]

$$$$
1g_Grossjean_2025
     RDKit          3D

 22 23  0  0  0  0  0  0  0  0999 V2000
  123.7540  125.9160   74.1350 C   0  0  0  0  0  0  0  0  0  0  0  0
  124.7030  127.0500   74.4740 C   0  0  0  0  0  0  0  0  0  0  0  0
  124.2450  128.2420   75.0320 C   0  0  0  0  0  0  0  0  0  0  0  0
  125.1650  129.2590   75.3090 C   0  0  0  0  0  0  0  0  0  0  0  0
  124.6380  130.5630   75.9070 C   0  0  0  0  0  0  0  0  0  0  0  0
  126.5330  129.0510   75.0250 C   0  0  0  0  0  0  0  0  0  0  0  0
  127.5070  130.1210   75.2570 C   0  0  0  0  0  0  0  0  0  0  0  0
  128.2730  130.9690   75.4410 N   0  0  0  0  0  0  0  0  0  0  0  0
  126.9110  127.8000   74.4820 C   0  0  0  0  0  0  0  0  0  0  0  0
  128.5880  127.3670   74.0740 S   0  0  0  0  0  0  0  0  0  0  0  0
  129.1110  128.4540   72.7140 C   0  0  0  0  0  0  0  0  0  0  0  0
  129.0220  127.7550   71.3560 C   0  0  0  0  0  0  0  0  0  0  0  0
  129.7460  128.1170   70.4280 O   0  0  0  0  0  0  0  0  0  0  0  0
  128.1240  126.7600   71.2560 N   0  0  0  0  0  0  0  0  0  0  0  0
  127.9130  125.9230   70.0750 C   0  0  0  0  0  0  0  0  0  0  0  0
  127.6200  126.7020   68.7970 C   0  0  0  0  0  0  0  0  0  0  0  0
  126.2980  127.0010   68.4490 C   0  0  0  0  0  0  0  0  0  0  0  0
  126.0310  127.7130   67.2830 C   0  0  0  0  0  0  0  0  0  0  0  0
  127.0840  128.1290   66.4710 C   0  0  0  0  0  0  0  0  0  0  0  0
  128.4030  127.8390   66.8150 C   0  0  0  0  0  0  0  0  0  0  0  0
  128.6720  127.1250   67.9800 C   0  0  0  0  0  0  0  0  0  0  0  0
  126.0090  126.8280   74.1950 N   0  0  0  0  0  0  0  0  0  0  0  0
  1  2  1  0
  2  3  2  0
  3  4  1  0
  4  5  1  0
  4  6  2  0
  6  7  1  0
  7  8  3  0
  6  9  1  0
  9 10  1  0
 10 11  1  0
 11 12  1  0
 12 13  2  0
 12 14  1  0
 14 15  1  0
 15 16  1  0
 16 17  2  0
 17 18  1  0
 18 19  2  0
 19 20  1  0
 20 21  2  0
  9 22  2  0
 22  2  1  0
 21 16  1  0
M  END
>  <Binding energies>  (8) 
[-6.9]

>  <Ligand effiencies>  (8) 
[-0.3]

>  <Interactions>  (8) 
["V-B:GLU:543:C:9874, V-B:LYS:471:CG:9189, V-B:GLU:543:CB:9878, V-B:HIS:456:CB:9036, V-B:HIS:456:CG:9037, V-B:GLY:544:C:9884, V-B:HIS:456:CD2:9039, V-B:ARG:545:CA:9891, H-A:LYS:547:NZ:4951, V-B:LYS:471:CD:9190, V-B:HIS:456:CE1:9040, V-B:VAL:457:CA:9046, V-B:HIS:456:C:9032, V-B:ARG:545:CG:9894, V-B:VAL:458:CG2:9058, V-B:LYS:471:CE:9191, H-B:HIS:456:NE2:9041, H-A:HIS:456:NE2:4070, V-B:ARG:545:CD:9895, V-B:LYS:547:CD:9921, V-B:ARG:545:C:9889, V-B:HIS:456:CA:9034, V-B:VAL:457:C:9044, V-B:LYS:547:CG:9920, H-B:LYS:471:NZ:9192, H-B:GLY:544:O:9885, V-B:LYS:547:CB:9919, V-B:ILE:546:CA:9908, V-B:ILE:546:C:9906, V-B:LYS:547:CA:9917"]

$$$$
1h_Grossjean_2025
     RDKit          3D

 28 29  0  0  0  0  0  0  0  0999 V2000
  123.3390  124.3450   60.0020 C   0  0  0  0  0  0  0  0  0  0  0  0
  124.0380  124.1620   58.7760 O   0  0  0  0  0  0  0  0  0  0  0  0
  125.2980  123.5910   58.7910 C   0  0  0  0  0  0  0  0  0  0  0  0
  126.0680  123.4220   59.9530 C   0  0  0  0  0  0  0  0  0  0  0  0
  127.3380  122.8490   59.8910 C   0  0  0  0  0  0  0  0  0  0  0  0
  128.1550  122.6510   61.1650 C   0  0  0  0  0  0  0  0  0  0  0  0
  129.4980  122.1200   60.9330 N   0  0  0  0  0  0  0  0  0  0  0  0
  129.8350  120.8170   60.9590 C   0  0  0  0  0  0  0  0  0  0  0  0
  129.0300  119.9080   61.1600 O   0  0  0  0  0  0  0  0  0  0  0  0
  131.3100  120.4900   60.7300 C   0  0  0  0  0  0  0  0  0  0  0  0
  132.3450  121.9850   60.7130 S   0  0  0  0  0  0  0  0  0  0  0  0
  132.1520  122.8100   62.2850 C   0  0  0  0  0  0  0  0  0  0  0  0
  130.9630  122.6120   62.9120 N   0  0  0  0  0  0  0  0  0  0  0  0
  130.7520  123.2050   64.1110 C   0  0  0  0  0  0  0  0  0  0  0  0
  129.4030  122.9340   64.7510 C   0  0  0  0  0  0  0  0  0  0  0  0
  131.7040  124.0130   64.7280 C   0  0  0  0  0  0  0  0  0  0  0  0
  132.9310  124.2260   64.0910 C   0  0  0  0  0  0  0  0  0  0  0  0
  133.9610  125.1130   64.7870 C   0  0  0  0  0  0  0  0  0  0  0  0
  133.1730  123.6160   62.8390 C   0  0  0  0  0  0  0  0  0  0  0  0
  134.4480  123.8240   62.1470 C   0  0  0  0  0  0  0  0  0  0  0  0
  135.4550  123.9880   61.6010 N   0  0  0  0  0  0  0  0  0  0  0  0
  127.8350  122.4060   58.6650 C   0  0  0  0  0  0  0  0  0  0  0  0
  127.0850  122.5570   57.4880 C   0  0  0  0  0  0  0  0  0  0  0  0
  127.5150  122.1440   56.2400 O   0  0  0  0  0  0  0  0  0  0  0  0
  127.7330  123.1120   55.2190 C   0  0  0  0  0  0  0  0  0  0  0  0
  125.8220  123.1610   57.5630 C   0  0  0  0  0  0  0  0  0  0  0  0
  125.0740  123.3110   56.4210 O   0  0  0  0  0  0  0  0  0  0  0  0
  124.8760  124.6630   56.0310 C   0  0  0  0  0  0  0  0  0  0  0  0
  1  2  1  0
  2  3  1  0
  3  4  2  0
  4  5  1  0
  5  6  1  0
  6  7  1  0
  7  8  1  0
  8  9  2  0
  8 10  1  0
 10 11  1  0
 11 12  1  0
 12 13  2  0
 13 14  1  0
 14 15  1  0
 14 16  2  0
 16 17  1  0
 17 18  1  0
 17 19  2  0
 19 20  1  0
 20 21  3  0
  5 22  2  0
 22 23  1  0
 23 24  1  0
 24 25  1  0
 23 26  2  0
 26 27  1  0
 27 28  1  0
 26  3  1  0
 19 12  1  0
M  END
>  <Binding energies>  (9) 
[-6.98]

>  <Ligand effiencies>  (9) 
[-0.2406896551724138]

>  <Interactions>  (9) 
["V-B:PRO:540:CD:9859, V-B:LEU:363:CA:8156, V-B:ALA:541:CB:9864, V-B:TYR:539:CE2:9848, V-B:TYR:539:CD2:9846, H-B:ALA:541:N:9863, V-B:PRO:540:CB:9857, V-B:PRO:540:N:9856, V-B:TYR:539:C:9839, V-B:LEU:363:CD1:8160, V-B:ASP:366:CG:8184, V-B:PRO:540:CA:9855, V-B:TYR:539:CZ:9849, V-B:ASN:362:CB:8147, V-B:ASN:362:C:8143, V-A:LEU:475:CD1:4258, V-B:TYR:531:CE2:9765, H-B:TYR:539:N:9842, V-B:GLU:543:CB:9878, H-A:GLY:454:N:4050, V-B:GLU:543:CG:9879, V-A:TYR:484:CE1:4345, V-B:GLU:543:CA:9876, V-A:ILE:369:CD1:3239, V-A:GLY:453:C:4042, V-A:GLY:454:CA:4049, V-A:ARG:545:CZ:4926, V-A:GLY:453:CA:4044, V-A:ARG:545:CD:4923, V-B:ILE:538:CA:9832, V-B:TYR:539:CE1:9847, V-B:TYR:539:CD1:9845"]

$$$$
1i_Grossjean_2025
     RDKit          3D

 20 21  0  0  0  0  0  0  0  0999 V2000
  127.9070  130.6690   65.5970 C   0  0  0  0  0  0  0  0  0  0  0  0
  128.2930  129.2600   66.0050 C   0  0  0  0  0  0  0  0  0  0  0  0
  128.4500  128.2450   65.0630 C   0  0  0  0  0  0  0  0  0  0  0  0
  128.8180  126.9660   65.4970 C   0  0  0  0  0  0  0  0  0  0  0  0
  129.0000  125.8750   64.4440 C   0  0  0  0  0  0  0  0  0  0  0  0
  129.0140  126.7340   66.8780 C   0  0  0  0  0  0  0  0  0  0  0  0
  129.4480  125.4160   67.3480 C   0  0  0  0  0  0  0  0  0  0  0  0
  129.7920  124.3750   67.7170 N   0  0  0  0  0  0  0  0  0  0  0  0
  128.8080  127.8180   67.7640 C   0  0  0  0  0  0  0  0  0  0  0  0
  129.0090  127.7040   69.5290 S   0  0  0  0  0  0  0  0  0  0  0  0
  127.7790  126.5170   70.1470 C   0  0  0  0  0  0  0  0  0  0  0  0
  128.3600  125.5930   71.2200 C   0  0  0  0  0  0  0  0  0  0  0  0
  128.1800  125.8610   72.4090 O   0  0  0  0  0  0  0  0  0  0  0  0
  129.0420  124.5220   70.7600 N   0  0  0  0  0  0  0  0  0  0  0  0
  129.6680  123.5370   71.5100 C   0  0  0  0  0  0  0  0  0  0  0  0
  130.9700  123.6620   71.9940 C   0  0  0  0  0  0  0  0  0  0  0  0
  131.2120  122.4920   72.6760 C   0  0  0  0  0  0  0  0  0  0  0  0
  130.1140  121.7020   72.6050 O   0  0  0  0  0  0  0  0  0  0  0  0
  129.1420  122.3750   71.8620 N   0  0  0  0  0  0  0  0  0  0  0  0
  128.4720  129.0590   67.3320 N   0  0  0  0  0  0  0  0  0  0  0  0
  1  2  1  0
  2  3  2  0
  3  4  1  0
  4  5  1  0
  4  6  2  0
  6  7  1  0
  7  8  3  0
  6  9  1  0
  9 10  1  0
 10 11  1  0
 11 12  1  0
 12 13  2  0
 12 14  1  0
 14 15  1  0
 15 16  1  0
 16 17  2  0
 17 18  1  0
 18 19  1  0
  9 20  2  0
 20  2  1  0
 19 15  2  0
M  END
>  <Binding energies>  (10) 
[-7.06]

>  <Ligand effiencies>  (10) 
[-0.33619047619047615]

>  <Interactions>  (10) 
["V-B:GLU:543:CD:9880, V-A:GLU:543:CD:4908, V-B:GLU:543:C:9874, V-B:GLU:543:CB:9878, V-B:GLY:544:C:9884, V-B:HIS:456:CE1:9040, H-B:LYS:547:NZ:9923, V-A:HIS:456:CE1:4069, V-A:HIS:456:CG:4066, V-A:HIS:456:CD2:4068, V-A:ASP:473:CB:4239, V-A:HIS:456:CB:4065, V-A:GLU:543:CB:4906, H-B:HIS:456:NE2:9041, H-A:HIS:456:NE2:4070, V-B:GLU:543:CG:9879, V-A:TYR:484:CE1:4345, H-A:TYR:484:OH:4348, V-B:TYR:484:CZ:9318, V-A:GLU:543:CG:4907, V-B:TYR:484:CE1:9316, H-B:GLU:543:O:9875, V-A:TYR:484:CD2:4344, V-A:TYR:484:CG:4342, V-A:TYR:484:CE2:4346, V-A:TYR:484:CB:4341, V-A:TYR:484:CD1:4343"]

$$$$
1k_Grossjean_2025
     RDKit          3D

 25 25  0  0  0  0  0  0  0  0999 V2000
  127.4690  122.8950   55.7240 C   0  0  0  0  0  0  0  0  0  0  0  0
  126.9690  122.1290   56.8080 O   0  0  0  0  0  0  0  0  0  0  0  0
  126.9310  122.8440   58.0360 C   0  0  0  0  0  0  0  0  0  0  0  0
  127.9250  122.2190   59.0240 C   0  0  0  0  0  0  0  0  0  0  0  0
  127.5050  122.4930   60.3540 O   0  0  0  0  0  0  0  0  0  0  0  0
  127.5860  123.8670   60.7080 C   0  0  0  0  0  0  0  0  0  0  0  0
  128.8150  124.0930   61.5980 C   0  0  0  0  0  0  0  0  0  0  0  0
  129.9660  124.2660   60.7820 O   0  0  0  0  0  0  0  0  0  0  0  0
  129.6870  124.8470   59.5150 C   0  0  0  0  0  0  0  0  0  0  0  0
  130.9890  124.9630   58.7010 C   0  0  0  0  0  0  0  0  0  0  0  0
  132.1280  124.2630   59.2970 N   0  0  0  0  0  0  0  0  0  0  0  0
  133.3030  124.0330   58.6840 C   0  0  0  0  0  0  0  0  0  0  0  0
  133.5460  124.4030   57.5350 O   0  0  0  0  0  0  0  0  0  0  0  0
  134.3420  123.2630   59.5140 C   0  0  0  0  0  0  0  0  0  0  0  0
  134.2880  123.5540   61.3170 S   0  0  0  0  0  0  0  0  0  0  0  0
  132.8030  122.8170   61.9860 C   0  0  0  0  0  0  0  0  0  0  0  0
  132.1380  121.9680   61.1590 N   0  0  0  0  0  0  0  0  0  0  0  0
  131.0010  121.3840   61.6000 C   0  0  0  0  0  0  0  0  0  0  0  0
  130.3120  120.4570   60.6170 C   0  0  0  0  0  0  0  0  0  0  0  0
  130.4850  121.6100   62.8750 C   0  0  0  0  0  0  0  0  0  0  0  0
  131.1640  122.4760   63.7380 C   0  0  0  0  0  0  0  0  0  0  0  0
  130.5820  122.7110   65.1300 C   0  0  0  0  0  0  0  0  0  0  0  0
  132.3520  123.1000   63.2950 C   0  0  0  0  0  0  0  0  0  0  0  0
  133.0820  124.0150   64.1770 C   0  0  0  0  0  0  0  0  0  0  0  0
  133.6580  124.7380   64.8740 N   0  0  0  0  0  0  0  0  0  0  0  0
  1  2  1  0
  2  3  1  0
  3  4  1  0
  4  5  1  0
  5  6  1  0
  6  7  1  0
  7  8  1  0
  8  9  1  0
  9 10  1  0
 10 11  1  0
 11 12  1  0
 12 13  2  0
 12 14  1  0
 14 15  1  0
 15 16  1  0
 16 17  2  0
 17 18  1  0
 18 19  1  0
 18 20  2  0
 20 21  1  0
 21 22  1  0
 21 23  2  0
 23 24  1  0
 24 25  3  0
 23 16  1  0
M  END
>  <Binding energies>  (11) 
[-5.77]

>  <Ligand effiencies>  (11) 
[-0.22192307692307692]

>  <Interactions>  (11) 
["V-B:GLU:543:CD:9880, V-B:ALA:541:CB:9864, V-B:TYR:539:CE2:9848, V-B:TYR:539:CD2:9846, H-B:ALA:541:N:9863, V-B:PRO:540:CB:9857, V-B:PRO:540:N:9856, V-B:TYR:539:C:9839, V-B:PRO:540:CA:9855, V-B:TYR:539:CZ:9849, V-A:LEU:475:CD1:4258, V-A:ASP:366:CB:3212, V-A:ASP:366:CG:3213, H-B:TYR:539:OH:9850, H-B:TYR:539:N:9842, H-A:GLY:454:N:4050, V-A:TYR:484:CE1:4345, V-A:ILE:369:CD1:3239, V-A:ILE:369:CG2:3237, V-A:ILE:369:CB:3236, V-A:TYR:484:CZ:4347, H-A:TYR:484:OH:4348, V-A:GLY:454:CA:4049, V-A:ASP:366:CA:3210, H-A:ARG:545:NE:4924, V-B:ILE:538:CA:9832, V-B:TYR:539:CE1:9847, V-A:ILE:369:CG1:3238, V-B:TYR:539:CD1:9845"]

$$$$
1l_Grossjean_2025
     RDKit          3D

 17 17  0  0  0  0  0  0  0  0999 V2000
  132.0940  130.7760   61.3610 C   0  0  0  0  0  0  0  0  0  0  0  0
  131.2530  131.8800   61.6660 O   0  0  0  0  0  0  0  0  0  0  0  0
  130.0170  131.4240   62.1220 N   0  0  0  0  0  0  0  0  0  0  0  0
  128.9420  132.2270   62.0070 C   0  0  0  0  0  0  0  0  0  0  0  0
  128.9250  133.2530   61.3220 O   0  0  0  0  0  0  0  0  0  0  0  0
  127.7020  131.7700   62.7880 C   0  0  0  0  0  0  0  0  0  0  0  0
  127.3770  129.9750   62.7410 S   0  0  0  0  0  0  0  0  0  0  0  0
  126.9840  129.4370   64.3970 C   0  0  0  0  0  0  0  0  0  0  0  0
  127.9970  128.8460   65.0820 N   0  0  0  0  0  0  0  0  0  0  0  0
  127.7680  128.4130   66.3440 C   0  0  0  0  0  0  0  0  0  0  0  0
  128.9470  127.7640   67.0430 C   0  0  0  0  0  0  0  0  0  0  0  0
  126.5320  128.5500   66.9720 C   0  0  0  0  0  0  0  0  0  0  0  0
  125.4820  129.1590   66.2780 C   0  0  0  0  0  0  0  0  0  0  0  0
  124.1360  129.3000   66.9880 C   0  0  0  0  0  0  0  0  0  0  0  0
  125.6990  129.6170   64.9600 C   0  0  0  0  0  0  0  0  0  0  0  0
  124.6160  130.2590   64.2090 C   0  0  0  0  0  0  0  0  0  0  0  0
  123.7600  130.7650   63.6180 N   0  0  0  0  0  0  0  0  0  0  0  0
  1  2  1  0
  2  3  1  0
  3  4  1  0
  4  5  2  0
  4  6  1  0
  6  7  1  0
  7  8  1  0
  8  9  2  0
  9 10  1  0
 10 11  1  0
 10 12  2  0
 12 13  1  0
 13 14  1  0
 13 15  2  0
 15 16  1  0
 16 17  3  0
 15  8  1  0
M  END
>  <Binding energies>  (12) 
[-6.02]

>  <Ligand effiencies>  (12) 
[-0.33444444444444443]

>  <Interactions>  (12) 
["V-A:GLU:543:CD:4908, V-A:ALA:541:CB:4892, H-A:ALA:541:N:4891, V-B:HIS:456:CE1:9040, V-B:ARG:545:CG:9894, H-B:GLY:454:N:9021, V-B:ARG:545:CD:9895, V-B:ARG:545:CZ:9898, H-B:ARG:545:NH2:9900, H-A:GLU:543:OE1:4909, V-B:ILE:455:C:9023"]

$$$$
1m_Grossjean_2025
     RDKit          3D

 20 20  0  0  0  0  0  0  0  0999 V2000
  132.3350  132.6200   55.3960 C   0  0  0  0  0  0  0  0  0  0  0  0
  131.0170  132.9500   54.9810 O   0  0  0  0  0  0  0  0  0  0  0  0
  129.9610  132.6850   55.7780 C   0  0  0  0  0  0  0  0  0  0  0  0
  129.7280  133.2260   56.8630 O   0  0  0  0  0  0  0  0  0  0  0  0
  129.0430  131.6080   55.1630 C   0  0  0  0  0  0  0  0  0  0  0  0
  128.2940  130.8520   56.1770 N   0  0  0  0  0  0  0  0  0  0  0  0
  127.0760  130.3020   56.0060 C   0  0  0  0  0  0  0  0  0  0  0  0
  126.4400  130.3930   54.9540 O   0  0  0  0  0  0  0  0  0  0  0  0
  126.5140  129.5490   57.2190 C   0  0  0  0  0  0  0  0  0  0  0  0
  125.6700  130.6040   58.4470 S   0  0  0  0  0  0  0  0  0  0  0  0
  126.9050  131.5800   59.2770 C   0  0  0  0  0  0  0  0  0  0  0  0
  128.1770  131.1880   59.0090 N   0  0  0  0  0  0  0  0  0  0  0  0
  129.2010  131.8620   59.5810 C   0  0  0  0  0  0  0  0  0  0  0  0
  130.5930  131.3800   59.2180 C   0  0  0  0  0  0  0  0  0  0  0  0
  129.0040  132.9370   60.4450 C   0  0  0  0  0  0  0  0  0  0  0  0
  127.6970  133.3330   60.7500 C   0  0  0  0  0  0  0  0  0  0  0  0
  127.5050  134.5030   61.7130 C   0  0  0  0  0  0  0  0  0  0  0  0
  126.6110  132.6430   60.1650 C   0  0  0  0  0  0  0  0  0  0  0  0
  125.2350  133.0090   60.5090 C   0  0  0  0  0  0  0  0  0  0  0  0
  124.1490  133.2980   60.7810 N   0  0  0  0  0  0  0  0  0  0  0  0
  1  2  1  0
  2  3  1  0
  3  4  2  0
  3  5  1  0
  5  6  1  0
  6  7  1  0
  7  8  2  0
  7  9  1  0
  9 10  1  0
 10 11  1  0
 11 12  2  0
 12 13  1  0
 13 14  1  0
 13 15  2  0
 15 16  1  0
 16 17  1  0
 16 18  2  0
 18 19  1  0
 19 20  3  0
 18 11  1  0
M  END
>  <Binding energies>  (13) 
[-5.47]

>  <Ligand effiencies>  (13) 
[-0.2604761904761905]

>  <Interactions>  (13) 
["V-A:PRO:540:CD:4887, V-A:TYR:539:C:4867, V-A:ILE:538:CD1:4865, V-A:ILE:538:CA:4860, V-A:LEU:363:CD1:3189, V-A:TYR:539:CE2:4876, V-A:PRO:540:C:4881, V-A:PRO:540:CB:4885, V-A:PRO:540:CA:4883, V-A:TYR:539:CD2:4874, V-A:ILE:538:CG2:4863, V-B:LEU:475:CD1:9229, V-A:ALA:541:CB:4892, V-A:TYR:539:CE1:4875, V-A:TYR:539:CD1:4873, V-A:TYR:539:CZ:4877, H-A:TYR:539:N:4870, V-A:TYR:539:CG:4872, H-A:TYR:539:OH:4878, H-B:TYR:531:OH:9767"]

$$$$
1n_Grossjean_2025
     RDKit          3D

 27 28  0  0  0  0  0  0  0  0999 V2000
  126.1870  127.0140   73.7630 C   0  0  0  0  0  0  0  0  0  0  0  0
  127.3250  126.9830   74.7890 C   0  0  0  0  0  0  0  0  0  0  0  0
  128.2610  125.9760   74.4260 O   0  0  0  0  0  0  0  0  0  0  0  0
  129.4090  126.2890   73.7720 C   0  0  0  0  0  0  0  0  0  0  0  0
  130.4250  126.7010   74.3410 O   0  0  0  0  0  0  0  0  0  0  0  0
  129.3250  126.0710   72.2890 C   0  0  0  0  0  0  0  0  0  0  0  0
  128.7740  127.0330   71.4270 C   0  0  0  0  0  0  0  0  0  0  0  0
  128.7090  126.7990   70.0570 C   0  0  0  0  0  0  0  0  0  0  0  0
  129.1830  125.6010   69.5200 C   0  0  0  0  0  0  0  0  0  0  0  0
  129.0630  125.4670   68.1230 N   0  0  0  0  0  0  0  0  0  0  0  0
  129.3530  126.3480   67.1430 C   0  0  0  0  0  0  0  0  0  0  0  0
  129.8050  127.4810   67.3120 O   0  0  0  0  0  0  0  0  0  0  0  0
  129.0890  125.8600   65.7120 C   0  0  0  0  0  0  0  0  0  0  0  0
  130.2620  125.0490   65.1220 C   0  0  0  0  0  0  0  0  0  0  0  0
  130.0180  123.2480   65.1410 S   0  0  0  0  0  0  0  0  0  0  0  0
  130.8820  122.5720   63.7390 C   0  0  0  0  0  0  0  0  0  0  0  0
  130.1250  121.7330   62.9870 N   0  0  0  0  0  0  0  0  0  0  0  0
  130.6750  121.1720   61.8850 C   0  0  0  0  0  0  0  0  0  0  0  0
  129.7660  120.2550   61.0890 C   0  0  0  0  0  0  0  0  0  0  0  0
  131.9890  121.4160   61.4930 C   0  0  0  0  0  0  0  0  0  0  0  0
  132.7840  122.2630   62.2730 C   0  0  0  0  0  0  0  0  0  0  0  0
  134.2260  122.5050   61.8320 C   0  0  0  0  0  0  0  0  0  0  0  0
  132.2330  122.8560   63.4320 C   0  0  0  0  0  0  0  0  0  0  0  0
  133.0620  123.7050   64.2900 C   0  0  0  0  0  0  0  0  0  0  0  0
  133.7190  124.3740   64.9680 N   0  0  0  0  0  0  0  0  0  0  0  0
  129.7440  124.6400   70.3730 C   0  0  0  0  0  0  0  0  0  0  0  0
  129.8120  124.8770   71.7430 C   0  0  0  0  0  0  0  0  0  0  0  0
  1  2  1  0
  2  3  1  0
  3  4  1  0
  4  5  2  0
  4  6  1  0
  6  7  2  0
  7  8  1  0
  8  9  2  0
  9 10  1  0
 10 11  1  0
 11 12  2  0
 11 13  1  0
 13 14  1  0
 14 15  1  0
 15 16  1  0
 16 17  2  0
 17 18  1  0
 18 19  1  0
 18 20  2  0
 20 21  1  0
 21 22  1  0
 21 23  2  0
 23 24  1  0
 24 25  3  0
  9 26  1  0
 26 27  2  0
 27  6  1  0
 23 16  1  0
M  END
>  <Binding energies>  (14) 
[-8.3]

>  <Ligand effiencies>  (14) 
[-0.29642857142857143]

>  <Interactions>  (14) 
["V-B:GLU:543:CD:9880, V-B:ALA:541:CB:9864, V-B:TYR:539:CD2:9846, V-A:PRO:482:CG:4327, V-A:LEU:475:CD1:4258, V-B:GLU:543:C:9874, V-B:GLU:543:CB:9878, H-A:LYS:547:NZ:4951, V-B:HIS:456:CE1:9040, H-B:LYS:547:NZ:9923, V-A:HIS:456:CE1:4069, V-A:HIS:456:CG:4066, V-A:HIS:456:CD2:4068, H-A:HIS:456:NE2:4070, H-A:GLY:454:N:4050, V-B:GLU:543:CG:9879, V-A:TYR:484:CE1:4345, V-A:ILE:369:CD1:3239, V-A:TYR:484:CZ:4347, H-A:TYR:484:OH:4348, V-A:GLY:454:CA:4049, H-B:GLU:543:O:9875, V-B:LYS:547:CD:9921"]

$$$$
1q_Grossjean_2025
     RDKit          3D

 21 21  0  0  0  0  0  0  0  0999 V2000
  126.9420  126.6520   73.7390 C   0  0  0  0  0  0  0  0  0  0  0  0
  128.2000  126.0080   73.5950 O   0  0  0  0  0  0  0  0  0  0  0  0
  129.3360  126.7370   73.4650 C   0  0  0  0  0  0  0  0  0  0  0  0
  130.1440  126.9710   74.3650 O   0  0  0  0  0  0  0  0  0  0  0  0
  129.5530  127.3140   72.0500 C   0  0  0  0  0  0  0  0  0  0  0  0
  128.6360  126.7450   71.0500 N   0  0  0  0  0  0  0  0  0  0  0  0
  128.6270  127.0330   69.7350 C   0  0  0  0  0  0  0  0  0  0  0  0
  129.4120  127.8260   69.2120 O   0  0  0  0  0  0  0  0  0  0  0  0
  127.5760  126.2940   68.8930 C   0  0  0  0  0  0  0  0  0  0  0  0
  127.3710  126.8770   67.4810 C   0  0  0  0  0  0  0  0  0  0  0  0
  125.9610  128.0170   67.3620 S   0  0  0  0  0  0  0  0  0  0  0  0
  126.0180  128.8270   65.7760 C   0  0  0  0  0  0  0  0  0  0  0  0
  127.1610  128.5820   65.0860 N   0  0  0  0  0  0  0  0  0  0  0  0
  127.3210  129.1460   63.8670 C   0  0  0  0  0  0  0  0  0  0  0  0
  128.6320  128.8390   63.1660 C   0  0  0  0  0  0  0  0  0  0  0  0
  126.3540  129.9600   63.2820 C   0  0  0  0  0  0  0  0  0  0  0  0
  125.1620  130.1990   63.9720 C   0  0  0  0  0  0  0  0  0  0  0  0
  124.1090  131.0820   63.3020 C   0  0  0  0  0  0  0  0  0  0  0  0
  124.9700  129.6200   65.2460 C   0  0  0  0  0  0  0  0  0  0  0  0
  123.7050  129.8130   65.9570 C   0  0  0  0  0  0  0  0  0  0  0  0
  122.7030  129.9670   66.5160 N   0  0  0  0  0  0  0  0  0  0  0  0
  1  2  1  0
  2  3  1  0
  3  4  2  0
  3  5  1  0
  5  6  1  0
  6  7  1  0
  7  8  2  0
  7  9  1  0
  9 10  1  0
 10 11  1  0
 11 12  1  0
 12 13  2  0
 13 14  1  0
 14 15  1  0
 14 16  2  0
 16 17  1  0
 17 18  1  0
 17 19  2  0
 19 20  1  0
 20 21  3  0
 19 12  1  0
M  END
>  <Binding energies>  (15) 
[-6.13]

>  <Ligand effiencies>  (15) 
[-0.2786363636363636]

>  <Interactions>  (15) 
["V-A:GLU:543:CD:4908, V-B:GLU:543:C:9874, V-B:GLU:543:CB:9878, V-B:GLY:544:C:9884, H-A:LYS:547:NZ:4951, V-B:HIS:456:CE1:9040, V-B:ARG:545:CG:9894, H-B:LYS:547:NZ:9923, V-A:HIS:456:CD2:4068, H-B:ARG:545:NE:9896, H-B:GLY:454:N:9021, H-B:HIS:456:NE2:9041, H-A:HIS:456:NE2:4070, V-B:ARG:545:CD:9895, V-B:ARG:545:CZ:9898, V-B:GLY:454:CA:9020, H-B:ILE:455:N:9026, V-B:LYS:547:CE:9922, V-B:LYS:547:CD:9921, H-B:GLY:544:O:9885"]

$$$$
2a_Grossjean_2025
     RDKit          3D

 29 30  0  0  0  0  0  0  0  0999 V2000
  124.6260  127.0560   73.7410 C   0  0  0  0  0  0  0  0  0  0  0  0
  126.0660  127.4190   74.1150 C   0  0  0  0  0  0  0  0  0  0  0  0
  126.8980  127.2810   72.9690 O   0  0  0  0  0  0  0  0  0  0  0  0
  127.9500  126.4220   72.9660 C   0  0  0  0  0  0  0  0  0  0  0  0
  128.4480  125.9520   73.9930 O   0  0  0  0  0  0  0  0  0  0  0  0
  128.4340  126.0850   71.5840 C   0  0  0  0  0  0  0  0  0  0  0  0
  129.3310  125.0330   71.3490 C   0  0  0  0  0  0  0  0  0  0  0  0
  129.7610  124.7470   70.0570 C   0  0  0  0  0  0  0  0  0  0  0  0
  129.3110  125.5080   68.9760 C   0  0  0  0  0  0  0  0  0  0  0  0
  129.8220  125.1390   67.7180 N   0  0  0  0  0  0  0  0  0  0  0  0
  129.5890  125.6680   66.4980 C   0  0  0  0  0  0  0  0  0  0  0  0
  128.8240  126.6030   66.2580 O   0  0  0  0  0  0  0  0  0  0  0  0
  130.3550  125.0200   65.3400 C   0  0  0  0  0  0  0  0  0  0  0  0
  130.1200  123.2140   65.2390 S   0  0  0  0  0  0  0  0  0  0  0  0
  130.8570  122.5920   63.7320 C   0  0  0  0  0  0  0  0  0  0  0  0
  130.0550  121.8110   62.9630 N   0  0  0  0  0  0  0  0  0  0  0  0
  130.5500  121.2960   61.8160 C   0  0  0  0  0  0  0  0  0  0  0  0
  129.6040  120.4120   61.0260 C   0  0  0  0  0  0  0  0  0  0  0  0
  131.8500  121.5410   61.3820 C   0  0  0  0  0  0  0  0  0  0  0  0
  132.6940  122.3530   62.1560 C   0  0  0  0  0  0  0  0  0  0  0  0
  134.1290  122.6140   61.6620 C   0  0  0  0  0  0  0  0  0  0  0  0
  134.9990  121.9110   62.3880 F   0  0  0  0  0  0  0  0  0  0  0  0
  134.2430  122.2560   60.3820 F   0  0  0  0  0  0  0  0  0  0  0  0
  134.4790  123.9000   61.7520 F   0  0  0  0  0  0  0  0  0  0  0  0
  132.1880  122.8960   63.3640 C   0  0  0  0  0  0  0  0  0  0  0  0
  133.0270  123.7480   64.2130 C   0  0  0  0  0  0  0  0  0  0  0  0
  133.6900  124.4210   64.8830 N   0  0  0  0  0  0  0  0  0  0  0  0
  128.4080  126.5560   69.2030 C   0  0  0  0  0  0  0  0  0  0  0  0
  127.9750  126.8380   70.4960 C   0  0  0  0  0  0  0  0  0  0  0  0
  1  2  1  0
  2  3  1  0
  3  4  1  0
  4  5  2  0
  4  6  1  0
  6  7  2  0
  7  8  1  0
  8  9  2  0
  9 10  1  0
 10 11  1  0
 11 12  2  0
 11 13  1  0
 13 14  1  0
 14 15  1  0
 15 16  2  0
 16 17  1  0
 17 18  1  0
 17 19  2  0
 19 20  1  0
 20 21  1  0
 21 22  1  0
 21 23  1  0
 21 24  1  0
 20 25  2  0
 25 26  1  0
 26 27  3  0
  9 28  1  0
 28 29  2  0
 29  6  1  0
 25 15  1  0
M  END
>  <Binding energies>  (16) 
[-7.61]

>  <Ligand effiencies>  (16) 
[-0.25366666666666665]

>  <Interactions>  (16) 
["V-B:ALA:541:CB:9864, V-B:TYR:539:CD2:9846, V-A:LEU:475:CD1:4258, V-A:ASP:366:CG:3213, V-B:GLU:543:C:9874, V-B:GLU:543:CB:9878, V-B:HIS:456:CB:9036, V-B:ARG:545:CA:9891, V-B:HIS:456:CE1:9040, H-B:LYS:547:NZ:9923, V-A:HIS:456:CE1:4069, V-A:HIS:456:CG:4066, V-A:HIS:456:CD2:4068, H-A:GLY:454:N:4050, V-A:TYR:484:CE1:4345, V-A:ILE:369:CD1:3239, V-A:ILE:369:CG2:3237, V-A:ILE:369:CB:3236, V-A:GLY:453:C:4042, V-A:TYR:484:CZ:4347, H-A:TYR:484:OH:4348, V-A:GLY:454:CA:4049, H-A:HIS:456:ND1:4067, H-B:GLU:543:O:9875, V-B:ARG:545:C:9889, V-A:ILE:369:CG1:3238"]

$$$$
2b_Grossjean_2025
     RDKit          3D

 28 29  0  0  0  0  0  0  0  0999 V2000
  126.8930  126.9560   73.8990 C   0  0  0  0  0  0  0  0  0  0  0  0
  128.0440  126.1480   74.0970 O   0  0  0  0  0  0  0  0  0  0  0  0
  129.2290  126.4620   73.5120 C   0  0  0  0  0  0  0  0  0  0  0  0
  130.1730  126.9730   74.1220 O   0  0  0  0  0  0  0  0  0  0  0  0
  129.2750  126.1290   72.0490 C   0  0  0  0  0  0  0  0  0  0  0  0
  128.8160  127.0230   71.0700 C   0  0  0  0  0  0  0  0  0  0  0  0
  128.8710  126.6830   69.7210 C   0  0  0  0  0  0  0  0  0  0  0  0
  129.3890  125.4510   69.3230 C   0  0  0  0  0  0  0  0  0  0  0  0
  129.3920  125.2070   67.9360 N   0  0  0  0  0  0  0  0  0  0  0  0
  129.8170  125.9930   66.9240 C   0  0  0  0  0  0  0  0  0  0  0  0
  130.2750  127.1290   67.0470 O   0  0  0  0  0  0  0  0  0  0  0  0
  129.6810  125.3840   65.5240 C   0  0  0  0  0  0  0  0  0  0  0  0
  129.9680  123.5840   65.4940 S   0  0  0  0  0  0  0  0  0  0  0  0
  130.5750  123.0900   63.8860 C   0  0  0  0  0  0  0  0  0  0  0  0
  129.6590  122.5250   63.0590 N   0  0  0  0  0  0  0  0  0  0  0  0
  130.0490  122.1220   61.8290 C   0  0  0  0  0  0  0  0  0  0  0  0
  128.9690  121.4900   60.9720 C   0  0  0  0  0  0  0  0  0  0  0  0
  131.3540  122.2710   61.3690 C   0  0  0  0  0  0  0  0  0  0  0  0
  132.3160  122.8600   62.2040 C   0  0  0  0  0  0  0  0  0  0  0  0
  133.7550  123.0210   61.6780 C   0  0  0  0  0  0  0  0  0  0  0  0
  133.7780  122.8570   60.3540 F   0  0  0  0  0  0  0  0  0  0  0  0
  134.2160  124.2390   61.9700 F   0  0  0  0  0  0  0  0  0  0  0  0
  134.6020  122.1350   62.2070 F   0  0  0  0  0  0  0  0  0  0  0  0
  131.9220  123.2810   63.5000 C   0  0  0  0  0  0  0  0  0  0  0  0
  132.8870  123.8960   64.4160 C   0  0  0  0  0  0  0  0  0  0  0  0
  133.6490  124.3820   65.1390 N   0  0  0  0  0  0  0  0  0  0  0  0
  129.8420  124.5480   70.2960 C   0  0  0  0  0  0  0  0  0  0  0  0
  129.7850  124.8890   71.6440 C   0  0  0  0  0  0  0  0  0  0  0  0
  1  2  1  0
  2  3  1  0
  3  4  2  0
  3  5  1  0
  5  6  2  0
  6  7  1  0
  7  8  2  0
  8  9  1  0
  9 10  1  0
 10 11  2  0
 10 12  1  0
 12 13  1  0
 13 14  1  0
 14 15  2  0
 15 16  1  0
 16 17  1  0
 16 18  2  0
 18 19  1  0
 19 20  1  0
 20 21  1  0
 20 22  1  0
 20 23  1  0
 19 24  2  0
 24 25  1  0
 25 26  3  0
  8 27  1  0
 27 28  2  0
 28  5  1  0
 24 14  1  0
M  END
>  <Binding energies>  (17) 
[-7.51]

>  <Ligand effiencies>  (17) 
[-0.2589655172413793]

>  <Interactions>  (17) 
["V-B:ALA:541:CB:9864, V-B:TYR:539:CD2:9846, V-B:ALA:541:CA:9862, V-A:LEU:475:CD1:4258, V-A:ASP:366:CG:3213, V-B:GLU:543:C:9874, V-B:GLU:543:CB:9878, H-A:LYS:547:NZ:4951, V-B:HIS:456:CE1:9040, H-B:LYS:547:NZ:9923, V-A:HIS:456:CE1:4069, V-A:HIS:456:CG:4066, V-A:HIS:456:CD2:4068, H-A:HIS:456:NE2:4070, H-A:GLY:454:N:4050, V-B:GLU:543:CG:9879, V-A:TYR:484:CE1:4345, V-A:ILE:369:CD1:3239, V-A:ILE:369:CG2:3237, V-A:ILE:369:CB:3236, V-A:GLY:453:C:4042, V-A:TYR:484:CZ:4347, H-A:TYR:484:OH:4348, V-A:GLY:454:CA:4049, H-B:GLU:543:O:9875, V-B:LYS:547:CD:9921"]

$$$$
2c_Grossjean_2025
     RDKit          3D

 26 27  0  0  0  0  0  0  0  0999 V2000
  129.3460  127.3560   67.1940 C   0  0  0  0  0  0  0  0  0  0  0  0
  128.4030  128.3730   67.5180 O   0  0  0  0  0  0  0  0  0  0  0  0
  127.6020  128.8910   66.5190 C   0  0  0  0  0  0  0  0  0  0  0  0
  128.2400  129.6550   65.5430 C   0  0  0  0  0  0  0  0  0  0  0  0
  127.5160  130.2200   64.4960 C   0  0  0  0  0  0  0  0  0  0  0  0
  126.1280  130.0320   64.4230 C   0  0  0  0  0  0  0  0  0  0  0  0
  125.3170  130.5470   63.3960 N   0  0  0  0  0  0  0  0  0  0  0  0
  123.9700  130.5360   63.3000 C   0  0  0  0  0  0  0  0  0  0  0  0
  123.2140  129.9990   64.1120 O   0  0  0  0  0  0  0  0  0  0  0  0
  123.4050  131.2240   62.0490 C   0  0  0  0  0  0  0  0  0  0  0  0
  124.4380  131.0950   60.5470 S   0  0  0  0  0  0  0  0  0  0  0  0
  125.9800  131.9610   60.8110 C   0  0  0  0  0  0  0  0  0  0  0  0
  127.0870  131.1780   60.8910 N   0  0  0  0  0  0  0  0  0  0  0  0
  128.2870  131.7630   61.0990 C   0  0  0  0  0  0  0  0  0  0  0  0
  129.4710  130.8200   61.1940 C   0  0  0  0  0  0  0  0  0  0  0  0
  128.4380  133.1420   61.2260 C   0  0  0  0  0  0  0  0  0  0  0  0
  127.3110  133.9700   61.1390 C   0  0  0  0  0  0  0  0  0  0  0  0
  127.4950  135.4940   61.2790 C   0  0  0  0  0  0  0  0  0  0  0  0
  128.7920  135.7900   61.3760 F   0  0  0  0  0  0  0  0  0  0  0  0
  126.9870  136.1170   60.2150 F   0  0  0  0  0  0  0  0  0  0  0  0
  126.8890  135.9890   62.3610 F   0  0  0  0  0  0  0  0  0  0  0  0
  126.0440  133.3700   60.9260 C   0  0  0  0  0  0  0  0  0  0  0  0
  124.8300  134.1870   60.8290 C   0  0  0  0  0  0  0  0  0  0  0  0
  123.8730  134.8330   60.7520 N   0  0  0  0  0  0  0  0  0  0  0  0
  125.4870  129.2550   65.3890 C   0  0  0  0  0  0  0  0  0  0  0  0
  126.2150  128.6910   66.4330 C   0  0  0  0  0  0  0  0  0  0  0  0
  1  2  1  0
  2  3  1  0
  3  4  2  0
  4  5  1  0
  5  6  2  0
  6  7  1  0
  7  8  1  0
  8  9  2  0
  8 10  1  0
 10 11  1  0
 11 12  1  0
 12 13  2  0
 13 14  1  0
 14 15  1  0
 14 16  2  0
 16 17  1  0
 17 18  1  0
 18 19  1  0
 18 20  1  0
 18 21  1  0
 17 22  2  0
 22 23  1  0
 23 24  3  0
  6 25  1  0
 25 26  2  0
 26  3  1  0
 22 12  1  0
M  END
>  <Binding energies>  (18) 
[-5.92]

>  <Ligand effiencies>  (18) 
[-0.21925925925925926]

>  <Interactions>  (18) 
["V-A:TYR:539:C:4867, V-B:PRO:482:CB:9297, V-A:GLU:543:CD:4908, V-A:TYR:539:CE2:4876, V-A:PRO:540:C:4881, V-B:PRO:482:CG:9298, V-A:PRO:540:CA:4883, V-A:TYR:539:CD2:4874, V-B:LEU:475:CD1:9229, V-A:ALA:541:CB:4892, V-B:HIS:456:CE1:9040, V-A:HIS:456:CE1:4069, H-B:ARG:545:NE:9896, V-A:GLU:543:CB:4906, H-B:GLY:454:N:9021, V-B:ILE:369:CD1:8210, V-B:ILE:369:CG2:8208, V-B:ARG:545:CZ:9898, H-B:ARG:545:NH2:9900, H-B:ARG:545:NH1:9899, V-B:TRP:381:CH2:8343, V-A:TYR:539:CG:4872, V-A:GLU:543:CG:4907, V-B:TRP:381:CZ2:8341, V-A:ALA:541:CA:4890, V-B:TRP:381:CZ3:8342, V-A:TYR:539:CB:4871, V-B:PRO:482:CD:9299"]

$$$$
2d_Ghoteimi_2023
     RDKit          3D

 38 42  0  0  0  0  0  0  0  0999 V2000
  126.2670  134.2310   61.2680 C   0  0  0  0  0  0  0  0  0  0  0  0
  125.2560  133.3840   60.7430 O   0  0  0  0  0  0  0  0  0  0  0  0
  124.1440  133.1190   61.4590 C   0  0  0  0  0  0  0  0  0  0  0  0
  123.4320  133.9610   62.0140 O   0  0  0  0  0  0  0  0  0  0  0  0
  123.8510  131.6120   61.4980 C   0  0  0  0  0  0  0  0  0  0  0  0
  123.7450  131.0040   63.2160 S   0  0  0  0  0  0  0  0  0  0  0  0
  125.3420  130.3720   63.6870 C   0  0  0  0  0  0  0  0  0  0  0  0
  126.2960  130.5720   62.7450 N   0  0  0  0  0  0  0  0  0  0  0  0
  127.5610  130.1350   62.9670 C   0  0  0  0  0  0  0  0  0  0  0  0
  128.5530  130.3760   61.8760 C   0  0  0  0  0  0  0  0  0  0  0  0
  129.3060  129.3200   61.3510 C   0  0  0  0  0  0  0  0  0  0  0  0
  130.2320  129.5370   60.3350 C   0  0  0  0  0  0  0  0  0  0  0  0
  130.4320  130.8180   59.7980 C   0  0  0  0  0  0  0  0  0  0  0  0
  131.3720  131.0570   58.7890 N   0  0  0  0  0  0  0  0  0  0  0  0
  132.4400  130.0850   58.4830 C   0  0  0  0  0  0  0  0  0  0  0  0
  133.5800  130.6700   57.6230 C   0  0  0  0  0  0  0  0  0  0  0  0
  133.0490  131.2280   56.4320 O   0  0  0  0  0  0  0  0  0  0  0  0
  132.1350  132.2760   56.7100 C   0  0  0  0  0  0  0  0  0  0  0  0
  130.9540  131.7410   57.5480 C   0  0  0  0  0  0  0  0  0  0  0  0
  129.6850  131.8760   60.3360 C   0  0  0  0  0  0  0  0  0  0  0  0
  128.7610  131.6590   61.3540 C   0  0  0  0  0  0  0  0  0  0  0  0
  127.9000  129.4830   64.1560 C   0  0  0  0  0  0  0  0  0  0  0  0
  126.9420  129.2930   65.1590 C   0  0  0  0  0  0  0  0  0  0  0  0
  127.3820  128.6140   66.4140 C   0  0  0  0  0  0  0  0  0  0  0  0
  128.5800  128.9830   67.0300 C   0  0  0  0  0  0  0  0  0  0  0  0
  128.9930  128.3660   68.2060 C   0  0  0  0  0  0  0  0  0  0  0  0
  128.2200  127.3550   68.8000 C   0  0  0  0  0  0  0  0  0  0  0  0
  128.6100  126.7300   69.9880 N   0  0  0  0  0  0  0  0  0  0  0  0
  129.1080  125.3410   69.9990 C   0  0  0  0  0  0  0  0  0  0  0  0
  129.8170  124.9510   71.3140 C   0  0  0  0  0  0  0  0  0  0  0  0
  128.9580  125.1910   72.4180 O   0  0  0  0  0  0  0  0  0  0  0  0
  128.5850  126.5570   72.5060 C   0  0  0  0  0  0  0  0  0  0  0  0
  127.8420  126.9860   71.2220 C   0  0  0  0  0  0  0  0  0  0  0  0
  127.0110  127.0030   68.1850 C   0  0  0  0  0  0  0  0  0  0  0  0
  126.5970  127.6220   67.0090 C   0  0  0  0  0  0  0  0  0  0  0  0
  125.6210  129.7530   64.9280 C   0  0  0  0  0  0  0  0  0  0  0  0
  124.5880  129.5950   65.9550 C   0  0  0  0  0  0  0  0  0  0  0  0
  123.7750  129.4680   66.7700 N   0  0  0  0  0  0  0  0  0  0  0  0
  1  2  1  0
  2  3  1  0
  3  4  2  0
  3  5  1  0
  5  6  1  0
  6  7  1  0
  7  8  2  0
  8  9  1  0
  9 10  1  0
 10 11  2  0
 11 12  1  0
 12 13  2  0
 13 14  1  0
 14 15  1  0
 15 16  1  0
 16 17  1  0
 17 18  1  0
 18 19  1  0
 13 20  1  0
 20 21  2  0
  9 22  2  0
 22 23  1  0
 23 24  1  0
 24 25  2  0
 25 26  1  0
 26 27  2  0
 27 28  1  0
 28 29  1  0
 29 30  1  0
 30 31  1  0
 31 32  1  0
 32 33  1  0
 27 34  1  0
 34 35  2  0
 23 36  2  0
 36 37  1  0
 37 38  3  0
 36  7  1  0
 21 10  1  0
 35 24  1  0
 19 14  1  0
 33 28  1  0
M  END
>  <Binding energies>  (19) 
[-9.1]

>  <Ligand effiencies>  (19) 
[-0.2394736842105263]

>  <Interactions>  (19) 
["V-A:PRO:540:CD:4887, V-A:PRO:540:N:4884, V-A:ASP:366:CB:3212, V-A:PRO:540:CG:4886, V-A:ASP:366:CG:3213, V-A:LEU:363:CD1:3189, V-A:GLU:543:CD:4908, V-A:TYR:539:CE2:4876, V-A:PRO:540:CB:4885, V-A:PRO:540:CA:4883, V-A:TYR:539:CD2:4874, V-B:LEU:475:CD1:9229, V-B:GLU:543:C:9874, V-B:GLU:543:CB:9878, V-B:HIS:456:CE1:9040, V-B:ARG:545:CG:9894, H-B:LYS:547:NZ:9923, V-A:HIS:456:CE1:4069, V-A:HIS:456:CG:4066, V-A:HIS:456:CD2:4068, H-B:TYR:484:OH:9319, H-B:ARG:545:NE:9896, V-A:GLU:543:CB:4906, H-B:GLY:454:N:9021, V-B:ILE:369:CD1:8210, V-B:ARG:545:CD:9895, V-B:ILE:369:CG2:8208, V-B:ARG:545:CZ:9898, H-B:ILE:455:N:9026, V-A:GLU:543:CG:4907, V-A:LEU:363:CA:3185, V-A:LEU:363:CB:3187"]

$$$$
2d_Grossjean_2025
     RDKit          3D

 24 25  0  0  0  0  0  0  0  0999 V2000
  129.1410  130.6640   61.3420 C   0  0  0  0  0  0  0  0  0  0  0  0
  128.0300  131.6870   61.2050 C   0  0  0  0  0  0  0  0  0  0  0  0
  128.2740  133.0520   61.3370 C   0  0  0  0  0  0  0  0  0  0  0  0
  127.2140  133.9590   61.1960 C   0  0  0  0  0  0  0  0  0  0  0  0
  127.5050  135.4660   61.3360 C   0  0  0  0  0  0  0  0  0  0  0  0
  128.8210  135.6710   61.4120 F   0  0  0  0  0  0  0  0  0  0  0  0
  127.0270  136.1240   60.2780 F   0  0  0  0  0  0  0  0  0  0  0  0
  126.9510  136.0010   62.4250 F   0  0  0  0  0  0  0  0  0  0  0  0
  125.9170  133.4510   60.9290 C   0  0  0  0  0  0  0  0  0  0  0  0
  124.7850  134.3590   60.7280 C   0  0  0  0  0  0  0  0  0  0  0  0
  123.8920  135.0770   60.5680 N   0  0  0  0  0  0  0  0  0  0  0  0
  125.7590  132.0480   60.8370 C   0  0  0  0  0  0  0  0  0  0  0  0
  124.1980  131.2400   60.5380 S   0  0  0  0  0  0  0  0  0  0  0  0
  123.1710  131.3760   62.0390 C   0  0  0  0  0  0  0  0  0  0  0  0
  123.7640  130.6340   63.2400 C   0  0  0  0  0  0  0  0  0  0  0  0
  123.0120  130.0000   63.9820 O   0  0  0  0  0  0  0  0  0  0  0  0
  125.0970  130.7640   63.4070 N   0  0  0  0  0  0  0  0  0  0  0  0
  125.9270  130.2080   64.3990 C   0  0  0  0  0  0  0  0  0  0  0  0
  127.2650  130.6080   64.3730 C   0  0  0  0  0  0  0  0  0  0  0  0
  128.1650  130.1080   65.3100 C   0  0  0  0  0  0  0  0  0  0  0  0
  127.7270  129.1980   66.2700 C   0  0  0  0  0  0  0  0  0  0  0  0
  126.3990  128.7820   66.2980 C   0  0  0  0  0  0  0  0  0  0  0  0
  125.4960  129.2810   65.3630 C   0  0  0  0  0  0  0  0  0  0  0  0
  126.7980  131.1860   60.9540 N   0  0  0  0  0  0  0  0  0  0  0  0
  1  2  1  0
  2  3  2  0
  3  4  1  0
  4  5  1  0
  5  6  1  0
  5  7  1  0
  5  8  1  0
  4  9  2  0
  9 10  1  0
 10 11  3  0
  9 12  1  0
 12 13  1  0
 13 14  1  0
 14 15  1  0
 15 16  2  0
 15 17  1  0
 17 18  1  0
 18 19  2  0
 19 20  1  0
 20 21  2  0
 21 22  1  0
 22 23  2  0
 12 24  2  0
 24  2  1  0
 23 18  1  0
M  END
>  <Binding energies>  (20) 
[-5.85]

>  <Ligand effiencies>  (20) 
[-0.23399999999999999]

>  <Interactions>  (20) 
["V-A:TYR:539:C:4867, V-B:PRO:482:CB:9297, V-A:GLU:543:CD:4908, V-A:TYR:539:CE2:4876, V-A:PRO:540:C:4881, V-B:PRO:482:CG:9298, V-A:PRO:540:CA:4883, V-A:TYR:539:CD2:4874, V-B:LEU:475:CD1:9229, V-A:ALA:541:CB:4892, V-B:HIS:456:CE1:9040, H-B:ARG:545:NE:9896, V-A:GLU:543:CB:4906, H-B:GLY:454:N:9021, V-B:ILE:369:CD1:8210, V-B:ILE:369:CG2:8208, V-B:ARG:545:CZ:9898, V-B:GLY:454:CA:9020, H-B:ARG:545:NH2:9900, H-B:ARG:545:NH1:9899, V-B:TRP:381:CH2:8343, V-A:TYR:539:CG:4872, V-B:TRP:381:CZ2:8341, V-A:ALA:541:CA:4890, V-B:LEU:475:CG:9228, V-B:TRP:381:CZ3:8342"]

$$$$
2e_Grossjean_2025
     RDKit          3D

 25 26  0  0  0  0  0  0  0  0999 V2000
  123.0470  133.6930   62.4970 C   0  0  0  0  0  0  0  0  0  0  0  0
  123.6340  132.3160   62.2530 C   0  0  0  0  0  0  0  0  0  0  0  0
  123.7600  131.7920   60.9650 C   0  0  0  0  0  0  0  0  0  0  0  0
  124.3200  130.5220   60.8160 C   0  0  0  0  0  0  0  0  0  0  0  0
  124.7370  129.8150   61.9470 C   0  0  0  0  0  0  0  0  0  0  0  0
  124.5730  130.3960   63.2100 C   0  0  0  0  0  0  0  0  0  0  0  0
  125.0480  129.6600   64.3090 N   0  0  0  0  0  0  0  0  0  0  0  0
  124.6170  129.7010   65.5890 C   0  0  0  0  0  0  0  0  0  0  0  0
  123.6580  130.3630   65.9910 O   0  0  0  0  0  0  0  0  0  0  0  0
  125.4360  128.8860   66.5940 C   0  0  0  0  0  0  0  0  0  0  0  0
  127.1840  129.3950   66.6250 S   0  0  0  0  0  0  0  0  0  0  0  0
  128.0540  128.1670   65.6750 C   0  0  0  0  0  0  0  0  0  0  0  0
  127.7080  128.1170   64.3650 N   0  0  0  0  0  0  0  0  0  0  0  0
  128.2880  127.1820   63.5800 C   0  0  0  0  0  0  0  0  0  0  0  0
  127.8570  127.1830   62.1260 C   0  0  0  0  0  0  0  0  0  0  0  0
  129.2200  126.2650   64.0640 C   0  0  0  0  0  0  0  0  0  0  0  0
  129.5810  126.2970   65.4190 C   0  0  0  0  0  0  0  0  0  0  0  0
  130.5960  125.2650   65.9430 C   0  0  0  0  0  0  0  0  0  0  0  0
  130.1260  124.6790   67.0450 F   0  0  0  0  0  0  0  0  0  0  0  0
  130.8160  124.3310   65.0170 F   0  0  0  0  0  0  0  0  0  0  0  0
  131.7740  125.8110   66.2520 F   0  0  0  0  0  0  0  0  0  0  0  0
  128.9860  127.2750   66.2540 C   0  0  0  0  0  0  0  0  0  0  0  0
  129.2990  127.3420   67.6850 C   0  0  0  0  0  0  0  0  0  0  0  0
  129.5460  127.3940   68.8150 N   0  0  0  0  0  0  0  0  0  0  0  0
  124.0330  131.6410   63.3620 N   0  0  0  0  0  0  0  0  0  0  0  0
  1  2  1  0
  2  3  2  0
  3  4  1  0
  4  5  2  0
  5  6  1  0
  6  7  1  0
  7  8  1  0
  8  9  2  0
  8 10  1  0
 10 11  1  0
 11 12  1  0
 12 13  2  0
 13 14  1  0
 14 15  1  0
 14 16  2  0
 16 17  1  0
 17 18  1  0
 18 19  1  0
 18 20  1  0
 18 21  1  0
 17 22  2  0
 22 23  1  0
 23 24  3  0
  6 25  2  0
 25  2  1  0
 22 12  1  0
M  END
>  <Binding energies>  (21) 
[-6.11]

>  <Ligand effiencies>  (21) 
[-0.23500000000000001]

>  <Interactions>  (21) 
["V-B:GLU:543:CD:9880, V-B:ASP:366:CG:8184, V-A:GLU:543:CD:4908, V-B:LEU:475:CD1:9229, V-B:HIS:456:CE1:9040, V-B:ARG:545:CG:9894, V-A:HIS:456:CE1:4069, H-B:GLU:543:OE1:9881, H-B:TYR:484:OH:9319, H-B:GLY:454:N:9021, H-A:HIS:456:NE2:4070, V-B:ILE:369:CD1:8210, V-B:ARG:545:CD:9895, V-B:ILE:369:CG2:8208, V-B:ARG:545:CZ:9898, V-B:GLU:543:CG:9879, V-B:GLY:454:CA:9020, V-A:TYR:484:CE1:4345, H-B:ILE:455:N:9026, V-A:TYR:484:CZ:4347"]

$$$$
2f_Grossjean_2025
     RDKit          3D

 24 25  0  0  0  0  0  0  0  0999 V2000
  129.7370  132.3860   60.1230 C   0  0  0  0  0  0  0  0  0  0  0  0
  128.2320  132.2350   60.0110 C   0  0  0  0  0  0  0  0  0  0  0  0
  127.3640  133.2360   60.4410 C   0  0  0  0  0  0  0  0  0  0  0  0
  125.9780  133.0450   60.3230 C   0  0  0  0  0  0  0  0  0  0  0  0
  125.0350  134.1590   60.8160 C   0  0  0  0  0  0  0  0  0  0  0  0
  124.2620  133.7020   61.8030 F   0  0  0  0  0  0  0  0  0  0  0  0
  125.7470  135.1920   61.2680 F   0  0  0  0  0  0  0  0  0  0  0  0
  124.2280  134.6160   59.8560 F   0  0  0  0  0  0  0  0  0  0  0  0
  125.5060  131.8330   59.7590 C   0  0  0  0  0  0  0  0  0  0  0  0
  124.0690  131.5630   59.6670 C   0  0  0  0  0  0  0  0  0  0  0  0
  122.9330  131.3510   59.5940 N   0  0  0  0  0  0  0  0  0  0  0  0
  126.4620  130.8830   59.3250 C   0  0  0  0  0  0  0  0  0  0  0  0
  126.0500  129.3160   58.5850 S   0  0  0  0  0  0  0  0  0  0  0  0
  125.5290  129.6240   56.8630 C   0  0  0  0  0  0  0  0  0  0  0  0
  126.6030  130.2450   55.9590 C   0  0  0  0  0  0  0  0  0  0  0  0
  126.3750  130.4550   54.7670 O   0  0  0  0  0  0  0  0  0  0  0  0
  127.7740  130.5060   56.5780 N   0  0  0  0  0  0  0  0  0  0  0  0
  128.9520  131.0760   56.0610 C   0  0  0  0  0  0  0  0  0  0  0  0
  129.7600  130.5120   55.0570 C   0  0  0  0  0  0  0  0  0  0  0  0
  130.9050  131.1870   54.6290 C   0  0  0  0  0  0  0  0  0  0  0  0
  131.2120  132.4150   55.2140 C   0  0  0  0  0  0  0  0  0  0  0  0
  130.4460  132.9860   56.1780 N   0  0  0  0  0  0  0  0  0  0  0  0
  129.3360  132.3170   56.5820 C   0  0  0  0  0  0  0  0  0  0  0  0
  127.7960  131.0750   59.4680 N   0  0  0  0  0  0  0  0  0  0  0  0
  1  2  1  0
  2  3  2  0
  3  4  1  0
  4  5  1  0
  5  6  1  0
  5  7  1  0
  5  8  1  0
  4  9  2  0
  9 10  1  0
 10 11  3  0
  9 12  1  0
 12 13  1  0
 13 14  1  0
 14 15  1  0
 15 16  2  0
 15 17  1  0
 17 18  1  0
 18 19  2  0
 19 20  1  0
 20 21  2  0
 21 22  1  0
 22 23  2  0
 12 24  2  0
 24  2  1  0
 23 18  1  0
M  END
>  <Binding energies>  (22) 
[-5.93]

>  <Ligand effiencies>  (22) 
[-0.2372]

>  <Interactions>  (22) 
["V-A:PRO:540:N:4884, V-A:TYR:539:C:4867, V-A:TYR:531:CE2:4793, V-A:ILE:538:CD1:4865, V-A:TYR:531:CZ:4794, V-A:ILE:538:CA:4860, V-A:TYR:539:CE2:4876, V-A:PRO:540:C:4881, V-A:PRO:540:CA:4883, V-A:TYR:539:CD2:4874, V-B:LEU:475:CD1:9229, V-B:TYR:531:CZ:9766, V-B:ILE:369:CG2:8208, V-B:TRP:381:CH2:8343, V-A:TYR:539:CE1:4875, V-A:TYR:539:CD1:4873, V-A:TYR:539:CZ:4877, H-A:TYR:539:N:4870, V-A:TYR:539:CG:4872, H-A:TYR:539:OH:4878, H-B:TYR:531:OH:9767, V-B:TRP:381:CZ2:8341"]

$$$$
2g_Grossjean_2025
     RDKit          3D

 25 26  0  0  0  0  0  0  0  0999 V2000
  133.5110  126.2330   75.5430 C   0  0  0  0  0  0  0  0  0  0  0  0
  132.4170  125.7840   74.5920 C   0  0  0  0  0  0  0  0  0  0  0  0
  132.3460  124.4730   74.1280 C   0  0  0  0  0  0  0  0  0  0  0  0
  131.3190  124.1090   73.2440 C   0  0  0  0  0  0  0  0  0  0  0  0
  131.2620  122.6560   72.7340 C   0  0  0  0  0  0  0  0  0  0  0  0
  132.4940  122.1580   72.6170 F   0  0  0  0  0  0  0  0  0  0  0  0
  130.5710  121.9030   73.5920 F   0  0  0  0  0  0  0  0  0  0  0  0
  130.6740  122.5500   71.5400 F   0  0  0  0  0  0  0  0  0  0  0  0
  130.3750  125.0950   72.8570 C   0  0  0  0  0  0  0  0  0  0  0  0
  129.3180  124.7820   71.8920 C   0  0  0  0  0  0  0  0  0  0  0  0
  128.4830  124.5340   71.1310 N   0  0  0  0  0  0  0  0  0  0  0  0
  130.5090  126.3950   73.4040 C   0  0  0  0  0  0  0  0  0  0  0  0
  129.4010  127.7410   73.0450 S   0  0  0  0  0  0  0  0  0  0  0  0
  130.0150  128.5700   71.5400 C   0  0  0  0  0  0  0  0  0  0  0  0
  129.3760  128.0820   70.2320 C   0  0  0  0  0  0  0  0  0  0  0  0
  129.7510  128.5050   69.1370 O   0  0  0  0  0  0  0  0  0  0  0  0
  128.3890  127.1780   70.3740 N   0  0  0  0  0  0  0  0  0  0  0  0
  127.6380  126.5620   69.2790 C   0  0  0  0  0  0  0  0  0  0  0  0
  128.4320  126.3950   67.9880 C   0  0  0  0  0  0  0  0  0  0  0  0
  129.4430  125.4330   67.9120 C   0  0  0  0  0  0  0  0  0  0  0  0
  130.1440  125.2520   66.7220 C   0  0  0  0  0  0  0  0  0  0  0  0
  129.8250  126.0270   65.6100 C   0  0  0  0  0  0  0  0  0  0  0  0
  128.8100  126.9790   65.6750 C   0  0  0  0  0  0  0  0  0  0  0  0
  128.1080  127.1600   66.8630 C   0  0  0  0  0  0  0  0  0  0  0  0
  131.5220  126.7340   74.2390 N   0  0  0  0  0  0  0  0  0  0  0  0
  1  2  1  0
  2  3  2  0
  3  4  1  0
  4  5  1  0
  5  6  1  0
  5  7  1  0
  5  8  1  0
  4  9  2  0
  9 10  1  0
 10 11  3  0
  9 12  1  0
 12 13  1  0
 13 14  1  0
 14 15  1  0
 15 16  2  0
 15 17  1  0
 17 18  1  0
 18 19  1  0
 19 20  2  0
 20 21  1  0
 21 22  2  0
 22 23  1  0
 23 24  2  0
 12 25  2  0
 25  2  1  0
 24 19  1  0
M  END
>  <Binding energies>  (23) 
[-6.11]

>  <Ligand effiencies>  (23) 
[-0.23500000000000001]

>  <Interactions>  (23) 
["V-B:GLU:543:CD:9880, V-A:GLU:543:CD:4908, V-B:GLU:543:C:9874, V-B:GLU:543:CB:9878, V-B:GLY:544:C:9884, V-B:HIS:456:CD2:9039, H-A:LYS:547:NZ:4951, V-B:HIS:456:CE1:9040, H-B:LYS:547:NZ:9923, V-A:HIS:456:CE1:4069, V-A:ASP:473:CG:4240, V-A:HIS:456:CG:4066, V-A:HIS:456:CD2:4068, V-A:ASP:473:CB:4239, V-A:HIS:456:CB:4065, H-B:HIS:456:NE2:9041, H-A:HIS:456:NE2:4070, V-A:TYR:484:CE1:4345, V-A:TYR:484:CZ:4347, V-A:LYS:547:CD:4949, V-A:TYR:484:CD2:4344, V-A:VAL:458:CG2:4087, H-B:GLY:544:O:9885, V-A:TYR:484:CG:4342, V-A:TYR:484:CE2:4346, V-A:TYR:484:CB:4341, V-A:TYR:484:CD1:4343, V-A:ASP:473:CA:4237, V-A:ASP:473:C:4235"]

$$$$
2h_Grossjean_2025
     RDKit          3D

 31 32  0  0  0  0  0  0  0  0999 V2000
  132.7440  126.6280   74.3180 C   0  0  0  0  0  0  0  0  0  0  0  0
  131.3670  126.9600   74.4560 O   0  0  0  0  0  0  0  0  0  0  0  0
  130.5240  126.8250   73.3670 C   0  0  0  0  0  0  0  0  0  0  0  0
  130.0940  127.8980   72.5700 C   0  0  0  0  0  0  0  0  0  0  0  0
  129.2500  127.6820   71.4840 C   0  0  0  0  0  0  0  0  0  0  0  0
  128.8160  126.3940   71.1690 C   0  0  0  0  0  0  0  0  0  0  0  0
  127.9070  126.1800   69.9600 C   0  0  0  0  0  0  0  0  0  0  0  0
  128.6320  126.0420   68.6970 N   0  0  0  0  0  0  0  0  0  0  0  0
  129.4320  126.9810   68.1610 C   0  0  0  0  0  0  0  0  0  0  0  0
  129.5740  128.1040   68.6470 O   0  0  0  0  0  0  0  0  0  0  0  0
  130.1820  126.5640   66.8880 C   0  0  0  0  0  0  0  0  0  0  0  0
  130.2680  124.7660   66.5980 S   0  0  0  0  0  0  0  0  0  0  0  0
  130.5770  124.5400   64.8600 C   0  0  0  0  0  0  0  0  0  0  0  0
  129.4500  124.4610   64.1110 N   0  0  0  0  0  0  0  0  0  0  0  0
  129.5690  124.2700   62.7780 C   0  0  0  0  0  0  0  0  0  0  0  0
  128.2670  124.1840   62.0050 C   0  0  0  0  0  0  0  0  0  0  0  0
  130.8040  124.1570   62.1420 C   0  0  0  0  0  0  0  0  0  0  0  0
  131.9820  124.2570   62.8970 C   0  0  0  0  0  0  0  0  0  0  0  0
  133.3380  124.1390   62.1750 C   0  0  0  0  0  0  0  0  0  0  0  0
  134.1600  125.1020   62.5900 F   0  0  0  0  0  0  0  0  0  0  0  0
  133.9440  122.9710   62.4010 F   0  0  0  0  0  0  0  0  0  0  0  0
  133.1670  124.2540   60.8570 F   0  0  0  0  0  0  0  0  0  0  0  0
  131.8740  124.4640   64.2960 C   0  0  0  0  0  0  0  0  0  0  0  0
  133.0730  124.6340   65.1210 C   0  0  0  0  0  0  0  0  0  0  0  0
  134.0210  124.7710   65.7690 N   0  0  0  0  0  0  0  0  0  0  0  0
  129.2180  125.3150   71.9700 C   0  0  0  0  0  0  0  0  0  0  0  0
  128.7920  124.0430   71.6680 O   0  0  0  0  0  0  0  0  0  0  0  0
  129.7110  123.2850   70.8930 C   0  0  0  0  0  0  0  0  0  0  0  0
  130.0850  125.5320   73.0550 C   0  0  0  0  0  0  0  0  0  0  0  0
  130.4950  124.4740   73.8310 O   0  0  0  0  0  0  0  0  0  0  0  0
  131.6260  123.7820   73.3190 C   0  0  0  0  0  0  0  0  0  0  0  0
  1  2  1  0
  2  3  1  0
  3  4  2  0
  4  5  1  0
  5  6  2  0
  6  7  1  0
  7  8  1  0
  8  9  1  0
  9 10  2  0
  9 11  1  0
 11 12  1  0
 12 13  1  0
 13 14  2  0
 14 15  1  0
 15 16  1  0
 15 17  2  0
 17 18  1  0
 18 19  1  0
 19 20  1  0
 19 21  1  0
 19 22  1  0
 18 23  2  0
 23 24  1  0
 24 25  3  0
  6 26  1  0
 26 27  1  0
 27 28  1  0
 26 29  2  0
 29 30  1  0
 30 31  1  0
 29  3  1  0
 23 13  1  0
M  END
>  <Binding energies>  (24) 
[-6.85]

>  <Ligand effiencies>  (24) 
[-0.2140625]

>  <Interactions>  (24) 
["V-B:GLU:543:CD:9880, V-A:ASP:366:CG:3213, V-A:GLU:543:CD:4908, V-B:GLU:543:C:9874, V-B:GLY:544:C:9884, H-A:LYS:547:NZ:4951, V-B:HIS:456:CE1:9040, H-B:LYS:547:NZ:9923, V-A:HIS:456:CE1:4069, V-A:HIS:456:CG:4066, V-A:HIS:456:CD2:4068, V-A:HIS:456:CB:4065, V-A:LYS:547:CE:4950, H-A:HIS:456:NE2:4070, H-A:GLY:454:N:4050, V-B:GLU:543:CG:9879, V-A:TYR:484:CE1:4345, V-A:ILE:369:CD1:3239, V-A:TYR:484:CZ:4347, H-A:TYR:484:OH:4348, V-A:GLY:454:CA:4049, H-A:ARG:545:NE:4924, V-A:ARG:545:CZ:4926, V-A:GLY:453:CA:4044, H-B:GLU:543:O:9875, V-A:LYS:547:CD:4949, V-A:TYR:484:CD2:4344, V-A:TYR:484:CG:4342, V-A:TYR:484:CE2:4346, V-A:TYR:484:CD1:4343"]

$$$$
2i_Grossjean_2025
     RDKit          3D

 23 24  0  0  0  0  0  0  0  0999 V2000
  127.8690  130.3600   65.4930 C   0  0  0  0  0  0  0  0  0  0  0  0
  128.3570  129.0260   66.0260 C   0  0  0  0  0  0  0  0  0  0  0  0
  128.6560  127.9650   65.1750 C   0  0  0  0  0  0  0  0  0  0  0  0
  129.1070  126.7520   65.7160 C   0  0  0  0  0  0  0  0  0  0  0  0
  129.4330  125.5890   64.7600 C   0  0  0  0  0  0  0  0  0  0  0  0
  128.8530  125.7950   63.5770 F   0  0  0  0  0  0  0  0  0  0  0  0
  130.7510  125.4950   64.5850 F   0  0  0  0  0  0  0  0  0  0  0  0
  129.0050  124.4100   65.2170 F   0  0  0  0  0  0  0  0  0  0  0  0
  129.2420  126.6480   67.1240 C   0  0  0  0  0  0  0  0  0  0  0  0
  129.7100  125.4040   67.7440 C   0  0  0  0  0  0  0  0  0  0  0  0
  130.0800  124.4230   68.2330 N   0  0  0  0  0  0  0  0  0  0  0  0
  128.9140  127.7740   67.9140 C   0  0  0  0  0  0  0  0  0  0  0  0
  129.0380  127.7570   69.6950 S   0  0  0  0  0  0  0  0  0  0  0  0
  127.7810  126.6100   70.3380 C   0  0  0  0  0  0  0  0  0  0  0  0
  128.3620  125.6250   71.3550 C   0  0  0  0  0  0  0  0  0  0  0  0
  128.2250  125.8560   72.5580 O   0  0  0  0  0  0  0  0  0  0  0  0
  129.0190  124.5650   70.8380 N   0  0  0  0  0  0  0  0  0  0  0  0
  129.6420  123.5520   71.5480 C   0  0  0  0  0  0  0  0  0  0  0  0
  130.9100  123.5170   72.1470 C   0  0  0  0  0  0  0  0  0  0  0  0
  130.9950  122.2650   72.7120 C   0  0  0  0  0  0  0  0  0  0  0  0
  129.8440  121.5910   72.4730 O   0  0  0  0  0  0  0  0  0  0  0  0
  128.9950  122.4230   71.7390 N   0  0  0  0  0  0  0  0  0  0  0  0
  128.4810  128.9400   67.3690 N   0  0  0  0  0  0  0  0  0  0  0  0
  1  2  1  0
  2  3  2  0
  3  4  1  0
  4  5  1  0
  5  6  1  0
  5  7  1  0
  5  8  1  0
  4  9  2  0
  9 10  1  0
 10 11  3  0
  9 12  1  0
 12 13  1  0
 13 14  1  0
 14 15  1  0
 15 16  2  0
 15 17  1  0
 17 18  1  0
 18 19  1  0
 19 20  2  0
 20 21  1  0
 21 22  1  0
 12 23  2  0
 23  2  1  0
 22 18  2  0
M  END
>  <Binding energies>  (25) 
[-6.75]

>  <Ligand effiencies>  (25) 
[-0.28125]

>  <Interactions>  (25) 
["V-B:GLU:543:CD:9880, V-A:GLU:543:CD:4908, V-B:GLU:543:C:9874, V-B:GLU:543:CB:9878, V-B:GLY:544:C:9884, V-B:HIS:456:CE1:9040, H-B:LYS:547:NZ:9923, V-A:HIS:456:CE1:4069, V-A:HIS:456:CG:4066, V-A:HIS:456:CD2:4068, V-A:ASP:473:CB:4239, V-A:HIS:456:CB:4065, V-A:GLU:543:CB:4906, H-B:HIS:456:NE2:9041, H-A:HIS:456:NE2:4070, V-B:GLU:543:CG:9879, V-A:TYR:484:CE1:4345, V-B:GLU:543:CA:9876, V-A:TYR:484:CZ:4347, H-A:TYR:484:OH:4348, V-B:TYR:484:CZ:9318, V-A:GLU:543:CG:4907, V-B:TYR:484:CE1:9316, H-B:GLU:543:O:9875, V-A:TYR:484:CD2:4344, V-A:TYR:484:CG:4342, V-A:TYR:484:CE2:4346, V-A:TYR:484:CB:4341, V-A:TYR:484:CD1:4343"]

$$$$
2k_Grossjean_2025
     RDKit          3D

 28 28  0  0  0  0  0  0  0  0999 V2000
  127.1130  123.0510   55.0530 C   0  0  0  0  0  0  0  0  0  0  0  0
  126.9260  122.1210   56.1090 O   0  0  0  0  0  0  0  0  0  0  0  0
  127.1520  122.6760   57.3990 C   0  0  0  0  0  0  0  0  0  0  0  0
  125.8740  123.3590   57.9000 C   0  0  0  0  0  0  0  0  0  0  0  0
  125.7960  123.2180   59.3110 O   0  0  0  0  0  0  0  0  0  0  0  0
  126.7070  124.0390   60.0320 C   0  0  0  0  0  0  0  0  0  0  0  0
  127.2100  123.2520   61.2500 C   0  0  0  0  0  0  0  0  0  0  0  0
  127.8590  122.0830   60.7750 O   0  0  0  0  0  0  0  0  0  0  0  0
  129.2780  122.1180   60.8250 C   0  0  0  0  0  0  0  0  0  0  0  0
  129.7360  121.7630   62.2510 C   0  0  0  0  0  0  0  0  0  0  0  0
  129.6340  122.8900   63.1820 N   0  0  0  0  0  0  0  0  0  0  0  0
  129.8390  122.8280   64.5120 C   0  0  0  0  0  0  0  0  0  0  0  0
  130.1700  121.7970   65.1000 O   0  0  0  0  0  0  0  0  0  0  0  0
  129.6120  124.1380   65.2810 C   0  0  0  0  0  0  0  0  0  0  0  0
  130.4340  125.6110   64.5800 S   0  0  0  0  0  0  0  0  0  0  0  0
  131.2970  125.1530   63.0830 C   0  0  0  0  0  0  0  0  0  0  0  0
  130.6180  125.3580   61.9250 N   0  0  0  0  0  0  0  0  0  0  0  0
  131.2080  125.0300   60.7550 C   0  0  0  0  0  0  0  0  0  0  0  0
  130.3810  125.2790   59.5080 C   0  0  0  0  0  0  0  0  0  0  0  0
  132.4930  124.5000   60.6840 C   0  0  0  0  0  0  0  0  0  0  0  0
  133.2170  124.2860   61.8670 C   0  0  0  0  0  0  0  0  0  0  0  0
  134.6400  123.7030   61.7710 C   0  0  0  0  0  0  0  0  0  0  0  0
  135.0780  123.6140   60.5140 F   0  0  0  0  0  0  0  0  0  0  0  0
  135.4970  124.4750   62.4410 F   0  0  0  0  0  0  0  0  0  0  0  0
  134.6660  122.4760   62.2920 F   0  0  0  0  0  0  0  0  0  0  0  0
  132.6070  124.6180   63.1040 C   0  0  0  0  0  0  0  0  0  0  0  0
  133.3150  124.4120   64.3710 C   0  0  0  0  0  0  0  0  0  0  0  0
  133.8750  124.2500   65.3710 N   0  0  0  0  0  0  0  0  0  0  0  0
  1  2  1  0
  2  3  1  0
  3  4  1  0
  4  5  1  0
  5  6  1  0
  6  7  1  0
  7  8  1  0
  8  9  1  0
  9 10  1  0
 10 11  1  0
 11 12  1  0
 12 13  2  0
 12 14  1  0
 14 15  1  0
 15 16  1  0
 16 17  2  0
 17 18  1  0
 18 19  1  0
 18 20  2  0
 20 21  1  0
 21 22  1  0
 22 23  1  0
 22 24  1  0
 22 25  1  0
 21 26  2  0
 26 27  1  0
 27 28  3  0
 26 16  1  0
M  END
>  <Binding energies>  (26) 
[-5.21]

>  <Ligand effiencies>  (26) 
[-0.1796551724137931]

>  <Interactions>  (26) 
["V-B:GLU:543:CD:9880, V-B:ILE:538:CB:9834, V-B:ALA:541:CB:9864, V-B:TYR:539:CE2:9848, V-B:TYR:539:CD2:9846, H-B:ALA:541:N:9863, V-B:PRO:540:CB:9857, V-B:PRO:540:N:9856, V-B:TYR:539:C:9839, V-B:PRO:540:CA:9855, V-A:ASP:366:CG:3213, V-B:ILE:538:CG2:9835, H-B:TYR:539:N:9842, V-B:GLU:543:CB:9878, H-A:GLY:454:N:4050, V-B:GLU:543:CG:9879, V-A:TYR:484:CE1:4345, V-B:GLU:543:CA:9876, V-A:ILE:369:CD1:3239, V-A:ILE:369:CG2:3237, V-A:ILE:369:CB:3236, V-A:GLY:453:C:4042, H-A:TYR:484:OH:4348, V-A:GLY:454:CA:4049, V-A:ASP:366:CA:3210, V-A:ARG:545:CZ:4926, V-A:GLY:453:CA:4044, V-B:ILE:538:CA:9832, V-B:TYR:539:CE1:9847, V-A:ILE:369:CG1:3238, V-B:TYR:539:CD1:9845"]

$$$$
3aa_Grossjean_2025
     RDKit          3D

 34 36  0  0  0  0  0  0  0  0999 V2000
  125.9330  126.9730   73.8720 C   0  0  0  0  0  0  0  0  0  0  0  0
  127.1160  126.9540   74.8440 C   0  0  0  0  0  0  0  0  0  0  0  0
  128.0310  125.9360   74.4580 O   0  0  0  0  0  0  0  0  0  0  0  0
  129.2170  126.2460   73.8750 C   0  0  0  0  0  0  0  0  0  0  0  0
  130.2060  126.6320   74.5060 O   0  0  0  0  0  0  0  0  0  0  0  0
  129.2030  126.0890   72.3810 C   0  0  0  0  0  0  0  0  0  0  0  0
  129.7120  124.9440   71.7490 C   0  0  0  0  0  0  0  0  0  0  0  0
  129.6790  124.8290   70.3620 C   0  0  0  0  0  0  0  0  0  0  0  0
  129.1330  125.8480   69.5800 C   0  0  0  0  0  0  0  0  0  0  0  0
  129.1460  125.6300   68.1880 N   0  0  0  0  0  0  0  0  0  0  0  0
  129.3350  126.5100   67.1800 C   0  0  0  0  0  0  0  0  0  0  0  0
  129.5160  127.7210   67.3140 O   0  0  0  0  0  0  0  0  0  0  0  0
  129.3030  125.9160   65.7710 C   0  0  0  0  0  0  0  0  0  0  0  0
  130.0400  124.2540   65.7220 S   0  0  0  0  0  0  0  0  0  0  0  0
  130.6430  124.0000   64.0680 C   0  0  0  0  0  0  0  0  0  0  0  0
  129.6630  123.7690   63.1620 N   0  0  0  0  0  0  0  0  0  0  0  0
  129.9860  123.5570   61.8600 C   0  0  0  0  0  0  0  0  0  0  0  0
  128.8450  123.3240   60.9170 C   0  0  0  0  0  0  0  0  0  0  0  0
  129.0840  122.9510   59.5840 C   0  0  0  0  0  0  0  0  0  0  0  0
  128.0280  122.7320   58.7020 C   0  0  0  0  0  0  0  0  0  0  0  0
  126.7180  122.8830   59.1420 C   0  0  0  0  0  0  0  0  0  0  0  0
  126.4550  123.2480   60.4580 C   0  0  0  0  0  0  0  0  0  0  0  0
  127.5110  123.4650   61.3380 C   0  0  0  0  0  0  0  0  0  0  0  0
  131.3190  123.5810   61.4380 C   0  0  0  0  0  0  0  0  0  0  0  0
  132.3530  123.8000   62.3610 C   0  0  0  0  0  0  0  0  0  0  0  0
  133.8090  123.8080   61.8590 C   0  0  0  0  0  0  0  0  0  0  0  0
  134.5570  124.7390   62.4530 F   0  0  0  0  0  0  0  0  0  0  0  0
  134.3820  122.6270   62.0930 F   0  0  0  0  0  0  0  0  0  0  0  0
  133.8350  124.0480   60.5470 F   0  0  0  0  0  0  0  0  0  0  0  0
  132.0110  124.0050   63.7200 C   0  0  0  0  0  0  0  0  0  0  0  0
  133.0520  124.1810   64.7380 C   0  0  0  0  0  0  0  0  0  0  0  0
  133.8740  124.3200   65.5410 N   0  0  0  0  0  0  0  0  0  0  0  0
  128.6340  127.0010   70.2040 C   0  0  0  0  0  0  0  0  0  0  0  0
  128.6700  127.1150   71.5900 C   0  0  0  0  0  0  0  0  0  0  0  0
  1  2  1  0
  2  3  1  0
  3  4  1  0
  4  5  2  0
  4  6  1  0
  6  7  2  0
  7  8  1  0
  8  9  2  0
  9 10  1  0
 10 11  1  0
 11 12  2  0
 11 13  1  0
 13 14  1  0
 14 15  1  0
 15 16  2  0
 16 17  1  0
 17 18  1  0
 18 19  2  0
 19 20  1  0
 20 21  2  0
 21 22  1  0
 22 23  2  0
 17 24  2  0
 24 25  1  0
 25 26  1  0
 26 27  1  0
 26 28  1  0
 26 29  1  0
 25 30  2  0
 30 31  1  0
 31 32  3  0
  9 33  1  0
 33 34  2  0
 34  6  1  0
 30 15  1  0
 23 18  1  0
M  END
>  <Binding energies>  (27) 
[-8.5]

>  <Ligand effiencies>  (27) 
[-0.24285714285714285]

>  <Interactions>  (27) 
["V-B:GLU:543:CD:9880, V-B:TYR:539:CE2:9848, V-B:TYR:539:CD2:9846, V-B:PRO:540:CB:9857, V-B:PRO:540:N:9856, V-B:TYR:539:C:9839, V-B:PRO:540:C:9853, V-B:PRO:540:CA:9855, V-A:ASP:366:CG:3213, V-B:GLU:543:C:9874, V-B:GLU:543:CB:9878, H-A:LYS:547:NZ:4951, V-B:HIS:456:CE1:9040, H-B:LYS:547:NZ:9923, V-A:HIS:456:CE1:4069, V-A:HIS:456:CG:4066, V-A:HIS:456:CD2:4068, H-A:GLY:454:N:4050, V-B:GLU:543:CG:9879, V-A:ILE:369:CD1:3239, V-A:GLY:453:C:4042, H-A:TYR:484:OH:4348, V-A:GLY:454:CA:4049, V-A:ARG:545:CZ:4926, V-A:GLY:453:CA:4044, H-B:GLU:543:O:9875, V-B:LYS:547:CD:9921"]

$$$$
3ad_Grossjean_2025
     RDKit          3D

 29 31  0  0  0  0  0  0  0  0999 V2000
  133.6050  130.3090   57.5010 N   0  0  0  0  0  0  0  0  0  0  0  0
  132.6220  130.7570   57.9170 C   0  0  0  0  0  0  0  0  0  0  0  0
  131.3760  131.3250   58.4410 C   0  0  0  0  0  0  0  0  0  0  0  0
  130.5030  132.0560   57.5990 C   0  0  0  0  0  0  0  0  0  0  0  0
  130.7750  132.2620   56.0970 C   0  0  0  0  0  0  0  0  0  0  0  0
  131.8940  132.9490   55.8610 F   0  0  0  0  0  0  0  0  0  0  0  0
  130.8940  131.0790   55.4900 F   0  0  0  0  0  0  0  0  0  0  0  0
  129.7680  132.9350   55.5370 F   0  0  0  0  0  0  0  0  0  0  0  0
  129.3470  132.6190   58.1600 C   0  0  0  0  0  0  0  0  0  0  0  0
  129.0710  132.4590   59.5220 C   0  0  0  0  0  0  0  0  0  0  0  0
  127.8580  133.0520   60.1760 C   0  0  0  0  0  0  0  0  0  0  0  0
  126.5910  132.4790   59.9890 C   0  0  0  0  0  0  0  0  0  0  0  0
  125.4610  133.0230   60.5940 C   0  0  0  0  0  0  0  0  0  0  0  0
  125.5850  134.1530   61.3970 C   0  0  0  0  0  0  0  0  0  0  0  0
  126.8300  134.7380   61.6000 C   0  0  0  0  0  0  0  0  0  0  0  0
  127.9580  134.1900   60.9940 C   0  0  0  0  0  0  0  0  0  0  0  0
  129.9140  131.7630   60.3260 N   0  0  0  0  0  0  0  0  0  0  0  0
  131.0260  131.1930   59.8040 C   0  0  0  0  0  0  0  0  0  0  0  0
  132.0040  130.3110   60.9990 S   0  0  0  0  0  0  0  0  0  0  0  0
  131.2650  128.6610   61.1880 C   0  0  0  0  0  0  0  0  0  0  0  0
  129.7840  128.7310   61.5660 C   0  0  0  0  0  0  0  0  0  0  0  0
  129.0620  127.7590   61.3410 O   0  0  0  0  0  0  0  0  0  0  0  0
  129.3850  129.8900   62.1310 N   0  0  0  0  0  0  0  0  0  0  0  0
  128.1150  130.2730   62.6010 C   0  0  0  0  0  0  0  0  0  0  0  0
  128.0880  131.4070   63.4180 C   0  0  0  0  0  0  0  0  0  0  0  0
  126.8820  131.8700   63.9400 C   0  0  0  0  0  0  0  0  0  0  0  0
  125.7010  131.1950   63.6490 C   0  0  0  0  0  0  0  0  0  0  0  0
  125.7140  130.0600   62.8430 C   0  0  0  0  0  0  0  0  0  0  0  0
  126.9170  129.5930   62.3190 C   0  0  0  0  0  0  0  0  0  0  0  0
  1  2  3  0
  2  3  1  0
  3  4  2  0
  4  5  1  0
  5  6  1  0
  5  7  1  0
  5  8  1  0
  4  9  1  0
  9 10  2  0
 10 11  1  0
 11 12  2  0
 12 13  1  0
 13 14  2  0
 14 15  1  0
 15 16  2  0
 10 17  1  0
 17 18  2  0
 18 19  1  0
 19 20  1  0
 20 21  1  0
 21 22  2  0
 21 23  1  0
 23 24  1  0
 24 25  2  0
 25 26  1  0
 26 27  2  0
 27 28  1  0
 28 29  2  0
 18  3  1  0
 29 24  1  0
 16 11  1  0
M  END
>  <Binding energies>  (28) 
[-6.71]

>  <Ligand effiencies>  (28) 
[-0.22366666666666665]

>  <Interactions>  (28) 
["V-A:PRO:540:CD:4887, V-A:PRO:540:N:4884, V-A:TYR:539:C:4867, V-A:PRO:540:CG:4886, V-A:ILE:538:CA:4860, V-A:LEU:363:CD1:3189, V-A:GLU:543:CD:4908, V-A:TYR:539:CE2:4876, V-A:PRO:540:CB:4885, V-A:PRO:540:CA:4883, V-A:TYR:539:CD2:4874, V-A:ILE:538:CG2:4863, V-B:LEU:475:CD1:9229, V-A:ALA:541:CB:4892, H-A:ARG:545:NH2:4928, H-A:GLU:543:OE1:4909, V-A:TYR:539:CE1:4875, V-A:TYR:539:CD1:4873, V-A:TYR:539:CG:4872, V-A:TYR:539:CA:4869"]

$$$$
3ai_Grossjean_2025
     RDKit          3D

 28 30  0  0  0  0  0  0  0  0999 V2000
  130.0710  124.3790   68.3960 N   0  0  0  0  0  0  0  0  0  0  0  0
  129.4410  125.1740   67.8380 C   0  0  0  0  0  0  0  0  0  0  0  0
  128.6440  126.1800   67.1290 C   0  0  0  0  0  0  0  0  0  0  0  0
  129.0010  126.5980   65.8240 C   0  0  0  0  0  0  0  0  0  0  0  0
  130.1980  126.0040   65.0580 C   0  0  0  0  0  0  0  0  0  0  0  0
  130.4390  126.6310   63.9050 F   0  0  0  0  0  0  0  0  0  0  0  0
  131.3030  126.0920   65.8020 F   0  0  0  0  0  0  0  0  0  0  0  0
  129.9700  124.7210   64.7730 F   0  0  0  0  0  0  0  0  0  0  0  0
  128.2340  127.5990   65.2080 C   0  0  0  0  0  0  0  0  0  0  0  0
  127.1440  128.1670   65.8750 C   0  0  0  0  0  0  0  0  0  0  0  0
  126.2980  129.2460   65.2690 C   0  0  0  0  0  0  0  0  0  0  0  0
  124.9300  129.3380   65.5720 C   0  0  0  0  0  0  0  0  0  0  0  0
  124.1380  130.3390   65.0170 C   0  0  0  0  0  0  0  0  0  0  0  0
  124.7070  131.2670   64.1500 C   0  0  0  0  0  0  0  0  0  0  0  0
  126.0600  131.2000   63.8360 C   0  0  0  0  0  0  0  0  0  0  0  0
  126.8480  130.1970   64.3930 C   0  0  0  0  0  0  0  0  0  0  0  0
  126.8110  127.7690   67.1300 N   0  0  0  0  0  0  0  0  0  0  0  0
  127.5220  126.7880   67.7360 C   0  0  0  0  0  0  0  0  0  0  0  0
  126.9260  126.3840   69.3650 S   0  0  0  0  0  0  0  0  0  0  0  0
  128.1990  126.8940   70.5690 C   0  0  0  0  0  0  0  0  0  0  0  0
  128.6700  125.7860   71.5220 C   0  0  0  0  0  0  0  0  0  0  0  0
  128.6820  125.9660   72.7420 O   0  0  0  0  0  0  0  0  0  0  0  0
  129.0570  124.6430   70.9120 N   0  0  0  0  0  0  0  0  0  0  0  0
  129.5200  123.4810   71.5160 C   0  0  0  0  0  0  0  0  0  0  0  0
  130.7410  123.4050   72.1850 C   0  0  0  0  0  0  0  0  0  0  0  0
  130.8260  122.1060   72.6280 C   0  0  0  0  0  0  0  0  0  0  0  0
  129.7140  121.4340   72.2480 O   0  0  0  0  0  0  0  0  0  0  0  0
  128.8930  122.3170   71.5440 N   0  0  0  0  0  0  0  0  0  0  0  0
  1  2  3  0
  2  3  1  0
  3  4  2  0
  4  5  1  0
  5  6  1  0
  5  7  1  0
  5  8  1  0
  4  9  1  0
  9 10  2  0
 10 11  1  0
 11 12  2  0
 12 13  1  0
 13 14  2  0
 14 15  1  0
 15 16  2  0
 10 17  1  0
 17 18  2  0
 18 19  1  0
 19 20  1  0
 20 21  1  0
 21 22  2  0
 21 23  1  0
 23 24  1  0
 24 25  1  0
 25 26  2  0
 26 27  1  0
 27 28  1  0
 18  3  1  0
 28 24  2  0
 16 11  1  0
M  END
>  <Binding energies>  (29) 
[-7.98]

>  <Ligand effiencies>  (29) 
[-0.2751724137931035]

>  <Interactions>  (29) 
["V-B:GLU:543:CD:9880, V-A:GLU:543:CD:4908, V-B:LEU:475:CD1:9229, V-B:GLU:543:C:9874, V-B:GLU:543:CB:9878, V-B:HIS:456:CE1:9040, H-B:LYS:547:NZ:9923, V-A:HIS:456:CE1:4069, V-A:HIS:456:CG:4066, V-A:HIS:456:CD2:4068, V-A:ASP:473:CB:4239, V-A:HIS:456:CB:4065, H-A:HIS:456:NE2:4070, V-B:ARG:545:CD:9895, V-B:ARG:545:CZ:9898, V-B:GLU:543:CG:9879, V-B:GLY:454:CA:9020, V-A:TYR:484:CE1:4345, V-A:TYR:484:CZ:4347, H-A:TYR:484:OH:4348, H-B:GLU:543:O:9875, V-A:TYR:484:CD2:4344, V-A:TYR:484:CG:4342, V-A:TYR:484:CE2:4346, V-A:TYR:484:CB:4341, V-A:TYR:484:CD1:4343, H-B:ARG:545:N:9892"]

$$$$
3aj_Grossjean_2025
     RDKit          3D

 28 30  0  0  0  0  0  0  0  0999 V2000
  127.9830  127.8540   63.3500 N   0  0  0  0  0  0  0  0  0  0  0  0
  128.2530  127.4650   64.4050 C   0  0  0  0  0  0  0  0  0  0  0  0
  128.5960  126.9700   65.7420 C   0  0  0  0  0  0  0  0  0  0  0  0
  129.3270  125.7680   65.9030 C   0  0  0  0  0  0  0  0  0  0  0  0
  129.8380  124.9390   64.7080 C   0  0  0  0  0  0  0  0  0  0  0  0
  128.9100  124.7660   63.7640 F   0  0  0  0  0  0  0  0  0  0  0  0
  130.8800  125.5480   64.1420 F   0  0  0  0  0  0  0  0  0  0  0  0
  130.2160  123.7290   65.1210 F   0  0  0  0  0  0  0  0  0  0  0  0
  129.5890  125.3120   67.2040 C   0  0  0  0  0  0  0  0  0  0  0  0
  129.1320  126.0340   68.3120 C   0  0  0  0  0  0  0  0  0  0  0  0
  129.3760  125.5870   69.7210 C   0  0  0  0  0  0  0  0  0  0  0  0
  130.0200  124.3690   69.9850 C   0  0  0  0  0  0  0  0  0  0  0  0
  130.2530  123.9500   71.2930 C   0  0  0  0  0  0  0  0  0  0  0  0
  129.8420  124.7470   72.3570 C   0  0  0  0  0  0  0  0  0  0  0  0
  129.2030  125.9600   72.1210 C   0  0  0  0  0  0  0  0  0  0  0  0
  128.9740  126.3750   70.8130 C   0  0  0  0  0  0  0  0  0  0  0  0
  128.4260  127.1820   68.1520 N   0  0  0  0  0  0  0  0  0  0  0  0
  128.1800  127.6550   66.9070 C   0  0  0  0  0  0  0  0  0  0  0  0
  127.2630  129.1800   66.8950 S   0  0  0  0  0  0  0  0  0  0  0  0
  125.4900  128.7650   66.7720 C   0  0  0  0  0  0  0  0  0  0  0  0
  124.7120  129.5460   65.7020 C   0  0  0  0  0  0  0  0  0  0  0  0
  123.7680  130.2740   66.0140 O   0  0  0  0  0  0  0  0  0  0  0  0
  125.1530  129.3610   64.4370 N   0  0  0  0  0  0  0  0  0  0  0  0
  124.6400  129.9470   63.2870 C   0  0  0  0  0  0  0  0  0  0  0  0
  123.5680  130.7010   63.1740 N   0  0  0  0  0  0  0  0  0  0  0  0
  123.3780  131.0910   61.9290 C   0  0  0  0  0  0  0  0  0  0  0  0
  124.3130  130.6490   60.9960 C   0  0  0  0  0  0  0  0  0  0  0  0
  125.4980  129.6690   61.8050 S   0  0  0  0  0  0  0  0  0  0  0  0
  1  2  3  0
  2  3  1  0
  3  4  2  0
  4  5  1  0
  5  6  1  0
  5  7  1  0
  5  8  1  0
  4  9  1  0
  9 10  2  0
 10 11  1  0
 11 12  2  0
 12 13  1  0
 13 14  2  0
 14 15  1  0
 15 16  2  0
 10 17  1  0
 17 18  2  0
 18 19  1  0
 19 20  1  0
 20 21  1  0
 21 22  2  0
 21 23  1  0
 23 24  1  0
 24 25  2  0
 25 26  1  0
 26 27  2  0
 27 28  1  0
 18  3  1  0
 28 24  1  0
 16 11  1  0
M  END
>  <Binding energies>  (30) 
[-7.12]

>  <Ligand effiencies>  (30) 
[-0.24551724137931036]

>  <Interactions>  (30) 
["V-B:GLU:543:CD:9880, V-B:ASP:366:CG:8184, V-B:GLU:543:CB:9878, V-B:HIS:456:CE1:9040, V-B:ARG:545:CG:9894, V-A:HIS:456:CE1:4069, V-A:HIS:456:CG:4066, V-A:HIS:456:CD2:4068, H-B:GLU:543:OE1:9881, H-B:TYR:484:OH:9319, H-B:GLY:454:N:9021, V-B:ILE:369:CD1:8210, V-B:ARG:545:CD:9895, V-B:ARG:545:CZ:9898, V-B:GLU:543:CG:9879, V-A:TYR:484:CE1:4345, H-B:ARG:545:NH2:9900, H-B:ILE:455:N:9026, V-A:TYR:484:CZ:4347, V-A:TYR:484:CE2:4346, V-A:TYR:484:CD1:4343"]

$$$$
3ak_Grossjean_2025
     RDKit          3D

 33 34  0  0  0  0  0  0  0  0999 V2000
  124.4650  125.0390   57.2380 C   0  0  0  0  0  0  0  0  0  0  0  0
  125.0410  124.6970   55.9870 O   0  0  0  0  0  0  0  0  0  0  0  0
  125.2740  123.3040   55.8340 C   0  0  0  0  0  0  0  0  0  0  0  0
  126.7860  123.0460   55.8500 C   0  0  0  0  0  0  0  0  0  0  0  0
  127.0720  122.0300   56.8070 O   0  0  0  0  0  0  0  0  0  0  0  0
  127.7470  122.4670   57.9830 C   0  0  0  0  0  0  0  0  0  0  0  0
  126.8050  123.0120   59.0720 C   0  0  0  0  0  0  0  0  0  0  0  0
  127.2410  122.5480   60.3430 O   0  0  0  0  0  0  0  0  0  0  0  0
  128.6420  122.6700   60.5500 C   0  0  0  0  0  0  0  0  0  0  0  0
  129.0070  122.2390   61.9820 C   0  0  0  0  0  0  0  0  0  0  0  0
  129.4140  123.3510   62.8430 N   0  0  0  0  0  0  0  0  0  0  0  0
  129.6660  123.2770   64.1640 C   0  0  0  0  0  0  0  0  0  0  0  0
  129.5930  122.2240   64.7980 O   0  0  0  0  0  0  0  0  0  0  0  0
  130.0620  124.5590   64.9160 C   0  0  0  0  0  0  0  0  0  0  0  0
  130.5480  125.9940   63.8860 S   0  0  0  0  0  0  0  0  0  0  0  0
  131.4340  125.3980   62.4550 C   0  0  0  0  0  0  0  0  0  0  0  0
  130.8220  125.5950   61.2620 N   0  0  0  0  0  0  0  0  0  0  0  0
  131.4140  125.1710   60.1170 C   0  0  0  0  0  0  0  0  0  0  0  0
  130.6670  125.4300   58.8430 C   0  0  0  0  0  0  0  0  0  0  0  0
  129.2630  125.4260   58.8200 C   0  0  0  0  0  0  0  0  0  0  0  0
  128.5640  125.6700   57.6410 C   0  0  0  0  0  0  0  0  0  0  0  0
  129.2610  125.9240   56.4650 C   0  0  0  0  0  0  0  0  0  0  0  0
  130.6510  125.9370   56.4600 C   0  0  0  0  0  0  0  0  0  0  0  0
  131.3480  125.6930   57.6410 C   0  0  0  0  0  0  0  0  0  0  0  0
  132.6640  124.5440   60.1460 C   0  0  0  0  0  0  0  0  0  0  0  0
  133.3210  124.3290   61.3660 C   0  0  0  0  0  0  0  0  0  0  0  0
  134.6960  123.6330   61.3590 C   0  0  0  0  0  0  0  0  0  0  0  0
  134.5990  122.4240   61.9120 F   0  0  0  0  0  0  0  0  0  0  0  0
  135.1340  123.5010   60.1060 F   0  0  0  0  0  0  0  0  0  0  0  0
  135.6240  124.3120   62.0370 F   0  0  0  0  0  0  0  0  0  0  0  0
  132.6920  124.7650   62.5580 C   0  0  0  0  0  0  0  0  0  0  0  0
  133.3320  124.5670   63.8630 C   0  0  0  0  0  0  0  0  0  0  0  0
  133.8360  124.4100   64.8940 N   0  0  0  0  0  0  0  0  0  0  0  0
  1  2  1  0
  2  3  1  0
  3  4  1  0
  4  5  1  0
  5  6  1  0
  6  7  1  0
  7  8  1  0
  8  9  1  0
  9 10  1  0
 10 11  1  0
 11 12  1  0
 12 13  2  0
 12 14  1  0
 14 15  1  0
 15 16  1  0
 16 17  2  0
 17 18  1  0
 18 19  1  0
 19 20  2  0
 20 21  1  0
 21 22  2  0
 22 23  1  0
 23 24  2  0
 18 25  2  0
 25 26  1  0
 26 27  1  0
 27 28  1  0
 27 29  1  0
 27 30  1  0
 26 31  2  0
 31 32  1  0
 32 33  3  0
 31 16  1  0
 24 19  1  0
M  END
>  <Binding energies>  (31) 
[-5.53]

>  <Ligand effiencies>  (31) 
[-0.16264705882352942]

>  <Interactions>  (31) 
["V-B:ILE:538:CB:9834, V-B:ALA:541:CB:9864, V-B:TYR:539:CE2:9848, V-B:TYR:539:CD2:9846, H-B:ALA:541:N:9863, V-B:PRO:540:CB:9857, V-B:PRO:540:N:9856, V-B:TYR:539:C:9839, V-B:LEU:363:CD1:8160, V-B:PRO:540:CA:9855, V-B:TYR:539:CZ:9849, V-A:ASP:366:CG:3213, V-B:ILE:538:CG2:9835, V-B:TYR:539:CG:9844, H-B:TYR:539:N:9842, H-A:GLY:454:N:4050, V-B:GLU:543:CG:9879, V-A:ILE:369:CD1:3239, V-A:ILE:369:CG2:3237, V-A:ILE:369:CB:3236, V-A:GLY:453:C:4042, H-A:TYR:484:OH:4348, V-A:GLY:454:CA:4049, V-A:ASP:366:CA:3210, V-A:ARG:545:CZ:4926, V-A:GLY:453:CA:4044, H-B:TYR:531:OH:9767, V-A:ILE:369:CG1:3238"]

$$$$
3bk_Grossjean_2025
     RDKit          3D

 30 31  0  0  0  0  0  0  0  0999 V2000
  132.9000  124.9160   64.8520 C   0  0  0  0  0  0  0  0  0  0  0  0
  134.2050  124.7330   64.3260 O   0  0  0  0  0  0  0  0  0  0  0  0
  134.2430  124.6960   62.9060 C   0  0  0  0  0  0  0  0  0  0  0  0
  133.0950  123.8210   62.3830 C   0  0  0  0  0  0  0  0  0  0  0  0
  133.5480  123.0650   61.2690 O   0  0  0  0  0  0  0  0  0  0  0  0
  133.2920  123.6820   60.0140 C   0  0  0  0  0  0  0  0  0  0  0  0
  131.7880  123.6170   59.7150 C   0  0  0  0  0  0  0  0  0  0  0  0
  131.5370  124.1810   58.4350 O   0  0  0  0  0  0  0  0  0  0  0  0
  131.2500  125.5730   58.4670 C   0  0  0  0  0  0  0  0  0  0  0  0
  129.8140  125.8100   57.9750 C   0  0  0  0  0  0  0  0  0  0  0  0
  129.4410  124.9020   56.8880 N   0  0  0  0  0  0  0  0  0  0  0  0
  128.4570  125.1140   55.9980 C   0  0  0  0  0  0  0  0  0  0  0  0
  127.7540  126.1260   55.9840 O   0  0  0  0  0  0  0  0  0  0  0  0
  128.2460  124.0270   54.9420 C   0  0  0  0  0  0  0  0  0  0  0  0
  127.5510  122.5050   55.6610 S   0  0  0  0  0  0  0  0  0  0  0  0
  127.0460  122.8340   57.3410 C   0  0  0  0  0  0  0  0  0  0  0  0
  127.9090  122.4340   58.3100 N   0  0  0  0  0  0  0  0  0  0  0  0
  127.6060  122.6410   59.6180 C   0  0  0  0  0  0  0  0  0  0  0  0
  128.6240  122.1890   60.6220 C   0  0  0  0  0  0  0  0  0  0  0  0
  129.3410  120.9970   60.4290 C   0  0  0  0  0  0  0  0  0  0  0  0
  130.2840  120.5690   61.3610 C   0  0  0  0  0  0  0  0  0  0  0  0
  130.5230  121.3300   62.5000 C   0  0  0  0  0  0  0  0  0  0  0  0
  129.8290  122.5170   62.7130 C   0  0  0  0  0  0  0  0  0  0  0  0
  128.8890  122.9420   61.7790 C   0  0  0  0  0  0  0  0  0  0  0  0
  126.4120  123.2700   59.9880 C   0  0  0  0  0  0  0  0  0  0  0  0
  125.5090  123.6870   59.0030 C   0  0  0  0  0  0  0  0  0  0  0  0
  124.2170  124.3680   59.4490 C   0  0  0  0  0  0  0  0  0  0  0  0
  125.8220  123.4690   57.6440 C   0  0  0  0  0  0  0  0  0  0  0  0
  124.8980  123.8980   56.5910 C   0  0  0  0  0  0  0  0  0  0  0  0
  124.1670  124.2360   55.7590 N   0  0  0  0  0  0  0  0  0  0  0  0
  1  2  1  0
  2  3  1  0
  3  4  1  0
  4  5  1  0
  5  6  1  0
  6  7  1  0
  7  8  1  0
  8  9  1  0
  9 10  1  0
 10 11  1  0
 11 12  1  0
 12 13  2  0
 12 14  1  0
 14 15  1  0
 15 16  1  0
 16 17  2  0
 17 18  1  0
 18 19  1  0
 19 20  2  0
 20 21  1  0
 21 22  2  0
 22 23  1  0
 23 24  2  0
 18 25  2  0
 25 26  1  0
 26 27  1  0
 26 28  2  0
 28 29  1  0
 29 30  3  0
 28 16  1  0
 24 19  1  0
M  END
>  <Binding energies>  (32) 
[-6.7]

>  <Ligand effiencies>  (32) 
[-0.2161290322580645]

>  <Interactions>  (32) 
["V-B:ALA:541:CB:9864, V-B:TYR:539:CE2:9848, V-B:TYR:539:CD2:9846, V-B:PRO:540:CB:9857, V-B:PRO:540:N:9856, V-B:TYR:539:C:9839, V-B:LEU:363:CD1:8160, V-B:ASP:366:CG:8184, V-B:PRO:540:CA:9855, V-B:TYR:539:CZ:9849, V-A:LEU:475:CD1:4258, V-A:ASP:366:CG:3213, H-B:TYR:539:OH:9850, H-B:TYR:539:N:9842, H-A:GLY:454:N:4050, V-A:GLY:453:C:4042, H-A:ARG:545:NH2:4928, H-A:ARG:545:NE:4924, V-A:ARG:545:CZ:4926, V-A:GLY:453:CA:4044, H-B:TYR:531:OH:9767, V-B:TYR:539:CE1:9847"]

$$$$
3cb_Grossjean_2025
     RDKit          3D

 30 32  0  0  0  0  0  0  0  0999 V2000
  132.1400  126.2060   74.3840 C   0  0  0  0  0  0  0  0  0  0  0  0
  130.8920  126.8830   74.4150 O   0  0  0  0  0  0  0  0  0  0  0  0
  129.7420  126.2490   74.0710 C   0  0  0  0  0  0  0  0  0  0  0  0
  128.9190  125.8390   74.8940 O   0  0  0  0  0  0  0  0  0  0  0  0
  129.5730  126.0920   72.5860 C   0  0  0  0  0  0  0  0  0  0  0  0
  129.1450  127.1510   71.7710 C   0  0  0  0  0  0  0  0  0  0  0  0
  129.0010  126.9730   70.3980 C   0  0  0  0  0  0  0  0  0  0  0  0
  129.2740  125.7380   69.8110 C   0  0  0  0  0  0  0  0  0  0  0  0
  129.0980  125.6710   68.4150 N   0  0  0  0  0  0  0  0  0  0  0  0
  129.4050  126.5720   67.4570 C   0  0  0  0  0  0  0  0  0  0  0  0
  129.9400  127.6630   67.6600 O   0  0  0  0  0  0  0  0  0  0  0  0
  129.0480  126.1310   66.0290 C   0  0  0  0  0  0  0  0  0  0  0  0
  129.5460  124.4270   65.6030 S   0  0  0  0  0  0  0  0  0  0  0  0
  131.0860  124.5170   64.7130 C   0  0  0  0  0  0  0  0  0  0  0  0
  132.1540  124.7720   65.5080 N   0  0  0  0  0  0  0  0  0  0  0  0
  133.3770  124.8620   64.9410 C   0  0  0  0  0  0  0  0  0  0  0  0
  134.5270  125.1370   65.8920 C   0  0  0  0  0  0  0  0  0  0  0  0
  133.5830  124.7090   63.5730 C   0  0  0  0  0  0  0  0  0  0  0  0
  132.4920  124.4610   62.7300 C   0  0  0  0  0  0  0  0  0  0  0  0
  132.7640  124.3100   61.2680 C   0  0  0  0  0  0  0  0  0  0  0  0
  132.0920  125.1160   60.3400 C   0  0  0  0  0  0  0  0  0  0  0  0
  132.3470  124.9900   58.9760 C   0  0  0  0  0  0  0  0  0  0  0  0
  133.2800  124.0570   58.5340 C   0  0  0  0  0  0  0  0  0  0  0  0
  133.9620  123.2530   59.4420 C   0  0  0  0  0  0  0  0  0  0  0  0
  133.7070  123.3820   60.8050 C   0  0  0  0  0  0  0  0  0  0  0  0
  131.1990  124.3770   63.3080 C   0  0  0  0  0  0  0  0  0  0  0  0
  130.0120  124.2120   62.4630 C   0  0  0  0  0  0  0  0  0  0  0  0
  129.0750  124.0810   61.7970 N   0  0  0  0  0  0  0  0  0  0  0  0
  129.7060  124.6750   70.6190 C   0  0  0  0  0  0  0  0  0  0  0  0
  129.8510  124.8540   71.9920 C   0  0  0  0  0  0  0  0  0  0  0  0
  1  2  1  0
  2  3  1  0
  3  4  2  0
  3  5  1  0
  5  6  2  0
  6  7  1  0
  7  8  2  0
  8  9  1  0
  9 10  1  0
 10 11  2  0
 10 12  1  0
 12 13  1  0
 13 14  1  0
 14 15  2  0
 15 16  1  0
 16 17  1  0
 16 18  2  0
 18 19  1  0
 19 20  1  0
 20 21  2  0
 21 22  1  0
 22 23  2  0
 23 24  1  0
 24 25  2  0
 19 26  2  0
 26 27  1  0
 27 28  3  0
  8 29  1  0
 29 30  2  0
 30  5  1  0
 26 14  1  0
 25 20  1  0
M  END
>  <Binding energies>  (33) 
[-8.17]

>  <Ligand effiencies>  (33) 
[-0.2635483870967742]

>  <Interactions>  (33) 
["V-B:TYR:539:CE2:9848, V-A:ASP:366:CB:3212, V-A:ASP:366:CG:3213, V-B:GLU:543:C:9874, V-B:GLU:543:CB:9878, H-A:LYS:547:NZ:4951, V-B:HIS:456:CE1:9040, H-B:LYS:547:NZ:9923, V-A:HIS:456:CE1:4069, V-A:HIS:456:CG:4066, V-A:HIS:456:CD2:4068, V-A:HIS:456:CB:4065, H-A:HIS:456:NE2:4070, V-B:GLU:543:CG:9879, V-A:ILE:369:CD1:3239, V-A:ILE:369:CG2:3237, V-A:ILE:369:CB:3236, V-A:GLY:453:C:4042, H-A:TYR:484:OH:4348, V-A:ASP:366:CA:3210, V-A:ARG:545:CZ:4926, V-A:GLY:453:CA:4044, V-A:ARG:545:CD:4923, H-B:GLU:543:O:9875, V-A:LYS:547:CD:4949, V-A:ARG:545:CG:4922"]

$$$$
3ch_Grossjean_2025
     RDKit          3D

 32 34  0  0  0  0  0  0  0  0999 V2000
  123.0700  124.3250   59.5330 C   0  0  0  0  0  0  0  0  0  0  0  0
  123.7550  123.9450   58.3440 O   0  0  0  0  0  0  0  0  0  0  0  0
  125.1060  123.6550   58.3980 C   0  0  0  0  0  0  0  0  0  0  0  0
  125.9270  123.9380   59.5020 C   0  0  0  0  0  0  0  0  0  0  0  0
  127.2890  123.6060   59.4890 C   0  0  0  0  0  0  0  0  0  0  0  0
  128.1870  123.8450   60.5470 N   0  0  0  0  0  0  0  0  0  0  0  0
  128.2100  123.3230   61.7940 C   0  0  0  0  0  0  0  0  0  0  0  0
  127.4130  122.4960   62.2360 O   0  0  0  0  0  0  0  0  0  0  0  0
  129.3600  123.7930   62.6840 C   0  0  0  0  0  0  0  0  0  0  0  0
  129.8930  125.4830   62.2810 S   0  0  0  0  0  0  0  0  0  0  0  0
  129.0730  126.5500   63.4460 C   0  0  0  0  0  0  0  0  0  0  0  0
  128.4360  127.6010   62.8740 N   0  0  0  0  0  0  0  0  0  0  0  0
  127.7870  128.4770   63.6740 C   0  0  0  0  0  0  0  0  0  0  0  0
  127.1010  129.6320   62.9700 C   0  0  0  0  0  0  0  0  0  0  0  0
  127.7510  128.3430   65.0600 C   0  0  0  0  0  0  0  0  0  0  0  0
  128.3970  127.2580   65.6700 C   0  0  0  0  0  0  0  0  0  0  0  0
  128.3400  127.1600   67.1600 C   0  0  0  0  0  0  0  0  0  0  0  0
  127.2250  126.5880   67.7840 C   0  0  0  0  0  0  0  0  0  0  0  0
  127.1600  126.5010   69.1730 C   0  0  0  0  0  0  0  0  0  0  0  0
  128.2120  126.9910   69.9440 C   0  0  0  0  0  0  0  0  0  0  0  0
  129.3240  127.5690   69.3380 C   0  0  0  0  0  0  0  0  0  0  0  0
  129.3840  127.6550   67.9500 C   0  0  0  0  0  0  0  0  0  0  0  0
  129.0650  126.3200   64.8420 C   0  0  0  0  0  0  0  0  0  0  0  0
  129.6770  125.1180   65.4160 C   0  0  0  0  0  0  0  0  0  0  0  0
  130.1620  124.1700   65.8690 N   0  0  0  0  0  0  0  0  0  0  0  0
  127.8320  123.0060   58.3520 C   0  0  0  0  0  0  0  0  0  0  0  0
  127.0330  122.7160   57.2350 C   0  0  0  0  0  0  0  0  0  0  0  0
  127.5070  122.1150   56.0810 O   0  0  0  0  0  0  0  0  0  0  0  0
  127.5490  122.8620   54.8700 C   0  0  0  0  0  0  0  0  0  0  0  0
  125.6730  123.0480   57.2700 C   0  0  0  0  0  0  0  0  0  0  0  0
  124.8760  122.7520   56.1890 O   0  0  0  0  0  0  0  0  0  0  0  0
  124.5230  123.8830   55.4030 C   0  0  0  0  0  0  0  0  0  0  0  0
  1  2  1  0
  2  3  1  0
  3  4  2  0
  4  5  1  0
  5  6  1  0
  6  7  1  0
  7  8  2  0
  7  9  1  0
  9 10  1  0
 10 11  1  0
 11 12  2  0
 12 13  1  0
 13 14  1  0
 13 15  2  0
 15 16  1  0
 16 17  1  0
 17 18  2  0
 18 19  1  0
 19 20  2  0
 20 21  1  0
 21 22  2  0
 16 23  2  0
 23 24  1  0
 24 25  3  0
  5 26  2  0
 26 27  1  0
 27 28  1  0
 28 29  1  0
 27 30  2  0
 30 31  1  0
 31 32  1  0
 30  3  1  0
 23 11  1  0
 22 17  1  0
M  END
>  <Binding energies>  (34) 
[-7.79]

>  <Ligand effiencies>  (34) 
[-0.23606060606060605]

>  <Interactions>  (34) 
["V-B:PRO:540:CD:9859, V-B:LEU:363:CA:8156, V-B:GLU:543:CD:9880, V-B:ILE:538:CB:9834, V-B:ALA:541:CB:9864, V-B:TYR:539:CE2:9848, V-B:TYR:539:CD2:9846, H-B:ALA:541:N:9863, V-B:PRO:540:CB:9857, V-B:PRO:540:N:9856, V-B:TYR:539:C:9839, V-B:LEU:363:CD1:8160, V-B:ASP:366:CG:8184, V-B:PRO:540:CA:9855, V-B:TYR:539:CZ:9849, V-B:ASN:362:C:8143, V-B:ILE:538:CG2:9835, V-B:TYR:531:CE2:9765, H-B:TYR:539:N:9842, V-B:GLU:543:C:9874, V-B:GLU:543:CB:9878, V-B:GLY:544:C:9884, V-B:HIS:456:CE1:9040, V-A:HIS:456:CE1:4069, V-B:GLU:543:CG:9879, H-A:TYR:484:OH:4348, V-B:ILE:538:CA:9832, V-B:TYR:539:CE1:9847, V-B:TYR:539:CD1:9845, V-B:LEU:363:CB:8158"]

$$$$
3ci_Grossjean_2025
     RDKit          3D

 25 27  0  0  0  0  0  0  0  0999 V2000
  128.0230  133.2180   61.1710 C   0  0  0  0  0  0  0  0  0  0  0  0
  127.9480  132.5250   59.8240 C   0  0  0  0  0  0  0  0  0  0  0  0
  129.0120  132.5540   58.9270 C   0  0  0  0  0  0  0  0  0  0  0  0
  128.9010  131.8850   57.7000 C   0  0  0  0  0  0  0  0  0  0  0  0
  130.0730  131.9300   56.7750 C   0  0  0  0  0  0  0  0  0  0  0  0
  131.3020  131.3690   57.1480 C   0  0  0  0  0  0  0  0  0  0  0  0
  132.3940  131.4210   56.2860 C   0  0  0  0  0  0  0  0  0  0  0  0
  132.2640  132.0420   55.0470 C   0  0  0  0  0  0  0  0  0  0  0  0
  131.0520  132.6120   54.6650 C   0  0  0  0  0  0  0  0  0  0  0  0
  129.9620  132.5580   55.5290 C   0  0  0  0  0  0  0  0  0  0  0  0
  127.6900  131.2060   57.4090 C   0  0  0  0  0  0  0  0  0  0  0  0
  127.5000  130.5250   56.1240 C   0  0  0  0  0  0  0  0  0  0  0  0
  127.3520  129.9880   55.1090 N   0  0  0  0  0  0  0  0  0  0  0  0
  126.6600  131.2230   58.3800 C   0  0  0  0  0  0  0  0  0  0  0  0
  125.1020  130.3820   58.1280 S   0  0  0  0  0  0  0  0  0  0  0  0
  123.7510  131.3780   58.8410 C   0  0  0  0  0  0  0  0  0  0  0  0
  123.4000  130.9850   60.2800 C   0  0  0  0  0  0  0  0  0  0  0  0
  122.2220  130.7760   60.5770 O   0  0  0  0  0  0  0  0  0  0  0  0
  124.4420  130.9110   61.1390 N   0  0  0  0  0  0  0  0  0  0  0  0
  124.4020  130.5530   62.4790 C   0  0  0  0  0  0  0  0  0  0  0  0
  125.5450  130.2530   63.2200 C   0  0  0  0  0  0  0  0  0  0  0  0
  125.0850  129.9490   64.4810 C   0  0  0  0  0  0  0  0  0  0  0  0
  123.7350  130.0620   64.4980 O   0  0  0  0  0  0  0  0  0  0  0  0
  123.3140  130.4430   63.2230 N   0  0  0  0  0  0  0  0  0  0  0  0
  126.7910  131.8790   59.5610 N   0  0  0  0  0  0  0  0  0  0  0  0
  1  2  1  0
  2  3  2  0
  3  4  1  0
  4  5  1  0
  5  6  2  0
  6  7  1  0
  7  8  2  0
  8  9  1  0
  9 10  2  0
  4 11  2  0
 11 12  1  0
 12 13  3  0
 11 14  1  0
 14 15  1  0
 15 16  1  0
 16 17  1  0
 17 18  2  0
 17 19  1  0
 19 20  1  0
 20 21  1  0
 21 22  2  0
 22 23  1  0
 23 24  1  0
 14 25  2  0
 25  2  1  0
 10  5  1  0
 24 20  2  0
M  END
>  <Binding energies>  (35) 
[-8.06]

>  <Ligand effiencies>  (35) 
[-0.31]

>  <Interactions>  (35) 
["V-B:ASP:366:CG:8184, V-A:PRO:540:N:4884, V-A:TYR:539:C:4867, V-A:TYR:531:CE2:4793, V-A:ILE:538:CD1:4865, V-A:ILE:538:CA:4860, V-A:LEU:363:CD1:3189, V-A:TYR:539:CE2:4876, V-A:PRO:540:CA:4883, V-A:TYR:539:CD2:4874, V-A:ALA:541:CB:4892, V-B:ASP:366:CB:8183, H-B:ARG:545:NE:9896, H-B:GLY:454:N:9021, V-B:ILE:369:CD1:8210, V-B:ILE:369:CG2:8208, V-B:ARG:545:CZ:9898, H-B:ARG:545:NH2:9900, H-B:ARG:545:NH1:9899, V-A:TYR:539:CE1:4875, V-A:TYR:539:CD1:4873, V-A:TYR:539:CZ:4877, H-A:TYR:539:OH:4878, H-B:TYR:531:OH:9767, V-B:ASP:366:CA:8181"]

$$$$
3ck_Grossjean_2025
     RDKit          3D

 30 31  0  0  0  0  0  0  0  0999 V2000
  126.5690  123.2070   55.6420 C   0  0  0  0  0  0  0  0  0  0  0  0
  126.7680  122.1150   56.5270 O   0  0  0  0  0  0  0  0  0  0  0  0
  127.3900  122.4840   57.7500 C   0  0  0  0  0  0  0  0  0  0  0  0
  126.4860  123.4630   58.5110 C   0  0  0  0  0  0  0  0  0  0  0  0
  127.0680  123.7550   59.7750 O   0  0  0  0  0  0  0  0  0  0  0  0
  127.4320  125.1200   59.9400 C   0  0  0  0  0  0  0  0  0  0  0  0
  128.6830  125.2010   60.8230 C   0  0  0  0  0  0  0  0  0  0  0  0
  129.7300  124.4840   60.1840 O   0  0  0  0  0  0  0  0  0  0  0  0
  129.7040  124.5320   58.7660 C   0  0  0  0  0  0  0  0  0  0  0  0
  131.1160  124.8450   58.2350 C   0  0  0  0  0  0  0  0  0  0  0  0
  132.1890  124.4900   59.1680 N   0  0  0  0  0  0  0  0  0  0  0  0
  133.3830  123.9700   58.8290 C   0  0  0  0  0  0  0  0  0  0  0  0
  133.7190  123.7540   57.6630 O   0  0  0  0  0  0  0  0  0  0  0  0
  134.3250  123.6570   60.0030 C   0  0  0  0  0  0  0  0  0  0  0  0
  133.8910  122.1800   60.9840 S   0  0  0  0  0  0  0  0  0  0  0  0
  132.2350  122.3710   61.6280 C   0  0  0  0  0  0  0  0  0  0  0  0
  131.2700  121.6720   60.9790 N   0  0  0  0  0  0  0  0  0  0  0  0
  129.9930  121.7730   61.4090 C   0  0  0  0  0  0  0  0  0  0  0  0
  128.9700  120.9670   60.6330 C   0  0  0  0  0  0  0  0  0  0  0  0
  129.6270  122.5670   62.4930 C   0  0  0  0  0  0  0  0  0  0  0  0
  130.6060  123.3020   63.1750 C   0  0  0  0  0  0  0  0  0  0  0  0
  130.1640  124.1580   64.3170 C   0  0  0  0  0  0  0  0  0  0  0  0
  129.8740  123.5800   65.5580 C   0  0  0  0  0  0  0  0  0  0  0  0
  129.4520  124.3710   66.6250 C   0  0  0  0  0  0  0  0  0  0  0  0
  129.3130  125.7450   66.4500 C   0  0  0  0  0  0  0  0  0  0  0  0
  129.5890  126.3340   65.2190 C   0  0  0  0  0  0  0  0  0  0  0  0
  130.0110  125.5410   64.1550 C   0  0  0  0  0  0  0  0  0  0  0  0
  131.9530  123.1960   62.7410 C   0  0  0  0  0  0  0  0  0  0  0  0
  133.0250  123.9100   63.4430 C   0  0  0  0  0  0  0  0  0  0  0  0
  133.8710  124.4730   63.9970 N   0  0  0  0  0  0  0  0  0  0  0  0
  1  2  1  0
  2  3  1  0
  3  4  1  0
  4  5  1  0
  5  6  1  0
  6  7  1  0
  7  8  1  0
  8  9  1  0
  9 10  1  0
 10 11  1  0
 11 12  1  0
 12 13  2  0
 12 14  1  0
 14 15  1  0
 15 16  1  0
 16 17  2  0
 17 18  1  0
 18 19  1  0
 18 20  2  0
 20 21  1  0
 21 22  1  0
 22 23  2  0
 23 24  1  0
 24 25  2  0
 25 26  1  0
 26 27  2  0
 21 28  2  0
 28 29  1  0
 29 30  3  0
 28 16  1  0
 27 22  1  0
M  END
>  <Binding energies>  (36) 
[-6.42]

>  <Ligand effiencies>  (36) 
[-0.20709677419354838]

>  <Interactions>  (36) 
["V-B:ILE:538:CB:9834, V-B:ALA:541:CB:9864, V-B:TYR:539:CE2:9848, V-B:TYR:539:CD2:9846, V-B:PRO:540:CB:9857, V-B:PRO:540:N:9856, V-B:TYR:539:C:9839, V-B:PRO:540:C:9853, V-B:PRO:540:CA:9855, V-B:TYR:539:CZ:9849, V-B:ALA:541:CA:9862, V-A:ASP:366:CB:3212, V-A:ASP:366:CG:3213, V-A:GLU:543:CD:4908, V-B:ILE:538:CG2:9835, V-B:TYR:539:CG:9844, H-B:TYR:539:OH:9850, H-B:TYR:539:N:9842, V-B:GLU:543:C:9874, V-B:GLU:543:CB:9878, H-A:GLY:454:N:4050, V-B:GLU:543:CG:9879, V-A:TYR:484:CE1:4345, V-B:GLU:543:CA:9876, V-A:ILE:369:CD1:3239, V-A:ILE:369:CG2:3237, V-A:ILE:369:CB:3236, V-A:TYR:484:CZ:4347, V-A:ASP:366:CA:3210, V-B:ILE:538:CA:9832, H-A:ASP:366:OD2:3215"]

$$$$
4aa_Grossjean_2025
     RDKit          3D

 26 28  0  0  0  0  0  0  0  0999 V2000
  125.5280  126.9220   74.5090 C   0  0  0  0  0  0  0  0  0  0  0  0
  126.6080  127.0620   73.4310 C   0  0  0  0  0  0  0  0  0  0  0  0
  127.7120  126.2290   73.7580 O   0  0  0  0  0  0  0  0  0  0  0  0
  128.9640  126.5200   73.3200 C   0  0  0  0  0  0  0  0  0  0  0  0
  129.8190  127.0740   74.0200 O   0  0  0  0  0  0  0  0  0  0  0  0
  129.2070  126.1070   71.8980 C   0  0  0  0  0  0  0  0  0  0  0  0
  129.7560  124.8440   71.6360 C   0  0  0  0  0  0  0  0  0  0  0  0
  129.9980  124.4340   70.3280 C   0  0  0  0  0  0  0  0  0  0  0  0
  129.6870  125.2710   69.2550 C   0  0  0  0  0  0  0  0  0  0  0  0
  129.9800  124.7590   67.9760 N   0  0  0  0  0  0  0  0  0  0  0  0
  129.4860  125.1050   66.7630 C   0  0  0  0  0  0  0  0  0  0  0  0
  128.6100  125.9530   66.5890 O   0  0  0  0  0  0  0  0  0  0  0  0
  130.0490  124.3730   65.6270 C   0  0  0  0  0  0  0  0  0  0  0  0
  129.3740  122.8130   65.1490 S   0  0  0  0  0  0  0  0  0  0  0  0
  130.5540  122.6410   63.8710 C   0  0  0  0  0  0  0  0  0  0  0  0
  130.5760  121.5750   63.0690 N   0  0  0  0  0  0  0  0  0  0  0  0
  131.5450  121.5630   62.1220 C   0  0  0  0  0  0  0  0  0  0  0  0
  131.5560  120.3390   61.2240 C   0  0  0  0  0  0  0  0  0  0  0  0
  132.4800  122.5830   61.9560 C   0  0  0  0  0  0  0  0  0  0  0  0
  132.4530  123.7010   62.7970 C   0  0  0  0  0  0  0  0  0  0  0  0
  133.4930  124.7890   62.5760 C   0  0  0  0  0  0  0  0  0  0  0  0
  131.4540  123.7480   63.8060 C   0  0  0  0  0  0  0  0  0  0  0  0
  131.1460  124.7190   64.8220 C   0  0  0  0  0  0  0  0  0  0  0  0
  131.8700  125.8750   64.9720 N   0  0  0  0  0  0  0  0  0  0  0  0
  129.1420  126.5380   69.5070 C   0  0  0  0  0  0  0  0  0  0  0  0
  128.9040  126.9490   70.8160 C   0  0  0  0  0  0  0  0  0  0  0  0
  1  2  1  0
  2  3  1  0
  3  4  1  0
  4  5  2  0
  4  6  1  0
  6  7  2  0
  7  8  1  0
  8  9  2  0
  9 10  1  0
 10 11  1  0
 11 12  2  0
 11 13  1  0
 13 14  1  0
 14 15  1  0
 15 16  2  0
 16 17  1  0
 17 18  1  0
 17 19  2  0
 19 20  1  0
 20 21  1  0
 20 22  2  0
 22 23  1  0
 23 24  1  0
  9 25  1  0
 25 26  2  0
 26  6  1  0
 23 13  2  0
 22 15  1  0
M  END
>  <Binding energies>  (37) 
[-7.74]

>  <Ligand effiencies>  (37) 
[-0.26689655172413795]

>  <Interactions>  (37) 
["V-B:ALA:541:CB:9864, V-A:LEU:475:CD1:4258, V-A:ASP:366:CG:3213, V-A:GLU:543:CD:4908, V-B:GLU:543:C:9874, V-B:GLU:543:CB:9878, H-A:LYS:547:NZ:4951, V-B:HIS:456:CE1:9040, H-B:LYS:547:NZ:9923, V-A:HIS:456:CE1:4069, V-A:HIS:456:CG:4066, V-A:HIS:456:CD2:4068, V-B:GLU:543:CG:9879, V-A:TYR:484:CE1:4345, V-B:GLU:543:CA:9876, V-A:TYR:484:CZ:4347, H-A:TYR:484:OH:4348, H-A:GLU:543:OE2:4910, H-A:HIS:456:ND1:4067, V-A:ARG:545:CZ:4926, H-B:GLU:543:O:9875, V-B:LYS:547:CD:9921"]

$$$$
4ab_Grossjean_2025
     RDKit          3D

 25 27  0  0  0  0  0  0  0  0999 V2000
  126.2970  126.6780   74.0840 C   0  0  0  0  0  0  0  0  0  0  0  0
  127.5720  126.1510   73.7470 O   0  0  0  0  0  0  0  0  0  0  0  0
  128.4930  126.9090   73.1000 C   0  0  0  0  0  0  0  0  0  0  0  0
  129.0430  127.8920   73.6070 O   0  0  0  0  0  0  0  0  0  0  0  0
  128.7720  126.4390   71.7020 C   0  0  0  0  0  0  0  0  0  0  0  0
  129.4780  125.2430   71.5110 C   0  0  0  0  0  0  0  0  0  0  0  0
  129.7540  124.7810   70.2270 C   0  0  0  0  0  0  0  0  0  0  0  0
  129.3240  125.4970   69.1100 C   0  0  0  0  0  0  0  0  0  0  0  0
  129.6630  124.9420   67.8620 N   0  0  0  0  0  0  0  0  0  0  0  0
  130.2660  125.5100   66.7890 C   0  0  0  0  0  0  0  0  0  0  0  0
  130.5960  126.6950   66.7250 O   0  0  0  0  0  0  0  0  0  0  0  0
  130.4930  124.6130   65.6530 C   0  0  0  0  0  0  0  0  0  0  0  0
  129.3880  123.2720   65.3440 S   0  0  0  0  0  0  0  0  0  0  0  0
  130.3350  122.7460   63.9710 C   0  0  0  0  0  0  0  0  0  0  0  0
  129.9930  121.6820   63.2430 N   0  0  0  0  0  0  0  0  0  0  0  0
  130.8130  121.3800   62.2080 C   0  0  0  0  0  0  0  0  0  0  0  0
  130.4090  120.1630   61.3960 C   0  0  0  0  0  0  0  0  0  0  0  0
  131.9540  122.1110   61.8840 C   0  0  0  0  0  0  0  0  0  0  0  0
  132.3110  123.2270   62.6510 C   0  0  0  0  0  0  0  0  0  0  0  0
  133.5670  123.9910   62.2590 C   0  0  0  0  0  0  0  0  0  0  0  0
  131.4770  123.5730   63.7480 C   0  0  0  0  0  0  0  0  0  0  0  0
  131.5460  124.6250   64.7250 C   0  0  0  0  0  0  0  0  0  0  0  0
  132.5570  125.5530   64.7310 N   0  0  0  0  0  0  0  0  0  0  0  0
  128.6210  126.6980   69.2910 C   0  0  0  0  0  0  0  0  0  0  0  0
  128.3480  127.1600   70.5760 C   0  0  0  0  0  0  0  0  0  0  0  0
  1  2  1  0
  2  3  1  0
  3  4  2  0
  3  5  1  0
  5  6  2  0
  6  7  1  0
  7  8  2  0
  8  9  1  0
  9 10  1  0
 10 11  2  0
 10 12  1  0
 12 13  1  0
 13 14  1  0
 14 15  2  0
 15 16  1  0
 16 17  1  0
 16 18  2  0
 18 19  1  0
 19 20  1  0
 19 21  2  0
 21 22  1  0
 22 23  1  0
  8 24  1  0
 24 25  2  0
 25  5  1  0
 22 12  2  0
 21 14  1  0
M  END
>  <Binding energies>  (38) 
[-7.24]

>  <Ligand effiencies>  (38) 
[-0.25857142857142856]

>  <Interactions>  (38) 
["V-B:ALA:541:CB:9864, V-A:LEU:475:CD1:4258, V-B:GLU:543:C:9874, V-B:GLU:543:CB:9878, H-A:LYS:547:NZ:4951, V-B:HIS:456:CE1:9040, H-B:LYS:547:NZ:9923, V-A:HIS:456:CE1:4069, V-A:HIS:456:CG:4066, V-A:HIS:456:CD2:4068, H-A:HIS:456:NE2:4070, V-B:GLU:543:CG:9879, V-A:TYR:484:CE1:4345, V-B:GLU:543:CA:9876, V-A:TYR:484:CZ:4347, H-A:TYR:484:OH:4348, V-B:LYS:547:CE:9922, H-A:GLU:543:OE2:4910, V-A:ARG:545:CZ:4926, H-B:GLU:543:O:9875, V-B:LYS:547:CD:9921"]

$$$$
4ac_Grossjean_2025
     RDKit          3D

 23 25  0  0  0  0  0  0  0  0999 V2000
  132.3250  132.2700   54.9950 C   0  0  0  0  0  0  0  0  0  0  0  0
  131.2080  132.9960   55.4980 O   0  0  0  0  0  0  0  0  0  0  0  0
  130.6260  132.6000   56.6860 C   0  0  0  0  0  0  0  0  0  0  0  0
  129.2980  132.9780   56.8850 C   0  0  0  0  0  0  0  0  0  0  0  0
  128.6280  132.6230   58.0520 C   0  0  0  0  0  0  0  0  0  0  0  0
  129.2770  131.8750   59.0350 C   0  0  0  0  0  0  0  0  0  0  0  0
  128.5240  131.5750   60.1860 N   0  0  0  0  0  0  0  0  0  0  0  0
  127.9060  132.4160   61.0500 C   0  0  0  0  0  0  0  0  0  0  0  0
  127.9470  133.6450   60.9630 O   0  0  0  0  0  0  0  0  0  0  0  0
  127.1680  131.7690   62.1370 C   0  0  0  0  0  0  0  0  0  0  0  0
  125.4270  132.0050   62.2980 S   0  0  0  0  0  0  0  0  0  0  0  0
  125.3710  130.9830   63.7160 C   0  0  0  0  0  0  0  0  0  0  0  0
  124.2330  130.7390   64.3660 N   0  0  0  0  0  0  0  0  0  0  0  0
  124.3270  129.9310   65.4500 C   0  0  0  0  0  0  0  0  0  0  0  0
  123.0210  129.6660   66.1750 C   0  0  0  0  0  0  0  0  0  0  0  0
  125.5220  129.3690   65.8960 C   0  0  0  0  0  0  0  0  0  0  0  0
  126.7150  129.6270   65.2110 C   0  0  0  0  0  0  0  0  0  0  0  0
  127.9930  128.9910   65.7360 C   0  0  0  0  0  0  0  0  0  0  0  0
  126.6540  130.4690   64.0680 C   0  0  0  0  0  0  0  0  0  0  0  0
  127.6610  130.9310   63.1500 C   0  0  0  0  0  0  0  0  0  0  0  0
  128.9800  130.5750   63.2710 N   0  0  0  0  0  0  0  0  0  0  0  0
  130.6160  131.5020   58.8490 C   0  0  0  0  0  0  0  0  0  0  0  0
  131.2830  131.8590   57.6800 C   0  0  0  0  0  0  0  0  0  0  0  0
  1  2  1  0
  2  3  1  0
  3  4  2  0
  4  5  1  0
  5  6  2  0
  6  7  1  0
  7  8  1  0
  8  9  2  0
  8 10  1  0
 10 11  1  0
 11 12  1  0
 12 13  2  0
 13 14  1  0
 14 15  1  0
 14 16  2  0
 16 17  1  0
 17 18  1  0
 17 19  2  0
 19 20  1  0
 20 21  1  0
  6 22  1  0
 22 23  2  0
 23  3  1  0
 20 10  2  0
 19 12  1  0
M  END
>  <Binding energies>  (39) 
[-7.3]

>  <Ligand effiencies>  (39) 
[-0.28076923076923077]

>  <Interactions>  (39) 
["V-A:PRO:540:CD:4887, V-A:PRO:540:N:4884, V-A:TYR:539:C:4867, V-A:TYR:531:CE2:4793, V-A:ILE:538:CD1:4865, V-A:LEU:363:CD1:3189, V-A:GLU:543:CD:4908, V-A:TYR:539:CE2:4876, V-A:PRO:540:CB:4885, V-A:PRO:540:CA:4883, V-A:TYR:539:CD2:4874, V-A:ILE:538:CG2:4863, V-B:LEU:475:CD1:9229, V-B:ARG:545:CG:9894, H-B:TYR:484:OH:9319, V-A:GLU:543:CB:4906, H-B:GLY:454:N:9021, V-B:GLY:453:C:9013, V-B:GLY:453:CA:9015, V-B:ARG:545:CD:9895, V-B:ARG:545:CZ:9898, V-B:GLY:454:CA:9020, H-A:GLU:543:OE1:4909, V-A:TYR:539:CE1:4875, V-A:TYR:539:CD1:4873, V-A:TYR:539:CZ:4877, H-A:TYR:539:N:4870, V-A:TYR:539:CG:4872, V-A:TYR:539:CA:4869, V-A:TYR:539:CB:4871"]

$$$$
4ad_Grossjean_2025
     RDKit          3D

 21 23  0  0  0  0  0  0  0  0999 V2000
  130.2920  132.6270   55.6500 C   0  0  0  0  0  0  0  0  0  0  0  0
  130.0980  132.2820   57.1140 C   0  0  0  0  0  0  0  0  0  0  0  0
  131.1400  131.7500   57.8710 C   0  0  0  0  0  0  0  0  0  0  0  0
  130.9370  131.4360   59.2200 C   0  0  0  0  0  0  0  0  0  0  0  0
  132.1030  130.8550   60.0040 C   0  0  0  0  0  0  0  0  0  0  0  0
  129.6500  131.6810   59.7710 C   0  0  0  0  0  0  0  0  0  0  0  0
  129.1040  131.4830   61.0870 C   0  0  0  0  0  0  0  0  0  0  0  0
  129.8510  130.9720   62.1190 N   0  0  0  0  0  0  0  0  0  0  0  0
  127.7570  131.8590   61.2090 C   0  0  0  0  0  0  0  0  0  0  0  0
  126.8920  131.7790   62.3880 C   0  0  0  0  0  0  0  0  0  0  0  0
  126.3370  132.7880   62.8290 O   0  0  0  0  0  0  0  0  0  0  0  0
  126.7520  130.5420   62.9230 N   0  0  0  0  0  0  0  0  0  0  0  0
  126.0360  130.1360   64.0660 C   0  0  0  0  0  0  0  0  0  0  0  0
  126.7620  129.4130   65.0170 C   0  0  0  0  0  0  0  0  0  0  0  0
  126.1450  128.9760   66.1870 C   0  0  0  0  0  0  0  0  0  0  0  0
  124.8030  129.2690   66.4100 C   0  0  0  0  0  0  0  0  0  0  0  0
  124.0720  130.0000   65.4760 C   0  0  0  0  0  0  0  0  0  0  0  0
  124.6860  130.4380   64.3060 C   0  0  0  0  0  0  0  0  0  0  0  0
  127.1280  132.4780   59.6810 S   0  0  0  0  0  0  0  0  0  0  0  0
  128.6680  132.2280   58.8910 C   0  0  0  0  0  0  0  0  0  0  0  0
  128.8590  132.5280   57.6050 N   0  0  0  0  0  0  0  0  0  0  0  0
  1  2  1  0
  2  3  2  0
  3  4  1  0
  4  5  1  0
  4  6  2  0
  6  7  1  0
  7  8  1  0
  7  9  2  0
  9 10  1  0
 10 11  2  0
 10 12  1  0
 12 13  1  0
 13 14  2  0
 14 15  1  0
 15 16  2  0
 16 17  1  0
 17 18  2  0
  9 19  1  0
 19 20  1  0
 20 21  2  0
 21  2  1  0
 20  6  1  0
 18 13  1  0
M  END
>  <Binding energies>  (40) 
[-6.56]

>  <Ligand effiencies>  (40) 
[-0.2733333333333333]

>  <Interactions>  (40) 
["V-A:PRO:540:N:4884, V-A:TYR:539:C:4867, V-A:GLU:543:CD:4908, V-A:TYR:539:CE2:4876, V-A:PRO:540:CB:4885, V-A:PRO:540:CA:4883, V-A:TYR:539:CD2:4874, V-B:HIS:456:CE1:9040, V-B:ARG:545:CG:9894, V-B:ARG:545:CD:9895, V-B:ARG:545:CZ:9898, V-B:GLY:454:CA:9020, H-A:GLU:543:OE1:4909, V-A:TYR:539:CE1:4875, V-A:TYR:539:CD1:4873, V-A:TYR:539:CZ:4877"]

$$$$
4ae_Grossjean_2025
     RDKit          3D

 22 24  0  0  0  0  0  0  0  0999 V2000
  128.2310  119.9200   72.9400 C   0  0  0  0  0  0  0  0  0  0  0  0
  129.2780  120.9970   72.7360 C   0  0  0  0  0  0  0  0  0  0  0  0
  130.4520  121.0290   73.4930 C   0  0  0  0  0  0  0  0  0  0  0  0
  131.3670  122.0550   73.2570 C   0  0  0  0  0  0  0  0  0  0  0  0
  131.0890  123.0150   72.2810 C   0  0  0  0  0  0  0  0  0  0  0  0
  129.8980  122.9200   71.5530 C   0  0  0  0  0  0  0  0  0  0  0  0
  129.6660  123.9270   70.6000 N   0  0  0  0  0  0  0  0  0  0  0  0
  129.5340  125.2640   70.7930 C   0  0  0  0  0  0  0  0  0  0  0  0
  129.5980  125.8070   71.8970 O   0  0  0  0  0  0  0  0  0  0  0  0
  129.3000  126.0520   69.5810 C   0  0  0  0  0  0  0  0  0  0  0  0
  128.8000  127.7400   69.6990 S   0  0  0  0  0  0  0  0  0  0  0  0
  128.7130  127.8860   67.9590 C   0  0  0  0  0  0  0  0  0  0  0  0
  128.3540  129.0230   67.3630 N   0  0  0  0  0  0  0  0  0  0  0  0
  128.3210  129.0020   66.0090 C   0  0  0  0  0  0  0  0  0  0  0  0
  127.9040  130.3050   65.3520 C   0  0  0  0  0  0  0  0  0  0  0  0
  128.6380  127.8810   65.2430 C   0  0  0  0  0  0  0  0  0  0  0  0
  129.0150  126.6880   65.8720 C   0  0  0  0  0  0  0  0  0  0  0  0
  129.3470  125.4910   64.9940 C   0  0  0  0  0  0  0  0  0  0  0  0
  129.0590  126.6720   67.2930 C   0  0  0  0  0  0  0  0  0  0  0  0
  129.3920  125.6420   68.2410 C   0  0  0  0  0  0  0  0  0  0  0  0
  129.7620  124.3800   67.8520 N   0  0  0  0  0  0  0  0  0  0  0  0
  128.9950  121.9230   71.7840 N   0  0  0  0  0  0  0  0  0  0  0  0
  1  2  1  0
  2  3  2  0
  3  4  1  0
  4  5  2  0
  5  6  1  0
  6  7  1  0
  7  8  1  0
  8  9  2  0
  8 10  1  0
 10 11  1  0
 11 12  1  0
 12 13  2  0
 13 14  1  0
 14 15  1  0
 14 16  2  0
 16 17  1  0
 17 18  1  0
 17 19  2  0
 19 20  1  0
 20 21  1  0
  6 22  2  0
 22  2  1  0
 20 10  2  0
 19 12  1  0
M  END
>  <Binding energies>  (41) 
[-7.47]

>  <Ligand effiencies>  (41) 
[-0.2988]

>  <Interactions>  (41) 
["V-B:GLU:543:CD:9880, V-A:GLU:543:CD:4908, V-B:GLU:543:C:9874, V-B:GLU:543:CB:9878, V-B:HIS:456:CE1:9040, H-B:LYS:547:NZ:9923, V-A:HIS:456:CE1:4069, V-A:ASP:473:CG:4240, V-A:HIS:456:CG:4066, V-A:HIS:456:CD2:4068, V-A:ASP:473:CB:4239, V-A:HIS:456:CB:4065, V-A:GLU:543:CB:4906, H-B:HIS:456:NE2:9041, H-A:HIS:456:NE2:4070, V-B:GLU:543:CG:9879, V-A:TYR:484:CE1:4345, V-B:GLU:543:CA:9876, V-A:TYR:484:CZ:4347, H-A:TYR:484:OH:4348, V-B:LYS:547:CE:9922, H-A:HIS:456:ND1:4067, V-A:GLU:543:CG:4907, H-B:GLU:543:O:9875, V-A:TYR:484:CD2:4344, V-A:TYR:484:CG:4342, V-A:TYR:484:CE2:4346, V-A:TYR:484:CB:4341, V-A:TYR:484:CD1:4343"]

$$$$
4af_Grossjean_2025
     RDKit          3D

 21 23  0  0  0  0  0  0  0  0999 V2000
  128.1050  130.1280   64.4110 C   0  0  0  0  0  0  0  0  0  0  0  0
  128.4680  128.8800   65.1950 C   0  0  0  0  0  0  0  0  0  0  0  0
  128.7190  127.6730   64.5450 C   0  0  0  0  0  0  0  0  0  0  0  0
  129.0500  126.5340   65.2890 C   0  0  0  0  0  0  0  0  0  0  0  0
  129.3140  125.2400   64.5360 C   0  0  0  0  0  0  0  0  0  0  0  0
  129.1140  126.6600   66.7030 C   0  0  0  0  0  0  0  0  0  0  0  0
  129.4130  125.7180   67.7490 C   0  0  0  0  0  0  0  0  0  0  0  0
  129.7170  124.4060   67.4860 N   0  0  0  0  0  0  0  0  0  0  0  0
  129.3650  126.2650   69.0400 C   0  0  0  0  0  0  0  0  0  0  0  0
  129.5830  125.5940   70.3230 C   0  0  0  0  0  0  0  0  0  0  0  0
  129.5760  126.2340   71.3750 O   0  0  0  0  0  0  0  0  0  0  0  0
  129.7700  124.2530   70.2510 N   0  0  0  0  0  0  0  0  0  0  0  0
  130.0480  123.3320   71.2790 C   0  0  0  0  0  0  0  0  0  0  0  0
  131.2030  123.3280   72.0810 C   0  0  0  0  0  0  0  0  0  0  0  0
  131.3640  122.3430   73.0560 C   0  0  0  0  0  0  0  0  0  0  0  0
  130.3650  121.3790   73.2050 C   0  0  0  0  0  0  0  0  0  0  0  0
  129.2460  121.3560   72.4390 N   0  0  0  0  0  0  0  0  0  0  0  0
  129.1040  122.3200   71.4950 C   0  0  0  0  0  0  0  0  0  0  0  0
  128.9400  127.9780   68.9910 S   0  0  0  0  0  0  0  0  0  0  0  0
  128.8340  127.9500   67.2460 C   0  0  0  0  0  0  0  0  0  0  0  0
  128.5200  129.0380   66.5400 N   0  0  0  0  0  0  0  0  0  0  0  0
  1  2  1  0
  2  3  2  0
  3  4  1  0
  4  5  1  0
  4  6  2  0
  6  7  1  0
  7  8  1  0
  7  9  2  0
  9 10  1  0
 10 11  2  0
 10 12  1  0
 12 13  1  0
 13 14  2  0
 14 15  1  0
 15 16  2  0
 16 17  1  0
 17 18  2  0
  9 19  1  0
 19 20  1  0
 20 21  2  0
 21  2  1  0
 20  6  1  0
 18 13  1  0
M  END
>  <Binding energies>  (42) 
[-6.91]

>  <Ligand effiencies>  (42) 
[-0.28791666666666665]

>  <Interactions>  (42) 
["V-B:GLU:543:CD:9880, V-A:GLU:543:CD:4908, V-B:GLU:543:C:9874, V-B:GLU:543:CB:9878, V-B:HIS:456:CE1:9040, H-B:LYS:547:NZ:9923, V-A:HIS:456:CE1:4069, V-A:ASP:473:CG:4240, V-A:HIS:456:CG:4066, V-A:HIS:456:CD2:4068, V-A:ASP:473:CB:4239, V-A:HIS:456:CB:4065, V-A:GLU:543:CB:4906, H-A:HIS:456:NE2:4070, V-B:GLU:543:CG:9879, V-A:TYR:484:CE1:4345, V-B:GLU:543:CA:9876, V-A:TYR:484:CZ:4347, H-A:TYR:484:OH:4348, V-B:LYS:547:CE:9922, V-B:GLY:544:CA:9886, H-B:GLU:543:O:9875, V-A:TYR:484:CD2:4344, V-A:TYR:484:CG:4342, V-A:TYR:484:CE2:4346, V-A:TYR:484:CB:4341, V-A:TYR:484:CD1:4343"]

$$$$
4ag_Grossjean_2025
     RDKit          3D

 22 24  0  0  0  0  0  0  0  0999 V2000
  133.2900  126.0190   75.7410 C   0  0  0  0  0  0  0  0  0  0  0  0
  132.2680  125.6260   74.6900 C   0  0  0  0  0  0  0  0  0  0  0  0
  132.2070  124.3220   74.2020 C   0  0  0  0  0  0  0  0  0  0  0  0
  131.2570  123.9810   73.2330 C   0  0  0  0  0  0  0  0  0  0  0  0
  131.2290  122.5450   72.7320 C   0  0  0  0  0  0  0  0  0  0  0  0
  130.3780  125.0000   72.7790 C   0  0  0  0  0  0  0  0  0  0  0  0
  129.3090  125.0000   71.8170 C   0  0  0  0  0  0  0  0  0  0  0  0
  128.9480  123.8740   71.1200 N   0  0  0  0  0  0  0  0  0  0  0  0
  128.6840  126.2460   71.6610 C   0  0  0  0  0  0  0  0  0  0  0  0
  127.5670  126.5990   70.7850 C   0  0  0  0  0  0  0  0  0  0  0  0
  126.6830  127.3760   71.1530 O   0  0  0  0  0  0  0  0  0  0  0  0
  127.5560  126.0120   69.5700 N   0  0  0  0  0  0  0  0  0  0  0  0
  126.5550  126.2370   68.5280 C   0  0  0  0  0  0  0  0  0  0  0  0
  126.8800  127.4000   67.5980 C   0  0  0  0  0  0  0  0  0  0  0  0
  125.8440  128.1250   67.0020 C   0  0  0  0  0  0  0  0  0  0  0  0
  126.1380  129.2040   66.1720 C   0  0  0  0  0  0  0  0  0  0  0  0
  127.4660  129.5610   65.9490 C   0  0  0  0  0  0  0  0  0  0  0  0
  128.5030  128.8530   66.5520 C   0  0  0  0  0  0  0  0  0  0  0  0
  128.2090  127.7750   67.3830 C   0  0  0  0  0  0  0  0  0  0  0  0
  129.4020  127.4600   72.7200 S   0  0  0  0  0  0  0  0  0  0  0  0
  130.5410  126.2950   73.3570 C   0  0  0  0  0  0  0  0  0  0  0  0
  131.4450  126.6230   74.2820 N   0  0  0  0  0  0  0  0  0  0  0  0
  1  2  1  0
  2  3  2  0
  3  4  1  0
  4  5  1  0
  4  6  2  0
  6  7  1  0
  7  8  1  0
  7  9  2  0
  9 10  1  0
 10 11  2  0
 10 12  1  0
 12 13  1  0
 13 14  1  0
 14 15  2  0
 15 16  1  0
 16 17  2  0
 17 18  1  0
 18 19  2  0
  9 20  1  0
 20 21  1  0
 21 22  2  0
 22  2  1  0
 21  6  1  0
 19 14  1  0
M  END
>  <Binding energies>  (43) 
[-7.29]

>  <Ligand effiencies>  (43) 
[-0.2916]

>  <Interactions>  (43) 
["V-A:GLU:543:CD:4908, V-B:GLU:543:C:9874, V-B:GLU:543:CB:9878, V-B:GLY:544:C:9884, V-B:ARG:545:CA:9891, H-A:LYS:547:NZ:4951, V-B:HIS:456:CE1:9040, V-B:ARG:545:CG:9894, V-A:HIS:456:CG:4066, V-A:HIS:456:CD2:4068, V-A:ASP:473:CB:4239, V-A:HIS:456:CB:4065, V-A:GLU:543:CB:4906, H-B:HIS:456:NE2:9041, V-B:ARG:545:CD:9895, V-B:GLY:544:CA:9886, V-A:GLU:543:CG:4907, H-B:GLU:543:O:9875, V-A:LYS:547:CD:4949, V-A:TYR:484:CD2:4344, V-A:VAL:458:CG2:4087, H-B:GLY:544:O:9885, V-A:TYR:484:CG:4342, V-A:TYR:484:CE2:4346"]

$$$$
4ah_Grossjean_2025
     RDKit          3D

 28 30  0  0  0  0  0  0  0  0999 V2000
  131.6330  122.1670   72.6280 C   0  0  0  0  0  0  0  0  0  0  0  0
  130.3270  122.7310   72.6320 O   0  0  0  0  0  0  0  0  0  0  0  0
  130.1810  124.1070   72.6370 C   0  0  0  0  0  0  0  0  0  0  0  0
  129.3050  124.8060   71.7920 C   0  0  0  0  0  0  0  0  0  0  0  0
  129.2110  126.1970   71.8520 C   0  0  0  0  0  0  0  0  0  0  0  0
  128.2200  126.9350   70.9590 C   0  0  0  0  0  0  0  0  0  0  0  0
  128.3980  126.6570   69.5330 N   0  0  0  0  0  0  0  0  0  0  0  0
  129.1520  127.3850   68.6830 C   0  0  0  0  0  0  0  0  0  0  0  0
  129.7490  128.4050   69.0320 O   0  0  0  0  0  0  0  0  0  0  0  0
  129.1890  126.9170   67.2980 C   0  0  0  0  0  0  0  0  0  0  0  0
  128.7300  128.0010   65.9840 S   0  0  0  0  0  0  0  0  0  0  0  0
  128.9910  126.7430   64.7960 C   0  0  0  0  0  0  0  0  0  0  0  0
  128.8030  126.9530   63.4930 N   0  0  0  0  0  0  0  0  0  0  0  0
  129.0420  125.8970   62.6790 C   0  0  0  0  0  0  0  0  0  0  0  0
  128.8200  126.1560   61.2010 C   0  0  0  0  0  0  0  0  0  0  0  0
  129.4610  124.6480   63.1330 C   0  0  0  0  0  0  0  0  0  0  0  0
  129.6560  124.4290   64.5020 C   0  0  0  0  0  0  0  0  0  0  0  0
  130.1130  123.0500   64.9490 C   0  0  0  0  0  0  0  0  0  0  0  0
  129.4130  125.5140   65.3880 C   0  0  0  0  0  0  0  0  0  0  0  0
  129.5060  125.6380   66.8180 C   0  0  0  0  0  0  0  0  0  0  0  0
  129.8810  124.5930   67.6220 N   0  0  0  0  0  0  0  0  0  0  0  0
  129.9770  126.8990   72.7830 C   0  0  0  0  0  0  0  0  0  0  0  0
  130.8660  126.2270   73.6380 C   0  0  0  0  0  0  0  0  0  0  0  0
  131.6660  126.8600   74.5720 O   0  0  0  0  0  0  0  0  0  0  0  0
  133.0730  126.6490   74.5420 C   0  0  0  0  0  0  0  0  0  0  0  0
  130.9630  124.8310   73.5500 C   0  0  0  0  0  0  0  0  0  0  0  0
  131.8150  124.1580   74.3930 O   0  0  0  0  0  0  0  0  0  0  0  0
  131.2740  123.9070   75.6820 C   0  0  0  0  0  0  0  0  0  0  0  0
  1  2  1  0
  2  3  1  0
  3  4  2  0
  4  5  1  0
  5  6  1  0
  6  7  1  0
  7  8  1  0
  8  9  2  0
  8 10  1  0
 10 11  1  0
 11 12  1  0
 12 13  2  0
 13 14  1  0
 14 15  1  0
 14 16  2  0
 16 17  1  0
 17 18  1  0
 17 19  2  0
 19 20  1  0
 20 21  1  0
  5 22  2  0
 22 23  1  0
 23 24  1  0
 24 25  1  0
 23 26  2  0
 26 27  1  0
 27 28  1  0
 26  3  1  0
 20 10  2  0
 19 12  1  0
M  END
>  <Binding energies>  (44) 
[-6.98]

>  <Ligand effiencies>  (44) 
[-0.22516129032258067]

>  <Interactions>  (44) 
["V-B:GLU:543:CD:9880, V-A:GLU:543:CD:4908, V-B:GLU:543:C:9874, V-B:GLU:543:CB:9878, H-A:LYS:547:NZ:4951, V-B:HIS:456:CE1:9040, H-B:LYS:547:NZ:9923, V-A:HIS:456:CE1:4069, V-A:ASP:473:CG:4240, V-A:HIS:456:CG:4066, V-A:HIS:456:CD2:4068, V-A:ASP:473:CB:4239, V-A:HIS:456:CB:4065, V-A:LYS:547:CE:4950, H-B:HIS:456:NE2:9041, H-A:HIS:456:NE2:4070, V-B:GLU:543:CG:9879, V-A:TYR:484:CE1:4345, V-A:TYR:484:CZ:4347, H-A:TYR:484:OH:4348, H-A:HIS:456:ND1:4067, H-B:GLU:543:O:9875, V-A:LYS:547:CD:4949, V-A:TYR:484:CD2:4344, H-B:GLY:544:O:9885, V-A:TYR:484:CG:4342, V-A:TYR:484:CE2:4346, V-A:TYR:484:CB:4341"]

$$$$
4ai_Grossjean_2025
     RDKit          3D

 20 22  0  0  0  0  0  0  0  0999 V2000
  127.8920  130.2620   65.1860 C   0  0  0  0  0  0  0  0  0  0  0  0
  128.3010  128.9660   65.8600 C   0  0  0  0  0  0  0  0  0  0  0  0
  128.6120  127.8340   65.1090 C   0  0  0  0  0  0  0  0  0  0  0  0
  128.9930  126.6500   65.7520 C   0  0  0  0  0  0  0  0  0  0  0  0
  129.3250  125.4430   64.8880 C   0  0  0  0  0  0  0  0  0  0  0  0
  129.0480  126.6550   67.1720 C   0  0  0  0  0  0  0  0  0  0  0  0
  129.3920  125.6410   68.1310 C   0  0  0  0  0  0  0  0  0  0  0  0
  129.7520  124.3700   67.7570 N   0  0  0  0  0  0  0  0  0  0  0  0
  129.3290  126.0720   69.4660 C   0  0  0  0  0  0  0  0  0  0  0  0
  129.6010  125.3080   70.6850 C   0  0  0  0  0  0  0  0  0  0  0  0
  129.7330  125.8790   71.7690 O   0  0  0  0  0  0  0  0  0  0  0  0
  129.6740  123.9630   70.5230 N   0  0  0  0  0  0  0  0  0  0  0  0
  129.9080  123.0060   71.5010 C   0  0  0  0  0  0  0  0  0  0  0  0
  131.0900  122.9440   72.2390 C   0  0  0  0  0  0  0  0  0  0  0  0
  130.9290  121.8720   73.0860 C   0  0  0  0  0  0  0  0  0  0  0  0
  129.7120  121.3170   72.8710 O   0  0  0  0  0  0  0  0  0  0  0  0
  129.0740  122.0450   71.8660 N   0  0  0  0  0  0  0  0  0  0  0  0
  128.8130  127.7570   69.5660 S   0  0  0  0  0  0  0  0  0  0  0  0
  128.7050  127.8780   67.8230 C   0  0  0  0  0  0  0  0  0  0  0  0
  128.3410  129.0070   67.2150 N   0  0  0  0  0  0  0  0  0  0  0  0
  1  2  1  0
  2  3  2  0
  3  4  1  0
  4  5  1  0
  4  6  2  0
  6  7  1  0
  7  8  1  0
  7  9  2  0
  9 10  1  0
 10 11  2  0
 10 12  1  0
 12 13  1  0
 13 14  1  0
 14 15  2  0
 15 16  1  0
 16 17  1  0
  9 18  1  0
 18 19  1  0
 19 20  2  0
 20  2  1  0
 19  6  1  0
 17 13  2  0
M  END
>  <Binding energies>  (45) 
[-7.67]

>  <Ligand effiencies>  (45) 
[-0.3334782608695652]

>  <Interactions>  (45) 
["V-B:GLU:543:CD:9880, V-A:GLU:543:CD:4908, V-B:GLU:543:C:9874, V-B:GLU:543:CB:9878, V-B:HIS:456:CE1:9040, H-B:LYS:547:NZ:9923, V-A:HIS:456:CE1:4069, V-A:ASP:473:CG:4240, V-A:HIS:456:CG:4066, V-A:HIS:456:CD2:4068, V-A:ASP:473:CB:4239, V-A:HIS:456:CB:4065, V-A:GLU:543:CB:4906, H-A:HIS:456:NE2:4070, V-B:GLU:543:CG:9879, V-A:TYR:484:CE1:4345, V-B:GLU:543:CA:9876, V-A:TYR:484:CZ:4347, H-A:TYR:484:OH:4348, H-A:HIS:456:ND1:4067, H-B:GLU:543:O:9875, V-A:TYR:484:CD2:4344, V-A:TYR:484:CG:4342, V-A:TYR:484:CE2:4346, V-A:TYR:484:CB:4341, V-A:TYR:484:CD1:4343"]

$$$$
4aj_Grossjean_2025
     RDKit          3D

 20 22  0  0  0  0  0  0  0  0999 V2000
  128.2030  130.3270   65.3570 C   0  0  0  0  0  0  0  0  0  0  0  0
  128.5430  129.0170   66.0420 C   0  0  0  0  0  0  0  0  0  0  0  0
  128.9250  127.8990   65.3040 C   0  0  0  0  0  0  0  0  0  0  0  0
  129.2290  126.6990   65.9570 C   0  0  0  0  0  0  0  0  0  0  0  0
  129.6410  125.5080   65.1060 C   0  0  0  0  0  0  0  0  0  0  0  0
  129.1340  126.6720   67.3740 C   0  0  0  0  0  0  0  0  0  0  0  0
  129.3660  125.6340   68.3420 C   0  0  0  0  0  0  0  0  0  0  0  0
  129.7570  124.3700   67.9800 N   0  0  0  0  0  0  0  0  0  0  0  0
  129.1620  126.0370   69.6700 C   0  0  0  0  0  0  0  0  0  0  0  0
  129.2960  125.2440   70.8940 C   0  0  0  0  0  0  0  0  0  0  0  0
  128.7500  125.6030   71.9400 O   0  0  0  0  0  0  0  0  0  0  0  0
  130.0340  124.1130   70.7770 N   0  0  0  0  0  0  0  0  0  0  0  0
  130.3040  123.1860   71.7740 C   0  0  0  0  0  0  0  0  0  0  0  0
  129.7110  122.0300   71.9840 N   0  0  0  0  0  0  0  0  0  0  0  0
  130.2270  121.4020   73.0230 C   0  0  0  0  0  0  0  0  0  0  0  0
  131.2650  122.0540   73.6830 C   0  0  0  0  0  0  0  0  0  0  0  0
  131.5740  123.5710   72.8900 S   0  0  0  0  0  0  0  0  0  0  0  0
  128.6560  127.7260   69.7530 S   0  0  0  0  0  0  0  0  0  0  0  0
  128.7340  127.8850   68.0130 C   0  0  0  0  0  0  0  0  0  0  0  0
  128.4430  129.0290   67.3940 N   0  0  0  0  0  0  0  0  0  0  0  0
  1  2  1  0
  2  3  2  0
  3  4  1  0
  4  5  1  0
  4  6  2  0
  6  7  1  0
  7  8  1  0
  7  9  2  0
  9 10  1  0
 10 11  2  0
 10 12  1  0
 12 13  1  0
 13 14  2  0
 14 15  1  0
 15 16  2  0
 16 17  1  0
  9 18  1  0
 18 19  1  0
 19 20  2  0
 20  2  1  0
 19  6  1  0
 17 13  1  0
M  END
>  <Binding energies>  (46) 
[-6.56]

>  <Ligand effiencies>  (46) 
[-0.2852173913043478]

>  <Interactions>  (46) 
["V-A:GLU:543:CD:4908, V-B:GLU:543:C:9874, V-B:GLU:543:CB:9878, V-B:HIS:456:CE1:9040, H-B:LYS:547:NZ:9923, V-A:HIS:456:CE1:4069, V-A:ASP:473:CG:4240, V-A:HIS:456:CG:4066, V-A:HIS:456:CD2:4068, V-A:ASP:473:CB:4239, V-A:HIS:456:CB:4065, V-A:GLU:543:CB:4906, H-B:HIS:456:NE2:9041, V-B:GLU:543:CG:9879, V-A:TYR:484:CE1:4345, V-B:GLU:543:CA:9876, V-A:TYR:484:CZ:4347, H-A:TYR:484:OH:4348, H-A:HIS:456:ND1:4067, V-A:GLU:543:CG:4907, H-B:GLU:543:O:9875, V-A:TYR:484:CD2:4344, V-A:TYR:484:CG:4342, V-A:TYR:484:CE2:4346, V-A:TYR:484:CB:4341, V-A:TYR:484:CD1:4343"]

$$$$
4ak_Grossjean_2025
     RDKit          3D

 25 26  0  0  0  0  0  0  0  0999 V2000
  128.2550  130.8850   56.3870 C   0  0  0  0  0  0  0  0  0  0  0  0
  128.6550  131.7540   57.4350 O   0  0  0  0  0  0  0  0  0  0  0  0
  129.3710  132.8960   56.9830 C   0  0  0  0  0  0  0  0  0  0  0  0
  129.8920  132.6430   55.5620 C   0  0  0  0  0  0  0  0  0  0  0  0
  131.1220  133.3320   55.3820 O   0  0  0  0  0  0  0  0  0  0  0  0
  132.2500  132.6380   55.8980 C   0  0  0  0  0  0  0  0  0  0  0  0
  131.9910  131.1280   55.8290 C   0  0  0  0  0  0  0  0  0  0  0  0
  131.4470  130.6870   57.0650 O   0  0  0  0  0  0  0  0  0  0  0  0
  132.4160  130.1720   57.9690 C   0  0  0  0  0  0  0  0  0  0  0  0
  132.1950  130.7930   59.3600 C   0  0  0  0  0  0  0  0  0  0  0  0
  130.8410  131.3060   59.5650 N   0  0  0  0  0  0  0  0  0  0  0  0
  130.3610  131.8000   60.7240 C   0  0  0  0  0  0  0  0  0  0  0  0
  131.0500  131.8850   61.7420 O   0  0  0  0  0  0  0  0  0  0  0  0
  128.9670  132.2420   60.7070 C   0  0  0  0  0  0  0  0  0  0  0  0
  128.5300  133.8320   61.3320 S   0  0  0  0  0  0  0  0  0  0  0  0
  126.8440  133.5690   60.9500 C   0  0  0  0  0  0  0  0  0  0  0  0
  125.9110  134.4860   61.2090 N   0  0  0  0  0  0  0  0  0  0  0  0
  124.6410  134.1560   60.8660 C   0  0  0  0  0  0  0  0  0  0  0  0
  123.5940  135.2130   61.1670 C   0  0  0  0  0  0  0  0  0  0  0  0
  124.2880  132.9450   60.2750 C   0  0  0  0  0  0  0  0  0  0  0  0
  125.2700  131.9840   60.0050 C   0  0  0  0  0  0  0  0  0  0  0  0
  124.8350  130.6760   59.3640 C   0  0  0  0  0  0  0  0  0  0  0  0
  126.6120  132.2940   60.3520 C   0  0  0  0  0  0  0  0  0  0  0  0
  127.8420  131.5600   60.2200 C   0  0  0  0  0  0  0  0  0  0  0  0
  127.8910  130.3050   59.6670 N   0  0  0  0  0  0  0  0  0  0  0  0
  1  2  1  0
  2  3  1  0
  3  4  1  0
  4  5  1  0
  5  6  1  0
  6  7  1  0
  7  8  1  0
  8  9  1  0
  9 10  1  0
 10 11  1  0
 11 12  1  0
 12 13  2  0
 12 14  1  0
 14 15  1  0
 15 16  1  0
 16 17  2  0
 17 18  1  0
 18 19  1  0
 18 20  2  0
 20 21  1  0
 21 22  1  0
 21 23  2  0
 23 24  1  0
 24 25  1  0
 24 14  2  0
 23 16  1  0
M  END
>  <Binding energies>  (47) 
[-5.09]

>  <Ligand effiencies>  (47) 
[-0.18178571428571427]

>  <Interactions>  (47) 
["V-B:ASP:366:CG:8184, V-A:PRO:540:CD:4887, V-A:PRO:540:N:4884, V-A:TYR:539:C:4867, V-A:PRO:540:CG:4886, V-A:TYR:531:CE2:4793, V-A:TYR:531:CZ:4794, V-A:LEU:363:CD1:3189, V-A:TYR:539:CE2:4876, V-A:PRO:540:C:4881, H-A:TYR:531:OH:4795, V-A:PRO:540:CB:4885, V-A:PRO:540:CA:4883, V-A:TYR:539:CD2:4874, V-A:ILE:538:CG2:4863, V-B:LEU:475:CD1:9229, V-A:ALA:541:CB:4892, H-A:ALA:541:N:4891, V-B:ILE:369:CG2:8208, V-B:TRP:381:CH2:8343, V-A:TYR:539:CE1:4875, V-A:TYR:539:CD1:4873, V-A:TYR:539:CZ:4877, H-A:TYR:539:N:4870, V-A:TYR:539:CG:4872, V-A:TYR:539:CA:4869, V-B:TRP:381:CZ2:8341, V-A:ALA:541:CA:4890"]

$$$$
4al_Grossjean_2025
     RDKit          3D

 16 17  0  0  0  0  0  0  0  0999 V2000
  124.6710  131.5870   63.6380 C   0  0  0  0  0  0  0  0  0  0  0  0
  124.1230  130.3760   64.1370 O   0  0  0  0  0  0  0  0  0  0  0  0
  124.1620  130.0870   65.4630 C   0  0  0  0  0  0  0  0  0  0  0  0
  123.3320  130.4900   66.2820 O   0  0  0  0  0  0  0  0  0  0  0  0
  125.3100  129.2320   65.8330 C   0  0  0  0  0  0  0  0  0  0  0  0
  126.6520  129.0220   64.7050 S   0  0  0  0  0  0  0  0  0  0  0  0
  127.4850  127.9710   65.8270 C   0  0  0  0  0  0  0  0  0  0  0  0
  128.6680  127.4280   65.5390 N   0  0  0  0  0  0  0  0  0  0  0  0
  129.2070  126.6310   66.4950 C   0  0  0  0  0  0  0  0  0  0  0  0
  130.5540  126.0240   66.1470 C   0  0  0  0  0  0  0  0  0  0  0  0
  128.5950  126.3680   67.7190 C   0  0  0  0  0  0  0  0  0  0  0  0
  127.3540  126.9380   68.0180 C   0  0  0  0  0  0  0  0  0  0  0  0
  126.7260  126.6220   69.3660 C   0  0  0  0  0  0  0  0  0  0  0  0
  126.7580  127.7800   67.0400 C   0  0  0  0  0  0  0  0  0  0  0  0
  125.5220  128.5110   67.0140 C   0  0  0  0  0  0  0  0  0  0  0  0
  124.6350  128.4990   68.0600 N   0  0  0  0  0  0  0  0  0  0  0  0
  1  2  1  0
  2  3  1  0
  3  4  2  0
  3  5  1  0
  5  6  1  0
  6  7  1  0
  7  8  2  0
  8  9  1  0
  9 10  1  0
  9 11  2  0
 11 12  1  0
 12 13  1  0
 12 14  2  0
 14 15  1  0
 15 16  1  0
 15  5  2  0
 14  7  1  0
M  END
>  <Binding energies>  (48) 
[-5.19]

>  <Ligand effiencies>  (48) 
[-0.28833333333333333]

>  <Interactions>  (48) 
["V-B:GLU:543:CD:9880, V-A:GLU:543:CD:4908, V-B:LEU:475:CD1:9229, V-B:GLU:543:C:9874, V-B:GLU:543:CB:9878, V-B:GLY:544:C:9884, V-B:ARG:545:CA:9891, V-B:HIS:456:CE1:9040, V-B:ARG:545:CG:9894, V-A:HIS:456:CE1:4069, H-B:TYR:484:OH:9319, H-B:GLY:454:N:9021, V-B:ARG:545:CD:9895, V-B:ARG:545:CZ:9898, V-B:GLY:454:CA:9020, H-B:ARG:545:NH2:9900, H-B:ILE:455:N:9026, V-B:ARG:545:CB:9893, H-B:HIS:456:ND1:9038, H-B:ILE:455:O:9024"]

$$$$
4bc_Grossjean_2025
     RDKit          3D

 26 28  0  0  0  0  0  0  0  0999 V2000
  132.3220  132.2090   55.1150 C   0  0  0  0  0  0  0  0  0  0  0  0
  131.2990  133.0200   55.6840 O   0  0  0  0  0  0  0  0  0  0  0  0
  130.6800  132.6050   56.8480 C   0  0  0  0  0  0  0  0  0  0  0  0
  129.3440  132.9720   57.0070 C   0  0  0  0  0  0  0  0  0  0  0  0
  128.6380  132.6000   58.1480 C   0  0  0  0  0  0  0  0  0  0  0  0
  129.2590  131.8450   59.1450 C   0  0  0  0  0  0  0  0  0  0  0  0
  128.4720  131.5300   60.2670 N   0  0  0  0  0  0  0  0  0  0  0  0
  127.4340  132.2150   60.8060 C   0  0  0  0  0  0  0  0  0  0  0  0
  127.0310  133.2980   60.3810 O   0  0  0  0  0  0  0  0  0  0  0  0
  126.7980  131.5830   61.9660 C   0  0  0  0  0  0  0  0  0  0  0  0
  125.1040  131.9030   62.3320 S   0  0  0  0  0  0  0  0  0  0  0  0
  125.1620  130.8580   63.7320 C   0  0  0  0  0  0  0  0  0  0  0  0
  124.0900  130.6650   64.5000 N   0  0  0  0  0  0  0  0  0  0  0  0
  124.2580  129.8370   65.5570 C   0  0  0  0  0  0  0  0  0  0  0  0
  123.0240  129.6260   66.4150 C   0  0  0  0  0  0  0  0  0  0  0  0
  125.4600  129.2040   65.8610 C   0  0  0  0  0  0  0  0  0  0  0  0
  126.5930  129.4040   65.0560 C   0  0  0  0  0  0  0  0  0  0  0  0
  127.8950  128.6880   65.4340 C   0  0  0  0  0  0  0  0  0  0  0  0
  128.8430  129.5220   65.8630 F   0  0  0  0  0  0  0  0  0  0  0  0
  127.6590  127.8130   66.4110 F   0  0  0  0  0  0  0  0  0  0  0  0
  128.3800  128.0440   64.3720 F   0  0  0  0  0  0  0  0  0  0  0  0
  126.4490  130.2710   63.9320 C   0  0  0  0  0  0  0  0  0  0  0  0
  127.3630  130.7040   62.9030 C   0  0  0  0  0  0  0  0  0  0  0  0
  128.6690  130.2880   62.8500 N   0  0  0  0  0  0  0  0  0  0  0  0
  130.6070  131.4830   58.9980 C   0  0  0  0  0  0  0  0  0  0  0  0
  131.3100  131.8580   57.8560 C   0  0  0  0  0  0  0  0  0  0  0  0
  1  2  1  0
  2  3  1  0
  3  4  2  0
  4  5  1  0
  5  6  2  0
  6  7  1  0
  7  8  1  0
  8  9  2  0
  8 10  1  0
 10 11  1  0
 11 12  1  0
 12 13  2  0
 13 14  1  0
 14 15  1  0
 14 16  2  0
 16 17  1  0
 17 18  1  0
 18 19  1  0
 18 20  1  0
 18 21  1  0
 17 22  2  0
 22 23  1  0
 23 24  1  0
  6 25  1  0
 25 26  2  0
 26  3  1  0
 23 10  2  0
 22 12  1  0
M  END
>  <Binding energies>  (49) 
[-6.72]

>  <Ligand effiencies>  (49) 
[-0.23172413793103447]

>  <Interactions>  (49) 
["V-A:PRO:540:CD:4887, V-A:PRO:540:N:4884, V-A:TYR:539:C:4867, V-A:TYR:531:CE2:4793, V-A:ILE:538:CD1:4865, V-A:LEU:363:CD1:3189, V-A:GLU:543:CD:4908, V-A:TYR:539:CE2:4876, V-A:PRO:540:CB:4885, V-A:PRO:540:CA:4883, V-A:TYR:539:CD2:4874, V-A:ILE:538:CG2:4863, V-B:LEU:475:CD1:9229, V-B:ARG:545:CG:9894, H-B:TYR:484:OH:9319, V-A:GLU:543:CB:4906, H-B:GLY:454:N:9021, V-B:GLY:453:C:9013, V-B:GLY:453:CA:9015, V-B:ARG:545:CD:9895, V-B:ARG:545:CZ:9898, V-B:GLY:454:CA:9020, H-A:GLU:543:OE1:4909, V-A:TYR:539:CE1:4875, V-A:TYR:539:CD1:4873, V-A:TYR:539:CZ:4877, H-A:TYR:539:N:4870, V-A:TYR:539:CG:4872, V-A:TYR:539:CA:4869, V-A:GLU:543:CG:4907, V-B:ILE:455:C:9023"]

$$$$
4bf_Grossjean_2025
     RDKit          3D

 24 26  0  0  0  0  0  0  0  0999 V2000
  127.8530  129.9630   64.3230 C   0  0  0  0  0  0  0  0  0  0  0  0
  128.2960  128.7430   65.1110 C   0  0  0  0  0  0  0  0  0  0  0  0
  128.7080  127.5820   64.4640 C   0  0  0  0  0  0  0  0  0  0  0  0
  129.1120  126.4610   65.2050 C   0  0  0  0  0  0  0  0  0  0  0  0
  129.5550  125.2040   64.4490 C   0  0  0  0  0  0  0  0  0  0  0  0
  129.0080  124.0840   64.9310 F   0  0  0  0  0  0  0  0  0  0  0  0
  129.2040  125.3000   63.1670 F   0  0  0  0  0  0  0  0  0  0  0  0
  130.8790  125.0680   64.5350 F   0  0  0  0  0  0  0  0  0  0  0  0
  129.0790  126.5720   66.6270 C   0  0  0  0  0  0  0  0  0  0  0  0
  129.4090  125.6560   67.6910 C   0  0  0  0  0  0  0  0  0  0  0  0
  129.8660  124.3840   67.4570 N   0  0  0  0  0  0  0  0  0  0  0  0
  129.2250  126.1820   68.9810 C   0  0  0  0  0  0  0  0  0  0  0  0
  129.4310  125.5240   70.2750 C   0  0  0  0  0  0  0  0  0  0  0  0
  129.3330  126.1590   71.3240 O   0  0  0  0  0  0  0  0  0  0  0  0
  129.7140  124.1990   70.2130 N   0  0  0  0  0  0  0  0  0  0  0  0
  130.0090  123.2970   71.2520 C   0  0  0  0  0  0  0  0  0  0  0  0
  131.1730  123.3140   72.0400 C   0  0  0  0  0  0  0  0  0  0  0  0
  131.3510  122.3480   73.0330 C   0  0  0  0  0  0  0  0  0  0  0  0
  130.3590  121.3830   73.2110 C   0  0  0  0  0  0  0  0  0  0  0  0
  129.2310  121.3400   72.4600 N   0  0  0  0  0  0  0  0  0  0  0  0
  129.0730  122.2860   71.4980 C   0  0  0  0  0  0  0  0  0  0  0  0
  128.6300  127.8390   68.9130 S   0  0  0  0  0  0  0  0  0  0  0  0
  128.6350  127.8190   67.1650 C   0  0  0  0  0  0  0  0  0  0  0  0
  128.2540  128.8820   66.4570 N   0  0  0  0  0  0  0  0  0  0  0  0
  1  2  1  0
  2  3  2  0
  3  4  1  0
  4  5  1  0
  5  6  1  0
  5  7  1  0
  5  8  1  0
  4  9  2  0
  9 10  1  0
 10 11  1  0
 10 12  2  0
 12 13  1  0
 13 14  2  0
 13 15  1  0
 15 16  1  0
 16 17  2  0
 17 18  1  0
 18 19  2  0
 19 20  1  0
 20 21  2  0
 12 22  1  0
 22 23  1  0
 23 24  2  0
 24  2  1  0
 23  9  1  0
 21 16  1  0
M  END
>  <Binding energies>  (50) 
[-6.62]

>  <Ligand effiencies>  (50) 
[-0.2451851851851852]

>  <Interactions>  (50) 
["V-B:GLU:543:CD:9880, V-A:GLU:543:CD:4908, V-B:GLU:543:C:9874, V-B:GLU:543:CB:9878, V-B:HIS:456:CE1:9040, H-B:LYS:547:NZ:9923, V-A:HIS:456:CE1:4069, V-A:ASP:473:CG:4240, V-A:HIS:456:CG:4066, V-A:HIS:456:CD2:4068, V-A:ASP:473:CB:4239, V-A:HIS:456:CB:4065, H-A:HIS:456:NE2:4070, V-B:GLU:543:CG:9879, V-A:TYR:484:CE1:4345, V-B:GLU:543:CA:9876, V-A:TYR:484:CZ:4347, H-A:TYR:484:OH:4348, V-B:LYS:547:CE:9922, V-B:GLY:544:CA:9886, H-B:GLU:543:O:9875, V-A:TYR:484:CD2:4344, V-A:TYR:484:CG:4342, V-A:TYR:484:CE2:4346, V-A:TYR:484:CB:4341, V-A:TYR:484:CD1:4343"]

$$$$
4bh_Grossjean_2025
     RDKit          3D

 31 33  0  0  0  0  0  0  0  0999 V2000
  123.2890  131.2790   62.0730 C   0  0  0  0  0  0  0  0  0  0  0  0
  123.7590  131.8520   63.2880 O   0  0  0  0  0  0  0  0  0  0  0  0
  124.9020  131.3460   63.8800 C   0  0  0  0  0  0  0  0  0  0  0  0
  126.1760  131.9180   63.7380 C   0  0  0  0  0  0  0  0  0  0  0  0
  127.2880  131.3530   64.3630 C   0  0  0  0  0  0  0  0  0  0  0  0
  128.6550  132.0140   64.2350 C   0  0  0  0  0  0  0  0  0  0  0  0
  129.3210  131.7370   62.9620 N   0  0  0  0  0  0  0  0  0  0  0  0
  129.0260  132.3220   61.7820 C   0  0  0  0  0  0  0  0  0  0  0  0
  128.1130  133.1410   61.6590 O   0  0  0  0  0  0  0  0  0  0  0  0
  129.8280  131.8950   60.6350 C   0  0  0  0  0  0  0  0  0  0  0  0
  131.2880  130.9440   60.8850 S   0  0  0  0  0  0  0  0  0  0  0  0
  131.6160  130.9180   59.1680 C   0  0  0  0  0  0  0  0  0  0  0  0
  132.6820  130.2890   58.6740 N   0  0  0  0  0  0  0  0  0  0  0  0
  132.8290  130.3360   57.3300 C   0  0  0  0  0  0  0  0  0  0  0  0
  134.0500  129.6150   56.7880 C   0  0  0  0  0  0  0  0  0  0  0  0
  131.9430  130.9880   56.4760 C   0  0  0  0  0  0  0  0  0  0  0  0
  130.8200  131.6540   56.9910 C   0  0  0  0  0  0  0  0  0  0  0  0
  129.8720  132.3560   56.0120 C   0  0  0  0  0  0  0  0  0  0  0  0
  129.4160  133.5240   56.4710 F   0  0  0  0  0  0  0  0  0  0  0  0
  130.5060  132.5990   54.8660 F   0  0  0  0  0  0  0  0  0  0  0  0
  128.8140  131.5800   55.7750 F   0  0  0  0  0  0  0  0  0  0  0  0
  130.6370  131.6260   58.4050 C   0  0  0  0  0  0  0  0  0  0  0  0
  129.6330  132.1860   59.2760 C   0  0  0  0  0  0  0  0  0  0  0  0
  128.5780  132.9300   58.8120 N   0  0  0  0  0  0  0  0  0  0  0  0
  127.1260  130.2200   65.1620 C   0  0  0  0  0  0  0  0  0  0  0  0
  125.8650  129.6220   65.3160 C   0  0  0  0  0  0  0  0  0  0  0  0
  125.6340  128.4920   66.0790 O   0  0  0  0  0  0  0  0  0  0  0  0
  126.6960  127.9430   66.8520 C   0  0  0  0  0  0  0  0  0  0  0  0
  124.7620  130.1920   64.6640 C   0  0  0  0  0  0  0  0  0  0  0  0
  123.5180  129.6270   64.8200 O   0  0  0  0  0  0  0  0  0  0  0  0
  123.0360  129.6540   66.1560 C   0  0  0  0  0  0  0  0  0  0  0  0
  1  2  1  0
  2  3  1  0
  3  4  2  0
  4  5  1  0
  5  6  1  0
  6  7  1  0
  7  8  1  0
  8  9  2  0
  8 10  1  0
 10 11  1  0
 11 12  1  0
 12 13  2  0
 13 14  1  0
 14 15  1  0
 14 16  2  0
 16 17  1  0
 17 18  1  0
 18 19  1  0
 18 20  1  0
 18 21  1  0
 17 22  2  0
 22 23  1  0
 23 24  1  0
  5 25  2  0
 25 26  1  0
 26 27  1  0
 27 28  1  0
 26 29  2  0
 29 30  1  0
 30 31  1  0
 29  3  1  0
 23 10  2  0
 22 12  1  0
M  END
>  <Binding energies>  (51) 
[-6.88]

>  <Ligand effiencies>  (51) 
[-0.2023529411764706]

>  <Interactions>  (51) 
["V-A:PRO:540:N:4884, V-A:ASP:366:CB:3212, V-A:TYR:539:C:4867, V-A:TYR:531:CE2:4793, V-A:TYR:531:CZ:4794, V-A:ASP:366:CG:3213, V-A:ILE:538:CA:4860, V-A:LEU:363:CD1:3189, V-A:GLU:543:CD:4908, V-A:TYR:539:CE2:4876, V-A:PRO:540:CB:4885, V-A:PRO:540:CA:4883, V-A:TYR:539:CD2:4874, V-B:LEU:475:CD1:9229, V-A:ALA:541:CB:4892, H-A:ALA:541:N:4891, V-B:HIS:456:CE1:9040, V-B:ARG:545:CG:9894, H-B:TYR:484:OH:9319, H-B:ARG:545:NE:9896, V-A:GLU:543:CB:4906, H-B:GLY:454:N:9021, V-B:GLY:453:C:9013, V-B:GLY:453:CA:9015, V-B:ILE:369:CD1:8210, V-B:ARG:545:CD:9895, V-B:ARG:545:CZ:9898, V-B:GLY:454:CA:9020, H-B:ARG:545:NH2:9900, H-B:ARG:545:NH1:9899, H-A:GLU:543:OE1:4909, V-A:TYR:539:CE1:4875, V-A:TYR:539:CD1:4873, V-A:TYR:539:CZ:4877, V-A:TYR:539:CG:4872, V-A:TYR:539:CA:4869, V-B:TYR:484:CZ:9318, V-A:LEU:363:CA:3185, H-A:TYR:539:O:4868, V-A:ILE:538:C:4858, V-A:TYR:539:CB:4871"]

$$$$
4bi_Grossjean_2025
     RDKit          3D

 23 25  0  0  0  0  0  0  0  0999 V2000
  127.9100  130.2510   65.1290 C   0  0  0  0  0  0  0  0  0  0  0  0
  128.3190  128.9580   65.8100 C   0  0  0  0  0  0  0  0  0  0  0  0
  128.6980  127.8430   65.0660 C   0  0  0  0  0  0  0  0  0  0  0  0
  129.0780  126.6540   65.7100 C   0  0  0  0  0  0  0  0  0  0  0  0
  129.4950  125.4570   64.8490 C   0  0  0  0  0  0  0  0  0  0  0  0
  129.0130  124.2970   65.3000 F   0  0  0  0  0  0  0  0  0  0  0  0
  129.0460  125.6180   63.6050 F   0  0  0  0  0  0  0  0  0  0  0  0
  130.8240  125.3570   64.8280 F   0  0  0  0  0  0  0  0  0  0  0  0
  129.0530  126.6480   67.1360 C   0  0  0  0  0  0  0  0  0  0  0  0
  129.3640  125.6390   68.1190 C   0  0  0  0  0  0  0  0  0  0  0  0
  129.7750  124.3750   67.7790 N   0  0  0  0  0  0  0  0  0  0  0  0
  129.2150  126.0670   69.4490 C   0  0  0  0  0  0  0  0  0  0  0  0
  129.4310  125.3060   70.6830 C   0  0  0  0  0  0  0  0  0  0  0  0
  129.3600  125.8580   71.7830 O   0  0  0  0  0  0  0  0  0  0  0  0
  129.6870  123.9850   70.5150 N   0  0  0  0  0  0  0  0  0  0  0  0
  129.9160  123.0360   71.5030 C   0  0  0  0  0  0  0  0  0  0  0  0
  131.0890  122.9860   72.2540 C   0  0  0  0  0  0  0  0  0  0  0  0
  130.9230  121.9190   73.1080 C   0  0  0  0  0  0  0  0  0  0  0  0
  129.7110  121.3570   72.8830 O   0  0  0  0  0  0  0  0  0  0  0  0
  129.0830  122.0730   71.8620 N   0  0  0  0  0  0  0  0  0  0  0  0
  128.6580  127.7370   69.5220 S   0  0  0  0  0  0  0  0  0  0  0  0
  128.6450  127.8580   67.7780 C   0  0  0  0  0  0  0  0  0  0  0  0
  128.2860  128.9840   67.1620 N   0  0  0  0  0  0  0  0  0  0  0  0
  1  2  1  0
  2  3  2  0
  3  4  1  0
  4  5  1  0
  5  6  1  0
  5  7  1  0
  5  8  1  0
  4  9  2  0
  9 10  1  0
 10 11  1  0
 10 12  2  0
 12 13  1  0
 13 14  2  0
 13 15  1  0
 15 16  1  0
 16 17  1  0
 17 18  2  0
 18 19  1  0
 19 20  1  0
 12 21  1  0
 21 22  1  0
 22 23  2  0
 23  2  1  0
 22  9  1  0
 20 16  2  0
M  END
>  <Binding energies>  (52) 
[-7.4]

>  <Ligand effiencies>  (52) 
[-0.2846153846153846]

>  <Interactions>  (52) 
["V-B:GLU:543:CD:9880, V-A:GLU:543:CD:4908, V-B:GLU:543:C:9874, V-B:GLU:543:CB:9878, V-B:HIS:456:CE1:9040, H-B:LYS:547:NZ:9923, V-A:HIS:456:CE1:4069, V-A:ASP:473:CG:4240, V-A:HIS:456:CG:4066, V-A:HIS:456:CD2:4068, V-A:ASP:473:CB:4239, V-A:HIS:456:CB:4065, V-A:GLU:543:CB:4906, H-A:HIS:456:NE2:4070, V-B:GLU:543:CG:9879, V-A:TYR:484:CE1:4345, V-B:GLU:543:CA:9876, V-A:TYR:484:CZ:4347, H-A:TYR:484:OH:4348, H-A:HIS:456:ND1:4067, H-B:GLU:543:O:9875, V-A:TYR:484:CD2:4344, V-A:TYR:484:CG:4342, V-A:TYR:484:CE2:4346, V-A:TYR:484:CB:4341, V-A:TYR:484:CD1:4343"]

$$$$
4bj_Grossjean_2025
     RDKit          3D

 23 25  0  0  0  0  0  0  0  0999 V2000
  127.7560  130.1940   65.1560 C   0  0  0  0  0  0  0  0  0  0  0  0
  128.2340  128.9200   65.8280 C   0  0  0  0  0  0  0  0  0  0  0  0
  128.6200  127.8130   65.0760 C   0  0  0  0  0  0  0  0  0  0  0  0
  129.0550  126.6390   65.7110 C   0  0  0  0  0  0  0  0  0  0  0  0
  129.4670  125.4460   64.8410 C   0  0  0  0  0  0  0  0  0  0  0  0
  129.0110  124.2800   65.3040 F   0  0  0  0  0  0  0  0  0  0  0  0
  128.9890  125.6010   63.6070 F   0  0  0  0  0  0  0  0  0  0  0  0
  130.7970  125.3640   64.7920 F   0  0  0  0  0  0  0  0  0  0  0  0
  129.0830  126.6400   67.1370 C   0  0  0  0  0  0  0  0  0  0  0  0
  129.4550  125.6450   68.1130 C   0  0  0  0  0  0  0  0  0  0  0  0
  129.8890  124.3910   67.7640 N   0  0  0  0  0  0  0  0  0  0  0  0
  129.3410  126.0760   69.4450 C   0  0  0  0  0  0  0  0  0  0  0  0
  129.6230  125.3290   70.6730 C   0  0  0  0  0  0  0  0  0  0  0  0
  129.6760  125.9040   71.7630 O   0  0  0  0  0  0  0  0  0  0  0  0
  129.7990  123.9940   70.5160 N   0  0  0  0  0  0  0  0  0  0  0  0
  130.0650  123.0650   71.5130 C   0  0  0  0  0  0  0  0  0  0  0  0
  129.3260  122.0410   71.8810 N   0  0  0  0  0  0  0  0  0  0  0  0
  129.8890  121.3630   72.8600 C   0  0  0  0  0  0  0  0  0  0  0  0
  131.1170  121.8380   73.3110 C   0  0  0  0  0  0  0  0  0  0  0  0
  131.5460  123.2520   72.3950 S   0  0  0  0  0  0  0  0  0  0  0  0
  128.7430  127.7310   69.5310 S   0  0  0  0  0  0  0  0  0  0  0  0
  128.6650  127.8420   67.7880 C   0  0  0  0  0  0  0  0  0  0  0  0
  128.2500  128.9530   67.1810 N   0  0  0  0  0  0  0  0  0  0  0  0
  1  2  1  0
  2  3  2  0
  3  4  1  0
  4  5  1  0
  5  6  1  0
  5  7  1  0
  5  8  1  0
  4  9  2  0
  9 10  1  0
 10 11  1  0
 10 12  2  0
 12 13  1  0
 13 14  2  0
 13 15  1  0
 15 16  1  0
 16 17  2  0
 17 18  1  0
 18 19  2  0
 19 20  1  0
 12 21  1  0
 21 22  1  0
 22 23  2  0
 23  2  1  0
 22  9  1  0
 20 16  1  0
M  END
>  <Binding energies>  (53) 
[-6.52]

>  <Ligand effiencies>  (53) 
[-0.25076923076923074]

>  <Interactions>  (53) 
["V-B:GLU:543:CD:9880, V-A:GLU:543:CD:4908, V-B:GLU:543:C:9874, V-B:GLU:543:CB:9878, V-B:HIS:456:CE1:9040, H-B:LYS:547:NZ:9923, V-A:HIS:456:CE1:4069, V-A:ASP:473:CG:4240, V-A:HIS:456:CG:4066, V-A:HIS:456:CD2:4068, V-A:ASP:473:CB:4239, V-A:HIS:456:CB:4065, V-A:GLU:543:CB:4906, H-A:HIS:456:NE2:4070, V-B:GLU:543:CG:9879, V-A:TYR:484:CE1:4345, V-B:GLU:543:CA:9876, V-A:TYR:484:CZ:4347, H-A:TYR:484:OH:4348, V-B:LYS:547:CE:9922, H-A:HIS:456:ND1:4067, H-B:GLU:543:O:9875, V-A:TYR:484:CD2:4344, V-A:TYR:484:CG:4342, V-A:TYR:484:CE2:4346, V-A:TYR:484:CB:4341, V-A:TYR:484:CD1:4343"]

$$$$
4bk_Grossjean_2025
     RDKit          3D

 28 29  0  0  0  0  0  0  0  0999 V2000
  134.5770  125.0100   66.2770 C   0  0  0  0  0  0  0  0  0  0  0  0
  134.1460  124.7630   64.9470 O   0  0  0  0  0  0  0  0  0  0  0  0
  132.9170  125.3990   64.6230 C   0  0  0  0  0  0  0  0  0  0  0  0
  131.7640  124.4010   64.7920 C   0  0  0  0  0  0  0  0  0  0  0  0
  130.8740  124.8730   65.7940 O   0  0  0  0  0  0  0  0  0  0  0  0
  130.1930  126.0690   65.4400 C   0  0  0  0  0  0  0  0  0  0  0  0
  129.5860  126.7030   66.6990 C   0  0  0  0  0  0  0  0  0  0  0  0
  128.3760  126.0330   67.0250 O   0  0  0  0  0  0  0  0  0  0  0  0
  127.2370  126.8850   67.0520 C   0  0  0  0  0  0  0  0  0  0  0  0
  126.6540  126.9120   68.4760 C   0  0  0  0  0  0  0  0  0  0  0  0
  127.6300  126.5890   69.5170 N   0  0  0  0  0  0  0  0  0  0  0  0
  127.4800  126.8460   70.8330 C   0  0  0  0  0  0  0  0  0  0  0  0
  126.4660  127.3750   71.2910 O   0  0  0  0  0  0  0  0  0  0  0  0
  128.5940  126.4500   71.6970 C   0  0  0  0  0  0  0  0  0  0  0  0
  129.2270  127.5770   72.8940 S   0  0  0  0  0  0  0  0  0  0  0  0
  130.3950  126.4010   73.4480 C   0  0  0  0  0  0  0  0  0  0  0  0
  131.2510  126.6790   74.4300 N   0  0  0  0  0  0  0  0  0  0  0  0
  132.1060  125.6880   74.7720 C   0  0  0  0  0  0  0  0  0  0  0  0
  133.0700  126.0270   75.8950 C   0  0  0  0  0  0  0  0  0  0  0  0
  132.1250  124.4370   74.1610 C   0  0  0  0  0  0  0  0  0  0  0  0
  131.2280  124.1370   73.1250 C   0  0  0  0  0  0  0  0  0  0  0  0
  131.2900  122.7490   72.4810 C   0  0  0  0  0  0  0  0  0  0  0  0
  130.4030  121.8940   72.9960 F   0  0  0  0  0  0  0  0  0  0  0  0
  131.0400  122.8460   71.1750 F   0  0  0  0  0  0  0  0  0  0  0  0
  132.5010  122.2220   72.6590 F   0  0  0  0  0  0  0  0  0  0  0  0
  130.3110  125.1610   72.7400 C   0  0  0  0  0  0  0  0  0  0  0  0
  129.2670  125.2200   71.7480 C   0  0  0  0  0  0  0  0  0  0  0  0
  128.9640  124.1660   70.9250 N   0  0  0  0  0  0  0  0  0  0  0  0
  1  2  1  0
  2  3  1  0
  3  4  1  0
  4  5  1  0
  5  6  1  0
  6  7  1  0
  7  8  1  0
  8  9  1  0
  9 10  1  0
 10 11  1  0
 11 12  1  0
 12 13  2  0
 12 14  1  0
 14 15  1  0
 15 16  1  0
 16 17  2  0
 17 18  1  0
 18 19  1  0
 18 20  2  0
 20 21  1  0
 21 22  1  0
 22 23  1  0
 22 24  1  0
 22 25  1  0
 21 26  2  0
 26 27  1  0
 27 28  1  0
 27 14  2  0
 26 16  1  0
M  END
>  <Binding energies>  (54) 
[-5.62]

>  <Ligand effiencies>  (54) 
[-0.18129032258064517]

>  <Interactions>  (54) 
["V-B:GLU:543:CD:9880, V-A:GLU:543:CD:4908, V-B:GLU:543:C:9874, V-B:GLU:543:CB:9878, V-B:GLY:544:C:9884, V-B:ARG:545:CA:9891, H-A:LYS:547:NZ:4951, V-B:HIS:456:CE1:9040, V-B:ARG:545:CG:9894, V-A:HIS:456:CE1:4069, V-A:ASP:473:CG:4240, V-A:HIS:456:CG:4066, V-A:HIS:456:CD2:4068, V-A:ASP:473:CB:4239, V-A:HIS:456:CB:4065, H-B:HIS:456:NE2:9041, H-A:GLY:454:N:4050, V-A:TYR:484:CE1:4345, V-A:GLY:453:C:4042, V-A:TYR:484:CZ:4347, H-A:TYR:484:OH:4348, V-B:GLY:544:CA:9886, H-A:ARG:545:NE:4924, V-A:ARG:545:CZ:4926, V-A:GLY:453:CA:4044, V-A:ARG:545:CD:4923, H-B:GLU:543:O:9875, V-A:LYS:547:CD:4949, V-A:TYR:484:CD2:4344, V-A:VAL:458:CG2:4087, V-A:ARG:545:CG:4922, H-B:GLY:544:O:9885, V-A:TYR:484:CG:4342, V-A:TYR:484:CE2:4346, V-A:TYR:484:CB:4341, V-A:TYR:484:CD1:4343, V-A:ASP:473:CA:4237, V-A:ASP:473:C:4235"]

$$$$
4cd_Grossjean_2025
     RDKit          3D

 29 32  0  0  0  0  0  0  0  0999 V2000
  126.5340  132.4610   63.9240 N   0  0  0  0  0  0  0  0  0  0  0  0
  127.3450  131.6190   63.2060 C   0  0  0  0  0  0  0  0  0  0  0  0
  127.6840  130.3260   63.6360 C   0  0  0  0  0  0  0  0  0  0  0  0
  127.2910  129.6410   64.8710 C   0  0  0  0  0  0  0  0  0  0  0  0
  126.2670  129.9680   65.4710 O   0  0  0  0  0  0  0  0  0  0  0  0
  128.1200  128.6470   65.2730 N   0  0  0  0  0  0  0  0  0  0  0  0
  128.0600  127.8400   66.4250 C   0  0  0  0  0  0  0  0  0  0  0  0
  129.2880  127.4940   66.9950 C   0  0  0  0  0  0  0  0  0  0  0  0
  129.3330  126.7100   68.1440 C   0  0  0  0  0  0  0  0  0  0  0  0
  128.1470  126.2750   68.7290 C   0  0  0  0  0  0  0  0  0  0  0  0
  126.9160  126.6240   68.1790 C   0  0  0  0  0  0  0  0  0  0  0  0
  126.8670  127.4090   67.0290 C   0  0  0  0  0  0  0  0  0  0  0  0
  128.7310  129.5220   62.4680 S   0  0  0  0  0  0  0  0  0  0  0  0
  128.7140  130.9210   61.4210 C   0  0  0  0  0  0  0  0  0  0  0  0
  129.3850  130.9370   60.2720 N   0  0  0  0  0  0  0  0  0  0  0  0
  129.3230  132.0750   59.5320 C   0  0  0  0  0  0  0  0  0  0  0  0
  130.0920  132.0650   58.2430 C   0  0  0  0  0  0  0  0  0  0  0  0
  131.3720  131.4920   58.1750 C   0  0  0  0  0  0  0  0  0  0  0  0
  132.0910  131.4780   56.9820 C   0  0  0  0  0  0  0  0  0  0  0  0
  131.5360  132.0390   55.8370 C   0  0  0  0  0  0  0  0  0  0  0  0
  130.2690  132.6090   55.8760 C   0  0  0  0  0  0  0  0  0  0  0  0
  129.5530  132.6190   57.0690 C   0  0  0  0  0  0  0  0  0  0  0  0
  128.5720  133.1820   59.9400 C   0  0  0  0  0  0  0  0  0  0  0  0
  127.8570  133.1740   61.1490 C   0  0  0  0  0  0  0  0  0  0  0  0
  127.0580  134.4230   61.5370 C   0  0  0  0  0  0  0  0  0  0  0  0
  127.1600  135.4090   60.6430 F   0  0  0  0  0  0  0  0  0  0  0  0
  125.7660  134.1160   61.6470 F   0  0  0  0  0  0  0  0  0  0  0  0
  127.4990  134.8960   62.7030 F   0  0  0  0  0  0  0  0  0  0  0  0
  127.9250  131.9910   61.9380 C   0  0  0  0  0  0  0  0  0  0  0  0
  1  2  1  0
  2  3  2  0
  3  4  1  0
  4  5  2  0
  4  6  1  0
  6  7  1  0
  7  8  2  0
  8  9  1  0
  9 10  2  0
 10 11  1  0
 11 12  2  0
  3 13  1  0
 13 14  1  0
 14 15  2  0
 15 16  1  0
 16 17  1  0
 17 18  2  0
 18 19  1  0
 19 20  2  0
 20 21  1  0
 21 22  2  0
 16 23  2  0
 23 24  1  0
 24 25  1  0
 25 26  1  0
 25 27  1  0
 25 28  1  0
 24 29  2  0
 29  2  1  0
 12  7  1  0
 29 14  1  0
 22 17  1  0
M  END
>  <Binding energies>  (55) 
[-7.19]

>  <Ligand effiencies>  (55) 
[-0.2246875]

>  <Interactions>  (55) 
["V-B:GLU:543:CD:9880, V-A:PRO:540:N:4884, V-A:TYR:539:C:4867, V-B:PRO:482:CB:9297, V-A:LEU:363:CD1:3189, V-A:GLU:543:CD:4908, V-A:TYR:539:CE2:4876, V-B:PRO:482:CG:9298, V-A:PRO:540:CB:4885, V-A:PRO:540:CA:4883, V-A:TYR:539:CD2:4874, V-B:LEU:475:CD1:9229, V-A:ALA:541:CB:4892, V-B:GLU:543:C:9874, V-B:GLU:543:CB:9878, V-B:HIS:456:CE1:9040, V-B:ARG:545:CG:9894, V-A:HIS:456:CE1:4069, H-B:TYR:484:OH:9319, V-B:TRP:381:CH2:8343, H-A:GLU:543:OE2:4910, H-A:GLU:543:OE1:4909, V-A:TYR:539:CE1:4875, V-A:TYR:539:CD1:4873, V-A:TYR:539:CG:4872, V-A:TYR:539:CA:4869, V-A:ALA:541:CA:4890, V-B:LEU:475:CD2:9230"]

$$$$
4cg_Grossjean_2025
     RDKit          3D

 30 33  0  0  0  0  0  0  0  0999 V2000
  125.6170  126.0810   58.7740 N   0  0  0  0  0  0  0  0  0  0  0  0
  126.5710  125.8020   59.7180 C   0  0  0  0  0  0  0  0  0  0  0  0
  126.8980  126.6800   60.7610 C   0  0  0  0  0  0  0  0  0  0  0  0
  126.3010  127.9760   61.0840 C   0  0  0  0  0  0  0  0  0  0  0  0
  125.8970  128.7350   60.2000 O   0  0  0  0  0  0  0  0  0  0  0  0
  126.2600  128.2990   62.3940 N   0  0  0  0  0  0  0  0  0  0  0  0
  125.6900  129.5270   62.9460 C   0  0  0  0  0  0  0  0  0  0  0  0
  125.3210  129.4140   64.4210 C   0  0  0  0  0  0  0  0  0  0  0  0
  126.2450  128.8920   65.3300 C   0  0  0  0  0  0  0  0  0  0  0  0
  125.9230  128.8160   66.6830 C   0  0  0  0  0  0  0  0  0  0  0  0
  124.6830  129.2710   67.1230 C   0  0  0  0  0  0  0  0  0  0  0  0
  123.7630  129.8080   66.2240 C   0  0  0  0  0  0  0  0  0  0  0  0
  124.0850  129.8850   64.8720 C   0  0  0  0  0  0  0  0  0  0  0  0
  128.1470  126.0040   61.8030 S   0  0  0  0  0  0  0  0  0  0  0  0
  128.2400  124.5600   60.8210 C   0  0  0  0  0  0  0  0  0  0  0  0
  129.0820  123.5740   61.1160 N   0  0  0  0  0  0  0  0  0  0  0  0
  129.0810  122.4880   60.2990 C   0  0  0  0  0  0  0  0  0  0  0  0
  130.0450  121.3930   60.6580 C   0  0  0  0  0  0  0  0  0  0  0  0
  131.4320  121.6130   60.6240 C   0  0  0  0  0  0  0  0  0  0  0  0
  132.3280  120.6010   60.9550 C   0  0  0  0  0  0  0  0  0  0  0  0
  131.8500  119.3480   61.3240 C   0  0  0  0  0  0  0  0  0  0  0  0
  130.4820  119.1010   61.3630 C   0  0  0  0  0  0  0  0  0  0  0  0
  129.5890  120.1160   61.0320 C   0  0  0  0  0  0  0  0  0  0  0  0
  128.2460  122.4090   59.1790 C   0  0  0  0  0  0  0  0  0  0  0  0
  127.3540  123.4440   58.8580 C   0  0  0  0  0  0  0  0  0  0  0  0
  126.4680  123.2920   57.6160 C   0  0  0  0  0  0  0  0  0  0  0  0
  125.1660  123.2550   57.9030 F   0  0  0  0  0  0  0  0  0  0  0  0
  126.6670  124.3210   56.7920 F   0  0  0  0  0  0  0  0  0  0  0  0
  126.7690  122.1590   56.9840 F   0  0  0  0  0  0  0  0  0  0  0  0
  127.3370  124.5800   59.7180 C   0  0  0  0  0  0  0  0  0  0  0  0
  1  2  1  0
  2  3  2  0
  3  4  1  0
  4  5  2  0
  4  6  1  0
  6  7  1  0
  7  8  1  0
  8  9  2  0
  9 10  1  0
 10 11  2  0
 11 12  1  0
 12 13  2  0
  3 14  1  0
 14 15  1  0
 15 16  2  0
 16 17  1  0
 17 18  1  0
 18 19  2  0
 19 20  1  0
 20 21  2  0
 21 22  1  0
 22 23  2  0
 17 24  2  0
 24 25  1  0
 25 26  1  0
 26 27  1  0
 26 28  1  0
 26 29  1  0
 25 30  2  0
 30  2  1  0
 13  8  1  0
 30 15  1  0
 23 18  1  0
M  END
>  <Binding energies>  (56) 
[-7.35]

>  <Ligand effiencies>  (56) 
[-0.22272727272727272]

>  <Interactions>  (56) 
["V-B:PRO:540:CD:9859, V-A:PRO:482:CB:4326, V-B:GLU:543:CD:9880, V-B:ALA:541:CB:9864, V-B:TYR:539:CE2:9848, V-B:TYR:539:CD2:9846, V-B:PRO:540:CB:9857, V-B:PRO:540:N:9856, H-B:ASP:366:OD1:8185, V-B:TYR:539:C:9839, V-B:LEU:363:CD1:8160, V-B:ASP:366:CG:8184, V-B:PRO:540:CA:9855, V-A:PRO:482:CG:4327, H-B:GLU:543:OE2:9882, V-B:ALA:541:CA:9862, V-A:LEU:475:CD1:4258, V-B:TYR:539:CA:9841, V-B:TYR:539:CG:9844, V-B:HIS:456:CE1:9040, V-B:ARG:545:CG:9894, H-B:GLU:543:OE1:9881, V-B:ARG:545:CD:9895, V-B:ARG:545:CZ:9898, V-A:TRP:381:CZ2:3370, V-B:GLY:454:CA:9020, V-A:TRP:381:CH2:3372, V-B:TYR:484:CZ:9318"]

$$$$
4ch_Grossjean_2025
     RDKit          3D

 36 39  0  0  0  0  0  0  0  0999 V2000
  127.4560  123.1800   55.2710 C   0  0  0  0  0  0  0  0  0  0  0  0
  126.9970  122.2030   56.1990 O   0  0  0  0  0  0  0  0  0  0  0  0
  126.9080  122.5300   57.5400 C   0  0  0  0  0  0  0  0  0  0  0  0
  127.8720  122.1770   58.4990 C   0  0  0  0  0  0  0  0  0  0  0  0
  127.7170  122.5430   59.8370 C   0  0  0  0  0  0  0  0  0  0  0  0
  128.7600  122.1280   60.8680 C   0  0  0  0  0  0  0  0  0  0  0  0
  128.7430  122.9260   62.0950 N   0  0  0  0  0  0  0  0  0  0  0  0
  129.7220  123.7610   62.5010 C   0  0  0  0  0  0  0  0  0  0  0  0
  130.7450  123.9540   61.8400 O   0  0  0  0  0  0  0  0  0  0  0  0
  129.4860  124.4600   63.7650 C   0  0  0  0  0  0  0  0  0  0  0  0
  129.8220  123.6550   65.2940 S   0  0  0  0  0  0  0  0  0  0  0  0
  129.3390  125.0710   66.1960 C   0  0  0  0  0  0  0  0  0  0  0  0
  129.3650  125.0900   67.5260 N   0  0  0  0  0  0  0  0  0  0  0  0
  128.9770  126.2380   68.1400 C   0  0  0  0  0  0  0  0  0  0  0  0
  129.0110  126.2250   69.6410 C   0  0  0  0  0  0  0  0  0  0  0  0
  128.6890  127.3760   70.3780 C   0  0  0  0  0  0  0  0  0  0  0  0
  128.7200  127.3710   71.7700 C   0  0  0  0  0  0  0  0  0  0  0  0
  129.0740  126.2100   72.4480 C   0  0  0  0  0  0  0  0  0  0  0  0
  129.4010  125.0560   71.7430 C   0  0  0  0  0  0  0  0  0  0  0  0
  129.3710  125.0670   70.3510 C   0  0  0  0  0  0  0  0  0  0  0  0
  128.5490  127.3550   67.4150 C   0  0  0  0  0  0  0  0  0  0  0  0
  128.5170  127.3460   66.0110 C   0  0  0  0  0  0  0  0  0  0  0  0
  128.0370  128.6040   65.2790 C   0  0  0  0  0  0  0  0  0  0  0  0
  128.6970  128.8330   64.1410 F   0  0  0  0  0  0  0  0  0  0  0  0
  126.7460  128.4840   64.9730 F   0  0  0  0  0  0  0  0  0  0  0  0
  128.2070  129.6720   66.0580 F   0  0  0  0  0  0  0  0  0  0  0  0
  128.9340  126.1510   65.3570 C   0  0  0  0  0  0  0  0  0  0  0  0
  129.0400  125.7750   63.9680 C   0  0  0  0  0  0  0  0  0  0  0  0
  128.7220  126.6260   62.9410 N   0  0  0  0  0  0  0  0  0  0  0  0
  126.5820  123.2540   60.2290 C   0  0  0  0  0  0  0  0  0  0  0  0
  125.6020  123.6180   59.2920 C   0  0  0  0  0  0  0  0  0  0  0  0
  124.4550  124.3220   59.6100 O   0  0  0  0  0  0  0  0  0  0  0  0
  123.5950  123.8330   60.6340 C   0  0  0  0  0  0  0  0  0  0  0  0
  125.7800  123.2550   57.9490 C   0  0  0  0  0  0  0  0  0  0  0  0
  124.8220  123.5920   57.0250 O   0  0  0  0  0  0  0  0  0  0  0  0
  124.7520  124.9840   56.7440 C   0  0  0  0  0  0  0  0  0  0  0  0
  1  2  1  0
  2  3  1  0
  3  4  2  0
  4  5  1  0
  5  6  1  0
  6  7  1  0
  7  8  1  0
  8  9  2  0
  8 10  1  0
 10 11  1  0
 11 12  1  0
 12 13  2  0
 13 14  1  0
 14 15  1  0
 15 16  2  0
 16 17  1  0
 17 18  2  0
 18 19  1  0
 19 20  2  0
 14 21  2  0
 21 22  1  0
 22 23  1  0
 23 24  1  0
 23 25  1  0
 23 26  1  0
 22 27  2  0
 27 28  1  0
 28 29  1  0
  5 30  2  0
 30 31  1  0
 31 32  1  0
 32 33  1  0
 31 34  2  0
 34 35  1  0
 35 36  1  0
 34  3  1  0
 28 10  2  0
 27 12  1  0
 20 15  1  0
M  END
>  <Binding energies>  (57) 
[-7.54]

>  <Ligand effiencies>  (57) 
[-0.19333333333333333]

>  <Interactions>  (57) 
["V-B:PRO:540:CD:9859, V-B:LEU:363:CA:8156, V-B:GLU:543:CD:9880, V-B:ALA:541:CB:9864, V-B:TYR:539:CE2:9848, V-B:TYR:539:CD2:9846, V-B:PRO:540:CB:9857, V-B:PRO:540:N:9856, V-B:TYR:539:C:9839, V-B:LEU:363:CD1:8160, V-B:PRO:540:C:9853, V-B:PRO:540:CA:9855, V-B:TYR:539:CZ:9849, V-B:ASN:362:CB:8147, V-B:ASN:362:C:8143, H-B:GLU:543:OE2:9882, V-A:GLU:543:CD:4908, V-B:TYR:531:CE2:9765, V-B:TYR:539:CG:9844, H-B:TYR:539:N:9842, V-B:GLU:543:CB:9878, V-B:HIS:456:CD2:9039, V-B:HIS:456:CE1:9040, V-A:HIS:456:CE1:4069, V-A:HIS:456:CD2:4068, H-B:GLU:543:OE1:9881, V-A:GLU:543:CB:4906, V-B:GLU:543:CG:9879, V-A:TYR:484:CE1:4345, V-B:GLU:543:CA:9876, V-A:TYR:484:CZ:4347, H-A:TYR:484:OH:4348, V-A:GLU:543:CG:4907, V-B:ILE:538:CA:9832, V-B:TYR:539:CE1:9847, V-B:TYR:539:CD1:9845"]

$$$$
4cj_Grossjean_2025
     RDKit          3D

 28 31  0  0  0  0  0  0  0  0999 V2000
  130.3070  124.7030   68.1380 N   0  0  0  0  0  0  0  0  0  0  0  0
  129.2690  125.5570   68.4140 C   0  0  0  0  0  0  0  0  0  0  0  0
  128.6940  125.6810   69.6890 C   0  0  0  0  0  0  0  0  0  0  0  0
  129.0540  124.9820   70.9260 C   0  0  0  0  0  0  0  0  0  0  0  0
  128.8890  125.5180   72.0240 O   0  0  0  0  0  0  0  0  0  0  0  0
  129.5760  123.7410   70.7620 N   0  0  0  0  0  0  0  0  0  0  0  0
  129.9950  122.8750   71.7630 C   0  0  0  0  0  0  0  0  0  0  0  0
  129.4080  121.7700   72.1720 N   0  0  0  0  0  0  0  0  0  0  0  0
  130.0870  121.1920   73.1430 C   0  0  0  0  0  0  0  0  0  0  0  0
  131.2570  121.8320   73.5430 C   0  0  0  0  0  0  0  0  0  0  0  0
  131.4700  123.2690   72.5860 S   0  0  0  0  0  0  0  0  0  0  0  0
  127.3970  126.8730   69.6900 S   0  0  0  0  0  0  0  0  0  0  0  0
  127.6320  127.1940   67.9870 C   0  0  0  0  0  0  0  0  0  0  0  0
  126.8880  128.0880   67.3410 N   0  0  0  0  0  0  0  0  0  0  0  0
  127.1480  128.2750   66.0210 C   0  0  0  0  0  0  0  0  0  0  0  0
  126.3000  129.3010   65.3250 C   0  0  0  0  0  0  0  0  0  0  0  0
  124.9200  129.3790   65.5710 C   0  0  0  0  0  0  0  0  0  0  0  0
  124.1270  130.3240   64.9240 C   0  0  0  0  0  0  0  0  0  0  0  0
  124.7060  131.2050   64.0160 C   0  0  0  0  0  0  0  0  0  0  0  0
  126.0700  131.1480   63.7520 C   0  0  0  0  0  0  0  0  0  0  0  0
  126.8580  130.2030   64.4020 C   0  0  0  0  0  0  0  0  0  0  0  0
  128.1360  127.5460   65.3520 C   0  0  0  0  0  0  0  0  0  0  0  0
  128.9250  126.5980   66.0240 C   0  0  0  0  0  0  0  0  0  0  0  0
  129.9930  125.8360   65.2310 C   0  0  0  0  0  0  0  0  0  0  0  0
  131.1990  125.8790   65.8000 F   0  0  0  0  0  0  0  0  0  0  0  0
  129.6450  124.5540   65.1260 F   0  0  0  0  0  0  0  0  0  0  0  0
  130.1090  126.3610   64.0110 F   0  0  0  0  0  0  0  0  0  0  0  0
  128.6730  126.4080   67.4130 C   0  0  0  0  0  0  0  0  0  0  0  0
  1  2  1  0
  2  3  2  0
  3  4  1  0
  4  5  2  0
  4  6  1  0
  6  7  1  0
  7  8  2  0
  8  9  1  0
  9 10  2  0
 10 11  1  0
  3 12  1  0
 12 13  1  0
 13 14  2  0
 14 15  1  0
 15 16  1  0
 16 17  2  0
 17 18  1  0
 18 19  2  0
 19 20  1  0
 20 21  2  0
 15 22  2  0
 22 23  1  0
 23 24  1  0
 24 25  1  0
 24 26  1  0
 24 27  1  0
 23 28  2  0
 28  2  1  0
 11  7  1  0
 28 13  1  0
 21 16  1  0
M  END
>  <Binding energies>  (58) 
[-7.66]

>  <Ligand effiencies>  (58) 
[-0.2470967741935484]

>  <Interactions>  (58) 
["V-B:GLU:543:CD:9880, V-A:GLU:543:CD:4908, V-B:GLU:543:C:9874, V-B:GLU:543:CB:9878, V-B:GLY:544:C:9884, V-B:HIS:456:CE1:9040, H-B:LYS:547:NZ:9923, V-A:HIS:456:CE1:4069, V-A:ASP:473:CG:4240, V-A:HIS:456:CG:4066, V-A:HIS:456:CD2:4068, V-A:ASP:473:CB:4239, V-A:HIS:456:CB:4065, V-B:ARG:545:CD:9895, V-B:ARG:545:CZ:9898, V-B:GLU:543:CG:9879, V-B:GLY:454:CA:9020, V-A:TYR:484:CE1:4345, V-A:TYR:484:CZ:4347, H-A:TYR:484:OH:4348, H-A:HIS:456:ND1:4067, H-B:GLU:543:O:9875, V-A:TYR:484:CD2:4344, V-A:TYR:484:CG:4342, V-A:TYR:484:CE2:4346, V-A:TYR:484:CB:4341, V-A:TYR:484:CD1:4343"]

$$$$
4ck_Grossjean_2025
     RDKit          3D

 33 35  0  0  0  0  0  0  0  0999 V2000
  134.6380  124.3100   75.3100 C   0  0  0  0  0  0  0  0  0  0  0  0
  135.0610  125.5900   74.8670 O   0  0  0  0  0  0  0  0  0  0  0  0
  133.9870  126.4500   74.5140 C   0  0  0  0  0  0  0  0  0  0  0  0
  132.8410  126.2570   75.5150 C   0  0  0  0  0  0  0  0  0  0  0  0
  131.6410  126.7690   74.9520 O   0  0  0  0  0  0  0  0  0  0  0  0
  130.6250  125.7880   74.7900 C   0  0  0  0  0  0  0  0  0  0  0  0
  131.2680  124.4670   74.3510 C   0  0  0  0  0  0  0  0  0  0  0  0
  131.3950  124.4680   72.9360 O   0  0  0  0  0  0  0  0  0  0  0  0
  131.4210  123.1670   72.3600 C   0  0  0  0  0  0  0  0  0  0  0  0
  130.0210  122.8050   71.8420 C   0  0  0  0  0  0  0  0  0  0  0  0
  129.5890  123.6910   70.7600 N   0  0  0  0  0  0  0  0  0  0  0  0
  129.0920  124.9360   70.9090 C   0  0  0  0  0  0  0  0  0  0  0  0
  128.9750  125.4790   72.0100 O   0  0  0  0  0  0  0  0  0  0  0  0
  128.7040  125.6220   69.6760 C   0  0  0  0  0  0  0  0  0  0  0  0
  127.4170  126.8250   69.7010 S   0  0  0  0  0  0  0  0  0  0  0  0
  127.6310  127.1510   67.9970 C   0  0  0  0  0  0  0  0  0  0  0  0
  126.8840  128.0510   67.3630 N   0  0  0  0  0  0  0  0  0  0  0  0
  127.1220  128.2350   66.0380 C   0  0  0  0  0  0  0  0  0  0  0  0
  126.2750  129.2700   65.3560 C   0  0  0  0  0  0  0  0  0  0  0  0
  124.9040  129.3790   65.6400 C   0  0  0  0  0  0  0  0  0  0  0  0
  124.1120  130.3360   65.0090 C   0  0  0  0  0  0  0  0  0  0  0  0
  124.6830  131.2010   64.0820 C   0  0  0  0  0  0  0  0  0  0  0  0
  126.0390  131.1190   63.7850 C   0  0  0  0  0  0  0  0  0  0  0  0
  126.8280  130.1610   64.4190 C   0  0  0  0  0  0  0  0  0  0  0  0
  128.1150  127.5210   65.3590 C   0  0  0  0  0  0  0  0  0  0  0  0
  128.9080  126.5690   66.0180 C   0  0  0  0  0  0  0  0  0  0  0  0
  129.9760  125.8190   65.2130 C   0  0  0  0  0  0  0  0  0  0  0  0
  129.6930  124.5260   65.0430 F   0  0  0  0  0  0  0  0  0  0  0  0
  130.0930  126.3640   64.0020 F   0  0  0  0  0  0  0  0  0  0  0  0
  131.1480  125.8920   65.8430 F   0  0  0  0  0  0  0  0  0  0  0  0
  128.6650  126.3660   67.4070 C   0  0  0  0  0  0  0  0  0  0  0  0
  129.2670  125.5040   68.3960 C   0  0  0  0  0  0  0  0  0  0  0  0
  130.2960  124.6450   68.1060 N   0  0  0  0  0  0  0  0  0  0  0  0
  1  2  1  0
  2  3  1  0
  3  4  1  0
  4  5  1  0
  5  6  1  0
  6  7  1  0
  7  8  1  0
  8  9  1  0
  9 10  1  0
 10 11  1  0
 11 12  1  0
 12 13  2  0
 12 14  1  0
 14 15  1  0
 15 16  1  0
 16 17  2  0
 17 18  1  0
 18 19  1  0
 19 20  2  0
 20 21  1  0
 21 22  2  0
 22 23  1  0
 23 24  2  0
 18 25  2  0
 25 26  1  0
 26 27  1  0
 27 28  1  0
 27 29  1  0
 27 30  1  0
 26 31  2  0
 31 32  1  0
 32 33  1  0
 32 14  2  0
 31 16  1  0
 24 19  1  0
M  END
>  <Binding energies>  (59) 
[-6.74]

>  <Ligand effiencies>  (59) 
[-0.18722222222222223]

>  <Interactions>  (59) 
["V-B:GLU:543:CD:9880, V-A:GLU:543:CD:4908, V-B:GLU:543:C:9874, V-B:GLU:543:CB:9878, V-B:GLY:544:C:9884, H-A:LYS:547:NZ:4951, V-B:HIS:456:CE1:9040, H-B:LYS:547:NZ:9923, V-A:HIS:456:CE1:4069, V-A:HIS:456:CG:4066, V-A:HIS:456:CD2:4068, V-A:HIS:456:C:4061, V-A:HIS:456:CB:4065, V-B:ARG:545:CD:9895, V-B:ARG:545:CZ:9898, V-B:GLU:543:CG:9879, V-B:GLY:454:CA:9020, V-A:TYR:484:CE1:4345, V-A:TYR:484:CZ:4347, H-A:TYR:484:OH:4348, H-A:HIS:456:ND1:4067, H-B:GLU:543:O:9875, V-A:LYS:547:CD:4949, V-A:TYR:484:CD2:4344, V-A:VAL:458:CG2:4087, V-A:TYR:484:CG:4342, V-A:TYR:484:CE2:4346, V-A:TYR:484:CB:4341, V-A:TYR:484:CD1:4343, H-A:VAL:457:N:4076"]

$$$$
4dd_Grossjean_2025
     RDKit          3D

 26 29  0  0  0  0  0  0  0  0999 V2000
  122.9270  130.9890   60.1590 C   0  0  0  0  0  0  0  0  0  0  0  0
  124.1820  130.6430   60.9460 C   0  0  0  0  0  0  0  0  0  0  0  0
  124.0490  130.3650   62.3120 C   0  0  0  0  0  0  0  0  0  0  0  0
  125.1660  130.0390   63.0910 C   0  0  0  0  0  0  0  0  0  0  0  0
  125.0540  129.7420   64.5570 C   0  0  0  0  0  0  0  0  0  0  0  0
  126.1340  129.1900   65.2640 C   0  0  0  0  0  0  0  0  0  0  0  0
  126.0380  128.9150   66.6260 C   0  0  0  0  0  0  0  0  0  0  0  0
  124.8550  129.1870   67.3030 C   0  0  0  0  0  0  0  0  0  0  0  0
  123.7700  129.7360   66.6290 C   0  0  0  0  0  0  0  0  0  0  0  0
  123.8700  130.0120   65.2670 C   0  0  0  0  0  0  0  0  0  0  0  0
  126.4200  129.9910   62.5650 N   0  0  0  0  0  0  0  0  0  0  0  0
  126.5470  130.2490   61.2650 C   0  0  0  0  0  0  0  0  0  0  0  0
  128.0980  130.2040   60.4560 S   0  0  0  0  0  0  0  0  0  0  0  0
  127.3580  130.6290   58.9110 C   0  0  0  0  0  0  0  0  0  0  0  0
  128.1780  130.7500   57.7050 C   0  0  0  0  0  0  0  0  0  0  0  0
  127.9220  130.0830   56.7010 O   0  0  0  0  0  0  0  0  0  0  0  0
  129.2020  131.6350   57.7850 N   0  0  0  0  0  0  0  0  0  0  0  0
  130.1940  131.9470   56.8390 C   0  0  0  0  0  0  0  0  0  0  0  0
  131.5150  131.8610   57.2880 C   0  0  0  0  0  0  0  0  0  0  0  0
  132.5710  132.1360   56.4220 C   0  0  0  0  0  0  0  0  0  0  0  0
  132.3060  132.4890   55.1020 C   0  0  0  0  0  0  0  0  0  0  0  0
  130.9960  132.5660   54.6380 C   0  0  0  0  0  0  0  0  0  0  0  0
  129.9380  132.2930   55.5010 C   0  0  0  0  0  0  0  0  0  0  0  0
  125.9710  130.7980   59.0450 C   0  0  0  0  0  0  0  0  0  0  0  0
  125.1390  131.1360   58.0060 N   0  0  0  0  0  0  0  0  0  0  0  0
  125.4820  130.5830   60.3810 C   0  0  0  0  0  0  0  0  0  0  0  0
  1  2  1  0
  2  3  2  0
  3  4  1  0
  4  5  1  0
  5  6  2  0
  6  7  1  0
  7  8  2  0
  8  9  1  0
  9 10  2  0
  4 11  2  0
 11 12  1  0
 12 13  1  0
 13 14  1  0
 14 15  1  0
 15 16  2  0
 15 17  1  0
 17 18  1  0
 18 19  2  0
 19 20  1  0
 20 21  2  0
 21 22  1  0
 22 23  2  0
 14 24  2  0
 24 25  1  0
 24 26  1  0
 26  2  1  0
 10  5  1  0
 26 12  2  0
 23 18  1  0
M  END
>  <Binding energies>  (60) 
[-7.65]

>  <Ligand effiencies>  (60) 
[-0.2637931034482759]

>  <Interactions>  (60) 
["V-B:ASP:366:CG:8184, V-A:PRO:540:CD:4887, V-A:PRO:540:N:4884, V-A:PRO:540:CG:4886, V-A:TYR:531:CE2:4793, V-A:ILE:538:CD1:4865, V-A:ILE:538:CA:4860, V-A:LEU:363:CD1:3189, V-A:TYR:539:CE2:4876, V-A:PRO:540:CB:4885, V-A:PRO:540:CA:4883, V-A:ILE:538:CG2:4863, V-B:ASP:366:CB:8183, V-B:HIS:456:CE1:9040, V-B:ARG:545:CG:9894, V-B:ILE:369:CD1:8210, V-B:ARG:545:CD:9895, V-B:ILE:369:CG2:8208, V-B:ARG:545:CZ:9898, V-B:GLY:454:CA:9020, V-A:TYR:539:CE1:4875, V-A:TYR:539:CD1:4873, V-A:TYR:539:CZ:4877, V-B:TYR:484:CZ:9318, H-A:TYR:539:OH:4878, V-B:ASP:366:CA:8181, H-A:TYR:539:O:4868, V-B:ILE:455:C:9023, V-B:ILE:369:CB:8207"]

$$$$
4dg_Grossjean_2025
     RDKit          3D

 27 30  0  0  0  0  0  0  0  0999 V2000
  122.9350  131.1600   59.4860 C   0  0  0  0  0  0  0  0  0  0  0  0
  124.4040  131.0620   59.8680 C   0  0  0  0  0  0  0  0  0  0  0  0
  125.3610  131.2930   58.8740 C   0  0  0  0  0  0  0  0  0  0  0  0
  126.7300  131.2190   59.1610 C   0  0  0  0  0  0  0  0  0  0  0  0
  127.7810  131.4630   58.1150 C   0  0  0  0  0  0  0  0  0  0  0  0
  128.8310  132.3660   58.3460 C   0  0  0  0  0  0  0  0  0  0  0  0
  129.8060  132.6000   57.3790 C   0  0  0  0  0  0  0  0  0  0  0  0
  129.7440  131.9310   56.1610 C   0  0  0  0  0  0  0  0  0  0  0  0
  128.7120  131.0340   55.9040 C   0  0  0  0  0  0  0  0  0  0  0  0
  127.7400  130.8040   56.8730 C   0  0  0  0  0  0  0  0  0  0  0  0
  127.1870  130.9380   60.4120 N   0  0  0  0  0  0  0  0  0  0  0  0
  126.2760  130.7170   61.3590 C   0  0  0  0  0  0  0  0  0  0  0  0
  126.7260  130.3400   63.0060 S   0  0  0  0  0  0  0  0  0  0  0  0
  125.0350  130.2280   63.4890 C   0  0  0  0  0  0  0  0  0  0  0  0
  124.6850  129.8680   64.8620 C   0  0  0  0  0  0  0  0  0  0  0  0
  123.7800  130.4460   65.4670 O   0  0  0  0  0  0  0  0  0  0  0  0
  125.4360  128.9000   65.4270 N   0  0  0  0  0  0  0  0  0  0  0  0
  125.2540  128.3650   66.7760 C   0  0  0  0  0  0  0  0  0  0  0  0
  126.5160  127.7320   67.3520 C   0  0  0  0  0  0  0  0  0  0  0  0
  126.4190  126.8500   68.4330 C   0  0  0  0  0  0  0  0  0  0  0  0
  127.5650  126.2460   68.9410 C   0  0  0  0  0  0  0  0  0  0  0  0
  128.8020  126.5160   68.3610 C   0  0  0  0  0  0  0  0  0  0  0  0
  128.9050  127.3810   67.2740 C   0  0  0  0  0  0  0  0  0  0  0  0
  127.7580  127.9850   66.7640 C   0  0  0  0  0  0  0  0  0  0  0  0
  124.1780  130.4600   62.4030 C   0  0  0  0  0  0  0  0  0  0  0  0
  122.8090  130.4220   62.4880 N   0  0  0  0  0  0  0  0  0  0  0  0
  124.8650  130.7550   61.1740 C   0  0  0  0  0  0  0  0  0  0  0  0
  1  2  1  0
  2  3  2  0
  3  4  1  0
  4  5  1  0
  5  6  2  0
  6  7  1  0
  7  8  2  0
  8  9  1  0
  9 10  2  0
  4 11  2  0
 11 12  1  0
 12 13  1  0
 13 14  1  0
 14 15  1  0
 15 16  2  0
 15 17  1  0
 17 18  1  0
 18 19  1  0
 19 20  2  0
 20 21  1  0
 21 22  2  0
 22 23  1  0
 23 24  2  0
 14 25  2  0
 25 26  1  0
 25 27  1  0
 27  2  1  0
 10  5  1  0
 27 12  2  0
 24 19  1  0
M  END
>  <Binding energies>  (61) 
[-8.1]

>  <Ligand effiencies>  (61) 
[-0.26999999999999996]

>  <Interactions>  (61) 
["H-B:ASP:366:OD1:8185, V-B:ASP:366:CG:8184, V-A:PRO:540:N:4884, V-A:TYR:539:C:4867, V-A:TYR:539:CE2:4876, V-A:PRO:540:CA:4883, V-A:TYR:539:CD2:4874, V-B:ASP:366:CB:8183, V-B:GLU:543:C:9874, V-B:GLU:543:CB:9878, V-B:GLY:544:C:9884, V-B:ARG:545:CA:9891, V-B:HIS:456:CE1:9040, V-B:ARG:545:CG:9894, V-A:HIS:456:CE1:4069, H-B:GLU:543:OE1:9881, H-B:TYR:484:OH:9319, H-B:GLY:454:N:9021, V-B:GLY:453:C:9013, V-B:GLY:453:CA:9015, V-B:ILE:369:CD1:8210, V-B:ARG:545:CD:9895, V-B:ILE:369:CG2:8208, V-B:ARG:545:CZ:9898, H-B:ILE:455:N:9026, V-A:TYR:539:CE1:4875, H-B:ASP:366:OD2:8186, V-A:TYR:539:CD1:4873, V-A:TYR:539:CZ:4877, V-A:TYR:539:CG:4872, V-B:ASP:366:CA:8181, V-B:ASP:366:C:8179, V-B:ILE:369:CB:8207"]

$$$$
4dj_Grossjean_2025
     RDKit          3D

 25 28  0  0  0  0  0  0  0  0999 V2000
  129.2780  125.3010   64.8750 C   0  0  0  0  0  0  0  0  0  0  0  0
  128.8620  126.5080   65.7040 C   0  0  0  0  0  0  0  0  0  0  0  0
  128.3760  127.6340   65.0310 C   0  0  0  0  0  0  0  0  0  0  0  0
  127.9790  128.7780   65.7350 C   0  0  0  0  0  0  0  0  0  0  0  0
  127.4480  129.9990   65.0400 C   0  0  0  0  0  0  0  0  0  0  0  0
  128.2470  131.1440   64.8840 C   0  0  0  0  0  0  0  0  0  0  0  0
  127.7620  132.2800   64.2410 C   0  0  0  0  0  0  0  0  0  0  0  0
  126.4610  132.2880   63.7470 C   0  0  0  0  0  0  0  0  0  0  0  0
  125.6460  131.1710   63.8910 C   0  0  0  0  0  0  0  0  0  0  0  0
  126.1370  130.0380   64.5330 C   0  0  0  0  0  0  0  0  0  0  0  0
  128.0310  128.8390   67.0940 N   0  0  0  0  0  0  0  0  0  0  0  0
  128.4950  127.7680   67.7360 C   0  0  0  0  0  0  0  0  0  0  0  0
  128.6230  127.7140   69.4800 S   0  0  0  0  0  0  0  0  0  0  0  0
  129.2670  126.0710   69.4280 C   0  0  0  0  0  0  0  0  0  0  0  0
  129.6260  125.3780   70.6660 C   0  0  0  0  0  0  0  0  0  0  0  0
  129.7720  126.0050   71.7200 O   0  0  0  0  0  0  0  0  0  0  0  0
  129.7870  124.0370   70.5590 N   0  0  0  0  0  0  0  0  0  0  0  0
  130.1280  123.1530   71.5730 C   0  0  0  0  0  0  0  0  0  0  0  0
  129.5560  122.0050   71.8710 N   0  0  0  0  0  0  0  0  0  0  0  0
  130.1410  121.4250   72.9000 C   0  0  0  0  0  0  0  0  0  0  0  0
  131.2180  122.1050   73.4610 C   0  0  0  0  0  0  0  0  0  0  0  0
  131.4680  123.5870   72.5860 S   0  0  0  0  0  0  0  0  0  0  0  0
  129.3710  125.6100   68.1070 C   0  0  0  0  0  0  0  0  0  0  0  0
  129.8440  124.3670   67.7670 N   0  0  0  0  0  0  0  0  0  0  0  0
  128.9330  126.5600   67.1200 C   0  0  0  0  0  0  0  0  0  0  0  0
  1  2  1  0
  2  3  2  0
  3  4  1  0
  4  5  1  0
  5  6  2  0
  6  7  1  0
  7  8  2  0
  8  9  1  0
  9 10  2  0
  4 11  2  0
 11 12  1  0
 12 13  1  0
 13 14  1  0
 14 15  1  0
 15 16  2  0
 15 17  1  0
 17 18  1  0
 18 19  2  0
 19 20  1  0
 20 21  2  0
 21 22  1  0
 14 23  2  0
 23 24  1  0
 23 25  1  0
 25  2  1  0
 10  5  1  0
 25 12  2  0
 22 18  1  0
M  END
>  <Binding energies>  (62) 
[-8.01]

>  <Ligand effiencies>  (62) 
[-0.2860714285714286]

>  <Interactions>  (62) 
["V-B:GLU:543:CD:9880, V-A:GLU:543:CD:4908, V-B:LEU:475:CD1:9229, V-A:ALA:541:CB:4892, V-B:GLU:543:C:9874, V-B:GLU:543:CB:9878, V-B:HIS:456:CE1:9040, H-B:LYS:547:NZ:9923, V-A:HIS:456:CE1:4069, V-A:ASP:473:CG:4240, V-A:HIS:456:CG:4066, V-A:HIS:456:CD2:4068, V-A:ASP:473:CB:4239, V-A:HIS:456:CB:4065, V-A:GLU:543:CB:4906, H-A:HIS:456:NE2:4070, V-B:GLU:543:CG:9879, V-A:TYR:484:CE1:4345, V-B:GLU:543:CA:9876, V-A:TYR:484:CZ:4347, H-A:TYR:484:OH:4348, H-A:HIS:456:ND1:4067, H-B:GLU:543:O:9875, V-A:TYR:484:CD2:4344, V-A:TYR:484:CG:4342, V-A:TYR:484:CE2:4346, V-A:TYR:484:CB:4341, V-A:TYR:484:CD1:4343"]

$$$$
4ea_Grossjean_2025
     RDKit          3D

 31 34  0  0  0  0  0  0  0  0999 V2000
  129.3440  131.1730   54.8990 C   0  0  0  0  0  0  0  0  0  0  0  0
  129.8460  132.6190   54.9200 C   0  0  0  0  0  0  0  0  0  0  0  0
  130.1470  132.9960   56.2570 O   0  0  0  0  0  0  0  0  0  0  0  0
  131.2500  132.5200   56.8890 C   0  0  0  0  0  0  0  0  0  0  0  0
  132.4010  132.7160   56.4870 O   0  0  0  0  0  0  0  0  0  0  0  0
  130.9320  131.7310   58.1270 C   0  0  0  0  0  0  0  0  0  0  0  0
  129.8380  132.1110   58.9150 C   0  0  0  0  0  0  0  0  0  0  0  0
  129.5160  131.4010   60.0680 C   0  0  0  0  0  0  0  0  0  0  0  0
  130.2780  130.2980   60.4570 C   0  0  0  0  0  0  0  0  0  0  0  0
  129.8590  129.6580   61.6390 N   0  0  0  0  0  0  0  0  0  0  0  0
  128.6340  129.5900   62.2150 C   0  0  0  0  0  0  0  0  0  0  0  0
  127.6220  130.1200   61.7550 O   0  0  0  0  0  0  0  0  0  0  0  0
  128.5710  128.8240   63.4620 C   0  0  0  0  0  0  0  0  0  0  0  0
  127.4560  129.2960   64.7470 S   0  0  0  0  0  0  0  0  0  0  0  0
  127.9870  127.9750   65.7610 C   0  0  0  0  0  0  0  0  0  0  0  0
  127.4760  127.7690   66.9760 N   0  0  0  0  0  0  0  0  0  0  0  0
  127.9740  126.7100   67.6600 C   0  0  0  0  0  0  0  0  0  0  0  0
  127.3790  126.4940   69.0390 C   0  0  0  0  0  0  0  0  0  0  0  0
  128.9610  125.8610   67.1640 C   0  0  0  0  0  0  0  0  0  0  0  0
  129.4940  126.0800   65.8890 C   0  0  0  0  0  0  0  0  0  0  0  0
  130.5420  125.1690   65.3750 C   0  0  0  0  0  0  0  0  0  0  0  0
  131.8920  125.5150   65.4900 C   0  0  0  0  0  0  0  0  0  0  0  0
  132.8780  124.6580   65.0090 C   0  0  0  0  0  0  0  0  0  0  0  0
  132.5130  123.4550   64.4090 C   0  0  0  0  0  0  0  0  0  0  0  0
  131.1710  123.1030   64.2850 C   0  0  0  0  0  0  0  0  0  0  0  0
  130.1860  123.9610   64.7660 C   0  0  0  0  0  0  0  0  0  0  0  0
  128.9980  127.1820   65.1380 C   0  0  0  0  0  0  0  0  0  0  0  0
  129.3120  127.6880   63.8270 C   0  0  0  0  0  0  0  0  0  0  0  0
  130.2540  127.1010   63.0220 N   0  0  0  0  0  0  0  0  0  0  0  0
  131.3760  129.9110   59.6730 C   0  0  0  0  0  0  0  0  0  0  0  0
  131.6960  130.6230   58.5200 C   0  0  0  0  0  0  0  0  0  0  0  0
  1  2  1  0
  2  3  1  0
  3  4  1  0
  4  5  2  0
  4  6  1  0
  6  7  2  0
  7  8  1  0
  8  9  2  0
  9 10  1  0
 10 11  1  0
 11 12  2  0
 11 13  1  0
 13 14  1  0
 14 15  1  0
 15 16  2  0
 16 17  1  0
 17 18  1  0
 17 19  2  0
 19 20  1  0
 20 21  1  0
 21 22  2  0
 22 23  1  0
 23 24  2  0
 24 25  1  0
 25 26  2  0
 20 27  2  0
 27 28  1  0
 28 29  1  0
  9 30  1  0
 30 31  2  0
 31  6  1  0
 28 13  2  0
 27 15  1  0
 26 21  1  0
M  END
>  <Binding energies>  (63) 
[-8.24]

>  <Ligand effiencies>  (63) 
[-0.2423529411764706]

>  <Interactions>  (63) 
["V-A:LEU:475:CD1:4258, V-A:PRO:540:CD:4887, V-A:PRO:540:N:4884, V-A:TYR:539:C:4867, V-A:ILE:538:CA:4860, V-A:GLU:543:CD:4908, V-A:PRO:540:CB:4885, V-A:PRO:540:CA:4883, V-B:GLU:543:C:9874, V-B:GLU:543:CB:9878, V-B:GLY:544:C:9884, V-B:HIS:456:CE1:9040, V-A:HIS:456:CE1:4069, V-B:GLU:543:CG:9879, H-A:GLU:543:OE2:4910, V-A:GLY:454:CA:4049, H-A:GLU:543:OE1:4909, V-A:TYR:539:CE1:4875, V-A:TYR:539:CD1:4873, H-A:TYR:539:N:4870"]

$$$$
4eb_Grossjean_2025
     RDKit          3D

 30 33  0  0  0  0  0  0  0  0999 V2000
  130.1200  132.6000   54.8680 C   0  0  0  0  0  0  0  0  0  0  0  0
  130.4050  132.9840   56.2060 O   0  0  0  0  0  0  0  0  0  0  0  0
  131.3910  132.3730   56.9130 C   0  0  0  0  0  0  0  0  0  0  0  0
  132.5720  132.3550   56.5550 O   0  0  0  0  0  0  0  0  0  0  0  0
  130.9010  131.7230   58.1750 C   0  0  0  0  0  0  0  0  0  0  0  0
  131.6340  130.6640   58.7270 C   0  0  0  0  0  0  0  0  0  0  0  0
  131.2060  130.0410   59.8960 C   0  0  0  0  0  0  0  0  0  0  0  0
  130.0390  130.4610   60.5360 C   0  0  0  0  0  0  0  0  0  0  0  0
  129.7030  129.7580   61.7090 N   0  0  0  0  0  0  0  0  0  0  0  0
  128.4910  129.4840   62.2520 C   0  0  0  0  0  0  0  0  0  0  0  0
  127.4170  129.8360   61.7640 O   0  0  0  0  0  0  0  0  0  0  0  0
  128.5250  128.7170   63.5000 C   0  0  0  0  0  0  0  0  0  0  0  0
  127.4410  129.1300   64.8300 S   0  0  0  0  0  0  0  0  0  0  0  0
  128.0870  127.8410   65.8210 C   0  0  0  0  0  0  0  0  0  0  0  0
  127.6400  127.6100   67.0560 N   0  0  0  0  0  0  0  0  0  0  0  0
  128.2230  126.5820   67.7180 C   0  0  0  0  0  0  0  0  0  0  0  0
  127.6990  126.3360   69.1220 C   0  0  0  0  0  0  0  0  0  0  0  0
  129.2330  125.7870   67.1800 C   0  0  0  0  0  0  0  0  0  0  0  0
  129.6990  126.0340   65.8840 C   0  0  0  0  0  0  0  0  0  0  0  0
  130.7730  125.1800   65.3250 C   0  0  0  0  0  0  0  0  0  0  0  0
  130.4500  124.0470   64.5730 C   0  0  0  0  0  0  0  0  0  0  0  0
  131.4590  123.2450   64.0460 C   0  0  0  0  0  0  0  0  0  0  0  0
  132.7930  123.5750   64.2750 C   0  0  0  0  0  0  0  0  0  0  0  0
  133.1250  124.7010   65.0270 C   0  0  0  0  0  0  0  0  0  0  0  0
  132.1140  125.5020   65.5520 C   0  0  0  0  0  0  0  0  0  0  0  0
  129.1120  127.1040   65.1560 C   0  0  0  0  0  0  0  0  0  0  0  0
  129.3410  127.6250   63.8340 C   0  0  0  0  0  0  0  0  0  0  0  0
  130.2800  127.0890   62.9880 N   0  0  0  0  0  0  0  0  0  0  0  0
  129.2980  131.5200   59.9900 C   0  0  0  0  0  0  0  0  0  0  0  0
  129.7280  132.1430   58.8210 C   0  0  0  0  0  0  0  0  0  0  0  0
  1  2  1  0
  2  3  1  0
  3  4  2  0
  3  5  1  0
  5  6  2  0
  6  7  1  0
  7  8  2  0
  8  9  1  0
  9 10  1  0
 10 11  2  0
 10 12  1  0
 12 13  1  0
 13 14  1  0
 14 15  2  0
 15 16  1  0
 16 17  1  0
 16 18  2  0
 18 19  1  0
 19 20  1  0
 20 21  2  0
 21 22  1  0
 22 23  2  0
 23 24  1  0
 24 25  2  0
 19 26  2  0
 26 27  1  0
 27 28  1  0
  8 29  1  0
 29 30  2  0
 30  5  1  0
 27 12  2  0
 26 14  1  0
 25 20  1  0
M  END
>  <Binding energies>  (64) 
[-8.22]

>  <Ligand effiencies>  (64) 
[-0.2490909090909091]

>  <Interactions>  (64) 
["V-A:LEU:475:CD1:4258, V-A:PRO:540:CD:4887, V-A:PRO:540:N:4884, V-A:TYR:539:C:4867, V-A:ILE:538:CA:4860, V-A:GLU:543:CD:4908, V-A:PRO:540:CB:4885, V-A:PRO:540:CA:4883, V-B:GLU:543:C:9874, V-B:GLU:543:CB:9878, V-B:GLY:544:C:9884, V-B:HIS:456:CE1:9040, V-A:HIS:456:CE1:4069, H-A:GLU:543:OE2:4910, V-A:GLY:454:CA:4049, H-A:GLU:543:OE1:4909, V-A:TYR:539:CE1:4875, V-A:TYR:539:CD1:4873, H-A:TYR:539:N:4870"]

$$$$
8b_Ghoteimi_2023
     RDKit          3D

 34 38  0  0  0  0  0  0  0  0999 V2000
  123.4120  131.6670   62.0160 C   0  0  0  0  0  0  0  0  0  0  0  0
  123.9580  132.0040   63.2870 O   0  0  0  0  0  0  0  0  0  0  0  0
  124.8000  131.1080   63.9170 C   0  0  0  0  0  0  0  0  0  0  0  0
  124.2200  130.2700   64.8670 C   0  0  0  0  0  0  0  0  0  0  0  0
  124.9910  129.3370   65.5530 C   0  0  0  0  0  0  0  0  0  0  0  0
  126.3670  129.2170   65.3050 C   0  0  0  0  0  0  0  0  0  0  0  0
  127.2010  128.2170   66.0400 C   0  0  0  0  0  0  0  0  0  0  0  0
  128.2160  127.4940   65.4040 C   0  0  0  0  0  0  0  0  0  0  0  0
  128.9820  126.5650   66.1150 C   0  0  0  0  0  0  0  0  0  0  0  0
  130.0430  125.8090   65.4090 C   0  0  0  0  0  0  0  0  0  0  0  0
  131.3630  125.8650   65.8580 C   0  0  0  0  0  0  0  0  0  0  0  0
  132.3570  125.1460   65.2000 C   0  0  0  0  0  0  0  0  0  0  0  0
  132.0480  124.3650   64.0850 C   0  0  0  0  0  0  0  0  0  0  0  0
  133.0980  123.6860   63.4970 O   0  0  0  0  0  0  0  0  0  0  0  0
  133.8700  124.3350   62.4930 C   0  0  0  0  0  0  0  0  0  0  0  0
  130.7200  124.3140   63.6340 C   0  0  0  0  0  0  0  0  0  0  0  0
  129.7270  125.0320   64.2930 C   0  0  0  0  0  0  0  0  0  0  0  0
  128.7040  126.3850   67.4960 C   0  0  0  0  0  0  0  0  0  0  0  0
  129.2840  125.5400   68.5080 C   0  0  0  0  0  0  0  0  0  0  0  0
  130.3200  124.6820   68.2410 N   0  0  0  0  0  0  0  0  0  0  0  0
  128.6940  125.6820   69.7730 C   0  0  0  0  0  0  0  0  0  0  0  0
  129.0330  124.9900   71.0190 C   0  0  0  0  0  0  0  0  0  0  0  0
  128.8050  125.5150   72.1120 O   0  0  0  0  0  0  0  0  0  0  0  0
  129.6010  123.7670   70.8690 N   0  0  0  0  0  0  0  0  0  0  0  0
  130.0140  122.8990   71.8700 C   0  0  0  0  0  0  0  0  0  0  0  0
  131.1710  123.0990   72.6230 C   0  0  0  0  0  0  0  0  0  0  0  0
  131.2240  122.0320   73.4890 C   0  0  0  0  0  0  0  0  0  0  0  0
  130.1540  121.2320   73.2730 O   0  0  0  0  0  0  0  0  0  0  0  0
  129.3930  121.7920   72.2450 N   0  0  0  0  0  0  0  0  0  0  0  0
  127.3970  126.8770   69.7420 S   0  0  0  0  0  0  0  0  0  0  0  0
  127.6520  127.1780   68.0380 C   0  0  0  0  0  0  0  0  0  0  0  0
  126.9190  128.0620   67.3620 N   0  0  0  0  0  0  0  0  0  0  0  0
  126.9430  130.0600   64.3460 C   0  0  0  0  0  0  0  0  0  0  0  0
  126.1740  130.9960   63.6590 C   0  0  0  0  0  0  0  0  0  0  0  0
  1  2  1  0
  2  3  1  0
  3  4  2  0
  4  5  1  0
  5  6  2  0
  6  7  1  0
  7  8  2  0
  8  9  1  0
  9 10  1  0
 10 11  2  0
 11 12  1  0
 12 13  2  0
 13 14  1  0
 14 15  1  0
 13 16  1  0
 16 17  2  0
  9 18  2  0
 18 19  1  0
 19 20  1  0
 19 21  2  0
 21 22  1  0
 22 23  2  0
 22 24  1  0
 24 25  1  0
 25 26  1  0
 26 27  2  0
 27 28  1  0
 28 29  1  0
 21 30  1  0
 30 31  1  0
 31 32  2  0
  6 33  1  0
 33 34  2  0
 34  3  1  0
 32  7  1  0
 17 10  1  0
 31 18  1  0
 29 25  2  0
M  END
>  <Binding energies>  (65) 
[-9.61]

>  <Ligand effiencies>  (65) 
[-0.25972972972972974]

>  <Interactions>  (65) 
["V-B:GLU:543:CD:9880, V-A:GLU:543:CD:4908, V-B:GLU:543:C:9874, V-B:GLU:543:CB:9878, V-B:GLY:544:C:9884, V-B:HIS:456:CE1:9040, H-B:LYS:547:NZ:9923, V-A:HIS:456:CE1:4069, V-A:ASP:473:CG:4240, V-A:HIS:456:CG:4066, V-A:ASP:473:CB:4239, V-A:HIS:456:CB:4065, H-B:GLY:454:N:9021, V-B:ILE:369:CD1:8210, V-B:ARG:545:CD:9895, V-B:ARG:545:CZ:9898, H-A:GLY:454:N:4050, V-B:GLU:543:CG:9879, V-B:GLY:454:CA:9020, V-A:TYR:484:CE1:4345, V-A:TYR:484:CZ:4347, H-A:TYR:484:OH:4348, H-A:HIS:456:ND1:4067, V-A:ARG:545:CZ:4926, H-B:GLU:543:O:9875, V-A:TYR:484:CD2:4344, V-A:TYR:484:CG:4342, V-A:TYR:484:CE2:4346, V-A:TYR:484:CB:4341, V-A:TYR:484:CD1:4343"]

$$$$
9d_Ghoteimi_2023
     RDKit          3D

 38 43  0  0  0  0  0  0  0  0999 V2000
  132.7920  124.4880   64.6910 C   0  0  0  0  0  0  0  0  0  0  0  0
  132.1070  123.2810   64.3910 O   0  0  0  0  0  0  0  0  0  0  0  0
  130.7740  123.1590   64.6240 C   0  0  0  0  0  0  0  0  0  0  0  0
  130.1830  122.0790   64.7000 O   0  0  0  0  0  0  0  0  0  0  0  0
  130.0940  124.4650   64.7740 C   0  0  0  0  0  0  0  0  0  0  0  0
  129.7170  125.4270   63.3450 S   0  0  0  0  0  0  0  0  0  0  0  0
  128.9700  126.6650   64.3280 C   0  0  0  0  0  0  0  0  0  0  0  0
  128.4100  127.7440   63.7840 N   0  0  0  0  0  0  0  0  0  0  0  0
  127.8400  128.6390   64.6330 C   0  0  0  0  0  0  0  0  0  0  0  0
  127.1960  129.8290   63.9990 C   0  0  0  0  0  0  0  0  0  0  0  0
  125.9030  129.7400   63.4720 C   0  0  0  0  0  0  0  0  0  0  0  0
  125.2950  130.8420   62.8770 C   0  0  0  0  0  0  0  0  0  0  0  0
  125.9540  132.0790   62.7980 C   0  0  0  0  0  0  0  0  0  0  0  0
  125.3630  133.1910   62.1880 N   0  0  0  0  0  0  0  0  0  0  0  0
  125.9890  133.8520   61.0250 C   0  0  0  0  0  0  0  0  0  0  0  0
  125.3990  135.2420   60.7050 C   0  0  0  0  0  0  0  0  0  0  0  0
  123.9940  135.1470   60.5410 O   0  0  0  0  0  0  0  0  0  0  0  0
  123.3650  134.6720   61.7200 C   0  0  0  0  0  0  0  0  0  0  0  0
  123.8910  133.2650   62.0730 C   0  0  0  0  0  0  0  0  0  0  0  0
  127.2560  132.1590   63.3140 C   0  0  0  0  0  0  0  0  0  0  0  0
  127.8650  131.0560   63.9060 C   0  0  0  0  0  0  0  0  0  0  0  0
  127.8620  128.4690   66.0200 C   0  0  0  0  0  0  0  0  0  0  0  0
  128.4660  127.3460   66.5970 C   0  0  0  0  0  0  0  0  0  0  0  0
  128.4850  127.2280   68.0790 C   0  0  0  0  0  0  0  0  0  0  0  0
  129.3750  127.9850   68.8430 C   0  0  0  0  0  0  0  0  0  0  0  0
  129.3770  127.8850   70.2320 C   0  0  0  0  0  0  0  0  0  0  0  0
  128.4760  127.0360   70.8940 C   0  0  0  0  0  0  0  0  0  0  0  0
  128.4630  126.9110   72.2850 N   0  0  0  0  0  0  0  0  0  0  0  0
  129.3670  125.9360   72.9260 C   0  0  0  0  0  0  0  0  0  0  0  0
  129.5380  126.1690   74.4420 C   0  0  0  0  0  0  0  0  0  0  0  0
  128.2690  126.1790   75.0800 O   0  0  0  0  0  0  0  0  0  0  0  0
  127.4330  127.2070   74.5670 C   0  0  0  0  0  0  0  0  0  0  0  0
  127.2070  126.9950   73.0550 C   0  0  0  0  0  0  0  0  0  0  0  0
  127.5870  126.2800   70.1160 C   0  0  0  0  0  0  0  0  0  0  0  0
  127.5880  126.3790   68.7280 C   0  0  0  0  0  0  0  0  0  0  0  0
  129.0320  126.3760   65.7240 C   0  0  0  0  0  0  0  0  0  0  0  0
  129.6640  125.1010   65.9440 C   0  0  0  0  0  0  0  0  0  0  0  0
  129.8100  124.5480   67.1910 N   0  0  0  0  0  0  0  0  0  0  0  0
  1  2  1  0
  2  3  1  0
  3  4  2  0
  3  5  1  0
  5  6  1  0
  6  7  1  0
  7  8  2  0
  8  9  1  0
  9 10  1  0
 10 11  2  0
 11 12  1  0
 12 13  2  0
 13 14  1  0
 14 15  1  0
 15 16  1  0
 16 17  1  0
 17 18  1  0
 18 19  1  0
 13 20  1  0
 20 21  2  0
  9 22  2  0
 22 23  1  0
 23 24  1  0
 24 25  2  0
 25 26  1  0
 26 27  2  0
 27 28  1  0
 28 29  1  0
 29 30  1  0
 30 31  1  0
 31 32  1  0
 32 33  1  0
 27 34  1  0
 34 35  2  0
 23 36  2  0
 36 37  1  0
 37 38  1  0
 37  5  2  0
 36  7  1  0
 21 10  1  0
 35 24  1  0
 19 14  1  0
 33 28  1  0
M  END
>  <Binding energies>  (66) 
[-9.46]

>  <Ligand effiencies>  (66) 
[-0.23650000000000002]

>  <Interactions>  (66) 
["V-B:GLU:543:CD:9880, V-A:TYR:539:CE2:4876, V-A:TYR:539:CD2:4874, V-B:LEU:475:CD1:9229, V-A:ALA:541:CB:4892, V-B:GLU:543:C:9874, V-B:GLU:543:CB:9878, V-B:GLY:544:C:9884, V-B:HIS:456:CE1:9040, H-B:LYS:547:NZ:9923, V-A:HIS:456:CE1:4069, V-A:HIS:456:CD2:4068, V-B:ILE:369:CD1:8210, V-B:ILE:369:CG2:8208, V-B:GLU:543:CG:9879, V-B:GLY:454:CA:9020, V-A:TYR:484:CE1:4345, V-B:GLU:543:CA:9876, V-A:TYR:484:CZ:4347, H-A:TYR:484:OH:4348, V-B:TRP:381:CH2:8343, H-A:HIS:456:ND1:4067, H-B:GLU:543:O:9875, V-B:TRP:381:CZ2:8341, V-B:TRP:381:CZ3:8342"]

$$$$
RR10_Rahimova_2017
     RDKit          3D

 34 38  0  0  0  0  0  0  0  0999 V2000
  127.4960  122.5110   54.8870 C   0  0  0  0  0  0  0  0  0  0  0  0
  127.1810  123.3640   56.1280 C   0  0  1  0  0  0  0  0  0  0  0  0
  126.5560  122.5200   57.2630 C   0  0  0  0  0  0  0  0  0  0  0  0
  126.2160  123.4030   58.4860 C   0  0  0  0  0  0  0  0  0  0  0  0
  127.4600  124.1480   59.0330 C   0  0  1  0  0  0  0  0  0  0  0  0
  128.4120  123.2020   59.6300 N   0  0  0  0  0  0  0  0  0  0  0  0
  128.1950  122.4710   60.7390 C   0  0  0  0  0  0  0  0  0  0  0  0
  127.1350  122.5070   61.3700 O   0  0  0  0  0  0  0  0  0  0  0  0
  129.3530  121.5700   61.2150 C   0  0  1  0  0  0  0  0  0  0  0  0
  129.4880  120.3560   60.2600 C   0  0  0  0  0  0  0  0  0  0  0  0
  130.7070  119.5000   60.6800 C   0  0  0  0  0  0  0  0  0  0  0  0
  132.0000  120.3380   60.8190 C   0  0  0  0  0  0  0  0  0  0  0  0
  131.7700  121.5160   61.6980 N   0  0  0  0  0  0  0  0  0  0  0  0
  133.2440  122.3780   62.1700 S   0  0  0  0  0  0  0  0  0  0  0  0
  133.6970  123.1710   61.0200 O   0  0  0  0  0  0  0  0  0  0  0  0
  134.1490  121.4100   62.8020 O   0  0  0  0  0  0  0  0  0  0  0  0
  132.7200  123.5450   63.4260 C   0  0  0  0  0  0  0  0  0  0  0  0
  133.5380  124.6380   63.7290 C   0  0  0  0  0  0  0  0  0  0  0  0
  133.1880  125.5820   64.6990 C   0  0  0  0  0  0  0  0  0  0  0  0
  131.9710  125.3810   65.3550 C   0  0  0  0  0  0  0  0  0  0  0  0
  131.2970  126.0600   66.3420 N   0  0  0  0  0  0  0  0  0  0  0  0
  130.1220  125.3840   66.5980 C   0  0  0  0  0  0  0  0  0  0  0  0
  129.1200  125.8200   67.6270 C   0  0  0  0  0  0  0  0  0  0  0  0
  127.9240  126.4370   67.2360 C   0  0  0  0  0  0  0  0  0  0  0  0
  126.9920  126.8380   68.1900 C   0  0  0  0  0  0  0  0  0  0  0  0
  127.2510  126.6250   69.5410 C   0  0  0  0  0  0  0  0  0  0  0  0
  128.4340  126.0130   69.9460 C   0  0  0  0  0  0  0  0  0  0  0  0
  129.3660  125.6120   68.9910 C   0  0  0  0  0  0  0  0  0  0  0  0
  129.9920  124.3190   65.8370 N   0  0  0  0  0  0  0  0  0  0  0  0
  131.1200  124.2890   65.0600 C   0  0  0  0  0  0  0  0  0  0  0  0
  131.4960  123.3590   64.0800 C   0  0  0  0  0  0  0  0  0  0  0  0
  130.6650  122.3930   61.2350 C   0  0  0  0  0  0  0  0  0  0  0  0
  128.0880  124.9760   57.8790 C   0  0  0  0  0  0  0  0  0  0  0  0
  128.4360  124.0960   56.6580 C   0  0  0  0  0  0  0  0  0  0  0  0
  2  1  1  6
  2  3  1  0
  3  4  1  0
  4  5  1  0
  5  6  1  6
  6  7  1  0
  7  8  2  0
  9  7  1  6
  9 10  1  0
 10 11  1  0
 11 12  1  0
 12 13  1  0
 13 14  1  0
 14 15  2  0
 14 16  2  0
 14 17  1  0
 17 18  2  0
 18 19  1  0
 19 20  2  0
 20 21  1  0
 21 22  1  0
 22 23  1  0
 23 24  2  0
 24 25  1  0
 25 26  2  0
 26 27  1  0
 27 28  2  0
 22 29  2  0
 29 30  1  0
 30 31  2  0
 13 32  1  0
  5 33  1  0
 33 34  1  0
 34  2  1  0
 32  9  1  0
 31 17  1  0
 30 20  1  0
 28 23  1  0
M  END
>  <Binding energies>  (67) 
[-10.16]

>  <Ligand effiencies>  (67) 
[-0.2822222222222222]

>  <Interactions>  (67) 
["V-B:PRO:540:CD:9859, V-B:ILE:538:CB:9834, V-B:ALA:541:CB:9864, V-B:TYR:539:CE2:9848, V-B:TYR:539:CD2:9846, H-B:ALA:541:N:9863, V-B:PRO:540:CB:9857, V-B:PRO:540:N:9856, V-B:TYR:539:C:9839, V-B:PRO:540:CA:9855, V-B:TYR:539:CZ:9849, V-A:PRO:482:CG:4327, V-A:LEU:475:CD1:4258, V-A:GLU:543:CD:4908, V-B:ILE:538:CG2:9835, V-B:TYR:539:CG:9844, V-B:GLU:543:CB:9878, V-B:GLY:544:C:9884, V-B:HIS:456:CE1:9040, V-B:ARG:545:CG:9894, V-A:HIS:456:CE1:4069, H-A:GLY:454:N:4050, V-A:TRP:381:CZ2:3370, V-A:TRP:381:CH2:3372, V-A:TYR:484:CZ:4347, H-A:TYR:484:OH:4348, H-A:GLU:543:OE2:4910, V-A:GLY:454:CA:4049, V-A:ARG:545:CZ:4926, V-A:ARG:545:CD:4923, V-B:ILE:538:CA:9832, V-B:ILE:538:C:9830, V-B:TYR:539:CE1:9847, V-B:TYR:539:CD1:9845"]

$$$$
RR12_Rahimova_2017
     RDKit          3D

 26 28  0  0  0  0  0  0  0  0999 V2000
  129.7440  124.9140   66.9430 C   0  0  0  0  0  0  0  0  0  0  0  0
  129.1960  125.9370   65.9390 C   0  0  0  0  0  0  0  0  0  0  0  0
  129.0540  127.3450   66.5460 C   0  0  0  0  0  0  0  0  0  0  0  0
  127.6480  127.6700   66.7750 N   0  0  0  0  0  0  0  0  0  0  0  0
  126.8420  127.2420   67.8180 C   0  0  0  0  0  0  0  0  0  0  0  0
  127.3010  126.2900   68.9080 C   0  0  0  0  0  0  0  0  0  0  0  0
  128.5000  126.8410   69.7020 C   0  0  0  0  0  0  0  0  0  0  0  0
  129.1080  125.8000   70.6620 C   0  0  0  0  0  0  0  0  0  0  0  0
  128.6300  125.9180   72.0390 N   0  0  0  0  0  0  0  0  0  0  0  0
  129.3380  126.4360   73.0600 C   0  0  0  0  0  0  0  0  0  0  0  0
  130.4860  126.8680   72.9350 O   0  0  0  0  0  0  0  0  0  0  0  0
  128.6230  126.4640   74.4160 C   0  0  0  0  0  0  0  0  0  0  0  0
  127.3000  125.9470   74.2680 O   0  0  0  0  0  0  0  0  0  0  0  0
  126.2200  126.7620   74.5510 C   0  0  0  0  0  0  0  0  0  0  0  0
  126.4950  127.9330   75.2600 C   0  0  0  0  0  0  0  0  0  0  0  0
  125.4710  128.8190   75.5880 C   0  0  0  0  0  0  0  0  0  0  0  0
  124.1640  128.5330   75.2040 C   0  0  0  0  0  0  0  0  0  0  0  0
  123.8720  127.3680   74.4980 C   0  0  0  0  0  0  0  0  0  0  0  0
  124.8960  126.4830   74.1710 C   0  0  0  0  0  0  0  0  0  0  0  0
  125.6250  127.7270   67.7670 N   0  0  0  0  0  0  0  0  0  0  0  0
  125.6150  128.5330   66.6630 C   0  0  0  0  0  0  0  0  0  0  0  0
  124.5660  129.3100   66.1470 C   0  0  0  0  0  0  0  0  0  0  0  0
  124.8090  130.0610   64.9970 C   0  0  0  0  0  0  0  0  0  0  0  0
  126.0560  130.0470   64.3720 C   0  0  0  0  0  0  0  0  0  0  0  0
  127.1190  129.2840   64.8600 C   0  0  0  0  0  0  0  0  0  0  0  0
  126.8750  128.5280   66.0140 C   0  0  0  0  0  0  0  0  0  0  0  0
  1  2  1  0
  2  3  1  0
  3  4  1  0
  4  5  1  0
  5  6  1  0
  6  7  1  0
  7  8  1  0
  8  9  1  0
  9 10  1  0
 10 11  2  0
 10 12  1  0
 12 13  1  0
 13 14  1  0
 14 15  2  0
 15 16  1  0
 16 17  2  0
 17 18  1  0
 18 19  2  0
  5 20  2  0
 20 21  1  0
 21 22  2  0
 22 23  1  0
 23 24  2  0
 24 25  1  0
 25 26  2  0
 26  4  1  0
 19 14  1  0
 26 21  1  0
M  END
>  <Binding energies>  (68) 
[-6.92]

>  <Ligand effiencies>  (68) 
[-0.2562962962962963]

>  <Interactions>  (68) 
["V-A:GLU:543:CD:4908, V-B:GLU:543:C:9874, V-B:GLU:543:CB:9878, V-B:HIS:456:CB:9036, V-B:GLY:544:C:9884, H-A:LYS:547:NZ:4951, V-B:HIS:456:CE1:9040, V-B:VAL:457:CA:9046, V-B:HIS:456:C:9032, V-B:ARG:545:CG:9894, H-B:LYS:547:NZ:9923, V-B:VAL:458:CG2:9058, V-A:HIS:456:CE1:4069, V-A:HIS:456:CD2:4068, H-A:HIS:456:NE2:4070, V-B:ARG:545:CD:9895, V-B:ARG:545:CZ:9898, V-B:GLU:543:CG:9879, V-A:TYR:484:CE1:4345, V-A:TYR:484:CZ:4347, V-B:LYS:547:CD:9921, V-B:ARG:545:C:9889, V-B:HIS:456:CA:9034, V-B:VAL:457:C:9044, V-B:LYS:547:CG:9920, H-B:GLY:544:O:9885"]

$$$$
RR13_Rahimova_2017
     RDKit          3D

 48 54  0  0  0  0  0  0  0  0999 V2000
  126.0310  130.4570   58.0390 Cl  0  0  0  0  0  0  0  0  0  0  0  0
  127.1550  131.5050   58.8350 C   0  0  0  0  0  0  0  0  0  0  0  0
  126.7220  132.1730   59.9830 C   0  0  0  0  0  0  0  0  0  0  0  0
  127.5710  133.0460   60.6560 C   0  0  0  0  0  0  0  0  0  0  0  0
  128.8630  133.2610   60.1830 C   0  0  0  0  0  0  0  0  0  0  0  0
  129.3030  132.5990   59.0390 C   0  0  0  0  0  0  0  0  0  0  0  0
  128.4650  131.7050   58.3530 C   0  0  0  0  0  0  0  0  0  0  0  0
  128.9680  131.0020   57.0720 C   0  0  1  0  0  0  0  0  0  0  0  0
  130.0520  131.8380   56.3740 C   0  0  0  0  0  0  0  0  0  0  0  0
  129.9030  133.0300   55.8400 N   0  0  0  0  0  0  0  0  0  0  0  0
  131.1430  133.3680   55.3090 N   0  0  0  0  0  0  0  0  0  0  0  0
  132.0440  132.3410   55.5170 N   0  0  0  0  0  0  0  0  0  0  0  0
  131.3400  131.3990   56.1540 N   0  0  0  0  0  0  0  0  0  0  0  0
  131.9820  130.1610   56.5790 C   0  0  0  0  0  0  0  0  0  0  0  0
  133.2790  130.4700   57.3510 C   0  0  0  0  0  0  0  0  0  0  0  0
  133.0180  130.7630   58.8200 C   0  0  0  0  0  0  0  0  0  0  0  0
  134.0790  131.1060   59.6620 C   0  0  0  0  0  0  0  0  0  0  0  0
  133.8410  131.3670   61.0090 C   0  0  0  0  0  0  0  0  0  0  0  0
  132.5420  131.2830   61.5080 C   0  0  0  0  0  0  0  0  0  0  0  0
  131.4810  130.9400   60.6740 C   0  0  0  0  0  0  0  0  0  0  0  0
  131.7190  130.6790   59.3270 C   0  0  0  0  0  0  0  0  0  0  0  0
  129.3930  129.6000   57.2960 N   0  0  0  0  0  0  0  0  0  0  0  0
  128.6260  128.6830   56.4320 C   0  0  0  0  0  0  0  0  0  0  0  0
  129.1540  127.2350   56.5620 C   0  0  0  0  0  0  0  0  0  0  0  0
  129.0130  126.7540   57.9470 N   0  0  0  0  0  0  0  0  0  0  0  0
  129.4310  125.3410   58.1000 C   0  0  1  0  0  0  0  0  0  0  0  0
  128.5920  124.3090   57.3150 C   0  0  0  0  0  0  0  0  0  0  0  0
  128.5980  124.4100   55.9170 C   0  0  0  0  0  0  0  0  0  0  0  0
  127.8830  123.5110   55.1260 C   0  0  0  0  0  0  0  0  0  0  0  0
  127.1440  122.4960   55.7260 C   0  0  0  0  0  0  0  0  0  0  0  0
  127.1120  122.3870   57.1130 C   0  0  0  0  0  0  0  0  0  0  0  0
  127.8210  123.2860   57.9150 C   0  0  0  0  0  0  0  0  0  0  0  0
  127.6620  123.1100   59.6300 Cl  0  0  0  0  0  0  0  0  0  0  0  0
  130.9210  125.1220   57.8300 C   0  0  0  0  0  0  0  0  0  0  0  0
  131.5680  125.5190   56.7580 N   0  0  0  0  0  0  0  0  0  0  0  0
  132.8900  125.1270   56.9420 N   0  0  0  0  0  0  0  0  0  0  0  0
  133.0310  124.4960   58.1610 N   0  0  0  0  0  0  0  0  0  0  0  0
  131.8070  124.5230   58.7010 N   0  0  0  0  0  0  0  0  0  0  0  0
  131.5710  123.9150   60.0060 C   0  0  0  0  0  0  0  0  0  0  0  0
  132.5120  122.7150   60.2170 C   0  0  0  0  0  0  0  0  0  0  0  0
  131.7550  121.4500   60.5900 C   0  0  0  0  0  0  0  0  0  0  0  0
  130.3580  121.4580   60.6260 C   0  0  0  0  0  0  0  0  0  0  0  0
  129.6650  120.2970   60.9600 C   0  0  0  0  0  0  0  0  0  0  0  0
  130.3710  119.1330   61.2580 C   0  0  0  0  0  0  0  0  0  0  0  0
  131.7650  119.1200   61.2240 C   0  0  0  0  0  0  0  0  0  0  0  0
  132.4580  120.2790   60.8890 C   0  0  0  0  0  0  0  0  0  0  0  0
  129.7850  127.6690   58.8060 C   0  0  0  0  0  0  0  0  0  0  0  0
  129.2450  129.1130   58.6790 C   0  0  0  0  0  0  0  0  0  0  0  0
  1  2  1  0
  2  3  2  0
  3  4  1  0
  4  5  2  0
  5  6  1  0
  6  7  2  0
  7  8  1  0
  8  9  1  0
  9 10  2  0
 10 11  1  0
 11 12  2  0
 12 13  1  0
 13 14  1  0
 14 15  1  0
 15 16  1  0
 16 17  2  0
 17 18  1  0
 18 19  2  0
 19 20  1  0
 20 21  2  0
  8 22  1  1
 22 23  1  0
 23 24  1  0
 24 25  1  0
 26 25  1  6
 26 27  1  0
 27 28  2  0
 28 29  1  0
 29 30  2  0
 30 31  1  0
 31 32  2  0
 32 33  1  0
 26 34  1  0
 34 35  2  0
 35 36  1  0
 36 37  2  0
 37 38  1  0
 38 39  1  0
 39 40  1  0
 40 41  1  0
 41 42  2  0
 42 43  1  0
 43 44  2  0
 44 45  1  0
 45 46  2  0
 25 47  1  0
 47 48  1  0
  7  2  1  0
 13  9  1  0
 21 16  1  0
 48 22  1  0
 32 27  1  0
 38 34  1  0
 46 41  1  0
M  END
>  <Binding energies>  (69) 
[-13.38]

>  <Ligand effiencies>  (69) 
[-0.27875]

>  <Interactions>  (69) 
["V-B:PRO:540:CD:9859, V-A:PRO:482:CB:4326, V-B:ILE:538:CB:9834, V-B:ALA:541:CB:9864, V-B:TYR:539:CE2:9848, V-B:TYR:539:CD2:9846, V-B:PRO:540:N:9856, V-B:TYR:539:C:9839, V-B:PRO:540:CA:9855, V-B:TYR:539:CZ:9849, V-A:PRO:482:CG:4327, V-A:LEU:475:CD1:4258, V-A:PRO:540:N:4884, V-A:ASP:366:CB:3212, V-A:TYR:539:C:4867, V-A:TYR:531:CE2:4793, V-A:TYR:531:CZ:4794, V-A:ASP:366:CG:3213, V-A:LEU:363:CD1:3189, V-A:TYR:539:CE2:4876, V-A:PRO:540:C:4881, H-A:TYR:531:OH:4795, V-A:PRO:540:CB:4885, V-A:PRO:540:CA:4883, V-A:TYR:539:CD2:4874, V-B:ILE:538:CG2:9835, V-B:TYR:539:CA:9841, V-B:TYR:539:CG:9844, H-B:TYR:539:OH:9850, V-A:TRP:381:CZ2:3370, V-A:TRP:381:CH2:3372, V-A:ASN:362:C:3172, V-A:ASN:362:CB:3176, V-A:TYR:539:CZ:4877, H-A:TYR:539:N:4870, V-A:LEU:363:CA:3185, V-B:ILE:538:CA:9832, V-B:ILE:538:C:9830, V-B:TYR:539:CE1:9847, V-B:TYR:539:CD1:9845, V-A:ASN:362:CA:3174, V-A:LEU:363:CB:3187"]

$$$$
RR14_Rahimova_2017
     RDKit          3D

 39 43  0  0  0  0  0  0  0  0999 V2000
  128.8040  125.9050   70.1710 C   0  0  0  0  0  0  0  0  0  0  0  0
  127.5990  125.9420   69.4150 O   0  0  0  0  0  0  0  0  0  0  0  0
  127.4720  126.8680   68.3970 C   0  0  0  0  0  0  0  0  0  0  0  0
  128.6400  127.5170   67.9960 C   0  0  0  0  0  0  0  0  0  0  0  0
  128.6060  128.4830   66.9950 C   0  0  0  0  0  0  0  0  0  0  0  0
  127.3940  128.8150   66.3860 C   0  0  0  0  0  0  0  0  0  0  0  0
  127.3420  129.9190   65.3370 C   0  0  0  0  0  0  0  0  0  0  0  0
  126.0880  129.9430   64.5840 N   0  0  0  0  0  0  0  0  0  0  0  0
  125.0150  130.5710   65.0780 N   0  0  0  0  0  0  0  0  0  0  0  0
  124.0250  130.3680   64.1360 N   0  0  0  0  0  0  0  0  0  0  0  0
  124.5180  129.6070   63.0810 N   0  0  0  0  0  0  0  0  0  0  0  0
  125.7710  129.3550   63.3780 C   0  0  0  0  0  0  0  0  0  0  0  0
  126.7240  128.5260   62.5290 C   0  0  0  0  0  0  0  0  0  0  0  0
  128.1100  129.0190   62.5940 N   0  0  0  0  0  0  0  0  0  0  0  0
  129.0720  127.9280   62.7960 C   0  0  0  0  0  0  0  0  0  0  0  0
  128.5750  126.5660   62.2640 C   0  0  0  0  0  0  0  0  0  0  0  0
  129.4930  125.9490   61.1870 C   0  0  0  0  0  0  0  0  0  0  0  0
  129.0480  124.6270   60.7340 N   0  0  0  0  0  0  0  0  0  0  0  0
  127.5920  124.6160   60.5440 C   0  0  0  0  0  0  0  0  0  0  0  0
  127.0840  123.2230   60.1160 C   0  0  0  0  0  0  0  0  0  0  0  0
  127.5140  122.2380   61.0490 O   0  0  0  0  0  0  0  0  0  0  0  0
  128.9320  122.1720   61.1490 C   0  0  0  0  0  0  0  0  0  0  0  0
  129.4960  123.5330   61.6090 C   0  0  0  0  0  0  0  0  0  0  0  0
  128.4350  129.7750   61.3760 C   0  0  0  0  0  0  0  0  0  0  0  0
  127.8140  131.1650   61.2620 C   0  0  0  0  0  0  0  0  0  0  0  0
  126.4690  131.3310   61.2510 C   0  0  0  0  0  0  0  0  0  0  0  0
  125.8420  132.6610   61.1020 C   0  0  0  0  0  0  0  0  0  0  0  0
  124.4530  132.8720   61.1070 C   0  0  0  0  0  0  0  0  0  0  0  0
  123.4710  131.7190   61.2700 C   0  0  0  0  0  0  0  0  0  0  0  0
  123.9630  134.1720   60.9610 C   0  0  0  0  0  0  0  0  0  0  0  0
  124.8350  135.2490   60.8130 C   0  0  0  0  0  0  0  0  0  0  0  0
  126.2180  135.0500   60.8100 C   0  0  0  0  0  0  0  0  0  0  0  0
  127.1450  136.2480   60.6480 C   0  0  0  0  0  0  0  0  0  0  0  0
  126.7220  133.7480   60.9550 C   0  0  0  0  0  0  0  0  0  0  0  0
  128.1110  133.4990   60.9550 N   0  0  0  0  0  0  0  0  0  0  0  0
  128.7290  132.2980   61.0880 C   0  0  0  0  0  0  0  0  0  0  0  0
  129.9570  132.2220   61.0540 O   0  0  0  0  0  0  0  0  0  0  0  0
  126.2240  128.1510   66.7600 C   0  0  0  0  0  0  0  0  0  0  0  0
  126.2600  127.1860   67.7620 C   0  0  0  0  0  0  0  0  0  0  0  0
  1  2  1  0
  2  3  1  0
  3  4  2  0
  4  5  1  0
  5  6  2  0
  6  7  1  0
  7  8  1  0
  8  9  1  0
  9 10  2  0
 10 11  1  0
 11 12  2  0
 12 13  1  0
 13 14  1  0
 14 15  1  0
 15 16  1  0
 16 17  1  0
 17 18  1  0
 18 19  1  0
 19 20  1  0
 20 21  1  0
 21 22  1  0
 22 23  1  0
 14 24  1  0
 24 25  1  0
 25 26  2  0
 26 27  1  0
 27 28  2  0
 28 29  1  0
 28 30  1  0
 30 31  2  0
 31 32  1  0
 32 33  1  0
 32 34  2  0
 34 35  1  0
 35 36  1  0
 36 37  2  0
  6 38  1  0
 38 39  2  0
 39  3  1  0
 12  8  1  0
 23 18  1  0
 36 25  1  0
 34 27  1  0
M  END
>  <Binding energies>  (70) 
[-8.99]

>  <Ligand effiencies>  (70) 
[-0.22475]

>  <Interactions>  (70) 
["V-B:GLU:543:CD:9880, V-B:ALA:541:CB:9864, H-B:ALA:541:N:9863, V-B:PRO:540:CA:9855, V-B:PRO:482:CB:9297, V-A:GLU:543:CD:4908, V-A:TYR:539:CE2:4876, V-B:PRO:482:CG:9298, V-A:TYR:539:CD2:4874, V-B:LEU:475:CD1:9229, V-A:ALA:541:CB:4892, H-A:ALA:541:N:4891, V-B:GLU:543:CB:9878, V-B:HIS:456:CE1:9040, V-B:ARG:545:CG:9894, H-B:TYR:484:OH:9319, V-A:GLU:543:CB:4906, H-B:GLY:454:N:9021, V-B:ILE:369:CD1:8210, V-B:ILE:369:CG2:8208, V-B:ARG:545:CZ:9898, H-B:ARG:545:NH2:9900, V-B:TRP:381:CH2:8343, V-B:TRP:381:CZ2:8341, H-A:TYR:539:O:4868, V-B:TRP:381:CZ3:8342"]

$$$$
RR15_Rahimova_2017
     RDKit          3D

 45 49  0  0  0  0  0  0  0  0999 V2000
  130.2300  125.5400   74.5170 C   0  0  0  0  0  0  0  0  0  0  0  0
  129.0280  125.5090   73.7550 O   0  0  0  0  0  0  0  0  0  0  0  0
  129.0620  125.8520   72.4140 C   0  0  0  0  0  0  0  0  0  0  0  0
  128.8360  127.1530   71.9390 C   0  0  0  0  0  0  0  0  0  0  0  0
  128.8830  127.4300   70.5750 C   0  0  0  0  0  0  0  0  0  0  0  0
  129.1530  126.4180   69.6470 C   0  0  0  0  0  0  0  0  0  0  0  0
  129.1970  126.7170   68.1740 C   0  0  0  0  0  0  0  0  0  0  0  0
  129.4220  127.9300   67.6910 N   0  0  0  0  0  0  0  0  0  0  0  0
  129.3780  127.8090   66.3170 N   0  0  0  0  0  0  0  0  0  0  0  0
  129.1670  126.5060   66.1240 N   0  0  0  0  0  0  0  0  0  0  0  0
  128.8890  125.9550   64.7990 C   0  0  0  0  0  0  0  0  0  0  0  0
  129.3130  124.4780   64.6080 C   0  0  0  0  0  0  0  0  0  0  0  0
  129.4750  123.7830   65.6140 O   0  0  0  0  0  0  0  0  0  0  0  0
  129.4650  123.9740   63.3440 N   0  0  0  0  0  0  0  0  0  0  0  0
  130.3040  122.7870   63.0870 C   0  0  0  0  0  0  0  0  0  0  0  0
  131.8180  123.0930   63.0710 C   0  0  0  0  0  0  0  0  0  0  0  0
  132.5980  122.4460   61.9020 C   0  0  0  0  0  0  0  0  0  0  0  0
  132.8530  123.3610   60.7850 N   0  0  0  0  0  0  0  0  0  0  0  0
  134.0790  123.0460   60.0360 C   0  0  0  0  0  0  0  0  0  0  0  0
  134.2560  123.9840   58.8220 C   0  0  0  0  0  0  0  0  0  0  0  0
  133.0960  123.9450   57.9980 O   0  0  0  0  0  0  0  0  0  0  0  0
  131.9220  124.3500   58.6950 C   0  0  0  0  0  0  0  0  0  0  0  0
  131.6800  123.4200   59.9030 C   0  0  0  0  0  0  0  0  0  0  0  0
  128.6650  124.4410   62.1710 C   0  0  2  0  0  0  0  0  0  0  0  0
  128.1040  123.2870   61.2820 C   0  0  0  0  0  0  0  0  0  0  0  0
  127.2560  122.5070   61.7140 O   0  0  0  0  0  0  0  0  0  0  0  0
  128.5790  123.2380   60.0250 N   0  0  0  0  0  0  0  0  0  0  0  0
  128.1280  122.3170   58.9880 C   0  0  0  0  0  0  0  0  0  0  0  0
  127.6540  123.0770   57.7360 C   0  0  2  0  0  0  0  0  0  0  0  0
  126.4760  124.0420   57.9560 C   0  0  0  0  0  0  0  0  0  0  0  0
  125.2710  123.2940   57.4380 C   0  0  0  0  0  0  0  0  0  0  0  0
  125.8810  122.4990   56.2960 C   0  0  0  0  0  0  0  0  0  0  0  0
  127.1290  122.0850   56.8420 O   0  0  0  0  0  0  0  0  0  0  0  0
  129.3690  125.5930   61.4640 C   0  0  0  0  0  0  0  0  0  0  0  0
  128.6850  126.2530   60.4350 C   0  0  0  0  0  0  0  0  0  0  0  0
  129.2790  127.3110   59.7540 C   0  0  0  0  0  0  0  0  0  0  0  0
  130.5650  127.7200   60.0980 C   0  0  0  0  0  0  0  0  0  0  0  0
  131.1420  128.7480   59.4370 F   0  0  0  0  0  0  0  0  0  0  0  0
  131.2600  127.0770   61.1190 C   0  0  0  0  0  0  0  0  0  0  0  0
  130.6650  126.0170   61.7990 C   0  0  0  0  0  0  0  0  0  0  0  0
  129.0080  125.7960   67.2470 N   0  0  0  0  0  0  0  0  0  0  0  0
  129.3800  125.1210   70.1250 C   0  0  0  0  0  0  0  0  0  0  0  0
  129.3400  124.8260   71.4990 C   0  0  0  0  0  0  0  0  0  0  0  0
  129.5610  123.5630   72.0190 O   0  0  0  0  0  0  0  0  0  0  0  0
  130.8800  123.0290   72.0340 C   0  0  0  0  0  0  0  0  0  0  0  0
  1  2  1  0
  2  3  1  0
  3  4  2  0
  4  5  1  0
  5  6  2  0
  6  7  1  0
  7  8  1  0
  8  9  2  0
  9 10  1  0
 10 11  1  0
 11 12  1  0
 12 13  2  0
 12 14  1  0
 14 15  1  0
 15 16  1  0
 16 17  1  0
 17 18  1  0
 18 19  1  0
 19 20  1  0
 20 21  1  0
 21 22  1  0
 22 23  1  0
 24 14  1  1
 24 25  1  0
 25 26  2  0
 25 27  1  0
 27 28  1  0
 29 28  1  1
 29 30  1  0
 30 31  1  0
 31 32  1  0
 32 33  1  0
 24 34  1  0
 34 35  2  0
 35 36  1  0
 36 37  2  0
 37 38  1  0
 37 39  1  0
 39 40  2  0
 10 41  1  0
  6 42  1  0
 42 43  2  0
 43 44  1  0
 44 45  1  0
 43  3  1  0
 41  7  2  0
 23 18  1  0
 33 29  1  0
 40 34  1  0
M  END
>  <Binding energies>  (71) 
[-9.48]

>  <Ligand effiencies>  (71) 
[-0.20608695652173914]

>  <Interactions>  (71) 
["V-B:PRO:540:CD:9859, V-B:GLU:543:CD:9880, V-B:ILE:538:CB:9834, V-B:ALA:541:CB:9864, V-B:TYR:539:CE2:9848, V-B:TYR:539:CD2:9846, H-B:ALA:541:N:9863, V-B:PRO:540:CB:9857, V-B:PRO:540:N:9856, V-B:TYR:539:C:9839, V-B:LEU:363:CD1:8160, V-B:PRO:540:CA:9855, V-B:TYR:539:CZ:9849, V-A:LEU:475:CD1:4258, V-A:ASP:366:CB:3212, V-A:ASP:366:CG:3213, V-B:ILE:538:CG2:9835, H-B:TYR:539:OH:9850, H-B:TYR:539:N:9842, V-B:GLU:543:CB:9878, V-B:HIS:456:CE1:9040, H-B:LYS:547:NZ:9923, V-A:HIS:456:CE1:4069, V-A:HIS:456:CG:4066, V-A:HIS:456:CD2:4068, V-A:HIS:456:CB:4065, H-A:HIS:456:NE2:4070, V-B:GLU:543:CG:9879, V-A:ILE:369:CD1:3239, V-A:ILE:369:CG2:3237, V-A:ILE:369:CB:3236, V-A:TYR:484:CZ:4347, H-A:TYR:484:OH:4348, V-A:ASP:366:CA:3210, V-A:ASP:366:C:3208, V-A:TYR:484:CD2:4344, V-B:ILE:538:CA:9832, V-A:TYR:484:CG:4342, V-A:TYR:484:CE2:4346, V-A:TYR:484:CD1:4343"]

$$$$
RR17_Rahimova_2017
     RDKit          3D

 38 41  0  0  0  0  0  0  0  0999 V2000
  130.0660  132.5880   56.9380 C   0  0  0  0  0  0  0  0  0  0  0  0
  129.0280  131.9930   57.8930 C   0  0  0  0  0  0  0  0  0  0  0  0
  129.0900  132.6940   59.1320 O   0  0  0  0  0  0  0  0  0  0  0  0
  127.9160  133.0270   59.7820 C   0  0  0  0  0  0  0  0  0  0  0  0
  126.8160  132.2070   59.5380 C   0  0  0  0  0  0  0  0  0  0  0  0
  125.5910  132.4630   60.1460 C   0  0  0  0  0  0  0  0  0  0  0  0
  125.4410  133.5530   61.0160 C   0  0  0  0  0  0  0  0  0  0  0  0
  124.1080  133.8050   61.6580 C   0  0  0  0  0  0  0  0  0  0  0  0
  123.3590  134.7150   61.2930 O   0  0  0  0  0  0  0  0  0  0  0  0
  123.7060  132.8760   62.8260 C   0  0  0  0  0  0  0  0  0  0  0  0
  123.7190  131.1130   62.3400 S   0  0  0  0  0  0  0  0  0  0  0  0
  124.1970  130.3760   63.8780 C   0  0  0  0  0  0  0  0  0  0  0  0
  123.3740  129.8740   64.7680 N   0  0  0  0  0  0  0  0  0  0  0  0
  124.1350  129.3890   65.8250 N   0  0  0  0  0  0  0  0  0  0  0  0
  125.3910  129.6140   65.5310 C   0  0  0  0  0  0  0  0  0  0  0  0
  126.5670  129.2280   66.4150 C   0  0  0  0  0  0  0  0  0  0  0  0
  126.8160  127.7890   66.4720 N   0  0  0  0  0  0  0  0  0  0  0  0
  127.3990  127.1400   67.5750 C   0  0  0  0  0  0  0  0  0  0  0  0
  128.7110  126.6890   67.4350 C   0  0  0  0  0  0  0  0  0  0  0  0
  129.3470  126.0340   68.4860 C   0  0  0  0  0  0  0  0  0  0  0  0
  128.6760  125.8260   69.6950 C   0  0  0  0  0  0  0  0  0  0  0  0
  129.3860  125.0990   70.8360 C   0  0  0  0  0  0  0  0  0  0  0  0
  128.5740  124.2610   71.4850 F   0  0  0  0  0  0  0  0  0  0  0  0
  130.4170  124.3940   70.3690 F   0  0  0  0  0  0  0  0  0  0  0  0
  129.8430  125.9980   71.7080 F   0  0  0  0  0  0  0  0  0  0  0  0
  127.3630  126.2850   69.8400 C   0  0  0  0  0  0  0  0  0  0  0  0
  126.7280  126.9400   68.7890 C   0  0  0  0  0  0  0  0  0  0  0  0
  125.5010  130.2500   64.3120 N   0  0  0  0  0  0  0  0  0  0  0  0
  126.6740  130.6470   63.6520 C   0  0  0  0  0  0  0  0  0  0  0  0
  127.1710  129.8690   62.6060 C   0  0  0  0  0  0  0  0  0  0  0  0
  128.3370  130.2610   61.9540 C   0  0  0  0  0  0  0  0  0  0  0  0
  129.0080  131.4310   62.3450 C   0  0  0  0  0  0  0  0  0  0  0  0
  130.1680  131.8970   61.7560 O   0  0  0  0  0  0  0  0  0  0  0  0
  130.9820  130.9930   61.0160 C   0  0  0  0  0  0  0  0  0  0  0  0
  128.4960  132.1960   63.3960 C   0  0  0  0  0  0  0  0  0  0  0  0
  127.3310  131.8110   64.0520 C   0  0  0  0  0  0  0  0  0  0  0  0
  126.5490  134.3770   61.2610 C   0  0  0  0  0  0  0  0  0  0  0  0
  127.7740  134.1180   60.6520 C   0  0  0  0  0  0  0  0  0  0  0  0
  1  2  1  0
  2  3  1  0
  3  4  1  0
  4  5  2  0
  5  6  1  0
  6  7  2  0
  7  8  1  0
  8  9  2  0
  8 10  1  0
 10 11  1  0
 11 12  1  0
 12 13  2  0
 13 14  1  0
 14 15  2  0
 15 16  1  0
 16 17  1  0
 17 18  1  0
 18 19  2  0
 19 20  1  0
 20 21  2  0
 21 22  1  0
 22 23  1  0
 22 24  1  0
 22 25  1  0
 21 26  1  0
 26 27  2  0
 15 28  1  0
 28 29  1  0
 29 30  2  0
 30 31  1  0
 31 32  2  0
 32 33  1  0
 33 34  1  0
 32 35  1  0
 35 36  2  0
  7 37  1  0
 37 38  2  0
 38  4  1  0
 28 12  1  0
 36 29  1  0
 27 18  1  0
M  END
>  <Binding energies>  (72) 
[-9.08]

>  <Ligand effiencies>  (72) 
[-0.23282051282051283]

>  <Interactions>  (72) 
["V-B:GLU:543:CD:9880, V-A:PRO:540:N:4884, V-A:TYR:539:C:4867, V-A:TYR:539:CE2:4876, V-A:PRO:540:CA:4883, V-A:TYR:539:CD2:4874, V-B:LEU:475:CD1:9229, V-A:ALA:541:CB:4892, H-A:ALA:541:N:4891, V-B:GLU:543:C:9874, V-B:GLU:543:CB:9878, V-B:GLY:544:C:9884, V-B:ARG:545:CA:9891, V-B:HIS:456:CE1:9040, V-B:ARG:545:CG:9894, V-A:HIS:456:CE1:4069, V-A:HIS:456:CG:4066, V-A:HIS:456:CD2:4068, H-B:GLU:543:OE1:9881, H-B:TYR:484:OH:9319, H-B:ARG:545:NE:9896, H-B:GLY:454:N:9021, V-B:ILE:369:CD1:8210, V-B:ILE:369:CG2:8208, V-B:ARG:545:CZ:9898, V-B:GLY:454:CA:9020, V-A:TYR:484:CE1:4345, H-B:ARG:545:NH2:9900, H-B:ARG:545:NH1:9899, V-A:TYR:484:CZ:4347, V-B:LYS:547:CE:9922, V-B:GLY:544:CA:9886, V-A:TYR:539:CD1:4873, V-A:TYR:539:CZ:4877, V-A:TYR:539:CA:4869, V-B:TYR:484:CZ:9318, V-A:TYR:484:CE2:4346"]

$$$$
RR19_Rahimova_2017
     RDKit          3D

 46 51  0  0  0  0  0  0  0  0999 V2000
  128.8680  125.1770   59.5390 O   0  0  0  0  0  0  0  0  0  0  0  0
  128.4970  125.6210   60.6290 C   0  0  0  0  0  0  0  0  0  0  0  0
  127.7070  126.7080   60.8190 N   0  0  0  0  0  0  0  0  0  0  0  0
  126.9410  127.4680   59.9690 C   0  0  0  0  0  0  0  0  0  0  0  0
  126.5680  127.0800   58.3640 S   0  0  0  0  0  0  0  0  0  0  0  0
  126.5280  128.5940   60.6380 N   0  0  0  0  0  0  0  0  0  0  0  0
  125.6570  129.5870   60.3270 C   0  0  0  0  0  0  0  0  0  0  0  0
  124.8670  129.5960   59.3800 O   0  0  0  0  0  0  0  0  0  0  0  0
  125.7280  130.8070   61.2790 C   0  0  2  0  0  0  0  0  0  0  0  0
  126.9870  131.7030   61.0990 C   0  0  0  0  0  0  0  0  0  0  0  0
  126.7330  133.2000   61.1760 C   0  0  0  0  0  0  0  0  0  0  0  0
  125.4170  133.7100   61.2170 C   0  0  0  0  0  0  0  0  0  0  0  0
  125.2050  135.0740   61.3670 C   0  0  0  0  0  0  0  0  0  0  0  0
  126.2830  135.9410   61.4960 C   0  0  0  0  0  0  0  0  0  0  0  0
  127.5830  135.4500   61.4870 C   0  0  0  0  0  0  0  0  0  0  0  0
  127.8160  134.0900   61.3400 C   0  0  0  0  0  0  0  0  0  0  0  0
  125.5490  130.3960   62.6980 N   0  0  0  0  0  0  0  0  0  0  0  0
  124.3830  130.6360   63.3640 C   0  0  0  0  0  0  0  0  0  0  0  0
  123.3840  131.2150   62.9350 O   0  0  0  0  0  0  0  0  0  0  0  0
  124.5700  130.0500   64.7140 C   0  0  0  0  0  0  0  0  0  0  0  0
  123.7160  130.0010   65.8160 C   0  0  0  0  0  0  0  0  0  0  0  0
  124.1600  129.3650   66.9810 C   0  0  0  0  0  0  0  0  0  0  0  0
  125.4370  128.7910   67.0290 C   0  0  0  0  0  0  0  0  0  0  0  0
  126.2790  128.8490   65.9120 C   0  0  0  0  0  0  0  0  0  0  0  0
  125.8170  129.4890   64.7610 C   0  0  0  0  0  0  0  0  0  0  0  0
  126.4620  129.7010   63.4410 C   0  0  0  0  0  0  0  0  0  0  0  0
  127.5800  129.3210   63.0910 O   0  0  0  0  0  0  0  0  0  0  0  0
  128.9540  124.9230   61.9380 C   0  0  2  0  0  0  0  0  0  0  0  0
  129.8880  125.7950   62.8250 C   0  0  0  0  0  0  0  0  0  0  0  0
  129.5820  125.7130   64.3090 C   0  0  0  0  0  0  0  0  0  0  0  0
  129.9390  124.5610   65.0430 C   0  0  0  0  0  0  0  0  0  0  0  0
  129.7510  124.5290   66.4190 C   0  0  0  0  0  0  0  0  0  0  0  0
  129.2370  125.6360   67.0820 C   0  0  0  0  0  0  0  0  0  0  0  0
  128.9170  126.7910   66.3780 C   0  0  0  0  0  0  0  0  0  0  0  0
  129.0970  126.8430   65.0020 C   0  0  0  0  0  0  0  0  0  0  0  0
  129.5260  123.5640   61.7140 N   0  0  0  0  0  0  0  0  0  0  0  0
  128.7330  122.4850   61.4620 C   0  0  0  0  0  0  0  0  0  0  0  0
  127.5030  122.4600   61.4020 O   0  0  0  0  0  0  0  0  0  0  0  0
  129.6660  121.3470   61.2740 C   0  0  0  0  0  0  0  0  0  0  0  0
  129.4230  120.0000   60.9990 C   0  0  0  0  0  0  0  0  0  0  0  0
  130.5140  119.1350   60.8690 C   0  0  0  0  0  0  0  0  0  0  0  0
  131.8210  119.6200   61.0100 C   0  0  0  0  0  0  0  0  0  0  0  0
  132.0450  120.9740   61.2840 C   0  0  0  0  0  0  0  0  0  0  0  0
  130.9420  121.8200   61.4120 C   0  0  0  0  0  0  0  0  0  0  0  0
  130.8610  123.2740   61.6920 C   0  0  0  0  0  0  0  0  0  0  0  0
  131.7980  124.0540   61.8660 O   0  0  0  0  0  0  0  0  0  0  0  0
  1  2  2  0
  2  3  1  0
  3  4  1  0
  4  5  2  0
  4  6  1  0
  6  7  1  0
  7  8  2  0
  7  9  1  0
  9 10  1  1
 10 11  1  0
 11 12  2  0
 12 13  1  0
 13 14  2  0
 14 15  1  0
 15 16  2  0
  9 17  1  0
 17 18  1  0
 18 19  2  0
 18 20  1  0
 20 21  2  0
 21 22  1  0
 22 23  2  0
 23 24  1  0
 24 25  2  0
 25 26  1  0
 26 27  2  0
  2 28  1  0
 28 29  1  6
 29 30  1  0
 30 31  2  0
 31 32  1  0
 32 33  2  0
 33 34  1  0
 34 35  2  0
 28 36  1  0
 36 37  1  0
 37 38  2  0
 37 39  1  0
 39 40  2  0
 40 41  1  0
 41 42  2  0
 42 43  1  0
 43 44  2  0
 44 45  1  0
 45 46  2  0
 16 11  1  0
 26 17  1  0
 35 30  1  0
 45 36  1  0
 25 20  1  0
 44 39  1  0
M  END
>  <Binding energies>  (73) 
[-11.33]

>  <Ligand effiencies>  (73) 
[-0.23604166666666668]

>  <Interactions>  (73) 
["V-A:PRO:482:CB:4326, V-B:GLU:543:CD:9880, V-B:ALA:541:CB:9864, V-B:TYR:539:CD2:9846, H-B:ALA:541:N:9863, V-B:ASP:366:CG:8184, V-A:PRO:482:CG:4327, H-B:GLU:543:OE2:9882, V-B:ALA:541:CA:9862, V-A:LEU:475:CD1:4258, V-B:PRO:482:CB:9297, V-A:GLU:543:CD:4908, V-A:TYR:539:CE2:4876, V-B:PRO:482:CG:9298, V-B:LEU:475:CD1:9229, V-A:ALA:541:CB:4892, V-B:GLU:543:CB:9878, V-B:HIS:456:CE1:9040, V-B:ARG:545:CG:9894, V-A:HIS:456:CE1:4069, H-B:GLU:543:OE1:9881, H-B:GLY:454:N:9021, V-B:GLY:453:C:9013, V-B:ARG:545:CD:9895, V-B:ARG:545:CZ:9898, V-B:GLU:543:CG:9879, V-A:TRP:381:CZ2:3370, V-B:GLY:454:CA:9020, V-A:TYR:484:CE1:4345, V-B:GLU:543:CA:9876, V-A:TRP:381:CH2:3372, V-A:TYR:484:CZ:4347, V-B:TRP:381:CH2:8343, V-B:TRP:381:CZ2:8341, V-B:ILE:455:C:9023, V-B:TRP:381:CZ3:8342"]

$$$$
RR1_Rahimova_2017
     RDKit          3D

 41 44  0  0  0  0  0  0  0  0999 V2000
  133.8170  123.9170   59.5510 C   0  0  0  0  0  0  0  0  0  0  0  0
  134.1960  123.4550   60.8430 O   0  0  0  0  0  0  0  0  0  0  0  0
  133.4880  123.8840   61.9480 C   0  0  0  0  0  0  0  0  0  0  0  0
  133.4790  123.2260   63.1880 C   0  0  0  0  0  0  0  0  0  0  0  0
  132.7270  123.7300   64.2450 C   0  0  0  0  0  0  0  0  0  0  0  0
  131.9790  124.8970   64.0860 C   0  0  0  0  0  0  0  0  0  0  0  0
  131.2160  125.3010   65.1980 N   0  0  0  0  0  0  0  0  0  0  0  0
  130.2390  124.6360   65.8520 C   0  0  0  0  0  0  0  0  0  0  0  0
  129.7920  123.5390   65.5170 O   0  0  0  0  0  0  0  0  0  0  0  0
  129.6890  125.3620   67.0900 C   0  0  0  0  0  0  0  0  0  0  0  0
  129.9750  127.1670   67.1310 S   0  0  0  0  0  0  0  0  0  0  0  0
  128.3210  127.6790   66.8070 C   0  0  0  0  0  0  0  0  0  0  0  0
  127.9620  128.3980   65.7740 N   0  0  0  0  0  0  0  0  0  0  0  0
  126.6480  128.5340   65.9210 C   0  0  0  0  0  0  0  0  0  0  0  0
  125.8030  129.2910   64.9370 C   0  0  0  0  0  0  0  0  0  0  0  0
  126.2920  129.6470   63.6700 C   0  0  0  0  0  0  0  0  0  0  0  0
  125.4840  130.3530   62.7770 C   0  0  0  0  0  0  0  0  0  0  0  0
  124.1910  130.6890   63.1740 C   0  0  0  0  0  0  0  0  0  0  0  0
  123.6860  130.3610   64.3900 N   0  0  0  0  0  0  0  0  0  0  0  0
  124.4870  129.6740   65.2430 C   0  0  0  0  0  0  0  0  0  0  0  0
  126.1360  127.9550   66.9910 N   0  0  0  0  0  0  0  0  0  0  0  0
  127.2110  127.4050   67.5640 N   0  0  0  0  0  0  0  0  0  0  0  0
  127.0800  126.6260   68.7960 C   0  0  0  0  0  0  0  0  0  0  0  0
  128.3100  126.6600   69.7190 C   0  0  0  0  0  0  0  0  0  0  0  0
  128.8380  127.7330   70.0320 O   0  0  0  0  0  0  0  0  0  0  0  0
  128.7420  125.4540   70.1350 N   0  0  0  0  0  0  0  0  0  0  0  0
  129.7530  125.4120   71.0850 N   0  0  0  0  0  0  0  0  0  0  0  0
  129.8720  124.2920   71.8300 C   0  0  0  0  0  0  0  0  0  0  0  0
  129.2070  123.2660   71.6500 O   0  0  0  0  0  0  0  0  0  0  0  0
  130.9190  124.3410   72.9240 C   0  0  0  0  0  0  0  0  0  0  0  0
  131.7500  123.2370   73.1460 C   0  0  0  0  0  0  0  0  0  0  0  0
  132.7100  123.2560   74.1520 C   0  0  0  0  0  0  0  0  0  0  0  0
  132.8640  124.3820   74.9770 C   0  0  0  0  0  0  0  0  0  0  0  0
  133.7880  124.4600   76.0040 O   0  0  0  0  0  0  0  0  0  0  0  0
  134.9810  123.6870   75.9330 C   0  0  0  0  0  0  0  0  0  0  0  0
  132.0360  125.4950   74.7770 C   0  0  0  0  0  0  0  0  0  0  0  0
  132.2140  126.5710   75.6300 O   0  0  0  0  0  0  0  0  0  0  0  0
  131.8980  126.4350   77.0110 C   0  0  0  0  0  0  0  0  0  0  0  0
  131.0740  125.4660   73.7510 C   0  0  0  0  0  0  0  0  0  0  0  0
  131.9850  125.5580   62.8490 C   0  0  0  0  0  0  0  0  0  0  0  0
  132.7390  125.0520   61.7940 C   0  0  0  0  0  0  0  0  0  0  0  0
  1  2  1  0
  2  3  1  0
  3  4  2  0
  4  5  1  0
  5  6  2  0
  6  7  1  0
  7  8  1  0
  8  9  2  0
  8 10  1  0
 10 11  1  0
 11 12  1  0
 12 13  2  0
 13 14  1  0
 14 15  1  0
 15 16  2  0
 16 17  1  0
 17 18  2  0
 18 19  1  0
 19 20  2  0
 14 21  2  0
 21 22  1  0
 22 23  1  0
 23 24  1  0
 24 25  2  0
 24 26  1  0
 26 27  1  0
 27 28  1  0
 28 29  2  0
 28 30  1  0
 30 31  2  0
 31 32  1  0
 32 33  2  0
 33 34  1  0
 34 35  1  0
 33 36  1  0
 36 37  1  0
 37 38  1  0
 36 39  2  0
  6 40  1  0
 40 41  2  0
 41  3  1  0
 22 12  1  0
 39 30  1  0
 20 15  1  0
M  END
>  <Binding energies>  (74) 
[-9.76]

>  <Ligand effiencies>  (74) 
[-0.2218181818181818]

>  <Interactions>  (74) 
["V-A:ASP:366:CB:3212, V-A:ASP:366:CG:3213, V-B:GLU:543:C:9874, V-B:GLU:543:CB:9878, V-B:GLY:544:C:9884, H-A:LYS:547:NZ:4951, V-B:HIS:456:CE1:9040, H-B:LYS:547:NZ:9923, V-A:HIS:456:CE1:4069, V-A:ASP:473:CG:4240, V-A:HIS:456:CG:4066, V-A:HIS:456:CD2:4068, V-A:ASP:473:CB:4239, V-A:HIS:456:C:4061, V-A:HIS:456:CB:4065, H-B:GLY:454:N:9021, H-B:HIS:456:NE2:9041, H-A:HIS:456:NE2:4070, V-B:ARG:545:CD:9895, V-B:ARG:545:CZ:9898, V-A:TYR:484:CE1:4345, H-B:ARG:545:NH2:9900, V-A:ILE:369:CG2:3237, V-A:TYR:484:CZ:4347, H-A:TYR:484:OH:4348, H-A:GLU:543:OE2:4910, V-A:GLY:454:CA:4049, V-A:ASP:366:CA:3210, V-A:ARG:545:CZ:4926, H-B:GLU:543:O:9875, V-A:LYS:547:CD:4949, V-A:VAL:458:CG2:4087, V-A:LYS:471:CD:4219, H-B:GLY:544:O:9885, V-A:LYS:471:CG:4218, V-A:LYS:471:CB:4217"]

$$$$
RR22_Rahimova_2017
     RDKit          3D

 31 36  0  0  0  0  0  0  0  0999 V2000
  129.7580  133.3350   54.6390 O   0  0  0  0  0  0  0  0  0  0  0  0
  129.7180  132.5330   55.5700 C   0  0  0  0  0  0  0  0  0  0  0  0
  130.4330  132.5780   56.7540 N   0  0  0  0  0  0  0  0  0  0  0  0
  130.2240  131.5910   57.7690 C   0  0  1  0  0  0  0  0  0  0  0  0
  131.5170  131.0320   58.0190 O   0  0  0  0  0  0  0  0  0  0  0  0
  132.0420  131.1270   59.3080 C   0  0  0  0  0  0  0  0  0  0  0  0
  133.4150  130.9180   59.4380 C   0  0  0  0  0  0  0  0  0  0  0  0
  134.0060  130.9560   60.7010 C   0  0  0  0  0  0  0  0  0  0  0  0
  133.2230  131.1960   61.8310 C   0  0  0  0  0  0  0  0  0  0  0  0
  131.8490  131.4040   61.7020 C   0  0  0  0  0  0  0  0  0  0  0  0
  131.2470  131.3930   60.4400 C   0  0  0  0  0  0  0  0  0  0  0  0
  129.7640  131.5640   60.1970 C   0  0  1  0  0  0  0  0  0  0  0  0
  128.8900  132.4310   61.0800 C   0  0  0  0  0  0  0  0  0  0  0  0
  127.8410  132.8740   60.0550 C   0  0  0  0  0  0  0  0  0  0  0  0
  126.5280  133.4250   60.4440 C   0  0  0  0  0  0  0  0  0  0  0  0
  125.3610  132.6600   60.2940 C   0  0  0  0  0  0  0  0  0  0  0  0
  124.1250  133.1840   60.6630 C   0  0  0  0  0  0  0  0  0  0  0  0
  124.0480  134.4720   61.1840 C   0  0  0  0  0  0  0  0  0  0  0  0
  125.1960  135.2440   61.3400 C   0  0  0  0  0  0  0  0  0  0  0  0
  126.4330  134.7210   60.9730 C   0  0  0  0  0  0  0  0  0  0  0  0
  128.2720  132.7240   58.8590 N   0  0  0  0  0  0  0  0  0  0  0  0
  129.5790  132.2130   58.9340 N   0  0  0  0  0  0  0  0  0  0  0  0
  129.3780  130.4940   57.1410 C   0  0  0  0  0  0  0  0  0  0  0  0
  129.2640  129.2540   57.6730 C   0  0  0  0  0  0  0  0  0  0  0  0
  128.4690  128.1120   57.1820 C   0  0  0  0  0  0  0  0  0  0  0  0
  127.3030  127.6590   57.8170 C   0  0  0  0  0  0  0  0  0  0  0  0
  126.6020  126.5710   57.2960 C   0  0  0  0  0  0  0  0  0  0  0  0
  127.0920  125.9540   56.1450 C   0  0  0  0  0  0  0  0  0  0  0  0
  128.2210  126.3640   55.5140 N   0  0  0  0  0  0  0  0  0  0  0  0
  128.8880  127.4250   56.0370 C   0  0  0  0  0  0  0  0  0  0  0  0
  128.6770  131.0430   55.6110 S   0  0  0  0  0  0  0  0  0  0  0  0
  1  2  2  0
  2  3  1  0
  4  3  1  6
  4  5  1  0
  5  6  1  0
  6  7  2  0
  7  8  1  0
  8  9  2  0
  9 10  1  0
 10 11  2  0
 11 12  1  0
 12 13  1  1
 13 14  1  0
 14 15  1  0
 15 16  2  0
 16 17  1  0
 17 18  2  0
 18 19  1  0
 19 20  2  0
 14 21  2  0
 21 22  1  0
  4 23  1  0
 23 24  2  0
 24 25  1  0
 25 26  2  0
 26 27  1  0
 27 28  2  0
 28 29  1  0
 29 30  2  0
 23 31  1  0
 31  2  1  0
 22  4  1  0
 30 25  1  0
 11  6  1  0
 22 12  1  0
 20 15  1  0
M  END
>  <Binding energies>  (75) 
[-8.73]

>  <Ligand effiencies>  (75) 
[-0.2728125]

>  <Interactions>  (75) 
["V-A:PRO:540:CD:4887, V-A:PRO:540:N:4884, V-A:TYR:539:C:4867, V-A:ASP:366:CG:3213, V-A:GLU:543:CD:4908, V-A:TYR:539:CE2:4876, V-A:PRO:540:CB:4885, V-A:PRO:540:CA:4883, V-A:TYR:539:CD2:4874, V-B:LEU:475:CD1:9229, V-A:ALA:541:CB:4892, V-B:ILE:369:CD1:8210, V-B:ILE:369:CG2:8208, V-B:TRP:381:CH2:8343, V-A:ASN:362:C:3172, V-A:ASN:362:CB:3176, V-A:TYR:539:CE1:4875, V-A:TYR:539:CD1:4873, H-A:TYR:539:N:4870, V-A:TYR:539:CG:4872, V-A:ASN:362:CG:3177, V-A:LEU:363:CA:3185, V-B:TRP:381:CZ2:8341, H-A:TYR:539:O:4868, V-A:ASN:362:CA:3174"]

$$$$
RR24_Rahimova_2017
     RDKit          3D

 43 49  0  0  0  0  0  0  0  0999 V2000
  128.4960  125.9510   68.9960 C   0  0  0  0  0  0  0  0  0  0  0  0
  128.5010  126.0720   67.4650 C   0  0  2  0  0  0  0  0  0  0  0  0
  129.9200  126.3200   66.8740 C   0  0  0  0  0  0  0  0  0  0  0  0
  130.3800  127.4570   66.7260 O   0  0  0  0  0  0  0  0  0  0  0  0
  130.5530  125.1600   66.5290 O   0  0  0  0  0  0  0  0  0  0  0  0
  130.3700  124.6350   65.2690 C   0  0  0  0  0  0  0  0  0  0  0  0
  130.9480  125.2750   64.1710 C   0  0  0  0  0  0  0  0  0  0  0  0
  130.7780  124.7480   62.8940 C   0  0  0  0  0  0  0  0  0  0  0  0
  130.0380  123.5770   62.7100 C   0  0  0  0  0  0  0  0  0  0  0  0
  129.8380  123.0130   61.2980 C   0  0  1  0  0  0  0  0  0  0  0  0
  128.4160  123.2950   60.7590 C   0  0  0  0  0  0  0  0  0  0  0  0
  128.1910  123.8520   59.5550 C   0  0  0  0  0  0  0  0  0  0  0  0
  129.2130  124.2150   58.7140 N   0  0  0  0  0  0  0  0  0  0  0  0
  130.5290  124.0250   59.0650 C   0  0  0  0  0  0  0  0  0  0  0  0
  131.4170  124.4280   58.1190 N   0  0  0  0  0  0  0  0  0  0  0  0
  132.7620  124.3910   58.3210 C   0  0  0  0  0  0  0  0  0  0  0  0
  133.5000  125.0480   57.5850 O   0  0  0  0  0  0  0  0  0  0  0  0
  133.1430  123.7210   59.4740 N   0  0  0  0  0  0  0  0  0  0  0  0
  134.5960  123.5730   59.6940 C   0  0  0  0  0  0  0  0  0  0  0  0
  132.3270  123.2730   60.4990 C   0  0  0  0  0  0  0  0  0  0  0  0
  132.7410  122.7280   61.5270 O   0  0  0  0  0  0  0  0  0  0  0  0
  130.8950  123.4780   60.2540 C   0  0  0  0  0  0  0  0  0  0  0  0
  126.7660  124.0000   59.3120 C   0  0  0  0  0  0  0  0  0  0  0  0
  126.0310  124.5140   58.2420 C   0  0  0  0  0  0  0  0  0  0  0  0
  124.6360  124.5160   58.3120 C   0  0  0  0  0  0  0  0  0  0  0  0
  123.9860  124.0070   59.4400 C   0  0  0  0  0  0  0  0  0  0  0  0
  124.7270  123.4930   60.5080 C   0  0  0  0  0  0  0  0  0  0  0  0
  126.1210  123.4950   60.4340 C   0  0  0  0  0  0  0  0  0  0  0  0
  127.1340  123.0200   61.4000 C   0  0  0  0  0  0  0  0  0  0  0  0
  126.9850  122.5030   62.5050 O   0  0  0  0  0  0  0  0  0  0  0  0
  129.4750  122.9290   63.8150 C   0  0  0  0  0  0  0  0  0  0  0  0
  129.6470  123.4530   65.0920 C   0  0  0  0  0  0  0  0  0  0  0  0
  127.5010  127.0660   66.9770 N   0  0  0  0  0  0  0  0  0  0  0  0
  127.6550  127.7060   65.7840 C   0  0  0  0  0  0  0  0  0  0  0  0
  128.5820  127.5800   64.9820 O   0  0  0  0  0  0  0  0  0  0  0  0
  126.4690  128.5890   65.6530 C   0  0  0  0  0  0  0  0  0  0  0  0
  126.0970  129.4740   64.6400 C   0  0  0  0  0  0  0  0  0  0  0  0
  124.9020  130.1890   64.7820 C   0  0  0  0  0  0  0  0  0  0  0  0
  124.1030  130.0100   65.9180 C   0  0  0  0  0  0  0  0  0  0  0  0
  124.4930  129.1170   66.9220 C   0  0  0  0  0  0  0  0  0  0  0  0
  125.6890  128.4150   66.7640 C   0  0  0  0  0  0  0  0  0  0  0  0
  126.3540  127.4160   67.6360 C   0  0  0  0  0  0  0  0  0  0  0  0
  125.9540  126.9900   68.7200 O   0  0  0  0  0  0  0  0  0  0  0  0
  2  1  1  1
  2  3  1  0
  3  4  2  0
  3  5  1  0
  5  6  1  0
  6  7  2  0
  7  8  1  0
  8  9  2  0
 10  9  1  1
 10 11  1  0
 11 12  2  0
 12 13  1  0
 13 14  1  0
 14 15  1  0
 15 16  1  0
 16 17  2  0
 16 18  1  0
 18 19  1  0
 18 20  1  0
 20 21  2  0
 20 22  1  0
 12 23  1  0
 23 24  2  0
 24 25  1  0
 25 26  2  0
 26 27  1  0
 27 28  2  0
 28 29  1  0
 29 30  2  0
  9 31  1  0
 31 32  2  0
  2 33  1  0
 33 34  1  0
 34 35  2  0
 34 36  1  0
 36 37  2  0
 37 38  1  0
 38 39  2  0
 39 40  1  0
 40 41  2  0
 41 42  1  0
 42 43  2  0
 32  6  1  0
 42 33  1  0
 22 10  1  0
 28 23  1  0
 41 36  1  0
 29 11  1  0
 22 14  2  0
M  END
>  <Binding energies>  (76) 
[-10.33]

>  <Ligand effiencies>  (76) 
[-0.22955555555555557]

>  <Interactions>  (76) 
["V-B:GLU:543:CD:9880, V-B:ALA:541:CB:9864, V-B:TYR:539:CE2:9848, H-B:ALA:541:N:9863, V-B:PRO:540:CB:9857, V-B:LEU:363:CD1:8160, V-B:PRO:540:CA:9855, V-B:TYR:539:CZ:9849, V-A:ASP:366:CB:3212, V-A:ASP:366:CG:3213, H-B:TYR:539:OH:9850, V-B:GLU:543:C:9874, V-B:GLU:543:CB:9878, V-B:HIS:456:CE1:9040, V-B:ARG:545:CG:9894, V-A:HIS:456:CE1:4069, H-A:HIS:456:NE2:4070, V-B:ARG:545:CD:9895, V-B:ARG:545:CZ:9898, V-B:GLU:543:CG:9879, V-B:GLY:454:CA:9020, V-A:TYR:484:CE1:4345, V-B:GLU:543:CA:9876, V-A:ILE:369:CD1:3239, V-A:ILE:369:CG2:3237, V-A:ILE:369:CB:3236, H-A:TYR:484:OH:4348, V-A:ASP:366:CA:3210, V-A:ILE:369:CG1:3238, H-B:ARG:545:N:9892"]

$$$$
RR25_Rahimova_2017
     RDKit          3D

 39 44  0  0  0  0  0  0  0  0999 V2000
  123.0220  129.8410   66.5680 O   0  0  0  0  0  0  0  0  0  0  0  0
  124.1710  129.4500   66.3570 C   0  0  0  0  0  0  0  0  0  0  0  0
  124.7960  128.8150   67.4010 O   0  0  0  0  0  0  0  0  0  0  0  0
  125.9770  128.1180   67.2190 C   0  0  0  0  0  0  0  0  0  0  0  0
  126.2420  127.0880   68.1200 C   0  0  0  0  0  0  0  0  0  0  0  0
  127.4180  126.3490   68.0000 C   0  0  0  0  0  0  0  0  0  0  0  0
  128.3430  126.6310   66.9840 C   0  0  0  0  0  0  0  0  0  0  0  0
  129.5900  125.8370   66.8540 N   0  0  0  0  0  0  0  0  0  0  0  0
  130.4100  126.1670   66.0010 O   0  0  0  0  0  0  0  0  0  0  0  0
  129.7580  124.8790   67.6030 O   0  0  0  0  0  0  0  0  0  0  0  0
  128.0620  127.6800   66.0940 C   0  0  0  0  0  0  0  0  0  0  0  0
  126.8920  128.4360   66.2060 C   0  0  0  0  0  0  0  0  0  0  0  0
  126.5380  129.5720   65.2630 C   0  0  0  0  0  0  0  0  0  0  0  0
  124.9990  129.6150   65.0490 C   0  0  2  0  0  0  0  0  0  0  0  0
  124.5890  130.8280   64.1660 C   0  0  0  0  0  0  0  0  0  0  0  0
  124.1530  131.8140   64.7670 O   0  0  0  0  0  0  0  0  0  0  0  0
  124.8140  130.8560   62.8180 N   0  0  0  0  0  0  0  0  0  0  0  0
  125.0310  129.6330   62.0170 C   0  0  0  0  0  0  0  0  0  0  0  0
  126.0780  129.9290   60.9220 C   0  0  0  0  0  0  0  0  0  0  0  0
  125.6860  131.0810   60.1050 N   0  0  0  0  0  0  0  0  0  0  0  0
  126.6110  131.2840   58.9810 C   0  0  0  0  0  0  0  0  0  0  0  0
  127.6920  132.3570   59.2770 C   0  0  0  0  0  0  0  0  0  0  0  0
  129.1100  131.9000   59.1940 N   0  0  0  0  0  0  0  0  0  0  0  0
  129.5410  131.5410   57.9350 C   0  0  0  0  0  0  0  0  0  0  0  0
  128.8080  131.5560   56.9390 O   0  0  0  0  0  0  0  0  0  0  0  0
  131.0020  131.1420   57.8560 C   0  0  0  0  0  0  0  0  0  0  0  0
  131.5520  130.7830   56.6190 C   0  0  0  0  0  0  0  0  0  0  0  0
  132.8920  130.4180   56.5090 C   0  0  0  0  0  0  0  0  0  0  0  0
  133.7250  130.4040   57.6270 C   0  0  0  0  0  0  0  0  0  0  0  0
  133.2130  130.7580   58.8990 C   0  0  0  0  0  0  0  0  0  0  0  0
  134.0020  130.7660   60.0730 C   0  0  0  0  0  0  0  0  0  0  0  0
  133.4350  131.1290   61.2940 C   0  0  0  0  0  0  0  0  0  0  0  0
  132.0920  131.4870   61.3810 C   0  0  0  0  0  0  0  0  0  0  0  0
  131.2730  131.4940   60.2450 C   0  0  0  0  0  0  0  0  0  0  0  0
  131.8420  131.1270   58.9990 C   0  0  0  0  0  0  0  0  0  0  0  0
  129.8170  131.8980   60.3790 C   0  0  0  0  0  0  0  0  0  0  0  0
  129.3230  132.2150   61.4660 O   0  0  0  0  0  0  0  0  0  0  0  0
  125.5880  132.2760   60.9460 C   0  0  0  0  0  0  0  0  0  0  0  0
  124.5340  132.1010   62.0660 C   0  0  0  0  0  0  0  0  0  0  0  0
  1  2  2  0
  2  3  1  0
  3  4  1  0
  4  5  2  0
  5  6  1  0
  6  7  2  0
  7  8  1  0
  8  9  2  0
  8 10  1  0
  7 11  1  0
 11 12  2  0
 12 13  1  0
 13 14  1  0
 14 15  1  1
 15 16  2  0
 15 17  1  0
 17 18  1  0
 18 19  1  0
 19 20  1  0
 20 21  1  0
 21 22  1  0
 22 23  1  0
 23 24  1  0
 24 25  2  0
 24 26  1  0
 26 27  2  0
 27 28  1  0
 28 29  2  0
 29 30  1  0
 30 31  2  0
 31 32  1  0
 32 33  2  0
 33 34  1  0
 34 35  2  0
 34 36  1  0
 36 37  2  0
 20 38  1  0
 38 39  1  0
 14  2  1  0
 39 17  1  0
 12  4  1  0
 36 23  1  0
 35 26  1  0
 35 30  1  0
M  CHG  2   8   1  10  -1
M  END
>  <Binding energies>  (77) 
[-11.34]

>  <Ligand effiencies>  (77) 
[-0.2907692307692308]

>  <Interactions>  (77) 
["V-B:ASP:366:CG:8184, V-A:ASP:366:CB:3212, V-A:TYR:531:CE2:4793, V-A:TYR:531:CZ:4794, V-A:ASP:366:CG:3213, V-A:LEU:363:CD1:3189, V-A:TYR:539:CE2:4876, V-A:PRO:540:C:4881, V-A:PRO:540:CB:4885, V-A:PRO:540:CA:4883, V-A:TYR:539:CD2:4874, H-A:ALA:541:N:4891, V-B:GLU:543:C:9874, V-B:GLU:543:CB:9878, V-B:ARG:545:CA:9891, V-B:HIS:456:CE1:9040, V-B:ARG:545:CG:9894, V-A:HIS:456:CE1:4069, H-B:TYR:484:OH:9319, H-B:ARG:545:NE:9896, H-B:GLY:454:N:9021, V-B:ARG:545:CD:9895, V-B:ARG:545:CZ:9898, V-B:GLY:454:CA:9020, H-B:ILE:455:N:9026, H-A:TYR:484:OH:4348, V-A:ASN:362:C:3172, V-A:ASN:362:CB:3176, V-A:TYR:539:CZ:4877, V-A:LEU:363:CA:3185, V-A:LEU:363:CB:3187"]

$$$$
RR27_Rahimova_2017
     RDKit          3D

 39 44  0  0  0  0  0  0  0  0999 V2000
  133.5430  124.4800   62.1410 O   0  0  0  0  0  0  0  0  0  0  0  0
  132.4810  123.8930   62.3670 C   0  0  0  0  0  0  0  0  0  0  0  0
  131.5600  123.5430   61.1610 C   0  0  0  0  0  0  0  0  0  0  0  0
  131.1730  122.0540   61.1090 C   0  0  0  0  0  0  0  0  0  0  0  0
  129.8330  121.6380   61.0510 C   0  0  0  0  0  0  0  0  0  0  0  0
  129.5190  120.2830   61.0020 C   0  0  0  0  0  0  0  0  0  0  0  0
  130.5400  119.3380   61.0110 C   0  0  0  0  0  0  0  0  0  0  0  0
  131.8730  119.7340   61.0710 C   0  0  0  0  0  0  0  0  0  0  0  0
  132.1880  121.0890   61.1200 C   0  0  0  0  0  0  0  0  0  0  0  0
  132.1050  124.1190   59.8400 C   0  0  0  0  0  0  0  0  0  0  0  0
  131.4830  125.1950   59.1930 C   0  0  0  0  0  0  0  0  0  0  0  0
  131.9950  125.6840   57.9940 C   0  0  0  0  0  0  0  0  0  0  0  0
  133.1270  125.0960   57.4350 C   0  0  0  0  0  0  0  0  0  0  0  0
  133.7480  124.0190   58.0610 C   0  0  0  0  0  0  0  0  0  0  0  0
  133.2350  123.5300   59.2590 C   0  0  0  0  0  0  0  0  0  0  0  0
  132.1750  123.4200   63.6090 N   0  0  0  0  0  0  0  0  0  0  0  0
  130.8350  122.9480   63.9890 C   0  0  0  0  0  0  0  0  0  0  0  0
  130.0450  124.1840   64.4720 C   0  0  0  0  0  0  0  0  0  0  0  0
  130.7740  124.9550   65.6180 C   0  0  0  0  0  0  0  0  0  0  0  0
  130.0830  126.2590   66.0600 C   0  0  0  0  0  0  0  0  0  0  0  0
  130.2510  126.6230   67.3650 N   0  0  0  0  0  0  0  0  0  0  0  0
  129.6830  127.7820   67.8000 C   0  0  0  0  0  0  0  0  0  0  0  0
  129.7840  128.2540   69.0820 O   0  0  0  0  0  0  0  0  0  0  0  0
  128.9440  128.5570   66.8850 C   0  0  0  0  0  0  0  0  0  0  0  0
  128.2690  129.7380   66.9830 N   0  0  0  0  0  0  0  0  0  0  0  0
  127.7250  130.0050   65.7400 N   0  0  0  0  0  0  0  0  0  0  0  0
  128.0670  129.0110   64.8930 N   0  0  0  0  0  0  0  0  0  0  0  0
  127.6020  129.0260   63.5080 C   0  0  0  0  0  0  0  0  0  0  0  0
  128.0960  130.2240   62.7090 C   0  0  0  0  0  0  0  0  0  0  0  0
  127.4430  131.4560   62.8120 C   0  0  0  0  0  0  0  0  0  0  0  0
  127.9030  132.5580   62.0870 C   0  0  0  0  0  0  0  0  0  0  0  0
  129.0200  132.4340   61.2620 C   0  0  0  0  0  0  0  0  0  0  0  0
  129.6820  131.2100   61.1630 C   0  0  0  0  0  0  0  0  0  0  0  0
  131.0820  131.0610   60.1620 Cl  0  0  0  0  0  0  0  0  0  0  0  0
  129.2190  130.1070   61.8800 C   0  0  0  0  0  0  0  0  0  0  0  0
  128.8310  128.0720   65.5650 C   0  0  0  0  0  0  0  0  0  0  0  0
  129.3700  126.9360   65.1140 N   0  0  0  0  0  0  0  0  0  0  0  0
  132.2960  125.1300   65.3250 C   0  0  0  0  0  0  0  0  0  0  0  0
  132.9630  123.8440   64.7760 C   0  0  0  0  0  0  0  0  0  0  0  0
  1  2  2  0
  2  3  1  0
  3  4  1  0
  4  5  2  0
  5  6  1  0
  6  7  2  0
  7  8  1  0
  8  9  2  0
  3 10  1  0
 10 11  2  0
 11 12  1  0
 12 13  2  0
 13 14  1  0
 14 15  2  0
  2 16  1  0
 16 17  1  0
 17 18  1  0
 18 19  1  0
 19 20  1  0
 20 21  2  0
 21 22  1  0
 22 23  1  0
 22 24  2  0
 24 25  1  0
 25 26  2  0
 26 27  1  0
 27 28  1  0
 28 29  1  0
 29 30  2  0
 30 31  1  0
 31 32  2  0
 32 33  1  0
 33 34  1  0
 33 35  2  0
 27 36  1  0
 36 37  2  0
 19 38  1  0
 38 39  1  0
  9  4  1  0
 15 10  1  0
 39 16  1  0
 37 20  1  0
 36 24  1  0
 35 29  1  0
M  END
>  <Binding energies>  (78) 
[-9.98]

>  <Ligand effiencies>  (78) 
[-0.2495]

>  <Interactions>  (78) 
["V-A:PRO:482:CB:4326, V-B:ALA:541:CB:9864, V-B:TYR:539:CE2:9848, V-B:TYR:539:CD2:9846, V-A:PRO:482:CG:4327, V-B:ALA:541:CA:9862, V-A:LEU:475:CD1:4258, V-A:ASP:366:CB:3212, V-A:ASP:366:CG:3213, V-A:GLU:543:CD:4908, V-A:PRO:540:CB:4885, V-A:PRO:540:CA:4883, V-A:ALA:541:CB:4892, V-B:HIS:456:CE1:9040, V-A:HIS:456:CE1:4069, H-B:TYR:484:OH:9319, V-A:GLU:543:CB:4906, H-B:HIS:456:NE2:9041, H-A:HIS:456:NE2:4070, V-B:GLU:543:CG:9879, V-A:TRP:381:CZ2:3370, V-A:TRP:381:CH2:3372, V-A:ILE:369:CG2:3237, V-A:ILE:369:CB:3236, V-A:GLY:454:CA:4049, V-A:ASP:366:CA:3210, H-A:ARG:545:NH2:4928, V-A:ASP:366:C:3208, V-A:GLU:543:CG:4907, H-A:GLU:543:O:4903"]

$$$$
RR28_Rahimova_2017
     RDKit          3D

 46 49  0  0  0  0  0  0  0  0999 V2000
  134.1860  125.1340   64.5850 C   0  0  0  0  0  0  0  0  0  0  0  0
  132.8180  124.4620   64.6020 C   0  0  0  0  0  0  0  0  0  0  0  0
  132.7420  123.2440   64.7520 O   0  0  0  0  0  0  0  0  0  0  0  0
  131.7520  125.2730   64.4450 N   0  0  0  0  0  0  0  0  0  0  0  0
  130.3180  124.9040   64.4110 C   0  0  0  0  0  0  0  0  0  0  0  0
  129.6650  125.3700   65.7440 C   0  0  0  0  0  0  0  0  0  0  0  0
  128.6320  126.3190   65.7090 C   0  0  0  0  0  0  0  0  0  0  0  0
  128.0270  126.7610   66.8820 C   0  0  0  0  0  0  0  0  0  0  0  0
  128.4440  126.2660   68.1180 C   0  0  0  0  0  0  0  0  0  0  0  0
  127.7720  126.7670   69.3960 C   0  0  0  0  0  0  0  0  0  0  0  0
  127.5990  125.7940   70.2930 F   0  0  0  0  0  0  0  0  0  0  0  0
  128.5080  127.7230   69.9620 F   0  0  0  0  0  0  0  0  0  0  0  0
  126.5750  127.2710   69.0920 F   0  0  0  0  0  0  0  0  0  0  0  0
  129.4730  125.3220   68.1670 C   0  0  0  0  0  0  0  0  0  0  0  0
  130.0770  124.8800   66.9930 C   0  0  0  0  0  0  0  0  0  0  0  0
  130.1510  123.3690   64.1280 C   0  0  0  0  0  0  0  0  0  0  0  0
  130.6350  122.9480   62.7170 C   0  0  0  0  0  0  0  0  0  0  0  0
  129.8460  123.7340   61.7550 N   0  0  0  0  0  0  0  0  0  0  0  0
  128.7030  123.2220   61.2230 C   0  0  0  0  0  0  0  0  0  0  0  0
  128.3760  122.0440   61.3860 O   0  0  0  0  0  0  0  0  0  0  0  0
  127.8730  124.0950   60.2510 C   0  0  0  0  0  0  0  0  0  0  0  0
  127.6290  125.5630   60.6970 C   0  0  0  0  0  0  0  0  0  0  0  0
  127.9600  126.6360   59.6330 C   0  0  0  0  0  0  0  0  0  0  0  0
  128.5060  126.2660   58.5890 O   0  0  0  0  0  0  0  0  0  0  0  0
  127.5250  127.9160   59.8060 N   0  0  0  0  0  0  0  0  0  0  0  0
  127.1670  128.4770   61.1140 C   0  0  0  0  0  0  0  0  0  0  0  0
  128.4790  128.9860   61.7500 C   0  0  0  0  0  0  0  0  0  0  0  0
  129.2660  130.0300   60.8830 C   0  0  0  0  0  0  0  0  0  0  0  0
  130.6530  130.1300   61.3860 N   0  0  0  0  0  0  0  0  0  0  0  0
  131.6770  130.8350   60.8650 C   0  0  0  0  0  0  0  0  0  0  0  0
  133.0110  130.7300   61.5980 C   0  0  0  0  0  0  0  0  0  0  0  0
  131.5910  131.5340   59.8570 O   0  0  0  0  0  0  0  0  0  0  0  0
  128.5860  131.4220   61.0950 C   0  0  0  0  0  0  0  0  0  0  0  0
  127.9170  131.7700   62.2810 C   0  0  0  0  0  0  0  0  0  0  0  0
  127.3250  133.0210   62.4300 C   0  0  0  0  0  0  0  0  0  0  0  0
  127.3850  133.9570   61.3950 C   0  0  0  0  0  0  0  0  0  0  0  0
  126.7430  135.3360   61.5440 C   0  0  0  0  0  0  0  0  0  0  0  0
  127.2520  135.9790   62.5970 F   0  0  0  0  0  0  0  0  0  0  0  0
  126.9880  136.0530   60.4480 F   0  0  0  0  0  0  0  0  0  0  0  0
  125.4210  135.2610   61.7090 F   0  0  0  0  0  0  0  0  0  0  0  0
  128.0380  133.6230   60.2080 C   0  0  0  0  0  0  0  0  0  0  0  0
  128.6290  132.3720   60.0620 C   0  0  0  0  0  0  0  0  0  0  0  0
  129.2590  129.5580   59.3780 C   0  0  0  0  0  0  0  0  0  0  0  0
  127.9230  128.9640   58.8570 C   0  0  0  0  0  0  0  0  0  0  0  0
  130.1090  125.1780   61.8270 C   0  0  0  0  0  0  0  0  0  0  0  0
  129.6340  125.6570   63.2230 C   0  0  0  0  0  0  0  0  0  0  0  0
  1  2  1  0
  2  3  2  0
  2  4  1  0
  4  5  1  0
  5  6  1  0
  6  7  2  0
  7  8  1  0
  8  9  2  0
  9 10  1  0
 10 11  1  0
 10 12  1  0
 10 13  1  0
  9 14  1  0
 14 15  2  0
  5 16  1  0
 16 17  1  0
 17 18  1  0
 18 19  1  0
 19 20  2  0
 19 21  1  0
 21 22  1  0
 22 23  1  0
 23 24  2  0
 23 25  1  0
 25 26  1  0
 26 27  1  0
 27 28  1  0
 28 29  1  0
 29 30  1  0
 30 31  1  0
 30 32  2  0
 28 33  1  0
 33 34  2  0
 34 35  1  0
 35 36  2  0
 36 37  1  0
 37 38  1  0
 37 39  1  0
 37 40  1  0
 36 41  1  0
 41 42  2  0
 28 43  1  0
 43 44  1  0
 18 45  1  0
 45 46  1  0
 46  5  1  0
 15  6  1  0
 44 25  1  0
 42 33  1  0
M  END
>  <Binding energies>  (79) 
[-9.1]

>  <Ligand effiencies>  (79) 
[-0.18958333333333333]

>  <Interactions>  (79) 
["V-B:GLU:543:CD:9880, H-B:ALA:541:N:9863, V-A:TYR:539:C:4867, V-B:PRO:482:CB:9297, V-A:GLU:543:CD:4908, V-A:TYR:539:CE2:4876, V-B:PRO:482:CG:9298, V-A:PRO:540:CB:4885, V-A:PRO:540:CA:4883, V-A:TYR:539:CD2:4874, V-B:LEU:475:CD1:9229, V-A:ALA:541:CB:4892, V-B:GLU:543:C:9874, V-B:GLU:543:CB:9878, V-B:GLY:544:C:9884, V-B:HIS:456:CD2:9039, V-B:ARG:545:CA:9891, V-B:HIS:456:CE1:9040, V-B:ARG:545:CG:9894, V-A:HIS:456:CE1:4069, H-A:GLY:454:N:4050, V-B:GLU:543:CG:9879, V-A:TYR:484:CE1:4345, V-A:GLY:453:C:4042, V-A:TYR:484:CZ:4347, H-A:TYR:484:OH:4348, V-B:GLY:544:CA:9886, V-B:TRP:381:CH2:8343, H-A:GLU:543:OE2:4910, V-A:ASN:362:CB:3176, V-A:ARG:545:CZ:4926, H-A:GLU:543:OE1:4909, V-A:GLY:453:CA:4044, V-A:ARG:545:CD:4923, V-B:TRP:381:CZ2:8341, V-B:LEU:475:CG:9228, V-B:LEU:475:CD2:9230, V-B:TRP:381:CZ3:8342"]

$$$$
RR29_Rahimova_2017
     RDKit          3D

 18 19  0  0  0  0  0  0  0  0999 V2000
  128.6800  133.7070   60.7160 C   0  0  0  0  0  0  0  0  0  0  0  0
  129.0920  132.2530   60.8920 C   0  0  0  0  0  0  0  0  0  0  0  0
  128.0720  131.2610   60.2890 C   0  0  0  0  0  0  0  0  0  0  0  0
  127.7690  131.5820   58.8100 C   0  0  0  0  0  0  0  0  0  0  0  0
  129.0070  131.4800   57.9330 C   0  0  0  0  0  0  0  0  0  0  0  0
  129.7400  130.2780   57.8850 C   0  0  0  0  0  0  0  0  0  0  0  0
  130.8830  130.1620   57.0820 C   0  0  0  0  0  0  0  0  0  0  0  0
  131.2690  131.2790   56.3490 C   0  0  0  0  0  0  0  0  0  0  0  0
  130.5640  132.4490   56.3930 C   0  0  0  0  0  0  0  0  0  0  0  0
  129.4210  132.5890   57.1720 C   0  0  0  0  0  0  0  0  0  0  0  0
  131.1420  133.3540   55.5600 O   0  0  0  0  0  0  0  0  0  0  0  0
  132.3560  132.7770   55.1580 C   0  0  0  0  0  0  0  0  0  0  0  0
  132.3100  131.4140   55.4860 O   0  0  0  0  0  0  0  0  0  0  0  0
  130.1880  131.9950   61.5030 N   0  0  0  0  0  0  0  0  0  0  0  0
  130.5200  130.6780   61.7380 N   0  0  0  0  0  0  0  0  0  0  0  0
  131.4190  129.9890   61.0160 C   0  0  0  0  0  0  0  0  0  0  0  0
  132.1180  130.4860   59.9950 N   0  0  0  0  0  0  0  0  0  0  0  0
  131.6290  128.7220   61.3410 N   0  0  0  0  0  0  0  0  0  0  0  0
  1  2  1  0
  2  3  1  0
  3  4  1  0
  4  5  1  0
  5  6  2  0
  6  7  1  0
  7  8  2  0
  8  9  1  0
  9 10  2  0
  9 11  1  0
 11 12  1  0
 12 13  1  0
  2 14  2  0
 14 15  1  0
 15 16  1  0
 16 17  1  0
 16 18  2  0
 10  5  1  0
 13  8  1  0
M  CHG  1  18   1
M  END
>  <Binding energies>  (80) 
[-6.96]

>  <Ligand effiencies>  (80) 
[-0.3026086956521739]

>  <Interactions>  (80) 
["V-A:PRO:540:CD:4887, V-A:PRO:540:N:4884, V-A:TYR:539:C:4867, V-A:ILE:538:CD1:4865, H-A:ASP:366:OD1:3214, V-A:ASP:366:CG:3213, V-A:ILE:538:CA:4860, V-A:LEU:363:CD1:3189, V-A:GLU:543:CD:4908, V-A:TYR:539:CE2:4876, V-A:PRO:540:C:4881, H-A:TYR:531:OH:4795, V-A:PRO:540:CB:4885, V-A:PRO:540:CA:4883, V-A:TYR:539:CD2:4874, V-A:ILE:538:CG2:4863, V-A:ALA:541:CB:4892, H-A:ALA:541:N:4891, H-A:GLU:543:OE2:4910, H-A:GLU:543:OE1:4909, V-A:TYR:539:CE1:4875, V-A:TYR:539:CD1:4873, V-A:TYR:539:CZ:4877, H-A:TYR:539:N:4870, V-A:TYR:539:CG:4872, V-A:ILE:538:CB:4862, H-A:ASP:366:OD2:3215"]

$$$$
RR30_Rahimova_2017
     RDKit          3D

 18 19  0  0  0  0  0  0  0  0999 V2000
  130.4700  126.4240   56.6230 C   0  0  0  0  0  0  0  0  0  0  0  0
  131.7300  126.4950   57.4970 C   0  0  0  0  0  0  0  0  0  0  0  0
  132.1560  125.1330   57.9980 C   0  0  0  0  0  0  0  0  0  0  0  0
  133.2020  124.4290   57.6420 N   0  0  0  0  0  0  0  0  0  0  0  0
  133.1410  123.2510   58.3830 N   0  0  0  0  0  0  0  0  0  0  0  0
  132.0590  123.3400   59.1140 C   0  0  0  0  0  0  0  0  0  0  0  0
  131.4460  122.1620   60.2750 S   0  0  0  0  0  0  0  0  0  0  0  0
  129.9700  123.0470   60.8690 C   0  0  0  0  0  0  0  0  0  0  0  0
  128.7320  122.7430   60.0200 C   0  0  0  0  0  0  0  0  0  0  0  0
  127.7920  122.1270   60.5260 O   0  0  0  0  0  0  0  0  0  0  0  0
  128.7820  123.1560   58.7340 N   0  0  0  0  0  0  0  0  0  0  0  0
  127.7910  122.9940   57.7770 C   0  0  0  0  0  0  0  0  0  0  0  0
  127.4890  121.9130   57.0940 N   0  0  0  0  0  0  0  0  0  0  0  0
  126.4320  122.1210   56.2170 N   0  0  0  0  0  0  0  0  0  0  0  0
  125.9570  123.3450   56.2540 C   0  0  0  0  0  0  0  0  0  0  0  0
  124.8090  123.8140   55.3900 C   0  0  0  0  0  0  0  0  0  0  0  0
  126.7910  124.3610   57.3980 S   0  0  0  0  0  0  0  0  0  0  0  0
  131.3900  124.5060   58.9260 O   0  0  0  0  0  0  0  0  0  0  0  0
  1  2  1  0
  2  3  1  0
  3  4  2  0
  4  5  1  0
  5  6  2  0
  6  7  1  0
  7  8  1  0
  8  9  1  0
  9 10  2  0
  9 11  1  0
 11 12  1  0
 12 13  2  0
 13 14  1  0
 14 15  2  0
 15 16  1  0
 15 17  1  0
  6 18  1  0
 18  3  1  0
 17 12  1  0
M  END
>  <Binding energies>  (81) 
[-6.02]

>  <Ligand effiencies>  (81) 
[-0.31684210526315787]

>  <Interactions>  (81) 
["V-B:ILE:538:CB:9834, V-B:TYR:539:CE2:9848, V-B:TYR:539:CD2:9846, H-B:ALA:541:N:9863, V-B:LEU:363:CD1:8160, V-B:TYR:539:CZ:9849, V-A:ASP:366:CB:3212, V-A:ASP:366:CG:3213, V-B:ILE:538:CG2:9835, V-B:TYR:531:CE2:9765, H-B:TYR:539:OH:9850, H-B:TYR:539:N:9842"]

$$$$
RR31_Rahimova_2017
     RDKit          3D

 18 19  0  0  0  0  0  0  0  0999 V2000
  133.4860  119.5680   61.3970 C   0  0  0  0  0  0  0  0  0  0  0  0
  132.2780  120.4060   61.0000 C   0  0  0  0  0  0  0  0  0  0  0  0
  131.0120  119.8190   61.0020 C   0  0  0  0  0  0  0  0  0  0  0  0
  129.8870  120.5600   60.6470 C   0  0  0  0  0  0  0  0  0  0  0  0
  129.9920  121.9130   60.2870 C   0  0  0  0  0  0  0  0  0  0  0  0
  128.8750  122.6660   59.9190 N   0  0  0  0  0  0  0  0  0  0  0  0
  127.8660  122.1560   58.9700 C   0  0  0  0  0  0  0  0  0  0  0  0
  126.9500  123.2510   58.3740 C   0  0  0  0  0  0  0  0  0  0  0  0
  126.2840  124.0100   59.4360 N   0  0  0  0  0  0  0  0  0  0  0  0
  125.3800  125.0340   58.9010 C   0  0  0  0  0  0  0  0  0  0  0  0
  123.9990  124.4720   58.5070 C   0  0  0  0  0  0  0  0  0  0  0  0
  123.0720  124.3010   59.7200 C   0  0  0  0  0  0  0  0  0  0  0  0
  123.7930  124.7440   60.9980 N   0  0  0  0  0  0  0  0  0  0  0  0
  127.3280  124.6460   60.2390 C   0  0  0  0  0  0  0  0  0  0  0  0
  128.2440  123.5840   60.8880 C   0  0  0  0  0  0  0  0  0  0  0  0
  131.2720  122.4880   60.2800 C   0  0  0  0  0  0  0  0  0  0  0  0
  132.4100  121.7550   60.6330 C   0  0  0  0  0  0  0  0  0  0  0  0
  133.7720  122.4370   60.6030 C   0  0  0  0  0  0  0  0  0  0  0  0
  1  2  1  0
  2  3  2  0
  3  4  1  0
  4  5  2  0
  5  6  1  0
  6  7  1  0
  7  8  1  0
  8  9  1  0
  9 10  1  0
 10 11  1  0
 11 12  1  0
 12 13  1  0
  9 14  1  0
 14 15  1  0
  5 16  1  0
 16 17  2  0
 17 18  1  0
 17  2  1  0
 15  6  1  0
M  CHG  1  13   1
M  END
>  <Binding energies>  (82) 
[-6.41]

>  <Ligand effiencies>  (82) 
[-0.30523809523809525]

>  <Interactions>  (82) 
["V-B:LEU:363:CA:8156, V-B:GLU:543:CD:9880, V-B:ALA:541:CB:9864, V-B:TYR:539:CE2:9848, V-B:TYR:539:CD2:9846, V-B:PRO:540:CB:9857, V-B:PRO:540:N:9856, H-B:ASP:366:OD1:8185, V-B:TYR:539:C:9839, V-B:LEU:363:CD1:8160, V-B:ASP:366:CG:8184, V-B:PRO:540:CA:9855, V-B:ASN:362:CB:8147, V-B:ASN:362:C:8143, H-B:GLU:543:OE2:9882, V-A:LEU:475:CD1:4258, V-B:ARG:545:CZ:9898, V-A:ILE:369:CD1:3239, V-A:TRP:381:CH2:3372, V-A:ILE:369:CG2:3237, H-B:ASP:366:OD2:8186, V-B:LEU:363:CB:8158"]

$$$$
RR32_Rahimova_2017
     RDKit          3D

 18 20  0  0  0  0  0  0  0  0999 V2000
  131.8690  130.8260   60.0850 C   0  0  0  0  0  0  0  0  0  0  0  0
  130.8400  131.4960   59.1800 C   0  0  0  0  0  0  0  0  0  0  0  0
  129.6280  131.8960   59.7430 C   0  0  0  0  0  0  0  0  0  0  0  0
  128.6660  132.5140   58.9480 C   0  0  0  0  0  0  0  0  0  0  0  0
  127.4650  132.9090   59.5100 N   0  0  0  0  0  0  0  0  0  0  0  0
  126.4760  131.8550   59.8020 C   0  0  0  0  0  0  0  0  0  0  0  0
  125.1060  132.4120   60.2550 C   0  0  0  0  0  0  0  0  0  0  0  0
  125.2670  133.2430   61.4470 N   0  0  0  0  0  0  0  0  0  0  0  0
  123.9710  133.7410   61.8930 C   0  0  0  0  0  0  0  0  0  0  0  0
  126.1480  134.3570   61.1050 C   0  0  0  0  0  0  0  0  0  0  0  0
  127.5330  133.8310   60.6610 C   0  0  0  0  0  0  0  0  0  0  0  0
  128.8530  132.7500   57.6240 N   0  0  0  0  0  0  0  0  0  0  0  0
  130.0240  132.3680   57.0450 C   0  0  0  0  0  0  0  0  0  0  0  0
  130.1900  132.6240   55.6620 C   0  0  0  0  0  0  0  0  0  0  0  0
  131.3660  132.2570   55.0180 C   0  0  0  0  0  0  0  0  0  0  0  0
  132.3910  131.6360   55.7220 C   0  0  0  0  0  0  0  0  0  0  0  0
  132.2600  131.3700   57.0820 C   0  0  0  0  0  0  0  0  0  0  0  0
  131.0720  131.7280   57.7840 C   0  0  0  0  0  0  0  0  0  0  0  0
  1  2  1  0
  2  3  2  0
  3  4  1  0
  4  5  1  0
  5  6  1  0
  6  7  1  0
  7  8  1  0
  8  9  1  0
  8 10  1  0
 10 11  1  0
  4 12  2  0
 12 13  1  0
 13 14  2  0
 14 15  1  0
 15 16  2  0
 16 17  1  0
 17 18  2  0
 18  2  1  0
 11  5  1  0
 18 13  1  0
M  END
>  <Binding energies>  (83) 
[-6.25]

>  <Ligand effiencies>  (83) 
[-0.3472222222222222]

>  <Interactions>  (83) 
["V-A:PRO:540:N:4884, V-A:TYR:539:C:4867, V-A:TYR:531:CE2:4793, V-A:ILE:538:CD1:4865, V-A:ILE:538:CA:4860, V-A:LEU:363:CD1:3189, V-A:TYR:539:CE2:4876, V-A:PRO:540:CB:4885, V-A:PRO:540:CA:4883, V-A:TYR:539:CD2:4874, V-B:LEU:475:CD1:9229, V-B:ILE:369:CD1:8210, V-B:ILE:369:CG2:8208, V-A:TYR:539:CE1:4875, V-A:TYR:539:CD1:4873, V-A:TYR:539:CZ:4877"]

$$$$
RR5_Rahimova_2017
     RDKit          3D

 45 50  0  0  0  0  0  0  0  0999 V2000
  129.1560  132.5890   58.8180 O   0  0  0  0  0  0  0  0  0  0  0  0
  129.2640  131.5220   59.4210 C   0  0  0  0  0  0  0  0  0  0  0  0
  130.5500  130.6880   59.2730 C   0  0  0  0  0  0  0  0  0  0  0  0
  131.2260  130.3070   60.6380 C   0  0  2  0  0  0  0  0  0  0  0  0
  130.4470  129.3760   61.4800 N   0  0  0  0  0  0  0  0  0  0  0  0
  129.6020  128.4250   60.9240 C   0  0  0  0  0  0  0  0  0  0  0  0
  129.4300  128.2060   59.7230 O   0  0  0  0  0  0  0  0  0  0  0  0
  128.9770  127.7780   61.9230 O   0  0  0  0  0  0  0  0  0  0  0  0
  129.6470  127.4700   63.1420 C   0  0  0  0  0  0  0  0  0  0  0  0
  128.7500  126.6070   64.0580 C   0  0  0  0  0  0  0  0  0  0  0  0
  129.0660  125.1240   63.9980 C   0  0  0  0  0  0  0  0  0  0  0  0
  129.0650  124.2580   62.9000 C   0  0  0  0  0  0  0  0  0  0  0  0
  129.4140  122.9170   63.0720 C   0  0  0  0  0  0  0  0  0  0  0  0
  129.7630  122.4400   64.3360 C   0  0  0  0  0  0  0  0  0  0  0  0
  129.7620  123.3020   65.4350 C   0  0  0  0  0  0  0  0  0  0  0  0
  129.4120  124.6420   65.2610 C   0  0  0  0  0  0  0  0  0  0  0  0
  129.3190  125.7510   66.2230 C   0  0  0  0  0  0  0  0  0  0  0  0
  129.5460  125.7940   67.6010 C   0  0  0  0  0  0  0  0  0  0  0  0
  129.3610  126.9920   68.2930 C   0  0  0  0  0  0  0  0  0  0  0  0
  128.9550  128.1410   67.6110 C   0  0  0  0  0  0  0  0  0  0  0  0
  128.7340  128.0940   66.2350 C   0  0  0  0  0  0  0  0  0  0  0  0
  128.9200  126.8990   65.5370 C   0  0  0  0  0  0  0  0  0  0  0  0
  131.5760  131.5770   61.4510 C   0  0  0  0  0  0  0  0  0  0  0  0
  132.6310  132.1750   61.3810 O   0  0  0  0  0  0  0  0  0  0  0  0
  130.5150  131.9260   62.2370 O   0  0  0  0  0  0  0  0  0  0  0  0
  128.3330  131.0120   60.2580 N   0  0  0  0  0  0  0  0  0  0  0  0
  126.9790  131.4710   60.6920 C   0  0  0  0  0  0  0  0  0  0  0  0
  126.8050  130.7320   62.0610 C   0  0  0  0  0  0  0  0  0  0  0  0
  126.1010  129.5200   62.1550 C   0  0  0  0  0  0  0  0  0  0  0  0
  125.9540  128.8700   63.3780 C   0  0  0  0  0  0  0  0  0  0  0  0
  126.5000  129.4270   64.5290 C   0  0  0  0  0  0  0  0  0  0  0  0
  127.2040  130.6240   64.4650 C   0  0  0  0  0  0  0  0  0  0  0  0
  127.3590  131.2680   63.2410 C   0  0  0  0  0  0  0  0  0  0  0  0
  127.0430  133.0270   60.8520 C   0  0  0  0  0  0  0  0  0  0  0  0
  128.2220  133.6820   61.2420 C   0  0  0  0  0  0  0  0  0  0  0  0
  128.2510  135.0650   61.3970 C   0  0  0  0  0  0  0  0  0  0  0  0
  127.1000  135.8120   61.1680 C   0  0  0  0  0  0  0  0  0  0  0  0
  125.9200  135.1870   60.7780 C   0  0  0  0  0  0  0  0  0  0  0  0
  125.8960  133.8060   60.6140 C   0  0  0  0  0  0  0  0  0  0  0  0
  125.9780  130.9690   59.5970 C   0  0  0  0  0  0  0  0  0  0  0  0
  124.6040  131.2580   59.6840 C   0  0  0  0  0  0  0  0  0  0  0  0
  123.7090  130.8070   58.7190 C   0  0  0  0  0  0  0  0  0  0  0  0
  124.1740  130.0610   57.6420 C   0  0  0  0  0  0  0  0  0  0  0  0
  125.5270  129.7710   57.5200 C   0  0  0  0  0  0  0  0  0  0  0  0
  126.4190  130.2240   58.4880 C   0  0  0  0  0  0  0  0  0  0  0  0
  1  2  2  0
  2  3  1  0
  4  3  1  6
  4  5  1  0
  5  6  1  0
  6  7  2  0
  6  8  1  0
  8  9  1  0
  9 10  1  0
 10 11  1  0
 11 12  2  0
 12 13  1  0
 13 14  2  0
 14 15  1  0
 15 16  2  0
 16 17  1  0
 17 18  2  0
 18 19  1  0
 19 20  2  0
 20 21  1  0
 21 22  2  0
  4 23  1  0
 23 24  2  0
 23 25  1  0
  2 26  1  0
 26 27  1  0
 27 28  1  0
 28 29  2  0
 29 30  1  0
 30 31  2  0
 31 32  1  0
 32 33  2  0
 27 34  1  0
 34 35  2  0
 35 36  1  0
 36 37  2  0
 37 38  1  0
 38 39  2  0
 27 40  1  0
 40 41  2  0
 41 42  1  0
 42 43  2  0
 43 44  1  0
 44 45  2  0
 22 10  1  0
 33 28  1  0
 39 34  1  0
 45 40  1  0
 16 11  1  0
 22 17  1  0
M  END
>  <Binding energies>  (84) 
[-10.8]

>  <Ligand effiencies>  (84) 
[-0.225]

>  <Interactions>  (84) 
["V-B:GLU:543:CD:9880, V-B:ALA:541:CB:9864, V-B:ASP:366:CG:8184, V-A:TYR:539:C:4867, V-B:PRO:482:CB:9297, V-A:GLU:543:CD:4908, V-A:TYR:539:CE2:4876, V-A:PRO:540:C:4881, V-B:PRO:482:CG:9298, V-A:PRO:540:CB:4885, V-A:PRO:540:CA:4883, V-A:TYR:539:CD2:4874, V-B:LEU:475:CD1:9229, V-A:ALA:541:CB:4892, H-A:ALA:541:N:4891, V-B:ASP:366:CB:8183, V-B:GLU:543:CB:9878, V-B:HIS:456:CE1:9040, V-A:HIS:456:CE1:4069, V-A:GLU:543:CB:4906, V-B:ILE:369:CG2:8208, V-B:ARG:545:CZ:9898, V-B:GLU:543:CG:9879, V-A:TYR:484:CE1:4345, V-B:GLU:543:CA:9876, V-A:TYR:484:CZ:4347, V-B:TRP:381:CH2:8343, H-A:GLU:543:OE2:4910, H-A:GLU:543:OE1:4909, V-B:ASP:366:CA:8181, V-B:TRP:381:CZ2:8341, V-A:ALA:541:CA:4890"]

$$$$
