1a_Ghoteimi_2023
     RDKit          3D

 40 43  0  0  0  0  0  0  0  0999 V2000
  132.3420  131.3200   56.1470 C   0  0  0  0  0  0  0  0  0  0  0  0
  131.6040  132.5810   55.6890 C   0  0  0  0  0  0  0  0  0  0  0  0
  130.7600  133.0400   56.7380 O   0  0  0  0  0  0  0  0  0  0  0  0
  129.6090  132.3910   57.0470 C   0  0  0  0  0  0  0  0  0  0  0  0
  128.7190  132.1530   56.2240 O   0  0  0  0  0  0  0  0  0  0  0  0
  129.5270  131.9840   58.4900 C   0  0  0  0  0  0  0  0  0  0  0  0
  130.3530  130.9850   59.0280 C   0  0  0  0  0  0  0  0  0  0  0  0
  130.2520  130.6280   60.3690 C   0  0  0  0  0  0  0  0  0  0  0  0
  129.3220  131.2690   61.2020 C   0  0  0  0  0  0  0  0  0  0  0  0
  129.1320  130.9840   62.5680 N   0  0  0  0  0  0  0  0  0  0  0  0
  128.1040  130.3650   63.1880 C   0  0  0  0  0  0  0  0  0  0  0  0
  127.1070  129.9030   62.6340 O   0  0  0  0  0  0  0  0  0  0  0  0
  128.2320  130.2410   64.7060 C   0  0  0  0  0  0  0  0  0  0  0  0
  127.2070  128.8900   65.3590 S   0  0  0  0  0  0  0  0  0  0  0  0
  128.3390  127.6620   65.9700 C   0  0  0  0  0  0  0  0  0  0  0  0
  128.2560  127.4540   67.3060 N   0  0  0  0  0  0  0  0  0  0  0  0
  129.0640  126.5360   67.8980 C   0  0  0  0  0  0  0  0  0  0  0  0
  128.8980  126.3490   69.3790 C   0  0  0  0  0  0  0  0  0  0  0  0
  128.2650  127.3220   70.1700 C   0  0  0  0  0  0  0  0  0  0  0  0
  128.1110  127.1460   71.5420 C   0  0  0  0  0  0  0  0  0  0  0  0
  128.5860  125.9950   72.1670 C   0  0  0  0  0  0  0  0  0  0  0  0
  128.3880  125.9040   73.5320 O   0  0  0  0  0  0  0  0  0  0  0  0
  129.4120  126.3520   74.4130 C   0  0  0  0  0  0  0  0  0  0  0  0
  129.2240  125.0170   71.3920 C   0  0  0  0  0  0  0  0  0  0  0  0
  129.3760  125.1970   70.0200 C   0  0  0  0  0  0  0  0  0  0  0  0
  129.9840  125.8030   67.1390 C   0  0  0  0  0  0  0  0  0  0  0  0
  130.1060  126.0170   65.7600 C   0  0  0  0  0  0  0  0  0  0  0  0
  131.1310  125.2210   65.0200 C   0  0  0  0  0  0  0  0  0  0  0  0
  130.7500  124.2430   64.0960 C   0  0  0  0  0  0  0  0  0  0  0  0
  131.7110  123.5160   63.4000 C   0  0  0  0  0  0  0  0  0  0  0  0
  133.0700  123.7560   63.6070 C   0  0  0  0  0  0  0  0  0  0  0  0
  133.9500  122.9870   62.8710 O   0  0  0  0  0  0  0  0  0  0  0  0
  134.6090  123.5670   61.7510 C   0  0  0  0  0  0  0  0  0  0  0  0
  133.4560  124.7420   64.5270 C   0  0  0  0  0  0  0  0  0  0  0  0
  132.4920  125.4680   65.2230 C   0  0  0  0  0  0  0  0  0  0  0  0
  129.2570  126.9720   65.1500 C   0  0  0  0  0  0  0  0  0  0  0  0
  129.3270  127.2300   63.7080 C   0  0  0  0  0  0  0  0  0  0  0  0
  129.3830  127.4320   62.5690 N   0  0  0  0  0  0  0  0  0  0  0  0
  128.4970  132.2600   60.6690 C   0  0  0  0  0  0  0  0  0  0  0  0
  128.5990  132.6170   59.3270 C   0  0  0  0  0  0  0  0  0  0  0  0
  1  2  1  0
  2  3  1  0
  3  4  1  0
  4  5  2  0
  4  6  1  0
  6  7  2  0
  7  8  1  0
  8  9  2  0
  9 10  1  0
 10 11  1  0
 11 12  2  0
 11 13  1  0
 13 14  1  0
 14 15  1  0
 15 16  2  0
 16 17  1  0
 17 18  1  0
 18 19  2  0
 19 20  1  0
 20 21  2  0
 21 22  1  0
 22 23  1  0
 21 24  1  0
 24 25  2  0
 17 26  2  0
 26 27  1  0
 27 28  1  0
 28 29  2  0
 29 30  1  0
 30 31  2  0
 31 32  1  0
 32 33  1  0
 31 34  1  0
 34 35  2  0
 27 36  2  0
 36 37  1  0
 37 38  3  0
  9 39  1  0
 39 40  2  0
 40  6  1  0
 36 15  1  0
 25 18  1  0
 35 28  1  0
M  END
>  <Binding energies>  (1) 
[-9.8]

>  <Ligand effiencies>  (1) 
[-0.23902439024390246]

>  <Interactions>  (1) 
["V-A:PRO:540:CD:4887, V-A:PRO:540:N:4884, V-A:TYR:539:C:4867, V-A:TYR:531:CE2:4793, V-A:LEU:363:CD1:3189, V-A:GLU:543:CD:4908, V-A:TYR:539:CE2:4876, V-A:PRO:540:CA:4883, V-A:TYR:539:CD2:4874, V-B:HIS:456:CD2:9039, V-B:HIS:456:CE1:9040, H-B:LYS:547:NZ:9923, V-A:HIS:456:CE1:4069, V-A:HIS:456:CD2:4068, V-A:GLU:543:CB:4906, H-A:GLY:454:N:4050, V-A:ILE:369:CD1:3239, V-A:GLY:453:C:4042, V-A:GLY:454:CA:4049, V-A:ARG:545:CZ:4926, H-A:GLU:543:OE1:4909, V-A:TYR:539:CE1:4875, V-A:TYR:539:CD1:4873, H-A:TYR:539:N:4870, V-A:TYR:539:CG:4872"]

$$$$
1b_Ghoteimi_2023
     RDKit          3D

 34 37  0  0  0  0  0  0  0  0999 V2000
  134.0570  124.3350   62.5310 C   0  0  0  0  0  0  0  0  0  0  0  0
  133.6540  124.3010   63.8950 O   0  0  0  0  0  0  0  0  0  0  0  0
  132.4820  124.9300   64.2680 C   0  0  0  0  0  0  0  0  0  0  0  0
  132.3330  125.2240   65.6220 C   0  0  0  0  0  0  0  0  0  0  0  0
  131.1850  125.8560   66.0890 C   0  0  0  0  0  0  0  0  0  0  0  0
  130.1500  126.2190   65.2140 C   0  0  0  0  0  0  0  0  0  0  0  0
  128.9110  126.9000   65.7230 C   0  0  0  0  0  0  0  0  0  0  0  0
  128.2930  127.9590   65.0500 C   0  0  0  0  0  0  0  0  0  0  0  0
  127.1360  128.5570   65.5650 C   0  0  0  0  0  0  0  0  0  0  0  0
  126.5330  129.6860   64.7960 C   0  0  0  0  0  0  0  0  0  0  0  0
  125.2230  129.5940   64.3170 C   0  0  0  0  0  0  0  0  0  0  0  0
  124.6600  130.6400   63.5920 C   0  0  0  0  0  0  0  0  0  0  0  0
  125.3960  131.7960   63.3270 C   0  0  0  0  0  0  0  0  0  0  0  0
  124.7560  132.7810   62.6000 O   0  0  0  0  0  0  0  0  0  0  0  0
  123.7610  132.4090   61.6510 C   0  0  0  0  0  0  0  0  0  0  0  0
  126.7140  131.8890   63.7980 C   0  0  0  0  0  0  0  0  0  0  0  0
  127.2740  130.8410   64.5220 C   0  0  0  0  0  0  0  0  0  0  0  0
  126.6000  128.0560   66.7770 C   0  0  0  0  0  0  0  0  0  0  0  0
  125.3400  128.5820   67.3080 C   0  0  0  0  0  0  0  0  0  0  0  0
  124.3440  128.9990   67.7260 N   0  0  0  0  0  0  0  0  0  0  0  0
  127.2850  126.9980   67.4170 C   0  0  0  0  0  0  0  0  0  0  0  0
  126.7640  126.2500   68.9470 S   0  0  0  0  0  0  0  0  0  0  0  0
  127.8260  126.9010   70.2810 C   0  0  0  0  0  0  0  0  0  0  0  0
  128.3020  125.8560   71.3000 C   0  0  0  0  0  0  0  0  0  0  0  0
  128.1140  126.0230   72.5070 O   0  0  0  0  0  0  0  0  0  0  0  0
  128.9230  124.7840   70.7600 N   0  0  0  0  0  0  0  0  0  0  0  0
  129.4530  123.6900   71.4350 C   0  0  0  0  0  0  0  0  0  0  0  0
  130.6840  123.7220   72.0880 C   0  0  0  0  0  0  0  0  0  0  0  0
  130.8390  122.4620   72.6210 C   0  0  0  0  0  0  0  0  0  0  0  0
  129.7560  121.7120   72.3060 O   0  0  0  0  0  0  0  0  0  0  0  0
  128.8840  122.5020   71.5550 N   0  0  0  0  0  0  0  0  0  0  0  0
  128.3950  126.4290   66.8890 N   0  0  0  0  0  0  0  0  0  0  0  0
  130.3100  125.9170   63.8530 C   0  0  0  0  0  0  0  0  0  0  0  0
  131.4560  125.2840   63.3810 C   0  0  0  0  0  0  0  0  0  0  0  0
  1  2  1  0
  2  3  1  0
  3  4  2  0
  4  5  1  0
  5  6  2  0
  6  7  1  0
  7  8  2  0
  8  9  1  0
  9 10  1  0
 10 11  2  0
 11 12  1  0
 12 13  2  0
 13 14  1  0
 14 15  1  0
 13 16  1  0
 16 17  2  0
  9 18  2  0
 18 19  1  0
 19 20  3  0
 18 21  1  0
 21 22  1  0
 22 23  1  0
 23 24  1  0
 24 25  2  0
 24 26  1  0
 26 27  1  0
 27 28  1  0
 28 29  2  0
 29 30  1  0
 30 31  1  0
 21 32  2  0
  6 33  1  0
 33 34  2  0
 34  3  1  0
 32  7  1  0
 17 10  1  0
 31 27  2  0
M  END
>  <Binding energies>  (2) 
[-9.98]

>  <Ligand effiencies>  (2) 
[-0.28514285714285714]

>  <Interactions>  (2) 
["V-A:GLU:543:CD:4908, V-B:LEU:475:CD1:9229, V-B:GLU:543:C:9874, V-B:GLU:543:CB:9878, V-B:GLY:544:C:9884, V-B:HIS:456:CE1:9040, V-B:ARG:545:CG:9894, H-B:LYS:547:NZ:9923, V-A:HIS:456:CE1:4069, V-A:HIS:456:CG:4066, V-A:HIS:456:CD2:4068, V-A:HIS:456:CB:4065, H-B:TYR:484:OH:9319, H-B:ARG:545:NE:9896, V-B:ILE:369:CD1:8210, V-B:ARG:545:CD:9895, V-B:ARG:545:CZ:9898, H-A:GLY:454:N:4050, V-A:ARG:545:CZ:4926, V-A:GLY:453:CA:4044, H-B:GLU:543:O:9875, V-A:TYR:484:CD2:4344, V-A:TYR:484:CG:4342, V-A:TYR:484:CE2:4346, V-A:TYR:484:CB:4341, V-A:TYR:484:CD1:4343, H-B:ARG:545:N:9892"]

$$$$
1c_Ghoteimi_2023
     RDKit          3D

 34 37  0  0  0  0  0  0  0  0999 V2000
  127.2550  126.6520   74.7270 C   0  0  0  0  0  0  0  0  0  0  0  0
  128.2840  125.8800   74.1180 O   0  0  0  0  0  0  0  0  0  0  0  0
  128.4990  125.9950   72.7570 C   0  0  0  0  0  0  0  0  0  0  0  0
  127.9450  127.1060   72.1280 C   0  0  0  0  0  0  0  0  0  0  0  0
  128.1100  127.3000   70.7590 C   0  0  0  0  0  0  0  0  0  0  0  0
  128.8330  126.3860   69.9780 C   0  0  0  0  0  0  0  0  0  0  0  0
  129.0090  126.5890   68.5010 C   0  0  0  0  0  0  0  0  0  0  0  0
  129.7370  125.7050   67.6970 C   0  0  0  0  0  0  0  0  0  0  0  0
  129.8500  125.9210   66.3190 C   0  0  0  0  0  0  0  0  0  0  0  0
  130.5850  124.9020   65.5130 C   0  0  0  0  0  0  0  0  0  0  0  0
  131.9100  125.1220   65.1240 C   0  0  0  0  0  0  0  0  0  0  0  0
  132.5860  124.1810   64.3540 C   0  0  0  0  0  0  0  0  0  0  0  0
  131.9510  123.0050   63.9550 C   0  0  0  0  0  0  0  0  0  0  0  0
  132.6990  122.1280   63.1930 O   0  0  0  0  0  0  0  0  0  0  0  0
  133.5410  122.6430   62.1670 C   0  0  0  0  0  0  0  0  0  0  0  0
  130.6190  122.7830   64.3380 C   0  0  0  0  0  0  0  0  0  0  0  0
  129.9450  123.7270   65.1080 C   0  0  0  0  0  0  0  0  0  0  0  0
  129.2370  127.0700   65.7650 C   0  0  0  0  0  0  0  0  0  0  0  0
  129.3480  127.3710   64.3330 C   0  0  0  0  0  0  0  0  0  0  0  0
  129.4350  127.6070   63.2040 N   0  0  0  0  0  0  0  0  0  0  0  0
  128.5040  127.9090   66.6290 C   0  0  0  0  0  0  0  0  0  0  0  0
  127.5440  129.2890   66.0440 S   0  0  0  0  0  0  0  0  0  0  0  0
  125.8190  128.8610   66.4480 C   0  0  0  0  0  0  0  0  0  0  0  0
  124.8200  129.5200   65.4910 C   0  0  0  0  0  0  0  0  0  0  0  0
  123.8780  130.1690   65.9470 O   0  0  0  0  0  0  0  0  0  0  0  0
  125.0930  129.3620   64.1770 N   0  0  0  0  0  0  0  0  0  0  0  0
  124.4450  129.9770   63.1170 C   0  0  0  0  0  0  0  0  0  0  0  0
  123.3320  130.6770   63.1470 N   0  0  0  0  0  0  0  0  0  0  0  0
  123.0260  131.1510   61.9550 C   0  0  0  0  0  0  0  0  0  0  0  0
  123.9060  130.8370   60.9240 C   0  0  0  0  0  0  0  0  0  0  0  0
  125.2000  129.8650   61.5600 S   0  0  0  0  0  0  0  0  0  0  0  0
  128.3880  127.6680   67.9570 N   0  0  0  0  0  0  0  0  0  0  0  0
  129.3920  125.2730   70.6240 C   0  0  0  0  0  0  0  0  0  0  0  0
  129.2290  125.0740   71.9910 C   0  0  0  0  0  0  0  0  0  0  0  0
  1  2  1  0
  2  3  1  0
  3  4  2  0
  4  5  1  0
  5  6  2  0
  6  7  1  0
  7  8  2  0
  8  9  1  0
  9 10  1  0
 10 11  2  0
 11 12  1  0
 12 13  2  0
 13 14  1  0
 14 15  1  0
 13 16  1  0
 16 17  2  0
  9 18  2  0
 18 19  1  0
 19 20  3  0
 18 21  1  0
 21 22  1  0
 22 23  1  0
 23 24  1  0
 24 25  2  0
 24 26  1  0
 26 27  1  0
 27 28  2  0
 28 29  1  0
 29 30  2  0
 30 31  1  0
 21 32  2  0
  6 33  1  0
 33 34  2  0
 34  3  1  0
 32  7  1  0
 17 10  1  0
 31 27  1  0
M  END
>  <Binding energies>  (3) 
[-9.42]

>  <Ligand effiencies>  (3) 
[-0.26914285714285713]

>  <Interactions>  (3) 
["V-B:ASP:366:CG:8184, V-A:LEU:475:CD1:4258, V-A:GLU:543:CD:4908, V-B:GLU:543:CB:9878, V-B:HIS:456:CD2:9039, V-B:HIS:456:CE1:9040, V-B:ARG:545:CG:9894, H-B:LYS:547:NZ:9923, V-A:HIS:456:CE1:4069, V-A:HIS:456:CD2:4068, H-B:GLU:543:OE1:9881, H-B:TYR:484:OH:9319, H-B:ARG:545:NE:9896, H-B:GLY:454:N:9021, V-B:ILE:369:CD1:8210, V-B:ARG:545:CD:9895, V-B:ARG:545:CZ:9898, V-B:GLU:543:CG:9879, V-A:TYR:484:CE1:4345, H-B:ARG:545:NH2:9900, H-B:ILE:455:N:9026, V-A:ILE:369:CD1:3239, V-A:GLY:454:CA:4049, V-B:LYS:547:CD:9921"]

$$$$
1d_Ghoteimi_2023
     RDKit          3D

 30 32  0  0  0  0  0  0  0  0999 V2000
  133.5430  124.7680   63.1340 C   0  0  0  0  0  0  0  0  0  0  0  0
  133.5210  124.1420   64.4080 O   0  0  0  0  0  0  0  0  0  0  0  0
  133.7690  124.8540   65.5260 C   0  0  0  0  0  0  0  0  0  0  0  0
  134.7540  124.7430   66.2570 O   0  0  0  0  0  0  0  0  0  0  0  0
  132.6630  125.8620   65.8290 C   0  0  0  0  0  0  0  0  0  0  0  0
  131.0730  125.0430   65.5030 S   0  0  0  0  0  0  0  0  0  0  0  0
  129.8140  126.0150   66.3010 C   0  0  0  0  0  0  0  0  0  0  0  0
  129.7800  125.8650   67.6460 N   0  0  0  0  0  0  0  0  0  0  0  0
  128.8640  126.5460   68.3810 C   0  0  0  0  0  0  0  0  0  0  0  0
  128.8980  126.3290   69.8660 C   0  0  0  0  0  0  0  0  0  0  0  0
  128.4670  127.3240   70.7580 C   0  0  0  0  0  0  0  0  0  0  0  0
  128.5050  127.1230   72.1340 C   0  0  0  0  0  0  0  0  0  0  0  0
  128.9760  125.9240   72.6630 C   0  0  0  0  0  0  0  0  0  0  0  0
  128.9810  125.8140   74.0410 O   0  0  0  0  0  0  0  0  0  0  0  0
  128.1550  126.6820   74.8090 C   0  0  0  0  0  0  0  0  0  0  0  0
  129.4110  124.9200   71.7860 C   0  0  0  0  0  0  0  0  0  0  0  0
  129.3700  125.1250   70.4090 C   0  0  0  0  0  0  0  0  0  0  0  0
  127.9560  127.4130   67.7620 C   0  0  0  0  0  0  0  0  0  0  0  0
  127.9580  127.5750   66.3710 C   0  0  0  0  0  0  0  0  0  0  0  0
  126.9570  128.5110   65.7750 C   0  0  0  0  0  0  0  0  0  0  0  0
  125.6400  128.5250   66.2450 C   0  0  0  0  0  0  0  0  0  0  0  0
  124.7010  129.3940   65.6950 C   0  0  0  0  0  0  0  0  0  0  0  0
  125.0600  130.2690   64.6700 C   0  0  0  0  0  0  0  0  0  0  0  0
  124.0630  131.0900   64.1800 O   0  0  0  0  0  0  0  0  0  0  0  0
  123.7700  131.0730   62.7870 C   0  0  0  0  0  0  0  0  0  0  0  0
  126.3840  130.2680   64.2040 C   0  0  0  0  0  0  0  0  0  0  0  0
  127.3200  129.3980   64.7560 C   0  0  0  0  0  0  0  0  0  0  0  0
  128.9000  126.8410   65.6080 C   0  0  0  0  0  0  0  0  0  0  0  0
  128.8790  126.8920   64.1430 C   0  0  0  0  0  0  0  0  0  0  0  0
  128.8610  126.9330   62.9870 N   0  0  0  0  0  0  0  0  0  0  0  0
  1  2  1  0
  2  3  1  0
  3  4  2  0
  3  5  1  0
  5  6  1  0
  6  7  1  0
  7  8  2  0
  8  9  1  0
  9 10  1  0
 10 11  2  0
 11 12  1  0
 12 13  2  0
 13 14  1  0
 14 15  1  0
 13 16  1  0
 16 17  2  0
  9 18  2  0
 18 19  1  0
 19 20  1  0
 20 21  2  0
 21 22  1  0
 22 23  2  0
 23 24  1  0
 24 25  1  0
 23 26  1  0
 26 27  2  0
 19 28  2  0
 28 29  1  0
 29 30  3  0
 28  7  1  0
 17 10  1  0
 27 20  1  0
M  END
>  <Binding energies>  (4) 
[-8.63]

>  <Ligand effiencies>  (4) 
[-0.2876666666666667]

>  <Interactions>  (4) 
["V-B:GLU:543:CD:9880, V-A:GLU:543:CD:4908, V-B:HIS:456:CE1:9040, V-B:ARG:545:CG:9894, H-B:LYS:547:NZ:9923, V-A:HIS:456:CE1:4069, V-A:HIS:456:CD2:4068, H-B:TYR:484:OH:9319, H-B:GLY:454:N:9021, H-A:HIS:456:NE2:4070, V-B:ARG:545:CD:9895, V-B:ARG:545:CZ:9898, H-A:GLY:454:N:4050, V-B:GLY:454:CA:9020, H-A:TYR:484:OH:4348, H-A:ARG:545:NE:4924, V-A:ARG:545:CZ:4926, V-A:ARG:545:CD:4923, V-A:ARG:545:CG:4922, H-A:ILE:455:N:4055"]

$$$$
1j_Grossjean_2025
     RDKit          3D

 20 21  0  0  0  0  0  0  0  0999 V2000
  128.7190  126.0260   70.3260 C   0  0  0  0  0  0  0  0  0  0  0  0
  128.7690  126.2620   68.8270 C   0  0  0  0  0  0  0  0  0  0  0  0
  129.4250  125.3800   67.9720 C   0  0  0  0  0  0  0  0  0  0  0  0
  129.4270  125.6420   66.5980 C   0  0  0  0  0  0  0  0  0  0  0  0
  130.1390  124.6510   65.6780 C   0  0  0  0  0  0  0  0  0  0  0  0
  128.7720  126.7960   66.1140 C   0  0  0  0  0  0  0  0  0  0  0  0
  128.7160  127.0620   64.6740 C   0  0  0  0  0  0  0  0  0  0  0  0
  128.6730  127.2680   63.5360 N   0  0  0  0  0  0  0  0  0  0  0  0
  128.1540  127.6500   67.0580 C   0  0  0  0  0  0  0  0  0  0  0  0
  127.2880  129.1440   66.6260 S   0  0  0  0  0  0  0  0  0  0  0  0
  125.5090  128.8270   66.8180 C   0  0  0  0  0  0  0  0  0  0  0  0
  124.6740  129.6000   65.7960 C   0  0  0  0  0  0  0  0  0  0  0  0
  123.7550  130.3210   66.1870 O   0  0  0  0  0  0  0  0  0  0  0  0
  125.0280  129.4260   64.5040 N   0  0  0  0  0  0  0  0  0  0  0  0
  124.4270  130.0060   63.3950 C   0  0  0  0  0  0  0  0  0  0  0  0
  123.1700  130.3670   63.2550 N   0  0  0  0  0  0  0  0  0  0  0  0
  122.9460  130.8890   62.0650 C   0  0  0  0  0  0  0  0  0  0  0  0
  124.0410  130.9600   61.2080 C   0  0  0  0  0  0  0  0  0  0  0  0
  125.4340  130.3060   62.0160 S   0  0  0  0  0  0  0  0  0  0  0  0
  128.1390  127.3760   68.3860 N   0  0  0  0  0  0  0  0  0  0  0  0
  1  2  1  0
  2  3  2  0
  3  4  1  0
  4  5  1  0
  4  6  2  0
  6  7  1  0
  7  8  3  0
  6  9  1  0
  9 10  1  0
 10 11  1  0
 11 12  1  0
 12 13  2  0
 12 14  1  0
 14 15  1  0
 15 16  2  0
 16 17  1  0
 17 18  2  0
 18 19  1  0
  9 20  2  0
 20  2  1  0
 19 15  1  0
M  END
>  <Binding energies>  (5) 
[-6.51]

>  <Ligand effiencies>  (5) 
[-0.31]

>  <Interactions>  (5) 
["V-B:GLU:543:CD:9880, V-B:ASP:366:CG:8184, V-A:GLU:543:CD:4908, V-B:GLU:543:C:9874, V-B:GLU:543:CB:9878, V-B:HIS:456:CE1:9040, V-B:ARG:545:CG:9894, V-A:HIS:456:CE1:4069, H-B:GLU:543:OE1:9881, H-B:TYR:484:OH:9319, H-B:GLY:454:N:9021, V-B:ILE:369:CD1:8210, V-B:ARG:545:CD:9895, V-B:ARG:545:CZ:9898, V-A:TYR:484:CE1:4345, H-B:ARG:545:NH2:9900, H-B:ILE:455:N:9026, H-B:ARG:545:NH1:9899"]

$$$$
1o_Grossjean_2025
     RDKit          3D

 26 27  0  0  0  0  0  0  0  0999 V2000
  127.0520  126.6860   74.3820 C   0  0  0  0  0  0  0  0  0  0  0  0
  128.2490  125.9300   74.4960 O   0  0  0  0  0  0  0  0  0  0  0  0
  129.3750  126.2980   73.8320 C   0  0  0  0  0  0  0  0  0  0  0  0
  130.3740  126.7600   74.3910 O   0  0  0  0  0  0  0  0  0  0  0  0
  129.2860  126.0840   72.3480 C   0  0  0  0  0  0  0  0  0  0  0  0
  128.7520  127.0560   71.4890 C   0  0  0  0  0  0  0  0  0  0  0  0
  128.6870  126.8270   70.1170 C   0  0  0  0  0  0  0  0  0  0  0  0
  129.1460  125.6250   69.5770 C   0  0  0  0  0  0  0  0  0  0  0  0
  129.0410  125.5030   68.1770 N   0  0  0  0  0  0  0  0  0  0  0  0
  129.4510  126.3430   67.2020 C   0  0  0  0  0  0  0  0  0  0  0  0
  130.0610  127.3970   67.3830 O   0  0  0  0  0  0  0  0  0  0  0  0
  129.1380  125.8930   65.7670 C   0  0  0  0  0  0  0  0  0  0  0  0
  130.3020  125.1350   65.0970 C   0  0  0  0  0  0  0  0  0  0  0  0
  130.1220  123.3270   65.1340 S   0  0  0  0  0  0  0  0  0  0  0  0
  130.9590  122.6480   63.7150 C   0  0  0  0  0  0  0  0  0  0  0  0
  130.2080  121.7550   63.0210 N   0  0  0  0  0  0  0  0  0  0  0  0
  130.7370  121.1790   61.9160 C   0  0  0  0  0  0  0  0  0  0  0  0
  129.8340  120.2030   61.1850 C   0  0  0  0  0  0  0  0  0  0  0  0
  132.0270  121.4550   61.4690 C   0  0  0  0  0  0  0  0  0  0  0  0
  132.8190  122.3540   62.1910 C   0  0  0  0  0  0  0  0  0  0  0  0
  134.2350  122.6300   61.6870 C   0  0  0  0  0  0  0  0  0  0  0  0
  132.2900  122.9660   63.3500 C   0  0  0  0  0  0  0  0  0  0  0  0
  133.1240  123.8630   64.1520 C   0  0  0  0  0  0  0  0  0  0  0  0
  133.7850  124.5730   64.7830 N   0  0  0  0  0  0  0  0  0  0  0  0
  129.6860  124.6510   70.4300 C   0  0  0  0  0  0  0  0  0  0  0  0
  129.7520  124.8820   71.8010 C   0  0  0  0  0  0  0  0  0  0  0  0
  1  2  1  0
  2  3  1  0
  3  4  2  0
  3  5  1  0
  5  6  2  0
  6  7  1  0
  7  8  2  0
  8  9  1  0
  9 10  1  0
 10 11  2  0
 10 12  1  0
 12 13  1  0
 13 14  1  0
 14 15  1  0
 15 16  2  0
 16 17  1  0
 17 18  1  0
 17 19  2  0
 19 20  1  0
 20 21  1  0
 20 22  2  0
 22 23  1  0
 23 24  3  0
  8 25  1  0
 25 26  2  0
 26  5  1  0
 22 15  1  0
M  END
>  <Binding energies>  (6) 
[-8.13]

>  <Ligand effiencies>  (6) 
[-0.30111111111111116]

>  <Interactions>  (6) 
["V-B:GLU:543:CD:9880, V-B:ALA:541:CB:9864, V-B:TYR:539:CD2:9846, V-A:PRO:482:CG:4327, V-A:LEU:475:CD1:4258, V-B:GLU:543:C:9874, V-B:GLU:543:CB:9878, H-A:LYS:547:NZ:4951, V-B:HIS:456:CE1:9040, H-B:LYS:547:NZ:9923, V-A:HIS:456:CE1:4069, V-A:HIS:456:CG:4066, V-A:HIS:456:CD2:4068, H-A:HIS:456:NE2:4070, H-A:GLY:454:N:4050, V-B:GLU:543:CG:9879, V-A:TYR:484:CE1:4345, V-A:ILE:369:CD1:3239, V-A:TYR:484:CZ:4347, H-A:TYR:484:OH:4348, V-B:LYS:547:CE:9922, V-A:GLY:454:CA:4049, H-B:GLU:543:O:9875, V-B:LYS:547:CD:9921"]

$$$$
1p_Grossjean_2025
     RDKit          3D

 21 22  0  0  0  0  0  0  0  0999 V2000
  133.1200  131.4050   62.4440 C   0  0  0  0  0  0  0  0  0  0  0  0
  132.1980  131.4450   61.2400 C   0  0  0  0  0  0  0  0  0  0  0  0
  132.6320  131.0460   59.9770 C   0  0  0  0  0  0  0  0  0  0  0  0
  131.7430  131.1160   58.8990 C   0  0  0  0  0  0  0  0  0  0  0  0
  132.2440  130.6880   57.5210 C   0  0  0  0  0  0  0  0  0  0  0  0
  130.4260  131.5800   59.1190 C   0  0  0  0  0  0  0  0  0  0  0  0
  129.4910  131.7070   58.0000 C   0  0  0  0  0  0  0  0  0  0  0  0
  128.7530  131.8070   57.1140 N   0  0  0  0  0  0  0  0  0  0  0  0
  130.0650  131.9420   60.4390 C   0  0  0  0  0  0  0  0  0  0  0  0
  128.4510  132.5340   60.8900 S   0  0  0  0  0  0  0  0  0  0  0  0
  127.4760  131.0820   61.3820 C   0  0  0  0  0  0  0  0  0  0  0  0
  128.0350  130.3460   62.6150 C   0  0  0  0  0  0  0  0  0  0  0  0
  127.2060  130.5660   63.8890 C   0  0  0  0  0  0  0  0  0  0  0  0
  127.5980  131.3700   64.7370 O   0  0  0  0  0  0  0  0  0  0  0  0
  126.0660  129.8440   63.9760 N   0  0  0  0  0  0  0  0  0  0  0  0
  125.1420  129.8550   65.0130 C   0  0  0  0  0  0  0  0  0  0  0  0
  125.3780  129.2540   66.2500 C   0  0  0  0  0  0  0  0  0  0  0  0
  124.2380  129.4850   66.9840 C   0  0  0  0  0  0  0  0  0  0  0  0
  123.3600  130.1860   66.2290 O   0  0  0  0  0  0  0  0  0  0  0  0
  123.9440  130.4140   64.9810 N   0  0  0  0  0  0  0  0  0  0  0  0
  130.9420  131.8900   61.4740 N   0  0  0  0  0  0  0  0  0  0  0  0
  1  2  1  0
  2  3  2  0
  3  4  1  0
  4  5  1  0
  4  6  2  0
  6  7  1  0
  7  8  3  0
  6  9  1  0
  9 10  1  0
 10 11  1  0
 11 12  1  0
 12 13  1  0
 13 14  2  0
 13 15  1  0
 15 16  1  0
 16 17  1  0
 17 18  2  0
 18 19  1  0
 19 20  1  0
  9 21  2  0
 21  2  1  0
 20 16  2  0
M  END
>  <Binding energies>  (7) 
[-6.78]

>  <Ligand effiencies>  (7) 
[-0.30818181818181817]

>  <Interactions>  (7) 
["V-A:PRO:540:N:4884, V-A:GLU:543:CD:4908, V-A:PRO:540:C:4881, V-A:PRO:540:CB:4885, V-A:PRO:540:CA:4883, H-A:ALA:541:N:4891, V-B:HIS:456:CE1:9040, V-B:ARG:545:CG:9894, H-B:GLU:543:OE1:9881, H-B:TYR:484:OH:9319, H-B:ARG:545:NE:9896, H-B:GLY:454:N:9021, V-B:ARG:545:CD:9895, V-B:ARG:545:CZ:9898, H-B:ILE:455:N:9026, V-A:ASN:362:CB:3176, V-B:TYR:484:CZ:9318, V-A:ASN:362:CG:3177, V-B:ILE:455:C:9023"]

$$$$
2a_Ghoteimi_2023
     RDKit          3D

 48 53  0  0  0  0  0  0  0  0999 V2000
  132.3810  131.2200   55.7900 C   0  0  0  0  0  0  0  0  0  0  0  0
  131.9750  132.6400   55.3830 C   0  0  0  0  0  0  0  0  0  0  0  0
  131.0880  133.1740   56.3570 O   0  0  0  0  0  0  0  0  0  0  0  0
  129.9080  132.5640   56.6420 C   0  0  0  0  0  0  0  0  0  0  0  0
  129.0480  132.3160   55.7910 O   0  0  0  0  0  0  0  0  0  0  0  0
  129.7580  132.2140   58.0950 C   0  0  0  0  0  0  0  0  0  0  0  0
  130.7350  131.4840   58.7880 C   0  0  0  0  0  0  0  0  0  0  0  0
  130.5650  131.1780   60.1340 C   0  0  0  0  0  0  0  0  0  0  0  0
  129.4220  131.5970   60.8180 C   0  0  0  0  0  0  0  0  0  0  0  0
  129.3520  131.2290   62.1750 N   0  0  0  0  0  0  0  0  0  0  0  0
  128.3120  131.2870   63.0350 C   0  0  0  0  0  0  0  0  0  0  0  0
  127.1990  131.7430   62.7710 O   0  0  0  0  0  0  0  0  0  0  0  0
  128.6050  130.7690   64.4490 C   0  0  0  0  0  0  0  0  0  0  0  0
  127.3130  129.6860   65.1380 S   0  0  0  0  0  0  0  0  0  0  0  0
  128.1470  128.1930   65.6250 C   0  0  0  0  0  0  0  0  0  0  0  0
  128.3140  128.0690   66.9620 N   0  0  0  0  0  0  0  0  0  0  0  0
  128.9460  126.9760   67.4570 C   0  0  0  0  0  0  0  0  0  0  0  0
  129.1030  126.9110   68.9420 C   0  0  0  0  0  0  0  0  0  0  0  0
  128.9940  125.6970   69.6320 C   0  0  0  0  0  0  0  0  0  0  0  0
  129.1290  125.6450   71.0160 C   0  0  0  0  0  0  0  0  0  0  0  0
  129.3850  126.8030   71.7640 C   0  0  0  0  0  0  0  0  0  0  0  0
  129.4890  126.7400   73.1570 N   0  0  0  0  0  0  0  0  0  0  0  0
  128.6860  127.6210   74.0300 C   0  0  0  0  0  0  0  0  0  0  0  0
  128.6540  127.1740   75.5060 C   0  0  0  0  0  0  0  0  0  0  0  0
  129.9770  127.0370   76.0010 O   0  0  0  0  0  0  0  0  0  0  0  0
  130.7050  126.0630   75.2700 C   0  0  0  0  0  0  0  0  0  0  0  0
  130.8000  126.4740   73.7860 C   0  0  0  0  0  0  0  0  0  0  0  0
  129.4820  128.0200   71.0690 C   0  0  0  0  0  0  0  0  0  0  0  0
  129.3490  128.0710   69.6850 C   0  0  0  0  0  0  0  0  0  0  0  0
  129.4160  125.9680   66.6110 C   0  0  0  0  0  0  0  0  0  0  0  0
  129.2550  126.0740   65.2230 C   0  0  0  0  0  0  0  0  0  0  0  0
  129.7870  124.9640   64.3760 C   0  0  0  0  0  0  0  0  0  0  0  0
  130.6790  125.2380   63.3360 C   0  0  0  0  0  0  0  0  0  0  0  0
  131.1640  124.2130   62.5290 C   0  0  0  0  0  0  0  0  0  0  0  0
  130.7750  122.8820   62.7410 C   0  0  0  0  0  0  0  0  0  0  0  0
  131.2370  121.8400   61.9310 N   0  0  0  0  0  0  0  0  0  0  0  0
  132.4730  122.0280   61.1450 C   0  0  0  0  0  0  0  0  0  0  0  0
  133.0700  120.7050   60.6210 C   0  0  0  0  0  0  0  0  0  0  0  0
  132.0970  119.9970   59.8680 O   0  0  0  0  0  0  0  0  0  0  0  0
  130.9550  119.6840   60.6490 C   0  0  0  0  0  0  0  0  0  0  0  0
  130.3040  120.9790   61.1780 C   0  0  0  0  0  0  0  0  0  0  0  0
  129.8710  122.6160   63.7790 C   0  0  0  0  0  0  0  0  0  0  0  0
  129.3840  123.6410   64.5850 C   0  0  0  0  0  0  0  0  0  0  0  0
  128.5960  127.2170   64.7070 C   0  0  0  0  0  0  0  0  0  0  0  0
  128.3480  127.3570   63.2690 C   0  0  0  0  0  0  0  0  0  0  0  0
  128.1540  127.4660   62.1330 N   0  0  0  0  0  0  0  0  0  0  0  0
  128.4370  132.3210   60.1300 C   0  0  0  0  0  0  0  0  0  0  0  0
  128.6090  132.6280   58.7820 C   0  0  0  0  0  0  0  0  0  0  0  0
  1  2  1  0
  2  3  1  0
  3  4  1  0
  4  5  2  0
  4  6  1  0
  6  7  2  0
  7  8  1  0
  8  9  2  0
  9 10  1  0
 10 11  1  0
 11 12  2  0
 11 13  1  0
 13 14  1  0
 14 15  1  0
 15 16  2  0
 16 17  1  0
 17 18  1  0
 18 19  2  0
 19 20  1  0
 20 21  2  0
 21 22  1  0
 22 23  1  0
 23 24  1  0
 24 25  1  0
 25 26  1  0
 26 27  1  0
 21 28  1  0
 28 29  2  0
 17 30  2  0
 30 31  1  0
 31 32  1  0
 32 33  2  0
 33 34  1  0
 34 35  2  0
 35 36  1  0
 36 37  1  0
 37 38  1  0
 38 39  1  0
 39 40  1  0
 40 41  1  0
 35 42  1  0
 42 43  2  0
 31 44  2  0
 44 45  1  0
 45 46  3  0
  9 47  1  0
 47 48  2  0
 48  6  1  0
 44 15  1  0
 29 18  1  0
 43 32  1  0
 27 22  1  0
 41 36  1  0
M  END
>  <Binding energies>  (8) 
[-11.26]

>  <Ligand effiencies>  (8) 
[-0.22979591836734695]

>  <Interactions>  (8) 
["V-B:GLU:543:CD:9880, V-B:ALA:541:CB:9864, V-B:TYR:539:CE2:9848, V-B:TYR:539:CD2:9846, V-A:LEU:475:CD1:4258, V-A:PRO:540:CD:4887, V-A:PRO:540:N:4884, V-A:TYR:539:C:4867, V-A:TYR:531:CE2:4793, V-A:ILE:538:CD1:4865, V-A:TYR:531:CZ:4794, V-A:ILE:538:CA:4860, V-A:LEU:363:CD1:3189, V-A:GLU:543:CD:4908, V-A:TYR:539:CE2:4876, V-A:PRO:540:CB:4885, V-A:PRO:540:CA:4883, V-A:TYR:539:CD2:4874, V-A:ILE:538:CG2:4863, V-A:ALA:541:CB:4892, V-B:GLU:543:C:9874, V-B:GLU:543:CB:9878, V-B:HIS:456:CD2:9039, H-A:LYS:547:NZ:4951, V-B:HIS:456:CE1:9040, V-A:HIS:456:CE1:4069, V-A:HIS:456:CD2:4068, H-B:TYR:484:OH:9319, V-A:GLU:543:CB:4906, V-B:GLU:543:CG:9879, V-A:TRP:381:CZ2:3370, V-B:GLU:543:CA:9876, V-A:ILE:369:CD1:3239, V-A:TRP:381:CH2:3372, V-A:ILE:369:CG2:3237, H-A:GLU:543:OE1:4909, V-A:TYR:539:CE1:4875, V-A:TYR:539:CD1:4873, V-A:TYR:539:CZ:4877, H-A:TYR:539:N:4870, V-A:TYR:539:CG:4872, V-A:TYR:539:CA:4869, V-A:GLU:543:CG:4907"]

$$$$
2aa_Ghoteimi_2023
     RDKit          3D

 48 53  0  0  0  0  0  0  0  0999 V2000
  132.0900  132.1260   54.9980 C   0  0  0  0  0  0  0  0  0  0  0  0
  130.8460  131.2440   54.8510 C   0  0  0  0  0  0  0  0  0  0  0  0
  130.2020  131.1250   56.1130 O   0  0  0  0  0  0  0  0  0  0  0  0
  129.5790  132.1880   56.6860 C   0  0  0  0  0  0  0  0  0  0  0  0
  129.8290  133.3620   56.3940 O   0  0  0  0  0  0  0  0  0  0  0  0
  128.5420  131.7920   57.6980 C   0  0  0  0  0  0  0  0  0  0  0  0
  127.8130  130.5990   57.5840 C   0  0  0  0  0  0  0  0  0  0  0  0
  126.8620  130.2580   58.5410 C   0  0  0  0  0  0  0  0  0  0  0  0
  126.6140  131.1030   59.6250 C   0  0  0  0  0  0  0  0  0  0  0  0
  125.6340  130.6590   60.5340 N   0  0  0  0  0  0  0  0  0  0  0  0
  124.6660  131.3530   61.1700 C   0  0  0  0  0  0  0  0  0  0  0  0
  124.4500  132.5580   61.0290 O   0  0  0  0  0  0  0  0  0  0  0  0
  123.7890  130.5130   62.1070 C   0  0  0  0  0  0  0  0  0  0  0  0
  124.2770  130.6220   63.4490 O   0  0  0  0  0  0  0  0  0  0  0  0
  125.5160  130.0930   63.7850 C   0  0  0  0  0  0  0  0  0  0  0  0
  126.5160  130.1700   62.8630 N   0  0  0  0  0  0  0  0  0  0  0  0
  127.7400  129.6660   63.1610 C   0  0  0  0  0  0  0  0  0  0  0  0
  128.7880  129.7820   62.0990 C   0  0  0  0  0  0  0  0  0  0  0  0
  129.1560  128.6700   61.3350 C   0  0  0  0  0  0  0  0  0  0  0  0
  130.1260  128.7730   60.3410 C   0  0  0  0  0  0  0  0  0  0  0  0
  130.7540  129.9980   60.0650 C   0  0  0  0  0  0  0  0  0  0  0  0
  131.7390  130.1170   59.0780 N   0  0  0  0  0  0  0  0  0  0  0  0
  133.0180  130.8070   59.3460 C   0  0  0  0  0  0  0  0  0  0  0  0
  133.8180  131.1520   58.0720 C   0  0  0  0  0  0  0  0  0  0  0  0
  134.0250  129.9830   57.2960 O   0  0  0  0  0  0  0  0  0  0  0  0
  132.7940  129.4030   56.8920 C   0  0  0  0  0  0  0  0  0  0  0  0
  131.9640  129.0050   58.1310 C   0  0  0  0  0  0  0  0  0  0  0  0
  130.3960  131.1050   60.8480 C   0  0  0  0  0  0  0  0  0  0  0  0
  129.4280  131.0000   61.8430 C   0  0  0  0  0  0  0  0  0  0  0  0
  127.9890  129.0530   64.3930 C   0  0  0  0  0  0  0  0  0  0  0  0
  126.9750  128.9510   65.3530 C   0  0  0  0  0  0  0  0  0  0  0  0
  127.2940  128.2630   66.6410 C   0  0  0  0  0  0  0  0  0  0  0  0
  128.5310  128.4610   67.2590 C   0  0  0  0  0  0  0  0  0  0  0  0
  128.8430  127.8080   68.4490 C   0  0  0  0  0  0  0  0  0  0  0  0
  127.9300  126.9250   69.0470 C   0  0  0  0  0  0  0  0  0  0  0  0
  128.2200  126.2610   70.2420 N   0  0  0  0  0  0  0  0  0  0  0  0
  128.1360  126.9500   71.5440 C   0  0  0  0  0  0  0  0  0  0  0  0
  128.1400  125.9870   72.7510 C   0  0  0  0  0  0  0  0  0  0  0  0
  129.2830  125.1460   72.6960 O   0  0  0  0  0  0  0  0  0  0  0  0
  129.3000  124.3660   71.5110 C   0  0  0  0  0  0  0  0  0  0  0  0
  129.3280  125.2850   70.2720 C   0  0  0  0  0  0  0  0  0  0  0  0
  126.6890  126.7380   68.4230 C   0  0  0  0  0  0  0  0  0  0  0  0
  126.3770  127.3910   67.2350 C   0  0  0  0  0  0  0  0  0  0  0  0
  125.7080  129.4990   65.0450 C   0  0  0  0  0  0  0  0  0  0  0  0
  124.6040  129.4830   66.0070 C   0  0  0  0  0  0  0  0  0  0  0  0
  123.7310  129.4700   66.7680 N   0  0  0  0  0  0  0  0  0  0  0  0
  127.3440  132.2930   59.7500 C   0  0  0  0  0  0  0  0  0  0  0  0
  128.2980  132.6310   58.7930 C   0  0  0  0  0  0  0  0  0  0  0  0
  1  2  1  0
  2  3  1  0
  3  4  1  0
  4  5  2  0
  4  6  1  0
  6  7  2  0
  7  8  1  0
  8  9  2  0
  9 10  1  0
 10 11  1  0
 11 12  2  0
 11 13  1  0
 13 14  1  0
 14 15  1  0
 15 16  2  0
 16 17  1  0
 17 18  1  0
 18 19  2  0
 19 20  1  0
 20 21  2  0
 21 22  1  0
 22 23  1  0
 23 24  1  0
 24 25  1  0
 25 26  1  0
 26 27  1  0
 21 28  1  0
 28 29  2  0
 17 30  2  0
 30 31  1  0
 31 32  1  0
 32 33  2  0
 33 34  1  0
 34 35  2  0
 35 36  1  0
 36 37  1  0
 37 38  1  0
 38 39  1  0
 39 40  1  0
 40 41  1  0
 35 42  1  0
 42 43  2  0
 31 44  2  0
 44 45  1  0
 45 46  3  0
  9 47  1  0
 47 48  2  0
 48  6  1  0
 44 15  1  0
 29 18  1  0
 43 32  1  0
 27 22  1  0
 41 36  1  0
M  END
>  <Binding energies>  (9) 
[-10.84]

>  <Ligand effiencies>  (9) 
[-0.22122448979591836]

>  <Interactions>  (9) 
["H-B:ASP:366:OD1:8185, V-B:ASP:366:CG:8184, V-A:ASP:366:CB:3212, V-A:TYR:539:C:4867, V-A:TYR:531:CE2:4793, V-A:ILE:538:CD1:4865, V-A:TYR:531:CZ:4794, V-A:ASP:366:CG:3213, V-A:LEU:363:CD1:3189, V-A:GLU:543:CD:4908, V-A:TYR:539:CE2:4876, V-A:PRO:540:CB:4885, V-A:PRO:540:CA:4883, V-A:TYR:539:CD2:4874, V-B:GLU:543:C:9874, V-B:GLU:543:CB:9878, V-B:GLY:544:C:9884, V-B:ARG:545:CA:9891, V-B:HIS:456:CE1:9040, V-B:ARG:545:CG:9894, H-B:LYS:547:NZ:9923, V-A:HIS:456:CE1:4069, V-A:HIS:456:CD2:4068, H-B:TYR:484:OH:9319, H-B:ARG:545:NE:9896, V-A:GLU:543:CB:4906, H-B:GLY:454:N:9021, V-B:ARG:545:CD:9895, V-B:ARG:545:CZ:9898, H-B:ARG:545:NH2:9900, H-B:ILE:455:N:9026, V-B:LYS:547:CE:9922, V-A:TYR:539:CE1:4875, V-A:TYR:539:CD1:4873, V-A:TYR:539:CZ:4877, H-A:TYR:539:N:4870, V-A:TYR:539:CG:4872, V-A:LEU:363:CA:3185, V-A:LEU:363:CB:3187, V-A:LEU:363:CG:3188"]

$$$$
2b_Ghoteimi_2023
     RDKit          3D

 42 47  0  0  0  0  0  0  0  0999 V2000
  130.1240  124.3690   67.9540 N   0  0  0  0  0  0  0  0  0  0  0  0
  129.8090  125.2890   67.3270 C   0  0  0  0  0  0  0  0  0  0  0  0
  129.4110  126.4520   66.5280 C   0  0  0  0  0  0  0  0  0  0  0  0
  129.3850  126.3780   65.1130 C   0  0  0  0  0  0  0  0  0  0  0  0
  129.7470  125.1540   64.3380 C   0  0  0  0  0  0  0  0  0  0  0  0
  128.9650  124.7490   63.2550 C   0  0  0  0  0  0  0  0  0  0  0  0
  129.2970  123.6080   62.5300 C   0  0  0  0  0  0  0  0  0  0  0  0
  130.4120  122.8300   62.8810 C   0  0  0  0  0  0  0  0  0  0  0  0
  130.7730  121.6890   62.1620 N   0  0  0  0  0  0  0  0  0  0  0  0
  129.7380  120.9640   61.3980 C   0  0  0  0  0  0  0  0  0  0  0  0
  130.1730  119.5450   60.9740 C   0  0  0  0  0  0  0  0  0  0  0  0
  131.3940  119.6030   60.2530 O   0  0  0  0  0  0  0  0  0  0  0  0
  132.4370  120.1680   61.0320 C   0  0  0  0  0  0  0  0  0  0  0  0
  132.0620  121.6050   61.4480 C   0  0  0  0  0  0  0  0  0  0  0  0
  131.1890  123.2420   63.9720 C   0  0  0  0  0  0  0  0  0  0  0  0
  130.8590  124.3860   64.6950 C   0  0  0  0  0  0  0  0  0  0  0  0
  128.9930  127.5130   64.3930 C   0  0  0  0  0  0  0  0  0  0  0  0
  128.6070  128.6770   65.0630 C   0  0  0  0  0  0  0  0  0  0  0  0
  128.1510  129.9060   64.3420 C   0  0  0  0  0  0  0  0  0  0  0  0
  127.6040  129.8180   63.0570 C   0  0  0  0  0  0  0  0  0  0  0  0
  127.1630  130.9550   62.3860 C   0  0  0  0  0  0  0  0  0  0  0  0
  127.2640  132.2280   62.9710 C   0  0  0  0  0  0  0  0  0  0  0  0
  126.7970  133.3760   62.3220 N   0  0  0  0  0  0  0  0  0  0  0  0
  127.7410  134.2390   61.5820 C   0  0  0  0  0  0  0  0  0  0  0  0
  127.1770  135.6400   61.2610 C   0  0  0  0  0  0  0  0  0  0  0  0
  125.9460  135.5190   60.5650 O   0  0  0  0  0  0  0  0  0  0  0  0
  124.9770  134.8320   61.3390 C   0  0  0  0  0  0  0  0  0  0  0  0
  125.4750  133.4080   61.6670 C   0  0  0  0  0  0  0  0  0  0  0  0
  127.8060  132.3100   64.2610 C   0  0  0  0  0  0  0  0  0  0  0  0
  128.2440  131.1720   64.9320 C   0  0  0  0  0  0  0  0  0  0  0  0
  128.6300  128.7450   66.4180 N   0  0  0  0  0  0  0  0  0  0  0  0
  129.0380  127.6720   67.1350 C   0  0  0  0  0  0  0  0  0  0  0  0
  129.0120  127.9380   68.8950 S   0  0  0  0  0  0  0  0  0  0  0  0
  127.8280  126.7590   69.6110 C   0  0  0  0  0  0  0  0  0  0  0  0
  128.4330  125.9710   70.7730 C   0  0  0  0  0  0  0  0  0  0  0  0
  128.3970  126.4470   71.9100 O   0  0  0  0  0  0  0  0  0  0  0  0
  128.9810  124.7800   70.4460 N   0  0  0  0  0  0  0  0  0  0  0  0
  129.5830  123.8670   71.3000 C   0  0  0  0  0  0  0  0  0  0  0  0
  130.6970  124.1760   72.0800 C   0  0  0  0  0  0  0  0  0  0  0  0
  130.9800  123.0210   72.7710 C   0  0  0  0  0  0  0  0  0  0  0  0
  130.0830  122.0670   72.4270 O   0  0  0  0  0  0  0  0  0  0  0  0
  129.2010  122.6160   71.4940 N   0  0  0  0  0  0  0  0  0  0  0  0
  1  2  3  0
  2  3  1  0
  3  4  2  0
  4  5  1  0
  5  6  2  0
  6  7  1  0
  7  8  2  0
  8  9  1  0
  9 10  1  0
 10 11  1  0
 11 12  1  0
 12 13  1  0
 13 14  1  0
  8 15  1  0
 15 16  2  0
  4 17  1  0
 17 18  2  0
 18 19  1  0
 19 20  2  0
 20 21  1  0
 21 22  2  0
 22 23  1  0
 23 24  1  0
 24 25  1  0
 25 26  1  0
 26 27  1  0
 27 28  1  0
 22 29  1  0
 29 30  2  0
 18 31  1  0
 31 32  2  0
 32 33  1  0
 33 34  1  0
 34 35  1  0
 35 36  2  0
 35 37  1  0
 37 38  1  0
 38 39  1  0
 39 40  2  0
 40 41  1  0
 41 42  1  0
 32  3  1  0
 42 38  2  0
 16  5  1  0
 30 19  1  0
 14  9  1  0
 28 23  1  0
M  END
>  <Binding energies>  (10) 
[-11.16]

>  <Ligand effiencies>  (10) 
[-0.25953488372093025]

>  <Interactions>  (10) 
["V-A:PRO:482:CB:4326, V-B:GLU:543:CD:9880, V-B:ALA:541:CB:9864, V-B:TYR:539:CD2:9846, V-A:PRO:482:CG:4327, V-A:LEU:475:CD1:4258, V-B:PRO:482:CB:9297, V-A:GLU:543:CD:4908, V-B:PRO:482:CG:9298, V-A:TYR:539:CD2:4874, V-B:LEU:475:CD1:9229, V-A:ALA:541:CB:4892, V-B:GLU:543:C:9874, V-B:GLY:544:C:9884, V-B:HIS:456:CE1:9040, H-B:LYS:547:NZ:9923, V-A:HIS:456:CE1:4069, V-A:HIS:456:CG:4066, V-A:HIS:456:CD2:4068, V-A:HIS:456:CB:4065, V-A:GLU:543:CB:4906, H-B:HIS:456:NE2:9041, H-A:HIS:456:NE2:4070, V-B:GLU:543:CG:9879, V-A:TYR:484:CE1:4345, V-A:TRP:381:CH2:3372, V-A:TYR:484:CZ:4347, H-A:TYR:484:OH:4348, V-B:TRP:381:CH2:8343, V-B:TYR:484:CE1:9316, H-B:GLU:543:O:9875, V-A:TYR:484:CD2:4344, V-B:TRP:381:CZ2:8341"]

$$$$
2c_Ghoteimi_2023
     RDKit          3D

 42 47  0  0  0  0  0  0  0  0999 V2000
  128.2770  127.2340   63.3300 N   0  0  0  0  0  0  0  0  0  0  0  0
  128.4560  126.9820   64.4450 C   0  0  0  0  0  0  0  0  0  0  0  0
  128.6860  126.6580   65.8560 C   0  0  0  0  0  0  0  0  0  0  0  0
  129.3570  125.4650   66.2220 C   0  0  0  0  0  0  0  0  0  0  0  0
  129.8680  124.4630   65.2400 C   0  0  0  0  0  0  0  0  0  0  0  0
  130.8320  124.8300   64.2990 C   0  0  0  0  0  0  0  0  0  0  0  0
  131.3170  123.9010   63.3820 C   0  0  0  0  0  0  0  0  0  0  0  0
  130.8400  122.5800   63.3720 C   0  0  0  0  0  0  0  0  0  0  0  0
  131.3270  121.6270   62.4750 N   0  0  0  0  0  0  0  0  0  0  0  0
  130.3730  120.8390   61.6700 C   0  0  0  0  0  0  0  0  0  0  0  0
  131.0060  119.5850   61.0300 C   0  0  0  0  0  0  0  0  0  0  0  0
  132.1390  119.9520   60.2570 O   0  0  0  0  0  0  0  0  0  0  0  0
  133.1310  120.5850   61.0500 C   0  0  0  0  0  0  0  0  0  0  0  0
  132.5550  121.8650   61.6910 C   0  0  0  0  0  0  0  0  0  0  0  0
  129.8700  122.2220   64.3180 C   0  0  0  0  0  0  0  0  0  0  0  0
  129.3870  123.1510   65.2360 C   0  0  0  0  0  0  0  0  0  0  0  0
  129.5550  125.2030   67.5840 C   0  0  0  0  0  0  0  0  0  0  0  0
  129.1240  126.1150   68.5510 C   0  0  0  0  0  0  0  0  0  0  0  0
  129.3270  125.8900   70.0150 C   0  0  0  0  0  0  0  0  0  0  0  0
  129.7520  124.6470   70.4950 C   0  0  0  0  0  0  0  0  0  0  0  0
  129.9490  124.4330   71.8570 C   0  0  0  0  0  0  0  0  0  0  0  0
  129.7160  125.4530   72.7930 C   0  0  0  0  0  0  0  0  0  0  0  0
  129.9330  125.2620   74.1610 N   0  0  0  0  0  0  0  0  0  0  0  0
  131.2090  124.6850   74.6300 C   0  0  0  0  0  0  0  0  0  0  0  0
  131.1620  124.1800   76.0880 C   0  0  0  0  0  0  0  0  0  0  0  0
  130.7330  125.2210   76.9490 O   0  0  0  0  0  0  0  0  0  0  0  0
  129.4340  125.6760   76.6070 C   0  0  0  0  0  0  0  0  0  0  0  0
  129.4260  126.2220   75.1640 C   0  0  0  0  0  0  0  0  0  0  0  0
  129.3020  126.7010   72.3060 C   0  0  0  0  0  0  0  0  0  0  0  0
  129.1070  126.9150   70.9440 C   0  0  0  0  0  0  0  0  0  0  0  0
  128.4840  127.2590   68.1980 N   0  0  0  0  0  0  0  0  0  0  0  0
  128.2520  127.5200   66.8890 C   0  0  0  0  0  0  0  0  0  0  0  0
  127.3940  129.0520   66.6100 S   0  0  0  0  0  0  0  0  0  0  0  0
  125.6180  128.7340   66.8370 C   0  0  0  0  0  0  0  0  0  0  0  0
  124.7650  129.4890   65.8170 C   0  0  0  0  0  0  0  0  0  0  0  0
  123.8430  130.2050   66.2130 O   0  0  0  0  0  0  0  0  0  0  0  0
  125.0990  129.2990   64.5230 N   0  0  0  0  0  0  0  0  0  0  0  0
  124.4950  129.8790   63.4170 C   0  0  0  0  0  0  0  0  0  0  0  0
  123.2800  130.3730   63.3260 N   0  0  0  0  0  0  0  0  0  0  0  0
  123.0390  130.8520   62.1220 C   0  0  0  0  0  0  0  0  0  0  0  0
  124.0780  130.7500   61.2010 C   0  0  0  0  0  0  0  0  0  0  0  0
  125.4380  129.9850   61.9650 S   0  0  0  0  0  0  0  0  0  0  0  0
  1  2  3  0
  2  3  1  0
  3  4  2  0
  4  5  1  0
  5  6  2  0
  6  7  1  0
  7  8  2  0
  8  9  1  0
  9 10  1  0
 10 11  1  0
 11 12  1  0
 12 13  1  0
 13 14  1  0
  8 15  1  0
 15 16  2  0
  4 17  1  0
 17 18  2  0
 18 19  1  0
 19 20  2  0
 20 21  1  0
 21 22  2  0
 22 23  1  0
 23 24  1  0
 24 25  1  0
 25 26  1  0
 26 27  1  0
 27 28  1  0
 22 29  1  0
 29 30  2  0
 18 31  1  0
 31 32  2  0
 32 33  1  0
 33 34  1  0
 34 35  1  0
 35 36  2  0
 35 37  1  0
 37 38  1  0
 38 39  2  0
 39 40  1  0
 40 41  2  0
 41 42  1  0
 32  3  1  0
 42 38  1  0
 16  5  1  0
 30 19  1  0
 14  9  1  0
 28 23  1  0
M  END
>  <Binding energies>  (11) 
[-10.68]

>  <Ligand effiencies>  (11) 
[-0.2483720930232558]

>  <Interactions>  (11) 
["V-B:GLU:543:CD:9880, V-B:ALA:541:CB:9864, V-B:TYR:539:CD2:9846, V-B:ASP:366:CG:8184, V-A:PRO:482:CG:4327, V-A:LEU:475:CD1:4258, V-B:GLU:543:C:9874, V-B:GLU:543:CB:9878, V-B:HIS:456:CE1:9040, V-B:ARG:545:CG:9894, V-A:HIS:456:CE1:4069, V-A:HIS:456:CG:4066, V-A:HIS:456:CD2:4068, H-B:GLU:543:OE1:9881, H-B:TYR:484:OH:9319, H-B:GLY:454:N:9021, V-B:ILE:369:CD1:8210, V-B:ARG:545:CD:9895, V-B:ARG:545:CZ:9898, V-B:GLU:543:CG:9879, V-A:TRP:381:CZ2:3370, V-A:TYR:484:CE1:4345, H-B:ARG:545:NH2:9900, H-B:ILE:455:N:9026, V-B:GLU:543:CA:9876, V-A:ILE:369:CD1:3239, V-A:TRP:381:CH2:3372, V-A:ILE:369:CG2:3237, H-B:ARG:545:NH1:9899, V-A:TYR:484:CZ:4347"]

$$$$
2j_Grossjean_2025
     RDKit          3D

 23 24  0  0  0  0  0  0  0  0999 V2000
  127.8660  130.2520   65.4670 C   0  0  0  0  0  0  0  0  0  0  0  0
  128.3580  128.9320   66.0310 C   0  0  0  0  0  0  0  0  0  0  0  0
  128.6870  127.8620   65.2020 C   0  0  0  0  0  0  0  0  0  0  0  0
  129.1410  126.6620   65.7700 C   0  0  0  0  0  0  0  0  0  0  0  0
  129.5010  125.4890   64.8390 C   0  0  0  0  0  0  0  0  0  0  0  0
  129.0060  125.7070   63.6200 F   0  0  0  0  0  0  0  0  0  0  0  0
  130.8260  125.3650   64.7520 F   0  0  0  0  0  0  0  0  0  0  0  0
  129.0160  124.3220   65.2670 F   0  0  0  0  0  0  0  0  0  0  0  0
  129.2490  126.5800   67.1810 C   0  0  0  0  0  0  0  0  0  0  0  0
  129.7170  125.3510   67.8290 C   0  0  0  0  0  0  0  0  0  0  0  0
  130.0880  124.3810   68.3400 N   0  0  0  0  0  0  0  0  0  0  0  0
  128.8930  127.7160   67.9470 C   0  0  0  0  0  0  0  0  0  0  0  0
  128.9910  127.7270   69.7320 S   0  0  0  0  0  0  0  0  0  0  0  0
  127.9180  126.3970   70.3740 C   0  0  0  0  0  0  0  0  0  0  0  0
  128.5420  125.5470   71.4910 C   0  0  0  0  0  0  0  0  0  0  0  0
  128.3950  125.8580   72.6750 O   0  0  0  0  0  0  0  0  0  0  0  0
  129.2480  124.4780   71.0610 N   0  0  0  0  0  0  0  0  0  0  0  0
  129.9100  123.5480   71.8520 C   0  0  0  0  0  0  0  0  0  0  0  0
  129.6780  122.2570   71.9450 N   0  0  0  0  0  0  0  0  0  0  0  0
  130.5020  121.6750   72.7950 C   0  0  0  0  0  0  0  0  0  0  0  0
  131.4320  122.5040   73.4150 C   0  0  0  0  0  0  0  0  0  0  0  0
  131.2050  124.1310   72.8470 S   0  0  0  0  0  0  0  0  0  0  0  0
  128.4570  128.8690   67.3780 N   0  0  0  0  0  0  0  0  0  0  0  0
  1  2  1  0
  2  3  2  0
  3  4  1  0
  4  5  1  0
  5  6  1  0
  5  7  1  0
  5  8  1  0
  4  9  2  0
  9 10  1  0
 10 11  3  0
  9 12  1  0
 12 13  1  0
 13 14  1  0
 14 15  1  0
 15 16  2  0
 15 17  1  0
 17 18  1  0
 18 19  2  0
 19 20  1  0
 20 21  2  0
 21 22  1  0
 12 23  2  0
 23  2  1  0
 22 18  1  0
M  END
>  <Binding energies>  (12) 
[-6.17]

>  <Ligand effiencies>  (12) 
[-0.25708333333333333]

>  <Interactions>  (12) 
["V-B:GLU:543:CD:9880, V-A:GLU:543:CD:4908, V-B:GLU:543:CB:9878, V-B:GLY:544:C:9884, V-B:HIS:456:CE1:9040, H-B:LYS:547:NZ:9923, V-A:HIS:456:CE1:4069, V-A:ASP:473:CG:4240, V-A:HIS:456:CG:4066, V-A:HIS:456:CD2:4068, V-A:ASP:473:CB:4239, V-A:HIS:456:CB:4065, V-A:GLU:543:CB:4906, H-B:HIS:456:NE2:9041, H-A:HIS:456:NE2:4070, V-B:GLU:543:CG:9879, V-A:TYR:484:CE1:4345, V-B:GLU:543:CA:9876, V-A:TYR:484:CZ:4347, H-A:TYR:484:OH:4348, V-B:TYR:484:CZ:9318, V-A:GLU:543:CG:4907, H-B:GLU:543:O:9875, V-A:TYR:484:CD2:4344, V-A:TYR:484:CG:4342, V-A:TYR:484:CB:4341, V-A:TYR:484:CD1:4343"]

$$$$
3ab_Grossjean_2025
     RDKit          3D

 33 35  0  0  0  0  0  0  0  0999 V2000
  129.1120  132.8660   57.3790 C   0  0  0  0  0  0  0  0  0  0  0  0
  129.7560  133.0710   56.1290 O   0  0  0  0  0  0  0  0  0  0  0  0
  131.0140  132.6130   55.9070 C   0  0  0  0  0  0  0  0  0  0  0  0
  131.8910  133.2760   55.3460 O   0  0  0  0  0  0  0  0  0  0  0  0
  131.2360  131.2180   56.4170 C   0  0  0  0  0  0  0  0  0  0  0  0
  130.2750  130.2070   56.2580 C   0  0  0  0  0  0  0  0  0  0  0  0
  130.5080  128.9230   56.7400 C   0  0  0  0  0  0  0  0  0  0  0  0
  131.7130  128.6250   57.3950 C   0  0  0  0  0  0  0  0  0  0  0  0
  132.0570  127.3620   57.9160 N   0  0  0  0  0  0  0  0  0  0  0  0
  131.9780  126.1400   57.3480 C   0  0  0  0  0  0  0  0  0  0  0  0
  131.5550  125.9030   56.2170 O   0  0  0  0  0  0  0  0  0  0  0  0
  132.4630  124.9800   58.2200 C   0  0  0  0  0  0  0  0  0  0  0  0
  131.6800  124.9830   59.8610 S   0  0  0  0  0  0  0  0  0  0  0  0
  130.6130  123.5600   59.9460 C   0  0  0  0  0  0  0  0  0  0  0  0
  129.4450  123.7190   59.2810 N   0  0  0  0  0  0  0  0  0  0  0  0
  128.5360  122.7090   59.2590 C   0  0  0  0  0  0  0  0  0  0  0  0
  127.2690  122.9640   58.4980 C   0  0  0  0  0  0  0  0  0  0  0  0
  127.1330  122.5410   57.1660 C   0  0  0  0  0  0  0  0  0  0  0  0
  125.9590  122.7740   56.4550 C   0  0  0  0  0  0  0  0  0  0  0  0
  124.9010  123.4370   57.0680 C   0  0  0  0  0  0  0  0  0  0  0  0
  125.0110  123.8710   58.3850 C   0  0  0  0  0  0  0  0  0  0  0  0
  126.1870  123.6360   59.0920 C   0  0  0  0  0  0  0  0  0  0  0  0
  128.7840  121.5090   59.9340 C   0  0  0  0  0  0  0  0  0  0  0  0
  129.9780  121.3280   60.6460 C   0  0  0  0  0  0  0  0  0  0  0  0
  130.2090  119.9930   61.3810 C   0  0  0  0  0  0  0  0  0  0  0  0
  130.1990  120.1260   62.7090 F   0  0  0  0  0  0  0  0  0  0  0  0
  129.2530  119.1200   61.0600 F   0  0  0  0  0  0  0  0  0  0  0  0
  131.3930  119.4830   61.0370 F   0  0  0  0  0  0  0  0  0  0  0  0
  130.9230  122.3840   60.6650 C   0  0  0  0  0  0  0  0  0  0  0  0
  132.1610  122.2680   61.4400 C   0  0  0  0  0  0  0  0  0  0  0  0
  133.1380  122.1740   62.0530 N   0  0  0  0  0  0  0  0  0  0  0  0
  132.6730  129.6260   57.5500 C   0  0  0  0  0  0  0  0  0  0  0  0
  132.4370  130.9100   57.0680 C   0  0  0  0  0  0  0  0  0  0  0  0
  1  2  1  0
  2  3  1  0
  3  4  2  0
  3  5  1  0
  5  6  2  0
  6  7  1  0
  7  8  2  0
  8  9  1  0
  9 10  1  0
 10 11  2  0
 10 12  1  0
 12 13  1  0
 13 14  1  0
 14 15  2  0
 15 16  1  0
 16 17  1  0
 17 18  2  0
 18 19  1  0
 19 20  2  0
 20 21  1  0
 21 22  2  0
 16 23  2  0
 23 24  1  0
 24 25  1  0
 25 26  1  0
 25 27  1  0
 25 28  1  0
 24 29  2  0
 29 30  1  0
 30 31  3  0
  8 32  1  0
 32 33  2  0
 33  5  1  0
 29 14  1  0
 22 17  1  0
M  END
>  <Binding energies>  (13) 
[-8.57]

>  <Ligand effiencies>  (13) 
[-0.2520588235294118]

>  <Interactions>  (13) 
["V-B:PRO:540:CD:9859, V-A:PRO:482:CB:4326, V-B:ILE:538:CB:9834, V-B:ALA:541:CB:9864, V-B:TYR:539:CE2:9848, V-B:TYR:539:CD2:9846, V-B:PRO:540:CB:9857, V-B:PRO:540:N:9856, V-B:TYR:539:C:9839, V-B:LEU:363:CD1:8160, V-B:PRO:540:C:9853, V-B:PRO:540:CA:9855, V-A:PRO:482:CG:4327, V-B:ALA:541:CA:9862, V-A:LEU:475:CD1:4258, V-A:PRO:540:CD:4887, V-A:PRO:540:N:4884, V-A:ASP:366:CB:3212, V-A:TYR:539:C:4867, H-A:ASP:366:OD1:3214, V-A:ASP:366:CG:3213, V-A:LEU:363:CD1:3189, V-A:TYR:539:CE2:4876, H-A:TYR:531:OH:4795, V-A:PRO:540:CB:4885, V-A:PRO:540:CA:4883, V-A:TYR:539:CD2:4874, V-B:TYR:539:CG:9844, H-B:TYR:539:OH:9850, V-A:TRP:381:CZ2:3370, V-A:TRP:381:CH2:3372, V-A:TYR:539:CE1:4875, V-A:TYR:539:CD1:4873, V-A:TYR:539:CZ:4877, H-A:TYR:539:N:4870, V-A:TYR:539:CG:4872, V-A:TYR:539:CA:4869, H-A:ASP:366:OD2:3215, V-A:LEU:475:CD2:4259, V-A:PRO:482:CD:4328"]

$$$$
3ac_Grossjean_2025
     RDKit          3D

 31 33  0  0  0  0  0  0  0  0999 V2000
  127.2250  126.7110   74.3950 C   0  0  0  0  0  0  0  0  0  0  0  0
  128.2120  125.8980   73.7680 O   0  0  0  0  0  0  0  0  0  0  0  0
  128.3480  125.9410   72.3930 C   0  0  0  0  0  0  0  0  0  0  0  0
  129.2010  124.9970   71.8220 C   0  0  0  0  0  0  0  0  0  0  0  0
  129.3960  124.9610   70.4450 C   0  0  0  0  0  0  0  0  0  0  0  0
  128.7470  125.8770   69.6170 C   0  0  0  0  0  0  0  0  0  0  0  0
  128.9910  125.7490   68.2370 N   0  0  0  0  0  0  0  0  0  0  0  0
  129.6240  126.6010   67.4010 C   0  0  0  0  0  0  0  0  0  0  0  0
  130.1530  127.6620   67.7340 O   0  0  0  0  0  0  0  0  0  0  0  0
  129.6670  126.1740   65.9340 C   0  0  0  0  0  0  0  0  0  0  0  0
  130.0070  124.3970   65.7440 S   0  0  0  0  0  0  0  0  0  0  0  0
  130.6410  124.1090   64.1030 C   0  0  0  0  0  0  0  0  0  0  0  0
  129.6690  123.8690   63.1900 N   0  0  0  0  0  0  0  0  0  0  0  0
  130.0000  123.6370   61.8930 C   0  0  0  0  0  0  0  0  0  0  0  0
  128.8660  123.3730   60.9490 C   0  0  0  0  0  0  0  0  0  0  0  0
  127.5330  123.4840   61.3790 C   0  0  0  0  0  0  0  0  0  0  0  0
  126.4750  123.2450   60.5060 C   0  0  0  0  0  0  0  0  0  0  0  0
  126.7360  122.8900   59.1870 C   0  0  0  0  0  0  0  0  0  0  0  0
  128.0460  122.7680   58.7370 C   0  0  0  0  0  0  0  0  0  0  0  0
  129.1010  123.0070   59.6130 C   0  0  0  0  0  0  0  0  0  0  0  0
  131.3380  123.6260   61.4870 C   0  0  0  0  0  0  0  0  0  0  0  0
  132.3650  123.8490   62.4160 C   0  0  0  0  0  0  0  0  0  0  0  0
  133.8260  123.8220   61.9260 C   0  0  0  0  0  0  0  0  0  0  0  0
  134.5820  124.7600   62.4990 F   0  0  0  0  0  0  0  0  0  0  0  0
  134.3830  122.6410   62.2000 F   0  0  0  0  0  0  0  0  0  0  0  0
  133.8650  124.0220   60.6080 F   0  0  0  0  0  0  0  0  0  0  0  0
  132.0150  124.0850   63.7690 C   0  0  0  0  0  0  0  0  0  0  0  0
  133.0540  124.2460   64.7880 C   0  0  0  0  0  0  0  0  0  0  0  0
  133.8760  124.3730   65.5930 N   0  0  0  0  0  0  0  0  0  0  0  0
  127.8810  126.8260   70.1830 C   0  0  0  0  0  0  0  0  0  0  0  0
  127.6870  126.8590   71.5610 C   0  0  0  0  0  0  0  0  0  0  0  0
  1  2  1  0
  2  3  1  0
  3  4  2  0
  4  5  1  0
  5  6  2  0
  6  7  1  0
  7  8  1  0
  8  9  2  0
  8 10  1  0
 10 11  1  0
 11 12  1  0
 12 13  2  0
 13 14  1  0
 14 15  1  0
 15 16  2  0
 16 17  1  0
 17 18  2  0
 18 19  1  0
 19 20  2  0
 14 21  2  0
 21 22  1  0
 22 23  1  0
 23 24  1  0
 23 25  1  0
 23 26  1  0
 22 27  2  0
 27 28  1  0
 28 29  3  0
  6 30  1  0
 30 31  2  0
 31  3  1  0
 27 12  1  0
 20 15  1  0
M  END
>  <Binding energies>  (14) 
[-7.98]

>  <Ligand effiencies>  (14) 
[-0.249375]

>  <Interactions>  (14) 
["V-B:GLU:543:CD:9880, V-B:TYR:539:CE2:9848, V-B:TYR:539:CD2:9846, V-B:PRO:540:CB:9857, V-B:PRO:540:N:9856, V-B:TYR:539:C:9839, V-B:PRO:540:C:9853, V-B:PRO:540:CA:9855, V-A:ASP:366:CG:3213, V-B:GLU:543:C:9874, V-B:GLU:543:CB:9878, V-B:GLY:544:C:9884, V-B:HIS:456:CE1:9040, H-B:LYS:547:NZ:9923, V-A:HIS:456:CE1:4069, V-A:HIS:456:CD2:4068, H-A:HIS:456:NE2:4070, H-A:GLY:454:N:4050, V-B:GLU:543:CG:9879, V-A:ILE:369:CD1:3239, V-A:GLY:453:C:4042, H-A:TYR:484:OH:4348, V-A:GLY:454:CA:4049, V-A:ARG:545:CZ:4926, V-A:GLY:453:CA:4044, H-B:GLU:543:O:9875, V-B:LYS:547:CD:9921"]

$$$$
3af_Grossjean_2025
     RDKit          3D

 29 31  0  0  0  0  0  0  0  0999 V2000
  124.2130  132.4010   61.1690 N   0  0  0  0  0  0  0  0  0  0  0  0
  125.2220  132.3280   60.6070 C   0  0  0  0  0  0  0  0  0  0  0  0
  126.5000  132.2360   59.8970 C   0  0  0  0  0  0  0  0  0  0  0  0
  127.5760  133.0940   60.2310 C   0  0  0  0  0  0  0  0  0  0  0  0
  127.4930  134.1260   61.3740 C   0  0  0  0  0  0  0  0  0  0  0  0
  126.4280  134.9240   61.2760 F   0  0  0  0  0  0  0  0  0  0  0  0
  127.4190  133.4990   62.5490 F   0  0  0  0  0  0  0  0  0  0  0  0
  128.5750  134.9050   61.3660 F   0  0  0  0  0  0  0  0  0  0  0  0
  128.7610  133.0050   59.4860 C   0  0  0  0  0  0  0  0  0  0  0  0
  128.8690  132.0880   58.4360 C   0  0  0  0  0  0  0  0  0  0  0  0
  130.1050  131.9650   57.5950 C   0  0  0  0  0  0  0  0  0  0  0  0
  131.2140  131.2350   58.0530 C   0  0  0  0  0  0  0  0  0  0  0  0
  132.3630  131.1150   57.2760 C   0  0  0  0  0  0  0  0  0  0  0  0
  132.4180  131.7240   56.0270 C   0  0  0  0  0  0  0  0  0  0  0  0
  131.3330  132.4500   55.5490 C   0  0  0  0  0  0  0  0  0  0  0  0
  130.1850  132.5670   56.3290 C   0  0  0  0  0  0  0  0  0  0  0  0
  127.8340  131.2700   58.1160 N   0  0  0  0  0  0  0  0  0  0  0  0
  126.6870  131.3210   58.8360 C   0  0  0  0  0  0  0  0  0  0  0  0
  125.4520  130.1640   58.2780 S   0  0  0  0  0  0  0  0  0  0  0  0
  125.9500  128.5030   58.8260 C   0  0  0  0  0  0  0  0  0  0  0  0
  126.0480  128.4120   60.3480 C   0  0  0  0  0  0  0  0  0  0  0  0
  126.7080  127.5040   60.8520 O   0  0  0  0  0  0  0  0  0  0  0  0
  125.3730  129.3630   61.0290 N   0  0  0  0  0  0  0  0  0  0  0  0
  125.2520  129.5570   62.4190 C   0  0  0  0  0  0  0  0  0  0  0  0
  126.2660  129.3410   63.3700 C   0  0  0  0  0  0  0  0  0  0  0  0
  126.0060  129.5730   64.7230 C   0  0  0  0  0  0  0  0  0  0  0  0
  124.7350  130.0150   65.0930 C   0  0  0  0  0  0  0  0  0  0  0  0
  123.7410  130.2310   64.1960 N   0  0  0  0  0  0  0  0  0  0  0  0
  124.0100  130.0010   62.8860 C   0  0  0  0  0  0  0  0  0  0  0  0
  1  2  3  0
  2  3  1  0
  3  4  2  0
  4  5  1  0
  5  6  1  0
  5  7  1  0
  5  8  1  0
  4  9  1  0
  9 10  2  0
 10 11  1  0
 11 12  2  0
 12 13  1  0
 13 14  2  0
 14 15  1  0
 15 16  2  0
 10 17  1  0
 17 18  2  0
 18 19  1  0
 19 20  1  0
 20 21  1  0
 21 22  2  0
 21 23  1  0
 23 24  1  0
 24 25  2  0
 25 26  1  0
 26 27  2  0
 27 28  1  0
 28 29  2  0
 18  3  1  0
 29 24  1  0
 16 11  1  0
M  END
>  <Binding energies>  (15) 
[-6.78]

>  <Ligand effiencies>  (15) 
[-0.226]

>  <Interactions>  (15) 
["H-B:ASP:366:OD1:8185, V-B:ASP:366:CG:8184, V-A:PRO:540:CD:4887, V-A:PRO:540:N:4884, V-A:TYR:539:C:4867, V-A:TYR:531:CE2:4793, V-A:LEU:363:CD1:3189, V-A:TYR:539:CE2:4876, V-A:PRO:540:C:4881, V-B:PRO:482:CG:9298, V-A:PRO:540:CB:4885, V-A:PRO:540:CA:4883, V-A:TYR:539:CD2:4874, V-B:LEU:475:CD1:9229, V-A:ALA:541:CB:4892, H-B:ARG:545:NE:9896, H-B:GLY:454:N:9021, V-B:ARG:545:CZ:9898, H-B:ARG:545:NH2:9900, H-B:ARG:545:NH1:9899, V-B:TRP:381:CH2:8343, H-B:ASP:366:OD2:8186, V-A:TYR:539:CD1:4873, V-A:TYR:539:CZ:4877, H-A:TYR:539:OH:4878, V-A:ALA:541:CA:4890"]

$$$$
3ag_Grossjean_2025
     RDKit          3D

 30 32  0  0  0  0  0  0  0  0999 V2000
  133.6330  130.3710   57.6530 N   0  0  0  0  0  0  0  0  0  0  0  0
  132.6380  130.8100   58.0530 C   0  0  0  0  0  0  0  0  0  0  0  0
  131.3790  131.3670   58.5540 C   0  0  0  0  0  0  0  0  0  0  0  0
  130.5010  132.0650   57.6890 C   0  0  0  0  0  0  0  0  0  0  0  0
  130.7750  132.2300   56.1820 C   0  0  0  0  0  0  0  0  0  0  0  0
  130.8650  131.0630   55.5410 F   0  0  0  0  0  0  0  0  0  0  0  0
  129.7880  132.9250   55.6150 F   0  0  0  0  0  0  0  0  0  0  0  0
  131.9250  132.8780   55.9920 F   0  0  0  0  0  0  0  0  0  0  0  0
  129.3330  132.6260   58.2290 C   0  0  0  0  0  0  0  0  0  0  0  0
  129.0570  132.5050   59.5950 C   0  0  0  0  0  0  0  0  0  0  0  0
  127.8270  133.0860   60.2240 C   0  0  0  0  0  0  0  0  0  0  0  0
  126.5760  132.4720   60.0540 C   0  0  0  0  0  0  0  0  0  0  0  0
  125.4300  133.0070   60.6360 C   0  0  0  0  0  0  0  0  0  0  0  0
  125.5200  134.1670   61.3980 C   0  0  0  0  0  0  0  0  0  0  0  0
  126.7470  134.7970   61.5800 C   0  0  0  0  0  0  0  0  0  0  0  0
  127.8900  134.2600   60.9960 C   0  0  0  0  0  0  0  0  0  0  0  0
  129.8950  131.8250   60.4190 N   0  0  0  0  0  0  0  0  0  0  0  0
  131.0180  131.2580   59.9160 C   0  0  0  0  0  0  0  0  0  0  0  0
  131.9930  130.4070   61.1370 S   0  0  0  0  0  0  0  0  0  0  0  0
  131.2490  128.7650   61.3760 C   0  0  0  0  0  0  0  0  0  0  0  0
  129.7270  128.8350   61.5120 C   0  0  0  0  0  0  0  0  0  0  0  0
  129.0320  127.8980   61.1170 O   0  0  0  0  0  0  0  0  0  0  0  0
  129.2290  129.9470   62.0790 N   0  0  0  0  0  0  0  0  0  0  0  0
  127.8130  130.2060   62.3380 C   0  0  0  0  0  0  0  0  0  0  0  0
  127.3330  129.7270   63.7040 C   0  0  0  0  0  0  0  0  0  0  0  0
  128.2650  129.3850   64.6870 C   0  0  0  0  0  0  0  0  0  0  0  0
  127.8310  128.9750   65.9450 C   0  0  0  0  0  0  0  0  0  0  0  0
  126.4660  128.9190   66.2190 C   0  0  0  0  0  0  0  0  0  0  0  0
  125.5310  129.2740   65.2490 C   0  0  0  0  0  0  0  0  0  0  0  0
  125.9650  129.6840   63.9910 C   0  0  0  0  0  0  0  0  0  0  0  0
  1  2  3  0
  2  3  1  0
  3  4  2  0
  4  5  1  0
  5  6  1  0
  5  7  1  0
  5  8  1  0
  4  9  1  0
  9 10  2  0
 10 11  1  0
 11 12  2  0
 12 13  1  0
 13 14  2  0
 14 15  1  0
 15 16  2  0
 10 17  1  0
 17 18  2  0
 18 19  1  0
 19 20  1  0
 20 21  1  0
 21 22  2  0
 21 23  1  0
 23 24  1  0
 24 25  1  0
 25 26  2  0
 26 27  1  0
 27 28  2  0
 28 29  1  0
 29 30  2  0
 18  3  1  0
 30 25  1  0
 16 11  1  0
M  END
>  <Binding energies>  (16) 
[-7.12]

>  <Ligand effiencies>  (16) 
[-0.2296774193548387]

>  <Interactions>  (16) 
["V-A:PRO:540:CD:4887, V-A:PRO:540:N:4884, V-A:TYR:539:C:4867, V-A:PRO:540:CG:4886, V-A:ILE:538:CA:4860, V-A:LEU:363:CD1:3189, V-A:GLU:543:CD:4908, V-A:TYR:539:CE2:4876, V-A:PRO:540:CB:4885, V-A:PRO:540:CA:4883, V-A:TYR:539:CD2:4874, V-A:ILE:538:CG2:4863, V-B:LEU:475:CD1:9229, V-A:ALA:541:CB:4892, H-A:ALA:541:N:4891, V-B:HIS:456:CE1:9040, V-A:GLU:543:CB:4906, V-B:ARG:545:CZ:9898, H-A:ARG:545:NH2:4928, H-A:GLU:543:OE1:4909, V-A:TYR:539:CE1:4875, V-A:TYR:539:CD1:4873, V-A:TYR:539:CG:4872, V-A:TYR:539:CA:4869"]

$$$$
3bc_Grossjean_2025
     RDKit          3D

 28 30  0  0  0  0  0  0  0  0999 V2000
  133.8360  129.6460   56.8040 C   0  0  0  0  0  0  0  0  0  0  0  0
  134.1040  130.6510   57.7760 O   0  0  0  0  0  0  0  0  0  0  0  0
  133.2400  130.8000   58.8450 C   0  0  0  0  0  0  0  0  0  0  0  0
  131.8840  130.6130   58.5790 C   0  0  0  0  0  0  0  0  0  0  0  0
  130.9380  130.7430   59.5920 C   0  0  0  0  0  0  0  0  0  0  0  0
  131.3380  131.0720   60.8890 C   0  0  0  0  0  0  0  0  0  0  0  0
  130.3120  131.1690   61.8480 N   0  0  0  0  0  0  0  0  0  0  0  0
  129.3970  132.1460   62.0210 C   0  0  0  0  0  0  0  0  0  0  0  0
  129.2880  133.1410   61.3010 O   0  0  0  0  0  0  0  0  0  0  0  0
  128.4290  131.9190   63.1910 C   0  0  0  0  0  0  0  0  0  0  0  0
  127.2280  130.5670   62.9530 S   0  0  0  0  0  0  0  0  0  0  0  0
  126.3950  130.8450   61.4060 C   0  0  0  0  0  0  0  0  0  0  0  0
  127.2370  131.0230   60.3580 N   0  0  0  0  0  0  0  0  0  0  0  0
  126.7340  131.2430   59.1150 C   0  0  0  0  0  0  0  0  0  0  0  0
  127.7310  131.4520   58.0150 C   0  0  0  0  0  0  0  0  0  0  0  0
  128.6580  132.5030   58.0780 C   0  0  0  0  0  0  0  0  0  0  0  0
  129.5870  132.7030   57.0600 C   0  0  0  0  0  0  0  0  0  0  0  0
  129.6000  131.8510   55.9610 C   0  0  0  0  0  0  0  0  0  0  0  0
  128.6910  130.8020   55.8730 C   0  0  0  0  0  0  0  0  0  0  0  0
  127.7620  130.6070   56.8930 C   0  0  0  0  0  0  0  0  0  0  0  0
  125.3530  131.2890   58.8970 C   0  0  0  0  0  0  0  0  0  0  0  0
  124.4700  131.0830   59.9640 C   0  0  0  0  0  0  0  0  0  0  0  0
  122.9700  131.1250   59.6760 C   0  0  0  0  0  0  0  0  0  0  0  0
  124.9900  130.8440   61.2540 C   0  0  0  0  0  0  0  0  0  0  0  0
  124.0860  130.5780   62.3750 C   0  0  0  0  0  0  0  0  0  0  0  0
  123.3700  130.3690   63.2600 N   0  0  0  0  0  0  0  0  0  0  0  0
  132.7010  131.2500   61.1680 C   0  0  0  0  0  0  0  0  0  0  0  0
  133.6440  131.1180   60.1510 C   0  0  0  0  0  0  0  0  0  0  0  0
  1  2  1  0
  2  3  1  0
  3  4  2  0
  4  5  1  0
  5  6  2  0
  6  7  1  0
  7  8  1  0
  8  9  2  0
  8 10  1  0
 10 11  1  0
 11 12  1  0
 12 13  2  0
 13 14  1  0
 14 15  1  0
 15 16  2  0
 16 17  1  0
 17 18  2  0
 18 19  1  0
 19 20  2  0
 14 21  2  0
 21 22  1  0
 22 23  1  0
 22 24  2  0
 24 25  1  0
 25 26  3  0
  6 27  1  0
 27 28  2  0
 28  3  1  0
 24 12  1  0
 20 15  1  0
M  END
>  <Binding energies>  (17) 
[-7.69]

>  <Ligand effiencies>  (17) 
[-0.26517241379310347]

>  <Interactions>  (17) 
["V-B:ASP:366:CG:8184, V-A:PRO:540:N:4884, V-A:ASP:366:CB:3212, V-A:TYR:539:C:4867, V-A:TYR:531:CE2:4793, V-A:TYR:531:CZ:4794, V-A:ASP:366:CG:3213, V-A:LEU:363:CD1:3189, V-A:GLU:543:CD:4908, V-A:TYR:539:CE2:4876, V-A:PRO:540:CB:4885, V-A:PRO:540:CA:4883, V-A:TYR:539:CD2:4874, V-A:ALA:541:CB:4892, H-A:ALA:541:N:4891, V-B:ASP:366:CB:8183, H-B:GLY:454:N:9021, V-B:ILE:369:CD1:8210, V-B:ILE:369:CG2:8208, H-B:ARG:545:NH2:9900, H-B:ARG:545:NH1:9899, V-A:ASN:362:C:3172, V-A:ASN:362:CB:3176, H-A:GLU:543:OE1:4909, V-A:TYR:539:CE1:4875, V-A:TYR:539:CD1:4873, V-A:TYR:539:CZ:4877, V-A:TYR:539:CG:4872, V-A:TYR:539:CA:4869, V-A:LEU:363:CA:3185, V-B:ASP:366:CA:8181, V-A:ALA:541:CA:4890, V-B:ILE:369:CB:8207, H-A:LEU:363:N:3186"]

$$$$
3bd_Grossjean_2025
     RDKit          3D

 26 28  0  0  0  0  0  0  0  0999 V2000
  126.6400  135.9990   61.7400 C   0  0  0  0  0  0  0  0  0  0  0  0
  126.6920  134.5540   61.2480 C   0  0  0  0  0  0  0  0  0  0  0  0
  127.9460  133.9740   61.0280 C   0  0  0  0  0  0  0  0  0  0  0  0
  128.0360  132.6530   60.5740 C   0  0  0  0  0  0  0  0  0  0  0  0
  129.3480  131.9700   60.3220 C   0  0  0  0  0  0  0  0  0  0  0  0
  129.8150  131.7750   59.0120 C   0  0  0  0  0  0  0  0  0  0  0  0
  131.0310  131.1400   58.7710 C   0  0  0  0  0  0  0  0  0  0  0  0
  131.7980  130.6900   59.8410 C   0  0  0  0  0  0  0  0  0  0  0  0
  131.3560  130.8680   61.1470 C   0  0  0  0  0  0  0  0  0  0  0  0
  130.1400  131.5030   61.3840 C   0  0  0  0  0  0  0  0  0  0  0  0
  126.9160  131.9160   60.3550 N   0  0  0  0  0  0  0  0  0  0  0  0
  125.6910  132.4620   60.5630 C   0  0  0  0  0  0  0  0  0  0  0  0
  124.3010  131.3930   60.2290 S   0  0  0  0  0  0  0  0  0  0  0  0
  123.3460  131.2130   61.7650 C   0  0  0  0  0  0  0  0  0  0  0  0
  124.1580  130.5340   62.8680 C   0  0  0  0  0  0  0  0  0  0  0  0
  123.6160  130.2920   63.9470 O   0  0  0  0  0  0  0  0  0  0  0  0
  125.4450  130.2590   62.5640 N   0  0  0  0  0  0  0  0  0  0  0  0
  126.4240  129.6230   63.3490 C   0  0  0  0  0  0  0  0  0  0  0  0
  127.3760  128.8710   62.6550 C   0  0  0  0  0  0  0  0  0  0  0  0
  128.3790  128.1990   63.3480 C   0  0  0  0  0  0  0  0  0  0  0  0
  128.4250  128.2690   64.7370 C   0  0  0  0  0  0  0  0  0  0  0  0
  127.4740  129.0040   65.4420 C   0  0  0  0  0  0  0  0  0  0  0  0
  126.4710  129.6790   64.7520 C   0  0  0  0  0  0  0  0  0  0  0  0
  125.5290  133.7900   61.0120 C   0  0  0  0  0  0  0  0  0  0  0  0
  124.2000  134.3680   61.2350 C   0  0  0  0  0  0  0  0  0  0  0  0
  123.1520  134.8250   61.4120 N   0  0  0  0  0  0  0  0  0  0  0  0
  1  2  1  0
  2  3  2  0
  3  4  1  0
  4  5  1  0
  5  6  2  0
  6  7  1  0
  7  8  2  0
  8  9  1  0
  9 10  2  0
  4 11  2  0
 11 12  1  0
 12 13  1  0
 13 14  1  0
 14 15  1  0
 15 16  2  0
 15 17  1  0
 17 18  1  0
 18 19  2  0
 19 20  1  0
 20 21  2  0
 21 22  1  0
 22 23  2  0
 12 24  2  0
 24 25  1  0
 25 26  3  0
 24  2  1  0
 10  5  1  0
 23 18  1  0
M  END
>  <Binding energies>  (18) 
[-7.32]

>  <Ligand effiencies>  (18) 
[-0.27111111111111114]

>  <Interactions>  (18) 
["V-B:ASP:366:CG:8184, V-A:PRO:540:N:4884, V-B:PRO:482:CB:9297, V-A:GLU:543:CD:4908, V-A:TYR:539:CE2:4876, V-B:PRO:482:CG:9298, V-A:PRO:540:CB:4885, V-A:PRO:540:CA:4883, V-A:TYR:539:CD2:4874, V-B:LEU:475:CD1:9229, V-A:ALA:541:CB:4892, H-B:GLY:454:N:9021, V-B:ILE:369:CD1:8210, V-B:ILE:369:CG2:8208, V-B:ARG:545:CZ:9898, H-B:ARG:545:NH2:9900, H-B:ARG:545:NH1:9899, V-B:TRP:381:CH2:8343, V-B:TRP:381:CZ2:8341"]

$$$$
3be_Grossjean_2025
     RDKit          3D

 27 29  0  0  0  0  0  0  0  0999 V2000
  126.2240  128.1800   66.7130 C   0  0  0  0  0  0  0  0  0  0  0  0
  126.6760  129.2460   65.7350 C   0  0  0  0  0  0  0  0  0  0  0  0
  127.9080  129.8900   65.8730 C   0  0  0  0  0  0  0  0  0  0  0  0
  128.2580  130.8640   64.9370 C   0  0  0  0  0  0  0  0  0  0  0  0
  127.3770  131.1670   63.8950 C   0  0  0  0  0  0  0  0  0  0  0  0
  126.1600  130.4820   63.8130 C   0  0  0  0  0  0  0  0  0  0  0  0
  125.3120  130.8400   62.7490 N   0  0  0  0  0  0  0  0  0  0  0  0
  123.9640  130.7800   62.6840 C   0  0  0  0  0  0  0  0  0  0  0  0
  123.2370  130.3750   63.5940 O   0  0  0  0  0  0  0  0  0  0  0  0
  123.3620  131.2670   61.3570 C   0  0  0  0  0  0  0  0  0  0  0  0
  124.5380  131.3760   59.9650 S   0  0  0  0  0  0  0  0  0  0  0  0
  125.8490  132.4830   60.4350 C   0  0  0  0  0  0  0  0  0  0  0  0
  127.0880  131.9580   60.2710 N   0  0  0  0  0  0  0  0  0  0  0  0
  128.1840  132.6970   60.5870 C   0  0  0  0  0  0  0  0  0  0  0  0
  129.5170  132.0380   60.3900 C   0  0  0  0  0  0  0  0  0  0  0  0
  130.0200  131.8060   59.1000 C   0  0  0  0  0  0  0  0  0  0  0  0
  131.2540  131.1930   58.9100 C   0  0  0  0  0  0  0  0  0  0  0  0
  132.0070  130.8000   60.0120 C   0  0  0  0  0  0  0  0  0  0  0  0
  131.5310  131.0150   61.3010 C   0  0  0  0  0  0  0  0  0  0  0  0
  130.2950  131.6290   61.4860 C   0  0  0  0  0  0  0  0  0  0  0  0
  128.0530  133.9980   61.0860 C   0  0  0  0  0  0  0  0  0  0  0  0
  126.7830  134.5630   61.2380 C   0  0  0  0  0  0  0  0  0  0  0  0
  126.6890  135.9920   61.7690 C   0  0  0  0  0  0  0  0  0  0  0  0
  125.6430  133.8030   60.8970 C   0  0  0  0  0  0  0  0  0  0  0  0
  124.3070  134.3940   60.9960 C   0  0  0  0  0  0  0  0  0  0  0  0
  123.2520  134.8630   61.0760 N   0  0  0  0  0  0  0  0  0  0  0  0
  125.8110  129.5300   64.7280 N   0  0  0  0  0  0  0  0  0  0  0  0
  1  2  1  0
  2  3  2  0
  3  4  1  0
  4  5  2  0
  5  6  1  0
  6  7  1  0
  7  8  1  0
  8  9  2  0
  8 10  1  0
 10 11  1  0
 11 12  1  0
 12 13  2  0
 13 14  1  0
 14 15  1  0
 15 16  2  0
 16 17  1  0
 17 18  2  0
 18 19  1  0
 19 20  2  0
 14 21  2  0
 21 22  1  0
 22 23  1  0
 22 24  2  0
 24 25  1  0
 25 26  3  0
  6 27  2  0
 27  2  1  0
 24 12  1  0
 20 15  1  0
M  END
>  <Binding energies>  (19) 
[-7.85]

>  <Ligand effiencies>  (19) 
[-0.28035714285714286]

>  <Interactions>  (19) 
["V-B:ASP:366:CG:8184, V-A:PRO:540:N:4884, V-B:PRO:482:CB:9297, V-A:GLU:543:CD:4908, V-A:TYR:539:CE2:4876, V-B:PRO:482:CG:9298, V-A:PRO:540:CB:4885, V-A:PRO:540:CA:4883, V-A:TYR:539:CD2:4874, V-B:LEU:475:CD1:9229, V-A:ALA:541:CB:4892, V-B:HIS:456:CE1:9040, V-B:ARG:545:CG:9894, H-B:TYR:484:OH:9319, V-A:GLU:543:CB:4906, H-B:GLY:454:N:9021, V-B:ILE:369:CD1:8210, V-B:ILE:369:CG2:8208, H-B:ARG:545:NH2:9900, H-B:ARG:545:NH1:9899, V-B:TRP:381:CH2:8343, V-B:TRP:381:CZ2:8341"]

$$$$
3bf_Grossjean_2025
     RDKit          3D

 26 28  0  0  0  0  0  0  0  0999 V2000
  123.0860  131.1180   59.6770 C   0  0  0  0  0  0  0  0  0  0  0  0
  124.5900  131.0140   59.9180 C   0  0  0  0  0  0  0  0  0  0  0  0
  125.4480  131.2310   58.8350 C   0  0  0  0  0  0  0  0  0  0  0  0
  126.8340  131.1600   59.0160 C   0  0  0  0  0  0  0  0  0  0  0  0
  127.8070  131.4040   57.9020 C   0  0  0  0  0  0  0  0  0  0  0  0
  127.7750  130.6200   56.7390 C   0  0  0  0  0  0  0  0  0  0  0  0
  128.6760  130.8390   55.7000 C   0  0  0  0  0  0  0  0  0  0  0  0
  129.6250  131.8510   55.8130 C   0  0  0  0  0  0  0  0  0  0  0  0
  129.6780  132.6410   56.9560 C   0  0  0  0  0  0  0  0  0  0  0  0
  128.7760  132.4170   57.9930 C   0  0  0  0  0  0  0  0  0  0  0  0
  127.3640  130.8820   60.2370 N   0  0  0  0  0  0  0  0  0  0  0  0
  126.5450  130.6450   61.2910 C   0  0  0  0  0  0  0  0  0  0  0  0
  127.4140  130.2920   62.8040 S   0  0  0  0  0  0  0  0  0  0  0  0
  128.6330  131.6220   63.0800 C   0  0  0  0  0  0  0  0  0  0  0  0
  129.5850  131.8880   61.9050 C   0  0  0  0  0  0  0  0  0  0  0  0
  129.4590  132.8970   61.2090 O   0  0  0  0  0  0  0  0  0  0  0  0
  130.5510  130.9580   61.7410 N   0  0  0  0  0  0  0  0  0  0  0  0
  131.5630  130.8990   60.7650 C   0  0  0  0  0  0  0  0  0  0  0  0
  131.1700  130.6180   59.4520 C   0  0  0  0  0  0  0  0  0  0  0  0
  132.1260  130.5590   58.4360 C   0  0  0  0  0  0  0  0  0  0  0  0
  133.4620  130.7900   58.7650 C   0  0  0  0  0  0  0  0  0  0  0  0
  133.8710  131.0740   60.0270 N   0  0  0  0  0  0  0  0  0  0  0  0
  132.9300  131.1280   61.0040 C   0  0  0  0  0  0  0  0  0  0  0  0
  125.1390  130.7180   61.1850 C   0  0  0  0  0  0  0  0  0  0  0  0
  124.2590  130.5370   62.3430 C   0  0  0  0  0  0  0  0  0  0  0  0
  123.5640  130.3930   63.2570 N   0  0  0  0  0  0  0  0  0  0  0  0
  1  2  1  0
  2  3  2  0
  3  4  1  0
  4  5  1  0
  5  6  2  0
  6  7  1  0
  7  8  2  0
  8  9  1  0
  9 10  2  0
  4 11  2  0
 11 12  1  0
 12 13  1  0
 13 14  1  0
 14 15  1  0
 15 16  2  0
 15 17  1  0
 17 18  1  0
 18 19  2  0
 19 20  1  0
 20 21  2  0
 21 22  1  0
 22 23  2  0
 12 24  2  0
 24 25  1  0
 25 26  3  0
 24  2  1  0
 10  5  1  0
 23 18  1  0
M  END
>  <Binding energies>  (20) 
[-7.51]

>  <Ligand effiencies>  (20) 
[-0.27814814814814814]

>  <Interactions>  (20) 
["V-B:ASP:366:CG:8184, V-A:PRO:540:N:4884, V-A:TYR:539:C:4867, V-A:ASP:366:CG:3213, V-A:GLU:543:CD:4908, V-A:TYR:539:CE2:4876, V-A:PRO:540:CB:4885, V-A:PRO:540:CA:4883, V-A:TYR:539:CD2:4874, V-A:ALA:541:CB:4892, H-A:ALA:541:N:4891, V-B:ASP:366:CB:8183, H-B:GLY:454:N:9021, V-B:ILE:369:CD1:8210, V-B:ILE:369:CG2:8208, H-B:ARG:545:NH2:9900, H-B:ARG:545:NH1:9899, H-A:GLU:543:OE2:4910, V-A:ASN:362:CB:3176, H-A:GLU:543:OE1:4909, V-A:TYR:539:CE1:4875, V-A:TYR:539:CD1:4873, V-A:TYR:539:CZ:4877, V-A:TYR:539:CG:4872, V-A:TYR:539:CA:4869, V-A:LEU:363:CA:3185, V-B:ASP:366:CA:8181, V-B:ILE:369:CB:8207, H-A:LEU:363:N:3186"]

$$$$
3bg_Grossjean_2025
     RDKit          3D

 27 29  0  0  0  0  0  0  0  0999 V2000
  123.2770  129.6470   66.6440 C   0  0  0  0  0  0  0  0  0  0  0  0
  124.6830  129.2820   66.1710 C   0  0  0  0  0  0  0  0  0  0  0  0
  125.4790  128.4940   67.0080 C   0  0  0  0  0  0  0  0  0  0  0  0
  126.7720  128.1290   66.6090 C   0  0  0  0  0  0  0  0  0  0  0  0
  127.6740  127.2750   67.4560 C   0  0  0  0  0  0  0  0  0  0  0  0
  127.3170  126.9240   68.7690 C   0  0  0  0  0  0  0  0  0  0  0  0
  128.1410  126.1190   69.5490 C   0  0  0  0  0  0  0  0  0  0  0  0
  129.3430  125.6510   69.0290 C   0  0  0  0  0  0  0  0  0  0  0  0
  129.7280  125.9920   67.7380 C   0  0  0  0  0  0  0  0  0  0  0  0
  128.9020  126.7990   66.9610 C   0  0  0  0  0  0  0  0  0  0  0  0
  127.2580  128.5220   65.4010 N   0  0  0  0  0  0  0  0  0  0  0  0
  126.4970  129.2850   64.5750 C   0  0  0  0  0  0  0  0  0  0  0  0
  127.2400  129.7020   63.0050 S   0  0  0  0  0  0  0  0  0  0  0  0
  128.3860  131.0950   63.2690 C   0  0  0  0  0  0  0  0  0  0  0  0
  129.1550  131.4490   61.9920 C   0  0  0  0  0  0  0  0  0  0  0  0
  129.5000  132.6130   61.7870 O   0  0  0  0  0  0  0  0  0  0  0  0
  129.3920  130.4400   61.1370 N   0  0  0  0  0  0  0  0  0  0  0  0
  129.9420  130.5800   59.7880 C   0  0  0  0  0  0  0  0  0  0  0  0
  131.4530  130.7760   59.8100 C   0  0  0  0  0  0  0  0  0  0  0  0
  132.1110  131.0140   61.0220 C   0  0  0  0  0  0  0  0  0  0  0  0
  133.4890  131.2020   61.0420 C   0  0  0  0  0  0  0  0  0  0  0  0
  134.2110  131.1400   59.8500 C   0  0  0  0  0  0  0  0  0  0  0  0
  133.5660  130.8820   58.6420 C   0  0  0  0  0  0  0  0  0  0  0  0
  132.1860  130.6950   58.6230 C   0  0  0  0  0  0  0  0  0  0  0  0
  125.1950  129.6990   64.9250 C   0  0  0  0  0  0  0  0  0  0  0  0
  124.3820  130.5190   64.0230 C   0  0  0  0  0  0  0  0  0  0  0  0
  123.7390  131.1670   63.3110 N   0  0  0  0  0  0  0  0  0  0  0  0
  1  2  1  0
  2  3  2  0
  3  4  1  0
  4  5  1  0
  5  6  2  0
  6  7  1  0
  7  8  2  0
  8  9  1  0
  9 10  2  0
  4 11  2  0
 11 12  1  0
 12 13  1  0
 13 14  1  0
 14 15  1  0
 15 16  2  0
 15 17  1  0
 17 18  1  0
 18 19  1  0
 19 20  2  0
 20 21  1  0
 21 22  2  0
 22 23  1  0
 23 24  2  0
 12 25  2  0
 25 26  1  0
 26 27  3  0
 25  2  1  0
 10  5  1  0
 24 19  1  0
M  END
>  <Binding energies>  (21) 
[-8.16]

>  <Ligand effiencies>  (21) 
[-0.2914285714285714]

>  <Interactions>  (21) 
["V-A:ASP:366:CG:3213, V-A:LEU:363:CD1:3189, V-A:PRO:540:CB:4885, V-A:PRO:540:CA:4883, V-A:ALA:541:CB:4892, H-A:ALA:541:N:4891, V-B:GLU:543:C:9874, V-B:GLU:543:CB:9878, V-B:GLY:544:C:9884, V-B:HIS:456:CE1:9040, V-B:ARG:545:CG:9894, V-A:HIS:456:CE1:4069, H-B:GLY:454:N:9021, V-B:ARG:545:CD:9895, V-B:ARG:545:CZ:9898, V-B:GLY:454:CA:9020, V-A:ASN:362:C:3172, V-A:ASN:362:CB:3176, H-A:GLU:543:OE1:4909, V-A:LEU:363:CA:3185, V-A:ASN:362:CA:3174, V-A:LEU:363:CB:3187, V-B:ILE:455:C:9023"]

$$$$
3ca_Grossjean_2025
     RDKit          3D

 31 33  0  0  0  0  0  0  0  0999 V2000
  124.7960  127.3670   73.6420 C   0  0  0  0  0  0  0  0  0  0  0  0
  126.2860  127.7130   73.5940 C   0  0  0  0  0  0  0  0  0  0  0  0
  126.7670  127.5560   72.2650 O   0  0  0  0  0  0  0  0  0  0  0  0
  127.6940  126.6120   71.9610 C   0  0  0  0  0  0  0  0  0  0  0  0
  128.2930  125.9480   72.8130 O   0  0  0  0  0  0  0  0  0  0  0  0
  127.9160  126.4510   70.4850 C   0  0  0  0  0  0  0  0  0  0  0  0
  126.8370  126.6250   69.6080 C   0  0  0  0  0  0  0  0  0  0  0  0
  127.0110  126.4810   68.2340 C   0  0  0  0  0  0  0  0  0  0  0  0
  128.2620  126.1550   67.7100 C   0  0  0  0  0  0  0  0  0  0  0  0
  128.3280  126.0360   66.3080 N   0  0  0  0  0  0  0  0  0  0  0  0
  129.3220  125.5560   65.5300 C   0  0  0  0  0  0  0  0  0  0  0  0
  130.3890  125.1000   65.9380 O   0  0  0  0  0  0  0  0  0  0  0  0
  129.0430  125.5830   64.0230 C   0  0  0  0  0  0  0  0  0  0  0  0
  130.3620  124.8000   63.0350 S   0  0  0  0  0  0  0  0  0  0  0  0
  129.6590  123.5530   61.9640 C   0  0  0  0  0  0  0  0  0  0  0  0
  130.1200  122.2910   62.1510 N   0  0  0  0  0  0  0  0  0  0  0  0
  129.6190  121.2930   61.3900 C   0  0  0  0  0  0  0  0  0  0  0  0
  130.1710  119.9100   61.6710 C   0  0  0  0  0  0  0  0  0  0  0  0
  128.6550  121.5120   60.4090 C   0  0  0  0  0  0  0  0  0  0  0  0
  128.1760  122.8090   60.1840 C   0  0  0  0  0  0  0  0  0  0  0  0
  127.1530  122.9970   59.1120 C   0  0  0  0  0  0  0  0  0  0  0  0
  127.4220  122.5790   57.8030 C   0  0  0  0  0  0  0  0  0  0  0  0
  126.4780  122.7590   56.7950 C   0  0  0  0  0  0  0  0  0  0  0  0
  125.2590  123.3630   57.0930 C   0  0  0  0  0  0  0  0  0  0  0  0
  124.9780  123.7910   58.3880 C   0  0  0  0  0  0  0  0  0  0  0  0
  125.9250  123.6100   59.3930 C   0  0  0  0  0  0  0  0  0  0  0  0
  128.6820  123.8620   60.9880 C   0  0  0  0  0  0  0  0  0  0  0  0
  128.1810  125.2320   60.8340 C   0  0  0  0  0  0  0  0  0  0  0  0
  127.7850  126.3130   60.7110 N   0  0  0  0  0  0  0  0  0  0  0  0
  129.3500  125.9870   68.5800 C   0  0  0  0  0  0  0  0  0  0  0  0
  129.1750  126.1330   69.9540 C   0  0  0  0  0  0  0  0  0  0  0  0
  1  2  1  0
  2  3  1  0
  3  4  1  0
  4  5  2  0
  4  6  1  0
  6  7  2  0
  7  8  1  0
  8  9  2  0
  9 10  1  0
 10 11  1  0
 11 12  2  0
 11 13  1  0
 13 14  1  0
 14 15  1  0
 15 16  2  0
 16 17  1  0
 17 18  1  0
 17 19  2  0
 19 20  1  0
 20 21  1  0
 21 22  2  0
 22 23  1  0
 23 24  2  0
 24 25  1  0
 25 26  2  0
 20 27  2  0
 27 28  1  0
 28 29  3  0
  9 30  1  0
 30 31  2  0
 31  6  1  0
 27 15  1  0
 26 21  1  0
M  END
>  <Binding energies>  (22) 
[-8.49]

>  <Ligand effiencies>  (22) 
[-0.2653125]

>  <Interactions>  (22) 
["V-B:PRO:540:CD:9859, V-A:PRO:482:CB:4326, V-B:GLU:543:CD:9880, V-B:ALA:541:CB:9864, V-B:TYR:539:CE2:9848, V-B:TYR:539:CD2:9846, V-B:PRO:540:CB:9857, V-B:PRO:540:N:9856, V-B:TYR:539:C:9839, V-B:LEU:363:CD1:8160, V-B:PRO:540:C:9853, V-B:PRO:540:CA:9855, V-A:PRO:482:CG:4327, V-A:LEU:475:CD1:4258, V-B:GLU:543:C:9874, V-B:GLU:543:CB:9878, V-B:HIS:456:CB:9036, V-B:HIS:456:CG:9037, V-B:GLY:544:C:9884, V-B:HIS:456:CD2:9039, V-B:ARG:545:CA:9891, V-B:HIS:456:CE1:9040, V-B:ARG:545:CG:9894, H-B:LYS:547:NZ:9923, V-A:HIS:456:CE1:4069, V-A:HIS:456:CD2:4068, H-B:GLU:543:OE1:9881, H-B:HIS:456:NE2:9041, V-B:GLU:543:CG:9879, V-B:GLU:543:CA:9876, H-A:TYR:484:OH:4348, V-B:ARG:545:C:9889, V-B:HIS:456:CA:9034"]

$$$$
3ce_Grossjean_2025
     RDKit          3D

 27 29  0  0  0  0  0  0  0  0999 V2000
  123.3630  129.7740   66.6180 C   0  0  0  0  0  0  0  0  0  0  0  0
  124.4550  129.7850   65.5660 C   0  0  0  0  0  0  0  0  0  0  0  0
  125.7170  129.2390   65.8160 C   0  0  0  0  0  0  0  0  0  0  0  0
  126.6690  129.2760   64.7980 C   0  0  0  0  0  0  0  0  0  0  0  0
  126.3430  129.8520   63.5670 C   0  0  0  0  0  0  0  0  0  0  0  0
  125.0630  130.3900   63.3870 C   0  0  0  0  0  0  0  0  0  0  0  0
  124.7850  130.9380   62.1240 N   0  0  0  0  0  0  0  0  0  0  0  0
  123.5830  131.0860   61.5240 C   0  0  0  0  0  0  0  0  0  0  0  0
  122.5020  130.7550   62.0150 O   0  0  0  0  0  0  0  0  0  0  0  0
  123.6090  131.7250   60.1350 C   0  0  0  0  0  0  0  0  0  0  0  0
  124.7380  130.8530   59.0090 S   0  0  0  0  0  0  0  0  0  0  0  0
  126.3150  131.6550   59.1890 C   0  0  0  0  0  0  0  0  0  0  0  0
  126.4050  132.4550   60.2800 N   0  0  0  0  0  0  0  0  0  0  0  0
  127.5720  133.0970   60.5160 C   0  0  0  0  0  0  0  0  0  0  0  0
  127.6080  133.9650   61.7590 C   0  0  0  0  0  0  0  0  0  0  0  0
  128.6760  132.9790   59.6760 C   0  0  0  0  0  0  0  0  0  0  0  0
  128.5940  132.1780   58.5300 C   0  0  0  0  0  0  0  0  0  0  0  0
  129.7960  132.1030   57.6470 C   0  0  0  0  0  0  0  0  0  0  0  0
  129.7510  132.6320   56.3510 C   0  0  0  0  0  0  0  0  0  0  0  0
  130.8660  132.5600   55.5200 C   0  0  0  0  0  0  0  0  0  0  0  0
  132.0300  131.9510   55.9780 C   0  0  0  0  0  0  0  0  0  0  0  0
  132.0880  131.4100   57.2600 C   0  0  0  0  0  0  0  0  0  0  0  0
  130.9730  131.4850   58.0900 C   0  0  0  0  0  0  0  0  0  0  0  0
  127.3820  131.4880   58.2750 C   0  0  0  0  0  0  0  0  0  0  0  0
  127.2420  130.6230   57.0990 C   0  0  0  0  0  0  0  0  0  0  0  0
  127.1330  129.9410   56.1710 N   0  0  0  0  0  0  0  0  0  0  0  0
  124.1240  130.3510   64.3770 N   0  0  0  0  0  0  0  0  0  0  0  0
  1  2  1  0
  2  3  2  0
  3  4  1  0
  4  5  2  0
  5  6  1  0
  6  7  1  0
  7  8  1  0
  8  9  2  0
  8 10  1  0
 10 11  1  0
 11 12  1  0
 12 13  2  0
 13 14  1  0
 14 15  1  0
 14 16  2  0
 16 17  1  0
 17 18  1  0
 18 19  2  0
 19 20  1  0
 20 21  2  0
 21 22  1  0
 22 23  2  0
 17 24  2  0
 24 25  1  0
 25 26  3  0
  6 27  2  0
 27  2  1  0
 24 12  1  0
 23 18  1  0
M  END
>  <Binding energies>  (23) 
[-8.42]

>  <Ligand effiencies>  (23) 
[-0.3007142857142857]

>  <Interactions>  (23) 
["V-B:ASP:366:CG:8184, V-A:PRO:540:CD:4887, V-A:PRO:540:N:4884, V-A:TYR:539:C:4867, V-A:ILE:538:CA:4860, V-A:LEU:363:CD1:3189, V-A:TYR:539:CE2:4876, V-A:PRO:540:CB:4885, V-A:PRO:540:CA:4883, V-A:TYR:539:CD2:4874, V-B:LEU:475:CD1:9229, V-A:ALA:541:CB:4892, V-B:ARG:545:CG:9894, H-B:TYR:484:OH:9319, H-B:GLY:454:N:9021, V-B:ILE:369:CD1:8210, V-B:ARG:545:CD:9895, V-B:ILE:369:CG2:8208, V-B:ARG:545:CZ:9898, V-B:GLY:454:CA:9020, H-B:ARG:545:NH2:9900, V-A:TYR:539:CE1:4875, V-A:TYR:539:CD1:4873, V-A:TYR:539:CZ:4877, V-A:TYR:539:CG:4872, V-A:TYR:539:CA:4869, H-A:TYR:539:OH:4878, H-B:TYR:531:OH:9767, V-B:ILE:455:C:9023, V-B:ILE:369:CB:8207, V-B:GLY:454:C:9018"]

$$$$
3cj_Grossjean_2025
     RDKit          3D

 25 27  0  0  0  0  0  0  0  0999 V2000
  128.0630  133.2460   61.3550 C   0  0  0  0  0  0  0  0  0  0  0  0
  127.9240  132.5520   60.0140 C   0  0  0  0  0  0  0  0  0  0  0  0
  128.9250  132.6270   59.0480 C   0  0  0  0  0  0  0  0  0  0  0  0
  128.7650  131.9510   57.8310 C   0  0  0  0  0  0  0  0  0  0  0  0
  129.8900  132.0070   56.8520 C   0  0  0  0  0  0  0  0  0  0  0  0
  131.1550  131.5140   57.1940 C   0  0  0  0  0  0  0  0  0  0  0  0
  132.2070  131.5780   56.2840 C   0  0  0  0  0  0  0  0  0  0  0  0
  131.9990  132.1420   55.0290 C   0  0  0  0  0  0  0  0  0  0  0  0
  130.7490  132.6450   54.6770 C   0  0  0  0  0  0  0  0  0  0  0  0
  129.6980  132.5790   55.5890 C   0  0  0  0  0  0  0  0  0  0  0  0
  127.5630  131.2350   57.6100 C   0  0  0  0  0  0  0  0  0  0  0  0
  127.3240  130.5310   56.3460 C   0  0  0  0  0  0  0  0  0  0  0  0
  127.1370  129.9750   55.3480 N   0  0  0  0  0  0  0  0  0  0  0  0
  126.6030  131.2080   58.6470 C   0  0  0  0  0  0  0  0  0  0  0  0
  125.1130  130.2390   58.5540 S   0  0  0  0  0  0  0  0  0  0  0  0
  123.8520  131.2370   59.4080 C   0  0  0  0  0  0  0  0  0  0  0  0
  124.1540  131.3820   60.9030 C   0  0  0  0  0  0  0  0  0  0  0  0
  124.1570  132.5020   61.4170 O   0  0  0  0  0  0  0  0  0  0  0  0
  124.3640  130.2230   61.5650 N   0  0  0  0  0  0  0  0  0  0  0  0
  124.5220  130.0690   62.9330 C   0  0  0  0  0  0  0  0  0  0  0  0
  123.6350  130.2900   63.8790 N   0  0  0  0  0  0  0  0  0  0  0  0
  124.1200  130.0080   65.0710 C   0  0  0  0  0  0  0  0  0  0  0  0
  125.4330  129.5470   65.1100 C   0  0  0  0  0  0  0  0  0  0  0  0
  126.0580  129.4850   63.4890 S   0  0  0  0  0  0  0  0  0  0  0  0
  126.7860  131.8470   59.8310 N   0  0  0  0  0  0  0  0  0  0  0  0
  1  2  1  0
  2  3  2  0
  3  4  1  0
  4  5  1  0
  5  6  2  0
  6  7  1  0
  7  8  2  0
  8  9  1  0
  9 10  2  0
  4 11  2  0
 11 12  1  0
 12 13  3  0
 11 14  1  0
 14 15  1  0
 15 16  1  0
 16 17  1  0
 17 18  2  0
 17 19  1  0
 19 20  1  0
 20 21  2  0
 21 22  1  0
 22 23  2  0
 23 24  1  0
 14 25  2  0
 25  2  1  0
 10  5  1  0
 24 20  1  0
M  END
>  <Binding energies>  (24) 
[-7.89]

>  <Ligand effiencies>  (24) 
[-0.30346153846153845]

>  <Interactions>  (24) 
["H-B:ASP:366:OD1:8185, V-B:ASP:366:CG:8184, V-A:PRO:540:N:4884, V-A:TYR:539:C:4867, V-A:TYR:531:CE2:4793, V-A:ILE:538:CD1:4865, V-A:ILE:538:CA:4860, V-A:LEU:363:CD1:3189, V-A:TYR:539:CE2:4876, V-A:PRO:540:CB:4885, V-A:PRO:540:CA:4883, V-A:TYR:539:CD2:4874, V-A:ALA:541:CB:4892, V-B:ASP:366:CB:8183, H-B:GLY:454:N:9021, V-B:ARG:545:CD:9895, V-B:ILE:369:CG2:8208, V-B:ARG:545:CZ:9898, V-B:GLY:454:CA:9020, H-B:ARG:545:NH2:9900, H-B:ARG:545:NH1:9899, V-A:TYR:539:CE1:4875, H-B:ASP:366:OD2:8186, V-A:TYR:539:CD1:4873, V-A:TYR:539:CZ:4877, V-A:TYR:539:CG:4872, H-A:TYR:539:OH:4878, H-B:TYR:531:OH:9767, V-B:ASP:366:CA:8181, V-A:ILE:538:C:4858"]

$$$$
4ba_Grossjean_2025
     RDKit          3D

 28 30  0  0  0  0  0  0  0  0999 V2000
  125.4330  127.2210   73.7340 C   0  0  0  0  0  0  0  0  0  0  0  0
  126.5940  127.5230   72.7690 C   0  0  0  0  0  0  0  0  0  0  0  0
  127.7000  126.4480   72.7190 C   0  0  0  0  0  0  0  0  0  0  0  0
  128.0460  125.8850   73.7600 O   0  0  0  0  0  0  0  0  0  0  0  0
  128.3060  126.1320   71.3830 C   0  0  0  0  0  0  0  0  0  0  0  0
  129.1720  125.0370   71.2620 C   0  0  0  0  0  0  0  0  0  0  0  0
  129.7490  124.7220   70.0360 C   0  0  0  0  0  0  0  0  0  0  0  0
  129.4710  125.4910   68.9050 C   0  0  0  0  0  0  0  0  0  0  0  0
  130.1160  125.0890   67.7190 N   0  0  0  0  0  0  0  0  0  0  0  0
  129.7120  125.1940   66.4290 C   0  0  0  0  0  0  0  0  0  0  0  0
  128.6230  125.6530   66.0800 O   0  0  0  0  0  0  0  0  0  0  0  0
  130.6620  124.6920   65.4340 C   0  0  0  0  0  0  0  0  0  0  0  0
  132.2860  125.3690   65.3390 S   0  0  0  0  0  0  0  0  0  0  0  0
  132.6860  124.3390   63.9840 C   0  0  0  0  0  0  0  0  0  0  0  0
  133.8860  124.3870   63.4070 N   0  0  0  0  0  0  0  0  0  0  0  0
  134.0780  123.5440   62.3670 C   0  0  0  0  0  0  0  0  0  0  0  0
  135.4480  123.6210   61.7170 C   0  0  0  0  0  0  0  0  0  0  0  0
  133.1110  122.6590   61.8990 C   0  0  0  0  0  0  0  0  0  0  0  0
  131.8450  122.6030   62.5040 C   0  0  0  0  0  0  0  0  0  0  0  0
  130.8140  121.6110   61.9550 C   0  0  0  0  0  0  0  0  0  0  0  0
  130.4080  120.7230   62.8640 F   0  0  0  0  0  0  0  0  0  0  0  0
  129.7350  122.2690   61.5300 F   0  0  0  0  0  0  0  0  0  0  0  0
  131.3420  120.9290   60.9380 F   0  0  0  0  0  0  0  0  0  0  0  0
  131.6080  123.4850   63.6000 C   0  0  0  0  0  0  0  0  0  0  0  0
  130.4600  123.7170   64.4430 C   0  0  0  0  0  0  0  0  0  0  0  0
  129.2770  123.0390   64.2850 N   0  0  0  0  0  0  0  0  0  0  0  0
  128.6110  126.5930   69.0190 C   0  0  0  0  0  0  0  0  0  0  0  0
  128.0340  126.9070   70.2460 C   0  0  0  0  0  0  0  0  0  0  0  0
  1  2  1  0
  2  3  1  0
  3  4  2  0
  3  5  1  0
  5  6  2  0
  6  7  1  0
  7  8  2  0
  8  9  1  0
  9 10  1  0
 10 11  2  0
 10 12  1  0
 12 13  1  0
 13 14  1  0
 14 15  2  0
 15 16  1  0
 16 17  1  0
 16 18  2  0
 18 19  1  0
 19 20  1  0
 20 21  1  0
 20 22  1  0
 20 23  1  0
 19 24  2  0
 24 25  1  0
 25 26  1  0
  8 27  1  0
 27 28  2  0
 28  5  1  0
 25 12  2  0
 24 14  1  0
M  END
>  <Binding energies>  (25) 
[-7.37]

>  <Ligand effiencies>  (25) 
[-0.23774193548387096]

>  <Interactions>  (25) 
["V-B:ALA:541:CB:9864, V-B:TYR:539:CE2:9848, V-B:TYR:539:CD2:9846, V-A:LEU:475:CD1:4258, V-B:GLU:543:C:9874, V-B:GLU:543:CB:9878, V-B:HIS:456:CB:9036, V-B:HIS:456:CG:9037, V-B:GLY:544:C:9884, V-B:HIS:456:CD2:9039, V-B:HIS:456:CE1:9040, H-B:LYS:547:NZ:9923, V-A:HIS:456:CE1:4069, V-A:HIS:456:CG:4066, V-A:HIS:456:CD2:4068, H-A:GLY:454:N:4050, V-B:GLU:543:CG:9879, V-A:TYR:484:CE1:4345, V-B:GLU:543:CA:9876, V-A:ILE:369:CD1:3239, V-A:GLY:453:C:4042, V-A:TYR:484:CZ:4347, H-A:TYR:484:OH:4348, V-A:GLY:454:CA:4049, H-A:HIS:456:ND1:4067, V-A:GLY:453:CA:4044"]

$$$$
4bb_Grossjean_2025
     RDKit          3D

 27 29  0  0  0  0  0  0  0  0999 V2000
  128.2540  128.1710   73.3030 C   0  0  0  0  0  0  0  0  0  0  0  0
  128.3900  126.6700   73.0350 C   0  0  0  0  0  0  0  0  0  0  0  0
  128.2210  125.8950   73.9770 O   0  0  0  0  0  0  0  0  0  0  0  0
  128.7310  126.2250   71.6440 C   0  0  0  0  0  0  0  0  0  0  0  0
  129.4180  125.0190   71.4580 C   0  0  0  0  0  0  0  0  0  0  0  0
  129.7480  124.5840   70.1780 C   0  0  0  0  0  0  0  0  0  0  0  0
  129.3910  125.3400   69.0600 C   0  0  0  0  0  0  0  0  0  0  0  0
  129.7760  124.8080   67.8130 N   0  0  0  0  0  0  0  0  0  0  0  0
  129.3220  125.0900   66.5680 C   0  0  0  0  0  0  0  0  0  0  0  0
  128.4200  125.8910   66.3250 O   0  0  0  0  0  0  0  0  0  0  0  0
  129.9640  124.3400   65.4850 C   0  0  0  0  0  0  0  0  0  0  0  0
  129.3140  122.7830   64.9770 S   0  0  0  0  0  0  0  0  0  0  0  0
  130.5830  122.5860   63.7910 C   0  0  0  0  0  0  0  0  0  0  0  0
  130.6430  121.5090   63.0090 N   0  0  0  0  0  0  0  0  0  0  0  0
  131.6720  121.4700   62.1310 C   0  0  0  0  0  0  0  0  0  0  0  0
  131.7210  120.2350   61.2490 C   0  0  0  0  0  0  0  0  0  0  0  0
  132.6320  122.4720   62.0170 C   0  0  0  0  0  0  0  0  0  0  0  0
  132.5730  123.6090   62.8370 C   0  0  0  0  0  0  0  0  0  0  0  0
  133.6520  124.6850   62.6750 C   0  0  0  0  0  0  0  0  0  0  0  0
  134.1980  125.0550   63.8360 F   0  0  0  0  0  0  0  0  0  0  0  0
  134.6340  124.2250   61.8990 F   0  0  0  0  0  0  0  0  0  0  0  0
  133.1230  125.7740   62.1180 F   0  0  0  0  0  0  0  0  0  0  0  0
  131.5000  123.6820   63.7760 C   0  0  0  0  0  0  0  0  0  0  0  0
  131.1220  124.6660   64.7590 C   0  0  0  0  0  0  0  0  0  0  0  0
  131.8310  125.8230   64.9600 N   0  0  0  0  0  0  0  0  0  0  0  0
  128.7090  126.5530   69.2390 C   0  0  0  0  0  0  0  0  0  0  0  0
  128.3820  126.9880   70.5210 C   0  0  0  0  0  0  0  0  0  0  0  0
  1  2  1  0
  2  3  2  0
  2  4  1  0
  4  5  2  0
  5  6  1  0
  6  7  2  0
  7  8  1  0
  8  9  1  0
  9 10  2  0
  9 11  1  0
 11 12  1  0
 12 13  1  0
 13 14  2  0
 14 15  1  0
 15 16  1  0
 15 17  2  0
 17 18  1  0
 18 19  1  0
 19 20  1  0
 19 21  1  0
 19 22  1  0
 18 23  2  0
 23 24  1  0
 24 25  1  0
  7 26  1  0
 26 27  2  0
 27  4  1  0
 24 11  2  0
 23 13  1  0
M  END
>  <Binding energies>  (26) 
[-7.29]

>  <Ligand effiencies>  (26) 
[-0.243]

>  <Interactions>  (26) 
["V-B:ALA:541:CB:9864, V-A:LEU:475:CD1:4258, V-A:ASP:366:CG:3213, V-A:GLU:543:CD:4908, V-B:GLU:543:C:9874, V-B:GLU:543:CB:9878, V-B:HIS:456:CG:9037, V-B:HIS:456:CD2:9039, V-B:HIS:456:CE1:9040, H-B:LYS:547:NZ:9923, V-A:HIS:456:CE1:4069, V-A:HIS:456:CG:4066, V-A:HIS:456:CD2:4068, V-B:GLU:543:CG:9879, V-A:TYR:484:CE1:4345, V-B:GLU:543:CA:9876, V-A:TRP:381:CH2:3372, V-A:GLY:453:C:4042, V-A:TYR:484:CZ:4347, H-A:TYR:484:OH:4348, H-A:GLU:543:OE2:4910, H-A:HIS:456:ND1:4067, V-A:ARG:545:CZ:4926, V-A:GLY:453:CA:4044, H-B:GLU:543:O:9875"]

$$$$
4bd_Grossjean_2025
     RDKit          3D

 24 26  0  0  0  0  0  0  0  0999 V2000
  130.0600  132.5900   55.6290 C   0  0  0  0  0  0  0  0  0  0  0  0
  129.9290  132.2400   57.1010 C   0  0  0  0  0  0  0  0  0  0  0  0
  131.0100  131.7350   57.8180 C   0  0  0  0  0  0  0  0  0  0  0  0
  130.8750  131.4140   59.1770 C   0  0  0  0  0  0  0  0  0  0  0  0
  132.0920  130.8570   59.9240 C   0  0  0  0  0  0  0  0  0  0  0  0
  133.1820  130.7740   59.1570 F   0  0  0  0  0  0  0  0  0  0  0  0
  132.3890  131.6450   60.9560 F   0  0  0  0  0  0  0  0  0  0  0  0
  131.8250  129.6290   60.3690 F   0  0  0  0  0  0  0  0  0  0  0  0
  129.5980  131.6300   59.7750 C   0  0  0  0  0  0  0  0  0  0  0  0
  129.0910  131.4260   61.1100 C   0  0  0  0  0  0  0  0  0  0  0  0
  129.8670  130.9360   62.1280 N   0  0  0  0  0  0  0  0  0  0  0  0
  127.7380  131.7710   61.2700 C   0  0  0  0  0  0  0  0  0  0  0  0
  126.9080  131.6750   62.4740 C   0  0  0  0  0  0  0  0  0  0  0  0
  126.3200  132.6650   62.9120 O   0  0  0  0  0  0  0  0  0  0  0  0
  126.8360  130.4420   63.0340 N   0  0  0  0  0  0  0  0  0  0  0  0
  126.1680  130.0270   64.2010 C   0  0  0  0  0  0  0  0  0  0  0  0
  124.8120  130.3580   64.2810 C   0  0  0  0  0  0  0  0  0  0  0  0
  124.0620  129.9830   65.3920 C   0  0  0  0  0  0  0  0  0  0  0  0
  124.6650  129.2670   66.4220 C   0  0  0  0  0  0  0  0  0  0  0  0
  126.0110  128.9190   66.3490 C   0  0  0  0  0  0  0  0  0  0  0  0
  126.7650  129.2930   65.2390 C   0  0  0  0  0  0  0  0  0  0  0  0
  127.0510  132.3700   59.7620 S   0  0  0  0  0  0  0  0  0  0  0  0
  128.5720  132.1530   58.9280 C   0  0  0  0  0  0  0  0  0  0  0  0
  128.7070  132.4560   57.6380 N   0  0  0  0  0  0  0  0  0  0  0  0
  1  2  1  0
  2  3  2  0
  3  4  1  0
  4  5  1  0
  5  6  1  0
  5  7  1  0
  5  8  1  0
  4  9  2  0
  9 10  1  0
 10 11  1  0
 10 12  2  0
 12 13  1  0
 13 14  2  0
 13 15  1  0
 15 16  1  0
 16 17  2  0
 17 18  1  0
 18 19  2  0
 19 20  1  0
 20 21  2  0
 12 22  1  0
 22 23  1  0
 23 24  2  0
 24  2  1  0
 23  9  1  0
 21 16  1  0
M  END
>  <Binding energies>  (27) 
[-6.23]

>  <Ligand effiencies>  (27) 
[-0.23074074074074075]

>  <Interactions>  (27) 
["V-A:PRO:540:N:4884, V-A:TYR:539:C:4867, V-A:ASP:366:CG:3213, V-A:GLU:543:CD:4908, V-A:TYR:539:CE2:4876, V-A:PRO:540:C:4881, V-A:PRO:540:CB:4885, V-A:PRO:540:CA:4883, V-A:TYR:539:CD2:4874, V-B:HIS:456:CE1:9040, V-B:ARG:545:CG:9894, V-B:ARG:545:CD:9895, V-B:ARG:545:CZ:9898, V-B:GLY:454:CA:9020, H-A:GLU:543:OE1:4909, V-A:TYR:539:CE1:4875, V-A:TYR:539:CD1:4873, V-A:TYR:539:CZ:4877, V-A:LEU:363:CA:3185"]

$$$$
4be_Grossjean_2025
     RDKit          3D

 25 27  0  0  0  0  0  0  0  0999 V2000
  128.1040  119.9230   72.8010 C   0  0  0  0  0  0  0  0  0  0  0  0
  129.1610  121.0000   72.6450 C   0  0  0  0  0  0  0  0  0  0  0  0
  130.3130  121.0120   73.4340 C   0  0  0  0  0  0  0  0  0  0  0  0
  131.2420  122.0360   73.2370 C   0  0  0  0  0  0  0  0  0  0  0  0
  130.9980  123.0110   72.2680 C   0  0  0  0  0  0  0  0  0  0  0  0
  129.8250  122.9360   71.5080 C   0  0  0  0  0  0  0  0  0  0  0  0
  129.6360  123.9520   70.5530 N   0  0  0  0  0  0  0  0  0  0  0  0
  129.3930  125.2710   70.7510 C   0  0  0  0  0  0  0  0  0  0  0  0
  129.3050  125.7940   71.8640 O   0  0  0  0  0  0  0  0  0  0  0  0
  129.2120  126.0670   69.5330 C   0  0  0  0  0  0  0  0  0  0  0  0
  128.6800  127.7440   69.6430 S   0  0  0  0  0  0  0  0  0  0  0  0
  128.6900  127.9080   67.9030 C   0  0  0  0  0  0  0  0  0  0  0  0
  128.3540  129.0530   67.3110 N   0  0  0  0  0  0  0  0  0  0  0  0
  128.4020  129.0600   65.9590 C   0  0  0  0  0  0  0  0  0  0  0  0
  128.0130  130.3720   65.3040 C   0  0  0  0  0  0  0  0  0  0  0  0
  128.7770  127.9590   65.1930 C   0  0  0  0  0  0  0  0  0  0  0  0
  129.1330  126.7500   65.8100 C   0  0  0  0  0  0  0  0  0  0  0  0
  129.5410  125.5680   64.9260 C   0  0  0  0  0  0  0  0  0  0  0  0
  129.1730  125.7180   63.6510 F   0  0  0  0  0  0  0  0  0  0  0  0
  130.8670  125.4280   64.9420 F   0  0  0  0  0  0  0  0  0  0  0  0
  128.9750  124.4490   65.3770 F   0  0  0  0  0  0  0  0  0  0  0  0
  129.0880  126.7080   67.2360 C   0  0  0  0  0  0  0  0  0  0  0  0
  129.3700  125.6700   68.1970 C   0  0  0  0  0  0  0  0  0  0  0  0
  129.7640  124.4080   67.8300 N   0  0  0  0  0  0  0  0  0  0  0  0
  128.9100  121.9400   71.6980 N   0  0  0  0  0  0  0  0  0  0  0  0
  1  2  1  0
  2  3  2  0
  3  4  1  0
  4  5  2  0
  5  6  1  0
  6  7  1  0
  7  8  1  0
  8  9  2  0
  8 10  1  0
 10 11  1  0
 11 12  1  0
 12 13  2  0
 13 14  1  0
 14 15  1  0
 14 16  2  0
 16 17  1  0
 17 18  1  0
 18 19  1  0
 18 20  1  0
 18 21  1  0
 17 22  2  0
 22 23  1  0
 23 24  1  0
  6 25  2  0
 25  2  1  0
 23 10  2  0
 22 12  1  0
M  END
>  <Binding energies>  (28) 
[-7.09]

>  <Ligand effiencies>  (28) 
[-0.2532142857142857]

>  <Interactions>  (28) 
["V-B:GLU:543:CD:9880, V-A:GLU:543:CD:4908, V-B:GLU:543:C:9874, V-B:GLU:543:CB:9878, V-B:HIS:456:CE1:9040, H-B:LYS:547:NZ:9923, V-A:HIS:456:CE1:4069, V-A:ASP:473:CG:4240, V-A:HIS:456:CG:4066, V-A:HIS:456:CD2:4068, V-A:ASP:473:CB:4239, V-A:HIS:456:CB:4065, V-A:GLU:543:CB:4906, H-B:HIS:456:NE2:9041, H-A:HIS:456:NE2:4070, V-B:GLU:543:CG:9879, V-A:TYR:484:CE1:4345, V-B:GLU:543:CA:9876, V-A:TYR:484:CZ:4347, H-A:TYR:484:OH:4348, V-B:LYS:547:CE:9922, H-A:HIS:456:ND1:4067, V-A:GLU:543:CG:4907, H-B:GLU:543:O:9875, V-A:TYR:484:CD2:4344, V-A:TYR:484:CG:4342, V-A:TYR:484:CE2:4346, V-A:TYR:484:CB:4341, V-A:TYR:484:CD1:4343"]

$$$$
4bg_Grossjean_2025
     RDKit          3D

 25 27  0  0  0  0  0  0  0  0999 V2000
  133.3040  126.1480   75.7090 C   0  0  0  0  0  0  0  0  0  0  0  0
  132.2740  125.7270   74.6760 C   0  0  0  0  0  0  0  0  0  0  0  0
  132.2460  124.4260   74.1810 C   0  0  0  0  0  0  0  0  0  0  0  0
  131.2910  124.0510   73.2220 C   0  0  0  0  0  0  0  0  0  0  0  0
  131.2990  122.6080   72.7060 C   0  0  0  0  0  0  0  0  0  0  0  0
  130.8520  122.5000   71.4530 F   0  0  0  0  0  0  0  0  0  0  0  0
  132.5420  122.1280   72.7300 F   0  0  0  0  0  0  0  0  0  0  0  0
  130.5190  121.8490   73.4750 F   0  0  0  0  0  0  0  0  0  0  0  0
  130.3710  125.0530   72.7920 C   0  0  0  0  0  0  0  0  0  0  0  0
  129.2840  125.0450   71.8430 C   0  0  0  0  0  0  0  0  0  0  0  0
  128.9410  123.9340   71.1150 N   0  0  0  0  0  0  0  0  0  0  0  0
  128.6070  126.2700   71.7400 C   0  0  0  0  0  0  0  0  0  0  0  0
  127.4900  126.6230   70.8640 C   0  0  0  0  0  0  0  0  0  0  0  0
  126.6000  127.3900   71.2350 O   0  0  0  0  0  0  0  0  0  0  0  0
  127.5190  126.0900   69.6250 N   0  0  0  0  0  0  0  0  0  0  0  0
  126.5050  126.2910   68.5900 C   0  0  0  0  0  0  0  0  0  0  0  0
  126.8560  127.3920   67.5980 C   0  0  0  0  0  0  0  0  0  0  0  0
  125.8410  128.1250   66.9750 C   0  0  0  0  0  0  0  0  0  0  0  0
  126.1660  129.1560   66.0980 C   0  0  0  0  0  0  0  0  0  0  0  0
  127.5040  129.4610   65.8560 C   0  0  0  0  0  0  0  0  0  0  0  0
  128.5200  128.7460   66.4850 C   0  0  0  0  0  0  0  0  0  0  0  0
  128.1960  127.7140   67.3620 C   0  0  0  0  0  0  0  0  0  0  0  0
  129.3220  127.4890   72.7910 S   0  0  0  0  0  0  0  0  0  0  0  0
  130.5040  126.3470   73.3840 C   0  0  0  0  0  0  0  0  0  0  0  0
  131.4140  126.6970   74.2930 N   0  0  0  0  0  0  0  0  0  0  0  0
  1  2  1  0
  2  3  2  0
  3  4  1  0
  4  5  1  0
  5  6  1  0
  5  7  1  0
  5  8  1  0
  4  9  2  0
  9 10  1  0
 10 11  1  0
 10 12  2  0
 12 13  1  0
 13 14  2  0
 13 15  1  0
 15 16  1  0
 16 17  1  0
 17 18  2  0
 18 19  1  0
 19 20  2  0
 20 21  1  0
 21 22  2  0
 12 23  1  0
 23 24  1  0
 24 25  2  0
 25  2  1  0
 24  9  1  0
 22 17  1  0
M  END
>  <Binding energies>  (29) 
[-6.98]

>  <Ligand effiencies>  (29) 
[-0.2492857142857143]

>  <Interactions>  (29) 
["V-A:GLU:543:CD:4908, V-B:GLU:543:C:9874, V-B:GLU:543:CB:9878, V-B:GLY:544:C:9884, V-B:ARG:545:CA:9891, H-A:LYS:547:NZ:4951, V-B:HIS:456:CE1:9040, V-B:ARG:545:CG:9894, V-A:ASP:473:CG:4240, V-A:HIS:456:CG:4066, V-A:HIS:456:CD2:4068, V-A:ASP:473:CB:4239, V-A:HIS:456:CB:4065, V-A:GLU:543:CB:4906, H-B:HIS:456:NE2:9041, V-B:ARG:545:CD:9895, V-A:TYR:484:CE1:4345, V-A:TYR:484:CZ:4347, V-B:GLY:544:CA:9886, V-A:GLU:543:CG:4907, H-B:GLU:543:O:9875, V-A:LYS:547:CD:4949, V-A:TYR:484:CD2:4344, V-A:VAL:458:CG2:4087, H-B:GLY:544:O:9885, V-A:TYR:484:CG:4342, V-A:TYR:484:CE2:4346, V-A:TYR:484:CB:4341, V-A:TYR:484:CD1:4343, V-A:ASP:473:CA:4237, V-A:ASP:473:C:4235"]

$$$$
4ca_Grossjean_2025
     RDKit          3D

 34 37  0  0  0  0  0  0  0  0999 V2000
  126.4470  124.2350   54.6790 C   0  0  0  0  0  0  0  0  0  0  0  0
  127.6130  123.2420   54.6690 C   0  0  0  0  0  0  0  0  0  0  0  0
  127.4110  122.2650   55.6830 O   0  0  0  0  0  0  0  0  0  0  0  0
  126.3950  122.3810   56.5770 C   0  0  0  0  0  0  0  0  0  0  0  0
  125.2170  122.1290   56.3040 O   0  0  0  0  0  0  0  0  0  0  0  0
  126.8480  122.8430   57.9310 C   0  0  0  0  0  0  0  0  0  0  0  0
  125.9950  123.6450   58.7010 C   0  0  0  0  0  0  0  0  0  0  0  0
  126.3850  124.0850   59.9630 C   0  0  0  0  0  0  0  0  0  0  0  0
  127.6350  123.7410   60.4780 C   0  0  0  0  0  0  0  0  0  0  0  0
  127.9220  124.2330   61.7660 N   0  0  0  0  0  0  0  0  0  0  0  0
  129.1100  124.3570   62.4070 C   0  0  0  0  0  0  0  0  0  0  0  0
  130.2000  124.0820   61.9040 O   0  0  0  0  0  0  0  0  0  0  0  0
  129.0310  124.8740   63.7750 C   0  0  0  0  0  0  0  0  0  0  0  0
  129.5090  123.8590   65.1340 S   0  0  0  0  0  0  0  0  0  0  0  0
  129.1800  125.1470   66.2690 C   0  0  0  0  0  0  0  0  0  0  0  0
  129.3670  124.9840   67.5770 N   0  0  0  0  0  0  0  0  0  0  0  0
  129.0980  126.0450   68.3800 C   0  0  0  0  0  0  0  0  0  0  0  0
  129.3280  125.8330   69.8490 C   0  0  0  0  0  0  0  0  0  0  0  0
  129.7920  124.5990   70.3330 C   0  0  0  0  0  0  0  0  0  0  0  0
  130.0020  124.3950   71.6940 C   0  0  0  0  0  0  0  0  0  0  0  0
  129.7490  125.4250   72.5940 C   0  0  0  0  0  0  0  0  0  0  0  0
  129.2860  126.6560   72.1420 C   0  0  0  0  0  0  0  0  0  0  0  0
  129.0770  126.8560   70.7800 C   0  0  0  0  0  0  0  0  0  0  0  0
  128.6210  127.2570   67.8690 C   0  0  0  0  0  0  0  0  0  0  0  0
  128.4160  127.4370   66.4920 C   0  0  0  0  0  0  0  0  0  0  0  0
  127.8940  128.7930   66.0000 C   0  0  0  0  0  0  0  0  0  0  0  0
  126.6110  128.7590   65.6370 F   0  0  0  0  0  0  0  0  0  0  0  0
  128.0110  129.7000   66.9690 F   0  0  0  0  0  0  0  0  0  0  0  0
  128.5980  129.1880   64.9390 F   0  0  0  0  0  0  0  0  0  0  0  0
  128.7120  126.3360   65.6390 C   0  0  0  0  0  0  0  0  0  0  0  0
  128.6390  126.1510   64.2100 C   0  0  0  0  0  0  0  0  0  0  0  0
  128.2200  127.1390   63.3560 N   0  0  0  0  0  0  0  0  0  0  0  0
  128.4930  122.9340   59.7170 C   0  0  0  0  0  0  0  0  0  0  0  0
  128.1010  122.4930   58.4560 C   0  0  0  0  0  0  0  0  0  0  0  0
  1  2  1  0
  2  3  1  0
  3  4  1  0
  4  5  2  0
  4  6  1  0
  6  7  2  0
  7  8  1  0
  8  9  2  0
  9 10  1  0
 10 11  1  0
 11 12  2  0
 11 13  1  0
 13 14  1  0
 14 15  1  0
 15 16  2  0
 16 17  1  0
 17 18  1  0
 18 19  2  0
 19 20  1  0
 20 21  2  0
 21 22  1  0
 22 23  2  0
 17 24  2  0
 24 25  1  0
 25 26  1  0
 26 27  1  0
 26 28  1  0
 26 29  1  0
 25 30  2  0
 30 31  1  0
 31 32  1  0
  9 33  1  0
 33 34  2  0
 34  6  1  0
 31 13  2  0
 30 15  1  0
 23 18  1  0
M  END
>  <Binding energies>  (30) 
[-8.24]

>  <Ligand effiencies>  (30) 
[-0.2227027027027027]

>  <Interactions>  (30) 
["V-B:PRO:540:CD:9859, V-B:GLU:543:CD:9880, V-B:ILE:538:CB:9834, V-B:TYR:539:CE2:9848, V-B:TYR:539:CD2:9846, V-B:PRO:540:CB:9857, V-B:PRO:540:N:9856, V-B:TYR:539:C:9839, V-B:PRO:540:CA:9855, V-B:TYR:539:CZ:9849, H-B:GLU:543:OE2:9882, V-A:GLU:543:CD:4908, V-B:ILE:538:CG2:9835, V-B:TYR:539:CA:9841, V-B:TYR:539:CG:9844, H-B:TYR:539:N:9842, V-B:GLU:543:CB:9878, V-B:HIS:456:CE1:9040, V-A:HIS:456:CE1:4069, V-A:HIS:456:CG:4066, V-A:HIS:456:CD2:4068, H-B:GLU:543:OE1:9881, V-A:GLU:543:CB:4906, V-B:GLU:543:CG:9879, V-A:TYR:484:CE1:4345, V-B:GLU:543:CA:9876, V-A:TYR:484:CZ:4347, H-A:TYR:484:OH:4348, H-A:GLU:543:OE1:4909, V-B:TYR:484:CZ:9318, V-A:GLU:543:CG:4907, V-B:TYR:484:CE1:9316, V-B:ILE:538:CA:9832, V-B:TYR:539:CE1:9847, V-B:TYR:539:CD1:9845"]

$$$$
4cb_Grossjean_2025
     RDKit          3D

 33 36  0  0  0  0  0  0  0  0999 V2000
  127.6440  124.1210   54.6430 C   0  0  0  0  0  0  0  0  0  0  0  0
  127.9230  123.0700   55.5570 O   0  0  0  0  0  0  0  0  0  0  0  0
  126.9900  122.6590   56.4550 C   0  0  0  0  0  0  0  0  0  0  0  0
  125.9690  122.0390   56.1410 O   0  0  0  0  0  0  0  0  0  0  0  0
  127.3240  123.0330   57.8710 C   0  0  0  0  0  0  0  0  0  0  0  0
  127.1080  124.3490   58.3000 C   0  0  0  0  0  0  0  0  0  0  0  0
  127.3990  124.7250   59.6080 C   0  0  0  0  0  0  0  0  0  0  0  0
  127.9190  123.7970   60.5110 C   0  0  0  0  0  0  0  0  0  0  0  0
  128.1640  124.2810   61.8110 N   0  0  0  0  0  0  0  0  0  0  0  0
  129.3130  124.3150   62.5280 C   0  0  0  0  0  0  0  0  0  0  0  0
  130.4070  123.9410   62.1000 O   0  0  0  0  0  0  0  0  0  0  0  0
  129.1900  124.8570   63.8840 C   0  0  0  0  0  0  0  0  0  0  0  0
  129.7110  123.9030   65.2710 S   0  0  0  0  0  0  0  0  0  0  0  0
  129.2950  125.1940   66.3730 C   0  0  0  0  0  0  0  0  0  0  0  0
  129.4740  125.0730   67.6860 N   0  0  0  0  0  0  0  0  0  0  0  0
  129.1310  126.1340   68.4620 C   0  0  0  0  0  0  0  0  0  0  0  0
  129.3510  125.9680   69.9380 C   0  0  0  0  0  0  0  0  0  0  0  0
  129.1500  127.0440   70.8180 C   0  0  0  0  0  0  0  0  0  0  0  0
  129.3560  126.8990   72.1870 C   0  0  0  0  0  0  0  0  0  0  0  0
  129.7660  125.6710   72.6980 C   0  0  0  0  0  0  0  0  0  0  0  0
  129.9740  124.5900   71.8470 C   0  0  0  0  0  0  0  0  0  0  0  0
  129.7690  124.7410   70.4790 C   0  0  0  0  0  0  0  0  0  0  0  0
  128.5890  127.3020   67.9160 C   0  0  0  0  0  0  0  0  0  0  0  0
  128.3920  127.4400   66.5340 C   0  0  0  0  0  0  0  0  0  0  0  0
  127.7950  128.7490   66.0030 C   0  0  0  0  0  0  0  0  0  0  0  0
  127.7620  129.7180   66.9200 F   0  0  0  0  0  0  0  0  0  0  0  0
  128.5250  129.1940   64.9800 F   0  0  0  0  0  0  0  0  0  0  0  0
  126.5440  128.5420   65.5940 F   0  0  0  0  0  0  0  0  0  0  0  0
  128.7640  126.3390   65.7090 C   0  0  0  0  0  0  0  0  0  0  0  0
  128.7210  126.1190   64.2840 C   0  0  0  0  0  0  0  0  0  0  0  0
  128.2590  127.0630   63.4030 N   0  0  0  0  0  0  0  0  0  0  0  0
  128.1360  122.4760   60.0910 C   0  0  0  0  0  0  0  0  0  0  0  0
  127.8420  122.1020   58.7830 C   0  0  0  0  0  0  0  0  0  0  0  0
  1  2  1  0
  2  3  1  0
  3  4  2  0
  3  5  1  0
  5  6  2  0
  6  7  1  0
  7  8  2  0
  8  9  1  0
  9 10  1  0
 10 11  2  0
 10 12  1  0
 12 13  1  0
 13 14  1  0
 14 15  2  0
 15 16  1  0
 16 17  1  0
 17 18  2  0
 18 19  1  0
 19 20  2  0
 20 21  1  0
 21 22  2  0
 16 23  2  0
 23 24  1  0
 24 25  1  0
 25 26  1  0
 25 27  1  0
 25 28  1  0
 24 29  2  0
 29 30  1  0
 30 31  1  0
  8 32  1  0
 32 33  2  0
 33  5  1  0
 30 12  2  0
 29 14  1  0
 22 17  1  0
M  END
>  <Binding energies>  (31) 
[-7.67]

>  <Ligand effiencies>  (31) 
[-0.21305555555555555]

>  <Interactions>  (31) 
["V-B:GLU:543:CD:9880, V-B:TYR:539:CE2:9848, V-B:TYR:539:CD2:9846, V-B:PRO:540:N:9856, V-B:TYR:539:C:9839, V-B:PRO:540:CA:9855, H-B:GLU:543:OE2:9882, V-A:GLU:543:CD:4908, V-B:TYR:539:CG:9844, H-B:TYR:539:OH:9850, H-B:TYR:539:N:9842, V-B:GLU:543:CB:9878, V-B:HIS:456:CE1:9040, V-A:HIS:456:CE1:4069, V-A:HIS:456:CG:4066, V-A:HIS:456:CD2:4068, H-B:GLU:543:OE1:9881, V-A:GLU:543:CB:4906, V-B:GLU:543:CG:9879, V-A:TYR:484:CE1:4345, V-B:GLU:543:CA:9876, H-A:TYR:484:OH:4348, H-A:GLU:543:OE1:4909, V-B:TYR:484:CZ:9318, V-A:GLU:543:CG:4907, V-B:TYR:484:CE1:9316, V-B:TYR:539:CE1:9847"]

$$$$
4cc_Grossjean_2025
     RDKit          3D

 31 34  0  0  0  0  0  0  0  0999 V2000
  129.4600  125.0840   70.4170 C   0  0  0  0  0  0  0  0  0  0  0  0
  128.3170  125.9070   70.2160 O   0  0  0  0  0  0  0  0  0  0  0  0
  128.2060  126.6340   69.0460 C   0  0  0  0  0  0  0  0  0  0  0  0
  129.3070  127.4110   68.6900 C   0  0  0  0  0  0  0  0  0  0  0  0
  129.2890  128.1760   67.5270 C   0  0  0  0  0  0  0  0  0  0  0  0
  128.1590  128.1820   66.7070 C   0  0  0  0  0  0  0  0  0  0  0  0
  128.2380  128.9720   65.5450 N   0  0  0  0  0  0  0  0  0  0  0  0
  127.2510  129.6170   64.8780 C   0  0  0  0  0  0  0  0  0  0  0  0
  126.0730  129.6340   65.2400 O   0  0  0  0  0  0  0  0  0  0  0  0
  127.6680  130.3210   63.6610 C   0  0  0  0  0  0  0  0  0  0  0  0
  128.6880  129.5110   62.4730 S   0  0  0  0  0  0  0  0  0  0  0  0
  128.6920  130.9260   61.4470 C   0  0  0  0  0  0  0  0  0  0  0  0
  129.3500  130.9430   60.2900 N   0  0  0  0  0  0  0  0  0  0  0  0
  129.2880  132.0850   59.5570 C   0  0  0  0  0  0  0  0  0  0  0  0
  130.0410  132.0760   58.2590 C   0  0  0  0  0  0  0  0  0  0  0  0
  131.3250  131.5120   58.1770 C   0  0  0  0  0  0  0  0  0  0  0  0
  132.0300  131.5010   56.9770 C   0  0  0  0  0  0  0  0  0  0  0  0
  131.4600  132.0570   55.8360 C   0  0  0  0  0  0  0  0  0  0  0  0
  130.1920  132.6250   55.8900 C   0  0  0  0  0  0  0  0  0  0  0  0
  129.4900  132.6340   57.0930 C   0  0  0  0  0  0  0  0  0  0  0  0
  128.5800  133.2080   59.9970 C   0  0  0  0  0  0  0  0  0  0  0  0
  127.8850  133.2010   61.2170 C   0  0  0  0  0  0  0  0  0  0  0  0
  127.1250  134.4660   61.6340 C   0  0  0  0  0  0  0  0  0  0  0  0
  127.5090  134.9400   62.8220 F   0  0  0  0  0  0  0  0  0  0  0  0
  127.3260  135.4300   60.7360 F   0  0  0  0  0  0  0  0  0  0  0  0
  125.8210  134.2030   61.7120 F   0  0  0  0  0  0  0  0  0  0  0  0
  127.9360  132.0060   61.9900 C   0  0  0  0  0  0  0  0  0  0  0  0
  127.3640  131.6310   63.2600 C   0  0  0  0  0  0  0  0  0  0  0  0
  126.5900  132.4850   64.0050 N   0  0  0  0  0  0  0  0  0  0  0  0
  127.0520  127.3930   67.0520 C   0  0  0  0  0  0  0  0  0  0  0  0
  127.0750  126.6290   68.2150 C   0  0  0  0  0  0  0  0  0  0  0  0
  1  2  1  0
  2  3  1  0
  3  4  2  0
  4  5  1  0
  5  6  2  0
  6  7  1  0
  7  8  1  0
  8  9  2  0
  8 10  1  0
 10 11  1  0
 11 12  1  0
 12 13  2  0
 13 14  1  0
 14 15  1  0
 15 16  2  0
 16 17  1  0
 17 18  2  0
 18 19  1  0
 19 20  2  0
 14 21  2  0
 21 22  1  0
 22 23  1  0
 23 24  1  0
 23 25  1  0
 23 26  1  0
 22 27  2  0
 27 28  1  0
 28 29  1  0
  6 30  1  0
 30 31  2  0
 31  3  1  0
 28 10  2  0
 27 12  1  0
 20 15  1  0
M  END
>  <Binding energies>  (32) 
[-7.32]

>  <Ligand effiencies>  (32) 
[-0.21529411764705883]

>  <Interactions>  (32) 
["V-A:PRO:540:N:4884, V-A:TYR:539:C:4867, V-B:PRO:482:CB:9297, V-A:LEU:363:CD1:3189, V-A:GLU:543:CD:4908, V-A:TYR:539:CE2:4876, V-B:PRO:482:CG:9298, V-A:PRO:540:CB:4885, V-A:PRO:540:CA:4883, V-A:TYR:539:CD2:4874, V-B:LEU:475:CD1:9229, V-A:ALA:541:CB:4892, V-B:GLU:543:C:9874, V-B:GLU:543:CB:9878, V-B:HIS:456:CE1:9040, V-A:HIS:456:CE1:4069, V-A:HIS:456:CD2:4068, H-B:TYR:484:OH:9319, V-A:GLU:543:CB:4906, V-B:TRP:381:CH2:8343, H-A:GLU:543:OE2:4910, H-A:GLU:543:OE1:4909, V-A:TYR:539:CE1:4875, V-A:TYR:539:CD1:4873, V-A:TYR:539:CZ:4877, V-A:TYR:539:CG:4872, V-A:TYR:539:CA:4869, V-A:GLU:543:CG:4907, V-A:ALA:541:CA:4890, V-B:LEU:475:CG:9228, V-B:LEU:475:CD2:9230"]

$$$$
4ce_Grossjean_2025
     RDKit          3D

 30 33  0  0  0  0  0  0  0  0999 V2000
  128.5850  119.7280   73.3920 C   0  0  0  0  0  0  0  0  0  0  0  0
  129.4990  120.8950   73.0670 C   0  0  0  0  0  0  0  0  0  0  0  0
  130.7260  121.0640   73.7140 C   0  0  0  0  0  0  0  0  0  0  0  0
  131.5190  122.1560   73.3590 C   0  0  0  0  0  0  0  0  0  0  0  0
  131.0730  123.0410   72.3760 C   0  0  0  0  0  0  0  0  0  0  0  0
  129.8300  122.8160   71.7710 C   0  0  0  0  0  0  0  0  0  0  0  0
  129.4470  123.7280   70.7720 N   0  0  0  0  0  0  0  0  0  0  0  0
  129.1860  125.0540   70.8880 C   0  0  0  0  0  0  0  0  0  0  0  0
  129.2700  125.6780   71.9470 O   0  0  0  0  0  0  0  0  0  0  0  0
  128.7870  125.7280   69.6500 C   0  0  0  0  0  0  0  0  0  0  0  0
  127.5220  126.9550   69.6770 S   0  0  0  0  0  0  0  0  0  0  0  0
  127.7000  127.2390   67.9620 C   0  0  0  0  0  0  0  0  0  0  0  0
  126.9560  128.1410   67.3270 N   0  0  0  0  0  0  0  0  0  0  0  0
  127.1760  128.3030   65.9960 C   0  0  0  0  0  0  0  0  0  0  0  0
  126.3250  129.3310   65.3110 C   0  0  0  0  0  0  0  0  0  0  0  0
  124.9370  129.3690   65.5240 C   0  0  0  0  0  0  0  0  0  0  0  0
  124.1400  130.3170   64.8870 C   0  0  0  0  0  0  0  0  0  0  0  0
  124.7220  131.2430   64.0270 C   0  0  0  0  0  0  0  0  0  0  0  0
  126.0940  131.2260   63.7990 C   0  0  0  0  0  0  0  0  0  0  0  0
  126.8870  130.2750   64.4360 C   0  0  0  0  0  0  0  0  0  0  0  0
  128.1260  127.5420   65.3060 C   0  0  0  0  0  0  0  0  0  0  0  0
  128.9120  126.5840   65.9650 C   0  0  0  0  0  0  0  0  0  0  0  0
  129.9350  125.7870   65.1480 C   0  0  0  0  0  0  0  0  0  0  0  0
  129.6430  124.4880   65.0660 F   0  0  0  0  0  0  0  0  0  0  0  0
  129.9880  126.2640   63.9040 F   0  0  0  0  0  0  0  0  0  0  0  0
  131.1390  125.8910   65.7100 F   0  0  0  0  0  0  0  0  0  0  0  0
  128.7000  126.4170   67.3640 C   0  0  0  0  0  0  0  0  0  0  0  0
  129.3050  125.5610   68.3550 C   0  0  0  0  0  0  0  0  0  0  0  0
  130.2990  124.6660   68.0550 N   0  0  0  0  0  0  0  0  0  0  0  0
  129.0510  121.7480   72.1100 N   0  0  0  0  0  0  0  0  0  0  0  0
  1  2  1  0
  2  3  2  0
  3  4  1  0
  4  5  2  0
  5  6  1  0
  6  7  1  0
  7  8  1  0
  8  9  2  0
  8 10  1  0
 10 11  1  0
 11 12  1  0
 12 13  2  0
 13 14  1  0
 14 15  1  0
 15 16  2  0
 16 17  1  0
 17 18  2  0
 18 19  1  0
 19 20  2  0
 14 21  2  0
 21 22  1  0
 22 23  1  0
 23 24  1  0
 23 25  1  0
 23 26  1  0
 22 27  2  0
 27 28  1  0
 28 29  1  0
  6 30  2  0
 30  2  1  0
 28 10  2  0
 27 12  1  0
 20 15  1  0
M  END
>  <Binding energies>  (33) 
[-8.14]

>  <Ligand effiencies>  (33) 
[-0.24666666666666667]

>  <Interactions>  (33) 
["V-B:GLU:543:CD:9880, V-A:GLU:543:CD:4908, V-B:GLU:543:C:9874, V-B:GLU:543:CB:9878, V-B:GLY:544:C:9884, V-B:HIS:456:CE1:9040, H-B:LYS:547:NZ:9923, V-A:HIS:456:CE1:4069, V-A:ASP:473:CG:4240, V-A:HIS:456:CG:4066, V-A:HIS:456:CD2:4068, V-A:ASP:473:CB:4239, V-A:HIS:456:CB:4065, V-B:ARG:545:CD:9895, V-B:ARG:545:CZ:9898, V-B:GLU:543:CG:9879, V-B:GLY:454:CA:9020, V-A:TYR:484:CE1:4345, V-A:TYR:484:CZ:4347, H-A:TYR:484:OH:4348, V-B:LYS:547:CE:9922, H-A:HIS:456:ND1:4067, H-B:GLU:543:O:9875, V-A:TYR:484:CD2:4344, V-A:TYR:484:CG:4342, V-A:TYR:484:CE2:4346, V-A:TYR:484:CB:4341, V-A:TYR:484:CD1:4343"]

$$$$
4cf_Grossjean_2025
     RDKit          3D

 29 32  0  0  0  0  0  0  0  0999 V2000
  129.7940  124.3980   67.5250 N   0  0  0  0  0  0  0  0  0  0  0  0
  129.3730  125.6800   67.7660 C   0  0  0  0  0  0  0  0  0  0  0  0
  129.2300  126.2130   69.0580 C   0  0  0  0  0  0  0  0  0  0  0  0
  129.4460  125.5520   70.3480 C   0  0  0  0  0  0  0  0  0  0  0  0
  129.3400  126.1820   71.4010 O   0  0  0  0  0  0  0  0  0  0  0  0
  129.7480  124.2330   70.2810 N   0  0  0  0  0  0  0  0  0  0  0  0
  130.0590  123.3290   71.3150 C   0  0  0  0  0  0  0  0  0  0  0  0
  131.1930  123.3980   72.1470 C   0  0  0  0  0  0  0  0  0  0  0  0
  131.3900  122.4250   73.1280 C   0  0  0  0  0  0  0  0  0  0  0  0
  130.4480  121.4030   73.2540 C   0  0  0  0  0  0  0  0  0  0  0  0
  129.3510  121.3090   72.4620 N   0  0  0  0  0  0  0  0  0  0  0  0
  129.1750  122.2620   71.5100 C   0  0  0  0  0  0  0  0  0  0  0  0
  128.6780  127.8850   68.9990 S   0  0  0  0  0  0  0  0  0  0  0  0
  128.6350  127.8560   67.2510 C   0  0  0  0  0  0  0  0  0  0  0  0
  128.2560  128.9210   66.5480 N   0  0  0  0  0  0  0  0  0  0  0  0
  128.2400  128.7970   65.1940 C   0  0  0  0  0  0  0  0  0  0  0  0
  127.8000  130.0110   64.4280 C   0  0  0  0  0  0  0  0  0  0  0  0
  128.1780  131.2970   64.8440 C   0  0  0  0  0  0  0  0  0  0  0  0
  127.7760  132.4280   64.1380 C   0  0  0  0  0  0  0  0  0  0  0  0
  126.9880  132.2860   63.0000 C   0  0  0  0  0  0  0  0  0  0  0  0
  126.6020  131.0230   62.5630 C   0  0  0  0  0  0  0  0  0  0  0  0
  127.0070  129.8960   63.2720 C   0  0  0  0  0  0  0  0  0  0  0  0
  128.6270  127.6160   64.5550 C   0  0  0  0  0  0  0  0  0  0  0  0
  129.0330  126.4890   65.2880 C   0  0  0  0  0  0  0  0  0  0  0  0
  129.4400  125.2240   64.5230 C   0  0  0  0  0  0  0  0  0  0  0  0
  128.9970  124.1020   65.0930 F   0  0  0  0  0  0  0  0  0  0  0  0
  128.9450  125.2660   63.2870 F   0  0  0  0  0  0  0  0  0  0  0  0
  130.7690  125.1410   64.4620 F   0  0  0  0  0  0  0  0  0  0  0  0
  129.0370  126.6010   66.7080 C   0  0  0  0  0  0  0  0  0  0  0  0
  1  2  1  0
  2  3  2  0
  3  4  1  0
  4  5  2  0
  4  6  1  0
  6  7  1  0
  7  8  2  0
  8  9  1  0
  9 10  2  0
 10 11  1  0
 11 12  2  0
  3 13  1  0
 13 14  1  0
 14 15  2  0
 15 16  1  0
 16 17  1  0
 17 18  2  0
 18 19  1  0
 19 20  2  0
 20 21  1  0
 21 22  2  0
 16 23  2  0
 23 24  1  0
 24 25  1  0
 25 26  1  0
 25 27  1  0
 25 28  1  0
 24 29  2  0
 29  2  1  0
 12  7  1  0
 29 14  1  0
 22 17  1  0
M  END
>  <Binding energies>  (34) 
[-7.65]

>  <Ligand effiencies>  (34) 
[-0.2390625]

>  <Interactions>  (34) 
["V-B:GLU:543:CD:9880, V-A:GLU:543:CD:4908, V-B:LEU:475:CD1:9229, V-A:ALA:541:CB:4892, V-B:GLU:543:C:9874, V-B:GLU:543:CB:9878, V-B:HIS:456:CE1:9040, H-B:LYS:547:NZ:9923, V-A:HIS:456:CE1:4069, V-A:ASP:473:CG:4240, V-A:HIS:456:CG:4066, V-A:HIS:456:CD2:4068, V-A:ASP:473:CB:4239, V-A:HIS:456:CB:4065, V-A:GLU:543:CB:4906, H-A:HIS:456:NE2:4070, V-B:GLU:543:CG:9879, V-A:TYR:484:CE1:4345, V-B:GLU:543:CA:9876, V-A:TYR:484:CZ:4347, H-A:TYR:484:OH:4348, V-B:LYS:547:CE:9922, V-B:GLY:544:CA:9886, H-A:HIS:456:ND1:4067, V-B:TYR:484:CE1:9316, H-B:GLU:543:O:9875, V-A:TYR:484:CD2:4344, V-A:TYR:484:CG:4342, V-A:TYR:484:CE2:4346, V-A:TYR:484:CB:4341, V-A:TYR:484:CD1:4343"]

$$$$
4ci_Grossjean_2025
     RDKit          3D

 28 31  0  0  0  0  0  0  0  0999 V2000
  129.9220  124.3870   67.6870 N   0  0  0  0  0  0  0  0  0  0  0  0
  129.4250  125.6230   68.0070 C   0  0  0  0  0  0  0  0  0  0  0  0
  129.2810  126.0760   69.3280 C   0  0  0  0  0  0  0  0  0  0  0  0
  129.6200  125.3820   70.5740 C   0  0  0  0  0  0  0  0  0  0  0  0
  129.7800  126.0120   71.6220 O   0  0  0  0  0  0  0  0  0  0  0  0
  129.7500  124.0350   70.4740 N   0  0  0  0  0  0  0  0  0  0  0  0
  130.0660  123.1390   71.4870 C   0  0  0  0  0  0  0  0  0  0  0  0
  131.2380  123.2180   72.2380 C   0  0  0  0  0  0  0  0  0  0  0  0
  131.1720  122.1650   73.1200 C   0  0  0  0  0  0  0  0  0  0  0  0
  130.0180  121.4850   72.9110 O   0  0  0  0  0  0  0  0  0  0  0  0
  129.3260  122.1120   71.8730 N   0  0  0  0  0  0  0  0  0  0  0  0
  128.6230  127.7100   69.3740 S   0  0  0  0  0  0  0  0  0  0  0  0
  128.5360  127.7720   67.6290 C   0  0  0  0  0  0  0  0  0  0  0  0
  128.0780  128.8480   66.9930 N   0  0  0  0  0  0  0  0  0  0  0  0
  128.0510  128.8040   65.6350 C   0  0  0  0  0  0  0  0  0  0  0  0
  127.5250  130.0310   64.9470 C   0  0  0  0  0  0  0  0  0  0  0  0
  128.2920  131.2060   64.8840 C   0  0  0  0  0  0  0  0  0  0  0  0
  127.8100  132.3470   64.2460 C   0  0  0  0  0  0  0  0  0  0  0  0
  126.5480  132.3280   63.6610 C   0  0  0  0  0  0  0  0  0  0  0  0
  125.7660  131.1800   63.7120 C   0  0  0  0  0  0  0  0  0  0  0  0
  126.2510  130.0430   64.3520 C   0  0  0  0  0  0  0  0  0  0  0  0
  128.4680  127.6730   64.9250 C   0  0  0  0  0  0  0  0  0  0  0  0
  128.9530  126.5330   65.5860 C   0  0  0  0  0  0  0  0  0  0  0  0
  129.3920  125.3290   64.7440 C   0  0  0  0  0  0  0  0  0  0  0  0
  130.7140  125.2640   64.5740 F   0  0  0  0  0  0  0  0  0  0  0  0
  129.0120  124.2000   65.3420 F   0  0  0  0  0  0  0  0  0  0  0  0
  128.8360  125.3960   63.5350 F   0  0  0  0  0  0  0  0  0  0  0  0
  128.9970  126.5730   67.0090 C   0  0  0  0  0  0  0  0  0  0  0  0
  1  2  1  0
  2  3  2  0
  3  4  1  0
  4  5  2  0
  4  6  1  0
  6  7  1  0
  7  8  1  0
  8  9  2  0
  9 10  1  0
 10 11  1  0
  3 12  1  0
 12 13  1  0
 13 14  2  0
 14 15  1  0
 15 16  1  0
 16 17  2  0
 17 18  1  0
 18 19  2  0
 19 20  1  0
 20 21  2  0
 15 22  2  0
 22 23  1  0
 23 24  1  0
 24 25  1  0
 24 26  1  0
 24 27  1  0
 23 28  2  0
 28  2  1  0
 11  7  2  0
 28 13  1  0
 21 16  1  0
M  END
>  <Binding energies>  (35) 
[-8.49]

>  <Ligand effiencies>  (35) 
[-0.2738709677419355]

>  <Interactions>  (35) 
["V-B:GLU:543:CD:9880, V-A:GLU:543:CD:4908, V-B:LEU:475:CD1:9229, V-A:ALA:541:CB:4892, V-B:GLU:543:C:9874, V-B:GLU:543:CB:9878, V-B:HIS:456:CE1:9040, H-B:LYS:547:NZ:9923, V-A:HIS:456:CE1:4069, V-A:ASP:473:CG:4240, V-A:HIS:456:CG:4066, V-A:HIS:456:CD2:4068, V-A:ASP:473:CB:4239, V-A:HIS:456:CB:4065, V-A:GLU:543:CB:4906, H-A:HIS:456:NE2:4070, V-B:GLU:543:CG:9879, V-A:TYR:484:CE1:4345, V-B:GLU:543:CA:9876, V-A:TYR:484:CZ:4347, H-A:TYR:484:OH:4348, H-A:HIS:456:ND1:4067, H-B:GLU:543:O:9875, V-A:TYR:484:CD2:4344, V-A:TYR:484:CG:4342, V-A:TYR:484:CE2:4346, V-A:TYR:484:CB:4341, V-A:TYR:484:CD1:4343"]

$$$$
8a_Ghoteimi_2023
     RDKit          3D

 40 44  0  0  0  0  0  0  0  0999 V2000
  132.6980  131.4610   56.8540 C   0  0  0  0  0  0  0  0  0  0  0  0
  131.9200  132.5140   56.0600 C   0  0  0  0  0  0  0  0  0  0  0  0
  130.8450  133.0040   56.8520 O   0  0  0  0  0  0  0  0  0  0  0  0
  129.6930  132.2960   56.9870 C   0  0  0  0  0  0  0  0  0  0  0  0
  128.8670  132.1630   56.0790 O   0  0  0  0  0  0  0  0  0  0  0  0
  129.5220  131.6950   58.3520 C   0  0  0  0  0  0  0  0  0  0  0  0
  129.9540  130.3830   58.5810 C   0  0  0  0  0  0  0  0  0  0  0  0
  129.8090  129.7970   59.8350 C   0  0  0  0  0  0  0  0  0  0  0  0
  129.2290  130.5090   60.8870 C   0  0  0  0  0  0  0  0  0  0  0  0
  129.1290  129.8140   62.1080 N   0  0  0  0  0  0  0  0  0  0  0  0
  128.0480  129.5620   62.8880 C   0  0  0  0  0  0  0  0  0  0  0  0
  126.9040  129.9330   62.6290 O   0  0  0  0  0  0  0  0  0  0  0  0
  128.3220  128.7880   64.1030 C   0  0  0  0  0  0  0  0  0  0  0  0
  127.4780  129.1600   65.6050 S   0  0  0  0  0  0  0  0  0  0  0  0
  128.3340  127.8950   66.4550 C   0  0  0  0  0  0  0  0  0  0  0  0
  128.1370  127.6650   67.7530 N   0  0  0  0  0  0  0  0  0  0  0  0
  128.8580  126.6610   68.3180 C   0  0  0  0  0  0  0  0  0  0  0  0
  128.6360  126.4340   69.7790 C   0  0  0  0  0  0  0  0  0  0  0  0
  127.7220  127.2140   70.5020 C   0  0  0  0  0  0  0  0  0  0  0  0
  127.5280  127.0060   71.8640 C   0  0  0  0  0  0  0  0  0  0  0  0
  128.2380  126.0130   72.5370 C   0  0  0  0  0  0  0  0  0  0  0  0
  127.9820  125.8800   73.8890 O   0  0  0  0  0  0  0  0  0  0  0  0
  128.4330  126.8910   74.7830 C   0  0  0  0  0  0  0  0  0  0  0  0
  129.1490  125.2230   71.8230 C   0  0  0  0  0  0  0  0  0  0  0  0
  129.3440  125.4360   70.4600 C   0  0  0  0  0  0  0  0  0  0  0  0
  129.7640  125.8900   67.5860 C   0  0  0  0  0  0  0  0  0  0  0  0
  129.9620  126.1170   66.2200 C   0  0  0  0  0  0  0  0  0  0  0  0
  130.9140  125.2460   65.4830 C   0  0  0  0  0  0  0  0  0  0  0  0
  130.4400  124.1840   64.7100 C   0  0  0  0  0  0  0  0  0  0  0  0
  131.3260  123.3790   64.0010 C   0  0  0  0  0  0  0  0  0  0  0  0
  132.6990  123.6230   64.0470 C   0  0  0  0  0  0  0  0  0  0  0  0
  133.5030  122.7730   63.3120 O   0  0  0  0  0  0  0  0  0  0  0  0
  133.7220  123.0450   61.9330 C   0  0  0  0  0  0  0  0  0  0  0  0
  133.1770  124.6950   64.8170 C   0  0  0  0  0  0  0  0  0  0  0  0
  132.2870  125.5010   65.5240 C   0  0  0  0  0  0  0  0  0  0  0  0
  129.2340  127.1780   65.6120 C   0  0  0  0  0  0  0  0  0  0  0  0
  129.2190  127.7220   64.2770 C   0  0  0  0  0  0  0  0  0  0  0  0
  130.0290  127.2440   63.2770 N   0  0  0  0  0  0  0  0  0  0  0  0
  128.7970  131.8260   60.6680 C   0  0  0  0  0  0  0  0  0  0  0  0
  128.9440  132.4100   59.4120 C   0  0  0  0  0  0  0  0  0  0  0  0
  1  2  1  0
  2  3  1  0
  3  4  1  0
  4  5  2  0
  4  6  1  0
  6  7  2  0
  7  8  1  0
  8  9  2  0
  9 10  1  0
 10 11  1  0
 11 12  2  0
 11 13  1  0
 13 14  1  0
 14 15  1  0
 15 16  2  0
 16 17  1  0
 17 18  1  0
 18 19  2  0
 19 20  1  0
 20 21  2  0
 21 22  1  0
 22 23  1  0
 21 24  1  0
 24 25  2  0
 17 26  2  0
 26 27  1  0
 27 28  1  0
 28 29  2  0
 29 30  1  0
 30 31  2  0
 31 32  1  0
 32 33  1  0
 31 34  1  0
 34 35  2  0
 27 36  2  0
 36 37  1  0
 37 38  1  0
  9 39  1  0
 39 40  2  0
 40  6  1  0
 37 13  2  0
 36 15  1  0
 25 18  1  0
 35 28  1  0
M  END
>  <Binding energies>  (36) 
[-9.79]

>  <Ligand effiencies>  (36) 
[-0.22767441860465115]

>  <Interactions>  (36) 
["V-A:PRO:540:CD:4887, V-A:PRO:540:N:4884, V-A:TYR:539:C:4867, V-A:LEU:363:CD1:3189, V-A:GLU:543:CD:4908, V-A:PRO:540:CB:4885, V-A:PRO:540:CA:4883, V-B:HIS:456:CG:9037, V-B:GLY:544:C:9884, V-B:HIS:456:CD2:9039, V-B:HIS:456:CE1:9040, H-B:LYS:547:NZ:9923, V-A:HIS:456:CE1:4069, V-A:HIS:456:CD2:4068, H-A:GLY:454:N:4050, V-A:ILE:369:CD1:3239, H-A:GLU:543:OE2:4910, V-A:GLY:454:CA:4049, V-A:ARG:545:CZ:4926, H-A:GLU:543:OE1:4909, V-A:TYR:539:CE1:4875, V-A:TYR:539:CD1:4873, H-A:TYR:539:N:4870"]

$$$$
8c_Ghoteimi_2023
     RDKit          3D

 34 38  0  0  0  0  0  0  0  0999 V2000
  123.7170  131.8910   61.8970 C   0  0  0  0  0  0  0  0  0  0  0  0
  123.9000  131.9740   63.3050 O   0  0  0  0  0  0  0  0  0  0  0  0
  124.7460  131.0770   63.9290 C   0  0  0  0  0  0  0  0  0  0  0  0
  124.1710  130.2320   64.8760 C   0  0  0  0  0  0  0  0  0  0  0  0
  124.9480  129.2990   65.5560 C   0  0  0  0  0  0  0  0  0  0  0  0
  126.3240  129.1870   65.3060 C   0  0  0  0  0  0  0  0  0  0  0  0
  127.1650  128.1890   66.0370 C   0  0  0  0  0  0  0  0  0  0  0  0
  128.1720  127.4630   65.3940 C   0  0  0  0  0  0  0  0  0  0  0  0
  128.9470  126.5370   66.1010 C   0  0  0  0  0  0  0  0  0  0  0  0
  130.0000  125.7780   65.3890 C   0  0  0  0  0  0  0  0  0  0  0  0
  129.6700  124.9730   64.2960 C   0  0  0  0  0  0  0  0  0  0  0  0
  130.6620  124.2680   63.6220 C   0  0  0  0  0  0  0  0  0  0  0  0
  131.9940  124.3530   64.0280 C   0  0  0  0  0  0  0  0  0  0  0  0
  132.9110  123.6200   63.2980 O   0  0  0  0  0  0  0  0  0  0  0  0
  133.7910  124.2980   62.4100 C   0  0  0  0  0  0  0  0  0  0  0  0
  132.3230  125.1590   65.1300 C   0  0  0  0  0  0  0  0  0  0  0  0
  131.3300  125.8650   65.8030 C   0  0  0  0  0  0  0  0  0  0  0  0
  128.6820  126.3640   67.4860 C   0  0  0  0  0  0  0  0  0  0  0  0
  129.2710  125.5220   68.4940 C   0  0  0  0  0  0  0  0  0  0  0  0
  130.3030  124.6600   68.2210 N   0  0  0  0  0  0  0  0  0  0  0  0
  128.6940  125.6680   69.7650 C   0  0  0  0  0  0  0  0  0  0  0  0
  129.0440  124.9810   71.0100 C   0  0  0  0  0  0  0  0  0  0  0  0
  128.8350  125.5110   72.1030 O   0  0  0  0  0  0  0  0  0  0  0  0
  129.6000  123.7530   70.8590 N   0  0  0  0  0  0  0  0  0  0  0  0
  130.0170  122.8970   71.8690 C   0  0  0  0  0  0  0  0  0  0  0  0
  129.4870  121.7460   72.2230 N   0  0  0  0  0  0  0  0  0  0  0  0
  130.1450  121.1970   73.2240 C   0  0  0  0  0  0  0  0  0  0  0  0
  131.2390  121.9080   73.7060 C   0  0  0  0  0  0  0  0  0  0  0  0
  131.4060  123.3770   72.7910 S   0  0  0  0  0  0  0  0  0  0  0  0
  127.3990  126.8660   69.7430 S   0  0  0  0  0  0  0  0  0  0  0  0
  127.6360  127.1600   68.0360 C   0  0  0  0  0  0  0  0  0  0  0  0
  126.8970  128.0410   67.3630 N   0  0  0  0  0  0  0  0  0  0  0  0
  126.8940  130.0390   64.3510 C   0  0  0  0  0  0  0  0  0  0  0  0
  126.1200  130.9730   63.6690 C   0  0  0  0  0  0  0  0  0  0  0  0
  1  2  1  0
  2  3  1  0
  3  4  2  0
  4  5  1  0
  5  6  2  0
  6  7  1  0
  7  8  2  0
  8  9  1  0
  9 10  1  0
 10 11  2  0
 11 12  1  0
 12 13  2  0
 13 14  1  0
 14 15  1  0
 13 16  1  0
 16 17  2  0
  9 18  2  0
 18 19  1  0
 19 20  1  0
 19 21  2  0
 21 22  1  0
 22 23  2  0
 22 24  1  0
 24 25  1  0
 25 26  2  0
 26 27  1  0
 27 28  2  0
 28 29  1  0
 21 30  1  0
 30 31  1  0
 31 32  2  0
  6 33  1  0
 33 34  2  0
 34  3  1  0
 32  7  1  0
 17 10  1  0
 31 18  1  0
 29 25  1  0
M  END
>  <Binding energies>  (37) 
[-9.14]

>  <Ligand effiencies>  (37) 
[-0.24702702702702703]

>  <Interactions>  (37) 
["V-B:GLU:543:CD:9880, V-A:GLU:543:CD:4908, V-B:GLU:543:C:9874, V-B:GLU:543:CB:9878, V-B:GLY:544:C:9884, V-B:HIS:456:CE1:9040, H-B:LYS:547:NZ:9923, V-A:HIS:456:CE1:4069, V-A:ASP:473:CG:4240, V-A:HIS:456:CG:4066, V-A:HIS:456:CD2:4068, V-A:ASP:473:CB:4239, V-A:HIS:456:CB:4065, H-B:GLY:454:N:9021, V-B:ILE:369:CD1:8210, V-B:ARG:545:CD:9895, V-B:ARG:545:CZ:9898, H-A:GLY:454:N:4050, V-B:GLU:543:CG:9879, V-B:GLY:454:CA:9020, V-A:TYR:484:CE1:4345, V-A:TYR:484:CZ:4347, H-A:TYR:484:OH:4348, H-A:HIS:456:ND1:4067, H-B:GLU:543:O:9875, V-A:TYR:484:CD2:4344, V-A:TYR:484:CG:4342, V-A:TYR:484:CE2:4346, V-A:TYR:484:CB:4341, V-A:TYR:484:CD1:4343"]

$$$$
8d_Ghoteimi_2023
     RDKit          3D

 30 33  0  0  0  0  0  0  0  0999 V2000
  130.9970  123.2400   72.0820 C   0  0  0  0  0  0  0  0  0  0  0  0
  129.6930  123.5840   71.6330 O   0  0  0  0  0  0  0  0  0  0  0  0
  129.2220  124.8510   71.7680 C   0  0  0  0  0  0  0  0  0  0  0  0
  129.1280  125.4410   72.8470 O   0  0  0  0  0  0  0  0  0  0  0  0
  128.8280  125.4590   70.4780 C   0  0  0  0  0  0  0  0  0  0  0  0
  127.4960  126.6150   70.4210 S   0  0  0  0  0  0  0  0  0  0  0  0
  127.6870  126.8080   68.6930 C   0  0  0  0  0  0  0  0  0  0  0  0
  126.9060  127.6250   67.9860 N   0  0  0  0  0  0  0  0  0  0  0  0
  127.1410  127.7020   66.6490 C   0  0  0  0  0  0  0  0  0  0  0  0
  126.2490  128.6220   65.8780 C   0  0  0  0  0  0  0  0  0  0  0  0
  126.6530  129.1640   64.6500 C   0  0  0  0  0  0  0  0  0  0  0  0
  125.8180  130.0200   63.9370 C   0  0  0  0  0  0  0  0  0  0  0  0
  124.5600  130.3580   64.4320 C   0  0  0  0  0  0  0  0  0  0  0  0
  123.8000  131.2130   63.6580 O   0  0  0  0  0  0  0  0  0  0  0  0
  123.3760  130.7890   62.3670 C   0  0  0  0  0  0  0  0  0  0  0  0
  124.1440  129.8210   65.6590 C   0  0  0  0  0  0  0  0  0  0  0  0
  124.9820  128.9640   66.3690 C   0  0  0  0  0  0  0  0  0  0  0  0
  128.1480  126.9590   66.0240 C   0  0  0  0  0  0  0  0  0  0  0  0
  128.9680  126.1050   66.7660 C   0  0  0  0  0  0  0  0  0  0  0  0
  130.0320  125.3380   66.0770 C   0  0  0  0  0  0  0  0  0  0  0  0
  131.3220  125.8610   65.9770 C   0  0  0  0  0  0  0  0  0  0  0  0
  132.3190  125.1440   65.3210 C   0  0  0  0  0  0  0  0  0  0  0  0
  132.0440  123.8960   64.7610 C   0  0  0  0  0  0  0  0  0  0  0  0
  133.0930  123.2580   64.1290 O   0  0  0  0  0  0  0  0  0  0  0  0
  133.5420  123.7410   62.8680 C   0  0  0  0  0  0  0  0  0  0  0  0
  130.7450  123.3700   64.8660 C   0  0  0  0  0  0  0  0  0  0  0  0
  129.7490  124.0890   65.5210 C   0  0  0  0  0  0  0  0  0  0  0  0
  128.7430  126.0110   68.1650 C   0  0  0  0  0  0  0  0  0  0  0  0
  129.3760  125.2510   69.2070 C   0  0  0  0  0  0  0  0  0  0  0  0
  130.4210  124.3950   68.9670 N   0  0  0  0  0  0  0  0  0  0  0  0
  1  2  1  0
  2  3  1  0
  3  4  2  0
  3  5  1  0
  5  6  1  0
  6  7  1  0
  7  8  2  0
  8  9  1  0
  9 10  1  0
 10 11  2  0
 11 12  1  0
 12 13  2  0
 13 14  1  0
 14 15  1  0
 13 16  1  0
 16 17  2  0
  9 18  2  0
 18 19  1  0
 19 20  1  0
 20 21  2  0
 21 22  1  0
 22 23  2  0
 23 24  1  0
 24 25  1  0
 23 26  1  0
 26 27  2  0
 19 28  2  0
 28 29  1  0
 29 30  1  0
 29  5  2  0
 28  7  1  0
 17 10  1  0
 27 20  1  0
M  END
>  <Binding energies>  (38) 
[-8.09]

>  <Ligand effiencies>  (38) 
[-0.2528125]

>  <Interactions>  (38) 
["V-B:GLU:543:CD:9880, V-B:ASP:366:CG:8184, V-A:GLU:543:CD:4908, V-B:GLU:543:C:9874, V-B:GLU:543:CB:9878, V-B:GLY:544:C:9884, V-B:HIS:456:CE1:9040, V-B:ARG:545:CG:9894, H-B:LYS:547:NZ:9923, V-A:HIS:456:CE1:4069, V-A:HIS:456:CG:4066, V-A:HIS:456:CD2:4068, V-A:HIS:456:CB:4065, H-B:GLY:454:N:9021, V-B:ILE:369:CD1:8210, V-B:ARG:545:CD:9895, V-B:ARG:545:CZ:9898, H-A:GLY:454:N:4050, V-B:GLU:543:CG:9879, V-A:TYR:484:CE1:4345, V-B:GLU:543:CA:9876, V-A:TYR:484:CZ:4347, H-A:TYR:484:OH:4348, V-A:GLY:454:CA:4049, H-A:HIS:456:ND1:4067, H-B:GLU:543:O:9875, V-A:TYR:484:CD2:4344, V-A:TYR:484:CG:4342, V-A:TYR:484:CE2:4346, V-A:TYR:484:CD1:4343"]

$$$$
9a_Ghoteimi_2023
     RDKit          3D

 48 54  0  0  0  0  0  0  0  0999 V2000
  131.8880  132.0810   54.6290 C   0  0  0  0  0  0  0  0  0  0  0  0
  132.2070  132.2360   56.1190 C   0  0  0  0  0  0  0  0  0  0  0  0
  131.1850  133.0010   56.7460 O   0  0  0  0  0  0  0  0  0  0  0  0
  129.9310  132.5040   56.8980 C   0  0  0  0  0  0  0  0  0  0  0  0
  129.0570  132.5880   56.0290 O   0  0  0  0  0  0  0  0  0  0  0  0
  129.7090  131.8480   58.2300 C   0  0  0  0  0  0  0  0  0  0  0  0
  130.6180  130.8820   58.6780 C   0  0  0  0  0  0  0  0  0  0  0  0
  130.4390  130.2540   59.9080 C   0  0  0  0  0  0  0  0  0  0  0  0
  129.3500  130.5800   60.7160 C   0  0  0  0  0  0  0  0  0  0  0  0
  129.2690  129.8820   61.9360 N   0  0  0  0  0  0  0  0  0  0  0  0
  128.2730  129.8320   62.8550 C   0  0  0  0  0  0  0  0  0  0  0  0
  127.2040  130.4340   62.7510 O   0  0  0  0  0  0  0  0  0  0  0  0
  128.5390  128.9840   64.0210 C   0  0  0  0  0  0  0  0  0  0  0  0
  128.2950  129.6110   65.6520 S   0  0  0  0  0  0  0  0  0  0  0  0
  128.7850  128.0890   66.3590 C   0  0  0  0  0  0  0  0  0  0  0  0
  128.7950  127.9030   67.6790 N   0  0  0  0  0  0  0  0  0  0  0  0
  129.1810  126.6790   68.1260 C   0  0  0  0  0  0  0  0  0  0  0  0
  129.1740  126.4890   69.6080 C   0  0  0  0  0  0  0  0  0  0  0  0
  128.9780  127.5790   70.4640 C   0  0  0  0  0  0  0  0  0  0  0  0
  128.9690  127.4110   71.8460 C   0  0  0  0  0  0  0  0  0  0  0  0
  129.1420  126.1440   72.4240 C   0  0  0  0  0  0  0  0  0  0  0  0
  129.1550  125.9630   73.8110 N   0  0  0  0  0  0  0  0  0  0  0  0
  130.4050  125.6660   74.5400 C   0  0  0  0  0  0  0  0  0  0  0  0
  130.1810  125.1460   75.9750 C   0  0  0  0  0  0  0  0  0  0  0  0
  129.3720  126.0560   76.7020 O   0  0  0  0  0  0  0  0  0  0  0  0
  128.1000  126.2200   76.0940 C   0  0  0  0  0  0  0  0  0  0  0  0
  128.2660  126.7780   74.6660 C   0  0  0  0  0  0  0  0  0  0  0  0
  129.3530  125.0570   71.5630 C   0  0  0  0  0  0  0  0  0  0  0  0
  129.3650  125.2260   70.1810 C   0  0  0  0  0  0  0  0  0  0  0  0
  129.5800  125.6590   67.2580 C   0  0  0  0  0  0  0  0  0  0  0  0
  129.5900  125.8580   65.8730 C   0  0  0  0  0  0  0  0  0  0  0  0
  130.0580  124.7530   64.9980 C   0  0  0  0  0  0  0  0  0  0  0  0
  129.3640  123.5410   64.9490 C   0  0  0  0  0  0  0  0  0  0  0  0
  129.7960  122.5120   64.1180 C   0  0  0  0  0  0  0  0  0  0  0  0
  130.9240  122.6730   63.2980 C   0  0  0  0  0  0  0  0  0  0  0  0
  131.3830  121.6510   62.4640 N   0  0  0  0  0  0  0  0  0  0  0  0
  132.6550  121.8320   61.7360 C   0  0  0  0  0  0  0  0  0  0  0  0
  133.2280  120.5160   61.1700 C   0  0  0  0  0  0  0  0  0  0  0  0
  132.2610  119.8780   60.3490 O   0  0  0  0  0  0  0  0  0  0  0  0
  131.0830  119.5650   61.0740 C   0  0  0  0  0  0  0  0  0  0  0  0
  130.4520  120.8570   61.6380 C   0  0  0  0  0  0  0  0  0  0  0  0
  131.6120  123.8950   63.3530 C   0  0  0  0  0  0  0  0  0  0  0  0
  131.1820  124.9220   64.1870 C   0  0  0  0  0  0  0  0  0  0  0  0
  129.1550  127.1210   65.3800 C   0  0  0  0  0  0  0  0  0  0  0  0
  128.9810  127.6530   64.0510 C   0  0  0  0  0  0  0  0  0  0  0  0
  129.2160  126.9090   62.9230 N   0  0  0  0  0  0  0  0  0  0  0  0
  128.4340  131.5500   60.2770 C   0  0  0  0  0  0  0  0  0  0  0  0
  128.6150  132.1760   59.0470 C   0  0  0  0  0  0  0  0  0  0  0  0
  1  2  1  0
  2  3  1  0
  3  4  1  0
  4  5  2  0
  4  6  1  0
  6  7  2  0
  7  8  1  0
  8  9  2  0
  9 10  1  0
 10 11  1  0
 11 12  2  0
 11 13  1  0
 13 14  1  0
 14 15  1  0
 15 16  2  0
 16 17  1  0
 17 18  1  0
 18 19  2  0
 19 20  1  0
 20 21  2  0
 21 22  1  0
 22 23  1  0
 23 24  1  0
 24 25  1  0
 25 26  1  0
 26 27  1  0
 21 28  1  0
 28 29  2  0
 17 30  2  0
 30 31  1  0
 31 32  1  0
 32 33  2  0
 33 34  1  0
 34 35  2  0
 35 36  1  0
 36 37  1  0
 37 38  1  0
 38 39  1  0
 39 40  1  0
 40 41  1  0
 35 42  1  0
 42 43  2  0
 31 44  2  0
 44 45  1  0
 45 46  1  0
  9 47  1  0
 47 48  2  0
 48  6  1  0
 45 13  2  0
 44 15  1  0
 29 18  1  0
 43 32  1  0
 27 22  1  0
 41 36  1  0
M  END
>  <Binding energies>  (39) 
[-10.49]

>  <Ligand effiencies>  (39) 
[-0.20568627450980392]

>  <Interactions>  (39) 
["V-B:ALA:541:CB:9864, V-B:TYR:539:CD2:9846, H-B:GLU:543:OE2:9882, V-A:LEU:475:CD1:4258, V-A:PRO:540:CD:4887, V-A:PRO:540:N:4884, V-A:TYR:539:C:4867, V-A:TYR:531:CE2:4793, V-A:ILE:538:CD1:4865, V-A:ILE:538:CA:4860, V-A:LEU:363:CD1:3189, V-A:GLU:543:CD:4908, V-A:TYR:539:CE2:4876, V-A:PRO:540:CB:4885, V-A:PRO:540:CA:4883, V-B:GLU:543:CB:9878, V-B:HIS:456:CE1:9040, V-A:HIS:456:CE1:4069, V-A:HIS:456:CD2:4068, H-B:GLU:543:OE1:9881, V-A:GLU:543:CB:4906, V-B:GLU:543:CG:9879, V-A:TRP:381:CZ2:3370, V-A:TYR:484:CE1:4345, V-B:GLU:543:CA:9876, V-A:ILE:369:CD1:3239, V-A:TRP:381:CH2:3372, V-A:ILE:369:CG2:3237, H-A:GLU:543:OE2:4910, H-A:GLU:543:OE1:4909, V-A:TYR:539:CD1:4873, H-A:TYR:539:N:4870, V-A:GLU:543:CG:4907, V-B:LYS:547:CD:9921"]

$$$$
9b_Ghoteimi_2023
     RDKit          3D

 42 48  0  0  0  0  0  0  0  0999 V2000
  129.8490  124.3080   67.5260 N   0  0  0  0  0  0  0  0  0  0  0  0
  129.4280  125.5870   67.7840 C   0  0  0  0  0  0  0  0  0  0  0  0
  129.2160  126.0850   69.0790 C   0  0  0  0  0  0  0  0  0  0  0  0
  129.4090  125.4060   70.3630 C   0  0  0  0  0  0  0  0  0  0  0  0
  129.3060  126.0240   71.4240 O   0  0  0  0  0  0  0  0  0  0  0  0
  129.7050  124.0840   70.2830 N   0  0  0  0  0  0  0  0  0  0  0  0
  129.9480  123.2060   71.3320 C   0  0  0  0  0  0  0  0  0  0  0  0
  131.0830  123.2770   72.1370 C   0  0  0  0  0  0  0  0  0  0  0  0
  130.9450  122.2510   73.0430 C   0  0  0  0  0  0  0  0  0  0  0  0
  129.7850  121.5960   72.7960 O   0  0  0  0  0  0  0  0  0  0  0  0
  129.1620  122.2110   71.7090 N   0  0  0  0  0  0  0  0  0  0  0  0
  128.6470  127.7540   69.0350 S   0  0  0  0  0  0  0  0  0  0  0  0
  128.6790  127.7670   67.2880 C   0  0  0  0  0  0  0  0  0  0  0  0
  128.2990  128.8360   66.5910 N   0  0  0  0  0  0  0  0  0  0  0  0
  128.3450  128.7370   65.2360 C   0  0  0  0  0  0  0  0  0  0  0  0
  127.8930  129.9430   64.4780 C   0  0  0  0  0  0  0  0  0  0  0  0
  128.2500  131.2330   64.8890 C   0  0  0  0  0  0  0  0  0  0  0  0
  127.8150  132.3530   64.1880 C   0  0  0  0  0  0  0  0  0  0  0  0
  126.9940  132.2250   63.0570 C   0  0  0  0  0  0  0  0  0  0  0  0
  126.5500  133.3420   62.3390 N   0  0  0  0  0  0  0  0  0  0  0  0
  125.3240  133.2910   61.5180 C   0  0  0  0  0  0  0  0  0  0  0  0
  124.8040  134.6780   61.0890 C   0  0  0  0  0  0  0  0  0  0  0  0
  125.8300  135.3960   60.4230 O   0  0  0  0  0  0  0  0  0  0  0  0
  126.9530  135.5990   61.2650 C   0  0  0  0  0  0  0  0  0  0  0  0
  127.5390  134.2400   61.7060 C   0  0  0  0  0  0  0  0  0  0  0  0
  126.6560  130.9300   62.6380 C   0  0  0  0  0  0  0  0  0  0  0  0
  127.0950  129.8100   63.3370 C   0  0  0  0  0  0  0  0  0  0  0  0
  128.7940  127.5850   64.5870 C   0  0  0  0  0  0  0  0  0  0  0  0
  129.2140  126.4660   65.3160 C   0  0  0  0  0  0  0  0  0  0  0  0
  129.7110  125.2770   64.5790 C   0  0  0  0  0  0  0  0  0  0  0  0
  128.9670  124.7370   63.5290 C   0  0  0  0  0  0  0  0  0  0  0  0
  129.4390  123.6340   62.8240 C   0  0  0  0  0  0  0  0  0  0  0  0
  130.6690  123.0400   63.1500 C   0  0  0  0  0  0  0  0  0  0  0  0
  131.1690  121.9430   62.4450 N   0  0  0  0  0  0  0  0  0  0  0  0
  130.2340  121.0690   61.7100 C   0  0  0  0  0  0  0  0  0  0  0  0
  130.8490  119.7060   61.3260 C   0  0  0  0  0  0  0  0  0  0  0  0
  132.0410  119.9050   60.5800 O   0  0  0  0  0  0  0  0  0  0  0  0
  133.0100  120.6320   61.3220 C   0  0  0  0  0  0  0  0  0  0  0  0
  132.4480  122.0160   61.7110 C   0  0  0  0  0  0  0  0  0  0  0  0
  131.4160  123.6030   64.1950 C   0  0  0  0  0  0  0  0  0  0  0  0
  130.9440  124.7070   64.9000 C   0  0  0  0  0  0  0  0  0  0  0  0
  129.1420  126.5350   66.7360 C   0  0  0  0  0  0  0  0  0  0  0  0
  1  2  1  0
  2  3  2  0
  3  4  1  0
  4  5  2  0
  4  6  1  0
  6  7  1  0
  7  8  1  0
  8  9  2  0
  9 10  1  0
 10 11  1  0
  3 12  1  0
 12 13  1  0
 13 14  2  0
 14 15  1  0
 15 16  1  0
 16 17  2  0
 17 18  1  0
 18 19  2  0
 19 20  1  0
 20 21  1  0
 21 22  1  0
 22 23  1  0
 23 24  1  0
 24 25  1  0
 19 26  1  0
 26 27  2  0
 15 28  2  0
 28 29  1  0
 29 30  1  0
 30 31  2  0
 31 32  1  0
 32 33  2  0
 33 34  1  0
 34 35  1  0
 35 36  1  0
 36 37  1  0
 37 38  1  0
 38 39  1  0
 33 40  1  0
 40 41  2  0
 29 42  2  0
 42  2  1  0
 11  7  2  0
 42 13  1  0
 27 16  1  0
 41 30  1  0
 25 20  1  0
 39 34  1  0
M  END
>  <Binding energies>  (40) 
[-12.21]

>  <Ligand effiencies>  (40) 
[-0.27133333333333337]

>  <Interactions>  (40) 
["V-A:PRO:482:CB:4326, V-B:GLU:543:CD:9880, V-B:ALA:541:CB:9864, V-A:PRO:482:CG:4327, V-A:LEU:475:CD1:4258, V-B:PRO:482:CB:9297, V-A:GLU:543:CD:4908, V-A:TYR:539:CE2:4876, V-B:PRO:482:CG:9298, V-A:TYR:539:CD2:4874, V-B:LEU:475:CD1:9229, V-A:ALA:541:CB:4892, V-B:GLU:543:C:9874, V-B:GLU:543:CB:9878, V-B:HIS:456:CE1:9040, H-B:LYS:547:NZ:9923, V-A:HIS:456:CE1:4069, V-A:HIS:456:CG:4066, V-A:HIS:456:CD2:4068, V-A:ASP:473:CB:4239, V-A:HIS:456:CB:4065, V-A:GLU:543:CB:4906, H-A:HIS:456:NE2:4070, V-B:ILE:369:CG2:8208, V-B:GLU:543:CG:9879, V-A:TYR:484:CE1:4345, V-B:GLU:543:CA:9876, V-A:ILE:369:CD1:3239, V-A:TRP:381:CH2:3372, V-A:TYR:484:CZ:4347, H-A:TYR:484:OH:4348, V-B:TRP:381:CH2:8343, H-A:HIS:456:ND1:4067, V-B:TYR:484:CE1:9316, H-B:GLU:543:O:9875, V-A:TYR:484:CD2:4344, V-B:TRP:381:CZ2:8341, V-A:TYR:484:CG:4342, V-A:TYR:484:CE2:4346, V-A:TYR:484:CB:4341, V-A:TYR:484:CD1:4343"]

$$$$
9c_Ghoteimi_2023
     RDKit          3D

 42 48  0  0  0  0  0  0  0  0999 V2000
  129.8420  124.2310   67.5100 N   0  0  0  0  0  0  0  0  0  0  0  0
  129.4140  125.5030   67.7950 C   0  0  0  0  0  0  0  0  0  0  0  0
  129.1920  125.9710   69.0990 C   0  0  0  0  0  0  0  0  0  0  0  0
  129.3760  125.2600   70.3680 C   0  0  0  0  0  0  0  0  0  0  0  0
  129.2520  125.8480   71.4440 O   0  0  0  0  0  0  0  0  0  0  0  0
  129.6900  123.9460   70.2580 N   0  0  0  0  0  0  0  0  0  0  0  0
  129.9290  123.0550   71.2960 C   0  0  0  0  0  0  0  0  0  0  0  0
  129.2340  121.9870   71.6210 N   0  0  0  0  0  0  0  0  0  0  0  0
  129.7490  121.3750   72.6700 C   0  0  0  0  0  0  0  0  0  0  0  0
  130.8900  121.9510   73.2210 C   0  0  0  0  0  0  0  0  0  0  0  0
  131.3040  123.3700   72.3060 S   0  0  0  0  0  0  0  0  0  0  0  0
  128.6190  127.6380   69.0900 S   0  0  0  0  0  0  0  0  0  0  0  0
  128.6620  127.6920   67.3440 C   0  0  0  0  0  0  0  0  0  0  0  0
  128.2840  128.7760   66.6690 N   0  0  0  0  0  0  0  0  0  0  0  0
  128.3390  128.7080   65.3130 C   0  0  0  0  0  0  0  0  0  0  0  0
  127.8900  129.9310   64.5810 C   0  0  0  0  0  0  0  0  0  0  0  0
  128.2520  131.2110   65.0160 C   0  0  0  0  0  0  0  0  0  0  0  0
  127.8230  132.3460   64.3360 C   0  0  0  0  0  0  0  0  0  0  0  0
  127.0030  132.2440   63.2000 C   0  0  0  0  0  0  0  0  0  0  0  0
  126.5700  133.3760   62.5010 N   0  0  0  0  0  0  0  0  0  0  0  0
  125.2980  133.3750   61.7490 C   0  0  0  0  0  0  0  0  0  0  0  0
  124.8120  134.7830   61.3430 C   0  0  0  0  0  0  0  0  0  0  0  0
  125.8300  135.4540   60.6170 O   0  0  0  0  0  0  0  0  0  0  0  0
  127.0050  135.6110   61.3950 C   0  0  0  0  0  0  0  0  0  0  0  0
  127.5570  134.2290   61.8080 C   0  0  0  0  0  0  0  0  0  0  0  0
  126.6600  130.9590   62.7570 C   0  0  0  0  0  0  0  0  0  0  0  0
  127.0930  129.8230   63.4360 C   0  0  0  0  0  0  0  0  0  0  0  0
  128.7960  127.5730   64.6400 C   0  0  0  0  0  0  0  0  0  0  0  0
  129.2150  126.4390   65.3460 C   0  0  0  0  0  0  0  0  0  0  0  0
  129.7220  125.2690   64.5860 C   0  0  0  0  0  0  0  0  0  0  0  0
  130.9450  124.6870   64.9220 C   0  0  0  0  0  0  0  0  0  0  0  0
  131.4160  123.5790   64.2230 C   0  0  0  0  0  0  0  0  0  0  0  0
  130.6750  123.0250   63.1670 C   0  0  0  0  0  0  0  0  0  0  0  0
  131.1230  121.9060   62.4590 N   0  0  0  0  0  0  0  0  0  0  0  0
  130.1400  121.0610   61.7510 C   0  0  0  0  0  0  0  0  0  0  0  0
  130.7000  119.6780   61.3540 C   0  0  0  0  0  0  0  0  0  0  0  0
  131.8780  119.8360   60.5780 O   0  0  0  0  0  0  0  0  0  0  0  0
  132.8880  120.5290   61.2930 C   0  0  0  0  0  0  0  0  0  0  0  0
  132.3840  121.9330   61.6940 C   0  0  0  0  0  0  0  0  0  0  0  0
  129.4380  123.6050   62.8520 C   0  0  0  0  0  0  0  0  0  0  0  0
  128.9670  124.7130   63.5520 C   0  0  0  0  0  0  0  0  0  0  0  0
  129.1320  126.4740   66.7670 C   0  0  0  0  0  0  0  0  0  0  0  0
  1  2  1  0
  2  3  2  0
  3  4  1  0
  4  5  2  0
  4  6  1  0
  6  7  1  0
  7  8  2  0
  8  9  1  0
  9 10  2  0
 10 11  1  0
  3 12  1  0
 12 13  1  0
 13 14  2  0
 14 15  1  0
 15 16  1  0
 16 17  2  0
 17 18  1  0
 18 19  2  0
 19 20  1  0
 20 21  1  0
 21 22  1  0
 22 23  1  0
 23 24  1  0
 24 25  1  0
 19 26  1  0
 26 27  2  0
 15 28  2  0
 28 29  1  0
 29 30  1  0
 30 31  2  0
 31 32  1  0
 32 33  2  0
 33 34  1  0
 34 35  1  0
 35 36  1  0
 36 37  1  0
 37 38  1  0
 38 39  1  0
 33 40  1  0
 40 41  2  0
 29 42  2  0
 42  2  1  0
 11  7  1  0
 42 13  1  0
 27 16  1  0
 41 30  1  0
 25 20  1  0
 39 34  1  0
M  END
>  <Binding energies>  (41) 
[-11.11]

>  <Ligand effiencies>  (41) 
[-0.24688888888888888]

>  <Interactions>  (41) 
["V-A:PRO:482:CB:4326, V-B:GLU:543:CD:9880, V-B:ALA:541:CB:9864, V-A:PRO:482:CG:4327, V-A:LEU:475:CD1:4258, V-B:PRO:482:CB:9297, V-A:GLU:543:CD:4908, V-B:PRO:482:CG:9298, V-A:TYR:539:CD2:4874, V-B:LEU:475:CD1:9229, V-A:ALA:541:CB:4892, V-B:GLU:543:C:9874, V-B:GLU:543:CB:9878, V-B:HIS:456:CE1:9040, H-B:LYS:547:NZ:9923, V-A:HIS:456:CE1:4069, V-A:ASP:473:CG:4240, V-A:HIS:456:CG:4066, V-A:HIS:456:CD2:4068, V-A:ASP:473:CB:4239, V-A:HIS:456:CB:4065, V-A:GLU:543:CB:4906, H-A:HIS:456:NE2:4070, V-B:GLU:543:CG:9879, V-A:TYR:484:CE1:4345, V-B:GLU:543:CA:9876, V-A:TRP:381:CH2:3372, V-A:TYR:484:CZ:4347, H-A:TYR:484:OH:4348, V-B:LYS:547:CE:9922, V-B:TRP:381:CH2:8343, H-A:HIS:456:ND1:4067, V-B:TYR:484:CZ:9318, V-B:TYR:484:CE1:9316, H-B:GLU:543:O:9875, V-A:TYR:484:CD2:4344, V-B:TRP:381:CZ2:8341, V-A:TYR:484:CG:4342, V-A:TYR:484:CE2:4346, V-A:TYR:484:CB:4341, V-A:TYR:484:CD1:4343"]

$$$$
RR11_Rahimova_2017
     RDKit          3D

 33 38  0  0  0  0  0  0  0  0999 V2000
  134.7080  123.3270   59.9890 N   0  0  0  0  0  0  0  0  0  0  0  0
  133.8680  123.7500   61.0180 C   0  0  0  0  0  0  0  0  0  0  0  0
  134.2130  123.4950   62.3440 C   0  0  0  0  0  0  0  0  0  0  0  0
  133.3750  123.9200   63.3710 C   0  0  0  0  0  0  0  0  0  0  0  0
  132.1850  124.6020   63.0830 C   0  0  0  0  0  0  0  0  0  0  0  0
  131.2860  125.0650   64.1900 C   0  0  0  0  0  0  0  0  0  0  0  0
  130.6800  126.2320   64.2180 N   0  0  0  0  0  0  0  0  0  0  0  0
  129.9590  126.2380   65.3830 C   0  0  0  0  0  0  0  0  0  0  0  0
  129.1250  127.2370   65.9030 C   0  0  0  0  0  0  0  0  0  0  0  0
  128.4760  126.9960   67.1200 C   0  0  0  0  0  0  0  0  0  0  0  0
  127.5680  128.0650   67.7130 C   0  0  0  0  0  0  0  0  0  0  0  0
  126.5370  128.5840   66.7210 C   0  0  0  0  0  0  0  0  0  0  0  0
  125.2520  128.9110   67.1710 C   0  0  0  0  0  0  0  0  0  0  0  0
  124.2750  129.3990   66.3020 C   0  0  0  0  0  0  0  0  0  0  0  0
  124.6130  129.5630   64.9520 C   0  0  0  0  0  0  0  0  0  0  0  0
  123.8420  130.0120   63.9120 N   0  0  0  0  0  0  0  0  0  0  0  0
  124.6260  129.9720   62.8560 C   0  0  0  0  0  0  0  0  0  0  0  0
  124.2030  130.3630   61.4690 C   0  0  0  0  0  0  0  0  0  0  0  0
  123.0350  131.1080   61.2660 C   0  0  0  0  0  0  0  0  0  0  0  0
  122.6360  131.4610   59.9790 C   0  0  0  0  0  0  0  0  0  0  0  0
  123.4040  131.0700   58.8850 C   0  0  0  0  0  0  0  0  0  0  0  0
  123.0030  131.4190   57.5960 N   0  0  0  0  0  0  0  0  0  0  0  0
  124.5700  130.3320   59.0720 C   0  0  0  0  0  0  0  0  0  0  0  0
  124.9680  129.9800   60.3590 C   0  0  0  0  0  0  0  0  0  0  0  0
  125.8900  129.5190   63.1680 N   0  0  0  0  0  0  0  0  0  0  0  0
  125.9200  129.2410   64.5140 C   0  0  0  0  0  0  0  0  0  0  0  0
  126.9040  128.7570   65.3800 C   0  0  0  0  0  0  0  0  0  0  0  0
  128.6790  125.7960   67.8110 C   0  0  0  0  0  0  0  0  0  0  0  0
  129.5080  124.7830   67.3220 C   0  0  0  0  0  0  0  0  0  0  0  0
  130.1360  125.0300   66.0990 C   0  0  0  0  0  0  0  0  0  0  0  0
  130.9940  124.3060   65.3050 N   0  0  0  0  0  0  0  0  0  0  0  0
  131.8500  124.8510   61.7450 C   0  0  0  0  0  0  0  0  0  0  0  0
  132.6880  124.4270   60.7160 C   0  0  0  0  0  0  0  0  0  0  0  0
  1  2  1  0
  2  3  2  0
  3  4  1  0
  4  5  2  0
  5  6  1  0
  6  7  2  0
  7  8  1  0
  8  9  2  0
  9 10  1  0
 10 11  1  0
 11 12  1  0
 12 13  2  0
 13 14  1  0
 14 15  2  0
 15 16  1  0
 16 17  2  0
 17 18  1  0
 18 19  2  0
 19 20  1  0
 20 21  2  0
 21 22  1  0
 21 23  1  0
 23 24  2  0
 17 25  1  0
 25 26  1  0
 26 27  2  0
 10 28  2  0
 28 29  1  0
 29 30  2  0
 30 31  1  0
  5 32  1  0
 32 33  2  0
 33  2  1  0
 31  6  1  0
 30  8  1  0
 27 12  1  0
 26 15  1  0
 24 18  1  0
M  END
>  <Binding energies>  (42) 
[-8.82]

>  <Ligand effiencies>  (42) 
[-0.22615384615384615]

>  <Interactions>  (42) 
["V-B:ASP:366:CG:8184, V-A:ASP:366:CG:3213, V-A:GLU:543:CD:4908, V-B:ASP:366:CB:8183, V-B:GLU:543:C:9874, V-B:GLU:543:CB:9878, V-B:HIS:456:CE1:9040, V-B:ARG:545:CG:9894, V-A:HIS:456:CE1:4069, H-B:ARG:545:NE:9896, H-B:GLY:454:N:9021, V-B:ILE:369:CD1:8210, V-B:ARG:545:CD:9895, V-B:ILE:369:CG2:8208, V-B:ARG:545:CZ:9898, V-A:TYR:484:CE1:4345, H-B:ARG:545:NH2:9900, V-B:GLU:543:CA:9876, V-A:ILE:369:CD1:3239, V-A:ILE:369:CG2:3237, V-A:ILE:369:CB:3236, V-A:GLY:453:C:4042, H-B:ARG:545:NH1:9899, V-A:TYR:484:CZ:4347, H-A:TYR:484:OH:4348, V-A:GLY:454:CA:4049, V-A:ASP:366:CA:3210, V-A:TYR:539:CZ:4877, H-A:TYR:539:OH:4878, V-B:ASP:366:CA:8181, V-A:ILE:369:CG1:3238, V-B:ASP:366:C:8179, V-B:ASN:370:CB:8216, V-B:ILE:369:CG1:8209, V-B:ILE:369:CB:8207, H-A:ASP:366:OD2:3215, H-B:ASP:366:O:8180, H-A:CYS:365:O:3206"]

$$$$
RR16_Rahimova_2017
     RDKit          3D

 44 49  0  0  0  0  0  0  0  0999 V2000
  129.6430  124.8110   73.1870 O   0  0  0  0  0  0  0  0  0  0  0  0
  129.0770  126.1630   73.1200 S   0  0  0  0  0  0  0  0  0  0  0  0
  129.7670  127.3000   73.7390 O   0  0  0  0  0  0  0  0  0  0  0  0
  127.4420  126.0880   73.7810 N   0  0  0  0  0  0  0  0  0  0  0  0
  127.0560  126.9090   74.9520 C   0  0  0  0  0  0  0  0  0  0  0  0
  127.3930  128.3960   74.6650 C   0  0  0  0  0  0  0  0  0  0  0  0
  126.8400  129.4480   75.6460 C   0  0  0  0  0  0  0  0  0  0  0  0
  125.4320  129.9540   75.2900 C   0  0  0  0  0  0  0  0  0  0  0  0
  124.3060  128.9040   75.3470 C   0  0  0  0  0  0  0  0  0  0  0  0
  124.5580  127.5600   74.6350 C   0  0  0  0  0  0  0  0  0  0  0  0
  125.5780  126.6110   75.2950 C   0  0  0  0  0  0  0  0  0  0  0  0
  128.8400  126.5400   71.3870 C   0  0  0  0  0  0  0  0  0  0  0  0
  129.5270  127.6030   70.7970 C   0  0  0  0  0  0  0  0  0  0  0  0
  129.2420  127.9620   69.4820 C   0  0  0  0  0  0  0  0  0  0  0  0
  128.2740  127.2570   68.7650 C   0  0  0  0  0  0  0  0  0  0  0  0
  127.8050  127.8050   67.1250 S   0  0  0  0  0  0  0  0  0  0  0  0
  128.3180  129.1700   66.9540 O   0  0  0  0  0  0  0  0  0  0  0  0
  126.3730  127.5260   66.9600 O   0  0  0  0  0  0  0  0  0  0  0  0
  128.7050  126.7320   66.0350 N   0  0  0  0  0  0  0  0  0  0  0  0
  128.5030  127.0110   64.5900 C   0  0  0  0  0  0  0  0  0  0  0  0
  129.0600  125.8560   63.7330 C   0  0  0  0  0  0  0  0  0  0  0  0
  130.5340  125.5380   64.0870 C   0  0  0  0  0  0  0  0  0  0  0  0
  131.0920  124.3630   63.2800 C   0  0  0  0  0  0  0  0  0  0  0  0
  132.4770  124.1540   63.2220 C   0  0  0  0  0  0  0  0  0  0  0  0
  133.0290  123.0910   62.5050 C   0  0  0  0  0  0  0  0  0  0  0  0
  134.3860  122.9000   62.4630 O   0  0  0  0  0  0  0  0  0  0  0  0
  132.1560  122.2220   61.8340 C   0  0  0  0  0  0  0  0  0  0  0  0
  132.4010  121.1080   61.0830 N   0  0  0  0  0  0  0  0  0  0  0  0
  131.1850  120.6050   60.6780 N   0  0  0  0  0  0  0  0  0  0  0  0
  130.2130  121.4200   61.1340 N   0  0  0  0  0  0  0  0  0  0  0  0
  128.8120  121.0790   60.9240 C   0  0  0  0  0  0  0  0  0  0  0  0
  128.0440  122.1750   60.1990 C   0  0  0  0  0  0  0  0  0  0  0  0
  127.5150  123.2540   60.9150 C   0  0  0  0  0  0  0  0  0  0  0  0
  126.8300  124.2710   60.2500 C   0  0  0  0  0  0  0  0  0  0  0  0
  126.6710  124.2160   58.8640 C   0  0  0  0  0  0  0  0  0  0  0  0
  127.1990  123.1440   58.1440 C   0  0  0  0  0  0  0  0  0  0  0  0
  127.0130  123.0780   56.4290 Cl  0  0  0  0  0  0  0  0  0  0  0  0
  127.8810  122.1240   58.8100 C   0  0  0  0  0  0  0  0  0  0  0  0
  130.7590  122.4440   61.8900 C   0  0  0  0  0  0  0  0  0  0  0  0
  130.2060  123.5110   62.6050 C   0  0  0  0  0  0  0  0  0  0  0  0
  130.7500  125.3750   65.6140 C   0  0  0  0  0  0  0  0  0  0  0  0
  130.1300  126.5390   66.4120 C   0  0  0  0  0  0  0  0  0  0  0  0
  127.6180  126.1680   69.3430 C   0  0  0  0  0  0  0  0  0  0  0  0
  127.8990  125.8110   70.6570 C   0  0  0  0  0  0  0  0  0  0  0  0
  1  2  2  0
  2  3  2  0
  2  4  1  0
  4  5  1  0
  5  6  1  0
  6  7  1  0
  7  8  1  0
  8  9  1  0
  9 10  1  0
 10 11  1  0
  2 12  1  0
 12 13  2  0
 13 14  1  0
 14 15  2  0
 15 16  1  0
 16 17  2  0
 16 18  2  0
 16 19  1  0
 19 20  1  0
 20 21  1  0
 21 22  1  0
 22 23  1  0
 23 24  2  0
 24 25  1  0
 25 26  1  0
 25 27  2  0
 27 28  1  0
 28 29  2  0
 29 30  1  0
 30 31  1  0
 31 32  1  0
 32 33  2  0
 33 34  1  0
 34 35  2  0
 35 36  1  0
 36 37  1  0
 36 38  2  0
 30 39  1  0
 39 40  2  0
 22 41  1  0
 41 42  1  0
 15 43  1  0
 43 44  2  0
 11  5  1  0
 44 12  1  0
 42 19  1  0
 40 23  1  0
 39 27  1  0
 38 32  1  0
M  END
>  <Binding energies>  (43) 
[-10.24]

>  <Ligand effiencies>  (43) 
[-0.21333333333333335]

>  <Interactions>  (43) 
["V-B:GLU:543:CD:9880, V-B:ALA:541:CB:9864, V-B:TYR:539:CE2:9848, V-B:TYR:539:CD2:9846, V-B:PRO:540:N:9856, V-B:TYR:539:C:9839, V-B:PRO:540:C:9853, V-B:PRO:540:CA:9855, V-B:ALA:541:CA:9862, V-A:LEU:475:CD1:4258, V-A:GLU:543:CD:4908, V-B:TYR:539:CG:9844, V-B:GLU:543:C:9874, V-B:HIS:456:CB:9036, V-B:HIS:456:CG:9037, V-B:GLY:544:C:9884, V-B:HIS:456:CD2:9039, H-A:LYS:547:NZ:4951, V-B:HIS:456:CE1:9040, V-B:VAL:457:CA:9046, V-B:HIS:456:C:9032, H-B:LYS:547:NZ:9923, V-B:VAL:458:CG2:9058, V-A:HIS:456:CE1:4069, V-B:LYS:471:CE:9191, V-A:HIS:456:CD2:4068, H-A:GLY:454:N:4050, V-B:GLU:543:CG:9879, V-B:GLY:544:CA:9886, V-B:LYS:547:CD:9921, V-B:HIS:456:CA:9034, V-B:VAL:457:C:9044, V-B:LYS:547:CG:9920, H-B:GLY:544:O:9885, V-B:LYS:547:CB:9919"]

$$$$
RR18_Rahimova_2017
     RDKit          3D

 36 41  0  0  0  0  0  0  0  0999 V2000
  126.3080  127.8680   58.0710 C   0  0  0  0  0  0  0  0  0  0  0  0
  127.1630  128.2180   59.2620 C   0  0  0  0  0  0  0  0  0  0  0  0
  128.1640  127.5600   59.9590 C   0  0  0  0  0  0  0  0  0  0  0  0
  128.5740  128.4170   60.9800 C   0  0  0  0  0  0  0  0  0  0  0  0
  127.8110  129.5680   60.8690 C   0  0  0  0  0  0  0  0  0  0  0  0
  127.7540  130.8790   61.6480 C   0  0  1  0  0  0  0  0  0  0  0  0
  127.4770  132.0910   60.7090 C   0  0  0  0  0  0  0  0  0  0  0  0
  128.4510  132.4760   59.6930 C   0  0  0  0  0  0  0  0  0  0  0  0
  129.2850  133.3620   59.8940 O   0  0  0  0  0  0  0  0  0  0  0  0
  128.3610  131.7700   58.5420 N   0  0  0  0  0  0  0  0  0  0  0  0
  129.1070  131.8710   57.3480 C   0  0  0  0  0  0  0  0  0  0  0  0
  130.3240  132.5700   57.2510 C   0  0  0  0  0  0  0  0  0  0  0  0
  131.0090  132.6370   56.0390 C   0  0  0  0  0  0  0  0  0  0  0  0
  130.4890  132.0160   54.9080 C   0  0  0  0  0  0  0  0  0  0  0  0
  129.2790  131.3300   54.9860 C   0  0  0  0  0  0  0  0  0  0  0  0
  128.5810  131.2530   56.1950 C   0  0  0  0  0  0  0  0  0  0  0  0
  127.2580  130.4930   56.2270 C   0  0  0  0  0  0  0  0  0  0  0  0
  126.2700  132.7090   60.7900 C   0  0  0  0  0  0  0  0  0  0  0  0
  125.3140  132.4280   61.7180 N   0  0  0  0  0  0  0  0  0  0  0  0
  125.5650  131.5800   62.6460 C   0  0  0  0  0  0  0  0  0  0  0  0
  124.4990  131.2300   63.9860 S   0  0  0  0  0  0  0  0  0  0  0  0
  125.6650  130.0570   64.6750 C   0  0  0  0  0  0  0  0  0  0  0  0
  125.5180  129.3150   65.8270 C   0  0  0  0  0  0  0  0  0  0  0  0
  124.3370  129.5010   66.6840 C   0  0  0  0  0  0  0  0  0  0  0  0
  123.3640  130.2400   66.5410 O   0  0  0  0  0  0  0  0  0  0  0  0
  124.4850  128.7010   67.7450 N   0  0  0  0  0  0  0  0  0  0  0  0
  125.6240  127.9570   67.6950 C   0  0  0  0  0  0  0  0  0  0  0  0
  126.0740  127.0190   68.6240 C   0  0  0  0  0  0  0  0  0  0  0  0
  127.2600  126.3370   68.3700 C   0  0  0  0  0  0  0  0  0  0  0  0
  127.9660  126.5940   67.1960 C   0  0  0  0  0  0  0  0  0  0  0  0
  127.4950  127.5400   66.2810 C   0  0  0  0  0  0  0  0  0  0  0  0
  126.3100  128.2570   66.5310 C   0  0  0  0  0  0  0  0  0  0  0  0
  126.8390  130.0210   63.8020 C   0  0  0  0  0  0  0  0  0  0  0  0
  127.8640  129.3710   63.9840 O   0  0  0  0  0  0  0  0  0  0  0  0
  126.6980  130.8350   62.7210 N   0  0  0  0  0  0  0  0  0  0  0  0
  126.9530  129.4380   59.8210 O   0  0  0  0  0  0  0  0  0  0  0  0
  1  2  1  0
  2  3  2  0
  3  4  1  0
  4  5  2  0
  6  5  1  6
  6  7  1  0
  7  8  1  0
  8  9  2  0
  8 10  1  0
 10 11  1  0
 11 12  2  0
 12 13  1  0
 13 14  2  0
 14 15  1  0
 15 16  2  0
 16 17  1  0
  7 18  2  0
 18 19  1  0
 19 20  2  0
 20 21  1  0
 21 22  1  0
 22 23  2  0
 23 24  1  0
 24 25  2  0
 24 26  1  0
 26 27  1  0
 27 28  2  0
 28 29  1  0
 29 30  2  0
 30 31  1  0
 31 32  2  0
 22 33  1  0
 33 34  2  0
 33 35  1  0
  5 36  1  0
 36  2  1  0
 35  6  1  0
 16 11  1  0
 35 20  1  0
 32 23  1  0
 32 27  1  0
M  END
>  <Binding energies>  (44) 
[-9.12]

>  <Ligand effiencies>  (44) 
[-0.24]

>  <Interactions>  (44) 
["V-B:GLU:543:CD:9880, V-A:PRO:540:CD:4887, V-A:PRO:540:N:4884, V-A:TYR:539:C:4867, V-A:TYR:539:CE2:4876, V-A:PRO:540:CB:4885, V-A:PRO:540:CA:4883, H-A:ALA:541:N:4891, V-B:GLU:543:C:9874, V-B:GLU:543:CB:9878, V-B:GLY:544:C:9884, V-B:ARG:545:CA:9891, V-B:HIS:456:CE1:9040, V-B:ARG:545:CG:9894, H-B:TYR:484:OH:9319, H-B:GLY:454:N:9021, V-B:ARG:545:CD:9895, V-B:GLY:454:CA:9020, H-B:ILE:455:N:9026, V-B:ARG:545:CB:9893, V-A:TYR:539:CE1:4875, V-A:TYR:539:CZ:4877, V-B:TYR:484:CZ:9318, H-B:HIS:456:ND1:9038, H-B:ILE:455:O:9024"]

$$$$
RR20_Rahimova_2017
     RDKit          3D

 38 43  0  0  0  0  0  0  0  0999 V2000
  123.5610  130.3920   76.3340 C   0  0  0  0  0  0  0  0  0  0  0  0
  124.5810  129.5270   75.6160 C   0  0  0  0  0  0  0  0  0  0  0  0
  124.1900  128.3100   75.0570 C   0  0  0  0  0  0  0  0  0  0  0  0
  125.1220  127.5200   74.3910 C   0  0  0  0  0  0  0  0  0  0  0  0
  126.4560  127.9330   74.2900 C   0  0  0  0  0  0  0  0  0  0  0  0
  127.4490  127.0690   73.5440 C   0  0  0  0  0  0  0  0  0  0  0  0
  127.5000  125.8730   73.8390 O   0  0  0  0  0  0  0  0  0  0  0  0
  128.2300  127.6310   72.5760 N   0  0  0  0  0  0  0  0  0  0  0  0
  129.5540  128.1970   72.8850 C   0  0  0  0  0  0  0  0  0  0  0  0
  130.1770  128.5810   71.5540 C   0  0  0  0  0  0  0  0  0  0  0  0
  129.3170  127.8590   70.5620 C   0  0  0  0  0  0  0  0  0  0  0  0
  129.4600  127.7670   69.1770 C   0  0  0  0  0  0  0  0  0  0  0  0
  128.4580  127.1800   68.3940 C   0  0  0  0  0  0  0  0  0  0  0  0
  128.6150  127.0720   66.9030 C   0  0  0  0  0  0  0  0  0  0  0  0
  128.3410  128.1350   66.1630 N   0  0  0  0  0  0  0  0  0  0  0  0
  128.5320  127.9350   64.8840 C   0  0  0  0  0  0  0  0  0  0  0  0
  128.3470  128.8310   63.8420 N   0  0  0  0  0  0  0  0  0  0  0  0
  127.3420  128.8280   62.9330 C   0  0  0  0  0  0  0  0  0  0  0  0
  126.4190  128.0110   62.9300 O   0  0  0  0  0  0  0  0  0  0  0  0
  127.3380  129.9320   61.8500 C   0  0  0  0  0  0  0  0  0  0  0  0
  126.1470  130.7990   61.9150 N   0  0  0  0  0  0  0  0  0  0  0  0
  125.5280  130.8040   63.2490 C   0  0  0  0  0  0  0  0  0  0  0  0
  124.1510  131.5030   63.1950 C   0  0  0  0  0  0  0  0  0  0  0  0
  124.1790  132.8190   62.4180 C   0  0  0  0  0  0  0  0  0  0  0  0
  123.1100  133.7190   62.4850 C   0  0  0  0  0  0  0  0  0  0  0  0
  123.1190  134.9000   61.7470 C   0  0  0  0  0  0  0  0  0  0  0  0
  124.2050  135.1970   60.9300 C   0  0  0  0  0  0  0  0  0  0  0  0
  125.2810  134.3140   60.8610 C   0  0  0  0  0  0  0  0  0  0  0  0
  125.2840  133.1240   61.5960 C   0  0  0  0  0  0  0  0  0  0  0  0
  126.4890  132.1830   61.5650 C   0  0  0  0  0  0  0  0  0  0  0  0
  129.0740  126.3520   64.4850 S   0  0  0  0  0  0  0  0  0  0  0  0
  129.0290  125.9320   66.1810 C   0  0  0  0  0  0  0  0  0  0  0  0
  129.3770  124.5310   66.6330 C   0  0  0  0  0  0  0  0  0  0  0  0
  127.2860  126.7390   69.0270 C   0  0  0  0  0  0  0  0  0  0  0  0
  127.1320  126.8470   70.4090 C   0  0  0  0  0  0  0  0  0  0  0  0
  128.1770  127.3580   71.1900 C   0  0  0  0  0  0  0  0  0  0  0  0
  126.8350  129.1690   74.8280 C   0  0  0  0  0  0  0  0  0  0  0  0
  125.9020  129.9610   75.4940 C   0  0  0  0  0  0  0  0  0  0  0  0
  1  2  1  0
  2  3  2  0
  3  4  1  0
  4  5  2  0
  5  6  1  0
  6  7  2  0
  6  8  1  0
  8  9  1  0
  9 10  1  0
 10 11  1  0
 11 12  2  0
 12 13  1  0
 13 14  1  0
 14 15  1  0
 15 16  2  0
 16 17  1  0
 17 18  1  0
 18 19  2  0
 18 20  1  0
 20 21  1  0
 21 22  1  0
 22 23  1  0
 23 24  1  0
 24 25  2  0
 25 26  1  0
 26 27  2  0
 27 28  1  0
 28 29  2  0
 29 30  1  0
 16 31  1  0
 31 32  1  0
 32 33  1  0
 13 34  2  0
 34 35  1  0
 35 36  2  0
  5 37  1  0
 37 38  2  0
 38  2  1  0
 36  8  1  0
 36 11  1  0
 32 14  2  0
 30 21  1  0
 29 24  1  0
M  END
>  <Binding energies>  (45) 
[-10.91]

>  <Ligand effiencies>  (45) 
[-0.27974358974358976]

>  <Interactions>  (45) 
["V-B:GLU:543:CD:9880, V-A:GLU:543:CD:4908, V-A:TYR:539:CE2:4876, V-A:TYR:539:CD2:4874, V-B:LEU:475:CD1:9229, V-B:GLU:543:C:9874, V-B:LYS:471:CG:9189, V-B:GLU:543:CB:9878, V-B:HIS:456:CB:9036, V-B:HIS:456:CG:9037, V-B:GLY:544:C:9884, V-B:HIS:456:CD2:9039, V-B:LYS:471:CD:9190, V-B:HIS:456:CE1:9040, V-B:VAL:457:CA:9046, V-B:HIS:456:C:9032, V-B:LYS:471:C:9184, H-B:LYS:547:NZ:9923, V-B:VAL:458:CG2:9058, V-A:HIS:456:CE1:4069, V-B:LYS:471:CE:9191, V-A:HIS:456:CD2:4068, V-A:LYS:547:CE:4950, V-B:ILE:369:CD1:8210, V-B:ILE:369:CG2:8208, V-B:GLU:543:CG:9879, V-B:GLY:454:CA:9020, V-A:TYR:484:CE1:4345, H-B:ARG:545:NH2:9900, V-B:GLU:543:CA:9876, V-A:TYR:484:CZ:4347, V-B:TRP:381:CH2:8343, H-A:GLU:543:OE2:4910, H-A:GLU:543:OE1:4909, V-B:HIS:456:CA:9034, V-B:VAL:457:C:9044, V-B:TRP:381:CZ2:8341, V-B:SER:385:C:8376"]

$$$$
RR21_Rahimova_2017
     RDKit          3D

 40 45  0  0  0  0  0  0  0  0999 V2000
  123.9240  130.4640   62.9830 C   0  0  0  0  0  0  0  0  0  0  0  0
  124.0890  130.5720   64.3930 O   0  0  0  0  0  0  0  0  0  0  0  0
  125.0380  129.7890   65.0250 C   0  0  0  0  0  0  0  0  0  0  0  0
  126.3090  129.5080   64.4960 C   0  0  0  0  0  0  0  0  0  0  0  0
  127.2100  128.7100   65.2000 C   0  0  0  0  0  0  0  0  0  0  0  0
  126.8680  128.1760   66.4480 C   0  0  0  0  0  0  0  0  0  0  0  0
  127.8390  127.3230   67.2050 C   0  0  0  0  0  0  0  0  0  0  0  0
  127.8630  127.3680   68.5220 N   0  0  0  0  0  0  0  0  0  0  0  0
  128.8160  126.5120   68.9190 N   0  0  0  0  0  0  0  0  0  0  0  0
  129.0950  126.2980   70.2950 C   0  0  0  0  0  0  0  0  0  0  0  0
  129.4430  125.0230   70.7660 C   0  0  0  0  0  0  0  0  0  0  0  0
  129.7180  124.8260   72.1170 C   0  0  0  0  0  0  0  0  0  0  0  0
  129.6460  125.9020   73.0000 C   0  0  0  0  0  0  0  0  0  0  0  0
  129.2980  127.1710   72.5450 C   0  0  0  0  0  0  0  0  0  0  0  0
  129.0220  127.3710   71.1950 C   0  0  0  0  0  0  0  0  0  0  0  0
  129.3920  125.9050   67.8310 C   0  0  0  0  0  0  0  0  0  0  0  0
  128.7930  126.4170   66.6890 C   0  0  0  0  0  0  0  0  0  0  0  0
  129.0380  126.0460   65.3040 C   0  0  0  0  0  0  0  0  0  0  0  0
  130.1990  125.6480   64.7360 C   0  0  0  0  0  0  0  0  0  0  0  0
  131.7880  125.4650   65.5120 S   0  0  0  0  0  0  0  0  0  0  0  0
  132.4580  124.9210   63.9810 C   0  0  0  0  0  0  0  0  0  0  0  0
  133.6760  124.5500   63.7320 N   0  0  0  0  0  0  0  0  0  0  0  0
  134.0880  124.1170   62.4420 C   0  0  0  0  0  0  0  0  0  0  0  0
  135.2140  123.7300   62.1310 O   0  0  0  0  0  0  0  0  0  0  0  0
  132.9930  124.1520   61.4110 C   0  0  0  0  0  0  0  0  0  0  0  0
  133.3260  123.7260   59.9750 C   0  0  0  0  0  0  0  0  0  0  0  0
  132.4880  124.4210   58.9030 C   0  0  0  0  0  0  0  0  0  0  0  0
  133.1160  125.0890   57.8490 C   0  0  0  0  0  0  0  0  0  0  0  0
  132.3520  125.7080   56.8620 C   0  0  0  0  0  0  0  0  0  0  0  0
  130.9580  125.6580   56.9260 C   0  0  0  0  0  0  0  0  0  0  0  0
  130.1300  126.3230   55.8420 C   0  0  0  0  0  0  0  0  0  0  0  0
  130.3280  124.9800   57.9730 C   0  0  0  0  0  0  0  0  0  0  0  0
  131.0920  124.3620   58.9590 C   0  0  0  0  0  0  0  0  0  0  0  0
  131.7850  124.5310   61.6720 N   0  0  0  0  0  0  0  0  0  0  0  0
  131.5130  124.9210   62.9890 N   0  0  0  0  0  0  0  0  0  0  0  0
  130.2570  125.3100   63.3200 C   0  0  0  0  0  0  0  0  0  0  0  0
  129.3050  125.3610   62.5330 O   0  0  0  0  0  0  0  0  0  0  0  0
  125.6000  128.4510   66.9720 C   0  0  0  0  0  0  0  0  0  0  0  0
  124.6970  129.2490   66.2690 C   0  0  0  0  0  0  0  0  0  0  0  0
  123.4780  129.4960   66.8040 F   0  0  0  0  0  0  0  0  0  0  0  0
  1  2  1  0
  2  3  1  0
  3  4  2  0
  4  5  1  0
  5  6  2  0
  6  7  1  0
  7  8  2  0
  8  9  1  0
  9 10  1  0
 10 11  2  0
 11 12  1  0
 12 13  2  0
 13 14  1  0
 14 15  2  0
  9 16  1  0
 16 17  2  0
 17 18  1  0
 18 19  2  0
 19 20  1  0
 20 21  1  0
 21 22  2  0
 22 23  1  0
 23 24  2  0
 23 25  1  0
 25 26  1  0
 26 27  1  0
 27 28  2  0
 28 29  1  0
 29 30  2  0
 30 31  1  0
 30 32  1  0
 32 33  2  0
 25 34  2  0
 34 35  1  0
 35 36  1  0
 36 37  2  0
  6 38  1  0
 38 39  2  0
 39 40  1  0
 39  3  1  0
 17  7  1  0
 36 19  1  0
 15 10  1  0
 35 21  1  0
 33 27  1  0
M  END
>  <Binding energies>  (46) 
[-10.41]

>  <Ligand effiencies>  (46) 
[-0.26025]

>  <Interactions>  (46) 
["V-B:GLU:543:CD:9880, V-B:TYR:539:CE2:9848, V-B:TYR:539:CZ:9849, V-A:ASP:366:CB:3212, V-A:ASP:366:CG:3213, V-B:GLU:543:CB:9878, V-B:HIS:456:CE1:9040, V-B:ARG:545:CG:9894, V-A:HIS:456:CE1:4069, V-A:HIS:456:CD2:4068, H-B:TYR:484:OH:9319, H-B:GLY:454:N:9021, V-B:ARG:545:CD:9895, V-B:ARG:545:CZ:9898, H-A:GLY:454:N:4050, V-B:GLU:543:CG:9879, V-A:GLY:453:C:4042, V-A:ASP:366:CA:3210, H-A:ARG:545:NH2:4928, V-A:ARG:545:CZ:4926, V-A:ASP:366:C:3208, V-B:ILE:455:C:9023"]

$$$$
RR23_Rahimova_2017
     RDKit          3D

 39 44  0  0  0  0  0  0  0  0999 V2000
  123.7080  130.3380   76.3250 C   0  0  0  0  0  0  0  0  0  0  0  0
  124.7290  129.4870   75.5920 C   0  0  0  0  0  0  0  0  0  0  0  0
  126.0520  129.9170   75.4890 C   0  0  0  0  0  0  0  0  0  0  0  0
  126.9900  129.1310   74.8250 C   0  0  0  0  0  0  0  0  0  0  0  0
  126.6090  127.9140   74.2470 C   0  0  0  0  0  0  0  0  0  0  0  0
  127.6460  127.0650   73.5480 C   0  0  0  0  0  0  0  0  0  0  0  0
  127.8350  125.9250   73.9770 O   0  0  0  0  0  0  0  0  0  0  0  0
  128.3170  127.5760   72.4730 N   0  0  0  0  0  0  0  0  0  0  0  0
  129.6480  128.1880   72.6160 C   0  0  0  0  0  0  0  0  0  0  0  0
  130.1290  128.5000   71.2080 C   0  0  0  0  0  0  0  0  0  0  0  0
  129.1950  127.6990   70.3510 C   0  0  0  0  0  0  0  0  0  0  0  0
  129.2060  127.5210   68.9680 C   0  0  0  0  0  0  0  0  0  0  0  0
  128.1460  126.8600   68.3290 C   0  0  0  0  0  0  0  0  0  0  0  0
  128.1180  126.6430   66.8090 C   0  0  2  0  0  0  0  0  0  0  0  0
  129.3520  126.0680   66.3170 N   0  0  0  0  0  0  0  0  0  0  0  0
  129.6220  126.4630   65.1380 C   0  0  0  0  0  0  0  0  0  0  0  0
  130.7060  126.1520   64.3770 N   0  0  0  0  0  0  0  0  0  0  0  0
  131.8180  125.4670   64.7360 C   0  0  0  0  0  0  0  0  0  0  0  0
  132.0210  124.9580   65.8400 O   0  0  0  0  0  0  0  0  0  0  0  0
  132.8960  125.3380   63.6470 C   0  0  0  0  0  0  0  0  0  0  0  0
  132.7490  124.0290   62.9720 N   0  0  0  0  0  0  0  0  0  0  0  0
  133.9020  123.2560   62.9110 N   0  0  0  0  0  0  0  0  0  0  0  0
  133.9060  122.0920   62.3450 N   0  0  0  0  0  0  0  0  0  0  0  0
  132.7310  121.5890   61.7810 C   0  0  0  0  0  0  0  0  0  0  0  0
  132.7710  120.3300   61.1770 C   0  0  0  0  0  0  0  0  0  0  0  0
  131.6130  119.8010   60.6050 C   0  0  0  0  0  0  0  0  0  0  0  0
  130.4200  120.5270   60.6340 C   0  0  0  0  0  0  0  0  0  0  0  0
  130.3790  121.7860   61.2370 C   0  0  0  0  0  0  0  0  0  0  0  0
  131.5390  122.3150   61.8130 C   0  0  0  0  0  0  0  0  0  0  0  0
  131.5170  123.6770   62.4670 C   0  0  0  0  0  0  0  0  0  0  0  0
  130.5130  124.3920   62.5290 O   0  0  0  0  0  0  0  0  0  0  0  0
  128.4560  127.5790   64.3710 S   0  0  0  0  0  0  0  0  0  0  0  0
  127.7400  127.9000   65.9920 C   0  0  2  0  0  0  0  0  0  0  0  0
  128.2700  129.2510   66.5170 C   0  0  0  0  0  0  0  0  0  0  0  0
  127.0590  126.4280   69.0980 C   0  0  0  0  0  0  0  0  0  0  0  0
  127.0370  126.6240   70.4790 C   0  0  0  0  0  0  0  0  0  0  0  0
  128.1360  127.2130   71.1200 C   0  0  0  0  0  0  0  0  0  0  0  0
  125.2840  127.4750   74.3780 C   0  0  0  0  0  0  0  0  0  0  0  0
  124.3480  128.2610   75.0440 C   0  0  0  0  0  0  0  0  0  0  0  0
  1  2  1  0
  2  3  2  0
  3  4  1  0
  4  5  2  0
  5  6  1  0
  6  7  2  0
  6  8  1  0
  8  9  1  0
  9 10  1  0
 10 11  1  0
 11 12  2  0
 12 13  1  0
 14 13  1  1
 14 15  1  0
 15 16  2  0
 16 17  1  0
 17 18  1  0
 18 19  2  0
 18 20  1  0
 20 21  1  0
 21 22  1  0
 22 23  2  0
 23 24  1  0
 24 25  2  0
 25 26  1  0
 26 27  2  0
 27 28  1  0
 28 29  2  0
 29 30  1  0
 30 31  2  0
 16 32  1  0
 32 33  1  0
 33 34  1  1
 13 35  2  0
 35 36  1  0
 36 37  2  0
  5 38  1  0
 38 39  2  0
 39  2  1  0
 37  8  1  0
 37 11  1  0
 33 14  1  0
 30 21  1  0
 29 24  1  0
M  END
>  <Binding energies>  (47) 
[-11.02]

>  <Ligand effiencies>  (47) 
[-0.27549999999999997]

>  <Interactions>  (47) 
["V-B:TYR:539:CE2:9848, V-B:TYR:539:CD2:9846, V-A:LEU:475:CD1:4258, V-A:GLU:543:CD:4908, V-B:GLU:543:C:9874, V-B:LYS:471:CG:9189, V-B:GLU:543:CB:9878, V-B:HIS:456:CB:9036, V-B:HIS:456:CG:9037, V-B:GLY:544:C:9884, V-B:HIS:456:CD2:9039, V-B:ARG:545:CA:9891, V-B:LYS:471:CD:9190, V-B:HIS:456:CE1:9040, V-B:VAL:457:CA:9046, V-B:HIS:456:C:9032, V-B:LYS:471:C:9184, H-B:LYS:547:NZ:9923, V-B:VAL:458:CG2:9058, V-A:HIS:456:CE1:4069, V-B:LYS:471:CE:9191, V-A:HIS:456:CD2:4068, V-A:GLU:543:CB:4906, V-A:LYS:547:CE:4950, V-A:GLU:543:C:4902, H-A:GLY:454:N:4050, V-A:TRP:381:CZ2:3370, V-A:TRP:381:CH2:3372, H-A:TYR:484:OH:4348, H-A:GLU:543:OE2:4910, V-A:ARG:545:CZ:4926, H-A:GLU:543:OE1:4909, V-A:GLU:543:CG:4907, V-B:HIS:456:CA:9034, V-B:VAL:457:C:9044"]

$$$$
RR26_Rahimova_2017
     RDKit          3D

 38 44  0  0  0  0  0  0  0  0999 V2000
  124.2620  132.4010   61.9700 C   0  0  0  0  0  0  0  0  0  0  0  0
  125.3920  133.4000   61.7540 C   0  0  0  0  0  0  0  0  0  0  0  0
  125.0940  134.6110   61.1200 C   0  0  0  0  0  0  0  0  0  0  0  0
  126.0800  135.5770   60.9320 C   0  0  0  0  0  0  0  0  0  0  0  0
  127.3750  135.3430   61.3840 C   0  0  0  0  0  0  0  0  0  0  0  0
  127.6840  134.1420   62.0180 C   0  0  0  0  0  0  0  0  0  0  0  0
  126.7070  133.1530   62.2080 C   0  0  0  0  0  0  0  0  0  0  0  0
  127.1280  131.8810   62.8860 C   0  0  0  0  0  0  0  0  0  0  0  0
  127.4310  131.8310   64.1800 N   0  0  0  0  0  0  0  0  0  0  0  0
  127.7200  130.5680   64.3420 C   0  0  0  0  0  0  0  0  0  0  0  0
  128.2240  129.5730   65.6570 S   0  0  0  0  0  0  0  0  0  0  0  0
  128.2410  128.1520   64.5460 C   0  0  0  0  0  0  0  0  0  0  0  0
  128.5680  126.8750   64.8410 C   0  0  0  0  0  0  0  0  0  0  0  0
  128.9790  126.3280   66.1250 C   0  0  0  0  0  0  0  0  0  0  0  0
  128.5430  126.6900   67.3900 C   0  0  0  0  0  0  0  0  0  0  0  0
  129.1710  125.8800   68.3010 N   0  0  0  0  0  0  0  0  0  0  0  0
  129.0340  125.8760   69.7130 C   0  0  0  0  0  0  0  0  0  0  0  0
  129.6170  124.8630   70.4890 C   0  0  0  0  0  0  0  0  0  0  0  0
  129.4720  124.8700   71.8730 C   0  0  0  0  0  0  0  0  0  0  0  0
  128.7480  125.8890   72.4870 C   0  0  0  0  0  0  0  0  0  0  0  0
  128.1670  126.9030   71.7290 C   0  0  0  0  0  0  0  0  0  0  0  0
  128.3080  126.8980   70.3440 C   0  0  0  0  0  0  0  0  0  0  0  0
  129.9650  125.0000   67.6720 N   0  0  0  0  0  0  0  0  0  0  0  0
  129.8660  125.2580   66.3830 C   0  0  0  0  0  0  0  0  0  0  0  0
  130.6490  124.4460   65.3970 C   0  0  0  0  0  0  0  0  0  0  0  0
  130.1360  123.2350   64.9080 C   0  0  0  0  0  0  0  0  0  0  0  0
  130.8590  122.4690   63.9920 C   0  0  0  0  0  0  0  0  0  0  0  0
  132.1080  122.9110   63.5590 C   0  0  0  0  0  0  0  0  0  0  0  0
  132.6230  124.1280   64.0260 C   0  0  0  0  0  0  0  0  0  0  0  0
  131.9010  124.8880   64.9450 C   0  0  0  0  0  0  0  0  0  0  0  0
  133.8750  124.5830   63.6580 O   0  0  0  0  0  0  0  0  0  0  0  0
  134.3910  123.9760   62.4700 C   0  0  0  0  0  0  0  0  0  0  0  0
  134.1630  122.4450   62.4980 C   0  0  0  0  0  0  0  0  0  0  0  0
  132.7680  122.1470   62.6170 O   0  0  0  0  0  0  0  0  0  0  0  0
  127.8570  128.5090   63.1830 C   0  0  0  0  0  0  0  0  0  0  0  0
  127.7700  127.7900   62.1870 O   0  0  0  0  0  0  0  0  0  0  0  0
  127.5860  129.8860   63.1900 N   0  0  0  0  0  0  0  0  0  0  0  0
  127.1950  130.7310   62.2320 N   0  0  0  0  0  0  0  0  0  0  0  0
  1  2  1  0
  2  3  2  0
  3  4  1  0
  4  5  2  0
  5  6  1  0
  6  7  2  0
  7  8  1  0
  8  9  1  0
  9 10  2  0
 10 11  1  0
 11 12  1  0
 12 13  2  0
 13 14  1  0
 14 15  2  0
 15 16  1  0
 16 17  1  0
 17 18  2  0
 18 19  1  0
 19 20  2  0
 20 21  1  0
 21 22  2  0
 16 23  1  0
 23 24  2  0
 24 25  1  0
 25 26  2  0
 26 27  1  0
 27 28  2  0
 28 29  1  0
 29 30  2  0
 29 31  1  0
 31 32  1  0
 32 33  1  0
 33 34  1  0
 12 35  1  0
 35 36  2  0
 35 37  1  0
 37 38  1  0
  7  2  1  0
 38  8  2  0
 37 10  1  0
 24 14  1  0
 30 25  1  0
 22 17  1  0
 34 28  1  0
M  END
>  <Binding energies>  (48) 
[-10.14]

>  <Ligand effiencies>  (48) 
[-0.26684210526315794]

>  <Interactions>  (48) 
["V-B:GLU:543:CD:9880, V-A:LEU:475:CD1:4258, V-B:PRO:482:CB:9297, V-A:GLU:543:CD:4908, V-A:TYR:539:CE2:4876, V-B:PRO:482:CG:9298, V-A:TYR:539:CD2:4874, V-B:LEU:475:CD1:9229, V-A:ALA:541:CB:4892, V-B:GLU:543:CB:9878, V-B:HIS:456:CE1:9040, V-A:HIS:456:CE1:4069, V-A:HIS:456:CD2:4068, H-B:TYR:484:OH:9319, V-A:GLU:543:CB:4906, H-A:HIS:456:NE2:4070, V-B:ILE:369:CD1:8210, H-A:GLY:454:N:4050, V-B:GLU:543:CG:9879, V-A:TYR:484:CE1:4345, V-A:ILE:369:CD1:3239, V-A:GLY:453:C:4042, V-A:TYR:484:CZ:4347, H-A:TYR:484:OH:4348, V-B:TRP:381:CH2:8343, V-A:GLY:454:CA:4049, H-A:ARG:545:NH2:4928, V-A:GLY:453:CA:4044, V-A:GLU:543:CG:4907, V-B:TRP:381:CZ2:8341, V-B:TRP:381:CZ3:8342"]

$$$$
RR2_Rahimova_2017
     RDKit          3D

 46 50  0  0  0  0  0  0  0  0999 V2000
  134.0880  129.7220   57.1550 C   0  0  0  0  0  0  0  0  0  0  0  0
  133.2360  130.6060   56.4350 O   0  0  0  0  0  0  0  0  0  0  0  0
  131.9870  130.9060   56.9460 C   0  0  0  0  0  0  0  0  0  0  0  0
  131.2620  130.0670   57.8040 C   0  0  0  0  0  0  0  0  0  0  0  0
  130.0060  130.4520   58.2670 C   0  0  0  0  0  0  0  0  0  0  0  0
  129.4470  131.6790   57.8830 C   0  0  0  0  0  0  0  0  0  0  0  0
  128.0750  132.0720   58.3960 C   0  0  0  0  0  0  0  0  0  0  0  0
  127.9380  133.0780   59.1010 O   0  0  0  0  0  0  0  0  0  0  0  0
  127.0570  131.2530   58.0440 N   0  0  0  0  0  0  0  0  0  0  0  0
  125.7940  131.5150   58.5640 N   0  0  0  0  0  0  0  0  0  0  0  0
  124.9390  130.4830   58.7140 C   0  0  0  0  0  0  0  0  0  0  0  0
  125.1170  129.3480   58.2620 O   0  0  0  0  0  0  0  0  0  0  0  0
  123.6760  130.7840   59.5320 C   0  0  0  0  0  0  0  0  0  0  0  0
  123.8390  132.1560   60.7330 S   0  0  0  0  0  0  0  0  0  0  0  0
  124.0450  131.2500   62.2360 C   0  0  0  0  0  0  0  0  0  0  0  0
  123.0380  130.8240   62.9560 N   0  0  0  0  0  0  0  0  0  0  0  0
  123.5620  130.2240   64.0920 N   0  0  0  0  0  0  0  0  0  0  0  0
  124.8700  130.2830   64.0020 C   0  0  0  0  0  0  0  0  0  0  0  0
  125.7910  129.7220   65.0360 C   0  0  0  0  0  0  0  0  0  0  0  0
  125.2870  128.8850   66.0350 C   0  0  0  0  0  0  0  0  0  0  0  0
  126.1350  128.3640   67.0070 C   0  0  0  0  0  0  0  0  0  0  0  0
  127.5020  128.6610   66.9790 C   0  0  0  0  0  0  0  0  0  0  0  0
  128.4020  128.1730   67.9380 N   0  0  0  0  0  0  0  0  0  0  0  0
  128.6010  126.4570   68.3580 S   0  0  0  0  0  0  0  0  0  0  0  0
  127.2440  125.9130   68.4870 O   0  0  0  0  0  0  0  0  0  0  0  0
  129.5550  126.3680   69.4700 O   0  0  0  0  0  0  0  0  0  0  0  0
  129.3250  125.6990   66.9060 C   0  0  0  0  0  0  0  0  0  0  0  0
  129.8010  126.4870   65.8550 C   0  0  0  0  0  0  0  0  0  0  0  0
  130.3450  125.8780   64.7280 C   0  0  0  0  0  0  0  0  0  0  0  0
  130.4200  124.4850   64.6540 C   0  0  0  0  0  0  0  0  0  0  0  0
  131.0010  123.8220   63.4180 C   0  0  0  0  0  0  0  0  0  0  0  0
  129.9400  123.7000   65.7050 C   0  0  0  0  0  0  0  0  0  0  0  0
  129.3940  124.3070   66.8320 C   0  0  0  0  0  0  0  0  0  0  0  0
  128.0050  129.4940   65.9790 C   0  0  0  0  0  0  0  0  0  0  0  0
  127.1560  130.0210   65.0110 C   0  0  0  0  0  0  0  0  0  0  0  0
  125.2490  130.9320   62.8390 N   0  0  0  0  0  0  0  0  0  0  0  0
  126.5500  131.2400   62.3900 C   0  0  0  0  0  0  0  0  0  0  0  0
  127.0360  132.5430   62.5050 C   0  0  0  0  0  0  0  0  0  0  0  0
  128.3230  132.8390   62.0650 C   0  0  0  0  0  0  0  0  0  0  0  0
  129.1300  131.8460   61.5090 C   0  0  0  0  0  0  0  0  0  0  0  0
  130.3910  132.2360   61.1000 O   0  0  0  0  0  0  0  0  0  0  0  0
  131.5060  131.3970   61.3880 C   0  0  0  0  0  0  0  0  0  0  0  0
  128.6320  130.5370   61.3970 C   0  0  0  0  0  0  0  0  0  0  0  0
  127.3470  130.2350   61.8380 C   0  0  0  0  0  0  0  0  0  0  0  0
  130.1820  132.5160   57.0300 C   0  0  0  0  0  0  0  0  0  0  0  0
  131.4380  132.1290   56.5690 C   0  0  0  0  0  0  0  0  0  0  0  0
  1  2  1  0
  2  3  1  0
  3  4  2  0
  4  5  1  0
  5  6  2  0
  6  7  1  0
  7  8  2  0
  7  9  1  0
  9 10  1  0
 10 11  1  0
 11 12  2  0
 11 13  1  0
 13 14  1  0
 14 15  1  0
 15 16  2  0
 16 17  1  0
 17 18  2  0
 18 19  1  0
 19 20  2  0
 20 21  1  0
 21 22  2  0
 22 23  1  0
 23 24  1  0
 24 25  2  0
 24 26  2  0
 24 27  1  0
 27 28  2  0
 28 29  1  0
 29 30  2  0
 30 31  1  0
 30 32  1  0
 32 33  2  0
 22 34  1  0
 34 35  2  0
 18 36  1  0
 36 37  1  0
 37 38  2  0
 38 39  1  0
 39 40  2  0
 40 41  1  0
 41 42  1  0
 40 43  1  0
 43 44  2  0
  6 45  1  0
 45 46  2  0
 46  3  1  0
 36 15  1  0
 44 37  1  0
 35 19  1  0
 33 27  1  0
M  END
>  <Binding energies>  (49) 
[-10.52]

>  <Ligand effiencies>  (49) 
[-0.2146938775510204]

>  <Interactions>  (49) 
["V-B:ASP:366:CG:8184, V-A:PRO:540:CD:4887, V-A:PRO:540:N:4884, V-A:ASP:366:CB:3212, V-A:TYR:539:C:4867, V-A:TYR:531:CE2:4793, V-A:TYR:531:CZ:4794, V-A:ASP:366:CG:3213, V-A:LEU:363:CD1:3189, V-A:GLU:543:CD:4908, V-A:TYR:539:CE2:4876, H-A:TYR:531:OH:4795, V-A:PRO:540:CB:4885, V-A:PRO:540:CA:4883, V-A:TYR:539:CD2:4874, V-B:LEU:475:CD1:9229, V-A:ALA:541:CB:4892, H-A:ALA:541:N:4891, V-B:ASP:366:CB:8183, V-B:GLU:543:C:9874, V-B:GLU:543:CB:9878, V-B:HIS:456:CE1:9040, V-B:ARG:545:CG:9894, V-A:HIS:456:CE1:4069, H-B:ARG:545:NE:9896, V-A:GLU:543:CB:4906, H-B:GLY:454:N:9021, H-A:HIS:456:NE2:4070, V-B:ARG:545:CD:9895, V-B:ARG:545:CZ:9898, V-B:GLU:543:CG:9879, V-A:TYR:484:CE1:4345, H-B:ARG:545:NH2:9900, V-B:GLU:543:CA:9876, H-B:ARG:545:NH1:9899, V-A:TYR:484:CZ:4347, V-A:TYR:539:CE1:4875, V-A:TYR:539:CZ:4877, H-A:TYR:539:OH:4878, V-A:LEU:363:CA:3185, V-B:ASP:366:CA:8181, H-A:GLU:543:O:4903"]

$$$$
RR33_Rahimova_2017
     RDKit          3D

 18 19  0  0  0  0  0  0  0  0999 V2000
  123.7180  131.7370   75.9920 C   0  0  0  0  0  0  0  0  0  0  0  0
  123.4770  130.2730   76.3700 C   0  0  0  0  0  0  0  0  0  0  0  0
  124.7360  129.6470   76.6020 O   0  0  0  0  0  0  0  0  0  0  0  0
  125.3370  128.9340   75.5830 C   0  0  0  0  0  0  0  0  0  0  0  0
  126.6570  129.2670   75.2850 C   0  0  0  0  0  0  0  0  0  0  0  0
  127.3440  128.6050   74.2710 C   0  0  0  0  0  0  0  0  0  0  0  0
  126.7160  127.5940   73.5370 C   0  0  0  0  0  0  0  0  0  0  0  0
  127.4550  126.8840   72.4480 C   0  0  0  0  0  0  0  0  0  0  0  0
  127.4550  127.1650   71.1640 N   0  0  0  0  0  0  0  0  0  0  0  0
  128.2520  126.2640   70.6100 C   0  0  0  0  0  0  0  0  0  0  0  0
  128.5160  126.2710   69.1190 C   0  0  0  0  0  0  0  0  0  0  0  0
  129.4800  125.2410   68.7640 N   0  0  0  0  0  0  0  0  0  0  0  0
  129.6930  125.2130   67.3260 C   0  0  0  0  0  0  0  0  0  0  0  0
  128.7480  125.4140   71.5900 C   0  0  0  0  0  0  0  0  0  0  0  0
  129.6780  124.2250   71.6100 C   0  0  0  0  0  0  0  0  0  0  0  0
  128.2300  125.8170   72.7730 O   0  0  0  0  0  0  0  0  0  0  0  0
  125.3930  127.2540   73.8350 C   0  0  0  0  0  0  0  0  0  0  0  0
  124.7060  127.9170   74.8490 C   0  0  0  0  0  0  0  0  0  0  0  0
  1  2  1  0
  2  3  1  0
  3  4  1  0
  4  5  2  0
  5  6  1  0
  6  7  2  0
  7  8  1  0
  8  9  2  0
  9 10  1  0
 10 11  1  0
 11 12  1  0
 12 13  1  0
 10 14  2  0
 14 15  1  0
 14 16  1  0
  7 17  1  0
 17 18  2  0
 18  4  1  0
 16  8  1  0
M  END
>  <Binding energies>  (50) 
[-5.9]

>  <Ligand effiencies>  (50) 
[-0.3105263157894737]

>  <Interactions>  (50) 
["V-B:LYS:471:CG:9189, V-B:GLU:543:CB:9878, V-B:HIS:456:CB:9036, V-B:HIS:456:CG:9037, V-B:GLY:544:C:9884, V-B:HIS:456:CD2:9039, V-B:VAL:457:CA:9046, V-B:HIS:456:C:9032, V-B:LYS:471:C:9184, H-B:LYS:547:NZ:9923, V-B:VAL:458:CG2:9058, V-A:HIS:456:CE1:4069, V-B:LYS:471:CE:9191, V-A:HIS:456:CD2:4068, H-B:HIS:456:NE2:9041, H-A:HIS:456:NE2:4070, V-A:TYR:484:CE1:4345, V-A:TYR:484:CZ:4347, H-B:GLU:543:O:9875, V-B:VAL:457:C:9044, V-B:ASP:473:CG:9211, V-B:ASP:473:CB:9210, V-B:LYS:471:CB:9188, V-B:LEU:472:C:9197, V-B:LEU:472:CA:9199"]

$$$$
RR3_Rahimova_2017
     RDKit          3D

 38 44  0  0  0  0  0  0  0  0999 V2000
  123.9190  132.1490   62.2810 C   0  0  0  0  0  0  0  0  0  0  0  0
  125.1260  132.5770   62.8230 C   0  0  0  0  0  0  0  0  0  0  0  0
  125.8170  131.7520   63.7050 C   0  0  0  0  0  0  0  0  0  0  0  0
  125.3130  130.4910   64.0560 C   0  0  0  0  0  0  0  0  0  0  0  0
  126.0580  129.6040   65.0040 C   0  0  0  0  0  0  0  0  0  0  0  0
  127.4440  129.4300   64.8900 C   0  0  0  0  0  0  0  0  0  0  0  0
  128.1360  128.6020   65.7690 C   0  0  0  0  0  0  0  0  0  0  0  0
  127.4550  127.9210   66.7820 C   0  0  0  0  0  0  0  0  0  0  0  0
  128.1920  127.0260   67.7270 C   0  0  0  0  0  0  0  0  0  0  0  0
  128.2850  127.3490   69.0120 N   0  0  0  0  0  0  0  0  0  0  0  0
  128.9360  126.3730   69.5980 C   0  0  0  0  0  0  0  0  0  0  0  0
  129.2650  126.3150   71.0200 C   0  0  0  0  0  0  0  0  0  0  0  0
  129.0020  127.3030   71.9540 C   0  0  0  0  0  0  0  0  0  0  0  0
  129.4370  126.9110   73.1920 N   0  0  0  0  0  0  0  0  0  0  0  0
  130.0020  125.6570   73.1160 C   0  0  0  0  0  0  0  0  0  0  0  0
  130.5790  124.8530   74.1050 C   0  0  0  0  0  0  0  0  0  0  0  0
  131.0720  123.6120   73.7040 C   0  0  0  0  0  0  0  0  0  0  0  0
  131.0000  123.1860   72.3820 C   0  0  0  0  0  0  0  0  0  0  0  0
  130.4250  123.9870   71.3970 C   0  0  0  0  0  0  0  0  0  0  0  0
  129.9120  125.2480   71.7480 C   0  0  0  0  0  0  0  0  0  0  0  0
  129.2810  125.4050   68.6960 N   0  0  0  0  0  0  0  0  0  0  0  0
  128.8340  125.8040   67.4630 C   0  0  0  0  0  0  0  0  0  0  0  0
  129.0840  125.0190   66.2170 C   0  0  0  0  0  0  0  0  0  0  0  0
  129.0300  125.6470   64.9720 C   0  0  0  0  0  0  0  0  0  0  0  0
  129.2500  124.9170   63.8080 C   0  0  0  0  0  0  0  0  0  0  0  0
  129.5320  123.5440   63.8610 C   0  0  0  0  0  0  0  0  0  0  0  0
  129.7480  122.7580   62.6060 C   0  0  0  0  0  0  0  0  0  0  0  0
  130.9150  121.9990   62.4240 C   0  0  0  0  0  0  0  0  0  0  0  0
  131.1140  121.2640   61.2580 C   0  0  0  0  0  0  0  0  0  0  0  0
  130.1450  121.2790   60.2600 C   0  0  0  0  0  0  0  0  0  0  0  0
  128.9800  122.0230   60.4200 C   0  0  0  0  0  0  0  0  0  0  0  0
  128.7850  122.7580   61.5860 C   0  0  0  0  0  0  0  0  0  0  0  0
  129.6000  122.9290   65.1190 C   0  0  0  0  0  0  0  0  0  0  0  0
  129.3800  123.6560   66.2850 C   0  0  0  0  0  0  0  0  0  0  0  0
  126.0760  128.0980   66.9120 C   0  0  0  0  0  0  0  0  0  0  0  0
  125.3860  128.9270   66.0310 C   0  0  0  0  0  0  0  0  0  0  0  0
  124.0930  130.0800   63.4980 C   0  0  0  0  0  0  0  0  0  0  0  0
  123.3990  130.9030   62.6150 C   0  0  0  0  0  0  0  0  0  0  0  0
  1  2  2  0
  2  3  1  0
  3  4  2  0
  4  5  1  0
  5  6  2  0
  6  7  1  0
  7  8  2  0
  8  9  1  0
  9 10  1  0
 10 11  2  0
 11 12  1  0
 12 13  2  0
 13 14  1  0
 14 15  1  0
 15 16  2  0
 16 17  1  0
 17 18  2  0
 18 19  1  0
 19 20  2  0
 11 21  1  0
 21 22  1  0
 22 23  1  0
 23 24  2  0
 24 25  1  0
 25 26  2  0
 26 27  1  0
 27 28  2  0
 28 29  1  0
 29 30  2  0
 30 31  1  0
 31 32  2  0
 26 33  1  0
 33 34  2  0
  8 35  1  0
 35 36  2  0
  4 37  1  0
 37 38  2  0
 38  1  1  0
 36  5  1  0
 22  9  2  0
 34 23  1  0
 20 12  1  0
 32 27  1  0
 20 15  1  0
M  END
>  <Binding energies>  (51) 
[-10.36]

>  <Ligand effiencies>  (51) 
[-0.259]

>  <Interactions>  (51) 
["V-B:GLU:543:CD:9880, V-B:ALA:541:CB:9864, V-B:TYR:539:CE2:9848, V-B:TYR:539:CD2:9846, V-A:LEU:475:CD1:4258, V-A:GLU:543:CD:4908, V-B:LEU:475:CD1:9229, V-B:GLU:543:C:9874, V-B:GLU:543:CB:9878, V-B:HIS:456:CE1:9040, V-B:ARG:545:CG:9894, V-A:HIS:456:CE1:4069, V-A:HIS:456:CG:4066, V-A:HIS:456:CD2:4068, V-A:HIS:456:CB:4065, H-B:HIS:456:NE2:9041, V-B:ILE:369:CD1:8210, V-B:ARG:545:CD:9895, V-B:ARG:545:CZ:9898, V-B:GLU:543:CG:9879, V-B:GLY:454:CA:9020, V-A:TYR:484:CE1:4345, V-B:GLU:543:CA:9876, V-A:TYR:484:CZ:4347, H-A:TYR:484:OH:4348, H-B:GLU:543:O:9875, V-A:TYR:484:CD2:4344, V-A:TYR:484:CG:4342, V-A:TYR:484:CE2:4346"]

$$$$
RR4_Rahimova_2017
     RDKit          3D

 40 44  0  0  0  0  0  0  0  0999 V2000
  127.0510  126.6200   74.3690 C   0  0  0  0  0  0  0  0  0  0  0  0
  128.1180  125.8750   73.7920 O   0  0  0  0  0  0  0  0  0  0  0  0
  128.3350  125.9530   72.4300 C   0  0  0  0  0  0  0  0  0  0  0  0
  127.6440  126.9480   71.7420 C   0  0  0  0  0  0  0  0  0  0  0  0
  127.8010  127.1020   70.3680 C   0  0  0  0  0  0  0  0  0  0  0  0
  128.6540  126.2610   69.6390 C   0  0  0  0  0  0  0  0  0  0  0  0
  128.8210  126.4290   68.1550 C   0  0  0  0  0  0  0  0  0  0  0  0
  129.7030  125.6510   67.3990 C   0  0  0  0  0  0  0  0  0  0  0  0
  129.8190  125.8430   66.0160 C   0  0  0  0  0  0  0  0  0  0  0  0
  130.7610  124.9550   65.2700 C   0  0  0  0  0  0  0  0  0  0  0  0
  132.1010  125.3240   65.1160 C   0  0  0  0  0  0  0  0  0  0  0  0
  132.9880  124.4970   64.4320 C   0  0  0  0  0  0  0  0  0  0  0  0
  132.5570  123.2850   63.8960 C   0  0  0  0  0  0  0  0  0  0  0  0
  133.5070  122.5300   63.2350 O   0  0  0  0  0  0  0  0  0  0  0  0
  134.1030  123.0470   62.0500 C   0  0  0  0  0  0  0  0  0  0  0  0
  131.2140  122.9080   64.0530 C   0  0  0  0  0  0  0  0  0  0  0  0
  130.3290  123.7360   64.7370 C   0  0  0  0  0  0  0  0  0  0  0  0
  129.0450  126.8620   65.4090 C   0  0  0  0  0  0  0  0  0  0  0  0
  129.1280  127.1050   63.9660 C   0  0  0  0  0  0  0  0  0  0  0  0
  129.1930  127.2970   62.8270 N   0  0  0  0  0  0  0  0  0  0  0  0
  128.1960  127.6300   66.2380 C   0  0  0  0  0  0  0  0  0  0  0  0
  127.1630  128.9560   65.6510 S   0  0  0  0  0  0  0  0  0  0  0  0
  128.2460  130.3660   65.2440 C   0  0  0  0  0  0  0  0  0  0  0  0
  128.0370  130.9460   63.8380 C   0  0  0  0  0  0  0  0  0  0  0  0
  127.3360  131.9460   63.6710 O   0  0  0  0  0  0  0  0  0  0  0  0
  128.6610  130.2670   62.8480 N   0  0  0  0  0  0  0  0  0  0  0  0
  128.6670  130.5410   61.4770 C   0  0  0  0  0  0  0  0  0  0  0  0
  127.3090  130.2040   60.4370 S   0  0  0  0  0  0  0  0  0  0  0  0
  128.1540  130.8080   59.0450 C   0  0  0  0  0  0  0  0  0  0  0  0
  129.4440  131.2510   59.3770 C   0  0  0  0  0  0  0  0  0  0  0  0
  129.7270  131.1130   60.7580 C   0  0  0  0  0  0  0  0  0  0  0  0
  130.9920  131.5170   61.3640 C   0  0  0  0  0  0  0  0  0  0  0  0
  131.9950  131.8370   61.8430 N   0  0  0  0  0  0  0  0  0  0  0  0
  130.3770  131.8650   58.3260 C   0  0  0  0  0  0  0  0  0  0  0  0
  129.5830  132.2730   57.0640 C   0  0  0  0  0  0  0  0  0  0  0  0
  128.6080  131.1720   56.6110 C   0  0  0  0  0  0  0  0  0  0  0  0
  127.5150  130.8980   57.6660 C   0  0  0  0  0  0  0  0  0  0  0  0
  128.0790  127.4020   67.5670 N   0  0  0  0  0  0  0  0  0  0  0  0
  129.3490  125.2630   70.3410 C   0  0  0  0  0  0  0  0  0  0  0  0
  129.1940  125.1070   71.7150 C   0  0  0  0  0  0  0  0  0  0  0  0
  1  2  1  0
  2  3  1  0
  3  4  2  0
  4  5  1  0
  5  6  2  0
  6  7  1  0
  7  8  2  0
  8  9  1  0
  9 10  1  0
 10 11  2  0
 11 12  1  0
 12 13  2  0
 13 14  1  0
 14 15  1  0
 13 16  1  0
 16 17  2  0
  9 18  2  0
 18 19  1  0
 19 20  3  0
 18 21  1  0
 21 22  1  0
 22 23  1  0
 23 24  1  0
 24 25  2  0
 24 26  1  0
 26 27  1  0
 27 28  1  0
 28 29  1  0
 29 30  2  0
 30 31  1  0
 31 32  1  0
 32 33  3  0
 30 34  1  0
 34 35  1  0
 35 36  1  0
 36 37  1  0
 21 38  2  0
  6 39  1  0
 39 40  2  0
 40  3  1  0
 38  7  1  0
 17 10  1  0
 31 27  2  0
 37 29  1  0
M  END
>  <Binding energies>  (52) 
[-10.38]

>  <Ligand effiencies>  (52) 
[-0.2531707317073171]

>  <Interactions>  (52) 
["V-B:GLU:543:CD:9880, V-A:LEU:475:CD1:4258, V-A:PRO:540:N:4884, V-A:TYR:539:C:4867, V-A:GLU:543:CD:4908, V-A:TYR:539:CE2:4876, V-A:PRO:540:C:4881, V-A:PRO:540:CB:4885, V-A:PRO:540:CA:4883, H-A:ALA:541:N:4891, V-B:GLY:544:C:9884, V-B:HIS:456:CE1:9040, H-B:LYS:547:NZ:9923, V-A:HIS:456:CE1:4069, V-A:HIS:456:CD2:4068, H-B:TYR:484:OH:9319, V-A:GLU:543:CB:4906, H-A:GLY:454:N:4050, V-A:ILE:369:CD1:3239, V-B:LYS:547:CE:9922, H-A:GLU:543:OE2:4910, V-A:GLY:454:CA:4049, H-A:GLU:543:OE1:4909, V-A:TYR:539:CE1:4875, V-A:TYR:539:CD1:4873, V-A:TYR:539:CZ:4877, V-A:GLU:543:CG:4907, V-B:LYS:547:CD:9921"]

$$$$
RR6_Rahimova_2017
     RDKit          3D

 38 41  0  0  0  0  0  0  0  0999 V2000
  127.8810  123.8420   55.0870 C   0  0  0  0  0  0  0  0  0  0  0  0
  128.2560  123.7230   56.4520 O   0  0  0  0  0  0  0  0  0  0  0  0
  127.5440  122.9440   57.3060 C   0  0  0  0  0  0  0  0  0  0  0  0
  126.7080  122.1150   56.9330 O   0  0  0  0  0  0  0  0  0  0  0  0
  127.8740  123.1900   58.7500 C   0  0  0  0  0  0  0  0  0  0  0  0
  127.7880  124.4660   59.3260 C   0  0  0  0  0  0  0  0  0  0  0  0
  128.1080  124.6630   60.6670 C   0  0  0  0  0  0  0  0  0  0  0  0
  128.5270  123.5820   61.4570 C   0  0  0  0  0  0  0  0  0  0  0  0
  128.9010  123.6740   62.8100 N   0  0  0  0  0  0  0  0  0  0  0  0
  129.6320  122.8170   63.5560 C   0  0  0  0  0  0  0  0  0  0  0  0
  130.1270  121.7630   63.1550 O   0  0  0  0  0  0  0  0  0  0  0  0
  129.7840  123.1910   65.0350 C   0  0  0  0  0  0  0  0  0  0  0  0
  130.6910  124.7500   65.3070 S   0  0  0  0  0  0  0  0  0  0  0  0
  129.5900  125.8370   66.1880 C   0  0  0  0  0  0  0  0  0  0  0  0
  129.7190  125.7890   67.5360 N   0  0  0  0  0  0  0  0  0  0  0  0
  128.9530  126.5950   68.3150 C   0  0  0  0  0  0  0  0  0  0  0  0
  129.2010  126.5250   69.7930 C   0  0  0  0  0  0  0  0  0  0  0  0
  129.3420  125.2900   70.4450 C   0  0  0  0  0  0  0  0  0  0  0  0
  129.5590  125.2250   71.8180 C   0  0  0  0  0  0  0  0  0  0  0  0
  129.6450  126.3980   72.5670 C   0  0  0  0  0  0  0  0  0  0  0  0
  129.8720  126.3220   74.0660 C   0  0  0  0  0  0  0  0  0  0  0  0
  129.5100  127.6340   71.9390 C   0  0  0  0  0  0  0  0  0  0  0  0
  129.2940  127.6930   70.5660 C   0  0  0  0  0  0  0  0  0  0  0  0
  128.0210  127.4660   67.7420 C   0  0  0  0  0  0  0  0  0  0  0  0
  127.8650  127.5310   66.3500 C   0  0  0  0  0  0  0  0  0  0  0  0
  126.8650  128.4960   65.8060 C   0  0  0  0  0  0  0  0  0  0  0  0
  127.1940  129.3100   64.7180 C   0  0  0  0  0  0  0  0  0  0  0  0
  126.2620  130.2020   64.1940 C   0  0  0  0  0  0  0  0  0  0  0  0
  124.9840  130.2940   64.7420 C   0  0  0  0  0  0  0  0  0  0  0  0
  124.1250  131.2040   64.1570 O   0  0  0  0  0  0  0  0  0  0  0  0
  123.8440  131.0970   62.7650 C   0  0  0  0  0  0  0  0  0  0  0  0
  124.6470  129.4760   65.8310 C   0  0  0  0  0  0  0  0  0  0  0  0
  125.5810  128.5850   66.3520 C   0  0  0  0  0  0  0  0  0  0  0  0
  128.6680  126.6870   65.5440 C   0  0  0  0  0  0  0  0  0  0  0  0
  128.5360  126.6830   64.0830 C   0  0  0  0  0  0  0  0  0  0  0  0
  128.4330  126.6820   62.9310 N   0  0  0  0  0  0  0  0  0  0  0  0
  128.5980  122.3080   60.8920 C   0  0  0  0  0  0  0  0  0  0  0  0
  128.2800  122.1140   59.5500 C   0  0  0  0  0  0  0  0  0  0  0  0
  1  2  1  0
  2  3  1  0
  3  4  2  0
  3  5  1  0
  5  6  2  0
  6  7  1  0
  7  8  2  0
  8  9  1  0
  9 10  1  0
 10 11  2  0
 10 12  1  0
 12 13  1  0
 13 14  1  0
 14 15  2  0
 15 16  1  0
 16 17  1  0
 17 18  2  0
 18 19  1  0
 19 20  2  0
 20 21  1  0
 20 22  1  0
 22 23  2  0
 16 24  2  0
 24 25  1  0
 25 26  1  0
 26 27  2  0
 27 28  1  0
 28 29  2  0
 29 30  1  0
 30 31  1  0
 29 32  1  0
 32 33  2  0
 25 34  2  0
 34 35  1  0
 35 36  3  0
  8 37  1  0
 37 38  2  0
 38  5  1  0
 34 14  1  0
 23 17  1  0
 33 26  1  0
M  END
>  <Binding energies>  (53) 
[-9.66]

>  <Ligand effiencies>  (53) 
[-0.24769230769230768]

>  <Interactions>  (53) 
["V-B:GLU:543:CD:9880, V-B:ALA:541:CB:9864, V-B:TYR:539:CE2:9848, V-B:TYR:539:CD2:9846, V-B:PRO:540:N:9856, V-B:TYR:539:C:9839, V-B:PRO:540:CA:9855, V-B:TYR:539:CZ:9849, H-B:GLU:543:OE2:9882, H-B:TYR:539:OH:9850, H-B:TYR:539:N:9842, V-B:GLU:543:CB:9878, V-B:HIS:456:CE1:9040, V-B:ARG:545:CG:9894, V-A:HIS:456:CE1:4069, V-A:HIS:456:CD2:4068, H-B:GLU:543:OE1:9881, H-B:TYR:484:OH:9319, H-B:GLY:454:N:9021, H-A:HIS:456:NE2:4070, V-B:ARG:545:CD:9895, V-B:ARG:545:CZ:9898, V-B:GLU:543:CG:9879, V-B:GLY:454:CA:9020, V-A:TYR:484:CE1:4345, V-B:GLU:543:CA:9876, H-A:TYR:484:OH:4348, V-B:TYR:539:CE1:9847"]

$$$$
RR7_Rahimova_2017
     RDKit          3D

 47 53  0  0  0  0  0  0  0  0999 V2000
  125.6320  128.4140   66.8920 C   0  0  0  0  0  0  0  0  0  0  0  0
  124.7910  129.3410   66.2120 O   0  0  0  0  0  0  0  0  0  0  0  0
  125.2200  129.8880   65.0180 C   0  0  0  0  0  0  0  0  0  0  0  0
  124.2490  130.0810   64.0370 C   0  0  0  0  0  0  0  0  0  0  0  0
  124.5860  130.6310   62.8050 C   0  0  0  0  0  0  0  0  0  0  0  0
  125.9110  130.9910   62.5180 C   0  0  0  0  0  0  0  0  0  0  0  0
  126.3110  131.6400   61.1560 C   0  0  0  0  0  0  0  0  0  0  0  0
  125.2160  131.3870   60.2470 O   0  0  0  0  0  0  0  0  0  0  0  0
  124.9930  130.0670   59.7420 C   0  0  0  0  0  0  0  0  0  0  0  0
  125.4790  130.0000   58.2850 C   0  0  1  0  0  0  0  0  0  0  0  0
  126.5800  129.0950   58.2580 O   0  0  0  0  0  0  0  0  0  0  0  0
  126.3520  128.0200   57.3940 C   0  0  1  0  0  0  0  0  0  0  0  0
  126.9950  126.8240   57.9040 N   0  0  0  0  0  0  0  0  0  0  0  0
  128.2250  126.7190   58.5300 C   0  0  0  0  0  0  0  0  0  0  0  0
  128.5890  125.5020   58.8520 N   0  0  0  0  0  0  0  0  0  0  0  0
  127.5700  124.7210   58.3780 C   0  0  0  0  0  0  0  0  0  0  0  0
  127.3650  123.3270   58.3930 C   0  0  0  0  0  0  0  0  0  0  0  0
  128.3350  122.5090   59.0010 N   0  0  0  0  0  0  0  0  0  0  0  0
  128.4430  122.1360   60.2990 C   0  0  0  0  0  0  0  0  0  0  0  0
  127.6720  122.4950   61.1910 O   0  0  0  0  0  0  0  0  0  0  0  0
  129.6220  121.2450   60.6280 C   0  0  0  0  0  0  0  0  0  0  0  0
  130.9230  121.7680   60.5760 C   0  0  0  0  0  0  0  0  0  0  0  0
  132.0210  120.9680   60.8800 C   0  0  0  0  0  0  0  0  0  0  0  0
  131.8270  119.6390   61.2430 C   0  0  0  0  0  0  0  0  0  0  0  0
  130.5440  119.1020   61.3050 C   0  0  0  0  0  0  0  0  0  0  0  0
  129.4450  119.9010   60.9990 C   0  0  0  0  0  0  0  0  0  0  0  0
  126.2370  122.8120   57.8160 N   0  0  0  0  0  0  0  0  0  0  0  0
  125.3610  123.6820   57.2490 C   0  0  0  0  0  0  0  0  0  0  0  0
  125.4580  125.0370   57.1820 N   0  0  0  0  0  0  0  0  0  0  0  0
  126.5680  125.5130   57.7610 C   0  0  0  0  0  0  0  0  0  0  0  0
  124.8370  127.9270   57.2590 C   0  0  0  0  0  0  0  0  0  0  0  0
  124.4720  129.4010   57.2920 C   0  0  2  0  0  0  0  0  0  0  0  0
  124.5560  129.9990   56.0100 O   0  0  0  0  0  0  0  0  0  0  0  0
  126.4680  133.1800   61.2600 C   0  0  0  0  0  0  0  0  0  0  0  0
  125.3950  134.0250   60.9300 C   0  0  0  0  0  0  0  0  0  0  0  0
  125.5290  135.4070   61.0060 C   0  0  0  0  0  0  0  0  0  0  0  0
  126.7390  135.9620   61.4110 C   0  0  0  0  0  0  0  0  0  0  0  0
  127.8160  135.1440   61.7420 C   0  0  0  0  0  0  0  0  0  0  0  0
  127.6810  133.7610   61.6650 C   0  0  0  0  0  0  0  0  0  0  0  0
  127.6370  131.1270   60.5260 C   0  0  0  0  0  0  0  0  0  0  0  0
  128.2020  131.7870   59.4230 C   0  0  0  0  0  0  0  0  0  0  0  0
  129.3820  131.3300   58.8460 C   0  0  0  0  0  0  0  0  0  0  0  0
  130.0080  130.1980   59.3620 C   0  0  0  0  0  0  0  0  0  0  0  0
  129.4590  129.5200   60.4450 C   0  0  0  0  0  0  0  0  0  0  0  0
  128.2780  129.9790   61.0210 C   0  0  0  0  0  0  0  0  0  0  0  0
  126.8810  130.8070   63.5130 C   0  0  0  0  0  0  0  0  0  0  0  0
  126.5440  130.2580   64.7470 C   0  0  0  0  0  0  0  0  0  0  0  0
  1  2  1  0
  2  3  1  0
  3  4  2  0
  4  5  1  0
  5  6  2  0
  6  7  1  0
  7  8  1  0
  8  9  1  0
 10  9  1  1
 10 11  1  0
 11 12  1  0
 12 13  1  1
 13 14  1  0
 14 15  2  0
 15 16  1  0
 16 17  2  0
 17 18  1  0
 18 19  1  0
 19 20  2  0
 19 21  1  0
 21 22  2  0
 22 23  1  0
 23 24  2  0
 24 25  1  0
 25 26  2  0
 17 27  1  0
 27 28  2  0
 28 29  1  0
 29 30  2  0
 12 31  1  0
 31 32  1  0
 32 33  1  6
  7 34  1  0
 34 35  2  0
 35 36  1  0
 36 37  2  0
 37 38  1  0
 38 39  2  0
  7 40  1  0
 40 41  2  0
 41 42  1  0
 42 43  2  0
 43 44  1  0
 44 45  2  0
  6 46  1  0
 46 47  2  0
 47  3  1  0
 32 10  1  0
 39 34  1  0
 45 40  1  0
 30 13  1  0
 30 16  1  0
 26 21  1  0
M  END
>  <Binding energies>  (54) 
[-9.89]

>  <Ligand effiencies>  (54) 
[-0.20183673469387756]

>  <Interactions>  (54) 
["V-A:PRO:482:CB:4326, V-B:ALA:541:CB:9864, V-B:TYR:539:CE2:9848, V-B:TYR:539:CD2:9846, H-B:ALA:541:N:9863, V-B:PRO:540:CB:9857, V-B:TYR:539:C:9839, V-B:LEU:363:CD1:8160, V-B:ASP:366:CG:8184, V-B:PRO:540:CA:9855, V-A:PRO:482:CG:4327, V-B:ALA:541:CA:9862, V-A:LEU:475:CD1:4258, V-B:PRO:482:CB:9297, V-A:TYR:539:CE2:4876, V-B:PRO:482:CG:9298, V-A:TYR:539:CD2:4874, V-B:LEU:475:CD1:9229, V-A:ALA:541:CB:4892, V-B:ASP:366:CB:8183, V-B:TYR:531:CZ:9766, V-B:HIS:456:CE1:9040, V-B:ARG:545:CG:9894, H-B:TYR:484:OH:9319, H-B:ARG:545:NE:9896, V-B:ARG:545:CD:9895, V-B:ARG:545:CZ:9898, V-A:TRP:381:CZ2:3370, V-A:TRP:381:CH2:3372, V-B:TRP:381:CH2:8343, H-B:TYR:539:O:9840, H-A:TYR:539:OH:4878, H-B:TYR:531:OH:9767, V-B:TRP:381:CZ2:8341, V-A:ALA:541:CA:4890, V-B:TRP:381:CZ3:8342, H-B:ASN:370:OD1:8218"]

$$$$
RR8_A_Rahimova_2017
     RDKit          3D

 42 46  0  0  0  0  0  0  0  0999 V2000
  129.9810  127.3240   66.9060 O   0  0  0  0  0  0  0  0  0  0  0  0
  128.8650  127.1250   67.3990 C   0  0  0  0  0  0  0  0  0  0  0  0
  128.6110  126.2280   68.4020 O   0  0  0  0  0  0  0  0  0  0  0  0
  129.1850  126.4780   69.6550 C   0  0  1  0  0  0  0  0  0  0  0  0
  129.2880  127.8490   69.9110 O   0  0  0  0  0  0  0  0  0  0  0  0
  129.0130  128.1550   71.2750 C   0  0  2  0  0  0  0  0  0  0  0  0
  130.2130  128.9210   71.8580 C   0  0  0  0  0  0  0  0  0  0  0  0
  129.7300  129.9740   72.6800 O   0  0  0  0  0  0  0  0  0  0  0  0
  130.1560  131.2670   72.2730 C   0  0  0  0  0  0  0  0  0  0  0  0
  129.5360  132.3230   73.1770 C   0  0  0  0  0  0  0  0  0  0  0  0
  128.7580  131.9340   74.2700 C   0  0  0  0  0  0  0  0  0  0  0  0
  128.1940  132.8980   75.1030 C   0  0  0  0  0  0  0  0  0  0  0  0
  128.4130  134.2490   74.8410 C   0  0  0  0  0  0  0  0  0  0  0  0
  129.1920  134.6460   73.7570 C   0  0  0  0  0  0  0  0  0  0  0  0
  129.7570  133.6820   72.9250 C   0  0  0  0  0  0  0  0  0  0  0  0
  128.7340  126.7850   71.9080 C   0  0  1  0  0  0  0  0  0  0  0  0
  127.6810  126.8150   72.8690 O   0  0  0  0  0  0  0  0  0  0  0  0
  127.9080  127.6370   74.0080 C   0  0  0  0  0  0  0  0  0  0  0  0
  126.5820  128.1550   74.5480 C   0  0  0  0  0  0  0  0  0  0  0  0
  126.5430  129.3660   75.2460 C   0  0  0  0  0  0  0  0  0  0  0  0
  125.3360  129.8410   75.7510 C   0  0  0  0  0  0  0  0  0  0  0  0
  124.1690  129.1020   75.5600 C   0  0  0  0  0  0  0  0  0  0  0  0
  124.2000  127.8920   74.8720 C   0  0  0  0  0  0  0  0  0  0  0  0
  125.4080  127.4150   74.3680 C   0  0  0  0  0  0  0  0  0  0  0  0
  128.2520  125.9500   70.7360 C   0  0  2  0  0  0  0  0  0  0  0  0
  128.4170  124.5610   71.0070 O   0  0  0  0  0  0  0  0  0  0  0  0
  129.7200  124.0380   70.7750 C   0  0  0  0  0  0  0  0  0  0  0  0
  130.4140  123.7670   72.1010 C   0  0  0  0  0  0  0  0  0  0  0  0
  130.8230  124.8320   72.9110 C   0  0  0  0  0  0  0  0  0  0  0  0
  131.4490  124.5790   74.1290 C   0  0  0  0  0  0  0  0  0  0  0  0
  131.6610  123.2630   74.5360 C   0  0  0  0  0  0  0  0  0  0  0  0
  131.2520  122.1980   73.7380 C   0  0  0  0  0  0  0  0  0  0  0  0
  130.6250  122.4500   72.5190 C   0  0  0  0  0  0  0  0  0  0  0  0
  127.6340  127.8630   66.9570 C   0  0  0  0  0  0  0  0  0  0  0  0
  127.6790  128.8480   65.9590 C   0  0  0  0  0  0  0  0  0  0  0  0
  126.5200  129.5160   65.5720 C   0  0  0  0  0  0  0  0  0  0  0  0
  125.2900  129.2190   66.1730 C   0  0  0  0  0  0  0  0  0  0  0  0
  124.0560  129.9300   65.7590 N   0  0  0  0  0  0  0  0  0  0  0  0
  123.3160  130.3790   66.6290 O   0  0  0  0  0  0  0  0  0  0  0  0
  123.8180  130.0460   64.5600 O   0  0  0  0  0  0  0  0  0  0  0  0
  125.2470  128.2370   67.1710 C   0  0  0  0  0  0  0  0  0  0  0  0
  126.4040  127.5690   67.5590 C   0  0  0  0  0  0  0  0  0  0  0  0
  1  2  2  0
  2  3  1  0
  4  3  1  6
  4  5  1  0
  5  6  1  0
  6  7  1  1
  7  8  1  0
  8  9  1  0
  9 10  1  0
 10 11  2  0
 11 12  1  0
 12 13  2  0
 13 14  1  0
 14 15  2  0
  6 16  1  0
 16 17  1  1
 17 18  1  0
 18 19  1  0
 19 20  2  0
 20 21  1  0
 21 22  2  0
 22 23  1  0
 23 24  2  0
 16 25  1  0
 25 26  1  1
 26 27  1  0
 27 28  1  0
 28 29  2  0
 29 30  1  0
 30 31  2  0
 31 32  1  0
 32 33  2  0
  2 34  1  0
 34 35  2  0
 35 36  1  0
 36 37  2  0
 37 38  1  0
 38 39  2  0
 38 40  1  0
 37 41  1  0
 41 42  2  0
 25  4  1  0
 33 28  1  0
 42 34  1  0
 15 10  1  0
 24 19  1  0
M  CHG  2  38   1  40  -1
M  END
>  <Binding energies>  (55) 
[-11.04]

>  <Ligand effiencies>  (55) 
[-0.26285714285714284]

>  <Interactions>  (55) 
["V-B:GLU:543:CB:9878, V-B:HIS:456:CB:9036, V-B:HIS:456:CG:9037, V-B:GLY:544:C:9884, V-B:HIS:456:CD2:9039, H-A:LYS:547:NZ:4951, V-B:HIS:456:CE1:9040, V-B:VAL:457:CA:9046, V-B:HIS:456:C:9032, V-B:ARG:545:CG:9894, H-B:LYS:547:NZ:9923, V-B:VAL:458:CG2:9058, V-A:HIS:456:CE1:4069, V-B:LYS:471:CE:9191, V-A:ASP:473:CG:4240, V-A:HIS:456:CG:4066, V-A:HIS:456:CD2:4068, V-A:ASP:473:CB:4239, V-A:HIS:456:CB:4065, H-B:TYR:484:OH:9319, H-B:ARG:545:NE:9896, V-A:LYS:547:CE:4950, V-A:GLY:544:CA:4914, H-B:GLY:454:N:9021, H-B:HIS:456:NE2:9041, H-A:HIS:456:NE2:4070, V-A:GLU:543:C:4902, V-B:ARG:545:CD:9895, V-B:ARG:545:CZ:9898, V-B:GLY:454:CA:9020, V-A:TYR:484:CE1:4345, H-B:ARG:545:NH2:9900, H-B:ILE:455:N:9026, V-B:ARG:545:CB:9893, H-B:ARG:545:NH1:9899, V-A:TYR:484:CZ:4347, V-A:TYR:484:CD2:4344, V-B:HIS:456:CA:9034, V-B:VAL:457:C:9044, V-B:ASP:473:CG:9211, V-A:GLY:544:C:4912, V-A:TYR:484:CG:4342, V-A:TYR:484:CE2:4346, V-A:TYR:484:CB:4341, V-A:TYR:484:CD1:4343, V-B:TYR:484:CB:9312"]

$$$$
RR8_B_Rahimova_2017
     RDKit          3D

 42 46  0  0  0  0  0  0  0  0999 V2000
  129.7280  127.9060   68.5820 O   0  0  0  0  0  0  0  0  0  0  0  0
  129.2960  127.7370   67.4370 C   0  0  0  0  0  0  0  0  0  0  0  0
  129.9800  127.0970   66.4400 O   0  0  0  0  0  0  0  0  0  0  0  0
  129.6300  125.7670   66.1440 C   0  0  2  0  0  0  0  0  0  0  0  0
  130.7320  124.9080   66.2220 O   0  0  0  0  0  0  0  0  0  0  0  0
  131.3830  124.7770   64.9590 C   0  0  2  0  0  0  0  0  0  0  0  0
  132.8540  125.2090   65.0920 C   0  0  0  0  0  0  0  0  0  0  0  0
  133.6700  124.3340   64.3240 O   0  0  0  0  0  0  0  0  0  0  0  0
  133.8940  124.7470   62.9840 C   0  0  0  0  0  0  0  0  0  0  0  0
  133.6020  123.5860   62.0460 C   0  0  0  0  0  0  0  0  0  0  0  0
  133.8740  122.2770   62.4560 C   0  0  0  0  0  0  0  0  0  0  0  0
  133.6320  121.2110   61.5930 C   0  0  0  0  0  0  0  0  0  0  0  0
  133.1150  121.4580   60.3220 C   0  0  0  0  0  0  0  0  0  0  0  0
  132.8350  122.7580   59.9090 C   0  0  0  0  0  0  0  0  0  0  0  0
  133.0810  123.8250   60.7710 C   0  0  0  0  0  0  0  0  0  0  0  0
  130.5310  125.6220   64.0040 C   0  0  1  0  0  0  0  0  0  0  0  0
  130.4940  125.0060   62.7130 O   0  0  0  0  0  0  0  0  0  0  0  0
  129.2840  124.3380   62.3470 C   0  0  0  0  0  0  0  0  0  0  0  0
  129.5250  122.8850   61.9470 C   0  0  0  0  0  0  0  0  0  0  0  0
  130.2860  122.0490   62.7690 C   0  0  0  0  0  0  0  0  0  0  0  0
  130.4760  120.7150   62.4170 C   0  0  0  0  0  0  0  0  0  0  0  0
  129.9090  120.2240   61.2430 C   0  0  0  0  0  0  0  0  0  0  0  0
  129.1530  121.0530   60.4170 C   0  0  0  0  0  0  0  0  0  0  0  0
  128.9590  122.3860   60.7700 C   0  0  0  0  0  0  0  0  0  0  0  0
  129.1700  125.6730   64.6900 C   0  0  2  0  0  0  0  0  0  0  0  0
  128.4330  126.8090   64.2450 O   0  0  0  0  0  0  0  0  0  0  0  0
  129.0730  127.6120   63.2660 C   0  0  0  0  0  0  0  0  0  0  0  0
  128.0750  128.6460   62.7730 C   0  0  0  0  0  0  0  0  0  0  0  0
  128.4400  129.9920   62.6840 C   0  0  0  0  0  0  0  0  0  0  0  0
  127.5110  130.9340   62.2490 C   0  0  0  0  0  0  0  0  0  0  0  0
  126.2240  130.5280   61.9050 C   0  0  0  0  0  0  0  0  0  0  0  0
  125.8540  129.1870   61.9900 C   0  0  0  0  0  0  0  0  0  0  0  0
  126.7820  128.2440   62.4240 C   0  0  0  0  0  0  0  0  0  0  0  0
  127.9630  128.2530   66.9770 C   0  0  0  0  0  0  0  0  0  0  0  0
  126.7580  127.7010   67.4370 C   0  0  0  0  0  0  0  0  0  0  0  0
  125.5380  128.1930   66.9870 C   0  0  0  0  0  0  0  0  0  0  0  0
  125.4900  129.2420   66.0610 C   0  0  0  0  0  0  0  0  0  0  0  0
  124.1870  129.7480   65.5620 N   0  0  0  0  0  0  0  0  0  0  0  0
  123.2670  129.8930   66.3620 O   0  0  0  0  0  0  0  0  0  0  0  0
  124.0760  130.0090   64.3670 O   0  0  0  0  0  0  0  0  0  0  0  0
  126.6930  129.7970   65.6070 C   0  0  0  0  0  0  0  0  0  0  0  0
  127.9140  129.3110   66.0610 C   0  0  0  0  0  0  0  0  0  0  0  0
  1  2  2  0
  2  3  1  0
  4  3  1  6
  4  5  1  0
  5  6  1  0
  6  7  1  1
  7  8  1  0
  8  9  1  0
  9 10  1  0
 10 11  2  0
 11 12  1  0
 12 13  2  0
 13 14  1  0
 14 15  2  0
  6 16  1  0
 16 17  1  6
 17 18  1  0
 18 19  1  0
 19 20  2  0
 20 21  1  0
 21 22  2  0
 22 23  1  0
 23 24  2  0
 16 25  1  0
 25 26  1  6
 26 27  1  0
 27 28  1  0
 28 29  2  0
 29 30  1  0
 30 31  2  0
 31 32  1  0
 32 33  2  0
  2 34  1  0
 34 35  2  0
 35 36  1  0
 36 37  2  0
 37 38  1  0
 38 39  2  0
 38 40  1  0
 37 41  1  0
 41 42  2  0
 25  4  1  0
 33 28  1  0
 42 34  1  0
 15 10  1  0
 24 19  1  0
M  CHG  2  38   1  40  -1
M  END
>  <Binding energies>  (56) 
[-9.31]

>  <Ligand effiencies>  (56) 
[-0.22166666666666668]

>  <Interactions>  (56) 
["V-B:GLU:543:CD:9880, V-B:ALA:541:CB:9864, V-B:TYR:539:CE2:9848, V-B:TYR:539:CD2:9846, V-B:TYR:539:C:9839, V-A:PRO:482:CG:4327, V-A:LEU:475:CD1:4258, V-A:ASP:366:CG:3213, V-A:GLU:543:CD:4908, V-B:GLU:543:CB:9878, V-B:HIS:456:CE1:9040, V-B:ARG:545:CG:9894, V-A:HIS:456:CE1:4069, H-B:TYR:484:OH:9319, H-B:ARG:545:NE:9896, V-A:GLU:543:CB:4906, H-B:GLY:454:N:9021, H-A:HIS:456:NE2:4070, V-B:ARG:545:CD:9895, V-B:ARG:545:CZ:9898, H-A:GLY:454:N:4050, V-B:GLU:543:CG:9879, H-B:ARG:545:NH2:9900, H-B:ILE:455:N:9026, V-A:ILE:369:CD1:3239, V-A:ILE:369:CG2:3237, H-A:TYR:484:OH:4348, V-A:GLY:454:CA:4049, V-A:ARG:545:CZ:4926, V-A:GLY:453:CA:4044, V-B:TYR:484:CZ:9318, V-A:GLU:543:CG:4907"]

$$$$
RR9_Rahimova_2017
     RDKit          3D

 36 40  0  0  0  0  0  0  0  0999 V2000
  131.1400  123.0800   72.2980 C   0  0  0  0  0  0  0  0  0  0  0  0
  130.2020  123.4500   71.1440 C   0  0  0  0  0  0  0  0  0  0  0  0
  129.5810  124.6970   71.4430 O   0  0  0  0  0  0  0  0  0  0  0  0
  128.9750  125.4130   70.4280 C   0  0  0  0  0  0  0  0  0  0  0  0
  127.8700  126.1840   70.7830 C   0  0  0  0  0  0  0  0  0  0  0  0
  127.1950  126.9360   69.8270 C   0  0  0  0  0  0  0  0  0  0  0  0
  127.6070  126.9390   68.4860 C   0  0  0  0  0  0  0  0  0  0  0  0
  126.8800  127.7450   67.4510 C   0  0  0  0  0  0  0  0  0  0  0  0
  127.4680  128.0590   66.2160 C   0  0  0  0  0  0  0  0  0  0  0  0
  126.7770  128.8040   65.2440 C   0  0  0  0  0  0  0  0  0  0  0  0
  127.4230  129.0210   63.9020 C   0  0  0  0  0  0  0  0  0  0  0  0
  128.3040  129.8690   63.7650 O   0  0  0  0  0  0  0  0  0  0  0  0
  126.9550  128.2550   62.8960 N   0  0  0  0  0  0  0  0  0  0  0  0
  127.3290  128.3700   61.4830 C   0  0  0  0  0  0  0  0  0  0  0  0
  126.4910  129.4220   60.7190 C   0  0  0  0  0  0  0  0  0  0  0  0
  127.2410  130.7040   60.3740 C   0  0  0  0  0  0  0  0  0  0  0  0
  127.9070  131.4190   61.3740 C   0  0  0  0  0  0  0  0  0  0  0  0
  128.6200  132.5700   61.0500 C   0  0  0  0  0  0  0  0  0  0  0  0
  128.6590  133.0060   59.7280 C   0  0  0  0  0  0  0  0  0  0  0  0
  127.9940  132.3020   58.7260 C   0  0  0  0  0  0  0  0  0  0  0  0
  127.2820  131.1500   59.0500 C   0  0  0  0  0  0  0  0  0  0  0  0
  125.4770  129.2430   65.5960 C   0  0  0  0  0  0  0  0  0  0  0  0
  124.4030  130.0240   65.0300 C   0  0  0  0  0  0  0  0  0  0  0  0
  124.3540  130.7760   63.7410 C   0  0  0  0  0  0  0  0  0  0  0  0
  125.1360  131.9220   63.5650 C   0  0  0  0  0  0  0  0  0  0  0  0
  125.0770  132.6310   62.3680 C   0  0  0  0  0  0  0  0  0  0  0  0
  124.2390  132.1950   61.3410 C   0  0  0  0  0  0  0  0  0  0  0  0
  124.1610  132.9780   60.0430 C   0  0  0  0  0  0  0  0  0  0  0  0
  123.4560  131.0520   61.5130 C   0  0  0  0  0  0  0  0  0  0  0  0
  123.5180  130.3440   62.7090 C   0  0  0  0  0  0  0  0  0  0  0  0
  123.3680  130.0410   65.8400 N   0  0  0  0  0  0  0  0  0  0  0  0
  123.7010  129.3630   66.9500 N   0  0  0  0  0  0  0  0  0  0  0  0
  124.9790  128.8630   66.8660 C   0  0  0  0  0  0  0  0  0  0  0  0
  125.6220  128.1490   67.7880 N   0  0  0  0  0  0  0  0  0  0  0  0
  128.7180  126.1590   68.1370 C   0  0  0  0  0  0  0  0  0  0  0  0
  129.3970  125.4060   69.0920 C   0  0  0  0  0  0  0  0  0  0  0  0
  1  2  1  0
  2  3  1  0
  3  4  1  0
  4  5  2  0
  5  6  1  0
  6  7  2  0
  7  8  1  0
  8  9  2  0
  9 10  1  0
 10 11  1  0
 11 12  2  0
 11 13  1  0
 13 14  1  0
 14 15  1  0
 15 16  1  0
 16 17  2  0
 17 18  1  0
 18 19  2  0
 19 20  1  0
 20 21  2  0
 10 22  2  0
 22 23  1  0
 23 24  1  0
 24 25  2  0
 25 26  1  0
 26 27  2  0
 27 28  1  0
 27 29  1  0
 29 30  2  0
 23 31  2  0
 31 32  1  0
 32 33  1  0
 33 34  2  0
  7 35  1  0
 35 36  2  0
 36  4  1  0
 34  8  1  0
 21 16  1  0
 33 22  1  0
 30 24  1  0
M  END
>  <Binding energies>  (57) 
[-9.55]

>  <Ligand effiencies>  (57) 
[-0.2513157894736842]

>  <Interactions>  (57) 
["V-B:GLU:543:CD:9880, V-B:ASP:366:CG:8184, H-B:GLU:543:OE2:9882, V-A:PRO:540:N:4884, V-A:TYR:539:C:4867, V-A:TYR:539:CE2:4876, V-A:PRO:540:CA:4883, V-A:TYR:539:CD2:4874, V-B:LEU:475:CD1:9229, V-A:ALA:541:CB:4892, V-B:GLU:543:C:9874, V-B:GLU:543:CB:9878, V-B:GLY:544:C:9884, V-B:HIS:456:CE1:9040, V-B:ARG:545:CG:9894, H-B:LYS:547:NZ:9923, V-A:HIS:456:CE1:4069, V-A:HIS:456:CG:4066, V-A:HIS:456:CD2:4068, V-A:HIS:456:CB:4065, H-B:GLU:543:OE1:9881, H-B:TYR:484:OH:9319, H-B:ARG:545:NE:9896, H-B:GLY:454:N:9021, H-A:HIS:456:NE2:4070, V-B:ILE:369:CD1:8210, V-B:ARG:545:CD:9895, V-B:ILE:369:CG2:8208, V-B:ARG:545:CZ:9898, V-B:GLY:454:CA:9020, V-A:TYR:484:CE1:4345, H-B:ILE:455:N:9026, V-B:ARG:545:CB:9893, V-A:TYR:484:CZ:4347, V-A:TYR:539:CZ:4877, V-A:TYR:484:CD2:4344, V-B:ILE:455:C:9023, H-B:HIS:456:ND1:9038, V-A:TYR:484:CG:4342, V-A:TYR:484:CE2:4346, V-A:TYR:484:CD1:4343, H-B:ILE:455:O:9024"]

$$$$
