1a_Grossjean_2025
     RDKit          3D

 26 27  0  0  0  0  0  0  0  0999 V2000
  133.9530  123.9550   60.7490 C   0  0  0  0  0  0  0  0  0  0  0  0
  134.1190  124.2720   59.2600 C   0  0  0  0  0  0  0  0  0  0  0  0
  132.8410  124.3110   58.6380 O   0  0  0  0  0  0  0  0  0  0  0  0
  132.4810  125.3500   57.8410 C   0  0  0  0  0  0  0  0  0  0  0  0
  132.7860  125.4280   56.6470 O   0  0  0  0  0  0  0  0  0  0  0  0
  131.6890  126.4030   58.5610 C   0  0  0  0  0  0  0  0  0  0  0  0
  131.3370  127.5770   57.8820 C   0  0  0  0  0  0  0  0  0  0  0  0
  130.6060  128.5730   58.5230 C   0  0  0  0  0  0  0  0  0  0  0  0
  130.2150  128.4200   59.8530 C   0  0  0  0  0  0  0  0  0  0  0  0
  129.4830  129.4910   60.4020 N   0  0  0  0  0  0  0  0  0  0  0  0
  128.2410  129.9330   60.1110 C   0  0  0  0  0  0  0  0  0  0  0  0
  127.4880  129.4460   59.2670 O   0  0  0  0  0  0  0  0  0  0  0  0
  127.7680  131.1420   60.9210 C   0  0  0  0  0  0  0  0  0  0  0  0
  128.6340  132.6670   60.4430 S   0  0  0  0  0  0  0  0  0  0  0  0
  130.3020  132.2230   60.0130 C   0  0  0  0  0  0  0  0  0  0  0  0
  131.0600  131.8490   61.0750 N   0  0  0  0  0  0  0  0  0  0  0  0
  132.3490  131.4940   60.8610 C   0  0  0  0  0  0  0  0  0  0  0  0
  133.1380  131.1010   62.0960 C   0  0  0  0  0  0  0  0  0  0  0  0
  132.9270  131.4880   59.5940 C   0  0  0  0  0  0  0  0  0  0  0  0
  132.1490  131.8510   58.4900 C   0  0  0  0  0  0  0  0  0  0  0  0
  132.7990  131.8220   57.1080 C   0  0  0  0  0  0  0  0  0  0  0  0
  130.7990  132.2220   58.6880 C   0  0  0  0  0  0  0  0  0  0  0  0
  129.9500  132.5590   57.5420 C   0  0  0  0  0  0  0  0  0  0  0  0
  129.2830  132.8250   56.6350 N   0  0  0  0  0  0  0  0  0  0  0  0
  130.5560  127.2440   60.5380 C   0  0  0  0  0  0  0  0  0  0  0  0
  131.2870  126.2480   59.8970 C   0  0  0  0  0  0  0  0  0  0  0  0
  1  2  1  0
  2  3  1  0
  3  4  1  0
  4  5  2  0
  4  6  1  0
  6  7  2  0
  7  8  1  0
  8  9  2  0
  9 10  1  0
 10 11  1  0
 11 12  2  0
 11 13  1  0
 13 14  1  0
 14 15  1  0
 15 16  2  0
 16 17  1  0
 17 18  1  0
 17 19  2  0
 19 20  1  0
 20 21  1  0
 20 22  2  0
 22 23  1  0
 23 24  3  0
  9 25  1  0
 25 26  2  0
 26  6  1  0
 22 15  1  0
M  END
>  <Binding energies>  (1) 
[-6.78]

>  <Ligand effiencies>  (1) 
[-0.2511111111111111]

>  <Interactions>  (1) 
["V-A:ILE:369:CG2:3234, V-A:ARG:545:CZ:4924, V-A:ASP:366:CG:3210, V-A:TYR:531:CE2:4791, V-A:ASP:366:CB:3209, V-A:LEU:363:CD1:3186, V-A:PRO:540:CA:4881, V-A:TYR:539:C:4865, V-A:PRO:540:CB:4883, V-A:PRO:540:N:4882, H-A:TYR:539:N:4868, H-A:ALA:541:N:4889, H-A:GLU:543:OE1:4907, V-A:ILE:369:CD1:3236, V-A:ASP:366:CA:3207, V-A:PRO:540:C:4879, V-A:ILE:369:CB:3233, H-B:TYR:539:OH:9850, H-A:TYR:531:OH:4793, V-A:ASN:362:CB:3173"]

$$$$
1aa_Ghoteimi_2023
     RDKit          3D

 40 43  0  0  0  0  0  0  0  0999 V2000
  131.5110  126.8970   73.7970 C   0  0  0  0  0  0  0  0  0  0  0  0
  129.9970  126.8060   74.0080 C   0  0  0  0  0  0  0  0  0  0  0  0
  129.3770  127.9860   73.5120 O   0  0  0  0  0  0  0  0  0  0  0  0
  128.5340  127.9420   72.4490 C   0  0  0  0  0  0  0  0  0  0  0  0
  127.3080  128.0570   72.5480 O   0  0  0  0  0  0  0  0  0  0  0  0
  129.2400  127.7380   71.1390 C   0  0  0  0  0  0  0  0  0  0  0  0
  130.6230  127.9280   71.0040 C   0  0  0  0  0  0  0  0  0  0  0  0
  131.2510  127.7310   69.7760 C   0  0  0  0  0  0  0  0  0  0  0  0
  130.5020  127.3370   68.6580 C   0  0  0  0  0  0  0  0  0  0  0  0
  131.0250  127.1100   67.3720 N   0  0  0  0  0  0  0  0  0  0  0  0
  130.7150  126.1660   66.4530 C   0  0  0  0  0  0  0  0  0  0  0  0
  129.8590  125.2940   66.6020 O   0  0  0  0  0  0  0  0  0  0  0  0
  131.4910  126.1930   65.1270 C   0  0  0  0  0  0  0  0  0  0  0  0
  130.9280  125.2580   64.1970 O   0  0  0  0  0  0  0  0  0  0  0  0
  130.2990  125.7070   63.0450 C   0  0  0  0  0  0  0  0  0  0  0  0
  130.2450  127.0500   62.8260 N   0  0  0  0  0  0  0  0  0  0  0  0
  129.6240  127.5300   61.7160 C   0  0  0  0  0  0  0  0  0  0  0  0
  129.6110  129.0220   61.5460 C   0  0  0  0  0  0  0  0  0  0  0  0
  128.4210  129.7040   61.2530 C   0  0  0  0  0  0  0  0  0  0  0  0
  128.4060  131.0870   61.0930 C   0  0  0  0  0  0  0  0  0  0  0  0
  129.5770  131.8300   61.2240 C   0  0  0  0  0  0  0  0  0  0  0  0
  129.4670  133.1960   61.0480 O   0  0  0  0  0  0  0  0  0  0  0  0
  128.3220  133.8710   61.5580 C   0  0  0  0  0  0  0  0  0  0  0  0
  130.7730  131.1630   61.5220 C   0  0  0  0  0  0  0  0  0  0  0  0
  130.7850  129.7810   61.6810 C   0  0  0  0  0  0  0  0  0  0  0  0
  129.0550  126.6550   60.7830 C   0  0  0  0  0  0  0  0  0  0  0  0
  129.1060  125.2680   60.9790 C   0  0  0  0  0  0  0  0  0  0  0  0
  128.4900  124.3880   59.9420 C   0  0  0  0  0  0  0  0  0  0  0  0
  127.2520  123.7820   60.1790 C   0  0  0  0  0  0  0  0  0  0  0  0
  126.6660  122.9680   59.2140 C   0  0  0  0  0  0  0  0  0  0  0  0
  127.3000  122.7480   57.9910 C   0  0  0  0  0  0  0  0  0  0  0  0
  126.6440  121.9260   57.0950 O   0  0  0  0  0  0  0  0  0  0  0  0
  125.4850  122.4120   56.4280 C   0  0  0  0  0  0  0  0  0  0  0  0
  128.5380  123.3610   57.7460 C   0  0  0  0  0  0  0  0  0  0  0  0
  129.1230  124.1730   58.7130 C   0  0  0  0  0  0  0  0  0  0  0  0
  129.7380  124.7830   62.1470 C   0  0  0  0  0  0  0  0  0  0  0  0
  129.8010  123.3540   62.4590 C   0  0  0  0  0  0  0  0  0  0  0  0
  129.8520  122.2250   62.7070 N   0  0  0  0  0  0  0  0  0  0  0  0
  129.1250  127.1490   68.7890 C   0  0  0  0  0  0  0  0  0  0  0  0
  128.4990  127.3470   70.0160 C   0  0  0  0  0  0  0  0  0  0  0  0
  1  2  1  0
  2  3  1  0
  3  4  1  0
  4  5  2  0
  4  6  1  0
  6  7  2  0
  7  8  1  0
  8  9  2  0
  9 10  1  0
 10 11  1  0
 11 12  2  0
 11 13  1  0
 13 14  1  0
 14 15  1  0
 15 16  2  0
 16 17  1  0
 17 18  1  0
 18 19  2  0
 19 20  1  0
 20 21  2  0
 21 22  1  0
 22 23  1  0
 21 24  1  0
 24 25  2  0
 17 26  2  0
 26 27  1  0
 27 28  1  0
 28 29  2  0
 29 30  1  0
 30 31  2  0
 31 32  1  0
 32 33  1  0
 31 34  1  0
 34 35  2  0
 27 36  2  0
 36 37  1  0
 37 38  3  0
  9 39  1  0
 39 40  2  0
 40  6  1  0
 36 15  1  0
 25 18  1  0
 35 28  1  0
M  END
>  <Binding energies>  (2) 
[-6.23]

>  <Ligand effiencies>  (2) 
[-0.15195121951219515]

>  <Interactions>  (2) 
["V-B:PRO:540:CA:9855, V-B:PRO:540:N:9856, V-A:GLU:543:CD:4906, V-B:GLU:543:CD:9880, V-B:TYR:539:CD1:9845, V-A:ARG:545:CZ:4924, V-B:ALA:541:CB:9864, V-B:TYR:539:CE1:9847, V-B:TYR:539:C:9839, V-A:TYR:539:C:4865, H-A:ARG:545:NH2:4926, H-A:ALA:541:N:4889, V-A:TYR:539:CD1:4871, H-A:TYR:484:OH:4345, V-A:HIS:456:CE1:4066, H-A:GLU:543:OE2:4908, V-A:ARG:545:CG:4920, V-A:ALA:541:CB:4890, V-A:PRO:540:C:4879, V-B:PRO:540:CB:9857, V-B:PRO:540:CD:9859, V-A:GLU:543:CG:4905, V-A:GLU:543:C:4900, V-B:HIS:456:CE1:9040, H-B:TYR:539:N:9842, V-B:ILE:538:CB:9834, V-B:ILE:538:CA:9832, V-B:ILE:538:CG2:9835, V-A:ALA:541:CA:4888, H-A:LYS:547:NZ:4949, V-A:LYS:547:CE:4948, V-A:GLY:544:CA:4912, V-A:HIS:456:CD2:4065, V-A:GLY:544:C:4910, V-B:HIS:456:CD2:9039, V-B:LYS:547:CE:9922, V-B:GLU:543:C:9874, V-A:HIS:456:CG:4063, H-B:HIS:456:NE2:9041, V-B:LEU:363:CD1:8160"]

$$$$
1b_Grossjean_2025
     RDKit          3D

 25 26  0  0  0  0  0  0  0  0999 V2000
  134.0100  124.2950   59.1260 C   0  0  0  0  0  0  0  0  0  0  0  0
  132.7140  124.4620   58.5660 O   0  0  0  0  0  0  0  0  0  0  0  0
  132.4510  125.4820   57.7090 C   0  0  0  0  0  0  0  0  0  0  0  0
  132.8680  125.5190   56.5470 O   0  0  0  0  0  0  0  0  0  0  0  0
  131.5930  126.5570   58.3120 C   0  0  0  0  0  0  0  0  0  0  0  0
  130.9770  127.5430   57.5260 C   0  0  0  0  0  0  0  0  0  0  0  0
  130.1890  128.5270   58.1170 C   0  0  0  0  0  0  0  0  0  0  0  0
  129.9990  128.5480   59.4980 C   0  0  0  0  0  0  0  0  0  0  0  0
  129.1850  129.5880   59.9850 N   0  0  0  0  0  0  0  0  0  0  0  0
  128.0090  130.0640   59.5200 C   0  0  0  0  0  0  0  0  0  0  0  0
  127.4060  129.6410   58.5340 O   0  0  0  0  0  0  0  0  0  0  0  0
  127.4060  131.2180   60.3230 C   0  0  0  0  0  0  0  0  0  0  0  0
  128.3900  132.7400   60.1810 S   0  0  0  0  0  0  0  0  0  0  0  0
  130.0890  132.2550   59.9600 C   0  0  0  0  0  0  0  0  0  0  0  0
  130.7200  131.9340   61.1170 N   0  0  0  0  0  0  0  0  0  0  0  0
  132.0170  131.5490   61.0650 C   0  0  0  0  0  0  0  0  0  0  0  0
  132.6540  131.1920   62.3950 C   0  0  0  0  0  0  0  0  0  0  0  0
  132.7330  131.4800   59.8710 C   0  0  0  0  0  0  0  0  0  0  0  0
  132.0960  131.8300   58.6760 C   0  0  0  0  0  0  0  0  0  0  0  0
  132.9060  131.7610   57.3820 C   0  0  0  0  0  0  0  0  0  0  0  0
  130.7430  132.2350   58.7060 C   0  0  0  0  0  0  0  0  0  0  0  0
  130.0680  132.6480   57.4730 C   0  0  0  0  0  0  0  0  0  0  0  0
  129.5390  132.9740   56.4970 N   0  0  0  0  0  0  0  0  0  0  0  0
  130.6120  127.5650   60.2910 C   0  0  0  0  0  0  0  0  0  0  0  0
  131.3990  126.5820   59.7000 C   0  0  0  0  0  0  0  0  0  0  0  0
  1  2  1  0
  2  3  1  0
  3  4  2  0
  3  5  1  0
  5  6  2  0
  6  7  1  0
  7  8  2  0
  8  9  1  0
  9 10  1  0
 10 11  2  0
 10 12  1  0
 12 13  1  0
 13 14  1  0
 14 15  2  0
 15 16  1  0
 16 17  1  0
 16 18  2  0
 18 19  1  0
 19 20  1  0
 19 21  2  0
 21 22  1  0
 22 23  3  0
  8 24  1  0
 24 25  2  0
 25  5  1  0
 21 14  1  0
M  END
>  <Binding energies>  (3) 
[-6.64]

>  <Ligand effiencies>  (3) 
[-0.2553846153846154]

>  <Interactions>  (3) 
["V-A:GLU:543:CD:4906, V-A:ILE:369:CG2:3234, V-A:ARG:545:CZ:4924, V-A:ASP:366:CG:3210, V-A:TYR:531:CE2:4791, V-A:ASP:366:CB:3209, V-A:LEU:363:CD1:3186, V-A:PRO:540:CA:4881, V-A:TYR:539:C:4865, V-A:PRO:540:CB:4883, V-A:PRO:540:N:4882, V-A:TYR:539:CE1:4873, H-A:TYR:539:N:4868, H-A:ALA:541:N:4889, V-A:ILE:369:CD1:3236, V-A:ASP:366:CA:3207, V-A:PRO:540:C:4879, V-A:ILE:369:CB:3233, H-B:TYR:539:OH:9850, H-A:TYR:531:OH:4793, V-A:ASN:362:CB:3173"]

$$$$
1c_Grossjean_2025
     RDKit          3D

 23 24  0  0  0  0  0  0  0  0999 V2000
  127.4260  128.7810   75.2440 C   0  0  0  0  0  0  0  0  0  0  0  0
  128.6220  128.1960   74.7410 O   0  0  0  0  0  0  0  0  0  0  0  0
  128.7040  127.8810   73.3980 C   0  0  0  0  0  0  0  0  0  0  0  0
  129.9870  127.7840   72.8600 C   0  0  0  0  0  0  0  0  0  0  0  0
  130.1740  127.4710   71.5170 C   0  0  0  0  0  0  0  0  0  0  0  0
  129.0640  127.2420   70.6890 C   0  0  0  0  0  0  0  0  0  0  0  0
  129.1380  126.9290   69.3180 N   0  0  0  0  0  0  0  0  0  0  0  0
  130.0130  127.3630   68.3860 C   0  0  0  0  0  0  0  0  0  0  0  0
  130.9530  128.1300   68.5910 O   0  0  0  0  0  0  0  0  0  0  0  0
  129.7850  126.8250   66.9720 C   0  0  0  0  0  0  0  0  0  0  0  0
  130.6500  125.2500   66.6990 S   0  0  0  0  0  0  0  0  0  0  0  0
  131.2360  125.2150   65.0170 C   0  0  0  0  0  0  0  0  0  0  0  0
  130.2380  125.1740   64.0980 N   0  0  0  0  0  0  0  0  0  0  0  0
  130.5620  125.1440   62.7850 C   0  0  0  0  0  0  0  0  0  0  0  0
  129.3930  125.1100   61.8180 C   0  0  0  0  0  0  0  0  0  0  0  0
  131.8800  125.1420   62.3360 C   0  0  0  0  0  0  0  0  0  0  0  0
  132.9170  125.1580   63.2740 C   0  0  0  0  0  0  0  0  0  0  0  0
  134.3550  125.1380   62.7570 C   0  0  0  0  0  0  0  0  0  0  0  0
  132.6030  125.1880   64.6520 C   0  0  0  0  0  0  0  0  0  0  0  0
  133.6750  125.1500   65.6500 C   0  0  0  0  0  0  0  0  0  0  0  0
  134.5220  125.1210   66.4370 N   0  0  0  0  0  0  0  0  0  0  0  0
  127.7780  127.3490   71.2220 C   0  0  0  0  0  0  0  0  0  0  0  0
  127.5960  127.6630   72.5660 C   0  0  0  0  0  0  0  0  0  0  0  0
  1  2  1  0
  2  3  1  0
  3  4  2  0
  4  5  1  0
  5  6  2  0
  6  7  1  0
  7  8  1  0
  8  9  2  0
  8 10  1  0
 10 11  1  0
 11 12  1  0
 12 13  2  0
 13 14  1  0
 14 15  1  0
 14 16  2  0
 16 17  1  0
 17 18  1  0
 17 19  2  0
 19 20  1  0
 20 21  3  0
  6 22  1  0
 22 23  2  0
 23  3  1  0
 19 12  1  0
M  END
>  <Binding energies>  (4) 
[-7.1]

>  <Ligand effiencies>  (4) 
[-0.29583333333333334]

>  <Interactions>  (4) 
["V-A:GLU:543:CD:4906, V-B:GLU:543:CD:9880, V-A:GLY:454:CA:4046, V-A:ARG:545:CZ:4924, H-A:GLY:454:N:4047, V-A:GLY:453:C:4039, H-B:GLU:543:O:9875, V-A:GLY:453:CA:4041, H-A:HIS:456:NE2:4067, V-A:ARG:545:CD:4921, H-A:TYR:484:OH:4345, V-B:GLU:543:CB:9878, V-A:HIS:456:CE1:4066, V-A:ARG:545:CG:4920, H-A:ARG:545:NE:4922, V-B:GLU:543:CG:9879, V-A:GLU:543:CG:4905, V-B:HIS:456:CE1:9040, H-A:ILE:455:N:4052, H-A:LYS:547:NZ:4949, V-A:LYS:547:CE:4948, V-A:HIS:456:CD2:4065, V-B:GLY:544:C:9884, V-A:GLY:544:C:4910, V-B:HIS:456:CD2:9039, V-B:GLU:543:C:9874, V-B:HIS:456:CG:9037, V-B:GLY:544:CA:9886, H-B:LYS:547:NZ:9923"]

$$$$
1d_Grossjean_2025
     RDKit          3D

 21 22  0  0  0  0  0  0  0  0999 V2000
  133.4350  125.4910   66.2910 C   0  0  0  0  0  0  0  0  0  0  0  0
  132.8150  125.4440   64.9090 C   0  0  0  0  0  0  0  0  0  0  0  0
  131.5270  125.9190   64.6700 C   0  0  0  0  0  0  0  0  0  0  0  0
  131.0100  125.8600   63.3710 C   0  0  0  0  0  0  0  0  0  0  0  0
  129.6020  126.4020   63.1310 C   0  0  0  0  0  0  0  0  0  0  0  0
  131.8010  125.3110   62.3360 C   0  0  0  0  0  0  0  0  0  0  0  0
  131.2990  125.2810   60.9610 C   0  0  0  0  0  0  0  0  0  0  0  0
  130.8990  125.2600   59.8750 N   0  0  0  0  0  0  0  0  0  0  0  0
  133.0880  124.8290   62.6750 C   0  0  0  0  0  0  0  0  0  0  0  0
  134.2150  124.1080   61.5020 S   0  0  0  0  0  0  0  0  0  0  0  0
  134.4080  122.3540   61.9430 C   0  0  0  0  0  0  0  0  0  0  0  0
  133.3420  121.4750   61.2880 C   0  0  0  0  0  0  0  0  0  0  0  0
  132.3770  122.0080   60.7400 O   0  0  0  0  0  0  0  0  0  0  0  0
  133.5720  120.1450   61.3500 N   0  0  0  0  0  0  0  0  0  0  0  0
  132.7960  119.0730   60.8720 C   0  0  0  0  0  0  0  0  0  0  0  0
  131.4110  119.2320   60.9780 C   0  0  0  0  0  0  0  0  0  0  0  0
  130.5520  118.2330   60.5290 C   0  0  0  0  0  0  0  0  0  0  0  0
  131.0780  117.0730   59.9670 C   0  0  0  0  0  0  0  0  0  0  0  0
  132.4550  116.9040   59.8470 C   0  0  0  0  0  0  0  0  0  0  0  0
  133.3170  117.9020   60.2960 C   0  0  0  0  0  0  0  0  0  0  0  0
  133.5890  124.9120   63.9340 N   0  0  0  0  0  0  0  0  0  0  0  0
  1  2  1  0
  2  3  2  0
  3  4  1  0
  4  5  1  0
  4  6  2  0
  6  7  1  0
  7  8  3  0
  6  9  1  0
  9 10  1  0
 10 11  1  0
 11 12  1  0
 12 13  2  0
 12 14  1  0
 14 15  1  0
 15 16  2  0
 16 17  1  0
 17 18  2  0
 18 19  1  0
 19 20  2  0
  9 21  2  0
 21  2  1  0
 20 15  1  0
M  END
>  <Binding energies>  (5) 
[-7.01]

>  <Ligand effiencies>  (5) 
[-0.3186363636363636]

>  <Interactions>  (5) 
["V-A:PRO:482:CG:4324, V-A:LEU:373:CD1:3277, V-A:LEU:475:CD2:4256, V-B:GLU:543:CD:9880, V-A:PRO:482:CB:4323, V-A:SER:385:CB:3406, V-A:ILE:369:CG2:3234, V-B:TYR:539:CB:9843, V-A:GLY:454:CA:4046, V-B:TYR:539:CD1:9845, V-A:ARG:545:CZ:4924, V-A:SER:385:CA:3404, H-A:GLY:454:N:4047, V-B:TYR:539:CE1:9847, V-B:TYR:539:C:9839, H-A:ARG:545:NH2:4926, V-A:GLY:453:C:4039, V-A:ARG:545:CD:4921, H-A:TYR:484:OH:4345, V-A:HIS:456:CE1:4066, V-A:ILE:369:CD1:3236, V-A:ARG:545:CG:4920, V-A:SER:385:C:3402, H-A:SER:385:O:3403, H-A:ARG:545:NE:4922, V-A:TYR:484:CZ:4344, V-B:TYR:539:CG:9844, V-B:VAL:344:CG1:7972"]

$$$$
1e_Grossjean_2025
     RDKit          3D

 22 23  0  0  0  0  0  0  0  0999 V2000
  133.1660  116.9090   60.3180 C   0  0  0  0  0  0  0  0  0  0  0  0
  132.3260  118.1200   60.6770 C   0  0  0  0  0  0  0  0  0  0  0  0
  131.0430  117.9870   61.2150 C   0  0  0  0  0  0  0  0  0  0  0  0
  130.3280  119.1460   61.5180 C   0  0  0  0  0  0  0  0  0  0  0  0
  130.9040  120.3960   61.2780 C   0  0  0  0  0  0  0  0  0  0  0  0
  132.1960  120.4570   60.7420 C   0  0  0  0  0  0  0  0  0  0  0  0
  132.7180  121.7430   60.5120 N   0  0  0  0  0  0  0  0  0  0  0  0
  133.8280  122.3050   61.0360 C   0  0  0  0  0  0  0  0  0  0  0  0
  134.5850  121.7590   61.8420 O   0  0  0  0  0  0  0  0  0  0  0  0
  134.1200  123.7410   60.5940 C   0  0  0  0  0  0  0  0  0  0  0  0
  132.6000  124.7240   60.4290 S   0  0  0  0  0  0  0  0  0  0  0  0
  131.3210  123.9660   61.4120 C   0  0  0  0  0  0  0  0  0  0  0  0
  130.2460  123.5680   60.6840 N   0  0  0  0  0  0  0  0  0  0  0  0
  129.2080  122.9800   61.3220 C   0  0  0  0  0  0  0  0  0  0  0  0
  128.0470  122.5540   60.4430 C   0  0  0  0  0  0  0  0  0  0  0  0
  129.1900  122.7770   62.7000 C   0  0  0  0  0  0  0  0  0  0  0  0
  130.2810  123.2060   63.4640 C   0  0  0  0  0  0  0  0  0  0  0  0
  130.2300  122.9880   64.9750 C   0  0  0  0  0  0  0  0  0  0  0  0
  131.3760  123.8250   62.8190 C   0  0  0  0  0  0  0  0  0  0  0  0
  132.4990  124.3330   63.6100 C   0  0  0  0  0  0  0  0  0  0  0  0
  133.3860  124.7330   64.2380 N   0  0  0  0  0  0  0  0  0  0  0  0
  132.8990  119.3270   60.4390 N   0  0  0  0  0  0  0  0  0  0  0  0
  1  2  1  0
  2  3  2  0
  3  4  1  0
  4  5  2  0
  5  6  1  0
  6  7  1  0
  7  8  1  0
  8  9  2  0
  8 10  1  0
 10 11  1  0
 11 12  1  0
 12 13  2  0
 13 14  1  0
 14 15  1  0
 14 16  2  0
 16 17  1  0
 17 18  1  0
 17 19  2  0
 19 20  1  0
 20 21  3  0
  6 22  2  0
 22  2  1  0
 19 12  1  0
M  END
>  <Binding energies>  (6) 
[-6.36]

>  <Ligand effiencies>  (6) 
[-0.2765217391304348]

>  <Interactions>  (6) 
["V-A:PRO:482:CG:4324, V-A:LEU:373:CD1:3277, V-B:PRO:540:CA:9855, V-B:PRO:540:N:9856, V-A:LEU:475:CD2:4256, V-B:GLU:543:CD:9880, V-A:PRO:482:CB:4323, V-A:SER:385:CB:3406, V-A:ILE:369:CG2:3234, V-B:TYR:539:CD1:9845, V-A:SER:385:CA:3404, H-A:GLY:454:N:4047, V-B:ALA:541:CB:9864, V-B:TYR:539:CE1:9847, V-B:TYR:539:C:9839, H-A:TYR:484:OH:4345, V-B:GLU:543:CB:9878, V-A:ILE:369:CD1:3236, V-A:ILE:369:CB:3233, V-B:PRO:540:C:9853, V-A:TYR:484:CZ:4344, V-A:TYR:484:CE2:4343"]

$$$$
1f_Grossjean_2025
     RDKit          3D

 21 22  0  0  0  0  0  0  0  0999 V2000
  127.9620  126.7330   61.1180 C   0  0  0  0  0  0  0  0  0  0  0  0
  129.2250  126.1950   60.4720 C   0  0  0  0  0  0  0  0  0  0  0  0
  129.8490  126.8630   59.4230 C   0  0  0  0  0  0  0  0  0  0  0  0
  131.0040  126.3120   58.8580 C   0  0  0  0  0  0  0  0  0  0  0  0
  131.6610  127.0530   57.6950 C   0  0  0  0  0  0  0  0  0  0  0  0
  131.5130  125.0970   59.3720 C   0  0  0  0  0  0  0  0  0  0  0  0
  132.6900  124.4760   58.7580 C   0  0  0  0  0  0  0  0  0  0  0  0
  133.6190  123.9870   58.2720 N   0  0  0  0  0  0  0  0  0  0  0  0
  130.8310  124.5020   60.4590 C   0  0  0  0  0  0  0  0  0  0  0  0
  131.3220  122.9760   61.2360 S   0  0  0  0  0  0  0  0  0  0  0  0
  129.8220  122.1240   61.8320 C   0  0  0  0  0  0  0  0  0  0  0  0
  128.5320  122.4830   61.0800 C   0  0  0  0  0  0  0  0  0  0  0  0
  127.5120  122.7870   61.7000 O   0  0  0  0  0  0  0  0  0  0  0  0
  128.6270  122.4070   59.7360 N   0  0  0  0  0  0  0  0  0  0  0  0
  127.6560  122.6710   58.7500 C   0  0  0  0  0  0  0  0  0  0  0  0
  126.4490  123.3660   58.9540 C   0  0  0  0  0  0  0  0  0  0  0  0
  125.5750  123.5610   57.8810 C   0  0  0  0  0  0  0  0  0  0  0  0
  125.9300  123.0570   56.6290 C   0  0  0  0  0  0  0  0  0  0  0  0
  127.0880  122.3880   56.4060 N   0  0  0  0  0  0  0  0  0  0  0  0
  127.9280  122.2070   57.4580 C   0  0  0  0  0  0  0  0  0  0  0  0
  129.6970  125.0330   60.9820 N   0  0  0  0  0  0  0  0  0  0  0  0
  1  2  1  0
  2  3  2  0
  3  4  1  0
  4  5  1  0
  4  6  2  0
  6  7  1  0
  7  8  3  0
  6  9  1  0
  9 10  1  0
 10 11  1  0
 11 12  1  0
 12 13  2  0
 12 14  1  0
 14 15  1  0
 15 16  2  0
 16 17  1  0
 17 18  2  0
 18 19  1  0
 19 20  2  0
  9 21  2  0
 21  2  1  0
 20 15  1  0
M  END
>  <Binding energies>  (7) 
[-6.17]

>  <Ligand effiencies>  (7) 
[-0.28045454545454546]

>  <Interactions>  (7) 
["V-B:PRO:540:CA:9855, V-B:PRO:540:N:9856, V-B:TYR:539:CD1:9845, V-B:ALA:541:CB:9864, V-B:TYR:539:CE1:9847, V-B:TYR:539:C:9839, V-A:ASP:366:CG:3210, V-A:ASP:366:CB:3209, V-B:TYR:539:CZ:9849, H-B:ALA:541:N:9863, V-B:PRO:540:C:9853, V-B:PRO:540:CB:9857, H-B:TYR:539:OH:9850, H-B:TYR:539:O:9840, H-B:TYR:539:N:9842, V-B:TYR:539:CG:9844, V-B:TYR:539:CA:9841, V-B:TYR:539:CD2:9846, V-B:ILE:538:CB:9834, V-B:ILE:538:CG2:9835"]

$$$$
1g_Grossjean_2025
     RDKit          3D

 22 23  0  0  0  0  0  0  0  0999 V2000
  131.7260  125.4800   65.2010 C   0  0  0  0  0  0  0  0  0  0  0  0
  132.0920  125.0790   63.7850 C   0  0  0  0  0  0  0  0  0  0  0  0
  132.8280  123.9260   63.5200 C   0  0  0  0  0  0  0  0  0  0  0  0
  133.1500  123.6150   62.1950 C   0  0  0  0  0  0  0  0  0  0  0  0
  133.9710  122.3530   61.9300 C   0  0  0  0  0  0  0  0  0  0  0  0
  132.7160  124.4710   61.1580 C   0  0  0  0  0  0  0  0  0  0  0  0
  133.0860  124.1940   59.7680 C   0  0  0  0  0  0  0  0  0  0  0  0
  133.3810  123.9730   58.6700 N   0  0  0  0  0  0  0  0  0  0  0  0
  131.9520  125.6070   61.5170 C   0  0  0  0  0  0  0  0  0  0  0  0
  131.3170  126.7830   60.3420 S   0  0  0  0  0  0  0  0  0  0  0  0
  129.9110  127.6250   61.1280 C   0  0  0  0  0  0  0  0  0  0  0  0
  130.0280  129.1470   61.0300 C   0  0  0  0  0  0  0  0  0  0  0  0
  129.0580  129.8580   61.2990 O   0  0  0  0  0  0  0  0  0  0  0  0
  131.2200  129.6280   60.6380 N   0  0  0  0  0  0  0  0  0  0  0  0
  131.5690  131.0450   60.5320 C   0  0  0  0  0  0  0  0  0  0  0  0
  131.6290  131.5720   59.1020 C   0  0  0  0  0  0  0  0  0  0  0  0
  130.4870  132.1290   58.5150 C   0  0  0  0  0  0  0  0  0  0  0  0
  130.5410  132.6110   57.2100 C   0  0  0  0  0  0  0  0  0  0  0  0
  131.7370  132.5390   56.4970 C   0  0  0  0  0  0  0  0  0  0  0  0
  132.8780  131.9910   57.0780 C   0  0  0  0  0  0  0  0  0  0  0  0
  132.8250  131.5070   58.3820 C   0  0  0  0  0  0  0  0  0  0  0  0
  131.6630  125.9130   62.8080 N   0  0  0  0  0  0  0  0  0  0  0  0
  1  2  1  0
  2  3  2  0
  3  4  1  0
  4  5  1  0
  4  6  2  0
  6  7  1  0
  7  8  3  0
  6  9  1  0
  9 10  1  0
 10 11  1  0
 11 12  1  0
 12 13  2  0
 12 14  1  0
 14 15  1  0
 15 16  1  0
 16 17  2  0
 17 18  1  0
 18 19  2  0
 19 20  1  0
 20 21  2  0
  9 22  2  0
 22  2  1  0
 21 16  1  0
M  END
>  <Binding energies>  (8) 
[-6.98]

>  <Ligand effiencies>  (8) 
[-0.30347826086956525]

>  <Interactions>  (8) 
["V-A:GLY:454:CA:4046, V-A:ARG:545:CZ:4924, V-B:TYR:539:CE1:9847, V-A:ASP:366:CG:3210, V-A:TYR:531:CE2:4791, V-A:LEU:363:CD1:3186, V-A:PRO:540:CA:4881, V-A:TYR:539:C:4865, V-A:PRO:540:CB:4883, V-A:PRO:540:N:4882, H-A:ARG:545:NH2:4926, V-A:ILE:369:CD1:3236, H-A:ASP:366:OD2:3212, H-A:ASP:366:OD1:3211, V-A:ILE:538:CG2:4861, H-B:TYR:539:OH:9850, V-A:ILE:538:CB:4860, V-A:PRO:540:CD:4885"]

$$$$
1h_Grossjean_2025
     RDKit          3D

 28 29  0  0  0  0  0  0  0  0999 V2000
  134.0040  123.1950   61.9670 C   0  0  0  0  0  0  0  0  0  0  0  0
  133.8790  124.5660   62.3250 O   0  0  0  0  0  0  0  0  0  0  0  0
  132.6760  125.0290   62.8260 C   0  0  0  0  0  0  0  0  0  0  0  0
  131.6230  125.5010   62.0260 C   0  0  0  0  0  0  0  0  0  0  0  0
  130.4410  125.9670   62.6020 C   0  0  0  0  0  0  0  0  0  0  0  0
  129.2960  126.4550   61.7200 C   0  0  0  0  0  0  0  0  0  0  0  0
  129.0940  127.9040   61.7550 N   0  0  0  0  0  0  0  0  0  0  0  0
  130.0720  128.8260   61.7090 C   0  0  0  0  0  0  0  0  0  0  0  0
  131.2670  128.5500   61.6040 O   0  0  0  0  0  0  0  0  0  0  0  0
  129.6350  130.2880   61.8010 C   0  0  0  0  0  0  0  0  0  0  0  0
  131.0090  131.4320   61.4690 S   0  0  0  0  0  0  0  0  0  0  0  0
  131.0940  131.6970   59.7050 C   0  0  0  0  0  0  0  0  0  0  0  0
  132.2770  131.3780   59.1170 N   0  0  0  0  0  0  0  0  0  0  0  0
  132.4080  131.5510   57.7810 C   0  0  0  0  0  0  0  0  0  0  0  0
  133.7550  131.1680   57.1970 C   0  0  0  0  0  0  0  0  0  0  0  0
  131.3800  132.0450   56.9820 C   0  0  0  0  0  0  0  0  0  0  0  0
  130.1580  132.3800   57.5760 C   0  0  0  0  0  0  0  0  0  0  0  0
  129.0440  132.9180   56.6810 C   0  0  0  0  0  0  0  0  0  0  0  0
  129.9990  132.2070   58.9700 C   0  0  0  0  0  0  0  0  0  0  0  0
  128.7310  132.5510   59.6190 C   0  0  0  0  0  0  0  0  0  0  0  0
  127.7300  132.8230   60.1320 N   0  0  0  0  0  0  0  0  0  0  0  0
  130.2890  125.9300   63.9890 C   0  0  0  0  0  0  0  0  0  0  0  0
  131.3230  125.4590   64.8130 C   0  0  0  0  0  0  0  0  0  0  0  0
  131.2430  125.3960   66.1930 O   0  0  0  0  0  0  0  0  0  0  0  0
  130.2690  126.1800   66.8740 C   0  0  0  0  0  0  0  0  0  0  0  0
  132.5160  125.0210   64.2200 C   0  0  0  0  0  0  0  0  0  0  0  0
  133.5340  124.5510   65.0130 O   0  0  0  0  0  0  0  0  0  0  0  0
  133.9520  125.4640   66.0200 C   0  0  0  0  0  0  0  0  0  0  0  0
  1  2  1  0
  2  3  1  0
  3  4  2  0
  4  5  1  0
  5  6  1  0
  6  7  1  0
  7  8  1  0
  8  9  2  0
  8 10  1  0
 10 11  1  0
 11 12  1  0
 12 13  2  0
 13 14  1  0
 14 15  1  0
 14 16  2  0
 16 17  1  0
 17 18  1  0
 17 19  2  0
 19 20  1  0
 20 21  3  0
  5 22  2  0
 22 23  1  0
 23 24  1  0
 24 25  1  0
 23 26  2  0
 26 27  1  0
 27 28  1  0
 26  3  1  0
 19 12  1  0
M  END
>  <Binding energies>  (9) 
[-5.82]

>  <Ligand effiencies>  (9) 
[-0.2006896551724138]

>  <Interactions>  (9) 
["V-A:GLU:543:CD:4906, V-B:GLU:543:CD:9880, V-A:GLY:454:CA:4046, V-A:ARG:545:CZ:4924, H-A:GLY:454:N:4047, V-A:LEU:363:CA:3182, V-A:TYR:539:CE2:4874, V-A:TYR:539:CZ:4875, V-A:TYR:531:CE2:4791, V-A:ASP:366:CB:3209, V-A:TYR:531:CZ:4792, V-A:LEU:363:CD1:3186, V-A:PRO:540:CA:4881, V-A:TYR:539:C:4865, V-A:PRO:540:CB:4883, V-A:PRO:540:N:4882, V-A:TYR:539:CE1:4873, H-A:ARG:545:NH2:4926, H-A:ALA:541:N:4889, V-A:TYR:539:CD1:4871, V-A:GLY:453:C:4039, V-A:ARG:545:CD:4921, H-A:TYR:484:OH:4345, V-B:GLU:543:CB:9878, V-A:HIS:456:CE1:4066, V-A:ILE:369:CD1:3236, V-A:ARG:545:CG:4920, V-A:LEU:363:CB:3184, V-A:TYR:539:CG:4870, V-B:GLU:543:CG:9879, V-A:ILE:538:CA:4858, V-A:TYR:539:CD2:4872, V-A:TYR:539:CA:4867"]

$$$$
1i_Grossjean_2025
     RDKit          3D

 20 21  0  0  0  0  0  0  0  0999 V2000
  133.9350  123.6960   61.1120 C   0  0  0  0  0  0  0  0  0  0  0  0
  133.1190  122.4200   61.0270 C   0  0  0  0  0  0  0  0  0  0  0  0
  133.7210  121.1810   60.8250 C   0  0  0  0  0  0  0  0  0  0  0  0
  132.9190  120.0360   60.7650 C   0  0  0  0  0  0  0  0  0  0  0  0
  133.6040  118.6870   60.5600 C   0  0  0  0  0  0  0  0  0  0  0  0
  131.5170  120.1670   60.9040 C   0  0  0  0  0  0  0  0  0  0  0  0
  130.6630  118.9760   60.8940 C   0  0  0  0  0  0  0  0  0  0  0  0
  129.9900  118.0340   60.8880 N   0  0  0  0  0  0  0  0  0  0  0  0
  130.9900  121.4680   61.0810 C   0  0  0  0  0  0  0  0  0  0  0  0
  129.2550  121.8150   61.2700 S   0  0  0  0  0  0  0  0  0  0  0  0
  129.0980  123.2350   62.3940 C   0  0  0  0  0  0  0  0  0  0  0  0
  130.2600  123.3150   63.3870 C   0  0  0  0  0  0  0  0  0  0  0  0
  130.5750  122.3120   64.0290 O   0  0  0  0  0  0  0  0  0  0  0  0
  130.8670  124.5180   63.4780 N   0  0  0  0  0  0  0  0  0  0  0  0
  131.9330  124.8630   64.2970 C   0  0  0  0  0  0  0  0  0  0  0  0
  131.7720  125.4560   65.5470 C   0  0  0  0  0  0  0  0  0  0  0  0
  133.0490  125.6340   66.0270 C   0  0  0  0  0  0  0  0  0  0  0  0
  133.9340  125.1730   65.1120 O   0  0  0  0  0  0  0  0  0  0  0  0
  133.2150  124.6880   64.0180 N   0  0  0  0  0  0  0  0  0  0  0  0
  131.7790  122.5690   61.1580 N   0  0  0  0  0  0  0  0  0  0  0  0
  1  2  1  0
  2  3  2  0
  3  4  1  0
  4  5  1  0
  4  6  2  0
  6  7  1  0
  7  8  3  0
  6  9  1  0
  9 10  1  0
 10 11  1  0
 11 12  1  0
 12 13  2  0
 12 14  1  0
 14 15  1  0
 15 16  1  0
 16 17  2  0
 17 18  1  0
 18 19  1  0
  9 20  2  0
 20  2  1  0
 19 15  2  0
M  END
>  <Binding energies>  (10) 
[-6.41]

>  <Ligand effiencies>  (10) 
[-0.30523809523809525]

>  <Interactions>  (10) 
["V-A:PRO:482:CG:4324, V-A:LEU:373:CD1:3277, V-A:LEU:475:CD2:4256, H-B:GLU:543:OE1:9881, V-A:PRO:482:CB:4323, V-A:SER:385:CB:3406, V-A:ILE:369:CG2:3234, V-B:TYR:539:CD1:9845, V-A:ARG:545:CZ:4924, V-A:SER:385:CA:3404, H-A:GLY:454:N:4047, V-B:ALA:541:CB:9864, V-B:TYR:539:CE1:9847, V-A:ARG:545:CD:4921, H-A:TYR:484:OH:4345, V-A:HIS:456:CE1:4066, V-A:ILE:369:CD1:3236, V-A:ARG:545:CG:4920, H-B:ALA:541:N:9863, V-A:SER:385:C:3402, H-A:ARG:545:NE:4922"]

$$$$
1k_Grossjean_2025
     RDKit          3D

 25 25  0  0  0  0  0  0  0  0999 V2000
  134.4230  126.6520   74.4620 C   0  0  0  0  0  0  0  0  0  0  0  0
  133.0800  126.8300   74.8840 O   0  0  0  0  0  0  0  0  0  0  0  0
  132.1810  125.8790   74.3300 C   0  0  0  0  0  0  0  0  0  0  0  0
  131.1150  126.6050   73.4980 C   0  0  0  0  0  0  0  0  0  0  0  0
  129.8580  125.9670   73.6810 O   0  0  0  0  0  0  0  0  0  0  0  0
  129.1540  125.7340   72.4680 C   0  0  0  0  0  0  0  0  0  0  0  0
  128.8910  127.0710   71.7660 C   0  0  0  0  0  0  0  0  0  0  0  0
  129.9900  127.3870   70.9200 O   0  0  0  0  0  0  0  0  0  0  0  0
  129.6100  127.7210   69.5910 C   0  0  0  0  0  0  0  0  0  0  0  0
  130.8650  128.0590   68.7650 C   0  0  0  0  0  0  0  0  0  0  0  0
  130.9660  127.3210   67.5050 N   0  0  0  0  0  0  0  0  0  0  0  0
  130.2900  126.1970   67.2100 C   0  0  0  0  0  0  0  0  0  0  0  0
  129.4950  125.6660   67.9870 O   0  0  0  0  0  0  0  0  0  0  0  0
  130.5760  125.5980   65.8230 C   0  0  0  0  0  0  0  0  0  0  0  0
  132.3170  125.6680   65.2750 S   0  0  0  0  0  0  0  0  0  0  0  0
  132.4480  124.9500   63.6440 C   0  0  0  0  0  0  0  0  0  0  0  0
  133.2180  123.8350   63.5470 N   0  0  0  0  0  0  0  0  0  0  0  0
  133.3670  123.2470   62.3380 C   0  0  0  0  0  0  0  0  0  0  0  0
  134.2480  122.0130   62.3100 C   0  0  0  0  0  0  0  0  0  0  0  0
  132.7560  123.7340   61.1850 C   0  0  0  0  0  0  0  0  0  0  0  0
  131.9550  124.8770   61.2720 C   0  0  0  0  0  0  0  0  0  0  0  0
  131.2940  125.3940   59.9960 C   0  0  0  0  0  0  0  0  0  0  0  0
  131.7890  125.5090   62.5250 C   0  0  0  0  0  0  0  0  0  0  0  0
  130.9580  126.7100   62.6450 C   0  0  0  0  0  0  0  0  0  0  0  0
  130.3020  127.6590   62.7390 N   0  0  0  0  0  0  0  0  0  0  0  0
  1  2  1  0
  2  3  1  0
  3  4  1  0
  4  5  1  0
  5  6  1  0
  6  7  1  0
  7  8  1  0
  8  9  1  0
  9 10  1  0
 10 11  1  0
 11 12  1  0
 12 13  2  0
 12 14  1  0
 14 15  1  0
 15 16  1  0
 16 17  2  0
 17 18  1  0
 18 19  1  0
 18 20  2  0
 20 21  1  0
 21 22  1  0
 21 23  2  0
 23 24  1  0
 24 25  3  0
 23 16  1  0
M  END
>  <Binding energies>  (11) 
[-5.77]

>  <Ligand effiencies>  (11) 
[-0.22192307692307692]

>  <Interactions>  (11) 
["V-A:LEU:475:CD2:4256, V-A:GLU:543:CD:4906, V-B:GLU:543:CD:9880, V-A:GLY:454:CA:4046, V-A:ARG:545:CZ:4924, H-A:GLY:454:N:4047, H-A:ARG:545:NH2:4926, V-A:GLY:453:C:4039, H-A:HIS:456:NE2:4067, H-A:TYR:484:OH:4345, V-B:GLU:543:CB:9878, V-A:HIS:456:CE1:4066, H-A:GLU:543:OE2:4908, V-A:ILE:369:CD1:3236, V-A:ARG:545:CG:4920, H-A:ARG:545:NE:4922, V-B:GLU:543:CG:9879, V-A:GLU:543:CB:4904, V-A:GLU:543:CG:4905, V-A:GLU:543:C:4900, V-B:HIS:456:CE1:9040, H-A:LYS:547:NZ:4949, V-A:LYS:547:CE:4948, V-A:HIS:456:CD2:4065, V-A:GLY:544:C:4910, V-B:LYS:547:CE:9922, V-B:GLU:543:C:9874, V-B:GLY:544:CA:9886, V-A:HIS:456:CG:4063, H-B:LYS:547:NZ:9923, V-A:HIS:456:CB:4062, V-A:VAL:457:C:4070, V-A:LYS:547:CD:4947, V-A:LYS:547:CG:4946, V-A:VAL:458:CG2:4084, V-A:HIS:456:C:4058, V-A:HIS:456:CA:4060"]

$$$$
1l_Grossjean_2025
     RDKit          3D

 17 17  0  0  0  0  0  0  0  0999 V2000
  128.3540  128.1320   67.4340 C   0  0  0  0  0  0  0  0  0  0  0  0
  128.1400  127.7340   68.7800 O   0  0  0  0  0  0  0  0  0  0  0  0
  129.3520  127.7210   69.4700 N   0  0  0  0  0  0  0  0  0  0  0  0
  129.3790  127.2560   70.7340 C   0  0  0  0  0  0  0  0  0  0  0  0
  128.4510  126.6290   71.2520 O   0  0  0  0  0  0  0  0  0  0  0  0
  130.6730  127.5460   71.5070 C   0  0  0  0  0  0  0  0  0  0  0  0
  130.5170  127.4790   73.3250 S   0  0  0  0  0  0  0  0  0  0  0  0
  130.9240  125.8250   73.8570 C   0  0  0  0  0  0  0  0  0  0  0  0
  129.9650  124.8850   73.6470 N   0  0  0  0  0  0  0  0  0  0  0  0
  130.2070  123.6090   74.0280 C   0  0  0  0  0  0  0  0  0  0  0  0
  129.0890  122.6180   73.7600 C   0  0  0  0  0  0  0  0  0  0  0  0
  131.4010  123.2160   74.6260 C   0  0  0  0  0  0  0  0  0  0  0  0
  132.3970  124.1740   74.8460 C   0  0  0  0  0  0  0  0  0  0  0  0
  133.7000  123.7210   75.5030 C   0  0  0  0  0  0  0  0  0  0  0  0
  132.1650  125.5120   74.4570 C   0  0  0  0  0  0  0  0  0  0  0  0
  133.1910  126.5370   74.6760 C   0  0  0  0  0  0  0  0  0  0  0  0
  134.0010  127.3440   74.8490 N   0  0  0  0  0  0  0  0  0  0  0  0
  1  2  1  0
  2  3  1  0
  3  4  1  0
  4  5  2  0
  4  6  1  0
  6  7  1  0
  7  8  1  0
  8  9  2  0
  9 10  1  0
 10 11  1  0
 10 12  2  0
 12 13  1  0
 13 14  1  0
 13 15  2  0
 15 16  1  0
 16 17  3  0
 15  8  1  0
M  END
>  <Binding energies>  (12) 
[-5.73]

>  <Ligand effiencies>  (12) 
[-0.31833333333333336]

>  <Interactions>  (12) 
["V-A:GLU:543:CD:4906, V-B:GLU:543:CD:9880, H-A:HIS:456:NE2:4067, H-A:GLU:543:O:4901, V-A:HIS:456:CE1:4066, V-A:GLU:543:CB:4904, V-A:GLU:543:CG:4905, V-B:HIS:456:CE1:9040, H-A:LYS:547:NZ:4949, V-A:LYS:547:CE:4948, V-A:GLY:544:CA:4912, V-A:HIS:456:CD2:4065, V-A:GLY:544:C:4910, V-B:LYS:547:CE:9922, V-B:GLY:544:CA:9886, V-A:HIS:456:CG:4063, H-B:HIS:456:NE2:9041, H-B:LYS:547:NZ:9923, V-A:HIS:456:CB:4062, V-A:LYS:547:CD:4947, V-A:HIS:456:C:4058, V-A:ASP:473:CG:4237, V-A:LYS:471:CD:4216"]

$$$$
1m_Grossjean_2025
     RDKit          3D

 20 20  0  0  0  0  0  0  0  0999 V2000
  129.8890  126.0830   66.9430 C   0  0  0  0  0  0  0  0  0  0  0  0
  130.9680  126.9470   67.2720 O   0  0  0  0  0  0  0  0  0  0  0  0
  130.9080  127.7330   68.3670 C   0  0  0  0  0  0  0  0  0  0  0  0
  131.8480  128.3810   68.8370 O   0  0  0  0  0  0  0  0  0  0  0  0
  129.4920  127.7420   68.9790 C   0  0  0  0  0  0  0  0  0  0  0  0
  129.5070  127.8400   70.4470 N   0  0  0  0  0  0  0  0  0  0  0  0
  128.6020  127.2920   71.2790 C   0  0  0  0  0  0  0  0  0  0  0  0
  127.6290  126.6460   70.8840 O   0  0  0  0  0  0  0  0  0  0  0  0
  128.8500  127.5290   72.7750 C   0  0  0  0  0  0  0  0  0  0  0  0
  130.6070  127.5050   73.2690 S   0  0  0  0  0  0  0  0  0  0  0  0
  130.9990  125.8610   73.8270 C   0  0  0  0  0  0  0  0  0  0  0  0
  129.9930  124.9700   73.6400 N   0  0  0  0  0  0  0  0  0  0  0  0
  130.1800  123.6850   74.0210 C   0  0  0  0  0  0  0  0  0  0  0  0
  129.0190  122.7440   73.7620 C   0  0  0  0  0  0  0  0  0  0  0  0
  131.3620  123.2410   74.6110 C   0  0  0  0  0  0  0  0  0  0  0  0
  132.3960  124.1560   74.8330 C   0  0  0  0  0  0  0  0  0  0  0  0
  133.6760  123.6500   75.4950 C   0  0  0  0  0  0  0  0  0  0  0  0
  132.2230  125.5040   74.4440 C   0  0  0  0  0  0  0  0  0  0  0  0
  133.2730  126.4890   74.7120 C   0  0  0  0  0  0  0  0  0  0  0  0
  134.1030  127.2660   74.9240 N   0  0  0  0  0  0  0  0  0  0  0  0
  1  2  1  0
  2  3  1  0
  3  4  2  0
  3  5  1  0
  5  6  1  0
  6  7  1  0
  7  8  2  0
  7  9  1  0
  9 10  1  0
 10 11  1  0
 11 12  2  0
 12 13  1  0
 13 14  1  0
 13 15  2  0
 15 16  1  0
 16 17  1  0
 16 18  2  0
 18 19  1  0
 19 20  3  0
 18 11  1  0
M  END
>  <Binding energies>  (13) 
[-5.69]

>  <Ligand effiencies>  (13) 
[-0.27095238095238094]

>  <Interactions>  (13) 
["V-A:GLU:543:CD:4906, V-B:GLU:543:CD:9880, V-B:GLU:543:CB:9878, H-A:GLU:543:O:4901, V-A:HIS:456:CE1:4066, V-A:ARG:545:CG:4920, V-B:GLU:543:CG:9879, V-A:GLU:543:CB:4904, V-A:GLU:543:CG:4905, V-A:GLU:543:C:4900, V-B:HIS:456:CE1:9040, H-A:LYS:547:NZ:4949, V-A:LYS:547:CE:4948, H-A:GLY:544:O:4911, V-A:HIS:456:CD2:4065, V-B:LYS:547:CE:9922, V-B:GLY:544:CA:9886, V-A:HIS:456:CG:4063, H-B:GLY:544:N:9887, H-A:GLY:544:N:4913, H-A:ARG:545:N:4918, H-B:LYS:547:NZ:9923, V-A:HIS:456:CB:4062, V-A:LYS:547:CD:4947, V-A:VAL:458:CG2:4084, V-A:HIS:456:C:4058, V-A:ASP:473:CG:4237, H-B:ARG:545:N:9892, V-A:LYS:471:CD:4216"]

$$$$
1n_Grossjean_2025
     RDKit          3D

 27 28  0  0  0  0  0  0  0  0999 V2000
  131.7020  126.4670   73.7340 C   0  0  0  0  0  0  0  0  0  0  0  0
  130.2860  126.0210   73.3570 C   0  0  0  0  0  0  0  0  0  0  0  0
  129.3670  127.0640   73.6570 O   0  0  0  0  0  0  0  0  0  0  0  0
  129.2530  128.1520   72.8520 C   0  0  0  0  0  0  0  0  0  0  0  0
  129.0240  129.2900   73.2750 O   0  0  0  0  0  0  0  0  0  0  0  0
  129.4460  127.8360   71.3970 C   0  0  0  0  0  0  0  0  0  0  0  0
  130.6780  128.0290   70.7520 C   0  0  0  0  0  0  0  0  0  0  0  0
  130.8220  127.7280   69.4010 C   0  0  0  0  0  0  0  0  0  0  0  0
  129.7420  127.2380   68.6650 C   0  0  0  0  0  0  0  0  0  0  0  0
  129.9980  126.9730   67.3060 N   0  0  0  0  0  0  0  0  0  0  0  0
  130.3400  125.8150   66.7020 C   0  0  0  0  0  0  0  0  0  0  0  0
  130.4870  124.7310   67.2670 O   0  0  0  0  0  0  0  0  0  0  0  0
  130.5500  125.8960   65.1840 C   0  0  0  0  0  0  0  0  0  0  0  0
  131.8510  125.2090   64.7150 C   0  0  0  0  0  0  0  0  0  0  0  0
  132.0350  125.0960   62.9100 S   0  0  0  0  0  0  0  0  0  0  0  0
  131.0070  123.7570   62.3460 C   0  0  0  0  0  0  0  0  0  0  0  0
  129.6990  124.0950   62.2140 N   0  0  0  0  0  0  0  0  0  0  0  0
  128.8270  123.1590   61.7740 C   0  0  0  0  0  0  0  0  0  0  0  0
  127.3850  123.6110   61.6410 C   0  0  0  0  0  0  0  0  0  0  0  0
  129.2140  121.8580   61.4580 C   0  0  0  0  0  0  0  0  0  0  0  0
  130.5570  121.4940   61.6110 C   0  0  0  0  0  0  0  0  0  0  0  0
  130.9570  120.0600   61.2710 C   0  0  0  0  0  0  0  0  0  0  0  0
  131.4860  122.4540   62.0730 C   0  0  0  0  0  0  0  0  0  0  0  0
  132.8850  122.0810   62.2890 C   0  0  0  0  0  0  0  0  0  0  0  0
  133.9900  121.7830   62.4600 N   0  0  0  0  0  0  0  0  0  0  0  0
  128.5110  127.0340   69.3050 C   0  0  0  0  0  0  0  0  0  0  0  0
  128.3690  127.3320   70.6580 C   0  0  0  0  0  0  0  0  0  0  0  0
  1  2  1  0
  2  3  1  0
  3  4  1  0
  4  5  2  0
  4  6  1  0
  6  7  2  0
  7  8  1  0
  8  9  2  0
  9 10  1  0
 10 11  1  0
 11 12  2  0
 11 13  1  0
 13 14  1  0
 14 15  1  0
 15 16  1  0
 16 17  2  0
 17 18  1  0
 18 19  1  0
 18 20  2  0
 20 21  1  0
 21 22  1  0
 21 23  2  0
 23 24  1  0
 24 25  3  0
  9 26  1  0
 26 27  2  0
 27  6  1  0
 23 16  1  0
M  END
>  <Binding energies>  (14) 
[-7.15]

>  <Ligand effiencies>  (14) 
[-0.2553571428571429]

>  <Interactions>  (14) 
["V-A:LEU:475:CD2:4256, V-A:GLU:543:CD:4906, V-B:GLU:543:CD:9880, H-B:GLU:543:OE2:9882, V-A:GLY:454:CA:4046, V-B:TYR:539:CD1:9845, H-A:GLY:454:N:4047, V-B:ALA:541:CB:9864, V-B:TYR:539:CE1:9847, H-A:ARG:545:NH2:4926, H-A:HIS:456:NE2:4067, H-A:TYR:484:OH:4345, H-A:GLU:543:OE1:4907, V-B:GLU:543:CB:9878, V-A:HIS:456:CE1:4066, H-A:GLU:543:OE2:4908, V-B:ALA:541:CA:9862, V-B:GLU:543:CG:9879, V-A:GLU:543:CG:4905, V-A:GLU:543:C:4900, V-B:HIS:456:CE1:9040, H-A:LYS:547:NZ:4949, V-A:LYS:547:CE:4948, V-A:GLY:544:CA:4912, V-A:HIS:456:CD2:4065, V-B:GLY:544:C:9884, V-A:GLY:544:C:4910, V-B:HIS:456:CD2:9039, V-B:GLU:543:C:9874, V-A:HIS:456:CG:4063, H-B:HIS:456:NE2:9041, H-B:LYS:547:NZ:9923, V-A:HIS:456:CB:4062"]

$$$$
1q_Grossjean_2025
     RDKit          3D

 21 21  0  0  0  0  0  0  0  0999 V2000
  128.8690  132.6310   59.2840 C   0  0  0  0  0  0  0  0  0  0  0  0
  129.5450  131.9320   58.2490 O   0  0  0  0  0  0  0  0  0  0  0  0
  130.7330  132.3840   57.7750 C   0  0  0  0  0  0  0  0  0  0  0  0
  130.8790  133.1350   56.8100 O   0  0  0  0  0  0  0  0  0  0  0  0
  131.9600  131.8470   58.5410 C   0  0  0  0  0  0  0  0  0  0  0  0
  131.6350  130.7220   59.4310 N   0  0  0  0  0  0  0  0  0  0  0  0
  131.2870  130.8170   60.7290 C   0  0  0  0  0  0  0  0  0  0  0  0
  131.1990  131.8920   61.3260 O   0  0  0  0  0  0  0  0  0  0  0  0
  130.9810  129.4920   61.4420 C   0  0  0  0  0  0  0  0  0  0  0  0
  130.0950  128.5260   60.6310 C   0  0  0  0  0  0  0  0  0  0  0  0
  131.0300  127.2190   59.7820 S   0  0  0  0  0  0  0  0  0  0  0  0
  131.6240  126.0630   61.0000 C   0  0  0  0  0  0  0  0  0  0  0  0
  131.1390  126.2970   62.2460 N   0  0  0  0  0  0  0  0  0  0  0  0
  131.5220  125.4840   63.2580 C   0  0  0  0  0  0  0  0  0  0  0  0
  130.9520  125.8190   64.6240 C   0  0  0  0  0  0  0  0  0  0  0  0
  132.3850  124.4070   63.0710 C   0  0  0  0  0  0  0  0  0  0  0  0
  132.8700  124.1400   61.7870 C   0  0  0  0  0  0  0  0  0  0  0  0
  133.8020  122.9420   61.6060 C   0  0  0  0  0  0  0  0  0  0  0  0
  132.4830  124.9740   60.7140 C   0  0  0  0  0  0  0  0  0  0  0  0
  132.9360  124.6760   59.3540 C   0  0  0  0  0  0  0  0  0  0  0  0
  133.2960  124.4370   58.2800 N   0  0  0  0  0  0  0  0  0  0  0  0
  1  2  1  0
  2  3  1  0
  3  4  2  0
  3  5  1  0
  5  6  1  0
  6  7  1  0
  7  8  2  0
  7  9  1  0
  9 10  1  0
 10 11  1  0
 11 12  1  0
 12 13  2  0
 13 14  1  0
 14 15  1  0
 14 16  2  0
 16 17  1  0
 17 18  1  0
 17 19  2  0
 19 20  1  0
 20 21  3  0
 19 12  1  0
M  END
>  <Binding energies>  (15) 
[-5.68]

>  <Ligand effiencies>  (15) 
[-0.2581818181818182]

>  <Interactions>  (15) 
["V-A:GLU:543:CD:4906, V-B:GLU:543:CD:9880, V-A:ASP:366:CG:3210, V-A:ASP:366:CB:3209, V-A:PRO:540:CA:4881, V-A:TYR:539:C:4865, V-A:PRO:540:CB:4883, V-A:PRO:540:N:4882, V-A:TYR:539:CE1:4873, H-A:TYR:539:N:4868, H-A:ARG:545:NH2:4926, H-A:ALA:541:N:4889, V-A:TYR:539:CD1:4871, V-A:ILE:369:CD1:3236, H-A:ASP:366:OD2:3212, H-B:TYR:539:OH:9850, V-A:PRO:540:CD:4885"]

$$$$
2a_Grossjean_2025
     RDKit          3D

 29 30  0  0  0  0  0  0  0  0999 V2000
  127.1280  128.5430   75.2090 C   0  0  0  0  0  0  0  0  0  0  0  0
  126.6720  128.2040   73.7870 C   0  0  0  0  0  0  0  0  0  0  0  0
  127.7200  127.5260   73.1050 O   0  0  0  0  0  0  0  0  0  0  0  0
  128.8150  128.1960   72.6610 C   0  0  0  0  0  0  0  0  0  0  0  0
  129.4560  128.9900   73.3560 O   0  0  0  0  0  0  0  0  0  0  0  0
  129.1810  127.8570   71.2440 C   0  0  0  0  0  0  0  0  0  0  0  0
  130.4810  128.0390   70.7500 C   0  0  0  0  0  0  0  0  0  0  0  0
  130.7860  127.7160   69.4310 C   0  0  0  0  0  0  0  0  0  0  0  0
  129.8020  127.2140   68.5790 C   0  0  0  0  0  0  0  0  0  0  0  0
  130.2200  126.9360   67.2640 N   0  0  0  0  0  0  0  0  0  0  0  0
  130.5630  125.7610   66.6920 C   0  0  0  0  0  0  0  0  0  0  0  0
  130.5950  124.6710   67.2630 O   0  0  0  0  0  0  0  0  0  0  0  0
  130.9400  125.8340   65.2090 C   0  0  0  0  0  0  0  0  0  0  0  0
  132.5750  125.1120   64.8430 S   0  0  0  0  0  0  0  0  0  0  0  0
  132.4880  124.1540   63.3350 C   0  0  0  0  0  0  0  0  0  0  0  0
  133.3760  124.4980   62.3670 N   0  0  0  0  0  0  0  0  0  0  0  0
  133.3600  123.8250   61.1950 C   0  0  0  0  0  0  0  0  0  0  0  0
  134.3630  124.2850   60.1540 C   0  0  0  0  0  0  0  0  0  0  0  0
  132.4720  122.7830   60.9400 C   0  0  0  0  0  0  0  0  0  0  0  0
  131.5510  122.4040   61.9290 C   0  0  0  0  0  0  0  0  0  0  0  0
  130.5770  121.2490   61.6320 C   0  0  0  0  0  0  0  0  0  0  0  0
  131.1170  120.4110   60.7470 F   0  0  0  0  0  0  0  0  0  0  0  0
  130.3060  120.5810   62.7540 F   0  0  0  0  0  0  0  0  0  0  0  0
  129.4150  121.6720   61.1270 F   0  0  0  0  0  0  0  0  0  0  0  0
  131.5560  123.1050   63.1620 C   0  0  0  0  0  0  0  0  0  0  0  0
  130.6130  122.7530   64.2290 C   0  0  0  0  0  0  0  0  0  0  0  0
  129.8690  122.4760   65.0710 N   0  0  0  0  0  0  0  0  0  0  0  0
  128.5020  127.0220   69.0680 C   0  0  0  0  0  0  0  0  0  0  0  0
  128.1990  127.3410   70.3890 C   0  0  0  0  0  0  0  0  0  0  0  0
  1  2  1  0
  2  3  1  0
  3  4  1  0
  4  5  2  0
  4  6  1  0
  6  7  2  0
  7  8  1  0
  8  9  2  0
  9 10  1  0
 10 11  1  0
 11 12  2  0
 11 13  1  0
 13 14  1  0
 14 15  1  0
 15 16  2  0
 16 17  1  0
 17 18  1  0
 17 19  2  0
 19 20  1  0
 20 21  1  0
 21 22  1  0
 21 23  1  0
 21 24  1  0
 20 25  2  0
 25 26  1  0
 26 27  3  0
  9 28  1  0
 28 29  2  0
 29  6  1  0
 25 15  1  0
M  END
>  <Binding energies>  (16) 
[-6.74]

>  <Ligand effiencies>  (16) 
[-0.22466666666666668]

>  <Interactions>  (16) 
["V-A:LEU:475:CD2:4256, V-A:GLU:543:CD:4906, V-B:GLU:543:CD:9880, H-B:GLU:543:OE2:9882, V-A:ILE:369:CG2:3234, V-B:TYR:539:CD1:9845, H-A:GLY:454:N:4047, V-B:ALA:541:CB:9864, V-B:TYR:539:CE1:9847, V-A:ASP:366:CG:3210, H-A:HIS:456:NE2:4067, H-A:TYR:484:OH:4345, H-A:GLU:543:OE1:4907, V-B:GLU:543:CB:9878, V-A:HIS:456:CE1:4066, H-A:GLU:543:OE2:4908, V-A:ILE:369:CD1:3236, V-A:ASP:366:CA:3207, V-A:ILE:369:CB:3233, V-B:ALA:541:CA:9862, H-A:ARG:545:NE:4922, V-B:GLU:543:CG:9879, V-A:GLU:543:CG:4905, V-A:GLU:543:C:4900, V-B:HIS:456:CE1:9040, V-A:TYR:484:CE2:4343, V-A:LEU:475:CG:4254, H-A:LYS:547:NZ:4949, V-A:GLY:544:CA:4912, V-B:GLY:544:C:9884, V-A:GLY:544:C:4910, V-B:HIS:456:CD2:9039, V-B:LYS:547:CE:9922, V-B:GLU:543:C:9874, V-B:HIS:456:CG:9037, H-B:LYS:547:NZ:9923, V-B:HIS:456:CB:9036"]

$$$$
2b_Grossjean_2025
     RDKit          3D

 28 29  0  0  0  0  0  0  0  0999 V2000
  128.9460  122.8400   61.7410 C   0  0  0  0  0  0  0  0  0  0  0  0
  127.6410  122.8720   61.1790 O   0  0  0  0  0  0  0  0  0  0  0  0
  126.7150  123.7630   61.6140 C   0  0  0  0  0  0  0  0  0  0  0  0
  125.7890  123.4660   62.3760 O   0  0  0  0  0  0  0  0  0  0  0  0
  126.9240  125.1480   61.0720 C   0  0  0  0  0  0  0  0  0  0  0  0
  127.2390  126.2310   61.9060 C   0  0  0  0  0  0  0  0  0  0  0  0
  127.4250  127.5030   61.3720 C   0  0  0  0  0  0  0  0  0  0  0  0
  127.3080  127.7180   59.9990 C   0  0  0  0  0  0  0  0  0  0  0  0
  127.5100  129.0430   59.5670 N   0  0  0  0  0  0  0  0  0  0  0  0
  126.8580  130.1720   59.9150 C   0  0  0  0  0  0  0  0  0  0  0  0
  125.9050  130.2340   60.6940 O   0  0  0  0  0  0  0  0  0  0  0  0
  127.3680  131.4530   59.2470 C   0  0  0  0  0  0  0  0  0  0  0  0
  128.3910  132.4800   60.3540 S   0  0  0  0  0  0  0  0  0  0  0  0
  130.1210  132.1070   60.1060 C   0  0  0  0  0  0  0  0  0  0  0  0
  130.8180  131.7730   61.2210 N   0  0  0  0  0  0  0  0  0  0  0  0
  132.1340  131.4830   61.1090 C   0  0  0  0  0  0  0  0  0  0  0  0
  132.8420  131.1330   62.4030 C   0  0  0  0  0  0  0  0  0  0  0  0
  132.8060  131.5050   59.8900 C   0  0  0  0  0  0  0  0  0  0  0  0
  132.1040  131.8400   58.7220 C   0  0  0  0  0  0  0  0  0  0  0  0
  132.8610  131.8550   57.3810 C   0  0  0  0  0  0  0  0  0  0  0  0
  132.9340  133.1020   56.9110 F   0  0  0  0  0  0  0  0  0  0  0  0
  134.0980  131.3840   57.5470 F   0  0  0  0  0  0  0  0  0  0  0  0
  132.2710  131.1080   56.4460 F   0  0  0  0  0  0  0  0  0  0  0  0
  130.7240  132.1530   58.8260 C   0  0  0  0  0  0  0  0  0  0  0  0
  129.9440  132.5160   57.6400 C   0  0  0  0  0  0  0  0  0  0  0  0
  129.3280  132.8020   56.7030 N   0  0  0  0  0  0  0  0  0  0  0  0
  126.9860  126.6420   59.1590 C   0  0  0  0  0  0  0  0  0  0  0  0
  126.7990  125.3710   59.6940 C   0  0  0  0  0  0  0  0  0  0  0  0
  1  2  1  0
  2  3  1  0
  3  4  2  0
  3  5  1  0
  5  6  2  0
  6  7  1  0
  7  8  2  0
  8  9  1  0
  9 10  1  0
 10 11  2  0
 10 12  1  0
 12 13  1  0
 13 14  1  0
 14 15  2  0
 15 16  1  0
 16 17  1  0
 16 18  2  0
 18 19  1  0
 19 20  1  0
 20 21  1  0
 20 22  1  0
 20 23  1  0
 19 24  2  0
 24 25  1  0
 25 26  3  0
  8 27  1  0
 27 28  2  0
 28  5  1  0
 24 14  1  0
M  END
>  <Binding energies>  (17) 
[-6.61]

>  <Ligand effiencies>  (17) 
[-0.22793103448275864]

>  <Interactions>  (17) 
["V-B:PRO:540:CA:9855, V-A:GLU:543:CD:4906, V-B:GLU:543:CD:9880, V-A:ARG:545:CZ:4924, V-B:ALA:541:CB:9864, V-A:LEU:363:CA:3182, V-A:TYR:539:CZ:4875, V-A:ASP:366:CG:3210, V-A:TYR:531:CE2:4791, V-A:ASP:366:CB:3209, V-A:TYR:531:CZ:4792, V-A:LEU:363:CD1:3186, V-A:PRO:540:CA:4881, V-A:TYR:539:C:4865, V-A:PRO:540:CB:4883, V-A:PRO:540:N:4882, V-A:TYR:539:CE1:4873, H-A:TYR:539:N:4868, V-B:ASP:366:CG:8184, H-A:ALA:541:N:4889, V-A:TYR:539:CD1:4871, H-B:ALA:541:N:9863, V-A:LEU:363:CB:3184, V-A:ILE:538:CG2:4861, V-A:ILE:538:CB:4860, V-A:PRO:540:CD:4885, V-A:ASN:362:CB:3173, H-B:ARG:545:NH2:9900, V-A:PRO:540:CG:4884, V-A:LEU:363:CG:3185, V-A:LEU:363:C:3180"]

$$$$
2c_Grossjean_2025
     RDKit          3D

 26 27  0  0  0  0  0  0  0  0999 V2000
  127.4170  128.6920   75.2900 C   0  0  0  0  0  0  0  0  0  0  0  0
  128.6130  128.1030   74.7900 O   0  0  0  0  0  0  0  0  0  0  0  0
  128.7080  127.8130   73.4430 C   0  0  0  0  0  0  0  0  0  0  0  0
  129.9960  127.6820   72.9230 C   0  0  0  0  0  0  0  0  0  0  0  0
  130.1940  127.3910   71.5760 C   0  0  0  0  0  0  0  0  0  0  0  0
  129.0900  127.2380   70.7240 C   0  0  0  0  0  0  0  0  0  0  0  0
  129.1890  126.9260   69.3560 N   0  0  0  0  0  0  0  0  0  0  0  0
  129.0520  127.7470   68.2930 C   0  0  0  0  0  0  0  0  0  0  0  0
  128.7510  128.9400   68.3620 O   0  0  0  0  0  0  0  0  0  0  0  0
  129.2600  127.0760   66.9260 C   0  0  0  0  0  0  0  0  0  0  0  0
  130.8480  126.1990   66.7160 S   0  0  0  0  0  0  0  0  0  0  0  0
  131.1020  125.8360   64.9830 C   0  0  0  0  0  0  0  0  0  0  0  0
  130.0200  126.0090   64.1820 N   0  0  0  0  0  0  0  0  0  0  0  0
  130.1350  125.7450   62.8620 C   0  0  0  0  0  0  0  0  0  0  0  0
  128.8780  125.9460   62.0380 C   0  0  0  0  0  0  0  0  0  0  0  0
  131.3260  125.3090   62.2850 C   0  0  0  0  0  0  0  0  0  0  0  0
  132.4580  125.1310   63.0910 C   0  0  0  0  0  0  0  0  0  0  0  0
  133.7690  124.6500   62.4370 C   0  0  0  0  0  0  0  0  0  0  0  0
  134.7860  125.4140   62.8380 F   0  0  0  0  0  0  0  0  0  0  0  0
  134.0160  123.3850   62.7820 F   0  0  0  0  0  0  0  0  0  0  0  0
  133.7280  124.7020   61.1040 F   0  0  0  0  0  0  0  0  0  0  0  0
  132.3500  125.3990   64.4800 C   0  0  0  0  0  0  0  0  0  0  0  0
  133.5020  125.2270   65.3710 C   0  0  0  0  0  0  0  0  0  0  0  0
  134.4110  125.0920   66.0740 N   0  0  0  0  0  0  0  0  0  0  0  0
  127.7990  127.3520   71.2420 C   0  0  0  0  0  0  0  0  0  0  0  0
  127.6060  127.6420   72.5900 C   0  0  0  0  0  0  0  0  0  0  0  0
  1  2  1  0
  2  3  1  0
  3  4  2  0
  4  5  1  0
  5  6  2  0
  6  7  1  0
  7  8  1  0
  8  9  2  0
  8 10  1  0
 10 11  1  0
 11 12  1  0
 12 13  2  0
 13 14  1  0
 14 15  1  0
 14 16  2  0
 16 17  1  0
 17 18  1  0
 18 19  1  0
 18 20  1  0
 18 21  1  0
 17 22  2  0
 22 23  1  0
 23 24  3  0
  6 25  1  0
 25 26  2  0
 26  3  1  0
 22 12  1  0
M  END
>  <Binding energies>  (18) 
[-6.64]

>  <Ligand effiencies>  (18) 
[-0.2459259259259259]

>  <Interactions>  (18) 
["V-A:GLU:543:CD:4906, V-B:GLU:543:CD:9880, V-A:GLY:454:CA:4046, V-A:ARG:545:CZ:4924, H-A:GLY:454:N:4047, V-A:ASP:366:CG:3210, V-A:GLY:453:C:4039, H-B:GLU:543:O:9875, V-A:GLY:453:CA:4041, V-A:ARG:545:CD:4921, H-A:TYR:484:OH:4345, V-B:GLU:543:CB:9878, V-A:HIS:456:CE1:4066, V-A:ILE:369:CD1:3236, V-A:ARG:545:CG:4920, H-A:ARG:545:NE:4922, V-B:GLU:543:CG:9879, V-A:GLU:543:CG:4905, V-B:HIS:456:CE1:9040, H-A:ILE:455:N:4052, H-A:LYS:547:NZ:4949, V-A:LYS:547:CE:4948, V-A:HIS:456:CD2:4065, V-B:GLY:544:C:9884, V-A:GLY:544:C:4910, V-B:HIS:456:CD2:9039, V-B:LYS:547:CE:9922, V-B:GLU:543:C:9874, V-B:HIS:456:CG:9037, V-B:GLY:544:CA:9886, H-B:HIS:456:NE2:9041, H-B:LYS:547:NZ:9923"]

$$$$
2d_Ghoteimi_2023
     RDKit          3D

 38 42  0  0  0  0  0  0  0  0999 V2000
  134.4190  124.3550   61.6680 C   0  0  0  0  0  0  0  0  0  0  0  0
  134.3760  123.1240   62.3730 O   0  0  0  0  0  0  0  0  0  0  0  0
  133.7130  122.0650   61.8640 C   0  0  0  0  0  0  0  0  0  0  0  0
  134.1810  121.2390   61.0760 O   0  0  0  0  0  0  0  0  0  0  0  0
  132.2740  121.9980   62.3980 C   0  0  0  0  0  0  0  0  0  0  0  0
  132.1710  122.6420   64.1030 S   0  0  0  0  0  0  0  0  0  0  0  0
  131.3050  124.1980   64.0630 C   0  0  0  0  0  0  0  0  0  0  0  0
  131.1020  124.7290   65.2930 N   0  0  0  0  0  0  0  0  0  0  0  0
  130.4470  125.9120   65.4130 C   0  0  0  0  0  0  0  0  0  0  0  0
  130.2450  126.4260   66.8020 C   0  0  0  0  0  0  0  0  0  0  0  0
  129.0860  126.1080   67.5180 C   0  0  0  0  0  0  0  0  0  0  0  0
  128.8910  126.5840   68.8120 C   0  0  0  0  0  0  0  0  0  0  0  0
  129.8540  127.3870   69.4410 C   0  0  0  0  0  0  0  0  0  0  0  0
  129.6660  127.8880   70.7340 N   0  0  0  0  0  0  0  0  0  0  0  0
  128.4140  127.6520   71.4790 C   0  0  0  0  0  0  0  0  0  0  0  0
  128.2400  128.5740   72.7040 C   0  0  0  0  0  0  0  0  0  0  0  0
  129.3660  128.4600   73.5600 O   0  0  0  0  0  0  0  0  0  0  0  0
  130.5630  128.8370   72.9000 C   0  0  0  0  0  0  0  0  0  0  0  0
  130.8030  127.9270   71.6760 C   0  0  0  0  0  0  0  0  0  0  0  0
  131.0080  127.7140   68.7150 C   0  0  0  0  0  0  0  0  0  0  0  0
  131.2020  127.2400   67.4210 C   0  0  0  0  0  0  0  0  0  0  0  0
  129.9810  126.5950   64.2870 C   0  0  0  0  0  0  0  0  0  0  0  0
  130.2070  126.0850   63.0030 C   0  0  0  0  0  0  0  0  0  0  0  0
  129.7050  126.8830   61.8450 C   0  0  0  0  0  0  0  0  0  0  0  0
  128.6030  126.4400   61.1110 C   0  0  0  0  0  0  0  0  0  0  0  0
  128.1190  127.1820   60.0380 C   0  0  0  0  0  0  0  0  0  0  0  0
  128.7280  128.3920   59.6650 C   0  0  0  0  0  0  0  0  0  0  0  0
  128.2520  129.1610   58.5990 N   0  0  0  0  0  0  0  0  0  0  0  0
  128.4010  130.6290   58.5820 C   0  0  0  0  0  0  0  0  0  0  0  0
  128.1500  131.2570   57.1950 C   0  0  0  0  0  0  0  0  0  0  0  0
  126.8730  130.8710   56.7110 O   0  0  0  0  0  0  0  0  0  0  0  0
  126.7640  129.4610   56.5840 C   0  0  0  0  0  0  0  0  0  0  0  0
  126.9760  128.7890   57.9570 C   0  0  0  0  0  0  0  0  0  0  0  0
  129.8230  128.8380   60.4190 C   0  0  0  0  0  0  0  0  0  0  0  0
  130.3050  128.0960   61.4930 C   0  0  0  0  0  0  0  0  0  0  0  0
  130.8940  124.8520   62.8780 C   0  0  0  0  0  0  0  0  0  0  0  0
  131.1720  124.2860   61.5540 C   0  0  0  0  0  0  0  0  0  0  0  0
  131.3890  123.8430   60.5070 N   0  0  0  0  0  0  0  0  0  0  0  0
  1  2  1  0
  2  3  1  0
  3  4  2  0
  3  5  1  0
  5  6  1  0
  6  7  1  0
  7  8  2  0
  8  9  1  0
  9 10  1  0
 10 11  2  0
 11 12  1  0
 12 13  2  0
 13 14  1  0
 14 15  1  0
 15 16  1  0
 16 17  1  0
 17 18  1  0
 18 19  1  0
 13 20  1  0
 20 21  2  0
  9 22  2  0
 22 23  1  0
 23 24  1  0
 24 25  2  0
 25 26  1  0
 26 27  2  0
 27 28  1  0
 28 29  1  0
 29 30  1  0
 30 31  1  0
 31 32  1  0
 32 33  1  0
 27 34  1  0
 34 35  2  0
 23 36  2  0
 36 37  1  0
 37 38  3  0
 36  7  1  0
 21 10  1  0
 35 24  1  0
 19 14  1  0
 33 28  1  0
M  END
>  <Binding energies>  (19) 
[-3.8]

>  <Ligand effiencies>  (19) 
[-0.09999999999999999]

>  <Interactions>  (19) 
["V-A:LEU:475:CD2:4256, V-A:GLU:543:CD:4906, V-B:GLU:543:CD:9880, V-A:ILE:369:CG2:3234, V-A:GLY:454:CA:4046, H-A:GLY:454:N:4047, V-A:TYR:539:CZ:4875, V-A:MET:535:CE:4833, V-A:TYR:539:CE1:4873, V-A:GLY:453:C:4039, V-A:GLY:453:CA:4041, H-A:TYR:484:OH:4345, V-B:GLU:543:CB:9878, V-A:HIS:456:CE1:4066, V-A:ILE:369:CD1:3236, V-A:ARG:545:CG:4920, V-B:GLU:543:CG:9879, V-A:GLU:543:CG:4905, V-A:GLU:543:C:4900, V-B:HIS:456:CE1:9040, H-A:TYR:539:OH:4876, V-B:GLU:543:CA:9876, H-A:LYS:547:NZ:4949, V-A:LYS:547:CE:4948, V-A:GLY:544:CA:4912, V-A:GLY:544:C:4910, V-B:HIS:456:CD2:9039, V-B:GLU:543:C:9874, V-B:HIS:456:CG:9037"]

$$$$
2d_Grossjean_2025
     RDKit          3D

 24 25  0  0  0  0  0  0  0  0999 V2000
  132.6420  131.1750   62.5300 C   0  0  0  0  0  0  0  0  0  0  0  0
  131.9650  131.5500   61.2250 C   0  0  0  0  0  0  0  0  0  0  0  0
  132.6350  131.4690   60.0070 C   0  0  0  0  0  0  0  0  0  0  0  0
  131.9640  131.8220   58.8270 C   0  0  0  0  0  0  0  0  0  0  0  0
  132.7180  131.7170   57.4870 C   0  0  0  0  0  0  0  0  0  0  0  0
  132.8510  132.9260   56.9420 F   0  0  0  0  0  0  0  0  0  0  0  0
  133.9300  131.1960   57.6840 F   0  0  0  0  0  0  0  0  0  0  0  0
  132.0890  130.9430   56.5990 F   0  0  0  0  0  0  0  0  0  0  0  0
  130.6180  132.2600   58.9170 C   0  0  0  0  0  0  0  0  0  0  0  0
  129.8590  132.5960   57.7090 C   0  0  0  0  0  0  0  0  0  0  0  0
  129.2600  132.8590   56.7550 N   0  0  0  0  0  0  0  0  0  0  0  0
  130.0270  132.3340   60.2000 C   0  0  0  0  0  0  0  0  0  0  0  0
  128.3600  132.8910   60.4980 S   0  0  0  0  0  0  0  0  0  0  0  0
  127.5230  131.6850   61.5800 C   0  0  0  0  0  0  0  0  0  0  0  0
  127.9490  130.2400   61.3070 C   0  0  0  0  0  0  0  0  0  0  0  0
  127.2190  129.5200   60.6240 O   0  0  0  0  0  0  0  0  0  0  0  0
  129.1090  129.8540   61.8790 N   0  0  0  0  0  0  0  0  0  0  0  0
  129.7610  128.6090   61.8140 C   0  0  0  0  0  0  0  0  0  0  0  0
  129.4430  127.6970   62.8230 C   0  0  0  0  0  0  0  0  0  0  0  0
  130.0420  126.4400   62.8480 C   0  0  0  0  0  0  0  0  0  0  0  0
  130.9680  126.0980   61.8640 C   0  0  0  0  0  0  0  0  0  0  0  0
  131.3020  127.0030   60.8610 C   0  0  0  0  0  0  0  0  0  0  0  0
  130.7050  128.2600   60.8330 C   0  0  0  0  0  0  0  0  0  0  0  0
  130.6830  131.9690   61.3280 N   0  0  0  0  0  0  0  0  0  0  0  0
  1  2  1  0
  2  3  2  0
  3  4  1  0
  4  5  1  0
  5  6  1  0
  5  7  1  0
  5  8  1  0
  4  9  2  0
  9 10  1  0
 10 11  3  0
  9 12  1  0
 12 13  1  0
 13 14  1  0
 14 15  1  0
 15 16  2  0
 15 17  1  0
 17 18  1  0
 18 19  2  0
 19 20  1  0
 20 21  2  0
 21 22  1  0
 22 23  2  0
 12 24  2  0
 24  2  1  0
 23 18  1  0
M  END
>  <Binding energies>  (20) 
[-6.06]

>  <Ligand effiencies>  (20) 
[-0.24239999999999998]

>  <Interactions>  (20) 
["V-A:GLU:543:CD:4906, V-B:GLU:543:CD:9880, V-A:ARG:545:CZ:4924, V-A:LEU:363:CA:3182, V-A:ASP:366:CG:3210, V-A:TYR:531:CE2:4791, V-A:ASP:366:CB:3209, V-A:TYR:531:CZ:4792, V-A:LEU:363:CD1:3186, V-A:PRO:540:CA:4881, V-A:TYR:539:C:4865, V-A:PRO:540:CB:4883, V-A:PRO:540:N:4882, H-A:TYR:539:N:4868, H-A:ALA:541:N:4889, H-A:GLU:543:OE1:4907, H-A:GLU:543:OE2:4908, V-A:PRO:540:C:4879, V-A:LEU:363:CB:3184, V-A:ILE:538:CB:4860, V-A:PRO:540:CD:4885, V-A:ASN:362:CB:3173, V-A:PRO:540:CG:4884"]

$$$$
2e_Grossjean_2025
     RDKit          3D

 25 26  0  0  0  0  0  0  0  0999 V2000
  133.4500  116.8660   60.1800 C   0  0  0  0  0  0  0  0  0  0  0  0
  132.6190  118.0900   60.5150 C   0  0  0  0  0  0  0  0  0  0  0  0
  131.3520  117.9780   61.0910 C   0  0  0  0  0  0  0  0  0  0  0  0
  130.6490  119.1480   61.3820 C   0  0  0  0  0  0  0  0  0  0  0  0
  131.2240  120.3890   61.0930 C   0  0  0  0  0  0  0  0  0  0  0  0
  132.4940  120.4280   60.5060 C   0  0  0  0  0  0  0  0  0  0  0  0
  133.0430  121.7010   60.2770 N   0  0  0  0  0  0  0  0  0  0  0  0
  133.9500  122.3660   61.0270 C   0  0  0  0  0  0  0  0  0  0  0  0
  134.5090  121.9120   62.0270 O   0  0  0  0  0  0  0  0  0  0  0  0
  134.2450  123.8060   60.5950 C   0  0  0  0  0  0  0  0  0  0  0  0
  132.7220  124.7340   60.2220 S   0  0  0  0  0  0  0  0  0  0  0  0
  131.4290  123.9070   61.1220 C   0  0  0  0  0  0  0  0  0  0  0  0
  130.3700  123.5240   60.3670 N   0  0  0  0  0  0  0  0  0  0  0  0
  129.3220  122.9290   60.9790 C   0  0  0  0  0  0  0  0  0  0  0  0
  128.1730  122.5260   60.0750 C   0  0  0  0  0  0  0  0  0  0  0  0
  129.2850  122.6980   62.3530 C   0  0  0  0  0  0  0  0  0  0  0  0
  130.3690  123.0960   63.1500 C   0  0  0  0  0  0  0  0  0  0  0  0
  130.3040  122.8540   64.6700 C   0  0  0  0  0  0  0  0  0  0  0  0
  129.0760  122.4690   65.0200 F   0  0  0  0  0  0  0  0  0  0  0  0
  131.1700  121.9020   65.0170 F   0  0  0  0  0  0  0  0  0  0  0  0
  130.6000  123.9450   65.3780 F   0  0  0  0  0  0  0  0  0  0  0  0
  131.4770  123.7170   62.5220 C   0  0  0  0  0  0  0  0  0  0  0  0
  132.6280  124.1820   63.3040 C   0  0  0  0  0  0  0  0  0  0  0  0
  133.5350  124.5500   63.9210 N   0  0  0  0  0  0  0  0  0  0  0  0
  133.1900  119.2870   60.2260 N   0  0  0  0  0  0  0  0  0  0  0  0
  1  2  1  0
  2  3  2  0
  3  4  1  0
  4  5  2  0
  5  6  1  0
  6  7  1  0
  7  8  1  0
  8  9  2  0
  8 10  1  0
 10 11  1  0
 11 12  1  0
 12 13  2  0
 13 14  1  0
 14 15  1  0
 14 16  2  0
 16 17  1  0
 17 18  1  0
 18 19  1  0
 18 20  1  0
 18 21  1  0
 17 22  2  0
 22 23  1  0
 23 24  3  0
  6 25  2  0
 25  2  1  0
 22 12  1  0
M  END
>  <Binding energies>  (21) 
[-5.82]

>  <Ligand effiencies>  (21) 
[-0.22384615384615386]

>  <Interactions>  (21) 
["V-A:PRO:482:CG:4324, V-A:LEU:373:CD1:3277, V-B:PRO:540:CA:9855, V-B:PRO:540:N:9856, V-A:LEU:475:CD2:4256, V-B:GLU:543:CD:9880, V-A:PRO:482:CB:4323, V-A:SER:385:CB:3406, V-A:ILE:369:CG2:3234, V-B:TYR:539:CD1:9845, V-A:SER:385:CA:3404, H-A:GLY:454:N:4047, V-B:ALA:541:CB:9864, V-B:TYR:539:CE1:9847, V-B:TYR:539:C:9839, H-A:TYR:484:OH:4345, V-B:GLU:543:CB:9878, V-A:ILE:369:CD1:3236, V-A:ILE:369:CB:3233, V-B:ALA:541:CA:9862, V-B:PRO:540:C:9853, V-A:TYR:484:CZ:4344, H-B:TYR:539:OH:9850, V-B:GLU:543:CG:9879, V-A:TYR:484:CE2:4343, V-A:ILE:369:CG1:3235, V-A:VAL:384:C:3394, V-B:GLU:543:CA:9876, V-A:LEU:475:CG:4254, V-A:LEU:475:CD1:4255"]

$$$$
2f_Grossjean_2025
     RDKit          3D

 24 25  0  0  0  0  0  0  0  0999 V2000
  129.4950  125.8710   61.5670 C   0  0  0  0  0  0  0  0  0  0  0  0
  130.5300  125.6780   62.6580 C   0  0  0  0  0  0  0  0  0  0  0  0
  130.2130  125.8490   64.0040 C   0  0  0  0  0  0  0  0  0  0  0  0
  131.2090  125.6670   64.9760 C   0  0  0  0  0  0  0  0  0  0  0  0
  130.8410  125.8730   66.4580 C   0  0  0  0  0  0  0  0  0  0  0  0
  131.8060  126.5540   67.0790 F   0  0  0  0  0  0  0  0  0  0  0  0
  129.7000  126.5570   66.5530 F   0  0  0  0  0  0  0  0  0  0  0  0
  130.6770  124.7230   67.1150 F   0  0  0  0  0  0  0  0  0  0  0  0
  132.5130  125.3050   64.5520 C   0  0  0  0  0  0  0  0  0  0  0  0
  133.6000  125.1600   65.5240 C   0  0  0  0  0  0  0  0  0  0  0  0
  134.4580  125.0440   66.2920 N   0  0  0  0  0  0  0  0  0  0  0  0
  132.7370  125.1280   63.1650 C   0  0  0  0  0  0  0  0  0  0  0  0
  134.3040  124.6640   62.4570 S   0  0  0  0  0  0  0  0  0  0  0  0
  133.9880  123.4620   61.1200 C   0  0  0  0  0  0  0  0  0  0  0  0
  133.5610  122.0640   61.5890 C   0  0  0  0  0  0  0  0  0  0  0  0
  133.6620  121.7400   62.7730 O   0  0  0  0  0  0  0  0  0  0  0  0
  133.1050  121.2580   60.6060 N   0  0  0  0  0  0  0  0  0  0  0  0
  132.6280  119.9360   60.6810 C   0  0  0  0  0  0  0  0  0  0  0  0
  133.4020  118.7770   60.4860 C   0  0  0  0  0  0  0  0  0  0  0  0
  132.8040  117.5200   60.5950 C   0  0  0  0  0  0  0  0  0  0  0  0
  131.4440  117.4520   60.9010 C   0  0  0  0  0  0  0  0  0  0  0  0
  130.6780  118.5540   61.1020 N   0  0  0  0  0  0  0  0  0  0  0  0
  131.2740  119.7690   60.9930 C   0  0  0  0  0  0  0  0  0  0  0  0
  131.7680  125.3300   62.2390 N   0  0  0  0  0  0  0  0  0  0  0  0
  1  2  1  0
  2  3  2  0
  3  4  1  0
  4  5  1  0
  5  6  1  0
  5  7  1  0
  5  8  1  0
  4  9  2  0
  9 10  1  0
 10 11  3  0
  9 12  1  0
 12 13  1  0
 13 14  1  0
 14 15  1  0
 15 16  2  0
 15 17  1  0
 17 18  1  0
 18 19  2  0
 19 20  1  0
 20 21  2  0
 21 22  1  0
 22 23  2  0
 12 24  2  0
 24  2  1  0
 23 18  1  0
M  END
>  <Binding energies>  (22) 
[-5.86]

>  <Ligand effiencies>  (22) 
[-0.23440000000000003]

>  <Interactions>  (22) 
["V-A:PRO:482:CG:4324, V-A:LEU:373:CD1:3277, V-A:LEU:475:CD2:4256, V-A:GLU:543:CD:4906, V-B:GLU:543:CD:9880, V-A:PRO:482:CB:4323, V-A:SER:385:CB:3406, V-A:ILE:369:CG2:3234, V-A:GLY:454:CA:4046, V-B:TYR:539:CD1:9845, V-A:ARG:545:CZ:4924, V-A:SER:385:CA:3404, H-A:GLY:454:N:4047, V-B:TYR:539:CE1:9847, H-A:ARG:545:NH2:4926, V-A:GLY:453:C:4039, V-A:ARG:545:CD:4921, H-A:TYR:484:OH:4345, V-B:GLU:543:CB:9878, V-A:HIS:456:CE1:4066, V-A:ILE:369:CD1:3236, V-A:ARG:545:CG:4920, H-A:ARG:545:NE:4922, V-A:TYR:484:CZ:4344, V-B:GLU:543:CG:9879, V-A:GLU:543:CG:4905, V-A:TYR:484:CE2:4343, H-A:ILE:455:N:4052"]

$$$$
2g_Grossjean_2025
     RDKit          3D

 25 26  0  0  0  0  0  0  0  0999 V2000
  129.4870  126.6360   63.3460 C   0  0  0  0  0  0  0  0  0  0  0  0
  130.4190  125.9440   62.3690 C   0  0  0  0  0  0  0  0  0  0  0  0
  131.7090  125.5670   62.7340 C   0  0  0  0  0  0  0  0  0  0  0  0
  132.5360  124.9370   61.7910 C   0  0  0  0  0  0  0  0  0  0  0  0
  133.9640  124.5350   62.2100 C   0  0  0  0  0  0  0  0  0  0  0  0
  134.3670  125.2760   63.2440 F   0  0  0  0  0  0  0  0  0  0  0  0
  133.9850  123.2500   62.5650 F   0  0  0  0  0  0  0  0  0  0  0  0
  134.8550  124.6980   61.2300 F   0  0  0  0  0  0  0  0  0  0  0  0
  132.0220  124.6950   60.4910 C   0  0  0  0  0  0  0  0  0  0  0  0
  132.8620  124.0920   59.4530 C   0  0  0  0  0  0  0  0  0  0  0  0
  133.5260  123.6150   58.6340 N   0  0  0  0  0  0  0  0  0  0  0  0
  130.6880  125.0860   60.2200 C   0  0  0  0  0  0  0  0  0  0  0  0
  129.8790  124.8370   58.6540 S   0  0  0  0  0  0  0  0  0  0  0  0
  128.5870  123.5710   58.9000 C   0  0  0  0  0  0  0  0  0  0  0  0
  128.7390  122.7410   60.1830 C   0  0  0  0  0  0  0  0  0  0  0  0
  127.7890  122.5600   60.9460 O   0  0  0  0  0  0  0  0  0  0  0  0
  129.9680  122.2410   60.4060 N   0  0  0  0  0  0  0  0  0  0  0  0
  130.3540  121.4150   61.5510 C   0  0  0  0  0  0  0  0  0  0  0  0
  131.1760  120.1830   61.1880 C   0  0  0  0  0  0  0  0  0  0  0  0
  132.5330  120.3180   60.8790 C   0  0  0  0  0  0  0  0  0  0  0  0
  133.2950  119.1890   60.5850 C   0  0  0  0  0  0  0  0  0  0  0  0
  132.7010  117.9300   60.6100 C   0  0  0  0  0  0  0  0  0  0  0  0
  131.3510  117.7880   60.9300 C   0  0  0  0  0  0  0  0  0  0  0  0
  130.5900  118.9150   61.2250 C   0  0  0  0  0  0  0  0  0  0  0  0
  129.9110  125.7150   61.1360 N   0  0  0  0  0  0  0  0  0  0  0  0
  1  2  1  0
  2  3  2  0
  3  4  1  0
  4  5  1  0
  5  6  1  0
  5  7  1  0
  5  8  1  0
  4  9  2  0
  9 10  1  0
 10 11  3  0
  9 12  1  0
 12 13  1  0
 13 14  1  0
 14 15  1  0
 15 16  2  0
 15 17  1  0
 17 18  1  0
 18 19  1  0
 19 20  2  0
 20 21  1  0
 21 22  2  0
 22 23  1  0
 23 24  2  0
 12 25  2  0
 25  2  1  0
 24 19  1  0
M  END
>  <Binding energies>  (23) 
[-6.2]

>  <Ligand effiencies>  (23) 
[-0.23846153846153847]

>  <Interactions>  (23) 
["V-A:PRO:482:CG:4324, V-A:LEU:373:CD1:3277, V-B:PRO:540:CA:9855, V-A:LEU:475:CD2:4256, V-B:GLU:543:CD:9880, V-A:PRO:482:CB:4323, V-A:SER:385:CB:3406, V-A:ILE:369:CG2:3234, V-A:GLY:454:CA:4046, V-B:TYR:539:CD1:9845, V-A:ARG:545:CZ:4924, V-A:SER:385:CA:3404, V-B:ALA:541:CB:9864, V-B:TYR:539:CE1:9847, V-A:ASP:366:CG:3210, V-A:GLY:453:C:4039, V-A:GLY:453:CA:4041, V-A:ILE:369:CD1:3236, H-B:ALA:541:N:9863, H-B:TYR:539:OH:9850"]

$$$$
2h_Grossjean_2025
     RDKit          3D

 31 32  0  0  0  0  0  0  0  0999 V2000
  130.6090  118.2170   60.5460 C   0  0  0  0  0  0  0  0  0  0  0  0
  130.1550  119.2120   61.4570 O   0  0  0  0  0  0  0  0  0  0  0  0
  130.5420  120.5280   61.2730 C   0  0  0  0  0  0  0  0  0  0  0  0
  129.6430  121.6000   61.1630 C   0  0  0  0  0  0  0  0  0  0  0  0
  130.1080  122.9010   60.9870 C   0  0  0  0  0  0  0  0  0  0  0  0
  131.4780  123.1610   60.9160 C   0  0  0  0  0  0  0  0  0  0  0  0
  131.9640  124.5980   60.7430 C   0  0  0  0  0  0  0  0  0  0  0  0
  131.7260  125.1420   59.4060 N   0  0  0  0  0  0  0  0  0  0  0  0
  132.3880  124.7730   58.2950 C   0  0  0  0  0  0  0  0  0  0  0  0
  133.3350  123.9840   58.3040 O   0  0  0  0  0  0  0  0  0  0  0  0
  131.8830  125.3940   56.9860 C   0  0  0  0  0  0  0  0  0  0  0  0
  130.1820  124.9300   56.5180 S   0  0  0  0  0  0  0  0  0  0  0  0
  129.1550  125.2420   57.9370 C   0  0  0  0  0  0  0  0  0  0  0  0
  129.3830  126.4450   58.5210 N   0  0  0  0  0  0  0  0  0  0  0  0
  128.6700  126.7770   59.6200 C   0  0  0  0  0  0  0  0  0  0  0  0
  128.9830  128.1320   60.2240 C   0  0  0  0  0  0  0  0  0  0  0  0
  127.7060  125.9360   60.1740 C   0  0  0  0  0  0  0  0  0  0  0  0
  127.4410  124.6970   59.5710 C   0  0  0  0  0  0  0  0  0  0  0  0
  126.3660  123.7850   60.1920 C   0  0  0  0  0  0  0  0  0  0  0  0
  126.9400  122.7190   60.7490 F   0  0  0  0  0  0  0  0  0  0  0  0
  125.6550  124.3980   61.1420 F   0  0  0  0  0  0  0  0  0  0  0  0
  125.5120  123.3770   59.2530 F   0  0  0  0  0  0  0  0  0  0  0  0
  128.1770  124.3370   58.4130 C   0  0  0  0  0  0  0  0  0  0  0  0
  127.8970  123.0810   57.7120 C   0  0  0  0  0  0  0  0  0  0  0  0
  127.6730  122.0900   57.1590 N   0  0  0  0  0  0  0  0  0  0  0  0
  132.3870  122.0960   61.0010 C   0  0  0  0  0  0  0  0  0  0  0  0
  133.7380  122.3430   60.9290 O   0  0  0  0  0  0  0  0  0  0  0  0
  134.3440  122.6530   62.1770 C   0  0  0  0  0  0  0  0  0  0  0  0
  131.9170  120.7860   61.1980 C   0  0  0  0  0  0  0  0  0  0  0  0
  132.8060  119.7430   61.3000 O   0  0  0  0  0  0  0  0  0  0  0  0
  133.5840  119.5260   60.1300 C   0  0  0  0  0  0  0  0  0  0  0  0
  1  2  1  0
  2  3  1  0
  3  4  2  0
  4  5  1  0
  5  6  2  0
  6  7  1  0
  7  8  1  0
  8  9  1  0
  9 10  2  0
  9 11  1  0
 11 12  1  0
 12 13  1  0
 13 14  2  0
 14 15  1  0
 15 16  1  0
 15 17  2  0
 17 18  1  0
 18 19  1  0
 19 20  1  0
 19 21  1  0
 19 22  1  0
 18 23  2  0
 23 24  1  0
 24 25  3  0
  6 26  1  0
 26 27  1  0
 27 28  1  0
 26 29  2  0
 29 30  1  0
 30 31  1  0
 29  3  1  0
 23 13  1  0
M  END
>  <Binding energies>  (24) 
[-5.13]

>  <Ligand effiencies>  (24) 
[-0.1603125]

>  <Interactions>  (24) 
["V-A:PRO:482:CG:4324, V-A:LEU:373:CD1:3277, V-B:PRO:540:CA:9855, V-B:PRO:540:N:9856, V-A:LEU:475:CD2:4256, V-A:PRO:482:CB:4323, V-A:ILE:369:CG2:3234, V-B:TYR:539:CB:9843, V-A:GLY:454:CA:4046, V-B:TYR:539:CD1:9845, V-A:SER:385:CA:3404, V-B:ALA:541:CB:9864, V-B:TYR:539:CE1:9847, V-B:TYR:539:C:9839, V-A:ASP:366:CG:3210, V-A:ASP:366:CB:3209, V-B:TYR:539:CZ:9849, V-B:ASP:366:CG:8184, V-A:GLY:453:C:4039, V-A:ILE:369:CD1:3236, V-B:PRO:540:C:9853, V-B:PRO:540:CB:9857, H-B:TYR:539:OH:9850, H-B:TYR:539:N:9842, V-B:TYR:539:CG:9844"]

$$$$
2i_Grossjean_2025
     RDKit          3D

 23 24  0  0  0  0  0  0  0  0999 V2000
  132.5390  131.2230   62.6800 C   0  0  0  0  0  0  0  0  0  0  0  0
  131.8960  131.5900   61.3560 C   0  0  0  0  0  0  0  0  0  0  0  0
  132.5850  131.4700   60.1510 C   0  0  0  0  0  0  0  0  0  0  0  0
  131.9440  131.8200   58.9530 C   0  0  0  0  0  0  0  0  0  0  0  0
  132.7210  131.6830   57.6300 C   0  0  0  0  0  0  0  0  0  0  0  0
  133.9520  131.2260   57.8690 F   0  0  0  0  0  0  0  0  0  0  0  0
  132.0940  130.8330   56.8170 F   0  0  0  0  0  0  0  0  0  0  0  0
  132.8440  132.8430   56.9800 F   0  0  0  0  0  0  0  0  0  0  0  0
  130.6070  132.2880   59.0120 C   0  0  0  0  0  0  0  0  0  0  0  0
  129.8890  132.6660   57.7900 C   0  0  0  0  0  0  0  0  0  0  0  0
  129.3230  132.9650   56.8260 N   0  0  0  0  0  0  0  0  0  0  0  0
  129.9840  132.3800   60.2780 C   0  0  0  0  0  0  0  0  0  0  0  0
  128.3070  132.9610   60.4740 S   0  0  0  0  0  0  0  0  0  0  0  0
  127.7230  132.4570   62.1210 C   0  0  0  0  0  0  0  0  0  0  0  0
  127.4340  130.9560   62.1990 C   0  0  0  0  0  0  0  0  0  0  0  0
  126.2710  130.5640   62.0920 O   0  0  0  0  0  0  0  0  0  0  0  0
  128.5050  130.1620   62.4120 N   0  0  0  0  0  0  0  0  0  0  0  0
  128.5000  128.7820   62.5380 C   0  0  0  0  0  0  0  0  0  0  0  0
  129.5690  127.8770   62.5970 C   0  0  0  0  0  0  0  0  0  0  0  0
  128.9750  126.6420   62.7250 C   0  0  0  0  0  0  0  0  0  0  0  0
  127.6300  126.7980   62.7500 O   0  0  0  0  0  0  0  0  0  0  0  0
  127.3450  128.1610   62.6350 N   0  0  0  0  0  0  0  0  0  0  0  0
  130.6210  132.0340   61.4260 N   0  0  0  0  0  0  0  0  0  0  0  0
  1  2  1  0
  2  3  2  0
  3  4  1  0
  4  5  1  0
  5  6  1  0
  5  7  1  0
  5  8  1  0
  4  9  2  0
  9 10  1  0
 10 11  3  0
  9 12  1  0
 12 13  1  0
 13 14  1  0
 14 15  1  0
 15 16  2  0
 15 17  1  0
 17 18  1  0
 18 19  1  0
 19 20  2  0
 20 21  1  0
 21 22  1  0
 12 23  2  0
 23  2  1  0
 22 18  2  0
M  END
>  <Binding energies>  (25) 
[-6.04]

>  <Ligand effiencies>  (25) 
[-0.25166666666666665]

>  <Interactions>  (25) 
["V-A:GLU:543:CD:4906, V-B:GLU:543:CD:9880, V-A:ARG:545:CZ:4924, V-A:LEU:363:CA:3182, V-A:ASP:366:CG:3210, V-A:TYR:531:CE2:4791, V-A:ASP:366:CB:3209, V-A:TYR:531:CZ:4792, V-A:LEU:363:CD1:3186, V-A:PRO:540:CA:4881, V-A:TYR:539:C:4865, V-A:PRO:540:CB:4883, V-A:PRO:540:N:4882, H-A:TYR:539:N:4868, H-A:ALA:541:N:4889, H-A:GLU:543:OE1:4907, V-A:ALA:541:CB:4890, V-A:PRO:540:C:4879, V-A:LEU:363:CB:3184, V-A:ILE:538:CB:4860, V-A:PRO:540:CD:4885, V-A:ASN:362:CB:3173, H-B:ARG:545:NH2:9900, V-A:PRO:540:CG:4884, V-A:LEU:363:C:3180"]

$$$$
2k_Grossjean_2025
     RDKit          3D

 28 28  0  0  0  0  0  0  0  0999 V2000
  126.9440  128.9970   74.5810 C   0  0  0  0  0  0  0  0  0  0  0  0
  128.3330  129.2410   74.4210 O   0  0  0  0  0  0  0  0  0  0  0  0
  128.8700  128.6930   73.2240 C   0  0  0  0  0  0  0  0  0  0  0  0
  129.3560  127.2610   73.4830 C   0  0  0  0  0  0  0  0  0  0  0  0
  128.7610  126.3910   72.5310 O   0  0  0  0  0  0  0  0  0  0  0  0
  127.9760  127.0520   71.5460 C   0  0  0  0  0  0  0  0  0  0  0  0
  128.8460  127.2760   70.3020 C   0  0  0  0  0  0  0  0  0  0  0  0
  130.1750  127.5160   70.7390 O   0  0  0  0  0  0  0  0  0  0  0  0
  131.0910  127.8770   69.7160 C   0  0  0  0  0  0  0  0  0  0  0  0
  130.3140  128.0990   68.4050 C   0  0  0  0  0  0  0  0  0  0  0  0
  130.7090  127.1720   67.3420 N   0  0  0  0  0  0  0  0  0  0  0  0
  130.2880  125.8980   67.2160 C   0  0  0  0  0  0  0  0  0  0  0  0
  129.4820  125.3720   67.9860 O   0  0  0  0  0  0  0  0  0  0  0  0
  130.8950  125.1080   66.0480 C   0  0  0  0  0  0  0  0  0  0  0  0
  130.5360  125.7710   64.3840 S   0  0  0  0  0  0  0  0  0  0  0  0
  130.8530  124.5070   63.1600 C   0  0  0  0  0  0  0  0  0  0  0  0
  129.7570  123.8750   62.6680 N   0  0  0  0  0  0  0  0  0  0  0  0
  129.9240  122.9050   61.7420 C   0  0  0  0  0  0  0  0  0  0  0  0
  128.6530  122.2390   61.2510 C   0  0  0  0  0  0  0  0  0  0  0  0
  131.1750  122.5330   61.2600 C   0  0  0  0  0  0  0  0  0  0  0  0
  132.3220  123.1780   61.7480 C   0  0  0  0  0  0  0  0  0  0  0  0
  133.6990  122.7580   61.2000 C   0  0  0  0  0  0  0  0  0  0  0  0
  134.2780  123.7120   60.4700 F   0  0  0  0  0  0  0  0  0  0  0  0
  134.5240  122.4700   62.2090 F   0  0  0  0  0  0  0  0  0  0  0  0
  133.5730  121.6800   60.4250 F   0  0  0  0  0  0  0  0  0  0  0  0
  132.1630  124.1930   62.7260 C   0  0  0  0  0  0  0  0  0  0  0  0
  133.3260  124.8980   63.2740 C   0  0  0  0  0  0  0  0  0  0  0  0
  134.2450  125.4540   63.7060 N   0  0  0  0  0  0  0  0  0  0  0  0
  1  2  1  0
  2  3  1  0
  3  4  1  0
  4  5  1  0
  5  6  1  0
  6  7  1  0
  7  8  1  0
  8  9  1  0
  9 10  1  0
 10 11  1  0
 11 12  1  0
 12 13  2  0
 12 14  1  0
 14 15  1  0
 15 16  1  0
 16 17  2  0
 17 18  1  0
 18 19  1  0
 18 20  2  0
 20 21  1  0
 21 22  1  0
 22 23  1  0
 22 24  1  0
 22 25  1  0
 21 26  2  0
 26 27  1  0
 27 28  3  0
 26 16  1  0
M  END
>  <Binding energies>  (26) 
[-4.58]

>  <Ligand effiencies>  (26) 
[-0.15793103448275864]

>  <Interactions>  (26) 
["V-B:PRO:540:CA:9855, V-A:GLU:543:CD:4906, V-B:GLU:543:CD:9880, V-A:ILE:369:CG2:3234, V-A:GLY:454:CA:4046, V-A:ARG:545:CZ:4924, H-A:GLY:454:N:4047, V-B:ALA:541:CB:9864, V-B:TYR:539:CE1:9847, H-A:ARG:545:NH2:4926, V-A:GLY:453:C:4039, H-A:HIS:456:NE2:4067, V-B:GLU:543:CB:9878, V-A:HIS:456:CE1:4066, H-A:GLU:543:OE2:4908, V-A:ILE:369:CD1:3236, V-A:ILE:369:CB:3233, V-B:ALA:541:CA:9862, V-B:PRO:540:C:9853, H-A:ARG:545:NE:4922, H-A:ARG:545:NH1:4925, V-A:TYR:484:CZ:4344, V-B:GLU:543:CG:9879, V-A:GLU:543:CB:4904, V-A:GLU:543:CG:4905, V-A:GLU:543:C:4900, V-B:HIS:456:CE1:9040, V-A:ILE:369:CG1:3235, H-A:LYS:547:NZ:4949, V-A:LYS:547:CE:4948, V-A:GLY:544:CA:4912, V-B:GLY:544:C:9884, V-A:GLY:544:C:4910, V-B:HIS:456:CD2:9039, V-B:LYS:547:CE:9922, V-B:GLU:543:C:9874, V-B:HIS:456:CG:9037, V-B:GLY:544:CA:9886, H-B:LYS:547:NZ:9923, V-B:HIS:456:CB:9036"]

$$$$
3aa_Grossjean_2025
     RDKit          3D

 34 36  0  0  0  0  0  0  0  0999 V2000
  131.6990  126.5240   73.7470 C   0  0  0  0  0  0  0  0  0  0  0  0
  130.3060  126.0000   73.3820 C   0  0  0  0  0  0  0  0  0  0  0  0
  129.3340  126.9960   73.6730 O   0  0  0  0  0  0  0  0  0  0  0  0
  129.2010  128.0950   72.8870 C   0  0  0  0  0  0  0  0  0  0  0  0
  128.9370  129.2180   73.3260 O   0  0  0  0  0  0  0  0  0  0  0  0
  129.3910  127.8050   71.4250 C   0  0  0  0  0  0  0  0  0  0  0  0
  130.6220  128.0020   70.7820 C   0  0  0  0  0  0  0  0  0  0  0  0
  130.7650  127.7190   69.4260 C   0  0  0  0  0  0  0  0  0  0  0  0
  129.6860  127.2280   68.6890 C   0  0  0  0  0  0  0  0  0  0  0  0
  129.9380  126.9710   67.3260 N   0  0  0  0  0  0  0  0  0  0  0  0
  130.2480  125.8080   66.7130 C   0  0  0  0  0  0  0  0  0  0  0  0
  130.3930  124.7210   67.2740 O   0  0  0  0  0  0  0  0  0  0  0  0
  130.4390  125.8920   65.1980 C   0  0  0  0  0  0  0  0  0  0  0  0
  131.7780  124.8020   64.6250 S   0  0  0  0  0  0  0  0  0  0  0  0
  131.3810  124.3220   62.9590 C   0  0  0  0  0  0  0  0  0  0  0  0
  131.6090  123.0120   62.7020 N   0  0  0  0  0  0  0  0  0  0  0  0
  131.3500  122.5130   61.4660 C   0  0  0  0  0  0  0  0  0  0  0  0
  131.6150  121.0510   61.2650 C   0  0  0  0  0  0  0  0  0  0  0  0
  132.9070  120.5950   60.9570 C   0  0  0  0  0  0  0  0  0  0  0  0
  133.1610  119.2380   60.7700 C   0  0  0  0  0  0  0  0  0  0  0  0
  132.1230  118.3190   60.8880 C   0  0  0  0  0  0  0  0  0  0  0  0
  130.8360  118.7460   61.1940 C   0  0  0  0  0  0  0  0  0  0  0  0
  130.5850  120.1020   61.3830 C   0  0  0  0  0  0  0  0  0  0  0  0
  130.8420  123.3320   60.4520 C   0  0  0  0  0  0  0  0  0  0  0  0
  130.6140  124.6970   60.6890 C   0  0  0  0  0  0  0  0  0  0  0  0
  130.0660  125.5680   59.5440 C   0  0  0  0  0  0  0  0  0  0  0  0
  129.8490  124.8760   58.4240 F   0  0  0  0  0  0  0  0  0  0  0  0
  128.9050  126.1200   59.9010 F   0  0  0  0  0  0  0  0  0  0  0  0
  130.9340  126.5390   59.2560 F   0  0  0  0  0  0  0  0  0  0  0  0
  130.9020  125.2160   61.9750 C   0  0  0  0  0  0  0  0  0  0  0  0
  130.7380  126.6430   62.2630 C   0  0  0  0  0  0  0  0  0  0  0  0
  130.6090  127.7710   62.4900 N   0  0  0  0  0  0  0  0  0  0  0  0
  128.4480  127.0410   69.3220 C   0  0  0  0  0  0  0  0  0  0  0  0
  128.3070  127.3270   70.6760 C   0  0  0  0  0  0  0  0  0  0  0  0
  1  2  1  0
  2  3  1  0
  3  4  1  0
  4  5  2  0
  4  6  1  0
  6  7  2  0
  7  8  1  0
  8  9  2  0
  9 10  1  0
 10 11  1  0
 11 12  2  0
 11 13  1  0
 13 14  1  0
 14 15  1  0
 15 16  2  0
 16 17  1  0
 17 18  1  0
 18 19  2  0
 19 20  1  0
 20 21  2  0
 21 22  1  0
 22 23  2  0
 17 24  2  0
 24 25  1  0
 25 26  1  0
 26 27  1  0
 26 28  1  0
 26 29  1  0
 25 30  2  0
 30 31  1  0
 31 32  3  0
  9 33  1  0
 33 34  2  0
 34  6  1  0
 30 15  1  0
 23 18  1  0
M  END
>  <Binding energies>  (27) 
[-8.08]

>  <Ligand effiencies>  (27) 
[-0.23085714285714287]

>  <Interactions>  (27) 
["V-A:PRO:482:CG:4324, V-A:LEU:373:CD1:3277, V-A:LEU:475:CD2:4256, V-A:GLU:543:CD:4906, V-B:GLU:543:CD:9880, V-A:PRO:482:CB:4323, H-B:GLU:543:OE2:9882, V-A:SER:385:CB:3406, V-A:ILE:369:CG2:3234, V-B:TYR:539:CD1:9845, V-A:SER:385:CA:3404, V-B:ALA:541:CB:9864, V-B:TYR:539:CE1:9847, V-A:ASP:366:CG:3210, H-A:ARG:545:NH2:4926, H-A:HIS:456:NE2:4067, H-A:TYR:484:OH:4345, H-A:GLU:543:OE1:4907, V-B:GLU:543:CB:9878, V-A:HIS:456:CE1:4066, H-A:GLU:543:OE2:4908, V-B:GLU:543:CG:9879, V-A:GLU:543:CG:4905, V-A:GLU:543:C:4900, V-B:HIS:456:CE1:9040, H-A:LYS:547:NZ:4949, V-A:LYS:547:CE:4948, V-A:GLY:544:CA:4912, V-A:HIS:456:CD2:4065, V-B:GLY:544:C:9884, V-A:GLY:544:C:4910, V-B:HIS:456:CD2:9039, V-B:GLU:543:C:9874, V-A:HIS:456:CG:4063, H-B:HIS:456:NE2:9041, H-B:LYS:547:NZ:9923, V-A:HIS:456:CB:4062"]

$$$$
3ad_Grossjean_2025
     RDKit          3D

 29 31  0  0  0  0  0  0  0  0999 V2000
  134.4830  125.4320   66.0320 N   0  0  0  0  0  0  0  0  0  0  0  0
  133.6440  125.2240   65.2630 C   0  0  0  0  0  0  0  0  0  0  0  0
  132.5770  124.9630   64.2920 C   0  0  0  0  0  0  0  0  0  0  0  0
  131.2150  125.0540   64.6700 C   0  0  0  0  0  0  0  0  0  0  0  0
  130.7700  125.4700   66.0850 C   0  0  0  0  0  0  0  0  0  0  0  0
  131.7080  126.1550   66.7420 F   0  0  0  0  0  0  0  0  0  0  0  0
  129.6840  126.2420   66.0110 F   0  0  0  0  0  0  0  0  0  0  0  0
  130.4830  124.3890   66.8120 F   0  0  0  0  0  0  0  0  0  0  0  0
  130.2330  124.7480   63.7150 C   0  0  0  0  0  0  0  0  0  0  0  0
  130.6000  124.3590   62.4230 C   0  0  0  0  0  0  0  0  0  0  0  0
  129.5920  124.0060   61.3690 C   0  0  0  0  0  0  0  0  0  0  0  0
  128.2170  124.1060   61.6300 C   0  0  0  0  0  0  0  0  0  0  0  0
  127.2760  123.7810   60.6560 C   0  0  0  0  0  0  0  0  0  0  0  0
  127.7010  123.3510   59.4030 C   0  0  0  0  0  0  0  0  0  0  0  0
  129.0580  123.2460   59.1180 C   0  0  0  0  0  0  0  0  0  0  0  0
  129.9960  123.5730   60.0950 C   0  0  0  0  0  0  0  0  0  0  0  0
  131.9060  124.2670   62.0670 N   0  0  0  0  0  0  0  0  0  0  0  0
  132.8710  124.5770   62.9650 C   0  0  0  0  0  0  0  0  0  0  0  0
  134.5220  124.4120   62.3230 S   0  0  0  0  0  0  0  0  0  0  0  0
  134.3900  124.3100   60.5130 C   0  0  0  0  0  0  0  0  0  0  0  0
  133.6010  123.0790   60.0600 C   0  0  0  0  0  0  0  0  0  0  0  0
  133.2420  122.9980   58.8850 O   0  0  0  0  0  0  0  0  0  0  0  0
  133.3600  122.1600   61.0190 N   0  0  0  0  0  0  0  0  0  0  0  0
  132.6850  120.9280   60.9370 C   0  0  0  0  0  0  0  0  0  0  0  0
  131.3310  120.9550   61.2860 C   0  0  0  0  0  0  0  0  0  0  0  0
  130.5710  119.7890   61.2430 C   0  0  0  0  0  0  0  0  0  0  0  0
  131.1660  118.5920   60.8560 C   0  0  0  0  0  0  0  0  0  0  0  0
  132.5140  118.5490   60.5140 C   0  0  0  0  0  0  0  0  0  0  0  0
  133.2790  119.7130   60.5550 C   0  0  0  0  0  0  0  0  0  0  0  0
  1  2  3  0
  2  3  1  0
  3  4  2  0
  4  5  1  0
  5  6  1  0
  5  7  1  0
  5  8  1  0
  4  9  1  0
  9 10  2  0
 10 11  1  0
 11 12  2  0
 12 13  1  0
 13 14  2  0
 14 15  1  0
 15 16  2  0
 10 17  1  0
 17 18  2  0
 18 19  1  0
 19 20  1  0
 20 21  1  0
 21 22  2  0
 21 23  1  0
 23 24  1  0
 24 25  2  0
 25 26  1  0
 26 27  2  0
 27 28  1  0
 28 29  2  0
 18  3  1  0
 29 24  1  0
 16 11  1  0
M  END
>  <Binding energies>  (28) 
[-6.86]

>  <Ligand effiencies>  (28) 
[-0.22866666666666668]

>  <Interactions>  (28) 
["V-A:PRO:482:CG:4324, V-A:LEU:373:CD1:3277, V-B:PRO:540:CA:9855, V-A:LEU:475:CD2:4256, V-A:GLU:543:CD:4906, V-B:GLU:543:CD:9880, V-A:SER:385:CB:3406, V-A:ILE:369:CG2:3234, V-A:GLY:454:CA:4046, V-B:TYR:539:CD1:9845, V-A:ARG:545:CZ:4924, V-A:SER:385:CA:3404, H-A:GLY:454:N:4047, V-B:ALA:541:CB:9864, V-B:TYR:539:CE1:9847, V-A:ASP:366:CG:3210, V-A:GLY:453:C:4039, V-A:GLY:453:CA:4041, V-A:ARG:545:CD:4921, H-A:TYR:484:OH:4345, V-B:GLU:543:CB:9878, V-A:HIS:456:CE1:4066, V-A:ILE:369:CD1:3236, V-A:ARG:545:CG:4920, V-A:ASP:366:CA:3207, V-A:ILE:369:CB:3233, H-A:SER:385:O:3403, H-A:ARG:545:NE:4922, V-A:TYR:484:CZ:4344, H-B:TYR:539:OH:9850, V-B:GLU:543:CG:9879, V-A:TYR:484:CE2:4343, H-A:ILE:455:N:4052, V-B:GLU:543:CA:9876"]

$$$$
3ai_Grossjean_2025
     RDKit          3D

 28 30  0  0  0  0  0  0  0  0999 V2000
  130.1580  126.1600   62.5280 N   0  0  0  0  0  0  0  0  0  0  0  0
  130.4390  125.0640   62.2880 C   0  0  0  0  0  0  0  0  0  0  0  0
  130.7970  123.6750   61.9850 C   0  0  0  0  0  0  0  0  0  0  0  0
  132.1330  123.2250   62.1200 C   0  0  0  0  0  0  0  0  0  0  0  0
  133.2690  124.1340   62.6290 C   0  0  0  0  0  0  0  0  0  0  0  0
  134.4820  123.6420   62.3690 F   0  0  0  0  0  0  0  0  0  0  0  0
  133.1880  125.3320   62.0470 F   0  0  0  0  0  0  0  0  0  0  0  0
  133.1770  124.2870   63.9500 F   0  0  0  0  0  0  0  0  0  0  0  0
  132.4330  121.8990   61.7720 C   0  0  0  0  0  0  0  0  0  0  0  0
  131.4300  121.0480   61.2990 C   0  0  0  0  0  0  0  0  0  0  0  0
  131.6960  119.6270   60.9020 C   0  0  0  0  0  0  0  0  0  0  0  0
  132.9910  119.2100   60.5550 C   0  0  0  0  0  0  0  0  0  0  0  0
  133.2460  117.8910   60.1900 C   0  0  0  0  0  0  0  0  0  0  0  0
  132.2060  116.9680   60.1690 C   0  0  0  0  0  0  0  0  0  0  0  0
  130.9150  117.3540   60.5100 C   0  0  0  0  0  0  0  0  0  0  0  0
  130.6630  118.6740   60.8750 C   0  0  0  0  0  0  0  0  0  0  0  0
  130.1520  121.4850   61.1630 N   0  0  0  0  0  0  0  0  0  0  0  0
  129.8330  122.7540   61.5160 C   0  0  0  0  0  0  0  0  0  0  0  0
  128.1090  123.1400   61.2900 S   0  0  0  0  0  0  0  0  0  0  0  0
  127.7730  123.1720   59.4960 C   0  0  0  0  0  0  0  0  0  0  0  0
  129.0160  123.3140   58.6050 C   0  0  0  0  0  0  0  0  0  0  0  0
  129.1070  122.6900   57.5450 O   0  0  0  0  0  0  0  0  0  0  0  0
  129.9600  124.1550   59.0840 N   0  0  0  0  0  0  0  0  0  0  0  0
  131.1750  124.4800   58.4940 C   0  0  0  0  0  0  0  0  0  0  0  0
  131.3070  125.4590   57.5100 C   0  0  0  0  0  0  0  0  0  0  0  0
  132.6450  125.4710   57.1930 C   0  0  0  0  0  0  0  0  0  0  0  0
  133.2870  124.5480   57.9470 O   0  0  0  0  0  0  0  0  0  0  0  0
  132.3440  123.9260   58.7680 N   0  0  0  0  0  0  0  0  0  0  0  0
  1  2  3  0
  2  3  1  0
  3  4  2  0
  4  5  1  0
  5  6  1  0
  5  7  1  0
  5  8  1  0
  4  9  1  0
  9 10  2  0
 10 11  1  0
 11 12  2  0
 12 13  1  0
 13 14  2  0
 14 15  1  0
 15 16  2  0
 10 17  1  0
 17 18  2  0
 18 19  1  0
 19 20  1  0
 20 21  1  0
 21 22  2  0
 21 23  1  0
 23 24  1  0
 24 25  1  0
 25 26  2  0
 26 27  1  0
 27 28  1  0
 18  3  1  0
 28 24  2  0
 16 11  1  0
M  END
>  <Binding energies>  (29) 
[-7.02]

>  <Ligand effiencies>  (29) 
[-0.24206896551724136]

>  <Interactions>  (29) 
["V-A:PRO:482:CG:4324, V-A:LEU:373:CD1:3277, V-B:PRO:540:CA:9855, V-B:PRO:540:N:9856, V-A:LEU:475:CD2:4256, V-A:PRO:482:CB:4323, V-A:SER:385:CB:3406, V-A:ILE:369:CG2:3234, V-B:TYR:539:CB:9843, V-A:GLY:454:CA:4046, V-B:TYR:539:CD1:9845, V-A:ARG:545:CZ:4924, V-A:SER:385:CA:3404, V-B:ALA:541:CB:9864, V-B:TYR:539:CE1:9847, V-B:TYR:539:C:9839, V-A:ASP:366:CG:3210, V-A:ASP:366:CB:3209, V-B:TYR:539:CZ:9849, V-A:GLY:453:C:4039, V-A:GLY:453:CA:4041, V-A:ASP:366:C:3205, V-A:ILE:369:CD1:3236, V-A:ASP:366:CA:3207, H-B:ALA:541:N:9863, H-B:TYR:539:OH:9850"]

$$$$
3aj_Grossjean_2025
     RDKit          3D

 28 30  0  0  0  0  0  0  0  0999 V2000
  129.9120  126.0430   62.3100 N   0  0  0  0  0  0  0  0  0  0  0  0
  130.2340  124.9510   62.1000 C   0  0  0  0  0  0  0  0  0  0  0  0
  130.6440  123.5690   61.8350 C   0  0  0  0  0  0  0  0  0  0  0  0
  131.9920  123.1700   62.0040 C   0  0  0  0  0  0  0  0  0  0  0  0
  133.0870  124.1290   62.5090 C   0  0  0  0  0  0  0  0  0  0  0  0
  133.0540  125.3180   61.9010 F   0  0  0  0  0  0  0  0  0  0  0  0
  132.9410  124.3420   63.8170 F   0  0  0  0  0  0  0  0  0  0  0  0
  134.2920  123.6030   62.2890 F   0  0  0  0  0  0  0  0  0  0  0  0
  132.3430  121.8470   61.6920 C   0  0  0  0  0  0  0  0  0  0  0  0
  131.3770  120.9510   61.2210 C   0  0  0  0  0  0  0  0  0  0  0  0
  131.6990  119.5320   60.8640 C   0  0  0  0  0  0  0  0  0  0  0  0
  133.0130  119.1540   60.5480 C   0  0  0  0  0  0  0  0  0  0  0  0
  133.3210  117.8360   60.2190 C   0  0  0  0  0  0  0  0  0  0  0  0
  132.3130  116.8760   60.2010 C   0  0  0  0  0  0  0  0  0  0  0  0
  131.0040  117.2250   60.5130 C   0  0  0  0  0  0  0  0  0  0  0  0
  130.7010  118.5430   60.8430 C   0  0  0  0  0  0  0  0  0  0  0  0
  130.0880  121.3410   61.0540 N   0  0  0  0  0  0  0  0  0  0  0  0
  129.7200  122.6050   61.3710 C   0  0  0  0  0  0  0  0  0  0  0  0
  127.9890  122.9280   61.1090 S   0  0  0  0  0  0  0  0  0  0  0  0
  127.6690  122.8380   59.3150 C   0  0  0  0  0  0  0  0  0  0  0  0
  128.8790  123.1510   58.4230 C   0  0  0  0  0  0  0  0  0  0  0  0
  129.0510  122.5510   57.3590 O   0  0  0  0  0  0  0  0  0  0  0  0
  129.7000  124.1120   58.9020 N   0  0  0  0  0  0  0  0  0  0  0  0
  130.8550  124.5920   58.3000 C   0  0  0  0  0  0  0  0  0  0  0  0
  132.0920  124.5070   58.7410 N   0  0  0  0  0  0  0  0  0  0  0  0
  132.9440  125.0710   57.9080 C   0  0  0  0  0  0  0  0  0  0  0  0
  132.3990  125.6320   56.7560 C   0  0  0  0  0  0  0  0  0  0  0  0
  130.6770  125.4050   56.7780 S   0  0  0  0  0  0  0  0  0  0  0  0
  1  2  3  0
  2  3  1  0
  3  4  2  0
  4  5  1  0
  5  6  1  0
  5  7  1  0
  5  8  1  0
  4  9  1  0
  9 10  2  0
 10 11  1  0
 11 12  2  0
 12 13  1  0
 13 14  2  0
 14 15  1  0
 15 16  2  0
 10 17  1  0
 17 18  2  0
 18 19  1  0
 19 20  1  0
 20 21  1  0
 21 22  2  0
 21 23  1  0
 23 24  1  0
 24 25  2  0
 25 26  1  0
 26 27  2  0
 27 28  1  0
 18  3  1  0
 28 24  1  0
 16 11  1  0
M  END
>  <Binding energies>  (30) 
[-6.65]

>  <Ligand effiencies>  (30) 
[-0.22931034482758622]

>  <Interactions>  (30) 
["V-A:PRO:482:CG:4324, V-A:LEU:373:CD1:3277, V-B:PRO:540:CA:9855, V-B:PRO:540:N:9856, V-A:LEU:475:CD2:4256, V-A:PRO:482:CB:4323, V-A:SER:385:CB:3406, V-A:ILE:369:CG2:3234, V-B:TYR:539:CB:9843, V-A:GLY:454:CA:4046, V-B:TYR:539:CD1:9845, V-A:ARG:545:CZ:4924, V-A:SER:385:CA:3404, V-B:ALA:541:CB:9864, V-B:TYR:539:CE1:9847, V-B:TYR:539:C:9839, V-A:ASP:366:CG:3210, V-A:ASP:366:CB:3209, V-A:TYR:531:CZ:4792, V-B:TYR:539:CZ:9849, V-A:GLY:453:C:4039, V-A:GLY:453:CA:4041, V-A:ILE:369:CD1:3236, V-A:ASP:366:CA:3207, H-B:ALA:541:N:9863, H-B:TYR:539:OH:9850, V-A:TYR:531:CE1:4790"]

$$$$
3ak_Grossjean_2025
     RDKit          3D

 33 34  0  0  0  0  0  0  0  0999 V2000
  129.2560  132.5830   56.5740 C   0  0  0  0  0  0  0  0  0  0  0  0
  130.5960  133.0190   56.7430 O   0  0  0  0  0  0  0  0  0  0  0  0
  131.5370  131.9550   56.7680 C   0  0  0  0  0  0  0  0  0  0  0  0
  131.3690  131.1700   58.0740 C   0  0  0  0  0  0  0  0  0  0  0  0
  131.3660  129.7770   57.7790 O   0  0  0  0  0  0  0  0  0  0  0  0
  130.3820  129.0060   58.4640 C   0  0  0  0  0  0  0  0  0  0  0  0
  130.8470  127.5820   58.8180 C   0  0  0  0  0  0  0  0  0  0  0  0
  130.5710  126.7150   57.7270 O   0  0  0  0  0  0  0  0  0  0  0  0
  131.1450  125.4210   57.8590 C   0  0  0  0  0  0  0  0  0  0  0  0
  130.2060  124.3600   57.2580 C   0  0  0  0  0  0  0  0  0  0  0  0
  129.0290  124.0850   58.0850 N   0  0  0  0  0  0  0  0  0  0  0  0
  128.2200  123.0130   57.9750 C   0  0  0  0  0  0  0  0  0  0  0  0
  128.4070  122.1180   57.1510 O   0  0  0  0  0  0  0  0  0  0  0  0
  127.0100  122.8990   58.9180 C   0  0  0  0  0  0  0  0  0  0  0  0
  127.3020  123.3120   60.6780 S   0  0  0  0  0  0  0  0  0  0  0  0
  129.0530  123.1910   61.0110 C   0  0  0  0  0  0  0  0  0  0  0  0
  129.5850  121.9480   60.9070 N   0  0  0  0  0  0  0  0  0  0  0  0
  130.9060  121.7530   61.1480 C   0  0  0  0  0  0  0  0  0  0  0  0
  131.4100  120.3480   61.0090 C   0  0  0  0  0  0  0  0  0  0  0  0
  132.7430  120.0950   60.6500 C   0  0  0  0  0  0  0  0  0  0  0  0
  133.2170  118.7920   60.5230 C   0  0  0  0  0  0  0  0  0  0  0  0
  132.3620  117.7210   60.7550 C   0  0  0  0  0  0  0  0  0  0  0  0
  131.0370  117.9430   61.1150 C   0  0  0  0  0  0  0  0  0  0  0  0
  130.5660  119.2470   61.2420 C   0  0  0  0  0  0  0  0  0  0  0  0
  131.7380  122.8250   61.4890 C   0  0  0  0  0  0  0  0  0  0  0  0
  131.2140  124.1210   61.6020 C   0  0  0  0  0  0  0  0  0  0  0  0
  132.1620  125.2760   61.9820 C   0  0  0  0  0  0  0  0  0  0  0  0
  132.1130  126.2300   61.0530 F   0  0  0  0  0  0  0  0  0  0  0  0
  131.8010  125.7960   63.1560 F   0  0  0  0  0  0  0  0  0  0  0  0
  133.4340  124.8870   62.0910 F   0  0  0  0  0  0  0  0  0  0  0  0
  129.8330  124.3150   61.3590 C   0  0  0  0  0  0  0  0  0  0  0  0
  129.2300  125.6480   61.4630 C   0  0  0  0  0  0  0  0  0  0  0  0
  128.7530  126.7000   61.5460 N   0  0  0  0  0  0  0  0  0  0  0  0
  1  2  1  0
  2  3  1  0
  3  4  1  0
  4  5  1  0
  5  6  1  0
  6  7  1  0
  7  8  1  0
  8  9  1  0
  9 10  1  0
 10 11  1  0
 11 12  1  0
 12 13  2  0
 12 14  1  0
 14 15  1  0
 15 16  1  0
 16 17  2  0
 17 18  1  0
 18 19  1  0
 19 20  2  0
 20 21  1  0
 21 22  2  0
 22 23  1  0
 23 24  2  0
 18 25  2  0
 25 26  1  0
 26 27  1  0
 27 28  1  0
 27 29  1  0
 27 30  1  0
 26 31  2  0
 31 32  1  0
 32 33  3  0
 31 16  1  0
 24 19  1  0
M  END
>  <Binding energies>  (31) 
[-5.88]

>  <Ligand effiencies>  (31) 
[-0.17294117647058824]

>  <Interactions>  (31) 
["V-A:PRO:482:CG:4324, V-A:LEU:373:CD1:3277, V-B:PRO:540:CA:9855, V-B:PRO:540:N:9856, V-A:LEU:475:CD2:4256, V-A:PRO:482:CB:4323, V-A:SER:385:CB:3406, V-A:ILE:369:CG2:3234, V-B:TYR:539:CD1:9845, V-A:ARG:545:CZ:4924, V-A:SER:385:CA:3404, V-B:ALA:541:CB:9864, V-B:TYR:539:CE1:9847, V-B:TYR:539:C:9839, V-A:TYR:539:CE2:4874, V-A:TYR:539:CZ:4875, V-A:ASP:366:CG:3210, V-A:MET:535:CE:4833, V-A:TYR:539:CE1:4873, H-A:TYR:539:N:4868, V-B:TYR:539:CZ:9849, V-A:TYR:539:CD1:4871, H-B:ALA:541:N:9863, V-A:TYR:539:CG:4870, V-B:PRO:540:CB:9857, H-A:TYR:531:OH:4793, H-B:TYR:539:N:9842, V-A:TYR:539:CD2:4872"]

$$$$
3bk_Grossjean_2025
     RDKit          3D

 30 31  0  0  0  0  0  0  0  0999 V2000
  130.8850  126.5470   73.1980 C   0  0  0  0  0  0  0  0  0  0  0  0
  129.5280  126.1350   73.2530 O   0  0  0  0  0  0  0  0  0  0  0  0
  128.7750  126.5110   72.1070 C   0  0  0  0  0  0  0  0  0  0  0  0
  129.6830  127.2520   71.1150 C   0  0  0  0  0  0  0  0  0  0  0  0
  129.4690  126.7390   69.8080 O   0  0  0  0  0  0  0  0  0  0  0  0
  129.1580  127.7350   68.8430 C   0  0  0  0  0  0  0  0  0  0  0  0
  129.4840  127.2030   67.4420 C   0  0  0  0  0  0  0  0  0  0  0  0
  130.2500  126.0120   67.5560 O   0  0  0  0  0  0  0  0  0  0  0  0
  131.2080  125.8420   66.5180 C   0  0  0  0  0  0  0  0  0  0  0  0
  130.6070  124.9680   65.4080 C   0  0  0  0  0  0  0  0  0  0  0  0
  131.4940  124.8530   64.2480 N   0  0  0  0  0  0  0  0  0  0  0  0
  132.8360  124.9110   64.2830 C   0  0  0  0  0  0  0  0  0  0  0  0
  133.4870  125.0530   65.3200 O   0  0  0  0  0  0  0  0  0  0  0  0
  133.5600  124.7630   62.9430 C   0  0  0  0  0  0  0  0  0  0  0  0
  132.4670  125.1260   61.5340 S   0  0  0  0  0  0  0  0  0  0  0  0
  131.2200  123.8540   61.4220 C   0  0  0  0  0  0  0  0  0  0  0  0
  131.6790  122.5860   61.2650 N   0  0  0  0  0  0  0  0  0  0  0  0
  130.8020  121.5520   61.1680 C   0  0  0  0  0  0  0  0  0  0  0  0
  131.3930  120.1830   61.0180 C   0  0  0  0  0  0  0  0  0  0  0  0
  130.6040  119.0360   61.2050 C   0  0  0  0  0  0  0  0  0  0  0  0
  131.1500  117.7620   61.0720 C   0  0  0  0  0  0  0  0  0  0  0  0
  132.4940  117.6160   60.7490 C   0  0  0  0  0  0  0  0  0  0  0  0
  133.2970  118.7360   60.5550 C   0  0  0  0  0  0  0  0  0  0  0  0
  132.7480  120.0090   60.6870 C   0  0  0  0  0  0  0  0  0  0  0  0
  129.4210  121.7750   61.2330 C   0  0  0  0  0  0  0  0  0  0  0  0
  128.9310  123.0750   61.3920 C   0  0  0  0  0  0  0  0  0  0  0  0
  127.4170  123.2740   61.4570 C   0  0  0  0  0  0  0  0  0  0  0  0
  129.8410  124.1480   61.4900 C   0  0  0  0  0  0  0  0  0  0  0  0
  129.3560  125.5210   61.6610 C   0  0  0  0  0  0  0  0  0  0  0  0
  128.9730  126.6050   61.7940 N   0  0  0  0  0  0  0  0  0  0  0  0
  1  2  1  0
  2  3  1  0
  3  4  1  0
  4  5  1  0
  5  6  1  0
  6  7  1  0
  7  8  1  0
  8  9  1  0
  9 10  1  0
 10 11  1  0
 11 12  1  0
 12 13  2  0
 12 14  1  0
 14 15  1  0
 15 16  1  0
 16 17  2  0
 17 18  1  0
 18 19  1  0
 19 20  2  0
 20 21  1  0
 21 22  2  0
 22 23  1  0
 23 24  2  0
 18 25  2  0
 25 26  1  0
 26 27  1  0
 26 28  2  0
 28 29  1  0
 29 30  3  0
 28 16  1  0
 24 19  1  0
M  END
>  <Binding energies>  (32) 
[-7.03]

>  <Ligand effiencies>  (32) 
[-0.2267741935483871]

>  <Interactions>  (32) 
["V-A:PRO:482:CG:4324, V-A:LEU:373:CD1:3277, V-B:PRO:540:CA:9855, V-A:LEU:475:CD2:4256, V-A:GLU:543:CD:4906, V-B:GLU:543:CD:9880, H-B:GLU:543:OE1:9881, V-A:PRO:482:CB:4323, V-A:SER:385:CB:3406, V-A:ILE:369:CG2:3234, V-B:TYR:539:CD1:9845, V-A:ARG:545:CZ:4924, V-A:SER:385:CA:3404, H-A:GLY:454:N:4047, V-B:ALA:541:CB:9864, V-B:TYR:539:CE1:9847, V-A:GLY:453:CA:4041, H-A:HIS:456:NE2:4067, H-A:TYR:484:OH:4345, V-B:GLU:543:CB:9878, V-A:HIS:456:CE1:4066, V-B:PRO:540:C:9853, H-A:ARG:545:NE:4922, V-B:GLU:543:CG:9879, V-A:GLU:543:CG:4905, V-B:HIS:456:CE1:9040, V-A:HIS:456:CD2:4065, V-B:GLY:544:C:9884, V-B:GLY:544:CA:9886, V-A:HIS:456:CG:4063, H-B:LYS:547:NZ:9923"]

$$$$
3cb_Grossjean_2025
     RDKit          3D

 30 32  0  0  0  0  0  0  0  0999 V2000
  130.6970  127.1200   72.9510 C   0  0  0  0  0  0  0  0  0  0  0  0
  129.8710  128.1760   72.4840 O   0  0  0  0  0  0  0  0  0  0  0  0
  128.7670  127.9220   71.7350 C   0  0  0  0  0  0  0  0  0  0  0  0
  127.6160  127.9880   72.1770 O   0  0  0  0  0  0  0  0  0  0  0  0
  129.0850  127.5490   70.3150 C   0  0  0  0  0  0  0  0  0  0  0  0
  130.3660  127.7230   69.7700 C   0  0  0  0  0  0  0  0  0  0  0  0
  130.6270  127.3640   68.4510 C   0  0  0  0  0  0  0  0  0  0  0  0
  129.6180  126.8310   67.6480 C   0  0  0  0  0  0  0  0  0  0  0  0
  129.9940  126.5010   66.3300 N   0  0  0  0  0  0  0  0  0  0  0  0
  130.4280  125.3280   65.8200 C   0  0  0  0  0  0  0  0  0  0  0  0
  130.5570  124.2840   66.4610 O   0  0  0  0  0  0  0  0  0  0  0  0
  130.7500  125.3680   64.3180 C   0  0  0  0  0  0  0  0  0  0  0  0
  132.5250  125.2510   63.9080 S   0  0  0  0  0  0  0  0  0  0  0  0
  132.6970  124.1100   62.5520 C   0  0  0  0  0  0  0  0  0  0  0  0
  133.3690  124.6270   61.4940 N   0  0  0  0  0  0  0  0  0  0  0  0
  133.5600  123.8490   60.4050 C   0  0  0  0  0  0  0  0  0  0  0  0
  134.3300  124.4880   59.2650 C   0  0  0  0  0  0  0  0  0  0  0  0
  133.0900  122.5410   60.3250 C   0  0  0  0  0  0  0  0  0  0  0  0
  132.3790  121.9920   61.4000 C   0  0  0  0  0  0  0  0  0  0  0  0
  131.8890  120.5860   61.2630 C   0  0  0  0  0  0  0  0  0  0  0  0
  130.5570  120.2730   61.5590 C   0  0  0  0  0  0  0  0  0  0  0  0
  130.0880  118.9680   61.4240 C   0  0  0  0  0  0  0  0  0  0  0  0
  130.9530  117.9680   60.9880 C   0  0  0  0  0  0  0  0  0  0  0  0
  132.2790  118.2630   60.6820 C   0  0  0  0  0  0  0  0  0  0  0  0
  132.7430  119.5690   60.8160 C   0  0  0  0  0  0  0  0  0  0  0  0
  132.1580  122.8000   62.5460 C   0  0  0  0  0  0  0  0  0  0  0  0
  131.3410  122.3090   63.6600 C   0  0  0  0  0  0  0  0  0  0  0  0
  130.6970  121.9220   64.5400 N   0  0  0  0  0  0  0  0  0  0  0  0
  128.3360  126.6510   68.1870 C   0  0  0  0  0  0  0  0  0  0  0  0
  128.0750  127.0090   69.5070 C   0  0  0  0  0  0  0  0  0  0  0  0
  1  2  1  0
  2  3  1  0
  3  4  2  0
  3  5  1  0
  5  6  2  0
  6  7  1  0
  7  8  2  0
  8  9  1  0
  9 10  1  0
 10 11  2  0
 10 12  1  0
 12 13  1  0
 13 14  1  0
 14 15  2  0
 15 16  1  0
 16 17  1  0
 16 18  2  0
 18 19  1  0
 19 20  1  0
 20 21  2  0
 21 22  1  0
 22 23  2  0
 23 24  1  0
 24 25  2  0
 19 26  2  0
 26 27  1  0
 27 28  3  0
  8 29  1  0
 29 30  2  0
 30  5  1  0
 26 14  1  0
 25 20  1  0
M  END
>  <Binding energies>  (33) 
[-8.24]

>  <Ligand effiencies>  (33) 
[-0.2658064516129032]

>  <Interactions>  (33) 
["V-A:PRO:482:CG:4324, V-A:LEU:373:CD1:3277, V-A:LEU:475:CD2:4256, V-A:GLU:543:CD:4906, V-B:GLU:543:CD:9880, H-B:GLU:543:OE1:9881, V-A:PRO:482:CB:4323, H-B:GLU:543:OE2:9882, V-A:SER:385:CB:3406, V-A:ILE:369:CG2:3234, V-B:TYR:539:CD1:9845, V-A:SER:385:CA:3404, V-B:ALA:541:CB:9864, V-B:TYR:539:CE1:9847, V-B:TYR:539:C:9839, V-A:ASP:366:CG:3210, V-A:ASP:366:CB:3209, H-A:ARG:545:NH2:4926, H-A:HIS:456:NE2:4067, H-A:TYR:484:OH:4345, H-A:GLU:543:OE1:4907, V-B:GLU:543:CB:9878, V-A:HIS:456:CE1:4066, H-A:GLU:543:OE2:4908, V-A:ILE:369:CD1:3236, V-A:ASP:366:CA:3207, V-A:ILE:369:CB:3233, V-B:GLU:543:CG:9879, V-A:GLU:543:CG:4905, V-A:GLU:543:C:4900, V-B:HIS:456:CE1:9040, H-A:LYS:547:NZ:4949, V-A:LYS:547:CE:4948, V-A:HIS:456:CD2:4065, V-A:GLY:544:C:4910, V-B:HIS:456:CD2:9039, V-B:GLU:543:C:9874, H-B:HIS:456:NE2:9041"]

$$$$
3ch_Grossjean_2025
     RDKit          3D

 32 34  0  0  0  0  0  0  0  0999 V2000
  133.5160  125.4760   66.0970 C   0  0  0  0  0  0  0  0  0  0  0  0
  133.5680  124.7260   64.8880 O   0  0  0  0  0  0  0  0  0  0  0  0
  132.6430  124.9730   63.8900 C   0  0  0  0  0  0  0  0  0  0  0  0
  131.4850  125.7470   64.0670 C   0  0  0  0  0  0  0  0  0  0  0  0
  130.5940  125.9630   63.0050 C   0  0  0  0  0  0  0  0  0  0  0  0
  129.4140  126.7260   63.0850 N   0  0  0  0  0  0  0  0  0  0  0  0
  129.2050  128.0260   62.7820 C   0  0  0  0  0  0  0  0  0  0  0  0
  130.0550  128.8050   62.3490 O   0  0  0  0  0  0  0  0  0  0  0  0
  127.7720  128.5240   62.9670 C   0  0  0  0  0  0  0  0  0  0  0  0
  127.0000  128.9950   61.3910 S   0  0  0  0  0  0  0  0  0  0  0  0
  127.8360  130.4710   60.8530 C   0  0  0  0  0  0  0  0  0  0  0  0
  127.3800  131.6060   61.4380 N   0  0  0  0  0  0  0  0  0  0  0  0
  127.9450  132.7840   61.0910 C   0  0  0  0  0  0  0  0  0  0  0  0
  127.3830  134.0140   61.7790 C   0  0  0  0  0  0  0  0  0  0  0  0
  128.9740  132.8770   60.1580 C   0  0  0  0  0  0  0  0  0  0  0  0
  129.4650  131.7140   59.5470 C   0  0  0  0  0  0  0  0  0  0  0  0
  130.5630  131.8630   58.5440 C   0  0  0  0  0  0  0  0  0  0  0  0
  131.8360  131.3450   58.8120 C   0  0  0  0  0  0  0  0  0  0  0  0
  132.8660  131.4870   57.8860 C   0  0  0  0  0  0  0  0  0  0  0  0
  132.6270  132.1540   56.6870 C   0  0  0  0  0  0  0  0  0  0  0  0
  131.3700  132.6810   56.4090 C   0  0  0  0  0  0  0  0  0  0  0  0
  130.3420  132.5380   57.3380 C   0  0  0  0  0  0  0  0  0  0  0  0
  128.8950  130.4680   59.9160 C   0  0  0  0  0  0  0  0  0  0  0  0
  129.4320  129.2130   59.3810 C   0  0  0  0  0  0  0  0  0  0  0  0
  129.8550  128.2220   58.9580 N   0  0  0  0  0  0  0  0  0  0  0  0
  130.8620  125.3810   61.7650 C   0  0  0  0  0  0  0  0  0  0  0  0
  132.0120  124.6020   61.5630 C   0  0  0  0  0  0  0  0  0  0  0  0
  132.3390  124.0040   60.3580 O   0  0  0  0  0  0  0  0  0  0  0  0
  133.2220  124.6720   59.4620 C   0  0  0  0  0  0  0  0  0  0  0  0
  132.8930  124.4040   62.6340 C   0  0  0  0  0  0  0  0  0  0  0  0
  134.0310  123.6570   62.4450 O   0  0  0  0  0  0  0  0  0  0  0  0
  133.8000  122.2570   62.3650 C   0  0  0  0  0  0  0  0  0  0  0  0
  1  2  1  0
  2  3  1  0
  3  4  2  0
  4  5  1  0
  5  6  1  0
  6  7  1  0
  7  8  2  0
  7  9  1  0
  9 10  1  0
 10 11  1  0
 11 12  2  0
 12 13  1  0
 13 14  1  0
 13 15  2  0
 15 16  1  0
 16 17  1  0
 17 18  2  0
 18 19  1  0
 19 20  2  0
 20 21  1  0
 21 22  2  0
 16 23  2  0
 23 24  1  0
 24 25  3  0
  5 26  2  0
 26 27  1  0
 27 28  1  0
 28 29  1  0
 27 30  2  0
 30 31  1  0
 31 32  1  0
 30  3  1  0
 23 11  1  0
 22 17  1  0
M  END
>  <Binding energies>  (34) 
[-7.22]

>  <Ligand effiencies>  (34) 
[-0.21878787878787878]

>  <Interactions>  (34) 
["V-A:LEU:475:CD2:4256, V-A:GLU:543:CD:4906, V-B:GLU:543:CD:9880, H-B:GLU:543:OE1:9881, H-B:GLU:543:OE2:9882, V-A:GLY:454:CA:4046, V-A:ARG:545:CZ:4924, H-A:GLY:454:N:4047, V-A:ASP:366:CG:3210, V-A:TYR:531:CE2:4791, V-A:ASP:366:CB:3209, V-A:LEU:363:CD1:3186, V-A:PRO:540:CA:4881, V-A:TYR:539:C:4865, V-A:PRO:540:CB:4883, V-A:PRO:540:N:4882, V-A:TYR:539:CE1:4873, H-A:ARG:545:NH2:4926, V-A:TYR:539:CD1:4871, V-A:ARG:545:CD:4921, H-A:TYR:484:OH:4345, V-A:HIS:456:CE1:4066, V-A:ILE:369:CD1:3236, V-A:ARG:545:CG:4920, V-A:ASP:366:CA:3207, V-B:LEU:475:CD2:9230, V-A:ALA:541:CB:4890, V-A:ILE:538:CG2:4861, H-A:ARG:545:NE:4922, V-A:ILE:538:CB:4860, V-A:ILE:538:CA:4858, V-A:PRO:540:CD:4885"]

$$$$
3ci_Grossjean_2025
     RDKit          3D

 25 27  0  0  0  0  0  0  0  0999 V2000
  134.6300  124.3460   59.0960 C   0  0  0  0  0  0  0  0  0  0  0  0
  133.8060  123.7810   60.2380 C   0  0  0  0  0  0  0  0  0  0  0  0
  133.2870  122.4900   60.1950 C   0  0  0  0  0  0  0  0  0  0  0  0
  132.5450  122.0060   61.2820 C   0  0  0  0  0  0  0  0  0  0  0  0
  132.0210  120.6100   61.1990 C   0  0  0  0  0  0  0  0  0  0  0  0
  132.8630  119.5470   60.8480 C   0  0  0  0  0  0  0  0  0  0  0  0
  132.3670  118.2490   60.7640 C   0  0  0  0  0  0  0  0  0  0  0  0
  131.0210  118.0090   61.0240 C   0  0  0  0  0  0  0  0  0  0  0  0
  130.1680  119.0550   61.3660 C   0  0  0  0  0  0  0  0  0  0  0  0
  130.6680  120.3510   61.4490 C   0  0  0  0  0  0  0  0  0  0  0  0
  132.3390  122.8640   62.3930 C   0  0  0  0  0  0  0  0  0  0  0  0
  131.5360  122.4280   63.5400 C   0  0  0  0  0  0  0  0  0  0  0  0
  130.9020  122.0820   64.4450 N   0  0  0  0  0  0  0  0  0  0  0  0
  132.9080  124.1600   62.3560 C   0  0  0  0  0  0  0  0  0  0  0  0
  132.7290  125.3150   63.7090 S   0  0  0  0  0  0  0  0  0  0  0  0
  130.9940  125.8620   63.8180 C   0  0  0  0  0  0  0  0  0  0  0  0
  130.1440  125.4290   62.6190 C   0  0  0  0  0  0  0  0  0  0  0  0
  130.0900  126.1560   61.6250 O   0  0  0  0  0  0  0  0  0  0  0  0
  129.4890  124.2540   62.7570 N   0  0  0  0  0  0  0  0  0  0  0  0
  128.6810  123.6260   61.8180 C   0  0  0  0  0  0  0  0  0  0  0  0
  129.1070  123.3340   60.5230 C   0  0  0  0  0  0  0  0  0  0  0  0
  128.0290  122.7260   59.9210 C   0  0  0  0  0  0  0  0  0  0  0  0
  127.0090  122.6550   60.8090 O   0  0  0  0  0  0  0  0  0  0  0  0
  127.4340  123.2300   62.0070 N   0  0  0  0  0  0  0  0  0  0  0  0
  133.6210  124.6060   61.2910 N   0  0  0  0  0  0  0  0  0  0  0  0
  1  2  1  0
  2  3  2  0
  3  4  1  0
  4  5  1  0
  5  6  2  0
  6  7  1  0
  7  8  2  0
  8  9  1  0
  9 10  2  0
  4 11  2  0
 11 12  1  0
 12 13  3  0
 11 14  1  0
 14 15  1  0
 15 16  1  0
 16 17  1  0
 17 18  2  0
 17 19  1  0
 19 20  1  0
 20 21  1  0
 21 22  2  0
 22 23  1  0
 23 24  1  0
 14 25  2  0
 25  2  1  0
 10  5  1  0
 24 20  2  0
M  END
>  <Binding energies>  (35) 
[-7.3]

>  <Ligand effiencies>  (35) 
[-0.28076923076923077]

>  <Interactions>  (35) 
["V-A:PRO:482:CG:4324, V-A:LEU:373:CD1:3277, V-B:PRO:540:CA:9855, V-B:PRO:540:N:9856, V-A:LEU:475:CD2:4256, V-B:GLU:543:CD:9880, H-B:GLU:543:OE1:9881, V-A:PRO:482:CB:4323, V-A:SER:385:CB:3406, V-A:ILE:369:CG2:3234, V-B:TYR:539:CD1:9845, V-A:SER:385:CA:3404, V-B:ALA:541:CB:9864, V-B:TYR:539:CE1:9847, V-B:TYR:539:C:9839, V-A:ASP:366:CG:3210, V-A:ASP:366:CB:3209, H-A:ARG:545:NH2:4926, H-A:TYR:484:OH:4345, V-A:ASP:366:C:3205, V-A:ILE:369:CD1:3236, V-A:ASP:366:CA:3207, H-B:ALA:541:N:9863, V-A:ILE:369:CB:3233, H-A:ARG:545:NE:4922, V-A:ILE:369:CG1:3235"]

$$$$
3ck_Grossjean_2025
     RDKit          3D

 30 31  0  0  0  0  0  0  0  0999 V2000
  125.9890  123.1500   57.1380 C   0  0  0  0  0  0  0  0  0  0  0  0
  126.9210  122.1590   56.7350 O   0  0  0  0  0  0  0  0  0  0  0  0
  128.2700  122.4990   57.0260 C   0  0  0  0  0  0  0  0  0  0  0  0
  128.3310  123.9270   57.5830 C   0  0  0  0  0  0  0  0  0  0  0  0
  128.6640  123.8790   58.9640 O   0  0  0  0  0  0  0  0  0  0  0  0
  129.0590  122.5910   59.4180 C   0  0  0  0  0  0  0  0  0  0  0  0
  128.5500  122.3870   60.8500 C   0  0  0  0  0  0  0  0  0  0  0  0
  127.2070  122.8430   60.9170 O   0  0  0  0  0  0  0  0  0  0  0  0
  126.9380  123.7480   61.9780 C   0  0  0  0  0  0  0  0  0  0  0  0
  127.3410  125.1730   61.5550 C   0  0  0  0  0  0  0  0  0  0  0  0
  128.4970  125.7010   62.2860 N   0  0  0  0  0  0  0  0  0  0  0  0
  129.7020  125.9750   61.7540 C   0  0  0  0  0  0  0  0  0  0  0  0
  129.9610  125.8330   60.5580 O   0  0  0  0  0  0  0  0  0  0  0  0
  130.7590  126.4940   62.7430 C   0  0  0  0  0  0  0  0  0  0  0  0
  131.8460  125.2180   63.4670 S   0  0  0  0  0  0  0  0  0  0  0  0
  132.3000  124.0470   62.1980 C   0  0  0  0  0  0  0  0  0  0  0  0
  133.0180  124.5530   61.1630 N   0  0  0  0  0  0  0  0  0  0  0  0
  133.3920  123.7230   60.1640 C   0  0  0  0  0  0  0  0  0  0  0  0
  134.1890  124.3610   59.0420 C   0  0  0  0  0  0  0  0  0  0  0  0
  133.0700  122.3690   60.1530 C   0  0  0  0  0  0  0  0  0  0  0  0
  132.3250  121.8250   61.2070 C   0  0  0  0  0  0  0  0  0  0  0  0
  131.9830  120.3730   61.1420 C   0  0  0  0  0  0  0  0  0  0  0  0
  132.9730  119.4300   60.8410 C   0  0  0  0  0  0  0  0  0  0  0  0
  132.6590  118.0740   60.7680 C   0  0  0  0  0  0  0  0  0  0  0  0
  131.3500  117.6580   60.9900 C   0  0  0  0  0  0  0  0  0  0  0  0
  130.3520  118.5840   61.2820 C   0  0  0  0  0  0  0  0  0  0  0  0
  130.6690  119.9380   61.3540 C   0  0  0  0  0  0  0  0  0  0  0  0
  131.9360  122.6820   62.2690 C   0  0  0  0  0  0  0  0  0  0  0  0
  131.1900  122.1600   63.4200 C   0  0  0  0  0  0  0  0  0  0  0  0
  130.6020  121.7470   64.3270 N   0  0  0  0  0  0  0  0  0  0  0  0
  1  2  1  0
  2  3  1  0
  3  4  1  0
  4  5  1  0
  5  6  1  0
  6  7  1  0
  7  8  1  0
  8  9  1  0
  9 10  1  0
 10 11  1  0
 11 12  1  0
 12 13  2  0
 12 14  1  0
 14 15  1  0
 15 16  1  0
 16 17  2  0
 17 18  1  0
 18 19  1  0
 18 20  2  0
 20 21  1  0
 21 22  1  0
 22 23  2  0
 23 24  1  0
 24 25  2  0
 25 26  1  0
 26 27  2  0
 21 28  2  0
 28 29  1  0
 29 30  3  0
 28 16  1  0
 27 22  1  0
M  END
>  <Binding energies>  (36) 
[-7.12]

>  <Ligand effiencies>  (36) 
[-0.2296774193548387]

>  <Interactions>  (36) 
["V-A:PRO:482:CG:4324, V-A:LEU:373:CD1:3277, V-B:PRO:540:CA:9855, V-B:PRO:540:N:9856, V-A:LEU:475:CD2:4256, V-B:GLU:543:CD:9880, H-B:GLU:543:OE1:9881, V-A:PRO:482:CB:4323, H-B:GLU:543:OE2:9882, V-A:SER:385:CB:3406, V-A:ILE:369:CG2:3234, V-B:TYR:539:CD1:9845, V-A:SER:385:CA:3404, V-B:ALA:541:CB:9864, V-B:TYR:539:CE1:9847, V-B:TYR:539:C:9839, V-A:ASP:366:CG:3210, V-B:TYR:539:CE2:9848, V-A:ASP:366:CB:3209, V-B:TYR:539:CZ:9849, H-A:ARG:545:NH2:4926, H-A:TYR:484:OH:4345, V-A:ASP:366:C:3205, V-A:ILE:369:CD1:3236, V-A:ASP:366:CA:3207, H-B:ALA:541:N:9863, V-A:ILE:369:CB:3233, V-B:PRO:540:C:9853, H-B:TYR:539:N:9842, V-B:TYR:539:CG:9844, V-B:TYR:539:CA:9841, V-B:TYR:539:CD2:9846"]

$$$$
4aa_Grossjean_2025
     RDKit          3D

 26 28  0  0  0  0  0  0  0  0999 V2000
  129.9120  125.9810   73.2520 C   0  0  0  0  0  0  0  0  0  0  0  0
  130.6420  127.3240   73.1610 C   0  0  0  0  0  0  0  0  0  0  0  0
  129.7410  128.3200   72.6950 O   0  0  0  0  0  0  0  0  0  0  0  0
  128.6420  127.9880   71.9690 C   0  0  0  0  0  0  0  0  0  0  0  0
  127.4930  128.0130   72.4220 O   0  0  0  0  0  0  0  0  0  0  0  0
  128.9630  127.5820   70.5600 C   0  0  0  0  0  0  0  0  0  0  0  0
  130.2760  127.7220   70.0900 C   0  0  0  0  0  0  0  0  0  0  0  0
  130.6040  127.3590   68.7860 C   0  0  0  0  0  0  0  0  0  0  0  0
  129.6310  126.8420   67.9300 C   0  0  0  0  0  0  0  0  0  0  0  0
  130.0700  126.5160   66.6320 N   0  0  0  0  0  0  0  0  0  0  0  0
  130.4950  125.3340   66.1250 C   0  0  0  0  0  0  0  0  0  0  0  0
  130.6100  124.2990   66.7830 O   0  0  0  0  0  0  0  0  0  0  0  0
  130.8490  125.3550   64.7040 C   0  0  0  0  0  0  0  0  0  0  0  0
  132.1170  124.2920   64.0870 S   0  0  0  0  0  0  0  0  0  0  0  0
  131.9380  124.9390   62.4720 C   0  0  0  0  0  0  0  0  0  0  0  0
  132.6810  124.5070   61.4520 N   0  0  0  0  0  0  0  0  0  0  0  0
  132.4460  125.0950   60.2540 C   0  0  0  0  0  0  0  0  0  0  0  0
  133.3050  124.5920   59.1080 C   0  0  0  0  0  0  0  0  0  0  0  0
  131.4930  126.0910   60.0530 C   0  0  0  0  0  0  0  0  0  0  0  0
  130.7140  126.5410   61.1240 C   0  0  0  0  0  0  0  0  0  0  0  0
  129.6870  127.6300   60.8550 C   0  0  0  0  0  0  0  0  0  0  0  0
  130.9350  125.9510   62.3990 C   0  0  0  0  0  0  0  0  0  0  0  0
  130.3330  126.1710   63.6870 C   0  0  0  0  0  0  0  0  0  0  0  0
  129.3410  127.1000   63.8810 N   0  0  0  0  0  0  0  0  0  0  0  0
  128.3140  126.7030   68.3890 C   0  0  0  0  0  0  0  0  0  0  0  0
  127.9860  127.0700   69.6920 C   0  0  0  0  0  0  0  0  0  0  0  0
  1  2  1  0
  2  3  1  0
  3  4  1  0
  4  5  2  0
  4  6  1  0
  6  7  2  0
  7  8  1  0
  8  9  2  0
  9 10  1  0
 10 11  1  0
 11 12  2  0
 11 13  1  0
 13 14  1  0
 14 15  1  0
 15 16  2  0
 16 17  1  0
 17 18  1  0
 17 19  2  0
 19 20  1  0
 20 21  1  0
 20 22  2  0
 22 23  1  0
 23 24  1  0
  9 25  1  0
 25 26  2  0
 26  6  1  0
 23 13  2  0
 22 15  1  0
M  END
>  <Binding energies>  (37) 
[-6.33]

>  <Ligand effiencies>  (37) 
[-0.21827586206896551]

>  <Interactions>  (37) 
["V-A:GLU:543:CD:4906, V-B:GLU:543:CD:9880, H-B:GLU:543:OE1:9881, H-B:GLU:543:OE2:9882, V-A:ASP:366:CG:3210, V-A:ASP:366:CB:3209, H-A:HIS:456:NE2:4067, H-A:TYR:484:OH:4345, H-A:GLU:543:OE1:4907, V-B:GLU:543:CB:9878, V-A:HIS:456:CE1:4066, H-A:GLU:543:OE2:4908, V-A:ASP:366:CA:3207, V-B:GLU:543:CG:9879, V-A:GLU:543:CG:4905, V-A:GLU:543:C:4900, V-B:HIS:456:CE1:9040, H-A:LYS:547:NZ:4949, V-A:LYS:547:CE:4948, V-A:HIS:456:CD2:4065, V-B:GLY:544:C:9884, V-A:GLY:544:C:4910, V-B:HIS:456:CD2:9039, V-B:LYS:547:CE:9922, V-B:GLU:543:C:9874, H-B:HIS:456:NE2:9041"]

$$$$
4ab_Grossjean_2025
     RDKit          3D

 25 27  0  0  0  0  0  0  0  0999 V2000
  130.5910  127.2180   73.1850 C   0  0  0  0  0  0  0  0  0  0  0  0
  129.7540  128.2560   72.6960 O   0  0  0  0  0  0  0  0  0  0  0  0
  128.6480  127.9740   71.9610 C   0  0  0  0  0  0  0  0  0  0  0  0
  127.4990  128.0330   72.4110 O   0  0  0  0  0  0  0  0  0  0  0  0
  128.9610  127.5760   70.5480 C   0  0  0  0  0  0  0  0  0  0  0  0
  130.2700  127.7240   70.0700 C   0  0  0  0  0  0  0  0  0  0  0  0
  130.5910  127.3650   68.7640 C   0  0  0  0  0  0  0  0  0  0  0  0
  129.6160  126.8440   67.9130 C   0  0  0  0  0  0  0  0  0  0  0  0
  130.0490  126.5230   66.6130 N   0  0  0  0  0  0  0  0  0  0  0  0
  130.4820  125.3440   66.1030 C   0  0  0  0  0  0  0  0  0  0  0  0
  130.6070  124.3090   66.7590 O   0  0  0  0  0  0  0  0  0  0  0  0
  130.8290  125.3690   64.6810 C   0  0  0  0  0  0  0  0  0  0  0  0
  132.0890  124.3040   64.0530 S   0  0  0  0  0  0  0  0  0  0  0  0
  131.9050  124.9570   62.4410 C   0  0  0  0  0  0  0  0  0  0  0  0
  132.6420  124.5280   61.4160 N   0  0  0  0  0  0  0  0  0  0  0  0
  132.4020  125.1190   60.2210 C   0  0  0  0  0  0  0  0  0  0  0  0
  133.2550  124.6190   59.0690 C   0  0  0  0  0  0  0  0  0  0  0  0
  131.4500  126.1160   60.0260 C   0  0  0  0  0  0  0  0  0  0  0  0
  130.6780  126.5650   61.1040 C   0  0  0  0  0  0  0  0  0  0  0  0
  129.6520  127.6580   60.8420 C   0  0  0  0  0  0  0  0  0  0  0  0
  130.9040  125.9720   62.3760 C   0  0  0  0  0  0  0  0  0  0  0  0
  130.3110  126.1910   63.6680 C   0  0  0  0  0  0  0  0  0  0  0  0
  129.3240  127.1230   63.8710 N   0  0  0  0  0  0  0  0  0  0  0  0
  128.3010  126.6980   68.3810 C   0  0  0  0  0  0  0  0  0  0  0  0
  127.9810  127.0590   69.6860 C   0  0  0  0  0  0  0  0  0  0  0  0
  1  2  1  0
  2  3  1  0
  3  4  2  0
  3  5  1  0
  5  6  2  0
  6  7  1  0
  7  8  2  0
  8  9  1  0
  9 10  1  0
 10 11  2  0
 10 12  1  0
 12 13  1  0
 13 14  1  0
 14 15  2  0
 15 16  1  0
 16 17  1  0
 16 18  2  0
 18 19  1  0
 19 20  1  0
 19 21  2  0
 21 22  1  0
 22 23  1  0
  8 24  1  0
 24 25  2  0
 25  5  1  0
 22 12  2  0
 21 14  1  0
M  END
>  <Binding energies>  (38) 
[-6.22]

>  <Ligand effiencies>  (38) 
[-0.22214285714285714]

>  <Interactions>  (38) 
["V-A:GLU:543:CD:4906, V-B:GLU:543:CD:9880, H-B:GLU:543:OE1:9881, H-B:GLU:543:OE2:9882, V-A:ASP:366:CG:3210, V-A:ASP:366:CB:3209, H-A:HIS:456:NE2:4067, H-A:TYR:484:OH:4345, H-A:GLU:543:OE1:4907, V-B:GLU:543:CB:9878, V-A:HIS:456:CE1:4066, H-A:GLU:543:OE2:4908, V-A:ASP:366:CA:3207, V-B:GLU:543:CG:9879, V-A:GLU:543:CG:4905, V-A:GLU:543:C:4900, V-B:HIS:456:CE1:9040, H-A:LYS:547:NZ:4949, V-A:LYS:547:CE:4948, V-B:GLY:544:C:9884, V-A:GLY:544:C:4910, V-B:HIS:456:CD2:9039, V-B:GLU:543:C:9874, H-B:HIS:456:NE2:9041"]

$$$$
4ac_Grossjean_2025
     RDKit          3D

 23 25  0  0  0  0  0  0  0  0999 V2000
  128.1180  127.1070   72.7450 C   0  0  0  0  0  0  0  0  0  0  0  0
  128.5810  128.0760   71.8110 O   0  0  0  0  0  0  0  0  0  0  0  0
  128.8720  127.6830   70.5190 C   0  0  0  0  0  0  0  0  0  0  0  0
  130.2140  127.7260   70.1440 C   0  0  0  0  0  0  0  0  0  0  0  0
  130.6040  127.3480   68.8620 C   0  0  0  0  0  0  0  0  0  0  0  0
  129.6530  126.9100   67.9390 C   0  0  0  0  0  0  0  0  0  0  0  0
  130.1380  126.5610   66.6650 N   0  0  0  0  0  0  0  0  0  0  0  0
  130.5530  125.3560   66.2060 C   0  0  0  0  0  0  0  0  0  0  0  0
  130.5990  124.3350   66.8960 O   0  0  0  0  0  0  0  0  0  0  0  0
  130.9680  125.3270   64.8010 C   0  0  0  0  0  0  0  0  0  0  0  0
  132.2880  124.2780   64.2820 S   0  0  0  0  0  0  0  0  0  0  0  0
  132.1340  124.8240   62.6270 C   0  0  0  0  0  0  0  0  0  0  0  0
  132.9210  124.3610   61.6550 N   0  0  0  0  0  0  0  0  0  0  0  0
  132.6980  124.8660   60.4180 C   0  0  0  0  0  0  0  0  0  0  0  0
  133.6030  124.3250   59.3260 C   0  0  0  0  0  0  0  0  0  0  0  0
  131.7180  125.8150   60.1330 C   0  0  0  0  0  0  0  0  0  0  0  0
  130.8950  126.3000   61.1560 C   0  0  0  0  0  0  0  0  0  0  0  0
  129.8400  127.3350   60.7950 C   0  0  0  0  0  0  0  0  0  0  0  0
  131.0980  125.7910   62.4670 C   0  0  0  0  0  0  0  0  0  0  0  0
  130.4470  126.0580   63.7220 C   0  0  0  0  0  0  0  0  0  0  0  0
  129.4130  126.9530   63.8340 N   0  0  0  0  0  0  0  0  0  0  0  0
  128.3000  126.8750   68.3050 C   0  0  0  0  0  0  0  0  0  0  0  0
  127.9140  127.2550   69.5880 C   0  0  0  0  0  0  0  0  0  0  0  0
  1  2  1  0
  2  3  1  0
  3  4  2  0
  4  5  1  0
  5  6  2  0
  6  7  1  0
  7  8  1  0
  8  9  2  0
  8 10  1  0
 10 11  1  0
 11 12  1  0
 12 13  2  0
 13 14  1  0
 14 15  1  0
 14 16  2  0
 16 17  1  0
 17 18  1  0
 17 19  2  0
 19 20  1  0
 20 21  1  0
  6 22  1  0
 22 23  2  0
 23  3  1  0
 20 10  2  0
 19 12  1  0
M  END
>  <Binding energies>  (39) 
[-5.86]

>  <Ligand effiencies>  (39) 
[-0.2253846153846154]

>  <Interactions>  (39) 
["V-A:GLU:543:CD:4906, V-B:GLU:543:CD:9880, H-B:GLU:543:OE1:9881, H-B:GLU:543:OE2:9882, V-A:ILE:369:CG2:3234, V-A:ASP:366:CG:3210, V-A:ASP:366:CB:3209, H-A:HIS:456:NE2:4067, H-A:TYR:484:OH:4345, H-A:GLU:543:OE1:4907, V-B:GLU:543:CB:9878, V-A:HIS:456:CE1:4066, H-A:GLU:543:OE2:4908, V-A:ASP:366:CA:3207, V-B:GLU:543:CG:9879, V-A:GLU:543:CG:4905, V-A:GLU:543:C:4900, V-B:HIS:456:CE1:9040, V-B:GLY:544:C:9884, V-A:GLY:544:C:4910, V-B:HIS:456:CD2:9039, V-B:LYS:547:CE:9922, V-B:GLU:543:C:9874, V-B:GLY:544:CA:9886, H-B:HIS:456:NE2:9041"]

$$$$
4ad_Grossjean_2025
     RDKit          3D

 21 23  0  0  0  0  0  0  0  0999 V2000
  133.6090  121.3450   61.2530 C   0  0  0  0  0  0  0  0  0  0  0  0
  133.0840  122.7570   61.0780 C   0  0  0  0  0  0  0  0  0  0  0  0
  132.8520  123.5780   62.1790 C   0  0  0  0  0  0  0  0  0  0  0  0
  132.3640  124.8780   61.9940 C   0  0  0  0  0  0  0  0  0  0  0  0
  132.1250  125.7360   63.2270 C   0  0  0  0  0  0  0  0  0  0  0  0
  132.1220  125.3110   60.6620 C   0  0  0  0  0  0  0  0  0  0  0  0
  131.6340  126.5500   60.1190 C   0  0  0  0  0  0  0  0  0  0  0  0
  131.3010  127.6160   60.9160 N   0  0  0  0  0  0  0  0  0  0  0  0
  131.5360  126.5600   58.7180 C   0  0  0  0  0  0  0  0  0  0  0  0
  131.0680  127.6380   57.8450 C   0  0  0  0  0  0  0  0  0  0  0  0
  130.4450  127.3830   56.8120 O   0  0  0  0  0  0  0  0  0  0  0  0
  131.3590  128.8940   58.2650 N   0  0  0  0  0  0  0  0  0  0  0  0
  131.0920  130.1290   57.6450 C   0  0  0  0  0  0  0  0  0  0  0  0
  132.1710  131.0140   57.5550 C   0  0  0  0  0  0  0  0  0  0  0  0
  132.0120  132.2570   56.9500 C   0  0  0  0  0  0  0  0  0  0  0  0
  130.7730  132.6150   56.4250 C   0  0  0  0  0  0  0  0  0  0  0  0
  129.6930  131.7370   56.4950 C   0  0  0  0  0  0  0  0  0  0  0  0
  129.8500  130.4940   57.1010 C   0  0  0  0  0  0  0  0  0  0  0  0
  132.0560  125.0190   58.0330 S   0  0  0  0  0  0  0  0  0  0  0  0
  132.3980  124.3730   59.6220 C   0  0  0  0  0  0  0  0  0  0  0  0
  132.8640  123.1350   59.7960 N   0  0  0  0  0  0  0  0  0  0  0  0
  1  2  1  0
  2  3  2  0
  3  4  1  0
  4  5  1  0
  4  6  2  0
  6  7  1  0
  7  8  1  0
  7  9  2  0
  9 10  1  0
 10 11  2  0
 10 12  1  0
 12 13  1  0
 13 14  2  0
 14 15  1  0
 15 16  2  0
 16 17  1  0
 17 18  2  0
  9 19  1  0
 19 20  1  0
 20 21  2  0
 21  2  1  0
 20  6  1  0
 18 13  1  0
M  END
>  <Binding energies>  (40) 
[-6.0]

>  <Ligand effiencies>  (40) 
[-0.25]

>  <Interactions>  (40) 
["V-A:LEU:475:CD2:4256, V-A:ILE:369:CG2:3234, V-A:ARG:545:CZ:4924, V-B:TYR:539:CE1:9847, V-A:ASP:366:CG:3210, V-A:ASP:366:CB:3209, V-A:MET:535:CE:4833, V-A:PRO:540:CB:4883, V-A:PRO:540:N:4882, V-B:TYR:539:CZ:9849, V-A:ILE:369:CD1:3236, H-A:ASP:366:OD2:3212, H-A:ASP:366:OD1:3211, V-A:ILE:538:CG2:4861, H-A:TYR:531:OH:4793, V-A:ILE:538:CB:4860, V-A:ILE:538:CA:4858, V-A:PRO:540:CD:4885"]

$$$$
4ae_Grossjean_2025
     RDKit          3D

 22 24  0  0  0  0  0  0  0  0999 V2000
  131.3670  132.0790   56.5350 C   0  0  0  0  0  0  0  0  0  0  0  0
  130.7890  131.7140   57.8880 C   0  0  0  0  0  0  0  0  0  0  0  0
  129.9700  132.5970   58.5960 C   0  0  0  0  0  0  0  0  0  0  0  0
  129.4800  132.1960   59.8390 C   0  0  0  0  0  0  0  0  0  0  0  0
  129.8180  130.9370   60.3400 C   0  0  0  0  0  0  0  0  0  0  0  0
  130.6360  130.0990   59.5760 C   0  0  0  0  0  0  0  0  0  0  0  0
  130.9580  128.8530   60.1420 N   0  0  0  0  0  0  0  0  0  0  0  0
  130.1320  127.9460   60.7220 C   0  0  0  0  0  0  0  0  0  0  0  0
  128.9160  128.1050   60.8430 O   0  0  0  0  0  0  0  0  0  0  0  0
  130.7830  126.7310   61.2150 C   0  0  0  0  0  0  0  0  0  0  0  0
  131.8780  125.8200   60.1740 S   0  0  0  0  0  0  0  0  0  0  0  0
  132.1420  124.6210   61.4180 C   0  0  0  0  0  0  0  0  0  0  0  0
  132.9420  123.5720   61.2280 N   0  0  0  0  0  0  0  0  0  0  0  0
  133.0560  122.7130   62.2690 C   0  0  0  0  0  0  0  0  0  0  0  0
  133.9670  121.5230   62.0290 C   0  0  0  0  0  0  0  0  0  0  0  0
  132.3970  122.8790   63.4860 C   0  0  0  0  0  0  0  0  0  0  0  0
  131.5580  123.9820   63.6830 C   0  0  0  0  0  0  0  0  0  0  0  0
  130.8570  124.1180   65.0260 C   0  0  0  0  0  0  0  0  0  0  0  0
  131.4120  124.9040   62.6110 C   0  0  0  0  0  0  0  0  0  0  0  0
  130.6460  126.1140   62.4700 C   0  0  0  0  0  0  0  0  0  0  0  0
  129.8580  126.6050   63.4800 N   0  0  0  0  0  0  0  0  0  0  0  0
  131.1250  130.4870   58.3610 N   0  0  0  0  0  0  0  0  0  0  0  0
  1  2  1  0
  2  3  2  0
  3  4  1  0
  4  5  2  0
  5  6  1  0
  6  7  1  0
  7  8  1  0
  8  9  2  0
  8 10  1  0
 10 11  1  0
 11 12  1  0
 12 13  2  0
 13 14  1  0
 14 15  1  0
 14 16  2  0
 16 17  1  0
 17 18  1  0
 17 19  2  0
 19 20  1  0
 20 21  1  0
  6 22  2  0
 22  2  1  0
 20 10  2  0
 19 12  1  0
M  END
>  <Binding energies>  (41) 
[-6.0]

>  <Ligand effiencies>  (41) 
[-0.24]

>  <Interactions>  (41) 
["V-A:LEU:475:CD2:4256, V-A:GLU:543:CD:4906, V-B:GLU:543:CD:9880, H-B:GLU:543:OE1:9881, H-B:GLU:543:OE2:9882, V-A:ILE:369:CG2:3234, V-A:GLY:454:CA:4046, V-A:ASP:366:CG:3210, V-A:PRO:540:CA:4881, V-A:TYR:539:C:4865, V-A:PRO:540:N:4882, H-A:GLU:543:OE1:4907, V-B:GLU:543:CB:9878, H-A:GLU:543:OE2:4908, V-A:ILE:369:CD1:3236, H-A:ASP:366:OD2:3212, H-A:ASP:366:OD1:3211, V-A:SER:385:C:3402, V-A:TYR:484:CZ:4344, V-A:TYR:484:CE2:4343"]

$$$$
4af_Grossjean_2025
     RDKit          3D

 21 23  0  0  0  0  0  0  0  0999 V2000
  133.5860  124.3400   59.3510 C   0  0  0  0  0  0  0  0  0  0  0  0
  132.6780  124.8770   60.4430 C   0  0  0  0  0  0  0  0  0  0  0  0
  131.7100  125.8380   60.1620 C   0  0  0  0  0  0  0  0  0  0  0  0
  130.8850  126.3210   61.1860 C   0  0  0  0  0  0  0  0  0  0  0  0
  129.8440  127.3700   60.8310 C   0  0  0  0  0  0  0  0  0  0  0  0
  131.0770  125.7990   62.4940 C   0  0  0  0  0  0  0  0  0  0  0  0
  130.4260  126.0640   63.7490 C   0  0  0  0  0  0  0  0  0  0  0  0
  129.4020  126.9700   63.8650 N   0  0  0  0  0  0  0  0  0  0  0  0
  130.9330  125.3170   64.8230 C   0  0  0  0  0  0  0  0  0  0  0  0
  130.5300  125.3560   66.2310 C   0  0  0  0  0  0  0  0  0  0  0  0
  130.6010  124.3460   66.9310 O   0  0  0  0  0  0  0  0  0  0  0  0
  130.1060  126.5630   66.6790 N   0  0  0  0  0  0  0  0  0  0  0  0
  129.6120  126.9240   67.9470 C   0  0  0  0  0  0  0  0  0  0  0  0
  130.3850  127.4200   69.0120 C   0  0  0  0  0  0  0  0  0  0  0  0
  129.7700  127.7250   70.2280 C   0  0  0  0  0  0  0  0  0  0  0  0
  128.3950  127.5210   70.3520 C   0  0  0  0  0  0  0  0  0  0  0  0
  127.6290  127.0360   69.3430 N   0  0  0  0  0  0  0  0  0  0  0  0
  128.2410  126.7440   68.1670 C   0  0  0  0  0  0  0  0  0  0  0  0
  132.2440  124.2570   64.3000 S   0  0  0  0  0  0  0  0  0  0  0  0
  132.1020  124.8180   62.6500 C   0  0  0  0  0  0  0  0  0  0  0  0
  132.8890  124.3560   61.6770 N   0  0  0  0  0  0  0  0  0  0  0  0
  1  2  1  0
  2  3  2  0
  3  4  1  0
  4  5  1  0
  4  6  2  0
  6  7  1  0
  7  8  1  0
  7  9  2  0
  9 10  1  0
 10 11  2  0
 10 12  1  0
 12 13  1  0
 13 14  2  0
 14 15  1  0
 15 16  2  0
 16 17  1  0
 17 18  2  0
  9 19  1  0
 19 20  1  0
 20 21  2  0
 21  2  1  0
 20  6  1  0
 18 13  1  0
M  END
>  <Binding energies>  (42) 
[-5.75]

>  <Ligand effiencies>  (42) 
[-0.23958333333333334]

>  <Interactions>  (42) 
["V-A:GLU:543:CD:4906, V-B:GLU:543:CD:9880, H-B:GLU:543:OE1:9881, H-B:GLU:543:OE2:9882, V-A:ILE:369:CG2:3234, V-A:ASP:366:CG:3210, V-A:ASP:366:CB:3209, H-A:HIS:456:NE2:4067, H-A:TYR:484:OH:4345, H-A:GLU:543:OE1:4907, V-B:GLU:543:CB:9878, V-A:HIS:456:CE1:4066, H-A:GLU:543:OE2:4908, V-A:ASP:366:CA:3207, V-B:GLU:543:CG:9879, V-A:GLU:543:CG:4905, V-A:GLU:543:C:4900, V-B:HIS:456:CE1:9040, V-B:HIS:456:CD2:9039, V-B:GLU:543:C:9874, H-B:HIS:456:NE2:9041"]

$$$$
4ag_Grossjean_2025
     RDKit          3D

 22 24  0  0  0  0  0  0  0  0999 V2000
  133.5980  121.7230   60.9660 C   0  0  0  0  0  0  0  0  0  0  0  0
  132.7550  122.8830   61.4620 C   0  0  0  0  0  0  0  0  0  0  0  0
  132.1320  122.8350   62.7080 C   0  0  0  0  0  0  0  0  0  0  0  0
  131.3600  123.9160   63.1470 C   0  0  0  0  0  0  0  0  0  0  0  0
  130.7000  123.8170   64.5140 C   0  0  0  0  0  0  0  0  0  0  0  0
  131.2410  125.0390   62.2850 C   0  0  0  0  0  0  0  0  0  0  0  0
  130.5440  126.2900   62.4130 C   0  0  0  0  0  0  0  0  0  0  0  0
  129.8070  126.6090   63.5270 N   0  0  0  0  0  0  0  0  0  0  0  0
  130.6870  127.1380   61.3050 C   0  0  0  0  0  0  0  0  0  0  0  0
  130.1290  128.4750   61.1060 C   0  0  0  0  0  0  0  0  0  0  0  0
  128.9430  128.7170   61.3410 O   0  0  0  0  0  0  0  0  0  0  0  0
  130.9800  129.4110   60.6360 N   0  0  0  0  0  0  0  0  0  0  0  0
  130.6470  130.8120   60.3880 C   0  0  0  0  0  0  0  0  0  0  0  0
  131.1200  131.3320   59.0360 C   0  0  0  0  0  0  0  0  0  0  0  0
  130.1830  131.7180   58.0730 C   0  0  0  0  0  0  0  0  0  0  0  0
  130.6130  132.2160   56.8450 C   0  0  0  0  0  0  0  0  0  0  0  0
  131.9780  132.3370   56.5890 C   0  0  0  0  0  0  0  0  0  0  0  0
  132.9160  131.9690   57.5500 C   0  0  0  0  0  0  0  0  0  0  0  0
  132.4870  131.4710   58.7780 C   0  0  0  0  0  0  0  0  0  0  0  0
  131.7070  126.4060   60.0670 S   0  0  0  0  0  0  0  0  0  0  0  0
  131.9280  124.9650   61.0360 C   0  0  0  0  0  0  0  0  0  0  0  0
  132.6660  123.9370   60.6150 N   0  0  0  0  0  0  0  0  0  0  0  0
  1  2  1  0
  2  3  2  0
  3  4  1  0
  4  5  1  0
  4  6  2  0
  6  7  1  0
  7  8  1  0
  7  9  2  0
  9 10  1  0
 10 11  2  0
 10 12  1  0
 12 13  1  0
 13 14  1  0
 14 15  2  0
 15 16  1  0
 16 17  2  0
 17 18  1  0
 18 19  2  0
  9 20  1  0
 20 21  1  0
 21 22  2  0
 22  2  1  0
 21  6  1  0
 19 14  1  0
M  END
>  <Binding energies>  (43) 
[-6.58]

>  <Ligand effiencies>  (43) 
[-0.2632]

>  <Interactions>  (43) 
["V-A:LEU:475:CD2:4256, V-A:GLU:543:CD:4906, V-B:GLU:543:CD:9880, H-B:GLU:543:OE1:9881, H-B:GLU:543:OE2:9882, V-A:ILE:369:CG2:3234, V-B:TYR:539:CE1:9847, V-A:ASP:366:CG:3210, V-A:LEU:363:CD1:3186, V-A:PRO:540:CA:4881, V-A:PRO:540:CB:4883, H-A:GLU:543:OE1:4907, H-A:GLU:543:OE2:4908, V-A:ILE:369:CD1:3236, H-A:ASP:366:OD2:3212, H-A:ASP:366:OD1:3211, V-A:ILE:538:CG2:4861, V-A:ILE:538:CB:4860, V-A:PRO:540:CD:4885"]

$$$$
4ah_Grossjean_2025
     RDKit          3D

 28 30  0  0  0  0  0  0  0  0999 V2000
  126.3340  131.2020   60.1100 C   0  0  0  0  0  0  0  0  0  0  0  0
  127.4130  132.0530   59.7430 O   0  0  0  0  0  0  0  0  0  0  0  0
  128.7040  131.5540   59.7500 C   0  0  0  0  0  0  0  0  0  0  0  0
  129.1710  130.5760   58.8580 C   0  0  0  0  0  0  0  0  0  0  0  0
  130.4870  130.1190   58.9250 C   0  0  0  0  0  0  0  0  0  0  0  0
  130.9900  129.0900   57.9180 C   0  0  0  0  0  0  0  0  0  0  0  0
  131.2470  127.7740   58.5040 N   0  0  0  0  0  0  0  0  0  0  0  0
  131.3420  126.6170   57.8160 C   0  0  0  0  0  0  0  0  0  0  0  0
  131.1770  126.5540   56.5960 O   0  0  0  0  0  0  0  0  0  0  0  0
  131.6110  125.4190   58.6110 C   0  0  0  0  0  0  0  0  0  0  0  0
  133.2350  124.7330   58.6570 S   0  0  0  0  0  0  0  0  0  0  0  0
  132.7030  123.4290   59.6950 C   0  0  0  0  0  0  0  0  0  0  0  0
  133.5390  122.4870   60.1310 N   0  0  0  0  0  0  0  0  0  0  0  0
  133.0000  121.5350   60.9310 C   0  0  0  0  0  0  0  0  0  0  0  0
  133.9690  120.4710   61.4130 C   0  0  0  0  0  0  0  0  0  0  0  0
  131.6580  121.5050   61.3020 C   0  0  0  0  0  0  0  0  0  0  0  0
  130.7810  122.4930   60.8410 C   0  0  0  0  0  0  0  0  0  0  0  0
  129.3250  122.4170   61.2730 C   0  0  0  0  0  0  0  0  0  0  0  0
  131.3100  123.5080   59.9980 C   0  0  0  0  0  0  0  0  0  0  0  0
  130.7090  124.6460   59.3570 C   0  0  0  0  0  0  0  0  0  0  0  0
  129.3740  124.9400   59.4810 N   0  0  0  0  0  0  0  0  0  0  0  0
  131.3570  130.6600   59.8720 C   0  0  0  0  0  0  0  0  0  0  0  0
  130.9170  131.6350   60.7800 C   0  0  0  0  0  0  0  0  0  0  0  0
  131.7190  132.2040   61.7530 O   0  0  0  0  0  0  0  0  0  0  0  0
  132.8450  131.4800   62.2380 C   0  0  0  0  0  0  0  0  0  0  0  0
  129.5850  132.0690   60.7120 C   0  0  0  0  0  0  0  0  0  0  0  0
  129.1450  133.0370   61.5830 O   0  0  0  0  0  0  0  0  0  0  0  0
  128.3480  132.5370   62.6490 C   0  0  0  0  0  0  0  0  0  0  0  0
  1  2  1  0
  2  3  1  0
  3  4  2  0
  4  5  1  0
  5  6  1  0
  6  7  1  0
  7  8  1  0
  8  9  2  0
  8 10  1  0
 10 11  1  0
 11 12  1  0
 12 13  2  0
 13 14  1  0
 14 15  1  0
 14 16  2  0
 16 17  1  0
 17 18  1  0
 17 19  2  0
 19 20  1  0
 20 21  1  0
  5 22  2  0
 22 23  1  0
 23 24  1  0
 24 25  1  0
 23 26  2  0
 26 27  1  0
 27 28  1  0
 26  3  1  0
 20 10  2  0
 19 12  1  0
M  END
>  <Binding energies>  (44) 
[-5.25]

>  <Ligand effiencies>  (44) 
[-0.1693548387096774]

>  <Interactions>  (44) 
["V-A:LEU:475:CD2:4256, V-A:SER:385:CB:3406, V-A:ILE:369:CG2:3234, V-B:TYR:539:CD1:9845, V-A:ARG:545:CZ:4924, V-A:SER:385:CA:3404, V-B:ALA:541:CB:9864, V-B:TYR:539:CE1:9847, V-A:ASP:366:CG:3210, V-A:ASP:366:CB:3209, V-A:PRO:540:CA:4881, V-A:TYR:539:CE1:4873, V-B:TYR:539:CZ:9849, H-A:ALA:541:N:4889, V-A:ILE:369:CD1:3236, V-A:ASP:366:CA:3207, H-A:ASP:366:OD2:3212, H-A:ASP:366:OD1:3211, V-A:ALA:541:CB:4890, V-A:SER:385:C:3402, H-A:TYR:531:OH:4793, V-A:ASN:362:CB:3173"]

$$$$
4ai_Grossjean_2025
     RDKit          3D

 20 22  0  0  0  0  0  0  0  0999 V2000
  134.3340  124.0800   59.6800 C   0  0  0  0  0  0  0  0  0  0  0  0
  133.3480  123.8290   60.8070 C   0  0  0  0  0  0  0  0  0  0  0  0
  132.4670  122.7500   60.7610 C   0  0  0  0  0  0  0  0  0  0  0  0
  131.5700  122.5350   61.8140 C   0  0  0  0  0  0  0  0  0  0  0  0
  130.6300  121.3430   61.7190 C   0  0  0  0  0  0  0  0  0  0  0  0
  131.5970  123.4450   62.9050 C   0  0  0  0  0  0  0  0  0  0  0  0
  130.8350  123.5210   64.1230 C   0  0  0  0  0  0  0  0  0  0  0  0
  129.8520  122.6140   64.4290 N   0  0  0  0  0  0  0  0  0  0  0  0
  131.1960  124.5920   64.9550 C   0  0  0  0  0  0  0  0  0  0  0  0
  130.6270  124.9710   66.2500 C   0  0  0  0  0  0  0  0  0  0  0  0
  130.2480  124.1100   67.0470 O   0  0  0  0  0  0  0  0  0  0  0  0
  130.5720  126.3050   66.4930 N   0  0  0  0  0  0  0  0  0  0  0  0
  130.0950  126.9360   67.6340 C   0  0  0  0  0  0  0  0  0  0  0  0
  128.7520  126.9130   68.0130 C   0  0  0  0  0  0  0  0  0  0  0  0
  128.6950  127.6460   69.1760 C   0  0  0  0  0  0  0  0  0  0  0  0
  129.9380  128.0870   69.4830 O   0  0  0  0  0  0  0  0  0  0  0  0
  130.8170  127.6300   68.5000 N   0  0  0  0  0  0  0  0  0  0  0  0
  132.4840  125.5560   64.2300 S   0  0  0  0  0  0  0  0  0  0  0  0
  132.5460  124.5080   62.8300 C   0  0  0  0  0  0  0  0  0  0  0  0
  133.4010  124.7170   61.8290 N   0  0  0  0  0  0  0  0  0  0  0  0
  1  2  1  0
  2  3  2  0
  3  4  1  0
  4  5  1  0
  4  6  2  0
  6  7  1  0
  7  8  1  0
  7  9  2  0
  9 10  1  0
 10 11  2  0
 10 12  1  0
 12 13  1  0
 13 14  1  0
 14 15  2  0
 15 16  1  0
 16 17  1  0
  9 18  1  0
 18 19  1  0
 19 20  2  0
 20  2  1  0
 19  6  1  0
 17 13  2  0
M  END
>  <Binding energies>  (45) 
[-6.0]

>  <Ligand effiencies>  (45) 
[-0.2608695652173913]

>  <Interactions>  (45) 
["V-A:LEU:475:CD2:4256, V-A:GLU:543:CD:4906, V-B:GLU:543:CD:9880, H-B:GLU:543:OE1:9881, V-A:ILE:369:CG2:3234, V-B:TYR:539:CD1:9845, V-A:ARG:545:CZ:4924, V-B:ALA:541:CB:9864, V-B:TYR:539:CE1:9847, V-A:ASP:366:CG:3210, H-A:HIS:456:NE2:4067, H-A:TYR:484:OH:4345, V-B:GLU:543:CB:9878, V-A:HIS:456:CE1:4066, H-A:GLU:543:OE2:4908, V-A:ILE:369:CD1:3236, V-A:ASP:366:CA:3207, V-A:ILE:369:CB:3233, V-A:TYR:484:CZ:4344, V-B:GLU:543:CG:9879, V-A:GLU:543:CG:4905, V-B:HIS:456:CE1:9040, V-A:TYR:484:CE2:4343, V-A:ILE:369:CG1:3235, H-B:HIS:456:NE2:9041"]

$$$$
4aj_Grossjean_2025
     RDKit          3D

 20 22  0  0  0  0  0  0  0  0999 V2000
  133.7050  124.1150   59.3560 C   0  0  0  0  0  0  0  0  0  0  0  0
  132.7900  124.6980   60.4170 C   0  0  0  0  0  0  0  0  0  0  0  0
  131.8500  125.6750   60.0950 C   0  0  0  0  0  0  0  0  0  0  0  0
  131.0200  126.2030   61.0910 C   0  0  0  0  0  0  0  0  0  0  0  0
  130.0110  127.2680   60.6890 C   0  0  0  0  0  0  0  0  0  0  0  0
  131.1730  125.7080   62.4130 C   0  0  0  0  0  0  0  0  0  0  0  0
  130.5060  126.0210   63.6490 C   0  0  0  0  0  0  0  0  0  0  0  0
  129.5080  126.9580   63.7250 N   0  0  0  0  0  0  0  0  0  0  0  0
  130.9660  125.2790   64.7480 C   0  0  0  0  0  0  0  0  0  0  0  0
  130.5220  125.3470   66.1420 C   0  0  0  0  0  0  0  0  0  0  0  0
  130.6090  124.3620   66.8790 O   0  0  0  0  0  0  0  0  0  0  0  0
  130.0390  126.5490   66.5420 N   0  0  0  0  0  0  0  0  0  0  0  0
  129.5680  126.8800   67.8050 C   0  0  0  0  0  0  0  0  0  0  0  0
  128.3890  126.6110   68.3230 N   0  0  0  0  0  0  0  0  0  0  0  0
  128.2840  127.0730   69.5540 C   0  0  0  0  0  0  0  0  0  0  0  0
  129.3980  127.7370   70.0600 C   0  0  0  0  0  0  0  0  0  0  0  0
  130.6460  127.7490   68.8480 S   0  0  0  0  0  0  0  0  0  0  0  0
  132.2610  124.1780   64.2770 S   0  0  0  0  0  0  0  0  0  0  0  0
  132.1700  124.7060   62.6120 C   0  0  0  0  0  0  0  0  0  0  0  0
  132.9630  124.2010   61.6660 N   0  0  0  0  0  0  0  0  0  0  0  0
  1  2  1  0
  2  3  2  0
  3  4  1  0
  4  5  1  0
  4  6  2  0
  6  7  1  0
  7  8  1  0
  7  9  2  0
  9 10  1  0
 10 11  2  0
 10 12  1  0
 12 13  1  0
 13 14  2  0
 14 15  1  0
 15 16  2  0
 16 17  1  0
  9 18  1  0
 18 19  1  0
 19 20  2  0
 20  2  1  0
 19  6  1  0
 17 13  1  0
M  END
>  <Binding energies>  (46) 
[-5.8]

>  <Ligand effiencies>  (46) 
[-0.25217391304347825]

>  <Interactions>  (46) 
["V-A:GLU:543:CD:4906, V-B:GLU:543:CD:9880, H-B:GLU:543:OE1:9881, H-B:GLU:543:OE2:9882, V-A:ILE:369:CG2:3234, V-B:TYR:539:CE1:9847, V-A:ASP:366:CG:3210, H-A:HIS:456:NE2:4067, H-A:TYR:484:OH:4345, H-A:GLU:543:OE1:4907, V-B:GLU:543:CB:9878, V-A:HIS:456:CE1:4066, H-A:GLU:543:OE2:4908, V-A:ILE:369:CD1:3236, V-A:ASP:366:CA:3207, V-A:ILE:369:CB:3233, V-B:GLU:543:CG:9879, V-A:GLU:543:CG:4905, V-A:GLU:543:C:4900, V-B:HIS:456:CE1:9040, V-B:GLU:543:C:9874"]

$$$$
4ak_Grossjean_2025
     RDKit          3D

 25 26  0  0  0  0  0  0  0  0999 V2000
  131.7350  124.7050   74.7860 C   0  0  0  0  0  0  0  0  0  0  0  0
  130.7160  125.6720   74.5900 O   0  0  0  0  0  0  0  0  0  0  0  0
  131.0680  126.6830   73.6540 C   0  0  0  0  0  0  0  0  0  0  0  0
  130.1700  126.5680   72.4160 C   0  0  0  0  0  0  0  0  0  0  0  0
  128.8100  126.7110   72.8050 O   0  0  0  0  0  0  0  0  0  0  0  0
  128.0040  127.3770   71.8420 C   0  0  0  0  0  0  0  0  0  0  0  0
  128.7310  127.3870   70.4920 C   0  0  0  0  0  0  0  0  0  0  0  0
  127.8240  127.0040   69.4670 O   0  0  0  0  0  0  0  0  0  0  0  0
  128.2970  127.2670   68.1530 C   0  0  0  0  0  0  0  0  0  0  0  0
  129.7730  126.8420   68.0490 C   0  0  0  0  0  0  0  0  0  0  0  0
  130.2080  126.5610   66.6810 N   0  0  0  0  0  0  0  0  0  0  0  0
  130.6040  125.3570   66.2200 C   0  0  0  0  0  0  0  0  0  0  0  0
  130.6160  124.3500   66.9290 O   0  0  0  0  0  0  0  0  0  0  0  0
  131.0150  125.3090   64.8180 C   0  0  0  0  0  0  0  0  0  0  0  0
  132.2870  124.2020   64.3010 S   0  0  0  0  0  0  0  0  0  0  0  0
  132.1420  124.7380   62.6420 C   0  0  0  0  0  0  0  0  0  0  0  0
  132.9070  124.2380   61.6700 N   0  0  0  0  0  0  0  0  0  0  0  0
  132.6960  124.7410   60.4290 C   0  0  0  0  0  0  0  0  0  0  0  0
  133.5750  124.1600   59.3370 C   0  0  0  0  0  0  0  0  0  0  0  0
  131.7480  125.7210   60.1410 C   0  0  0  0  0  0  0  0  0  0  0  0
  130.9460  126.2420   61.1630 C   0  0  0  0  0  0  0  0  0  0  0  0
  129.9280  127.3120   60.8000 C   0  0  0  0  0  0  0  0  0  0  0  0
  131.1400  125.7400   62.4780 C   0  0  0  0  0  0  0  0  0  0  0  0
  130.5080  126.0430   63.7340 C   0  0  0  0  0  0  0  0  0  0  0  0
  129.5040  126.9710   63.8460 N   0  0  0  0  0  0  0  0  0  0  0  0
  1  2  1  0
  2  3  1  0
  3  4  1  0
  4  5  1  0
  5  6  1  0
  6  7  1  0
  7  8  1  0
  8  9  1  0
  9 10  1  0
 10 11  1  0
 11 12  1  0
 12 13  2  0
 12 14  1  0
 14 15  1  0
 15 16  1  0
 16 17  2  0
 17 18  1  0
 18 19  1  0
 18 20  2  0
 20 21  1  0
 21 22  1  0
 21 23  2  0
 23 24  1  0
 24 25  1  0
 24 14  2  0
 23 16  1  0
M  END
>  <Binding energies>  (47) 
[-6.02]

>  <Ligand effiencies>  (47) 
[-0.215]

>  <Interactions>  (47) 
["V-A:GLU:543:CD:4906, V-B:GLU:543:CD:9880, H-B:GLU:543:OE1:9881, H-B:GLU:543:OE2:9882, V-A:ILE:369:CG2:3234, V-B:TYR:539:CE1:9847, V-A:ASP:366:CG:3210, H-A:HIS:456:NE2:4067, H-A:TYR:484:OH:4345, H-A:GLU:543:OE1:4907, V-B:GLU:543:CB:9878, V-A:HIS:456:CE1:4066, H-A:GLU:543:OE2:4908, V-A:ASP:366:CA:3207, V-A:ILE:369:CB:3233, V-B:GLU:543:CG:9879, V-B:HIS:456:CE1:9040, V-A:LYS:547:CE:4948, V-A:HIS:456:CD2:4065, V-B:GLY:544:C:9884, V-B:HIS:456:CD2:9039, V-B:GLY:544:CA:9886, V-A:HIS:456:CG:4063, H-B:HIS:456:NE2:9041, H-B:LYS:547:NZ:9923, V-A:HIS:456:CB:4062"]

$$$$
4al_Grossjean_2025
     RDKit          3D

 16 17  0  0  0  0  0  0  0  0999 V2000
  132.1180  117.0350   60.1520 C   0  0  0  0  0  0  0  0  0  0  0  0
  131.9630  118.4460   60.1670 O   0  0  0  0  0  0  0  0  0  0  0  0
  133.0190  119.2610   60.4250 C   0  0  0  0  0  0  0  0  0  0  0  0
  134.1710  119.0370   60.0480 O   0  0  0  0  0  0  0  0  0  0  0  0
  132.6450  120.4560   61.2130 C   0  0  0  0  0  0  0  0  0  0  0  0
  133.8920  121.3890   62.0450 S   0  0  0  0  0  0  0  0  0  0  0  0
  132.6990  122.5070   62.6640 C   0  0  0  0  0  0  0  0  0  0  0  0
  133.0360  123.5400   63.4380 N   0  0  0  0  0  0  0  0  0  0  0  0
  132.0160  124.3320   63.8520 C   0  0  0  0  0  0  0  0  0  0  0  0
  132.4210  125.5010   64.7310 C   0  0  0  0  0  0  0  0  0  0  0  0
  130.6820  124.1170   63.5140 C   0  0  0  0  0  0  0  0  0  0  0  0
  130.3310  123.0330   62.7020 C   0  0  0  0  0  0  0  0  0  0  0  0
  128.8630  122.8390   62.3590 C   0  0  0  0  0  0  0  0  0  0  0  0
  131.3740  122.1810   62.2490 C   0  0  0  0  0  0  0  0  0  0  0  0
  131.3750  121.0060   61.4220 C   0  0  0  0  0  0  0  0  0  0  0  0
  130.2270  120.4770   60.8890 N   0  0  0  0  0  0  0  0  0  0  0  0
  1  2  1  0
  2  3  1  0
  3  4  2  0
  3  5  1  0
  5  6  1  0
  6  7  1  0
  7  8  2  0
  8  9  1  0
  9 10  1  0
  9 11  2  0
 11 12  1  0
 12 13  1  0
 12 14  2  0
 14 15  1  0
 15 16  1  0
 15  5  2  0
 14  7  1  0
M  END
>  <Binding energies>  (48) 
[-4.84]

>  <Ligand effiencies>  (48) 
[-0.2688888888888889]

>  <Interactions>  (48) 
["V-A:LEU:373:CD1:3277, V-A:LEU:475:CD2:4256, V-A:ILE:369:CG2:3234, V-A:GLY:454:CA:4046, V-B:TYR:539:CD1:9845, V-A:ARG:545:CZ:4924, V-A:SER:385:CA:3404, H-A:GLY:454:N:4047, V-B:ALA:541:CB:9864, V-B:TYR:539:CE1:9847, V-B:TYR:539:C:9839, H-A:TYR:484:OH:4345, V-A:ILE:369:CD1:3236, V-A:SER:385:C:3402, V-B:ALA:541:CA:9862, H-B:TYR:539:O:9840"]

$$$$
4bc_Grossjean_2025
     RDKit          3D

 26 28  0  0  0  0  0  0  0  0999 V2000
  128.0920  127.1420   72.7110 C   0  0  0  0  0  0  0  0  0  0  0  0
  128.5890  128.0940   71.7780 O   0  0  0  0  0  0  0  0  0  0  0  0
  128.8740  127.6880   70.4880 C   0  0  0  0  0  0  0  0  0  0  0  0
  130.2140  127.7320   70.1040 C   0  0  0  0  0  0  0  0  0  0  0  0
  130.5980  127.3430   68.8230 C   0  0  0  0  0  0  0  0  0  0  0  0
  129.6430  126.8940   67.9090 C   0  0  0  0  0  0  0  0  0  0  0  0
  130.1210  126.5360   66.6360 N   0  0  0  0  0  0  0  0  0  0  0  0
  130.5430  125.3290   66.1860 C   0  0  0  0  0  0  0  0  0  0  0  0
  130.6030  124.3180   66.8870 O   0  0  0  0  0  0  0  0  0  0  0  0
  130.9470  125.2880   64.7770 C   0  0  0  0  0  0  0  0  0  0  0  0
  132.2190  124.1880   64.2510 S   0  0  0  0  0  0  0  0  0  0  0  0
  132.0760  124.7400   62.5990 C   0  0  0  0  0  0  0  0  0  0  0  0
  132.8410  124.2390   61.6300 N   0  0  0  0  0  0  0  0  0  0  0  0
  132.6400  124.7460   60.3920 C   0  0  0  0  0  0  0  0  0  0  0  0
  133.5170  124.1580   59.3020 C   0  0  0  0  0  0  0  0  0  0  0  0
  131.7010  125.7340   60.1020 C   0  0  0  0  0  0  0  0  0  0  0  0
  130.8930  126.2650   61.1200 C   0  0  0  0  0  0  0  0  0  0  0  0
  129.8760  127.3530   60.7530 C   0  0  0  0  0  0  0  0  0  0  0  0
  129.8910  127.6640   59.4550 F   0  0  0  0  0  0  0  0  0  0  0  0
  128.6460  126.9360   61.0500 F   0  0  0  0  0  0  0  0  0  0  0  0
  130.1410  128.4670   61.4340 F   0  0  0  0  0  0  0  0  0  0  0  0
  131.0790  125.7510   62.4370 C   0  0  0  0  0  0  0  0  0  0  0  0
  130.4480  126.0400   63.7030 C   0  0  0  0  0  0  0  0  0  0  0  0
  129.4490  126.9710   63.8360 N   0  0  0  0  0  0  0  0  0  0  0  0
  128.2910  126.8600   68.2840 C   0  0  0  0  0  0  0  0  0  0  0  0
  127.9110  127.2500   69.5650 C   0  0  0  0  0  0  0  0  0  0  0  0
  1  2  1  0
  2  3  1  0
  3  4  2  0
  4  5  1  0
  5  6  2  0
  6  7  1  0
  7  8  1  0
  8  9  2  0
  8 10  1  0
 10 11  1  0
 11 12  1  0
 12 13  2  0
 13 14  1  0
 14 15  1  0
 14 16  2  0
 16 17  1  0
 17 18  1  0
 18 19  1  0
 18 20  1  0
 18 21  1  0
 17 22  2  0
 22 23  1  0
 23 24  1  0
  6 25  1  0
 25 26  2  0
 26  3  1  0
 23 10  2  0
 22 12  1  0
M  END
>  <Binding energies>  (49) 
[-5.46]

>  <Ligand effiencies>  (49) 
[-0.18827586206896552]

>  <Interactions>  (49) 
["V-A:GLU:543:CD:4906, V-B:GLU:543:CD:9880, H-B:GLU:543:OE1:9881, H-B:GLU:543:OE2:9882, V-A:ILE:369:CG2:3234, V-B:TYR:539:CE1:9847, V-A:ASP:366:CG:3210, H-A:HIS:456:NE2:4067, H-A:TYR:484:OH:4345, H-A:GLU:543:OE1:4907, V-B:GLU:543:CB:9878, V-A:HIS:456:CE1:4066, H-A:GLU:543:OE2:4908, V-A:ASP:366:CA:3207, V-A:ILE:369:CB:3233, V-B:GLU:543:CG:9879, V-A:GLU:543:CG:4905, V-A:GLU:543:C:4900, V-B:HIS:456:CE1:9040, V-B:GLY:544:C:9884, V-A:GLY:544:C:4910, V-B:HIS:456:CD2:9039, V-B:LYS:547:CE:9922, V-B:GLU:543:C:9874, V-B:GLY:544:CA:9886, H-B:HIS:456:NE2:9041"]

$$$$
4bf_Grossjean_2025
     RDKit          3D

 24 26  0  0  0  0  0  0  0  0999 V2000
  133.6120  124.3040   59.3440 C   0  0  0  0  0  0  0  0  0  0  0  0
  132.7050  124.8550   60.4310 C   0  0  0  0  0  0  0  0  0  0  0  0
  131.7570  125.8330   60.1460 C   0  0  0  0  0  0  0  0  0  0  0  0
  130.9280  126.3360   61.1600 C   0  0  0  0  0  0  0  0  0  0  0  0
  129.9000  127.4140   60.8000 C   0  0  0  0  0  0  0  0  0  0  0  0
  129.9190  127.7410   59.5050 F   0  0  0  0  0  0  0  0  0  0  0  0
  128.6720  126.9810   61.0850 F   0  0  0  0  0  0  0  0  0  0  0  0
  130.1490  128.5250   61.4940 F   0  0  0  0  0  0  0  0  0  0  0  0
  131.1040  125.8020   62.4720 C   0  0  0  0  0  0  0  0  0  0  0  0
  130.4580  126.0650   63.7340 C   0  0  0  0  0  0  0  0  0  0  0  0
  129.4460  126.9820   63.8690 N   0  0  0  0  0  0  0  0  0  0  0  0
  130.9510  125.3000   64.8030 C   0  0  0  0  0  0  0  0  0  0  0  0
  130.5490  125.3340   66.2130 C   0  0  0  0  0  0  0  0  0  0  0  0
  130.6020  124.3170   66.9050 O   0  0  0  0  0  0  0  0  0  0  0  0
  130.1450  126.5440   66.6720 N   0  0  0  0  0  0  0  0  0  0  0  0
  129.6560  126.9020   67.9430 C   0  0  0  0  0  0  0  0  0  0  0  0
  130.4290  127.4230   68.9960 C   0  0  0  0  0  0  0  0  0  0  0  0
  129.8200  127.7240   70.2170 C   0  0  0  0  0  0  0  0  0  0  0  0
  128.4510  127.4910   70.3560 C   0  0  0  0  0  0  0  0  0  0  0  0
  127.6860  126.9830   69.3580 N   0  0  0  0  0  0  0  0  0  0  0  0
  128.2920  126.6960   68.1780 C   0  0  0  0  0  0  0  0  0  0  0  0
  132.2440  124.2270   64.2750 S   0  0  0  0  0  0  0  0  0  0  0  0
  132.1130  124.8020   62.6290 C   0  0  0  0  0  0  0  0  0  0  0  0
  132.8970  124.3270   61.6620 N   0  0  0  0  0  0  0  0  0  0  0  0
  1  2  1  0
  2  3  2  0
  3  4  1  0
  4  5  1  0
  5  6  1  0
  5  7  1  0
  5  8  1  0
  4  9  2  0
  9 10  1  0
 10 11  1  0
 10 12  2  0
 12 13  1  0
 13 14  2  0
 13 15  1  0
 15 16  1  0
 16 17  2  0
 17 18  1  0
 18 19  2  0
 19 20  1  0
 20 21  2  0
 12 22  1  0
 22 23  1  0
 23 24  2  0
 24  2  1  0
 23  9  1  0
 21 16  1  0
M  END
>  <Binding energies>  (50) 
[-5.37]

>  <Ligand effiencies>  (50) 
[-0.1988888888888889]

>  <Interactions>  (50) 
["V-A:GLU:543:CD:4906, V-B:GLU:543:CD:9880, H-B:GLU:543:OE1:9881, H-B:GLU:543:OE2:9882, V-A:ILE:369:CG2:3234, V-A:ASP:366:CG:3210, V-A:ASP:366:CB:3209, H-A:HIS:456:NE2:4067, H-A:TYR:484:OH:4345, H-A:GLU:543:OE1:4907, V-B:GLU:543:CB:9878, V-A:HIS:456:CE1:4066, H-A:GLU:543:OE2:4908, V-A:ASP:366:CA:3207, V-A:ILE:369:CB:3233, V-B:GLU:543:CG:9879, V-A:GLU:543:CG:4905, V-A:GLU:543:C:4900, V-B:HIS:456:CE1:9040, V-B:HIS:456:CD2:9039, V-B:GLU:543:C:9874, H-B:HIS:456:NE2:9041"]

$$$$
4bh_Grossjean_2025
     RDKit          3D

 31 33  0  0  0  0  0  0  0  0999 V2000
  125.3640  130.3600   58.4530 C   0  0  0  0  0  0  0  0  0  0  0  0
  126.0410  131.4320   59.1000 O   0  0  0  0  0  0  0  0  0  0  0  0
  126.8700  131.1630   60.1730 C   0  0  0  0  0  0  0  0  0  0  0  0
  126.5570  130.2550   61.1970 C   0  0  0  0  0  0  0  0  0  0  0  0
  127.4420  130.0340   62.2540 C   0  0  0  0  0  0  0  0  0  0  0  0
  127.1050  129.0110   63.3320 C   0  0  0  0  0  0  0  0  0  0  0  0
  127.7510  127.7140   63.1290 N   0  0  0  0  0  0  0  0  0  0  0  0
  127.7770  127.0260   61.9690 C   0  0  0  0  0  0  0  0  0  0  0  0
  127.2070  127.4230   60.9510 O   0  0  0  0  0  0  0  0  0  0  0  0
  128.4890  125.7480   61.9950 C   0  0  0  0  0  0  0  0  0  0  0  0
  127.7080  124.2920   61.3880 S   0  0  0  0  0  0  0  0  0  0  0  0
  129.1020  123.3210   61.8010 C   0  0  0  0  0  0  0  0  0  0  0  0
  129.1310  122.0100   61.5620 N   0  0  0  0  0  0  0  0  0  0  0  0
  130.2650  121.3660   61.9230 C   0  0  0  0  0  0  0  0  0  0  0  0
  130.2770  119.8740   61.6440 C   0  0  0  0  0  0  0  0  0  0  0  0
  131.3600  121.9940   62.5100 C   0  0  0  0  0  0  0  0  0  0  0  0
  131.3340  123.3750   62.7660 C   0  0  0  0  0  0  0  0  0  0  0  0
  132.5640  124.0230   63.4110 C   0  0  0  0  0  0  0  0  0  0  0  0
  133.0190  125.0760   62.7280 F   0  0  0  0  0  0  0  0  0  0  0  0
  132.2600  124.4450   64.6370 F   0  0  0  0  0  0  0  0  0  0  0  0
  133.5550  123.1350   63.4840 F   0  0  0  0  0  0  0  0  0  0  0  0
  130.1520  124.0840   62.4000 C   0  0  0  0  0  0  0  0  0  0  0  0
  129.7650  125.4690   62.5090 C   0  0  0  0  0  0  0  0  0  0  0  0
  130.5770  126.4260   63.0600 N   0  0  0  0  0  0  0  0  0  0  0  0
  128.6670  130.7030   62.2760 C   0  0  0  0  0  0  0  0  0  0  0  0
  129.0030  131.6220   61.2690 C   0  0  0  0  0  0  0  0  0  0  0  0
  130.1910  132.3300   61.2360 O   0  0  0  0  0  0  0  0  0  0  0  0
  131.4260  131.6210   61.2370 C   0  0  0  0  0  0  0  0  0  0  0  0
  128.0930  131.8470   60.2270 C   0  0  0  0  0  0  0  0  0  0  0  0
  128.4180  132.7310   59.2240 O   0  0  0  0  0  0  0  0  0  0  0  0
  129.2780  132.1880   58.2320 C   0  0  0  0  0  0  0  0  0  0  0  0
  1  2  1  0
  2  3  1  0
  3  4  2  0
  4  5  1  0
  5  6  1  0
  6  7  1  0
  7  8  1  0
  8  9  2  0
  8 10  1  0
 10 11  1  0
 11 12  1  0
 12 13  2  0
 13 14  1  0
 14 15  1  0
 14 16  2  0
 16 17  1  0
 17 18  1  0
 18 19  1  0
 18 20  1  0
 18 21  1  0
 17 22  2  0
 22 23  1  0
 23 24  1  0
  5 25  2  0
 25 26  1  0
 26 27  1  0
 27 28  1  0
 26 29  2  0
 29 30  1  0
 30 31  1  0
 29  3  1  0
 23 10  2  0
 22 12  1  0
M  END
>  <Binding energies>  (51) 
[-4.76]

>  <Ligand effiencies>  (51) 
[-0.13999999999999999]

>  <Interactions>  (51) 
["V-A:LEU:475:CD2:4256, V-A:GLU:543:CD:4906, V-B:GLU:543:CD:9880, H-B:GLU:543:OE1:9881, H-B:GLU:543:OE2:9882, V-A:GLY:454:CA:4046, V-B:TYR:539:CD1:9845, V-A:ARG:545:CZ:4924, V-B:ALA:541:CB:9864, V-A:TYR:539:CZ:4875, V-A:PRO:540:CA:4881, V-A:TYR:539:C:4865, V-A:PRO:540:CB:4883, V-A:TYR:539:CE1:4873, H-A:ALA:541:N:4889, V-A:TYR:539:CD1:4871, V-A:GLY:453:C:4039, H-A:GLU:543:OE1:4907, H-A:GLU:543:OE2:4908, V-A:PRO:540:C:4879, H-B:ALA:541:N:9863, V-B:ASP:366:CB:8183, V-A:TYR:484:CZ:4344, H-A:TYR:539:OH:4876, H-B:ARG:545:NH2:9900"]

$$$$
4bi_Grossjean_2025
     RDKit          3D

 23 25  0  0  0  0  0  0  0  0999 V2000
  134.3520  124.2530   59.6150 C   0  0  0  0  0  0  0  0  0  0  0  0
  133.3660  123.9640   60.7320 C   0  0  0  0  0  0  0  0  0  0  0  0
  132.4910  122.8840   60.6550 C   0  0  0  0  0  0  0  0  0  0  0  0
  131.5870  122.6250   61.6980 C   0  0  0  0  0  0  0  0  0  0  0  0
  130.6500  121.4200   61.5730 C   0  0  0  0  0  0  0  0  0  0  0  0
  130.4600  120.7830   62.7300 F   0  0  0  0  0  0  0  0  0  0  0  0
  129.4550  121.8190   61.1370 F   0  0  0  0  0  0  0  0  0  0  0  0
  131.1600  120.5390   60.7120 F   0  0  0  0  0  0  0  0  0  0  0  0
  131.6090  123.5130   62.8150 C   0  0  0  0  0  0  0  0  0  0  0  0
  130.8470  123.5690   64.0390 C   0  0  0  0  0  0  0  0  0  0  0  0
  129.8610  122.6650   64.3400 N   0  0  0  0  0  0  0  0  0  0  0  0
  131.2090  124.6240   64.8930 C   0  0  0  0  0  0  0  0  0  0  0  0
  130.6410  124.9820   66.1950 C   0  0  0  0  0  0  0  0  0  0  0  0
  130.2450  124.1080   66.9700 O   0  0  0  0  0  0  0  0  0  0  0  0
  130.6070  126.3090   66.4720 N   0  0  0  0  0  0  0  0  0  0  0  0
  130.1370  126.9210   67.6260 C   0  0  0  0  0  0  0  0  0  0  0  0
  128.8260  126.7850   68.0800 C   0  0  0  0  0  0  0  0  0  0  0  0
  128.7660  127.5340   69.2330 C   0  0  0  0  0  0  0  0  0  0  0  0
  129.9790  128.0920   69.4620 O   0  0  0  0  0  0  0  0  0  0  0  0
  130.8390  127.6960   68.4350 N   0  0  0  0  0  0  0  0  0  0  0  0
  132.4970  125.6000   64.1890 S   0  0  0  0  0  0  0  0  0  0  0  0
  132.5550  124.5830   62.7690 C   0  0  0  0  0  0  0  0  0  0  0  0
  133.4120  124.8220   61.7770 N   0  0  0  0  0  0  0  0  0  0  0  0
  1  2  1  0
  2  3  2  0
  3  4  1  0
  4  5  1  0
  5  6  1  0
  5  7  1  0
  5  8  1  0
  4  9  2  0
  9 10  1  0
 10 11  1  0
 10 12  2  0
 12 13  1  0
 13 14  2  0
 13 15  1  0
 15 16  1  0
 16 17  1  0
 17 18  2  0
 18 19  1  0
 19 20  1  0
 12 21  1  0
 21 22  1  0
 22 23  2  0
 23  2  1  0
 22  9  1  0
 20 16  2  0
M  END
>  <Binding energies>  (52) 
[-5.64]

>  <Ligand effiencies>  (52) 
[-0.2169230769230769]

>  <Interactions>  (52) 
["V-A:LEU:475:CD2:4256, V-A:GLU:543:CD:4906, V-B:GLU:543:CD:9880, H-B:GLU:543:OE1:9881, V-A:ILE:369:CG2:3234, V-B:TYR:539:CD1:9845, V-A:ARG:545:CZ:4924, V-B:ALA:541:CB:9864, V-B:TYR:539:CE1:9847, V-A:ASP:366:CG:3210, V-A:ASP:366:CB:3209, H-A:HIS:456:NE2:4067, H-A:TYR:484:OH:4345, V-B:GLU:543:CB:9878, V-A:HIS:456:CE1:4066, H-A:GLU:543:OE2:4908, V-A:ILE:369:CD1:3236, V-A:ASP:366:CA:3207, V-A:ILE:369:CB:3233, V-A:TYR:484:CZ:4344, V-B:GLU:543:CG:9879, V-A:GLU:543:CG:4905, V-B:HIS:456:CE1:9040, V-A:TYR:484:CE2:4343, V-A:ILE:369:CG1:3235, V-A:LEU:475:CG:4254, V-B:GLU:543:C:9874, H-B:HIS:456:NE2:9041"]

$$$$
4bj_Grossjean_2025
     RDKit          3D

 23 25  0  0  0  0  0  0  0  0999 V2000
  133.7260  123.9680   59.4030 C   0  0  0  0  0  0  0  0  0  0  0  0
  132.8050  124.5930   60.4350 C   0  0  0  0  0  0  0  0  0  0  0  0
  131.8920  125.5820   60.0770 C   0  0  0  0  0  0  0  0  0  0  0  0
  131.0500  126.1550   61.0430 C   0  0  0  0  0  0  0  0  0  0  0  0
  130.0640  127.2430   60.6020 C   0  0  0  0  0  0  0  0  0  0  0  0
  130.1460  127.5240   59.3000 F   0  0  0  0  0  0  0  0  0  0  0  0
  128.8160  126.8450   60.8480 F   0  0  0  0  0  0  0  0  0  0  0  0
  130.3080  128.3700   61.2710 F   0  0  0  0  0  0  0  0  0  0  0  0
  131.1750  125.6800   62.3820 C   0  0  0  0  0  0  0  0  0  0  0  0
  130.5040  126.0230   63.6130 C   0  0  0  0  0  0  0  0  0  0  0  0
  129.5260  126.9820   63.6810 N   0  0  0  0  0  0  0  0  0  0  0  0
  130.9360  125.2850   64.7260 C   0  0  0  0  0  0  0  0  0  0  0  0
  130.4820  125.3800   66.1160 C   0  0  0  0  0  0  0  0  0  0  0  0
  130.6150  124.4300   66.8900 O   0  0  0  0  0  0  0  0  0  0  0  0
  129.9340  126.5690   66.4700 N   0  0  0  0  0  0  0  0  0  0  0  0
  129.4400  126.9200   67.7180 C   0  0  0  0  0  0  0  0  0  0  0  0
  128.2310  126.7170   68.1960 N   0  0  0  0  0  0  0  0  0  0  0  0
  128.1110  127.1780   69.4250 C   0  0  0  0  0  0  0  0  0  0  0  0
  129.2430  127.7730   69.9720 C   0  0  0  0  0  0  0  0  0  0  0  0
  130.5290  127.7250   68.8030 S   0  0  0  0  0  0  0  0  0  0  0  0
  132.2110  124.1520   64.2870 S   0  0  0  0  0  0  0  0  0  0  0  0
  132.1480  124.6590   62.6150 C   0  0  0  0  0  0  0  0  0  0  0  0
  132.9470  124.1200   61.6950 N   0  0  0  0  0  0  0  0  0  0  0  0
  1  2  1  0
  2  3  2  0
  3  4  1  0
  4  5  1  0
  5  6  1  0
  5  7  1  0
  5  8  1  0
  4  9  2  0
  9 10  1  0
 10 11  1  0
 10 12  2  0
 12 13  1  0
 13 14  2  0
 13 15  1  0
 15 16  1  0
 16 17  2  0
 17 18  1  0
 18 19  2  0
 19 20  1  0
 12 21  1  0
 21 22  1  0
 22 23  2  0
 23  2  1  0
 22  9  1  0
 20 16  1  0
M  END
>  <Binding energies>  (53) 
[-5.4]

>  <Ligand effiencies>  (53) 
[-0.2076923076923077]

>  <Interactions>  (53) 
["V-A:GLU:543:CD:4906, V-B:GLU:543:CD:9880, H-B:GLU:543:OE1:9881, H-B:GLU:543:OE2:9882, V-A:ILE:369:CG2:3234, V-B:TYR:539:CE1:9847, V-A:ASP:366:CG:3210, H-A:HIS:456:NE2:4067, H-A:TYR:484:OH:4345, H-A:GLU:543:OE1:4907, V-B:GLU:543:CB:9878, V-A:HIS:456:CE1:4066, H-A:GLU:543:OE2:4908, V-A:ILE:369:CD1:3236, V-A:ASP:366:CA:3207, V-A:ILE:369:CB:3233, V-B:GLU:543:CG:9879, V-A:GLU:543:CG:4905, V-A:GLU:543:C:4900, V-B:HIS:456:CE1:9040, V-B:GLU:543:C:9874"]

$$$$
4bk_Grossjean_2025
     RDKit          3D

 28 29  0  0  0  0  0  0  0  0999 V2000
  131.4870  126.1920   73.8510 C   0  0  0  0  0  0  0  0  0  0  0  0
  130.0960  125.9390   73.9730 O   0  0  0  0  0  0  0  0  0  0  0  0
  129.4160  125.8980   72.7250 C   0  0  0  0  0  0  0  0  0  0  0  0
  129.2080  127.3270   72.2080 C   0  0  0  0  0  0  0  0  0  0  0  0
  130.4090  127.7930   71.6090 O   0  0  0  0  0  0  0  0  0  0  0  0
  130.4150  127.7060   70.1910 C   0  0  0  0  0  0  0  0  0  0  0  0
  129.0050  127.9890   69.6570 C   0  0  0  0  0  0  0  0  0  0  0  0
  128.6370  126.9690   68.7390 O   0  0  0  0  0  0  0  0  0  0  0  0
  129.2310  127.1110   67.4530 C   0  0  0  0  0  0  0  0  0  0  0  0
  130.2580  125.9860   67.2400 C   0  0  0  0  0  0  0  0  0  0  0  0
  130.6990  125.8490   65.8510 N   0  0  0  0  0  0  0  0  0  0  0  0
  130.7320  124.6940   65.1540 C   0  0  0  0  0  0  0  0  0  0  0  0
  130.3630  123.6220   65.6350 O   0  0  0  0  0  0  0  0  0  0  0  0
  131.2260  124.7860   63.7790 C   0  0  0  0  0  0  0  0  0  0  0  0
  132.6930  123.9320   63.3080 S   0  0  0  0  0  0  0  0  0  0  0  0
  132.5510  124.5050   61.6630 C   0  0  0  0  0  0  0  0  0  0  0  0
  133.4450  124.1750   60.7320 N   0  0  0  0  0  0  0  0  0  0  0  0
  133.2270  124.6770   59.4940 C   0  0  0  0  0  0  0  0  0  0  0  0
  134.2570  124.2860   58.4490 C   0  0  0  0  0  0  0  0  0  0  0  0
  132.1480  125.4950   59.1700 C   0  0  0  0  0  0  0  0  0  0  0  0
  131.2040  125.8490   60.1460 C   0  0  0  0  0  0  0  0  0  0  0  0
  130.0360  126.7540   59.7420 C   0  0  0  0  0  0  0  0  0  0  0  0
  128.8430  126.1880   59.9420 F   0  0  0  0  0  0  0  0  0  0  0  0
  130.0690  127.8790   60.4560 F   0  0  0  0  0  0  0  0  0  0  0  0
  130.1230  127.0520   58.4470 F   0  0  0  0  0  0  0  0  0  0  0  0
  131.4030  125.3340   61.4620 C   0  0  0  0  0  0  0  0  0  0  0  0
  130.6630  125.4710   62.6920 C   0  0  0  0  0  0  0  0  0  0  0  0
  129.5120  126.2100   62.7860 N   0  0  0  0  0  0  0  0  0  0  0  0
  1  2  1  0
  2  3  1  0
  3  4  1  0
  4  5  1  0
  5  6  1  0
  6  7  1  0
  7  8  1  0
  8  9  1  0
  9 10  1  0
 10 11  1  0
 11 12  1  0
 12 13  2  0
 12 14  1  0
 14 15  1  0
 15 16  1  0
 16 17  2  0
 17 18  1  0
 18 19  1  0
 18 20  2  0
 20 21  1  0
 21 22  1  0
 22 23  1  0
 22 24  1  0
 22 25  1  0
 21 26  2  0
 26 27  1  0
 27 28  1  0
 27 14  2  0
 26 16  1  0
M  END
>  <Binding energies>  (54) 
[-4.83]

>  <Ligand effiencies>  (54) 
[-0.15580645161290324]

>  <Interactions>  (54) 
["V-A:GLU:543:CD:4906, V-B:GLU:543:CD:9880, H-B:GLU:543:OE1:9881, H-B:GLU:543:OE2:9882, V-A:ILE:369:CG2:3234, V-A:GLY:454:CA:4046, V-A:ASP:366:CG:3210, V-A:ASP:366:CB:3209, H-A:TYR:484:OH:4345, V-B:GLU:543:CB:9878, V-A:HIS:456:CE1:4066, V-A:ASP:366:C:3205, H-A:GLU:543:OE2:4908, V-A:ILE:369:CD1:3236, V-A:ASP:366:CA:3207, V-A:ILE:369:CB:3233, V-B:GLU:543:CG:9879, V-A:GLU:543:C:4900, V-B:HIS:456:CE1:9040, V-A:LYS:547:CE:4948, V-A:GLY:544:CA:4912, V-A:HIS:456:CD2:4065, V-A:GLY:544:C:4910, V-B:LYS:547:CE:9922, V-A:HIS:456:CG:4063, H-B:LYS:547:NZ:9923, V-A:HIS:456:CB:4062"]

$$$$
4cd_Grossjean_2025
     RDKit          3D

 29 32  0  0  0  0  0  0  0  0999 V2000
  130.4800  128.0450   62.7590 N   0  0  0  0  0  0  0  0  0  0  0  0
  130.6650  127.2010   61.6940 C   0  0  0  0  0  0  0  0  0  0  0  0
  130.6050  127.6250   60.3560 C   0  0  0  0  0  0  0  0  0  0  0  0
  130.3300  128.9680   59.8350 C   0  0  0  0  0  0  0  0  0  0  0  0
  129.3720  129.6190   60.2520 O   0  0  0  0  0  0  0  0  0  0  0  0
  131.1970  129.4140   58.8940 N   0  0  0  0  0  0  0  0  0  0  0  0
  131.1880  130.6180   58.1650 C   0  0  0  0  0  0  0  0  0  0  0  0
  132.4200  131.0330   57.6530 C   0  0  0  0  0  0  0  0  0  0  0  0
  132.5120  132.2040   56.9070 C   0  0  0  0  0  0  0  0  0  0  0  0
  131.3680  132.9600   56.6660 C   0  0  0  0  0  0  0  0  0  0  0  0
  130.1320  132.5510   57.1580 C   0  0  0  0  0  0  0  0  0  0  0  0
  130.0360  131.3790   57.9050 C   0  0  0  0  0  0  0  0  0  0  0  0
  130.8990  126.2850   59.2500 S   0  0  0  0  0  0  0  0  0  0  0  0
  131.0910  125.1690   60.5810 C   0  0  0  0  0  0  0  0  0  0  0  0
  131.3500  123.8800   60.3760 N   0  0  0  0  0  0  0  0  0  0  0  0
  131.4700  123.0880   61.4730 C   0  0  0  0  0  0  0  0  0  0  0  0
  131.7590  121.6390   61.2090 C   0  0  0  0  0  0  0  0  0  0  0  0
  133.0600  121.2100   60.8990 C   0  0  0  0  0  0  0  0  0  0  0  0
  133.3360  119.8680   60.6540 C   0  0  0  0  0  0  0  0  0  0  0  0
  132.3100  118.9310   60.7170 C   0  0  0  0  0  0  0  0  0  0  0  0
  131.0130  119.3270   61.0250 C   0  0  0  0  0  0  0  0  0  0  0  0
  130.7420  120.6700   61.2710 C   0  0  0  0  0  0  0  0  0  0  0  0
  131.3480  123.5960   62.7690 C   0  0  0  0  0  0  0  0  0  0  0  0
  131.0790  124.9560   62.9970 C   0  0  0  0  0  0  0  0  0  0  0  0
  130.9540  125.4470   64.4450 C   0  0  0  0  0  0  0  0  0  0  0  0
  130.8650  124.4510   65.3300 F   0  0  0  0  0  0  0  0  0  0  0  0
  132.0230  126.1740   64.7680 F   0  0  0  0  0  0  0  0  0  0  0  0
  129.8570  126.1930   64.5740 F   0  0  0  0  0  0  0  0  0  0  0  0
  130.9390  125.7940   61.8540 C   0  0  0  0  0  0  0  0  0  0  0  0
  1  2  1  0
  2  3  2  0
  3  4  1  0
  4  5  2  0
  4  6  1  0
  6  7  1  0
  7  8  2  0
  8  9  1  0
  9 10  2  0
 10 11  1  0
 11 12  2  0
  3 13  1  0
 13 14  1  0
 14 15  2  0
 15 16  1  0
 16 17  1  0
 17 18  2  0
 18 19  1  0
 19 20  2  0
 20 21  1  0
 21 22  2  0
 16 23  2  0
 23 24  1  0
 24 25  1  0
 25 26  1  0
 25 27  1  0
 25 28  1  0
 24 29  2  0
 29  2  1  0
 12  7  1  0
 29 14  1  0
 22 17  1  0
M  END
>  <Binding energies>  (55) 
[-7.27]

>  <Ligand effiencies>  (55) 
[-0.2271875]

>  <Interactions>  (55) 
["V-A:LEU:373:CD1:3277, V-A:LEU:475:CD2:4256, V-A:GLU:543:CD:4906, V-B:GLU:543:CD:9880, V-A:ILE:369:CG2:3234, V-B:TYR:539:CD1:9845, V-A:ARG:545:CZ:4924, V-A:SER:385:CA:3404, V-B:ALA:541:CB:9864, V-B:TYR:539:CE1:9847, V-A:ASP:366:CG:3210, V-A:LEU:363:CD1:3186, V-A:PRO:540:CA:4881, V-A:TYR:539:C:4865, V-A:PRO:540:CB:4883, V-A:PRO:540:N:4882, H-A:GLU:543:OE1:4907, V-B:GLU:543:CB:9878, H-A:GLU:543:OE2:4908, H-A:ASP:366:OD2:3212, H-A:ASP:366:OD1:3211, V-A:ILE:538:CG2:4861, V-A:TYR:484:CZ:4344, H-A:TYR:531:OH:4793, V-A:ILE:538:CB:4860, V-A:ILE:538:CA:4858, V-A:PRO:540:CD:4885, V-A:TYR:484:CE2:4343, V-A:ILE:538:C:4856"]

$$$$
4cg_Grossjean_2025
     RDKit          3D

 30 33  0  0  0  0  0  0  0  0999 V2000
  130.1300  126.9820   63.5250 N   0  0  0  0  0  0  0  0  0  0  0  0
  129.6130  125.9930   62.7290 C   0  0  0  0  0  0  0  0  0  0  0  0
  128.4090  126.1270   62.0220 C   0  0  0  0  0  0  0  0  0  0  0  0
  127.5240  127.2880   61.9410 C   0  0  0  0  0  0  0  0  0  0  0  0
  126.9640  127.5960   60.8870 O   0  0  0  0  0  0  0  0  0  0  0  0
  127.3940  128.0140   63.0710 N   0  0  0  0  0  0  0  0  0  0  0  0
  126.5490  129.1960   63.2270 C   0  0  0  0  0  0  0  0  0  0  0  0
  127.2340  130.4910   62.8070 C   0  0  0  0  0  0  0  0  0  0  0  0
  128.2460  130.4600   61.8420 C   0  0  0  0  0  0  0  0  0  0  0  0
  128.8530  131.6450   61.4320 C   0  0  0  0  0  0  0  0  0  0  0  0
  128.4390  132.8560   61.9810 C   0  0  0  0  0  0  0  0  0  0  0  0
  127.4200  132.8960   62.9300 C   0  0  0  0  0  0  0  0  0  0  0  0
  126.8120  131.7120   63.3390 C   0  0  0  0  0  0  0  0  0  0  0  0
  128.0500  124.6790   61.0860 S   0  0  0  0  0  0  0  0  0  0  0  0
  129.5010  123.8950   61.6640 C   0  0  0  0  0  0  0  0  0  0  0  0
  129.8220  122.6620   61.2830 N   0  0  0  0  0  0  0  0  0  0  0  0
  130.9720  122.1360   61.7800 C   0  0  0  0  0  0  0  0  0  0  0  0
  131.3050  120.7410   61.3320 C   0  0  0  0  0  0  0  0  0  0  0  0
  132.5940  120.4190   60.8750 C   0  0  0  0  0  0  0  0  0  0  0  0
  132.9080  119.1290   60.4580 C   0  0  0  0  0  0  0  0  0  0  0  0
  131.9330  118.1370   60.4900 C   0  0  0  0  0  0  0  0  0  0  0  0
  130.6480  118.4280   60.9350 C   0  0  0  0  0  0  0  0  0  0  0  0
  130.3390  119.7200   61.3510 C   0  0  0  0  0  0  0  0  0  0  0  0
  131.7830  122.8450   62.6730 C   0  0  0  0  0  0  0  0  0  0  0  0
  131.4530  124.1470   63.0820 C   0  0  0  0  0  0  0  0  0  0  0  0
  132.3860  124.8670   64.0630 C   0  0  0  0  0  0  0  0  0  0  0  0
  131.7350  125.4580   65.0660 F   0  0  0  0  0  0  0  0  0  0  0  0
  133.2380  123.9930   64.5990 F   0  0  0  0  0  0  0  0  0  0  0  0
  133.0710  125.8120   63.4210 F   0  0  0  0  0  0  0  0  0  0  0  0
  130.2570  124.7140   62.5540 C   0  0  0  0  0  0  0  0  0  0  0  0
  1  2  1  0
  2  3  2  0
  3  4  1  0
  4  5  2  0
  4  6  1  0
  6  7  1  0
  7  8  1  0
  8  9  2  0
  9 10  1  0
 10 11  2  0
 11 12  1  0
 12 13  2  0
  3 14  1  0
 14 15  1  0
 15 16  2  0
 16 17  1  0
 17 18  1  0
 18 19  2  0
 19 20  1  0
 20 21  2  0
 21 22  1  0
 22 23  2  0
 17 24  2  0
 24 25  1  0
 25 26  1  0
 26 27  1  0
 26 28  1  0
 26 29  1  0
 25 30  2  0
 30  2  1  0
 13  8  1  0
 30 15  1  0
 23 18  1  0
M  END
>  <Binding energies>  (56) 
[-7.21]

>  <Ligand effiencies>  (56) 
[-0.21848484848484848]

>  <Interactions>  (56) 
["V-A:PRO:482:CG:4324, V-A:LEU:373:CD1:3277, V-A:LEU:475:CD2:4256, V-A:GLU:543:CD:4906, V-B:GLU:543:CD:9880, H-B:GLU:543:OE1:9881, V-A:PRO:482:CB:4323, H-B:GLU:543:OE2:9882, V-A:ILE:369:CG2:3234, V-B:TYR:539:CB:9843, V-A:GLY:454:CA:4046, V-B:TYR:539:CD1:9845, V-A:ARG:545:CZ:4924, V-A:SER:385:CA:3404, V-B:ALA:541:CB:9864, V-B:TYR:539:CE1:9847, V-A:GLY:453:C:4039, H-A:GLU:543:OE1:4907, H-A:GLU:543:OE2:4908, V-B:LEU:475:CD2:9230, V-A:ALA:541:CB:4890, V-B:ARG:545:CZ:9898, V-A:TYR:484:CZ:4344, H-B:ARG:545:NH2:9900"]

$$$$
4ch_Grossjean_2025
     RDKit          3D

 36 39  0  0  0  0  0  0  0  0999 V2000
  131.6360  131.4530   61.8560 C   0  0  0  0  0  0  0  0  0  0  0  0
  130.5160  132.1550   61.3280 O   0  0  0  0  0  0  0  0  0  0  0  0
  129.4710  131.4430   60.7680 C   0  0  0  0  0  0  0  0  0  0  0  0
  128.7750  130.4200   61.4330 C   0  0  0  0  0  0  0  0  0  0  0  0
  127.7280  129.7430   60.8070 C   0  0  0  0  0  0  0  0  0  0  0  0
  127.0020  128.6170   61.5350 C   0  0  0  0  0  0  0  0  0  0  0  0
  127.7510  127.3610   61.5960 N   0  0  0  0  0  0  0  0  0  0  0  0
  127.6640  126.3520   60.7050 C   0  0  0  0  0  0  0  0  0  0  0  0
  126.9400  126.4080   59.7080 O   0  0  0  0  0  0  0  0  0  0  0  0
  128.5110  125.1880   60.9690 C   0  0  0  0  0  0  0  0  0  0  0  0
  128.4330  123.7820   59.9130 S   0  0  0  0  0  0  0  0  0  0  0  0
  129.6650  122.9620   60.8400 C   0  0  0  0  0  0  0  0  0  0  0  0
  130.0800  121.7400   60.5180 N   0  0  0  0  0  0  0  0  0  0  0  0
  131.0460  121.1850   61.2950 C   0  0  0  0  0  0  0  0  0  0  0  0
  131.4870  119.8020   60.9080 C   0  0  0  0  0  0  0  0  0  0  0  0
  132.8190  119.5490   60.5390 C   0  0  0  0  0  0  0  0  0  0  0  0
  133.2340  118.2690   60.1780 C   0  0  0  0  0  0  0  0  0  0  0  0
  132.3200  117.2210   60.1810 C   0  0  0  0  0  0  0  0  0  0  0  0
  130.9940  117.4450   60.5380 C   0  0  0  0  0  0  0  0  0  0  0  0
  130.5830  118.7260   60.8960 C   0  0  0  0  0  0  0  0  0  0  0  0
  131.5790  121.8540   62.4010 C   0  0  0  0  0  0  0  0  0  0  0  0
  131.1490  123.1440   62.7520 C   0  0  0  0  0  0  0  0  0  0  0  0
  131.7750  123.8200   63.9770 C   0  0  0  0  0  0  0  0  0  0  0  0
  132.0380  125.1140   63.7830 F   0  0  0  0  0  0  0  0  0  0  0  0
  130.9440  123.7330   65.0140 F   0  0  0  0  0  0  0  0  0  0  0  0
  132.9250  123.2210   64.2840 F   0  0  0  0  0  0  0  0  0  0  0  0
  130.1450  123.7400   61.9360 C   0  0  0  0  0  0  0  0  0  0  0  0
  129.4720  125.0160   61.9770 C   0  0  0  0  0  0  0  0  0  0  0  0
  129.7440  125.9690   62.9250 N   0  0  0  0  0  0  0  0  0  0  0  0
  127.3790  130.0750   59.4970 C   0  0  0  0  0  0  0  0  0  0  0  0
  128.0590  131.0930   58.8080 C   0  0  0  0  0  0  0  0  0  0  0  0
  127.7660  131.4740   57.5120 O   0  0  0  0  0  0  0  0  0  0  0  0
  127.1830  130.5310   56.6190 C   0  0  0  0  0  0  0  0  0  0  0  0
  129.0990  131.7730   59.4580 C   0  0  0  0  0  0  0  0  0  0  0  0
  129.7820  132.7600   58.7900 O   0  0  0  0  0  0  0  0  0  0  0  0
  130.7520  132.2730   57.8710 C   0  0  0  0  0  0  0  0  0  0  0  0
  1  2  1  0
  2  3  1  0
  3  4  2  0
  4  5  1  0
  5  6  1  0
  6  7  1  0
  7  8  1  0
  8  9  2  0
  8 10  1  0
 10 11  1  0
 11 12  1  0
 12 13  2  0
 13 14  1  0
 14 15  1  0
 15 16  2  0
 16 17  1  0
 17 18  2  0
 18 19  1  0
 19 20  2  0
 14 21  2  0
 21 22  1  0
 22 23  1  0
 23 24  1  0
 23 25  1  0
 23 26  1  0
 22 27  2  0
 27 28  1  0
 28 29  1  0
  5 30  2  0
 30 31  1  0
 31 32  1  0
 32 33  1  0
 31 34  2  0
 34 35  1  0
 35 36  1  0
 34  3  1  0
 28 10  2  0
 27 12  1  0
 20 15  1  0
M  END
>  <Binding energies>  (57) 
[-6.4]

>  <Ligand effiencies>  (57) 
[-0.1641025641025641]

>  <Interactions>  (57) 
["V-A:PRO:482:CG:4324, V-A:LEU:373:CD1:3277, V-A:LEU:475:CD2:4256, V-A:GLU:543:CD:4906, V-B:GLU:543:CD:9880, H-B:GLU:543:OE1:9881, V-A:PRO:482:CB:4323, H-B:GLU:543:OE2:9882, V-A:SER:385:CB:3406, V-A:ILE:369:CG2:3234, V-B:TYR:539:CB:9843, V-A:GLY:454:CA:4046, V-B:TYR:539:CD1:9845, V-A:ARG:545:CZ:4924, V-A:SER:385:CA:3404, V-B:TYR:539:CE1:9847, V-A:TYR:539:CZ:4875, V-A:MET:535:CE:4833, V-A:PRO:540:CA:4881, V-A:TYR:539:C:4865, V-A:PRO:540:N:4882, V-A:TYR:539:CE1:4873, H-A:ALA:541:N:4889, V-B:GLU:543:CB:9878, H-A:GLU:543:OE2:4908, V-A:TYR:484:CZ:4344, H-A:TYR:539:OH:4876, V-A:TYR:484:CE2:4343"]

$$$$
4cj_Grossjean_2025
     RDKit          3D

 28 31  0  0  0  0  0  0  0  0999 V2000
  130.4890  126.9170   62.8890 N   0  0  0  0  0  0  0  0  0  0  0  0
  129.8360  125.8260   62.3760 C   0  0  0  0  0  0  0  0  0  0  0  0
  128.4900  125.8520   61.9760 C   0  0  0  0  0  0  0  0  0  0  0  0
  127.5500  126.9750   62.0080 C   0  0  0  0  0  0  0  0  0  0  0  0
  126.8130  127.2080   61.0460 O   0  0  0  0  0  0  0  0  0  0  0  0
  127.5660  127.7170   63.1430 N   0  0  0  0  0  0  0  0  0  0  0  0
  126.7800  128.8260   63.4250 C   0  0  0  0  0  0  0  0  0  0  0  0
  126.0870  129.5600   62.5800 N   0  0  0  0  0  0  0  0  0  0  0  0
  125.4520  130.5370   63.1960 C   0  0  0  0  0  0  0  0  0  0  0  0
  125.6230  130.6100   64.5750 C   0  0  0  0  0  0  0  0  0  0  0  0
  126.6750  129.3220   65.0840 S   0  0  0  0  0  0  0  0  0  0  0  0
  127.9800  124.2840   61.3550 S   0  0  0  0  0  0  0  0  0  0  0  0
  129.5660  123.6070   61.6360 C   0  0  0  0  0  0  0  0  0  0  0  0
  129.8430  122.3400   61.3380 N   0  0  0  0  0  0  0  0  0  0  0  0
  131.1050  121.9040   61.5840 C   0  0  0  0  0  0  0  0  0  0  0  0
  131.3870  120.4740   61.2240 C   0  0  0  0  0  0  0  0  0  0  0  0
  130.3690  119.5070   61.2670 C   0  0  0  0  0  0  0  0  0  0  0  0
  130.6260  118.1780   60.9400 C   0  0  0  0  0  0  0  0  0  0  0  0
  131.9100  117.7950   60.5650 C   0  0  0  0  0  0  0  0  0  0  0  0
  132.9360  118.7310   60.5160 C   0  0  0  0  0  0  0  0  0  0  0  0
  132.6750  120.0590   60.8430 C   0  0  0  0  0  0  0  0  0  0  0  0
  132.0760  122.7360   62.1520 C   0  0  0  0  0  0  0  0  0  0  0  0
  131.7950  124.0730   62.4720 C   0  0  0  0  0  0  0  0  0  0  0  0
  132.9060  124.9300   63.0890 C   0  0  0  0  0  0  0  0  0  0  0  0
  134.1130  124.3680   62.9980 F   0  0  0  0  0  0  0  0  0  0  0  0
  132.9650  126.1060   62.4650 F   0  0  0  0  0  0  0  0  0  0  0  0
  132.6560  125.1310   64.3830 F   0  0  0  0  0  0  0  0  0  0  0  0
  130.4790  124.5460   62.2000 C   0  0  0  0  0  0  0  0  0  0  0  0
  1  2  1  0
  2  3  2  0
  3  4  1  0
  4  5  2  0
  4  6  1  0
  6  7  1  0
  7  8  2  0
  8  9  1  0
  9 10  2  0
 10 11  1  0
  3 12  1  0
 12 13  1  0
 13 14  2  0
 14 15  1  0
 15 16  1  0
 16 17  2  0
 17 18  1  0
 18 19  2  0
 19 20  1  0
 20 21  2  0
 15 22  2  0
 22 23  1  0
 23 24  1  0
 24 25  1  0
 24 26  1  0
 24 27  1  0
 23 28  2  0
 28  2  1  0
 11  7  1  0
 28 13  1  0
 21 16  1  0
M  END
>  <Binding energies>  (58) 
[-6.57]

>  <Ligand effiencies>  (58) 
[-0.21193548387096775]

>  <Interactions>  (58) 
["V-A:PRO:482:CG:4324, V-A:LEU:373:CD1:3277, V-A:LEU:475:CD2:4256, V-A:GLU:543:CD:4906, V-B:GLU:543:CD:9880, H-B:GLU:543:OE1:9881, V-A:PRO:482:CB:4323, H-B:GLU:543:OE2:9882, V-A:SER:385:CB:3406, V-A:ILE:369:CG2:3234, V-B:TYR:539:CB:9843, V-A:GLY:454:CA:4046, V-B:TYR:539:CD1:9845, V-A:ARG:545:CZ:4924, V-A:SER:385:CA:3404, V-B:ALA:541:CB:9864, V-B:TYR:539:CE1:9847, V-A:ASP:366:CG:3210, V-A:GLY:453:C:4039, V-A:GLY:453:CA:4041, H-A:GLU:543:OE1:4907, H-A:GLU:543:OE2:4908, V-B:ARG:545:CZ:9898, H-B:ARG:545:NH2:9900"]

$$$$
4ck_Grossjean_2025
     RDKit          3D

 33 35  0  0  0  0  0  0  0  0999 V2000
  130.5860  124.7680   66.3060 C   0  0  0  0  0  0  0  0  0  0  0  0
  130.4580  126.1720   66.4670 O   0  0  0  0  0  0  0  0  0  0  0  0
  129.5020  126.5430   67.4500 C   0  0  0  0  0  0  0  0  0  0  0  0
  129.9420  127.8580   68.1050 C   0  0  0  0  0  0  0  0  0  0  0  0
  128.8110  128.7070   68.2450 O   0  0  0  0  0  0  0  0  0  0  0  0
  127.8700  128.5780   67.1880 C   0  0  0  0  0  0  0  0  0  0  0  0
  127.5110  129.9730   66.6620 C   0  0  0  0  0  0  0  0  0  0  0  0
  126.6140  129.8330   65.5680 O   0  0  0  0  0  0  0  0  0  0  0  0
  127.2270  130.0010   64.2960 C   0  0  0  0  0  0  0  0  0  0  0  0
  126.6390  128.9880   63.3030 C   0  0  0  0  0  0  0  0  0  0  0  0
  127.5160  127.8330   63.1100 N   0  0  0  0  0  0  0  0  0  0  0  0
  127.6600  127.1330   61.9660 C   0  0  0  0  0  0  0  0  0  0  0  0
  127.0650  127.4250   60.9270 O   0  0  0  0  0  0  0  0  0  0  0  0
  128.5820  125.9980   62.0220 C   0  0  0  0  0  0  0  0  0  0  0  0
  128.2080  124.5110   61.1550 S   0  0  0  0  0  0  0  0  0  0  0  0
  129.7150  123.7850   61.6630 C   0  0  0  0  0  0  0  0  0  0  0  0
  130.0500  122.5510   61.2970 N   0  0  0  0  0  0  0  0  0  0  0  0
  131.2410  122.0710   61.7420 C   0  0  0  0  0  0  0  0  0  0  0  0
  131.5970  120.6820   61.2970 C   0  0  0  0  0  0  0  0  0  0  0  0
  130.6290  119.6650   61.2670 C   0  0  0  0  0  0  0  0  0  0  0  0
  130.9540  118.3740   60.8570 C   0  0  0  0  0  0  0  0  0  0  0  0
  132.2560  118.0810   60.4690 C   0  0  0  0  0  0  0  0  0  0  0  0
  133.2340  119.0700   60.4840 C   0  0  0  0  0  0  0  0  0  0  0  0
  132.9050  120.3600   60.8930 C   0  0  0  0  0  0  0  0  0  0  0  0
  132.0930  122.8360   62.5450 C   0  0  0  0  0  0  0  0  0  0  0  0
  131.7490  124.1400   62.9370 C   0  0  0  0  0  0  0  0  0  0  0  0
  132.7280  124.9220   63.8220 C   0  0  0  0  0  0  0  0  0  0  0  0
  132.1530  125.9360   64.4700 F   0  0  0  0  0  0  0  0  0  0  0  0
  133.2550  124.1100   64.7370 F   0  0  0  0  0  0  0  0  0  0  0  0
  133.7040  125.4310   63.0700 F   0  0  0  0  0  0  0  0  0  0  0  0
  130.5010  124.6520   62.4790 C   0  0  0  0  0  0  0  0  0  0  0  0
  129.8290  125.9160   62.6610 C   0  0  0  0  0  0  0  0  0  0  0  0
  130.3640  126.9420   63.3970 N   0  0  0  0  0  0  0  0  0  0  0  0
  1  2  1  0
  2  3  1  0
  3  4  1  0
  4  5  1  0
  5  6  1  0
  6  7  1  0
  7  8  1  0
  8  9  1  0
  9 10  1  0
 10 11  1  0
 11 12  1  0
 12 13  2  0
 12 14  1  0
 14 15  1  0
 15 16  1  0
 16 17  2  0
 17 18  1  0
 18 19  1  0
 19 20  2  0
 20 21  1  0
 21 22  2  0
 22 23  1  0
 23 24  2  0
 18 25  2  0
 25 26  1  0
 26 27  1  0
 27 28  1  0
 27 29  1  0
 27 30  1  0
 26 31  2  0
 31 32  1  0
 32 33  1  0
 32 14  2  0
 31 16  1  0
 24 19  1  0
M  END
>  <Binding energies>  (59) 
[-6.2]

>  <Ligand effiencies>  (59) 
[-0.17222222222222222]

>  <Interactions>  (59) 
["V-A:PRO:482:CG:4324, V-A:LEU:373:CD1:3277, V-A:LEU:475:CD2:4256, V-A:GLU:543:CD:4906, V-B:GLU:543:CD:9880, H-B:GLU:543:OE1:9881, V-A:PRO:482:CB:4323, H-B:GLU:543:OE2:9882, V-A:SER:385:CB:3406, V-A:ILE:369:CG2:3234, V-A:GLY:454:CA:4046, V-B:TYR:539:CD1:9845, V-A:ARG:545:CZ:4924, V-A:SER:385:CA:3404, V-B:ALA:541:CB:9864, V-B:TYR:539:CE1:9847, V-A:GLY:453:C:4039, V-A:GLY:453:CA:4041, H-A:GLU:543:OE1:4907, V-B:GLU:543:CB:9878, V-A:HIS:456:CE1:4066, H-A:GLU:543:OE2:4908, V-B:ARG:545:CZ:9898, V-A:TYR:484:CZ:4344, V-B:GLU:543:CG:9879, V-A:GLU:543:CB:4904, V-A:GLU:543:CG:4905, V-A:GLU:543:C:4900, V-B:HIS:456:CE1:9040, V-A:TYR:484:CE2:4343, H-B:ARG:545:NH2:9900, H-B:TYR:484:OH:9319, V-B:TYR:484:CZ:9318, H-B:HIS:456:NE2:9041, V-B:TYR:484:CE2:9317"]

$$$$
4dd_Grossjean_2025
     RDKit          3D

 26 29  0  0  0  0  0  0  0  0999 V2000
  130.6300  125.5290   64.4050 C   0  0  0  0  0  0  0  0  0  0  0  0
  130.8840  125.0530   62.9820 C   0  0  0  0  0  0  0  0  0  0  0  0
  131.1520  123.6940   62.7780 C   0  0  0  0  0  0  0  0  0  0  0  0
  131.3930  123.1930   61.4930 C   0  0  0  0  0  0  0  0  0  0  0  0
  131.6890  121.7430   61.2460 C   0  0  0  0  0  0  0  0  0  0  0  0
  130.6770  120.7750   61.3510 C   0  0  0  0  0  0  0  0  0  0  0  0
  130.9440  119.4280   61.1200 C   0  0  0  0  0  0  0  0  0  0  0  0
  132.2320  119.0280   60.7810 C   0  0  0  0  0  0  0  0  0  0  0  0
  133.2520  119.9660   60.6670 C   0  0  0  0  0  0  0  0  0  0  0  0
  132.9810  121.3130   60.8970 C   0  0  0  0  0  0  0  0  0  0  0  0
  131.3910  123.9980   60.3960 N   0  0  0  0  0  0  0  0  0  0  0  0
  131.1300  125.2910   60.5870 C   0  0  0  0  0  0  0  0  0  0  0  0
  131.0770  126.4330   59.2640 S   0  0  0  0  0  0  0  0  0  0  0  0
  130.6950  127.7610   60.3630 C   0  0  0  0  0  0  0  0  0  0  0  0
  130.4880  129.1150   59.8460 C   0  0  0  0  0  0  0  0  0  0  0  0
  129.6420  129.8560   60.3490 O   0  0  0  0  0  0  0  0  0  0  0  0
  131.2860  129.4690   58.8090 N   0  0  0  0  0  0  0  0  0  0  0  0
  131.3050  130.6580   58.0590 C   0  0  0  0  0  0  0  0  0  0  0  0
  132.5580  131.0650   57.5910 C   0  0  0  0  0  0  0  0  0  0  0  0
  132.6810  132.2220   56.8270 C   0  0  0  0  0  0  0  0  0  0  0  0
  131.5470  132.9710   56.5220 C   0  0  0  0  0  0  0  0  0  0  0  0
  130.2920  132.5710   56.9710 C   0  0  0  0  0  0  0  0  0  0  0  0
  130.1660  131.4140   57.7360 C   0  0  0  0  0  0  0  0  0  0  0  0
  130.6230  127.3120   61.6910 C   0  0  0  0  0  0  0  0  0  0  0  0
  130.3470  128.1290   62.7590 N   0  0  0  0  0  0  0  0  0  0  0  0
  130.8650  125.9020   61.8460 C   0  0  0  0  0  0  0  0  0  0  0  0
  1  2  1  0
  2  3  2  0
  3  4  1  0
  4  5  1  0
  5  6  2  0
  6  7  1  0
  7  8  2  0
  8  9  1  0
  9 10  2  0
  4 11  2  0
 11 12  1  0
 12 13  1  0
 13 14  1  0
 14 15  1  0
 15 16  2  0
 15 17  1  0
 17 18  1  0
 18 19  2  0
 19 20  1  0
 20 21  2  0
 21 22  1  0
 22 23  2  0
 14 24  2  0
 24 25  1  0
 24 26  1  0
 26  2  1  0
 10  5  1  0
 26 12  2  0
 23 18  1  0
M  END
>  <Binding energies>  (60) 
[-7.69]

>  <Ligand effiencies>  (60) 
[-0.26517241379310347]

>  <Interactions>  (60) 
["V-A:LEU:373:CD1:3277, V-A:LEU:475:CD2:4256, V-A:GLU:543:CD:4906, V-B:GLU:543:CD:9880, V-A:ILE:369:CG2:3234, V-B:TYR:539:CD1:9845, V-A:SER:385:CA:3404, V-B:ALA:541:CB:9864, V-B:TYR:539:CE1:9847, V-A:ASP:366:CG:3210, V-A:TYR:531:CE2:4791, V-A:LEU:363:CD1:3186, V-A:TYR:539:C:4865, V-A:PRO:540:CB:4883, V-A:PRO:540:N:4882, H-A:GLU:543:OE1:4907, H-A:GLU:543:OE2:4908, H-A:ASP:366:OD2:3212, H-A:ASP:366:OD1:3211, V-A:ILE:538:CG2:4861, H-A:TYR:531:OH:4793, V-A:ILE:538:CB:4860, V-A:ILE:538:CA:4858, V-A:PRO:540:CD:4885, V-A:ILE:538:C:4856"]

$$$$
4dg_Grossjean_2025
     RDKit          3D

 27 30  0  0  0  0  0  0  0  0999 V2000
  131.1380  124.8200   64.5930 C   0  0  0  0  0  0  0  0  0  0  0  0
  131.2450  124.4070   63.1320 C   0  0  0  0  0  0  0  0  0  0  0  0
  131.5420  123.0700   62.8440 C   0  0  0  0  0  0  0  0  0  0  0  0
  131.6540  122.6270   61.5210 C   0  0  0  0  0  0  0  0  0  0  0  0
  131.9700  121.1970   61.1800 C   0  0  0  0  0  0  0  0  0  0  0  0
  133.2740  120.8120   60.8270 C   0  0  0  0  0  0  0  0  0  0  0  0
  133.5710  119.4890   60.5070 C   0  0  0  0  0  0  0  0  0  0  0  0
  132.5660  118.5290   60.5360 C   0  0  0  0  0  0  0  0  0  0  0  0
  131.2650  118.8840   60.8790 C   0  0  0  0  0  0  0  0  0  0  0  0
  130.9720  120.2070   61.1970 C   0  0  0  0  0  0  0  0  0  0  0  0
  131.4640  123.4630   60.4650 N   0  0  0  0  0  0  0  0  0  0  0  0
  131.1820  124.7370   60.7370 C   0  0  0  0  0  0  0  0  0  0  0  0
  130.9210  125.9180   59.4750 S   0  0  0  0  0  0  0  0  0  0  0  0
  130.6340  127.1890   60.6630 C   0  0  0  0  0  0  0  0  0  0  0  0
  130.3740  128.5590   60.2250 C   0  0  0  0  0  0  0  0  0  0  0  0
  129.4680  128.8180   59.4300 O   0  0  0  0  0  0  0  0  0  0  0  0
  131.2060  129.5020   60.7140 N   0  0  0  0  0  0  0  0  0  0  0  0
  131.1210  130.9340   60.4320 C   0  0  0  0  0  0  0  0  0  0  0  0
  131.5140  131.2940   59.0040 C   0  0  0  0  0  0  0  0  0  0  0  0
  130.5200  131.5200   58.0460 C   0  0  0  0  0  0  0  0  0  0  0  0
  130.8740  131.8790   56.7490 C   0  0  0  0  0  0  0  0  0  0  0  0
  132.2190  132.0240   56.4160 C   0  0  0  0  0  0  0  0  0  0  0  0
  133.2140  131.8170   57.3690 C   0  0  0  0  0  0  0  0  0  0  0  0
  132.8600  131.4590   58.6670 C   0  0  0  0  0  0  0  0  0  0  0  0
  130.7560  126.7000   61.9730 C   0  0  0  0  0  0  0  0  0  0  0  0
  130.5980  127.4730   63.0940 N   0  0  0  0  0  0  0  0  0  0  0  0
  131.0580  125.2950   62.0410 C   0  0  0  0  0  0  0  0  0  0  0  0
  1  2  1  0
  2  3  2  0
  3  4  1  0
  4  5  1  0
  5  6  2  0
  6  7  1  0
  7  8  2  0
  8  9  1  0
  9 10  2  0
  4 11  2  0
 11 12  1  0
 12 13  1  0
 13 14  1  0
 14 15  1  0
 15 16  2  0
 15 17  1  0
 17 18  1  0
 18 19  1  0
 19 20  2  0
 20 21  1  0
 21 22  2  0
 22 23  1  0
 23 24  2  0
 14 25  2  0
 25 26  1  0
 25 27  1  0
 27  2  1  0
 10  5  1  0
 27 12  2  0
 24 19  1  0
M  END
>  <Binding energies>  (61) 
[-7.94]

>  <Ligand effiencies>  (61) 
[-0.26466666666666666]

>  <Interactions>  (61) 
["V-A:LEU:373:CD1:3277, V-A:LEU:475:CD2:4256, V-A:GLU:543:CD:4906, V-B:GLU:543:CD:9880, H-B:GLU:543:OE2:9882, V-A:SER:385:CB:3406, V-A:ILE:369:CG2:3234, V-B:TYR:539:CD1:9845, V-A:ARG:545:CZ:4924, V-A:SER:385:CA:3404, V-B:TYR:539:CE1:9847, V-A:LEU:363:CA:3182, V-A:ASP:366:CG:3210, V-A:TYR:531:CE2:4791, V-A:LEU:363:CD1:3186, V-A:PRO:540:CA:4881, V-A:PRO:540:CB:4883, H-A:GLU:543:OE1:4907, H-A:GLU:543:OE2:4908, H-A:ASP:366:OD2:3212, H-A:ASP:366:OD1:3211, V-A:SER:385:C:3402, V-A:ILE:538:CG2:4861, V-A:ILE:538:CB:4860"]

$$$$
4dj_Grossjean_2025
     RDKit          3D

 25 28  0  0  0  0  0  0  0  0999 V2000
  132.3710  124.5860   64.2420 C   0  0  0  0  0  0  0  0  0  0  0  0
  131.5100  123.9310   63.1730 C   0  0  0  0  0  0  0  0  0  0  0  0
  131.8550  122.6440   62.7450 C   0  0  0  0  0  0  0  0  0  0  0  0
  131.1040  121.9870   61.7630 C   0  0  0  0  0  0  0  0  0  0  0  0
  131.4470  120.6030   61.2880 C   0  0  0  0  0  0  0  0  0  0  0  0
  132.7470  120.2900   60.8570 C   0  0  0  0  0  0  0  0  0  0  0  0
  133.0710  119.0100   60.4160 C   0  0  0  0  0  0  0  0  0  0  0  0
  132.0940  118.0200   60.3950 C   0  0  0  0  0  0  0  0  0  0  0  0
  130.7980  118.3020   60.8120 C   0  0  0  0  0  0  0  0  0  0  0  0
  130.4790  119.5830   61.2540 C   0  0  0  0  0  0  0  0  0  0  0  0
  130.0060  122.5570   61.1960 N   0  0  0  0  0  0  0  0  0  0  0  0
  129.6770  123.7830   61.6020 C   0  0  0  0  0  0  0  0  0  0  0  0
  128.2950  124.6360   60.9520 S   0  0  0  0  0  0  0  0  0  0  0  0
  128.6150  126.0340   61.9800 C   0  0  0  0  0  0  0  0  0  0  0  0
  127.7510  127.2130   61.9160 C   0  0  0  0  0  0  0  0  0  0  0  0
  127.2080  127.5390   60.8570 O   0  0  0  0  0  0  0  0  0  0  0  0
  127.6110  127.8980   63.0770 N   0  0  0  0  0  0  0  0  0  0  0  0
  126.8560  129.0440   63.2840 C   0  0  0  0  0  0  0  0  0  0  0  0
  126.6300  130.0270   62.4380 N   0  0  0  0  0  0  0  0  0  0  0  0
  125.8640  130.9590   62.9720 C   0  0  0  0  0  0  0  0  0  0  0  0
  125.4490  130.7400   64.2820 C   0  0  0  0  0  0  0  0  0  0  0  0
  126.1040  129.2280   64.8360 S   0  0  0  0  0  0  0  0  0  0  0  0
  129.7500  125.8240   62.7790 C   0  0  0  0  0  0  0  0  0  0  0  0
  130.2350  126.7460   63.6730 N   0  0  0  0  0  0  0  0  0  0  0  0
  130.3740  124.5440   62.5830 C   0  0  0  0  0  0  0  0  0  0  0  0
  1  2  1  0
  2  3  2  0
  3  4  1  0
  4  5  1  0
  5  6  2  0
  6  7  1  0
  7  8  2  0
  8  9  1  0
  9 10  2  0
  4 11  2  0
 11 12  1  0
 12 13  1  0
 13 14  1  0
 14 15  1  0
 15 16  2  0
 15 17  1  0
 17 18  1  0
 18 19  2  0
 19 20  1  0
 20 21  2  0
 21 22  1  0
 14 23  2  0
 23 24  1  0
 23 25  1  0
 25  2  1  0
 10  5  1  0
 25 12  2  0
 22 18  1  0
M  END
>  <Binding energies>  (62) 
[-7.13]

>  <Ligand effiencies>  (62) 
[-0.2546428571428571]

>  <Interactions>  (62) 
["V-A:PRO:482:CG:4324, V-A:LEU:373:CD1:3277, V-A:LEU:475:CD2:4256, V-A:GLU:543:CD:4906, V-B:GLU:543:CD:9880, H-B:GLU:543:OE1:9881, V-A:PRO:482:CB:4323, H-B:GLU:543:OE2:9882, V-A:SER:385:CB:3406, V-A:ILE:369:CG2:3234, V-B:TYR:539:CB:9843, V-B:TYR:539:CD1:9845, V-A:SER:385:CA:3404, V-B:ALA:541:CB:9864, V-B:TYR:539:CE1:9847, H-A:GLU:543:OE1:4907, H-A:GLU:543:OE2:4908, V-B:ARG:545:CZ:9898, H-B:ARG:545:NH2:9900"]

$$$$
4ea_Grossjean_2025
     RDKit          3D

 31 34  0  0  0  0  0  0  0  0999 V2000
  131.0730  126.4910   73.2830 C   0  0  0  0  0  0  0  0  0  0  0  0
  129.7090  125.9020   72.9090 C   0  0  0  0  0  0  0  0  0  0  0  0
  128.7730  126.9570   72.7290 O   0  0  0  0  0  0  0  0  0  0  0  0
  129.0490  128.0110   71.9190 C   0  0  0  0  0  0  0  0  0  0  0  0
  129.1700  129.1690   72.3280 O   0  0  0  0  0  0  0  0  0  0  0  0
  129.1930  127.6260   70.4750 C   0  0  0  0  0  0  0  0  0  0  0  0
  130.4510  127.7210   69.8650 C   0  0  0  0  0  0  0  0  0  0  0  0
  130.6180  127.3720   68.5280 C   0  0  0  0  0  0  0  0  0  0  0  0
  129.5340  126.9220   67.7730 C   0  0  0  0  0  0  0  0  0  0  0  0
  129.8210  126.5980   66.4330 N   0  0  0  0  0  0  0  0  0  0  0  0
  130.3270  125.4620   65.8930 C   0  0  0  0  0  0  0  0  0  0  0  0
  130.6370  124.4630   66.5430 O   0  0  0  0  0  0  0  0  0  0  0  0
  130.4940  125.4840   64.4370 C   0  0  0  0  0  0  0  0  0  0  0  0
  129.8780  126.8390   63.4870 S   0  0  0  0  0  0  0  0  0  0  0  0
  130.4490  126.1190   62.0000 C   0  0  0  0  0  0  0  0  0  0  0  0
  130.2740  126.7110   60.8170 N   0  0  0  0  0  0  0  0  0  0  0  0
  130.7640  126.0490   59.7410 C   0  0  0  0  0  0  0  0  0  0  0  0
  130.5540  126.7400   58.4060 C   0  0  0  0  0  0  0  0  0  0  0  0
  131.4170  124.8210   59.8180 C   0  0  0  0  0  0  0  0  0  0  0  0
  131.5980  124.2030   61.0600 C   0  0  0  0  0  0  0  0  0  0  0  0
  132.2950  122.8980   61.1250 C   0  0  0  0  0  0  0  0  0  0  0  0
  133.6640  122.8450   61.4040 C   0  0  0  0  0  0  0  0  0  0  0  0
  134.3190  121.6190   61.4690 C   0  0  0  0  0  0  0  0  0  0  0  0
  133.6040  120.4430   61.2500 C   0  0  0  0  0  0  0  0  0  0  0  0
  132.2410  120.4840   60.9670 C   0  0  0  0  0  0  0  0  0  0  0  0
  131.5880  121.7120   60.9030 C   0  0  0  0  0  0  0  0  0  0  0  0
  131.0990  124.8660   62.2150 C   0  0  0  0  0  0  0  0  0  0  0  0
  131.1100  124.5270   63.6140 C   0  0  0  0  0  0  0  0  0  0  0  0
  131.6780  123.3700   64.0830 N   0  0  0  0  0  0  0  0  0  0  0  0
  128.2700  126.8240   68.3760 C   0  0  0  0  0  0  0  0  0  0  0  0
  128.1050  127.1740   69.7130 C   0  0  0  0  0  0  0  0  0  0  0  0
  1  2  1  0
  2  3  1  0
  3  4  1  0
  4  5  2  0
  4  6  1  0
  6  7  2  0
  7  8  1  0
  8  9  2  0
  9 10  1  0
 10 11  1  0
 11 12  2  0
 11 13  1  0
 13 14  1  0
 14 15  1  0
 15 16  2  0
 16 17  1  0
 17 18  1  0
 17 19  2  0
 19 20  1  0
 20 21  1  0
 21 22  2  0
 22 23  1  0
 23 24  2  0
 24 25  1  0
 25 26  2  0
 20 27  2  0
 27 28  1  0
 28 29  1  0
  9 30  1  0
 30 31  2  0
 31  6  1  0
 28 13  2  0
 27 15  1  0
 26 21  1  0
M  END
>  <Binding energies>  (63) 
[-6.83]

>  <Ligand effiencies>  (63) 
[-0.20088235294117648]

>  <Interactions>  (63) 
["V-A:LEU:475:CD2:4256, V-A:GLU:543:CD:4906, V-B:GLU:543:CD:9880, H-B:GLU:543:OE1:9881, H-B:GLU:543:OE2:9882, V-A:ILE:369:CG2:3234, V-A:GLY:454:CA:4046, V-B:TYR:539:CD1:9845, V-A:SER:385:CA:3404, V-B:TYR:539:CE1:9847, H-A:HIS:456:NE2:4067, H-A:TYR:484:OH:4345, H-A:GLU:543:OE1:4907, V-B:GLU:543:CB:9878, V-A:HIS:456:CE1:4066, H-A:GLU:543:OE2:4908, V-A:ILE:369:CD1:3236, V-A:SER:385:C:3402, V-B:GLU:543:CG:9879, V-A:GLU:543:CG:4905, V-A:GLU:543:C:4900, V-B:HIS:456:CE1:9040, V-A:ILE:369:CG1:3235, V-A:HIS:456:CD2:4065, V-A:GLY:544:C:4910, V-B:HIS:456:CD2:9039, V-B:LYS:547:CE:9922, V-B:GLU:543:C:9874, V-A:HIS:456:CG:4063, H-B:HIS:456:NE2:9041, H-B:LYS:547:NZ:9923"]

$$$$
4eb_Grossjean_2025
     RDKit          3D

 30 33  0  0  0  0  0  0  0  0999 V2000
  129.1080  125.7130   72.5130 C   0  0  0  0  0  0  0  0  0  0  0  0
  128.6290  127.0390   72.6830 O   0  0  0  0  0  0  0  0  0  0  0  0
  129.0760  128.0500   71.8940 C   0  0  0  0  0  0  0  0  0  0  0  0
  129.3480  129.1760   72.3200 O   0  0  0  0  0  0  0  0  0  0  0  0
  129.2080  127.6600   70.4490 C   0  0  0  0  0  0  0  0  0  0  0  0
  130.4650  127.7260   69.8350 C   0  0  0  0  0  0  0  0  0  0  0  0
  130.6190  127.3720   68.4980 C   0  0  0  0  0  0  0  0  0  0  0  0
  129.5230  126.9460   67.7470 C   0  0  0  0  0  0  0  0  0  0  0  0
  129.7970  126.6140   66.4060 N   0  0  0  0  0  0  0  0  0  0  0  0
  130.4610  125.5540   65.8820 C   0  0  0  0  0  0  0  0  0  0  0  0
  130.9650  124.6510   66.5510 O   0  0  0  0  0  0  0  0  0  0  0  0
  130.5540  125.5360   64.4200 C   0  0  0  0  0  0  0  0  0  0  0  0
  129.8660  126.8510   63.4660 S   0  0  0  0  0  0  0  0  0  0  0  0
  130.3750  126.0990   61.9720 C   0  0  0  0  0  0  0  0  0  0  0  0
  130.1290  126.6530   60.7830 N   0  0  0  0  0  0  0  0  0  0  0  0
  130.5770  125.9690   59.7030 C   0  0  0  0  0  0  0  0  0  0  0  0
  130.2860  126.6180   58.3610 C   0  0  0  0  0  0  0  0  0  0  0  0
  131.2570  124.7560   59.7800 C   0  0  0  0  0  0  0  0  0  0  0  0
  131.5130  124.1780   61.0290 C   0  0  0  0  0  0  0  0  0  0  0  0
  132.2370  122.8880   61.0960 C   0  0  0  0  0  0  0  0  0  0  0  0
  133.6100  122.8660   61.3610 C   0  0  0  0  0  0  0  0  0  0  0  0
  134.2910  121.6530   61.4260 C   0  0  0  0  0  0  0  0  0  0  0  0
  133.5990  120.4620   61.2220 C   0  0  0  0  0  0  0  0  0  0  0  0
  132.2320  120.4730   60.9540 C   0  0  0  0  0  0  0  0  0  0  0  0
  131.5520  121.6860   60.8890 C   0  0  0  0  0  0  0  0  0  0  0  0
  131.0590  124.8650   62.1880 C   0  0  0  0  0  0  0  0  0  0  0  0
  131.1470  124.5680   63.5940 C   0  0  0  0  0  0  0  0  0  0  0  0
  131.7600  123.4350   64.0660 N   0  0  0  0  0  0  0  0  0  0  0  0
  128.2590  126.8770   68.3540 C   0  0  0  0  0  0  0  0  0  0  0  0
  128.1070  127.2310   69.6910 C   0  0  0  0  0  0  0  0  0  0  0  0
  1  2  1  0
  2  3  1  0
  3  4  2  0
  3  5  1  0
  5  6  2  0
  6  7  1  0
  7  8  2  0
  8  9  1  0
  9 10  1  0
 10 11  2  0
 10 12  1  0
 12 13  1  0
 13 14  1  0
 14 15  2  0
 15 16  1  0
 16 17  1  0
 16 18  2  0
 18 19  1  0
 19 20  1  0
 20 21  2  0
 21 22  1  0
 22 23  2  0
 23 24  1  0
 24 25  2  0
 19 26  2  0
 26 27  1  0
 27 28  1  0
  8 29  1  0
 29 30  2  0
 30  5  1  0
 27 12  2  0
 26 14  1  0
 25 20  1  0
M  END
>  <Binding energies>  (64) 
[-6.7]

>  <Ligand effiencies>  (64) 
[-0.20303030303030303]

>  <Interactions>  (64) 
["V-A:LEU:475:CD2:4256, V-A:GLU:543:CD:4906, V-B:GLU:543:CD:9880, H-B:GLU:543:OE1:9881, H-B:GLU:543:OE2:9882, V-A:ILE:369:CG2:3234, V-A:GLY:454:CA:4046, V-B:TYR:539:CD1:9845, V-A:SER:385:CA:3404, V-B:TYR:539:CE1:9847, H-A:HIS:456:NE2:4067, H-A:TYR:484:OH:4345, H-A:GLU:543:OE1:4907, V-B:GLU:543:CB:9878, V-A:HIS:456:CE1:4066, H-A:GLU:543:OE2:4908, V-A:ILE:369:CD1:3236, V-A:SER:385:C:3402, V-B:GLU:543:CG:9879, V-A:GLU:543:CG:4905, V-A:GLU:543:C:4900, V-B:HIS:456:CE1:9040, V-A:ILE:369:CG1:3235, V-A:HIS:456:CD2:4065, V-A:GLY:544:C:4910, V-B:HIS:456:CD2:9039, V-B:LYS:547:CE:9922, V-B:GLU:543:C:9874, V-B:GLY:544:CA:9886, H-B:HIS:456:NE2:9041, H-B:LYS:547:NZ:9923"]

$$$$
8b_Ghoteimi_2023
     RDKit          3D

 34 38  0  0  0  0  0  0  0  0999 V2000
  132.2160  116.9410   60.0600 C   0  0  0  0  0  0  0  0  0  0  0  0
  133.2570  117.7880   60.5370 O   0  0  0  0  0  0  0  0  0  0  0  0
  132.9870  119.1230   60.7660 C   0  0  0  0  0  0  0  0  0  0  0  0
  131.6450  119.4750   60.8910 C   0  0  0  0  0  0  0  0  0  0  0  0
  131.2780  120.7970   61.1220 C   0  0  0  0  0  0  0  0  0  0  0  0
  132.2480  121.8050   61.2340 C   0  0  0  0  0  0  0  0  0  0  0  0
  131.8590  123.2280   61.4810 C   0  0  0  0  0  0  0  0  0  0  0  0
  131.7350  123.7440   62.7750 C   0  0  0  0  0  0  0  0  0  0  0  0
  131.3710  125.0790   62.9780 C   0  0  0  0  0  0  0  0  0  0  0  0
  131.2390  125.5920   64.3620 C   0  0  0  0  0  0  0  0  0  0  0  0
  129.9840  125.9290   64.8690 C   0  0  0  0  0  0  0  0  0  0  0  0
  129.8600  126.4020   66.1730 C   0  0  0  0  0  0  0  0  0  0  0  0
  130.9860  126.5460   66.9860 C   0  0  0  0  0  0  0  0  0  0  0  0
  130.7680  127.0200   68.2650 O   0  0  0  0  0  0  0  0  0  0  0  0
  129.5030  127.5870   68.5890 C   0  0  0  0  0  0  0  0  0  0  0  0
  132.2480  126.2100   66.4710 C   0  0  0  0  0  0  0  0  0  0  0  0
  132.3700  125.7370   65.1670 C   0  0  0  0  0  0  0  0  0  0  0  0
  131.1410  125.8910   61.8350 C   0  0  0  0  0  0  0  0  0  0  0  0
  130.7670  127.2720   61.6780 C   0  0  0  0  0  0  0  0  0  0  0  0
  130.5560  128.1020   62.7500 N   0  0  0  0  0  0  0  0  0  0  0  0
  130.6450  127.6790   60.3410 C   0  0  0  0  0  0  0  0  0  0  0  0
  130.2890  129.0010   59.8190 C   0  0  0  0  0  0  0  0  0  0  0  0
  129.2470  129.5570   60.1740 O   0  0  0  0  0  0  0  0  0  0  0  0
  131.1740  129.5380   58.9420 N   0  0  0  0  0  0  0  0  0  0  0  0
  131.0900  130.7670   58.3030 C   0  0  0  0  0  0  0  0  0  0  0  0
  132.0800  131.2500   57.4480 C   0  0  0  0  0  0  0  0  0  0  0  0
  131.6250  132.4810   57.0330 C   0  0  0  0  0  0  0  0  0  0  0  0
  130.4230  132.7250   57.6040 O   0  0  0  0  0  0  0  0  0  0  0  0
  130.0920  131.6310   58.4060 N   0  0  0  0  0  0  0  0  0  0  0  0
  130.9950  126.3490   59.2350 S   0  0  0  0  0  0  0  0  0  0  0  0
  131.3010  125.2600   60.5680 C   0  0  0  0  0  0  0  0  0  0  0  0
  131.6450  123.9880   60.3730 N   0  0  0  0  0  0  0  0  0  0  0  0
  133.5960  121.4440   61.1100 C   0  0  0  0  0  0  0  0  0  0  0  0
  133.9660  120.1220   60.8780 C   0  0  0  0  0  0  0  0  0  0  0  0
  1  2  1  0
  2  3  1  0
  3  4  2  0
  4  5  1  0
  5  6  2  0
  6  7  1  0
  7  8  2  0
  8  9  1  0
  9 10  1  0
 10 11  2  0
 11 12  1  0
 12 13  2  0
 13 14  1  0
 14 15  1  0
 13 16  1  0
 16 17  2  0
  9 18  2  0
 18 19  1  0
 19 20  1  0
 19 21  2  0
 21 22  1  0
 22 23  2  0
 22 24  1  0
 24 25  1  0
 25 26  1  0
 26 27  2  0
 27 28  1  0
 28 29  1  0
 21 30  1  0
 30 31  1  0
 31 32  2  0
  6 33  1  0
 33 34  2  0
 34  3  1  0
 32  7  1  0
 17 10  1  0
 31 18  1  0
 29 25  2  0
M  END
>  <Binding energies>  (65) 
[-6.62]

>  <Ligand effiencies>  (65) 
[-0.17891891891891892]

>  <Interactions>  (65) 
["V-A:LEU:373:CD1:3277, V-A:LEU:475:CD2:4256, V-A:GLU:543:CD:4906, V-B:GLU:543:CD:9880, V-A:SER:385:CB:3406, V-A:ILE:369:CG2:3234, V-B:TYR:539:CD1:9845, V-A:ARG:545:CZ:4924, V-A:SER:385:CA:3404, V-B:TYR:539:CE1:9847, V-A:ASP:366:CG:3210, V-A:PRO:540:CA:4881, V-A:PRO:540:CB:4883, V-A:PRO:540:N:4882, H-A:TYR:539:N:4868, H-A:HIS:456:NE2:4067, V-A:ARG:545:CD:4921, H-A:GLU:543:OE1:4907, V-B:GLU:543:CB:9878, V-A:HIS:456:CE1:4066, H-A:GLU:543:OE2:4908, V-A:ILE:369:CD1:3236, V-A:ARG:545:CG:4920, H-A:ASP:366:OD2:3212, H-A:ASP:366:OD1:3211, V-A:SER:385:C:3402, V-B:GLU:543:CG:9879, V-A:GLU:543:CG:4905, H-A:TYR:531:OH:4793, V-A:PRO:540:CD:4885"]

$$$$
9d_Ghoteimi_2023
     RDKit          3D

 38 43  0  0  0  0  0  0  0  0999 V2000
  134.2790  124.1070   59.7680 C   0  0  0  0  0  0  0  0  0  0  0  0
  133.4730  122.9580   59.9890 O   0  0  0  0  0  0  0  0  0  0  0  0
  133.3200  122.4450   61.2380 C   0  0  0  0  0  0  0  0  0  0  0  0
  133.7630  121.3490   61.5920 O   0  0  0  0  0  0  0  0  0  0  0  0
  132.5580  123.3380   62.1390 C   0  0  0  0  0  0  0  0  0  0  0  0
  132.7640  123.2060   63.8850 S   0  0  0  0  0  0  0  0  0  0  0  0
  131.6370  124.5140   64.1560 C   0  0  0  0  0  0  0  0  0  0  0  0
  131.3610  124.9550   65.3830 N   0  0  0  0  0  0  0  0  0  0  0  0
  130.4840  125.9880   65.4850 C   0  0  0  0  0  0  0  0  0  0  0  0
  130.2100  126.4830   66.8690 C   0  0  0  0  0  0  0  0  0  0  0  0
  128.9930  126.1970   67.4970 C   0  0  0  0  0  0  0  0  0  0  0  0
  128.7270  126.6540   68.7850 C   0  0  0  0  0  0  0  0  0  0  0  0
  129.6750  127.4060   69.4980 C   0  0  0  0  0  0  0  0  0  0  0  0
  129.4150  127.8870   70.7850 N   0  0  0  0  0  0  0  0  0  0  0  0
  128.2660  127.3960   71.5720 C   0  0  0  0  0  0  0  0  0  0  0  0
  127.9310  128.2690   72.8000 C   0  0  0  0  0  0  0  0  0  0  0  0
  129.0800  128.4180   73.6170 O   0  0  0  0  0  0  0  0  0  0  0  0
  130.1390  129.0480   72.9150 C   0  0  0  0  0  0  0  0  0  0  0  0
  130.5420  128.2020   71.6890 C   0  0  0  0  0  0  0  0  0  0  0  0
  130.8870  127.7020   68.8580 C   0  0  0  0  0  0  0  0  0  0  0  0
  131.1520  127.2470   67.5690 C   0  0  0  0  0  0  0  0  0  0  0  0
  129.8630  126.5520   64.3680 C   0  0  0  0  0  0  0  0  0  0  0  0
  130.1340  126.0800   63.0790 C   0  0  0  0  0  0  0  0  0  0  0  0
  129.4250  126.6980   61.9280 C   0  0  0  0  0  0  0  0  0  0  0  0
  128.1230  126.3120   61.6020 C   0  0  0  0  0  0  0  0  0  0  0  0
  127.4560  126.9070   60.5350 C   0  0  0  0  0  0  0  0  0  0  0  0
  128.0680  127.9160   59.7740 C   0  0  0  0  0  0  0  0  0  0  0  0
  127.4240  128.5210   58.6930 N   0  0  0  0  0  0  0  0  0  0  0  0
  128.1760  129.4710   57.8500 C   0  0  0  0  0  0  0  0  0  0  0  0
  127.4920  129.7570   56.4960 C   0  0  0  0  0  0  0  0  0  0  0  0
  126.1630  130.2100   56.7090 O   0  0  0  0  0  0  0  0  0  0  0  0
  125.3840  129.2440   57.4010 C   0  0  0  0  0  0  0  0  0  0  0  0
  126.0150  128.9500   58.7780 C   0  0  0  0  0  0  0  0  0  0  0  0
  129.3760  128.2940   60.1100 C   0  0  0  0  0  0  0  0  0  0  0  0
  130.0430  127.6980   61.1760 C   0  0  0  0  0  0  0  0  0  0  0  0
  131.0820  125.0270   62.9460 C   0  0  0  0  0  0  0  0  0  0  0  0
  131.6440  124.3450   61.8090 C   0  0  0  0  0  0  0  0  0  0  0  0
  131.3280  124.6710   60.5150 N   0  0  0  0  0  0  0  0  0  0  0  0
  1  2  1  0
  2  3  1  0
  3  4  2  0
  3  5  1  0
  5  6  1  0
  6  7  1  0
  7  8  2  0
  8  9  1  0
  9 10  1  0
 10 11  2  0
 11 12  1  0
 12 13  2  0
 13 14  1  0
 14 15  1  0
 15 16  1  0
 16 17  1  0
 17 18  1  0
 18 19  1  0
 13 20  1  0
 20 21  2  0
  9 22  2  0
 22 23  1  0
 23 24  1  0
 24 25  2  0
 25 26  1  0
 26 27  2  0
 27 28  1  0
 28 29  1  0
 29 30  1  0
 30 31  1  0
 31 32  1  0
 32 33  1  0
 27 34  1  0
 34 35  2  0
 23 36  2  0
 36 37  1  0
 37 38  1  0
 37  5  2  0
 36  7  1  0
 21 10  1  0
 35 24  1  0
 19 14  1  0
 33 28  1  0
M  END
>  <Binding energies>  (66) 
[-4.88]

>  <Ligand effiencies>  (66) 
[-0.122]

>  <Interactions>  (66) 
["V-A:LEU:475:CD2:4256, V-A:GLU:543:CD:4906, V-B:GLU:543:CD:9880, V-A:ILE:369:CG2:3234, V-A:GLY:454:CA:4046, V-A:ASP:366:CG:3210, V-A:MET:535:CE:4833, V-B:ASP:366:CG:8184, H-A:TYR:484:OH:4345, V-B:GLU:543:CB:9878, V-A:HIS:456:CE1:4066, V-A:ILE:369:CD1:3236, V-A:ARG:545:CG:4920, V-A:ASP:366:CA:3207, V-A:ILE:369:CB:3233, V-B:ASP:366:CB:8183, V-B:GLU:543:CG:9879, V-A:GLU:543:CG:4905, V-A:GLU:543:C:4900, V-B:HIS:456:CE1:9040, H-A:TYR:539:OH:4876, V-A:ILE:369:CG1:3235, V-B:TYR:531:CZ:9766, H-A:LYS:547:NZ:4949, V-A:LYS:547:CE:4948, V-A:GLY:544:CA:4912, V-B:GLY:544:C:9884, V-A:GLY:544:C:4910, V-B:HIS:456:CD2:9039, V-B:GLU:543:C:9874, V-B:HIS:456:CG:9037"]

$$$$
RR10_Rahimova_2017
     RDKit          3D

 34 38  0  0  0  0  0  0  0  0999 V2000
  132.5310  131.4740   57.0670 C   0  0  0  0  0  0  0  0  0  0  0  0
  131.2020  132.0660   57.5670 C   0  0  1  0  0  0  0  0  0  0  0  0
  130.0360  131.7690   56.5960 C   0  0  0  0  0  0  0  0  0  0  0  0
  128.7200  132.4020   57.1010 C   0  0  0  0  0  0  0  0  0  0  0  0
  128.3390  131.9060   58.5190 C   0  0  1  0  0  0  0  0  0  0  0  0
  127.9690  130.4850   58.4910 N   0  0  0  0  0  0  0  0  0  0  0  0
  126.7120  130.0050   58.4860 C   0  0  0  0  0  0  0  0  0  0  0  0
  125.7160  130.7330   58.4820 O   0  0  0  0  0  0  0  0  0  0  0  0
  126.5540  128.4710   58.5000 C   0  0  1  0  0  0  0  0  0  0  0  0
  127.3790  127.8580   57.3380 C   0  0  0  0  0  0  0  0  0  0  0  0
  127.2980  126.3140   57.4050 C   0  0  0  0  0  0  0  0  0  0  0  0
  127.6690  125.7600   58.8000 C   0  0  0  0  0  0  0  0  0  0  0  0
  126.8820  126.4430   59.8620 N   0  0  0  0  0  0  0  0  0  0  0  0
  127.0020  125.6910   61.4620 S   0  0  0  0  0  0  0  0  0  0  0  0
  125.8540  124.7910   61.6300 O   0  0  0  0  0  0  0  0  0  0  0  0
  127.2580  126.7540   62.4420 O   0  0  0  0  0  0  0  0  0  0  0  0
  128.4620  124.6540   61.3810 C   0  0  0  0  0  0  0  0  0  0  0  0
  129.7270  125.2440   61.4690 C   0  0  0  0  0  0  0  0  0  0  0  0
  130.9040  124.4930   61.4100 C   0  0  0  0  0  0  0  0  0  0  0  0
  130.7560  123.1120   61.2600 C   0  0  0  0  0  0  0  0  0  0  0  0
  131.6400  122.0640   61.1580 N   0  0  0  0  0  0  0  0  0  0  0  0
  130.9090  120.9020   61.0220 C   0  0  0  0  0  0  0  0  0  0  0  0
  131.5290  119.5430   60.8740 C   0  0  0  0  0  0  0  0  0  0  0  0
  130.7650  118.3870   61.0900 C   0  0  0  0  0  0  0  0  0  0  0  0
  131.3380  117.1260   60.9490 C   0  0  0  0  0  0  0  0  0  0  0  0
  132.6790  117.0130   60.5930 C   0  0  0  0  0  0  0  0  0  0  0  0
  133.4510  118.1500   60.3740 C   0  0  0  0  0  0  0  0  0  0  0  0
  132.8770  119.4120   60.5150 C   0  0  0  0  0  0  0  0  0  0  0  0
  129.6140  121.1310   61.0350 N   0  0  0  0  0  0  0  0  0  0  0  0
  129.4880  122.4880   61.1780 C   0  0  0  0  0  0  0  0  0  0  0  0
  128.3240  123.2680   61.2420 C   0  0  0  0  0  0  0  0  0  0  0  0
  127.0430  127.9190   59.8620 C   0  0  0  0  0  0  0  0  0  0  0  0
  129.5240  132.1950   59.4790 C   0  0  0  0  0  0  0  0  0  0  0  0
  130.8410  131.5560   58.9820 C   0  0  0  0  0  0  0  0  0  0  0  0
  2  1  1  6
  2  3  1  0
  3  4  1  0
  4  5  1  0
  5  6  1  6
  6  7  1  0
  7  8  2  0
  9  7  1  1
  9 10  1  0
 10 11  1  0
 11 12  1  0
 12 13  1  0
 13 14  1  0
 14 15  2  0
 14 16  2  0
 14 17  1  0
 17 18  2  0
 18 19  1  0
 19 20  2  0
 20 21  1  0
 21 22  1  0
 22 23  1  0
 23 24  2  0
 24 25  1  0
 25 26  2  0
 26 27  1  0
 27 28  2  0
 22 29  2  0
 29 30  1  0
 30 31  2  0
 13 32  1  0
  5 33  1  0
 33 34  1  0
 34  2  1  0
 32  9  1  0
 31 17  1  0
 30 20  1  0
 28 23  1  0
M  END
>  <Binding energies>  (67) 
[-9.02]

>  <Ligand effiencies>  (67) 
[-0.25055555555555553]

>  <Interactions>  (67) 
["V-A:PRO:482:CG:4324, V-A:LEU:373:CD1:3277, V-A:LEU:475:CD2:4256, V-A:PRO:482:CB:4323, V-A:SER:385:CB:3406, V-A:ILE:369:CG2:3234, V-B:TYR:539:CD1:9845, V-A:SER:385:CA:3404, V-B:ALA:541:CB:9864, V-B:TYR:539:CE1:9847, V-A:TYR:539:CE2:4874, V-A:TYR:539:CZ:4875, V-A:TYR:531:CE2:4791, V-A:MET:535:CE:4833, V-A:TYR:531:CZ:4792, V-A:LEU:363:CD1:3186, V-A:PRO:540:CA:4881, V-A:TYR:539:C:4865, V-A:PRO:540:N:4882, V-A:TYR:539:CE1:4873, V-B:ASP:366:CG:8184, V-A:TYR:539:CD1:4871, H-B:ALA:541:N:9863, V-A:TYR:539:CG:4870, H-A:TYR:539:OH:4876, H-B:ARG:545:NH2:9900, V-A:TYR:539:CD2:4872, V-A:VAL:384:C:3394"]

$$$$
RR12_Rahimova_2017
     RDKit          3D

 26 28  0  0  0  0  0  0  0  0999 V2000
  129.7580  121.1020   73.6740 C   0  0  0  0  0  0  0  0  0  0  0  0
  129.0010  122.3940   74.0110 C   0  0  0  0  0  0  0  0  0  0  0  0
  129.1190  123.4550   72.9020 C   0  0  0  0  0  0  0  0  0  0  0  0
  129.8520  124.6250   73.3800 N   0  0  0  0  0  0  0  0  0  0  0  0
  129.5010  125.9580   73.2340 C   0  0  0  0  0  0  0  0  0  0  0  0
  128.2700  126.4330   72.4820 C   0  0  0  0  0  0  0  0  0  0  0  0
  128.5220  127.7410   71.7090 C   0  0  0  0  0  0  0  0  0  0  0  0
  129.8390  127.7150   70.9110 C   0  0  0  0  0  0  0  0  0  0  0  0
  129.7220  127.0840   69.5970 N   0  0  0  0  0  0  0  0  0  0  0  0
  129.4200  127.7280   68.4550 C   0  0  0  0  0  0  0  0  0  0  0  0
  129.2040  128.9410   68.4000 O   0  0  0  0  0  0  0  0  0  0  0  0
  129.3620  126.8550   67.1950 C   0  0  0  0  0  0  0  0  0  0  0  0
  130.2350  125.7360   67.3510 O   0  0  0  0  0  0  0  0  0  0  0  0
  131.1090  125.4120   66.3300 C   0  0  0  0  0  0  0  0  0  0  0  0
  130.6030  124.5960   65.3160 C   0  0  0  0  0  0  0  0  0  0  0  0
  131.4080  124.2190   64.2440 C   0  0  0  0  0  0  0  0  0  0  0  0
  132.7260  124.6620   64.1830 C   0  0  0  0  0  0  0  0  0  0  0  0
  133.2480  125.4740   65.1870 C   0  0  0  0  0  0  0  0  0  0  0  0
  132.4420  125.8500   66.2590 C   0  0  0  0  0  0  0  0  0  0  0  0
  130.3500  126.7830   73.7960 N   0  0  0  0  0  0  0  0  0  0  0  0
  131.2970  125.9780   74.3650 C   0  0  0  0  0  0  0  0  0  0  0  0
  132.4320  126.3390   75.1070 C   0  0  0  0  0  0  0  0  0  0  0  0
  133.2500  125.3190   75.5940 C   0  0  0  0  0  0  0  0  0  0  0  0
  132.9550  123.9770   75.3540 C   0  0  0  0  0  0  0  0  0  0  0  0
  131.8350  123.5860   74.6190 C   0  0  0  0  0  0  0  0  0  0  0  0
  131.0140  124.6090   74.1300 C   0  0  0  0  0  0  0  0  0  0  0  0
  1  2  1  0
  2  3  1  0
  3  4  1  0
  4  5  1  0
  5  6  1  0
  6  7  1  0
  7  8  1  0
  8  9  1  0
  9 10  1  0
 10 11  2  0
 10 12  1  0
 12 13  1  0
 13 14  1  0
 14 15  2  0
 15 16  1  0
 16 17  2  0
 17 18  1  0
 18 19  2  0
  5 20  2  0
 20 21  1  0
 21 22  2  0
 22 23  1  0
 23 24  2  0
 24 25  1  0
 25 26  2  0
 26  4  1  0
 19 14  1  0
 26 21  1  0
M  END
>  <Binding energies>  (68) 
[-6.43]

>  <Ligand effiencies>  (68) 
[-0.23814814814814814]

>  <Interactions>  (68) 
["V-A:GLU:543:CD:4906, V-B:GLU:543:CD:9880, V-A:ARG:545:CZ:4924, H-B:GLU:543:O:9875, H-A:HIS:456:NE2:4067, V-A:ARG:545:CD:4921, V-B:GLU:543:CB:9878, V-A:HIS:456:CE1:4066, V-A:ARG:545:CG:4920, V-A:TYR:484:CZ:4344, V-B:GLU:543:CG:9879, V-A:GLU:543:CG:4905, V-A:GLU:543:C:4900, V-B:HIS:456:CE1:9040, H-A:LYS:547:NZ:4949, V-A:LYS:547:CE:4948, V-A:HIS:456:CD2:4065, V-B:GLY:544:C:9884, V-B:HIS:456:CD2:9039, V-B:LYS:547:CE:9922, V-B:GLU:543:C:9874, V-B:GLY:544:CA:9886, V-A:HIS:456:CG:4063, H-B:HIS:456:NE2:9041, H-A:HIS:456:ND1:4064, V-A:TYR:484:CB:4338, H-B:LYS:547:NZ:9923, V-A:HIS:456:CB:4062, V-A:LYS:547:CD:4947, V-A:VAL:458:CG2:4084, V-A:LYS:471:CD:4216"]

$$$$
RR13_Rahimova_2017
     RDKit          3D

 48 54  0  0  0  0  0  0  0  0999 V2000
  133.5870  125.1360   62.0660 Cl  0  0  0  0  0  0  0  0  0  0  0  0
  132.4420  123.8390   62.1200 C   0  0  0  0  0  0  0  0  0  0  0  0
  132.7030  122.7080   61.3440 C   0  0  0  0  0  0  0  0  0  0  0  0
  131.8100  121.6400   61.3280 C   0  0  0  0  0  0  0  0  0  0  0  0
  130.6450  121.6980   62.0890 C   0  0  0  0  0  0  0  0  0  0  0  0
  130.3770  122.8230   62.8660 C   0  0  0  0  0  0  0  0  0  0  0  0
  131.2720  123.9050   62.9040 C   0  0  0  0  0  0  0  0  0  0  0  0
  130.9400  125.1520   63.7540 C   0  0  1  0  0  0  0  0  0  0  0  0
  131.9890  125.3640   64.8560 C   0  0  0  0  0  0  0  0  0  0  0  0
  133.2700  125.0790   64.7860 N   0  0  0  0  0  0  0  0  0  0  0  0
  133.8050  125.4170   66.0250 N   0  0  0  0  0  0  0  0  0  0  0  0
  132.8110  125.8970   66.8550 N   0  0  0  0  0  0  0  0  0  0  0  0
  131.6950  125.8310   66.1200 N   0  0  0  0  0  0  0  0  0  0  0  0
  130.4250  126.2990   66.6620 C   0  0  0  0  0  0  0  0  0  0  0  0
  130.6610  127.4560   67.6510 C   0  0  0  0  0  0  0  0  0  0  0  0
  129.7600  127.3600   68.8720 C   0  0  0  0  0  0  0  0  0  0  0  0
  128.4060  127.0530   68.7180 C   0  0  0  0  0  0  0  0  0  0  0  0
  127.5800  126.9730   69.8360 C   0  0  0  0  0  0  0  0  0  0  0  0
  128.1120  127.2000   71.1050 C   0  0  0  0  0  0  0  0  0  0  0  0
  129.4600  127.5080   71.2640 C   0  0  0  0  0  0  0  0  0  0  0  0
  130.2870  127.5890   70.1460 C   0  0  0  0  0  0  0  0  0  0  0  0
  130.7140  126.3740   62.9460 N   0  0  0  0  0  0  0  0  0  0  0  0
  129.4310  127.0040   63.3080 C   0  0  0  0  0  0  0  0  0  0  0  0
  129.2510  128.3490   62.5660 C   0  0  0  0  0  0  0  0  0  0  0  0
  129.2410  128.1410   61.1090 N   0  0  0  0  0  0  0  0  0  0  0  0
  128.9890  129.3940   60.3590 C   0  0  1  0  0  0  0  0  0  0  0  0
  130.2260  130.0260   59.6840 C   0  0  0  0  0  0  0  0  0  0  0  0
  130.5410  129.5900   58.3890 C   0  0  0  0  0  0  0  0  0  0  0  0
  131.6300  130.1180   57.6960 C   0  0  0  0  0  0  0  0  0  0  0  0
  132.4270  131.0910   58.2930 C   0  0  0  0  0  0  0  0  0  0  0  0
  132.1410  131.5250   59.5840 C   0  0  0  0  0  0  0  0  0  0  0  0
  131.0540  131.0000   60.2890 C   0  0  0  0  0  0  0  0  0  0  0  0
  130.8230  131.5550   61.9130 Cl  0  0  0  0  0  0  0  0  0  0  0  0
  127.8450  129.2710   59.3510 C   0  0  0  0  0  0  0  0  0  0  0  0
  127.6470  130.0630   58.3220 N   0  0  0  0  0  0  0  0  0  0  0  0
  126.5150  129.5760   57.6770 N   0  0  0  0  0  0  0  0  0  0  0  0
  126.0410  128.4590   58.3320 N   0  0  0  0  0  0  0  0  0  0  0  0
  126.8900  128.2760   59.3500 N   0  0  0  0  0  0  0  0  0  0  0  0
  126.6820  127.1760   60.2860 C   0  0  0  0  0  0  0  0  0  0  0  0
  127.5640  125.9730   59.9050 C   0  0  0  0  0  0  0  0  0  0  0  0
  126.9660  125.1610   58.7670 C   0  0  0  0  0  0  0  0  0  0  0  0
  127.3630  125.4090   57.4500 C   0  0  0  0  0  0  0  0  0  0  0  0
  126.8210  124.6600   56.4080 C   0  0  0  0  0  0  0  0  0  0  0  0
  125.8840  123.6670   56.6870 C   0  0  0  0  0  0  0  0  0  0  0  0
  125.4850  123.4150   57.9990 C   0  0  0  0  0  0  0  0  0  0  0  0
  126.0270  124.1620   59.0410 C   0  0  0  0  0  0  0  0  0  0  0  0
  130.5270  127.5160   60.7510 C   0  0  0  0  0  0  0  0  0  0  0  0
  130.6970  126.1670   61.4870 C   0  0  0  0  0  0  0  0  0  0  0  0
  1  2  1  0
  2  3  2  0
  3  4  1  0
  4  5  2  0
  5  6  1  0
  6  7  2  0
  7  8  1  0
  8  9  1  0
  9 10  2  0
 10 11  1  0
 11 12  2  0
 12 13  1  0
 13 14  1  0
 14 15  1  0
 15 16  1  0
 16 17  2  0
 17 18  1  0
 18 19  2  0
 19 20  1  0
 20 21  2  0
  8 22  1  6
 22 23  1  0
 23 24  1  0
 24 25  1  0
 26 25  1  6
 26 27  1  0
 27 28  2  0
 28 29  1  0
 29 30  2  0
 30 31  1  0
 31 32  2  0
 32 33  1  0
 26 34  1  0
 34 35  2  0
 35 36  1  0
 36 37  2  0
 37 38  1  0
 38 39  1  0
 39 40  1  0
 40 41  1  0
 41 42  2  0
 42 43  1  0
 43 44  2  0
 44 45  1  0
 45 46  2  0
 25 47  1  0
 47 48  1  0
  7  2  1  0
 13  9  1  0
 21 16  1  0
 48 22  1  0
 32 27  1  0
 38 34  1  0
 46 41  1  0
M  END
>  <Binding energies>  (69) 
[-11.16]

>  <Ligand effiencies>  (69) 
[-0.2325]

>  <Interactions>  (69) 
["V-B:PRO:540:CA:9855, V-B:PRO:540:N:9856, V-A:LEU:475:CD2:4256, V-A:GLU:543:CD:4906, V-B:GLU:543:CD:9880, V-B:TYR:539:CD1:9845, V-A:ARG:545:CZ:4924, H-A:GLY:454:N:4047, V-B:ALA:541:CB:9864, V-B:TYR:539:CE1:9847, V-A:ASP:366:CG:3210, V-B:MET:535:CE:9807, V-A:PRO:540:CA:4881, V-A:PRO:540:CB:4883, H-A:ARG:545:NH2:4926, V-B:ASP:366:CG:8184, H-A:TYR:484:OH:4345, V-B:GLU:543:CB:9878, V-A:HIS:456:CE1:4066, H-A:ARG:545:NE:4922, V-B:PRO:540:CB:9857, V-B:GLU:543:CG:9879, V-A:GLU:543:CG:4905, V-A:GLU:543:C:4900, V-B:HIS:456:CE1:9040, H-B:TYR:531:OH:9767, V-B:GLY:544:C:9884, V-A:GLY:544:C:4910, V-B:HIS:456:CD2:9039, V-B:GLU:543:C:9874, V-B:GLY:544:CA:9886"]

$$$$
RR14_Rahimova_2017
     RDKit          3D

 39 43  0  0  0  0  0  0  0  0999 V2000
  131.2160  117.2350   60.1410 C   0  0  0  0  0  0  0  0  0  0  0  0
  130.7790  118.2320   61.0580 O   0  0  0  0  0  0  0  0  0  0  0  0
  131.3870  119.4730   61.0430 C   0  0  0  0  0  0  0  0  0  0  0  0
  130.5570  120.5750   61.2500 C   0  0  0  0  0  0  0  0  0  0  0  0
  131.0750  121.8660   61.2270 C   0  0  0  0  0  0  0  0  0  0  0  0
  132.4360  122.0680   60.9910 C   0  0  0  0  0  0  0  0  0  0  0  0
  132.9960  123.4820   60.9000 C   0  0  0  0  0  0  0  0  0  0  0  0
  132.9000  124.2240   62.1570 N   0  0  0  0  0  0  0  0  0  0  0  0
  133.9750  124.3700   62.9400 N   0  0  0  0  0  0  0  0  0  0  0  0
  133.5190  125.0820   64.0330 N   0  0  0  0  0  0  0  0  0  0  0  0
  132.1620  125.3520   63.8950 N   0  0  0  0  0  0  0  0  0  0  0  0
  131.8060  124.8150   62.7520 C   0  0  0  0  0  0  0  0  0  0  0  0
  130.3960  124.8300   62.1770 C   0  0  0  0  0  0  0  0  0  0  0  0
  130.3550  125.3550   60.8020 N   0  0  0  0  0  0  0  0  0  0  0  0
  129.0050  125.7940   60.4220 C   0  0  0  0  0  0  0  0  0  0  0  0
  127.8920  124.8420   60.9110 C   0  0  0  0  0  0  0  0  0  0  0  0
  126.6670  124.7890   59.9730 C   0  0  0  0  0  0  0  0  0  0  0  0
  126.6840  123.6420   59.0600 N   0  0  0  0  0  0  0  0  0  0  0  0
  128.0360  123.4380   58.5230 C   0  0  0  0  0  0  0  0  0  0  0  0
  128.0780  122.2680   57.5170 C   0  0  0  0  0  0  0  0  0  0  0  0
  127.1140  122.4710   56.4890 O   0  0  0  0  0  0  0  0  0  0  0  0
  125.7890  122.5560   57.0020 C   0  0  0  0  0  0  0  0  0  0  0  0
  125.6770  123.7350   57.9920 C   0  0  0  0  0  0  0  0  0  0  0  0
  131.3160  126.4580   60.6530 C   0  0  0  0  0  0  0  0  0  0  0  0
  130.7320  127.8680   60.7070 C   0  0  0  0  0  0  0  0  0  0  0  0
  130.7230  128.6640   59.6110 C   0  0  0  0  0  0  0  0  0  0  0  0
  130.2020  130.0460   59.6470 C   0  0  0  0  0  0  0  0  0  0  0  0
  130.1590  130.8910   58.5250 C   0  0  0  0  0  0  0  0  0  0  0  0
  130.6580  130.4340   57.1610 C   0  0  0  0  0  0  0  0  0  0  0  0
  129.6430  132.1820   58.6660 C   0  0  0  0  0  0  0  0  0  0  0  0
  129.1750  132.6310   59.9000 C   0  0  0  0  0  0  0  0  0  0  0  0
  129.2110  131.7960   61.0210 C   0  0  0  0  0  0  0  0  0  0  0  0
  128.6900  132.3150   62.3560 C   0  0  0  0  0  0  0  0  0  0  0  0
  129.7270  130.4980   60.8910 C   0  0  0  0  0  0  0  0  0  0  0  0
  129.7870  129.6220   61.9950 N   0  0  0  0  0  0  0  0  0  0  0  0
  130.2560  128.3490   62.0080 C   0  0  0  0  0  0  0  0  0  0  0  0
  130.2630  127.6980   63.0530 O   0  0  0  0  0  0  0  0  0  0  0  0
  133.2810  120.9700   60.8120 C   0  0  0  0  0  0  0  0  0  0  0  0
  132.7610  119.6790   60.8330 C   0  0  0  0  0  0  0  0  0  0  0  0
  1  2  1  0
  2  3  1  0
  3  4  2  0
  4  5  1  0
  5  6  2  0
  6  7  1  0
  7  8  1  0
  8  9  1  0
  9 10  2  0
 10 11  1  0
 11 12  2  0
 12 13  1  0
 13 14  1  0
 14 15  1  0
 15 16  1  0
 16 17  1  0
 17 18  1  0
 18 19  1  0
 19 20  1  0
 20 21  1  0
 21 22  1  0
 22 23  1  0
 14 24  1  0
 24 25  1  0
 25 26  2  0
 26 27  1  0
 27 28  2  0
 28 29  1  0
 28 30  1  0
 30 31  2  0
 31 32  1  0
 32 33  1  0
 32 34  2  0
 34 35  1  0
 35 36  1  0
 36 37  2  0
  6 38  1  0
 38 39  2  0
 39  3  1  0
 12  8  1  0
 23 18  1  0
 36 25  1  0
 34 27  1  0
M  END
>  <Binding energies>  (70) 
[-9.69]

>  <Ligand effiencies>  (70) 
[-0.24225]

>  <Interactions>  (70) 
["V-A:PRO:482:CG:4324, V-A:LEU:373:CD1:3277, V-B:PRO:540:CA:9855, V-B:PRO:540:N:9856, V-A:LEU:475:CD2:4256, V-A:GLU:543:CD:4906, V-A:ILE:369:CG2:3234, V-B:TYR:539:CB:9843, V-B:TYR:539:CD1:9845, V-A:SER:385:CA:3404, H-A:GLY:454:N:4047, V-B:ALA:541:CB:9864, V-B:TYR:539:CE1:9847, V-B:TYR:539:C:9839, V-A:ASP:366:CG:3210, V-A:MET:535:CE:4833, V-A:PRO:540:CA:4881, V-A:TYR:539:C:4865, V-A:PRO:540:N:4882, V-A:TYR:539:CE1:4873, H-A:ARG:545:NH2:4926, V-A:TYR:539:CD1:4871, H-A:TYR:484:OH:4345, H-A:GLU:543:OE1:4907, H-A:GLU:543:OE2:4908, V-A:ALA:541:CB:4890, H-A:ARG:545:NE:4922, V-B:PRO:540:CB:9857, V-B:PRO:540:CD:9859, H-B:TYR:539:N:9842, V-B:TYR:539:CG:9844, V-B:TYR:539:CA:9841, V-B:TYR:539:CD2:9846, V-B:ILE:538:CB:9834"]

$$$$
RR15_Rahimova_2017
     RDKit          3D

 45 49  0  0  0  0  0  0  0  0999 V2000
  126.7250  128.4470   74.9870 C   0  0  0  0  0  0  0  0  0  0  0  0
  127.9110  127.7040   74.7230 O   0  0  0  0  0  0  0  0  0  0  0  0
  128.3940  127.6300   73.4280 C   0  0  0  0  0  0  0  0  0  0  0  0
  127.5940  127.8050   72.2880 C   0  0  0  0  0  0  0  0  0  0  0  0
  128.1440  127.7150   71.0120 C   0  0  0  0  0  0  0  0  0  0  0  0
  129.5060  127.4460   70.8370 C   0  0  0  0  0  0  0  0  0  0  0  0
  130.0980  127.3430   69.4580 C   0  0  0  0  0  0  0  0  0  0  0  0
  131.1220  128.0840   69.0560 N   0  0  0  0  0  0  0  0  0  0  0  0
  131.3710  127.7150   67.7500 N   0  0  0  0  0  0  0  0  0  0  0  0
  130.4810  126.7480   67.5220 N   0  0  0  0  0  0  0  0  0  0  0  0
  130.2820  126.1770   66.1910 C   0  0  0  0  0  0  0  0  0  0  0  0
  131.5770  125.6840   65.4970 C   0  0  0  0  0  0  0  0  0  0  0  0
  132.6610  126.0050   65.9900 O   0  0  0  0  0  0  0  0  0  0  0  0
  131.4890  124.8900   64.3860 N   0  0  0  0  0  0  0  0  0  0  0  0
  132.5710  123.9520   64.0260 C   0  0  0  0  0  0  0  0  0  0  0  0
  133.2680  124.2950   62.6920 C   0  0  0  0  0  0  0  0  0  0  0  0
  133.5410  123.0820   61.7710 C   0  0  0  0  0  0  0  0  0  0  0  0
  133.2370  123.3330   60.3590 N   0  0  0  0  0  0  0  0  0  0  0  0
  131.9610  124.0340   60.1470 C   0  0  0  0  0  0  0  0  0  0  0  0
  131.7310  124.3490   58.6540 C   0  0  0  0  0  0  0  0  0  0  0  0
  132.8370  125.0740   58.1280 O   0  0  0  0  0  0  0  0  0  0  0  0
  134.0590  124.3530   58.2380 C   0  0  0  0  0  0  0  0  0  0  0  0
  134.3550  124.0410   59.7210 C   0  0  0  0  0  0  0  0  0  0  0  0
  130.2450  124.7550   63.5670 C   0  0  2  0  0  0  0  0  0  0  0  0
  130.0960  123.3730   62.8580 C   0  0  0  0  0  0  0  0  0  0  0  0
  130.4690  122.3350   63.4050 O   0  0  0  0  0  0  0  0  0  0  0  0
  129.5050  123.3990   61.6500 N   0  0  0  0  0  0  0  0  0  0  0  0
  129.1680  122.2270   60.8500 C   0  0  0  0  0  0  0  0  0  0  0  0
  127.9900  122.5200   59.9030 C   0  0  2  0  0  0  0  0  0  0  0  0
  128.3440  122.5790   58.4070 C   0  0  0  0  0  0  0  0  0  0  0  0
  128.4110  124.0540   58.0910 C   0  0  0  0  0  0  0  0  0  0  0  0
  127.3460  124.6080   59.0220 C   0  0  0  0  0  0  0  0  0  0  0  0
  127.5530  123.8510   60.2100 O   0  0  0  0  0  0  0  0  0  0  0  0
  130.0180  126.0040   62.7240 C   0  0  0  0  0  0  0  0  0  0  0  0
  131.0730  126.4620   61.9250 C   0  0  0  0  0  0  0  0  0  0  0  0
  130.9240  127.5970   61.1350 C   0  0  0  0  0  0  0  0  0  0  0  0
  129.7140  128.2860   61.1360 C   0  0  0  0  0  0  0  0  0  0  0  0
  129.5680  129.3890   60.3680 F   0  0  0  0  0  0  0  0  0  0  0  0
  128.6530  127.8450   61.9230 C   0  0  0  0  0  0  0  0  0  0  0  0
  128.8040  126.7100   62.7140 C   0  0  0  0  0  0  0  0  0  0  0  0
  129.6440  126.5110   68.5390 N   0  0  0  0  0  0  0  0  0  0  0  0
  130.3020  127.2750   71.9760 C   0  0  0  0  0  0  0  0  0  0  0  0
  129.7630  127.3660   73.2710 C   0  0  0  0  0  0  0  0  0  0  0  0
  130.5090  127.2080   74.4260 O   0  0  0  0  0  0  0  0  0  0  0  0
  131.7490  126.5110   74.3720 C   0  0  0  0  0  0  0  0  0  0  0  0
  1  2  1  0
  2  3  1  0
  3  4  2  0
  4  5  1  0
  5  6  2  0
  6  7  1  0
  7  8  1  0
  8  9  2  0
  9 10  1  0
 10 11  1  0
 11 12  1  0
 12 13  2  0
 12 14  1  0
 14 15  1  0
 15 16  1  0
 16 17  1  0
 17 18  1  0
 18 19  1  0
 19 20  1  0
 20 21  1  0
 21 22  1  0
 22 23  1  0
 24 14  1  6
 24 25  1  0
 25 26  2  0
 25 27  1  0
 27 28  1  0
 29 28  1  1
 29 30  1  0
 30 31  1  0
 31 32  1  0
 32 33  1  0
 24 34  1  0
 34 35  2  0
 35 36  1  0
 36 37  2  0
 37 38  1  0
 37 39  1  0
 39 40  2  0
 10 41  1  0
  6 42  1  0
 42 43  2  0
 43 44  1  0
 44 45  1  0
 43  3  1  0
 41  7  2  0
 23 18  1  0
 33 29  1  0
 40 34  1  0
M  END
>  <Binding energies>  (71) 
[-8.45]

>  <Ligand effiencies>  (71) 
[-0.18369565217391304]

>  <Interactions>  (71) 
["V-B:PRO:540:CA:9855, V-B:PRO:540:N:9856, V-A:GLU:543:CD:4906, V-B:GLU:543:CD:9880, H-B:GLU:543:OE1:9881, V-A:ILE:369:CG2:3234, V-A:GLY:454:CA:4046, V-B:TYR:539:CD1:9845, V-B:ALA:541:CB:9864, V-B:TYR:539:CE1:9847, V-B:TYR:539:C:9839, V-A:ASP:366:CG:3210, V-A:ASP:366:CB:3209, V-B:TYR:539:CZ:9849, H-A:HIS:456:NE2:4067, H-A:TYR:484:OH:4345, V-B:GLU:543:CB:9878, V-A:HIS:456:CE1:4066, V-A:ASP:366:C:3205, V-A:ILE:369:CD1:3236, V-A:ASP:366:CA:3207, V-A:ILE:369:CB:3233, V-B:PRO:540:C:9853, H-A:ARG:545:NE:4922, H-B:TYR:539:OH:9850, V-B:GLU:543:CG:9879, V-A:GLU:543:CG:4905, V-B:HIS:456:CE1:9040, V-A:ILE:369:CG1:3235, V-B:TYR:539:CG:9844, H-A:LYS:547:NZ:4949, V-A:LYS:547:CE:4948, V-A:HIS:456:CD2:4065, V-B:GLY:544:C:9884, V-A:GLY:544:C:4910, V-B:HIS:456:CD2:9039, V-B:LYS:547:CE:9922, V-B:HIS:456:CG:9037, H-A:ARG:545:N:4918, H-B:LYS:547:NZ:9923, V-B:HIS:456:CB:9036"]

$$$$
RR17_Rahimova_2017
     RDKit          3D

 38 41  0  0  0  0  0  0  0  0999 V2000
  132.3840  126.5290   74.7370 C   0  0  0  0  0  0  0  0  0  0  0  0
  131.0670  125.7790   74.5160 C   0  0  0  0  0  0  0  0  0  0  0  0
  130.0800  126.7070   74.0750 O   0  0  0  0  0  0  0  0  0  0  0  0
  129.9150  126.9290   72.7210 C   0  0  0  0  0  0  0  0  0  0  0  0
  131.0370  127.3710   72.0210 C   0  0  0  0  0  0  0  0  0  0  0  0
  130.9670  127.6230   70.6550 C   0  0  0  0  0  0  0  0  0  0  0  0
  129.7660  127.4380   69.9560 C   0  0  0  0  0  0  0  0  0  0  0  0
  129.7210  127.7170   68.4820 C   0  0  0  0  0  0  0  0  0  0  0  0
  128.8210  128.3830   67.9620 O   0  0  0  0  0  0  0  0  0  0  0  0
  130.8530  127.1150   67.6190 C   0  0  0  0  0  0  0  0  0  0  0  0
  130.2280  125.8770   66.4280 S   0  0  0  0  0  0  0  0  0  0  0  0
  131.7080  125.5680   65.5050 C   0  0  0  0  0  0  0  0  0  0  0  0
  132.9270  125.8300   65.9140 N   0  0  0  0  0  0  0  0  0  0  0  0
  133.8060  125.4370   64.9120 N   0  0  0  0  0  0  0  0  0  0  0  0
  133.0830  124.9480   63.9360 C   0  0  0  0  0  0  0  0  0  0  0  0
  133.6500  124.3880   62.6390 C   0  0  0  0  0  0  0  0  0  0  0  0
  132.6630  123.6930   61.8170 N   0  0  0  0  0  0  0  0  0  0  0  0
  132.7430  122.3270   61.4880 C   0  0  0  0  0  0  0  0  0  0  0  0
  131.5480  121.6590   61.2230 C   0  0  0  0  0  0  0  0  0  0  0  0
  131.5550  120.3060   60.8970 C   0  0  0  0  0  0  0  0  0  0  0  0
  132.7620  119.6040   60.8290 C   0  0  0  0  0  0  0  0  0  0  0  0
  132.7510  118.1170   60.4760 C   0  0  0  0  0  0  0  0  0  0  0  0
  131.8080  117.8170   59.5800 F   0  0  0  0  0  0  0  0  0  0  0  0
  133.9300  117.7510   59.9700 F   0  0  0  0  0  0  0  0  0  0  0  0
  132.5210  117.4080   61.5800 F   0  0  0  0  0  0  0  0  0  0  0  0
  133.9620  120.2740   61.0860 C   0  0  0  0  0  0  0  0  0  0  0  0
  133.9550  121.6270   61.4110 C   0  0  0  0  0  0  0  0  0  0  0  0
  131.7400  125.0120   64.2420 N   0  0  0  0  0  0  0  0  0  0  0  0
  130.6580  124.5800   63.4610 C   0  0  0  0  0  0  0  0  0  0  0  0
  130.0160  125.4840   62.6150 C   0  0  0  0  0  0  0  0  0  0  0  0
  128.9400  125.0560   61.8430 C   0  0  0  0  0  0  0  0  0  0  0  0
  128.5040  123.7220   61.9140 C   0  0  0  0  0  0  0  0  0  0  0  0
  127.4480  123.2100   61.1860 O   0  0  0  0  0  0  0  0  0  0  0  0
  126.3060  124.0270   60.9470 C   0  0  0  0  0  0  0  0  0  0  0  0
  129.1570  122.8320   62.7680 C   0  0  0  0  0  0  0  0  0  0  0  0
  130.2340  123.2530   63.5430 C   0  0  0  0  0  0  0  0  0  0  0  0
  128.6370  126.9930   70.6600 C   0  0  0  0  0  0  0  0  0  0  0  0
  128.7100  126.7410   72.0280 C   0  0  0  0  0  0  0  0  0  0  0  0
  1  2  1  0
  2  3  1  0
  3  4  1  0
  4  5  2  0
  5  6  1  0
  6  7  2  0
  7  8  1  0
  8  9  2  0
  8 10  1  0
 10 11  1  0
 11 12  1  0
 12 13  2  0
 13 14  1  0
 14 15  2  0
 15 16  1  0
 16 17  1  0
 17 18  1  0
 18 19  2  0
 19 20  1  0
 20 21  2  0
 21 22  1  0
 22 23  1  0
 22 24  1  0
 22 25  1  0
 21 26  1  0
 26 27  2  0
 15 28  1  0
 28 29  1  0
 29 30  2  0
 30 31  1  0
 31 32  2  0
 32 33  1  0
 33 34  1  0
 32 35  1  0
 35 36  2  0
  7 37  1  0
 37 38  2  0
 38  4  1  0
 28 12  1  0
 36 29  1  0
 27 18  1  0
M  END
>  <Binding energies>  (72) 
[-8.76]

>  <Ligand effiencies>  (72) 
[-0.2246153846153846]

>  <Interactions>  (72) 
["V-A:LEU:373:CD1:3277, V-B:PRO:540:CA:9855, V-A:LEU:475:CD2:4256, V-A:GLU:543:CD:4906, V-B:GLU:543:CD:9880, V-A:SER:385:CB:3406, V-A:ILE:369:CG2:3234, V-B:TYR:539:CB:9843, V-A:GLY:454:CA:4046, V-B:TYR:539:CD1:9845, V-A:ARG:545:CZ:4924, V-A:SER:385:CA:3404, H-A:GLY:454:N:4047, V-B:ALA:541:CB:9864, V-B:TYR:539:CE1:9847, H-A:ARG:545:NH2:4926, V-A:GLY:453:C:4039, V-A:GLY:453:CA:4041, H-A:TYR:484:OH:4345, V-A:HIS:456:CE1:4066, V-A:ILE:369:CD1:3236, V-A:ARG:545:CG:4920, H-B:ALA:541:N:9863, V-A:SER:385:C:3402, H-A:ARG:545:NE:4922, H-A:ARG:545:NH1:4925, V-A:GLU:543:CG:4905, V-A:GLU:543:C:4900, V-B:HIS:456:CE1:9040, V-B:TYR:539:CG:9844, V-A:VAL:384:C:3394, V-A:LEU:475:CG:4254, H-A:LYS:547:NZ:4949, V-A:LYS:547:CE:4948, V-A:GLY:544:CA:4912, V-A:HIS:456:CD2:4065, V-B:GLY:544:C:9884, V-A:GLY:544:C:4910, V-B:GLU:543:C:9874, V-B:GLY:544:CA:9886, V-A:HIS:456:CG:4063, H-B:HIS:456:NE2:9041, H-B:LYS:547:NZ:9923, V-A:LYS:547:CD:4947, V-A:LEU:373:CG:3276"]

$$$$
RR19_Rahimova_2017
     RDKit          3D

 46 51  0  0  0  0  0  0  0  0999 V2000
  126.9500  127.7960   60.5890 O   0  0  0  0  0  0  0  0  0  0  0  0
  128.1440  127.6110   60.8390 C   0  0  0  0  0  0  0  0  0  0  0  0
  128.8170  126.4410   60.6960 N   0  0  0  0  0  0  0  0  0  0  0  0
  128.5090  125.2550   60.0770 C   0  0  0  0  0  0  0  0  0  0  0  0
  127.1920  124.9930   59.0460 S   0  0  0  0  0  0  0  0  0  0  0  0
  129.4480  124.3180   60.4310 N   0  0  0  0  0  0  0  0  0  0  0  0
  129.6980  123.0530   60.0070 C   0  0  0  0  0  0  0  0  0  0  0  0
  129.2060  122.5020   59.0200 O   0  0  0  0  0  0  0  0  0  0  0  0
  130.6900  122.2730   60.9060 C   0  0  2  0  0  0  0  0  0  0  0  0
  130.2440  120.8280   61.2710 C   0  0  0  0  0  0  0  0  0  0  0  0
  131.2420  119.7350   60.9250 C   0  0  0  0  0  0  0  0  0  0  0  0
  132.6120  120.0310   60.7590 C   0  0  0  0  0  0  0  0  0  0  0  0
  133.5200  119.0090   60.5210 C   0  0  0  0  0  0  0  0  0  0  0  0
  133.0900  117.6880   60.4630 C   0  0  0  0  0  0  0  0  0  0  0  0
  131.7490  117.3790   60.6540 C   0  0  0  0  0  0  0  0  0  0  0  0
  130.8250  118.3870   60.8960 C   0  0  0  0  0  0  0  0  0  0  0  0
  131.0510  123.0570   62.1190 N   0  0  0  0  0  0  0  0  0  0  0  0
  132.2480  123.7030   62.2160 C   0  0  0  0  0  0  0  0  0  0  0  0
  133.1600  123.7130   61.3880 O   0  0  0  0  0  0  0  0  0  0  0  0
  132.2180  124.3970   63.5270 C   0  0  0  0  0  0  0  0  0  0  0  0
  133.1680  125.2020   64.1570 C   0  0  0  0  0  0  0  0  0  0  0  0
  132.8630  125.7400   65.4130 C   0  0  0  0  0  0  0  0  0  0  0  0
  131.6270  125.4720   66.0150 C   0  0  0  0  0  0  0  0  0  0  0  0
  130.6870  124.6620   65.3660 C   0  0  0  0  0  0  0  0  0  0  0  0
  131.0110  124.1340   64.1160 C   0  0  0  0  0  0  0  0  0  0  0  0
  130.2350  123.2660   63.1960 C   0  0  0  0  0  0  0  0  0  0  0  0
  129.0930  122.8360   63.3660 O   0  0  0  0  0  0  0  0  0  0  0  0
  129.0030  128.7840   61.3840 C   0  0  2  0  0  0  0  0  0  0  0  0
  128.2800  129.6500   62.4560 C   0  0  0  0  0  0  0  0  0  0  0  0
  127.8640  131.0230   61.9610 C   0  0  0  0  0  0  0  0  0  0  0  0
  126.5170  131.2740   61.6190 C   0  0  0  0  0  0  0  0  0  0  0  0
  126.1190  132.5570   61.2640 C   0  0  0  0  0  0  0  0  0  0  0  0
  127.0340  133.6010   61.2700 C   0  0  0  0  0  0  0  0  0  0  0  0
  128.3530  133.3770   61.6420 C   0  0  0  0  0  0  0  0  0  0  0  0
  128.7720  132.1020   61.9990 C   0  0  0  0  0  0  0  0  0  0  0  0
  129.5980  129.6300   60.3090 N   0  0  0  0  0  0  0  0  0  0  0  0
  128.8850  129.9930   59.2060 C   0  0  0  0  0  0  0  0  0  0  0  0
  127.7240  129.6860   58.9330 O   0  0  0  0  0  0  0  0  0  0  0  0
  129.8060  130.8380   58.4050 C   0  0  0  0  0  0  0  0  0  0  0  0
  129.6230  131.4800   57.1790 C   0  0  0  0  0  0  0  0  0  0  0  0
  130.6820  132.2260   56.6490 C   0  0  0  0  0  0  0  0  0  0  0  0
  131.8950  132.3220   57.3440 C   0  0  0  0  0  0  0  0  0  0  0  0
  132.0570  131.6730   58.5730 C   0  0  0  0  0  0  0  0  0  0  0  0
  130.9900  130.9320   59.0830 C   0  0  0  0  0  0  0  0  0  0  0  0
  130.8600  130.1510   60.3370 C   0  0  0  0  0  0  0  0  0  0  0  0
  131.7100  130.0040   61.2160 O   0  0  0  0  0  0  0  0  0  0  0  0
  1  2  2  0
  2  3  1  0
  3  4  1  0
  4  5  2  0
  4  6  1  0
  6  7  1  0
  7  8  2  0
  7  9  1  0
  9 10  1  1
 10 11  1  0
 11 12  2  0
 12 13  1  0
 13 14  2  0
 14 15  1  0
 15 16  2  0
  9 17  1  0
 17 18  1  0
 18 19  2  0
 18 20  1  0
 20 21  2  0
 21 22  1  0
 22 23  2  0
 23 24  1  0
 24 25  2  0
 25 26  1  0
 26 27  2  0
  2 28  1  0
 28 29  1  1
 29 30  1  0
 30 31  2  0
 31 32  1  0
 32 33  2  0
 33 34  1  0
 34 35  2  0
 28 36  1  0
 36 37  1  0
 37 38  2  0
 37 39  1  0
 39 40  2  0
 40 41  1  0
 41 42  2  0
 42 43  1  0
 43 44  2  0
 44 45  1  0
 45 46  2  0
 16 11  1  0
 26 17  1  0
 35 30  1  0
 45 36  1  0
 25 20  1  0
 44 39  1  0
M  END
>  <Binding energies>  (73) 
[-10.04]

>  <Ligand effiencies>  (73) 
[-0.20916666666666664]

>  <Interactions>  (73) 
["V-A:PRO:482:CG:4324, V-A:LEU:373:CD1:3277, V-A:LEU:475:CD2:4256, V-A:GLU:543:CD:4906, V-B:GLU:543:CD:9880, V-A:PRO:482:CB:4323, V-A:SER:385:CB:3406, V-A:ILE:369:CG2:3234, V-B:TYR:539:CD1:9845, V-A:ARG:545:CZ:4924, V-A:SER:385:CA:3404, V-B:ALA:541:CB:9864, V-B:TYR:539:CE1:9847, V-A:MET:535:CE:4833, V-A:PRO:540:CA:4881, V-A:PRO:540:CB:4883, V-A:PRO:540:N:4882, V-A:TYR:539:CE1:4873, H-A:ARG:545:NH2:4926, V-A:TYR:539:CD1:4871, V-A:ARG:545:CD:4921, V-B:GLU:543:CB:9878, V-A:HIS:456:CE1:4066, V-A:ARG:545:CG:4920, V-A:ALA:541:CB:4890, V-A:SER:385:C:3402, V-A:TYR:484:CZ:4344, V-A:PRO:540:CD:4885"]

$$$$
RR1_Rahimova_2017
     RDKit          3D

 41 44  0  0  0  0  0  0  0  0999 V2000
  132.1180  132.4860   56.4890 C   0  0  0  0  0  0  0  0  0  0  0  0
  130.9610  133.0290   57.1160 O   0  0  0  0  0  0  0  0  0  0  0  0
  130.3570  132.3280   58.1400 C   0  0  0  0  0  0  0  0  0  0  0  0
  129.0010  132.4440   58.4870 C   0  0  0  0  0  0  0  0  0  0  0  0
  128.4810  131.7000   59.5420 C   0  0  0  0  0  0  0  0  0  0  0  0
  129.2980  130.8280   60.2620 C   0  0  0  0  0  0  0  0  0  0  0  0
  128.6900  130.1550   61.3400 N   0  0  0  0  0  0  0  0  0  0  0  0
  127.5990  129.3600   61.3460 C   0  0  0  0  0  0  0  0  0  0  0  0
  126.8860  129.1400   60.3660 O   0  0  0  0  0  0  0  0  0  0  0  0
  127.2810  128.7210   62.7070 C   0  0  0  0  0  0  0  0  0  0  0  0
  128.7290  128.1490   63.6620 S   0  0  0  0  0  0  0  0  0  0  0  0
  129.0580  126.6810   62.7460 C   0  0  0  0  0  0  0  0  0  0  0  0
  128.2460  126.1730   61.8530 N   0  0  0  0  0  0  0  0  0  0  0  0
  128.8900  125.0970   61.4140 C   0  0  0  0  0  0  0  0  0  0  0  0
  128.3240  124.2000   60.3490 C   0  0  0  0  0  0  0  0  0  0  0  0
  126.9590  124.2240   60.0190 C   0  0  0  0  0  0  0  0  0  0  0  0
  126.4610  123.3760   59.0270 C   0  0  0  0  0  0  0  0  0  0  0  0
  127.3480  122.5160   58.3820 C   0  0  0  0  0  0  0  0  0  0  0  0
  128.6710  122.4670   58.6760 N   0  0  0  0  0  0  0  0  0  0  0  0
  129.1360  123.2990   59.6420 C   0  0  0  0  0  0  0  0  0  0  0  0
  130.0640  124.8720   61.9740 N   0  0  0  0  0  0  0  0  0  0  0  0
  130.1740  125.8890   62.8330 N   0  0  0  0  0  0  0  0  0  0  0  0
  131.3700  126.0360   63.6620 C   0  0  0  0  0  0  0  0  0  0  0  0
  131.1450  125.8340   65.1700 C   0  0  0  0  0  0  0  0  0  0  0  0
  132.0460  125.3900   65.8910 O   0  0  0  0  0  0  0  0  0  0  0  0
  129.9180  126.1710   65.6110 N   0  0  0  0  0  0  0  0  0  0  0  0
  129.6880  126.1560   66.9800 N   0  0  0  0  0  0  0  0  0  0  0  0
  129.0590  127.2190   67.5260 C   0  0  0  0  0  0  0  0  0  0  0  0
  128.5850  128.1540   66.8720 O   0  0  0  0  0  0  0  0  0  0  0  0
  128.9310  127.2010   69.0360 C   0  0  0  0  0  0  0  0  0  0  0  0
  127.6830  126.9790   69.6280 C   0  0  0  0  0  0  0  0  0  0  0  0
  127.5400  126.9700   71.0110 C   0  0  0  0  0  0  0  0  0  0  0  0
  128.6450  127.1920   71.8490 C   0  0  0  0  0  0  0  0  0  0  0  0
  128.5690  127.2110   73.2300 O   0  0  0  0  0  0  0  0  0  0  0  0
  127.5880  128.0210   73.8680 C   0  0  0  0  0  0  0  0  0  0  0  0
  129.9020  127.4250   71.2750 C   0  0  0  0  0  0  0  0  0  0  0  0
  130.9550  127.6590   72.1440 O   0  0  0  0  0  0  0  0  0  0  0  0
  131.3760  126.6290   73.0320 C   0  0  0  0  0  0  0  0  0  0  0  0
  130.0340  127.4240   69.8750 C   0  0  0  0  0  0  0  0  0  0  0  0
  130.6530  130.7080   59.9180 C   0  0  0  0  0  0  0  0  0  0  0  0
  131.1690  131.4530   58.8620 C   0  0  0  0  0  0  0  0  0  0  0  0
  1  2  1  0
  2  3  1  0
  3  4  2  0
  4  5  1  0
  5  6  2  0
  6  7  1  0
  7  8  1  0
  8  9  2  0
  8 10  1  0
 10 11  1  0
 11 12  1  0
 12 13  2  0
 13 14  1  0
 14 15  1  0
 15 16  2  0
 16 17  1  0
 17 18  2  0
 18 19  1  0
 19 20  2  0
 14 21  2  0
 21 22  1  0
 22 23  1  0
 23 24  1  0
 24 25  2  0
 24 26  1  0
 26 27  1  0
 27 28  1  0
 28 29  2  0
 28 30  1  0
 30 31  2  0
 31 32  1  0
 32 33  2  0
 33 34  1  0
 34 35  1  0
 33 36  1  0
 36 37  1  0
 37 38  1  0
 36 39  2  0
  6 40  1  0
 40 41  2  0
 41  3  1  0
 22 12  1  0
 39 30  1  0
 20 15  1  0
M  END
>  <Binding energies>  (74) 
[-6.91]

>  <Ligand effiencies>  (74) 
[-0.15704545454545454]

>  <Interactions>  (74) 
["V-B:PRO:540:CA:9855, V-B:PRO:540:N:9856, V-A:GLU:543:CD:4906, V-B:GLU:543:CD:9880, H-B:GLU:543:OE1:9881, H-B:GLU:543:OE2:9882, V-B:TYR:539:CD1:9845, V-A:ARG:545:CZ:4924, V-B:TYR:539:CE1:9847, V-B:TYR:539:C:9839, V-A:LEU:363:CD1:3186, V-A:PRO:540:CA:4881, V-A:TYR:539:C:4865, V-A:PRO:540:N:4882, V-A:TYR:539:CE1:4873, H-A:TYR:539:N:4868, V-A:TYR:539:CD1:4871, H-B:GLU:543:O:9875, H-A:TYR:484:OH:4345, H-A:GLU:543:OE1:4907, V-B:GLU:543:CB:9878, V-A:HIS:456:CE1:4066, H-A:GLU:543:OE2:4908, V-A:ILE:538:CG2:4861, V-B:PRO:540:CB:9857, V-B:GLU:543:CG:9879, V-B:HIS:456:CE1:9040, V-A:ILE:538:CB:4860, V-A:PRO:540:CD:4885, V-A:LYS:547:CE:4948, V-A:HIS:456:CD2:4065, V-B:GLY:544:C:9884, V-A:GLY:544:C:4910, V-B:HIS:456:CD2:9039, V-B:LYS:547:CE:9922, V-B:GLU:543:C:9874, V-B:HIS:456:CG:9037, V-B:GLY:544:CA:9886, V-A:HIS:456:CG:4063, H-B:LYS:547:NZ:9923, V-A:HIS:456:CB:4062"]

$$$$
RR22_Rahimova_2017
     RDKit          3D

 31 36  0  0  0  0  0  0  0  0999 V2000
  133.5590  125.3490   56.4180 O   0  0  0  0  0  0  0  0  0  0  0  0
  132.6300  125.3030   57.2210 C   0  0  0  0  0  0  0  0  0  0  0  0
  132.6940  125.4470   58.5960 N   0  0  0  0  0  0  0  0  0  0  0  0
  131.5010  125.4280   59.3870 C   0  0  1  0  0  0  0  0  0  0  0  0
  131.7100  124.3950   60.3540 O   0  0  0  0  0  0  0  0  0  0  0  0
  131.6750  124.7360   61.7060 C   0  0  0  0  0  0  0  0  0  0  0  0
  132.2350  123.8180   62.5950 C   0  0  0  0  0  0  0  0  0  0  0  0
  132.2020  124.0710   63.9660 C   0  0  0  0  0  0  0  0  0  0  0  0
  131.6020  125.2350   64.4470 C   0  0  0  0  0  0  0  0  0  0  0  0
  131.0400  126.1540   63.5580 C   0  0  0  0  0  0  0  0  0  0  0  0
  131.0880  125.9250   62.1800 C   0  0  0  0  0  0  0  0  0  0  0  0
  130.4730  126.8340   61.1400 C   0  0  1  0  0  0  0  0  0  0  0  0
  130.3830  128.3360   61.3210 C   0  0  0  0  0  0  0  0  0  0  0  0
  130.4610  128.7820   59.8580 C   0  0  0  0  0  0  0  0  0  0  0  0
  130.0360  130.1220   59.4080 C   0  0  0  0  0  0  0  0  0  0  0  0
  129.9230  130.4130   58.0410 C   0  0  0  0  0  0  0  0  0  0  0  0
  129.5210  131.6780   57.6220 C   0  0  0  0  0  0  0  0  0  0  0  0
  129.2300  132.6590   58.5660 C   0  0  0  0  0  0  0  0  0  0  0  0
  129.3370  132.3860   59.9270 C   0  0  0  0  0  0  0  0  0  0  0  0
  129.7380  131.1210   60.3480 C   0  0  0  0  0  0  0  0  0  0  0  0
  130.9540  127.8600   59.1200 N   0  0  0  0  0  0  0  0  0  0  0  0
  131.2630  126.7660   59.9470 N   0  0  0  0  0  0  0  0  0  0  0  0
  130.3790  124.9620   58.4710 C   0  0  0  0  0  0  0  0  0  0  0  0
  129.1950  124.4980   58.9330 C   0  0  0  0  0  0  0  0  0  0  0  0
  128.0230  124.0370   58.1630 C   0  0  0  0  0  0  0  0  0  0  0  0
  126.7740  124.6720   58.2120 C   0  0  0  0  0  0  0  0  0  0  0  0
  125.7110  124.1780   57.4550 C   0  0  0  0  0  0  0  0  0  0  0  0
  125.9240  123.0480   56.6660 C   0  0  0  0  0  0  0  0  0  0  0  0
  127.1180  122.4080   56.6060 N   0  0  0  0  0  0  0  0  0  0  0  0
  128.1410  122.9040   57.3480 C   0  0  0  0  0  0  0  0  0  0  0  0
  130.8890  125.0230   56.7770 S   0  0  0  0  0  0  0  0  0  0  0  0
  1  2  2  0
  2  3  1  0
  4  3  1  6
  4  5  1  0
  5  6  1  0
  6  7  2  0
  7  8  1  0
  8  9  2  0
  9 10  1  0
 10 11  2  0
 11 12  1  0
 12 13  1  1
 13 14  1  0
 14 15  1  0
 15 16  2  0
 16 17  1  0
 17 18  2  0
 18 19  1  0
 19 20  2  0
 14 21  2  0
 21 22  1  0
  4 23  1  0
 23 24  2  0
 24 25  1  0
 25 26  2  0
 26 27  1  0
 27 28  2  0
 28 29  1  0
 29 30  2  0
 23 31  1  0
 31  2  1  0
 22  4  1  0
 30 25  1  0
 11  6  1  0
 22 12  1  0
 20 15  1  0
M  END
>  <Binding energies>  (75) 
[-8.61]

>  <Ligand effiencies>  (75) 
[-0.2690625]

>  <Interactions>  (75) 
["V-B:PRO:540:N:9856, V-B:TYR:539:CD1:9845, V-A:ARG:545:CZ:4924, V-B:TYR:539:CE1:9847, V-B:TYR:539:C:9839, V-A:ASP:366:CG:3210, V-A:ASP:366:CB:3209, V-A:PRO:540:CA:4881, V-A:TYR:539:C:4865, V-A:PRO:540:N:4882, V-A:TYR:539:CE1:4873, V-B:TYR:539:CZ:9849, V-A:TYR:539:CD1:4871, V-A:ASP:366:CA:3207, H-A:ASP:366:OD2:3212, H-A:ASP:366:OD1:3211, V-A:TYR:539:CG:4870, H-B:TYR:539:OH:9850, H-A:TYR:531:OH:4793, H-B:TYR:539:N:9842, V-B:ILE:538:CB:9834, V-B:ILE:538:CG2:9835"]

$$$$
RR24_Rahimova_2017
     RDKit          3D

 43 49  0  0  0  0  0  0  0  0999 V2000
  126.8110  122.8800   58.6470 C   0  0  0  0  0  0  0  0  0  0  0  0
  127.6490  124.1660   58.6520 C   0  0  2  0  0  0  0  0  0  0  0  0
  128.1700  124.5660   57.2400 C   0  0  0  0  0  0  0  0  0  0  0  0
  129.0680  123.9380   56.6700 O   0  0  0  0  0  0  0  0  0  0  0  0
  127.5460  125.6760   56.7470 O   0  0  0  0  0  0  0  0  0  0  0  0
  127.8750  126.9170   57.2440 C   0  0  0  0  0  0  0  0  0  0  0  0
  126.8560  127.8040   57.5970 C   0  0  0  0  0  0  0  0  0  0  0  0
  127.1750  129.0580   58.1090 C   0  0  0  0  0  0  0  0  0  0  0  0
  128.5130  129.4280   58.2780 C   0  0  0  0  0  0  0  0  0  0  0  0
  128.8590  130.8180   58.8250 C   0  0  1  0  0  0  0  0  0  0  0  0
  128.0970  131.1300   60.1340 C   0  0  0  0  0  0  0  0  0  0  0  0
  128.7120  131.5680   61.2480 C   0  0  0  0  0  0  0  0  0  0  0  0
  130.0690  131.7680   61.3040 N   0  0  0  0  0  0  0  0  0  0  0  0
  130.8730  131.5280   60.2150 C   0  0  0  0  0  0  0  0  0  0  0  0
  132.1880  131.7830   60.4320 N   0  0  0  0  0  0  0  0  0  0  0  0
  133.1430  131.5300   59.4950 C   0  0  0  0  0  0  0  0  0  0  0  0
  134.3250  131.4750   59.8400 O   0  0  0  0  0  0  0  0  0  0  0  0
  132.6380  131.1920   58.2500 N   0  0  0  0  0  0  0  0  0  0  0  0
  133.6300  130.9960   57.1730 C   0  0  0  0  0  0  0  0  0  0  0  0
  131.3240  130.9080   57.9200 C   0  0  0  0  0  0  0  0  0  0  0  0
  130.9510  130.5610   56.7950 O   0  0  0  0  0  0  0  0  0  0  0  0
  130.3810  131.0770   59.0310 C   0  0  0  0  0  0  0  0  0  0  0  0
  127.7530  131.7770   62.3200 C   0  0  0  0  0  0  0  0  0  0  0  0
  127.8820  132.2090   63.6400 C   0  0  0  0  0  0  0  0  0  0  0  0
  126.7400  132.3090   64.4400 C   0  0  0  0  0  0  0  0  0  0  0  0
  125.4850  131.9800   63.9180 C   0  0  0  0  0  0  0  0  0  0  0  0
  125.3620  131.5480   62.5950 C   0  0  0  0  0  0  0  0  0  0  0  0
  126.5070  131.4490   61.8020 C   0  0  0  0  0  0  0  0  0  0  0  0
  126.6640  131.0310   60.3930 C   0  0  0  0  0  0  0  0  0  0  0  0
  125.8150  130.6710   59.5800 O   0  0  0  0  0  0  0  0  0  0  0  0
  129.5310  128.5290   57.9410 C   0  0  0  0  0  0  0  0  0  0  0  0
  129.2120  127.2740   57.4310 C   0  0  0  0  0  0  0  0  0  0  0  0
  128.7420  124.1200   59.6690 N   0  0  0  0  0  0  0  0  0  0  0  0
  128.5200  123.6620   60.9330 C   0  0  0  0  0  0  0  0  0  0  0  0
  127.4570  123.2530   61.4050 O   0  0  0  0  0  0  0  0  0  0  0  0
  129.8300  123.7620   61.6240 C   0  0  0  0  0  0  0  0  0  0  0  0
  130.2000  123.4380   62.9300 C   0  0  0  0  0  0  0  0  0  0  0  0
  131.5310  123.6350   63.3160 C   0  0  0  0  0  0  0  0  0  0  0  0
  132.4630  124.1460   62.4040 C   0  0  0  0  0  0  0  0  0  0  0  0
  132.0720  124.4640   61.0990 C   0  0  0  0  0  0  0  0  0  0  0  0
  130.7400  124.2610   60.7330 C   0  0  0  0  0  0  0  0  0  0  0  0
  130.0380  124.4960   59.4470 C   0  0  0  0  0  0  0  0  0  0  0  0
  130.5230  124.9310   58.4020 O   0  0  0  0  0  0  0  0  0  0  0  0
  2  1  1  6
  2  3  1  0
  3  4  2  0
  3  5  1  0
  5  6  1  0
  6  7  2  0
  7  8  1  0
  8  9  2  0
 10  9  1  1
 10 11  1  0
 11 12  2  0
 12 13  1  0
 13 14  1  0
 14 15  1  0
 15 16  1  0
 16 17  2  0
 16 18  1  0
 18 19  1  0
 18 20  1  0
 20 21  2  0
 20 22  1  0
 12 23  1  0
 23 24  2  0
 24 25  1  0
 25 26  2  0
 26 27  1  0
 27 28  2  0
 28 29  1  0
 29 30  2  0
  9 31  1  0
 31 32  2  0
  2 33  1  0
 33 34  1  0
 34 35  2  0
 34 36  1  0
 36 37  2  0
 37 38  1  0
 38 39  2  0
 39 40  1  0
 40 41  2  0
 41 42  1  0
 42 43  2  0
 32  6  1  0
 42 33  1  0
 22 10  1  0
 28 23  1  0
 41 36  1  0
 29 11  1  0
 22 14  2  0
M  END
>  <Binding energies>  (76) 
[-8.23]

>  <Ligand effiencies>  (76) 
[-0.1828888888888889]

>  <Interactions>  (76) 
["V-B:PRO:540:CA:9855, V-B:PRO:540:N:9856, V-B:ALA:541:CB:9864, V-B:TYR:539:C:9839, V-A:LEU:363:CA:3182, V-A:ASP:366:CG:3210, V-A:TYR:531:CE2:4791, V-A:ASP:366:CB:3209, V-B:MET:535:CE:9807, V-A:TYR:531:CZ:4792, V-A:LEU:363:CD1:3186, V-A:PRO:540:CA:4881, V-A:PRO:540:CB:4883, V-A:TYR:539:CE1:4873, H-A:GLU:543:OE1:4907, V-B:LEU:475:CD2:9230, V-A:ALA:541:CB:4890, V-A:PRO:540:C:4879, H-A:ALA:541:O:4887, H-B:ALA:541:N:9863, V-B:PRO:540:CB:9857, H-A:TYR:531:OH:4793, H-B:TYR:531:OH:9767, V-B:TYR:484:CZ:9318, V-B:TYR:484:CE2:9317, H-A:LEU:363:N:3183, V-B:GLY:454:CA:9020"]

$$$$
RR25_Rahimova_2017
     RDKit          3D

 39 44  0  0  0  0  0  0  0  0999 V2000
  129.1930  122.7850   58.9420 O   0  0  0  0  0  0  0  0  0  0  0  0
  129.5480  123.4770   59.8970 C   0  0  0  0  0  0  0  0  0  0  0  0
  130.0000  122.8000   61.0030 O   0  0  0  0  0  0  0  0  0  0  0  0
  130.6530  123.4520   62.0320 C   0  0  0  0  0  0  0  0  0  0  0  0
  131.5340  122.6910   62.7980 C   0  0  0  0  0  0  0  0  0  0  0  0
  132.2200  123.2820   63.8570 C   0  0  0  0  0  0  0  0  0  0  0  0
  132.0330  124.6380   64.1670 C   0  0  0  0  0  0  0  0  0  0  0  0
  132.7710  125.2670   65.2900 N   0  0  0  0  0  0  0  0  0  0  0  0
  133.9950  125.3350   65.2240 O   0  0  0  0  0  0  0  0  0  0  0  0
  132.1310  125.6970   66.2450 O   0  0  0  0  0  0  0  0  0  0  0  0
  131.1320  125.3840   63.3900 C   0  0  0  0  0  0  0  0  0  0  0  0
  130.4300  124.8040   62.3300 C   0  0  0  0  0  0  0  0  0  0  0  0
  129.4550  125.5700   61.4550 C   0  0  0  0  0  0  0  0  0  0  0  0
  129.5220  125.0300   59.9990 C   0  0  2  0  0  0  0  0  0  0  0  0
  128.4640  125.7260   59.0940 C   0  0  0  0  0  0  0  0  0  0  0  0
  127.7870  124.9800   58.3790 O   0  0  0  0  0  0  0  0  0  0  0  0
  128.2060  127.0660   59.1730 N   0  0  0  0  0  0  0  0  0  0  0  0
  129.1620  128.0320   59.7550 C   0  0  0  0  0  0  0  0  0  0  0  0
  128.3760  129.1190   60.5170 C   0  0  0  0  0  0  0  0  0  0  0  0
  127.3740  129.7570   59.6580 N   0  0  0  0  0  0  0  0  0  0  0  0
  126.7170  130.8800   60.3400 C   0  0  0  0  0  0  0  0  0  0  0  0
  127.4830  132.2200   60.1700 C   0  0  0  0  0  0  0  0  0  0  0  0
  128.9250  132.1090   59.8040 N   0  0  0  0  0  0  0  0  0  0  0  0
  129.7960  132.0070   60.8680 C   0  0  0  0  0  0  0  0  0  0  0  0
  129.4290  132.0400   62.0490 O   0  0  0  0  0  0  0  0  0  0  0  0
  131.2510  131.8290   60.4790 C   0  0  0  0  0  0  0  0  0  0  0  0
  132.2190  131.6880   61.4810 C   0  0  0  0  0  0  0  0  0  0  0  0
  133.5640  131.5150   61.1590 C   0  0  0  0  0  0  0  0  0  0  0  0
  133.9830  131.4730   59.8300 C   0  0  0  0  0  0  0  0  0  0  0  0
  133.0400  131.6110   58.7830 C   0  0  0  0  0  0  0  0  0  0  0  0
  133.3960  131.5760   57.4140 C   0  0  0  0  0  0  0  0  0  0  0  0
  132.4160  131.7150   56.4330 C   0  0  0  0  0  0  0  0  0  0  0  0
  131.0780  131.8900   56.7780 C   0  0  0  0  0  0  0  0  0  0  0  0
  130.6790  131.9310   58.1200 C   0  0  0  0  0  0  0  0  0  0  0  0
  131.6700  131.7890   59.1240 C   0  0  0  0  0  0  0  0  0  0  0  0
  129.2110  132.1140   58.4540 C   0  0  0  0  0  0  0  0  0  0  0  0
  128.3500  132.2400   57.5780 O   0  0  0  0  0  0  0  0  0  0  0  0
  126.4050  128.7610   59.2000 C   0  0  0  0  0  0  0  0  0  0  0  0
  127.0850  127.6320   58.3880 C   0  0  0  0  0  0  0  0  0  0  0  0
  1  2  2  0
  2  3  1  0
  3  4  1  0
  4  5  2  0
  5  6  1  0
  6  7  2  0
  7  8  1  0
  8  9  2  0
  8 10  1  0
  7 11  1  0
 11 12  2  0
 12 13  1  0
 13 14  1  0
 14 15  1  6
 15 16  2  0
 15 17  1  0
 17 18  1  0
 18 19  1  0
 19 20  1  0
 20 21  1  0
 21 22  1  0
 22 23  1  0
 23 24  1  0
 24 25  2  0
 24 26  1  0
 26 27  2  0
 27 28  1  0
 28 29  2  0
 29 30  1  0
 30 31  2  0
 31 32  1  0
 32 33  2  0
 33 34  1  0
 34 35  2  0
 34 36  1  0
 36 37  2  0
 20 38  1  0
 38 39  1  0
 14  2  1  0
 39 17  1  0
 12  4  1  0
 36 23  1  0
 35 26  1  0
 35 30  1  0
M  CHG  2   8   1  10  -1
M  END
>  <Binding energies>  (77) 
[-9.41]

>  <Ligand effiencies>  (77) 
[-0.2412820512820513]

>  <Interactions>  (77) 
["V-A:LEU:475:CD2:4256, V-A:GLY:454:CA:4046, V-A:ARG:545:CZ:4924, H-A:GLY:454:N:4047, V-B:TYR:539:CE1:9847, V-A:LEU:363:CA:3182, V-A:ASP:366:CG:3210, V-A:TYR:531:CE2:4791, V-A:TYR:531:CZ:4792, V-A:LEU:363:CD1:3186, V-A:PRO:540:CA:4881, V-A:TYR:539:C:4865, V-A:PRO:540:CB:4883, V-A:PRO:540:N:4882, V-A:TYR:539:CE1:4873, V-B:ASP:366:CG:8184, H-A:ALA:541:N:4889, V-A:TYR:539:CD1:4871, V-A:ARG:545:CD:4921, H-A:TYR:484:OH:4345, V-A:PRO:540:C:4879, H-A:ARG:545:NE:4922, V-A:ASN:362:CB:3173, V-A:ASN:362:C:3169"]

$$$$
RR27_Rahimova_2017
     RDKit          3D

 39 44  0  0  0  0  0  0  0  0999 V2000
  128.5130  122.1160   61.9790 O   0  0  0  0  0  0  0  0  0  0  0  0
  129.1830  122.6720   61.1040 C   0  0  0  0  0  0  0  0  0  0  0  0
  130.7310  122.5160   61.1480 C   0  0  0  0  0  0  0  0  0  0  0  0
  131.1940  121.0510   61.0490 C   0  0  0  0  0  0  0  0  0  0  0  0
  132.5240  120.7120   60.7560 C   0  0  0  0  0  0  0  0  0  0  0  0
  132.9090  119.3770   60.6770 C   0  0  0  0  0  0  0  0  0  0  0  0
  131.9680  118.3740   60.8900 C   0  0  0  0  0  0  0  0  0  0  0  0
  130.6440  118.6940   61.1790 C   0  0  0  0  0  0  0  0  0  0  0  0
  130.2590  120.0290   61.2580 C   0  0  0  0  0  0  0  0  0  0  0  0
  131.3540  123.3170   62.3070 C   0  0  0  0  0  0  0  0  0  0  0  0
  130.6750  123.5100   63.5180 C   0  0  0  0  0  0  0  0  0  0  0  0
  131.2620  124.2490   64.5420 C   0  0  0  0  0  0  0  0  0  0  0  0
  132.5260  124.8030   64.3570 C   0  0  0  0  0  0  0  0  0  0  0  0
  133.2070  124.6280   63.1550 C   0  0  0  0  0  0  0  0  0  0  0  0
  132.6200  123.8900   62.1330 C   0  0  0  0  0  0  0  0  0  0  0  0
  128.5970  123.2810   60.0340 N   0  0  0  0  0  0  0  0  0  0  0  0
  129.3190  124.1670   59.1090 C   0  0  0  0  0  0  0  0  0  0  0  0
  129.2590  125.5880   59.7110 C   0  0  0  0  0  0  0  0  0  0  0  0
  127.7980  126.0600   60.0000 C   0  0  0  0  0  0  0  0  0  0  0  0
  127.6880  127.4250   60.7040 C   0  0  0  0  0  0  0  0  0  0  0  0
  127.2470  127.4070   61.9960 N   0  0  0  0  0  0  0  0  0  0  0  0
  127.1570  128.5850   62.6740 C   0  0  0  0  0  0  0  0  0  0  0  0
  126.7330  128.6950   63.9720 O   0  0  0  0  0  0  0  0  0  0  0  0
  127.5200  129.7740   62.0130 C   0  0  0  0  0  0  0  0  0  0  0  0
  127.5540  131.0860   62.3860 N   0  0  0  0  0  0  0  0  0  0  0  0
  127.9970  131.8120   61.2960 N   0  0  0  0  0  0  0  0  0  0  0  0
  128.2380  130.9620   60.2750 N   0  0  0  0  0  0  0  0  0  0  0  0
  128.6960  131.4670   58.9830 C   0  0  0  0  0  0  0  0  0  0  0  0
  130.2110  131.4740   58.8310 C   0  0  0  0  0  0  0  0  0  0  0  0
  130.7900  131.5250   57.5590 C   0  0  0  0  0  0  0  0  0  0  0  0
  132.1790  131.5420   57.4200 C   0  0  0  0  0  0  0  0  0  0  0  0
  132.9950  131.5130   58.5500 C   0  0  0  0  0  0  0  0  0  0  0  0
  132.4230  131.4720   59.8230 C   0  0  0  0  0  0  0  0  0  0  0  0
  133.4310  131.4630   61.2250 Cl  0  0  0  0  0  0  0  0  0  0  0  0
  131.0350  131.4470   59.9620 C   0  0  0  0  0  0  0  0  0  0  0  0
  127.9500  129.6670   60.6720 C   0  0  0  0  0  0  0  0  0  0  0  0
  128.0400  128.5270   59.9830 N   0  0  0  0  0  0  0  0  0  0  0  0
  126.9500  124.9420   60.6810 C   0  0  0  0  0  0  0  0  0  0  0  0
  127.1500  123.5470   60.0360 C   0  0  0  0  0  0  0  0  0  0  0  0
  1  2  2  0
  2  3  1  0
  3  4  1  0
  4  5  2  0
  5  6  1  0
  6  7  2  0
  7  8  1  0
  8  9  2  0
  3 10  1  0
 10 11  2  0
 11 12  1  0
 12 13  2  0
 13 14  1  0
 14 15  2  0
  2 16  1  0
 16 17  1  0
 17 18  1  0
 18 19  1  0
 19 20  1  0
 20 21  2  0
 21 22  1  0
 22 23  1  0
 22 24  2  0
 24 25  1  0
 25 26  2  0
 26 27  1  0
 27 28  1  0
 28 29  1  0
 29 30  2  0
 30 31  1  0
 31 32  2  0
 32 33  1  0
 33 34  1  0
 33 35  2  0
 27 36  1  0
 36 37  2  0
 19 38  1  0
 38 39  1  0
  9  4  1  0
 15 10  1  0
 39 16  1  0
 37 20  1  0
 36 24  1  0
 35 29  1  0
M  END
>  <Binding energies>  (78) 
[-9.92]

>  <Ligand effiencies>  (78) 
[-0.248]

>  <Interactions>  (78) 
["V-A:PRO:482:CG:4324, V-A:LEU:373:CD1:3277, V-B:PRO:540:CA:9855, V-A:LEU:475:CD2:4256, H-B:GLU:543:OE1:9881, V-A:PRO:482:CB:4323, H-B:GLU:543:OE2:9882, V-A:ILE:369:CG2:3234, V-B:TYR:539:CD1:9845, V-A:ARG:545:CZ:4924, V-A:SER:385:CA:3404, V-B:ALA:541:CB:9864, V-B:TYR:539:CE1:9847, V-A:LEU:363:CA:3182, V-A:ASP:366:CG:3210, V-A:PRO:540:CA:4881, V-A:PRO:540:CB:4883, V-A:TYR:539:CE1:4873, H-B:ALA:541:N:9863, V-A:ASN:362:CB:3173, H-B:ARG:545:NH2:9900, V-A:ASN:362:C:3169"]

$$$$
RR28_Rahimova_2017
     RDKit          3D

 46 49  0  0  0  0  0  0  0  0999 V2000
  126.0790  130.6890   61.5710 C   0  0  0  0  0  0  0  0  0  0  0  0
  126.6930  130.2540   60.2450 C   0  0  0  0  0  0  0  0  0  0  0  0
  126.4450  130.8910   59.2230 O   0  0  0  0  0  0  0  0  0  0  0  0
  127.4900  129.1670   60.2840 N   0  0  0  0  0  0  0  0  0  0  0  0
  128.2070  128.5170   59.1640 C   0  0  0  0  0  0  0  0  0  0  0  0
  129.4570  129.3780   58.8220 C   0  0  0  0  0  0  0  0  0  0  0  0
  129.8220  129.5590   57.4790 C   0  0  0  0  0  0  0  0  0  0  0  0
  130.9360  130.3190   57.1370 C   0  0  0  0  0  0  0  0  0  0  0  0
  131.7130  130.9160   58.1310 C   0  0  0  0  0  0  0  0  0  0  0  0
  132.9360  131.7430   57.7360 C   0  0  0  0  0  0  0  0  0  0  0  0
  133.8080  131.8680   58.7390 F   0  0  0  0  0  0  0  0  0  0  0  0
  133.5680  131.1740   56.7100 F   0  0  0  0  0  0  0  0  0  0  0  0
  132.5410  132.9630   57.3730 F   0  0  0  0  0  0  0  0  0  0  0  0
  131.3620  130.7420   59.4720 C   0  0  0  0  0  0  0  0  0  0  0  0
  130.2470  129.9810   59.8140 C   0  0  0  0  0  0  0  0  0  0  0  0
  127.2410  128.2960   57.9460 C   0  0  0  0  0  0  0  0  0  0  0  0
  126.1030  127.2860   58.2420 C   0  0  0  0  0  0  0  0  0  0  0  0
  126.7550  126.0200   58.6130 N   0  0  0  0  0  0  0  0  0  0  0  0
  126.9930  125.0670   57.6710 C   0  0  0  0  0  0  0  0  0  0  0  0
  126.5320  125.1460   56.5300 O   0  0  0  0  0  0  0  0  0  0  0  0
  127.7240  123.7680   58.0890 C   0  0  0  0  0  0  0  0  0  0  0  0
  128.9880  123.4050   57.2630 C   0  0  0  0  0  0  0  0  0  0  0  0
  130.2360  124.2700   57.5570 C   0  0  0  0  0  0  0  0  0  0  0  0
  130.9280  124.6320   56.6020 O   0  0  0  0  0  0  0  0  0  0  0  0
  130.4620  124.7200   58.8240 N   0  0  0  0  0  0  0  0  0  0  0  0
  129.8880  124.0910   60.0190 C   0  0  0  0  0  0  0  0  0  0  0  0
  130.8370  122.9380   60.4110 C   0  0  0  0  0  0  0  0  0  0  0  0
  132.3250  123.3690   60.6590 C   0  0  0  0  0  0  0  0  0  0  0  0
  133.1890  122.1700   60.6250 N   0  0  0  0  0  0  0  0  0  0  0  0
  132.8590  120.8980   60.9260 C   0  0  0  0  0  0  0  0  0  0  0  0
  133.9770  119.8660   60.8160 C   0  0  0  0  0  0  0  0  0  0  0  0
  131.7340  120.5430   61.2760 O   0  0  0  0  0  0  0  0  0  0  0  0
  132.4050  123.9670   62.1010 C   0  0  0  0  0  0  0  0  0  0  0  0
  133.4600  124.7930   62.5250 C   0  0  0  0  0  0  0  0  0  0  0  0
  133.4930  125.3060   63.8190 C   0  0  0  0  0  0  0  0  0  0  0  0
  132.4730  125.0050   64.7240 C   0  0  0  0  0  0  0  0  0  0  0  0
  132.4930  125.5640   66.1460 C   0  0  0  0  0  0  0  0  0  0  0  0
  131.4330  125.1350   66.8350 F   0  0  0  0  0  0  0  0  0  0  0  0
  133.5980  125.1480   66.7640 F   0  0  0  0  0  0  0  0  0  0  0  0
  132.4810  126.8980   66.1620 F   0  0  0  0  0  0  0  0  0  0  0  0
  131.4230  124.1790   64.3200 C   0  0  0  0  0  0  0  0  0  0  0  0
  131.3920  123.6680   63.0260 C   0  0  0  0  0  0  0  0  0  0  0  0
  132.7580  124.3920   59.5370 C   0  0  0  0  0  0  0  0  0  0  0  0
  131.6970  125.4520   59.1360 C   0  0  0  0  0  0  0  0  0  0  0  0
  127.5180  126.1040   59.8670 C   0  0  0  0  0  0  0  0  0  0  0  0
  128.6810  127.1000   59.6250 C   0  0  0  0  0  0  0  0  0  0  0  0
  1  2  1  0
  2  3  2  0
  2  4  1  0
  4  5  1  0
  5  6  1  0
  6  7  2  0
  7  8  1  0
  8  9  2  0
  9 10  1  0
 10 11  1  0
 10 12  1  0
 10 13  1  0
  9 14  1  0
 14 15  2  0
  5 16  1  0
 16 17  1  0
 17 18  1  0
 18 19  1  0
 19 20  2  0
 19 21  1  0
 21 22  1  0
 22 23  1  0
 23 24  2  0
 23 25  1  0
 25 26  1  0
 26 27  1  0
 27 28  1  0
 28 29  1  0
 29 30  1  0
 30 31  1  0
 30 32  2  0
 28 33  1  0
 33 34  2  0
 34 35  1  0
 35 36  2  0
 36 37  1  0
 37 38  1  0
 37 39  1  0
 37 40  1  0
 36 41  1  0
 41 42  2  0
 28 43  1  0
 43 44  1  0
 18 45  1  0
 45 46  1  0
 46  5  1  0
 15  6  1  0
 44 25  1  0
 42 33  1  0
M  END
>  <Binding energies>  (79) 
[-6.94]

>  <Ligand effiencies>  (79) 
[-0.14458333333333334]

>  <Interactions>  (79) 
["V-A:LEU:373:CD1:3277, V-A:LEU:475:CD2:4256, V-A:GLU:543:CD:4906, V-A:SER:385:CB:3406, V-A:ILE:369:CG2:3234, V-B:TYR:539:CD1:9845, V-A:ARG:545:CZ:4924, V-A:SER:385:CA:3404, V-B:TYR:539:CE1:9847, V-A:LEU:363:CA:3182, V-A:ASP:366:CG:3210, V-B:TYR:539:CE2:9848, V-A:TYR:531:CE2:4791, V-A:ASP:366:CB:3209, V-A:MET:535:CE:4833, V-A:TYR:531:CZ:4792, V-A:LEU:363:CD1:3186, V-A:PRO:540:CA:4881, V-A:PRO:540:CB:4883, V-A:PRO:540:N:4882, V-B:TYR:539:CZ:9849, V-B:ASP:366:CG:8184, V-A:GLY:453:CA:4041, V-A:ARG:545:CD:4921, V-A:HIS:456:CE1:4066, V-A:ILE:369:CD1:3236, V-A:ARG:545:CG:4920, V-A:SER:385:C:3402, V-B:ASP:366:CB:8183, V-A:LEU:363:CB:3184, V-A:TYR:484:CZ:4344, H-B:TYR:539:OH:9850, V-A:GLU:543:CG:4905, H-A:TYR:539:OH:4876, V-A:PRO:540:CD:4885, V-A:TYR:484:CE2:4343, H-B:TYR:531:OH:9767, V-A:PRO:540:CG:4884, V-A:ASN:362:C:3169"]

$$$$
RR29_Rahimova_2017
     RDKit          3D

 18 19  0  0  0  0  0  0  0  0999 V2000
  129.3990  127.7150   70.2500 C   0  0  0  0  0  0  0  0  0  0  0  0
  129.2600  127.6710   68.7350 C   0  0  0  0  0  0  0  0  0  0  0  0
  130.5000  127.0750   68.0330 C   0  0  0  0  0  0  0  0  0  0  0  0
  130.1150  125.9440   67.0570 C   0  0  0  0  0  0  0  0  0  0  0  0
  131.2110  125.6580   66.0430 C   0  0  0  0  0  0  0  0  0  0  0  0
  132.5640  125.7280   66.4310 C   0  0  0  0  0  0  0  0  0  0  0  0
  133.5910  125.4670   65.5120 C   0  0  0  0  0  0  0  0  0  0  0  0
  133.2230  125.1500   64.2100 C   0  0  0  0  0  0  0  0  0  0  0  0
  131.9120  125.0840   63.8270 C   0  0  0  0  0  0  0  0  0  0  0  0
  130.8730  125.3270   64.7190 C   0  0  0  0  0  0  0  0  0  0  0  0
  131.8440  124.7230   62.5180 O   0  0  0  0  0  0  0  0  0  0  0  0
  133.1630  124.7770   62.0410 C   0  0  0  0  0  0  0  0  0  0  0  0
  134.0170  124.8330   63.1530 O   0  0  0  0  0  0  0  0  0  0  0  0
  128.1830  128.1200   68.2040 N   0  0  0  0  0  0  0  0  0  0  0  0
  128.0900  128.1600   66.8300 N   0  0  0  0  0  0  0  0  0  0  0  0
  127.6210  129.2120   66.1390 C   0  0  0  0  0  0  0  0  0  0  0  0
  127.2030  130.3550   66.6820 N   0  0  0  0  0  0  0  0  0  0  0  0
  127.5690  129.1080   64.8190 N   0  0  0  0  0  0  0  0  0  0  0  0
  1  2  1  0
  2  3  1  0
  3  4  1  0
  4  5  1  0
  5  6  2  0
  6  7  1  0
  7  8  2  0
  8  9  1  0
  9 10  2  0
  9 11  1  0
 11 12  1  0
 12 13  1  0
  2 14  2  0
 14 15  1  0
 15 16  1  0
 16 17  1  0
 16 18  2  0
 10  5  1  0
 13  8  1  0
M  CHG  1  18   1
M  END
>  <Binding energies>  (80) 
[-7.32]

>  <Ligand effiencies>  (80) 
[-0.31826086956521743]

>  <Interactions>  (80) 
["V-A:GLU:543:CD:4906, V-B:GLU:543:CD:9880, H-B:GLU:543:OE1:9881, H-B:GLU:543:OE2:9882, V-A:ARG:545:CZ:4924, H-A:GLY:454:N:4047, V-A:ARG:545:CD:4921, H-A:GLU:543:OE1:4907, V-B:GLU:543:CB:9878, V-A:HIS:456:CE1:4066, H-A:GLU:543:OE2:4908, V-A:ARG:545:CG:4920, H-A:ARG:545:NH1:4925, V-A:TYR:484:CZ:4344, V-B:GLU:543:CG:9879, V-A:GLU:543:CB:4904, V-A:GLU:543:CG:4905, V-B:HIS:456:CE1:9040, H-B:TYR:484:OH:9319, V-B:TYR:484:CZ:9318, H-B:HIS:456:NE2:9041, V-B:TYR:484:CE2:9317, H-B:HIS:456:ND1:9038"]

$$$$
RR30_Rahimova_2017
     RDKit          3D

 18 19  0  0  0  0  0  0  0  0999 V2000
  130.8620  126.8230   72.9320 C   0  0  0  0  0  0  0  0  0  0  0  0
  129.4990  127.5190   72.8160 C   0  0  0  0  0  0  0  0  0  0  0  0
  128.8860  127.3540   71.4430 C   0  0  0  0  0  0  0  0  0  0  0  0
  127.6710  126.9700   71.1380 N   0  0  0  0  0  0  0  0  0  0  0  0
  127.6070  126.9720   69.7470 N   0  0  0  0  0  0  0  0  0  0  0  0
  128.7900  127.3470   69.3310 C   0  0  0  0  0  0  0  0  0  0  0  0
  129.3280  127.5550   67.6640 S   0  0  0  0  0  0  0  0  0  0  0  0
  129.8590  125.8540   67.2920 C   0  0  0  0  0  0  0  0  0  0  0  0
  131.1010  125.8180   66.3980 C   0  0  0  0  0  0  0  0  0  0  0  0
  132.0850  126.4940   66.7060 O   0  0  0  0  0  0  0  0  0  0  0  0
  131.0080  125.0520   65.2880 N   0  0  0  0  0  0  0  0  0  0  0  0
  131.9950  124.8650   64.3310 C   0  0  0  0  0  0  0  0  0  0  0  0
  133.2870  125.0740   64.4430 N   0  0  0  0  0  0  0  0  0  0  0  0
  133.9740  124.7780   63.2720 N   0  0  0  0  0  0  0  0  0  0  0  0
  133.1940  124.3530   62.3040 C   0  0  0  0  0  0  0  0  0  0  0  0
  133.7060  123.9720   60.9350 C   0  0  0  0  0  0  0  0  0  0  0  0
  131.5160  124.2800   62.7680 S   0  0  0  0  0  0  0  0  0  0  0  0
  129.6480  127.6100   70.3500 O   0  0  0  0  0  0  0  0  0  0  0  0
  1  2  1  0
  2  3  1  0
  3  4  2  0
  4  5  1  0
  5  6  2  0
  6  7  1  0
  7  8  1  0
  8  9  1  0
  9 10  2  0
  9 11  1  0
 11 12  1  0
 12 13  2  0
 13 14  1  0
 14 15  2  0
 15 16  1  0
 15 17  1  0
  6 18  1  0
 18  3  1  0
 17 12  1  0
M  END
>  <Binding energies>  (81) 
[-6.25]

>  <Ligand effiencies>  (81) 
[-0.32894736842105265]

>  <Interactions>  (81) 
["V-B:GLU:543:CD:9880, H-B:GLU:543:OE1:9881, H-B:GLU:543:OE2:9882, H-A:GLY:454:N:4047, H-A:ARG:545:NH2:4926, H-A:HIS:456:NE2:4067, H-A:TYR:484:OH:4345, V-B:GLU:543:CB:9878, V-A:HIS:456:CE1:4066, V-A:ILE:369:CD1:3236, H-A:ARG:545:NE:4922, V-B:GLU:543:CG:9879, V-B:HIS:456:CE1:9040, V-A:LYS:547:CE:4948, V-A:HIS:456:CD2:4065, V-A:GLY:544:C:4910, V-A:HIS:456:CG:4063, H-B:HIS:456:NE2:9041"]

$$$$
RR31_Rahimova_2017
     RDKit          3D

 18 19  0  0  0  0  0  0  0  0999 V2000
  133.1490  117.1180   60.2100 C   0  0  0  0  0  0  0  0  0  0  0  0
  132.8160  118.5620   60.5620 C   0  0  0  0  0  0  0  0  0  0  0  0
  133.8440  119.5040   60.6120 C   0  0  0  0  0  0  0  0  0  0  0  0
  133.5720  120.8340   60.9280 C   0  0  0  0  0  0  0  0  0  0  0  0
  132.2630  121.2630   61.1950 C   0  0  0  0  0  0  0  0  0  0  0  0
  131.9750  122.5900   61.5230 N   0  0  0  0  0  0  0  0  0  0  0  0
  132.9840  123.6610   61.4040 C   0  0  0  0  0  0  0  0  0  0  0  0
  132.6310  124.9500   62.1820 C   0  0  0  0  0  0  0  0  0  0  0  0
  131.3200  125.4640   61.7760 N   0  0  0  0  0  0  0  0  0  0  0  0
  130.9720  126.7070   62.4720 C   0  0  0  0  0  0  0  0  0  0  0  0
  129.9050  127.5350   61.7280 C   0  0  0  0  0  0  0  0  0  0  0  0
  128.5590  127.5510   62.4700 C   0  0  0  0  0  0  0  0  0  0  0  0
  128.7520  128.0830   63.8950 N   0  0  0  0  0  0  0  0  0  0  0  0
  130.3300  124.4330   62.0850 C   0  0  0  0  0  0  0  0  0  0  0  0
  130.6230  123.1370   61.2950 C   0  0  0  0  0  0  0  0  0  0  0  0
  131.2400  120.3040   61.1500 C   0  0  0  0  0  0  0  0  0  0  0  0
  131.5000  118.9650   60.8350 C   0  0  0  0  0  0  0  0  0  0  0  0
  130.3450  117.9710   60.8060 C   0  0  0  0  0  0  0  0  0  0  0  0
  1  2  1  0
  2  3  2  0
  3  4  1  0
  4  5  2  0
  5  6  1  0
  6  7  1  0
  7  8  1  0
  8  9  1  0
  9 10  1  0
 10 11  1  0
 11 12  1  0
 12 13  1  0
  9 14  1  0
 14 15  1  0
  5 16  1  0
 16 17  2  0
 17 18  1  0
 17  2  1  0
 15  6  1  0
M  CHG  1  13   1
M  END
>  <Binding energies>  (82) 
[-7.18]

>  <Ligand effiencies>  (82) 
[-0.3419047619047619]

>  <Interactions>  (82) 
["V-A:PRO:482:CG:4324, V-A:LEU:373:CD1:3277, V-A:LEU:475:CD2:4256, V-A:GLU:543:CD:4906, V-B:GLU:543:CD:9880, H-B:GLU:543:OE1:9881, V-A:PRO:482:CB:4323, H-B:GLU:543:OE2:9882, V-A:SER:385:CB:3406, V-A:ILE:369:CG2:3234, V-B:TYR:539:CB:9843, V-B:TYR:539:CD1:9845, V-A:ARG:545:CZ:4924, V-A:SER:385:CA:3404, V-B:TYR:539:CE1:9847, V-B:TYR:539:C:9839, H-A:GLU:543:OE1:4907, H-A:GLU:543:OE2:4908, V-A:SER:385:C:3402"]

$$$$
RR32_Rahimova_2017
     RDKit          3D

 18 20  0  0  0  0  0  0  0  0999 V2000
  129.4170  126.9850   72.7320 C   0  0  0  0  0  0  0  0  0  0  0  0
  129.8690  125.6160   73.2300 C   0  0  0  0  0  0  0  0  0  0  0  0
  129.1000  124.5030   72.8880 C   0  0  0  0  0  0  0  0  0  0  0  0
  129.4840  123.2370   73.3210 C   0  0  0  0  0  0  0  0  0  0  0  0
  128.7190  122.1360   72.9790 N   0  0  0  0  0  0  0  0  0  0  0  0
  128.7220  121.7240   71.5640 C   0  0  0  0  0  0  0  0  0  0  0  0
  127.7020  120.6030   71.2510 C   0  0  0  0  0  0  0  0  0  0  0  0
  127.9720  119.4290   72.0800 N   0  0  0  0  0  0  0  0  0  0  0  0
  127.0300  118.3610   71.7620 C   0  0  0  0  0  0  0  0  0  0  0  0
  127.8360  119.8240   73.4800 C   0  0  0  0  0  0  0  0  0  0  0  0
  128.8550  120.9350   73.8260 C   0  0  0  0  0  0  0  0  0  0  0  0
  130.5900  123.0270   74.0800 N   0  0  0  0  0  0  0  0  0  0  0  0
  131.3590  124.0930   74.4330 C   0  0  0  0  0  0  0  0  0  0  0  0
  132.5050  123.8460   75.2260 C   0  0  0  0  0  0  0  0  0  0  0  0
  133.3270  124.8960   75.6170 C   0  0  0  0  0  0  0  0  0  0  0  0
  133.0350  126.2000   75.2340 C   0  0  0  0  0  0  0  0  0  0  0  0
  131.9150  126.4780   74.4550 C   0  0  0  0  0  0  0  0  0  0  0  0
  131.0440  125.4330   74.0320 C   0  0  0  0  0  0  0  0  0  0  0  0
  1  2  1  0
  2  3  2  0
  3  4  1  0
  4  5  1  0
  5  6  1  0
  6  7  1  0
  7  8  1  0
  8  9  1  0
  8 10  1  0
 10 11  1  0
  4 12  2  0
 12 13  1  0
 13 14  2  0
 14 15  1  0
 15 16  2  0
 16 17  1  0
 17 18  2  0
 18  2  1  0
 11  5  1  0
 18 13  1  0
M  END
>  <Binding energies>  (83) 
[-5.85]

>  <Ligand effiencies>  (83) 
[-0.32499999999999996]

>  <Interactions>  (83) 
["V-B:GLU:543:CA:9876, V-A:TYR:484:CD2:4341, V-A:LYS:547:CE:4948, V-A:HIS:456:CD2:4065, V-B:LYS:547:CE:9922, V-B:GLU:543:C:9874, V-B:GLY:544:CA:9886, V-A:HIS:456:CG:4063, V-A:TYR:484:CB:4338, V-A:HIS:456:CB:4062, V-B:VAL:542:CG1:9871, V-B:VAL:542:C:9866, V-A:LYS:547:CD:4947, V-A:VAL:458:CG2:4084, V-A:ASP:473:CG:4237, V-A:TYR:484:CG:4339, V-A:LYS:471:CD:4216, V-A:SER:483:CB:4330, H-A:TYR:484:N:4337"]

$$$$
RR5_Rahimova_2017
     RDKit          3D

 45 50  0  0  0  0  0  0  0  0999 V2000
  130.8980  121.6820   63.6070 O   0  0  0  0  0  0  0  0  0  0  0  0
  130.8770  122.8870   63.3600 C   0  0  0  0  0  0  0  0  0  0  0  0
  130.9950  123.9040   64.5110 C   0  0  0  0  0  0  0  0  0  0  0  0
  131.9140  125.1350   64.1850 C   0  0  2  0  0  0  0  0  0  0  0  0
  131.2090  126.3120   63.6400 N   0  0  0  0  0  0  0  0  0  0  0  0
  131.1120  126.5350   62.2730 C   0  0  0  0  0  0  0  0  0  0  0  0
  131.5340  125.8010   61.3760 O   0  0  0  0  0  0  0  0  0  0  0  0
  130.4870  127.7090   62.0790 O   0  0  0  0  0  0  0  0  0  0  0  0
  130.9810  128.6690   61.1490 C   0  0  0  0  0  0  0  0  0  0  0  0
  129.8200  129.3290   60.3730 C   0  0  0  0  0  0  0  0  0  0  0  0
  128.9680  130.2540   61.2230 C   0  0  0  0  0  0  0  0  0  0  0  0
  128.2520  129.9800   62.3930 C   0  0  0  0  0  0  0  0  0  0  0  0
  127.5450  131.0000   63.0310 C   0  0  0  0  0  0  0  0  0  0  0  0
  127.5510  132.2930   62.5030 C   0  0  0  0  0  0  0  0  0  0  0  0
  128.2620  132.5690   61.3340 C   0  0  0  0  0  0  0  0  0  0  0  0
  128.9680  131.5460   60.6980 C   0  0  0  0  0  0  0  0  0  0  0  0
  129.7820  131.5500   59.4720 C   0  0  0  0  0  0  0  0  0  0  0  0
  130.0860  132.5750   58.5730 C   0  0  0  0  0  0  0  0  0  0  0  0
  130.8770  132.3020   57.4560 C   0  0  0  0  0  0  0  0  0  0  0  0
  131.3640  131.0110   57.2410 C   0  0  0  0  0  0  0  0  0  0  0  0
  131.0610  129.9910   58.1430 C   0  0  0  0  0  0  0  0  0  0  0  0
  130.2710  130.2600   59.2640 C   0  0  0  0  0  0  0  0  0  0  0  0
  133.0610  124.7250   63.2280 C   0  0  0  0  0  0  0  0  0  0  0  0
  133.3380  123.5810   62.9290 O   0  0  0  0  0  0  0  0  0  0  0  0
  133.6920  125.8440   62.7630 O   0  0  0  0  0  0  0  0  0  0  0  0
  130.7860  123.4190   62.1210 N   0  0  0  0  0  0  0  0  0  0  0  0
  130.6620  122.8270   60.7550 C   0  0  0  0  0  0  0  0  0  0  0  0
  129.1580  123.1010   60.4160 C   0  0  0  0  0  0  0  0  0  0  0  0
  128.3100  123.7600   61.3220 C   0  0  0  0  0  0  0  0  0  0  0  0
  126.9750  124.0000   61.0090 C   0  0  0  0  0  0  0  0  0  0  0  0
  126.4620  123.5760   59.7880 C   0  0  0  0  0  0  0  0  0  0  0  0
  127.2780  122.9220   58.8720 C   0  0  0  0  0  0  0  0  0  0  0  0
  128.6150  122.6920   59.1810 C   0  0  0  0  0  0  0  0  0  0  0  0
  131.6420  123.6070   59.8170 C   0  0  0  0  0  0  0  0  0  0  0  0
  133.0350  123.5350   59.9810 C   0  0  0  0  0  0  0  0  0  0  0  0
  133.8880  124.2530   59.1460 C   0  0  0  0  0  0  0  0  0  0  0  0
  133.3600  125.0530   58.1390 C   0  0  0  0  0  0  0  0  0  0  0  0
  131.9840  125.1380   57.9540 C   0  0  0  0  0  0  0  0  0  0  0  0
  131.1340  124.4130   58.7830 C   0  0  0  0  0  0  0  0  0  0  0  0
  130.9820  121.3020   60.9120 C   0  0  0  0  0  0  0  0  0  0  0  0
  129.9790  120.3850   61.2760 C   0  0  0  0  0  0  0  0  0  0  0  0
  130.2590  119.0300   61.4240 C   0  0  0  0  0  0  0  0  0  0  0  0
  131.5500  118.5640   61.2040 C   0  0  0  0  0  0  0  0  0  0  0  0
  132.5590  119.4430   60.8300 C   0  0  0  0  0  0  0  0  0  0  0  0
  132.2750  120.7980   60.6830 C   0  0  0  0  0  0  0  0  0  0  0  0
  1  2  2  0
  2  3  1  0
  4  3  1  6
  4  5  1  0
  5  6  1  0
  6  7  2  0
  6  8  1  0
  8  9  1  0
  9 10  1  0
 10 11  1  0
 11 12  2  0
 12 13  1  0
 13 14  2  0
 14 15  1  0
 15 16  2  0
 16 17  1  0
 17 18  2  0
 18 19  1  0
 19 20  2  0
 20 21  1  0
 21 22  2  0
  4 23  1  0
 23 24  2  0
 23 25  1  0
  2 26  1  0
 26 27  1  0
 27 28  1  0
 28 29  2  0
 29 30  1  0
 30 31  2  0
 31 32  1  0
 32 33  2  0
 27 34  1  0
 34 35  2  0
 35 36  1  0
 36 37  2  0
 37 38  1  0
 38 39  2  0
 27 40  1  0
 40 41  2  0
 41 42  1  0
 42 43  2  0
 43 44  1  0
 44 45  2  0
 22 10  1  0
 33 28  1  0
 39 34  1  0
 45 40  1  0
 16 11  1  0
 22 17  1  0
M  END
>  <Binding energies>  (84) 
[-10.19]

>  <Ligand effiencies>  (84) 
[-0.21229166666666666]

>  <Interactions>  (84) 
["V-A:PRO:482:CG:4324, V-A:LEU:373:CD1:3277, V-B:PRO:540:CA:9855, V-B:PRO:540:N:9856, V-A:LEU:475:CD2:4256, V-A:GLU:543:CD:4906, V-A:PRO:482:CB:4323, V-A:ILE:369:CG2:3234, V-B:TYR:539:CD1:9845, V-A:ARG:545:CZ:4924, H-A:GLY:454:N:4047, V-B:ALA:541:CB:9864, V-B:TYR:539:CE1:9847, V-B:TYR:539:C:9839, V-A:ASP:366:CG:3210, V-A:ASP:366:CB:3209, V-A:PRO:540:CA:4881, V-A:TYR:539:C:4865, V-A:PRO:540:N:4882, V-B:TYR:539:CZ:9849, H-A:ARG:545:NH2:4926, H-A:GLU:543:OE1:4907, V-A:ASP:366:C:3205, H-A:GLU:543:OE2:4908, V-A:ILE:369:CD1:3236, V-A:ASP:366:CA:3207, H-A:ASP:366:OD2:3212, H-A:ASP:366:OD1:3211, V-A:ALA:541:CB:4890, V-A:ILE:369:CB:3233, H-A:ARG:545:NE:4922, H-A:ARG:545:NH1:4925, V-B:PRO:540:CB:9857"]

$$$$
