1a_Ghoteimi_2023
     RDKit          3D

 40 43  0  0  0  0  0  0  0  0999 V2000
  126.1580  128.4400   74.2760 C   0  0  0  0  0  0  0  0  0  0  0  0
  127.5930  128.8410   74.6330 C   0  0  0  0  0  0  0  0  0  0  0  0
  128.3780  128.8880   73.4480 O   0  0  0  0  0  0  0  0  0  0  0  0
  129.1980  127.8600   73.1090 C   0  0  0  0  0  0  0  0  0  0  0  0
  129.8140  127.1800   73.9340 O   0  0  0  0  0  0  0  0  0  0  0  0
  129.2760  127.6300   71.6270 C   0  0  0  0  0  0  0  0  0  0  0  0
  128.1510  127.2680   70.8710 C   0  0  0  0  0  0  0  0  0  0  0  0
  128.2550  127.0580   69.4990 C   0  0  0  0  0  0  0  0  0  0  0  0
  129.4920  127.2110   68.8540 C   0  0  0  0  0  0  0  0  0  0  0  0
  129.7120  127.0200   67.4770 N   0  0  0  0  0  0  0  0  0  0  0  0
  130.0790  125.9060   66.8050 C   0  0  0  0  0  0  0  0  0  0  0  0
  130.2800  124.8010   67.3080 O   0  0  0  0  0  0  0  0  0  0  0  0
  130.2400  126.0730   65.2950 C   0  0  0  0  0  0  0  0  0  0  0  0
  131.6320  125.0970   64.6550 S   0  0  0  0  0  0  0  0  0  0  0  0
  131.1850  124.6210   63.0010 C   0  0  0  0  0  0  0  0  0  0  0  0
  131.3730  123.3060   62.7370 N   0  0  0  0  0  0  0  0  0  0  0  0
  131.0640  122.8130   61.5090 C   0  0  0  0  0  0  0  0  0  0  0  0
  131.2810  121.3420   61.3020 C   0  0  0  0  0  0  0  0  0  0  0  0
  132.5350  120.8350   60.9230 C   0  0  0  0  0  0  0  0  0  0  0  0
  132.7330  119.4700   60.7330 C   0  0  0  0  0  0  0  0  0  0  0  0
  131.6850  118.5700   60.9110 C   0  0  0  0  0  0  0  0  0  0  0  0
  131.9730  117.2350   60.7030 O   0  0  0  0  0  0  0  0  0  0  0  0
  133.2340  116.8750   60.1500 C   0  0  0  0  0  0  0  0  0  0  0  0
  130.4260  119.0610   61.2850 C   0  0  0  0  0  0  0  0  0  0  0  0
  130.2320  120.4250   61.4740 C   0  0  0  0  0  0  0  0  0  0  0  0
  130.5550  123.6530   60.5110 C   0  0  0  0  0  0  0  0  0  0  0  0
  130.3760  125.0220   60.7520 C   0  0  0  0  0  0  0  0  0  0  0  0
  129.8580  125.8630   59.6310 C   0  0  0  0  0  0  0  0  0  0  0  0
  128.4850  126.0690   59.4640 C   0  0  0  0  0  0  0  0  0  0  0  0
  128.0120  126.8670   58.4250 C   0  0  0  0  0  0  0  0  0  0  0  0
  128.8990  127.4790   57.5400 C   0  0  0  0  0  0  0  0  0  0  0  0
  128.3390  128.2520   56.5430 O   0  0  0  0  0  0  0  0  0  0  0  0
  127.2370  129.0970   56.8550 C   0  0  0  0  0  0  0  0  0  0  0  0
  130.2780  127.2810   57.7100 C   0  0  0  0  0  0  0  0  0  0  0  0
  130.7490  126.4820   58.7490 C   0  0  0  0  0  0  0  0  0  0  0  0
  130.6950  125.5270   62.0360 C   0  0  0  0  0  0  0  0  0  0  0  0
  130.5140  126.9480   62.3520 C   0  0  0  0  0  0  0  0  0  0  0  0
  130.3710  128.0690   62.6020 N   0  0  0  0  0  0  0  0  0  0  0  0
  130.6130  127.5670   69.6030 C   0  0  0  0  0  0  0  0  0  0  0  0
  130.5080  127.7770   70.9760 C   0  0  0  0  0  0  0  0  0  0  0  0
  1  2  1  0
  2  3  1  0
  3  4  1  0
  4  5  2  0
  4  6  1  0
  6  7  2  0
  7  8  1  0
  8  9  2  0
  9 10  1  0
 10 11  1  0
 11 12  2  0
 11 13  1  0
 13 14  1  0
 14 15  1  0
 15 16  2  0
 16 17  1  0
 17 18  1  0
 18 19  2  0
 19 20  1  0
 20 21  2  0
 21 22  1  0
 22 23  1  0
 21 24  1  0
 24 25  2  0
 17 26  2  0
 26 27  1  0
 27 28  1  0
 28 29  2  0
 29 30  1  0
 30 31  2  0
 31 32  1  0
 32 33  1  0
 31 34  1  0
 34 35  2  0
 27 36  2  0
 36 37  1  0
 37 38  3  0
  9 39  1  0
 39 40  2  0
 40  6  1  0
 36 15  1  0
 25 18  1  0
 35 28  1  0
M  END
>  <Binding energies>  (1) 
[-8.03]

>  <Ligand effiencies>  (1) 
[-0.19585365853658535]

>  <Interactions>  (1) 
["V-A:PRO:482:CG:4324, V-A:LEU:373:CD1:3277, V-A:LEU:475:CD2:4256, V-A:GLU:543:CD:4906, V-B:GLU:543:CD:9880, V-A:PRO:482:CB:4323, H-B:GLU:543:OE2:9882, V-A:SER:385:CB:3406, V-A:ILE:369:CG2:3234, V-B:TYR:539:CD1:9845, V-A:SER:385:CA:3404, V-B:ALA:541:CB:9864, V-B:TYR:539:CE1:9847, V-A:ASP:366:CG:3210, V-A:MET:535:CE:4833, H-A:ARG:545:NH2:4926, H-A:HIS:456:NE2:4067, H-A:TYR:484:OH:4345, H-A:GLU:543:OE1:4907, V-B:GLU:543:CB:9878, V-A:HIS:456:CE1:4066, H-A:GLU:543:OE2:4908, V-B:GLU:543:CG:9879, V-A:GLU:543:CG:4905, V-A:GLU:543:C:4900, V-B:HIS:456:CE1:9040, V-A:VAL:384:C:3394, H-A:LYS:547:NZ:4949, V-A:LYS:547:CE:4948, V-A:GLY:544:CA:4912, V-B:GLY:544:C:9884, V-A:GLY:544:C:4910, V-B:HIS:456:CD2:9039, V-B:LYS:547:CE:9922, V-B:GLU:543:C:9874, V-B:HIS:456:CG:9037, V-B:GLY:544:CA:9886, H-B:HIS:456:NE2:9041, H-B:LYS:547:NZ:9923, V-B:HIS:456:CB:9036"]

$$$$
1b_Ghoteimi_2023
     RDKit          3D

 34 37  0  0  0  0  0  0  0  0999 V2000
  127.0430  132.9760   64.9960 C   0  0  0  0  0  0  0  0  0  0  0  0
  126.4160  131.8670   64.3610 O   0  0  0  0  0  0  0  0  0  0  0  0
  127.1560  131.0730   63.5070 C   0  0  0  0  0  0  0  0  0  0  0  0
  127.6840  131.6940   62.3770 C   0  0  0  0  0  0  0  0  0  0  0  0
  128.4420  130.9730   61.4590 C   0  0  0  0  0  0  0  0  0  0  0  0
  128.6980  129.6070   61.6450 C   0  0  0  0  0  0  0  0  0  0  0  0
  129.5160  128.8310   60.6510 C   0  0  0  0  0  0  0  0  0  0  0  0
  130.2560  127.6950   60.9950 C   0  0  0  0  0  0  0  0  0  0  0  0
  130.9990  127.0050   60.0280 C   0  0  0  0  0  0  0  0  0  0  0  0
  131.7700  125.8040   60.4690 C   0  0  0  0  0  0  0  0  0  0  0  0
  131.7840  124.6480   59.6840 C   0  0  0  0  0  0  0  0  0  0  0  0
  132.4940  123.5230   60.0940 C   0  0  0  0  0  0  0  0  0  0  0  0
  133.2000  123.5310   61.2980 C   0  0  0  0  0  0  0  0  0  0  0  0
  133.8760  122.3700   61.6240 O   0  0  0  0  0  0  0  0  0  0  0  0
  133.3160  121.1140   61.2550 C   0  0  0  0  0  0  0  0  0  0  0  0
  133.1830  124.6860   62.0920 C   0  0  0  0  0  0  0  0  0  0  0  0
  132.4710  125.8090   61.6800 C   0  0  0  0  0  0  0  0  0  0  0  0
  130.9710  127.4770   58.6930 C   0  0  0  0  0  0  0  0  0  0  0  0
  131.6530  126.7360   57.6270 C   0  0  0  0  0  0  0  0  0  0  0  0
  132.1910  126.1500   56.7870 N   0  0  0  0  0  0  0  0  0  0  0  0
  130.2200  128.6410   58.4170 C   0  0  0  0  0  0  0  0  0  0  0  0
  130.0780  129.3810   56.8030 S   0  0  0  0  0  0  0  0  0  0  0  0
  130.9970  130.9560   56.8250 C   0  0  0  0  0  0  0  0  0  0  0  0
  131.0620  131.6530   58.1910 C   0  0  0  0  0  0  0  0  0  0  0  0
  130.4150  132.6800   58.4060 O   0  0  0  0  0  0  0  0  0  0  0  0
  131.8680  131.0500   59.0930 N   0  0  0  0  0  0  0  0  0  0  0  0
  132.1170  131.4520   60.4000 C   0  0  0  0  0  0  0  0  0  0  0  0
  133.3930  131.4670   60.9620 C   0  0  0  0  0  0  0  0  0  0  0  0
  133.2120  131.9210   62.2490 C   0  0  0  0  0  0  0  0  0  0  0  0
  131.8950  132.1690   62.4500 O   0  0  0  0  0  0  0  0  0  0  0  0
  131.2120  131.8680   61.2710 N   0  0  0  0  0  0  0  0  0  0  0  0
  129.4990  129.2810   59.3690 N   0  0  0  0  0  0  0  0  0  0  0  0
  128.1600  128.9900   62.7860 C   0  0  0  0  0  0  0  0  0  0  0  0
  127.4000  129.7070   63.7050 C   0  0  0  0  0  0  0  0  0  0  0  0
  1  2  1  0
  2  3  1  0
  3  4  2  0
  4  5  1  0
  5  6  2  0
  6  7  1  0
  7  8  2  0
  8  9  1  0
  9 10  1  0
 10 11  2  0
 11 12  1  0
 12 13  2  0
 13 14  1  0
 14 15  1  0
 13 16  1  0
 16 17  2  0
  9 18  2  0
 18 19  1  0
 19 20  3  0
 18 21  1  0
 21 22  1  0
 22 23  1  0
 23 24  1  0
 24 25  2  0
 24 26  1  0
 26 27  1  0
 27 28  1  0
 28 29  2  0
 29 30  1  0
 30 31  1  0
 21 32  2  0
  6 33  1  0
 33 34  2  0
 34  3  1  0
 32  7  1  0
 17 10  1  0
 31 27  2  0
M  END
>  <Binding energies>  (2) 
[-6.97]

>  <Ligand effiencies>  (2) 
[-0.19914285714285715]

>  <Interactions>  (2) 
["V-A:LEU:475:CD2:4256, V-A:GLU:543:CD:4906, V-A:ILE:369:CG2:3234, V-A:ARG:545:CZ:4924, V-B:TYR:539:CE1:9847, V-A:ASP:366:CG:3210, V-A:ASP:366:CB:3209, V-A:MET:535:CE:4833, V-A:PRO:540:CA:4881, V-A:PRO:540:CB:4883, H-A:ALA:541:N:4889, V-B:LEU:475:CD2:9230, H-A:ASP:366:OD2:3212, V-A:ALA:541:CB:4890, V-A:PRO:540:C:4879, H-B:TYR:539:OH:9850, H-A:TYR:531:OH:4793, V-A:ASN:362:CB:3173, H-B:TYR:484:OH:9319, V-B:TYR:484:CZ:9318, V-B:TYR:484:CE2:9317, V-A:ALA:541:C:4886, V-A:ASN:362:CG:3174, V-A:ASN:362:C:3169"]

$$$$
1c_Ghoteimi_2023
     RDKit          3D

 34 37  0  0  0  0  0  0  0  0999 V2000
  133.9380  125.4410   66.8700 C   0  0  0  0  0  0  0  0  0  0  0  0
  133.9620  124.8720   65.5650 O   0  0  0  0  0  0  0  0  0  0  0  0
  132.9870  125.2300   64.6540 C   0  0  0  0  0  0  0  0  0  0  0  0
  133.3660  125.2720   63.3150 C   0  0  0  0  0  0  0  0  0  0  0  0
  132.4480  125.6260   62.3300 C   0  0  0  0  0  0  0  0  0  0  0  0
  131.1220  125.9500   62.6550 C   0  0  0  0  0  0  0  0  0  0  0  0
  130.1310  126.3360   61.5960 C   0  0  0  0  0  0  0  0  0  0  0  0
  130.2320  127.5230   60.8610 C   0  0  0  0  0  0  0  0  0  0  0  0
  129.2980  127.8280   59.8650 C   0  0  0  0  0  0  0  0  0  0  0  0
  129.5060  129.0780   59.0750 C   0  0  0  0  0  0  0  0  0  0  0  0
  130.4920  129.1380   58.0860 C   0  0  0  0  0  0  0  0  0  0  0  0
  130.6990  130.3100   57.3660 C   0  0  0  0  0  0  0  0  0  0  0  0
  129.9290  131.4450   57.6230 C   0  0  0  0  0  0  0  0  0  0  0  0
  130.2050  132.5640   56.8600 O   0  0  0  0  0  0  0  0  0  0  0  0
  131.5390  132.7930   56.4190 C   0  0  0  0  0  0  0  0  0  0  0  0
  128.9430  131.3900   58.6200 C   0  0  0  0  0  0  0  0  0  0  0  0
  128.7380  130.2160   59.3390 C   0  0  0  0  0  0  0  0  0  0  0  0
  128.2340  126.9230   59.6390 C   0  0  0  0  0  0  0  0  0  0  0  0
  127.2040  127.2010   58.6320 C   0  0  0  0  0  0  0  0  0  0  0  0
  126.3920  127.4210   57.8370 N   0  0  0  0  0  0  0  0  0  0  0  0
  128.2010  125.7380   60.4030 C   0  0  0  0  0  0  0  0  0  0  0  0
  127.0230  124.4370   60.1100 S   0  0  0  0  0  0  0  0  0  0  0  0
  127.9020  123.2410   59.0520 C   0  0  0  0  0  0  0  0  0  0  0  0
  129.3290  122.9730   59.5440 C   0  0  0  0  0  0  0  0  0  0  0  0
  129.5700  121.9440   60.1770 O   0  0  0  0  0  0  0  0  0  0  0  0
  130.2440  123.9030   59.1930 N   0  0  0  0  0  0  0  0  0  0  0  0
  131.6150  123.8260   59.3750 C   0  0  0  0  0  0  0  0  0  0  0  0
  132.5590  124.3850   58.6490 N   0  0  0  0  0  0  0  0  0  0  0  0
  133.7580  124.1330   59.1370 C   0  0  0  0  0  0  0  0  0  0  0  0
  133.8020  123.3540   60.2890 C   0  0  0  0  0  0  0  0  0  0  0  0
  132.1800  122.9300   60.7480 S   0  0  0  0  0  0  0  0  0  0  0  0
  129.1300  125.4520   61.3470 N   0  0  0  0  0  0  0  0  0  0  0  0
  130.7490  125.8980   64.0060 C   0  0  0  0  0  0  0  0  0  0  0  0
  131.6640  125.5470   64.9950 C   0  0  0  0  0  0  0  0  0  0  0  0
  1  2  1  0
  2  3  1  0
  3  4  2  0
  4  5  1  0
  5  6  2  0
  6  7  1  0
  7  8  2  0
  8  9  1  0
  9 10  1  0
 10 11  2  0
 11 12  1  0
 12 13  2  0
 13 14  1  0
 14 15  1  0
 13 16  1  0
 16 17  2  0
  9 18  2  0
 18 19  1  0
 19 20  3  0
 18 21  1  0
 21 22  1  0
 22 23  1  0
 23 24  1  0
 24 25  2  0
 24 26  1  0
 26 27  1  0
 27 28  2  0
 28 29  1  0
 29 30  2  0
 30 31  1  0
 21 32  2  0
  6 33  1  0
 33 34  2  0
 34  3  1  0
 32  7  1  0
 17 10  1  0
 31 27  1  0
M  END
>  <Binding energies>  (3) 
[-6.18]

>  <Ligand effiencies>  (3) 
[-0.17657142857142857]

>  <Interactions>  (3) 
["V-B:PRO:540:CA:9855, V-B:GLU:543:CD:9880, V-A:ILE:369:CG2:3234, V-B:TYR:539:CD1:9845, V-A:ARG:545:CZ:4924, H-A:GLY:454:N:4047, V-B:TYR:539:CE1:9847, V-B:TYR:539:C:9839, V-A:ASP:366:CG:3210, V-A:ASP:366:CB:3209, V-A:PRO:540:N:4882, H-A:TYR:539:N:4868, V-B:TYR:539:CZ:9849, V-A:ARG:545:CD:4921, H-A:TYR:484:OH:4345, V-A:HIS:456:CE1:4066, V-A:ILE:369:CD1:3236, V-A:ARG:545:CG:4920, V-A:ASP:366:CA:3207, V-A:ILE:369:CB:3233, V-A:ILE:538:CG2:4861, H-A:ARG:545:NE:4922, V-A:TYR:484:CZ:4344, H-B:TYR:539:OH:9850, V-A:ILE:538:CB:4860, V-A:ILE:538:CA:4858, V-A:PRO:540:CD:4885, H-B:TYR:531:OH:9767, V-A:ARG:545:CB:4919"]

$$$$
1d_Ghoteimi_2023
     RDKit          3D

 30 32  0  0  0  0  0  0  0  0999 V2000
  134.1310  125.0890   62.7710 C   0  0  0  0  0  0  0  0  0  0  0  0
  133.2750  125.7950   63.6550 O   0  0  0  0  0  0  0  0  0  0  0  0
  133.2200  125.4690   64.9630 C   0  0  0  0  0  0  0  0  0  0  0  0
  133.9800  124.7000   65.5540 O   0  0  0  0  0  0  0  0  0  0  0  0
  132.0720  126.1660   65.6880 C   0  0  0  0  0  0  0  0  0  0  0  0
  130.5190  125.4580   65.0610 S   0  0  0  0  0  0  0  0  0  0  0  0
  130.8520  124.8350   63.4280 C   0  0  0  0  0  0  0  0  0  0  0  0
  130.8240  125.7870   62.4650 N   0  0  0  0  0  0  0  0  0  0  0  0
  131.0580  125.4490   61.1710 C   0  0  0  0  0  0  0  0  0  0  0  0
  131.0150  126.5640   60.1670 C   0  0  0  0  0  0  0  0  0  0  0  0
  131.3590  126.3480   58.8230 C   0  0  0  0  0  0  0  0  0  0  0  0
  131.3240  127.3840   57.8950 C   0  0  0  0  0  0  0  0  0  0  0  0
  130.9470  128.6690   58.2800 C   0  0  0  0  0  0  0  0  0  0  0  0
  130.9460  129.6360   57.2930 O   0  0  0  0  0  0  0  0  0  0  0  0
  131.7280  130.8110   57.4720 C   0  0  0  0  0  0  0  0  0  0  0  0
  130.6010  128.9010   59.6180 C   0  0  0  0  0  0  0  0  0  0  0  0
  130.6360  127.8610   60.5430 C   0  0  0  0  0  0  0  0  0  0  0  0
  131.3380  124.1230   60.8210 C   0  0  0  0  0  0  0  0  0  0  0  0
  131.3580  123.1160   61.7940 C   0  0  0  0  0  0  0  0  0  0  0  0
  131.6570  121.7210   61.3490 C   0  0  0  0  0  0  0  0  0  0  0  0
  132.9490  121.3730   60.9430 C   0  0  0  0  0  0  0  0  0  0  0  0
  133.2350  120.0750   60.5270 C   0  0  0  0  0  0  0  0  0  0  0  0
  132.2390  119.0990   60.5150 C   0  0  0  0  0  0  0  0  0  0  0  0
  132.6120  117.8420   60.0810 O   0  0  0  0  0  0  0  0  0  0  0  0
  131.6070  116.9250   59.6610 C   0  0  0  0  0  0  0  0  0  0  0  0
  130.9440  119.4400   60.9340 C   0  0  0  0  0  0  0  0  0  0  0  0
  130.6610  120.7380   61.3500 C   0  0  0  0  0  0  0  0  0  0  0  0
  131.0870  123.4720   63.1390 C   0  0  0  0  0  0  0  0  0  0  0  0
  130.9930  122.4450   64.1800 C   0  0  0  0  0  0  0  0  0  0  0  0
  130.9180  121.6330   65.0010 N   0  0  0  0  0  0  0  0  0  0  0  0
  1  2  1  0
  2  3  1  0
  3  4  2  0
  3  5  1  0
  5  6  1  0
  6  7  1  0
  7  8  2  0
  8  9  1  0
  9 10  1  0
 10 11  2  0
 11 12  1  0
 12 13  2  0
 13 14  1  0
 14 15  1  0
 13 16  1  0
 16 17  2  0
  9 18  2  0
 18 19  1  0
 19 20  1  0
 20 21  2  0
 21 22  1  0
 22 23  2  0
 23 24  1  0
 24 25  1  0
 23 26  1  0
 26 27  2  0
 19 28  2  0
 28 29  1  0
 29 30  3  0
 28  7  1  0
 17 10  1  0
 27 20  1  0
M  END
>  <Binding energies>  (4) 
[-5.44]

>  <Ligand effiencies>  (4) 
[-0.18133333333333335]

>  <Interactions>  (4) 
["V-A:LEU:373:CD1:3277, V-A:LEU:475:CD2:4256, V-A:GLU:543:CD:4906, V-A:ILE:369:CG2:3234, V-B:TYR:539:CB:9843, V-B:TYR:539:CD1:9845, V-A:ARG:545:CZ:4924, V-A:SER:385:CA:3404, H-A:GLY:454:N:4047, V-B:ALA:541:CB:9864, V-B:TYR:539:CE1:9847, V-A:ASP:366:CG:3210, V-A:ASP:366:CB:3209, H-A:ARG:545:NH2:4926, V-A:GLY:453:C:4039, V-A:GLY:453:CA:4041, V-A:ARG:545:CD:4921, H-A:TYR:484:OH:4345, V-A:HIS:456:CE1:4066, V-A:ARG:545:CG:4920, H-A:ARG:545:NE:4922, H-A:ARG:545:NH1:4925, V-A:TYR:484:CZ:4344, H-A:TYR:531:OH:4793, V-A:TYR:484:CE2:4343, H-A:ILE:455:N:4052"]

$$$$
1j_Grossjean_2025
     RDKit          3D

 20 21  0  0  0  0  0  0  0  0999 V2000
  133.6190  125.4680   66.0510 C   0  0  0  0  0  0  0  0  0  0  0  0
  132.9080  125.3860   64.7120 C   0  0  0  0  0  0  0  0  0  0  0  0
  131.6210  125.8880   64.5380 C   0  0  0  0  0  0  0  0  0  0  0  0
  131.0210  125.7960   63.2780 C   0  0  0  0  0  0  0  0  0  0  0  0
  129.6150  126.3700   63.1070 C   0  0  0  0  0  0  0  0  0  0  0  0
  131.7310  125.1890   62.2170 C   0  0  0  0  0  0  0  0  0  0  0  0
  131.1420  125.1300   60.8770 C   0  0  0  0  0  0  0  0  0  0  0  0
  130.6750  125.0850   59.8190 N   0  0  0  0  0  0  0  0  0  0  0  0
  133.0230  124.6830   62.4920 C   0  0  0  0  0  0  0  0  0  0  0  0
  134.0550  123.8880   61.2790 S   0  0  0  0  0  0  0  0  0  0  0  0
  134.3200  122.1730   61.8170 C   0  0  0  0  0  0  0  0  0  0  0  0
  133.3340  121.2060   61.1590 C   0  0  0  0  0  0  0  0  0  0  0  0
  132.3330  121.6530   60.5970 O   0  0  0  0  0  0  0  0  0  0  0  0
  133.6540  119.8960   61.2500 N   0  0  0  0  0  0  0  0  0  0  0  0
  132.9250  118.8290   60.7450 C   0  0  0  0  0  0  0  0  0  0  0  0
  133.3840  117.7460   60.1540 N   0  0  0  0  0  0  0  0  0  0  0  0
  132.4060  116.9370   59.8000 C   0  0  0  0  0  0  0  0  0  0  0  0
  131.1150  117.3590   60.1060 C   0  0  0  0  0  0  0  0  0  0  0  0
  131.2000  118.9030   60.9010 S   0  0  0  0  0  0  0  0  0  0  0  0
  133.6050  124.7970   63.7120 N   0  0  0  0  0  0  0  0  0  0  0  0
  1  2  1  0
  2  3  2  0
  3  4  1  0
  4  5  1  0
  4  6  2  0
  6  7  1  0
  7  8  3  0
  6  9  1  0
  9 10  1  0
 10 11  1  0
 11 12  1  0
 12 13  2  0
 12 14  1  0
 14 15  1  0
 15 16  2  0
 16 17  1  0
 17 18  2  0
 18 19  1  0
  9 20  2  0
 20  2  1  0
 19 15  1  0
M  END
>  <Binding energies>  (5) 
[-6.41]

>  <Ligand effiencies>  (5) 
[-0.30523809523809525]

>  <Interactions>  (5) 
["V-A:PRO:482:CG:4324, V-A:LEU:373:CD1:3277, V-A:LEU:475:CD2:4256, V-B:GLU:543:CD:9880, V-A:SER:385:CB:3406, V-A:ILE:369:CG2:3234, V-B:TYR:539:CB:9843, V-A:GLY:454:CA:4046, V-B:TYR:539:CD1:9845, V-A:ARG:545:CZ:4924, V-A:SER:385:CA:3404, H-A:GLY:454:N:4047, V-B:TYR:539:CE1:9847, V-A:ARG:545:CD:4921, V-A:HIS:456:CE1:4066, V-A:ILE:369:CD1:3236, V-A:ARG:545:CG:4920, V-A:SER:385:C:3402, H-A:SER:385:O:3403, V-B:TYR:539:CG:9844"]

$$$$
1o_Grossjean_2025
     RDKit          3D

 26 27  0  0  0  0  0  0  0  0999 V2000
  129.8490  125.7900   73.2360 C   0  0  0  0  0  0  0  0  0  0  0  0
  129.1050  126.9360   73.6250 O   0  0  0  0  0  0  0  0  0  0  0  0
  129.0470  128.0350   72.8300 C   0  0  0  0  0  0  0  0  0  0  0  0
  128.7730  129.1640   73.2500 O   0  0  0  0  0  0  0  0  0  0  0  0
  129.3510  127.7430   71.3890 C   0  0  0  0  0  0  0  0  0  0  0  0
  128.3790  127.2410   70.5120 C   0  0  0  0  0  0  0  0  0  0  0  0
  128.6940  126.9830   69.1800 C   0  0  0  0  0  0  0  0  0  0  0  0
  129.9840  127.2160   68.7000 C   0  0  0  0  0  0  0  0  0  0  0  0
  130.1900  126.9290   67.3360 N   0  0  0  0  0  0  0  0  0  0  0  0
  130.3480  125.7390   66.7160 C   0  0  0  0  0  0  0  0  0  0  0  0
  130.2920  124.6390   67.2660 O   0  0  0  0  0  0  0  0  0  0  0  0
  130.5860  125.8100   65.2000 C   0  0  0  0  0  0  0  0  0  0  0  0
  132.0380  126.1680   64.8260 C   0  0  0  0  0  0  0  0  0  0  0  0
  133.1480  124.7320   64.7220 S   0  0  0  0  0  0  0  0  0  0  0  0
  132.8060  123.8640   63.2050 C   0  0  0  0  0  0  0  0  0  0  0  0
  133.5810  124.2660   62.1660 N   0  0  0  0  0  0  0  0  0  0  0  0
  133.4170  123.6690   60.9610 C   0  0  0  0  0  0  0  0  0  0  0  0
  134.3290  124.1610   59.8520 C   0  0  0  0  0  0  0  0  0  0  0  0
  132.4750  122.6670   60.7420 C   0  0  0  0  0  0  0  0  0  0  0  0
  131.6530  122.2630   61.7990 C   0  0  0  0  0  0  0  0  0  0  0  0
  130.6180  121.1720   61.5280 C   0  0  0  0  0  0  0  0  0  0  0  0
  131.8030  122.8740   63.0640 C   0  0  0  0  0  0  0  0  0  0  0  0
  130.9120  122.5060   64.1670 C   0  0  0  0  0  0  0  0  0  0  0  0
  130.2080  122.2120   65.0370 N   0  0  0  0  0  0  0  0  0  0  0  0
  130.9600  127.7230   69.5710 C   0  0  0  0  0  0  0  0  0  0  0  0
  130.6430  127.9810   70.9020 C   0  0  0  0  0  0  0  0  0  0  0  0
  1  2  1  0
  2  3  1  0
  3  4  2  0
  3  5  1  0
  5  6  2  0
  6  7  1  0
  7  8  2  0
  8  9  1  0
  9 10  1  0
 10 11  2  0
 10 12  1  0
 12 13  1  0
 13 14  1  0
 14 15  1  0
 15 16  2  0
 16 17  1  0
 17 18  1  0
 17 19  2  0
 19 20  1  0
 20 21  1  0
 20 22  2  0
 22 23  1  0
 23 24  3  0
  8 25  1  0
 25 26  2  0
 26  5  1  0
 22 15  1  0
M  END
>  <Binding energies>  (6) 
[-7.23]

>  <Ligand effiencies>  (6) 
[-0.2677777777777778]

>  <Interactions>  (6) 
["V-A:LEU:475:CD2:4256, V-A:GLU:543:CD:4906, V-B:GLU:543:CD:9880, H-B:GLU:543:OE2:9882, V-A:ILE:369:CG2:3234, V-A:GLY:454:CA:4046, V-B:TYR:539:CD1:9845, V-A:ARG:545:CZ:4924, H-A:GLY:454:N:4047, V-B:ALA:541:CB:9864, V-B:TYR:539:CE1:9847, V-A:ASP:366:CG:3210, H-A:HIS:456:NE2:4067, H-A:TYR:484:OH:4345, H-A:GLU:543:OE1:4907, V-B:GLU:543:CB:9878, V-A:HIS:456:CE1:4066, H-A:GLU:543:OE2:4908, V-A:ILE:369:CD1:3236, V-A:ASP:366:CA:3207, V-A:ILE:369:CB:3233, V-A:TYR:484:CZ:4344, V-B:GLU:543:CG:9879, V-A:GLU:543:CG:4905, V-A:GLU:543:C:4900, V-B:HIS:456:CE1:9040, V-A:TYR:484:CE2:4343, V-A:ILE:369:CG1:3235, H-A:LYS:547:NZ:4949, V-A:GLY:544:CA:4912, V-A:HIS:456:CD2:4065, V-A:GLY:544:C:4910, V-B:HIS:456:CD2:9039, V-B:LYS:547:CE:9922, V-B:GLU:543:C:9874, H-B:HIS:456:NE2:9041, H-B:LYS:547:NZ:9923"]

$$$$
1p_Grossjean_2025
     RDKit          3D

 21 22  0  0  0  0  0  0  0  0999 V2000
  128.5090  122.0770   60.8480 C   0  0  0  0  0  0  0  0  0  0  0  0
  129.7340  122.7260   61.4650 C   0  0  0  0  0  0  0  0  0  0  0  0
  129.7110  123.2400   62.7600 C   0  0  0  0  0  0  0  0  0  0  0  0
  130.8660  123.8400   63.2730 C   0  0  0  0  0  0  0  0  0  0  0  0
  130.8140  124.4100   64.6890 C   0  0  0  0  0  0  0  0  0  0  0  0
  132.0270  123.9020   62.4710 C   0  0  0  0  0  0  0  0  0  0  0  0
  133.2330  124.5670   62.9670 C   0  0  0  0  0  0  0  0  0  0  0  0
  134.1860  125.0930   63.3610 N   0  0  0  0  0  0  0  0  0  0  0  0
  131.9670  123.3340   61.1760 C   0  0  0  0  0  0  0  0  0  0  0  0
  133.3370  123.3170   60.0430 S   0  0  0  0  0  0  0  0  0  0  0  0
  132.8580  124.3440   58.6230 C   0  0  0  0  0  0  0  0  0  0  0  0
  131.5800  125.1720   58.8580 C   0  0  0  0  0  0  0  0  0  0  0  0
  130.4430  124.8360   57.8820 C   0  0  0  0  0  0  0  0  0  0  0  0
  130.3740  125.4270   56.8030 O   0  0  0  0  0  0  0  0  0  0  0  0
  129.5860  123.8750   58.2930 N   0  0  0  0  0  0  0  0  0  0  0  0
  128.4810  123.3850   57.6080 C   0  0  0  0  0  0  0  0  0  0  0  0
  127.3540  124.1580   57.3280 C   0  0  0  0  0  0  0  0  0  0  0  0
  126.5040  123.3170   56.6460 C   0  0  0  0  0  0  0  0  0  0  0  0
  127.0870  122.1020   56.5240 O   0  0  0  0  0  0  0  0  0  0  0  0
  128.3390  122.1570   57.1380 N   0  0  0  0  0  0  0  0  0  0  0  0
  130.8350  122.7730   60.6800 N   0  0  0  0  0  0  0  0  0  0  0  0
  1  2  1  0
  2  3  2  0
  3  4  1  0
  4  5  1  0
  4  6  2  0
  6  7  1  0
  7  8  3  0
  6  9  1  0
  9 10  1  0
 10 11  1  0
 11 12  1  0
 12 13  1  0
 13 14  2  0
 13 15  1  0
 15 16  1  0
 16 17  1  0
 17 18  2  0
 18 19  1  0
 19 20  1  0
  9 21  2  0
 21  2  1  0
 20 16  2  0
M  END
>  <Binding energies>  (7) 
[-6.36]

>  <Ligand effiencies>  (7) 
[-0.2890909090909091]

>  <Interactions>  (7) 
["V-B:PRO:540:CA:9855, V-B:PRO:540:N:9856, V-B:GLU:543:CD:9880, V-B:TYR:539:CD1:9845, H-A:GLY:454:N:4047, V-B:ALA:541:CB:9864, V-B:TYR:539:CE1:9847, V-B:TYR:539:C:9839, V-A:ASP:366:CG:3210, V-B:TYR:539:CZ:9849, H-A:ARG:545:NH2:4926, V-B:PRO:540:C:9853, H-A:ARG:545:NE:4922, H-A:ARG:545:NH1:4925, H-B:TYR:539:OH:9850, H-B:TYR:539:N:9842"]

$$$$
2a_Ghoteimi_2023
     RDKit          3D

 48 53  0  0  0  0  0  0  0  0999 V2000
  125.4600  130.3340   59.6420 C   0  0  0  0  0  0  0  0  0  0  0  0
  126.5150  131.1820   58.9250 C   0  0  0  0  0  0  0  0  0  0  0  0
  127.0830  130.4280   57.8620 O   0  0  0  0  0  0  0  0  0  0  0  0
  126.4860  129.2970   57.4060 C   0  0  0  0  0  0  0  0  0  0  0  0
  125.5930  129.2950   56.5530 O   0  0  0  0  0  0  0  0  0  0  0  0
  127.0270  128.0460   58.0390 C   0  0  0  0  0  0  0  0  0  0  0  0
  126.3360  127.3710   59.0570 C   0  0  0  0  0  0  0  0  0  0  0  0
  126.8640  126.2140   59.6210 C   0  0  0  0  0  0  0  0  0  0  0  0
  128.0870  125.7040   59.1800 C   0  0  0  0  0  0  0  0  0  0  0  0
  128.5280  124.5320   59.8230 N   0  0  0  0  0  0  0  0  0  0  0  0
  129.4570  123.6300   59.4370 C   0  0  0  0  0  0  0  0  0  0  0  0
  130.0760  123.6620   58.3720 O   0  0  0  0  0  0  0  0  0  0  0  0
  129.6930  122.4760   60.4190 C   0  0  0  0  0  0  0  0  0  0  0  0
  131.0440  122.7610   61.6070 S   0  0  0  0  0  0  0  0  0  0  0  0
  130.6850  124.3240   62.3760 C   0  0  0  0  0  0  0  0  0  0  0  0
  130.6760  125.3680   61.5150 N   0  0  0  0  0  0  0  0  0  0  0  0
  130.4230  126.6160   61.9840 C   0  0  0  0  0  0  0  0  0  0  0  0
  130.4380  127.7220   60.9780 C   0  0  0  0  0  0  0  0  0  0  0  0
  131.0190  127.5460   59.7160 C   0  0  0  0  0  0  0  0  0  0  0  0
  131.0400  128.5830   58.7870 C   0  0  0  0  0  0  0  0  0  0  0  0
  130.4760  129.8320   59.0820 C   0  0  0  0  0  0  0  0  0  0  0  0
  130.5320  130.8740   58.1500 N   0  0  0  0  0  0  0  0  0  0  0  0
  131.8210  131.4290   57.6920 C   0  0  0  0  0  0  0  0  0  0  0  0
  131.7090  132.2980   56.4220 C   0  0  0  0  0  0  0  0  0  0  0  0
  130.7550  133.3290   56.6200 O   0  0  0  0  0  0  0  0  0  0  0  0
  129.4690  132.7970   56.8950 C   0  0  0  0  0  0  0  0  0  0  0  0
  129.5100  131.9420   58.1790 C   0  0  0  0  0  0  0  0  0  0  0  0
  129.9050  130.0060   60.3530 C   0  0  0  0  0  0  0  0  0  0  0  0
  129.8820  128.9690   61.2800 C   0  0  0  0  0  0  0  0  0  0  0  0
  130.1590  126.8400   63.3380 C   0  0  0  0  0  0  0  0  0  0  0  0
  130.1630  125.7740   64.2480 C   0  0  0  0  0  0  0  0  0  0  0  0
  129.8790  126.0850   65.6810 C   0  0  0  0  0  0  0  0  0  0  0  0
  129.3060  127.3090   66.0350 C   0  0  0  0  0  0  0  0  0  0  0  0
  129.0560  127.6160   67.3690 C   0  0  0  0  0  0  0  0  0  0  0  0
  129.3680  126.7070   68.3900 C   0  0  0  0  0  0  0  0  0  0  0  0
  129.1420  127.0030   69.7370 N   0  0  0  0  0  0  0  0  0  0  0  0
  127.7570  127.1900   70.2140 C   0  0  0  0  0  0  0  0  0  0  0  0
  127.6260  127.1190   71.7510 C   0  0  0  0  0  0  0  0  0  0  0  0
  128.4990  128.0600   72.3560 O   0  0  0  0  0  0  0  0  0  0  0  0
  129.8550  127.8110   72.0200 C   0  0  0  0  0  0  0  0  0  0  0  0
  130.0450  127.8950   70.4920 C   0  0  0  0  0  0  0  0  0  0  0  0
  129.9540  125.4850   68.0280 C   0  0  0  0  0  0  0  0  0  0  0  0
  130.2060  125.1780   66.6940 C   0  0  0  0  0  0  0  0  0  0  0  0
  130.4280  124.4720   63.7570 C   0  0  0  0  0  0  0  0  0  0  0  0
  130.3910  123.3090   64.6510 C   0  0  0  0  0  0  0  0  0  0  0  0
  130.3630  122.3940   65.3580 N   0  0  0  0  0  0  0  0  0  0  0  0
  128.7870  126.3790   58.1690 C   0  0  0  0  0  0  0  0  0  0  0  0
  128.2570  127.5360   57.6040 C   0  0  0  0  0  0  0  0  0  0  0  0
  1  2  1  0
  2  3  1  0
  3  4  1  0
  4  5  2  0
  4  6  1  0
  6  7  2  0
  7  8  1  0
  8  9  2  0
  9 10  1  0
 10 11  1  0
 11 12  2  0
 11 13  1  0
 13 14  1  0
 14 15  1  0
 15 16  2  0
 16 17  1  0
 17 18  1  0
 18 19  2  0
 19 20  1  0
 20 21  2  0
 21 22  1  0
 22 23  1  0
 23 24  1  0
 24 25  1  0
 25 26  1  0
 26 27  1  0
 21 28  1  0
 28 29  2  0
 17 30  2  0
 30 31  1  0
 31 32  1  0
 32 33  2  0
 33 34  1  0
 34 35  2  0
 35 36  1  0
 36 37  1  0
 37 38  1  0
 38 39  1  0
 39 40  1  0
 40 41  1  0
 35 42  1  0
 42 43  2  0
 31 44  2  0
 44 45  1  0
 45 46  3  0
  9 47  1  0
 47 48  2  0
 48  6  1  0
 44 15  1  0
 29 18  1  0
 43 32  1  0
 27 22  1  0
 41 36  1  0
M  END
>  <Binding energies>  (8) 
[-0.49]

>  <Ligand effiencies>  (8) 
[-0.01]

>  <Interactions>  (8) 
["V-A:GLU:543:CD:4906, V-B:GLU:543:CD:9880, V-B:TYR:539:CD1:9845, V-B:ALA:541:CB:9864, V-B:TYR:539:CE1:9847, V-A:TYR:539:CZ:4875, V-A:ASP:366:CG:3210, V-A:TYR:539:C:4865, V-A:TYR:539:CE1:4873, H-A:TYR:539:N:4868, V-B:ASP:366:CG:8184, V-A:TYR:539:CD1:4871, H-A:TYR:484:OH:4345, V-B:GLU:543:CB:9878, V-A:HIS:456:CE1:4066, V-B:ASP:366:CB:8183, V-A:ILE:538:CG2:4861, V-A:TYR:539:CG:4870, V-A:TYR:484:CZ:4344, H-B:TYR:539:OH:9850, V-B:GLU:543:CG:9879, V-A:GLU:543:CG:4905, V-A:GLU:543:C:4900, V-B:HIS:456:CE1:9040, H-A:TYR:539:OH:4876, V-A:ILE:538:CB:4860, V-A:TYR:484:CE2:4343, H-B:TYR:531:OH:9767, V-A:TYR:539:CD2:4872, V-B:GLU:543:CA:9876, V-A:GLY:544:CA:4912, V-A:HIS:456:CD2:4065, V-B:GLY:544:C:9884, V-A:GLY:544:C:4910, V-B:HIS:456:CD2:9039, V-B:GLU:543:C:9874, V-B:GLY:544:CA:9886, V-A:TYR:539:CA:4867, H-B:HIS:456:NE2:9041"]

$$$$
2aa_Ghoteimi_2023
     RDKit          3D

 48 53  0  0  0  0  0  0  0  0999 V2000
  133.3200  123.2590   59.7210 C   0  0  0  0  0  0  0  0  0  0  0  0
  133.5160  124.5040   58.8490 C   0  0  0  0  0  0  0  0  0  0  0  0
  132.4980  125.4510   59.1460 O   0  0  0  0  0  0  0  0  0  0  0  0
  131.8630  126.1320   58.1570 C   0  0  0  0  0  0  0  0  0  0  0  0
  131.9840  125.8610   56.9580 O   0  0  0  0  0  0  0  0  0  0  0  0
  130.9860  127.2390   58.6680 C   0  0  0  0  0  0  0  0  0  0  0  0
  129.8650  127.6860   57.9530 C   0  0  0  0  0  0  0  0  0  0  0  0
  129.0690  128.7110   58.4540 C   0  0  0  0  0  0  0  0  0  0  0  0
  129.3790  129.3150   59.6740 C   0  0  0  0  0  0  0  0  0  0  0  0
  128.5050  130.3390   60.0890 N   0  0  0  0  0  0  0  0  0  0  0  0
  128.7810  131.5550   60.6080 C   0  0  0  0  0  0  0  0  0  0  0  0
  129.9130  132.0070   60.7890 O   0  0  0  0  0  0  0  0  0  0  0  0
  127.5460  132.3960   60.9550 C   0  0  0  0  0  0  0  0  0  0  0  0
  126.9580  131.9100   62.1670 O   0  0  0  0  0  0  0  0  0  0  0  0
  127.3030  130.6570   62.6550 C   0  0  0  0  0  0  0  0  0  0  0  0
  127.3350  129.6150   61.7790 N   0  0  0  0  0  0  0  0  0  0  0  0
  127.6720  128.3780   62.2230 C   0  0  0  0  0  0  0  0  0  0  0  0
  127.6810  127.2810   61.2050 C   0  0  0  0  0  0  0  0  0  0  0  0
  128.4370  126.1230   61.4100 C   0  0  0  0  0  0  0  0  0  0  0  0
  128.4430  125.0960   60.4690 C   0  0  0  0  0  0  0  0  0  0  0  0
  127.6820  125.1850   59.2930 C   0  0  0  0  0  0  0  0  0  0  0  0
  127.6880  124.1680   58.3310 N   0  0  0  0  0  0  0  0  0  0  0  0
  128.9390  123.7340   57.6750 C   0  0  0  0  0  0  0  0  0  0  0  0
  128.7150  122.8760   56.4130 C   0  0  0  0  0  0  0  0  0  0  0  0
  127.8930  121.7630   56.7220 O   0  0  0  0  0  0  0  0  0  0  0  0
  126.6200  122.1730   57.1980 C   0  0  0  0  0  0  0  0  0  0  0  0
  126.7820  123.0110   58.4850 C   0  0  0  0  0  0  0  0  0  0  0  0
  126.9430  126.3580   59.0820 C   0  0  0  0  0  0  0  0  0  0  0  0
  126.9390  127.3850   60.0220 C   0  0  0  0  0  0  0  0  0  0  0  0
  127.9720  128.1500   63.5690 C   0  0  0  0  0  0  0  0  0  0  0  0
  127.9350  129.2020   64.4930 C   0  0  0  0  0  0  0  0  0  0  0  0
  128.2410  128.8920   65.9230 C   0  0  0  0  0  0  0  0  0  0  0  0
  128.0340  129.8560   66.9130 C   0  0  0  0  0  0  0  0  0  0  0  0
  128.3350  129.5810   68.2440 C   0  0  0  0  0  0  0  0  0  0  0  0
  128.8650  128.3370   68.6220 C   0  0  0  0  0  0  0  0  0  0  0  0
  129.1720  128.0380   69.9520 N   0  0  0  0  0  0  0  0  0  0  0  0
  130.5390  127.6640   70.3610 C   0  0  0  0  0  0  0  0  0  0  0  0
  130.7610  127.7190   71.8870 C   0  0  0  0  0  0  0  0  0  0  0  0
  129.7980  126.9100   72.5460 O   0  0  0  0  0  0  0  0  0  0  0  0
  128.4750  127.3500   72.2780 C   0  0  0  0  0  0  0  0  0  0  0  0
  128.1930  127.2850   70.7630 C   0  0  0  0  0  0  0  0  0  0  0  0
  129.0620  127.3740   67.6220 C   0  0  0  0  0  0  0  0  0  0  0  0
  128.7610  127.6490   66.2920 C   0  0  0  0  0  0  0  0  0  0  0  0
  127.6060  130.4940   64.0190 C   0  0  0  0  0  0  0  0  0  0  0  0
  127.5920  131.6620   64.9020 C   0  0  0  0  0  0  0  0  0  0  0  0
  127.5820  132.5840   65.6010 N   0  0  0  0  0  0  0  0  0  0  0  0
  130.4930  128.8690   60.3990 C   0  0  0  0  0  0  0  0  0  0  0  0
  131.2860  127.8410   59.8960 C   0  0  0  0  0  0  0  0  0  0  0  0
  1  2  1  0
  2  3  1  0
  3  4  1  0
  4  5  2  0
  4  6  1  0
  6  7  2  0
  7  8  1  0
  8  9  2  0
  9 10  1  0
 10 11  1  0
 11 12  2  0
 11 13  1  0
 13 14  1  0
 14 15  1  0
 15 16  2  0
 16 17  1  0
 17 18  1  0
 18 19  2  0
 19 20  1  0
 20 21  2  0
 21 22  1  0
 22 23  1  0
 23 24  1  0
 24 25  1  0
 25 26  1  0
 26 27  1  0
 21 28  1  0
 28 29  2  0
 17 30  2  0
 30 31  1  0
 31 32  1  0
 32 33  2  0
 33 34  1  0
 34 35  2  0
 35 36  1  0
 36 37  1  0
 37 38  1  0
 38 39  1  0
 39 40  1  0
 40 41  1  0
 35 42  1  0
 42 43  2  0
 31 44  2  0
 44 45  1  0
 45 46  3  0
  9 47  1  0
 47 48  2  0
 48  6  1  0
 44 15  1  0
 29 18  1  0
 43 32  1  0
 27 22  1  0
 41 36  1  0
M  END
>  <Binding energies>  (9) 
[0.79]

>  <Ligand effiencies>  (9) 
[0.016122448979591836]

>  <Interactions>  (9) 
["V-B:PRO:540:CA:9855, V-B:PRO:540:N:9856, V-A:GLU:543:CD:4906, V-B:GLU:543:CD:9880, V-A:ILE:369:CG2:3234, V-B:TYR:539:CD1:9845, V-B:TYR:539:CE1:9847, V-B:TYR:539:C:9839, V-A:ASP:366:CG:3210, V-B:TYR:539:CE2:9848, V-A:ASP:366:CB:3209, V-B:MET:535:CE:9807, V-A:TYR:539:CE1:4873, V-B:TYR:539:CZ:9849, V-B:ASP:366:CG:8184, H-A:ALA:541:N:4889, V-A:TYR:539:CD1:4871, H-A:HIS:456:NE2:4067, V-A:HIS:456:CE1:4066, V-A:ILE:369:CD1:3236, V-A:ASP:366:CA:3207, V-A:ALA:541:CB:4890, V-A:ILE:369:CB:3233, V-B:PRO:540:CB:9857, V-B:PRO:540:CD:9859, H-B:TYR:539:OH:9850, V-B:GLU:543:CG:9879, V-A:GLU:543:CB:4904, V-A:GLU:543:CG:4905, V-A:GLU:543:C:4900, V-B:HIS:456:CE1:9040, H-A:TYR:531:OH:4793, H-B:TYR:539:N:9842, V-B:TYR:539:CG:9844, V-B:TYR:539:CA:9841, V-B:TYR:539:CD2:9846, V-B:ILE:538:CB:9834, V-B:ILE:538:C:9830, V-B:ILE:538:CA:9832, H-B:TYR:484:OH:9319, V-A:GLY:544:CA:4912, V-A:HIS:456:CD2:4065, V-B:GLY:544:C:9884, V-A:GLY:544:C:4910, V-B:HIS:456:CD2:9039, V-B:GLU:543:C:9874, V-B:TYR:484:CZ:9318, V-B:TYR:484:CE2:9317, V-A:GLU:543:CA:4902"]

$$$$
2b_Ghoteimi_2023
     RDKit          3D

 42 47  0  0  0  0  0  0  0  0999 V2000
  130.6770  125.5240   59.2470 N   0  0  0  0  0  0  0  0  0  0  0  0
  130.4970  125.6720   60.3810 C   0  0  0  0  0  0  0  0  0  0  0  0
  130.2700  125.8530   61.8180 C   0  0  0  0  0  0  0  0  0  0  0  0
  130.4490  124.7720   62.7170 C   0  0  0  0  0  0  0  0  0  0  0  0
  130.8710  123.4020   62.2950 C   0  0  0  0  0  0  0  0  0  0  0  0
  132.1880  122.9820   62.4860 C   0  0  0  0  0  0  0  0  0  0  0  0
  132.5870  121.7070   62.0940 C   0  0  0  0  0  0  0  0  0  0  0  0
  131.6820  120.8240   61.4840 C   0  0  0  0  0  0  0  0  0  0  0  0
  132.0550  119.5360   61.0940 N   0  0  0  0  0  0  0  0  0  0  0  0
  131.0050  118.5230   60.8620 C   0  0  0  0  0  0  0  0  0  0  0  0
  131.5490  117.0800   60.8140 C   0  0  0  0  0  0  0  0  0  0  0  0
  132.5810  116.9780   59.8440 O   0  0  0  0  0  0  0  0  0  0  0  0
  133.6650  117.8460   60.1380 C   0  0  0  0  0  0  0  0  0  0  0  0
  133.1740  119.3090   60.1590 C   0  0  0  0  0  0  0  0  0  0  0  0
  130.3630  121.2570   61.2940 C   0  0  0  0  0  0  0  0  0  0  0  0
  129.9630  122.5300   61.6890 C   0  0  0  0  0  0  0  0  0  0  0  0
  130.2260  124.9940   64.0810 C   0  0  0  0  0  0  0  0  0  0  0  0
  129.8660  126.2640   64.5410 C   0  0  0  0  0  0  0  0  0  0  0  0
  129.6450  126.5610   65.9900 C   0  0  0  0  0  0  0  0  0  0  0  0
  130.0530  125.6550   66.9750 C   0  0  0  0  0  0  0  0  0  0  0  0
  129.8660  125.9320   68.3260 C   0  0  0  0  0  0  0  0  0  0  0  0
  129.2500  127.1230   68.7440 C   0  0  0  0  0  0  0  0  0  0  0  0
  129.0820  127.4290   70.0990 N   0  0  0  0  0  0  0  0  0  0  0  0
  127.9230  126.8880   70.8380 C   0  0  0  0  0  0  0  0  0  0  0  0
  127.6540  127.6070   72.1780 C   0  0  0  0  0  0  0  0  0  0  0  0
  128.8230  127.5890   72.9820 O   0  0  0  0  0  0  0  0  0  0  0  0
  129.9020  128.2540   72.3450 C   0  0  0  0  0  0  0  0  0  0  0  0
  130.2380  127.5590   71.0090 C   0  0  0  0  0  0  0  0  0  0  0  0
  128.8500  128.0320   67.7540 C   0  0  0  0  0  0  0  0  0  0  0  0
  129.0400  127.7550   66.4030 C   0  0  0  0  0  0  0  0  0  0  0  0
  129.6960  127.2990   63.6790 N   0  0  0  0  0  0  0  0  0  0  0  0
  129.8740  127.1000   62.3510 C   0  0  0  0  0  0  0  0  0  0  0  0
  129.6060  128.5600   61.3700 S   0  0  0  0  0  0  0  0  0  0  0  0
  130.8180  129.8070   61.8990 C   0  0  0  0  0  0  0  0  0  0  0  0
  130.8900  130.9870   60.9290 C   0  0  0  0  0  0  0  0  0  0  0  0
  130.4940  132.0950   61.2950 O   0  0  0  0  0  0  0  0  0  0  0  0
  131.3930  130.7060   59.7070 N   0  0  0  0  0  0  0  0  0  0  0  0
  131.5780  131.5860   58.6500 C   0  0  0  0  0  0  0  0  0  0  0  0
  132.7800  131.6960   57.9540 C   0  0  0  0  0  0  0  0  0  0  0  0
  132.5550  132.6600   56.9990 C   0  0  0  0  0  0  0  0  0  0  0  0
  131.2820  133.1070   57.1140 O   0  0  0  0  0  0  0  0  0  0  0  0
  130.6710  132.4170   58.1640 N   0  0  0  0  0  0  0  0  0  0  0  0
  1  2  3  0
  2  3  1  0
  3  4  2  0
  4  5  1  0
  5  6  2  0
  6  7  1  0
  7  8  2  0
  8  9  1  0
  9 10  1  0
 10 11  1  0
 11 12  1  0
 12 13  1  0
 13 14  1  0
  8 15  1  0
 15 16  2  0
  4 17  1  0
 17 18  2  0
 18 19  1  0
 19 20  2  0
 20 21  1  0
 21 22  2  0
 22 23  1  0
 23 24  1  0
 24 25  1  0
 25 26  1  0
 26 27  1  0
 27 28  1  0
 22 29  1  0
 29 30  2  0
 18 31  1  0
 31 32  2  0
 32 33  1  0
 33 34  1  0
 34 35  1  0
 35 36  2  0
 35 37  1  0
 37 38  1  0
 38 39  1  0
 39 40  2  0
 40 41  1  0
 41 42  1  0
 32  3  1  0
 42 38  2  0
 16  5  1  0
 30 19  1  0
 14  9  1  0
 28 23  1  0
M  END
>  <Binding energies>  (10) 
[-4.71]

>  <Ligand effiencies>  (10) 
[-0.10953488372093023]

>  <Interactions>  (10) 
["V-A:PRO:482:CG:4324, V-A:LEU:373:CD1:3277, V-A:LEU:475:CD2:4256, V-A:GLU:543:CD:4906, V-B:GLU:543:CD:9880, V-A:PRO:482:CB:4323, V-A:SER:385:CB:3406, V-A:ILE:369:CG2:3234, V-B:TYR:539:CD1:9845, V-A:SER:385:CA:3404, V-B:ALA:541:CB:9864, V-B:TYR:539:CE1:9847, V-A:LEU:363:CD1:3186, V-A:PRO:540:CA:4881, V-A:PRO:540:CB:4883, V-A:PRO:540:N:4882, H-A:TYR:539:N:4868, H-A:ALA:541:N:4889, V-B:GLU:543:CB:9878, V-A:HIS:456:CE1:4066, H-A:ASP:366:OD2:3212, V-B:GLU:543:CG:9879, V-A:GLU:543:CB:4904, V-A:GLU:543:CG:4905, V-B:HIS:456:CE1:9040, V-A:ILE:538:CB:4860, V-A:PRO:540:CD:4885, V-A:VAL:384:C:3394, V-A:LYS:547:CE:4948, V-A:GLY:544:CA:4912, V-A:HIS:456:CD2:4065, V-B:GLY:544:C:9884, V-A:GLY:544:C:4910, V-B:HIS:456:CD2:9039, V-B:GLU:543:C:9874, V-B:HIS:456:CG:9037, V-B:GLY:544:CA:9886, V-A:PRO:540:CG:4884"]

$$$$
2c_Ghoteimi_2023
     RDKit          3D

 42 47  0  0  0  0  0  0  0  0999 V2000
  131.7310  123.9190   59.8630 N   0  0  0  0  0  0  0  0  0  0  0  0
  131.5550  124.3240   60.9320 C   0  0  0  0  0  0  0  0  0  0  0  0
  131.3310  124.8430   62.2850 C   0  0  0  0  0  0  0  0  0  0  0  0
  131.0460  126.2150   62.4940 C   0  0  0  0  0  0  0  0  0  0  0  0
  130.9560  127.2230   61.3940 C   0  0  0  0  0  0  0  0  0  0  0  0
  130.6990  128.5630   61.6890 C   0  0  0  0  0  0  0  0  0  0  0  0
  130.6180  129.5090   60.6700 C   0  0  0  0  0  0  0  0  0  0  0  0
  130.7770  129.1380   59.3260 C   0  0  0  0  0  0  0  0  0  0  0  0
  130.7200  130.0730   58.2900 N   0  0  0  0  0  0  0  0  0  0  0  0
  129.5470  130.9630   58.1840 C   0  0  0  0  0  0  0  0  0  0  0  0
  129.4280  131.6550   56.8090 C   0  0  0  0  0  0  0  0  0  0  0  0
  130.6260  132.3580   56.5140 O   0  0  0  0  0  0  0  0  0  0  0  0
  131.7470  131.4890   56.4710 C   0  0  0  0  0  0  0  0  0  0  0  0
  131.9260  130.7920   57.8360 C   0  0  0  0  0  0  0  0  0  0  0  0
  131.0310  127.7880   59.0400 C   0  0  0  0  0  0  0  0  0  0  0  0
  131.1140  126.8440   60.0590 C   0  0  0  0  0  0  0  0  0  0  0  0
  130.8360  126.6610   63.8050 C   0  0  0  0  0  0  0  0  0  0  0  0
  130.8810  125.7620   64.8740 C   0  0  0  0  0  0  0  0  0  0  0  0
  130.6460  126.1840   66.2890 C   0  0  0  0  0  0  0  0  0  0  0  0
  131.5850  126.9690   66.9650 C   0  0  0  0  0  0  0  0  0  0  0  0
  131.3700  127.3710   68.2820 C   0  0  0  0  0  0  0  0  0  0  0  0
  130.2100  126.9900   68.9750 C   0  0  0  0  0  0  0  0  0  0  0  0
  129.9670  127.4060   70.2890 N   0  0  0  0  0  0  0  0  0  0  0  0
  128.6520  127.1470   70.9100 C   0  0  0  0  0  0  0  0  0  0  0  0
  128.3950  127.9800   72.1840 C   0  0  0  0  0  0  0  0  0  0  0  0
  129.4420  127.7770   73.1170 O   0  0  0  0  0  0  0  0  0  0  0  0
  130.6960  128.1760   72.5860 C   0  0  0  0  0  0  0  0  0  0  0  0
  131.0220  127.3540   71.3220 C   0  0  0  0  0  0  0  0  0  0  0  0
  129.2660  126.2140   68.2890 C   0  0  0  0  0  0  0  0  0  0  0  0
  129.4810  125.8150   66.9730 C   0  0  0  0  0  0  0  0  0  0  0  0
  131.1510  124.4470   64.6720 N   0  0  0  0  0  0  0  0  0  0  0  0
  131.3890  123.9980   63.4160 C   0  0  0  0  0  0  0  0  0  0  0  0
  131.7370  122.2550   63.3380 S   0  0  0  0  0  0  0  0  0  0  0  0
  131.3130  121.6890   61.6630 C   0  0  0  0  0  0  0  0  0  0  0  0
  129.8720  122.0380   61.2860 C   0  0  0  0  0  0  0  0  0  0  0  0
  129.0100  122.0770   62.1660 O   0  0  0  0  0  0  0  0  0  0  0  0
  129.6540  122.2780   59.9760 N   0  0  0  0  0  0  0  0  0  0  0  0
  128.4490  122.6290   59.3860 C   0  0  0  0  0  0  0  0  0  0  0  0
  127.3530  123.0540   59.9770 N   0  0  0  0  0  0  0  0  0  0  0  0
  126.3960  123.3000   59.1050 C   0  0  0  0  0  0  0  0  0  0  0  0
  126.7080  123.0720   57.7680 C   0  0  0  0  0  0  0  0  0  0  0  0
  128.3470  122.5050   57.6590 S   0  0  0  0  0  0  0  0  0  0  0  0
  1  2  3  0
  2  3  1  0
  3  4  2  0
  4  5  1  0
  5  6  2  0
  6  7  1  0
  7  8  2  0
  8  9  1  0
  9 10  1  0
 10 11  1  0
 11 12  1  0
 12 13  1  0
 13 14  1  0
  8 15  1  0
 15 16  2  0
  4 17  1  0
 17 18  2  0
 18 19  1  0
 19 20  2  0
 20 21  1  0
 21 22  2  0
 22 23  1  0
 23 24  1  0
 24 25  1  0
 25 26  1  0
 26 27  1  0
 27 28  1  0
 22 29  1  0
 29 30  2  0
 18 31  1  0
 31 32  2  0
 32 33  1  0
 33 34  1  0
 34 35  1  0
 35 36  2  0
 35 37  1  0
 37 38  1  0
 38 39  2  0
 39 40  1  0
 40 41  2  0
 41 42  1  0
 32  3  1  0
 42 38  1  0
 16  5  1  0
 30 19  1  0
 14  9  1  0
 28 23  1  0
M  END
>  <Binding energies>  (11) 
[-4.59]

>  <Ligand effiencies>  (11) 
[-0.10674418604651162]

>  <Interactions>  (11) 
["V-B:PRO:540:CA:9855, V-B:PRO:540:N:9856, V-A:LEU:475:CD2:4256, V-A:GLU:543:CD:4906, V-B:GLU:543:CD:9880, V-B:TYR:539:CD1:9845, V-A:ARG:545:CZ:4924, V-B:ALA:541:CB:9864, V-B:TYR:539:CE1:9847, V-B:TYR:539:C:9839, V-A:ASP:366:CG:3210, V-A:TYR:531:CE2:4791, V-A:MET:535:CE:4833, V-A:TYR:531:CZ:4792, H-A:TYR:539:N:4868, V-B:TYR:539:CZ:9849, V-A:ARG:545:CD:4921, H-A:TYR:484:OH:4345, V-B:GLU:543:CB:9878, V-A:HIS:456:CE1:4066, V-A:ARG:545:CG:4920, H-B:ALA:541:N:9863, V-B:PRO:540:CB:9857, V-B:GLU:543:CG:9879, V-A:GLU:543:CG:4905, V-B:HIS:456:CE1:9040, H-B:TYR:539:O:9840, V-B:TYR:539:CG:9844, V-B:TYR:539:CA:9841, H-A:LYS:547:NZ:4949, V-A:LYS:547:CE:4948, V-A:GLY:544:CA:4912, V-A:HIS:456:CD2:4065, V-A:GLY:544:C:4910, V-B:HIS:456:CD2:9039, V-B:GLU:543:C:9874, V-B:HIS:456:CG:9037, V-A:HIS:456:CG:4063"]

$$$$
2j_Grossjean_2025
     RDKit          3D

 23 24  0  0  0  0  0  0  0  0999 V2000
  132.5770  131.2550   62.6650 C   0  0  0  0  0  0  0  0  0  0  0  0
  131.9220  131.6100   61.3430 C   0  0  0  0  0  0  0  0  0  0  0  0
  132.6000  131.4750   60.1340 C   0  0  0  0  0  0  0  0  0  0  0  0
  131.9510  131.8130   58.9370 C   0  0  0  0  0  0  0  0  0  0  0  0
  132.7160  131.6560   57.6080 C   0  0  0  0  0  0  0  0  0  0  0  0
  132.0210  130.8850   56.7710 F   0  0  0  0  0  0  0  0  0  0  0  0
  132.9010  132.8510   57.0440 F   0  0  0  0  0  0  0  0  0  0  0  0
  133.9170  131.0970   57.7670 F   0  0  0  0  0  0  0  0  0  0  0  0
  130.6160  132.2850   59.0010 C   0  0  0  0  0  0  0  0  0  0  0  0
  129.8890  132.6530   57.7820 C   0  0  0  0  0  0  0  0  0  0  0  0
  129.3160  132.9430   56.8190 N   0  0  0  0  0  0  0  0  0  0  0  0
  130.0040  132.3920   60.2730 C   0  0  0  0  0  0  0  0  0  0  0  0
  128.3260  132.9730   60.4740 S   0  0  0  0  0  0  0  0  0  0  0  0
  127.4940  131.9130   61.7050 C   0  0  0  0  0  0  0  0  0  0  0  0
  127.7730  130.4110   61.5580 C   0  0  0  0  0  0  0  0  0  0  0  0
  126.9830  129.6790   60.9580 O   0  0  0  0  0  0  0  0  0  0  0  0
  128.9190  129.9880   62.1380 N   0  0  0  0  0  0  0  0  0  0  0  0
  129.4100  128.6890   62.1550 C   0  0  0  0  0  0  0  0  0  0  0  0
  130.6080  128.2750   61.8010 N   0  0  0  0  0  0  0  0  0  0  0  0
  130.7330  126.9710   61.9470 C   0  0  0  0  0  0  0  0  0  0  0  0
  129.6170  126.2950   62.4320 C   0  0  0  0  0  0  0  0  0  0  0  0
  128.3390  127.4420   62.7070 S   0  0  0  0  0  0  0  0  0  0  0  0
  130.6490  132.0570   61.4200 N   0  0  0  0  0  0  0  0  0  0  0  0
  1  2  1  0
  2  3  2  0
  3  4  1  0
  4  5  1  0
  5  6  1  0
  5  7  1  0
  5  8  1  0
  4  9  2  0
  9 10  1  0
 10 11  3  0
  9 12  1  0
 12 13  1  0
 13 14  1  0
 14 15  1  0
 15 16  2  0
 15 17  1  0
 17 18  1  0
 18 19  2  0
 19 20  1  0
 20 21  2  0
 21 22  1  0
 12 23  2  0
 23  2  1  0
 22 18  1  0
M  END
>  <Binding energies>  (12) 
[-5.85]

>  <Ligand effiencies>  (12) 
[-0.24375]

>  <Interactions>  (12) 
["V-A:GLU:543:CD:4906, V-B:GLU:543:CD:9880, V-A:ARG:545:CZ:4924, V-A:LEU:363:CA:3182, V-A:ASP:366:CG:3210, V-A:TYR:531:CE2:4791, V-A:ASP:366:CB:3209, V-A:TYR:531:CZ:4792, V-A:LEU:363:CD1:3186, V-A:PRO:540:CA:4881, V-A:TYR:539:C:4865, V-A:PRO:540:CB:4883, V-A:PRO:540:N:4882, H-A:TYR:539:N:4868, H-A:ARG:545:NH2:4926, H-A:ALA:541:N:4889, H-A:GLU:543:OE1:4907, H-A:GLU:543:OE2:4908, V-A:PRO:540:C:4879, V-A:LEU:363:CB:3184, V-A:ILE:538:CB:4860, V-A:PRO:540:CD:4885, V-A:ASN:362:CB:3173, V-A:PRO:540:CG:4884"]

$$$$
3ab_Grossjean_2025
     RDKit          3D

 33 35  0  0  0  0  0  0  0  0999 V2000
  126.9970  128.3470   74.2490 C   0  0  0  0  0  0  0  0  0  0  0  0
  127.7340  127.5920   73.2980 O   0  0  0  0  0  0  0  0  0  0  0  0
  128.7970  128.1320   72.6490 C   0  0  0  0  0  0  0  0  0  0  0  0
  129.6150  128.8820   73.1900 O   0  0  0  0  0  0  0  0  0  0  0  0
  128.8840  127.7220   71.2070 C   0  0  0  0  0  0  0  0  0  0  0  0
  127.7490  127.3410   70.4740 C   0  0  0  0  0  0  0  0  0  0  0  0
  127.8590  126.9670   69.1380 C   0  0  0  0  0  0  0  0  0  0  0  0
  129.1130  126.9670   68.5080 C   0  0  0  0  0  0  0  0  0  0  0  0
  129.3400  126.6140   67.1640 N   0  0  0  0  0  0  0  0  0  0  0  0
  130.4760  126.2180   66.5520 C   0  0  0  0  0  0  0  0  0  0  0  0
  131.5770  126.1030   67.0910 O   0  0  0  0  0  0  0  0  0  0  0  0
  130.3410  125.8980   65.0620 C   0  0  0  0  0  0  0  0  0  0  0  0
  131.7800  124.9880   64.4240 S   0  0  0  0  0  0  0  0  0  0  0  0
  131.3890  124.4630   62.7680 C   0  0  0  0  0  0  0  0  0  0  0  0
  131.6200  123.1470   62.5480 N   0  0  0  0  0  0  0  0  0  0  0  0
  131.3610  122.6090   61.3280 C   0  0  0  0  0  0  0  0  0  0  0  0
  131.6420  121.1450   61.1670 C   0  0  0  0  0  0  0  0  0  0  0  0
  130.6160  120.1970   61.3100 C   0  0  0  0  0  0  0  0  0  0  0  0
  130.8710  118.8360   61.1610 C   0  0  0  0  0  0  0  0  0  0  0  0
  132.1600  118.4030   60.8680 C   0  0  0  0  0  0  0  0  0  0  0  0
  133.1950  119.3210   60.7260 C   0  0  0  0  0  0  0  0  0  0  0  0
  132.9360  120.6800   60.8750 C   0  0  0  0  0  0  0  0  0  0  0  0
  130.8760  123.4040   60.2840 C   0  0  0  0  0  0  0  0  0  0  0  0
  130.6460  124.7740   60.4810 C   0  0  0  0  0  0  0  0  0  0  0  0
  130.1170  125.6150   59.3040 C   0  0  0  0  0  0  0  0  0  0  0  0
  130.9410  126.6090   58.9660 F   0  0  0  0  0  0  0  0  0  0  0  0
  129.9560  124.8470   58.2250 F   0  0  0  0  0  0  0  0  0  0  0  0
  128.9420  126.1590   59.6250 F   0  0  0  0  0  0  0  0  0  0  0  0
  130.9160  125.3290   61.7570 C   0  0  0  0  0  0  0  0  0  0  0  0
  130.7480  126.7640   62.0000 C   0  0  0  0  0  0  0  0  0  0  0  0
  130.6140  127.8980   62.1890 N   0  0  0  0  0  0  0  0  0  0  0  0
  130.2420  127.3510   69.2330 C   0  0  0  0  0  0  0  0  0  0  0  0
  130.1300  127.7230   70.5690 C   0  0  0  0  0  0  0  0  0  0  0  0
  1  2  1  0
  2  3  1  0
  3  4  2  0
  3  5  1  0
  5  6  2  0
  6  7  1  0
  7  8  2  0
  8  9  1  0
  9 10  1  0
 10 11  2  0
 10 12  1  0
 12 13  1  0
 13 14  1  0
 14 15  2  0
 15 16  1  0
 16 17  1  0
 17 18  2  0
 18 19  1  0
 19 20  2  0
 20 21  1  0
 21 22  2  0
 16 23  2  0
 23 24  1  0
 24 25  1  0
 25 26  1  0
 25 27  1  0
 25 28  1  0
 24 29  2  0
 29 30  1  0
 30 31  3  0
  8 32  1  0
 32 33  2  0
 33  5  1  0
 29 14  1  0
 22 17  1  0
M  END
>  <Binding energies>  (13) 
[-7.01]

>  <Ligand effiencies>  (13) 
[-0.2061764705882353]

>  <Interactions>  (13) 
["V-A:PRO:482:CG:4324, V-A:LEU:373:CD1:3277, V-A:LEU:475:CD2:4256, V-A:GLU:543:CD:4906, V-B:GLU:543:CD:9880, H-B:GLU:543:OE1:9881, V-A:PRO:482:CB:4323, H-B:GLU:543:OE2:9882, V-A:SER:385:CB:3406, V-A:ILE:369:CG2:3234, V-B:TYR:539:CD1:9845, V-A:SER:385:CA:3404, V-B:ALA:541:CB:9864, V-B:TYR:539:CE1:9847, V-A:ASP:366:CG:3210, H-A:ARG:545:NH2:4926, H-A:HIS:456:NE2:4067, H-A:TYR:484:OH:4345, V-B:GLU:543:CB:9878, V-A:HIS:456:CE1:4066, H-A:GLU:543:OE2:4908, V-B:GLU:543:CG:9879, V-A:GLU:543:C:4900, V-B:HIS:456:CE1:9040, H-A:LYS:547:NZ:4949, V-B:GLY:544:C:9884, V-A:GLY:544:C:4910, V-B:HIS:456:CD2:9039, V-B:LYS:547:CE:9922, V-B:GLU:543:C:9874, V-B:HIS:456:CG:9037, V-B:GLY:544:CA:9886, H-B:LYS:547:NZ:9923, V-B:HIS:456:CB:9036"]

$$$$
3ac_Grossjean_2025
     RDKit          3D

 31 33  0  0  0  0  0  0  0  0999 V2000
  128.5890  128.1650   73.0960 C   0  0  0  0  0  0  0  0  0  0  0  0
  127.7500  127.5810   72.1040 O   0  0  0  0  0  0  0  0  0  0  0  0
  128.2510  127.3730   70.8340 C   0  0  0  0  0  0  0  0  0  0  0  0
  129.6200  127.5760   70.6640 C   0  0  0  0  0  0  0  0  0  0  0  0
  130.2160  127.3860   69.4210 C   0  0  0  0  0  0  0  0  0  0  0  0
  129.4460  126.9970   68.3230 C   0  0  0  0  0  0  0  0  0  0  0  0
  130.1410  126.8100   67.1140 N   0  0  0  0  0  0  0  0  0  0  0  0
  130.5590  125.6610   66.5410 C   0  0  0  0  0  0  0  0  0  0  0  0
  130.3550  124.5300   66.9840 O   0  0  0  0  0  0  0  0  0  0  0  0
  131.3420  125.8210   65.2370 C   0  0  0  0  0  0  0  0  0  0  0  0
  130.2570  126.1830   63.8230 S   0  0  0  0  0  0  0  0  0  0  0  0
  130.6910  125.0970   62.4770 C   0  0  0  0  0  0  0  0  0  0  0  0
  129.6340  124.7670   61.6960 N   0  0  0  0  0  0  0  0  0  0  0  0
  129.8120  123.9500   60.6260 C   0  0  0  0  0  0  0  0  0  0  0  0
  128.5900  123.6280   59.8180 C   0  0  0  0  0  0  0  0  0  0  0  0
  128.7040  123.0560   58.5410 C   0  0  0  0  0  0  0  0  0  0  0  0
  127.5740  122.7490   57.7880 C   0  0  0  0  0  0  0  0  0  0  0  0
  126.3090  123.0140   58.3040 C   0  0  0  0  0  0  0  0  0  0  0  0
  126.1680  123.5850   59.5640 C   0  0  0  0  0  0  0  0  0  0  0  0
  127.3020  123.8900   60.3130 C   0  0  0  0  0  0  0  0  0  0  0  0
  131.0740  123.4270   60.3260 C   0  0  0  0  0  0  0  0  0  0  0  0
  132.1800  123.7350   61.1310 C   0  0  0  0  0  0  0  0  0  0  0  0
  133.5520  123.1330   60.7680 C   0  0  0  0  0  0  0  0  0  0  0  0
  133.4770  122.2270   59.7910 F   0  0  0  0  0  0  0  0  0  0  0  0
  134.3830  124.0920   60.3570 F   0  0  0  0  0  0  0  0  0  0  0  0
  134.0790  122.5320   61.8350 F   0  0  0  0  0  0  0  0  0  0  0  0
  131.9890  124.5840   62.2510 C   0  0  0  0  0  0  0  0  0  0  0  0
  133.0970  124.8710   63.1640 C   0  0  0  0  0  0  0  0  0  0  0  0
  133.9730  125.0970   63.8860 N   0  0  0  0  0  0  0  0  0  0  0  0
  128.0690  126.7830   68.4880 C   0  0  0  0  0  0  0  0  0  0  0  0
  127.4770  126.9730   69.7330 C   0  0  0  0  0  0  0  0  0  0  0  0
  1  2  1  0
  2  3  1  0
  3  4  2  0
  4  5  1  0
  5  6  2  0
  6  7  1  0
  7  8  1  0
  8  9  2  0
  8 10  1  0
 10 11  1  0
 11 12  1  0
 12 13  2  0
 13 14  1  0
 14 15  1  0
 15 16  2  0
 16 17  1  0
 17 18  2  0
 18 19  1  0
 19 20  2  0
 14 21  2  0
 21 22  1  0
 22 23  1  0
 23 24  1  0
 23 25  1  0
 23 26  1  0
 22 27  2  0
 27 28  1  0
 28 29  3  0
  6 30  1  0
 30 31  2  0
 31  3  1  0
 27 12  1  0
 20 15  1  0
M  END
>  <Binding energies>  (14) 
[-7.14]

>  <Ligand effiencies>  (14) 
[-0.223125]

>  <Interactions>  (14) 
["V-B:PRO:540:CA:9855, V-B:PRO:540:N:9856, V-A:GLU:543:CD:4906, V-B:GLU:543:CD:9880, H-B:GLU:543:OE2:9882, V-A:ILE:369:CG2:3234, V-A:GLY:454:CA:4046, V-B:TYR:539:CD1:9845, V-A:ARG:545:CZ:4924, H-A:GLY:454:N:4047, V-B:TYR:539:CE1:9847, V-B:TYR:539:C:9839, V-A:ASP:366:CG:3210, V-B:TYR:539:CZ:9849, H-A:ARG:545:NH2:4926, H-A:HIS:456:NE2:4067, H-A:TYR:484:OH:4345, H-A:GLU:543:OE1:4907, V-B:GLU:543:CB:9878, V-A:HIS:456:CE1:4066, H-A:GLU:543:OE2:4908, V-A:ILE:369:CD1:3236, V-A:ILE:369:CB:3233, H-A:ARG:545:NE:4922, H-A:ARG:545:NH1:4925, V-B:PRO:540:CB:9857, V-B:PRO:540:CD:9859, V-B:GLU:543:CG:9879, V-A:GLU:543:CG:4905, V-B:HIS:456:CE1:9040, V-A:ILE:369:CG1:3235, V-B:GLY:544:C:9884, V-B:HIS:456:CD2:9039, V-B:GLU:543:C:9874, V-B:GLY:544:CA:9886, H-B:HIS:456:NE2:9041"]

$$$$
3af_Grossjean_2025
     RDKit          3D

 29 31  0  0  0  0  0  0  0  0999 V2000
  129.9910  126.0100   62.6050 N   0  0  0  0  0  0  0  0  0  0  0  0
  130.3060  124.9250   62.3560 C   0  0  0  0  0  0  0  0  0  0  0  0
  130.7070  123.5510   62.0410 C   0  0  0  0  0  0  0  0  0  0  0  0
  132.0730  123.1800   62.0350 C   0  0  0  0  0  0  0  0  0  0  0  0
  133.2040  124.1620   62.4000 C   0  0  0  0  0  0  0  0  0  0  0  0
  133.2250  124.4680   63.6990 F   0  0  0  0  0  0  0  0  0  0  0  0
  134.3870  123.6290   62.0930 F   0  0  0  0  0  0  0  0  0  0  0  0
  133.0550  125.3030   61.7260 F   0  0  0  0  0  0  0  0  0  0  0  0
  132.4110  121.8670   61.6740 C   0  0  0  0  0  0  0  0  0  0  0  0
  131.4120  120.9510   61.3270 C   0  0  0  0  0  0  0  0  0  0  0  0
  131.7180  119.5410   60.9160 C   0  0  0  0  0  0  0  0  0  0  0  0
  130.7010  118.5750   60.8550 C   0  0  0  0  0  0  0  0  0  0  0  0
  130.9780  117.2650   60.4710 C   0  0  0  0  0  0  0  0  0  0  0  0
  132.2800  116.9040   60.1410 C   0  0  0  0  0  0  0  0  0  0  0  0
  133.3050  117.8430   60.1900 C   0  0  0  0  0  0  0  0  0  0  0  0
  133.0240  119.1510   60.5740 C   0  0  0  0  0  0  0  0  0  0  0  0
  130.1040  121.3110   61.3310 N   0  0  0  0  0  0  0  0  0  0  0  0
  129.7520  122.5670   61.6980 C   0  0  0  0  0  0  0  0  0  0  0  0
  127.9930  122.8470   61.6550 S   0  0  0  0  0  0  0  0  0  0  0  0
  127.5500  123.3890   59.9770 C   0  0  0  0  0  0  0  0  0  0  0  0
  128.7610  123.3980   59.0440 C   0  0  0  0  0  0  0  0  0  0  0  0
  128.8800  122.5030   58.2080 O   0  0  0  0  0  0  0  0  0  0  0  0
  129.6270  124.4180   59.2310 N   0  0  0  0  0  0  0  0  0  0  0  0
  130.8290  124.7110   58.5560 C   0  0  0  0  0  0  0  0  0  0  0  0
  130.9640  125.5810   57.4590 C   0  0  0  0  0  0  0  0  0  0  0  0
  132.2210  125.7770   56.8840 C   0  0  0  0  0  0  0  0  0  0  0  0
  133.3150  125.0970   57.4190 C   0  0  0  0  0  0  0  0  0  0  0  0
  133.2120  124.2530   58.4760 N   0  0  0  0  0  0  0  0  0  0  0  0
  131.9830  124.0730   59.0240 C   0  0  0  0  0  0  0  0  0  0  0  0
  1  2  3  0
  2  3  1  0
  3  4  2  0
  4  5  1  0
  5  6  1  0
  5  7  1  0
  5  8  1  0
  4  9  1  0
  9 10  2  0
 10 11  1  0
 11 12  2  0
 12 13  1  0
 13 14  2  0
 14 15  1  0
 15 16  2  0
 10 17  1  0
 17 18  2  0
 18 19  1  0
 19 20  1  0
 20 21  1  0
 21 22  2  0
 21 23  1  0
 23 24  1  0
 24 25  2  0
 25 26  1  0
 26 27  2  0
 27 28  1  0
 28 29  2  0
 18  3  1  0
 29 24  1  0
 16 11  1  0
M  END
>  <Binding energies>  (15) 
[-7.19]

>  <Ligand effiencies>  (15) 
[-0.23966666666666667]

>  <Interactions>  (15) 
["V-A:PRO:482:CG:4324, V-A:LEU:373:CD1:3277, V-B:PRO:540:CA:9855, V-A:LEU:475:CD2:4256, V-A:PRO:482:CB:4323, V-A:SER:385:CB:3406, V-A:ILE:369:CG2:3234, V-B:TYR:539:CB:9843, V-A:GLY:454:CA:4046, V-B:TYR:539:CD1:9845, V-A:ARG:545:CZ:4924, V-A:SER:385:CA:3404, V-B:ALA:541:CB:9864, V-B:TYR:539:CE1:9847, V-A:ASP:366:CG:3210, V-A:ASP:366:CB:3209, V-A:TYR:531:CZ:4792, V-B:TYR:539:CZ:9849, V-A:GLY:453:C:4039, V-A:GLY:453:CA:4041, V-A:ASP:366:C:3205, V-A:ILE:369:CD1:3236, V-A:ASP:366:CA:3207, H-B:ALA:541:N:9863, H-B:TYR:539:OH:9850, V-A:TYR:531:CE1:4790"]

$$$$
3ag_Grossjean_2025
     RDKit          3D

 30 32  0  0  0  0  0  0  0  0999 V2000
  133.5430  125.1060   64.5110 N   0  0  0  0  0  0  0  0  0  0  0  0
  132.8700  124.8180   63.6140 C   0  0  0  0  0  0  0  0  0  0  0  0
  132.0200  124.4510   62.4780 C   0  0  0  0  0  0  0  0  0  0  0  0
  132.3510  123.3480   61.6530 C   0  0  0  0  0  0  0  0  0  0  0  0
  133.5680  122.4420   61.9250 C   0  0  0  0  0  0  0  0  0  0  0  0
  134.7110  123.1240   62.0110 F   0  0  0  0  0  0  0  0  0  0  0  0
  133.4000  121.7900   63.0750 F   0  0  0  0  0  0  0  0  0  0  0  0
  133.7080  121.5530   60.9400 F   0  0  0  0  0  0  0  0  0  0  0  0
  131.5350  123.0690   60.5460 C   0  0  0  0  0  0  0  0  0  0  0  0
  130.4280  123.8760   60.2620 C   0  0  0  0  0  0  0  0  0  0  0  0
  129.5250  123.6270   59.0930 C   0  0  0  0  0  0  0  0  0  0  0  0
  129.7940  124.2070   57.8430 C   0  0  0  0  0  0  0  0  0  0  0  0
  128.9600  123.9790   56.7520 C   0  0  0  0  0  0  0  0  0  0  0  0
  127.8410  123.1660   56.8970 C   0  0  0  0  0  0  0  0  0  0  0  0
  127.5500  122.5810   58.1260 C   0  0  0  0  0  0  0  0  0  0  0  0
  128.3860  122.8120   59.2140 C   0  0  0  0  0  0  0  0  0  0  0  0
  130.1070  124.9260   61.0630 N   0  0  0  0  0  0  0  0  0  0  0  0
  130.8690  125.2010   62.1490 C   0  0  0  0  0  0  0  0  0  0  0  0
  130.2980  126.6060   63.0800 S   0  0  0  0  0  0  0  0  0  0  0  0
  129.4920  127.7400   61.9100 C   0  0  0  0  0  0  0  0  0  0  0  0
  130.5000  128.6300   61.1800 C   0  0  0  0  0  0  0  0  0  0  0  0
  130.9920  128.2540   60.1140 O   0  0  0  0  0  0  0  0  0  0  0  0
  130.7890  129.8060   61.7620 N   0  0  0  0  0  0  0  0  0  0  0  0
  131.6940  130.8210   61.2220 C   0  0  0  0  0  0  0  0  0  0  0  0
  131.2300  131.4290   59.9030 C   0  0  0  0  0  0  0  0  0  0  0  0
  129.9530  131.9880   59.8070 C   0  0  0  0  0  0  0  0  0  0  0  0
  129.5360  132.5710   58.6130 C   0  0  0  0  0  0  0  0  0  0  0  0
  130.4030  132.6020   57.5220 C   0  0  0  0  0  0  0  0  0  0  0  0
  131.6820  132.0600   57.6150 C   0  0  0  0  0  0  0  0  0  0  0  0
  132.0990  131.4770   58.8090 C   0  0  0  0  0  0  0  0  0  0  0  0
  1  2  3  0
  2  3  1  0
  3  4  2  0
  4  5  1  0
  5  6  1  0
  5  7  1  0
  5  8  1  0
  4  9  1  0
  9 10  2  0
 10 11  1  0
 11 12  2  0
 12 13  1  0
 13 14  2  0
 14 15  1  0
 15 16  2  0
 10 17  1  0
 17 18  2  0
 18 19  1  0
 19 20  1  0
 20 21  1  0
 21 22  2  0
 21 23  1  0
 23 24  1  0
 24 25  1  0
 25 26  2  0
 26 27  1  0
 27 28  2  0
 28 29  1  0
 29 30  2  0
 18  3  1  0
 30 25  1  0
 16 11  1  0
M  END
>  <Binding energies>  (16) 
[-7.53]

>  <Ligand effiencies>  (16) 
[-0.24290322580645163]

>  <Interactions>  (16) 
["V-B:PRO:540:CA:9855, V-B:PRO:540:N:9856, V-A:LEU:475:CD2:4256, V-A:GLU:543:CD:4906, V-A:ILE:369:CG2:3234, V-A:GLY:454:CA:4046, V-B:TYR:539:CD1:9845, V-A:ARG:545:CZ:4924, H-A:GLY:454:N:4047, V-B:TYR:539:CE1:9847, V-B:TYR:539:C:9839, V-B:MET:535:CE:9807, V-A:PRO:540:CA:4881, V-A:TYR:539:C:4865, V-A:PRO:540:CB:4883, V-A:PRO:540:N:4882, V-A:TYR:539:CE1:4873, V-B:TYR:539:CZ:9849, H-A:ARG:545:NH2:4926, V-A:TYR:539:CD1:4871, V-A:GLY:453:C:4039, V-A:GLY:453:CA:4041, H-A:TYR:484:OH:4345, H-A:GLU:543:OE1:4907, H-A:GLU:543:OE2:4908, V-A:ILE:369:CD1:3236, H-A:ARG:545:NE:4922, V-A:PRO:540:CD:4885"]

$$$$
3bc_Grossjean_2025
     RDKit          3D

 28 30  0  0  0  0  0  0  0  0999 V2000
  127.3410  128.8550   74.6620 C   0  0  0  0  0  0  0  0  0  0  0  0
  128.6630  128.4790   74.2910 O   0  0  0  0  0  0  0  0  0  0  0  0
  128.9070  128.0710   72.9930 C   0  0  0  0  0  0  0  0  0  0  0  0
  127.8010  127.6480   72.2560 C   0  0  0  0  0  0  0  0  0  0  0  0
  127.9470  127.2180   70.9400 C   0  0  0  0  0  0  0  0  0  0  0  0
  129.2100  127.1980   70.3440 C   0  0  0  0  0  0  0  0  0  0  0  0
  129.2570  126.7600   69.0070 N   0  0  0  0  0  0  0  0  0  0  0  0
  130.1360  127.0860   68.0350 C   0  0  0  0  0  0  0  0  0  0  0  0
  131.1070  127.8290   68.1870 O   0  0  0  0  0  0  0  0  0  0  0  0
  129.8690  126.4170   66.6790 C   0  0  0  0  0  0  0  0  0  0  0  0
  130.6000  124.7570   66.4750 S   0  0  0  0  0  0  0  0  0  0  0  0
  131.1880  124.6240   64.8010 C   0  0  0  0  0  0  0  0  0  0  0  0
  130.2130  124.3500   63.9010 N   0  0  0  0  0  0  0  0  0  0  0  0
  130.5230  124.2240   62.5840 C   0  0  0  0  0  0  0  0  0  0  0  0
  129.3900  123.9000   61.6560 C   0  0  0  0  0  0  0  0  0  0  0  0
  128.2400  124.7020   61.6220 C   0  0  0  0  0  0  0  0  0  0  0  0
  127.1840  124.4080   60.7630 C   0  0  0  0  0  0  0  0  0  0  0  0
  127.2660  123.3010   59.9250 C   0  0  0  0  0  0  0  0  0  0  0  0
  128.3940  122.4870   59.9400 C   0  0  0  0  0  0  0  0  0  0  0  0
  129.4470  122.7850   60.8020 C   0  0  0  0  0  0  0  0  0  0  0  0
  131.8410  124.3720   62.1390 C   0  0  0  0  0  0  0  0  0  0  0  0
  132.8560  124.6770   63.0530 C   0  0  0  0  0  0  0  0  0  0  0  0
  134.2780  124.8470   62.5200 C   0  0  0  0  0  0  0  0  0  0  0  0
  132.5350  124.8200   64.4200 C   0  0  0  0  0  0  0  0  0  0  0  0
  133.5720  125.1880   65.3860 C   0  0  0  0  0  0  0  0  0  0  0  0
  134.3940  125.4780   66.1480 N   0  0  0  0  0  0  0  0  0  0  0  0
  130.3250  127.6350   71.0730 C   0  0  0  0  0  0  0  0  0  0  0  0
  130.1740  128.0640   72.3890 C   0  0  0  0  0  0  0  0  0  0  0  0
  1  2  1  0
  2  3  1  0
  3  4  2  0
  4  5  1  0
  5  6  2  0
  6  7  1  0
  7  8  1  0
  8  9  2  0
  8 10  1  0
 10 11  1  0
 11 12  1  0
 12 13  2  0
 13 14  1  0
 14 15  1  0
 15 16  2  0
 16 17  1  0
 17 18  2  0
 18 19  1  0
 19 20  2  0
 14 21  2  0
 21 22  1  0
 22 23  1  0
 22 24  2  0
 24 25  1  0
 25 26  3  0
  6 27  1  0
 27 28  2  0
 28  3  1  0
 24 12  1  0
 20 15  1  0
M  END
>  <Binding energies>  (17) 
[-8.27]

>  <Ligand effiencies>  (17) 
[-0.28517241379310343]

>  <Interactions>  (17) 
["V-B:PRO:540:CA:9855, V-B:PRO:540:N:9856, V-A:GLU:543:CD:4906, V-B:GLU:543:CD:9880, H-B:GLU:543:OE2:9882, V-A:GLY:454:CA:4046, V-B:TYR:539:CD1:9845, V-A:ARG:545:CZ:4924, H-A:GLY:454:N:4047, V-B:TYR:539:C:9839, V-A:GLY:453:C:4039, H-B:GLU:543:O:9875, V-A:GLY:453:CA:4041, H-A:HIS:456:NE2:4067, V-A:ARG:545:CD:4921, H-A:TYR:484:OH:4345, V-B:GLU:543:CB:9878, V-A:HIS:456:CE1:4066, V-A:ILE:369:CD1:3236, V-A:ARG:545:CG:4920, H-A:ARG:545:NE:4922, V-B:GLU:543:CG:9879, V-A:GLU:543:CG:4905, V-A:GLU:543:C:4900, V-B:HIS:456:CE1:9040, H-A:ILE:455:N:4052, H-A:LYS:547:NZ:4949, V-A:LYS:547:CE:4948, V-A:GLY:544:CA:4912, V-A:HIS:456:CD2:4065, V-B:GLY:544:C:9884, V-A:GLY:544:C:4910, V-B:HIS:456:CD2:9039, V-B:GLU:543:C:9874, V-B:HIS:456:CG:9037, V-B:GLY:544:CA:9886, H-B:LYS:547:NZ:9923, V-B:HIS:456:CB:9036"]

$$$$
3bd_Grossjean_2025
     RDKit          3D

 26 28  0  0  0  0  0  0  0  0999 V2000
  133.3900  124.2010   62.4530 C   0  0  0  0  0  0  0  0  0  0  0  0
  132.2430  123.2700   62.0630 C   0  0  0  0  0  0  0  0  0  0  0  0
  132.5530  121.9570   61.6910 C   0  0  0  0  0  0  0  0  0  0  0  0
  131.5310  121.0750   61.3230 C   0  0  0  0  0  0  0  0  0  0  0  0
  131.7940  119.6540   60.9180 C   0  0  0  0  0  0  0  0  0  0  0  0
  133.0800  119.2440   60.5320 C   0  0  0  0  0  0  0  0  0  0  0  0
  133.3300  117.9280   60.1540 C   0  0  0  0  0  0  0  0  0  0  0  0
  132.2930  117.0000   60.1560 C   0  0  0  0  0  0  0  0  0  0  0  0
  131.0090  117.3810   60.5300 C   0  0  0  0  0  0  0  0  0  0  0  0
  130.7630  118.6990   60.9080 C   0  0  0  0  0  0  0  0  0  0  0  0
  130.2320  121.4720   61.3340 N   0  0  0  0  0  0  0  0  0  0  0  0
  129.9130  122.7420   61.6910 C   0  0  0  0  0  0  0  0  0  0  0  0
  128.1730  123.1420   61.6520 S   0  0  0  0  0  0  0  0  0  0  0  0
  127.6000  123.0010   59.9330 C   0  0  0  0  0  0  0  0  0  0  0  0
  128.7360  123.2140   58.9310 C   0  0  0  0  0  0  0  0  0  0  0  0
  128.7930  122.4990   57.9300 O   0  0  0  0  0  0  0  0  0  0  0  0
  129.6180  124.1880   59.2440 N   0  0  0  0  0  0  0  0  0  0  0  0
  130.7390  124.6340   58.5190 C   0  0  0  0  0  0  0  0  0  0  0  0
  130.4870  125.1160   57.2320 C   0  0  0  0  0  0  0  0  0  0  0  0
  131.5350  125.5710   56.4350 C   0  0  0  0  0  0  0  0  0  0  0  0
  132.8380  125.5350   56.9230 C   0  0  0  0  0  0  0  0  0  0  0  0
  133.1040  125.0430   58.1990 C   0  0  0  0  0  0  0  0  0  0  0  0
  132.0580  124.5890   58.9980 C   0  0  0  0  0  0  0  0  0  0  0  0
  130.8940  123.6850   62.0650 C   0  0  0  0  0  0  0  0  0  0  0  0
  130.5360  125.0540   62.4500 C   0  0  0  0  0  0  0  0  0  0  0  0
  130.2550  126.1340   62.7560 N   0  0  0  0  0  0  0  0  0  0  0  0
  1  2  1  0
  2  3  2  0
  3  4  1  0
  4  5  1  0
  5  6  2  0
  6  7  1  0
  7  8  2  0
  8  9  1  0
  9 10  2  0
  4 11  2  0
 11 12  1  0
 12 13  1  0
 13 14  1  0
 14 15  1  0
 15 16  2  0
 15 17  1  0
 17 18  1  0
 18 19  2  0
 19 20  1  0
 20 21  2  0
 21 22  1  0
 22 23  2  0
 12 24  2  0
 24 25  1  0
 25 26  3  0
 24  2  1  0
 10  5  1  0
 23 18  1  0
M  END
>  <Binding energies>  (18) 
[-7.45]

>  <Ligand effiencies>  (18) 
[-0.2759259259259259]

>  <Interactions>  (18) 
["V-A:PRO:482:CG:4324, V-A:LEU:373:CD1:3277, V-B:PRO:540:CA:9855, V-B:PRO:540:N:9856, V-A:LEU:475:CD2:4256, V-A:PRO:482:CB:4323, V-A:SER:385:CB:3406, V-A:ILE:369:CG2:3234, V-B:TYR:539:CB:9843, V-B:TYR:539:CD1:9845, V-A:SER:385:CA:3404, V-B:ALA:541:CB:9864, V-B:TYR:539:CE1:9847, V-B:TYR:539:C:9839, V-A:ASP:366:CG:3210, V-A:ASP:366:CB:3209, V-A:TYR:531:CZ:4792, V-B:TYR:539:CZ:9849, V-A:ASP:366:C:3205, V-A:ASP:366:CA:3207, H-B:ALA:541:N:9863, V-A:TYR:531:CE1:4790"]

$$$$
3be_Grossjean_2025
     RDKit          3D

 27 29  0  0  0  0  0  0  0  0999 V2000
  134.2960  124.3610   58.9730 C   0  0  0  0  0  0  0  0  0  0  0  0
  133.0000  124.7410   58.2840 C   0  0  0  0  0  0  0  0  0  0  0  0
  132.9920  125.4420   57.0750 C   0  0  0  0  0  0  0  0  0  0  0  0
  131.7620  125.7600   56.5000 C   0  0  0  0  0  0  0  0  0  0  0  0
  130.5810  125.3730   57.1390 C   0  0  0  0  0  0  0  0  0  0  0  0
  130.6600  124.6690   58.3460 C   0  0  0  0  0  0  0  0  0  0  0  0
  129.4360  124.3180   58.9450 N   0  0  0  0  0  0  0  0  0  0  0  0
  128.5560  123.3630   58.5730 C   0  0  0  0  0  0  0  0  0  0  0  0
  128.6970  122.6230   57.5980 O   0  0  0  0  0  0  0  0  0  0  0  0
  127.3160  123.2460   59.4730 C   0  0  0  0  0  0  0  0  0  0  0  0
  127.6630  122.8870   61.2290 S   0  0  0  0  0  0  0  0  0  0  0  0
  129.4180  122.6590   61.4100 C   0  0  0  0  0  0  0  0  0  0  0  0
  129.8360  121.4020   61.1220 N   0  0  0  0  0  0  0  0  0  0  0  0
  131.1550  121.0890   61.2140 C   0  0  0  0  0  0  0  0  0  0  0  0
  131.5320  119.6730   60.8920 C   0  0  0  0  0  0  0  0  0  0  0  0
  132.8580  119.3390   60.5700 C   0  0  0  0  0  0  0  0  0  0  0  0
  133.2140  118.0280   60.2680 C   0  0  0  0  0  0  0  0  0  0  0  0
  132.2460  117.0290   60.2810 C   0  0  0  0  0  0  0  0  0  0  0  0
  130.9260  117.3330   60.5940 C   0  0  0  0  0  0  0  0  0  0  0  0
  130.5740  118.6460   60.8950 C   0  0  0  0  0  0  0  0  0  0  0  0
  132.0940  122.0480   61.6090 C   0  0  0  0  0  0  0  0  0  0  0  0
  131.6830  123.3550   61.8870 C   0  0  0  0  0  0  0  0  0  0  0  0
  132.7460  124.3730   62.2970 C   0  0  0  0  0  0  0  0  0  0  0  0
  130.3160  123.6870   61.7780 C   0  0  0  0  0  0  0  0  0  0  0  0
  129.8710  125.0630   62.0110 C   0  0  0  0  0  0  0  0  0  0  0  0
  129.5220  126.1510   62.1950 N   0  0  0  0  0  0  0  0  0  0  0  0
  131.8620  124.3580   58.9160 N   0  0  0  0  0  0  0  0  0  0  0  0
  1  2  1  0
  2  3  2  0
  3  4  1  0
  4  5  2  0
  5  6  1  0
  6  7  1  0
  7  8  1  0
  8  9  2  0
  8 10  1  0
 10 11  1  0
 11 12  1  0
 12 13  2  0
 13 14  1  0
 14 15  1  0
 15 16  2  0
 16 17  1  0
 17 18  2  0
 18 19  1  0
 19 20  2  0
 14 21  2  0
 21 22  1  0
 22 23  1  0
 22 24  2  0
 24 25  1  0
 25 26  3  0
  6 27  2  0
 27  2  1  0
 24 12  1  0
 20 15  1  0
M  END
>  <Binding energies>  (19) 
[-7.65]

>  <Ligand effiencies>  (19) 
[-0.27321428571428574]

>  <Interactions>  (19) 
["V-A:PRO:482:CG:4324, V-A:LEU:373:CD1:3277, V-B:PRO:540:CA:9855, V-B:PRO:540:N:9856, V-A:LEU:475:CD2:4256, V-A:PRO:482:CB:4323, V-A:SER:385:CB:3406, V-A:ILE:369:CG2:3234, V-B:TYR:539:CB:9843, V-B:TYR:539:CD1:9845, V-A:SER:385:CA:3404, V-B:ALA:541:CB:9864, V-B:TYR:539:CE1:9847, V-A:ASP:366:CG:3210, V-A:ASP:366:CB:3209, V-A:TYR:531:CZ:4792, V-B:TYR:539:CZ:9849, V-A:ASP:366:C:3205, V-A:ILE:369:CD1:3236, V-A:ASP:366:CA:3207, H-B:ALA:541:N:9863, V-A:ILE:369:CB:3233, H-B:TYR:539:OH:9850, V-A:TYR:531:CE1:4790"]

$$$$
3bf_Grossjean_2025
     RDKit          3D

 26 28  0  0  0  0  0  0  0  0999 V2000
  133.2460  123.9300   62.8850 C   0  0  0  0  0  0  0  0  0  0  0  0
  132.1190  123.0650   62.3270 C   0  0  0  0  0  0  0  0  0  0  0  0
  132.4340  121.7750   61.8880 C   0  0  0  0  0  0  0  0  0  0  0  0
  131.4280  120.9430   61.3830 C   0  0  0  0  0  0  0  0  0  0  0  0
  131.6970  119.5430   60.9170 C   0  0  0  0  0  0  0  0  0  0  0  0
  130.6510  118.6130   60.8040 C   0  0  0  0  0  0  0  0  0  0  0  0
  130.8920  117.3120   60.3730 C   0  0  0  0  0  0  0  0  0  0  0  0
  132.1870  116.9210   60.0490 C   0  0  0  0  0  0  0  0  0  0  0  0
  133.2410  117.8230   60.1540 C   0  0  0  0  0  0  0  0  0  0  0  0
  132.9960  119.1230   60.5860 C   0  0  0  0  0  0  0  0  0  0  0  0
  130.1400  121.3710   61.3110 N   0  0  0  0  0  0  0  0  0  0  0  0
  129.8230  122.6270   61.7090 C   0  0  0  0  0  0  0  0  0  0  0  0
  128.0940  123.0150   61.5370 S   0  0  0  0  0  0  0  0  0  0  0  0
  127.6550  122.8690   59.7710 C   0  0  0  0  0  0  0  0  0  0  0  0
  128.8180  123.0760   58.7900 C   0  0  0  0  0  0  0  0  0  0  0  0
  128.8370  122.4940   57.7050 O   0  0  0  0  0  0  0  0  0  0  0  0
  129.7610  123.9480   59.2110 N   0  0  0  0  0  0  0  0  0  0  0  0
  130.9450  124.3480   58.5640 C   0  0  0  0  0  0  0  0  0  0  0  0
  130.8130  125.1710   57.4410 C   0  0  0  0  0  0  0  0  0  0  0  0
  131.9510  125.6130   56.7630 C   0  0  0  0  0  0  0  0  0  0  0  0
  133.2030  125.2180   57.2370 C   0  0  0  0  0  0  0  0  0  0  0  0
  133.3620  124.4300   58.3300 N   0  0  0  0  0  0  0  0  0  0  0  0
  132.2450  124.0080   58.9780 C   0  0  0  0  0  0  0  0  0  0  0  0
  130.7830  123.5140   62.2460 C   0  0  0  0  0  0  0  0  0  0  0  0
  130.4220  124.8430   62.7470 C   0  0  0  0  0  0  0  0  0  0  0  0
  130.1390  125.8940   63.1410 N   0  0  0  0  0  0  0  0  0  0  0  0
  1  2  1  0
  2  3  2  0
  3  4  1  0
  4  5  1  0
  5  6  2  0
  6  7  1  0
  7  8  2  0
  8  9  1  0
  9 10  2  0
  4 11  2  0
 11 12  1  0
 12 13  1  0
 13 14  1  0
 14 15  1  0
 15 16  2  0
 15 17  1  0
 17 18  1  0
 18 19  2  0
 19 20  1  0
 20 21  2  0
 21 22  1  0
 22 23  2  0
 12 24  2  0
 24 25  1  0
 25 26  3  0
 24  2  1  0
 10  5  1  0
 23 18  1  0
M  END
>  <Binding energies>  (20) 
[-7.46]

>  <Ligand effiencies>  (20) 
[-0.2762962962962963]

>  <Interactions>  (20) 
["V-A:PRO:482:CG:4324, V-A:LEU:373:CD1:3277, V-B:PRO:540:CA:9855, V-B:PRO:540:N:9856, V-A:LEU:475:CD2:4256, V-A:PRO:482:CB:4323, V-A:SER:385:CB:3406, V-A:ILE:369:CG2:3234, V-B:TYR:539:CB:9843, V-A:GLY:454:CA:4046, V-B:TYR:539:CD1:9845, V-A:SER:385:CA:3404, V-B:ALA:541:CB:9864, V-B:TYR:539:CE1:9847, V-B:TYR:539:C:9839, V-A:ASP:366:CG:3210, V-A:ASP:366:CB:3209, V-B:TYR:539:CZ:9849, V-A:ASP:366:C:3205, V-A:ASP:366:CA:3207, H-B:ALA:541:N:9863, H-B:TYR:539:OH:9850"]

$$$$
3bg_Grossjean_2025
     RDKit          3D

 27 29  0  0  0  0  0  0  0  0999 V2000
  128.0290  122.9420   61.9920 C   0  0  0  0  0  0  0  0  0  0  0  0
  129.5040  122.6010   61.7890 C   0  0  0  0  0  0  0  0  0  0  0  0
  129.8400  121.2790   61.4800 C   0  0  0  0  0  0  0  0  0  0  0  0
  131.1800  120.9240   61.2780 C   0  0  0  0  0  0  0  0  0  0  0  0
  131.6080  119.5240   60.9330 C   0  0  0  0  0  0  0  0  0  0  0  0
  130.6850  118.4660   60.9250 C   0  0  0  0  0  0  0  0  0  0  0  0
  131.0740  117.1720   60.5890 C   0  0  0  0  0  0  0  0  0  0  0  0
  132.3990  116.9140   60.2560 C   0  0  0  0  0  0  0  0  0  0  0  0
  133.3370  117.9390   60.2660 C   0  0  0  0  0  0  0  0  0  0  0  0
  132.9440  119.2310   60.6050 C   0  0  0  0  0  0  0  0  0  0  0  0
  132.1630  121.8610   61.3610 N   0  0  0  0  0  0  0  0  0  0  0  0
  131.8530  123.1490   61.6560 C   0  0  0  0  0  0  0  0  0  0  0  0
  133.2310  124.2850   61.7020 S   0  0  0  0  0  0  0  0  0  0  0  0
  134.2810  123.9680   60.2460 C   0  0  0  0  0  0  0  0  0  0  0  0
  133.5670  124.3250   58.9390 C   0  0  0  0  0  0  0  0  0  0  0  0
  134.1930  124.3290   57.8790 O   0  0  0  0  0  0  0  0  0  0  0  0
  132.2660  124.6470   59.0370 N   0  0  0  0  0  0  0  0  0  0  0  0
  131.4420  125.1920   57.9570 C   0  0  0  0  0  0  0  0  0  0  0  0
  130.1070  124.4660   57.8420 C   0  0  0  0  0  0  0  0  0  0  0  0
  129.2540  124.3880   58.9490 C   0  0  0  0  0  0  0  0  0  0  0  0
  128.0400  123.7170   58.8470 C   0  0  0  0  0  0  0  0  0  0  0  0
  127.6730  123.1340   57.6340 C   0  0  0  0  0  0  0  0  0  0  0  0
  128.5070  123.2250   56.5220 C   0  0  0  0  0  0  0  0  0  0  0  0
  129.7230  123.8970   56.6250 C   0  0  0  0  0  0  0  0  0  0  0  0
  130.5260  123.5680   61.8880 C   0  0  0  0  0  0  0  0  0  0  0  0
  130.2050  124.9620   62.2020 C   0  0  0  0  0  0  0  0  0  0  0  0
  129.9490  126.0630   62.4500 N   0  0  0  0  0  0  0  0  0  0  0  0
  1  2  1  0
  2  3  2  0
  3  4  1  0
  4  5  1  0
  5  6  2  0
  6  7  1  0
  7  8  2  0
  8  9  1  0
  9 10  2  0
  4 11  2  0
 11 12  1  0
 12 13  1  0
 13 14  1  0
 14 15  1  0
 15 16  2  0
 15 17  1  0
 17 18  1  0
 18 19  1  0
 19 20  2  0
 20 21  1  0
 21 22  2  0
 22 23  1  0
 23 24  2  0
 12 25  2  0
 25 26  1  0
 26 27  3  0
 25  2  1  0
 10  5  1  0
 24 19  1  0
M  END
>  <Binding energies>  (21) 
[-7.79]

>  <Ligand effiencies>  (21) 
[-0.2782142857142857]

>  <Interactions>  (21) 
["V-A:PRO:482:CG:4324, V-A:LEU:373:CD1:3277, V-A:LEU:475:CD2:4256, V-A:PRO:482:CB:4323, V-A:SER:385:CB:3406, V-A:ILE:369:CG2:3234, V-B:TYR:539:CB:9843, V-B:TYR:539:CD1:9845, V-A:SER:385:CA:3404, V-B:ALA:541:CB:9864, V-B:TYR:539:CE1:9847, V-B:TYR:539:C:9839, V-A:ASP:366:CG:3210, V-B:TYR:539:CE2:9848, V-A:ASP:366:CB:3209, V-B:MET:535:CE:9807, V-B:TYR:539:CZ:9849, V-A:ILE:369:CD1:3236, V-A:ASP:366:CA:3207, H-A:ASP:366:OD1:3211, V-A:ILE:369:CB:3233, V-B:ALA:541:CA:9862, H-B:TYR:539:OH:9850, V-A:ILE:369:CG1:3235"]

$$$$
3ca_Grossjean_2025
     RDKit          3D

 31 33  0  0  0  0  0  0  0  0999 V2000
  129.5480  125.5990   72.8880 C   0  0  0  0  0  0  0  0  0  0  0  0
  130.4740  126.8180   72.9420 C   0  0  0  0  0  0  0  0  0  0  0  0
  129.7700  127.9670   72.4870 O   0  0  0  0  0  0  0  0  0  0  0  0
  128.7010  127.8530   71.6590 C   0  0  0  0  0  0  0  0  0  0  0  0
  127.5320  127.9990   72.0310 O   0  0  0  0  0  0  0  0  0  0  0  0
  129.0800  127.5370   70.2400 C   0  0  0  0  0  0  0  0  0  0  0  0
  128.1040  127.0450   69.3640 C   0  0  0  0  0  0  0  0  0  0  0  0
  128.4250  126.7430   68.0440 C   0  0  0  0  0  0  0  0  0  0  0  0
  129.7270  126.9200   67.5740 C   0  0  0  0  0  0  0  0  0  0  0  0
  129.9430  126.5850   66.2230 N   0  0  0  0  0  0  0  0  0  0  0  0
  130.3610  125.4220   65.6800 C   0  0  0  0  0  0  0  0  0  0  0  0
  130.6200  124.3950   66.3070 O   0  0  0  0  0  0  0  0  0  0  0  0
  130.4870  125.4210   64.1520 C   0  0  0  0  0  0  0  0  0  0  0  0
  130.4070  123.7500   63.4260 S   0  0  0  0  0  0  0  0  0  0  0  0
  130.3540  123.8650   61.6430 C   0  0  0  0  0  0  0  0  0  0  0  0
  131.5450  124.0910   61.0330 N   0  0  0  0  0  0  0  0  0  0  0  0
  131.5830  124.1690   59.6850 C   0  0  0  0  0  0  0  0  0  0  0  0
  132.9520  124.4050   59.0770 C   0  0  0  0  0  0  0  0  0  0  0  0
  130.4430  124.0420   58.8940 C   0  0  0  0  0  0  0  0  0  0  0  0
  129.2000  123.8260   59.5010 C   0  0  0  0  0  0  0  0  0  0  0  0
  128.0030  123.7100   58.6140 C   0  0  0  0  0  0  0  0  0  0  0  0
  126.8950  124.5410   58.8160 C   0  0  0  0  0  0  0  0  0  0  0  0
  125.7720  124.4340   58.0000 C   0  0  0  0  0  0  0  0  0  0  0  0
  125.7510  123.4880   56.9780 C   0  0  0  0  0  0  0  0  0  0  0  0
  126.8420  122.6480   56.7680 C   0  0  0  0  0  0  0  0  0  0  0  0
  127.9630  122.7580   57.5870 C   0  0  0  0  0  0  0  0  0  0  0  0
  129.1480  123.7250   60.9150 C   0  0  0  0  0  0  0  0  0  0  0  0
  127.8830  123.4490   61.6030 C   0  0  0  0  0  0  0  0  0  0  0  0
  126.8830  123.2310   62.1450 N   0  0  0  0  0  0  0  0  0  0  0  0
  130.7100  127.4200   68.4420 C   0  0  0  0  0  0  0  0  0  0  0  0
  130.3860  127.7230   69.7620 C   0  0  0  0  0  0  0  0  0  0  0  0
  1  2  1  0
  2  3  1  0
  3  4  1  0
  4  5  2  0
  4  6  1  0
  6  7  2  0
  7  8  1  0
  8  9  2  0
  9 10  1  0
 10 11  1  0
 11 12  2  0
 11 13  1  0
 13 14  1  0
 14 15  1  0
 15 16  2  0
 16 17  1  0
 17 18  1  0
 17 19  2  0
 19 20  1  0
 20 21  1  0
 21 22  2  0
 22 23  1  0
 23 24  2  0
 24 25  1  0
 25 26  2  0
 20 27  2  0
 27 28  1  0
 28 29  3  0
  9 30  1  0
 30 31  2  0
 31  6  1  0
 27 15  1  0
 26 21  1  0
M  END
>  <Binding energies>  (22) 
[-7.78]

>  <Ligand effiencies>  (22) 
[-0.243125]

>  <Interactions>  (22) 
["V-B:PRO:540:N:9856, V-A:GLU:543:CD:4906, V-B:GLU:543:CD:9880, H-B:GLU:543:OE1:9881, H-B:GLU:543:OE2:9882, V-B:TYR:539:CD1:9845, V-B:ALA:541:CB:9864, V-B:TYR:539:CE1:9847, V-B:TYR:539:C:9839, V-A:ASP:366:CG:3210, V-B:TYR:539:CZ:9849, H-A:TYR:484:OH:4345, H-A:GLU:543:OE1:4907, V-B:GLU:543:CB:9878, V-A:HIS:456:CE1:4066, H-A:GLU:543:OE2:4908, H-B:ALA:541:N:9863, V-B:PRO:540:CD:9859, V-B:GLU:543:CG:9879, V-A:GLU:543:CG:4905, V-A:GLU:543:C:4900, V-B:HIS:456:CE1:9040, V-B:ILE:538:CA:9832, V-A:HIS:456:CD2:4065, V-A:GLY:544:C:4910, V-B:HIS:456:CD2:9039, V-B:LYS:547:CE:9922, V-B:GLU:543:C:9874, H-B:HIS:456:NE2:9041"]

$$$$
3ce_Grossjean_2025
     RDKit          3D

 27 29  0  0  0  0  0  0  0  0999 V2000
  128.7120  122.8620   57.7640 C   0  0  0  0  0  0  0  0  0  0  0  0
  128.0490  123.2640   59.0680 C   0  0  0  0  0  0  0  0  0  0  0  0
  126.6590  123.2510   59.2160 C   0  0  0  0  0  0  0  0  0  0  0  0
  126.1200  123.6230   60.4470 C   0  0  0  0  0  0  0  0  0  0  0  0
  126.9720  123.9960   61.4900 C   0  0  0  0  0  0  0  0  0  0  0  0
  128.3540  123.9970   61.2710 C   0  0  0  0  0  0  0  0  0  0  0  0
  129.1620  124.3620   62.3600 N   0  0  0  0  0  0  0  0  0  0  0  0
  129.9770  125.4340   62.4740 C   0  0  0  0  0  0  0  0  0  0  0  0
  130.1390  126.2940   61.6070 O   0  0  0  0  0  0  0  0  0  0  0  0
  130.7310  125.5560   63.7980 C   0  0  0  0  0  0  0  0  0  0  0  0
  132.5220  125.3310   63.5830 S   0  0  0  0  0  0  0  0  0  0  0  0
  132.7060  124.1370   62.2790 C   0  0  0  0  0  0  0  0  0  0  0  0
  133.3740  124.6040   61.1950 N   0  0  0  0  0  0  0  0  0  0  0  0
  133.5810  123.7660   60.1530 C   0  0  0  0  0  0  0  0  0  0  0  0
  134.3460  124.3480   58.9800 C   0  0  0  0  0  0  0  0  0  0  0  0
  133.1240  122.4510   60.1460 C   0  0  0  0  0  0  0  0  0  0  0  0
  132.4100  121.9580   61.2460 C   0  0  0  0  0  0  0  0  0  0  0  0
  131.9180  120.5490   61.1810 C   0  0  0  0  0  0  0  0  0  0  0  0
  130.5850  120.2540   61.4930 C   0  0  0  0  0  0  0  0  0  0  0  0
  130.1220  118.9420   61.4410 C   0  0  0  0  0  0  0  0  0  0  0  0
  130.9920  117.9160   61.0830 C   0  0  0  0  0  0  0  0  0  0  0  0
  132.3230  118.1920   60.7800 C   0  0  0  0  0  0  0  0  0  0  0  0
  132.7840  119.5040   60.8320 C   0  0  0  0  0  0  0  0  0  0  0  0
  132.1940  122.8200   62.3510 C   0  0  0  0  0  0  0  0  0  0  0  0
  131.4660  122.3560   63.5360 C   0  0  0  0  0  0  0  0  0  0  0  0
  130.8910  121.9880   64.4710 N   0  0  0  0  0  0  0  0  0  0  0  0
  128.8890  123.6260   60.0700 N   0  0  0  0  0  0  0  0  0  0  0  0
  1  2  1  0
  2  3  2  0
  3  4  1  0
  4  5  2  0
  5  6  1  0
  6  7  1  0
  7  8  1  0
  8  9  2  0
  8 10  1  0
 10 11  1  0
 11 12  1  0
 12 13  2  0
 13 14  1  0
 14 15  1  0
 14 16  2  0
 16 17  1  0
 17 18  1  0
 18 19  2  0
 19 20  1  0
 20 21  2  0
 21 22  1  0
 22 23  2  0
 17 24  2  0
 24 25  1  0
 25 26  3  0
  6 27  2  0
 27  2  1  0
 24 12  1  0
 23 18  1  0
M  END
>  <Binding energies>  (23) 
[-7.66]

>  <Ligand effiencies>  (23) 
[-0.2735714285714286]

>  <Interactions>  (23) 
["V-A:PRO:482:CG:4324, V-A:LEU:373:CD1:3277, V-B:PRO:540:CA:9855, V-B:PRO:540:N:9856, V-A:LEU:475:CD2:4256, V-B:GLU:543:CD:9880, H-B:GLU:543:OE1:9881, V-A:PRO:482:CB:4323, V-A:SER:385:CB:3406, V-A:ILE:369:CG2:3234, V-B:TYR:539:CD1:9845, V-A:SER:385:CA:3404, V-B:ALA:541:CB:9864, V-B:TYR:539:CE1:9847, V-B:TYR:539:C:9839, V-A:ASP:366:CG:3210, V-A:ASP:366:CB:3209, V-B:TYR:539:CZ:9849, H-A:ARG:545:NH2:4926, H-A:TYR:484:OH:4345, V-A:ASP:366:C:3205, V-A:ILE:369:CD1:3236, V-A:ASP:366:CA:3207, V-A:ILE:369:CB:3233, V-B:PRO:540:CB:9857, V-B:TYR:539:CG:9844"]

$$$$
3cj_Grossjean_2025
     RDKit          3D

 25 27  0  0  0  0  0  0  0  0999 V2000
  134.6410  124.3380   59.3070 C   0  0  0  0  0  0  0  0  0  0  0  0
  133.7870  123.7490   60.4120 C   0  0  0  0  0  0  0  0  0  0  0  0
  133.2500  122.4670   60.3140 C   0  0  0  0  0  0  0  0  0  0  0  0
  132.4850  121.9530   61.3700 C   0  0  0  0  0  0  0  0  0  0  0  0
  131.9840  120.5530   61.2490 C   0  0  0  0  0  0  0  0  0  0  0  0
  132.8500  119.5180   60.8760 C   0  0  0  0  0  0  0  0  0  0  0  0
  132.3790  118.2130   60.7510 C   0  0  0  0  0  0  0  0  0  0  0  0
  131.0360  117.9410   60.9920 C   0  0  0  0  0  0  0  0  0  0  0  0
  130.1600  118.9610   61.3540 C   0  0  0  0  0  0  0  0  0  0  0  0
  130.6340  120.2650   61.4790 C   0  0  0  0  0  0  0  0  0  0  0  0
  132.2550  122.7780   62.4990 C   0  0  0  0  0  0  0  0  0  0  0  0
  131.4390  122.3080   63.6230 C   0  0  0  0  0  0  0  0  0  0  0  0
  130.7960  121.9360   64.5110 N   0  0  0  0  0  0  0  0  0  0  0  0
  132.8420  124.0630   62.5160 C   0  0  0  0  0  0  0  0  0  0  0  0
  132.7450  125.1460   63.9260 S   0  0  0  0  0  0  0  0  0  0  0  0
  130.9730  125.5340   64.0940 C   0  0  0  0  0  0  0  0  0  0  0  0
  130.2090  125.2890   62.7900 C   0  0  0  0  0  0  0  0  0  0  0  0
  130.3150  126.0950   61.8630 O   0  0  0  0  0  0  0  0  0  0  0  0
  129.4840  124.1500   62.7490 N   0  0  0  0  0  0  0  0  0  0  0  0
  128.8160  123.6330   61.6510 C   0  0  0  0  0  0  0  0  0  0  0  0
  127.5570  123.2610   61.5720 N   0  0  0  0  0  0  0  0  0  0  0  0
  127.2510  122.8440   60.3600 C   0  0  0  0  0  0  0  0  0  0  0  0
  128.2780  122.8720   59.4210 C   0  0  0  0  0  0  0  0  0  0  0  0
  129.7210  123.4780   60.1790 S   0  0  0  0  0  0  0  0  0  0  0  0
  133.6020  124.5350   61.4960 N   0  0  0  0  0  0  0  0  0  0  0  0
  1  2  1  0
  2  3  2  0
  3  4  1  0
  4  5  1  0
  5  6  2  0
  6  7  1  0
  7  8  2  0
  8  9  1  0
  9 10  2  0
  4 11  2  0
 11 12  1  0
 12 13  3  0
 11 14  1  0
 14 15  1  0
 15 16  1  0
 16 17  1  0
 17 18  2  0
 17 19  1  0
 19 20  1  0
 20 21  2  0
 21 22  1  0
 22 23  2  0
 23 24  1  0
 14 25  2  0
 25  2  1  0
 10  5  1  0
 24 20  1  0
M  END
>  <Binding energies>  (24) 
[-7.06]

>  <Ligand effiencies>  (24) 
[-0.2715384615384615]

>  <Interactions>  (24) 
["V-A:PRO:482:CG:4324, V-A:LEU:373:CD1:3277, V-B:PRO:540:CA:9855, V-B:PRO:540:N:9856, V-A:LEU:475:CD2:4256, V-B:GLU:543:CD:9880, H-B:GLU:543:OE1:9881, V-A:PRO:482:CB:4323, V-A:SER:385:CB:3406, V-A:ILE:369:CG2:3234, V-B:TYR:539:CD1:9845, V-A:SER:385:CA:3404, V-B:ALA:541:CB:9864, V-B:TYR:539:CE1:9847, V-B:TYR:539:C:9839, V-A:ASP:366:CG:3210, V-A:ASP:366:CB:3209, H-A:ARG:545:NH2:4926, H-A:TYR:484:OH:4345, V-A:ASP:366:C:3205, V-A:ILE:369:CD1:3236, V-A:ASP:366:CA:3207, H-B:ALA:541:N:9863, V-A:ILE:369:CB:3233, V-B:PRO:540:C:9853, H-A:ARG:545:NE:4922, V-B:PRO:540:CB:9857, V-A:ILE:369:CG1:3235"]

$$$$
4ba_Grossjean_2025
     RDKit          3D

 28 30  0  0  0  0  0  0  0  0999 V2000
  127.0350  128.0710   73.9310 C   0  0  0  0  0  0  0  0  0  0  0  0
  127.6160  127.3360   72.7070 C   0  0  0  0  0  0  0  0  0  0  0  0
  128.7180  128.1020   71.9470 C   0  0  0  0  0  0  0  0  0  0  0  0
  129.3190  129.0190   72.5100 O   0  0  0  0  0  0  0  0  0  0  0  0
  129.0130  127.6820   70.5360 C   0  0  0  0  0  0  0  0  0  0  0  0
  130.3280  127.7450   70.0600 C   0  0  0  0  0  0  0  0  0  0  0  0
  130.6300  127.3640   68.7560 C   0  0  0  0  0  0  0  0  0  0  0  0
  129.6250  126.9060   67.9030 C   0  0  0  0  0  0  0  0  0  0  0  0
  130.0390  126.5550   66.6040 N   0  0  0  0  0  0  0  0  0  0  0  0
  130.4590  125.3620   66.1150 C   0  0  0  0  0  0  0  0  0  0  0  0
  130.5900  124.3430   66.7950 O   0  0  0  0  0  0  0  0  0  0  0  0
  130.7860  125.3510   64.6880 C   0  0  0  0  0  0  0  0  0  0  0  0
  132.0340  124.2700   64.0720 S   0  0  0  0  0  0  0  0  0  0  0  0
  131.8350  124.8870   62.4500 C   0  0  0  0  0  0  0  0  0  0  0  0
  132.5660  124.4260   61.4370 N   0  0  0  0  0  0  0  0  0  0  0  0
  132.3230  124.9810   60.2270 C   0  0  0  0  0  0  0  0  0  0  0  0
  133.1740  124.4470   59.0890 C   0  0  0  0  0  0  0  0  0  0  0  0
  131.3720  125.9740   60.0080 C   0  0  0  0  0  0  0  0  0  0  0  0
  130.5980  126.4640   61.0720 C   0  0  0  0  0  0  0  0  0  0  0  0
  129.5620  127.5550   60.7810 C   0  0  0  0  0  0  0  0  0  0  0  0
  128.3220  127.2050   61.1310 F   0  0  0  0  0  0  0  0  0  0  0  0
  129.8690  128.6630   61.4580 F   0  0  0  0  0  0  0  0  0  0  0  0
  129.5470  127.8260   59.4760 F   0  0  0  0  0  0  0  0  0  0  0  0
  130.8340  125.9030   62.3630 C   0  0  0  0  0  0  0  0  0  0  0  0
  130.2590  126.1530   63.6620 C   0  0  0  0  0  0  0  0  0  0  0  0
  129.2800  127.0920   63.8700 N   0  0  0  0  0  0  0  0  0  0  0  0
  128.3030  126.8450   68.3690 C   0  0  0  0  0  0  0  0  0  0  0  0
  128.0030  127.2280   69.6740 C   0  0  0  0  0  0  0  0  0  0  0  0
  1  2  1  0
  2  3  1  0
  3  4  2  0
  3  5  1  0
  5  6  2  0
  6  7  1  0
  7  8  2  0
  8  9  1  0
  9 10  1  0
 10 11  2  0
 10 12  1  0
 12 13  1  0
 13 14  1  0
 14 15  2  0
 15 16  1  0
 16 17  1  0
 16 18  2  0
 18 19  1  0
 19 20  1  0
 20 21  1  0
 20 22  1  0
 20 23  1  0
 19 24  2  0
 24 25  1  0
 25 26  1  0
  8 27  1  0
 27 28  2  0
 28  5  1  0
 25 12  2  0
 24 14  1  0
M  END
>  <Binding energies>  (25) 
[-6.33]

>  <Ligand effiencies>  (25) 
[-0.20419354838709677]

>  <Interactions>  (25) 
["V-A:GLU:543:CD:4906, V-B:GLU:543:CD:9880, H-B:GLU:543:OE1:9881, H-B:GLU:543:OE2:9882, V-B:TYR:539:CE1:9847, V-A:ASP:366:CG:3210, V-A:ASP:366:CB:3209, H-A:HIS:456:NE2:4067, H-A:TYR:484:OH:4345, H-A:GLU:543:OE1:4907, V-B:GLU:543:CB:9878, V-A:HIS:456:CE1:4066, H-A:GLU:543:OE2:4908, V-A:ASP:366:CA:3207, V-B:GLU:543:CG:9879, V-A:GLU:543:CG:4905, V-A:GLU:543:C:4900, V-B:HIS:456:CE1:9040, H-A:LYS:547:NZ:4949, V-B:GLY:544:C:9884, V-A:GLY:544:C:4910, V-B:HIS:456:CD2:9039, V-B:LYS:547:CE:9922, V-B:GLU:543:C:9874, V-B:HIS:456:CG:9037, V-B:GLY:544:CA:9886, H-B:HIS:456:NE2:9041, V-B:HIS:456:CB:9036"]

$$$$
4bb_Grossjean_2025
     RDKit          3D

 27 29  0  0  0  0  0  0  0  0999 V2000
  127.6270  127.3060   72.7520 C   0  0  0  0  0  0  0  0  0  0  0  0
  128.6730  128.1040   71.9700 C   0  0  0  0  0  0  0  0  0  0  0  0
  129.2070  129.0640   72.5280 O   0  0  0  0  0  0  0  0  0  0  0  0
  128.9860  127.6800   70.5660 C   0  0  0  0  0  0  0  0  0  0  0  0
  130.3090  127.7350   70.1100 C   0  0  0  0  0  0  0  0  0  0  0  0
  130.6260  127.3490   68.8110 C   0  0  0  0  0  0  0  0  0  0  0  0
  129.6290  126.8930   67.9460 C   0  0  0  0  0  0  0  0  0  0  0  0
  130.0600  126.5310   66.6540 N   0  0  0  0  0  0  0  0  0  0  0  0
  130.4760  125.3320   66.1790 C   0  0  0  0  0  0  0  0  0  0  0  0
  130.5740  124.3130   66.8630 O   0  0  0  0  0  0  0  0  0  0  0  0
  130.8480  125.3170   64.7620 C   0  0  0  0  0  0  0  0  0  0  0  0
  132.1360  124.2570   64.1940 S   0  0  0  0  0  0  0  0  0  0  0  0
  131.9690  124.8520   62.5580 C   0  0  0  0  0  0  0  0  0  0  0  0
  132.7320  124.3910   61.5690 N   0  0  0  0  0  0  0  0  0  0  0  0
  132.5100  124.9280   60.3480 C   0  0  0  0  0  0  0  0  0  0  0  0
  133.3900  124.3880   59.2350 C   0  0  0  0  0  0  0  0  0  0  0  0
  131.5520  125.9060   60.0940 C   0  0  0  0  0  0  0  0  0  0  0  0
  130.7440  126.3950   61.1320 C   0  0  0  0  0  0  0  0  0  0  0  0
  129.7040  127.4710   60.8050 C   0  0  0  0  0  0  0  0  0  0  0  0
  128.4600  127.1110   61.1300 F   0  0  0  0  0  0  0  0  0  0  0  0
  129.9850  128.5890   61.4750 F   0  0  0  0  0  0  0  0  0  0  0  0
  129.7150  127.7280   59.4970 F   0  0  0  0  0  0  0  0  0  0  0  0
  130.9530  125.8500   62.4350 C   0  0  0  0  0  0  0  0  0  0  0  0
  130.3340  126.0970   63.7130 C   0  0  0  0  0  0  0  0  0  0  0  0
  129.3250  127.0110   63.8830 N   0  0  0  0  0  0  0  0  0  0  0  0
  128.3000  126.8430   68.3940 C   0  0  0  0  0  0  0  0  0  0  0  0
  127.9850  127.2310   69.6930 C   0  0  0  0  0  0  0  0  0  0  0  0
  1  2  1  0
  2  3  2  0
  2  4  1  0
  4  5  2  0
  5  6  1  0
  6  7  2  0
  7  8  1  0
  8  9  1  0
  9 10  2  0
  9 11  1  0
 11 12  1  0
 12 13  1  0
 13 14  2  0
 14 15  1  0
 15 16  1  0
 15 17  2  0
 17 18  1  0
 18 19  1  0
 19 20  1  0
 19 21  1  0
 19 22  1  0
 18 23  2  0
 23 24  1  0
 24 25  1  0
  7 26  1  0
 26 27  2  0
 27  4  1  0
 24 11  2  0
 23 13  1  0
M  END
>  <Binding energies>  (26) 
[-6.22]

>  <Ligand effiencies>  (26) 
[-0.20733333333333331]

>  <Interactions>  (26) 
["V-A:GLU:543:CD:4906, V-B:GLU:543:CD:9880, H-B:GLU:543:OE1:9881, H-B:GLU:543:OE2:9882, V-A:ILE:369:CG2:3234, V-B:TYR:539:CE1:9847, V-A:ASP:366:CG:3210, V-A:ASP:366:CB:3209, H-A:HIS:456:NE2:4067, H-A:TYR:484:OH:4345, H-A:GLU:543:OE1:4907, V-B:GLU:543:CB:9878, V-A:HIS:456:CE1:4066, H-A:GLU:543:OE2:4908, V-A:ASP:366:CA:3207, V-B:GLU:543:CG:9879, V-A:GLU:543:CG:4905, V-A:GLU:543:C:4900, V-B:HIS:456:CE1:9040, H-A:LYS:547:NZ:4949, V-B:GLY:544:C:9884, V-A:GLY:544:C:4910, V-B:HIS:456:CD2:9039, V-B:LYS:547:CE:9922, V-B:GLU:543:C:9874, V-B:GLY:544:CA:9886, H-B:HIS:456:NE2:9041"]

$$$$
4bd_Grossjean_2025
     RDKit          3D

 24 26  0  0  0  0  0  0  0  0999 V2000
  133.5810  124.2280   59.3420 C   0  0  0  0  0  0  0  0  0  0  0  0
  132.6920  124.8010   60.4310 C   0  0  0  0  0  0  0  0  0  0  0  0
  131.7740  125.8090   60.1520 C   0  0  0  0  0  0  0  0  0  0  0  0
  130.9600  126.3310   61.1690 C   0  0  0  0  0  0  0  0  0  0  0  0
  129.9660  127.4420   60.8150 C   0  0  0  0  0  0  0  0  0  0  0  0
  128.7060  127.1370   61.1350 F   0  0  0  0  0  0  0  0  0  0  0  0
  130.2840  128.5580   61.4690 F   0  0  0  0  0  0  0  0  0  0  0  0
  129.9980  127.6750   59.5030 F   0  0  0  0  0  0  0  0  0  0  0  0
  131.1190  125.7840   62.4770 C   0  0  0  0  0  0  0  0  0  0  0  0
  130.4780  126.0570   63.7410 C   0  0  0  0  0  0  0  0  0  0  0  0
  129.4930  127.0000   63.8800 N   0  0  0  0  0  0  0  0  0  0  0  0
  130.9530  125.2750   64.8070 C   0  0  0  0  0  0  0  0  0  0  0  0
  130.5410  125.3020   66.2140 C   0  0  0  0  0  0  0  0  0  0  0  0
  130.6030  124.2860   66.9060 O   0  0  0  0  0  0  0  0  0  0  0  0
  130.1140  126.5060   66.6710 N   0  0  0  0  0  0  0  0  0  0  0  0
  129.6190  126.8560   67.9410 C   0  0  0  0  0  0  0  0  0  0  0  0
  130.5600  127.3450   68.8510 C   0  0  0  0  0  0  0  0  0  0  0  0
  130.1660  127.7280   70.1310 C   0  0  0  0  0  0  0  0  0  0  0  0
  128.8270  127.6300   70.4990 C   0  0  0  0  0  0  0  0  0  0  0  0
  127.8780  127.1570   69.5970 C   0  0  0  0  0  0  0  0  0  0  0  0
  128.2680  126.7720   68.3170 C   0  0  0  0  0  0  0  0  0  0  0  0
  132.2110  124.1650   64.2710 S   0  0  0  0  0  0  0  0  0  0  0  0
  132.0970  124.7540   62.6290 C   0  0  0  0  0  0  0  0  0  0  0  0
  132.8670  124.2620   61.6600 N   0  0  0  0  0  0  0  0  0  0  0  0
  1  2  1  0
  2  3  2  0
  3  4  1  0
  4  5  1  0
  5  6  1  0
  5  7  1  0
  5  8  1  0
  4  9  2  0
  9 10  1  0
 10 11  1  0
 10 12  2  0
 12 13  1  0
 13 14  2  0
 13 15  1  0
 15 16  1  0
 16 17  2  0
 17 18  1  0
 18 19  2  0
 19 20  1  0
 20 21  2  0
 12 22  1  0
 22 23  1  0
 23 24  2  0
 24  2  1  0
 23  9  1  0
 21 16  1  0
M  END
>  <Binding energies>  (27) 
[-5.47]

>  <Ligand effiencies>  (27) 
[-0.20259259259259257]

>  <Interactions>  (27) 
["V-A:GLU:543:CD:4906, V-B:GLU:543:CD:9880, H-B:GLU:543:OE1:9881, H-B:GLU:543:OE2:9882, V-A:ILE:369:CG2:3234, V-B:TYR:539:CE1:9847, V-A:ASP:366:CG:3210, V-A:ASP:366:CB:3209, H-A:HIS:456:NE2:4067, H-A:TYR:484:OH:4345, H-A:GLU:543:OE1:4907, V-B:GLU:543:CB:9878, V-A:HIS:456:CE1:4066, H-A:GLU:543:OE2:4908, V-A:ASP:366:CA:3207, V-A:ILE:369:CB:3233, V-B:GLU:543:CG:9879, V-A:GLU:543:CG:4905, V-A:GLU:543:C:4900, V-B:HIS:456:CE1:9040, V-B:GLY:544:C:9884, V-A:GLY:544:C:4910, V-B:HIS:456:CD2:9039, V-B:GLU:543:C:9874"]

$$$$
4be_Grossjean_2025
     RDKit          3D

 25 27  0  0  0  0  0  0  0  0999 V2000
  128.8640  132.9750   56.5550 C   0  0  0  0  0  0  0  0  0  0  0  0
  130.2020  132.3320   56.8670 C   0  0  0  0  0  0  0  0  0  0  0  0
  131.4040  132.9050   56.4440 C   0  0  0  0  0  0  0  0  0  0  0  0
  132.5970  132.2580   56.7650 C   0  0  0  0  0  0  0  0  0  0  0  0
  132.5610  131.0660   57.4920 C   0  0  0  0  0  0  0  0  0  0  0  0
  131.3230  130.5490   57.8900 C   0  0  0  0  0  0  0  0  0  0  0  0
  131.3540  129.3430   58.6130 N   0  0  0  0  0  0  0  0  0  0  0  0
  130.5610  128.9440   59.6380 C   0  0  0  0  0  0  0  0  0  0  0  0
  129.6440  129.6240   60.1020 O   0  0  0  0  0  0  0  0  0  0  0  0
  130.8760  127.6270   60.2010 C   0  0  0  0  0  0  0  0  0  0  0  0
  131.3430  126.3000   59.1400 S   0  0  0  0  0  0  0  0  0  0  0  0
  131.4870  125.2060   60.4960 C   0  0  0  0  0  0  0  0  0  0  0  0
  131.8460  123.9350   60.3280 N   0  0  0  0  0  0  0  0  0  0  0  0
  131.9250  123.1860   61.4520 C   0  0  0  0  0  0  0  0  0  0  0  0
  132.3330  121.7400   61.2400 C   0  0  0  0  0  0  0  0  0  0  0  0
  131.6570  123.6760   62.7280 C   0  0  0  0  0  0  0  0  0  0  0  0
  131.2790  125.0150   62.9120 C   0  0  0  0  0  0  0  0  0  0  0  0
  130.9990  125.5090   64.3350 C   0  0  0  0  0  0  0  0  0  0  0  0
  130.8070  124.5140   65.2040 F   0  0  0  0  0  0  0  0  0  0  0  0
  132.0310  126.2280   64.7750 F   0  0  0  0  0  0  0  0  0  0  0  0
  129.9010  126.2640   64.3430 F   0  0  0  0  0  0  0  0  0  0  0  0
  131.1820  125.8310   61.7450 C   0  0  0  0  0  0  0  0  0  0  0  0
  130.8260  127.2140   61.5410 C   0  0  0  0  0  0  0  0  0  0  0  0
  130.4770  128.0480   62.5720 N   0  0  0  0  0  0  0  0  0  0  0  0
  130.1510  131.1750   57.5750 N   0  0  0  0  0  0  0  0  0  0  0  0
  1  2  1  0
  2  3  2  0
  3  4  1  0
  4  5  2  0
  5  6  1  0
  6  7  1  0
  7  8  1  0
  8  9  2  0
  8 10  1  0
 10 11  1  0
 11 12  1  0
 12 13  2  0
 13 14  1  0
 14 15  1  0
 14 16  2  0
 16 17  1  0
 17 18  1  0
 18 19  1  0
 18 20  1  0
 18 21  1  0
 17 22  2  0
 22 23  1  0
 23 24  1  0
  6 25  2  0
 25  2  1  0
 23 10  2  0
 22 12  1  0
M  END
>  <Binding energies>  (28) 
[-5.42]

>  <Ligand effiencies>  (28) 
[-0.19357142857142856]

>  <Interactions>  (28) 
["V-A:LEU:475:CD2:4256, V-A:GLU:543:CD:4906, V-B:GLU:543:CD:9880, V-B:TYR:539:CD1:9845, V-A:ARG:545:CZ:4924, V-B:TYR:539:CE1:9847, V-A:TYR:539:CE2:4874, V-A:TYR:539:CZ:4875, V-A:ASP:366:CG:3210, V-A:TYR:531:CE2:4791, V-A:ASP:366:CB:3209, V-A:LEU:363:CD1:3186, V-A:PRO:540:CB:4883, V-A:PRO:540:N:4882, V-A:TYR:539:CE1:4873, V-A:TYR:539:CD1:4871, V-A:ARG:545:CD:4921, H-A:GLU:543:OE1:4907, V-B:GLU:543:CB:9878, H-A:GLU:543:OE2:4908, H-A:ASP:366:OD2:3212, H-A:ASP:366:OD1:3211, V-A:ILE:538:CG2:4861, V-A:TYR:539:CG:4870, V-A:TYR:484:CZ:4344, H-A:TYR:531:OH:4793, V-A:ILE:538:CB:4860, V-A:ILE:538:CA:4858, V-A:PRO:540:CD:4885, V-A:TYR:539:CD2:4872, V-A:TYR:539:CA:4867, V-A:ILE:538:C:4856"]

$$$$
4bg_Grossjean_2025
     RDKit          3D

 25 27  0  0  0  0  0  0  0  0999 V2000
  133.9210  121.7810   61.4010 C   0  0  0  0  0  0  0  0  0  0  0  0
  133.1660  123.0670   61.6850 C   0  0  0  0  0  0  0  0  0  0  0  0
  133.0180  123.5390   62.9870 C   0  0  0  0  0  0  0  0  0  0  0  0
  132.3130  124.7270   63.2360 C   0  0  0  0  0  0  0  0  0  0  0  0
  132.1750  125.2070   64.6850 C   0  0  0  0  0  0  0  0  0  0  0  0
  132.1560  126.5370   64.7950 F   0  0  0  0  0  0  0  0  0  0  0  0
  131.0360  124.7480   65.2050 F   0  0  0  0  0  0  0  0  0  0  0  0
  133.2010  124.7610   65.4080 F   0  0  0  0  0  0  0  0  0  0  0  0
  131.7700  125.4120   62.1090 C   0  0  0  0  0  0  0  0  0  0  0  0
  131.0000  126.6250   61.9730 C   0  0  0  0  0  0  0  0  0  0  0  0
  130.6210  127.3880   63.0490 N   0  0  0  0  0  0  0  0  0  0  0  0
  130.6840  126.9560   60.6470 C   0  0  0  0  0  0  0  0  0  0  0  0
  129.9000  128.0870   60.1520 C   0  0  0  0  0  0  0  0  0  0  0  0
  128.6850  127.9980   59.9710 O   0  0  0  0  0  0  0  0  0  0  0  0
  130.5820  129.2340   59.9480 N   0  0  0  0  0  0  0  0  0  0  0  0
  130.0100  130.4830   59.4440 C   0  0  0  0  0  0  0  0  0  0  0  0
  130.8800  131.1750   58.4020 C   0  0  0  0  0  0  0  0  0  0  0  0
  130.2880  131.8670   57.3420 C   0  0  0  0  0  0  0  0  0  0  0  0
  131.0850  132.5300   56.4130 C   0  0  0  0  0  0  0  0  0  0  0  0
  132.4710  132.5130   56.5540 C   0  0  0  0  0  0  0  0  0  0  0  0
  133.0670  131.8400   57.6180 C   0  0  0  0  0  0  0  0  0  0  0  0
  132.2700  131.1740   58.5470 C   0  0  0  0  0  0  0  0  0  0  0  0
  131.2990  125.7500   59.5200 S   0  0  0  0  0  0  0  0  0  0  0  0
  132.0000  124.8250   60.8260 C   0  0  0  0  0  0  0  0  0  0  0  0
  132.6680  123.6950   60.5960 N   0  0  0  0  0  0  0  0  0  0  0  0
  1  2  1  0
  2  3  2  0
  3  4  1  0
  4  5  1  0
  5  6  1  0
  5  7  1  0
  5  8  1  0
  4  9  2  0
  9 10  1  0
 10 11  1  0
 10 12  2  0
 12 13  1  0
 13 14  2  0
 13 15  1  0
 15 16  1  0
 16 17  1  0
 17 18  2  0
 18 19  1  0
 19 20  2  0
 20 21  1  0
 21 22  2  0
 12 23  1  0
 23 24  1  0
 24 25  2  0
 25  2  1  0
 24  9  1  0
 22 17  1  0
M  END
>  <Binding energies>  (29) 
[-6.11]

>  <Ligand effiencies>  (29) 
[-0.21821428571428572]

>  <Interactions>  (29) 
["V-A:LEU:475:CD2:4256, V-A:GLU:543:CD:4906, V-B:GLU:543:CD:9880, H-B:GLU:543:OE1:9881, H-B:GLU:543:OE2:9882, V-A:ILE:369:CG2:3234, V-A:GLY:454:CA:4046, V-A:ARG:545:CZ:4924, V-A:LEU:363:CA:3182, V-A:ASP:366:CG:3210, V-A:LEU:363:CD1:3186, V-A:PRO:540:CA:4881, V-A:PRO:540:CB:4883, V-A:PRO:540:N:4882, V-A:ARG:545:CD:4921, H-A:GLU:543:OE1:4907, H-A:GLU:543:OE2:4908, V-A:ILE:369:CD1:3236, H-A:ASP:366:OD2:3212, V-A:ILE:538:CG2:4861, V-A:TYR:484:CZ:4344, V-A:ILE:538:CB:4860, V-A:ILE:538:CA:4858, V-A:PRO:540:CD:4885"]

$$$$
4ca_Grossjean_2025
     RDKit          3D

 34 37  0  0  0  0  0  0  0  0999 V2000
  131.7010  126.4960   73.9510 C   0  0  0  0  0  0  0  0  0  0  0  0
  130.3880  126.1150   73.2600 C   0  0  0  0  0  0  0  0  0  0  0  0
  129.4160  127.1240   73.5020 O   0  0  0  0  0  0  0  0  0  0  0  0
  129.3030  128.2000   72.6810 C   0  0  0  0  0  0  0  0  0  0  0  0
  129.1150  129.3500   73.0910 O   0  0  0  0  0  0  0  0  0  0  0  0
  129.4330  127.8530   71.2270 C   0  0  0  0  0  0  0  0  0  0  0  0
  130.6670  128.0330   70.5880 C   0  0  0  0  0  0  0  0  0  0  0  0
  130.8200  127.7160   69.2410 C   0  0  0  0  0  0  0  0  0  0  0  0
  129.7440  127.2200   68.5040 C   0  0  0  0  0  0  0  0  0  0  0  0
  130.0120  126.9240   67.1540 N   0  0  0  0  0  0  0  0  0  0  0  0
  130.3900  125.7580   66.5740 C   0  0  0  0  0  0  0  0  0  0  0  0
  130.5190  124.6950   67.1810 O   0  0  0  0  0  0  0  0  0  0  0  0
  130.6270  125.8260   65.1300 C   0  0  0  0  0  0  0  0  0  0  0  0
  129.4830  126.6630   64.0830 S   0  0  0  0  0  0  0  0  0  0  0  0
  130.4650  126.3340   62.6740 C   0  0  0  0  0  0  0  0  0  0  0  0
  130.1030  126.7520   61.4640 N   0  0  0  0  0  0  0  0  0  0  0  0
  130.9360  126.4630   60.4310 C   0  0  0  0  0  0  0  0  0  0  0  0
  130.5050  126.9560   59.0800 C   0  0  0  0  0  0  0  0  0  0  0  0
  130.1430  128.2990   58.8880 C   0  0  0  0  0  0  0  0  0  0  0  0
  129.7370  128.7620   57.6380 C   0  0  0  0  0  0  0  0  0  0  0  0
  129.6860  127.8840   56.5600 C   0  0  0  0  0  0  0  0  0  0  0  0
  130.0360  126.5480   56.7240 C   0  0  0  0  0  0  0  0  0  0  0  0
  130.4420  126.0900   57.9750 C   0  0  0  0  0  0  0  0  0  0  0  0
  132.1160  125.7350   60.6160 C   0  0  0  0  0  0  0  0  0  0  0  0
  132.5040  125.2850   61.8870 C   0  0  0  0  0  0  0  0  0  0  0  0
  133.8120  124.4960   62.0190 C   0  0  0  0  0  0  0  0  0  0  0  0
  133.6450  123.2950   62.5760 F   0  0  0  0  0  0  0  0  0  0  0  0
  134.3480  124.3050   60.8130 F   0  0  0  0  0  0  0  0  0  0  0  0
  134.6720  125.1710   62.7810 F   0  0  0  0  0  0  0  0  0  0  0  0
  131.6470  125.5990   62.9800 C   0  0  0  0  0  0  0  0  0  0  0  0
  131.7140  125.3240   64.3950 C   0  0  0  0  0  0  0  0  0  0  0  0
  132.7510  124.6310   64.9660 N   0  0  0  0  0  0  0  0  0  0  0  0
  128.5060  127.0310   69.1360 C   0  0  0  0  0  0  0  0  0  0  0  0
  128.3550  127.3470   70.4840 C   0  0  0  0  0  0  0  0  0  0  0  0
  1  2  1  0
  2  3  1  0
  3  4  1  0
  4  5  2  0
  4  6  1  0
  6  7  2  0
  7  8  1  0
  8  9  2  0
  9 10  1  0
 10 11  1  0
 11 12  2  0
 11 13  1  0
 13 14  1  0
 14 15  1  0
 15 16  2  0
 16 17  1  0
 17 18  1  0
 18 19  2  0
 19 20  1  0
 20 21  2  0
 21 22  1  0
 22 23  2  0
 17 24  2  0
 24 25  1  0
 25 26  1  0
 26 27  1  0
 26 28  1  0
 26 29  1  0
 25 30  2  0
 30 31  1  0
 31 32  1  0
  9 33  1  0
 33 34  2  0
 34  6  1  0
 31 13  2  0
 30 15  1  0
 23 18  1  0
M  END
>  <Binding energies>  (30) 
[-5.99]

>  <Ligand effiencies>  (30) 
[-0.1618918918918919]

>  <Interactions>  (30) 
["V-A:GLU:543:CD:4906, V-B:GLU:543:CD:9880, H-B:GLU:543:OE2:9882, V-A:GLY:454:CA:4046, V-A:ARG:545:CZ:4924, V-A:ASP:366:CG:3210, V-B:MET:535:CE:9807, V-A:MET:535:CE:4833, V-A:GLY:453:C:4039, V-A:GLY:453:CA:4041, H-A:HIS:456:NE2:4067, H-A:TYR:484:OH:4345, H-A:GLU:543:OE1:4907, V-B:GLU:543:CB:9878, V-A:HIS:456:CE1:4066, H-A:GLU:543:OE2:4908, V-A:ILE:369:CD1:3236, V-A:TYR:484:CZ:4344, V-B:GLU:543:CG:9879, V-A:GLU:543:CG:4905, V-A:GLU:543:C:4900, V-B:HIS:456:CE1:9040, H-A:LYS:547:NZ:4949, V-A:LYS:547:CE:4948, V-A:GLY:544:CA:4912, V-A:HIS:456:CD2:4065, V-A:GLY:544:C:4910, V-B:HIS:456:CD2:9039, V-B:GLU:543:C:9874, V-A:HIS:456:CG:4063, H-B:HIS:456:NE2:9041, H-B:LYS:547:NZ:9923, V-A:HIS:456:CB:4062"]

$$$$
4cb_Grossjean_2025
     RDKit          3D

 33 36  0  0  0  0  0  0  0  0999 V2000
  131.0290  126.3860   73.5160 C   0  0  0  0  0  0  0  0  0  0  0  0
  129.7880  127.0770   73.4850 O   0  0  0  0  0  0  0  0  0  0  0  0
  129.6090  128.1530   72.6760 C   0  0  0  0  0  0  0  0  0  0  0  0
  129.4000  129.2950   73.0980 O   0  0  0  0  0  0  0  0  0  0  0  0
  129.6910  127.8170   71.2140 C   0  0  0  0  0  0  0  0  0  0  0  0
  130.8890  128.0490   70.5250 C   0  0  0  0  0  0  0  0  0  0  0  0
  130.9980  127.7410   69.1720 C   0  0  0  0  0  0  0  0  0  0  0  0
  129.9140  127.2020   68.4790 C   0  0  0  0  0  0  0  0  0  0  0  0
  130.1400  126.9150   67.1190 N   0  0  0  0  0  0  0  0  0  0  0  0
  130.3450  125.7270   66.5010 C   0  0  0  0  0  0  0  0  0  0  0  0
  130.3170  124.6350   67.0710 O   0  0  0  0  0  0  0  0  0  0  0  0
  130.5930  125.8070   65.0580 C   0  0  0  0  0  0  0  0  0  0  0  0
  129.4610  126.6580   64.0100 S   0  0  0  0  0  0  0  0  0  0  0  0
  130.4510  126.3390   62.6050 C   0  0  0  0  0  0  0  0  0  0  0  0
  130.1000  126.7670   61.3950 N   0  0  0  0  0  0  0  0  0  0  0  0
  130.9380  126.4800   60.3660 C   0  0  0  0  0  0  0  0  0  0  0  0
  130.5180  126.9810   59.0150 C   0  0  0  0  0  0  0  0  0  0  0  0
  130.5370  128.3540   58.7210 C   0  0  0  0  0  0  0  0  0  0  0  0
  130.1450  128.8270   57.4710 C   0  0  0  0  0  0  0  0  0  0  0  0
  129.7270  127.9290   56.4940 C   0  0  0  0  0  0  0  0  0  0  0  0
  129.6950  126.5640   56.7600 C   0  0  0  0  0  0  0  0  0  0  0  0
  130.0860  126.0970   58.0110 C   0  0  0  0  0  0  0  0  0  0  0  0
  132.1130  125.7440   60.5540 C   0  0  0  0  0  0  0  0  0  0  0  0
  132.4910  125.2850   61.8250 C   0  0  0  0  0  0  0  0  0  0  0  0
  133.7940  124.4860   61.9600 C   0  0  0  0  0  0  0  0  0  0  0  0
  134.4020  124.2770   60.7900 F   0  0  0  0  0  0  0  0  0  0  0  0
  134.6470  125.1470   62.7420 F   0  0  0  0  0  0  0  0  0  0  0  0
  133.5380  123.2930   62.4960 F   0  0  0  0  0  0  0  0  0  0  0  0
  131.6270  125.5950   62.9140 C   0  0  0  0  0  0  0  0  0  0  0  0
  131.6850  125.3090   64.3270 C   0  0  0  0  0  0  0  0  0  0  0  0
  132.7170  124.6110   64.9000 N   0  0  0  0  0  0  0  0  0  0  0  0
  128.7120  126.9630   69.1620 C   0  0  0  0  0  0  0  0  0  0  0  0
  128.6050  127.2700   70.5150 C   0  0  0  0  0  0  0  0  0  0  0  0
  1  2  1  0
  2  3  1  0
  3  4  2  0
  3  5  1  0
  5  6  2  0
  6  7  1  0
  7  8  2  0
  8  9  1  0
  9 10  1  0
 10 11  2  0
 10 12  1  0
 12 13  1  0
 13 14  1  0
 14 15  2  0
 15 16  1  0
 16 17  1  0
 17 18  2  0
 18 19  1  0
 19 20  2  0
 20 21  1  0
 21 22  2  0
 16 23  2  0
 23 24  1  0
 24 25  1  0
 25 26  1  0
 25 27  1  0
 25 28  1  0
 24 29  2  0
 29 30  1  0
 30 31  1  0
  8 32  1  0
 32 33  2  0
 33  5  1  0
 30 12  2  0
 29 14  1  0
 22 17  1  0
M  END
>  <Binding energies>  (31) 
[-5.75]

>  <Ligand effiencies>  (31) 
[-0.1597222222222222]

>  <Interactions>  (31) 
["V-A:GLU:543:CD:4906, V-B:GLU:543:CD:9880, H-B:GLU:543:OE2:9882, V-A:GLY:454:CA:4046, V-A:ARG:545:CZ:4924, V-A:ASP:366:CG:3210, V-B:MET:535:CE:9807, V-A:MET:535:CE:4833, V-A:GLY:453:C:4039, V-A:GLY:453:CA:4041, H-A:HIS:456:NE2:4067, H-A:TYR:484:OH:4345, H-A:GLU:543:OE1:4907, V-B:GLU:543:CB:9878, V-A:HIS:456:CE1:4066, H-A:GLU:543:OE2:4908, V-A:ILE:369:CD1:3236, V-A:ARG:545:CG:4920, V-A:TYR:484:CZ:4344, V-B:GLU:543:CG:9879, V-A:GLU:543:CG:4905, V-A:GLU:543:C:4900, V-B:HIS:456:CE1:9040, H-A:LYS:547:NZ:4949, V-A:LYS:547:CE:4948, V-A:GLY:544:CA:4912, V-A:HIS:456:CD2:4065, V-A:GLY:544:C:4910, V-B:GLU:543:C:9874, V-A:HIS:456:CG:4063, H-B:HIS:456:NE2:9041, H-B:LYS:547:NZ:9923"]

$$$$
4cc_Grossjean_2025
     RDKit          3D

 31 34  0  0  0  0  0  0  0  0999 V2000
  125.6290  134.0440   62.0000 C   0  0  0  0  0  0  0  0  0  0  0  0
  125.4070  133.1430   63.0800 O   0  0  0  0  0  0  0  0  0  0  0  0
  125.9890  131.8910   63.0440 C   0  0  0  0  0  0  0  0  0  0  0  0
  126.8740  131.6450   61.9950 C   0  0  0  0  0  0  0  0  0  0  0  0
  127.5100  130.4130   61.8770 C   0  0  0  0  0  0  0  0  0  0  0  0
  127.2600  129.4010   62.8060 C   0  0  0  0  0  0  0  0  0  0  0  0
  127.9600  128.1950   62.6140 N   0  0  0  0  0  0  0  0  0  0  0  0
  128.0230  127.4060   61.5150 C   0  0  0  0  0  0  0  0  0  0  0  0
  127.4700  127.6690   60.4460 O   0  0  0  0  0  0  0  0  0  0  0  0
  128.8110  126.1790   61.6650 C   0  0  0  0  0  0  0  0  0  0  0  0
  128.4450  124.7620   60.6820 S   0  0  0  0  0  0  0  0  0  0  0  0
  129.7410  123.8560   61.4260 C   0  0  0  0  0  0  0  0  0  0  0  0
  129.9990  122.5980   61.0750 N   0  0  0  0  0  0  0  0  0  0  0  0
  131.0320  121.9780   61.7020 C   0  0  0  0  0  0  0  0  0  0  0  0
  131.2980  120.5600   61.2880 C   0  0  0  0  0  0  0  0  0  0  0  0
  132.5710  120.1690   60.8420 C   0  0  0  0  0  0  0  0  0  0  0  0
  132.8250  118.8550   60.4540 C   0  0  0  0  0  0  0  0  0  0  0  0
  131.8050  117.9110   60.5070 C   0  0  0  0  0  0  0  0  0  0  0  0
  130.5340  118.2730   60.9410 C   0  0  0  0  0  0  0  0  0  0  0  0
  130.2840  119.5870   61.3260 C   0  0  0  0  0  0  0  0  0  0  0  0
  131.7890  122.6170   62.6890 C   0  0  0  0  0  0  0  0  0  0  0  0
  131.5240  123.9430   63.0680 C   0  0  0  0  0  0  0  0  0  0  0  0
  132.3970  124.5840   64.1520 C   0  0  0  0  0  0  0  0  0  0  0  0
  133.1200  125.6130   63.7040 F   0  0  0  0  0  0  0  0  0  0  0  0
  131.6270  125.0390   65.1410 F   0  0  0  0  0  0  0  0  0  0  0  0
  133.2480  123.6810   64.6390 F   0  0  0  0  0  0  0  0  0  0  0  0
  130.4480  124.6060   62.4110 C   0  0  0  0  0  0  0  0  0  0  0  0
  129.8900  125.9310   62.5280 C   0  0  0  0  0  0  0  0  0  0  0  0
  130.3780  126.8650   63.4070 N   0  0  0  0  0  0  0  0  0  0  0  0
  126.3810  129.6440   63.8720 C   0  0  0  0  0  0  0  0  0  0  0  0
  125.7480  130.8790   63.9860 C   0  0  0  0  0  0  0  0  0  0  0  0
  1  2  1  0
  2  3  1  0
  3  4  2  0
  4  5  1  0
  5  6  2  0
  6  7  1  0
  7  8  1  0
  8  9  2  0
  8 10  1  0
 10 11  1  0
 11 12  1  0
 12 13  2  0
 13 14  1  0
 14 15  1  0
 15 16  2  0
 16 17  1  0
 17 18  2  0
 18 19  1  0
 19 20  2  0
 14 21  2  0
 21 22  1  0
 22 23  1  0
 23 24  1  0
 23 25  1  0
 23 26  1  0
 22 27  2  0
 27 28  1  0
 28 29  1  0
  6 30  1  0
 30 31  2  0
 31  3  1  0
 28 10  2  0
 27 12  1  0
 20 15  1  0
M  END
>  <Binding energies>  (32) 
[-6.24]

>  <Ligand effiencies>  (32) 
[-0.18352941176470589]

>  <Interactions>  (32) 
["V-A:PRO:482:CG:4324, V-A:LEU:373:CD1:3277, V-A:LEU:475:CD2:4256, V-A:GLU:543:CD:4906, V-B:GLU:543:CD:9880, H-B:GLU:543:OE1:9881, V-A:PRO:482:CB:4323, H-B:GLU:543:OE2:9882, V-A:SER:385:CB:3406, V-A:ILE:369:CG2:3234, V-B:TYR:539:CB:9843, V-A:GLY:454:CA:4046, V-B:TYR:539:CD1:9845, V-A:ARG:545:CZ:4924, V-A:SER:385:CA:3404, V-B:ALA:541:CB:9864, V-B:TYR:539:CE1:9847, V-A:TYR:539:CE1:4873, V-A:TYR:539:CD1:4871, V-A:GLY:453:C:4039, H-A:GLU:543:OE1:4907, H-A:GLU:543:OE2:4908, V-B:LEU:475:CD2:9230, V-A:TYR:484:CZ:4344, V-A:GLY:454:C:4044"]

$$$$
4ce_Grossjean_2025
     RDKit          3D

 30 33  0  0  0  0  0  0  0  0999 V2000
  129.1130  132.9300   56.4000 C   0  0  0  0  0  0  0  0  0  0  0  0
  130.4040  132.2480   56.8140 C   0  0  0  0  0  0  0  0  0  0  0  0
  131.6510  132.8050   56.5210 C   0  0  0  0  0  0  0  0  0  0  0  0
  132.7960  132.1260   56.9400 C   0  0  0  0  0  0  0  0  0  0  0  0
  132.6690  130.9220   57.6340 C   0  0  0  0  0  0  0  0  0  0  0  0
  131.3880  130.4160   57.8890 C   0  0  0  0  0  0  0  0  0  0  0  0
  131.3240  129.2120   58.6140 N   0  0  0  0  0  0  0  0  0  0  0  0
  130.5630  128.9120   59.6950 C   0  0  0  0  0  0  0  0  0  0  0  0
  129.7640  129.6960   60.2090 O   0  0  0  0  0  0  0  0  0  0  0  0
  130.7430  127.5630   60.2370 C   0  0  0  0  0  0  0  0  0  0  0  0
  131.0220  126.2020   59.1530 S   0  0  0  0  0  0  0  0  0  0  0  0
  131.1600  125.0990   60.5000 C   0  0  0  0  0  0  0  0  0  0  0  0
  131.3980  123.8030   60.3150 N   0  0  0  0  0  0  0  0  0  0  0  0
  131.5050  123.0260   61.4250 C   0  0  0  0  0  0  0  0  0  0  0  0
  131.7780  121.5710   61.1810 C   0  0  0  0  0  0  0  0  0  0  0  0
  130.7420  120.6260   61.2540 C   0  0  0  0  0  0  0  0  0  0  0  0
  130.9890  119.2730   61.0360 C   0  0  0  0  0  0  0  0  0  0  0  0
  132.2790  118.8460   60.7400 C   0  0  0  0  0  0  0  0  0  0  0  0
  133.3230  119.7610   60.6630 C   0  0  0  0  0  0  0  0  0  0  0  0
  133.0730  121.1130   60.8840 C   0  0  0  0  0  0  0  0  0  0  0  0
  131.3520  123.5500   62.7120 C   0  0  0  0  0  0  0  0  0  0  0  0
  131.0960  124.9150   62.9190 C   0  0  0  0  0  0  0  0  0  0  0  0
  130.9410  125.4230   64.3560 C   0  0  0  0  0  0  0  0  0  0  0  0
  131.9930  126.1260   64.7800 F   0  0  0  0  0  0  0  0  0  0  0  0
  129.8710  126.2140   64.4420 F   0  0  0  0  0  0  0  0  0  0  0  0
  130.7910  124.3900   65.1850 F   0  0  0  0  0  0  0  0  0  0  0  0
  130.9970  125.7420   61.7630 C   0  0  0  0  0  0  0  0  0  0  0  0
  130.7580  127.1520   61.5810 C   0  0  0  0  0  0  0  0  0  0  0  0
  130.5640  128.0140   62.6300 N   0  0  0  0  0  0  0  0  0  0  0  0
  130.2630  131.0770   57.4870 N   0  0  0  0  0  0  0  0  0  0  0  0
  1  2  1  0
  2  3  2  0
  3  4  1  0
  4  5  2  0
  5  6  1  0
  6  7  1  0
  7  8  1  0
  8  9  2  0
  8 10  1  0
 10 11  1  0
 11 12  1  0
 12 13  2  0
 13 14  1  0
 14 15  1  0
 15 16  2  0
 16 17  1  0
 17 18  2  0
 18 19  1  0
 19 20  2  0
 14 21  2  0
 21 22  1  0
 22 23  1  0
 23 24  1  0
 23 25  1  0
 23 26  1  0
 22 27  2  0
 27 28  1  0
 28 29  1  0
  6 30  2  0
 30  2  1  0
 28 10  2  0
 27 12  1  0
 20 15  1  0
M  END
>  <Binding energies>  (33) 
[-7.35]

>  <Ligand effiencies>  (33) 
[-0.22272727272727272]

>  <Interactions>  (33) 
["V-A:LEU:373:CD1:3277, V-A:LEU:475:CD2:4256, V-A:GLU:543:CD:4906, V-B:GLU:543:CD:9880, V-A:ILE:369:CG2:3234, V-B:TYR:539:CD1:9845, V-A:ARG:545:CZ:4924, V-A:SER:385:CA:3404, V-B:ALA:541:CB:9864, V-B:TYR:539:CE1:9847, V-A:TYR:539:CE2:4874, V-A:TYR:539:CZ:4875, V-A:ASP:366:CG:3210, V-A:TYR:531:CE2:4791, V-A:ASP:366:CB:3209, V-A:LEU:363:CD1:3186, V-A:PRO:540:CB:4883, V-A:PRO:540:N:4882, V-A:TYR:539:CE1:4873, V-A:TYR:539:CD1:4871, H-A:GLU:543:OE1:4907, V-B:GLU:543:CB:9878, H-A:GLU:543:OE2:4908, H-A:ASP:366:OD2:3212, V-A:ILE:538:CG2:4861, V-A:TYR:539:CG:4870, V-A:TYR:484:CZ:4344, H-A:TYR:531:OH:4793, V-A:ILE:538:CB:4860, V-A:ILE:538:CA:4858, V-A:PRO:540:CD:4885, V-A:TYR:484:CE2:4343, V-A:TYR:539:CD2:4872, V-A:TYR:539:CA:4867, V-A:ILE:538:C:4856"]

$$$$
4cf_Grossjean_2025
     RDKit          3D

 29 32  0  0  0  0  0  0  0  0999 V2000
  130.5110  128.2100   62.4740 N   0  0  0  0  0  0  0  0  0  0  0  0
  130.6870  127.3130   61.4520 C   0  0  0  0  0  0  0  0  0  0  0  0
  130.6610  127.6760   60.0960 C   0  0  0  0  0  0  0  0  0  0  0  0
  130.4180  128.9970   59.5080 C   0  0  0  0  0  0  0  0  0  0  0  0
  129.4080  129.6380   59.8030 O   0  0  0  0  0  0  0  0  0  0  0  0
  131.3730  129.4360   58.6530 N   0  0  0  0  0  0  0  0  0  0  0  0
  131.4210  130.6200   57.8920 C   0  0  0  0  0  0  0  0  0  0  0  0
  132.5670  131.1390   57.2610 C   0  0  0  0  0  0  0  0  0  0  0  0
  132.4800  132.3350   56.5460 C   0  0  0  0  0  0  0  0  0  0  0  0
  131.2480  132.9860   56.4790 C   0  0  0  0  0  0  0  0  0  0  0  0
  130.1290  132.5110   57.0830 N   0  0  0  0  0  0  0  0  0  0  0  0
  130.2310  131.3470   57.7770 C   0  0  0  0  0  0  0  0  0  0  0  0
  130.9280  126.2780   59.0580 S   0  0  0  0  0  0  0  0  0  0  0  0
  131.0650  125.2190   60.4420 C   0  0  0  0  0  0  0  0  0  0  0  0
  131.2810  123.9130   60.3000 N   0  0  0  0  0  0  0  0  0  0  0  0
  131.3560  123.1700   61.4350 C   0  0  0  0  0  0  0  0  0  0  0  0
  131.5930  121.7000   61.2440 C   0  0  0  0  0  0  0  0  0  0  0  0
  132.8560  121.2210   60.8610 C   0  0  0  0  0  0  0  0  0  0  0  0
  133.0840  119.8590   60.6820 C   0  0  0  0  0  0  0  0  0  0  0  0
  132.0490  118.9540   60.8870 C   0  0  0  0  0  0  0  0  0  0  0  0
  130.7880  119.4000   61.2700 C   0  0  0  0  0  0  0  0  0  0  0  0
  130.5650  120.7630   61.4480 C   0  0  0  0  0  0  0  0  0  0  0  0
  131.2380  123.7430   62.7040 C   0  0  0  0  0  0  0  0  0  0  0  0
  131.0140  125.1200   62.8650 C   0  0  0  0  0  0  0  0  0  0  0  0
  130.8890  125.6820   64.2860 C   0  0  0  0  0  0  0  0  0  0  0  0
  131.9650  126.3700   64.6740 F   0  0  0  0  0  0  0  0  0  0  0  0
  129.8430  126.5050   64.3550 F   0  0  0  0  0  0  0  0  0  0  0  0
  130.7210  124.6840   65.1540 F   0  0  0  0  0  0  0  0  0  0  0  0
  130.9160  125.9070   61.6820 C   0  0  0  0  0  0  0  0  0  0  0  0
  1  2  1  0
  2  3  2  0
  3  4  1  0
  4  5  2  0
  4  6  1  0
  6  7  1  0
  7  8  2  0
  8  9  1  0
  9 10  2  0
 10 11  1  0
 11 12  2  0
  3 13  1  0
 13 14  1  0
 14 15  2  0
 15 16  1  0
 16 17  1  0
 17 18  2  0
 18 19  1  0
 19 20  2  0
 20 21  1  0
 21 22  2  0
 16 23  2  0
 23 24  1  0
 24 25  1  0
 25 26  1  0
 25 27  1  0
 25 28  1  0
 24 29  2  0
 29  2  1  0
 12  7  1  0
 29 14  1  0
 22 17  1  0
M  END
>  <Binding energies>  (34) 
[-6.98]

>  <Ligand effiencies>  (34) 
[-0.218125]

>  <Interactions>  (34) 
["V-A:LEU:373:CD1:3277, V-A:LEU:475:CD2:4256, V-A:GLU:543:CD:4906, V-B:GLU:543:CD:9880, V-A:ILE:369:CG2:3234, V-B:TYR:539:CD1:9845, V-A:ARG:545:CZ:4924, V-A:SER:385:CA:3404, V-B:ALA:541:CB:9864, V-B:TYR:539:CE1:9847, V-A:ASP:366:CG:3210, V-A:TYR:531:CE2:4791, V-A:TYR:531:CZ:4792, V-A:LEU:363:CD1:3186, V-A:TYR:539:C:4865, V-A:PRO:540:N:4882, H-A:TYR:539:N:4868, H-A:GLU:543:OE1:4907, V-B:GLU:543:CB:9878, H-A:GLU:543:OE2:4908, H-A:ASP:366:OD2:3212, H-A:ASP:366:OD1:3211, V-A:ILE:538:CG2:4861, H-A:TYR:531:OH:4793, V-A:ILE:538:CB:4860, V-A:ILE:538:CA:4858, V-A:PRO:540:CD:4885, V-A:ILE:538:C:4856"]

$$$$
4ci_Grossjean_2025
     RDKit          3D

 28 31  0  0  0  0  0  0  0  0999 V2000
  130.7650  127.0610   63.1330 N   0  0  0  0  0  0  0  0  0  0  0  0
  130.8980  126.2630   62.0260 C   0  0  0  0  0  0  0  0  0  0  0  0
  130.8590  126.7560   60.7120 C   0  0  0  0  0  0  0  0  0  0  0  0
  130.6920  128.1410   60.2610 C   0  0  0  0  0  0  0  0  0  0  0  0
  130.7290  128.4200   59.0600 O   0  0  0  0  0  0  0  0  0  0  0  0
  130.5130  129.0580   61.2450 N   0  0  0  0  0  0  0  0  0  0  0  0
  130.3350  130.4280   61.1020 C   0  0  0  0  0  0  0  0  0  0  0  0
  129.3960  130.9890   60.2370 C   0  0  0  0  0  0  0  0  0  0  0  0
  129.5360  132.3480   60.3890 C   0  0  0  0  0  0  0  0  0  0  0  0
  130.5090  132.5940   61.3000 O   0  0  0  0  0  0  0  0  0  0  0  0
  131.0080  131.3690   61.7440 N   0  0  0  0  0  0  0  0  0  0  0  0
  131.0720  125.4600   59.5380 S   0  0  0  0  0  0  0  0  0  0  0  0
  131.2020  124.2680   60.8100 C   0  0  0  0  0  0  0  0  0  0  0  0
  131.3890  122.9790   60.5390 N   0  0  0  0  0  0  0  0  0  0  0  0
  131.4810  122.1270   61.5930 C   0  0  0  0  0  0  0  0  0  0  0  0
  131.6870  120.6790   61.2550 C   0  0  0  0  0  0  0  0  0  0  0  0
  130.6190  119.7670   61.3110 C   0  0  0  0  0  0  0  0  0  0  0  0
  130.8030  118.4230   60.9970 C   0  0  0  0  0  0  0  0  0  0  0  0
  132.0630  117.9680   60.6230 C   0  0  0  0  0  0  0  0  0  0  0  0
  133.1390  118.8470   60.5630 C   0  0  0  0  0  0  0  0  0  0  0  0
  132.9510  120.1900   60.8790 C   0  0  0  0  0  0  0  0  0  0  0  0
  131.3690  122.5740   62.9140 C   0  0  0  0  0  0  0  0  0  0  0  0
  131.1720  123.9320   63.2120 C   0  0  0  0  0  0  0  0  0  0  0  0
  131.0580  124.3520   64.6820 C   0  0  0  0  0  0  0  0  0  0  0  0
  130.2150  125.3690   64.8730 F   0  0  0  0  0  0  0  0  0  0  0  0
  130.6150  123.3260   65.4080 F   0  0  0  0  0  0  0  0  0  0  0  0
  132.2520  124.7300   65.1380 F   0  0  0  0  0  0  0  0  0  0  0  0
  131.0860  124.8350   62.1130 C   0  0  0  0  0  0  0  0  0  0  0  0
  1  2  1  0
  2  3  2  0
  3  4  1  0
  4  5  2  0
  4  6  1  0
  6  7  1  0
  7  8  1  0
  8  9  2  0
  9 10  1  0
 10 11  1  0
  3 12  1  0
 12 13  1  0
 13 14  2  0
 14 15  1  0
 15 16  1  0
 16 17  2  0
 17 18  1  0
 18 19  2  0
 19 20  1  0
 20 21  2  0
 15 22  2  0
 22 23  1  0
 23 24  1  0
 24 25  1  0
 24 26  1  0
 24 27  1  0
 23 28  2  0
 28  2  1  0
 11  7  2  0
 28 13  1  0
 21 16  1  0
M  END
>  <Binding energies>  (35) 
[-6.76]

>  <Ligand effiencies>  (35) 
[-0.21806451612903224]

>  <Interactions>  (35) 
["V-A:PRO:482:CG:4324, V-A:LEU:373:CD1:3277, V-A:LEU:475:CD2:4256, V-A:GLU:543:CD:4906, V-B:GLU:543:CD:9880, V-A:PRO:482:CB:4323, V-A:SER:385:CB:3406, V-A:ILE:369:CG2:3234, V-B:TYR:539:CD1:9845, V-A:ARG:545:CZ:4924, V-A:SER:385:CA:3404, V-B:ALA:541:CB:9864, V-B:TYR:539:CE1:9847, V-A:ASP:366:CG:3210, V-A:PRO:540:CA:4881, V-A:TYR:539:C:4865, H-A:ALA:541:N:4889, H-A:GLU:543:OE1:4907, V-B:GLU:543:CB:9878, H-A:GLU:543:OE2:4908, V-A:TYR:484:CZ:4344, V-B:GLU:543:CG:9879, V-A:TYR:484:CE2:4343"]

$$$$
8a_Ghoteimi_2023
     RDKit          3D

 40 44  0  0  0  0  0  0  0  0999 V2000
  129.6400  131.9660   72.9060 C   0  0  0  0  0  0  0  0  0  0  0  0
  128.8370  130.9470   73.7210 C   0  0  0  0  0  0  0  0  0  0  0  0
  129.4650  129.6740   73.6360 O   0  0  0  0  0  0  0  0  0  0  0  0
  128.7590  128.5660   73.2880 C   0  0  0  0  0  0  0  0  0  0  0  0
  127.9170  128.0390   74.0210 O   0  0  0  0  0  0  0  0  0  0  0  0
  129.1090  128.0440   71.9250 C   0  0  0  0  0  0  0  0  0  0  0  0
  128.1020  127.4870   71.1270 C   0  0  0  0  0  0  0  0  0  0  0  0
  128.3960  126.9930   69.8590 C   0  0  0  0  0  0  0  0  0  0  0  0
  129.6990  127.0420   69.3630 C   0  0  0  0  0  0  0  0  0  0  0  0
  129.8780  126.5090   68.0710 N   0  0  0  0  0  0  0  0  0  0  0  0
  129.4880  126.9860   66.8630 C   0  0  0  0  0  0  0  0  0  0  0  0
  128.8690  128.0370   66.7000 O   0  0  0  0  0  0  0  0  0  0  0  0
  129.8620  126.1570   65.7140 C   0  0  0  0  0  0  0  0  0  0  0  0
  130.6350  124.5910   65.9590 S   0  0  0  0  0  0  0  0  0  0  0  0
  130.7370  124.3190   64.2350 C   0  0  0  0  0  0  0  0  0  0  0  0
  131.2950  123.2180   63.7310 N   0  0  0  0  0  0  0  0  0  0  0  0
  131.3280  123.1080   62.3770 C   0  0  0  0  0  0  0  0  0  0  0  0
  131.9770  121.8750   61.8340 C   0  0  0  0  0  0  0  0  0  0  0  0
  131.2090  120.7850   61.4000 C   0  0  0  0  0  0  0  0  0  0  0  0
  131.8200  119.6350   60.9060 C   0  0  0  0  0  0  0  0  0  0  0  0
  133.2080  119.5470   60.8310 C   0  0  0  0  0  0  0  0  0  0  0  0
  133.7260  118.3670   60.3290 O   0  0  0  0  0  0  0  0  0  0  0  0
  132.8830  117.2230   60.2400 C   0  0  0  0  0  0  0  0  0  0  0  0
  133.9850  120.6330   61.2560 C   0  0  0  0  0  0  0  0  0  0  0  0
  133.3720  121.7810   61.7530 C   0  0  0  0  0  0  0  0  0  0  0  0
  130.7990  124.0890   61.5350 C   0  0  0  0  0  0  0  0  0  0  0  0
  130.1980  125.2380   62.0590 C   0  0  0  0  0  0  0  0  0  0  0  0
  129.6230  126.2340   61.1200 C   0  0  0  0  0  0  0  0  0  0  0  0
  128.2430  126.2880   60.9110 C   0  0  0  0  0  0  0  0  0  0  0  0
  127.6980  127.2340   60.0470 C   0  0  0  0  0  0  0  0  0  0  0  0
  128.5210  128.1450   59.3820 C   0  0  0  0  0  0  0  0  0  0  0  0
  127.8920  129.0470   58.5460 O   0  0  0  0  0  0  0  0  0  0  0  0
  126.4730  129.1430   58.5690 C   0  0  0  0  0  0  0  0  0  0  0  0
  129.9070  128.0970   59.5970 C   0  0  0  0  0  0  0  0  0  0  0  0
  130.4490  127.1510   60.4640 C   0  0  0  0  0  0  0  0  0  0  0  0
  130.1720  125.3850   63.4750 C   0  0  0  0  0  0  0  0  0  0  0  0
  129.6960  126.4310   64.3470 C   0  0  0  0  0  0  0  0  0  0  0  0
  129.1470  127.5950   63.8700 N   0  0  0  0  0  0  0  0  0  0  0  0
  130.7140  127.6030   70.1540 C   0  0  0  0  0  0  0  0  0  0  0  0
  130.4190  128.0970   71.4220 C   0  0  0  0  0  0  0  0  0  0  0  0
  1  2  1  0
  2  3  1  0
  3  4  1  0
  4  5  2  0
  4  6  1  0
  6  7  2  0
  7  8  1  0
  8  9  2  0
  9 10  1  0
 10 11  1  0
 11 12  2  0
 11 13  1  0
 13 14  1  0
 14 15  1  0
 15 16  2  0
 16 17  1  0
 17 18  1  0
 18 19  2  0
 19 20  1  0
 20 21  2  0
 21 22  1  0
 22 23  1  0
 21 24  1  0
 24 25  2  0
 17 26  2  0
 26 27  1  0
 27 28  1  0
 28 29  2  0
 29 30  1  0
 30 31  2  0
 31 32  1  0
 32 33  1  0
 31 34  1  0
 34 35  2  0
 27 36  2  0
 36 37  1  0
 37 38  1  0
  9 39  1  0
 39 40  2  0
 40  6  1  0
 37 13  2  0
 36 15  1  0
 25 18  1  0
 35 28  1  0
M  END
>  <Binding energies>  (36) 
[-5.46]

>  <Ligand effiencies>  (36) 
[-0.12697674418604651]

>  <Interactions>  (36) 
["V-A:LEU:373:CD1:3277, V-A:LEU:475:CD2:4256, V-A:GLU:543:CD:4906, V-B:GLU:543:CD:9880, H-B:GLU:543:OE1:9881, H-B:GLU:543:OE2:9882, V-A:SER:385:CB:3406, V-A:ILE:369:CG2:3234, V-B:TYR:539:CD1:9845, V-A:SER:385:CA:3404, V-B:TYR:539:CE1:9847, V-B:ASP:366:CG:8184, H-B:GLU:543:O:9875, H-A:TYR:484:OH:4345, H-A:GLU:543:OE1:4907, V-B:GLU:543:CB:9878, V-A:HIS:456:CE1:4066, H-A:GLU:543:OE2:4908, V-A:ILE:369:CD1:3236, V-A:SER:385:C:3402, V-A:TYR:484:CZ:4344, V-B:GLU:543:CG:9879, V-A:GLU:543:CG:4905, V-A:GLU:543:C:4900, V-B:HIS:456:CE1:9040, V-A:TYR:484:CE2:4343, H-A:LYS:547:NZ:4949, V-A:LYS:547:CE:4948, V-A:GLY:544:CA:4912, V-A:HIS:456:CD2:4065, V-B:GLY:544:C:9884, V-A:GLY:544:C:4910, V-B:HIS:456:CD2:9039, V-B:GLU:543:C:9874, H-A:HIS:456:ND1:4064, H-B:LYS:547:NZ:9923"]

$$$$
8c_Ghoteimi_2023
     RDKit          3D

 34 38  0  0  0  0  0  0  0  0999 V2000
  130.3640  127.3220   71.8060 C   0  0  0  0  0  0  0  0  0  0  0  0
  129.9570  128.0890   70.6780 O   0  0  0  0  0  0  0  0  0  0  0  0
  130.1130  127.5590   69.4110 C   0  0  0  0  0  0  0  0  0  0  0  0
  129.0490  126.8090   68.9140 C   0  0  0  0  0  0  0  0  0  0  0  0
  129.1200  126.2350   67.6480 C   0  0  0  0  0  0  0  0  0  0  0  0
  130.2580  126.3970   66.8450 C   0  0  0  0  0  0  0  0  0  0  0  0
  130.3410  125.7800   65.4850 C   0  0  0  0  0  0  0  0  0  0  0  0
  129.8610  126.4350   64.3470 C   0  0  0  0  0  0  0  0  0  0  0  0
  129.9540  125.8360   63.0860 C   0  0  0  0  0  0  0  0  0  0  0  0
  129.4290  126.5540   61.9020 C   0  0  0  0  0  0  0  0  0  0  0  0
  128.0990  126.3840   61.5090 C   0  0  0  0  0  0  0  0  0  0  0  0
  127.6040  127.0660   60.4020 C   0  0  0  0  0  0  0  0  0  0  0  0
  128.4270  127.9240   59.6710 C   0  0  0  0  0  0  0  0  0  0  0  0
  127.8500  128.5610   58.5890 O   0  0  0  0  0  0  0  0  0  0  0  0
  126.4510  128.4280   58.3700 C   0  0  0  0  0  0  0  0  0  0  0  0
  129.7650  128.0900   60.0650 C   0  0  0  0  0  0  0  0  0  0  0  0
  130.2580  127.4080   61.1730 C   0  0  0  0  0  0  0  0  0  0  0  0
  130.5520  124.5510   62.9990 C   0  0  0  0  0  0  0  0  0  0  0  0
  130.8070  123.6660   61.8930 C   0  0  0  0  0  0  0  0  0  0  0  0
  130.4630  123.9840   60.6030 N   0  0  0  0  0  0  0  0  0  0  0  0
  131.4330  122.4640   62.2590 C   0  0  0  0  0  0  0  0  0  0  0  0
  131.8390  121.3490   61.4000 C   0  0  0  0  0  0  0  0  0  0  0  0
  132.7600  121.4800   60.5910 O   0  0  0  0  0  0  0  0  0  0  0  0
  131.1360  120.2020   61.5660 N   0  0  0  0  0  0  0  0  0  0  0  0
  131.3180  119.0060   60.8860 C   0  0  0  0  0  0  0  0  0  0  0  0
  130.3970  118.1660   60.4680 N   0  0  0  0  0  0  0  0  0  0  0  0
  130.9290  117.1290   59.8530 C   0  0  0  0  0  0  0  0  0  0  0  0
  132.3170  117.1120   59.7640 C   0  0  0  0  0  0  0  0  0  0  0  0
  132.9500  118.5380   60.5310 S   0  0  0  0  0  0  0  0  0  0  0  0
  131.7270  122.4020   63.9970 S   0  0  0  0  0  0  0  0  0  0  0  0
  131.0090  123.9810   64.2220 C   0  0  0  0  0  0  0  0  0  0  0  0
  130.9200  124.5500   65.4240 N   0  0  0  0  0  0  0  0  0  0  0  0
  131.3230  127.1550   67.3510 C   0  0  0  0  0  0  0  0  0  0  0  0
  131.2560  127.7300   68.6170 C   0  0  0  0  0  0  0  0  0  0  0  0
  1  2  1  0
  2  3  1  0
  3  4  2  0
  4  5  1  0
  5  6  2  0
  6  7  1  0
  7  8  2  0
  8  9  1  0
  9 10  1  0
 10 11  2  0
 11 12  1  0
 12 13  2  0
 13 14  1  0
 14 15  1  0
 13 16  1  0
 16 17  2  0
  9 18  2  0
 18 19  1  0
 19 20  1  0
 19 21  2  0
 21 22  1  0
 22 23  2  0
 22 24  1  0
 24 25  1  0
 25 26  2  0
 26 27  1  0
 27 28  2  0
 28 29  1  0
 21 30  1  0
 30 31  1  0
 31 32  2  0
  6 33  1  0
 33 34  2  0
 34  3  1  0
 32  7  1  0
 17 10  1  0
 31 18  1  0
 29 25  1  0
M  END
>  <Binding energies>  (37) 
[-4.57]

>  <Ligand effiencies>  (37) 
[-0.12351351351351351]

>  <Interactions>  (37) 
["V-A:PRO:482:CG:4324, V-A:LEU:373:CD1:3277, V-A:LEU:475:CD2:4256, V-A:GLU:543:CD:4906, V-B:GLU:543:CD:9880, V-A:SER:385:CB:3406, V-B:TYR:539:CB:9843, V-B:TYR:539:CD1:9845, V-A:SER:385:CA:3404, V-B:ALA:541:CB:9864, V-B:TYR:539:CE1:9847, V-B:ASP:366:CG:8184, H-A:TYR:484:OH:4345, V-B:GLU:543:CB:9878, V-A:HIS:456:CE1:4066, V-A:ARG:545:CG:4920, V-B:ASP:366:CB:8183, V-A:TYR:484:CZ:4344, V-B:GLU:543:CG:9879, V-A:GLU:543:CG:4905, V-A:GLU:543:C:4900, H-B:TYR:539:O:9840, V-B:TYR:539:CG:9844, V-B:VAL:344:CG1:7972, V-A:HIS:456:CD2:4065, V-A:GLY:544:C:4910, V-B:GLU:543:C:9874, H-B:HIS:456:NE2:9041"]

$$$$
8d_Ghoteimi_2023
     RDKit          3D

 30 33  0  0  0  0  0  0  0  0999 V2000
  133.6400  121.9400   61.0730 C   0  0  0  0  0  0  0  0  0  0  0  0
  133.8250  122.2620   62.4450 O   0  0  0  0  0  0  0  0  0  0  0  0
  132.7770  122.6580   63.2130 C   0  0  0  0  0  0  0  0  0  0  0  0
  132.4530  122.1130   64.2710 O   0  0  0  0  0  0  0  0  0  0  0  0
  132.0560  123.8200   62.6500 C   0  0  0  0  0  0  0  0  0  0  0  0
  132.3660  125.4380   63.2820 S   0  0  0  0  0  0  0  0  0  0  0  0
  131.2110  126.1360   62.1690 C   0  0  0  0  0  0  0  0  0  0  0  0
  130.9620  127.4450   62.1440 N   0  0  0  0  0  0  0  0  0  0  0  0
  130.0470  127.8830   61.2380 C   0  0  0  0  0  0  0  0  0  0  0  0
  129.7820  129.3560   61.2330 C   0  0  0  0  0  0  0  0  0  0  0  0
  128.4740  129.8570   61.2990 C   0  0  0  0  0  0  0  0  0  0  0  0
  128.2340  131.2280   61.2930 C   0  0  0  0  0  0  0  0  0  0  0  0
  129.2910  132.1330   61.2210 C   0  0  0  0  0  0  0  0  0  0  0  0
  128.9590  133.4740   61.2220 O   0  0  0  0  0  0  0  0  0  0  0  0
  127.6510  133.8650   61.6270 C   0  0  0  0  0  0  0  0  0  0  0  0
  130.6040  131.6430   61.1570 C   0  0  0  0  0  0  0  0  0  0  0  0
  130.8400  130.2710   61.1630 C   0  0  0  0  0  0  0  0  0  0  0  0
  129.3810  127.0140   60.3690 C   0  0  0  0  0  0  0  0  0  0  0  0
  129.6450  125.6410   60.3940 C   0  0  0  0  0  0  0  0  0  0  0  0
  128.9300  124.7460   59.4550 C   0  0  0  0  0  0  0  0  0  0  0  0
  129.1770  124.8260   58.0830 C   0  0  0  0  0  0  0  0  0  0  0  0
  128.4980  123.9910   57.1990 C   0  0  0  0  0  0  0  0  0  0  0  0
  127.5700  123.0630   57.6720 C   0  0  0  0  0  0  0  0  0  0  0  0
  126.9440  122.2790   56.7230 O   0  0  0  0  0  0  0  0  0  0  0  0
  125.5710  122.5050   56.4300 C   0  0  0  0  0  0  0  0  0  0  0  0
  127.3260  122.9820   59.0530 C   0  0  0  0  0  0  0  0  0  0  0  0
  128.0050  123.8180   59.9350 C   0  0  0  0  0  0  0  0  0  0  0  0
  130.6000  125.1620   61.3300 C   0  0  0  0  0  0  0  0  0  0  0  0
  131.1010  123.8480   61.6270 C   0  0  0  0  0  0  0  0  0  0  0  0
  130.6710  122.7260   60.9660 N   0  0  0  0  0  0  0  0  0  0  0  0
  1  2  1  0
  2  3  1  0
  3  4  2  0
  3  5  1  0
  5  6  1  0
  6  7  1  0
  7  8  2  0
  8  9  1  0
  9 10  1  0
 10 11  2  0
 11 12  1  0
 12 13  2  0
 13 14  1  0
 14 15  1  0
 13 16  1  0
 16 17  2  0
  9 18  2  0
 18 19  1  0
 19 20  1  0
 20 21  2  0
 21 22  1  0
 22 23  2  0
 23 24  1  0
 24 25  1  0
 23 26  1  0
 26 27  2  0
 19 28  2  0
 28 29  1  0
 29 30  1  0
 29  5  2  0
 28  7  1  0
 17 10  1  0
 27 20  1  0
M  END
>  <Binding energies>  (38) 
[-5.07]

>  <Ligand effiencies>  (38) 
[-0.1584375]

>  <Interactions>  (38) 
["V-B:PRO:540:CA:9855, V-B:PRO:540:N:9856, V-A:LEU:475:CD2:4256, V-A:ILE:369:CG2:3234, V-A:GLY:454:CA:4046, V-B:TYR:539:CD1:9845, V-A:ARG:545:CZ:4924, H-A:GLY:454:N:4047, V-B:TYR:539:CE1:9847, V-B:TYR:539:C:9839, V-B:MET:535:CE:9807, V-A:PRO:540:CA:4881, V-A:TYR:539:CE1:4873, H-A:ARG:545:NH2:4926, H-A:ALA:541:N:4889, V-A:TYR:539:CD1:4871, H-A:TYR:484:OH:4345, V-A:ILE:369:CD1:3236, V-A:ALA:541:CB:4890, V-B:PRO:540:CD:9859, H-B:TYR:539:O:9840, H-B:TYR:539:N:9842, V-B:ILE:538:CB:9834, V-B:ILE:538:CA:9832, V-B:ILE:538:CG2:9835"]

$$$$
9a_Ghoteimi_2023
     RDKit          3D

 48 54  0  0  0  0  0  0  0  0999 V2000
  131.0730  119.4100   74.0010 C   0  0  0  0  0  0  0  0  0  0  0  0
  130.2130  118.8120   75.1190 C   0  0  0  0  0  0  0  0  0  0  0  0
  129.3110  119.8000   75.6030 O   0  0  0  0  0  0  0  0  0  0  0  0
  128.2100  120.1520   74.8910 C   0  0  0  0  0  0  0  0  0  0  0  0
  127.0560  119.9030   75.2550 O   0  0  0  0  0  0  0  0  0  0  0  0
  128.5340  120.8700   73.6130 C   0  0  0  0  0  0  0  0  0  0  0  0
  127.5560  120.9650   72.6140 C   0  0  0  0  0  0  0  0  0  0  0  0
  127.8260  121.6220   71.4170 C   0  0  0  0  0  0  0  0  0  0  0  0
  129.0760  122.1990   71.1930 C   0  0  0  0  0  0  0  0  0  0  0  0
  129.2370  122.8360   69.9480 N   0  0  0  0  0  0  0  0  0  0  0  0
  130.2680  122.7980   69.0670 C   0  0  0  0  0  0  0  0  0  0  0  0
  131.2990  122.1480   69.2380 O   0  0  0  0  0  0  0  0  0  0  0  0
  130.0820  123.5960   67.8510 C   0  0  0  0  0  0  0  0  0  0  0  0
  129.2630  125.1560   67.9260 S   0  0  0  0  0  0  0  0  0  0  0  0
  129.4730  125.4000   66.2080 C   0  0  0  0  0  0  0  0  0  0  0  0
  129.0450  126.5070   65.6020 N   0  0  0  0  0  0  0  0  0  0  0  0
  129.2690  126.6040   64.2650 C   0  0  0  0  0  0  0  0  0  0  0  0
  128.7910  127.8580   63.6080 C   0  0  0  0  0  0  0  0  0  0  0  0
  129.2890  128.2410   62.3580 C   0  0  0  0  0  0  0  0  0  0  0  0
  128.8480  129.4070   61.7390 C   0  0  0  0  0  0  0  0  0  0  0  0
  127.8820  130.2280   62.3410 C   0  0  0  0  0  0  0  0  0  0  0  0
  127.4430  131.4130   61.7400 N   0  0  0  0  0  0  0  0  0  0  0  0
  126.2460  131.4430   60.8760 C   0  0  0  0  0  0  0  0  0  0  0  0
  126.1250  132.7230   60.0240 C   0  0  0  0  0  0  0  0  0  0  0  0
  126.1810  133.8690   60.8560 O   0  0  0  0  0  0  0  0  0  0  0  0
  127.4060  133.9350   61.5690 C   0  0  0  0  0  0  0  0  0  0  0  0
  127.5580  132.6920   62.4700 C   0  0  0  0  0  0  0  0  0  0  0  0
  127.3960  129.8480   63.6010 C   0  0  0  0  0  0  0  0  0  0  0  0
  127.8400  128.6830   64.2200 C   0  0  0  0  0  0  0  0  0  0  0  0
  129.8900  125.5860   63.5370 C   0  0  0  0  0  0  0  0  0  0  0  0
  130.3230  124.4140   64.1660 C   0  0  0  0  0  0  0  0  0  0  0  0
  130.9450  123.3480   63.3390 C   0  0  0  0  0  0  0  0  0  0  0  0
  132.2140  123.5280   62.7840 C   0  0  0  0  0  0  0  0  0  0  0  0
  132.8010  122.5240   62.0210 C   0  0  0  0  0  0  0  0  0  0  0  0
  132.1420  121.3020   61.8070 C   0  0  0  0  0  0  0  0  0  0  0  0
  132.7060  120.2840   61.0360 N   0  0  0  0  0  0  0  0  0  0  0  0
  134.0610  120.4700   60.4780 C   0  0  0  0  0  0  0  0  0  0  0  0
  134.7040  119.1570   59.9850 C   0  0  0  0  0  0  0  0  0  0  0  0
  133.8520  118.5200   59.0460 O   0  0  0  0  0  0  0  0  0  0  0  0
  132.5910  118.2020   59.6120 C   0  0  0  0  0  0  0  0  0  0  0  0
  131.8910  119.4910   60.0950 C   0  0  0  0  0  0  0  0  0  0  0  0
  130.8700  121.1310   62.3720 C   0  0  0  0  0  0  0  0  0  0  0  0
  130.2810  122.1380   63.1310 C   0  0  0  0  0  0  0  0  0  0  0  0
  130.1320  124.3070   65.5730 C   0  0  0  0  0  0  0  0  0  0  0  0
  130.4900  123.2990   66.5420 C   0  0  0  0  0  0  0  0  0  0  0  0
  131.1810  122.1640   66.2040 N   0  0  0  0  0  0  0  0  0  0  0  0
  130.0620  122.1120   72.1890 C   0  0  0  0  0  0  0  0  0  0  0  0
  129.7900  121.4530   73.3860 C   0  0  0  0  0  0  0  0  0  0  0  0
  1  2  1  0
  2  3  1  0
  3  4  1  0
  4  5  2  0
  4  6  1  0
  6  7  2  0
  7  8  1  0
  8  9  2  0
  9 10  1  0
 10 11  1  0
 11 12  2  0
 11 13  1  0
 13 14  1  0
 14 15  1  0
 15 16  2  0
 16 17  1  0
 17 18  1  0
 18 19  2  0
 19 20  1  0
 20 21  2  0
 21 22  1  0
 22 23  1  0
 23 24  1  0
 24 25  1  0
 25 26  1  0
 26 27  1  0
 21 28  1  0
 28 29  2  0
 17 30  2  0
 30 31  1  0
 31 32  1  0
 32 33  2  0
 33 34  1  0
 34 35  2  0
 35 36  1  0
 36 37  1  0
 37 38  1  0
 38 39  1  0
 39 40  1  0
 40 41  1  0
 35 42  1  0
 42 43  2  0
 31 44  2  0
 44 45  1  0
 45 46  1  0
  9 47  1  0
 47 48  2  0
 48  6  1  0
 45 13  2  0
 44 15  1  0
 29 18  1  0
 43 32  1  0
 27 22  1  0
 41 36  1  0
M  END
>  <Binding energies>  (39) 
[1120.0]

>  <Ligand effiencies>  (39) 
[21.96078431372549]

>  <Interactions>  (39) 
["V-A:LEU:373:CD1:3277, V-A:LEU:475:CD2:4256, V-A:GLU:543:CD:4906, V-B:GLU:543:CD:9880, V-A:SER:385:CB:3406, V-A:ILE:369:CG2:3234, V-B:TYR:539:CD1:9845, V-A:SER:385:CA:3404, V-B:ALA:541:CB:9864, V-B:TYR:539:CE1:9847, V-A:TYR:539:CZ:4875, V-A:TYR:539:CE1:4873, V-A:TYR:539:CD1:4871, H-B:GLU:543:O:9875, H-A:HIS:456:NE2:4067, H-A:TYR:484:OH:4345, V-B:GLU:543:CB:9878, V-A:HIS:456:CE1:4066, V-A:ILE:369:CD1:3236, V-B:LEU:475:CD2:9230, V-A:ALA:541:CB:4890, V-A:SER:385:C:3402, V-A:ILE:369:CB:3233, V-A:TYR:484:CZ:4344, V-B:GLU:543:CG:9879, V-A:TYR:484:CE2:4343, V-B:TYR:539:CG:9844, V-A:VAL:384:C:3394, V-A:TYR:484:CE1:4342, V-B:GLU:543:CA:9876, V-A:TYR:484:CD2:4341, V-A:LEU:475:CD1:4255, V-A:HIS:456:CD2:4065, V-B:GLU:543:C:9874, V-B:GLY:544:CA:9886, V-A:HIS:456:CG:4063, V-A:TYR:484:CB:4338, V-A:TYR:484:CA:4336, V-A:ASP:473:CG:4237, V-A:TYR:484:CG:4339, V-A:ASP:473:CB:4236, V-A:TYR:484:CD1:4340, V-A:TYR:484:C:4334"]

$$$$
9b_Ghoteimi_2023
     RDKit          3D

 42 48  0  0  0  0  0  0  0  0999 V2000
  130.2340  124.7980   60.6140 N   0  0  0  0  0  0  0  0  0  0  0  0
  130.5820  124.4200   61.8860 C   0  0  0  0  0  0  0  0  0  0  0  0
  131.2400  123.2150   62.1820 C   0  0  0  0  0  0  0  0  0  0  0  0
  131.6940  122.1720   61.2590 C   0  0  0  0  0  0  0  0  0  0  0  0
  131.6040  122.3280   60.0390 O   0  0  0  0  0  0  0  0  0  0  0  0
  132.2000  121.0570   61.8430 N   0  0  0  0  0  0  0  0  0  0  0  0
  132.6890  119.9190   61.2150 C   0  0  0  0  0  0  0  0  0  0  0  0
  131.8990  118.8030   60.9400 C   0  0  0  0  0  0  0  0  0  0  0  0
  132.7440  117.9110   60.3200 C   0  0  0  0  0  0  0  0  0  0  0  0
  133.9780  118.4620   60.2270 O   0  0  0  0  0  0  0  0  0  0  0  0
  133.9300  119.7340   60.7980 N   0  0  0  0  0  0  0  0  0  0  0  0
  131.5010  123.0410   63.9170 S   0  0  0  0  0  0  0  0  0  0  0  0
  130.7150  124.5690   64.2350 C   0  0  0  0  0  0  0  0  0  0  0  0
  130.5580  125.0290   65.4750 N   0  0  0  0  0  0  0  0  0  0  0  0
  129.9170  126.2190   65.6150 C   0  0  0  0  0  0  0  0  0  0  0  0
  129.7360  126.7020   67.0180 C   0  0  0  0  0  0  0  0  0  0  0  0
  130.7930  127.2870   67.7240 C   0  0  0  0  0  0  0  0  0  0  0  0
  130.6220  127.7220   69.0350 C   0  0  0  0  0  0  0  0  0  0  0  0
  129.3910  127.5730   69.6930 C   0  0  0  0  0  0  0  0  0  0  0  0
  129.2030  128.0080   71.0100 N   0  0  0  0  0  0  0  0  0  0  0  0
  130.3440  128.1860   71.9310 C   0  0  0  0  0  0  0  0  0  0  0  0
  129.9980  128.9890   73.2030 C   0  0  0  0  0  0  0  0  0  0  0  0
  128.8970  128.3920   73.8680 O   0  0  0  0  0  0  0  0  0  0  0  0
  127.7420  128.3700   73.0460 C   0  0  0  0  0  0  0  0  0  0  0  0
  128.0170  127.5520   71.7650 C   0  0  0  0  0  0  0  0  0  0  0  0
  128.3310  127.0040   68.9740 C   0  0  0  0  0  0  0  0  0  0  0  0
  128.5000  126.5740   67.6610 C   0  0  0  0  0  0  0  0  0  0  0  0
  129.4620  126.9550   64.5180 C   0  0  0  0  0  0  0  0  0  0  0  0
  129.6440  126.4860   63.2120 C   0  0  0  0  0  0  0  0  0  0  0  0
  129.1680  127.3200   62.0790 C   0  0  0  0  0  0  0  0  0  0  0  0
  127.9370  127.0570   61.4790 C   0  0  0  0  0  0  0  0  0  0  0  0
  127.4800  127.8490   60.4300 C   0  0  0  0  0  0  0  0  0  0  0  0
  128.2430  128.9260   59.9520 C   0  0  0  0  0  0  0  0  0  0  0  0
  127.7960  129.7440   58.9110 N   0  0  0  0  0  0  0  0  0  0  0  0
  128.7320  130.7040   58.2940 C   0  0  0  0  0  0  0  0  0  0  0  0
  128.0240  131.7940   57.4610 C   0  0  0  0  0  0  0  0  0  0  0  0
  127.2000  131.1920   56.4740 O   0  0  0  0  0  0  0  0  0  0  0  0
  126.2030  130.3650   57.0550 C   0  0  0  0  0  0  0  0  0  0  0  0
  126.8640  129.2420   57.8830 C   0  0  0  0  0  0  0  0  0  0  0  0
  129.4710  129.1920   60.5760 C   0  0  0  0  0  0  0  0  0  0  0  0
  129.9280  128.4000   61.6260 C   0  0  0  0  0  0  0  0  0  0  0  0
  130.2810  125.2250   63.0440 C   0  0  0  0  0  0  0  0  0  0  0  0
  1  2  1  0
  2  3  2  0
  3  4  1  0
  4  5  2  0
  4  6  1  0
  6  7  1  0
  7  8  1  0
  8  9  2  0
  9 10  1  0
 10 11  1  0
  3 12  1  0
 12 13  1  0
 13 14  2  0
 14 15  1  0
 15 16  1  0
 16 17  2  0
 17 18  1  0
 18 19  2  0
 19 20  1  0
 20 21  1  0
 21 22  1  0
 22 23  1  0
 23 24  1  0
 24 25  1  0
 19 26  1  0
 26 27  2  0
 15 28  2  0
 28 29  1  0
 29 30  1  0
 30 31  2  0
 31 32  1  0
 32 33  2  0
 33 34  1  0
 34 35  1  0
 35 36  1  0
 36 37  1  0
 37 38  1  0
 38 39  1  0
 33 40  1  0
 40 41  2  0
 29 42  2  0
 42  2  1  0
 11  7  2  0
 42 13  1  0
 27 16  1  0
 41 30  1  0
 25 20  1  0
 39 34  1  0
M  END
>  <Binding energies>  (40) 
[-3.51]

>  <Ligand effiencies>  (40) 
[-0.078]

>  <Interactions>  (40) 
["V-A:LEU:373:CD1:3277, V-A:LEU:475:CD2:4256, V-A:GLU:543:CD:4906, V-B:GLU:543:CD:9880, V-A:SER:385:CB:3406, V-B:TYR:539:CD1:9845, V-A:SER:385:CA:3404, V-B:TYR:539:CE1:9847, V-A:TYR:539:CE2:4874, V-A:TYR:539:CZ:4875, V-A:TYR:539:CE1:4873, V-A:TYR:539:CD1:4871, H-A:TYR:484:OH:4345, V-B:GLU:543:CB:9878, V-A:HIS:456:CE1:4066, V-A:ARG:545:CG:4920, H-A:SER:385:N:3405, V-B:GLU:543:CG:9879, V-A:GLU:543:CG:4905, V-A:GLU:543:C:4900, V-B:HIS:456:CE1:9040, H-A:TYR:539:OH:4876, H-A:LYS:547:NZ:4949, V-A:LYS:547:CE:4948, V-A:GLY:544:CA:4912, V-B:GLY:544:C:9884, V-A:GLY:544:C:4910, V-B:HIS:456:CD2:9039, V-B:GLU:543:C:9874, V-B:HIS:456:CG:9037"]

$$$$
9c_Ghoteimi_2023
     RDKit          3D

 42 48  0  0  0  0  0  0  0  0999 V2000
  130.7990  124.2870   60.7060 N   0  0  0  0  0  0  0  0  0  0  0  0
  131.0410  123.9210   62.0060 C   0  0  0  0  0  0  0  0  0  0  0  0
  131.6050  122.6890   62.3700 C   0  0  0  0  0  0  0  0  0  0  0  0
  132.0530  121.5970   61.5010 C   0  0  0  0  0  0  0  0  0  0  0  0
  132.9480  121.7760   60.6730 O   0  0  0  0  0  0  0  0  0  0  0  0
  131.4140  120.4140   61.6760 N   0  0  0  0  0  0  0  0  0  0  0  0
  131.6340  119.2350   60.9780 C   0  0  0  0  0  0  0  0  0  0  0  0
  132.7490  118.8260   60.4130 N   0  0  0  0  0  0  0  0  0  0  0  0
  132.5940  117.6530   59.8290 C   0  0  0  0  0  0  0  0  0  0  0  0
  131.3260  117.0860   59.9130 C   0  0  0  0  0  0  0  0  0  0  0  0
  130.2880  118.1530   60.8090 S   0  0  0  0  0  0  0  0  0  0  0  0
  131.7450  122.5440   64.1220 S   0  0  0  0  0  0  0  0  0  0  0  0
  131.0310  124.1220   64.3550 C   0  0  0  0  0  0  0  0  0  0  0  0
  130.8230  124.6210   65.5720 N   0  0  0  0  0  0  0  0  0  0  0  0
  130.2470  125.8490   65.6450 C   0  0  0  0  0  0  0  0  0  0  0  0
  130.0060  126.3760   67.0220 C   0  0  0  0  0  0  0  0  0  0  0  0
  131.0200  127.0210   67.7390 C   0  0  0  0  0  0  0  0  0  0  0  0
  130.7930  127.5020   69.0250 C   0  0  0  0  0  0  0  0  0  0  0  0
  129.5440  127.3430   69.6480 C   0  0  0  0  0  0  0  0  0  0  0  0
  129.2980  127.8270   70.9380 N   0  0  0  0  0  0  0  0  0  0  0  0
  130.3690  128.4490   71.7430 C   0  0  0  0  0  0  0  0  0  0  0  0
  129.8530  129.2290   72.9710 C   0  0  0  0  0  0  0  0  0  0  0  0
  129.0400  128.3860   73.7720 O   0  0  0  0  0  0  0  0  0  0  0  0
  127.9110  127.9180   73.0530 C   0  0  0  0  0  0  0  0  0  0  0  0
  128.3650  127.1000   71.8240 C   0  0  0  0  0  0  0  0  0  0  0  0
  128.5270  126.7120   68.9180 C   0  0  0  0  0  0  0  0  0  0  0  0
  128.7530  126.2360   67.6300 C   0  0  0  0  0  0  0  0  0  0  0  0
  129.9070  126.5830   64.5050 C   0  0  0  0  0  0  0  0  0  0  0  0
  130.1440  126.0710   63.2250 C   0  0  0  0  0  0  0  0  0  0  0  0
  129.7940  126.9020   62.0460 C   0  0  0  0  0  0  0  0  0  0  0  0
  128.4570  127.1400   61.7220 C   0  0  0  0  0  0  0  0  0  0  0  0
  128.1260  127.9330   60.6270 C   0  0  0  0  0  0  0  0  0  0  0  0
  129.1230  128.5080   59.8250 C   0  0  0  0  0  0  0  0  0  0  0  0
  128.8130  129.3170   58.7270 N   0  0  0  0  0  0  0  0  0  0  0  0
  127.4350  129.8240   58.5730 C   0  0  0  0  0  0  0  0  0  0  0  0
  127.1370  130.3570   57.1550 C   0  0  0  0  0  0  0  0  0  0  0  0
  128.0830  131.3560   56.8030 O   0  0  0  0  0  0  0  0  0  0  0  0
  129.4080  130.8510   56.8140 C   0  0  0  0  0  0  0  0  0  0  0  0
  129.7640  130.3250   58.2220 C   0  0  0  0  0  0  0  0  0  0  0  0
  130.4630  128.2800   60.1720 C   0  0  0  0  0  0  0  0  0  0  0  0
  130.7950  127.4870   61.2670 C   0  0  0  0  0  0  0  0  0  0  0  0
  130.7150  124.7700   63.1240 C   0  0  0  0  0  0  0  0  0  0  0  0
  1  2  1  0
  2  3  2  0
  3  4  1  0
  4  5  2  0
  4  6  1  0
  6  7  1  0
  7  8  2  0
  8  9  1  0
  9 10  2  0
 10 11  1  0
  3 12  1  0
 12 13  1  0
 13 14  2  0
 14 15  1  0
 15 16  1  0
 16 17  2  0
 17 18  1  0
 18 19  2  0
 19 20  1  0
 20 21  1  0
 21 22  1  0
 22 23  1  0
 23 24  1  0
 24 25  1  0
 19 26  1  0
 26 27  2  0
 15 28  2  0
 28 29  1  0
 29 30  1  0
 30 31  2  0
 31 32  1  0
 32 33  2  0
 33 34  1  0
 34 35  1  0
 35 36  1  0
 36 37  1  0
 37 38  1  0
 38 39  1  0
 33 40  1  0
 40 41  2  0
 29 42  2  0
 42  2  1  0
 11  7  1  0
 42 13  1  0
 27 16  1  0
 41 30  1  0
 25 20  1  0
 39 34  1  0
M  END
>  <Binding energies>  (41) 
[-4.83]

>  <Ligand effiencies>  (41) 
[-0.10733333333333334]

>  <Interactions>  (41) 
["V-A:PRO:482:CG:4324, V-A:LEU:373:CD1:3277, V-A:LEU:475:CD2:4256, V-A:GLU:543:CD:4906, V-B:GLU:543:CD:9880, V-A:PRO:482:CB:4323, V-B:TYR:539:CB:9843, V-A:GLY:454:CA:4046, V-B:TYR:539:CD1:9845, V-B:TYR:539:CE1:9847, V-B:TYR:539:C:9839, V-A:TYR:539:CZ:4875, V-A:ASP:366:CG:3210, V-A:MET:535:CE:4833, V-A:TYR:539:CE1:4873, H-A:TYR:484:OH:4345, V-B:GLU:543:CB:9878, V-A:HIS:456:CE1:4066, V-A:ARG:545:CG:4920, V-A:TYR:484:CZ:4344, V-B:GLU:543:CG:9879, V-A:GLU:543:CG:4905, V-A:GLU:543:C:4900, V-B:HIS:456:CE1:9040, H-A:TYR:539:OH:4876, V-A:TYR:484:CE2:4343, V-B:TYR:539:CG:9844, V-B:GLU:543:CA:9876, H-A:LYS:547:NZ:4949, V-A:LYS:547:CE:4948, V-A:GLY:544:CA:4912, V-B:GLY:544:C:9884, V-A:GLY:544:C:4910, V-B:HIS:456:CD2:9039, V-B:GLU:543:C:9874, V-B:HIS:456:CG:9037, V-B:GLY:544:CA:9886"]

$$$$
RR11_Rahimova_2017
     RDKit          3D

 33 38  0  0  0  0  0  0  0  0999 V2000
  134.4150  124.0640   57.7190 N   0  0  0  0  0  0  0  0  0  0  0  0
  133.2790  124.8560   57.8760 C   0  0  0  0  0  0  0  0  0  0  0  0
  132.6990  125.4650   56.7650 C   0  0  0  0  0  0  0  0  0  0  0  0
  131.5630  126.2530   56.9220 C   0  0  0  0  0  0  0  0  0  0  0  0
  130.9960  126.4400   58.1900 C   0  0  0  0  0  0  0  0  0  0  0  0
  129.7680  127.2850   58.3570 C   0  0  0  0  0  0  0  0  0  0  0  0
  129.5290  128.0520   59.3990 N   0  0  0  0  0  0  0  0  0  0  0  0
  128.3230  128.6480   59.1410 C   0  0  0  0  0  0  0  0  0  0  0  0
  127.6040  129.5660   59.9190 C   0  0  0  0  0  0  0  0  0  0  0  0
  126.3870  130.0500   59.4230 C   0  0  0  0  0  0  0  0  0  0  0  0
  125.5810  131.0440   60.2490 C   0  0  0  0  0  0  0  0  0  0  0  0
  125.9260  131.0010   61.7310 C   0  0  0  0  0  0  0  0  0  0  0  0
  125.8890  132.1820   62.4810 C   0  0  0  0  0  0  0  0  0  0  0  0
  126.1880  132.1930   63.8450 C   0  0  0  0  0  0  0  0  0  0  0  0
  126.5240  130.9780   64.4570 C   0  0  0  0  0  0  0  0  0  0  0  0
  126.8610  130.7270   65.7610 N   0  0  0  0  0  0  0  0  0  0  0  0
  127.0890  129.4320   65.8180 C   0  0  0  0  0  0  0  0  0  0  0  0
  127.5090  128.6970   67.0590 C   0  0  0  0  0  0  0  0  0  0  0  0
  126.6600  127.7490   67.6440 C   0  0  0  0  0  0  0  0  0  0  0  0
  127.0450  127.0750   68.8010 C   0  0  0  0  0  0  0  0  0  0  0  0
  128.2820  127.3460   69.3800 C   0  0  0  0  0  0  0  0  0  0  0  0
  128.6660  126.6750   70.5410 N   0  0  0  0  0  0  0  0  0  0  0  0
  129.1380  128.2830   68.8070 C   0  0  0  0  0  0  0  0  0  0  0  0
  128.7520  128.9560   67.6510 C   0  0  0  0  0  0  0  0  0  0  0  0
  126.9070  128.8220   64.5950 N   0  0  0  0  0  0  0  0  0  0  0  0
  126.5440  129.7890   63.6890 C   0  0  0  0  0  0  0  0  0  0  0  0
  126.2410  129.7710   62.3250 C   0  0  0  0  0  0  0  0  0  0  0  0
  125.8910  129.6060   58.1920 C   0  0  0  0  0  0  0  0  0  0  0  0
  126.5810  128.6880   57.3960 C   0  0  0  0  0  0  0  0  0  0  0  0
  127.8020  128.2260   57.8950 C   0  0  0  0  0  0  0  0  0  0  0  0
  128.7530  127.3520   57.4240 N   0  0  0  0  0  0  0  0  0  0  0  0
  131.5900  125.8220   59.2990 C   0  0  0  0  0  0  0  0  0  0  0  0
  132.7260  125.0330   59.1440 C   0  0  0  0  0  0  0  0  0  0  0  0
  1  2  1  0
  2  3  2  0
  3  4  1  0
  4  5  2  0
  5  6  1  0
  6  7  2  0
  7  8  1  0
  8  9  2  0
  9 10  1  0
 10 11  1  0
 11 12  1  0
 12 13  2  0
 13 14  1  0
 14 15  2  0
 15 16  1  0
 16 17  2  0
 17 18  1  0
 18 19  2  0
 19 20  1  0
 20 21  2  0
 21 22  1  0
 21 23  1  0
 23 24  2  0
 17 25  1  0
 25 26  1  0
 26 27  2  0
 10 28  2  0
 28 29  1  0
 29 30  2  0
 30 31  1  0
  5 32  1  0
 32 33  2  0
 33  2  1  0
 31  6  1  0
 30  8  1  0
 27 12  1  0
 26 15  1  0
 24 18  1  0
M  END
>  <Binding energies>  (42) 
[-5.96]

>  <Ligand effiencies>  (42) 
[-0.15282051282051282]

>  <Interactions>  (42) 
["V-A:GLU:543:CD:4906, V-B:GLU:543:CD:9880, H-B:GLU:543:OE1:9881, H-B:GLU:543:OE2:9882, V-A:ILE:369:CG2:3234, V-B:TYR:539:CE1:9847, V-A:ASP:366:CG:3210, V-A:ASP:366:CB:3209, V-A:TYR:531:CZ:4792, V-A:TYR:539:CE1:4873, V-B:TYR:539:CZ:9849, V-B:ASP:366:CG:8184, H-B:GLU:543:O:9875, V-A:HIS:456:CE1:4066, V-A:ASP:366:C:3205, V-A:ASP:366:CA:3207, V-B:LEU:475:CD2:9230, V-B:ARG:545:CZ:9898, V-A:ILE:369:CB:3233, V-B:ASP:366:CB:8183, H-B:TYR:539:OH:9850, V-B:GLU:543:CG:9879, V-A:GLU:543:CB:4904, V-A:GLU:543:CG:4905, V-A:GLU:543:C:4900, V-B:HIS:456:CE1:9040, H-A:ASP:366:O:3206, V-A:ASN:370:CB:3242, V-A:TYR:531:CE1:4790, H-B:TYR:484:OH:9319, V-B:ARG:545:CG:9894, V-B:GLY:544:C:9884, V-B:GLU:543:C:9874, V-B:GLY:544:CA:9886, H-B:GLY:544:O:9885, V-A:ILE:369:CA:3231, V-A:ILE:369:C:3229"]

$$$$
RR16_Rahimova_2017
     RDKit          3D

 44 49  0  0  0  0  0  0  0  0999 V2000
  131.8120  119.7710   61.7020 O   0  0  0  0  0  0  0  0  0  0  0  0
  132.6620  120.7660   61.0370 S   0  0  0  0  0  0  0  0  0  0  0  0
  133.5280  120.3860   59.9150 O   0  0  0  0  0  0  0  0  0  0  0  0
  133.6690  121.5180   62.2760 N   0  0  0  0  0  0  0  0  0  0  0  0
  133.1510  122.6330   63.1040 C   0  0  0  0  0  0  0  0  0  0  0  0
  133.5550  123.9810   62.4530 C   0  0  0  0  0  0  0  0  0  0  0  0
  132.4790  125.0820   62.3800 C   0  0  0  0  0  0  0  0  0  0  0  0
  131.9450  125.5250   63.7530 C   0  0  0  0  0  0  0  0  0  0  0  0
  130.7920  124.6880   64.3320 C   0  0  0  0  0  0  0  0  0  0  0  0
  131.0410  123.1780   64.5230 C   0  0  0  0  0  0  0  0  0  0  0  0
  131.6350  122.4200   63.3190 C   0  0  0  0  0  0  0  0  0  0  0  0
  131.5840  122.0800   60.4810 C   0  0  0  0  0  0  0  0  0  0  0  0
  130.2040  121.9900   60.6760 C   0  0  0  0  0  0  0  0  0  0  0  0
  129.3660  122.9590   60.1310 C   0  0  0  0  0  0  0  0  0  0  0  0
  129.9110  124.0130   59.3950 C   0  0  0  0  0  0  0  0  0  0  0  0
  128.8290  125.1810   58.5740 S   0  0  0  0  0  0  0  0  0  0  0  0
  127.5640  124.4870   58.2960 O   0  0  0  0  0  0  0  0  0  0  0  0
  129.5930  125.7950   57.4810 O   0  0  0  0  0  0  0  0  0  0  0  0
  128.5230  126.4250   59.8010 N   0  0  0  0  0  0  0  0  0  0  0  0
  127.4290  126.0960   60.7510 C   0  0  0  0  0  0  0  0  0  0  0  0
  127.0290  127.3430   61.5670 C   0  0  0  0  0  0  0  0  0  0  0  0
  128.2530  127.9960   62.2560 C   0  0  0  0  0  0  0  0  0  0  0  0
  127.8840  129.2620   63.0330 C   0  0  0  0  0  0  0  0  0  0  0  0
  127.5230  129.1690   64.3840 C   0  0  0  0  0  0  0  0  0  0  0  0
  127.1880  130.2980   65.1320 C   0  0  0  0  0  0  0  0  0  0  0  0
  126.8400  130.1880   66.4540 O   0  0  0  0  0  0  0  0  0  0  0  0
  127.2210  131.5480   64.4960 C   0  0  0  0  0  0  0  0  0  0  0  0
  126.9660  132.8030   64.9700 N   0  0  0  0  0  0  0  0  0  0  0  0
  127.1750  133.6880   63.9350 N   0  0  0  0  0  0  0  0  0  0  0  0
  127.5090  132.9850   62.8360 N   0  0  0  0  0  0  0  0  0  0  0  0
  127.8730  133.6770   61.6060 C   0  0  0  0  0  0  0  0  0  0  0  0
  128.9070  132.9170   60.7880 C   0  0  0  0  0  0  0  0  0  0  0  0
  128.7030  132.7050   59.4200 C   0  0  0  0  0  0  0  0  0  0  0  0
  129.6600  132.0280   58.6630 C   0  0  0  0  0  0  0  0  0  0  0  0
  130.8270  131.5620   59.2690 C   0  0  0  0  0  0  0  0  0  0  0  0
  131.0380  131.7720   60.6320 C   0  0  0  0  0  0  0  0  0  0  0  0
  132.4850  131.2050   61.3820 Cl  0  0  0  0  0  0  0  0  0  0  0  0
  130.0780  132.4460   61.3910 C   0  0  0  0  0  0  0  0  0  0  0  0
  127.5790  131.6330   63.1300 C   0  0  0  0  0  0  0  0  0  0  0  0
  127.9120  130.5020   62.3780 C   0  0  0  0  0  0  0  0  0  0  0  0
  129.4330  128.2150   61.2730 C   0  0  0  0  0  0  0  0  0  0  0  0
  129.7490  126.9440   60.4600 C   0  0  0  0  0  0  0  0  0  0  0  0
  131.2950  124.1240   59.2360 C   0  0  0  0  0  0  0  0  0  0  0  0
  132.1310  123.1540   59.7780 C   0  0  0  0  0  0  0  0  0  0  0  0
  1  2  2  0
  2  3  2  0
  2  4  1  0
  4  5  1  0
  5  6  1  0
  6  7  1  0
  7  8  1  0
  8  9  1  0
  9 10  1  0
 10 11  1  0
  2 12  1  0
 12 13  2  0
 13 14  1  0
 14 15  2  0
 15 16  1  0
 16 17  2  0
 16 18  2  0
 16 19  1  0
 19 20  1  0
 20 21  1  0
 21 22  1  0
 22 23  1  0
 23 24  2  0
 24 25  1  0
 25 26  1  0
 25 27  2  0
 27 28  1  0
 28 29  2  0
 29 30  1  0
 30 31  1  0
 31 32  1  0
 32 33  2  0
 33 34  1  0
 34 35  2  0
 35 36  1  0
 36 37  1  0
 36 38  2  0
 30 39  1  0
 39 40  2  0
 22 41  1  0
 41 42  1  0
 15 43  1  0
 43 44  2  0
 11  5  1  0
 44 12  1  0
 42 19  1  0
 40 23  1  0
 39 27  1  0
 38 32  1  0
M  END
>  <Binding energies>  (43) 
[-6.08]

>  <Ligand effiencies>  (43) 
[-0.12666666666666668]

>  <Interactions>  (43) 
["V-A:LEU:475:CD2:4256, V-A:GLU:543:CD:4906, V-B:GLU:543:CD:9880, V-A:ILE:369:CG2:3234, V-A:GLY:454:CA:4046, V-B:TYR:539:CD1:9845, V-A:ARG:545:CZ:4924, V-B:TYR:539:CE1:9847, V-A:PRO:540:CA:4881, V-A:TYR:539:C:4865, V-A:PRO:540:CB:4883, V-A:TYR:539:CE1:4873, V-B:TYR:539:CZ:9849, V-A:TYR:539:CD1:4871, V-B:LEU:475:CD2:9230, V-A:ALA:541:CB:4890, V-A:PRO:540:C:4879, H-A:SER:385:O:3403, V-A:TYR:484:CZ:4344, V-A:TYR:484:CE2:4343, H-B:TYR:484:OH:9319, V-A:ALA:541:CA:4888"]

$$$$
RR18_Rahimova_2017
     RDKit          3D

 36 41  0  0  0  0  0  0  0  0999 V2000
  130.5710  125.7170   66.4480 C   0  0  0  0  0  0  0  0  0  0  0  0
  131.1970  125.3910   65.1140 C   0  0  0  0  0  0  0  0  0  0  0  0
  132.4980  125.3630   64.6390 C   0  0  0  0  0  0  0  0  0  0  0  0
  132.4290  124.9790   63.3000 C   0  0  0  0  0  0  0  0  0  0  0  0
  131.0890  124.7860   63.0060 C   0  0  0  0  0  0  0  0  0  0  0  0
  130.3330  124.3610   61.7500 C   0  0  1  0  0  0  0  0  0  0  0  0
  129.7590  122.9190   61.8890 C   0  0  0  0  0  0  0  0  0  0  0  0
  130.6560  121.7750   62.0070 C   0  0  0  0  0  0  0  0  0  0  0  0
  131.5330  121.7220   62.8720 O   0  0  0  0  0  0  0  0  0  0  0  0
  130.4250  120.7930   61.1050 N   0  0  0  0  0  0  0  0  0  0  0  0
  131.0900  119.5650   60.9010 C   0  0  0  0  0  0  0  0  0  0  0  0
  130.4380  118.3180   60.9170 C   0  0  0  0  0  0  0  0  0  0  0  0
  131.1550  117.1400   60.7160 C   0  0  0  0  0  0  0  0  0  0  0  0
  132.5300  117.1870   60.5030 C   0  0  0  0  0  0  0  0  0  0  0  0
  133.1900  118.4130   60.4960 C   0  0  0  0  0  0  0  0  0  0  0  0
  132.4840  119.6040   60.6960 C   0  0  0  0  0  0  0  0  0  0  0  0
  133.2560  120.9200   60.6830 C   0  0  0  0  0  0  0  0  0  0  0  0
  128.4130  122.7670   62.0010 C   0  0  0  0  0  0  0  0  0  0  0  0
  127.5040  123.7740   61.8830 N   0  0  0  0  0  0  0  0  0  0  0  0
  127.9040  124.9500   61.5660 C   0  0  0  0  0  0  0  0  0  0  0  0
  126.8470  126.3020   61.2320 S   0  0  0  0  0  0  0  0  0  0  0  0
  128.2400  127.3720   60.8800 C   0  0  0  0  0  0  0  0  0  0  0  0
  128.1980  128.6990   60.5100 C   0  0  0  0  0  0  0  0  0  0  0  0
  126.9080  129.3650   60.2830 C   0  0  0  0  0  0  0  0  0  0  0  0
  125.7620  128.9310   60.3940 O   0  0  0  0  0  0  0  0  0  0  0  0
  127.1690  130.6150   59.8860 N   0  0  0  0  0  0  0  0  0  0  0  0
  128.5010  130.8930   59.8480 C   0  0  0  0  0  0  0  0  0  0  0  0
  129.1140  132.0950   59.4960 C   0  0  0  0  0  0  0  0  0  0  0  0
  130.5020  132.1840   59.5520 C   0  0  0  0  0  0  0  0  0  0  0  0
  131.2470  131.0820   59.9670 C   0  0  0  0  0  0  0  0  0  0  0  0
  130.6100  129.8880   60.3150 C   0  0  0  0  0  0  0  0  0  0  0  0
  129.2090  129.7700   60.2410 C   0  0  0  0  0  0  0  0  0  0  0  0
  129.4650  126.5870   61.0390 C   0  0  0  0  0  0  0  0  0  0  0  0
  130.6110  126.9720   60.8300 O   0  0  0  0  0  0  0  0  0  0  0  0
  129.2070  125.3120   61.4400 N   0  0  0  0  0  0  0  0  0  0  0  0
  130.3450  125.0390   64.1160 O   0  0  0  0  0  0  0  0  0  0  0  0
  1  2  1  0
  2  3  2  0
  3  4  1  0
  4  5  2  0
  6  5  1  1
  6  7  1  0
  7  8  1  0
  8  9  2  0
  8 10  1  0
 10 11  1  0
 11 12  2  0
 12 13  1  0
 13 14  2  0
 14 15  1  0
 15 16  2  0
 16 17  1  0
  7 18  2  0
 18 19  1  0
 19 20  2  0
 20 21  1  0
 21 22  1  0
 22 23  2  0
 23 24  1  0
 24 25  2  0
 24 26  1  0
 26 27  1  0
 27 28  2  0
 28 29  1  0
 29 30  2  0
 30 31  1  0
 31 32  2  0
 22 33  1  0
 33 34  2  0
 33 35  1  0
  5 36  1  0
 36  2  1  0
 35  6  1  0
 16 11  1  0
 35 20  1  0
 32 23  1  0
 32 27  1  0
M  END
>  <Binding energies>  (44) 
[-8.2]

>  <Ligand effiencies>  (44) 
[-0.2157894736842105]

>  <Interactions>  (44) 
["V-A:PRO:482:CG:4324, V-A:LEU:373:CD1:3277, V-A:LEU:475:CD2:4256, V-B:GLU:543:CD:9880, V-A:PRO:482:CB:4323, V-A:SER:385:CB:3406, V-A:ILE:369:CG2:3234, V-B:TYR:539:CB:9843, V-B:TYR:539:CD1:9845, V-A:ARG:545:CZ:4924, V-A:SER:385:CA:3404, V-B:ALA:541:CB:9864, V-B:TYR:539:CE1:9847, V-B:TYR:539:C:9839, V-A:PRO:540:CA:4881, V-A:TYR:539:C:4865, V-A:PRO:540:CB:4883, V-A:PRO:540:N:4882, V-A:TYR:539:CE1:4873, V-B:ASP:366:CG:8184, V-A:TYR:539:CD1:4871, V-B:GLU:543:CB:9878, V-A:HIS:456:CE1:4066, H-B:ALA:541:N:9863, V-B:ALA:541:CA:9862, V-B:GLU:543:CG:9879, H-B:TYR:539:O:9840"]

$$$$
RR20_Rahimova_2017
     RDKit          3D

 38 43  0  0  0  0  0  0  0  0999 V2000
  130.4280  132.6250   57.2090 C   0  0  0  0  0  0  0  0  0  0  0  0
  129.9260  131.2080   57.4190 C   0  0  0  0  0  0  0  0  0  0  0  0
  130.8360  130.1740   57.6380 C   0  0  0  0  0  0  0  0  0  0  0  0
  130.3780  128.8750   57.8400 C   0  0  0  0  0  0  0  0  0  0  0  0
  129.0060  128.5970   57.8110 C   0  0  0  0  0  0  0  0  0  0  0  0
  128.5280  127.1830   58.0540 C   0  0  0  0  0  0  0  0  0  0  0  0
  127.4490  126.8520   57.5560 O   0  0  0  0  0  0  0  0  0  0  0  0
  129.3010  126.3320   58.7900 N   0  0  0  0  0  0  0  0  0  0  0  0
  130.3700  125.5310   58.1720 C   0  0  0  0  0  0  0  0  0  0  0  0
  131.0980  124.8380   59.3110 C   0  0  0  0  0  0  0  0  0  0  0  0
  130.6270  125.5920   60.5170 C   0  0  0  0  0  0  0  0  0  0  0  0
  131.0240  125.4590   61.8480 C   0  0  0  0  0  0  0  0  0  0  0  0
  130.3480  126.1430   62.8660 C   0  0  0  0  0  0  0  0  0  0  0  0
  130.7800  126.0080   64.2990 C   0  0  0  0  0  0  0  0  0  0  0  0
  129.8790  126.1990   65.2490 N   0  0  0  0  0  0  0  0  0  0  0  0
  130.3600  126.0360   66.4550 C   0  0  0  0  0  0  0  0  0  0  0  0
  129.6920  126.1550   67.6650 N   0  0  0  0  0  0  0  0  0  0  0  0
  129.5950  127.2650   68.4360 C   0  0  0  0  0  0  0  0  0  0  0  0
  130.0880  128.3550   68.1400 O   0  0  0  0  0  0  0  0  0  0  0  0
  128.7950  127.1640   69.7560 C   0  0  0  0  0  0  0  0  0  0  0  0
  129.6580  127.0230   70.9440 N   0  0  0  0  0  0  0  0  0  0  0  0
  129.6570  128.2290   71.7850 C   0  0  0  0  0  0  0  0  0  0  0  0
  130.7690  128.1320   72.8550 C   0  0  0  0  0  0  0  0  0  0  0  0
  130.8050  126.7740   73.5560 C   0  0  0  0  0  0  0  0  0  0  0  0
  131.5530  126.5860   74.7240 C   0  0  0  0  0  0  0  0  0  0  0  0
  131.6180  125.3390   75.3420 C   0  0  0  0  0  0  0  0  0  0  0  0
  130.9290  124.2600   74.7950 C   0  0  0  0  0  0  0  0  0  0  0  0
  130.1740  124.4360   73.6380 C   0  0  0  0  0  0  0  0  0  0  0  0
  130.1010  125.6830   73.0070 C   0  0  0  0  0  0  0  0  0  0  0  0
  129.2260  125.8890   71.7700 C   0  0  0  0  0  0  0  0  0  0  0  0
  132.0310  125.6300   66.5060 S   0  0  0  0  0  0  0  0  0  0  0  0
  132.0770  125.6950   64.7600 C   0  0  0  0  0  0  0  0  0  0  0  0
  133.3750  125.4610   64.0190 C   0  0  0  0  0  0  0  0  0  0  0  0
  129.2300  126.9190   62.5230 C   0  0  0  0  0  0  0  0  0  0  0  0
  128.8190  127.0390   61.1950 C   0  0  0  0  0  0  0  0  0  0  0  0
  129.5550  126.4180   60.1780 C   0  0  0  0  0  0  0  0  0  0  0  0
  128.0970  129.6450   57.6210 C   0  0  0  0  0  0  0  0  0  0  0  0
  128.5550  130.9450   57.4200 C   0  0  0  0  0  0  0  0  0  0  0  0
  1  2  1  0
  2  3  2  0
  3  4  1  0
  4  5  2  0
  5  6  1  0
  6  7  2  0
  6  8  1  0
  8  9  1  0
  9 10  1  0
 10 11  1  0
 11 12  2  0
 12 13  1  0
 13 14  1  0
 14 15  1  0
 15 16  2  0
 16 17  1  0
 17 18  1  0
 18 19  2  0
 18 20  1  0
 20 21  1  0
 21 22  1  0
 22 23  1  0
 23 24  1  0
 24 25  2  0
 25 26  1  0
 26 27  2  0
 27 28  1  0
 28 29  2  0
 29 30  1  0
 16 31  1  0
 31 32  1  0
 32 33  1  0
 13 34  2  0
 34 35  1  0
 35 36  2  0
  5 37  1  0
 37 38  2  0
 38  2  1  0
 36  8  1  0
 36 11  1  0
 32 14  2  0
 30 21  1  0
 29 24  1  0
M  END
>  <Binding energies>  (45) 
[-6.51]

>  <Ligand effiencies>  (45) 
[-0.16692307692307692]

>  <Interactions>  (45) 
["V-A:GLU:543:CD:4906, V-B:GLU:543:CD:9880, H-B:GLU:543:OE2:9882, V-A:ARG:545:CZ:4924, V-B:TYR:539:CE1:9847, V-A:MET:535:CE:4833, V-A:PRO:540:CA:4881, V-A:TYR:539:C:4865, V-A:PRO:540:N:4882, H-B:GLU:543:O:9875, V-A:GLY:453:CA:4041, H-A:HIS:456:NE2:4067, V-A:ARG:545:CD:4921, V-B:GLU:543:CB:9878, V-A:HIS:456:CE1:4066, V-A:ARG:545:CG:4920, V-A:TYR:484:CZ:4344, V-B:GLU:543:CG:9879, V-A:GLU:543:C:4900, V-B:HIS:456:CE1:9040, H-B:TYR:531:OH:9767, V-A:LYS:547:CE:4948, V-A:GLY:544:CA:4912, V-A:HIS:456:CD2:4065, V-A:GLY:544:C:4910, V-B:HIS:456:CD2:9039, V-B:LYS:547:CE:9922, V-B:GLU:543:C:9874, V-B:GLY:544:CA:9886, V-A:HIS:456:CG:4063, V-A:LYS:547:CD:4947"]

$$$$
RR21_Rahimova_2017
     RDKit          3D

 40 45  0  0  0  0  0  0  0  0999 V2000
  129.8690  127.8460   57.5850 C   0  0  0  0  0  0  0  0  0  0  0  0
  130.7840  127.8830   58.6750 O   0  0  0  0  0  0  0  0  0  0  0  0
  131.1290  126.7030   59.3070 C   0  0  0  0  0  0  0  0  0  0  0  0
  130.6310  126.3010   60.5580 C   0  0  0  0  0  0  0  0  0  0  0  0
  131.0280  125.0910   61.1250 C   0  0  0  0  0  0  0  0  0  0  0  0
  131.9290  124.2510   60.4590 C   0  0  0  0  0  0  0  0  0  0  0  0
  132.3500  122.9490   61.0690 C   0  0  0  0  0  0  0  0  0  0  0  0
  132.2420  121.8340   60.3730 N   0  0  0  0  0  0  0  0  0  0  0  0
  132.6890  120.8440   61.1610 N   0  0  0  0  0  0  0  0  0  0  0  0
  132.7300  119.4990   60.7100 C   0  0  0  0  0  0  0  0  0  0  0  0
  133.9520  118.8860   60.3940 C   0  0  0  0  0  0  0  0  0  0  0  0
  133.9800  117.5640   59.9570 C   0  0  0  0  0  0  0  0  0  0  0  0
  132.7890  116.8520   59.8330 C   0  0  0  0  0  0  0  0  0  0  0  0
  131.5700  117.4510   60.1400 C   0  0  0  0  0  0  0  0  0  0  0  0
  131.5390  118.7720   60.5770 C   0  0  0  0  0  0  0  0  0  0  0  0
  133.1020  121.3490   62.3680 C   0  0  0  0  0  0  0  0  0  0  0  0
  132.8850  122.7190   62.3570 C   0  0  0  0  0  0  0  0  0  0  0  0
  133.2060  123.6880   63.3930 C   0  0  0  0  0  0  0  0  0  0  0  0
  132.3630  124.3060   64.2530 C   0  0  0  0  0  0  0  0  0  0  0  0
  130.5990  124.1270   64.3700 S   0  0  0  0  0  0  0  0  0  0  0  0
  130.5870  125.2600   65.7140 C   0  0  0  0  0  0  0  0  0  0  0  0
  129.5670  125.6600   66.4080 N   0  0  0  0  0  0  0  0  0  0  0  0
  129.6970  126.5780   67.4860 C   0  0  0  0  0  0  0  0  0  0  0  0
  128.7860  126.9890   68.2040 O   0  0  0  0  0  0  0  0  0  0  0  0
  131.1090  127.0420   67.7230 C   0  0  0  0  0  0  0  0  0  0  0  0
  131.3700  128.0500   68.8490 C   0  0  0  0  0  0  0  0  0  0  0  0
  130.6060  127.7630   70.1400 C   0  0  0  0  0  0  0  0  0  0  0  0
  131.2590  127.1670   71.2220 C   0  0  0  0  0  0  0  0  0  0  0  0
  130.5670  126.9200   72.4050 C   0  0  0  0  0  0  0  0  0  0  0  0
  129.2200  127.2720   72.5100 C   0  0  0  0  0  0  0  0  0  0  0  0
  128.4730  127.0130   73.8050 C   0  0  0  0  0  0  0  0  0  0  0  0
  128.5680  127.8790   71.4340 C   0  0  0  0  0  0  0  0  0  0  0  0
  129.2600  128.1250   70.2510 C   0  0  0  0  0  0  0  0  0  0  0  0
  132.1150  126.6380   67.0180 N   0  0  0  0  0  0  0  0  0  0  0  0
  131.8460  125.7230   65.9930 N   0  0  0  0  0  0  0  0  0  0  0  0
  132.8680  125.2540   65.2360 C   0  0  0  0  0  0  0  0  0  0  0  0
  134.0530  125.5820   65.3710 O   0  0  0  0  0  0  0  0  0  0  0  0
  132.4300  124.6530   59.2170 C   0  0  0  0  0  0  0  0  0  0  0  0
  132.0340  125.8640   58.6470 C   0  0  0  0  0  0  0  0  0  0  0  0
  132.5380  126.2230   57.4430 F   0  0  0  0  0  0  0  0  0  0  0  0
  1  2  1  0
  2  3  1  0
  3  4  2  0
  4  5  1  0
  5  6  2  0
  6  7  1  0
  7  8  2  0
  8  9  1  0
  9 10  1  0
 10 11  2  0
 11 12  1  0
 12 13  2  0
 13 14  1  0
 14 15  2  0
  9 16  1  0
 16 17  2  0
 17 18  1  0
 18 19  2  0
 19 20  1  0
 20 21  1  0
 21 22  2  0
 22 23  1  0
 23 24  2  0
 23 25  1  0
 25 26  1  0
 26 27  1  0
 27 28  2  0
 28 29  1  0
 29 30  2  0
 30 31  1  0
 30 32  1  0
 32 33  2  0
 25 34  2  0
 34 35  1  0
 35 36  1  0
 36 37  2  0
  6 38  1  0
 38 39  2  0
 39 40  1  0
 39  3  1  0
 17  7  1  0
 36 19  1  0
 15 10  1  0
 35 21  1  0
 33 27  1  0
M  END
>  <Binding energies>  (46) 
[-5.81]

>  <Ligand effiencies>  (46) 
[-0.14525]

>  <Interactions>  (46) 
["V-A:PRO:482:CG:4324, V-A:LEU:373:CD1:3277, V-A:LEU:475:CD2:4256, V-A:GLU:543:CD:4906, V-B:GLU:543:CD:9880, V-A:SER:385:CB:3406, V-A:ILE:369:CG2:3234, V-B:TYR:539:CB:9843, V-A:GLY:454:CA:4046, V-B:TYR:539:CD1:9845, V-A:ARG:545:CZ:4924, V-A:SER:385:CA:3404, H-A:GLY:454:N:4047, V-B:TYR:539:CE1:9847, V-A:ASP:366:CG:3210, V-A:ASP:366:CB:3209, V-A:TYR:531:CZ:4792, V-A:ARG:545:CD:4921, H-A:TYR:484:OH:4345, V-B:GLU:543:CB:9878, V-A:HIS:456:CE1:4066, V-A:ARG:545:CG:4920, V-A:ASP:366:CA:3207, V-A:SER:385:C:3402, H-A:ARG:545:NE:4922, H-A:ARG:545:NH1:4925, V-B:GLU:543:CG:9879, V-A:GLU:543:CB:4904, V-A:GLU:543:CG:4905, V-A:GLU:543:C:4900, V-B:HIS:456:CE1:9040, V-B:TYR:539:CG:9844, V-A:VAL:384:C:3394, V-A:GLY:544:CA:4912, V-A:HIS:456:CD2:4065, V-A:GLY:544:C:4910, V-B:HIS:456:CD2:9039, V-B:LYS:547:CE:9922, V-A:HIS:456:CG:4063, V-A:LEU:373:CD2:3278, V-A:LEU:373:CG:3276"]

$$$$
RR23_Rahimova_2017
     RDKit          3D

 39 44  0  0  0  0  0  0  0  0999 V2000
  134.1540  131.2080   61.2670 C   0  0  0  0  0  0  0  0  0  0  0  0
  132.8270  131.5320   60.6060 C   0  0  0  0  0  0  0  0  0  0  0  0
  131.7200  131.8630   61.3890 C   0  0  0  0  0  0  0  0  0  0  0  0
  130.5050  132.1700   60.7810 C   0  0  0  0  0  0  0  0  0  0  0  0
  130.3840  132.1360   59.3870 C   0  0  0  0  0  0  0  0  0  0  0  0
  129.0620  132.4920   58.7460 C   0  0  0  0  0  0  0  0  0  0  0  0
  128.6850  133.6630   58.8260 O   0  0  0  0  0  0  0  0  0  0  0  0
  128.3490  131.5230   58.0970 N   0  0  0  0  0  0  0  0  0  0  0  0
  127.4950  131.8390   56.9410 C   0  0  0  0  0  0  0  0  0  0  0  0
  126.9910  130.5100   56.4050 C   0  0  0  0  0  0  0  0  0  0  0  0
  127.8990  129.5170   57.0660 C   0  0  0  0  0  0  0  0  0  0  0  0
  127.9700  128.1360   56.8880 C   0  0  0  0  0  0  0  0  0  0  0  0
  128.7820  127.3530   57.7230 C   0  0  0  0  0  0  0  0  0  0  0  0
  128.8890  125.8290   57.5600 C   0  0  2  0  0  0  0  0  0  0  0  0
  128.4420  125.1220   58.7410 N   0  0  0  0  0  0  0  0  0  0  0  0
  129.0800  124.0340   58.9110 C   0  0  0  0  0  0  0  0  0  0  0  0
  128.9460  123.1330   59.9210 N   0  0  0  0  0  0  0  0  0  0  0  0
  128.2100  123.2410   61.0540 C   0  0  0  0  0  0  0  0  0  0  0  0
  127.4820  124.1910   61.3480 O   0  0  0  0  0  0  0  0  0  0  0  0
  128.3230  122.0600   62.0320 C   0  0  0  0  0  0  0  0  0  0  0  0
  129.5470  121.2880   61.7210 N   0  0  0  0  0  0  0  0  0  0  0  0
  129.3600  119.9250   61.5250 N   0  0  0  0  0  0  0  0  0  0  0  0
  130.3510  119.1400   61.2480 N   0  0  0  0  0  0  0  0  0  0  0  0
  131.6420  119.6620   61.1390 C   0  0  0  0  0  0  0  0  0  0  0  0
  132.6890  118.7860   60.8410 C   0  0  0  0  0  0  0  0  0  0  0  0
  133.9900  119.2780   60.7250 C   0  0  0  0  0  0  0  0  0  0  0  0
  134.2460  120.6390   60.9080 C   0  0  0  0  0  0  0  0  0  0  0  0
  133.2000  121.5160   61.2070 C   0  0  0  0  0  0  0  0  0  0  0  0
  131.8950  121.0220   61.3200 C   0  0  0  0  0  0  0  0  0  0  0  0
  130.7510  121.9530   61.6470 C   0  0  0  0  0  0  0  0  0  0  0  0
  130.8850  123.1660   61.8360 O   0  0  0  0  0  0  0  0  0  0  0  0
  130.3210  123.6230   57.6930 S   0  0  0  0  0  0  0  0  0  0  0  0
  130.2870  125.3320   57.1240 C   0  0  2  0  0  0  0  0  0  0  0  0
  131.5030  126.0810   57.7110 C   0  0  0  0  0  0  0  0  0  0  0  0
  129.4780  127.9770   58.7640 C   0  0  0  0  0  0  0  0  0  0  0  0
  129.3910  129.3560   58.9570 C   0  0  0  0  0  0  0  0  0  0  0  0
  128.6430  130.1410   58.0700 C   0  0  0  0  0  0  0  0  0  0  0  0
  131.5070  131.8300   58.6070 C   0  0  0  0  0  0  0  0  0  0  0  0
  132.7220  131.5250   59.2150 C   0  0  0  0  0  0  0  0  0  0  0  0
  1  2  1  0
  2  3  2  0
  3  4  1  0
  4  5  2  0
  5  6  1  0
  6  7  2  0
  6  8  1  0
  8  9  1  0
  9 10  1  0
 10 11  1  0
 11 12  2  0
 12 13  1  0
 14 13  1  1
 14 15  1  0
 15 16  2  0
 16 17  1  0
 17 18  1  0
 18 19  2  0
 18 20  1  0
 20 21  1  0
 21 22  1  0
 22 23  2  0
 23 24  1  0
 24 25  2  0
 25 26  1  0
 26 27  2  0
 27 28  1  0
 28 29  2  0
 29 30  1  0
 30 31  2  0
 16 32  1  0
 32 33  1  0
 33 34  1  1
 13 35  2  0
 35 36  1  0
 36 37  2  0
  5 38  1  0
 38 39  2  0
 39  2  1  0
 37  8  1  0
 37 11  1  0
 33 14  1  0
 30 21  1  0
 29 24  1  0
M  END
>  <Binding energies>  (47) 
[-2.1]

>  <Ligand effiencies>  (47) 
[-0.052500000000000005]

>  <Interactions>  (47) 
["V-A:LEU:373:CD1:3277, V-B:PRO:540:CA:9855, V-A:LEU:475:CD2:4256, V-A:SER:385:CB:3406, V-A:ILE:369:CG2:3234, V-B:TYR:539:CD1:9845, V-A:ARG:545:CZ:4924, V-A:SER:385:CA:3404, V-B:ALA:541:CB:9864, V-B:TYR:539:CE1:9847, V-A:TYR:539:CE2:4874, V-A:TYR:539:CZ:4875, V-A:ASP:366:CG:3210, V-A:ASP:366:CB:3209, V-A:MET:535:CE:4833, V-A:PRO:540:CA:4881, V-A:TYR:539:C:4865, V-A:PRO:540:CB:4883, V-A:PRO:540:N:4882, V-A:TYR:539:CE1:4873, H-A:TYR:539:N:4868, V-A:TYR:539:CD1:4871, V-A:ILE:369:CD1:3236, V-A:PRO:540:C:4879, H-B:ALA:541:N:9863, V-A:SER:385:C:3402, V-A:ILE:369:CB:3233, V-B:ALA:541:CA:9862, V-B:PRO:540:C:9853, H-B:TYR:539:OH:9850, H-B:TYR:539:O:9840, V-A:ASN:362:CB:3173, V-A:ILE:369:CG1:3235, V-A:TYR:539:CD2:4872, V-A:ASN:362:CG:3174, V-A:ASN:362:C:3169, V-A:ASN:362:CA:3171"]

$$$$
RR26_Rahimova_2017
     RDKit          3D

 38 44  0  0  0  0  0  0  0  0999 V2000
  125.8890  129.9600   63.4840 C   0  0  0  0  0  0  0  0  0  0  0  0
  126.6200  130.7580   62.4120 C   0  0  0  0  0  0  0  0  0  0  0  0
  126.3550  132.1280   62.3100 C   0  0  0  0  0  0  0  0  0  0  0  0
  127.0250  132.9150   61.3750 C   0  0  0  0  0  0  0  0  0  0  0  0
  127.9730  132.3380   60.5360 C   0  0  0  0  0  0  0  0  0  0  0  0
  128.2460  130.9750   60.6280 C   0  0  0  0  0  0  0  0  0  0  0  0
  127.5750  130.1650   61.5570 C   0  0  0  0  0  0  0  0  0  0  0  0
  127.9180  128.7030   61.5800 C   0  0  0  0  0  0  0  0  0  0  0  0
  129.1730  128.2680   61.6470 N   0  0  0  0  0  0  0  0  0  0  0  0
  129.0100  126.9720   61.6560 C   0  0  0  0  0  0  0  0  0  0  0  0
  130.0460  125.5950   61.7170 S   0  0  0  0  0  0  0  0  0  0  0  0
  128.5930  124.5280   61.6740 C   0  0  0  0  0  0  0  0  0  0  0  0
  128.5580  123.1770   61.6840 C   0  0  0  0  0  0  0  0  0  0  0  0
  129.6780  122.2510   61.7400 C   0  0  0  0  0  0  0  0  0  0  0  0
  129.8390  121.0590   61.0520 C   0  0  0  0  0  0  0  0  0  0  0  0
  131.0670  120.5430   61.3830 N   0  0  0  0  0  0  0  0  0  0  0  0
  131.6680  119.3440   60.9210 C   0  0  0  0  0  0  0  0  0  0  0  0
  133.0330  119.3020   60.6000 C   0  0  0  0  0  0  0  0  0  0  0  0
  133.6100  118.1200   60.1450 C   0  0  0  0  0  0  0  0  0  0  0  0
  132.8270  116.9760   60.0120 C   0  0  0  0  0  0  0  0  0  0  0  0
  131.4710  117.0030   60.3300 C   0  0  0  0  0  0  0  0  0  0  0  0
  130.8910  118.1840   60.7830 C   0  0  0  0  0  0  0  0  0  0  0  0
  131.7050  121.3670   62.2280 N   0  0  0  0  0  0  0  0  0  0  0  0
  130.8920  122.3800   62.4530 C   0  0  0  0  0  0  0  0  0  0  0  0
  131.3120  123.4830   63.3750 C   0  0  0  0  0  0  0  0  0  0  0  0
  132.5180  124.1670   63.1610 C   0  0  0  0  0  0  0  0  0  0  0  0
  132.9200  125.1940   64.0170 C   0  0  0  0  0  0  0  0  0  0  0  0
  132.1160  125.5440   65.0990 C   0  0  0  0  0  0  0  0  0  0  0  0
  130.8990  124.8800   65.3130 C   0  0  0  0  0  0  0  0  0  0  0  0
  130.5030  123.8510   64.4600 C   0  0  0  0  0  0  0  0  0  0  0  0
  130.0910  125.1630   66.3970 O   0  0  0  0  0  0  0  0  0  0  0  0
  130.3500  126.4340   67.0040 C   0  0  0  0  0  0  0  0  0  0  0  0
  131.8730  126.6590   67.1650 C   0  0  0  0  0  0  0  0  0  0  0  0
  132.5270  126.5960   65.8930 O   0  0  0  0  0  0  0  0  0  0  0  0
  127.3480  125.2880   61.6070 C   0  0  0  0  0  0  0  0  0  0  0  0
  126.1880  124.8770   61.5590 O   0  0  0  0  0  0  0  0  0  0  0  0
  127.7060  126.6450   61.6040 N   0  0  0  0  0  0  0  0  0  0  0  0
  126.9820  127.7670   61.5590 N   0  0  0  0  0  0  0  0  0  0  0  0
  1  2  1  0
  2  3  2  0
  3  4  1  0
  4  5  2  0
  5  6  1  0
  6  7  2  0
  7  8  1  0
  8  9  1  0
  9 10  2  0
 10 11  1  0
 11 12  1  0
 12 13  2  0
 13 14  1  0
 14 15  2  0
 15 16  1  0
 16 17  1  0
 17 18  2  0
 18 19  1  0
 19 20  2  0
 20 21  1  0
 21 22  2  0
 16 23  1  0
 23 24  2  0
 24 25  1  0
 25 26  2  0
 26 27  1  0
 27 28  2  0
 28 29  1  0
 29 30  2  0
 29 31  1  0
 31 32  1  0
 32 33  1  0
 33 34  1  0
 12 35  1  0
 35 36  2  0
 35 37  1  0
 37 38  1  0
  7  2  1  0
 38  8  2  0
 37 10  1  0
 24 14  1  0
 30 25  1  0
 22 17  1  0
 34 28  1  0
M  END
>  <Binding energies>  (48) 
[-8.03]

>  <Ligand effiencies>  (48) 
[-0.2113157894736842]

>  <Interactions>  (48) 
["V-A:PRO:482:CG:4324, V-A:LEU:373:CD1:3277, V-A:LEU:475:CD2:4256, V-A:GLU:543:CD:4906, V-B:GLU:543:CD:9880, V-A:PRO:482:CB:4323, V-A:SER:385:CB:3406, V-A:ILE:369:CG2:3234, V-B:TYR:539:CB:9843, V-B:TYR:539:CD1:9845, V-A:ARG:545:CZ:4924, V-A:SER:385:CA:3404, V-B:ALA:541:CB:9864, V-B:TYR:539:CE1:9847, V-B:TYR:539:C:9839, V-A:TYR:539:CE1:4873, H-A:ARG:545:NH2:4926, V-A:TYR:539:CD1:4871, V-A:ARG:545:CD:4921, H-A:TYR:484:OH:4345, V-B:GLU:543:CB:9878, V-A:HIS:456:CE1:4066, V-A:ARG:545:CG:4920, H-A:ARG:545:NE:4922, V-A:GLU:543:CG:4905, H-B:ARG:545:NH2:9900, V-A:VAL:384:C:3394"]

$$$$
RR2_Rahimova_2017
     RDKit          3D

 46 50  0  0  0  0  0  0  0  0999 V2000
  127.9780  133.4740   61.5380 C   0  0  0  0  0  0  0  0  0  0  0  0
  128.7270  133.3620   60.3330 O   0  0  0  0  0  0  0  0  0  0  0  0
  128.9460  132.1100   59.7890 C   0  0  0  0  0  0  0  0  0  0  0  0
  128.9750  131.8390   58.4140 C   0  0  0  0  0  0  0  0  0  0  0  0
  129.1980  130.5430   57.9580 C   0  0  0  0  0  0  0  0  0  0  0  0
  129.3950  129.4890   58.8620 C   0  0  0  0  0  0  0  0  0  0  0  0
  129.6300  128.0850   58.3390 C   0  0  0  0  0  0  0  0  0  0  0  0
  128.7260  127.4800   57.7520 O   0  0  0  0  0  0  0  0  0  0  0  0
  130.8580  127.5660   58.5720 N   0  0  0  0  0  0  0  0  0  0  0  0
  131.0960  126.2490   58.1960 N   0  0  0  0  0  0  0  0  0  0  0  0
  131.8180  125.4690   59.0260 C   0  0  0  0  0  0  0  0  0  0  0  0
  132.4390  125.8750   60.0130 O   0  0  0  0  0  0  0  0  0  0  0  0
  131.8190  123.9710   58.6920 C   0  0  0  0  0  0  0  0  0  0  0  0
  133.2270  123.0260   59.3800 S   0  0  0  0  0  0  0  0  0  0  0  0
  133.3130  123.7070   61.0080 C   0  0  0  0  0  0  0  0  0  0  0  0
  134.4410  124.0220   61.5920 N   0  0  0  0  0  0  0  0  0  0  0  0
  134.1410  124.4550   62.8760 N   0  0  0  0  0  0  0  0  0  0  0  0
  132.8360  124.4140   63.0100 C   0  0  0  0  0  0  0  0  0  0  0  0
  132.1250  124.8250   64.2590 C   0  0  0  0  0  0  0  0  0  0  0  0
  130.9040  124.2320   64.5900 C   0  0  0  0  0  0  0  0  0  0  0  0
  130.2310  124.6130   65.7470 C   0  0  0  0  0  0  0  0  0  0  0  0
  130.7830  125.5810   66.5940 C   0  0  0  0  0  0  0  0  0  0  0  0
  130.1450  126.0110   67.7670 N   0  0  0  0  0  0  0  0  0  0  0  0
  130.1790  127.6770   68.3850 S   0  0  0  0  0  0  0  0  0  0  0  0
  129.2180  128.4300   67.5700 O   0  0  0  0  0  0  0  0  0  0  0  0
  131.5810  128.1000   68.4770 O   0  0  0  0  0  0  0  0  0  0  0  0
  129.4890  127.5800   70.0350 C   0  0  0  0  0  0  0  0  0  0  0  0
  128.1270  127.3390   70.2240 C   0  0  0  0  0  0  0  0  0  0  0  0
  127.6080  127.2820   71.5150 C   0  0  0  0  0  0  0  0  0  0  0  0
  128.4510  127.4600   72.6150 C   0  0  0  0  0  0  0  0  0  0  0  0
  127.8810  127.4120   74.0210 C   0  0  0  0  0  0  0  0  0  0  0  0
  129.8120  127.7040   72.4220 C   0  0  0  0  0  0  0  0  0  0  0  0
  130.3320  127.7630   71.1330 C   0  0  0  0  0  0  0  0  0  0  0  0
  132.0040  126.1690   66.2650 C   0  0  0  0  0  0  0  0  0  0  0  0
  132.6750  125.7930   65.1050 C   0  0  0  0  0  0  0  0  0  0  0  0
  132.2420  123.9400   61.8520 N   0  0  0  0  0  0  0  0  0  0  0  0
  130.8740  123.7040   61.6020 C   0  0  0  0  0  0  0  0  0  0  0  0
  130.4050  122.3960   61.4710 C   0  0  0  0  0  0  0  0  0  0  0  0
  129.0530  122.1700   61.2280 C   0  0  0  0  0  0  0  0  0  0  0  0
  128.1640  123.2390   61.1140 C   0  0  0  0  0  0  0  0  0  0  0  0
  126.8430  122.9160   60.8720 O   0  0  0  0  0  0  0  0  0  0  0  0
  125.8160  123.7700   61.3660 C   0  0  0  0  0  0  0  0  0  0  0  0
  128.6450  124.5520   61.2470 C   0  0  0  0  0  0  0  0  0  0  0  0
  129.9950  124.7840   61.4920 C   0  0  0  0  0  0  0  0  0  0  0  0
  129.3700  129.7690   60.2370 C   0  0  0  0  0  0  0  0  0  0  0  0
  129.1480  131.0670   60.6900 C   0  0  0  0  0  0  0  0  0  0  0  0
  1  2  1  0
  2  3  1  0
  3  4  2  0
  4  5  1  0
  5  6  2  0
  6  7  1  0
  7  8  2  0
  7  9  1  0
  9 10  1  0
 10 11  1  0
 11 12  2  0
 11 13  1  0
 13 14  1  0
 14 15  1  0
 15 16  2  0
 16 17  1  0
 17 18  2  0
 18 19  1  0
 19 20  2  0
 20 21  1  0
 21 22  2  0
 22 23  1  0
 23 24  1  0
 24 25  2  0
 24 26  2  0
 24 27  1  0
 27 28  2  0
 28 29  1  0
 29 30  2  0
 30 31  1  0
 30 32  1  0
 32 33  2  0
 22 34  1  0
 34 35  2  0
 18 36  1  0
 36 37  1  0
 37 38  2  0
 38 39  1  0
 39 40  2  0
 40 41  1  0
 41 42  1  0
 40 43  1  0
 43 44  2  0
  6 45  1  0
 45 46  2  0
 46  3  1  0
 36 15  1  0
 44 37  1  0
 35 19  1  0
 33 27  1  0
M  END
>  <Binding energies>  (49) 
[-8.63]

>  <Ligand effiencies>  (49) 
[-0.17612244897959184]

>  <Interactions>  (49) 
["V-B:PRO:540:CA:9855, V-A:GLU:543:CD:4906, V-B:GLU:543:CD:9880, V-A:ARG:545:CZ:4924, H-A:GLY:454:N:4047, V-B:ALA:541:CB:9864, V-B:TYR:539:CE1:9847, V-A:ASP:366:CG:3210, V-A:ASP:366:CB:3209, V-A:TYR:539:CE1:4873, V-B:TYR:539:CZ:9849, V-A:TYR:539:CD1:4871, H-B:GLU:543:O:9875, V-A:ARG:545:CD:4921, V-B:GLU:543:CB:9878, V-A:HIS:456:CE1:4066, V-A:ILE:369:CD1:3236, V-A:ARG:545:CG:4920, H-A:ASP:366:OD2:3212, H-A:ASP:366:OD1:3211, V-A:ALA:541:CB:4890, H-B:ALA:541:N:9863, V-A:TYR:484:CZ:4344, V-B:PRO:540:CB:9857, H-B:TYR:539:OH:9850, V-B:GLU:543:CG:9879, V-A:GLU:543:CG:4905, V-A:GLU:543:C:4900, V-B:HIS:456:CE1:9040, V-A:TYR:484:CE2:4343, V-A:GLY:544:CA:4912, V-B:GLY:544:C:9884, V-A:GLY:544:C:4910, V-B:HIS:456:CD2:9039, V-B:LYS:547:CE:9922, V-B:GLU:543:C:9874, V-B:HIS:456:CG:9037, V-B:GLY:544:CA:9886, H-A:ARG:545:N:4918"]

$$$$
RR33_Rahimova_2017
     RDKit          3D

 18 19  0  0  0  0  0  0  0  0999 V2000
  132.0710  126.6080   57.5370 C   0  0  0  0  0  0  0  0  0  0  0  0
  131.9050  125.1040   57.2980 C   0  0  0  0  0  0  0  0  0  0  0  0
  132.8540  124.4060   58.1000 O   0  0  0  0  0  0  0  0  0  0  0  0
  132.8320  124.5680   59.4720 C   0  0  0  0  0  0  0  0  0  0  0  0
  131.6310  125.0090   60.0260 C   0  0  0  0  0  0  0  0  0  0  0  0
  131.5140  125.2050   61.4000 C   0  0  0  0  0  0  0  0  0  0  0  0
  132.6020  124.9610   62.2420 C   0  0  0  0  0  0  0  0  0  0  0  0
  132.4760  125.1720   63.7170 C   0  0  0  0  0  0  0  0  0  0  0  0
  131.3760  125.3640   64.4090 N   0  0  0  0  0  0  0  0  0  0  0  0
  131.7710  125.4970   65.6660 C   0  0  0  0  0  0  0  0  0  0  0  0
  130.7690  125.7250   66.7770 C   0  0  0  0  0  0  0  0  0  0  0  0
  131.0410  126.9770   67.4660 N   0  0  0  0  0  0  0  0  0  0  0  0
  129.8370  127.4850   68.1020 C   0  0  0  0  0  0  0  0  0  0  0  0
  133.1540  125.3830   65.7340 C   0  0  0  0  0  0  0  0  0  0  0  0
  134.1820  125.4350   66.8380 C   0  0  0  0  0  0  0  0  0  0  0  0
  133.6040  125.1740   64.4750 O   0  0  0  0  0  0  0  0  0  0  0  0
  133.8080  124.5150   61.6910 C   0  0  0  0  0  0  0  0  0  0  0  0
  133.9250  124.3200   60.3170 C   0  0  0  0  0  0  0  0  0  0  0  0
  1  2  1  0
  2  3  1  0
  3  4  1  0
  4  5  2  0
  5  6  1  0
  6  7  2  0
  7  8  1  0
  8  9  2  0
  9 10  1  0
 10 11  1  0
 11 12  1  0
 12 13  1  0
 10 14  2  0
 14 15  1  0
 14 16  1  0
  7 17  1  0
 17 18  2  0
 18  4  1  0
 16  8  1  0
M  END
>  <Binding energies>  (50) 
[-5.32]

>  <Ligand effiencies>  (50) 
[-0.28]

>  <Interactions>  (50) 
["V-A:GLU:543:CD:4906, V-B:GLU:543:CD:9880, V-A:ARG:545:CZ:4924, H-A:GLY:454:N:4047, V-B:TYR:539:CE1:9847, V-A:ASP:366:CG:3210, V-A:ASP:366:CB:3209, V-A:TYR:531:CZ:4792, V-B:TYR:539:CZ:9849, H-A:ARG:545:NH2:4926, H-A:HIS:456:NE2:4067, V-A:ARG:545:CD:4921, H-A:TYR:484:OH:4345, V-B:GLU:543:CB:9878, V-A:HIS:456:CE1:4066, H-A:GLU:543:OE2:4908, V-A:ILE:369:CD1:3236, V-A:ARG:545:CG:4920, H-A:ARG:545:NE:4922, H-B:TYR:539:OH:9850, V-A:GLU:543:CG:4905, V-A:ARG:545:CB:4919, V-A:ILE:455:C:4049"]

$$$$
RR3_Rahimova_2017
     RDKit          3D

 38 44  0  0  0  0  0  0  0  0999 V2000
  130.1050  127.8750   69.7160 C   0  0  0  0  0  0  0  0  0  0  0  0
  131.3110  128.1140   69.0640 C   0  0  0  0  0  0  0  0  0  0  0  0
  131.6070  127.4270   67.8900 C   0  0  0  0  0  0  0  0  0  0  0  0
  130.7060  126.4970   67.3520 C   0  0  0  0  0  0  0  0  0  0  0  0
  131.0260  125.7610   66.0880 C   0  0  0  0  0  0  0  0  0  0  0  0
  132.0620  126.1900   65.2470 C   0  0  0  0  0  0  0  0  0  0  0  0
  132.3570  125.5070   64.0710 C   0  0  0  0  0  0  0  0  0  0  0  0
  131.6160  124.3810   63.7030 C   0  0  0  0  0  0  0  0  0  0  0  0
  131.9240  123.6450   62.4370 C   0  0  0  0  0  0  0  0  0  0  0  0
  132.3320  122.3820   62.4850 N   0  0  0  0  0  0  0  0  0  0  0  0
  132.4800  121.9890   61.2430 C   0  0  0  0  0  0  0  0  0  0  0  0
  132.9180  120.6590   60.8280 C   0  0  0  0  0  0  0  0  0  0  0  0
  134.2200  120.2880   60.5380 C   0  0  0  0  0  0  0  0  0  0  0  0
  134.2690  118.9630   60.1910 N   0  0  0  0  0  0  0  0  0  0  0  0
  133.0040  118.4200   60.2380 C   0  0  0  0  0  0  0  0  0  0  0  0
  132.5580  117.1210   59.9700 C   0  0  0  0  0  0  0  0  0  0  0  0
  131.1910  116.8800   60.1090 C   0  0  0  0  0  0  0  0  0  0  0  0
  130.3050  117.8800   60.4950 C   0  0  0  0  0  0  0  0  0  0  0  0
  130.7500  119.1740   60.7630 C   0  0  0  0  0  0  0  0  0  0  0  0
  132.1190  119.4700   60.6370 C   0  0  0  0  0  0  0  0  0  0  0  0
  132.1760  122.9970   60.3710 N   0  0  0  0  0  0  0  0  0  0  0  0
  131.8310  124.0990   61.1100 C   0  0  0  0  0  0  0  0  0  0  0  0
  131.4920  125.4170   60.4930 C   0  0  0  0  0  0  0  0  0  0  0  0
  131.6680  125.6130   59.1230 C   0  0  0  0  0  0  0  0  0  0  0  0
  131.3660  126.8430   58.5460 C   0  0  0  0  0  0  0  0  0  0  0  0
  130.8770  127.9030   59.3240 C   0  0  0  0  0  0  0  0  0  0  0  0
  130.5710  129.2300   58.7030 C   0  0  0  0  0  0  0  0  0  0  0  0
  130.8830  130.4240   59.3700 C   0  0  0  0  0  0  0  0  0  0  0  0
  130.6020  131.6600   58.7910 C   0  0  0  0  0  0  0  0  0  0  0  0
  130.0060  131.7130   57.5350 C   0  0  0  0  0  0  0  0  0  0  0  0
  129.6900  130.5410   56.8560 C   0  0  0  0  0  0  0  0  0  0  0  0
  129.9700  129.3080   57.4380 C   0  0  0  0  0  0  0  0  0  0  0  0
  130.6880  127.6860   60.6960 C   0  0  0  0  0  0  0  0  0  0  0  0
  130.9900  126.4580   61.2760 C   0  0  0  0  0  0  0  0  0  0  0  0
  130.5910  123.9380   64.5410 C   0  0  0  0  0  0  0  0  0  0  0  0
  130.2970  124.6230   65.7170 C   0  0  0  0  0  0  0  0  0  0  0  0
  129.4970  126.2720   68.0270 C   0  0  0  0  0  0  0  0  0  0  0  0
  129.1960  126.9560   69.2010 C   0  0  0  0  0  0  0  0  0  0  0  0
  1  2  2  0
  2  3  1  0
  3  4  2  0
  4  5  1  0
  5  6  2  0
  6  7  1  0
  7  8  2  0
  8  9  1  0
  9 10  1  0
 10 11  2  0
 11 12  1  0
 12 13  2  0
 13 14  1  0
 14 15  1  0
 15 16  2  0
 16 17  1  0
 17 18  2  0
 18 19  1  0
 19 20  2  0
 11 21  1  0
 21 22  1  0
 22 23  1  0
 23 24  2  0
 24 25  1  0
 25 26  2  0
 26 27  1  0
 27 28  2  0
 28 29  1  0
 29 30  2  0
 30 31  1  0
 31 32  2  0
 26 33  1  0
 33 34  2  0
  8 35  1  0
 35 36  2  0
  4 37  1  0
 37 38  2  0
 38  1  1  0
 36  5  1  0
 22  9  2  0
 34 23  1  0
 20 12  1  0
 32 27  1  0
 20 15  1  0
M  END
>  <Binding energies>  (51) 
[-8.09]

>  <Ligand effiencies>  (51) 
[-0.20224999999999999]

>  <Interactions>  (51) 
["V-A:PRO:482:CG:4324, V-A:LEU:373:CD1:3277, V-A:LEU:475:CD2:4256, V-A:GLU:543:CD:4906, V-B:GLU:543:CD:9880, V-A:PRO:482:CB:4323, V-A:SER:385:CB:3406, V-A:ILE:369:CG2:3234, V-B:TYR:539:CB:9843, V-B:TYR:539:CD1:9845, V-A:ARG:545:CZ:4924, V-A:SER:385:CA:3404, V-B:TYR:539:CE1:9847, V-B:TYR:539:C:9839, V-A:ASP:366:CG:3210, V-A:ASP:366:CB:3209, V-A:MET:535:CE:4833, V-A:PRO:540:CA:4881, V-A:ARG:545:CD:4921, V-B:GLU:543:CB:9878, V-A:HIS:456:CE1:4066, V-A:ILE:369:CD1:3236, V-A:ARG:545:CG:4920, V-A:SER:385:C:3402, V-A:ILE:369:CB:3233, H-A:SER:385:O:3403, H-A:VAL:384:O:3395, V-A:TYR:484:CZ:4344, H-B:TYR:539:OH:9850, V-B:GLU:543:CG:9879, V-A:GLU:543:CB:4904, V-A:GLU:543:CG:4905, V-A:GLU:543:C:4900, V-A:TYR:484:CE2:4343, V-B:TYR:539:CG:9844, V-A:VAL:384:C:3394, V-B:VAL:344:CG1:7972, V-A:GLY:544:CA:4912, V-A:GLY:544:C:4910, V-B:GLU:543:C:9874"]

$$$$
RR4_Rahimova_2017
     RDKit          3D

 40 44  0  0  0  0  0  0  0  0999 V2000
  133.7130  120.2380   61.1160 C   0  0  0  0  0  0  0  0  0  0  0  0
  134.0020  121.6230   60.9560 O   0  0  0  0  0  0  0  0  0  0  0  0
  133.0350  122.4570   60.4280 C   0  0  0  0  0  0  0  0  0  0  0  0
  133.4850  123.5950   59.7650 C   0  0  0  0  0  0  0  0  0  0  0  0
  132.5830  124.4920   59.2000 C   0  0  0  0  0  0  0  0  0  0  0  0
  131.2000  124.2770   59.2860 C   0  0  0  0  0  0  0  0  0  0  0  0
  130.2290  125.2480   58.6770 C   0  0  0  0  0  0  0  0  0  0  0  0
  130.5210  126.6050   58.5040 C   0  0  0  0  0  0  0  0  0  0  0  0
  129.5820  127.4690   57.9270 C   0  0  0  0  0  0  0  0  0  0  0  0
  129.9760  128.9000   57.7480 C   0  0  0  0  0  0  0  0  0  0  0  0
  128.9960  129.8950   57.6890 C   0  0  0  0  0  0  0  0  0  0  0  0
  129.3540  131.2320   57.5350 C   0  0  0  0  0  0  0  0  0  0  0  0
  130.6960  131.5990   57.4430 C   0  0  0  0  0  0  0  0  0  0  0  0
  130.9570  132.9480   57.2930 O   0  0  0  0  0  0  0  0  0  0  0  0
  132.1090  133.3550   56.5610 C   0  0  0  0  0  0  0  0  0  0  0  0
  131.6830  130.6040   57.5080 C   0  0  0  0  0  0  0  0  0  0  0  0
  131.3220  129.2680   57.6620 C   0  0  0  0  0  0  0  0  0  0  0  0
  128.3230  126.9430   57.5490 C   0  0  0  0  0  0  0  0  0  0  0  0
  127.3050  127.8040   56.9390 C   0  0  0  0  0  0  0  0  0  0  0  0
  126.5010  128.4830   56.4580 N   0  0  0  0  0  0  0  0  0  0  0  0
  128.0840  125.5690   57.7790 C   0  0  0  0  0  0  0  0  0  0  0  0
  126.5580  124.7420   57.3800 S   0  0  0  0  0  0  0  0  0  0  0  0
  125.6810  124.4080   58.9440 C   0  0  0  0  0  0  0  0  0  0  0  0
  126.5950  124.0410   60.1220 C   0  0  0  0  0  0  0  0  0  0  0  0
  126.4090  123.0020   60.7600 O   0  0  0  0  0  0  0  0  0  0  0  0
  127.5700  124.9430   60.3840 N   0  0  0  0  0  0  0  0  0  0  0  0
  128.5520  124.8960   61.3760 C   0  0  0  0  0  0  0  0  0  0  0  0
  128.9950  123.4280   62.2050 S   0  0  0  0  0  0  0  0  0  0  0  0
  130.1710  124.2620   63.1730 C   0  0  0  0  0  0  0  0  0  0  0  0
  130.2150  125.6310   62.8660 C   0  0  0  0  0  0  0  0  0  0  0  0
  129.3080  125.9850   61.8370 C   0  0  0  0  0  0  0  0  0  0  0  0
  129.1710  127.3430   61.3190 C   0  0  0  0  0  0  0  0  0  0  0  0
  129.0620  128.4200   60.9090 N   0  0  0  0  0  0  0  0  0  0  0  0
  131.2020  126.5780   63.5590 C   0  0  0  0  0  0  0  0  0  0  0  0
  132.3210  125.7780   64.2630 C   0  0  0  0  0  0  0  0  0  0  0  0
  131.7660  124.5920   65.0720 C   0  0  0  0  0  0  0  0  0  0  0  0
  131.0760  123.5480   64.1690 C   0  0  0  0  0  0  0  0  0  0  0  0
  129.0210  124.7490   58.3100 N   0  0  0  0  0  0  0  0  0  0  0  0
  130.7550  123.1250   59.9540 C   0  0  0  0  0  0  0  0  0  0  0  0
  131.6550  122.2260   60.5190 C   0  0  0  0  0  0  0  0  0  0  0  0
  1  2  1  0
  2  3  1  0
  3  4  2  0
  4  5  1  0
  5  6  2  0
  6  7  1  0
  7  8  2  0
  8  9  1  0
  9 10  1  0
 10 11  2  0
 11 12  1  0
 12 13  2  0
 13 14  1  0
 14 15  1  0
 13 16  1  0
 16 17  2  0
  9 18  2  0
 18 19  1  0
 19 20  3  0
 18 21  1  0
 21 22  1  0
 22 23  1  0
 23 24  1  0
 24 25  2  0
 24 26  1  0
 26 27  1  0
 27 28  1  0
 28 29  1  0
 29 30  2  0
 30 31  1  0
 31 32  1  0
 32 33  3  0
 30 34  1  0
 34 35  1  0
 35 36  1  0
 36 37  1  0
 21 38  2  0
  6 39  1  0
 39 40  2  0
 40  3  1  0
 38  7  1  0
 17 10  1  0
 31 27  2  0
 37 29  1  0
M  END
>  <Binding energies>  (52) 
[-6.38]

>  <Ligand effiencies>  (52) 
[-0.15560975609756098]

>  <Interactions>  (52) 
["V-B:PRO:540:CA:9855, V-A:LEU:475:CD2:4256, V-A:GLU:543:CD:4906, V-B:GLU:543:CD:9880, V-A:SER:385:CB:3406, V-A:ILE:369:CG2:3234, V-B:TYR:539:CD1:9845, V-A:ARG:545:CZ:4924, V-A:SER:385:CA:3404, V-B:ALA:541:CB:9864, V-B:TYR:539:CE1:9847, V-A:ASP:366:CG:3210, V-A:ASP:366:CB:3209, V-A:TYR:531:CZ:4792, V-A:LEU:363:CD1:3186, V-A:PRO:540:CA:4881, V-A:TYR:539:C:4865, V-A:PRO:540:CB:4883, V-A:PRO:540:N:4882, H-A:TYR:539:N:4868, V-B:ASP:366:CG:8184, V-A:ILE:369:CD1:3236, H-B:ASP:366:OD2:8186, H-B:ALA:541:N:9863, V-A:SER:385:C:3402, V-A:ILE:369:CB:3233, V-A:ILE:538:CG2:4861, V-A:TYR:484:CZ:4344, V-A:ILE:538:CB:4860, V-A:ILE:538:CA:4858, V-A:PRO:540:CD:4885, H-B:TYR:531:OH:9767, V-A:ILE:538:C:4856, V-A:PRO:540:CG:4884"]

$$$$
RR6_Rahimova_2017
     RDKit          3D

 38 41  0  0  0  0  0  0  0  0999 V2000
  129.0780  125.0830   72.8430 C   0  0  0  0  0  0  0  0  0  0  0  0
  130.3100  125.7910   72.8290 O   0  0  0  0  0  0  0  0  0  0  0  0
  130.3690  127.0840   72.4170 C   0  0  0  0  0  0  0  0  0  0  0  0
  130.9040  127.9830   73.0740 O   0  0  0  0  0  0  0  0  0  0  0  0
  129.7190  127.3120   71.0830 C   0  0  0  0  0  0  0  0  0  0  0  0
  130.4560  127.7000   69.9540 C   0  0  0  0  0  0  0  0  0  0  0  0
  129.8220  127.9120   68.7310 C   0  0  0  0  0  0  0  0  0  0  0  0
  128.4340  127.7420   68.6190 C   0  0  0  0  0  0  0  0  0  0  0  0
  127.6920  127.9570   67.4430 N   0  0  0  0  0  0  0  0  0  0  0  0
  127.3240  129.1200   66.8630 C   0  0  0  0  0  0  0  0  0  0  0  0
  127.6000  130.2450   67.2820 O   0  0  0  0  0  0  0  0  0  0  0  0
  126.4410  128.9890   65.6180 C   0  0  0  0  0  0  0  0  0  0  0  0
  126.6090  130.3800   64.4500 S   0  0  0  0  0  0  0  0  0  0  0  0
  127.7790  129.8700   63.2080 C   0  0  0  0  0  0  0  0  0  0  0  0
  128.2370  128.6040   63.3600 N   0  0  0  0  0  0  0  0  0  0  0  0
  129.1120  128.0920   62.4580 C   0  0  0  0  0  0  0  0  0  0  0  0
  129.5230  126.6640   62.6640 C   0  0  0  0  0  0  0  0  0  0  0  0
  129.1300  125.6620   61.7620 C   0  0  0  0  0  0  0  0  0  0  0  0
  129.5000  124.3350   61.9600 C   0  0  0  0  0  0  0  0  0  0  0  0
  130.2770  123.9840   63.0640 C   0  0  0  0  0  0  0  0  0  0  0  0
  130.6700  122.5340   63.2800 C   0  0  0  0  0  0  0  0  0  0  0  0
  130.6790  124.9630   63.9690 C   0  0  0  0  0  0  0  0  0  0  0  0
  130.3070  126.2880   63.7660 C   0  0  0  0  0  0  0  0  0  0  0  0
  129.5590  128.8620   61.3790 C   0  0  0  0  0  0  0  0  0  0  0  0
  129.1030  130.1760   61.2030 C   0  0  0  0  0  0  0  0  0  0  0  0
  129.6060  130.9340   60.0190 C   0  0  0  0  0  0  0  0  0  0  0  0
  130.9750  130.9750   59.7400 C   0  0  0  0  0  0  0  0  0  0  0  0
  131.4510  131.6660   58.6290 C   0  0  0  0  0  0  0  0  0  0  0  0
  130.5690  132.3240   57.7730 C   0  0  0  0  0  0  0  0  0  0  0  0
  131.1310  132.9820   56.6960 O   0  0  0  0  0  0  0  0  0  0  0  0
  132.5220  132.8290   56.4380 C   0  0  0  0  0  0  0  0  0  0  0  0
  129.1930  132.2820   58.0450 C   0  0  0  0  0  0  0  0  0  0  0  0
  128.7210  131.5890   59.1570 C   0  0  0  0  0  0  0  0  0  0  0  0
  128.1890  130.7030   62.1480 C   0  0  0  0  0  0  0  0  0  0  0  0
  127.6940  132.0800   62.0390 C   0  0  0  0  0  0  0  0  0  0  0  0
  127.3030  133.1650   61.9530 N   0  0  0  0  0  0  0  0  0  0  0  0
  127.7010  127.3400   69.7360 C   0  0  0  0  0  0  0  0  0  0  0  0
  128.3350  127.1320   70.9580 C   0  0  0  0  0  0  0  0  0  0  0  0
  1  2  1  0
  2  3  1  0
  3  4  2  0
  3  5  1  0
  5  6  2  0
  6  7  1  0
  7  8  2  0
  8  9  1  0
  9 10  1  0
 10 11  2  0
 10 12  1  0
 12 13  1  0
 13 14  1  0
 14 15  2  0
 15 16  1  0
 16 17  1  0
 17 18  2  0
 18 19  1  0
 19 20  2  0
 20 21  1  0
 20 22  1  0
 22 23  2  0
 16 24  2  0
 24 25  1  0
 25 26  1  0
 26 27  2  0
 27 28  1  0
 28 29  2  0
 29 30  1  0
 30 31  1  0
 29 32  1  0
 32 33  2  0
 25 34  2  0
 34 35  1  0
 35 36  3  0
  8 37  1  0
 37 38  2  0
 38  5  1  0
 34 14  1  0
 23 17  1  0
 33 26  1  0
M  END
>  <Binding energies>  (53) 
[-8.51]

>  <Ligand effiencies>  (53) 
[-0.2182051282051282]

>  <Interactions>  (53) 
["V-A:LEU:475:CD2:4256, V-A:GLU:543:CD:4906, V-B:GLU:543:CD:9880, H-B:GLU:543:OE1:9881, H-B:GLU:543:OE2:9882, V-B:ALA:541:CB:9864, V-A:LEU:363:CD1:3186, V-A:PRO:540:CA:4881, V-A:TYR:539:C:4865, V-A:PRO:540:CB:4883, V-A:PRO:540:N:4882, V-A:TYR:539:CE1:4873, H-A:TYR:539:N:4868, V-A:TYR:539:CD1:4871, H-A:HIS:456:NE2:4067, V-A:HIS:456:CE1:4066, V-B:ARG:545:CZ:9898, V-A:ILE:538:CG2:4861, V-B:GLU:543:CG:9879, V-A:GLU:543:CB:4904, V-A:GLU:543:CG:4905, V-A:GLU:543:C:4900, V-B:HIS:456:CE1:9040, V-A:ILE:538:CB:4860, V-A:PRO:540:CD:4885, H-B:TYR:484:OH:9319, H-A:LYS:547:NZ:4949, V-A:HIS:456:CD2:4065, V-B:GLY:544:C:9884, V-A:GLY:544:C:4910, V-B:LYS:547:CE:9922, V-B:GLU:543:C:9874, V-B:GLY:544:CA:9886, H-B:HIS:456:NE2:9041, V-A:PRO:540:CG:4884"]

$$$$
RR7_Rahimova_2017
     RDKit          3D

 47 53  0  0  0  0  0  0  0  0999 V2000
  130.3060  125.5280   66.4840 C   0  0  0  0  0  0  0  0  0  0  0  0
  131.2820  125.1810   65.5060 O   0  0  0  0  0  0  0  0  0  0  0  0
  130.9290  125.1930   64.1700 C   0  0  0  0  0  0  0  0  0  0  0  0
  131.2610  126.3370   63.4470 C   0  0  0  0  0  0  0  0  0  0  0  0
  130.9500  126.4380   62.0950 C   0  0  0  0  0  0  0  0  0  0  0  0
  130.2860  125.3950   61.4330 C   0  0  0  0  0  0  0  0  0  0  0  0
  129.9550  125.4660   59.9090 C   0  0  0  0  0  0  0  0  0  0  0  0
  129.4210  126.7880   59.6710 O   0  0  0  0  0  0  0  0  0  0  0  0
  128.8430  127.1090   58.4010 C   0  0  0  0  0  0  0  0  0  0  0  0
  127.4900  127.8040   58.6280 C   0  0  1  0  0  0  0  0  0  0  0  0
  127.1680  127.6400   60.0070 O   0  0  0  0  0  0  0  0  0  0  0  0
  127.0050  128.8680   60.6560 C   0  0  1  0  0  0  0  0  0  0  0  0
  127.4450  128.7660   62.0350 N   0  0  0  0  0  0  0  0  0  0  0  0
  128.5110  128.0430   62.5380 C   0  0  0  0  0  0  0  0  0  0  0  0
  128.6570  128.0900   63.8390 N   0  0  0  0  0  0  0  0  0  0  0  0
  127.6010  128.8530   64.2590 C   0  0  0  0  0  0  0  0  0  0  0  0
  127.1840  129.2640   65.5400 C   0  0  0  0  0  0  0  0  0  0  0  0
  127.9460  128.8700   66.6560 N   0  0  0  0  0  0  0  0  0  0  0  0
  127.6290  127.9920   67.6370 C   0  0  0  0  0  0  0  0  0  0  0  0
  126.5570  127.3880   67.7090 O   0  0  0  0  0  0  0  0  0  0  0  0
  128.6820  127.7980   68.7080 C   0  0  0  0  0  0  0  0  0  0  0  0
  128.2970  127.3870   69.9930 C   0  0  0  0  0  0  0  0  0  0  0  0
  129.2490  127.1980   70.9910 C   0  0  0  0  0  0  0  0  0  0  0  0
  130.5940  127.4130   70.7110 C   0  0  0  0  0  0  0  0  0  0  0  0
  130.9980  127.8180   69.4410 C   0  0  0  0  0  0  0  0  0  0  0  0
  130.0460  128.0090   68.4420 C   0  0  0  0  0  0  0  0  0  0  0  0
  126.0560  130.0260   65.6630 N   0  0  0  0  0  0  0  0  0  0  0  0
  125.3840  130.3510   64.5280 C   0  0  0  0  0  0  0  0  0  0  0  0
  125.6980  130.0140   63.2480 N   0  0  0  0  0  0  0  0  0  0  0  0
  126.8110  129.2740   63.1580 C   0  0  0  0  0  0  0  0  0  0  0  0
  127.7740  129.8750   59.8080 C   0  0  0  0  0  0  0  0  0  0  0  0
  127.4990  129.3250   58.4190 C   0  0  2  0  0  0  0  0  0  0  0  0
  126.2740  129.8050   57.8910 O   0  0  0  0  0  0  0  0  0  0  0  0
  131.2200  125.3220   59.0220 C   0  0  0  0  0  0  0  0  0  0  0  0
  132.3440  124.6280   59.4990 C   0  0  0  0  0  0  0  0  0  0  0  0
  133.4880  124.5040   58.7180 C   0  0  0  0  0  0  0  0  0  0  0  0
  133.5220  125.0760   57.4500 C   0  0  0  0  0  0  0  0  0  0  0  0
  132.4200  125.7690   56.9570 C   0  0  0  0  0  0  0  0  0  0  0  0
  131.2760  125.8930   57.7400 C   0  0  0  0  0  0  0  0  0  0  0  0
  128.9530  124.3990   59.3840 C   0  0  0  0  0  0  0  0  0  0  0  0
  129.2920  123.5820   58.2940 C   0  0  0  0  0  0  0  0  0  0  0  0
  128.3990  122.6310   57.8100 C   0  0  0  0  0  0  0  0  0  0  0  0
  127.1490  122.4930   58.4080 C   0  0  0  0  0  0  0  0  0  0  0  0
  126.7870  123.3010   59.4810 C   0  0  0  0  0  0  0  0  0  0  0  0
  127.6820  124.2510   59.9630 C   0  0  0  0  0  0  0  0  0  0  0  0
  129.9670  124.2390   62.1610 C   0  0  0  0  0  0  0  0  0  0  0  0
  130.2790  124.1380   63.5140 C   0  0  0  0  0  0  0  0  0  0  0  0
  1  2  1  0
  2  3  1  0
  3  4  2  0
  4  5  1  0
  5  6  2  0
  6  7  1  0
  7  8  1  0
  8  9  1  0
 10  9  1  1
 10 11  1  0
 11 12  1  0
 12 13  1  1
 13 14  1  0
 14 15  2  0
 15 16  1  0
 16 17  2  0
 17 18  1  0
 18 19  1  0
 19 20  2  0
 19 21  1  0
 21 22  2  0
 22 23  1  0
 23 24  2  0
 24 25  1  0
 25 26  2  0
 17 27  1  0
 27 28  2  0
 28 29  1  0
 29 30  2  0
 12 31  1  0
 31 32  1  0
 32 33  1  1
  7 34  1  0
 34 35  2  0
 35 36  1  0
 36 37  2  0
 37 38  1  0
 38 39  2  0
  7 40  1  0
 40 41  2  0
 41 42  1  0
 42 43  2  0
 43 44  1  0
 44 45  2  0
  6 46  1  0
 46 47  2  0
 47  3  1  0
 32 10  1  0
 39 34  1  0
 45 40  1  0
 30 13  1  0
 30 16  1  0
 26 21  1  0
M  END
>  <Binding energies>  (54) 
[-6.93]

>  <Ligand effiencies>  (54) 
[-0.14142857142857143]

>  <Interactions>  (54) 
["V-B:PRO:540:CA:9855, V-B:PRO:540:N:9856, V-A:GLU:543:CD:4906, V-B:GLU:543:CD:9880, H-B:GLU:543:OE2:9882, V-A:ILE:369:CG2:3234, V-B:TYR:539:CD1:9845, V-A:ARG:545:CZ:4924, V-B:TYR:539:CE1:9847, V-B:TYR:539:C:9839, V-A:ASP:366:CG:3210, V-A:ASP:366:CB:3209, V-A:TYR:531:CZ:4792, V-B:TYR:539:CZ:9849, H-A:TYR:484:OH:4345, H-A:GLU:543:OE1:4907, V-B:GLU:543:CB:9878, V-A:HIS:456:CE1:4066, V-A:ASP:366:C:3205, H-A:GLU:543:OE2:4908, V-A:ASP:366:CA:3207, V-B:PRO:540:CB:9857, V-B:PRO:540:CD:9859, V-B:GLU:543:CG:9879, V-A:GLU:543:CB:4904, V-A:GLU:543:CG:4905, V-A:GLU:543:C:4900, V-B:HIS:456:CE1:9040, H-A:TYR:539:OH:4876, H-B:ARG:545:NH2:9900, V-B:TYR:539:CG:9844, H-B:ASP:366:OD1:8185, V-A:TYR:531:CE1:4790, H-B:TYR:484:OH:9319, V-A:GLY:544:CA:4912, V-A:HIS:456:CD2:4065, V-A:GLY:544:C:4910, V-B:GLU:543:C:9874, H-B:ARG:545:NE:9896"]

$$$$
RR8_A_Rahimova_2017
     RDKit          3D

 42 46  0  0  0  0  0  0  0  0999 V2000
  134.0360  124.9090   66.1040 O   0  0  0  0  0  0  0  0  0  0  0  0
  133.0650  125.5060   65.6270 C   0  0  0  0  0  0  0  0  0  0  0  0
  132.8990  125.7730   64.2950 O   0  0  0  0  0  0  0  0  0  0  0  0
  132.3570  124.7600   63.4930 C   0  0  1  0  0  0  0  0  0  0  0  0
  131.7040  123.7890   64.2600 O   0  0  0  0  0  0  0  0  0  0  0  0
  130.5190  123.3200   63.6240 C   0  0  2  0  0  0  0  0  0  0  0  0
  130.6090  121.7900   63.4880 C   0  0  0  0  0  0  0  0  0  0  0  0
  131.3930  121.4760   62.3450 O   0  0  0  0  0  0  0  0  0  0  0  0
  130.6630  120.8530   61.2970 C   0  0  0  0  0  0  0  0  0  0  0  0
  131.3190  119.5310   60.9260 C   0  0  0  0  0  0  0  0  0  0  0  0
  130.5520  118.3650   60.8670 C   0  0  0  0  0  0  0  0  0  0  0  0
  131.1500  117.1550   60.5220 C   0  0  0  0  0  0  0  0  0  0  0  0
  132.5120  117.1150   60.2330 C   0  0  0  0  0  0  0  0  0  0  0  0
  133.2830  118.2740   60.2840 C   0  0  0  0  0  0  0  0  0  0  0  0
  132.6860  119.4840   60.6280 C   0  0  0  0  0  0  0  0  0  0  0  0
  130.4810  124.0990   62.3020 C   0  0  1  0  0  0  0  0  0  0  0  0
  129.1660  124.5010   61.9260 O   0  0  0  0  0  0  0  0  0  0  0  0
  128.2150  123.4510   61.7900 C   0  0  0  0  0  0  0  0  0  0  0  0
  127.8210  123.2940   60.3280 C   0  0  0  0  0  0  0  0  0  0  0  0
  128.7000  122.6730   59.4350 C   0  0  0  0  0  0  0  0  0  0  0  0
  128.3500  122.5340   58.0950 C   0  0  0  0  0  0  0  0  0  0  0  0
  127.1220  123.0200   57.6480 C   0  0  0  0  0  0  0  0  0  0  0  0
  126.2430  123.6470   58.5290 C   0  0  0  0  0  0  0  0  0  0  0  0
  126.5940  123.7870   59.8690 C   0  0  0  0  0  0  0  0  0  0  0  0
  131.2660  125.3590   62.6170 C   0  0  2  0  0  0  0  0  0  0  0  0
  131.7570  125.9570   61.4190 O   0  0  0  0  0  0  0  0  0  0  0  0
  132.3740  125.0680   60.4950 C   0  0  0  0  0  0  0  0  0  0  0  0
  131.8140  125.3000   59.1000 C   0  0  0  0  0  0  0  0  0  0  0  0
  130.4500  125.5550   58.9230 C   0  0  0  0  0  0  0  0  0  0  0  0
  129.9430  125.7770   57.6450 C   0  0  0  0  0  0  0  0  0  0  0  0
  130.8010  125.7470   56.5480 C   0  0  0  0  0  0  0  0  0  0  0  0
  132.1610  125.5000   56.7160 C   0  0  0  0  0  0  0  0  0  0  0  0
  132.6690  125.2780   57.9940 C   0  0  0  0  0  0  0  0  0  0  0  0
  131.9240  126.0090   66.4640 C   0  0  0  0  0  0  0  0  0  0  0  0
  130.6850  125.3510   66.5020 C   0  0  0  0  0  0  0  0  0  0  0  0
  129.6460  125.8440   67.2870 C   0  0  0  0  0  0  0  0  0  0  0  0
  129.8170  127.0040   68.0530 C   0  0  0  0  0  0  0  0  0  0  0  0
  128.7100  127.5270   68.8900 N   0  0  0  0  0  0  0  0  0  0  0  0
  128.9860  128.0940   69.9430 O   0  0  0  0  0  0  0  0  0  0  0  0
  127.5560  127.3740   68.5010 O   0  0  0  0  0  0  0  0  0  0  0  0
  131.0540  127.6610   68.0120 C   0  0  0  0  0  0  0  0  0  0  0  0
  132.0930  127.1710   67.2280 C   0  0  0  0  0  0  0  0  0  0  0  0
  1  2  2  0
  2  3  1  0
  4  3  1  1
  4  5  1  0
  5  6  1  0
  6  7  1  6
  7  8  1  0
  8  9  1  0
  9 10  1  0
 10 11  2  0
 11 12  1  0
 12 13  2  0
 13 14  1  0
 14 15  2  0
  6 16  1  0
 16 17  1  1
 17 18  1  0
 18 19  1  0
 19 20  2  0
 20 21  1  0
 21 22  2  0
 22 23  1  0
 23 24  2  0
 16 25  1  0
 25 26  1  6
 26 27  1  0
 27 28  1  0
 28 29  2  0
 29 30  1  0
 30 31  2  0
 31 32  1  0
 32 33  2  0
  2 34  1  0
 34 35  2  0
 35 36  1  0
 36 37  2  0
 37 38  1  0
 38 39  2  0
 38 40  1  0
 37 41  1  0
 41 42  2  0
 25  4  1  0
 33 28  1  0
 42 34  1  0
 15 10  1  0
 24 19  1  0
M  CHG  2  38   1  40  -1
M  END
>  <Binding energies>  (55) 
[-8.95]

>  <Ligand effiencies>  (55) 
[-0.2130952380952381]

>  <Interactions>  (55) 
["V-A:PRO:482:CG:4324, V-A:LEU:373:CD1:3277, V-B:PRO:540:CA:9855, V-B:PRO:540:N:9856, V-A:LEU:475:CD2:4256, V-A:GLU:543:CD:4906, V-B:GLU:543:CD:9880, V-A:PRO:482:CB:4323, V-A:SER:385:CB:3406, V-B:TYR:539:CB:9843, V-B:TYR:539:CD1:9845, V-A:ARG:545:CZ:4924, V-A:SER:385:CA:3404, H-A:GLY:454:N:4047, V-B:ALA:541:CB:9864, V-B:TYR:539:CE1:9847, V-B:TYR:539:C:9839, V-A:ASP:366:CG:3210, V-A:ASP:366:CB:3209, V-B:TYR:539:CZ:9849, H-A:ARG:545:NH2:4926, V-A:ARG:545:CD:4921, H-A:TYR:484:OH:4345, V-B:GLU:543:CB:9878, V-A:HIS:456:CE1:4066, V-A:ARG:545:CG:4920, V-A:ASP:366:CA:3207, H-A:ARG:545:NE:4922, V-A:TYR:484:CZ:4344, V-B:PRO:540:CB:9857, V-B:GLU:543:CG:9879, V-A:GLU:543:CB:4904, V-A:GLU:543:CG:4905, V-A:GLU:543:C:4900, V-B:HIS:456:CE1:9040, V-B:TYR:539:CG:9844, V-A:TYR:531:CE1:4790, H-A:ILE:455:N:4052, H-B:HIS:456:NE2:9041"]

$$$$
RR8_B_Rahimova_2017
     RDKit          3D

 42 46  0  0  0  0  0  0  0  0999 V2000
  131.0510  126.0490   56.5500 O   0  0  0  0  0  0  0  0  0  0  0  0
  130.4860  126.6610   57.4620 C   0  0  0  0  0  0  0  0  0  0  0  0
  129.9190  126.0680   58.5560 O   0  0  0  0  0  0  0  0  0  0  0  0
  130.3490  126.4780   59.8310 C   0  0  2  0  0  0  0  0  0  0  0  0
  131.7400  126.3970   59.9640 O   0  0  0  0  0  0  0  0  0  0  0  0
  132.1410  125.1320   60.4880 C   0  0  2  0  0  0  0  0  0  0  0  0
  133.1020  124.4480   59.4990 C   0  0  0  0  0  0  0  0  0  0  0  0
  132.8670  123.0460   59.5120 O   0  0  0  0  0  0  0  0  0  0  0  0
  133.3310  122.3720   60.6730 C   0  0  0  0  0  0  0  0  0  0  0  0
  132.6650  121.0070   60.7600 C   0  0  0  0  0  0  0  0  0  0  0  0
  131.3220  120.9120   61.1370 C   0  0  0  0  0  0  0  0  0  0  0  0
  130.7130  119.6640   61.2420 C   0  0  0  0  0  0  0  0  0  0  0  0
  131.4510  118.5140   60.9660 C   0  0  0  0  0  0  0  0  0  0  0  0
  132.7870  118.6010   60.5840 C   0  0  0  0  0  0  0  0  0  0  0  0
  133.3970  119.8490   60.4820 C   0  0  0  0  0  0  0  0  0  0  0  0
  130.8230  124.3920   60.7450 C   0  0  1  0  0  0  0  0  0  0  0  0
  130.9410  123.5830   61.9180 O   0  0  0  0  0  0  0  0  0  0  0  0
  130.2320  124.0160   63.0820 C   0  0  0  0  0  0  0  0  0  0  0  0
  131.1490  124.6830   64.1020 C   0  0  0  0  0  0  0  0  0  0  0  0
  130.6110  125.2540   65.2590 C   0  0  0  0  0  0  0  0  0  0  0  0
  131.4540  125.8340   66.2050 C   0  0  0  0  0  0  0  0  0  0  0  0
  132.8300  125.8440   65.9870 C   0  0  0  0  0  0  0  0  0  0  0  0
  133.3720  125.2810   64.8340 C   0  0  0  0  0  0  0  0  0  0  0  0
  132.5300  124.6980   63.8900 C   0  0  0  0  0  0  0  0  0  0  0  0
  129.8040  125.5170   60.8860 C   0  0  2  0  0  0  0  0  0  0  0  0
  128.4920  125.0370   60.6040 O   0  0  0  0  0  0  0  0  0  0  0  0
  128.3770  123.6340   60.4210 C   0  0  0  0  0  0  0  0  0  0  0  0
  127.8850  123.3780   59.0080 C   0  0  0  0  0  0  0  0  0  0  0  0
  126.5310  123.5290   58.6930 C   0  0  0  0  0  0  0  0  0  0  0  0
  126.0880  123.2720   57.3980 C   0  0  0  0  0  0  0  0  0  0  0  0
  126.9970  122.8650   56.4250 C   0  0  0  0  0  0  0  0  0  0  0  0
  128.3480  122.7130   56.7310 C   0  0  0  0  0  0  0  0  0  0  0  0
  128.7920  122.9710   58.0250 C   0  0  0  0  0  0  0  0  0  0  0  0
  130.3140  128.1530   57.4660 C   0  0  0  0  0  0  0  0  0  0  0  0
  129.1270  128.7620   57.0320 C   0  0  0  0  0  0  0  0  0  0  0  0
  128.9990  130.1460   57.0390 C   0  0  0  0  0  0  0  0  0  0  0  0
  130.0560  130.9580   57.4680 C   0  0  0  0  0  0  0  0  0  0  0  0
  129.9280  132.4360   57.4490 N   0  0  0  0  0  0  0  0  0  0  0  0
  130.6100  133.0760   56.6540 O   0  0  0  0  0  0  0  0  0  0  0  0
  129.1390  132.9680   58.2270 O   0  0  0  0  0  0  0  0  0  0  0  0
  131.2390  130.3490   57.9070 C   0  0  0  0  0  0  0  0  0  0  0  0
  131.3660  128.9640   57.9080 C   0  0  0  0  0  0  0  0  0  0  0  0
  1  2  2  0
  2  3  1  0
  4  3  1  6
  4  5  1  0
  5  6  1  0
  6  7  1  6
  7  8  1  0
  8  9  1  0
  9 10  1  0
 10 11  2  0
 11 12  1  0
 12 13  2  0
 13 14  1  0
 14 15  2  0
  6 16  1  0
 16 17  1  1
 17 18  1  0
 18 19  1  0
 19 20  2  0
 20 21  1  0
 21 22  2  0
 22 23  1  0
 23 24  2  0
 16 25  1  0
 25 26  1  6
 26 27  1  0
 27 28  1  0
 28 29  2  0
 29 30  1  0
 30 31  2  0
 31 32  1  0
 32 33  2  0
  2 34  1  0
 34 35  2  0
 35 36  1  0
 36 37  2  0
 37 38  1  0
 38 39  2  0
 38 40  1  0
 37 41  1  0
 41 42  2  0
 25  4  1  0
 33 28  1  0
 42 34  1  0
 15 10  1  0
 24 19  1  0
M  CHG  2  38   1  40  -1
M  END
>  <Binding energies>  (56) 
[-9.66]

>  <Ligand effiencies>  (56) 
[-0.23]

>  <Interactions>  (56) 
["V-A:LEU:373:CD1:3277, V-B:PRO:540:CA:9855, V-B:PRO:540:N:9856, V-A:LEU:475:CD2:4256, V-B:GLU:543:CD:9880, V-A:SER:385:CB:3406, V-A:ILE:369:CG2:3234, V-A:GLY:454:CA:4046, V-B:TYR:539:CD1:9845, V-A:ARG:545:CZ:4924, V-A:SER:385:CA:3404, V-B:ALA:541:CB:9864, V-B:TYR:539:CE1:9847, V-A:ASP:366:CG:3210, V-B:TYR:539:CE2:9848, V-A:ASP:366:CB:3209, V-A:MET:535:CE:4833, V-A:TYR:539:C:4865, V-A:PRO:540:N:4882, H-A:TYR:539:N:4868, V-B:TYR:539:CZ:9849, V-A:ARG:545:CD:4921, V-B:GLU:543:CB:9878, V-A:HIS:456:CE1:4066, V-A:ILE:369:CD1:3236, V-A:ARG:545:CG:4920, V-B:PRO:540:CB:9857, H-B:TYR:539:OH:9850, H-A:TYR:531:OH:4793, V-B:TYR:539:CG:9844, V-B:TYR:539:CD2:9846, V-B:ILE:538:CB:9834, V-B:ILE:538:CA:9832"]

$$$$
RR9_Rahimova_2017
     RDKit          3D

 36 40  0  0  0  0  0  0  0  0999 V2000
  127.2190  133.3270   62.7000 C   0  0  0  0  0  0  0  0  0  0  0  0
  127.0470  133.8510   61.2700 C   0  0  0  0  0  0  0  0  0  0  0  0
  128.1770  133.4540   60.4990 O   0  0  0  0  0  0  0  0  0  0  0  0
  128.7390  132.2100   60.7090 C   0  0  0  0  0  0  0  0  0  0  0  0
  127.9470  131.1070   60.3970 C   0  0  0  0  0  0  0  0  0  0  0  0
  128.4280  129.8140   60.5790 C   0  0  0  0  0  0  0  0  0  0  0  0
  129.7190  129.5880   61.0800 C   0  0  0  0  0  0  0  0  0  0  0  0
  130.2410  128.1960   61.2820 C   0  0  0  0  0  0  0  0  0  0  0  0
  130.4290  127.3170   60.2040 C   0  0  0  0  0  0  0  0  0  0  0  0
  130.9320  126.0180   60.3980 C   0  0  0  0  0  0  0  0  0  0  0  0
  131.2060  125.1590   59.1940 C   0  0  0  0  0  0  0  0  0  0  0  0
  132.1630  124.3840   59.1860 O   0  0  0  0  0  0  0  0  0  0  0  0
  130.3640  125.3220   58.1540 N   0  0  0  0  0  0  0  0  0  0  0  0
  130.5000  124.7010   56.8320 C   0  0  0  0  0  0  0  0  0  0  0  0
  129.4240  123.6260   56.5550 C   0  0  0  0  0  0  0  0  0  0  0  0
  128.3330  123.5280   57.6150 C   0  0  0  0  0  0  0  0  0  0  0  0
  128.6040  122.9270   58.8480 C   0  0  0  0  0  0  0  0  0  0  0  0
  127.6150  122.8700   59.8270 C   0  0  0  0  0  0  0  0  0  0  0  0
  126.3580  123.4110   59.5680 C   0  0  0  0  0  0  0  0  0  0  0  0
  126.0790  124.0080   58.3400 C   0  0  0  0  0  0  0  0  0  0  0  0
  127.0680  124.0660   57.3610 C   0  0  0  0  0  0  0  0  0  0  0  0
  131.2010  125.6420   61.7380 C   0  0  0  0  0  0  0  0  0  0  0  0
  131.6650  124.4880   62.4700 C   0  0  0  0  0  0  0  0  0  0  0  0
  131.9820  123.1150   61.9760 C   0  0  0  0  0  0  0  0  0  0  0  0
  133.3090  122.7400   61.7430 C   0  0  0  0  0  0  0  0  0  0  0  0
  133.6010  121.4640   61.2670 C   0  0  0  0  0  0  0  0  0  0  0  0
  132.5680  120.5580   61.0260 C   0  0  0  0  0  0  0  0  0  0  0  0
  132.8850  119.1730   60.4900 C   0  0  0  0  0  0  0  0  0  0  0  0
  131.2420  120.9290   61.2560 C   0  0  0  0  0  0  0  0  0  0  0  0
  130.9520  122.2030   61.7340 C   0  0  0  0  0  0  0  0  0  0  0  0
  131.7750  124.7680   63.7500 N   0  0  0  0  0  0  0  0  0  0  0  0
  131.3560  126.0300   63.9340 N   0  0  0  0  0  0  0  0  0  0  0  0
  130.9820  126.6110   62.7460 C   0  0  0  0  0  0  0  0  0  0  0  0
  130.5170  127.8470   62.5700 N   0  0  0  0  0  0  0  0  0  0  0  0
  130.5090  130.7030   61.3940 C   0  0  0  0  0  0  0  0  0  0  0  0
  130.0310  131.9980   61.2110 C   0  0  0  0  0  0  0  0  0  0  0  0
  1  2  1  0
  2  3  1  0
  3  4  1  0
  4  5  2  0
  5  6  1  0
  6  7  2  0
  7  8  1  0
  8  9  2  0
  9 10  1  0
 10 11  1  0
 11 12  2  0
 11 13  1  0
 13 14  1  0
 14 15  1  0
 15 16  1  0
 16 17  2  0
 17 18  1  0
 18 19  2  0
 19 20  1  0
 20 21  2  0
 10 22  2  0
 22 23  1  0
 23 24  1  0
 24 25  2  0
 25 26  1  0
 26 27  2  0
 27 28  1  0
 27 29  1  0
 29 30  2  0
 23 31  2  0
 31 32  1  0
 32 33  1  0
 33 34  2  0
  7 35  1  0
 35 36  2  0
 36  4  1  0
 34  8  1  0
 21 16  1  0
 33 22  1  0
 30 24  1  0
M  END
>  <Binding energies>  (57) 
[-7.64]

>  <Ligand effiencies>  (57) 
[-0.20105263157894737]

>  <Interactions>  (57) 
["V-A:LEU:373:CD1:3277, V-B:PRO:540:CA:9855, V-B:PRO:540:N:9856, V-A:LEU:475:CD2:4256, V-A:ILE:369:CG2:3234, V-B:TYR:539:CD1:9845, V-A:ARG:545:CZ:4924, V-A:SER:385:CA:3404, V-B:TYR:539:CE1:9847, V-B:TYR:539:C:9839, V-B:TYR:539:CE2:9848, V-B:MET:535:CE:9807, V-A:PRO:540:CA:4881, V-A:TYR:539:CE1:4873, V-B:TYR:539:CZ:9849, H-A:ARG:545:NH2:4926, V-A:TYR:539:CD1:4871, H-A:GLU:543:OE2:4908, V-A:ILE:369:CD1:3236, V-B:LEU:475:CD2:9230, V-A:ALA:541:CB:4890, V-B:PRO:540:CB:9857, H-B:TYR:539:OH:9850"]

$$$$
