1a_Grossjean_2025
     RDKit          3D

 26 27  0  0  0  0  0  0  0  0999 V2000
  128.5180  138.6120   61.7240 C   0  0  0  0  0  0  0  0  0  0  0  0
  127.0380  138.3820   62.0420 C   0  0  0  0  0  0  0  0  0  0  0  0
  126.3780  137.8750   60.8890 O   0  0  0  0  0  0  0  0  0  0  0  0
  125.3300  137.0190   61.0010 C   0  0  0  0  0  0  0  0  0  0  0  0
  124.1530  137.3630   60.8570 O   0  0  0  0  0  0  0  0  0  0  0  0
  125.7430  135.6140   61.3330 C   0  0  0  0  0  0  0  0  0  0  0  0
  127.1030  135.2780   61.3100 C   0  0  0  0  0  0  0  0  0  0  0  0
  127.5180  133.9840   61.6090 C   0  0  0  0  0  0  0  0  0  0  0  0
  126.5850  132.9990   61.9360 C   0  0  0  0  0  0  0  0  0  0  0  0
  127.1160  131.7250   62.2180 N   0  0  0  0  0  0  0  0  0  0  0  0
  127.6990  131.2570   63.3410 C   0  0  0  0  0  0  0  0  0  0  0  0
  127.8770  131.9000   64.3760 O   0  0  0  0  0  0  0  0  0  0  0  0
  128.1630  129.8000   63.2810 C   0  0  0  0  0  0  0  0  0  0  0  0
  126.7790  128.6500   63.0240 S   0  0  0  0  0  0  0  0  0  0  0  0
  125.5620  129.4900   62.0350 C   0  0  0  0  0  0  0  0  0  0  0  0
  125.8320  129.4740   60.7050 N   0  0  0  0  0  0  0  0  0  0  0  0
  124.9720  130.0890   59.8600 C   0  0  0  0  0  0  0  0  0  0  0  0
  125.3450  130.0410   58.3900 C   0  0  0  0  0  0  0  0  0  0  0  0
  123.8160  130.7310   60.2980 C   0  0  0  0  0  0  0  0  0  0  0  0
  123.5180  130.7360   61.6650 C   0  0  0  0  0  0  0  0  0  0  0  0
  122.2370  131.4320   62.1200 C   0  0  0  0  0  0  0  0  0  0  0  0
  124.3990  130.0960   62.5670 C   0  0  0  0  0  0  0  0  0  0  0  0
  124.0830  130.0460   63.9970 C   0  0  0  0  0  0  0  0  0  0  0  0
  123.8310  130.0080   65.1250 N   0  0  0  0  0  0  0  0  0  0  0  0
  125.2210  133.3280   61.9700 C   0  0  0  0  0  0  0  0  0  0  0  0
  124.8080  134.6230   61.6700 C   0  0  0  0  0  0  0  0  0  0  0  0
  1  2  1  0
  2  3  1  0
  3  4  1  0
  4  5  2  0
  4  6  1  0
  6  7  2  0
  7  8  1  0
  8  9  2  0
  9 10  1  0
 10 11  1  0
 11 12  2  0
 11 13  1  0
 13 14  1  0
 14 15  1  0
 15 16  2  0
 16 17  1  0
 17 18  1  0
 17 19  2  0
 19 20  1  0
 20 21  1  0
 20 22  2  0
 22 23  1  0
 23 24  3  0
  9 25  1  0
 25 26  2  0
 26  6  1  0
 22 15  1  0
M  END
>  <Binding energies>  (1) 
[-7.69]

>  <Ligand effiencies>  (1) 
[-0.28481481481481485]

>  <Interactions>  (1) 
["H-B:TYR:484:OH:9319, V-B:ARG:545:CZ:9898, V-A:GLU:543:CD:4908, V-B:LEU:475:CD2:9230, V-B:ILE:369:CG2:8208, V-B:GLY:454:CA:9020, V-B:ASP:366:CB:8183, V-B:ASP:366:CA:8181, V-B:ILE:369:CB:8207, V-A:TYR:539:CE1:4875, V-B:ASP:366:CG:8184, V-A:TYR:539:CD1:4873, V-A:VAL:344:CG1:3001, V-A:TYR:539:C:4867, V-B:PRO:482:CB:9297, H-B:HIS:383:NE2:8365, V-B:HIS:383:CE1:8364, H-B:ARG:545:NH2:9900, H-B:GLY:454:N:9021, V-B:ILE:369:CG1:8209, H-B:ARG:545:NE:9896, V-B:GLY:453:C:9013, V-B:HIS:383:CD2:8363, V-B:PRO:482:CG:9298, V-B:LEU:475:CG:9228, V-B:GLY:453:CA:9015"]

$$$$
1aa_Ghoteimi_2023
     RDKit          3D

 40 43  0  0  0  0  0  0  0  0999 V2000
  131.3430  131.8280   55.4600 C   0  0  0  0  0  0  0  0  0  0  0  0
  131.9040  132.4160   56.7580 C   0  0  0  0  0  0  0  0  0  0  0  0
  131.0360  133.4400   57.2280 O   0  0  0  0  0  0  0  0  0  0  0  0
  129.7580  133.1640   57.5920 C   0  0  0  0  0  0  0  0  0  0  0  0
  128.7830  133.3740   56.8640 O   0  0  0  0  0  0  0  0  0  0  0  0
  129.6460  132.5760   58.9690 C   0  0  0  0  0  0  0  0  0  0  0  0
  130.2640  131.3630   59.3110 C   0  0  0  0  0  0  0  0  0  0  0  0
  130.1430  130.8430   60.5980 C   0  0  0  0  0  0  0  0  0  0  0  0
  129.4010  131.5310   61.5690 C   0  0  0  0  0  0  0  0  0  0  0  0
  129.2100  131.1030   62.8960 N   0  0  0  0  0  0  0  0  0  0  0  0
  128.1000  131.1150   63.6700 C   0  0  0  0  0  0  0  0  0  0  0  0
  126.9970  131.5280   63.3110 O   0  0  0  0  0  0  0  0  0  0  0  0
  128.2340  130.5700   65.1010 C   0  0  0  0  0  0  0  0  0  0  0  0
  127.6420  129.2690   65.1990 O   0  0  0  0  0  0  0  0  0  0  0  0
  128.3100  128.2410   65.8500 C   0  0  0  0  0  0  0  0  0  0  0  0
  128.2510  128.2000   67.2100 N   0  0  0  0  0  0  0  0  0  0  0  0
  128.9040  127.2170   67.8850 C   0  0  0  0  0  0  0  0  0  0  0  0
  128.7890  127.2400   69.3820 C   0  0  0  0  0  0  0  0  0  0  0  0
  129.9050  127.5120   70.1880 C   0  0  0  0  0  0  0  0  0  0  0  0
  129.8000  127.5320   71.5760 C   0  0  0  0  0  0  0  0  0  0  0  0
  128.5810  127.2830   72.2010 C   0  0  0  0  0  0  0  0  0  0  0  0
  128.5730  127.3230   73.5820 O   0  0  0  0  0  0  0  0  0  0  0  0
  128.0940  128.4910   74.2400 C   0  0  0  0  0  0  0  0  0  0  0  0
  127.4560  127.0160   71.4090 C   0  0  0  0  0  0  0  0  0  0  0  0
  127.5620  126.9970   70.0210 C   0  0  0  0  0  0  0  0  0  0  0  0
  129.6220  126.2330   67.1940 C   0  0  0  0  0  0  0  0  0  0  0  0
  129.6880  126.2460   65.7940 C   0  0  0  0  0  0  0  0  0  0  0  0
  130.4610  125.1630   65.1160 C   0  0  0  0  0  0  0  0  0  0  0  0
  131.8100  125.3530   64.8000 C   0  0  0  0  0  0  0  0  0  0  0  0
  132.5390  124.3440   64.1770 C   0  0  0  0  0  0  0  0  0  0  0  0
  131.9400  123.1250   63.8630 C   0  0  0  0  0  0  0  0  0  0  0  0
  132.7400  122.1840   63.2460 O   0  0  0  0  0  0  0  0  0  0  0  0
  133.6960  122.6100   62.2820 C   0  0  0  0  0  0  0  0  0  0  0  0
  130.5880  122.9270   64.1860 C   0  0  0  0  0  0  0  0  0  0  0  0
  129.8600  123.9380   64.8080 C   0  0  0  0  0  0  0  0  0  0  0  0
  129.0200  127.2850   65.1050 C   0  0  0  0  0  0  0  0  0  0  0  0
  129.0700  127.4070   63.6470 C   0  0  0  0  0  0  0  0  0  0  0  0
  129.1080  127.5040   62.4950 N   0  0  0  0  0  0  0  0  0  0  0  0
  128.7840  132.7370   61.2310 C   0  0  0  0  0  0  0  0  0  0  0  0
  128.9050  133.2550   59.9460 C   0  0  0  0  0  0  0  0  0  0  0  0
  1  2  1  0
  2  3  1  0
  3  4  1  0
  4  5  2  0
  4  6  1  0
  6  7  2  0
  7  8  1  0
  8  9  2  0
  9 10  1  0
 10 11  1  0
 11 12  2  0
 11 13  1  0
 13 14  1  0
 14 15  1  0
 15 16  2  0
 16 17  1  0
 17 18  1  0
 18 19  2  0
 19 20  1  0
 20 21  2  0
 21 22  1  0
 22 23  1  0
 21 24  1  0
 24 25  2  0
 17 26  2  0
 26 27  1  0
 27 28  1  0
 28 29  2  0
 29 30  1  0
 30 31  2  0
 31 32  1  0
 32 33  1  0
 31 34  1  0
 34 35  2  0
 27 36  2  0
 36 37  1  0
 37 38  3  0
  9 39  1  0
 39 40  2  0
 40  6  1  0
 36 15  1  0
 25 18  1  0
 35 28  1  0
M  END
>  <Binding energies>  (2) 
[-9.67]

>  <Ligand effiencies>  (2) 
[-0.23585365853658535]

>  <Interactions>  (2) 
["V-B:GLU:543:CG:9879, H-B:TYR:484:OH:9319, V-A:GLU:543:CG:4907, V-B:TYR:484:CZ:9318, V-B:GLU:543:CD:9880, H-B:LYS:547:NZ:9923, V-A:GLU:543:CD:4908, V-B:GLU:543:C:9874, V-A:TYR:484:CE2:4346, V-B:GLU:543:CB:9878, V-B:HIS:456:CE1:9041, V-A:HIS:456:CE1:4070, V-B:TYR:484:CE2:9317, V-A:ARG:545:CZ:4926, V-A:LEU:475:CD2:4259, V-A:ILE:538:CB:4862, H-A:TYR:539:N:4870, V-A:MET:535:CE:4835, V-A:LEU:363:CD1:3189, V-A:TYR:539:CD1:4873, V-A:ILE:538:CG2:4863, V-A:TYR:539:C:4867, V-A:PRO:540:N:4884, V-A:PRO:540:CA:4883, V-A:PRO:540:CB:4885, V-A:TYR:539:CA:4869, V-A:MET:535:CG:4833, H-A:GLU:543:OE1:4909, V-B:HIS:456:CD2:9039, V-A:ILE:369:CD1:3239, V-B:GLY:544:C:9884, V-A:GLY:454:CA:4049, V-B:GLY:544:CA:9886"]

$$$$
1b_Grossjean_2025
     RDKit          3D

 25 26  0  0  0  0  0  0  0  0999 V2000
  127.3960  138.4800   62.1040 C   0  0  0  0  0  0  0  0  0  0  0  0
  126.7870  137.9010   60.9570 O   0  0  0  0  0  0  0  0  0  0  0  0
  125.7400  137.0460   61.0800 C   0  0  0  0  0  0  0  0  0  0  0  0
  124.5610  137.3910   60.9500 O   0  0  0  0  0  0  0  0  0  0  0  0
  126.1570  135.6350   61.3830 C   0  0  0  0  0  0  0  0  0  0  0  0
  127.4760  135.3110   61.7360 C   0  0  0  0  0  0  0  0  0  0  0  0
  127.8300  133.9930   62.0090 C   0  0  0  0  0  0  0  0  0  0  0  0
  126.8800  132.9750   61.9380 C   0  0  0  0  0  0  0  0  0  0  0  0
  127.3500  131.6810   62.2340 N   0  0  0  0  0  0  0  0  0  0  0  0
  127.8000  131.1630   63.3970 C   0  0  0  0  0  0  0  0  0  0  0  0
  127.8750  131.7660   64.4670 O   0  0  0  0  0  0  0  0  0  0  0  0
  128.2310  129.6970   63.3390 C   0  0  0  0  0  0  0  0  0  0  0  0
  126.8260  128.5800   63.0430 S   0  0  0  0  0  0  0  0  0  0  0  0
  125.6440  129.4670   62.0510 C   0  0  0  0  0  0  0  0  0  0  0  0
  125.9890  129.5590   60.7420 N   0  0  0  0  0  0  0  0  0  0  0  0
  125.1590  130.2130   59.8960 C   0  0  0  0  0  0  0  0  0  0  0  0
  125.6030  130.2640   58.4450 C   0  0  0  0  0  0  0  0  0  0  0  0
  123.9690  130.8030   60.3160 C   0  0  0  0  0  0  0  0  0  0  0  0
  123.6160  130.7320   61.6670 C   0  0  0  0  0  0  0  0  0  0  0  0
  122.3150  131.4010   62.1070 C   0  0  0  0  0  0  0  0  0  0  0  0
  124.4670  130.0550   62.5700 C   0  0  0  0  0  0  0  0  0  0  0  0
  124.1390  130.0050   63.9970 C   0  0  0  0  0  0  0  0  0  0  0  0
  123.8770  129.9680   65.1230 N   0  0  0  0  0  0  0  0  0  0  0  0
  125.5590  133.2910   61.5870 C   0  0  0  0  0  0  0  0  0  0  0  0
  125.2050  134.6090   61.3140 C   0  0  0  0  0  0  0  0  0  0  0  0
  1  2  1  0
  2  3  1  0
  3  4  2  0
  3  5  1  0
  5  6  2  0
  6  7  1  0
  7  8  2  0
  8  9  1  0
  9 10  1  0
 10 11  2  0
 10 12  1  0
 12 13  1  0
 13 14  1  0
 14 15  2  0
 15 16  1  0
 16 17  1  0
 16 18  2  0
 18 19  1  0
 19 20  1  0
 19 21  2  0
 21 22  1  0
 22 23  3  0
  8 24  1  0
 24 25  2  0
 25  5  1  0
 21 14  1  0
M  END
>  <Binding energies>  (3) 
[-7.29]

>  <Ligand effiencies>  (3) 
[-0.2803846153846154]

>  <Interactions>  (3) 
["H-B:TYR:484:OH:9319, V-B:ARG:545:CZ:9898, V-A:GLU:543:CD:4908, V-A:ALA:541:CB:4892, V-B:LEU:475:CD2:9230, V-B:GLY:454:CA:9020, V-B:ASP:366:CB:8183, V-B:ASP:366:CA:8181, V-B:ILE:369:CB:8207, V-A:TYR:539:CE1:4875, V-B:ASP:366:CG:8184, V-A:TYR:539:CD1:4873, V-A:TYR:539:C:4867, V-B:PRO:482:CB:9297, H-B:HIS:383:NE2:8365, V-B:HIS:383:CE1:8364, H-B:ARG:545:NH2:9900, H-B:GLY:454:N:9021, V-B:ILE:369:CG1:8209, H-B:ARG:545:NE:9896, V-B:GLY:453:C:9013, V-B:LEU:475:CG:9228, V-B:GLY:453:CA:9015"]

$$$$
1c_Grossjean_2025
     RDKit          3D

 23 24  0  0  0  0  0  0  0  0999 V2000
  131.3210  132.0820   55.4720 C   0  0  0  0  0  0  0  0  0  0  0  0
  130.6910  133.1480   56.1740 O   0  0  0  0  0  0  0  0  0  0  0  0
  130.2590  132.9380   57.4700 C   0  0  0  0  0  0  0  0  0  0  0  0
  131.1290  132.2430   58.3110 C   0  0  0  0  0  0  0  0  0  0  0  0
  130.7840  131.9840   59.6340 C   0  0  0  0  0  0  0  0  0  0  0  0
  129.5520  132.4290   60.1380 C   0  0  0  0  0  0  0  0  0  0  0  0
  129.0990  132.2120   61.4540 N   0  0  0  0  0  0  0  0  0  0  0  0
  129.8070  132.1240   62.6000 C   0  0  0  0  0  0  0  0  0  0  0  0
  131.0290  132.2420   62.6960 O   0  0  0  0  0  0  0  0  0  0  0  0
  128.9820  131.8640   63.8620 C   0  0  0  0  0  0  0  0  0  0  0  0
  127.4320  130.9910   63.4890 S   0  0  0  0  0  0  0  0  0  0  0  0
  126.2490  132.1780   62.8860 C   0  0  0  0  0  0  0  0  0  0  0  0
  126.8210  133.2940   62.3670 N   0  0  0  0  0  0  0  0  0  0  0  0
  126.0200  134.2690   61.8770 C   0  0  0  0  0  0  0  0  0  0  0  0
  126.7320  135.4800   61.3040 C   0  0  0  0  0  0  0  0  0  0  0  0
  124.6310  134.1790   61.8930 C   0  0  0  0  0  0  0  0  0  0  0  0
  124.0300  133.0450   62.4480 C   0  0  0  0  0  0  0  0  0  0  0  0
  122.5040  132.9770   62.4710 C   0  0  0  0  0  0  0  0  0  0  0  0
  124.8460  132.0140   62.9680 C   0  0  0  0  0  0  0  0  0  0  0  0
  124.2350  130.8430   63.6030 C   0  0  0  0  0  0  0  0  0  0  0  0
  123.7510  129.9190   64.1030 N   0  0  0  0  0  0  0  0  0  0  0  0
  128.6740  133.1140   59.2960 C   0  0  0  0  0  0  0  0  0  0  0  0
  129.0230  133.3710   57.9730 C   0  0  0  0  0  0  0  0  0  0  0  0
  1  2  1  0
  2  3  1  0
  3  4  2  0
  4  5  1  0
  5  6  2  0
  6  7  1  0
  7  8  1  0
  8  9  2  0
  8 10  1  0
 10 11  1  0
 11 12  1  0
 12 13  2  0
 13 14  1  0
 14 15  1  0
 14 16  2  0
 16 17  1  0
 17 18  1  0
 17 19  2  0
 19 20  1  0
 20 21  3  0
  6 22  1  0
 22 23  2  0
 23  3  1  0
 19 12  1  0
M  END
>  <Binding energies>  (4) 
[-7.17]

>  <Ligand effiencies>  (4) 
[-0.29875]

>  <Interactions>  (4) 
["H-B:TYR:484:OH:9319, V-A:GLU:543:CG:4907, V-A:GLU:543:CD:4908, V-A:ALA:541:CB:4892, V-B:LEU:475:CD2:9230, V-A:ILE:538:CB:4862, V-B:ILE:369:CG2:8208, V-A:TYR:539:CG:4872, V-B:GLY:454:CA:9020, H-A:TYR:539:N:4870, V-A:MET:535:CE:4835, V-B:ILE:369:CB:8207, V-A:TYR:539:CE1:4875, V-A:TYR:539:CD1:4873, V-A:ILE:538:CG2:4863, H-A:ALA:541:N:4891, V-A:TYR:539:C:4867, V-A:PRO:540:N:4884, V-A:PRO:540:CA:4883, V-A:PRO:540:CB:4885, V-A:PRO:540:CD:4887, V-A:TYR:539:CA:4869, H-B:ARG:545:NH1:9899, H-B:ARG:545:NH2:9900, H-B:GLY:454:N:9021, V-B:ILE:369:CG1:8209, H-B:ARG:545:NE:9896, V-B:GLY:453:C:9013, V-B:ILE:369:CD1:8210"]

$$$$
1d_Grossjean_2025
     RDKit          3D

 21 22  0  0  0  0  0  0  0  0999 V2000
  127.1410  127.7410   59.3220 C   0  0  0  0  0  0  0  0  0  0  0  0
  126.9570  126.4550   58.5400 C   0  0  0  0  0  0  0  0  0  0  0  0
  127.8430  126.0810   57.5320 C   0  0  0  0  0  0  0  0  0  0  0  0
  127.6300  124.8780   56.8510 C   0  0  0  0  0  0  0  0  0  0  0  0
  128.6240  124.4810   55.7610 C   0  0  0  0  0  0  0  0  0  0  0  0
  126.5160  124.0770   57.1940 C   0  0  0  0  0  0  0  0  0  0  0  0
  126.3000  122.7910   56.5280 C   0  0  0  0  0  0  0  0  0  0  0  0
  126.1320  121.7750   55.9990 N   0  0  0  0  0  0  0  0  0  0  0  0
  125.6550  124.5470   58.2130 C   0  0  0  0  0  0  0  0  0  0  0  0
  124.2110  123.6710   58.7710 S   0  0  0  0  0  0  0  0  0  0  0  0
  124.0310  123.9980   60.5510 C   0  0  0  0  0  0  0  0  0  0  0  0
  125.1310  123.3270   61.3740 C   0  0  0  0  0  0  0  0  0  0  0  0
  124.8280  122.7250   62.4050 O   0  0  0  0  0  0  0  0  0  0  0  0
  126.3790  123.4370   60.8690 N   0  0  0  0  0  0  0  0  0  0  0  0
  127.6020  122.9600   61.3760 C   0  0  0  0  0  0  0  0  0  0  0  0
  128.4760  122.4110   60.4330 C   0  0  0  0  0  0  0  0  0  0  0  0
  129.7150  121.9150   60.8270 C   0  0  0  0  0  0  0  0  0  0  0  0
  130.0860  121.9730   62.1680 C   0  0  0  0  0  0  0  0  0  0  0  0
  129.2290  122.5250   63.1170 C   0  0  0  0  0  0  0  0  0  0  0  0
  127.9890  123.0210   62.7260 C   0  0  0  0  0  0  0  0  0  0  0  0
  125.8830  125.7050   58.8830 N   0  0  0  0  0  0  0  0  0  0  0  0
  1  2  1  0
  2  3  2  0
  3  4  1  0
  4  5  1  0
  4  6  2  0
  6  7  1  0
  7  8  3  0
  6  9  1  0
  9 10  1  0
 10 11  1  0
 11 12  1  0
 12 13  2  0
 12 14  1  0
 14 15  1  0
 15 16  2  0
 16 17  1  0
 17 18  2  0
 18 19  1  0
 19 20  2  0
  9 21  2  0
 21  2  1  0
 20 15  1  0
M  END
>  <Binding energies>  (5) 
[-6.85]

>  <Ligand effiencies>  (5) 
[-0.31136363636363634]

>  <Interactions>  (5) 
["V-B:GLU:543:CG:9879, V-B:GLU:543:CD:9880, V-B:ALA:541:CB:9864, V-A:LEU:475:CD2:4259, V-B:ASP:366:CG:8184, V-B:PRO:540:N:9856, V-B:PRO:540:CA:9855, V-B:PRO:540:CB:9857, V-B:TYR:539:C:9839, V-B:PRO:540:CD:9859, V-B:TYR:539:CE1:9847, V-B:LEU:363:CA:8156, H-B:TYR:539:N:9842, V-B:ASN:362:CB:8147, V-B:ASN:362:C:8143, V-B:TYR:539:CE2:9848, V-B:PRO:540:C:9853, V-B:TYR:539:CD2:9846, V-B:TYR:539:CZ:9849, V-B:MET:535:CE:9807, H-B:ALA:541:N:9863"]

$$$$
1e_Grossjean_2025
     RDKit          3D

 22 23  0  0  0  0  0  0  0  0999 V2000
  132.7410  131.1740   57.9760 C   0  0  0  0  0  0  0  0  0  0  0  0
  131.4050  131.8230   58.2830 C   0  0  0  0  0  0  0  0  0  0  0  0
  130.6470  132.4430   57.2860 C   0  0  0  0  0  0  0  0  0  0  0  0
  129.4290  133.0210   57.6430 C   0  0  0  0  0  0  0  0  0  0  0  0
  129.0020  132.9680   58.9710 C   0  0  0  0  0  0  0  0  0  0  0  0
  129.8080  132.3270   59.9190 C   0  0  0  0  0  0  0  0  0  0  0  0
  129.3310  132.3160   61.2420 N   0  0  0  0  0  0  0  0  0  0  0  0
  130.0400  132.2630   62.3910 C   0  0  0  0  0  0  0  0  0  0  0  0
  131.2690  132.2020   62.4610 O   0  0  0  0  0  0  0  0  0  0  0  0
  129.2180  132.2500   63.6810 C   0  0  0  0  0  0  0  0  0  0  0  0
  127.6800  131.2970   63.4980 S   0  0  0  0  0  0  0  0  0  0  0  0
  126.4170  132.3730   62.8470 C   0  0  0  0  0  0  0  0  0  0  0  0
  126.9110  133.5010   62.2770 N   0  0  0  0  0  0  0  0  0  0  0  0
  126.0460  134.3980   61.7480 C   0  0  0  0  0  0  0  0  0  0  0  0
  126.6710  135.6300   61.1220 C   0  0  0  0  0  0  0  0  0  0  0  0
  124.6650  134.2160   61.7770 C   0  0  0  0  0  0  0  0  0  0  0  0
  124.1430  133.0690   62.3830 C   0  0  0  0  0  0  0  0  0  0  0  0
  122.6240  132.9020   62.4170 C   0  0  0  0  0  0  0  0  0  0  0  0
  125.0270  132.1200   62.9450 C   0  0  0  0  0  0  0  0  0  0  0  0
  124.4950  130.9430   63.6350 C   0  0  0  0  0  0  0  0  0  0  0  0
  124.0730  130.0140   64.1810 N   0  0  0  0  0  0  0  0  0  0  0  0
  131.0030  131.7620   59.5770 N   0  0  0  0  0  0  0  0  0  0  0  0
  1  2  1  0
  2  3  2  0
  3  4  1  0
  4  5  2  0
  5  6  1  0
  6  7  1  0
  7  8  1  0
  8  9  2  0
  8 10  1  0
 10 11  1  0
 11 12  1  0
 12 13  2  0
 13 14  1  0
 14 15  1  0
 14 16  2  0
 16 17  1  0
 17 18  1  0
 17 19  2  0
 19 20  1  0
 20 21  3  0
  6 22  2  0
 22  2  1  0
 19 12  1  0
M  END
>  <Binding energies>  (6) 
[-6.99]

>  <Ligand effiencies>  (6) 
[-0.30391304347826087]

>  <Interactions>  (6) 
["H-B:TYR:484:OH:9319, V-A:GLU:543:CG:4907, V-A:GLU:543:CD:4908, V-A:ALA:541:CB:4892, V-B:LEU:475:CD2:9230, V-B:ILE:369:CG2:8208, V-B:GLY:454:CA:9020, V-A:LEU:363:CD1:3189, V-B:ILE:369:CB:8207, V-A:TYR:539:CE1:4875, V-A:TYR:539:CD1:4873, V-A:ALA:541:CA:4890, H-A:ALA:541:N:4891, V-A:TYR:539:C:4867, V-A:PRO:540:N:4884, V-A:PRO:540:CA:4883, V-A:PRO:540:CB:4885, H-B:ARG:545:NH2:9900, H-B:GLY:454:N:9021, V-B:ILE:369:CG1:8209, H-B:ARG:545:NE:9896, V-B:GLY:453:C:9013, V-B:ILE:369:CD1:8210"]

$$$$
1f_Grossjean_2025
     RDKit          3D

 21 22  0  0  0  0  0  0  0  0999 V2000
  125.1540  130.6090   60.0340 C   0  0  0  0  0  0  0  0  0  0  0  0
  126.3450  131.2460   59.3420 C   0  0  0  0  0  0  0  0  0  0  0  0
  126.3560  131.4700   57.9680 C   0  0  0  0  0  0  0  0  0  0  0  0
  127.4870  132.0490   57.3840 C   0  0  0  0  0  0  0  0  0  0  0  0
  127.4830  132.2680   55.8720 C   0  0  0  0  0  0  0  0  0  0  0  0
  128.5850  132.4010   58.2020 C   0  0  0  0  0  0  0  0  0  0  0  0
  129.8000  132.9570   57.6000 C   0  0  0  0  0  0  0  0  0  0  0  0
  130.7580  133.3970   57.1240 N   0  0  0  0  0  0  0  0  0  0  0  0
  128.4760  132.1630   59.5920 C   0  0  0  0  0  0  0  0  0  0  0  0
  129.7530  132.5390   60.7760 S   0  0  0  0  0  0  0  0  0  0  0  0
  128.9810  132.7160   62.4200 C   0  0  0  0  0  0  0  0  0  0  0  0
  127.6040  133.3990   62.4180 C   0  0  0  0  0  0  0  0  0  0  0  0
  126.6820  132.9470   63.0980 O   0  0  0  0  0  0  0  0  0  0  0  0
  127.5130  134.4760   61.6100 N   0  0  0  0  0  0  0  0  0  0  0  0
  126.4210  135.3320   61.3720 C   0  0  0  0  0  0  0  0  0  0  0  0
  125.0920  134.9230   61.1530 C   0  0  0  0  0  0  0  0  0  0  0  0
  124.1010  135.8830   60.9330 C   0  0  0  0  0  0  0  0  0  0  0  0
  124.4620  137.2310   60.9410 C   0  0  0  0  0  0  0  0  0  0  0  0
  125.7340  137.6510   61.1550 N   0  0  0  0  0  0  0  0  0  0  0  0
  126.6860  136.7060   61.3670 C   0  0  0  0  0  0  0  0  0  0  0  0
  127.3830  131.5780   60.1450 N   0  0  0  0  0  0  0  0  0  0  0  0
  1  2  1  0
  2  3  2  0
  3  4  1  0
  4  5  1  0
  4  6  2  0
  6  7  1  0
  7  8  3  0
  6  9  1  0
  9 10  1  0
 10 11  1  0
 11 12  1  0
 12 13  2  0
 12 14  1  0
 14 15  1  0
 15 16  2  0
 16 17  1  0
 17 18  2  0
 18 19  1  0
 19 20  2  0
  9 21  2  0
 21  2  1  0
 20 15  1  0
M  END
>  <Binding energies>  (7) 
[-7.09]

>  <Ligand effiencies>  (7) 
[-0.32227272727272727]

>  <Interactions>  (7) 
["V-A:ALA:541:CB:4892, V-B:LEU:475:CD2:9230, V-B:ILE:369:CG2:8208, H-A:TYR:539:N:4870, V-A:MET:535:CE:4835, V-A:TYR:539:CE1:4875, V-B:ASP:366:CG:8184, V-A:TYR:539:CD1:4873, V-A:TYR:539:CE2:4876, V-A:TYR:539:CZ:4877, H-A:ALA:541:N:4891, V-A:TYR:539:C:4867, H-A:TYR:539:O:4868, V-A:PRO:540:N:4884, H-B:HIS:383:NE2:8365, V-A:PRO:540:CA:4883, V-B:SER:385:CB:8380, V-B:LEU:373:CD1:8251, V-B:HIS:383:CD2:8363, V-B:SER:385:CA:8378"]

$$$$
1g_Grossjean_2025
     RDKit          3D

 22 23  0  0  0  0  0  0  0  0999 V2000
  125.0360  131.1500   58.1600 C   0  0  0  0  0  0  0  0  0  0  0  0
  124.7380  130.8520   59.6170 C   0  0  0  0  0  0  0  0  0  0  0  0
  123.4870  131.1110   60.1740 C   0  0  0  0  0  0  0  0  0  0  0  0
  123.2750  130.8310   61.5280 C   0  0  0  0  0  0  0  0  0  0  0  0
  121.8990  131.1360   62.1190 C   0  0  0  0  0  0  0  0  0  0  0  0
  124.3290  130.2860   62.2950 C   0  0  0  0  0  0  0  0  0  0  0  0
  124.1460  130.0330   63.7270 C   0  0  0  0  0  0  0  0  0  0  0  0
  123.9990  129.8360   64.8580 N   0  0  0  0  0  0  0  0  0  0  0  0
  125.5580  130.0320   61.6410 C   0  0  0  0  0  0  0  0  0  0  0  0
  126.9840  129.3420   62.4500 S   0  0  0  0  0  0  0  0  0  0  0  0
  127.3010  130.3450   63.9330 C   0  0  0  0  0  0  0  0  0  0  0  0
  127.5550  131.8130   63.5890 C   0  0  0  0  0  0  0  0  0  0  0  0
  127.8800  132.6070   64.4730 O   0  0  0  0  0  0  0  0  0  0  0  0
  127.3950  132.1580   62.2990 N   0  0  0  0  0  0  0  0  0  0  0  0
  127.6400  133.4870   61.7400 C   0  0  0  0  0  0  0  0  0  0  0  0
  126.3940  134.3580   61.6220 C   0  0  0  0  0  0  0  0  0  0  0  0
  126.5210  135.7280   61.3690 C   0  0  0  0  0  0  0  0  0  0  0  0
  125.3830  136.5230   61.2610 C   0  0  0  0  0  0  0  0  0  0  0  0
  124.1220  135.9460   61.4020 C   0  0  0  0  0  0  0  0  0  0  0  0
  123.9890  134.5820   61.6500 C   0  0  0  0  0  0  0  0  0  0  0  0
  125.1260  133.7860   61.7590 C   0  0  0  0  0  0  0  0  0  0  0  0
  125.7620  130.3290   60.3320 N   0  0  0  0  0  0  0  0  0  0  0  0
  1  2  1  0
  2  3  2  0
  3  4  1  0
  4  5  1  0
  4  6  2  0
  6  7  1  0
  7  8  3  0
  6  9  1  0
  9 10  1  0
 10 11  1  0
 11 12  1  0
 12 13  2  0
 12 14  1  0
 14 15  1  0
 15 16  1  0
 16 17  2  0
 17 18  1  0
 18 19  2  0
 19 20  1  0
 20 21  2  0
  9 22  2  0
 22  2  1  0
 21 16  1  0
M  END
>  <Binding energies>  (8) 
[-6.63]

>  <Ligand effiencies>  (8) 
[-0.2882608695652174]

>  <Interactions>  (8) 
["H-B:TYR:484:OH:9319, V-B:ARG:545:CZ:9898, V-B:LEU:475:CD2:9230, V-B:ILE:369:CG2:8208, V-B:ASP:366:CB:8183, V-B:ASP:366:CA:8181, V-B:ILE:369:CB:8207, V-A:TYR:539:CE1:4875, V-B:ASP:366:CG:8184, V-A:TYR:539:CD1:4873, V-A:TYR:539:CZ:4877, V-B:SER:385:CB:8380, H-B:ARG:545:NH2:9900, H-B:GLY:454:N:9021, V-B:ILE:369:CG1:8209, H-B:ARG:545:NE:9896, V-B:GLY:453:C:9013, V-B:SER:385:CA:8378, V-B:GLY:453:CA:9015"]

$$$$
1h_Grossjean_2025
     RDKit          3D

 28 29  0  0  0  0  0  0  0  0999 V2000
  133.3310  131.5010   61.2800 C   0  0  0  0  0  0  0  0  0  0  0  0
  132.6710  131.2880   60.0370 O   0  0  0  0  0  0  0  0  0  0  0  0
  131.4340  131.8660   59.8180 C   0  0  0  0  0  0  0  0  0  0  0  0
  130.4550  132.0250   60.8120 C   0  0  0  0  0  0  0  0  0  0  0  0
  129.2220  132.6060   60.5140 C   0  0  0  0  0  0  0  0  0  0  0  0
  128.1760  132.7940   61.6090 C   0  0  0  0  0  0  0  0  0  0  0  0
  127.7710  131.5510   62.2650 N   0  0  0  0  0  0  0  0  0  0  0  0
  127.8220  131.3170   63.5890 C   0  0  0  0  0  0  0  0  0  0  0  0
  128.1980  132.1490   64.4140 O   0  0  0  0  0  0  0  0  0  0  0  0
  127.3870  129.9270   64.0530 C   0  0  0  0  0  0  0  0  0  0  0  0
  126.8580  128.8800   62.6630 S   0  0  0  0  0  0  0  0  0  0  0  0
  125.6120  129.7690   61.7440 C   0  0  0  0  0  0  0  0  0  0  0  0
  125.8730  129.9550   60.4230 N   0  0  0  0  0  0  0  0  0  0  0  0
  124.9680  130.6170   59.6670 C   0  0  0  0  0  0  0  0  0  0  0  0
  125.3280  130.7810   58.2020 C   0  0  0  0  0  0  0  0  0  0  0  0
  123.7770  131.1190   60.1860 C   0  0  0  0  0  0  0  0  0  0  0  0
  123.4970  130.9360   61.5440 C   0  0  0  0  0  0  0  0  0  0  0  0
  122.1850  131.4930   62.0930 C   0  0  0  0  0  0  0  0  0  0  0  0
  124.4290  130.2470   62.3530 C   0  0  0  0  0  0  0  0  0  0  0  0
  124.1630  130.0420   63.7800 C   0  0  0  0  0  0  0  0  0  0  0  0
  123.9530  129.8810   64.9070 N   0  0  0  0  0  0  0  0  0  0  0  0
  128.9720  133.0680   59.2210 C   0  0  0  0  0  0  0  0  0  0  0  0
  129.9340  132.9270   58.2090 C   0  0  0  0  0  0  0  0  0  0  0  0
  129.7540  133.3590   56.9070 O   0  0  0  0  0  0  0  0  0  0  0  0
  128.5790  132.9780   56.2000 C   0  0  0  0  0  0  0  0  0  0  0  0
  131.1570  132.3140   58.5180 C   0  0  0  0  0  0  0  0  0  0  0  0
  132.1110  132.1750   57.5390 O   0  0  0  0  0  0  0  0  0  0  0  0
  132.3270  130.8320   57.1280 C   0  0  0  0  0  0  0  0  0  0  0  0
  1  2  1  0
  2  3  1  0
  3  4  2  0
  4  5  1  0
  5  6  1  0
  6  7  1  0
  7  8  1  0
  8  9  2  0
  8 10  1  0
 10 11  1  0
 11 12  1  0
 12 13  2  0
 13 14  1  0
 14 15  1  0
 14 16  2  0
 16 17  1  0
 17 18  1  0
 17 19  2  0
 19 20  1  0
 20 21  3  0
  5 22  2  0
 22 23  1  0
 23 24  1  0
 24 25  1  0
 23 26  2  0
 26 27  1  0
 27 28  1  0
 26  3  1  0
 19 12  1  0
M  END
>  <Binding energies>  (9) 
[-7.16]

>  <Ligand effiencies>  (9) 
[-0.24689655172413794]

>  <Interactions>  (9) 
["H-B:TYR:484:OH:9319, V-B:ARG:545:CZ:9898, V-A:ILE:538:CA:4860, V-B:ILE:369:CG2:8208, V-A:TYR:539:CG:4872, H-A:TYR:539:N:4870, V-B:ASP:366:CB:8183, V-A:MET:535:CE:4835, V-B:ASP:366:CA:8181, V-A:LEU:363:CD1:3189, V-B:ILE:369:CB:8207, V-A:TYR:539:CE1:4875, V-B:ASP:366:CG:8184, V-A:TYR:539:CD1:4873, V-A:TYR:539:CE2:4876, V-A:TYR:539:CD2:4874, V-A:TYR:539:CZ:4877, V-A:TYR:539:C:4867, V-A:PRO:540:N:4884, V-A:PRO:540:CA:4883, V-A:PRO:540:CB:4885, V-A:ASP:366:CG:3213, V-A:ASN:362:C:3172, V-A:ASN:362:CB:3176, V-A:TYR:531:CE2:4793, V-A:TYR:531:CZ:4794, H-B:ARG:545:NH2:9900, H-B:GLY:454:N:9021, V-B:ILE:369:CG1:8209, H-B:ARG:545:NE:9896, V-B:GLY:453:C:9013, V-B:GLY:453:CA:9015"]

$$$$
1i_Grossjean_2025
     RDKit          3D

 20 21  0  0  0  0  0  0  0  0999 V2000
  123.5630  132.4360   62.0570 C   0  0  0  0  0  0  0  0  0  0  0  0
  124.3440  133.7070   61.7810 C   0  0  0  0  0  0  0  0  0  0  0  0
  123.7140  134.8710   61.3460 C   0  0  0  0  0  0  0  0  0  0  0  0
  124.4850  136.0160   61.1170 C   0  0  0  0  0  0  0  0  0  0  0  0
  123.7700  137.2850   60.6560 C   0  0  0  0  0  0  0  0  0  0  0  0
  125.8830  135.9620   61.3270 C   0  0  0  0  0  0  0  0  0  0  0  0
  126.7010  137.1630   61.1420 C   0  0  0  0  0  0  0  0  0  0  0  0
  127.3460  138.1140   60.9970 N   0  0  0  0  0  0  0  0  0  0  0  0
  126.4390  134.7310   61.7460 C   0  0  0  0  0  0  0  0  0  0  0  0
  128.1740  134.4850   62.0560 S   0  0  0  0  0  0  0  0  0  0  0  0
  128.5350  132.7220   61.7960 C   0  0  0  0  0  0  0  0  0  0  0  0
  128.6260  132.3670   60.3100 C   0  0  0  0  0  0  0  0  0  0  0  0
  128.2620  131.2520   59.9320 O   0  0  0  0  0  0  0  0  0  0  0  0
  129.1110  133.3390   59.5070 N   0  0  0  0  0  0  0  0  0  0  0  0
  129.3000  133.2800   58.1340 C   0  0  0  0  0  0  0  0  0  0  0  0
  128.2990  132.8940   57.2440 C   0  0  0  0  0  0  0  0  0  0  0  0
  128.8800  132.9660   55.9990 C   0  0  0  0  0  0  0  0  0  0  0  0
  130.1650  133.3710   56.1320 O   0  0  0  0  0  0  0  0  0  0  0  0
  130.4210  133.5660   57.4910 N   0  0  0  0  0  0  0  0  0  0  0  0
  125.6810  133.6320   61.9850 N   0  0  0  0  0  0  0  0  0  0  0  0
  1  2  1  0
  2  3  2  0
  3  4  1  0
  4  5  1  0
  4  6  2  0
  6  7  1  0
  7  8  3  0
  6  9  1  0
  9 10  1  0
 10 11  1  0
 11 12  1  0
 12 13  2  0
 12 14  1  0
 14 15  1  0
 15 16  1  0
 16 17  2  0
 17 18  1  0
 18 19  1  0
  9 20  2  0
 20  2  1  0
 19 15  2  0
M  END
>  <Binding energies>  (10) 
[-7.56]

>  <Ligand effiencies>  (10) 
[-0.36]

>  <Interactions>  (10) 
["V-B:LEU:475:CD2:9230, V-A:ILE:538:CA:4860, V-B:ILE:369:CG2:8208, V-A:TYR:539:CG:4872, V-B:GLY:454:CA:9020, H-A:TYR:539:N:4870, V-A:MET:535:CE:4835, V-A:TYR:539:CE1:4875, V-A:TYR:539:CD1:4873, V-A:TYR:539:CD2:4874, V-A:TYR:539:CZ:4877, H-A:ALA:541:N:4891, V-A:TYR:539:C:4867, H-A:TYR:539:O:4868, V-A:PRO:540:N:4884, H-B:HIS:383:NE2:8365, V-A:PRO:540:CA:4883, V-B:SER:385:CB:8380, V-A:TYR:539:CA:4869, V-A:TYR:539:CB:4871, V-B:ILE:369:CG1:8209, V-B:LEU:373:CD1:8251, V-B:HIS:383:CD2:8363, V-B:VAL:384:C:8368, V-B:SER:385:CA:8378"]

$$$$
1k_Grossjean_2025
     RDKit          3D

 25 25  0  0  0  0  0  0  0  0999 V2000
  123.4030  131.1200   58.9430 C   0  0  0  0  0  0  0  0  0  0  0  0
  124.1710  131.8570   58.0050 O   0  0  0  0  0  0  0  0  0  0  0  0
  125.4380  131.2750   57.7290 C   0  0  0  0  0  0  0  0  0  0  0  0
  126.4090  131.5920   58.8740 C   0  0  0  0  0  0  0  0  0  0  0  0
  127.5280  132.3050   58.3610 O   0  0  0  0  0  0  0  0  0  0  0  0
  127.8270  132.0000   57.0060 C   0  0  0  0  0  0  0  0  0  0  0  0
  128.9220  132.9480   56.5000 C   0  0  0  0  0  0  0  0  0  0  0  0
  129.7240  133.3730   57.5950 O   0  0  0  0  0  0  0  0  0  0  0  0
  130.9640  132.6850   57.6970 C   0  0  0  0  0  0  0  0  0  0  0  0
  131.0560  131.9880   59.0670 C   0  0  0  0  0  0  0  0  0  0  0  0
  129.9540  132.3080   59.9740 N   0  0  0  0  0  0  0  0  0  0  0  0
  130.0470  132.3790   61.3140 C   0  0  0  0  0  0  0  0  0  0  0  0
  131.0990  132.1810   61.9260 O   0  0  0  0  0  0  0  0  0  0  0  0
  128.7440  132.7210   62.0520 C   0  0  0  0  0  0  0  0  0  0  0  0
  128.2000  134.4610   61.9310 S   0  0  0  0  0  0  0  0  0  0  0  0
  126.4290  134.5070   61.6990 C   0  0  0  0  0  0  0  0  0  0  0  0
  125.7650  133.3520   61.9650 N   0  0  0  0  0  0  0  0  0  0  0  0
  124.4230  133.3160   61.8000 C   0  0  0  0  0  0  0  0  0  0  0  0
  123.7560  131.9900   62.1080 C   0  0  0  0  0  0  0  0  0  0  0  0
  123.6880  134.4210   61.3750 C   0  0  0  0  0  0  0  0  0  0  0  0
  124.3580  135.6190   61.1060 C   0  0  0  0  0  0  0  0  0  0  0  0
  123.5350  136.8180   60.6410 C   0  0  0  0  0  0  0  0  0  0  0  0
  125.7610  135.6760   61.2670 C   0  0  0  0  0  0  0  0  0  0  0  0
  126.4890  136.9170   60.9880 C   0  0  0  0  0  0  0  0  0  0  0  0
  127.0640  137.8970   60.7670 N   0  0  0  0  0  0  0  0  0  0  0  0
  1  2  1  0
  2  3  1  0
  3  4  1  0
  4  5  1  0
  5  6  1  0
  6  7  1  0
  7  8  1  0
  8  9  1  0
  9 10  1  0
 10 11  1  0
 11 12  1  0
 12 13  2  0
 12 14  1  0
 14 15  1  0
 15 16  1  0
 16 17  2  0
 17 18  1  0
 18 19  1  0
 18 20  2  0
 20 21  1  0
 21 22  1  0
 21 23  2  0
 23 24  1  0
 24 25  3  0
 23 16  1  0
M  END
>  <Binding energies>  (11) 
[-6.54]

>  <Ligand effiencies>  (11) 
[-0.25153846153846154]

>  <Interactions>  (11) 
["V-A:ALA:541:CB:4892, V-B:LEU:475:CD2:9230, V-A:ILE:538:CA:4860, V-B:ILE:369:CG2:8208, V-A:TYR:539:CG:4872, H-A:TYR:539:N:4870, V-B:ASP:366:CB:8183, V-A:MET:535:CE:4835, V-B:ASP:366:CA:8181, H-A:TYR:539:OH:4878, V-B:ILE:369:CB:8207, V-A:TYR:539:CE1:4875, V-B:ASP:366:CG:8184, V-A:TYR:539:CD1:4873, V-A:TYR:539:CZ:4877, V-A:PRO:540:C:4881, H-A:ALA:541:N:4891, V-A:PRO:540:N:4884, H-B:HIS:383:NE2:8365, V-A:PRO:540:CA:4883, V-A:PRO:540:CB:4885, V-B:SER:385:CB:8380, V-A:PRO:540:CD:4887, V-B:ASP:366:C:8179, V-A:TYR:539:CB:4871, V-B:LEU:373:CD1:8251, V-B:HIS:383:CD2:8363, V-B:VAL:384:C:8368, V-B:SER:385:CA:8378"]

$$$$
1l_Grossjean_2025
     RDKit          3D

 17 17  0  0  0  0  0  0  0  0999 V2000
  127.4850  138.2600   61.9400 C   0  0  0  0  0  0  0  0  0  0  0  0
  126.3710  137.5920   61.3650 O   0  0  0  0  0  0  0  0  0  0  0  0
  126.7300  136.2950   61.0010 N   0  0  0  0  0  0  0  0  0  0  0  0
  125.8280  135.3050   61.1360 C   0  0  0  0  0  0  0  0  0  0  0  0
  124.6270  135.4980   61.3460 O   0  0  0  0  0  0  0  0  0  0  0  0
  126.3920  133.8850   60.9920 C   0  0  0  0  0  0  0  0  0  0  0  0
  128.1580  133.7090   61.4220 S   0  0  0  0  0  0  0  0  0  0  0  0
  129.0040  133.0040   60.0170 C   0  0  0  0  0  0  0  0  0  0  0  0
  128.4180  133.2130   58.8100 N   0  0  0  0  0  0  0  0  0  0  0  0
  129.0070  132.7040   57.7010 C   0  0  0  0  0  0  0  0  0  0  0  0
  128.2930  132.9800   56.3910 C   0  0  0  0  0  0  0  0  0  0  0  0
  130.1920  131.9750   57.7470 C   0  0  0  0  0  0  0  0  0  0  0  0
  130.8060  131.7550   58.9850 C   0  0  0  0  0  0  0  0  0  0  0  0
  132.1060  130.9530   59.0120 C   0  0  0  0  0  0  0  0  0  0  0  0
  130.2080  132.2750   60.1540 C   0  0  0  0  0  0  0  0  0  0  0  0
  130.8300  132.0590   61.4650 C   0  0  0  0  0  0  0  0  0  0  0  0
  131.3210  131.8880   62.4970 N   0  0  0  0  0  0  0  0  0  0  0  0
  1  2  1  0
  2  3  1  0
  3  4  1  0
  4  5  2  0
  4  6  1  0
  6  7  1  0
  7  8  1  0
  8  9  2  0
  9 10  1  0
 10 11  1  0
 10 12  2  0
 12 13  1  0
 13 14  1  0
 13 15  2  0
 15 16  1  0
 16 17  3  0
 15  8  1  0
M  END
>  <Binding energies>  (12) 
[-6.46]

>  <Ligand effiencies>  (12) 
[-0.35888888888888887]

>  <Interactions>  (12) 
["V-B:LEU:475:CD2:9230, V-A:TYR:539:CG:4872, V-A:MET:535:CE:4835, V-A:TYR:539:CE1:4875, V-A:TYR:539:CD1:4873, V-A:TYR:539:CE2:4876, V-A:TYR:539:CD2:4874, V-A:TYR:539:CZ:4877, V-A:PRO:540:C:4881, H-A:ALA:541:N:4891, V-A:TYR:539:C:4867, H-A:TYR:539:O:4868, V-A:PRO:540:N:4884, H-B:HIS:383:NE2:8365, V-B:HIS:383:CE1:8364, V-A:PRO:540:CA:4883, V-A:PRO:540:CB:4885, V-A:TYR:539:CB:4871"]

$$$$
1m_Grossjean_2025
     RDKit          3D

 20 20  0  0  0  0  0  0  0  0999 V2000
  123.4080  130.9830   61.8720 C   0  0  0  0  0  0  0  0  0  0  0  0
  124.0430  131.3580   63.0860 O   0  0  0  0  0  0  0  0  0  0  0  0
  124.4950  130.4190   63.9420 C   0  0  0  0  0  0  0  0  0  0  0  0
  123.7890  129.6620   64.6150 O   0  0  0  0  0  0  0  0  0  0  0  0
  126.0370  130.3850   63.9820 C   0  0  0  0  0  0  0  0  0  0  0  0
  126.6490  131.5770   63.3760 N   0  0  0  0  0  0  0  0  0  0  0  0
  127.7960  132.1600   63.7730 C   0  0  0  0  0  0  0  0  0  0  0  0
  128.4630  131.7500   64.7260 O   0  0  0  0  0  0  0  0  0  0  0  0
  128.2280  133.3890   62.9640 C   0  0  0  0  0  0  0  0  0  0  0  0
  128.2440  133.1440   61.1550 S   0  0  0  0  0  0  0  0  0  0  0  0
  129.8360  132.4890   60.7010 C   0  0  0  0  0  0  0  0  0  0  0  0
  130.6460  132.2480   61.7640 N   0  0  0  0  0  0  0  0  0  0  0  0
  131.8810  131.7430   61.5400 C   0  0  0  0  0  0  0  0  0  0  0  0
  132.7210  131.4810   62.7760 C   0  0  0  0  0  0  0  0  0  0  0  0
  132.3620  131.4700   60.2610 C   0  0  0  0  0  0  0  0  0  0  0  0
  131.5460  131.7400   59.1570 C   0  0  0  0  0  0  0  0  0  0  0  0
  132.0990  131.4480   57.7640 C   0  0  0  0  0  0  0  0  0  0  0  0
  130.2510  132.2690   59.3660 C   0  0  0  0  0  0  0  0  0  0  0  0
  129.4000  132.6040   58.2220 C   0  0  0  0  0  0  0  0  0  0  0  0
  128.7270  132.8690   57.3190 N   0  0  0  0  0  0  0  0  0  0  0  0
  1  2  1  0
  2  3  1  0
  3  4  2  0
  3  5  1  0
  5  6  1  0
  6  7  1  0
  7  8  2  0
  7  9  1  0
  9 10  1  0
 10 11  1  0
 11 12  2  0
 12 13  1  0
 13 14  1  0
 13 15  2  0
 15 16  1  0
 16 17  1  0
 16 18  2  0
 18 19  1  0
 19 20  3  0
 18 11  1  0
M  END
>  <Binding energies>  (13) 
[-6.3]

>  <Ligand effiencies>  (13) 
[-0.3]

>  <Interactions>  (13) 
["H-B:TYR:484:OH:9319, V-A:GLU:543:CG:4907, V-B:ARG:545:CZ:9898, V-A:GLU:543:CD:4908, V-A:ALA:541:CB:4892, V-B:LEU:475:CD2:9230, V-B:GLY:454:CA:9020, H-A:TYR:539:N:4870, V-A:LEU:363:CD1:3189, V-B:ASP:366:CG:8184, V-A:PRO:540:C:4881, H-A:ALA:541:N:4891, V-A:TYR:539:C:4867, V-A:PRO:540:N:4884, V-A:PRO:540:CA:4883, V-A:PRO:540:CB:4885, V-A:ASN:362:CB:3176, H-B:ARG:545:NH1:9899, H-B:ARG:545:NH2:9900, H-B:GLY:454:N:9021, H-B:ARG:545:NE:9896"]

$$$$
1n_Grossjean_2025
     RDKit          3D

 27 28  0  0  0  0  0  0  0  0999 V2000
  128.3390  138.2630   62.1130 C   0  0  0  0  0  0  0  0  0  0  0  0
  126.8100  138.2730   62.2120 C   0  0  0  0  0  0  0  0  0  0  0  0
  126.2540  137.8650   60.9690 O   0  0  0  0  0  0  0  0  0  0  0  0
  125.2740  136.9260   60.9130 C   0  0  0  0  0  0  0  0  0  0  0  0
  124.1320  137.1590   60.5070 O   0  0  0  0  0  0  0  0  0  0  0  0
  125.7220  135.5720   61.3830 C   0  0  0  0  0  0  0  0  0  0  0  0
  127.0650  135.1680   61.3100 C   0  0  0  0  0  0  0  0  0  0  0  0
  127.4470  133.9050   61.7520 C   0  0  0  0  0  0  0  0  0  0  0  0
  126.5000  133.0180   62.2660 C   0  0  0  0  0  0  0  0  0  0  0  0
  126.9950  131.7660   62.6780 N   0  0  0  0  0  0  0  0  0  0  0  0
  127.6530  131.4260   63.8080 C   0  0  0  0  0  0  0  0  0  0  0  0
  127.9430  132.1960   64.7230 O   0  0  0  0  0  0  0  0  0  0  0  0
  128.0530  129.9500   63.9230 C   0  0  0  0  0  0  0  0  0  0  0  0
  127.9740  129.1940   62.5800 C   0  0  0  0  0  0  0  0  0  0  0  0
  126.4100  128.3080   62.3040 S   0  0  0  0  0  0  0  0  0  0  0  0
  125.2760  129.4430   61.5340 C   0  0  0  0  0  0  0  0  0  0  0  0
  125.4790  129.5920   60.2010 N   0  0  0  0  0  0  0  0  0  0  0  0
  124.6630  130.4200   59.5070 C   0  0  0  0  0  0  0  0  0  0  0  0
  124.9430  130.5280   58.0200 C   0  0  0  0  0  0  0  0  0  0  0  0
  123.6260  131.1310   60.1070 C   0  0  0  0  0  0  0  0  0  0  0  0
  123.4220  131.0000   61.4850 C   0  0  0  0  0  0  0  0  0  0  0  0
  122.2880  131.7990   62.1240 C   0  0  0  0  0  0  0  0  0  0  0  0
  124.2650  130.1450   62.2310 C   0  0  0  0  0  0  0  0  0  0  0  0
  124.1010  130.0320   63.6820 C   0  0  0  0  0  0  0  0  0  0  0  0
  123.9710  129.9450   64.8280 N   0  0  0  0  0  0  0  0  0  0  0  0
  125.1590  133.4190   62.3520 C   0  0  0  0  0  0  0  0  0  0  0  0
  124.7780  134.6840   61.9130 C   0  0  0  0  0  0  0  0  0  0  0  0
  1  2  1  0
  2  3  1  0
  3  4  1  0
  4  5  2  0
  4  6  1  0
  6  7  2  0
  7  8  1  0
  8  9  2  0
  9 10  1  0
 10 11  1  0
 11 12  2  0
 11 13  1  0
 13 14  1  0
 14 15  1  0
 15 16  1  0
 16 17  2  0
 17 18  1  0
 18 19  1  0
 18 20  2  0
 20 21  1  0
 21 22  1  0
 21 23  2  0
 23 24  1  0
 24 25  3  0
  9 26  1  0
 26 27  2  0
 27  6  1  0
 23 16  1  0
M  END
>  <Binding energies>  (14) 
[-8.0]

>  <Ligand effiencies>  (14) 
[-0.2857142857142857]

>  <Interactions>  (14) 
["H-B:TYR:484:OH:9319, V-A:GLU:543:CG:4907, V-B:ARG:545:CZ:9898, V-A:GLU:543:CD:4908, V-B:LEU:475:CD2:9230, V-B:ILE:369:CG2:8208, V-B:GLY:454:CA:9020, V-B:ASP:366:CB:8183, V-B:ASP:366:CA:8181, V-B:ILE:369:CB:8207, V-A:TYR:539:CE1:4875, V-B:ASP:366:CG:8184, V-A:TYR:539:CD1:4873, V-A:VAL:344:CG1:3001, V-A:TYR:539:C:4867, V-B:PRO:482:CB:9297, H-B:HIS:383:NE2:8365, V-B:HIS:383:CE1:8364, H-B:ARG:545:NH2:9900, H-B:GLY:454:N:9021, V-B:ILE:369:CG1:8209, H-B:ARG:545:NE:9896, V-B:GLY:453:C:9013, V-B:HIS:383:CD2:8363, V-B:LEU:475:CG:9228, V-B:GLY:453:CA:9015"]

$$$$
1q_Grossjean_2025
     RDKit          3D

 21 21  0  0  0  0  0  0  0  0999 V2000
  127.4300  131.8520   57.7410 C   0  0  0  0  0  0  0  0  0  0  0  0
  128.2320  132.9490   58.1540 O   0  0  0  0  0  0  0  0  0  0  0  0
  129.5620  132.9660   57.8940 C   0  0  0  0  0  0  0  0  0  0  0  0
  130.0820  133.3600   56.8490 O   0  0  0  0  0  0  0  0  0  0  0  0
  130.4330  132.4020   59.0360 C   0  0  0  0  0  0  0  0  0  0  0  0
  129.6670  132.1260   60.2610 N   0  0  0  0  0  0  0  0  0  0  0  0
  130.1700  132.0580   61.5080 C   0  0  0  0  0  0  0  0  0  0  0  0
  131.3640  132.2270   61.7630 O   0  0  0  0  0  0  0  0  0  0  0  0
  129.1580  131.7690   62.6270 C   0  0  0  0  0  0  0  0  0  0  0  0
  128.5480  133.0300   63.2700 C   0  0  0  0  0  0  0  0  0  0  0  0
  128.2450  134.3770   62.0880 S   0  0  0  0  0  0  0  0  0  0  0  0
  126.4940  134.4700   61.7700 C   0  0  0  0  0  0  0  0  0  0  0  0
  125.8400  133.3060   62.0110 N   0  0  0  0  0  0  0  0  0  0  0  0
  124.5040  133.2530   61.8040 C   0  0  0  0  0  0  0  0  0  0  0  0
  123.8460  131.9130   62.0780 C   0  0  0  0  0  0  0  0  0  0  0  0
  123.7680  134.3500   61.3630 C   0  0  0  0  0  0  0  0  0  0  0  0
  124.4270  135.5630   61.1360 C   0  0  0  0  0  0  0  0  0  0  0  0
  123.5940  136.7570   60.6700 C   0  0  0  0  0  0  0  0  0  0  0  0
  125.8220  135.6430   61.3480 C   0  0  0  0  0  0  0  0  0  0  0  0
  126.5180  136.9180   61.1700 C   0  0  0  0  0  0  0  0  0  0  0  0
  127.0650  137.9290   61.0290 N   0  0  0  0  0  0  0  0  0  0  0  0
  1  2  1  0
  2  3  1  0
  3  4  2  0
  3  5  1  0
  5  6  1  0
  6  7  1  0
  7  8  2  0
  7  9  1  0
  9 10  1  0
 10 11  1  0
 11 12  1  0
 12 13  2  0
 13 14  1  0
 14 15  1  0
 14 16  2  0
 16 17  1  0
 17 18  1  0
 17 19  2  0
 19 20  1  0
 20 21  3  0
 19 12  1  0
M  END
>  <Binding energies>  (15) 
[-6.47]

>  <Ligand effiencies>  (15) 
[-0.29409090909090907]

>  <Interactions>  (15) 
["V-A:ALA:541:CB:4892, V-B:LEU:475:CD2:9230, V-B:ILE:369:CG2:8208, H-A:TYR:539:N:4870, V-A:TYR:539:CE1:4875, V-A:TYR:539:CD1:4873, V-A:TYR:539:CZ:4877, V-A:ALA:541:CA:4890, H-A:ALA:541:N:4891, V-A:TYR:539:C:4867, V-A:PRO:540:N:4884, H-B:HIS:383:NE2:8365, V-A:PRO:540:CA:4883, V-A:PRO:540:CB:4885, V-B:SER:385:CB:8380, V-A:TYR:539:CB:4871, V-B:LEU:373:CD1:8251, V-B:HIS:383:CD2:8363, V-B:VAL:384:C:8368, V-B:SER:385:CA:8378"]

$$$$
2a_Grossjean_2025
     RDKit          3D

 29 30  0  0  0  0  0  0  0  0999 V2000
  131.7150  131.2960   56.7620 C   0  0  0  0  0  0  0  0  0  0  0  0
  131.9770  132.7700   57.0840 C   0  0  0  0  0  0  0  0  0  0  0  0
  130.8050  133.5270   56.8080 O   0  0  0  0  0  0  0  0  0  0  0  0
  129.7860  133.0010   56.0800 C   0  0  0  0  0  0  0  0  0  0  0  0
  129.8180  132.8810   54.8520 O   0  0  0  0  0  0  0  0  0  0  0  0
  128.6250  132.5590   56.9240 C   0  0  0  0  0  0  0  0  0  0  0  0
  128.6010  132.7520   58.3130 C   0  0  0  0  0  0  0  0  0  0  0  0
  127.5090  132.3290   59.0660 C   0  0  0  0  0  0  0  0  0  0  0  0
  126.4260  131.7000   58.4520 C   0  0  0  0  0  0  0  0  0  0  0  0
  125.3860  131.3020   59.3110 N   0  0  0  0  0  0  0  0  0  0  0  0
  124.0470  131.3860   59.1520 C   0  0  0  0  0  0  0  0  0  0  0  0
  123.4730  131.8780   58.1800 O   0  0  0  0  0  0  0  0  0  0  0  0
  123.2080  130.8150   60.2990 C   0  0  0  0  0  0  0  0  0  0  0  0
  123.0640  131.9470   61.7220 S   0  0  0  0  0  0  0  0  0  0  0  0
  124.2770  133.2550   61.5780 C   0  0  0  0  0  0  0  0  0  0  0  0
  123.8070  134.4460   61.1280 N   0  0  0  0  0  0  0  0  0  0  0  0
  124.6710  135.4760   60.9830 C   0  0  0  0  0  0  0  0  0  0  0  0
  124.0760  136.7670   60.4500 C   0  0  0  0  0  0  0  0  0  0  0  0
  126.0250  135.3690   61.2840 C   0  0  0  0  0  0  0  0  0  0  0  0
  126.5320  134.1490   61.7580 C   0  0  0  0  0  0  0  0  0  0  0  0
  128.0330  134.0470   62.0870 C   0  0  0  0  0  0  0  0  0  0  0  0
  128.5750  135.2630   62.1340 F   0  0  0  0  0  0  0  0  0  0  0  0
  128.2000  133.4510   63.2690 F   0  0  0  0  0  0  0  0  0  0  0  0
  128.7120  133.3380   61.1820 F   0  0  0  0  0  0  0  0  0  0  0  0
  125.6370  133.0590   61.9120 C   0  0  0  0  0  0  0  0  0  0  0  0
  126.1130  131.7610   62.4010 C   0  0  0  0  0  0  0  0  0  0  0  0
  126.4890  130.7360   62.7860 N   0  0  0  0  0  0  0  0  0  0  0  0
  126.4390  131.5100   57.0620 C   0  0  0  0  0  0  0  0  0  0  0  0
  127.5300  131.9380   56.3100 C   0  0  0  0  0  0  0  0  0  0  0  0
  1  2  1  0
  2  3  1  0
  3  4  1  0
  4  5  2  0
  4  6  1  0
  6  7  2  0
  7  8  1  0
  8  9  2  0
  9 10  1  0
 10 11  1  0
 11 12  2  0
 11 13  1  0
 13 14  1  0
 14 15  1  0
 15 16  2  0
 16 17  1  0
 17 18  1  0
 17 19  2  0
 19 20  1  0
 20 21  1  0
 21 22  1  0
 21 23  1  0
 21 24  1  0
 20 25  2  0
 25 26  1  0
 26 27  3  0
  9 28  1  0
 28 29  2  0
 29  6  1  0
 25 15  1  0
M  END
>  <Binding energies>  (16) 
[-7.35]

>  <Ligand effiencies>  (16) 
[-0.245]

>  <Interactions>  (16) 
["V-A:ALA:541:CB:4892, V-B:LEU:475:CD2:9230, V-A:ILE:538:CB:4862, V-A:ILE:538:CA:4860, V-B:ILE:369:CG2:8208, V-A:ILE:538:C:4858, H-A:TYR:539:N:4870, V-B:ASP:366:CB:8183, V-A:MET:535:CE:4835, V-B:ASP:366:CA:8181, V-A:LEU:363:CD1:3189, H-A:TYR:539:OH:4878, V-B:ILE:369:CB:8207, V-A:TYR:539:CE1:4875, V-B:ASP:366:CG:8184, V-A:TYR:539:CD1:4873, V-A:TYR:539:CZ:4877, V-A:ILE:538:CG2:4863, V-A:ALA:541:CA:4890, V-A:PRO:540:C:4881, V-A:TYR:539:C:4867, V-A:PRO:540:N:4884, V-A:PRO:540:CA:4883, V-A:PRO:540:CB:4885, V-B:SER:385:CB:8380, V-A:PRO:540:CD:4887, V-A:TYR:531:CE2:4793, V-A:TYR:531:CZ:4794, V-A:PRO:540:CG:4886, V-B:ILE:369:CG1:8209, V-B:LEU:373:CD1:8251, V-B:HIS:383:CD2:8363, V-B:SER:385:CA:8378"]

$$$$
2b_Grossjean_2025
     RDKit          3D

 28 29  0  0  0  0  0  0  0  0999 V2000
  131.8030  132.4870   57.4380 C   0  0  0  0  0  0  0  0  0  0  0  0
  130.7930  133.3820   56.9960 O   0  0  0  0  0  0  0  0  0  0  0  0
  129.7760  132.9540   56.2050 C   0  0  0  0  0  0  0  0  0  0  0  0
  129.8330  132.9390   54.9710 O   0  0  0  0  0  0  0  0  0  0  0  0
  128.5720  132.5020   56.9800 C   0  0  0  0  0  0  0  0  0  0  0  0
  128.4640  132.6990   58.3640 C   0  0  0  0  0  0  0  0  0  0  0  0
  127.3340  132.2670   59.0540 C   0  0  0  0  0  0  0  0  0  0  0  0
  126.2900  131.6360   58.3770 C   0  0  0  0  0  0  0  0  0  0  0  0
  125.1990  131.2350   59.1710 N   0  0  0  0  0  0  0  0  0  0  0  0
  123.8750  131.3290   58.9280 C   0  0  0  0  0  0  0  0  0  0  0  0
  123.3690  131.8340   57.9250 O   0  0  0  0  0  0  0  0  0  0  0  0
  122.9670  130.7640   60.0250 C   0  0  0  0  0  0  0  0  0  0  0  0
  123.4190  131.3400   61.6950 S   0  0  0  0  0  0  0  0  0  0  0  0
  124.4230  132.8140   61.5820 C   0  0  0  0  0  0  0  0  0  0  0  0
  123.7800  133.9350   61.1670 N   0  0  0  0  0  0  0  0  0  0  0  0
  124.4790  135.0860   61.0530 C   0  0  0  0  0  0  0  0  0  0  0  0
  123.6910  136.2890   60.5710 C   0  0  0  0  0  0  0  0  0  0  0  0
  125.8350  135.1740   61.3530 C   0  0  0  0  0  0  0  0  0  0  0  0
  126.5200  134.0290   61.7910 C   0  0  0  0  0  0  0  0  0  0  0  0
  128.0200  134.1440   62.1230 C   0  0  0  0  0  0  0  0  0  0  0  0
  128.3860  135.4270   62.1390 F   0  0  0  0  0  0  0  0  0  0  0  0
  128.2670  133.6100   63.3200 F   0  0  0  0  0  0  0  0  0  0  0  0
  128.7950  133.5160   61.2360 F   0  0  0  0  0  0  0  0  0  0  0  0
  125.8000  132.8130   61.9080 C   0  0  0  0  0  0  0  0  0  0  0  0
  126.4660  131.5850   62.3550 C   0  0  0  0  0  0  0  0  0  0  0  0
  126.9910  130.6170   62.7090 N   0  0  0  0  0  0  0  0  0  0  0  0
  126.3940  131.4280   56.9940 C   0  0  0  0  0  0  0  0  0  0  0  0
  127.5240  131.8600   56.3060 C   0  0  0  0  0  0  0  0  0  0  0  0
  1  2  1  0
  2  3  1  0
  3  4  2  0
  3  5  1  0
  5  6  2  0
  6  7  1  0
  7  8  2  0
  8  9  1  0
  9 10  1  0
 10 11  2  0
 10 12  1  0
 12 13  1  0
 13 14  1  0
 14 15  2  0
 15 16  1  0
 16 17  1  0
 16 18  2  0
 18 19  1  0
 19 20  1  0
 20 21  1  0
 20 22  1  0
 20 23  1  0
 19 24  2  0
 24 25  1  0
 25 26  3  0
  8 27  1  0
 27 28  2  0
 28  5  1  0
 24 14  1  0
M  END
>  <Binding energies>  (17) 
[-6.96]

>  <Ligand effiencies>  (17) 
[-0.24]

>  <Interactions>  (17) 
["V-A:ALA:541:CB:4892, V-B:LEU:475:CD2:9230, V-A:ILE:538:CB:4862, V-A:ILE:538:CA:4860, V-B:ILE:369:CG2:8208, V-A:ILE:538:C:4858, H-A:TYR:539:N:4870, V-B:ASP:366:CB:8183, V-A:MET:535:CE:4835, V-B:ASP:366:CA:8181, V-A:LEU:363:CD1:3189, H-A:TYR:539:OH:4878, V-B:ILE:369:CB:8207, V-A:TYR:539:CE1:4875, V-B:ASP:366:CG:8184, V-A:TYR:539:CD1:4873, V-A:TYR:539:CZ:4877, V-A:ALA:541:CA:4890, V-A:PRO:540:C:4881, V-A:TYR:539:C:4867, V-A:PRO:540:N:4884, V-A:PRO:540:CA:4883, V-A:PRO:540:CB:4885, V-B:SER:385:CB:8380, V-A:PRO:540:CD:4887, V-B:ASP:366:C:8179, V-B:ILE:369:CG1:8209, V-B:LEU:373:CD1:8251, V-B:SER:385:CA:8378"]

$$$$
2c_Grossjean_2025
     RDKit          3D

 26 27  0  0  0  0  0  0  0  0999 V2000
  131.3180  132.6300   56.2060 C   0  0  0  0  0  0  0  0  0  0  0  0
  130.0560  133.2860   56.1430 O   0  0  0  0  0  0  0  0  0  0  0  0
  129.0240  132.8390   56.9450 C   0  0  0  0  0  0  0  0  0  0  0  0
  127.9450  132.2410   56.2940 C   0  0  0  0  0  0  0  0  0  0  0  0
  126.8560  131.7610   57.0170 C   0  0  0  0  0  0  0  0  0  0  0  0
  126.8330  131.8860   58.4140 C   0  0  0  0  0  0  0  0  0  0  0  0
  125.7880  131.4150   59.2290 N   0  0  0  0  0  0  0  0  0  0  0  0
  124.4590  131.4310   58.9880 C   0  0  0  0  0  0  0  0  0  0  0  0
  123.9330  131.9320   57.9930 O   0  0  0  0  0  0  0  0  0  0  0  0
  123.5950  130.7970   60.0880 C   0  0  0  0  0  0  0  0  0  0  0  0
  123.2430  131.8680   61.5260 S   0  0  0  0  0  0  0  0  0  0  0  0
  124.3280  133.2890   61.4880 C   0  0  0  0  0  0  0  0  0  0  0  0
  123.7490  134.4620   61.1220 N   0  0  0  0  0  0  0  0  0  0  0  0
  124.5110  135.5750   61.0630 C   0  0  0  0  0  0  0  0  0  0  0  0
  123.7960  136.8400   60.6310 C   0  0  0  0  0  0  0  0  0  0  0  0
  125.8700  135.5730   61.3710 C   0  0  0  0  0  0  0  0  0  0  0  0
  126.4880  134.3760   61.7580 C   0  0  0  0  0  0  0  0  0  0  0  0
  127.9910  134.3900   62.0980 C   0  0  0  0  0  0  0  0  0  0  0  0
  128.2190  133.6610   63.1910 F   0  0  0  0  0  0  0  0  0  0  0  0
  128.6940  133.8830   61.0840 F   0  0  0  0  0  0  0  0  0  0  0  0
  128.4540  135.6200   62.3320 F   0  0  0  0  0  0  0  0  0  0  0  0
  125.7010  133.1980   61.8200 C   0  0  0  0  0  0  0  0  0  0  0  0
  126.2940  131.9160   62.2170 C   0  0  0  0  0  0  0  0  0  0  0  0
  126.7630  130.9060   62.5300 N   0  0  0  0  0  0  0  0  0  0  0  0
  127.9170  132.4690   59.0710 C   0  0  0  0  0  0  0  0  0  0  0  0
  129.0040  132.9470   58.3440 C   0  0  0  0  0  0  0  0  0  0  0  0
  1  2  1  0
  2  3  1  0
  3  4  2  0
  4  5  1  0
  5  6  2  0
  6  7  1  0
  7  8  1  0
  8  9  2  0
  8 10  1  0
 10 11  1  0
 11 12  1  0
 12 13  2  0
 13 14  1  0
 14 15  1  0
 14 16  2  0
 16 17  1  0
 17 18  1  0
 18 19  1  0
 18 20  1  0
 18 21  1  0
 17 22  2  0
 22 23  1  0
 23 24  3  0
  6 25  1  0
 25 26  2  0
 26  3  1  0
 22 12  1  0
M  END
>  <Binding energies>  (18) 
[-6.6]

>  <Ligand effiencies>  (18) 
[-0.24444444444444444]

>  <Interactions>  (18) 
["V-A:ALA:541:CB:4892, V-B:LEU:475:CD2:9230, V-A:ILE:538:CB:4862, V-A:ILE:538:CA:4860, V-B:ILE:369:CG2:8208, H-A:TYR:539:N:4870, V-B:ASP:366:CB:8183, V-A:MET:535:CE:4835, V-B:ASP:366:CA:8181, V-A:LEU:363:CD1:3189, H-A:TYR:539:OH:4878, V-B:ILE:369:CB:8207, V-A:TYR:539:CE1:4875, V-B:ASP:366:CG:8184, V-A:TYR:539:CD1:4873, V-A:TYR:539:CE2:4876, V-A:TYR:539:CZ:4877, V-A:ILE:538:CG2:4863, V-A:ALA:541:CA:4890, V-A:PRO:540:C:4881, V-A:TYR:539:C:4867, V-A:PRO:540:N:4884, V-A:PRO:540:CA:4883, V-B:SER:385:CB:8380, V-B:LEU:373:CD1:8251, V-B:HIS:383:CD2:8363, V-B:SER:385:CA:8378"]

$$$$
2d_Ghoteimi_2023
     RDKit          3D

 38 42  0  0  0  0  0  0  0  0999 V2000
  129.4180  132.6950   56.4750 C   0  0  0  0  0  0  0  0  0  0  0  0
  129.3570  133.3650   57.7250 O   0  0  0  0  0  0  0  0  0  0  0  0
  129.3460  132.6660   58.8790 C   0  0  0  0  0  0  0  0  0  0  0  0
  130.3140  132.5030   59.6280 O   0  0  0  0  0  0  0  0  0  0  0  0
  127.9530  132.0850   59.1650 C   0  0  0  0  0  0  0  0  0  0  0  0
  127.4860  132.3220   60.9140 S   0  0  0  0  0  0  0  0  0  0  0  0
  127.5640  130.7420   61.7330 C   0  0  0  0  0  0  0  0  0  0  0  0
  127.3750  129.6940   60.8950 N   0  0  0  0  0  0  0  0  0  0  0  0
  127.4010  128.4290   61.3850 C   0  0  0  0  0  0  0  0  0  0  0  0
  127.1670  127.3260   60.4030 C   0  0  0  0  0  0  0  0  0  0  0  0
  127.0460  127.6020   59.0370 C   0  0  0  0  0  0  0  0  0  0  0  0
  126.8280  126.5800   58.1170 C   0  0  0  0  0  0  0  0  0  0  0  0
  126.7340  125.2420   58.5300 C   0  0  0  0  0  0  0  0  0  0  0  0
  126.4970  124.2050   57.6210 N   0  0  0  0  0  0  0  0  0  0  0  0
  127.5850  123.3230   57.1550 C   0  0  0  0  0  0  0  0  0  0  0  0
  127.2210  122.5020   55.9000 C   0  0  0  0  0  0  0  0  0  0  0  0
  126.0350  121.7590   56.1360 O   0  0  0  0  0  0  0  0  0  0  0  0
  124.9380  122.6080   56.4320 C   0  0  0  0  0  0  0  0  0  0  0  0
  125.2370  123.4380   57.6990 C   0  0  0  0  0  0  0  0  0  0  0  0
  126.8420  124.9720   59.9020 C   0  0  0  0  0  0  0  0  0  0  0  0
  127.0580  125.9940   60.8210 C   0  0  0  0  0  0  0  0  0  0  0  0
  127.6260  128.1870   62.7420 C   0  0  0  0  0  0  0  0  0  0  0  0
  127.8570  129.2500   63.6240 C   0  0  0  0  0  0  0  0  0  0  0  0
  128.1180  128.9140   65.0560 C   0  0  0  0  0  0  0  0  0  0  0  0
  128.6350  127.6640   65.4020 C   0  0  0  0  0  0  0  0  0  0  0  0
  128.8930  127.3460   66.7320 C   0  0  0  0  0  0  0  0  0  0  0  0
  128.6370  128.2700   67.7580 C   0  0  0  0  0  0  0  0  0  0  0  0
  128.9000  127.9770   69.0990 N   0  0  0  0  0  0  0  0  0  0  0  0
  130.2810  127.8530   69.6020 C   0  0  0  0  0  0  0  0  0  0  0  0
  130.3800  127.8870   71.1420 C   0  0  0  0  0  0  0  0  0  0  0  0
  129.5440  126.8880   71.7050 O   0  0  0  0  0  0  0  0  0  0  0  0
  128.1840  127.0790   71.3460 C   0  0  0  0  0  0  0  0  0  0  0  0
  128.0290  127.0210   69.8110 C   0  0  0  0  0  0  0  0  0  0  0  0
  128.1340  129.5290   67.4000 C   0  0  0  0  0  0  0  0  0  0  0  0
  127.8780  129.8470   66.0690 C   0  0  0  0  0  0  0  0  0  0  0  0
  127.8330  130.5700   63.1110 C   0  0  0  0  0  0  0  0  0  0  0  0
  128.0890  131.7150   63.9910 C   0  0  0  0  0  0  0  0  0  0  0  0
  128.2910  132.6160   64.6890 N   0  0  0  0  0  0  0  0  0  0  0  0
  1  2  1  0
  2  3  1  0
  3  4  2  0
  3  5  1  0
  5  6  1  0
  6  7  1  0
  7  8  2  0
  8  9  1  0
  9 10  1  0
 10 11  2  0
 11 12  1  0
 12 13  2  0
 13 14  1  0
 14 15  1  0
 15 16  1  0
 16 17  1  0
 17 18  1  0
 18 19  1  0
 13 20  1  0
 20 21  2  0
  9 22  2  0
 22 23  1  0
 23 24  1  0
 24 25  2  0
 25 26  1  0
 26 27  2  0
 27 28  1  0
 28 29  1  0
 29 30  1  0
 30 31  1  0
 31 32  1  0
 32 33  1  0
 27 34  1  0
 34 35  2  0
 23 36  2  0
 36 37  1  0
 37 38  3  0
 36  7  1  0
 21 10  1  0
 35 24  1  0
 19 14  1  0
 33 28  1  0
M  END
>  <Binding energies>  (19) 
[-9.95]

>  <Ligand effiencies>  (19) 
[-0.2618421052631579]

>  <Interactions>  (19) 
["V-B:GLU:543:CG:9879, H-B:TYR:484:OH:9319, V-A:GLU:543:CG:4907, V-B:TYR:484:CZ:9318, V-B:GLU:543:CD:9880, V-A:GLU:543:CD:4908, V-B:GLU:543:C:9874, V-B:GLU:543:CB:9878, V-B:HIS:456:CE1:9041, V-A:GLU:543:CB:4906, V-A:GLU:543:C:4902, V-A:HIS:456:CE1:4070, V-B:TYR:484:CE2:9317, V-A:GLY:544:C:4912, V-A:ILE:538:CA:4860, H-A:TYR:539:N:4870, V-A:MET:535:CE:4835, V-A:TYR:539:CE1:4875, V-A:TYR:539:CD1:4873, V-A:TYR:539:C:4867, V-A:PRO:540:N:4884, V-A:PRO:540:CA:4883, V-B:LEU:363:CD1:8160, V-B:PRO:540:N:9856, V-B:PRO:540:CA:9855, V-B:PRO:540:CB:9857, V-B:PRO:540:CD:9859, V-B:TYR:539:CE1:9847, V-B:TYR:539:CD1:9845, H-B:TYR:539:N:9842, V-B:TYR:539:CE2:9848, V-B:TYR:539:CG:9844, V-B:TYR:539:CZ:9849, V-B:MET:535:CE:9807, V-B:ILE:538:CG2:9835, V-B:ILE:538:CA:9832, V-B:PRO:540:CG:9858"]

$$$$
2d_Grossjean_2025
     RDKit          3D

 24 25  0  0  0  0  0  0  0  0999 V2000
  129.2700  122.7240   61.2620 C   0  0  0  0  0  0  0  0  0  0  0  0
  129.1200  123.3860   59.9050 C   0  0  0  0  0  0  0  0  0  0  0  0
  128.2420  122.8890   58.9440 C   0  0  0  0  0  0  0  0  0  0  0  0
  128.1360  123.5400   57.7060 C   0  0  0  0  0  0  0  0  0  0  0  0
  127.1520  122.9820   56.6590 C   0  0  0  0  0  0  0  0  0  0  0  0
  127.7650  122.8510   55.4820 F   0  0  0  0  0  0  0  0  0  0  0  0
  126.7010  121.7870   57.0460 F   0  0  0  0  0  0  0  0  0  0  0  0
  126.0920  123.7700   56.4750 F   0  0  0  0  0  0  0  0  0  0  0  0
  128.9380  124.6860   57.4710 C   0  0  0  0  0  0  0  0  0  0  0  0
  128.8300  125.4270   56.2120 C   0  0  0  0  0  0  0  0  0  0  0  0
  128.7430  126.0140   55.2180 N   0  0  0  0  0  0  0  0  0  0  0  0
  129.8190  125.1030   58.4960 C   0  0  0  0  0  0  0  0  0  0  0  0
  130.9180  126.5000   58.3570 S   0  0  0  0  0  0  0  0  0  0  0  0
  132.4910  125.9370   57.6250 C   0  0  0  0  0  0  0  0  0  0  0  0
  133.1020  124.7430   58.3630 C   0  0  0  0  0  0  0  0  0  0  0  0
  133.9060  124.0210   57.7720 O   0  0  0  0  0  0  0  0  0  0  0  0
  132.6730  124.5580   59.6290 N   0  0  0  0  0  0  0  0  0  0  0  0
  133.0440  123.5660   60.5570 C   0  0  0  0  0  0  0  0  0  0  0  0
  133.4380  124.0220   61.8170 C   0  0  0  0  0  0  0  0  0  0  0  0
  133.8280  123.1180   62.8010 C   0  0  0  0  0  0  0  0  0  0  0  0
  133.8340  121.7530   62.5200 C   0  0  0  0  0  0  0  0  0  0  0  0
  133.4560  121.2880   61.2640 C   0  0  0  0  0  0  0  0  0  0  0  0
  133.0640  122.1890   60.2790 C   0  0  0  0  0  0  0  0  0  0  0  0
  129.8940  124.4750   59.6950 N   0  0  0  0  0  0  0  0  0  0  0  0
  1  2  1  0
  2  3  2  0
  3  4  1  0
  4  5  1  0
  5  6  1  0
  5  7  1  0
  5  8  1  0
  4  9  2  0
  9 10  1  0
 10 11  3  0
  9 12  1  0
 12 13  1  0
 13 14  1  0
 14 15  1  0
 15 16  2  0
 15 17  1  0
 17 18  1  0
 18 19  2  0
 19 20  1  0
 20 21  2  0
 21 22  1  0
 22 23  2  0
 12 24  2  0
 24  2  1  0
 23 18  1  0
M  END
>  <Binding energies>  (20) 
[-6.35]

>  <Ligand effiencies>  (20) 
[-0.254]

>  <Interactions>  (20) 
["V-A:LEU:475:CD2:4259, V-A:ASP:366:CG:3213, V-B:PRO:540:N:9856, V-A:TYR:531:CZ:4794, V-B:PRO:540:CA:9855, V-B:PRO:540:CB:9857, V-B:TYR:539:C:9839, H-A:TYR:531:OH:4795, V-B:PRO:540:CD:9859, H-B:TYR:539:OH:9850, V-B:TYR:539:CE1:9847, V-B:TYR:539:CD1:9845, V-A:ASP:366:CB:3212, V-A:ASP:366:CA:3210, V-B:TYR:539:CE2:9848, V-A:ILE:369:CG2:3237, V-B:TYR:539:CD2:9846, V-B:TYR:539:CG:9844, V-B:TYR:539:CZ:9849, V-B:MET:535:CE:9807, V-B:TYR:539:CA:9841, H-A:ASN:370:N:3244, V-A:ASP:366:C:3208, V-A:SER:385:CB:3409, V-A:GLY:454:CA:4049"]

$$$$
2e_Grossjean_2025
     RDKit          3D

 25 26  0  0  0  0  0  0  0  0999 V2000
  130.6960  131.8710   62.6910 C   0  0  0  0  0  0  0  0  0  0  0  0
  131.6680  131.7450   61.5330 C   0  0  0  0  0  0  0  0  0  0  0  0
  133.0460  131.6550   61.7420 C   0  0  0  0  0  0  0  0  0  0  0  0
  133.8790  131.5300   60.6290 C   0  0  0  0  0  0  0  0  0  0  0  0
  133.3210  131.5000   59.3490 C   0  0  0  0  0  0  0  0  0  0  0  0
  131.9320  131.6050   59.2110 C   0  0  0  0  0  0  0  0  0  0  0  0
  131.4210  131.5260   57.9040 N   0  0  0  0  0  0  0  0  0  0  0  0
  131.1340  132.5400   57.0580 C   0  0  0  0  0  0  0  0  0  0  0  0
  131.3530  133.7320   57.2840 O   0  0  0  0  0  0  0  0  0  0  0  0
  130.4470  132.1420   55.7490 C   0  0  0  0  0  0  0  0  0  0  0  0
  128.8400  132.9740   55.5390 S   0  0  0  0  0  0  0  0  0  0  0  0
  127.8960  132.5550   56.9880 C   0  0  0  0  0  0  0  0  0  0  0  0
  128.4350  132.9810   58.1570 N   0  0  0  0  0  0  0  0  0  0  0  0
  127.8040  132.6670   59.3110 C   0  0  0  0  0  0  0  0  0  0  0  0
  128.4600  133.1750   60.5800 C   0  0  0  0  0  0  0  0  0  0  0  0
  126.6290  131.9180   59.3470 C   0  0  0  0  0  0  0  0  0  0  0  0
  126.0640  131.4610   58.1470 C   0  0  0  0  0  0  0  0  0  0  0  0
  124.7770  130.6170   58.2040 C   0  0  0  0  0  0  0  0  0  0  0  0
  125.0640  129.3300   58.0020 F   0  0  0  0  0  0  0  0  0  0  0  0
  124.1990  130.7490   59.3980 F   0  0  0  0  0  0  0  0  0  0  0  0
  123.8830  130.9780   57.2810 F   0  0  0  0  0  0  0  0  0  0  0  0
  126.7100  131.7870   56.9280 C   0  0  0  0  0  0  0  0  0  0  0  0
  126.1860  131.3150   55.6430 C   0  0  0  0  0  0  0  0  0  0  0  0
  125.7730  130.9410   54.6280 N   0  0  0  0  0  0  0  0  0  0  0  0
  131.1110  131.7190   60.2950 N   0  0  0  0  0  0  0  0  0  0  0  0
  1  2  1  0
  2  3  2  0
  3  4  1  0
  4  5  2  0
  5  6  1  0
  6  7  1  0
  7  8  1  0
  8  9  2  0
  8 10  1  0
 10 11  1  0
 11 12  1  0
 12 13  2  0
 13 14  1  0
 14 15  1  0
 14 16  2  0
 16 17  1  0
 17 18  1  0
 18 19  1  0
 18 20  1  0
 18 21  1  0
 17 22  2  0
 22 23  1  0
 23 24  3  0
  6 25  2  0
 25  2  1  0
 22 12  1  0
M  END
>  <Binding energies>  (21) 
[-6.87]

>  <Ligand effiencies>  (21) 
[-0.2642307692307692]

>  <Interactions>  (21) 
["V-A:GLU:543:CG:4907, V-A:GLU:543:CD:4908, V-A:ALA:541:CB:4892, V-B:TYR:531:CZ:9766, V-A:ILE:538:CB:4862, V-A:ILE:538:CA:4860, V-B:ILE:369:CG2:8208, V-A:TYR:539:CG:4872, H-A:TYR:539:N:4870, V-B:ASP:366:CB:8183, V-A:MET:535:CE:4835, V-B:ASP:366:CA:8181, V-A:LEU:363:CD1:3189, H-A:TYR:539:OH:4878, V-A:TYR:539:CE1:4875, V-B:ASP:366:CG:8184, V-A:TYR:539:CD1:4873, V-A:TYR:539:CE2:4876, V-A:TYR:539:CZ:4877, H-B:TYR:531:OH:9767, V-A:ILE:538:CG2:4863, V-A:ALA:541:CA:4890, V-A:TYR:539:C:4867, V-A:PRO:540:N:4884, V-A:PRO:540:CA:4883, V-A:PRO:540:CB:4885, V-A:ASP:366:CG:3213, V-A:ASN:362:C:3172, V-A:ASN:362:CB:3176, V-A:LEU:363:CA:3185, V-A:LEU:363:CB:3187, H-A:TYR:531:OH:4795, V-B:ASP:366:C:8179"]

$$$$
2f_Grossjean_2025
     RDKit          3D

 24 25  0  0  0  0  0  0  0  0999 V2000
  125.6830  131.1020   58.0280 C   0  0  0  0  0  0  0  0  0  0  0  0
  125.3450  130.9320   59.4970 C   0  0  0  0  0  0  0  0  0  0  0  0
  124.0350  131.0290   59.9620 C   0  0  0  0  0  0  0  0  0  0  0  0
  123.7750  130.8720   61.3320 C   0  0  0  0  0  0  0  0  0  0  0  0
  122.3210  130.9960   61.8270 C   0  0  0  0  0  0  0  0  0  0  0  0
  121.4730  130.7280   60.8310 F   0  0  0  0  0  0  0  0  0  0  0  0
  122.1050  130.1350   62.8220 F   0  0  0  0  0  0  0  0  0  0  0  0
  122.0310  132.2170   62.2810 F   0  0  0  0  0  0  0  0  0  0  0  0
  124.8630  130.6090   62.2030 C   0  0  0  0  0  0  0  0  0  0  0  0
  124.6500  130.4940   63.6480 C   0  0  0  0  0  0  0  0  0  0  0  0
  124.4810  130.4010   64.7890 N   0  0  0  0  0  0  0  0  0  0  0  0
  126.1570  130.5010   61.6380 C   0  0  0  0  0  0  0  0  0  0  0  0
  127.6320  130.1640   62.5790 S   0  0  0  0  0  0  0  0  0  0  0  0
  128.5140  131.7410   62.8310 C   0  0  0  0  0  0  0  0  0  0  0  0
  129.5820  132.0660   61.7770 C   0  0  0  0  0  0  0  0  0  0  0  0
  130.7390  132.3220   62.1130 O   0  0  0  0  0  0  0  0  0  0  0  0
  129.1320  132.0600   60.5040 N   0  0  0  0  0  0  0  0  0  0  0  0
  129.8320  132.3010   59.3060 C   0  0  0  0  0  0  0  0  0  0  0  0
  131.1220  131.8280   59.0050 C   0  0  0  0  0  0  0  0  0  0  0  0
  131.7020  132.1360   57.7730 C   0  0  0  0  0  0  0  0  0  0  0  0
  130.9740  132.9080   56.8670 C   0  0  0  0  0  0  0  0  0  0  0  0
  129.7250  133.3700   57.1290 N   0  0  0  0  0  0  0  0  0  0  0  0
  129.1750  133.0610   58.3310 C   0  0  0  0  0  0  0  0  0  0  0  0
  126.3920  130.6780   60.3160 N   0  0  0  0  0  0  0  0  0  0  0  0
  1  2  1  0
  2  3  2  0
  3  4  1  0
  4  5  1  0
  5  6  1  0
  5  7  1  0
  5  8  1  0
  4  9  2  0
  9 10  1  0
 10 11  3  0
  9 12  1  0
 12 13  1  0
 13 14  1  0
 14 15  1  0
 15 16  2  0
 15 17  1  0
 17 18  1  0
 18 19  2  0
 19 20  1  0
 20 21  2  0
 21 22  1  0
 22 23  2  0
 12 24  2  0
 24  2  1  0
 23 18  1  0
M  END
>  <Binding energies>  (22) 
[-6.44]

>  <Ligand effiencies>  (22) 
[-0.2576]

>  <Interactions>  (22) 
["H-B:TYR:484:OH:9319, V-B:ARG:545:CZ:9898, V-A:ILE:538:CB:4862, V-A:ILE:538:CA:4860, V-B:ILE:369:CG2:8208, V-B:GLY:454:CA:9020, H-A:TYR:539:N:4870, V-B:ASP:366:CB:8183, V-B:ASP:366:CA:8181, V-A:LEU:363:CD1:3189, V-B:ILE:369:CB:8207, V-A:TYR:539:CE1:4875, V-B:ASP:366:CG:8184, V-A:TYR:539:CD1:4873, V-A:TYR:539:CZ:4877, H-A:ALA:541:N:4891, V-A:TYR:539:C:4867, V-A:PRO:540:N:4884, V-A:PRO:540:CA:4883, V-A:PRO:540:CB:4885, V-A:PRO:540:CD:4887, H-B:GLY:454:N:9021, V-B:ILE:369:CG1:8209, V-B:GLY:453:C:9013, V-B:ILE:369:CD1:8210, V-B:GLY:453:CA:9015, V-B:CYS:365:C:8175"]

$$$$
2g_Grossjean_2025
     RDKit          3D

 25 26  0  0  0  0  0  0  0  0999 V2000
  126.2430  128.6930   58.6010 C   0  0  0  0  0  0  0  0  0  0  0  0
  126.3860  127.2500   58.1550 C   0  0  0  0  0  0  0  0  0  0  0  0
  127.5640  126.7770   57.5820 C   0  0  0  0  0  0  0  0  0  0  0  0
  127.6440  125.4350   57.1790 C   0  0  0  0  0  0  0  0  0  0  0  0
  128.9530  124.9320   56.5380 C   0  0  0  0  0  0  0  0  0  0  0  0
  129.7300  124.3630   57.4620 F   0  0  0  0  0  0  0  0  0  0  0  0
  128.6770  124.0330   55.5930 F   0  0  0  0  0  0  0  0  0  0  0  0
  129.6600  125.9110   55.9700 F   0  0  0  0  0  0  0  0  0  0  0  0
  126.5170  124.5980   57.3780 C   0  0  0  0  0  0  0  0  0  0  0  0
  126.5280  123.2050   56.9230 C   0  0  0  0  0  0  0  0  0  0  0  0
  126.5380  122.1050   56.5640 N   0  0  0  0  0  0  0  0  0  0  0  0
  125.3730  125.1590   57.9960 C   0  0  0  0  0  0  0  0  0  0  0  0
  123.8840  124.2470   58.3430 S   0  0  0  0  0  0  0  0  0  0  0  0
  123.8060  123.9910   60.1480 C   0  0  0  0  0  0  0  0  0  0  0  0
  125.1720  123.8960   60.8420 C   0  0  0  0  0  0  0  0  0  0  0  0
  125.5070  122.8860   61.4640 O   0  0  0  0  0  0  0  0  0  0  0  0
  125.9570  124.9820   60.7260 N   0  0  0  0  0  0  0  0  0  0  0  0
  127.2990  125.1250   61.2910 C   0  0  0  0  0  0  0  0  0  0  0  0
  128.0960  123.8260   61.3540 C   0  0  0  0  0  0  0  0  0  0  0  0
  128.3590  123.1140   60.1800 C   0  0  0  0  0  0  0  0  0  0  0  0
  129.1200  121.9480   60.2290 C   0  0  0  0  0  0  0  0  0  0  0  0
  129.6220  121.5030   61.4490 C   0  0  0  0  0  0  0  0  0  0  0  0
  129.3740  122.2160   62.6220 C   0  0  0  0  0  0  0  0  0  0  0  0
  128.6150  123.3820   62.5730 C   0  0  0  0  0  0  0  0  0  0  0  0
  125.3050  126.4640   58.3580 N   0  0  0  0  0  0  0  0  0  0  0  0
  1  2  1  0
  2  3  2  0
  3  4  1  0
  4  5  1  0
  5  6  1  0
  5  7  1  0
  5  8  1  0
  4  9  2  0
  9 10  1  0
 10 11  3  0
  9 12  1  0
 12 13  1  0
 13 14  1  0
 14 15  1  0
 15 16  2  0
 15 17  1  0
 17 18  1  0
 18 19  1  0
 19 20  2  0
 20 21  1  0
 21 22  2  0
 22 23  1  0
 23 24  2  0
 12 25  2  0
 25  2  1  0
 24 19  1  0
M  END
>  <Binding energies>  (23) 
[-6.62]

>  <Ligand effiencies>  (23) 
[-0.25461538461538463]

>  <Interactions>  (23) 
["V-B:GLU:543:CG:9879, V-B:GLU:543:CD:9880, V-B:ALA:541:CB:9864, V-A:LEU:475:CD2:4259, V-B:TYR:531:CZ:9766, V-B:ASP:366:CG:8184, H-B:TYR:531:OH:9767, V-B:PRO:540:CA:9855, V-B:PRO:540:CB:9857, V-B:TYR:539:C:9839, V-B:TYR:539:CE1:9847, V-B:TYR:539:CD1:9845, V-B:LEU:363:CA:8156, H-B:ASP:366:OD1:8185, H-B:TYR:539:N:9842, V-B:ASN:362:CB:8147, V-B:ASN:362:C:8143, V-B:TYR:539:CE2:9848, H-B:GLU:543:OE1:9881, V-B:TYR:531:CE2:9765, V-B:TYR:539:CD2:9846, V-B:TYR:539:CZ:9849, H-B:ALA:541:N:9863, V-B:LEU:363:CB:8158"]

$$$$
2h_Grossjean_2025
     RDKit          3D

 31 32  0  0  0  0  0  0  0  0999 V2000
  131.6890  132.4420   56.2510 C   0  0  0  0  0  0  0  0  0  0  0  0
  130.9640  131.4430   56.9600 O   0  0  0  0  0  0  0  0  0  0  0  0
  130.6770  131.6350   58.3000 C   0  0  0  0  0  0  0  0  0  0  0  0
  131.2820  130.9140   59.3410 C   0  0  0  0  0  0  0  0  0  0  0  0
  130.9470  131.1690   60.6690 C   0  0  0  0  0  0  0  0  0  0  0  0
  130.0030  132.1470   60.9860 C   0  0  0  0  0  0  0  0  0  0  0  0
  129.6670  132.4220   62.4510 C   0  0  0  0  0  0  0  0  0  0  0  0
  129.2440  131.2330   63.1900 N   0  0  0  0  0  0  0  0  0  0  0  0
  128.1990  131.1810   64.0350 C   0  0  0  0  0  0  0  0  0  0  0  0
  127.5290  132.1690   64.3410 O   0  0  0  0  0  0  0  0  0  0  0  0
  127.8750  129.7930   64.6040 C   0  0  0  0  0  0  0  0  0  0  0  0
  127.4210  128.5370   63.3610 S   0  0  0  0  0  0  0  0  0  0  0  0
  126.4600  129.3700   62.1170 C   0  0  0  0  0  0  0  0  0  0  0  0
  127.0130  129.3240   60.8790 N   0  0  0  0  0  0  0  0  0  0  0  0
  126.3740  129.9420   59.8610 C   0  0  0  0  0  0  0  0  0  0  0  0
  127.0540  129.8560   58.5080 C   0  0  0  0  0  0  0  0  0  0  0  0
  125.1680  130.6200   60.0300 C   0  0  0  0  0  0  0  0  0  0  0  0
  124.5710  130.6610   61.2990 C   0  0  0  0  0  0  0  0  0  0  0  0
  123.2330  131.4080   61.4640 C   0  0  0  0  0  0  0  0  0  0  0  0
  122.6220  131.5130   60.2840 F   0  0  0  0  0  0  0  0  0  0  0  0
  122.3930  130.7850   62.2950 F   0  0  0  0  0  0  0  0  0  0  0  0
  123.4470  132.6300   61.9520 F   0  0  0  0  0  0  0  0  0  0  0  0
  125.2250  130.0110   62.3760 C   0  0  0  0  0  0  0  0  0  0  0  0
  124.6140  129.9740   63.7080 C   0  0  0  0  0  0  0  0  0  0  0  0
  124.1280  129.9440   64.7570 N   0  0  0  0  0  0  0  0  0  0  0  0
  129.3720  132.8580   59.9540 C   0  0  0  0  0  0  0  0  0  0  0  0
  128.4380  133.8200   60.2590 O   0  0  0  0  0  0  0  0  0  0  0  0
  127.1570  133.3070   60.5990 C   0  0  0  0  0  0  0  0  0  0  0  0
  129.7250  132.6130   58.6170 C   0  0  0  0  0  0  0  0  0  0  0  0
  129.1230  133.3210   57.6040 O   0  0  0  0  0  0  0  0  0  0  0  0
  128.1850  132.5690   56.8470 C   0  0  0  0  0  0  0  0  0  0  0  0
  1  2  1  0
  2  3  1  0
  3  4  2  0
  4  5  1  0
  5  6  2  0
  6  7  1  0
  7  8  1  0
  8  9  1  0
  9 10  2  0
  9 11  1  0
 11 12  1  0
 12 13  1  0
 13 14  2  0
 14 15  1  0
 15 16  1  0
 15 17  2  0
 17 18  1  0
 18 19  1  0
 19 20  1  0
 19 21  1  0
 19 22  1  0
 18 23  2  0
 23 24  1  0
 24 25  3  0
  6 26  1  0
 26 27  1  0
 27 28  1  0
 26 29  2  0
 29 30  1  0
 30 31  1  0
 29  3  1  0
 23 13  1  0
M  END
>  <Binding energies>  (24) 
[-6.26]

>  <Ligand effiencies>  (24) 
[-0.195625]

>  <Interactions>  (24) 
["H-B:TYR:484:OH:9319, V-A:GLU:543:CG:4907, V-B:ARG:545:CZ:9898, V-A:GLU:543:CD:4908, V-A:ALA:541:CB:4892, V-A:ILE:538:CB:4862, V-B:ILE:369:CG2:8208, V-A:TYR:539:CG:4872, H-A:TYR:539:N:4870, V-A:MET:535:CE:4835, V-B:ASP:366:CA:8181, V-A:LEU:363:CD1:3189, V-B:ILE:369:CB:8207, V-A:TYR:539:CE1:4875, V-B:ASP:366:CG:8184, V-A:TYR:539:CD1:4873, V-A:TYR:539:CZ:4877, V-A:ILE:538:CG2:4863, V-A:ALA:541:CA:4890, V-A:TYR:539:C:4867, V-A:PRO:540:N:4884, V-A:PRO:540:CA:4883, H-A:GLU:543:OE1:4909, H-B:ARG:545:NH2:9900, H-B:GLY:454:N:9021, V-B:ILE:369:CG1:8209, H-B:ARG:545:NE:9896, V-B:GLY:453:C:9013, V-B:GLY:453:CA:9015"]

$$$$
2i_Grossjean_2025
     RDKit          3D

 23 24  0  0  0  0  0  0  0  0999 V2000
  132.7160  131.4380   62.5270 C   0  0  0  0  0  0  0  0  0  0  0  0
  131.8530  131.7270   61.3120 C   0  0  0  0  0  0  0  0  0  0  0  0
  132.3170  131.5030   60.0180 C   0  0  0  0  0  0  0  0  0  0  0  0
  131.4800  131.7830   58.9280 C   0  0  0  0  0  0  0  0  0  0  0  0
  132.0080  131.5310   57.5030 C   0  0  0  0  0  0  0  0  0  0  0  0
  131.1220  130.8160   56.8080 F   0  0  0  0  0  0  0  0  0  0  0  0
  132.2140  132.6910   56.8790 F   0  0  0  0  0  0  0  0  0  0  0  0
  133.1630  130.8600   57.4920 F   0  0  0  0  0  0  0  0  0  0  0  0
  130.1800  132.2890   59.1850 C   0  0  0  0  0  0  0  0  0  0  0  0
  129.2630  132.5970   58.0830 C   0  0  0  0  0  0  0  0  0  0  0  0
  128.5380  132.8410   57.2130 N   0  0  0  0  0  0  0  0  0  0  0  0
  129.7920  132.4880   60.5300 C   0  0  0  0  0  0  0  0  0  0  0  0
  128.1840  133.1260   60.9730 S   0  0  0  0  0  0  0  0  0  0  0  0
  128.2300  133.6040   62.7270 C   0  0  0  0  0  0  0  0  0  0  0  0
  127.5450  132.5740   63.6270 C   0  0  0  0  0  0  0  0  0  0  0  0
  128.0230  132.3370   64.7370 O   0  0  0  0  0  0  0  0  0  0  0  0
  126.4550  131.9700   63.1060 N   0  0  0  0  0  0  0  0  0  0  0  0
  125.6790  130.9970   63.7140 C   0  0  0  0  0  0  0  0  0  0  0  0
  126.0610  129.8280   64.3880 C   0  0  0  0  0  0  0  0  0  0  0  0
  124.8760  129.2500   64.7830 C   0  0  0  0  0  0  0  0  0  0  0  0
  123.8450  130.0290   64.3770 O   0  0  0  0  0  0  0  0  0  0  0  0
  124.3710  131.1350   63.7060 N   0  0  0  0  0  0  0  0  0  0  0  0
  130.6170  132.2090   61.5710 N   0  0  0  0  0  0  0  0  0  0  0  0
  1  2  1  0
  2  3  2  0
  3  4  1  0
  4  5  1  0
  5  6  1  0
  5  7  1  0
  5  8  1  0
  4  9  2  0
  9 10  1  0
 10 11  3  0
  9 12  1  0
 12 13  1  0
 13 14  1  0
 14 15  1  0
 15 16  2  0
 15 17  1  0
 17 18  1  0
 18 19  1  0
 19 20  2  0
 20 21  1  0
 21 22  1  0
 12 23  2  0
 23  2  1  0
 22 18  2  0
M  END
>  <Binding energies>  (25) 
[-6.99]

>  <Ligand effiencies>  (25) 
[-0.29125]

>  <Interactions>  (25) 
["H-B:TYR:484:OH:9319, V-A:GLU:543:CG:4907, V-B:ARG:545:CZ:9898, V-A:GLU:543:CD:4908, V-A:ALA:541:CB:4892, V-B:LEU:475:CD2:9230, V-A:ILE:538:CB:4862, V-A:MET:535:CE:4835, V-A:LEU:363:CD1:3189, V-A:PRO:540:C:4881, H-A:ALA:541:N:4891, V-A:TYR:539:C:4867, V-A:PRO:540:N:4884, V-A:PRO:540:CA:4883, V-A:PRO:540:CB:4885, V-A:PRO:540:CD:4887, V-A:ASN:362:CB:3176, V-A:TYR:531:CE2:4793, V-A:TYR:531:CZ:4794, V-A:ASP:366:CB:3212, H-B:ARG:545:NH1:9899, H-B:ARG:545:NH2:9900, H-B:GLY:454:N:9021, H-B:ARG:545:NE:9896, V-B:ARG:545:CD:9895"]

$$$$
2k_Grossjean_2025
     RDKit          3D

 28 28  0  0  0  0  0  0  0  0999 V2000
  127.8670  140.5250   62.8280 C   0  0  0  0  0  0  0  0  0  0  0  0
  127.5660  139.1780   63.1610 O   0  0  0  0  0  0  0  0  0  0  0  0
  128.1570  138.2320   62.2790 C   0  0  0  0  0  0  0  0  0  0  0  0
  127.8690  138.6270   60.8250 C   0  0  0  0  0  0  0  0  0  0  0  0
  126.7620  137.8750   60.3510 O   0  0  0  0  0  0  0  0  0  0  0  0
  126.5310  136.6640   61.0610 C   0  0  0  0  0  0  0  0  0  0  0  0
  125.0580  136.6260   61.4890 C   0  0  0  0  0  0  0  0  0  0  0  0
  124.4750  135.4560   60.9350 O   0  0  0  0  0  0  0  0  0  0  0  0
  123.4540  134.8600   61.7210 C   0  0  0  0  0  0  0  0  0  0  0  0
  124.0820  133.7770   62.6170 C   0  0  0  0  0  0  0  0  0  0  0  0
  125.5350  133.6760   62.4600 N   0  0  0  0  0  0  0  0  0  0  0  0
  126.3140  132.7110   62.9840 C   0  0  0  0  0  0  0  0  0  0  0  0
  125.8740  131.7680   63.6450 O   0  0  0  0  0  0  0  0  0  0  0  0
  127.8210  132.8590   62.7280 C   0  0  0  0  0  0  0  0  0  0  0  0
  128.2800  133.3980   61.0440 S   0  0  0  0  0  0  0  0  0  0  0  0
  129.8390  132.6540   60.5860 C   0  0  0  0  0  0  0  0  0  0  0  0
  130.6670  132.3410   61.6160 N   0  0  0  0  0  0  0  0  0  0  0  0
  131.8660  131.7790   61.3420 C   0  0  0  0  0  0  0  0  0  0  0  0
  132.7370  131.4700   62.5440 C   0  0  0  0  0  0  0  0  0  0  0  0
  132.2840  131.4950   60.0450 C   0  0  0  0  0  0  0  0  0  0  0  0
  131.4410  131.8020   58.9660 C   0  0  0  0  0  0  0  0  0  0  0  0
  131.9180  131.4770   57.5370 C   0  0  0  0  0  0  0  0  0  0  0  0
  132.0260  132.5620   56.7690 F   0  0  0  0  0  0  0  0  0  0  0  0
  133.1160  130.8920   57.5780 F   0  0  0  0  0  0  0  0  0  0  0  0
  131.0540  130.6510   56.9450 F   0  0  0  0  0  0  0  0  0  0  0  0
  130.1840  132.4000   59.2380 C   0  0  0  0  0  0  0  0  0  0  0  0
  129.2650  132.7450   58.1480 C   0  0  0  0  0  0  0  0  0  0  0  0
  128.5400  133.0170   57.2880 N   0  0  0  0  0  0  0  0  0  0  0  0
  1  2  1  0
  2  3  1  0
  3  4  1  0
  4  5  1  0
  5  6  1  0
  6  7  1  0
  7  8  1  0
  8  9  1  0
  9 10  1  0
 10 11  1  0
 11 12  1  0
 12 13  2  0
 12 14  1  0
 14 15  1  0
 15 16  1  0
 16 17  2  0
 17 18  1  0
 18 19  1  0
 18 20  2  0
 20 21  1  0
 21 22  1  0
 22 23  1  0
 22 24  1  0
 22 25  1  0
 21 26  2  0
 26 27  1  0
 27 28  3  0
 26 16  1  0
M  END
>  <Binding energies>  (26) 
[-6.06]

>  <Ligand effiencies>  (26) 
[-0.2089655172413793]

>  <Interactions>  (26) 
["H-B:TYR:484:OH:9319, V-A:GLU:543:CG:4907, V-A:GLU:543:CD:4908, V-A:ALA:541:CB:4892, V-B:LEU:475:CD2:9230, V-A:ILE:538:CB:4862, V-B:ILE:369:CG2:8208, V-A:TYR:539:CG:4872, V-B:GLY:454:CA:9020, H-A:TYR:539:N:4870, V-A:MET:535:CE:4835, V-A:LEU:363:CD1:3189, V-A:TYR:539:CD1:4873, V-A:ILE:538:CG2:4863, V-A:VAL:344:CG1:3001, V-A:PRO:540:C:4881, H-A:ALA:541:N:4891, V-A:TYR:539:C:4867, V-A:PRO:540:N:4884, V-B:PRO:482:CB:9297, H-B:HIS:383:NE2:8365, V-B:HIS:383:CE1:8364, V-A:PRO:540:CA:4883, V-A:PRO:540:CB:4885, V-B:SER:385:CB:8380, V-A:PRO:540:CD:4887, V-A:ASN:362:CB:3176, V-A:TYR:531:CE2:4793, V-A:TYR:531:CZ:4794, V-A:TYR:539:CA:4869, V-A:TYR:539:CB:4871, V-A:ASP:366:CB:3212, V-B:SER:385:C:8376, V-B:SER:385:CA:8378"]

$$$$
3aa_Grossjean_2025
     RDKit          3D

 34 36  0  0  0  0  0  0  0  0999 V2000
  127.7460  140.0560   62.8660 C   0  0  0  0  0  0  0  0  0  0  0  0
  127.8960  138.7670   62.0530 C   0  0  0  0  0  0  0  0  0  0  0  0
  126.6560  138.0690   62.0390 O   0  0  0  0  0  0  0  0  0  0  0  0
  126.3600  137.1910   61.0470 C   0  0  0  0  0  0  0  0  0  0  0  0
  125.8580  137.5260   59.9690 O   0  0  0  0  0  0  0  0  0  0  0  0
  126.6900  135.7670   61.3950 C   0  0  0  0  0  0  0  0  0  0  0  0
  127.8630  135.4230   62.0840 C   0  0  0  0  0  0  0  0  0  0  0  0
  128.1350  134.0940   62.3950 C   0  0  0  0  0  0  0  0  0  0  0  0
  127.2410  133.0850   62.0330 C   0  0  0  0  0  0  0  0  0  0  0  0
  127.6100  131.7750   62.3990 N   0  0  0  0  0  0  0  0  0  0  0  0
  127.8840  131.2670   63.6210 C   0  0  0  0  0  0  0  0  0  0  0  0
  127.8790  131.9030   64.6760 O   0  0  0  0  0  0  0  0  0  0  0  0
  128.2360  129.7800   63.6530 C   0  0  0  0  0  0  0  0  0  0  0  0
  127.8710  128.9650   62.0690 S   0  0  0  0  0  0  0  0  0  0  0  0
  126.3690  129.6870   61.4450 C   0  0  0  0  0  0  0  0  0  0  0  0
  126.4250  130.0060   60.1300 N   0  0  0  0  0  0  0  0  0  0  0  0
  125.3450  130.5670   59.5270 C   0  0  0  0  0  0  0  0  0  0  0  0
  125.4800  130.8770   58.0670 C   0  0  0  0  0  0  0  0  0  0  0  0
  126.7190  131.2610   57.5290 C   0  0  0  0  0  0  0  0  0  0  0  0
  126.8530  131.5490   56.1730 C   0  0  0  0  0  0  0  0  0  0  0  0
  125.7460  131.4580   55.3360 C   0  0  0  0  0  0  0  0  0  0  0  0
  124.5080  131.0770   55.8440 C   0  0  0  0  0  0  0  0  0  0  0  0
  124.3790  130.7870   57.1990 C   0  0  0  0  0  0  0  0  0  0  0  0
  124.1700  130.8140   60.2440 C   0  0  0  0  0  0  0  0  0  0  0  0
  124.0950  130.5080   61.6110 C   0  0  0  0  0  0  0  0  0  0  0  0
  122.7870  130.8060   62.3680 C   0  0  0  0  0  0  0  0  0  0  0  0
  122.5650  129.9570   63.3740 F   0  0  0  0  0  0  0  0  0  0  0  0
  122.8240  132.0340   62.8860 F   0  0  0  0  0  0  0  0  0  0  0  0
  121.7500  130.7210   61.5340 F   0  0  0  0  0  0  0  0  0  0  0  0
  125.2290  129.9390   62.2390 C   0  0  0  0  0  0  0  0  0  0  0  0
  125.2270  129.6530   63.6770 C   0  0  0  0  0  0  0  0  0  0  0  0
  125.2260  129.4270   64.8130 N   0  0  0  0  0  0  0  0  0  0  0  0
  126.0730  133.4200   61.3320 C   0  0  0  0  0  0  0  0  0  0  0  0
  125.8040  134.7490   61.0200 C   0  0  0  0  0  0  0  0  0  0  0  0
  1  2  1  0
  2  3  1  0
  3  4  1  0
  4  5  2  0
  4  6  1  0
  6  7  2  0
  7  8  1  0
  8  9  2  0
  9 10  1  0
 10 11  1  0
 11 12  2  0
 11 13  1  0
 13 14  1  0
 14 15  1  0
 15 16  2  0
 16 17  1  0
 17 18  1  0
 18 19  2  0
 19 20  1  0
 20 21  2  0
 21 22  1  0
 22 23  2  0
 17 24  2  0
 24 25  1  0
 25 26  1  0
 26 27  1  0
 26 28  1  0
 26 29  1  0
 25 30  2  0
 30 31  1  0
 31 32  3  0
  9 33  1  0
 33 34  2  0
 34  6  1  0
 30 15  1  0
 23 18  1  0
M  END
>  <Binding energies>  (27) 
[-7.9]

>  <Ligand effiencies>  (27) 
[-0.22571428571428573]

>  <Interactions>  (27) 
["H-B:TYR:484:OH:9319, V-A:GLU:543:CG:4907, V-B:ARG:545:CZ:9898, V-A:GLU:543:CD:4908, V-A:ALA:541:CB:4892, V-B:LEU:475:CD2:9230, V-B:TYR:531:CZ:9766, V-B:GLY:454:CA:9020, V-B:ASP:366:CB:8183, V-B:TYR:531:CE1:9764, V-A:MET:535:CE:4835, V-B:ASP:366:CA:8181, V-B:ILE:369:CB:8207, V-A:TYR:539:CE1:4875, V-B:ASP:366:CG:8184, V-A:TYR:539:CD1:4873, V-A:TYR:539:CE2:4876, V-A:TYR:539:CZ:4877, V-A:VAL:344:CG1:3001, V-A:PRO:540:C:4881, V-A:TYR:539:C:4867, V-B:PRO:482:CB:9297, H-B:HIS:383:NE2:8365, V-B:HIS:383:CE1:8364, V-A:TYR:539:CB:4871, H-B:ARG:545:NH2:9900, V-B:ILE:369:CG1:8209, H-B:ARG:545:NE:9896, V-B:ASN:370:CB:8216, V-B:GLY:453:C:9013, V-B:GLY:453:CA:9015, V-B:CYS:365:C:8175"]

$$$$
3ad_Grossjean_2025
     RDKit          3D

 29 31  0  0  0  0  0  0  0  0999 V2000
  124.4310  130.3740   64.8540 N   0  0  0  0  0  0  0  0  0  0  0  0
  124.5780  130.5300   63.7170 C   0  0  0  0  0  0  0  0  0  0  0  0
  124.7610  130.7270   62.2750 C   0  0  0  0  0  0  0  0  0  0  0  0
  123.6450  130.9100   61.4230 C   0  0  0  0  0  0  0  0  0  0  0  0
  122.1970  130.9590   61.9460 C   0  0  0  0  0  0  0  0  0  0  0  0
  121.9500  130.0340   62.8750 F   0  0  0  0  0  0  0  0  0  0  0  0
  121.9500  132.1520   62.4900 F   0  0  0  0  0  0  0  0  0  0  0  0
  121.3400  130.7560   60.9440 F   0  0  0  0  0  0  0  0  0  0  0  0
  123.8710  131.0480   60.0440 C   0  0  0  0  0  0  0  0  0  0  0  0
  125.1720  131.0010   59.5320 C   0  0  0  0  0  0  0  0  0  0  0  0
  125.4680  131.1270   58.0670 C   0  0  0  0  0  0  0  0  0  0  0  0
  124.4500  130.9710   57.1130 C   0  0  0  0  0  0  0  0  0  0  0  0
  124.7180  131.0890   55.7530 C   0  0  0  0  0  0  0  0  0  0  0  0
  126.0140  131.3640   55.3260 C   0  0  0  0  0  0  0  0  0  0  0  0
  127.0390  131.5260   56.2500 C   0  0  0  0  0  0  0  0  0  0  0  0
  126.7670  131.4090   57.6110 C   0  0  0  0  0  0  0  0  0  0  0  0
  126.2370  130.8190   60.3530 N   0  0  0  0  0  0  0  0  0  0  0  0
  126.0460  130.7040   61.6880 C   0  0  0  0  0  0  0  0  0  0  0  0
  127.5520  130.4850   62.6090 S   0  0  0  0  0  0  0  0  0  0  0  0
  128.3480  132.1140   62.7370 C   0  0  0  0  0  0  0  0  0  0  0  0
  129.4530  132.3010   61.6950 C   0  0  0  0  0  0  0  0  0  0  0  0
  130.5890  132.5910   62.0730 O   0  0  0  0  0  0  0  0  0  0  0  0
  129.0740  132.1270   60.4110 N   0  0  0  0  0  0  0  0  0  0  0  0
  129.8330  132.2110   59.2290 C   0  0  0  0  0  0  0  0  0  0  0  0
  131.0100  131.4560   59.2100 C   0  0  0  0  0  0  0  0  0  0  0  0
  131.8360  131.4700   58.0890 C   0  0  0  0  0  0  0  0  0  0  0  0
  131.4890  132.2440   56.9860 C   0  0  0  0  0  0  0  0  0  0  0  0
  130.3240  133.0060   56.9940 C   0  0  0  0  0  0  0  0  0  0  0  0
  129.4940  132.9950   58.1130 C   0  0  0  0  0  0  0  0  0  0  0  0
  1  2  3  0
  2  3  1  0
  3  4  2  0
  4  5  1  0
  5  6  1  0
  5  7  1  0
  5  8  1  0
  4  9  1  0
  9 10  2  0
 10 11  1  0
 11 12  2  0
 12 13  1  0
 13 14  2  0
 14 15  1  0
 15 16  2  0
 10 17  1  0
 17 18  2  0
 18 19  1  0
 19 20  1  0
 20 21  1  0
 21 22  2  0
 21 23  1  0
 23 24  1  0
 24 25  2  0
 25 26  1  0
 26 27  2  0
 27 28  1  0
 28 29  2  0
 18  3  1  0
 29 24  1  0
 16 11  1  0
M  END
>  <Binding energies>  (28) 
[-7.63]

>  <Ligand effiencies>  (28) 
[-0.25433333333333336]

>  <Interactions>  (28) 
["H-B:TYR:484:OH:9319, V-B:ARG:545:CZ:9898, V-B:TYR:531:CZ:9766, V-A:ILE:538:CB:4862, V-A:ILE:538:CA:4860, V-B:ILE:369:CG2:8208, V-B:GLY:454:CA:9020, V-B:ASP:366:CB:8183, V-B:TYR:531:CE1:9764, V-A:MET:535:CE:4835, V-B:ASP:366:CA:8181, V-A:LEU:363:CD1:3189, V-B:ILE:369:CB:8207, V-A:TYR:539:CE1:4875, V-B:ASP:366:CG:8184, V-A:TYR:539:CD1:4873, V-A:TYR:539:CZ:4877, H-A:ALA:541:N:4891, V-A:TYR:539:C:4867, V-A:PRO:540:N:4884, V-A:PRO:540:CA:4883, V-A:PRO:540:CB:4885, H-B:GLY:454:N:9021, V-B:ILE:369:CG1:8209, V-B:GLY:453:C:9013, V-B:ILE:369:CD1:8210, V-B:GLY:453:CA:9015, V-B:CYS:365:C:8175"]

$$$$
3ai_Grossjean_2025
     RDKit          3D

 28 30  0  0  0  0  0  0  0  0999 V2000
  123.1910  131.3020   60.8650 N   0  0  0  0  0  0  0  0  0  0  0  0
  124.1710  131.4840   60.2770 C   0  0  0  0  0  0  0  0  0  0  0  0
  125.4110  131.7150   59.5300 C   0  0  0  0  0  0  0  0  0  0  0  0
  125.5010  131.3860   58.1560 C   0  0  0  0  0  0  0  0  0  0  0  0
  124.3120  130.8180   57.3580 C   0  0  0  0  0  0  0  0  0  0  0  0
  124.4920  130.8910   56.0370 F   0  0  0  0  0  0  0  0  0  0  0  0
  124.1280  129.5330   57.6670 F   0  0  0  0  0  0  0  0  0  0  0  0
  123.2000  131.4950   57.6460 F   0  0  0  0  0  0  0  0  0  0  0  0
  126.7240  131.5810   57.4980 C   0  0  0  0  0  0  0  0  0  0  0  0
  127.8280  132.0880   58.1920 C   0  0  0  0  0  0  0  0  0  0  0  0
  129.1610  132.3060   57.5420 C   0  0  0  0  0  0  0  0  0  0  0  0
  129.2710  132.4000   56.1460 C   0  0  0  0  0  0  0  0  0  0  0  0
  130.5050  132.6070   55.5360 C   0  0  0  0  0  0  0  0  0  0  0  0
  131.6500  132.7260   56.3180 C   0  0  0  0  0  0  0  0  0  0  0  0
  131.5680  132.6400   57.7030 C   0  0  0  0  0  0  0  0  0  0  0  0
  130.3320  132.4330   58.3100 C   0  0  0  0  0  0  0  0  0  0  0  0
  127.7400  132.3940   59.5110 N   0  0  0  0  0  0  0  0  0  0  0  0
  126.5620  132.2370   60.1630 C   0  0  0  0  0  0  0  0  0  0  0  0
  126.6320  132.7110   61.8780 S   0  0  0  0  0  0  0  0  0  0  0  0
  128.1060  131.9280   62.6160 C   0  0  0  0  0  0  0  0  0  0  0  0
  129.4460  132.3540   61.9960 C   0  0  0  0  0  0  0  0  0  0  0  0
  129.5260  133.3740   61.3080 O   0  0  0  0  0  0  0  0  0  0  0  0
  130.4820  131.5300   62.2710 N   0  0  0  0  0  0  0  0  0  0  0  0
  131.7990  131.6670   61.8540 C   0  0  0  0  0  0  0  0  0  0  0  0
  132.2610  131.2020   60.6240 C   0  0  0  0  0  0  0  0  0  0  0  0
  133.5980  131.5260   60.5970 C   0  0  0  0  0  0  0  0  0  0  0  0
  133.9250  132.1540   61.7510 O   0  0  0  0  0  0  0  0  0  0  0  0
  132.7760  132.2390   62.5400 N   0  0  0  0  0  0  0  0  0  0  0  0
  1  2  3  0
  2  3  1  0
  3  4  2  0
  4  5  1  0
  5  6  1  0
  5  7  1  0
  5  8  1  0
  4  9  1  0
  9 10  2  0
 10 11  1  0
 11 12  2  0
 12 13  1  0
 13 14  2  0
 14 15  1  0
 15 16  2  0
 10 17  1  0
 17 18  2  0
 18 19  1  0
 19 20  1  0
 20 21  1  0
 21 22  2  0
 21 23  1  0
 23 24  1  0
 24 25  1  0
 25 26  2  0
 26 27  1  0
 27 28  1  0
 18  3  1  0
 28 24  2  0
 16 11  1  0
M  END
>  <Binding energies>  (29) 
[-7.94]

>  <Ligand effiencies>  (29) 
[-0.2737931034482759]

>  <Interactions>  (29) 
["V-A:GLU:543:CG:4907, V-A:GLU:543:CD:4908, V-A:ALA:541:CB:4892, V-B:TYR:531:CZ:9766, V-A:ILE:538:CB:4862, V-A:ILE:538:CA:4860, V-B:ILE:369:CG2:8208, V-B:ASP:366:CB:8183, V-B:TYR:531:CE1:9764, V-A:MET:535:CE:4835, V-B:ASP:366:CA:8181, V-A:LEU:363:CD1:3189, V-B:ILE:369:CB:8207, V-A:TYR:539:CE1:4875, V-B:ASP:366:CG:8184, V-A:TYR:539:CD1:4873, V-A:TYR:539:CZ:4877, V-A:ILE:538:CG2:4863, H-A:ALA:541:N:4891, V-A:PRO:540:N:4884, V-A:PRO:540:CA:4883, V-A:PRO:540:CB:4885, V-A:ASP:366:CG:3213, V-A:ASN:362:C:3172, V-A:PRO:540:CD:4887, V-A:ASN:362:CB:3176, V-A:LEU:363:CA:3185, V-B:ASP:366:C:8179, H-A:GLU:543:OE1:4909, V-B:TYR:531:CE2:9765, H-A:LEU:363:N:3186, V-B:ILE:369:C:8203"]

$$$$
3aj_Grossjean_2025
     RDKit          3D

 28 30  0  0  0  0  0  0  0  0999 V2000
  122.9930  131.6770   61.2330 N   0  0  0  0  0  0  0  0  0  0  0  0
  123.9730  131.8240   60.6370 C   0  0  0  0  0  0  0  0  0  0  0  0
  125.2150  132.0110   59.8800 C   0  0  0  0  0  0  0  0  0  0  0  0
  125.3920  131.3940   58.6180 C   0  0  0  0  0  0  0  0  0  0  0  0
  124.2980  130.5390   57.9490 C   0  0  0  0  0  0  0  0  0  0  0  0
  123.0700  130.8450   58.3740 F   0  0  0  0  0  0  0  0  0  0  0  0
  124.3230  130.7180   56.6280 F   0  0  0  0  0  0  0  0  0  0  0  0
  124.5010  129.2480   58.2140 F   0  0  0  0  0  0  0  0  0  0  0  0
  126.6170  131.5640   57.9540 C   0  0  0  0  0  0  0  0  0  0  0  0
  127.6370  132.3250   58.5360 C   0  0  0  0  0  0  0  0  0  0  0  0
  128.9660  132.5300   57.8770 C   0  0  0  0  0  0  0  0  0  0  0  0
  130.1520  132.4850   58.6260 C   0  0  0  0  0  0  0  0  0  0  0  0
  131.3910  132.6710   58.0180 C   0  0  0  0  0  0  0  0  0  0  0  0
  131.4600  132.9070   56.6490 C   0  0  0  0  0  0  0  0  0  0  0  0
  130.2990  132.9560   55.8840 C   0  0  0  0  0  0  0  0  0  0  0  0
  129.0630  132.7670   56.4950 C   0  0  0  0  0  0  0  0  0  0  0  0
  127.4640  132.9080   59.7500 N   0  0  0  0  0  0  0  0  0  0  0  0
  126.2830  132.7780   60.3990 C   0  0  0  0  0  0  0  0  0  0  0  0
  126.2340  133.6280   61.9620 S   0  0  0  0  0  0  0  0  0  0  0  0
  126.6140  132.4140   63.2710 C   0  0  0  0  0  0  0  0  0  0  0  0
  128.1100  132.2010   63.5440 C   0  0  0  0  0  0  0  0  0  0  0  0
  128.5470  132.1980   64.6980 O   0  0  0  0  0  0  0  0  0  0  0  0
  128.8660  132.0250   62.4380 N   0  0  0  0  0  0  0  0  0  0  0  0
  130.2370  131.8060   62.3970 C   0  0  0  0  0  0  0  0  0  0  0  0
  131.1520  132.2610   63.2260 N   0  0  0  0  0  0  0  0  0  0  0  0
  132.3590  131.8520   62.8880 C   0  0  0  0  0  0  0  0  0  0  0  0
  132.4410  131.0440   61.7570 C   0  0  0  0  0  0  0  0  0  0  0  0
  130.8450  130.8170   61.1090 S   0  0  0  0  0  0  0  0  0  0  0  0
  1  2  3  0
  2  3  1  0
  3  4  2  0
  4  5  1  0
  5  6  1  0
  5  7  1  0
  5  8  1  0
  4  9  1  0
  9 10  2  0
 10 11  1  0
 11 12  2  0
 12 13  1  0
 13 14  2  0
 14 15  1  0
 15 16  2  0
 10 17  1  0
 17 18  2  0
 18 19  1  0
 19 20  1  0
 20 21  1  0
 21 22  2  0
 21 23  1  0
 23 24  1  0
 24 25  2  0
 25 26  1  0
 26 27  2  0
 27 28  1  0
 18  3  1  0
 28 24  1  0
 16 11  1  0
M  END
>  <Binding energies>  (30) 
[-7.44]

>  <Ligand effiencies>  (30) 
[-0.25655172413793104]

>  <Interactions>  (30) 
["H-B:TYR:484:OH:9319, V-A:GLU:543:CG:4907, V-A:GLU:543:CD:4908, V-A:ALA:541:CB:4892, V-B:LEU:475:CD2:9230, V-B:TYR:531:CZ:9766, V-A:ILE:538:CB:4862, V-A:ILE:538:CA:4860, V-B:ILE:369:CG2:8208, V-A:ILE:538:C:4858, V-B:ASP:366:CB:8183, V-B:TYR:531:CE1:9764, V-A:MET:535:CE:4835, V-B:ASP:366:CA:8181, V-A:LEU:363:CD1:3189, V-B:ILE:369:CB:8207, V-A:TYR:539:CE1:4875, V-B:ASP:366:CG:8184, V-A:TYR:539:CD1:4873, V-A:TYR:539:CZ:4877, V-A:ILE:538:CG2:4863, V-A:ALA:541:CA:4890, H-A:ALA:541:N:4891, V-A:TYR:539:C:4867, V-A:PRO:540:N:4884, V-A:PRO:540:CA:4883, V-A:PRO:540:CB:4885, V-A:PRO:540:CD:4887, V-A:ASN:362:CB:3176, V-B:ASP:366:C:8179, V-A:PRO:540:CG:4886, V-A:ALA:541:C:4888"]

$$$$
3ak_Grossjean_2025
     RDKit          3D

 33 34  0  0  0  0  0  0  0  0999 V2000
  126.7270  137.5910   61.6850 C   0  0  0  0  0  0  0  0  0  0  0  0
  126.1720  137.5050   60.3820 O   0  0  0  0  0  0  0  0  0  0  0  0
  124.7990  137.1400   60.3750 C   0  0  0  0  0  0  0  0  0  0  0  0
  124.5080  136.2660   61.6010 C   0  0  0  0  0  0  0  0  0  0  0  0
  124.6570  134.8970   61.2390 O   0  0  0  0  0  0  0  0  0  0  0  0
  125.8500  134.2660   61.6980 C   0  0  0  0  0  0  0  0  0  0  0  0
  126.5260  133.3750   60.6390 C   0  0  0  0  0  0  0  0  0  0  0  0
  127.8710  133.7970   60.4630 O   0  0  0  0  0  0  0  0  0  0  0  0
  128.5580  134.0540   61.6810 C   0  0  0  0  0  0  0  0  0  0  0  0
  128.7000  132.7550   62.4950 C   0  0  0  0  0  0  0  0  0  0  0  0
  129.5800  131.7660   61.8710 N   0  0  0  0  0  0  0  0  0  0  0  0
  130.8810  131.5700   62.1610 C   0  0  0  0  0  0  0  0  0  0  0  0
  131.4750  132.2160   63.0250 O   0  0  0  0  0  0  0  0  0  0  0  0
  131.6600  130.4960   61.3840 C   0  0  0  0  0  0  0  0  0  0  0  0
  130.6730  129.3780   60.3220 S   0  0  0  0  0  0  0  0  0  0  0  0
  129.8040  130.3590   59.1090 C   0  0  0  0  0  0  0  0  0  0  0  0
  128.4510  130.3320   59.1930 N   0  0  0  0  0  0  0  0  0  0  0  0
  127.7020  131.0400   58.3100 C   0  0  0  0  0  0  0  0  0  0  0  0
  126.2150  130.9540   58.4770 C   0  0  0  0  0  0  0  0  0  0  0  0
  125.3560  131.1930   57.3930 C   0  0  0  0  0  0  0  0  0  0  0  0
  123.9740  131.1110   57.5410 C   0  0  0  0  0  0  0  0  0  0  0  0
  123.4300  130.7840   58.7780 C   0  0  0  0  0  0  0  0  0  0  0  0
  124.2580  130.5390   59.8680 C   0  0  0  0  0  0  0  0  0  0  0  0
  125.6400  130.6220   59.7170 C   0  0  0  0  0  0  0  0  0  0  0  0
  128.3090  131.8180   57.3170 C   0  0  0  0  0  0  0  0  0  0  0  0
  129.7060  131.8650   57.2090 C   0  0  0  0  0  0  0  0  0  0  0  0
  130.3370  132.7300   56.1010 C   0  0  0  0  0  0  0  0  0  0  0  0
  131.0210  131.9610   55.2550 F   0  0  0  0  0  0  0  0  0  0  0  0
  129.3850  133.3750   55.4270 F   0  0  0  0  0  0  0  0  0  0  0  0
  131.1800  133.6490   56.5790 F   0  0  0  0  0  0  0  0  0  0  0  0
  130.4810  131.1150   58.1270 C   0  0  0  0  0  0  0  0  0  0  0  0
  131.9460  131.1260   58.0620 C   0  0  0  0  0  0  0  0  0  0  0  0
  133.1030  131.1340   58.0100 N   0  0  0  0  0  0  0  0  0  0  0  0
  1  2  1  0
  2  3  1  0
  3  4  1  0
  4  5  1  0
  5  6  1  0
  6  7  1  0
  7  8  1  0
  8  9  1  0
  9 10  1  0
 10 11  1  0
 11 12  1  0
 12 13  2  0
 12 14  1  0
 14 15  1  0
 15 16  1  0
 16 17  2  0
 17 18  1  0
 18 19  1  0
 19 20  2  0
 20 21  1  0
 21 22  2  0
 22 23  1  0
 23 24  2  0
 18 25  2  0
 25 26  1  0
 26 27  1  0
 27 28  1  0
 27 29  1  0
 27 30  1  0
 26 31  2  0
 31 32  1  0
 32 33  3  0
 31 16  1  0
 24 19  1  0
M  END
>  <Binding energies>  (31) 
[-6.29]

>  <Ligand effiencies>  (31) 
[-0.185]

>  <Interactions>  (31) 
["V-A:GLU:543:CD:4908, V-A:ALA:541:CB:4892, V-B:LEU:475:CD2:9230, V-A:ILE:538:CB:4862, V-A:ILE:538:CA:4860, V-B:ILE:369:CG2:8208, V-A:ILE:538:C:4858, V-B:ASP:366:CB:8183, V-A:MET:535:CE:4835, V-B:ASP:366:CA:8181, V-A:LEU:363:CD1:3189, V-B:ILE:369:CB:8207, V-A:TYR:539:CE1:4875, V-B:ASP:366:CG:8184, V-A:TYR:539:CD1:4873, V-A:TYR:539:CD2:4874, V-A:TYR:539:CZ:4877, V-A:ILE:538:CG2:4863, V-A:PRO:540:C:4881, H-A:ALA:541:N:4891, V-A:TYR:539:C:4867, V-A:PRO:540:N:4884, H-B:HIS:383:NE2:8365, V-A:PRO:540:CA:4883, V-A:PRO:540:CB:4885, V-B:SER:385:CB:8380, V-A:PRO:540:CD:4887, V-A:TYR:539:CA:4869, V-B:ASP:366:C:8179, V-A:MET:535:CG:4833, V-B:LEU:373:CD1:8251, V-B:HIS:383:CD2:8363, V-B:SER:385:CA:8378, V-B:LEU:475:CG:9228"]

$$$$
3bk_Grossjean_2025
     RDKit          3D

 30 31  0  0  0  0  0  0  0  0999 V2000
  125.2270  122.5180   56.8560 C   0  0  0  0  0  0  0  0  0  0  0  0
  126.3550  121.7560   56.4550 O   0  0  0  0  0  0  0  0  0  0  0  0
  127.5040  122.5470   56.1830 C   0  0  0  0  0  0  0  0  0  0  0  0
  127.8720  123.3670   57.4270 C   0  0  0  0  0  0  0  0  0  0  0  0
  128.1680  122.4860   58.5010 O   0  0  0  0  0  0  0  0  0  0  0  0
  128.5960  123.1460   59.6850 C   0  0  0  0  0  0  0  0  0  0  0  0
  127.3790  123.4260   60.5770 C   0  0  0  0  0  0  0  0  0  0  0  0
  127.5050  122.6940   61.7890 O   0  0  0  0  0  0  0  0  0  0  0  0
  128.8100  122.7310   62.3510 C   0  0  0  0  0  0  0  0  0  0  0  0
  129.5010  121.3780   62.1290 C   0  0  0  0  0  0  0  0  0  0  0  0
  130.7760  121.5130   61.4210 N   0  0  0  0  0  0  0  0  0  0  0  0
  131.5150  120.4970   60.9440 C   0  0  0  0  0  0  0  0  0  0  0  0
  131.1880  119.3130   61.0340 O   0  0  0  0  0  0  0  0  0  0  0  0
  132.8150  120.8750   60.2320 C   0  0  0  0  0  0  0  0  0  0  0  0
  133.7630  122.1220   61.1620 S   0  0  0  0  0  0  0  0  0  0  0  0
  132.8310  123.6440   61.2080 C   0  0  0  0  0  0  0  0  0  0  0  0
  132.2340  123.9380   62.3910 N   0  0  0  0  0  0  0  0  0  0  0  0
  131.5000  125.0750   62.5190 C   0  0  0  0  0  0  0  0  0  0  0  0
  130.8930  125.3340   63.8650 C   0  0  0  0  0  0  0  0  0  0  0  0
  131.2740  124.5740   64.9820 C   0  0  0  0  0  0  0  0  0  0  0  0
  130.7080  124.8070   66.2340 C   0  0  0  0  0  0  0  0  0  0  0  0
  129.7520  125.8050   66.3850 C   0  0  0  0  0  0  0  0  0  0  0  0
  129.3600  126.5750   65.2940 C   0  0  0  0  0  0  0  0  0  0  0  0
  129.9290  126.3400   64.0450 C   0  0  0  0  0  0  0  0  0  0  0  0
  131.3540  125.9590   61.4430 C   0  0  0  0  0  0  0  0  0  0  0  0
  131.9620  125.6710   60.2160 C   0  0  0  0  0  0  0  0  0  0  0  0
  131.7770  126.6620   59.0690 C   0  0  0  0  0  0  0  0  0  0  0  0
  132.7200  124.4890   60.0830 C   0  0  0  0  0  0  0  0  0  0  0  0
  133.3700  124.1630   58.8100 C   0  0  0  0  0  0  0  0  0  0  0  0
  133.8830  123.9050   57.8050 N   0  0  0  0  0  0  0  0  0  0  0  0
  1  2  1  0
  2  3  1  0
  3  4  1  0
  4  5  1  0
  5  6  1  0
  6  7  1  0
  7  8  1  0
  8  9  1  0
  9 10  1  0
 10 11  1  0
 11 12  1  0
 12 13  2  0
 12 14  1  0
 14 15  1  0
 15 16  1  0
 16 17  2  0
 17 18  1  0
 18 19  1  0
 19 20  2  0
 20 21  1  0
 21 22  2  0
 22 23  1  0
 23 24  2  0
 18 25  2  0
 25 26  1  0
 26 27  1  0
 26 28  2  0
 28 29  1  0
 29 30  3  0
 28 16  1  0
 24 19  1  0
M  END
>  <Binding energies>  (32) 
[-7.14]

>  <Ligand effiencies>  (32) 
[-0.23032258064516128]

>  <Interactions>  (32) 
["V-B:GLU:543:CG:9879, V-B:GLU:543:CD:9880, V-A:TYR:484:CZ:4347, V-A:GLU:543:CD:4908, V-A:TYR:484:CE2:4346, V-B:GLU:543:CB:9878, V-A:HIS:456:CE1:4070, V-B:ALA:541:CB:9864, V-A:LEU:475:CD2:4259, V-A:ASP:366:CG:3213, V-B:LEU:363:CD1:8160, V-B:PRO:540:N:9856, V-B:PRO:540:CA:9855, V-B:PRO:540:CB:9857, V-B:PRO:540:CD:9859, H-B:TYR:539:OH:9850, V-B:TYR:539:CE1:9847, V-B:TYR:539:CD1:9845, V-A:ASP:366:CB:3212, H-B:TYR:539:N:9842, V-A:ASP:366:CA:3210, V-B:TYR:539:CE2:9848, V-A:ILE:369:CG2:3237, V-A:ILE:369:CB:3236, V-B:TYR:539:CD2:9846, V-B:TYR:539:CG:9844, V-B:TYR:539:CZ:9849, V-B:MET:535:CE:9807, V-B:ILE:538:CG2:9835, H-B:ALA:541:N:9863, V-B:PRO:540:CG:9858, H-A:ASN:370:N:3244, H-A:SER:385:OG:3410, H-A:HIS:383:HE2:3395"]

$$$$
3cb_Grossjean_2025
     RDKit          3D

 30 32  0  0  0  0  0  0  0  0999 V2000
  131.4790  132.4870   56.5690 C   0  0  0  0  0  0  0  0  0  0  0  0
  130.6390  133.4030   57.2560 O   0  0  0  0  0  0  0  0  0  0  0  0
  129.2980  133.2010   57.3330 C   0  0  0  0  0  0  0  0  0  0  0  0
  128.5060  133.5570   56.4560 O   0  0  0  0  0  0  0  0  0  0  0  0
  128.8740  132.5020   58.5930 C   0  0  0  0  0  0  0  0  0  0  0  0
  129.7470  132.3290   59.6770 C   0  0  0  0  0  0  0  0  0  0  0  0
  129.3210  131.6790   60.8320 C   0  0  0  0  0  0  0  0  0  0  0  0
  128.0200  131.1840   60.9270 C   0  0  0  0  0  0  0  0  0  0  0  0
  127.6950  130.5460   62.1410 N   0  0  0  0  0  0  0  0  0  0  0  0
  126.9560  129.4390   62.3700 C   0  0  0  0  0  0  0  0  0  0  0  0
  126.4270  128.7510   61.4950 O   0  0  0  0  0  0  0  0  0  0  0  0
  126.8220  129.0570   63.8520 C   0  0  0  0  0  0  0  0  0  0  0  0
  125.3270  129.7000   64.6800 S   0  0  0  0  0  0  0  0  0  0  0  0
  124.5590  130.8740   63.5830 C   0  0  0  0  0  0  0  0  0  0  0  0
  123.3680  130.4550   63.0930 N   0  0  0  0  0  0  0  0  0  0  0  0
  122.6930  131.2670   62.2490 C   0  0  0  0  0  0  0  0  0  0  0  0
  121.3610  130.7390   61.7490 C   0  0  0  0  0  0  0  0  0  0  0  0
  123.1760  132.5130   61.8590 C   0  0  0  0  0  0  0  0  0  0  0  0
  124.4130  132.9600   62.3410 C   0  0  0  0  0  0  0  0  0  0  0  0
  124.8910  134.3020   61.8890 C   0  0  0  0  0  0  0  0  0  0  0  0
  126.2260  134.4810   61.5030 C   0  0  0  0  0  0  0  0  0  0  0  0
  126.6780  135.7250   61.0690 C   0  0  0  0  0  0  0  0  0  0  0  0
  125.7930  136.7980   61.0170 C   0  0  0  0  0  0  0  0  0  0  0  0
  124.4620  136.6370   61.3900 C   0  0  0  0  0  0  0  0  0  0  0  0
  124.0130  135.3920   61.8210 C   0  0  0  0  0  0  0  0  0  0  0  0
  125.1410  132.1140   63.2180 C   0  0  0  0  0  0  0  0  0  0  0  0
  126.4810  132.4890   63.6780 C   0  0  0  0  0  0  0  0  0  0  0  0
  127.5390  132.7850   64.0420 N   0  0  0  0  0  0  0  0  0  0  0  0
  127.1390  131.3560   59.8490 C   0  0  0  0  0  0  0  0  0  0  0  0
  127.5660  132.0080   58.6940 C   0  0  0  0  0  0  0  0  0  0  0  0
  1  2  1  0
  2  3  1  0
  3  4  2  0
  3  5  1  0
  5  6  2  0
  6  7  1  0
  7  8  2  0
  8  9  1  0
  9 10  1  0
 10 11  2  0
 10 12  1  0
 12 13  1  0
 13 14  1  0
 14 15  2  0
 15 16  1  0
 16 17  1  0
 16 18  2  0
 18 19  1  0
 19 20  1  0
 20 21  2  0
 21 22  1  0
 22 23  2  0
 23 24  1  0
 24 25  2  0
 19 26  2  0
 26 27  1  0
 27 28  3  0
  8 29  1  0
 29 30  2  0
 30  5  1  0
 26 14  1  0
 25 20  1  0
M  END
>  <Binding energies>  (33) 
[-8.51]

>  <Ligand effiencies>  (33) 
[-0.2745161290322581]

>  <Interactions>  (33) 
["H-B:TYR:484:OH:9319, V-B:GLU:543:CD:9880, V-B:LEU:475:CD2:9230, V-A:ILE:538:CB:4862, V-B:ILE:369:CG2:8208, V-A:TYR:539:CG:4872, V-B:GLY:454:CA:9020, H-A:TYR:539:N:4870, V-B:ASP:366:CA:8181, V-A:LEU:363:CD1:3189, V-B:ILE:369:CB:8207, V-A:TYR:539:CE1:4875, V-B:ASP:366:CG:8184, V-A:TYR:539:CD1:4873, V-A:ILE:538:CG2:4863, V-A:TYR:539:C:4867, V-A:PRO:540:N:4884, V-A:PRO:540:CA:4883, V-B:SER:385:CB:8380, V-A:TYR:539:CA:4869, H-B:ARG:545:NH2:9900, H-B:GLY:454:N:9021, V-B:ILE:369:CG1:8209, V-B:GLY:453:C:9013, V-B:SER:385:CA:8378, V-B:GLY:453:CA:9015, V-B:CYS:365:C:8175"]

$$$$
3ch_Grossjean_2025
     RDKit          3D

 32 34  0  0  0  0  0  0  0  0999 V2000
  128.3900  133.3760   60.6310 C   0  0  0  0  0  0  0  0  0  0  0  0
  128.6060  133.3460   59.2240 O   0  0  0  0  0  0  0  0  0  0  0  0
  129.4550  132.3960   58.6840 C   0  0  0  0  0  0  0  0  0  0  0  0
  129.9270  131.2750   59.3850 C   0  0  0  0  0  0  0  0  0  0  0  0
  130.7790  130.3480   58.7680 C   0  0  0  0  0  0  0  0  0  0  0  0
  131.2990  129.1950   59.3870 N   0  0  0  0  0  0  0  0  0  0  0  0
  130.6780  128.0430   59.7230 C   0  0  0  0  0  0  0  0  0  0  0  0
  129.4910  127.7860   59.5240 O   0  0  0  0  0  0  0  0  0  0  0  0
  131.5680  126.9780   60.3650 C   0  0  0  0  0  0  0  0  0  0  0  0
  131.9030  125.5930   59.2370 S   0  0  0  0  0  0  0  0  0  0  0  0
  130.5660  124.4400   59.4610 C   0  0  0  0  0  0  0  0  0  0  0  0
  130.7230  123.6150   60.5260 N   0  0  0  0  0  0  0  0  0  0  0  0
  129.7650  122.6950   60.7780 C   0  0  0  0  0  0  0  0  0  0  0  0
  130.0070  121.8020   61.9800 C   0  0  0  0  0  0  0  0  0  0  0  0
  128.6260  122.5620   59.9880 C   0  0  0  0  0  0  0  0  0  0  0  0
  128.4410  123.4100   58.8870 C   0  0  0  0  0  0  0  0  0  0  0  0
  127.2090  123.2240   58.0620 C   0  0  0  0  0  0  0  0  0  0  0  0
  127.2560  122.4620   56.8890 C   0  0  0  0  0  0  0  0  0  0  0  0
  126.1140  122.2910   56.1100 C   0  0  0  0  0  0  0  0  0  0  0  0
  124.9180  122.8870   56.5020 C   0  0  0  0  0  0  0  0  0  0  0  0
  124.8550  123.6530   57.6620 C   0  0  0  0  0  0  0  0  0  0  0  0
  126.0000  123.8230   58.4370 C   0  0  0  0  0  0  0  0  0  0  0  0
  129.4290  124.3930   58.6210 C   0  0  0  0  0  0  0  0  0  0  0  0
  129.2420  125.3670   57.5410 C   0  0  0  0  0  0  0  0  0  0  0  0
  129.0960  126.1360   56.6890 N   0  0  0  0  0  0  0  0  0  0  0  0
  131.1730  130.5620   57.4460 C   0  0  0  0  0  0  0  0  0  0  0  0
  130.7160  131.6760   56.7250 C   0  0  0  0  0  0  0  0  0  0  0  0
  131.0620  131.9410   55.4110 O   0  0  0  0  0  0  0  0  0  0  0  0
  132.3230  131.5020   54.9170 C   0  0  0  0  0  0  0  0  0  0  0  0
  129.8600  132.5870   57.3560 C   0  0  0  0  0  0  0  0  0  0  0  0
  129.3910  133.6720   56.6550 O   0  0  0  0  0  0  0  0  0  0  0  0
  128.4410  133.3470   55.6500 C   0  0  0  0  0  0  0  0  0  0  0  0
  1  2  1  0
  2  3  1  0
  3  4  2  0
  4  5  1  0
  5  6  1  0
  6  7  1  0
  7  8  2  0
  7  9  1  0
  9 10  1  0
 10 11  1  0
 11 12  2  0
 12 13  1  0
 13 14  1  0
 13 15  2  0
 15 16  1  0
 16 17  1  0
 17 18  2  0
 18 19  1  0
 19 20  2  0
 20 21  1  0
 21 22  2  0
 16 23  2  0
 23 24  1  0
 24 25  3  0
  5 26  2  0
 26 27  1  0
 27 28  1  0
 28 29  1  0
 27 30  2  0
 30 31  1  0
 31 32  1  0
 30  3  1  0
 23 11  1  0
 22 17  1  0
M  END
>  <Binding energies>  (34) 
[-8.07]

>  <Ligand effiencies>  (34) 
[-0.24454545454545457]

>  <Interactions>  (34) 
["V-B:ALA:541:CB:9864, V-A:LEU:475:CD2:4259, V-A:ILE:538:CB:4862, V-A:ILE:538:CA:4860, V-A:ILE:538:C:4858, V-A:TYR:539:CG:4872, H-A:TYR:539:N:4870, V-A:MET:535:CE:4835, V-A:LEU:363:CD1:3189, V-A:TYR:539:CE1:4875, V-A:TYR:539:CD1:4873, V-A:TYR:539:CE2:4876, V-A:TYR:539:CD2:4874, V-A:TYR:539:CZ:4877, V-A:ILE:538:CG2:4863, V-A:TYR:539:C:4867, V-A:PRO:540:N:4884, V-A:PRO:540:CA:4883, V-A:ASP:366:CG:3213, H-A:ASP:366:OD2:3215, V-B:LEU:363:CD1:8160, V-B:PRO:540:N:9856, V-A:TYR:531:CE2:4793, V-A:TYR:531:CZ:4794, V-B:PRO:540:CA:9855, V-B:PRO:540:CB:9857, V-B:TYR:539:C:9839, H-A:TYR:531:OH:4795, V-B:PRO:540:CD:9859, H-B:TYR:539:OH:9850, V-B:TYR:539:CE1:9847, V-B:TYR:539:CD1:9845, V-A:TYR:531:CD2:4791, V-A:ASP:366:CB:3212, V-A:MET:535:CG:4833, V-B:TYR:539:CE2:9848, V-B:TYR:539:CD2:9846, V-B:TYR:539:CG:9844, V-B:TYR:539:CZ:9849, V-B:MET:535:CE:9807, V-B:TYR:539:CA:9841, V-B:ILE:538:CG2:9835, V-B:ILE:538:CA:9832"]

$$$$
3ci_Grossjean_2025
     RDKit          3D

 25 27  0  0  0  0  0  0  0  0999 V2000
  133.4310  130.9870   62.5780 C   0  0  0  0  0  0  0  0  0  0  0  0
  132.2450  131.4950   61.7800 C   0  0  0  0  0  0  0  0  0  0  0  0
  132.2470  131.4990   60.3890 C   0  0  0  0  0  0  0  0  0  0  0  0
  131.1200  131.9630   59.6960 C   0  0  0  0  0  0  0  0  0  0  0  0
  131.1620  131.9350   58.2030 C   0  0  0  0  0  0  0  0  0  0  0  0
  130.6950  133.0220   57.4520 C   0  0  0  0  0  0  0  0  0  0  0  0
  130.7280  132.9870   56.0610 C   0  0  0  0  0  0  0  0  0  0  0  0
  131.2240  131.8600   55.4120 C   0  0  0  0  0  0  0  0  0  0  0  0
  131.6840  130.7680   56.1430 C   0  0  0  0  0  0  0  0  0  0  0  0
  131.6500  130.8060   57.5340 C   0  0  0  0  0  0  0  0  0  0  0  0
  130.0110  132.4270   60.4470 C   0  0  0  0  0  0  0  0  0  0  0  0
  128.8210  132.9640   59.7770 C   0  0  0  0  0  0  0  0  0  0  0  0
  127.8830  133.3860   59.2470 N   0  0  0  0  0  0  0  0  0  0  0  0
  130.0900  132.3830   61.8600 C   0  0  0  0  0  0  0  0  0  0  0  0
  128.7420  132.9210   62.9050 S   0  0  0  0  0  0  0  0  0  0  0  0
  127.1590  132.3770   62.1850 C   0  0  0  0  0  0  0  0  0  0  0  0
  126.1430  133.5130   62.0210 C   0  0  0  0  0  0  0  0  0  0  0  0
  125.0060  133.3740   62.4770 O   0  0  0  0  0  0  0  0  0  0  0  0
  126.5840  134.6040   61.3570 N   0  0  0  0  0  0  0  0  0  0  0  0
  125.8810  135.7730   61.0990 C   0  0  0  0  0  0  0  0  0  0  0  0
  124.5040  135.7990   60.8790 C   0  0  0  0  0  0  0  0  0  0  0  0
  124.2020  137.1250   60.6610 C   0  0  0  0  0  0  0  0  0  0  0  0
  125.3380  137.8570   60.7460 O   0  0  0  0  0  0  0  0  0  0  0  0
  126.3960  136.9890   61.0220 N   0  0  0  0  0  0  0  0  0  0  0  0
  131.1930  131.9300   62.5090 N   0  0  0  0  0  0  0  0  0  0  0  0
  1  2  1  0
  2  3  2  0
  3  4  1  0
  4  5  1  0
  5  6  2  0
  6  7  1  0
  7  8  2  0
  8  9  1  0
  9 10  2  0
  4 11  2  0
 11 12  1  0
 12 13  3  0
 11 14  1  0
 14 15  1  0
 15 16  1  0
 16 17  1  0
 17 18  2  0
 17 19  1  0
 19 20  1  0
 20 21  1  0
 21 22  2  0
 22 23  1  0
 23 24  1  0
 14 25  2  0
 25  2  1  0
 10  5  1  0
 24 20  2  0
M  END
>  <Binding energies>  (35) 
[-8.28]

>  <Ligand effiencies>  (35) 
[-0.31846153846153846]

>  <Interactions>  (35) 
["V-A:GLU:543:CD:4908, V-A:ALA:541:CB:4892, V-B:LEU:475:CD2:9230, V-A:ARG:545:CZ:4926, V-A:ILE:538:CB:4862, V-A:ILE:538:CA:4860, V-B:ILE:369:CG2:8208, V-A:ILE:538:C:4858, V-A:MET:535:CE:4835, V-A:TYR:539:CE1:4875, V-A:TYR:539:CD1:4873, V-A:ILE:538:CG2:4863, V-A:PRO:540:C:4881, H-A:ALA:541:N:4891, V-A:TYR:539:C:4867, H-A:TYR:539:O:4868, V-A:PRO:540:N:4884, H-B:HIS:383:NE2:8365, V-A:PRO:540:CA:4883, V-A:PRO:540:CB:4885, V-B:SER:385:CB:8380, V-A:PRO:540:CD:4887, V-A:ASN:362:CB:3176, V-A:TYR:531:CE2:4793, V-A:TYR:531:CZ:4794, V-A:MET:535:CG:4833, V-B:LEU:373:CD1:8251, V-B:HIS:383:CD2:8363, V-B:SER:385:CA:8378, V-A:ASN:362:CG:3177"]

$$$$
3ck_Grossjean_2025
     RDKit          3D

 30 31  0  0  0  0  0  0  0  0999 V2000
  130.1860  124.7680   66.3270 C   0  0  0  0  0  0  0  0  0  0  0  0
  130.4040  124.2660   65.0180 O   0  0  0  0  0  0  0  0  0  0  0  0
  131.3870  124.9890   64.2900 C   0  0  0  0  0  0  0  0  0  0  0  0
  132.6510  125.1420   65.1470 C   0  0  0  0  0  0  0  0  0  0  0  0
  133.7850  124.7460   64.3870 O   0  0  0  0  0  0  0  0  0  0  0  0
  133.5500  124.6900   62.9860 C   0  0  0  0  0  0  0  0  0  0  0  0
  134.6770  123.8920   62.3200 C   0  0  0  0  0  0  0  0  0  0  0  0
  134.3270  122.5160   62.3450 O   0  0  0  0  0  0  0  0  0  0  0  0
  133.0800  122.2080   61.7410 C   0  0  0  0  0  0  0  0  0  0  0  0
  133.1720  122.4440   60.2210 C   0  0  0  0  0  0  0  0  0  0  0  0
  132.6510  123.7460   59.7930 N   0  0  0  0  0  0  0  0  0  0  0  0
  133.0420  124.4250   58.7000 C   0  0  0  0  0  0  0  0  0  0  0  0
  133.8840  124.0020   57.9060 O   0  0  0  0  0  0  0  0  0  0  0  0
  132.3600  125.7870   58.4880 C   0  0  0  0  0  0  0  0  0  0  0  0
  131.1770  126.2800   59.7890 S   0  0  0  0  0  0  0  0  0  0  0  0
  129.9250  125.0160   59.9530 C   0  0  0  0  0  0  0  0  0  0  0  0
  129.9160  124.3500   61.1350 N   0  0  0  0  0  0  0  0  0  0  0  0
  128.9980  123.3770   61.3260 C   0  0  0  0  0  0  0  0  0  0  0  0
  129.0500  122.6760   62.6700 C   0  0  0  0  0  0  0  0  0  0  0  0
  128.0600  123.0290   60.3570 C   0  0  0  0  0  0  0  0  0  0  0  0
  128.0550  123.6990   59.1260 C   0  0  0  0  0  0  0  0  0  0  0  0
  127.0470  123.2760   58.1080 C   0  0  0  0  0  0  0  0  0  0  0  0
  127.4500  122.5580   56.9760 C   0  0  0  0  0  0  0  0  0  0  0  0
  126.5170  122.1700   56.0170 C   0  0  0  0  0  0  0  0  0  0  0  0
  125.1760  122.5040   56.1850 C   0  0  0  0  0  0  0  0  0  0  0  0
  124.7610  123.2250   57.3030 C   0  0  0  0  0  0  0  0  0  0  0  0
  125.6960  123.6110   58.2590 C   0  0  0  0  0  0  0  0  0  0  0  0
  129.0060  124.7310   58.9170 C   0  0  0  0  0  0  0  0  0  0  0  0
  129.0200  125.4940   57.6640 C   0  0  0  0  0  0  0  0  0  0  0  0
  129.0310  126.0970   56.6760 N   0  0  0  0  0  0  0  0  0  0  0  0
  1  2  1  0
  2  3  1  0
  3  4  1  0
  4  5  1  0
  5  6  1  0
  6  7  1  0
  7  8  1  0
  8  9  1  0
  9 10  1  0
 10 11  1  0
 11 12  1  0
 12 13  2  0
 12 14  1  0
 14 15  1  0
 15 16  1  0
 16 17  2  0
 17 18  1  0
 18 19  1  0
 18 20  2  0
 20 21  1  0
 21 22  1  0
 22 23  2  0
 23 24  1  0
 24 25  2  0
 25 26  1  0
 26 27  2  0
 21 28  2  0
 28 29  1  0
 29 30  3  0
 28 16  1  0
 27 22  1  0
M  END
>  <Binding energies>  (36) 
[-6.92]

>  <Ligand effiencies>  (36) 
[-0.2232258064516129]

>  <Interactions>  (36) 
["V-B:GLU:543:CG:9879, V-A:TYR:484:CZ:4347, V-A:TYR:484:CE2:4346, V-B:GLU:543:CB:9878, V-B:ALA:541:CB:9864, V-A:ARG:545:CZ:4926, V-A:LEU:475:CD2:4259, V-A:ASP:366:CG:3213, V-B:LEU:363:CD1:8160, V-B:PRO:540:N:9856, V-B:PRO:540:CA:9855, V-B:PRO:540:CB:9857, V-B:TYR:539:C:9839, V-B:PRO:540:CD:9859, H-B:TYR:539:OH:9850, V-B:TYR:539:CE1:9847, V-B:TYR:539:CD1:9845, V-A:ASP:366:CB:3212, H-A:GLY:454:N:4050, H-A:ARG:545:NH2:4928, H-A:ARG:545:NE:4924, H-A:TYR:484:OH:4348, V-A:ASP:366:CA:3210, V-B:TYR:539:CE2:9848, V-A:ILE:369:CG2:3237, V-A:ILE:369:CD1:3239, V-A:GLY:453:CA:4044, V-B:TYR:539:CD2:9846, V-B:TYR:539:CG:9844, V-B:TYR:539:CZ:9849, V-B:MET:535:CE:9807, V-B:TYR:539:CA:9841, V-B:ILE:538:CG2:9835, V-B:ILE:538:C:9830, V-B:ILE:538:CA:9832, V-B:PRO:540:CG:9858, H-A:ASN:370:N:3244, V-A:GLY:453:C:4042, V-A:GLY:454:CA:4049"]

$$$$
4aa_Grossjean_2025
     RDKit          3D

 26 28  0  0  0  0  0  0  0  0999 V2000
  131.4900  131.8430   55.6200 C   0  0  0  0  0  0  0  0  0  0  0  0
  131.8950  132.4010   56.9880 C   0  0  0  0  0  0  0  0  0  0  0  0
  130.9680  133.4040   57.3830 O   0  0  0  0  0  0  0  0  0  0  0  0
  129.6720  133.0960   57.6470 C   0  0  0  0  0  0  0  0  0  0  0  0
  128.7410  133.3500   56.8750 O   0  0  0  0  0  0  0  0  0  0  0  0
  129.4820  132.4200   58.9730 C   0  0  0  0  0  0  0  0  0  0  0  0
  129.8620  131.0790   59.1190 C   0  0  0  0  0  0  0  0  0  0  0  0
  129.6930  130.4220   60.3350 C   0  0  0  0  0  0  0  0  0  0  0  0
  129.1510  131.0940   61.4320 C   0  0  0  0  0  0  0  0  0  0  0  0
  129.0180  130.3330   62.6090 N   0  0  0  0  0  0  0  0  0  0  0  0
  127.9530  129.6460   63.0890 C   0  0  0  0  0  0  0  0  0  0  0  0
  126.8470  129.6160   62.5480 O   0  0  0  0  0  0  0  0  0  0  0  0
  128.1850  128.9320   64.3460 C   0  0  0  0  0  0  0  0  0  0  0  0
  127.5140  129.5500   65.8580 S   0  0  0  0  0  0  0  0  0  0  0  0
  128.2430  128.2470   66.7680 C   0  0  0  0  0  0  0  0  0  0  0  0
  128.0930  128.1390   68.0900 N   0  0  0  0  0  0  0  0  0  0  0  0
  128.7140  127.0860   68.6740 C   0  0  0  0  0  0  0  0  0  0  0  0
  128.5350  126.9840   70.1790 C   0  0  0  0  0  0  0  0  0  0  0  0
  129.4690  126.1460   67.9770 C   0  0  0  0  0  0  0  0  0  0  0  0
  129.6230  126.2610   66.5910 C   0  0  0  0  0  0  0  0  0  0  0  0
  130.4570  125.2110   65.8730 C   0  0  0  0  0  0  0  0  0  0  0  0
  128.9910  127.3550   65.9420 C   0  0  0  0  0  0  0  0  0  0  0  0
  128.9450  127.7720   64.5660 C   0  0  0  0  0  0  0  0  0  0  0  0
  129.5900  127.0810   63.5710 N   0  0  0  0  0  0  0  0  0  0  0  0
  128.7630  132.4340   61.2950 C   0  0  0  0  0  0  0  0  0  0  0  0
  128.9290  133.0890   60.0760 C   0  0  0  0  0  0  0  0  0  0  0  0
  1  2  1  0
  2  3  1  0
  3  4  1  0
  4  5  2  0
  4  6  1  0
  6  7  2  0
  7  8  1  0
  8  9  2  0
  9 10  1  0
 10 11  1  0
 11 12  2  0
 11 13  1  0
 13 14  1  0
 14 15  1  0
 15 16  2  0
 16 17  1  0
 17 18  1  0
 17 19  2  0
 19 20  1  0
 20 21  1  0
 20 22  2  0
 22 23  1  0
 23 24  1  0
  9 25  1  0
 25 26  2  0
 26  6  1  0
 23 13  2  0
 22 15  1  0
M  END
>  <Binding energies>  (37) 
[-7.29]

>  <Ligand effiencies>  (37) 
[-0.2513793103448276]

>  <Interactions>  (37) 
["V-B:GLU:543:CG:9879, V-A:GLU:543:CG:4907, V-B:TYR:484:CZ:9318, V-B:GLU:543:CD:9880, V-A:GLU:543:CD:4908, V-B:GLU:543:C:9874, V-B:GLU:543:CB:9878, V-B:HIS:456:CE1:9041, V-A:GLU:543:CB:4906, V-A:HIS:456:CE1:4070, V-A:ILE:538:CB:4862, H-A:TYR:539:N:4870, V-A:MET:535:CE:4835, V-A:LEU:363:CD1:3189, V-A:TYR:539:CD1:4873, V-A:ILE:538:CG2:4863, V-A:TYR:539:C:4867, V-A:PRO:540:N:4884, V-A:PRO:540:CA:4883, V-A:PRO:540:CB:4885, V-A:TYR:531:CE2:4793, V-A:TYR:539:CA:4869, H-A:GLU:543:OE1:4909, H-A:GLU:543:OE2:4910, H-B:GLU:543:OE1:9881"]

$$$$
4ab_Grossjean_2025
     RDKit          3D

 25 27  0  0  0  0  0  0  0  0999 V2000
  134.9670  124.7560   67.3710 C   0  0  0  0  0  0  0  0  0  0  0  0
  134.0890  124.9980   66.2800 O   0  0  0  0  0  0  0  0  0  0  0  0
  132.8440  125.5000   66.4830 C   0  0  0  0  0  0  0  0  0  0  0  0
  132.5300  126.1600   67.4790 O   0  0  0  0  0  0  0  0  0  0  0  0
  131.8840  125.1670   65.3780 C   0  0  0  0  0  0  0  0  0  0  0  0
  132.3450  124.4520   64.2640 C   0  0  0  0  0  0  0  0  0  0  0  0
  131.4780  124.1300   63.2220 C   0  0  0  0  0  0  0  0  0  0  0  0
  130.1370  124.5060   63.2760 C   0  0  0  0  0  0  0  0  0  0  0  0
  129.3540  124.1350   62.1660 N   0  0  0  0  0  0  0  0  0  0  0  0
  128.2140  123.4050   62.1060 C   0  0  0  0  0  0  0  0  0  0  0  0
  127.6720  122.8850   63.0820 O   0  0  0  0  0  0  0  0  0  0  0  0
  127.6490  123.2390   60.7660 C   0  0  0  0  0  0  0  0  0  0  0  0
  128.5730  122.4180   59.5050 S   0  0  0  0  0  0  0  0  0  0  0  0
  127.3000  122.6790   58.3350 C   0  0  0  0  0  0  0  0  0  0  0  0
  127.4020  122.2550   57.0750 N   0  0  0  0  0  0  0  0  0  0  0  0
  126.3460  122.5240   56.2690 C   0  0  0  0  0  0  0  0  0  0  0  0
  126.4830  122.0370   54.8380 C   0  0  0  0  0  0  0  0  0  0  0  0
  125.2010  123.1970   56.6900 C   0  0  0  0  0  0  0  0  0  0  0  0
  125.0980  123.6410   58.0130 C   0  0  0  0  0  0  0  0  0  0  0  0
  123.8290  124.3730   58.4250 C   0  0  0  0  0  0  0  0  0  0  0  0
  126.1880  123.3820   58.8880 C   0  0  0  0  0  0  0  0  0  0  0  0
  126.4160  123.6930   60.2730 C   0  0  0  0  0  0  0  0  0  0  0  0
  125.4950  124.3730   61.0310 N   0  0  0  0  0  0  0  0  0  0  0  0
  129.6670  125.2270   64.3840 C   0  0  0  0  0  0  0  0  0  0  0  0
  130.5350  125.5510   65.4240 C   0  0  0  0  0  0  0  0  0  0  0  0
  1  2  1  0
  2  3  1  0
  3  4  2  0
  3  5  1  0
  5  6  2  0
  6  7  1  0
  7  8  2  0
  8  9  1  0
  9 10  1  0
 10 11  2  0
 10 12  1  0
 12 13  1  0
 13 14  1  0
 14 15  2  0
 15 16  1  0
 16 17  1  0
 16 18  2  0
 18 19  1  0
 19 20  1  0
 19 21  2  0
 21 22  1  0
 22 23  1  0
  8 24  1  0
 24 25  2  0
 25  5  1  0
 22 12  2  0
 21 14  1  0
M  END
>  <Binding energies>  (38) 
[-7.3]

>  <Ligand effiencies>  (38) 
[-0.26071428571428573]

>  <Interactions>  (38) 
["V-B:GLU:543:CG:9879, V-B:GLU:543:CD:9880, V-A:TYR:484:CZ:4347, V-A:GLU:543:CD:4908, V-A:HIS:456:CE1:4070, V-A:ARG:545:CZ:4926, V-B:ASP:366:CB:8183, V-B:ASP:366:CG:8184, V-B:LEU:363:CD1:8160, V-B:PRO:540:N:9856, V-B:PRO:540:CA:9855, V-B:PRO:540:CB:9857, V-B:TYR:539:C:9839, V-B:PRO:540:CD:9859, V-B:TYR:539:CD1:9845, V-B:LEU:363:CA:8156, H-A:GLY:454:N:4050, H-B:ASP:366:OD1:8185, H-A:ARG:545:NE:4924, H-B:TYR:539:N:9842, H-A:TYR:484:OH:4348, V-B:TYR:539:CE2:9848, H-B:GLU:543:OE1:9881, V-B:TYR:539:CD2:9846, V-B:MET:535:CE:9807, V-B:ILE:538:CG2:9835, H-B:ALA:541:N:9863, V-B:ILE:538:C:9830, V-B:ILE:538:CA:9832, V-B:LEU:363:CB:8158, H-A:HIS:456:ND1:4067, V-A:ARG:545:CG:4922, V-A:ARG:545:CD:4923, V-A:GLY:453:C:4042, V-B:ILE:538:CB:9834, V-A:GLY:454:CA:4049, V-A:ARG:545:CB:4921, V-A:GLY:454:C:4047, V-A:ILE:455:C:4052, V-B:ILE:538:CG1:9836, V-A:ILE:455:CA:4054"]

$$$$
4ac_Grossjean_2025
     RDKit          3D

 23 25  0  0  0  0  0  0  0  0999 V2000
  130.0930  126.9340   68.1540 C   0  0  0  0  0  0  0  0  0  0  0  0
  130.8070  125.8710   67.5320 O   0  0  0  0  0  0  0  0  0  0  0  0
  130.3430  125.3550   66.3380 C   0  0  0  0  0  0  0  0  0  0  0  0
  129.7520  126.2600   65.4570 C   0  0  0  0  0  0  0  0  0  0  0  0
  129.2560  125.8320   64.2280 C   0  0  0  0  0  0  0  0  0  0  0  0
  129.3520  124.4890   63.8610 C   0  0  0  0  0  0  0  0  0  0  0  0
  128.8120  124.1470   62.6070 N   0  0  0  0  0  0  0  0  0  0  0  0
  127.8330  123.2590   62.3100 C   0  0  0  0  0  0  0  0  0  0  0  0
  127.2640  122.5550   63.1460 O   0  0  0  0  0  0  0  0  0  0  0  0
  127.4780  123.1680   60.8910 C   0  0  0  0  0  0  0  0  0  0  0  0
  128.5310  122.3150   59.7610 S   0  0  0  0  0  0  0  0  0  0  0  0
  127.4600  122.6660   58.4240 C   0  0  0  0  0  0  0  0  0  0  0  0
  127.7210  122.2540   57.1830 N   0  0  0  0  0  0  0  0  0  0  0  0
  126.8100  122.5930   56.2390 C   0  0  0  0  0  0  0  0  0  0  0  0
  127.1250  122.1140   54.8340 C   0  0  0  0  0  0  0  0  0  0  0  0
  125.6570  123.3300   56.5040 C   0  0  0  0  0  0  0  0  0  0  0  0
  125.3860  123.7620   57.8070 C   0  0  0  0  0  0  0  0  0  0  0  0
  124.1150  124.5620   58.0450 C   0  0  0  0  0  0  0  0  0  0  0  0
  126.3180  123.4220   58.8240 C   0  0  0  0  0  0  0  0  0  0  0  0
  126.3520  123.6930   60.2370 C   0  0  0  0  0  0  0  0  0  0  0  0
  125.3640  124.4050   60.8690 N   0  0  0  0  0  0  0  0  0  0  0  0
  129.9330  123.5700   64.7470 C   0  0  0  0  0  0  0  0  0  0  0  0
  130.4280  124.0020   65.9750 C   0  0  0  0  0  0  0  0  0  0  0  0
  1  2  1  0
  2  3  1  0
  3  4  2  0
  4  5  1  0
  5  6  2  0
  6  7  1  0
  7  8  1  0
  8  9  2  0
  8 10  1  0
 10 11  1  0
 11 12  1  0
 12 13  2  0
 13 14  1  0
 14 15  1  0
 14 16  2  0
 16 17  1  0
 17 18  1  0
 17 19  2  0
 19 20  1  0
 20 21  1  0
  6 22  1  0
 22 23  2  0
 23  3  1  0
 20 10  2  0
 19 12  1  0
M  END
>  <Binding energies>  (39) 
[-7.24]

>  <Ligand effiencies>  (39) 
[-0.2784615384615385]

>  <Interactions>  (39) 
["V-B:GLU:543:CG:9879, V-B:GLU:543:CD:9880, V-A:TYR:484:CZ:4347, V-A:GLU:543:CD:4908, V-A:TYR:484:CE2:4346, V-A:GLU:543:CB:4906, V-A:HIS:456:CE1:4070, V-B:ALA:541:CB:9864, V-B:ASP:366:CB:8183, V-B:ASP:366:CG:8184, V-B:LEU:363:CD1:8160, V-B:PRO:540:N:9856, V-B:PRO:540:CA:9855, V-B:PRO:540:CB:9857, V-B:TYR:539:C:9839, V-B:TYR:539:CE1:9847, V-B:TYR:539:CD1:9845, V-B:LEU:363:CA:8156, H-B:ASP:366:OD1:8185, H-B:TYR:539:N:9842, H-A:TYR:484:OH:4348, V-B:TYR:539:CE2:9848, H-B:GLU:543:OE1:9881, V-B:TYR:531:CE2:9765, V-B:TYR:539:CD2:9846, V-B:MET:535:CE:9807, V-B:ILE:538:CG2:9835, H-B:ALA:541:N:9863, V-B:ILE:538:C:9830, V-B:ILE:538:CA:9832, V-B:ILE:538:CB:9834"]

$$$$
4ad_Grossjean_2025
     RDKit          3D

 21 23  0  0  0  0  0  0  0  0999 V2000
  127.0240  122.1220   54.9620 C   0  0  0  0  0  0  0  0  0  0  0  0
  126.7880  122.5880   56.3860 C   0  0  0  0  0  0  0  0  0  0  0  0
  125.6140  123.2480   56.7410 C   0  0  0  0  0  0  0  0  0  0  0  0
  125.4200  123.6710   58.0620 C   0  0  0  0  0  0  0  0  0  0  0  0
  124.1220  124.3900   58.4000 C   0  0  0  0  0  0  0  0  0  0  0  0
  126.4510  123.4040   59.0020 C   0  0  0  0  0  0  0  0  0  0  0  0
  126.5820  123.6890   60.4050 C   0  0  0  0  0  0  0  0  0  0  0  0
  125.6010  124.3360   61.1140 N   0  0  0  0  0  0  0  0  0  0  0  0
  127.7900  123.2480   60.9670 C   0  0  0  0  0  0  0  0  0  0  0  0
  128.2570  123.3850   62.3480 C   0  0  0  0  0  0  0  0  0  0  0  0
  127.5940  122.9310   63.2830 O   0  0  0  0  0  0  0  0  0  0  0  0
  129.4440  124.0220   62.5000 N   0  0  0  0  0  0  0  0  0  0  0  0
  130.1400  124.3500   63.6790 C   0  0  0  0  0  0  0  0  0  0  0  0
  131.3100  125.0970   63.5110 C   0  0  0  0  0  0  0  0  0  0  0  0
  132.0630  125.4800   64.6180 C   0  0  0  0  0  0  0  0  0  0  0  0
  131.6420  125.1230   65.8960 C   0  0  0  0  0  0  0  0  0  0  0  0
  130.4720  124.3900   66.0780 C   0  0  0  0  0  0  0  0  0  0  0  0
  129.7170  124.0050   64.9730 C   0  0  0  0  0  0  0  0  0  0  0  0
  128.8030  122.4560   59.7580 S   0  0  0  0  0  0  0  0  0  0  0  0
  127.6060  122.7220   58.5120 C   0  0  0  0  0  0  0  0  0  0  0  0
  127.7930  122.3170   57.2540 N   0  0  0  0  0  0  0  0  0  0  0  0
  1  2  1  0
  2  3  2  0
  3  4  1  0
  4  5  1  0
  4  6  2  0
  6  7  1  0
  7  8  1  0
  7  9  2  0
  9 10  1  0
 10 11  2  0
 10 12  1  0
 12 13  1  0
 13 14  2  0
 14 15  1  0
 15 16  2  0
 16 17  1  0
 17 18  2  0
  9 19  1  0
 19 20  1  0
 20 21  2  0
 21  2  1  0
 20  6  1  0
 18 13  1  0
M  END
>  <Binding energies>  (40) 
[-7.38]

>  <Ligand effiencies>  (40) 
[-0.3075]

>  <Interactions>  (40) 
["V-B:GLU:543:CG:9879, V-B:GLU:543:CD:9880, V-A:TYR:484:CZ:4347, V-A:GLU:543:CD:4908, V-A:TYR:484:CE2:4346, V-B:GLU:543:CB:9878, V-A:ARG:545:CZ:4926, V-B:ASP:366:CB:8183, V-B:ASP:366:CG:8184, V-B:LEU:363:CD1:8160, V-B:PRO:540:N:9856, V-B:PRO:540:CA:9855, V-B:PRO:540:CB:9857, V-B:TYR:539:C:9839, V-B:TYR:539:CE1:9847, V-B:TYR:539:CD1:9845, V-B:LEU:363:CA:8156, H-B:ASP:366:OD1:8185, H-B:TYR:539:N:9842, V-B:TYR:539:CE2:9848, H-B:GLU:543:OE1:9881, V-B:TYR:539:CD2:9846, V-B:MET:535:CE:9807, V-B:ILE:538:CG2:9835, H-B:ALA:541:N:9863, V-B:ILE:538:C:9830, V-B:ILE:538:CA:9832, V-B:LEU:363:CB:8158, V-B:ILE:538:CB:9834"]

$$$$
4ae_Grossjean_2025
     RDKit          3D

 22 24  0  0  0  0  0  0  0  0999 V2000
  129.7580  124.7760   67.2030 C   0  0  0  0  0  0  0  0  0  0  0  0
  130.4490  124.7910   65.8540 C   0  0  0  0  0  0  0  0  0  0  0  0
  131.7960  125.1410   65.7260 C   0  0  0  0  0  0  0  0  0  0  0  0
  132.3640  125.1400   64.4520 C   0  0  0  0  0  0  0  0  0  0  0  0
  131.5810  124.7950   63.3480 C   0  0  0  0  0  0  0  0  0  0  0  0
  130.2400  124.4470   63.5470 C   0  0  0  0  0  0  0  0  0  0  0  0
  129.4980  124.1290   62.3960 N   0  0  0  0  0  0  0  0  0  0  0  0
  128.3310  123.4440   62.3020 C   0  0  0  0  0  0  0  0  0  0  0  0
  127.7310  122.9750   63.2700 O   0  0  0  0  0  0  0  0  0  0  0  0
  127.8060  123.2840   60.9440 C   0  0  0  0  0  0  0  0  0  0  0  0
  128.7780  122.4920   59.7020 S   0  0  0  0  0  0  0  0  0  0  0  0
  127.5330  122.7430   58.5010 C   0  0  0  0  0  0  0  0  0  0  0  0
  127.6770  122.3360   57.2390 N   0  0  0  0  0  0  0  0  0  0  0  0
  126.6410  122.5960   56.4070 C   0  0  0  0  0  0  0  0  0  0  0  0
  126.8290  122.1310   54.9750 C   0  0  0  0  0  0  0  0  0  0  0  0
  125.4720  123.2460   56.8030 C   0  0  0  0  0  0  0  0  0  0  0  0
  125.3240  123.6710   58.1290 C   0  0  0  0  0  0  0  0  0  0  0  0
  124.0330  124.3780   58.5120 C   0  0  0  0  0  0  0  0  0  0  0  0
  126.3920  123.4160   59.0310 C   0  0  0  0  0  0  0  0  0  0  0  0
  126.5730  123.7120   60.4270 C   0  0  0  0  0  0  0  0  0  0  0  0
  125.6160  124.3560   61.1710 N   0  0  0  0  0  0  0  0  0  0  0  0
  129.6760  124.4520   64.7910 N   0  0  0  0  0  0  0  0  0  0  0  0
  1  2  1  0
  2  3  2  0
  3  4  1  0
  4  5  2  0
  5  6  1  0
  6  7  1  0
  7  8  1  0
  8  9  2  0
  8 10  1  0
 10 11  1  0
 11 12  1  0
 12 13  2  0
 13 14  1  0
 14 15  1  0
 14 16  2  0
 16 17  1  0
 17 18  1  0
 17 19  2  0
 19 20  1  0
 20 21  1  0
  6 22  2  0
 22  2  1  0
 20 10  2  0
 19 12  1  0
M  END
>  <Binding energies>  (41) 
[-7.54]

>  <Ligand effiencies>  (41) 
[-0.3016]

>  <Interactions>  (41) 
["V-B:GLU:543:CG:9879, V-B:GLU:543:CD:9880, V-A:TYR:484:CZ:4347, V-A:TYR:484:CE2:4346, V-B:GLU:543:CB:9878, V-A:HIS:456:CE1:4070, V-A:ARG:545:CZ:4926, V-B:ASP:366:CB:8183, V-B:ASP:366:CG:8184, V-B:LEU:363:CD1:8160, V-B:PRO:540:N:9856, V-B:PRO:540:CA:9855, V-B:PRO:540:CB:9857, V-B:TYR:539:C:9839, V-B:PRO:540:CD:9859, V-B:TYR:539:CE1:9847, V-B:TYR:539:CD1:9845, V-B:LEU:363:CA:8156, H-B:ASP:366:OD1:8185, H-B:TYR:539:N:9842, V-B:GLU:543:CA:9876, V-B:TYR:539:CE2:9848, H-B:GLU:543:OE1:9881, V-B:TYR:539:CD2:9846, V-B:MET:535:CE:9807, V-B:ILE:538:CG2:9835, H-B:ALA:541:N:9863, V-B:ILE:538:C:9830, V-B:ILE:538:CA:9832, V-B:LEU:363:CB:8158, V-B:ILE:538:CB:9834, V-B:ILE:538:CG1:9836"]

$$$$
4af_Grossjean_2025
     RDKit          3D

 21 23  0  0  0  0  0  0  0  0999 V2000
  127.0530  122.1200   54.9600 C   0  0  0  0  0  0  0  0  0  0  0  0
  126.8110  122.5840   56.3840 C   0  0  0  0  0  0  0  0  0  0  0  0
  125.6430  123.2590   56.7310 C   0  0  0  0  0  0  0  0  0  0  0  0
  125.4420  123.6800   58.0510 C   0  0  0  0  0  0  0  0  0  0  0  0
  124.1520  124.4140   58.3800 C   0  0  0  0  0  0  0  0  0  0  0  0
  126.4620  123.3950   58.9990 C   0  0  0  0  0  0  0  0  0  0  0  0
  126.5840  123.6770   60.4050 C   0  0  0  0  0  0  0  0  0  0  0  0
  125.6090  124.3400   61.1060 N   0  0  0  0  0  0  0  0  0  0  0  0
  127.7790  123.2130   60.9780 C   0  0  0  0  0  0  0  0  0  0  0  0
  128.2410  123.3520   62.3600 C   0  0  0  0  0  0  0  0  0  0  0  0
  127.5800  122.8910   63.2910 O   0  0  0  0  0  0  0  0  0  0  0  0
  129.4240  123.9950   62.5140 N   0  0  0  0  0  0  0  0  0  0  0  0
  130.1130  124.3310   63.6940 C   0  0  0  0  0  0  0  0  0  0  0  0
  129.7420  123.9440   64.9950 C   0  0  0  0  0  0  0  0  0  0  0  0
  130.5060  124.3630   66.0850 C   0  0  0  0  0  0  0  0  0  0  0  0
  131.6250  125.1640   65.8500 C   0  0  0  0  0  0  0  0  0  0  0  0
  131.9990  125.5570   64.6070 N   0  0  0  0  0  0  0  0  0  0  0  0
  131.2460  125.1430   63.5570 C   0  0  0  0  0  0  0  0  0  0  0  0
  128.7920  122.4100   59.7750 S   0  0  0  0  0  0  0  0  0  0  0  0
  127.6100  122.6980   58.5180 C   0  0  0  0  0  0  0  0  0  0  0  0
  127.8030  122.2940   57.2620 N   0  0  0  0  0  0  0  0  0  0  0  0
  1  2  1  0
  2  3  2  0
  3  4  1  0
  4  5  1  0
  4  6  2  0
  6  7  1  0
  7  8  1  0
  7  9  2  0
  9 10  1  0
 10 11  2  0
 10 12  1  0
 12 13  1  0
 13 14  2  0
 14 15  1  0
 15 16  2  0
 16 17  1  0
 17 18  2  0
  9 19  1  0
 19 20  1  0
 20 21  2  0
 21  2  1  0
 20  6  1  0
 18 13  1  0
M  END
>  <Binding energies>  (42) 
[-7.11]

>  <Ligand effiencies>  (42) 
[-0.29625]

>  <Interactions>  (42) 
["V-B:GLU:543:CG:9879, V-B:GLU:543:CD:9880, V-A:TYR:484:CZ:4347, V-A:TYR:484:CE2:4346, V-B:GLU:543:CB:9878, V-B:ASP:366:CB:8183, V-B:ASP:366:CG:8184, V-B:LEU:363:CD1:8160, V-B:PRO:540:N:9856, V-B:PRO:540:CA:9855, V-B:PRO:540:CB:9857, V-B:TYR:539:C:9839, V-B:TYR:539:CE1:9847, V-B:TYR:539:CD1:9845, V-B:LEU:363:CA:8156, H-B:ASP:366:OD1:8185, H-A:ARG:545:NH2:4928, H-A:ARG:545:NE:4924, H-B:TYR:539:N:9842, V-B:TYR:539:CE2:9848, H-B:GLU:543:OE1:9881, V-B:TYR:539:CD2:9846, V-B:MET:535:CE:9807, V-B:ILE:538:CG2:9835, H-B:ALA:541:N:9863, V-B:ILE:538:C:9830, V-B:ILE:538:CA:9832, V-B:ILE:538:CB:9834"]

$$$$
4ag_Grossjean_2025
     RDKit          3D

 22 24  0  0  0  0  0  0  0  0999 V2000
  127.1390  122.1270   54.9270 C   0  0  0  0  0  0  0  0  0  0  0  0
  126.8440  122.6180   56.3320 C   0  0  0  0  0  0  0  0  0  0  0  0
  125.7310  123.4140   56.5940 C   0  0  0  0  0  0  0  0  0  0  0  0
  125.4770  123.8550   57.8970 C   0  0  0  0  0  0  0  0  0  0  0  0
  124.2490  124.7220   58.1330 C   0  0  0  0  0  0  0  0  0  0  0  0
  126.3840  123.4650   58.9180 C   0  0  0  0  0  0  0  0  0  0  0  0
  126.4270  123.7310   60.3300 C   0  0  0  0  0  0  0  0  0  0  0  0
  125.4770  124.4940   60.9630 N   0  0  0  0  0  0  0  0  0  0  0  0
  127.5190  123.1460   60.9870 C   0  0  0  0  0  0  0  0  0  0  0  0
  127.8620  123.2020   62.4080 C   0  0  0  0  0  0  0  0  0  0  0  0
  127.2430  122.5420   63.2450 O   0  0  0  0  0  0  0  0  0  0  0  0
  128.8760  124.0290   62.7420 N   0  0  0  0  0  0  0  0  0  0  0  0
  129.4030  124.2210   64.0920 C   0  0  0  0  0  0  0  0  0  0  0  0
  130.9160  124.3980   64.1480 C   0  0  0  0  0  0  0  0  0  0  0  0
  131.7000  124.0280   63.0510 C   0  0  0  0  0  0  0  0  0  0  0  0
  133.0800  124.2120   63.0900 C   0  0  0  0  0  0  0  0  0  0  0  0
  133.6700  124.7750   64.2190 C   0  0  0  0  0  0  0  0  0  0  0  0
  132.8930  125.1610   65.3090 C   0  0  0  0  0  0  0  0  0  0  0  0
  131.5130  124.9780   65.2710 C   0  0  0  0  0  0  0  0  0  0  0  0
  128.5270  122.2320   59.8640 S   0  0  0  0  0  0  0  0  0  0  0  0
  127.4850  122.6470   58.5210 C   0  0  0  0  0  0  0  0  0  0  0  0
  127.7290  122.2240   57.2800 N   0  0  0  0  0  0  0  0  0  0  0  0
  1  2  1  0
  2  3  2  0
  3  4  1  0
  4  5  1  0
  4  6  2  0
  6  7  1  0
  7  8  1  0
  7  9  2  0
  9 10  1  0
 10 11  2  0
 10 12  1  0
 12 13  1  0
 13 14  1  0
 14 15  2  0
 15 16  1  0
 16 17  2  0
 17 18  1  0
 18 19  2  0
  9 20  1  0
 20 21  1  0
 21 22  2  0
 22  2  1  0
 21  6  1  0
 19 14  1  0
M  END
>  <Binding energies>  (43) 
[-7.64]

>  <Ligand effiencies>  (43) 
[-0.3056]

>  <Interactions>  (43) 
["V-B:GLU:543:CG:9879, V-B:GLU:543:CD:9880, V-B:ALA:541:CB:9864, V-A:ARG:545:CZ:4926, V-B:ASP:366:CB:8183, V-B:ASP:366:CG:8184, V-B:LEU:363:CD1:8160, V-B:PRO:540:N:9856, V-B:PRO:540:CA:9855, V-B:PRO:540:CB:9857, V-B:TYR:539:C:9839, V-B:TYR:539:CE1:9847, V-B:TYR:539:CD1:9845, V-B:LEU:363:CA:8156, H-B:ASP:366:OD1:8185, H-B:TYR:539:N:9842, V-B:TYR:539:CE2:9848, H-B:GLU:543:OE1:9881, V-B:TYR:531:CE2:9765, V-B:TYR:539:CD2:9846, V-B:TYR:539:CG:9844, V-B:MET:535:CE:9807, V-B:ILE:538:CG2:9835, H-B:ALA:541:N:9863, V-B:ILE:538:C:9830, V-B:ILE:538:CA:9832, V-A:ARG:545:CD:4923, V-B:ILE:538:CB:9834, V-A:GLY:454:CA:4049"]

$$$$
4ah_Grossjean_2025
     RDKit          3D

 28 30  0  0  0  0  0  0  0  0999 V2000
  130.8440  126.3680   67.7520 C   0  0  0  0  0  0  0  0  0  0  0  0
  131.9380  125.9670   66.9340 O   0  0  0  0  0  0  0  0  0  0  0  0
  131.7310  125.0330   65.9340 C   0  0  0  0  0  0  0  0  0  0  0  0
  130.5100  124.3770   65.7140 C   0  0  0  0  0  0  0  0  0  0  0  0
  130.3750  123.4430   64.6860 C   0  0  0  0  0  0  0  0  0  0  0  0
  129.0270  122.7760   64.4330 C   0  0  0  0  0  0  0  0  0  0  0  0
  128.6030  122.8260   63.0340 N   0  0  0  0  0  0  0  0  0  0  0  0
  127.3240  122.8780   62.6060 C   0  0  0  0  0  0  0  0  0  0  0  0
  126.3640  122.8500   63.3780 O   0  0  0  0  0  0  0  0  0  0  0  0
  127.1350  122.9280   61.1570 C   0  0  0  0  0  0  0  0  0  0  0  0
  128.2830  122.1240   60.0850 S   0  0  0  0  0  0  0  0  0  0  0  0
  127.4140  122.6730   58.6700 C   0  0  0  0  0  0  0  0  0  0  0  0
  127.8100  122.3650   57.4340 N   0  0  0  0  0  0  0  0  0  0  0  0
  127.0470  122.8510   56.4260 C   0  0  0  0  0  0  0  0  0  0  0  0
  127.5180  122.4930   55.0280 C   0  0  0  0  0  0  0  0  0  0  0  0
  125.9080  123.6290   56.6210 C   0  0  0  0  0  0  0  0  0  0  0  0
  125.4950  123.9530   57.9190 C   0  0  0  0  0  0  0  0  0  0  0  0
  124.2460  124.8040   58.0820 C   0  0  0  0  0  0  0  0  0  0  0  0
  126.2720  123.4620   59.0040 C   0  0  0  0  0  0  0  0  0  0  0  0
  126.1430  123.6010   60.4290 C   0  0  0  0  0  0  0  0  0  0  0  0
  125.1310  124.3240   61.0080 N   0  0  0  0  0  0  0  0  0  0  0  0
  131.4590  123.1790   63.8500 C   0  0  0  0  0  0  0  0  0  0  0  0
  132.6950  123.8150   64.0490 C   0  0  0  0  0  0  0  0  0  0  0  0
  133.8140  123.5900   63.2690 O   0  0  0  0  0  0  0  0  0  0  0  0
  134.0770  124.4470   62.1620 C   0  0  0  0  0  0  0  0  0  0  0  0
  132.8190  124.7360   65.0990 C   0  0  0  0  0  0  0  0  0  0  0  0
  134.0170  125.3800   65.2950 O   0  0  0  0  0  0  0  0  0  0  0  0
  134.6510  125.0610   66.5270 C   0  0  0  0  0  0  0  0  0  0  0  0
  1  2  1  0
  2  3  1  0
  3  4  2  0
  4  5  1  0
  5  6  1  0
  6  7  1  0
  7  8  1  0
  8  9  2  0
  8 10  1  0
 10 11  1  0
 11 12  1  0
 12 13  2  0
 13 14  1  0
 14 15  1  0
 14 16  2  0
 16 17  1  0
 17 18  1  0
 17 19  2  0
 19 20  1  0
 20 21  1  0
  5 22  2  0
 22 23  1  0
 23 24  1  0
 24 25  1  0
 23 26  2  0
 26 27  1  0
 27 28  1  0
 26  3  1  0
 20 10  2  0
 19 12  1  0
M  END
>  <Binding energies>  (44) 
[-6.86]

>  <Ligand effiencies>  (44) 
[-0.22129032258064518]

>  <Interactions>  (44) 
["V-B:GLU:543:CG:9879, V-B:GLU:543:CD:9880, V-A:TYR:484:CZ:4347, V-A:GLU:543:CD:4908, V-A:TYR:484:CE2:4346, V-A:HIS:456:CE1:4070, V-B:ALA:541:CB:9864, V-A:ARG:545:CZ:4926, V-A:LEU:475:CD2:4259, V-B:ASP:366:CB:8183, V-B:ASP:366:CG:8184, V-B:LEU:363:CD1:8160, V-B:PRO:540:N:9856, V-B:PRO:540:CA:9855, V-B:PRO:540:CB:9857, V-B:TYR:539:C:9839, V-B:TYR:539:CE1:9847, V-B:TYR:539:CD1:9845, V-B:LEU:363:CA:8156, H-A:GLY:454:N:4050, H-B:ASP:366:OD1:8185, H-A:ARG:545:NH2:4928, H-A:ARG:545:NH1:4927, H-A:ARG:545:NE:4924, H-B:TYR:539:N:9842, H-A:TYR:484:OH:4348, V-B:TYR:539:CE2:9848, V-A:ILE:369:CD1:3239, V-B:PRO:540:C:9853, V-A:GLY:453:CA:4044, H-B:GLU:543:OE1:9881, V-B:TYR:531:CE2:9765, V-B:TYR:539:CD2:9846, V-B:TYR:539:CG:9844, V-B:TYR:539:CZ:9849, V-B:MET:535:CE:9807, V-B:ALA:541:CA:9862, H-B:ALA:541:N:9863, V-B:ILE:538:CA:9832, V-A:ARG:545:CG:4922, V-A:ARG:545:CD:4923, V-A:GLY:453:C:4042, V-A:GLY:454:CA:4049"]

$$$$
4ai_Grossjean_2025
     RDKit          3D

 20 22  0  0  0  0  0  0  0  0999 V2000
  127.1560  122.1200   55.0230 C   0  0  0  0  0  0  0  0  0  0  0  0
  126.8410  122.5740   56.4360 C   0  0  0  0  0  0  0  0  0  0  0  0
  125.6660  123.2680   56.7210 C   0  0  0  0  0  0  0  0  0  0  0  0
  125.3930  123.6710   58.0330 C   0  0  0  0  0  0  0  0  0  0  0  0
  124.0970  124.4240   58.2940 C   0  0  0  0  0  0  0  0  0  0  0  0
  126.3450  123.3490   59.0380 C   0  0  0  0  0  0  0  0  0  0  0  0
  126.3830  123.6030   60.4530 C   0  0  0  0  0  0  0  0  0  0  0  0
  125.3820  124.2810   61.1030 N   0  0  0  0  0  0  0  0  0  0  0  0
  127.5230  123.0920   61.0940 C   0  0  0  0  0  0  0  0  0  0  0  0
  127.8880  123.1770   62.5100 C   0  0  0  0  0  0  0  0  0  0  0  0
  127.2420  122.5660   63.3630 O   0  0  0  0  0  0  0  0  0  0  0  0
  128.9710  123.9450   62.7860 N   0  0  0  0  0  0  0  0  0  0  0  0
  129.5380  124.1900   64.0300 C   0  0  0  0  0  0  0  0  0  0  0  0
  129.9910  125.4480   64.4270 C   0  0  0  0  0  0  0  0  0  0  0  0
  130.4760  125.2690   65.7020 C   0  0  0  0  0  0  0  0  0  0  0  0
  130.3220  123.9710   66.0550 O   0  0  0  0  0  0  0  0  0  0  0  0
  129.7250  123.2970   64.9890 N   0  0  0  0  0  0  0  0  0  0  0  0
  128.5990  122.2980   59.9410 S   0  0  0  0  0  0  0  0  0  0  0  0
  127.5070  122.6370   58.6160 C   0  0  0  0  0  0  0  0  0  0  0  0
  127.7720  122.2510   57.3670 N   0  0  0  0  0  0  0  0  0  0  0  0
  1  2  1  0
  2  3  2  0
  3  4  1  0
  4  5  1  0
  4  6  2  0
  6  7  1  0
  7  8  1  0
  7  9  2  0
  9 10  1  0
 10 11  2  0
 10 12  1  0
 12 13  1  0
 13 14  1  0
 14 15  2  0
 15 16  1  0
 16 17  1  0
  9 18  1  0
 18 19  1  0
 19 20  2  0
 20  2  1  0
 19  6  1  0
 17 13  2  0
M  END
>  <Binding energies>  (45) 
[-7.15]

>  <Ligand effiencies>  (45) 
[-0.31086956521739134]

>  <Interactions>  (45) 
["V-B:GLU:543:CG:9879, V-B:GLU:543:CD:9880, V-B:ALA:541:CB:9864, V-B:ASP:366:CB:8183, V-B:ASP:366:CG:8184, V-B:LEU:363:CD1:8160, V-B:PRO:540:N:9856, V-B:PRO:540:CA:9855, V-B:PRO:540:CB:9857, V-B:TYR:539:C:9839, V-B:PRO:540:CD:9859, V-B:TYR:539:CE1:9847, V-B:TYR:539:CD1:9845, V-B:LEU:363:CA:8156, H-B:ASP:366:OD1:8185, H-B:TYR:539:N:9842, H-A:TYR:484:OH:4348, V-B:TYR:539:CE2:9848, V-B:PRO:540:C:9853, H-B:GLU:543:OE1:9881, V-B:TYR:531:CE2:9765, V-B:TYR:539:CD2:9846, V-B:TYR:539:CG:9844, V-B:MET:535:CE:9807, V-B:ILE:538:CG2:9835, H-B:ALA:541:N:9863, V-B:ILE:538:C:9830, V-B:ILE:538:CA:9832, V-B:LEU:363:CB:8158, V-B:ILE:538:CB:9834"]

$$$$
4aj_Grossjean_2025
     RDKit          3D

 20 22  0  0  0  0  0  0  0  0999 V2000
  127.1150  122.1170   54.9720 C   0  0  0  0  0  0  0  0  0  0  0  0
  126.8220  122.6040   56.3800 C   0  0  0  0  0  0  0  0  0  0  0  0
  125.6650  123.3250   56.6630 C   0  0  0  0  0  0  0  0  0  0  0  0
  125.4180  123.7690   57.9670 C   0  0  0  0  0  0  0  0  0  0  0  0
  124.1400  124.5530   58.2250 C   0  0  0  0  0  0  0  0  0  0  0  0
  126.3780  123.4580   58.9670 C   0  0  0  0  0  0  0  0  0  0  0  0
  126.4420  123.7510   60.3740 C   0  0  0  0  0  0  0  0  0  0  0  0
  125.4640  124.4620   61.0190 N   0  0  0  0  0  0  0  0  0  0  0  0
  127.5840  123.2390   61.0100 C   0  0  0  0  0  0  0  0  0  0  0  0
  127.9730  123.3580   62.4170 C   0  0  0  0  0  0  0  0  0  0  0  0
  127.4670  122.6290   63.2730 O   0  0  0  0  0  0  0  0  0  0  0  0
  128.9150  124.2950   62.6840 N   0  0  0  0  0  0  0  0  0  0  0  0
  129.4620  124.5990   63.9230 C   0  0  0  0  0  0  0  0  0  0  0  0
  129.6220  125.7860   64.4660 N   0  0  0  0  0  0  0  0  0  0  0  0
  130.1730  125.7020   65.6620 C   0  0  0  0  0  0  0  0  0  0  0  0
  130.4730  124.4200   66.1120 C   0  0  0  0  0  0  0  0  0  0  0  0
  130.0030  123.2700   64.8960 S   0  0  0  0  0  0  0  0  0  0  0  0
  128.6250  122.3890   59.8660 S   0  0  0  0  0  0  0  0  0  0  0  0
  127.5200  122.7110   58.5490 C   0  0  0  0  0  0  0  0  0  0  0  0
  127.7590  122.2870   57.3070 N   0  0  0  0  0  0  0  0  0  0  0  0
  1  2  1  0
  2  3  2  0
  3  4  1  0
  4  5  1  0
  4  6  2  0
  6  7  1  0
  7  8  1  0
  7  9  2  0
  9 10  1  0
 10 11  2  0
 10 12  1  0
 12 13  1  0
 13 14  2  0
 14 15  1  0
 15 16  2  0
 16 17  1  0
  9 18  1  0
 18 19  1  0
 19 20  2  0
 20  2  1  0
 19  6  1  0
 17 13  1  0
M  END
>  <Binding energies>  (46) 
[-7.16]

>  <Ligand effiencies>  (46) 
[-0.31130434782608696]

>  <Interactions>  (46) 
["V-B:GLU:543:CG:9879, V-B:GLU:543:CD:9880, V-A:TYR:484:CZ:4347, V-A:GLU:543:CD:4908, V-A:TYR:484:CE2:4346, V-B:ASP:366:CB:8183, V-B:ASP:366:CG:8184, V-B:LEU:363:CD1:8160, V-B:PRO:540:N:9856, V-B:PRO:540:CA:9855, V-B:PRO:540:CB:9857, V-B:TYR:539:C:9839, V-B:TYR:539:CE1:9847, V-B:TYR:539:CD1:9845, V-B:LEU:363:CA:8156, H-B:ASP:366:OD1:8185, H-B:TYR:539:N:9842, V-B:TYR:539:CE2:9848, H-B:GLU:543:OE1:9881, V-B:TYR:531:CE2:9765, V-B:TYR:539:CD2:9846, V-B:TYR:539:CG:9844, V-B:MET:535:CE:9807, V-B:ILE:538:CG2:9835, H-B:ALA:541:N:9863, V-B:ILE:538:C:9830, V-B:ILE:538:CA:9832, V-B:ILE:538:CB:9834"]

$$$$
4ak_Grossjean_2025
     RDKit          3D

 25 26  0  0  0  0  0  0  0  0999 V2000
  123.7800  130.8080   58.4760 C   0  0  0  0  0  0  0  0  0  0  0  0
  124.6610  131.7440   57.8760 O   0  0  0  0  0  0  0  0  0  0  0  0
  125.6160  131.1470   57.0070 C   0  0  0  0  0  0  0  0  0  0  0  0
  126.9980  131.1730   57.6720 C   0  0  0  0  0  0  0  0  0  0  0  0
  127.6460  132.4000   57.3650 O   0  0  0  0  0  0  0  0  0  0  0  0
  127.9070  132.5810   55.9790 C   0  0  0  0  0  0  0  0  0  0  0  0
  129.4020  132.8540   55.7760 C   0  0  0  0  0  0  0  0  0  0  0  0
  129.9470  133.3940   56.9730 O   0  0  0  0  0  0  0  0  0  0  0  0
  131.1730  132.7920   57.3680 C   0  0  0  0  0  0  0  0  0  0  0  0
  131.0340  132.2480   58.8010 C   0  0  0  0  0  0  0  0  0  0  0  0
  129.6670  132.3040   59.3190 N   0  0  0  0  0  0  0  0  0  0  0  0
  129.3300  132.4580   60.6160 C   0  0  0  0  0  0  0  0  0  0  0  0
  130.1710  132.5920   61.5060 O   0  0  0  0  0  0  0  0  0  0  0  0
  127.8980  132.4680   60.9110 C   0  0  0  0  0  0  0  0  0  0  0  0
  127.0170  130.9510   61.0930 S   0  0  0  0  0  0  0  0  0  0  0  0
  125.5240  131.8040   61.4150 C   0  0  0  0  0  0  0  0  0  0  0  0
  124.3800  131.1600   61.6500 N   0  0  0  0  0  0  0  0  0  0  0  0
  123.2950  131.9400   61.8830 C   0  0  0  0  0  0  0  0  0  0  0  0
  122.0040  131.1880   62.1500 C   0  0  0  0  0  0  0  0  0  0  0  0
  123.3280  133.3330   61.8860 C   0  0  0  0  0  0  0  0  0  0  0  0
  124.5310  134.0060   61.6390 C   0  0  0  0  0  0  0  0  0  0  0  0
  124.5160  135.5260   61.6500 C   0  0  0  0  0  0  0  0  0  0  0  0
  125.6890  133.2220   61.3900 C   0  0  0  0  0  0  0  0  0  0  0  0
  127.0550  133.5730   61.1060 C   0  0  0  0  0  0  0  0  0  0  0  0
  127.4770  134.8760   61.0330 N   0  0  0  0  0  0  0  0  0  0  0  0
  1  2  1  0
  2  3  1  0
  3  4  1  0
  4  5  1  0
  5  6  1  0
  6  7  1  0
  7  8  1  0
  8  9  1  0
  9 10  1  0
 10 11  1  0
 11 12  1  0
 12 13  2  0
 12 14  1  0
 14 15  1  0
 15 16  1  0
 16 17  2  0
 17 18  1  0
 18 19  1  0
 18 20  2  0
 20 21  1  0
 21 22  1  0
 21 23  2  0
 23 24  1  0
 24 25  1  0
 24 14  2  0
 23 16  1  0
M  END
>  <Binding energies>  (47) 
[-5.69]

>  <Ligand effiencies>  (47) 
[-0.20321428571428574]

>  <Interactions>  (47) 
["V-B:LEU:475:CD2:9230, V-A:ILE:538:CB:4862, V-A:ILE:538:CA:4860, V-B:ILE:369:CG2:8208, V-A:ILE:538:C:4858, H-A:TYR:539:N:4870, V-B:ASP:366:CB:8183, V-A:MET:535:CE:4835, V-B:ASP:366:CA:8181, H-A:TYR:539:OH:4878, V-B:ILE:369:CB:8207, V-A:TYR:539:CE1:4875, V-B:ASP:366:CG:8184, V-A:TYR:539:CD1:4873, V-A:TYR:539:CE2:4876, V-A:TYR:539:CD2:4874, V-A:TYR:539:CZ:4877, H-A:ALA:541:N:4891, V-A:TYR:539:C:4867, H-A:TYR:539:O:4868, V-A:PRO:540:N:4884, V-A:PRO:540:CA:4883, V-A:PRO:540:CB:4885, V-B:SER:385:CB:8380, V-A:PRO:540:CD:4887, V-B:ASP:366:C:8179, V-B:ILE:369:CG1:8209, V-B:GLY:453:C:9013, V-B:SER:385:CA:8378, V-B:GLY:453:CA:9015"]

$$$$
4al_Grossjean_2025
     RDKit          3D

 16 17  0  0  0  0  0  0  0  0999 V2000
  128.6490  131.1870   63.5970 C   0  0  0  0  0  0  0  0  0  0  0  0
  129.2980  132.2750   62.9570 O   0  0  0  0  0  0  0  0  0  0  0  0
  130.4760  132.0980   62.3040 C   0  0  0  0  0  0  0  0  0  0  0  0
  131.5500  131.8770   62.8680 O   0  0  0  0  0  0  0  0  0  0  0  0
  130.3400  132.1980   60.8350 C   0  0  0  0  0  0  0  0  0  0  0  0
  129.0030  133.1120   60.1330 S   0  0  0  0  0  0  0  0  0  0  0  0
  129.5510  132.7470   58.5120 C   0  0  0  0  0  0  0  0  0  0  0  0
  128.9050  133.1920   57.4340 N   0  0  0  0  0  0  0  0  0  0  0  0
  129.4330  132.8390   56.2350 C   0  0  0  0  0  0  0  0  0  0  0  0
  128.6840  133.3550   55.0210 C   0  0  0  0  0  0  0  0  0  0  0  0
  130.5800  132.0590   56.0940 C   0  0  0  0  0  0  0  0  0  0  0  0
  131.2550  131.5940   57.2270 C   0  0  0  0  0  0  0  0  0  0  0  0
  132.5000  130.7470   57.0230 C   0  0  0  0  0  0  0  0  0  0  0  0
  130.7300  131.9450   58.5010 C   0  0  0  0  0  0  0  0  0  0  0  0
  131.1570  131.6470   59.8400 C   0  0  0  0  0  0  0  0  0  0  0  0
  132.2680  130.8900   60.1090 N   0  0  0  0  0  0  0  0  0  0  0  0
  1  2  1  0
  2  3  1  0
  3  4  2  0
  3  5  1  0
  5  6  1  0
  6  7  1  0
  7  8  2  0
  8  9  1  0
  9 10  1  0
  9 11  2  0
 11 12  1  0
 12 13  1  0
 12 14  2  0
 14 15  1  0
 15 16  1  0
 15  5  2  0
 14  7  1  0
M  END
>  <Binding energies>  (48) 
[-5.9]

>  <Ligand effiencies>  (48) 
[-0.3277777777777778]

>  <Interactions>  (48) 
["V-A:GLU:543:CG:4907, V-A:GLU:543:CD:4908, V-A:ALA:541:CB:4892, V-A:ILE:538:CB:4862, V-A:ILE:538:CA:4860, V-A:ILE:538:C:4858, H-A:TYR:539:N:4870, V-A:MET:535:CE:4835, V-A:LEU:363:CD1:3189, V-A:TYR:539:CE2:4876, V-A:TYR:539:CD2:4874, V-A:TYR:539:CZ:4877, V-A:ILE:538:CG2:4863, V-A:ALA:541:CA:4890, V-A:PRO:540:C:4881, H-A:ALA:541:N:4891, V-A:TYR:539:C:4867, V-A:PRO:540:N:4884, V-A:PRO:540:CA:4883, V-A:PRO:540:CB:4885, V-A:ASP:366:CG:3213, H-A:ASP:366:OD2:3215, V-A:TYR:531:CE2:4793, V-A:TYR:531:CZ:4794, V-A:VAL:537:C:4850, H-A:GLU:543:OE1:4909"]

$$$$
4bc_Grossjean_2025
     RDKit          3D

 26 28  0  0  0  0  0  0  0  0999 V2000
  129.9880  126.9770   68.2710 C   0  0  0  0  0  0  0  0  0  0  0  0
  130.7510  125.9520   67.6440 O   0  0  0  0  0  0  0  0  0  0  0  0
  130.3220  125.4350   66.4370 C   0  0  0  0  0  0  0  0  0  0  0  0
  129.7310  126.3330   65.5500 C   0  0  0  0  0  0  0  0  0  0  0  0
  129.2670  125.9040   64.3090 C   0  0  0  0  0  0  0  0  0  0  0  0
  129.3970  124.5660   63.9350 C   0  0  0  0  0  0  0  0  0  0  0  0
  128.8860  124.2210   62.6700 N   0  0  0  0  0  0  0  0  0  0  0  0
  127.9760  123.2720   62.3420 C   0  0  0  0  0  0  0  0  0  0  0  0
  127.4610  122.5040   63.1560 O   0  0  0  0  0  0  0  0  0  0  0  0
  127.6290  123.1960   60.9200 C   0  0  0  0  0  0  0  0  0  0  0  0
  128.6370  122.2730   59.8090 S   0  0  0  0  0  0  0  0  0  0  0  0
  127.6040  122.6820   58.4590 C   0  0  0  0  0  0  0  0  0  0  0  0
  127.8600  122.2390   57.2280 N   0  0  0  0  0  0  0  0  0  0  0  0
  126.9900  122.6230   56.2660 C   0  0  0  0  0  0  0  0  0  0  0  0
  127.2960  122.1040   54.8730 C   0  0  0  0  0  0  0  0  0  0  0  0
  125.8800  123.4310   56.5030 C   0  0  0  0  0  0  0  0  0  0  0  0
  125.6060  123.9000   57.7970 C   0  0  0  0  0  0  0  0  0  0  0  0
  124.3750  124.7900   58.0070 C   0  0  0  0  0  0  0  0  0  0  0  0
  123.6300  124.4110   59.0470 F   0  0  0  0  0  0  0  0  0  0  0  0
  124.7600  126.0460   58.2270 F   0  0  0  0  0  0  0  0  0  0  0  0
  123.5990  124.7500   56.9240 F   0  0  0  0  0  0  0  0  0  0  0  0
  126.5040  123.5130   58.8360 C   0  0  0  0  0  0  0  0  0  0  0  0
  126.5450  123.7870   60.2520 C   0  0  0  0  0  0  0  0  0  0  0  0
  125.6030  124.5590   60.8830 N   0  0  0  0  0  0  0  0  0  0  0  0
  129.9780  123.6520   64.8280 C   0  0  0  0  0  0  0  0  0  0  0  0
  130.4400  124.0850   66.0670 C   0  0  0  0  0  0  0  0  0  0  0  0
  1  2  1  0
  2  3  1  0
  3  4  2  0
  4  5  1  0
  5  6  2  0
  6  7  1  0
  7  8  1  0
  8  9  2  0
  8 10  1  0
 10 11  1  0
 11 12  1  0
 12 13  2  0
 13 14  1  0
 14 15  1  0
 14 16  2  0
 16 17  1  0
 17 18  1  0
 18 19  1  0
 18 20  1  0
 18 21  1  0
 17 22  2  0
 22 23  1  0
 23 24  1  0
  6 25  1  0
 25 26  2  0
 26  3  1  0
 23 10  2  0
 22 12  1  0
M  END
>  <Binding energies>  (49) 
[-6.6]

>  <Ligand effiencies>  (49) 
[-0.2275862068965517]

>  <Interactions>  (49) 
["V-B:GLU:543:CG:9879, V-B:GLU:543:CD:9880, V-A:TYR:484:CZ:4347, V-A:GLU:543:CD:4908, V-A:TYR:484:CE2:4346, V-A:GLU:543:CB:4906, V-A:HIS:456:CE1:4070, V-B:ALA:541:CB:9864, V-B:TYR:531:CZ:9766, V-B:ASP:366:CB:8183, V-B:ASP:366:CG:8184, V-B:LEU:363:CD1:8160, V-B:PRO:540:N:9856, V-B:PRO:540:CA:9855, V-B:PRO:540:CB:9857, V-B:TYR:539:C:9839, V-B:TYR:539:CE1:9847, V-B:TYR:539:CD1:9845, V-B:LEU:363:CA:8156, H-B:ASP:366:OD1:8185, H-B:TYR:539:N:9842, V-B:ASN:362:C:8143, V-B:TYR:539:CE2:9848, H-B:GLU:543:OE1:9881, V-B:TYR:531:CE2:9765, V-B:TYR:539:CD2:9846, V-B:TYR:539:CG:9844, V-B:MET:535:CE:9807, H-B:ALA:541:N:9863, V-B:ILE:538:C:9830, V-B:ILE:538:CA:9832, V-B:LEU:363:CB:8158, V-B:ILE:538:CB:9834, V-B:LEU:363:CG:8159, V-B:TYR:531:CD2:9763"]

$$$$
4bf_Grossjean_2025
     RDKit          3D

 24 26  0  0  0  0  0  0  0  0999 V2000
  133.4530  130.9240   62.4850 C   0  0  0  0  0  0  0  0  0  0  0  0
  132.2370  131.4370   61.7330 C   0  0  0  0  0  0  0  0  0  0  0  0
  131.1020  131.8690   62.4140 C   0  0  0  0  0  0  0  0  0  0  0  0
  129.9840  132.3370   61.7070 C   0  0  0  0  0  0  0  0  0  0  0  0
  128.7570  132.8000   62.4990 C   0  0  0  0  0  0  0  0  0  0  0  0
  128.8900  132.6260   63.8170 F   0  0  0  0  0  0  0  0  0  0  0  0
  128.5460  134.0990   62.2870 F   0  0  0  0  0  0  0  0  0  0  0  0
  127.6840  132.1100   62.1130 F   0  0  0  0  0  0  0  0  0  0  0  0
  130.0700  132.3460   60.2830 C   0  0  0  0  0  0  0  0  0  0  0  0
  129.1490  132.7430   59.2470 C   0  0  0  0  0  0  0  0  0  0  0  0
  127.8980  133.2380   59.5190 N   0  0  0  0  0  0  0  0  0  0  0  0
  129.6460  132.5830   57.9430 C   0  0  0  0  0  0  0  0  0  0  0  0
  128.9730  132.8550   56.6680 C   0  0  0  0  0  0  0  0  0  0  0  0
  129.4130  133.7080   55.8970 O   0  0  0  0  0  0  0  0  0  0  0  0
  127.8760  132.0990   56.4190 N   0  0  0  0  0  0  0  0  0  0  0  0
  126.9880  132.1420   55.3280 C   0  0  0  0  0  0  0  0  0  0  0  0
  125.8070  131.3880   55.2080 C   0  0  0  0  0  0  0  0  0  0  0  0
  125.0200  131.5140   54.0600 C   0  0  0  0  0  0  0  0  0  0  0  0
  125.4370  132.3890   53.0570 C   0  0  0  0  0  0  0  0  0  0  0  0
  126.5750  133.1220   53.1450 N   0  0  0  0  0  0  0  0  0  0  0  0
  127.3290  132.9890   54.2670 C   0  0  0  0  0  0  0  0  0  0  0  0
  131.2810  131.9260   57.9610 S   0  0  0  0  0  0  0  0  0  0  0  0
  131.2910  131.8760   59.7080 C   0  0  0  0  0  0  0  0  0  0  0  0
  132.3500  131.4330   60.3850 N   0  0  0  0  0  0  0  0  0  0  0  0
  1  2  1  0
  2  3  2  0
  3  4  1  0
  4  5  1  0
  5  6  1  0
  5  7  1  0
  5  8  1  0
  4  9  2  0
  9 10  1  0
 10 11  1  0
 10 12  2  0
 12 13  1  0
 13 14  2  0
 13 15  1  0
 15 16  1  0
 16 17  2  0
 17 18  1  0
 18 19  2  0
 19 20  1  0
 20 21  2  0
 12 22  1  0
 22 23  1  0
 23 24  2  0
 24  2  1  0
 23  9  1  0
 21 16  1  0
M  END
>  <Binding energies>  (50) 
[-6.26]

>  <Ligand effiencies>  (50) 
[-0.23185185185185184]

>  <Interactions>  (50) 
["V-A:GLU:543:CG:4907, V-A:GLU:543:CD:4908, V-A:ALA:541:CB:4892, V-B:LEU:475:CD2:9230, V-A:ARG:545:CZ:4926, H-A:TYR:539:N:4870, V-B:TYR:531:CE1:9764, V-A:MET:535:CE:4835, H-A:TYR:539:OH:4878, V-A:TYR:539:CE1:4875, V-A:TYR:539:CD1:4873, V-A:TYR:539:CE2:4876, V-A:TYR:539:CD2:4874, V-A:TYR:539:CZ:4877, V-A:ALA:541:CA:4890, V-A:PRO:540:C:4881, V-A:TYR:539:C:4867, H-A:TYR:539:O:4868, V-A:PRO:540:N:4884, V-A:PRO:540:CA:4883, V-A:PRO:540:CB:4885, V-A:ASP:366:CG:3213, V-A:ASN:362:C:3172, V-A:ASN:362:CB:3176, V-B:ASN:370:CB:8216, V-A:ASN:362:CG:3177, V-B:ASN:370:CG:8217, V-B:TYR:531:CD1:9762"]

$$$$
4bh_Grossjean_2025
     RDKit          3D

 31 33  0  0  0  0  0  0  0  0999 V2000
  125.0130  130.6950   75.6300 C   0  0  0  0  0  0  0  0  0  0  0  0
  126.3500  130.7430   76.1140 O   0  0  0  0  0  0  0  0  0  0  0  0
  127.3730  131.0920   75.2510 C   0  0  0  0  0  0  0  0  0  0  0  0
  127.7430  132.4160   74.9700 C   0  0  0  0  0  0  0  0  0  0  0  0
  128.7860  132.6960   74.0860 C   0  0  0  0  0  0  0  0  0  0  0  0
  129.2040  134.1390   73.8280 C   0  0  0  0  0  0  0  0  0  0  0  0
  130.6540  134.3340   73.8220 N   0  0  0  0  0  0  0  0  0  0  0  0
  131.4040  134.5920   72.7300 C   0  0  0  0  0  0  0  0  0  0  0  0
  130.9250  134.6490   71.5960 O   0  0  0  0  0  0  0  0  0  0  0  0
  132.8390  134.7580   72.9610 C   0  0  0  0  0  0  0  0  0  0  0  0
  133.7820  133.4330   73.6360 S   0  0  0  0  0  0  0  0  0  0  0  0
  135.2350  134.4060   73.6270 C   0  0  0  0  0  0  0  0  0  0  0  0
  136.3990  133.9200   74.0540 N   0  0  0  0  0  0  0  0  0  0  0  0
  137.4530  134.7670   73.9960 C   0  0  0  0  0  0  0  0  0  0  0  0
  138.7700  134.1940   74.4900 C   0  0  0  0  0  0  0  0  0  0  0  0
  137.3730  136.0740   73.5230 C   0  0  0  0  0  0  0  0  0  0  0  0
  136.1480  136.5920   73.0730 C   0  0  0  0  0  0  0  0  0  0  0  0
  136.1080  138.0350   72.5590 C   0  0  0  0  0  0  0  0  0  0  0  0
  137.1660  138.7550   72.9390 F   0  0  0  0  0  0  0  0  0  0  0  0
  136.0810  138.0390   71.2270 F   0  0  0  0  0  0  0  0  0  0  0  0
  135.0190  138.6480   73.0230 F   0  0  0  0  0  0  0  0  0  0  0  0
  135.0160  135.7260   73.1240 C   0  0  0  0  0  0  0  0  0  0  0  0
  133.6300  135.9010   72.7630 C   0  0  0  0  0  0  0  0  0  0  0  0
  133.1350  137.0780   72.2650 N   0  0  0  0  0  0  0  0  0  0  0  0
  129.4870  131.6430   73.4950 C   0  0  0  0  0  0  0  0  0  0  0  0
  129.1340  130.3090   73.7520 C   0  0  0  0  0  0  0  0  0  0  0  0
  129.7750  129.2190   73.1920 O   0  0  0  0  0  0  0  0  0  0  0  0
  129.3830  128.7670   71.9000 C   0  0  0  0  0  0  0  0  0  0  0  0
  128.0710  130.0480   74.6280 C   0  0  0  0  0  0  0  0  0  0  0  0
  127.7260  128.7450   74.9020 O   0  0  0  0  0  0  0  0  0  0  0  0
  126.7150  128.2240   74.0510 C   0  0  0  0  0  0  0  0  0  0  0  0
  1  2  1  0
  2  3  1  0
  3  4  2  0
  4  5  1  0
  5  6  1  0
  6  7  1  0
  7  8  1  0
  8  9  2  0
  8 10  1  0
 10 11  1  0
 11 12  1  0
 12 13  2  0
 13 14  1  0
 14 15  1  0
 14 16  2  0
 16 17  1  0
 17 18  1  0
 18 19  1  0
 18 20  1  0
 18 21  1  0
 17 22  2  0
 22 23  1  0
 23 24  1  0
  5 25  2  0
 25 26  1  0
 26 27  1  0
 27 28  1  0
 26 29  2  0
 29 30  1  0
 30 31  1  0
 29  3  1  0
 23 10  2  0
 22 12  1  0
M  END
>  <Binding energies>  (51) 
[-6.23]

>  <Ligand effiencies>  (51) 
[-0.18323529411764708]

>  <Interactions>  (51) 
["H-B:LYS:547:NZ:9923, H-A:LYS:547:NZ:4951, V-A:PHE:548:CE2:4965, V-A:ARG:356:CB:3117, V-A:LYS:547:CE:4950, V-A:GLY:544:CA:4914, V-A:ARG:356:CD:3119, V-A:VAL:542:CG1:4899, V-A:LYS:547:CD:4949, V-A:PHE:548:CD2:4963, V-A:ILE:546:CG2:4939, V-B:LYS:547:CE:9922, V-B:HIS:456:C:9032, V-B:HIS:456:CB:9036, V-B:HIS:456:CD2:9039, H-B:LYS:471:NZ:9192, V-B:HIS:456:CG:9037, H-B:SER:483:OG:9305, V-B:TYR:484:CB:9312, V-B:TYR:484:C:9308, H-B:TYR:484:N:9311, V-B:SER:483:CB:9304, H-A:GLY:544:N:4915, V-A:ARG:356:CG:3118"]

$$$$
4bi_Grossjean_2025
     RDKit          3D

 23 25  0  0  0  0  0  0  0  0999 V2000
  133.4870  130.8180   62.5050 C   0  0  0  0  0  0  0  0  0  0  0  0
  132.3200  131.3720   61.7080 C   0  0  0  0  0  0  0  0  0  0  0  0
  132.3360  131.3670   60.3150 C   0  0  0  0  0  0  0  0  0  0  0  0
  131.2480  131.8790   59.5900 C   0  0  0  0  0  0  0  0  0  0  0  0
  131.3080  131.8450   58.0590 C   0  0  0  0  0  0  0  0  0  0  0  0
  131.3190  133.0620   57.5100 F   0  0  0  0  0  0  0  0  0  0  0  0
  132.4170  131.2200   57.6650 F   0  0  0  0  0  0  0  0  0  0  0  0
  130.2440  131.2000   57.5800 F   0  0  0  0  0  0  0  0  0  0  0  0
  130.1500  132.3970   60.3400 C   0  0  0  0  0  0  0  0  0  0  0  0
  128.8940  132.9920   59.9560 C   0  0  0  0  0  0  0  0  0  0  0  0
  128.5300  133.1770   58.6470 N   0  0  0  0  0  0  0  0  0  0  0  0
  128.0770  133.3590   61.0390 C   0  0  0  0  0  0  0  0  0  0  0  0
  126.7560  133.9940   61.0130 C   0  0  0  0  0  0  0  0  0  0  0  0
  125.7300  133.3110   61.0300 O   0  0  0  0  0  0  0  0  0  0  0  0
  126.7630  135.3500   60.9900 N   0  0  0  0  0  0  0  0  0  0  0  0
  125.6650  136.2000   60.9760 C   0  0  0  0  0  0  0  0  0  0  0  0
  124.3880  135.7890   60.5980 C   0  0  0  0  0  0  0  0  0  0  0  0
  123.5990  136.9110   60.7180 C   0  0  0  0  0  0  0  0  0  0  0  0
  124.3630  137.9440   61.1470 O   0  0  0  0  0  0  0  0  0  0  0  0
  125.6710  137.4810   61.3060 N   0  0  0  0  0  0  0  0  0  0  0  0
  128.8580  132.9960   62.5770 S   0  0  0  0  0  0  0  0  0  0  0  0
  130.2600  132.3420   61.7630 C   0  0  0  0  0  0  0  0  0  0  0  0
  131.2950  131.8540   62.4470 N   0  0  0  0  0  0  0  0  0  0  0  0
  1  2  1  0
  2  3  2  0
  3  4  1  0
  4  5  1  0
  5  6  1  0
  5  7  1  0
  5  8  1  0
  4  9  2  0
  9 10  1  0
 10 11  1  0
 10 12  2  0
 12 13  1  0
 13 14  2  0
 13 15  1  0
 15 16  1  0
 16 17  1  0
 17 18  2  0
 18 19  1  0
 19 20  1  0
 12 21  1  0
 21 22  1  0
 22 23  2  0
 23  2  1  0
 22  9  1  0
 20 16  2  0
M  END
>  <Binding energies>  (52) 
[-6.74]

>  <Ligand effiencies>  (52) 
[-0.25923076923076926]

>  <Interactions>  (52) 
["V-A:GLU:543:CD:4908, V-A:ALA:541:CB:4892, V-B:LEU:475:CD2:9230, V-A:ARG:545:CZ:4926, V-B:ILE:369:CG2:8208, V-A:TYR:539:CG:4872, V-A:LEU:363:CD1:3189, V-A:TYR:539:CE1:4875, V-A:TYR:539:CD1:4873, V-A:ALA:541:CA:4890, V-A:PRO:540:C:4881, H-A:ALA:541:N:4891, V-A:TYR:539:C:4867, H-A:TYR:539:O:4868, V-A:PRO:540:N:4884, H-B:HIS:383:NE2:8365, V-A:PRO:540:CA:4883, V-A:PRO:540:CB:4885, V-B:SER:385:CB:8380, V-A:ASP:366:CG:3213, V-A:ASN:362:C:3172, V-A:PRO:540:CD:4887, V-A:ASN:362:CB:3176, V-A:PRO:540:CG:4886, V-B:LEU:373:CD1:8251, V-B:HIS:383:CD2:8363, V-B:VAL:384:C:8368, V-B:SER:385:CA:8378, V-A:ASN:362:CG:3177"]

$$$$
4bj_Grossjean_2025
     RDKit          3D

 23 25  0  0  0  0  0  0  0  0999 V2000
  127.2740  122.1260   54.9470 C   0  0  0  0  0  0  0  0  0  0  0  0
  126.9730  122.6310   56.3460 C   0  0  0  0  0  0  0  0  0  0  0  0
  125.8700  123.4430   56.5940 C   0  0  0  0  0  0  0  0  0  0  0  0
  125.6070  123.9080   57.8930 C   0  0  0  0  0  0  0  0  0  0  0  0
  124.3820  124.8020   58.1160 C   0  0  0  0  0  0  0  0  0  0  0  0
  123.6250  124.4030   59.1400 F   0  0  0  0  0  0  0  0  0  0  0  0
  124.7740  126.0490   58.3710 F   0  0  0  0  0  0  0  0  0  0  0  0
  123.6150  124.7940   57.0260 F   0  0  0  0  0  0  0  0  0  0  0  0
  126.5100  123.5100   58.9230 C   0  0  0  0  0  0  0  0  0  0  0  0
  126.5670  123.7850   60.3380 C   0  0  0  0  0  0  0  0  0  0  0  0
  125.6440  124.5740   60.9780 N   0  0  0  0  0  0  0  0  0  0  0  0
  127.6420  123.1700   60.9990 C   0  0  0  0  0  0  0  0  0  0  0  0
  128.0040  123.2430   62.4160 C   0  0  0  0  0  0  0  0  0  0  0  0
  127.4460  122.5230   63.2480 O   0  0  0  0  0  0  0  0  0  0  0  0
  128.9840  124.1290   62.7230 N   0  0  0  0  0  0  0  0  0  0  0  0
  129.5160  124.3820   63.9800 C   0  0  0  0  0  0  0  0  0  0  0  0
  129.7460  123.5220   64.9480 N   0  0  0  0  0  0  0  0  0  0  0  0
  130.2650  124.1100   66.0070 C   0  0  0  0  0  0  0  0  0  0  0  0
  130.4660  125.4840   65.9110 C   0  0  0  0  0  0  0  0  0  0  0  0
  129.9410  126.0240   64.3440 S   0  0  0  0  0  0  0  0  0  0  0  0
  128.6360  122.2450   59.8770 S   0  0  0  0  0  0  0  0  0  0  0  0
  127.6000  122.6710   58.5360 C   0  0  0  0  0  0  0  0  0  0  0  0
  127.8470  122.2350   57.3010 N   0  0  0  0  0  0  0  0  0  0  0  0
  1  2  1  0
  2  3  2  0
  3  4  1  0
  4  5  1  0
  5  6  1  0
  5  7  1  0
  5  8  1  0
  4  9  2  0
  9 10  1  0
 10 11  1  0
 10 12  2  0
 12 13  1  0
 13 14  2  0
 13 15  1  0
 15 16  1  0
 16 17  2  0
 17 18  1  0
 18 19  2  0
 19 20  1  0
 12 21  1  0
 21 22  1  0
 22 23  2  0
 23  2  1  0
 22  9  1  0
 20 16  1  0
M  END
>  <Binding energies>  (53) 
[-6.54]

>  <Ligand effiencies>  (53) 
[-0.25153846153846154]

>  <Interactions>  (53) 
["V-B:GLU:543:CG:9879, V-B:GLU:543:CD:9880, V-A:TYR:484:CZ:4347, V-A:GLU:543:CD:4908, V-A:TYR:484:CE2:4346, V-B:GLU:543:CB:9878, V-B:ALA:541:CB:9864, V-B:TYR:531:CZ:9766, V-B:ASP:366:CB:8183, V-B:ASP:366:CG:8184, V-B:LEU:363:CD1:8160, V-B:PRO:540:N:9856, V-B:PRO:540:CA:9855, V-B:PRO:540:CB:9857, V-B:TYR:539:C:9839, V-B:TYR:539:CE1:9847, V-B:TYR:539:CD1:9845, V-B:LEU:363:CA:8156, H-B:ASP:366:OD1:8185, H-B:TYR:539:N:9842, V-B:ASN:362:C:8143, V-B:TYR:539:CE2:9848, H-B:GLU:543:OE1:9881, V-B:TYR:531:CE2:9765, V-B:TYR:539:CD2:9846, V-B:TYR:539:CG:9844, V-B:MET:535:CE:9807, H-B:ALA:541:N:9863, V-B:ILE:538:C:9830, V-B:ILE:538:CA:9832, V-B:LEU:363:CB:8158, V-B:ILE:538:CB:9834, V-B:LEU:363:CG:8159, V-B:TYR:531:CD2:9763"]

$$$$
4bk_Grossjean_2025
     RDKit          3D

 28 29  0  0  0  0  0  0  0  0999 V2000
  127.9400  138.0870   62.0840 C   0  0  0  0  0  0  0  0  0  0  0  0
  126.7880  138.1800   61.2590 O   0  0  0  0  0  0  0  0  0  0  0  0
  126.1650  136.9260   61.0150 C   0  0  0  0  0  0  0  0  0  0  0  0
  124.6410  137.1010   61.0270 C   0  0  0  0  0  0  0  0  0  0  0  0
  124.0210  135.8280   61.1460 O   0  0  0  0  0  0  0  0  0  0  0  0
  124.9370  134.7580   61.3380 C   0  0  0  0  0  0  0  0  0  0  0  0
  124.4890  133.9110   62.5370 C   0  0  0  0  0  0  0  0  0  0  0  0
  125.3680  132.8050   62.6850 O   0  0  0  0  0  0  0  0  0  0  0  0
  125.9260  132.6850   63.9880 C   0  0  0  0  0  0  0  0  0  0  0  0
  127.4500  132.8810   63.9100 C   0  0  0  0  0  0  0  0  0  0  0  0
  127.9910  132.7510   62.5560 N   0  0  0  0  0  0  0  0  0  0  0  0
  129.2760  132.4750   62.2540 C   0  0  0  0  0  0  0  0  0  0  0  0
  130.1320  132.2820   63.1200 O   0  0  0  0  0  0  0  0  0  0  0  0
  129.6020  132.4070   60.8280 C   0  0  0  0  0  0  0  0  0  0  0  0
  128.6040  133.2580   59.6520 S   0  0  0  0  0  0  0  0  0  0  0  0
  129.6190  132.7190   58.3360 C   0  0  0  0  0  0  0  0  0  0  0  0
  129.3620  133.0610   57.0740 N   0  0  0  0  0  0  0  0  0  0  0  0
  130.2200  132.5840   56.1420 C   0  0  0  0  0  0  0  0  0  0  0  0
  129.9080  132.9880   54.7120 C   0  0  0  0  0  0  0  0  0  0  0  0
  131.3180  131.7810   56.4390 C   0  0  0  0  0  0  0  0  0  0  0  0
  131.5940  131.4160   57.7660 C   0  0  0  0  0  0  0  0  0  0  0  0
  132.8110  130.5280   58.0430 C   0  0  0  0  0  0  0  0  0  0  0  0
  133.6000  130.3750   56.9770 F   0  0  0  0  0  0  0  0  0  0  0  0
  133.5510  131.0660   59.0130 F   0  0  0  0  0  0  0  0  0  0  0  0
  132.4090  129.3150   58.4190 F   0  0  0  0  0  0  0  0  0  0  0  0
  130.7090  131.9030   58.7740 C   0  0  0  0  0  0  0  0  0  0  0  0
  130.6730  131.7480   60.2070 C   0  0  0  0  0  0  0  0  0  0  0  0
  131.6050  131.0150   60.8980 N   0  0  0  0  0  0  0  0  0  0  0  0
  1  2  1  0
  2  3  1  0
  3  4  1  0
  4  5  1  0
  5  6  1  0
  6  7  1  0
  7  8  1  0
  8  9  1  0
  9 10  1  0
 10 11  1  0
 11 12  1  0
 12 13  2  0
 12 14  1  0
 14 15  1  0
 15 16  1  0
 16 17  2  0
 17 18  1  0
 18 19  1  0
 18 20  2  0
 20 21  1  0
 21 22  1  0
 22 23  1  0
 22 24  1  0
 22 25  1  0
 21 26  2  0
 26 27  1  0
 27 28  1  0
 27 14  2  0
 26 16  1  0
M  END
>  <Binding energies>  (54) 
[-5.74]

>  <Ligand effiencies>  (54) 
[-0.18516129032258066]

>  <Interactions>  (54) 
["V-B:TYR:484:CZ:9318, V-A:ALA:541:CB:4892, V-B:LEU:475:CD2:9230, V-B:TYR:484:CE2:9317, V-A:ILE:538:CB:4862, V-A:ILE:538:CA:4860, V-B:ILE:369:CG2:8208, V-A:ILE:538:C:4858, V-B:GLY:454:CA:9020, H-A:TYR:539:N:4870, V-A:MET:535:CE:4835, V-A:LEU:363:CD1:3189, V-A:TYR:539:CE1:4875, V-A:TYR:539:CD1:4873, V-A:ILE:538:CG2:4863, H-A:ALA:541:N:4891, V-A:TYR:539:C:4867, V-A:PRO:540:N:4884, V-B:PRO:482:CB:9297, H-B:HIS:383:NE2:8365, V-A:PRO:540:CA:4883, V-A:PRO:540:CB:4885, V-B:SER:385:CB:8380, V-A:ASP:366:CG:3213, H-A:ASP:366:OD2:3215, V-A:LEU:363:CA:3185, V-A:LEU:363:CB:3187, V-A:TYR:531:CE2:4793, V-A:TYR:531:CZ:4794, V-A:TYR:539:CB:4871, V-A:TYR:531:CD2:4791, V-A:ASP:366:CB:3212, V-A:VAL:537:C:4850, H-A:GLU:543:OE1:4909, V-B:HIS:383:CD2:8363, V-B:SER:385:CA:8378"]

$$$$
4cd_Grossjean_2025
     RDKit          3D

 29 32  0  0  0  0  0  0  0  0999 V2000
  125.9990  127.6460   61.3930 N   0  0  0  0  0  0  0  0  0  0  0  0
  126.1170  128.7180   60.5460 C   0  0  0  0  0  0  0  0  0  0  0  0
  126.4860  128.5960   59.1970 C   0  0  0  0  0  0  0  0  0  0  0  0
  126.8240  127.3810   58.4490 C   0  0  0  0  0  0  0  0  0  0  0  0
  127.8110  127.3500   57.7130 O   0  0  0  0  0  0  0  0  0  0  0  0
  125.9880  126.3310   58.6390 N   0  0  0  0  0  0  0  0  0  0  0  0
  125.9990  125.0570   58.0420 C   0  0  0  0  0  0  0  0  0  0  0  0
  127.2230  124.3820   58.0600 C   0  0  0  0  0  0  0  0  0  0  0  0
  127.3320  123.1100   57.5060 C   0  0  0  0  0  0  0  0  0  0  0  0
  126.2140  122.5060   56.9380 C   0  0  0  0  0  0  0  0  0  0  0  0
  124.9850  123.1610   56.9250 C   0  0  0  0  0  0  0  0  0  0  0  0
  124.8720  124.4350   57.4780 C   0  0  0  0  0  0  0  0  0  0  0  0
  126.5290  130.1690   58.4040 S   0  0  0  0  0  0  0  0  0  0  0  0
  126.0630  130.9770   59.8810 C   0  0  0  0  0  0  0  0  0  0  0  0
  125.9170  132.2990   59.9340 N   0  0  0  0  0  0  0  0  0  0  0  0
  125.5650  132.8380   61.1310 C   0  0  0  0  0  0  0  0  0  0  0  0
  125.4110  134.3300   61.1600 C   0  0  0  0  0  0  0  0  0  0  0  0
  126.5260  135.1650   61.3450 C   0  0  0  0  0  0  0  0  0  0  0  0
  126.3900  136.5500   61.3720 C   0  0  0  0  0  0  0  0  0  0  0  0
  125.1320  137.1230   61.2140 C   0  0  0  0  0  0  0  0  0  0  0  0
  124.0130  136.3200   61.0260 C   0  0  0  0  0  0  0  0  0  0  0  0
  124.1530  134.9360   60.9970 C   0  0  0  0  0  0  0  0  0  0  0  0
  125.3440  132.0460   62.2610 C   0  0  0  0  0  0  0  0  0  0  0  0
  125.4910  130.6500   62.2150 C   0  0  0  0  0  0  0  0  0  0  0  0
  125.2360  129.8430   63.4930 C   0  0  0  0  0  0  0  0  0  0  0  0
  126.1340  128.8750   63.6900 F   0  0  0  0  0  0  0  0  0  0  0  0
  125.2800  130.6500   64.5530 F   0  0  0  0  0  0  0  0  0  0  0  0
  124.0360  129.2650   63.4290 F   0  0  0  0  0  0  0  0  0  0  0  0
  125.8710  130.0750   60.9690 C   0  0  0  0  0  0  0  0  0  0  0  0
  1  2  1  0
  2  3  2  0
  3  4  1  0
  4  5  2  0
  4  6  1  0
  6  7  1  0
  7  8  2  0
  8  9  1  0
  9 10  2  0
 10 11  1  0
 11 12  2  0
  3 13  1  0
 13 14  1  0
 14 15  2  0
 15 16  1  0
 16 17  1  0
 17 18  2  0
 18 19  1  0
 19 20  2  0
 20 21  1  0
 21 22  2  0
 16 23  2  0
 23 24  1  0
 24 25  1  0
 25 26  1  0
 25 27  1  0
 25 28  1  0
 24 29  2  0
 29  2  1  0
 12  7  1  0
 29 14  1  0
 22 17  1  0
M  END
>  <Binding energies>  (55) 
[-7.51]

>  <Ligand effiencies>  (55) 
[-0.2346875]

>  <Interactions>  (55) 
["V-B:ARG:545:CZ:9898, V-B:TYR:484:CZ:9318, V-B:GLU:543:CD:9880, V-B:LEU:475:CD2:9230, V-B:ILE:369:CG2:8208, V-B:GLY:454:CA:9020, V-B:ASP:366:CB:8183, V-A:TYR:539:CE1:4875, V-B:ASP:366:CG:8184, V-A:TYR:539:CD1:4873, H-B:TYR:531:OH:9767, V-B:SER:385:CB:8380, V-B:LEU:363:CD1:8160, V-B:PRO:540:N:9856, V-B:PRO:540:CA:9855, V-B:PRO:540:CB:9857, V-B:TYR:539:C:9839, V-B:PRO:540:CD:9859, H-B:ASP:366:OD1:8185, H-B:ASP:366:OD2:8186, H-B:GLU:543:OE2:9882, H-B:GLU:543:OE1:9881, V-B:TYR:531:CE2:9765, V-B:MET:535:CE:9807, V-B:LEU:373:CD1:8251, V-B:HIS:383:CD2:8363, V-B:SER:385:CA:8378"]

$$$$
4cg_Grossjean_2025
     RDKit          3D

 30 33  0  0  0  0  0  0  0  0999 V2000
  128.6900  127.2960   63.6520 N   0  0  0  0  0  0  0  0  0  0  0  0
  129.0810  126.5510   64.7350 C   0  0  0  0  0  0  0  0  0  0  0  0
  129.5750  125.2430   64.6280 C   0  0  0  0  0  0  0  0  0  0  0  0
  129.8140  124.4530   63.4210 C   0  0  0  0  0  0  0  0  0  0  0  0
  130.9540  124.1340   63.0770 O   0  0  0  0  0  0  0  0  0  0  0  0
  128.7210  124.1360   62.6950 N   0  0  0  0  0  0  0  0  0  0  0  0
  128.7190  123.3380   61.4700 C   0  0  0  0  0  0  0  0  0  0  0  0
  127.4680  123.5330   60.6210 C   0  0  0  0  0  0  0  0  0  0  0  0
  126.2420  123.7900   61.2410 C   0  0  0  0  0  0  0  0  0  0  0  0
  125.1020  124.0000   60.4680 C   0  0  0  0  0  0  0  0  0  0  0  0
  125.1960  123.9620   59.0790 C   0  0  0  0  0  0  0  0  0  0  0  0
  126.4180  123.7230   58.4550 C   0  0  0  0  0  0  0  0  0  0  0  0
  127.5580  123.5150   59.2270 C   0  0  0  0  0  0  0  0  0  0  0  0
  130.0020  124.5870   66.2070 S   0  0  0  0  0  0  0  0  0  0  0  0
  129.4950  126.0600   67.0010 C   0  0  0  0  0  0  0  0  0  0  0  0
  129.5750  126.1990   68.3210 N   0  0  0  0  0  0  0  0  0  0  0  0
  129.1630  127.3810   68.8490 C   0  0  0  0  0  0  0  0  0  0  0  0
  129.2630  127.5060   70.3430 C   0  0  0  0  0  0  0  0  0  0  0  0
  128.2190  127.0710   71.1750 C   0  0  0  0  0  0  0  0  0  0  0  0
  128.3070  127.1860   72.5590 C   0  0  0  0  0  0  0  0  0  0  0  0
  129.4450  127.7410   73.1350 C   0  0  0  0  0  0  0  0  0  0  0  0
  130.4930  128.1830   72.3350 C   0  0  0  0  0  0  0  0  0  0  0  0
  130.4010  128.0660   70.9510 C   0  0  0  0  0  0  0  0  0  0  0  0
  128.6550  128.4100   68.0480 C   0  0  0  0  0  0  0  0  0  0  0  0
  128.5660  128.2740   66.6540 C   0  0  0  0  0  0  0  0  0  0  0  0
  127.9990  129.4400   65.8360 C   0  0  0  0  0  0  0  0  0  0  0  0
  128.5350  129.5350   64.6180 F   0  0  0  0  0  0  0  0  0  0  0  0
  126.6830  129.2860   65.6830 F   0  0  0  0  0  0  0  0  0  0  0  0
  128.2360  130.5900   66.4660 F   0  0  0  0  0  0  0  0  0  0  0  0
  129.0100  127.0430   66.0890 C   0  0  0  0  0  0  0  0  0  0  0  0
  1  2  1  0
  2  3  2  0
  3  4  1  0
  4  5  2  0
  4  6  1  0
  6  7  1  0
  7  8  1  0
  8  9  2  0
  9 10  1  0
 10 11  2  0
 11 12  1  0
 12 13  2  0
  3 14  1  0
 14 15  1  0
 15 16  2  0
 16 17  1  0
 17 18  1  0
 18 19  2  0
 19 20  1  0
 20 21  2  0
 21 22  1  0
 22 23  2  0
 17 24  2  0
 24 25  1  0
 25 26  1  0
 26 27  1  0
 26 28  1  0
 26 29  1  0
 25 30  2  0
 30  2  1  0
 13  8  1  0
 30 15  1  0
 23 18  1  0
M  END
>  <Binding energies>  (56) 
[-7.58]

>  <Ligand effiencies>  (56) 
[-0.2296969696969697]

>  <Interactions>  (56) 
["V-B:GLU:543:CG:9879, V-A:GLU:543:CG:4907, V-B:TYR:484:CZ:9318, V-B:GLU:543:CD:9880, V-A:TYR:484:CZ:4347, V-A:GLU:543:CD:4908, V-A:TYR:484:CE2:4346, V-B:GLU:543:CB:9878, V-B:HIS:456:CE1:9041, V-A:GLU:543:CB:4906, V-A:GLU:543:C:4902, V-A:HIS:456:CE1:4070, V-B:TYR:484:CE2:9317, V-A:GLY:544:C:4912, V-B:PRO:540:CA:9855, V-B:PRO:540:CB:9857, H-A:GLU:543:OE1:4909, H-A:GLU:543:OE2:4910, H-B:GLU:543:OE2:9882, H-B:GLU:543:OE1:9881, V-A:GLU:543:CA:4904"]

$$$$
4ch_Grossjean_2025
     RDKit          3D

 36 39  0  0  0  0  0  0  0  0999 V2000
  124.1890  123.6290   61.6960 C   0  0  0  0  0  0  0  0  0  0  0  0
  124.6690  123.9650   60.3980 O   0  0  0  0  0  0  0  0  0  0  0  0
  125.9880  123.7050   60.0750 C   0  0  0  0  0  0  0  0  0  0  0  0
  127.0010  123.4930   61.0240 C   0  0  0  0  0  0  0  0  0  0  0  0
  128.3120  123.2330   60.6250 C   0  0  0  0  0  0  0  0  0  0  0  0
  129.4040  123.0320   61.6700 C   0  0  0  0  0  0  0  0  0  0  0  0
  129.2510  123.8630   62.8650 N   0  0  0  0  0  0  0  0  0  0  0  0
  130.2580  124.4380   63.5540 C   0  0  0  0  0  0  0  0  0  0  0  0
  131.4390  124.3350   63.2130 O   0  0  0  0  0  0  0  0  0  0  0  0
  129.8670  125.2300   64.7210 C   0  0  0  0  0  0  0  0  0  0  0  0
  130.1270  124.5990   66.3440 S   0  0  0  0  0  0  0  0  0  0  0  0
  129.4710  126.0500   67.0610 C   0  0  0  0  0  0  0  0  0  0  0  0
  129.3810  126.1940   68.3800 N   0  0  0  0  0  0  0  0  0  0  0  0
  128.8620  127.3600   68.8460 C   0  0  0  0  0  0  0  0  0  0  0  0
  128.7690  127.4880   70.3400 C   0  0  0  0  0  0  0  0  0  0  0  0
  129.8060  128.0830   71.0760 C   0  0  0  0  0  0  0  0  0  0  0  0
  129.7260  128.2040   72.4620 C   0  0  0  0  0  0  0  0  0  0  0  0
  128.6050  127.7280   73.1320 C   0  0  0  0  0  0  0  0  0  0  0  0
  127.5650  127.1300   72.4270 C   0  0  0  0  0  0  0  0  0  0  0  0
  127.6500  127.0100   71.0430 C   0  0  0  0  0  0  0  0  0  0  0  0
  128.4210  128.3680   67.9840 C   0  0  0  0  0  0  0  0  0  0  0  0
  128.5090  128.2270   66.5890 C   0  0  0  0  0  0  0  0  0  0  0  0
  128.0060  129.3710   65.7020 C   0  0  0  0  0  0  0  0  0  0  0  0
  128.6130  129.4180   64.5130 F   0  0  0  0  0  0  0  0  0  0  0  0
  126.7010  129.2280   65.4780 F   0  0  0  0  0  0  0  0  0  0  0  0
  128.2230  130.5390   66.3060 F   0  0  0  0  0  0  0  0  0  0  0  0
  129.0640  127.0130   66.0910 C   0  0  0  0  0  0  0  0  0  0  0  0
  129.3140  126.5200   64.7580 C   0  0  0  0  0  0  0  0  0  0  0  0
  129.0260  127.2450   63.6300 N   0  0  0  0  0  0  0  0  0  0  0  0
  128.6240  123.2000   59.2650 C   0  0  0  0  0  0  0  0  0  0  0  0
  127.6320  123.4110   58.2940 C   0  0  0  0  0  0  0  0  0  0  0  0
  127.8690  123.3910   56.9320 O   0  0  0  0  0  0  0  0  0  0  0  0
  127.1160  122.5130   56.1030 C   0  0  0  0  0  0  0  0  0  0  0  0
  126.3160  123.6560   58.7130 C   0  0  0  0  0  0  0  0  0  0  0  0
  125.3380  123.8780   57.7740 O   0  0  0  0  0  0  0  0  0  0  0  0
  124.8890  125.2250   57.7130 C   0  0  0  0  0  0  0  0  0  0  0  0
  1  2  1  0
  2  3  1  0
  3  4  2  0
  4  5  1  0
  5  6  1  0
  6  7  1  0
  7  8  1  0
  8  9  2  0
  8 10  1  0
 10 11  1  0
 11 12  1  0
 12 13  2  0
 13 14  1  0
 14 15  1  0
 15 16  2  0
 16 17  1  0
 17 18  2  0
 18 19  1  0
 19 20  2  0
 14 21  2  0
 21 22  1  0
 22 23  1  0
 23 24  1  0
 23 25  1  0
 23 26  1  0
 22 27  2  0
 27 28  1  0
 28 29  1  0
  5 30  2  0
 30 31  1  0
 31 32  1  0
 32 33  1  0
 31 34  2  0
 34 35  1  0
 35 36  1  0
 34  3  1  0
 28 10  2  0
 27 12  1  0
 20 15  1  0
M  END
>  <Binding energies>  (57) 
[-7.61]

>  <Ligand effiencies>  (57) 
[-0.19512820512820514]

>  <Interactions>  (57) 
["V-B:GLU:543:CG:9879, V-A:GLU:543:CG:4907, V-B:TYR:484:CZ:9318, V-B:GLU:543:CD:9880, V-A:TYR:484:CZ:4347, V-A:GLU:543:CD:4908, V-B:GLU:543:C:9874, V-A:TYR:484:CE2:4346, V-B:GLU:543:CB:9878, V-B:HIS:456:CE1:9041, V-A:GLU:543:CB:4906, V-B:TYR:484:CE2:9317, V-B:TYR:531:CZ:9766, V-B:ASP:366:CB:8183, V-B:ASP:366:CG:8184, V-B:PRO:540:CA:9855, V-B:PRO:540:CB:9857, V-B:TYR:539:CE1:9847, V-B:TYR:539:CD1:9845, H-A:GLU:543:OE1:4909, V-B:ASN:362:CB:8147, V-B:ASN:362:C:8143, V-B:LYS:547:CE:9922, V-B:HIS:456:CD2:9039, V-B:TYR:539:CE2:9848, H-A:GLU:543:OE2:4910, H-B:GLU:543:OE2:9882, H-B:GLU:543:OE1:9881, V-B:TYR:531:CE2:9765, V-B:TYR:539:CD2:9846, V-B:TYR:539:CG:9844, V-B:TYR:539:CZ:9849, V-A:GLU:543:CA:4904, V-B:GLY:544:C:9884"]

$$$$
4cj_Grossjean_2025
     RDKit          3D

 28 31  0  0  0  0  0  0  0  0999 V2000
  129.0520  127.1700   63.8600 N   0  0  0  0  0  0  0  0  0  0  0  0
  129.4320  126.5130   65.0020 C   0  0  0  0  0  0  0  0  0  0  0  0
  130.1870  125.3290   64.9930 C   0  0  0  0  0  0  0  0  0  0  0  0
  130.7100  124.5880   63.8420 C   0  0  0  0  0  0  0  0  0  0  0  0
  130.2490  124.7700   62.7130 O   0  0  0  0  0  0  0  0  0  0  0  0
  131.7030  123.7070   64.1200 N   0  0  0  0  0  0  0  0  0  0  0  0
  132.3660  122.8860   63.2160 C   0  0  0  0  0  0  0  0  0  0  0  0
  133.6460  122.5850   63.1890 N   0  0  0  0  0  0  0  0  0  0  0  0
  133.9310  121.7720   62.1910 C   0  0  0  0  0  0  0  0  0  0  0  0
  132.8650  121.3950   61.3800 C   0  0  0  0  0  0  0  0  0  0  0  0
  131.4130  122.1520   61.9660 S   0  0  0  0  0  0  0  0  0  0  0  0
  130.5060  124.7640   66.6310 S   0  0  0  0  0  0  0  0  0  0  0  0
  129.6260  126.1110   67.3140 C   0  0  0  0  0  0  0  0  0  0  0  0
  129.5010  126.2620   68.6300 N   0  0  0  0  0  0  0  0  0  0  0  0
  128.8060  127.3440   69.0690 C   0  0  0  0  0  0  0  0  0  0  0  0
  128.6950  127.4920   70.5590 C   0  0  0  0  0  0  0  0  0  0  0  0
  127.6190  126.9240   71.2590 C   0  0  0  0  0  0  0  0  0  0  0  0
  127.5070  127.0620   72.6400 C   0  0  0  0  0  0  0  0  0  0  0  0
  128.4720  127.7770   73.3430 C   0  0  0  0  0  0  0  0  0  0  0  0
  129.5460  128.3510   72.6740 C   0  0  0  0  0  0  0  0  0  0  0  0
  129.6550  128.2090   71.2930 C   0  0  0  0  0  0  0  0  0  0  0  0
  128.2200  128.2540   68.1830 C   0  0  0  0  0  0  0  0  0  0  0  0
  128.3440  128.1030   66.7930 C   0  0  0  0  0  0  0  0  0  0  0  0
  127.6790  129.1390   65.8790 C   0  0  0  0  0  0  0  0  0  0  0  0
  127.3850  128.6590   64.6690 F   0  0  0  0  0  0  0  0  0  0  0  0
  126.5410  129.5590   66.4290 F   0  0  0  0  0  0  0  0  0  0  0  0
  128.4950  130.1790   65.7080 F   0  0  0  0  0  0  0  0  0  0  0  0
  129.0870  126.9820   66.3220 C   0  0  0  0  0  0  0  0  0  0  0  0
  1  2  1  0
  2  3  2  0
  3  4  1  0
  4  5  2  0
  4  6  1  0
  6  7  1  0
  7  8  2  0
  8  9  1  0
  9 10  2  0
 10 11  1  0
  3 12  1  0
 12 13  1  0
 13 14  2  0
 14 15  1  0
 15 16  1  0
 16 17  2  0
 17 18  1  0
 18 19  2  0
 19 20  1  0
 20 21  2  0
 15 22  2  0
 22 23  1  0
 23 24  1  0
 24 25  1  0
 24 26  1  0
 24 27  1  0
 23 28  2  0
 28  2  1  0
 11  7  1  0
 28 13  1  0
 21 16  1  0
M  END
>  <Binding energies>  (58) 
[-6.92]

>  <Ligand effiencies>  (58) 
[-0.2232258064516129]

>  <Interactions>  (58) 
["V-B:GLU:543:CG:9879, V-A:GLU:543:CG:4907, V-B:TYR:484:CZ:9318, V-B:GLU:543:CD:9880, V-A:TYR:484:CZ:4347, V-A:GLU:543:CD:4908, V-B:GLU:543:C:9874, V-A:TYR:484:CE2:4346, V-B:GLU:543:CB:9878, V-B:HIS:456:CE1:9041, V-A:GLU:543:CB:4906, V-A:HIS:456:CE1:4070, V-B:TYR:484:CE2:9317, V-A:LEU:475:CD2:4259, H-A:GLU:543:OE1:4909, H-A:GLY:454:N:4050, H-A:TYR:484:OH:4348, V-B:LYS:547:CE:9922, V-B:HIS:456:CD2:9039, H-A:GLU:543:OE2:4910, V-A:ILE:369:CD1:3239, H-B:GLU:543:OE2:9882, H-B:GLU:543:OE1:9881, V-B:GLY:544:C:9884, V-A:SER:385:C:3405, V-A:GLY:454:CA:4049, V-B:GLY:544:CA:9886"]

$$$$
4ck_Grossjean_2025
     RDKit          3D

 33 35  0  0  0  0  0  0  0  0999 V2000
  129.3960  132.8990   58.1320 C   0  0  0  0  0  0  0  0  0  0  0  0
  130.5080  133.3670   57.3860 O   0  0  0  0  0  0  0  0  0  0  0  0
  131.6970  132.6260   57.6200 C   0  0  0  0  0  0  0  0  0  0  0  0
  131.3390  131.3160   58.3330 C   0  0  0  0  0  0  0  0  0  0  0  0
  131.8220  131.3670   59.6690 O   0  0  0  0  0  0  0  0  0  0  0  0
  133.2350  131.4960   59.7570 C   0  0  0  0  0  0  0  0  0  0  0  0
  133.6350  131.6400   61.2300 C   0  0  0  0  0  0  0  0  0  0  0  0
  132.6430  131.0200   62.0370 O   0  0  0  0  0  0  0  0  0  0  0  0
  131.9360  131.9240   62.8760 C   0  0  0  0  0  0  0  0  0  0  0  0
  130.4260  131.7750   62.6380 C   0  0  0  0  0  0  0  0  0  0  0  0
  130.1110  130.5990   61.8250 N   0  0  0  0  0  0  0  0  0  0  0  0
  129.0460  130.4670   61.0060 C   0  0  0  0  0  0  0  0  0  0  0  0
  128.2210  131.3660   60.8360 O   0  0  0  0  0  0  0  0  0  0  0  0
  128.9290  129.1840   60.3130 C   0  0  0  0  0  0  0  0  0  0  0  0
  127.3400  128.5370   59.9120 S   0  0  0  0  0  0  0  0  0  0  0  0
  128.0550  127.1510   59.1240 C   0  0  0  0  0  0  0  0  0  0  0  0
  127.3040  126.2060   58.5630 N   0  0  0  0  0  0  0  0  0  0  0  0
  127.9500  125.1650   57.9750 C   0  0  0  0  0  0  0  0  0  0  0  0
  127.0750  124.1260   57.3360 C   0  0  0  0  0  0  0  0  0  0  0  0
  127.5990  123.2200   56.4000 C   0  0  0  0  0  0  0  0  0  0  0  0
  126.7920  122.2550   55.8020 C   0  0  0  0  0  0  0  0  0  0  0  0
  125.4440  122.1820   56.1340 C   0  0  0  0  0  0  0  0  0  0  0  0
  124.8990  123.0630   57.0630 C   0  0  0  0  0  0  0  0  0  0  0  0
  125.7100  124.0250   57.6590 C   0  0  0  0  0  0  0  0  0  0  0  0
  129.3460  125.0840   57.9440 C   0  0  0  0  0  0  0  0  0  0  0  0
  130.1470  126.0740   58.5330 C   0  0  0  0  0  0  0  0  0  0  0  0
  131.6720  125.9200   58.4670 C   0  0  0  0  0  0  0  0  0  0  0  0
  132.2520  126.7990   57.6480 F   0  0  0  0  0  0  0  0  0  0  0  0
  132.1960  126.0970   59.6790 F   0  0  0  0  0  0  0  0  0  0  0  0
  131.9810  124.7000   58.0270 F   0  0  0  0  0  0  0  0  0  0  0  0
  129.4810  127.1690   59.1550 C   0  0  0  0  0  0  0  0  0  0  0  0
  129.9530  128.3500   59.8370 C   0  0  0  0  0  0  0  0  0  0  0  0
  131.2850  128.6280   60.0060 N   0  0  0  0  0  0  0  0  0  0  0  0
  1  2  1  0
  2  3  1  0
  3  4  1  0
  4  5  1  0
  5  6  1  0
  6  7  1  0
  7  8  1  0
  8  9  1  0
  9 10  1  0
 10 11  1  0
 11 12  1  0
 12 13  2  0
 12 14  1  0
 14 15  1  0
 15 16  1  0
 16 17  2  0
 17 18  1  0
 18 19  1  0
 19 20  2  0
 20 21  1  0
 21 22  2  0
 22 23  1  0
 23 24  2  0
 18 25  2  0
 25 26  1  0
 26 27  1  0
 27 28  1  0
 27 29  1  0
 27 30  1  0
 26 31  2  0
 31 32  1  0
 32 33  1  0
 32 14  2  0
 31 16  1  0
 24 19  1  0
M  END
>  <Binding energies>  (59) 
[-5.13]

>  <Ligand effiencies>  (59) 
[-0.1425]

>  <Interactions>  (59) 
["V-A:GLU:543:CG:4907, V-A:GLU:543:CD:4908, V-A:ALA:541:CB:4892, H-A:TYR:539:N:4870, V-A:LEU:363:CD1:3189, V-A:TYR:539:CD1:4873, V-A:ALA:541:CA:4890, V-A:TYR:539:C:4867, V-A:PRO:540:N:4884, V-A:PRO:540:CA:4883, V-A:PRO:540:CB:4885, V-A:ASP:366:CG:3213, V-A:ASN:362:C:3172, H-A:ASP:366:OD2:3215, V-A:PRO:540:CD:4887, V-A:ASN:362:CB:3176, V-A:LEU:363:CA:3185, V-B:LEU:363:CD1:8160, V-B:PRO:540:N:9856, V-A:TYR:531:CZ:4794, V-B:PRO:540:CB:9857, V-B:PRO:540:CD:9859, V-B:TYR:539:CE1:9847, V-B:TYR:539:CD1:9845, V-A:PRO:540:CG:4886, V-A:ASP:366:CB:3212, H-A:GLU:543:OE1:4909, H-A:ARG:545:NH2:4928, V-B:TYR:539:CE2:9848, V-B:TYR:539:CZ:9849, V-B:MET:535:CE:9807, H-A:ASP:366:OD1:3214, V-B:ILE:538:CG2:9835, V-B:ILE:538:C:9830, V-B:ILE:538:CA:9832, V-A:ALA:541:C:4888, V-B:PRO:540:CG:9858"]

$$$$
4dd_Grossjean_2025
     RDKit          3D

 26 29  0  0  0  0  0  0  0  0999 V2000
  125.1350  129.5550   63.7340 C   0  0  0  0  0  0  0  0  0  0  0  0
  125.4240  130.3410   62.4640 C   0  0  0  0  0  0  0  0  0  0  0  0
  125.2530  131.7300   62.4950 C   0  0  0  0  0  0  0  0  0  0  0  0
  125.5020  132.5110   61.3590 C   0  0  0  0  0  0  0  0  0  0  0  0
  125.3220  134.0000   61.3610 C   0  0  0  0  0  0  0  0  0  0  0  0
  124.0390  134.5700   61.3600 C   0  0  0  0  0  0  0  0  0  0  0  0
  123.8640  135.9510   61.3650 C   0  0  0  0  0  0  0  0  0  0  0  0
  124.9760  136.7860   61.3690 C   0  0  0  0  0  0  0  0  0  0  0  0
  126.2590  136.2500   61.3720 C   0  0  0  0  0  0  0  0  0  0  0  0
  126.4290  134.8670   61.3690 C   0  0  0  0  0  0  0  0  0  0  0  0
  125.9070  131.9590   60.1820 N   0  0  0  0  0  0  0  0  0  0  0  0
  126.0760  130.6380   60.1540 C   0  0  0  0  0  0  0  0  0  0  0  0
  126.6090  129.8010   58.7130 S   0  0  0  0  0  0  0  0  0  0  0  0
  126.5570  128.2430   59.5420 C   0  0  0  0  0  0  0  0  0  0  0  0
  126.9370  127.0170   58.8380 C   0  0  0  0  0  0  0  0  0  0  0  0
  128.0870  126.8610   58.4240 O   0  0  0  0  0  0  0  0  0  0  0  0
  125.9490  126.1000   58.6950 N   0  0  0  0  0  0  0  0  0  0  0  0
  125.9660  124.8590   58.0330 C   0  0  0  0  0  0  0  0  0  0  0  0
  127.1930  124.1880   58.0250 C   0  0  0  0  0  0  0  0  0  0  0  0
  127.3100  122.9450   57.4080 C   0  0  0  0  0  0  0  0  0  0  0  0
  126.1960  122.3680   56.8030 C   0  0  0  0  0  0  0  0  0  0  0  0
  124.9660  123.0200   56.8140 C   0  0  0  0  0  0  0  0  0  0  0  0
  124.8460  124.2620   57.4310 C   0  0  0  0  0  0  0  0  0  0  0  0
  126.1360  128.3930   60.8720 C   0  0  0  0  0  0  0  0  0  0  0  0
  125.9980  127.3470   61.7520 N   0  0  0  0  0  0  0  0  0  0  0  0
  125.8580  129.7540   61.2480 C   0  0  0  0  0  0  0  0  0  0  0  0
  1  2  1  0
  2  3  2  0
  3  4  1  0
  4  5  1  0
  5  6  2  0
  6  7  1  0
  7  8  2  0
  8  9  1  0
  9 10  2  0
  4 11  2  0
 11 12  1  0
 12 13  1  0
 13 14  1  0
 14 15  1  0
 15 16  2  0
 15 17  1  0
 17 18  1  0
 18 19  2  0
 19 20  1  0
 20 21  2  0
 21 22  1  0
 22 23  2  0
 14 24  2  0
 24 25  1  0
 24 26  1  0
 26  2  1  0
 10  5  1  0
 26 12  2  0
 23 18  1  0
M  END
>  <Binding energies>  (60) 
[-8.09]

>  <Ligand effiencies>  (60) 
[-0.2789655172413793]

>  <Interactions>  (60) 
["V-B:ARG:545:CZ:9898, V-B:GLU:543:CD:9880, V-B:LEU:475:CD2:9230, V-B:ILE:369:CG2:8208, V-B:ASP:366:CB:8183, V-A:TYR:539:CE1:4875, V-B:ASP:366:CG:8184, V-A:TYR:539:CD1:4873, H-B:TYR:531:OH:9767, V-B:SER:385:CB:8380, V-B:LEU:363:CD1:8160, V-B:PRO:540:N:9856, V-B:PRO:540:CA:9855, V-B:PRO:540:CB:9857, V-B:TYR:539:C:9839, V-B:PRO:540:CD:9859, H-B:ASP:366:OD1:8185, H-B:ASP:366:OD2:8186, H-B:GLU:543:OE2:9882, H-B:GLU:543:OE1:9881, V-B:TYR:531:CE2:9765, V-B:MET:535:CE:9807, V-B:SER:385:C:8376, V-B:SER:385:CA:8378"]

$$$$
4dg_Grossjean_2025
     RDKit          3D

 27 30  0  0  0  0  0  0  0  0999 V2000
  127.9350  129.4360   65.8830 C   0  0  0  0  0  0  0  0  0  0  0  0
  128.5230  128.2810   66.6800 C   0  0  0  0  0  0  0  0  0  0  0  0
  128.6100  128.4170   68.0710 C   0  0  0  0  0  0  0  0  0  0  0  0
  129.1410  127.3910   68.8620 C   0  0  0  0  0  0  0  0  0  0  0  0
  129.2460  127.5060   70.3570 C   0  0  0  0  0  0  0  0  0  0  0  0
  128.2050  127.0620   71.1890 C   0  0  0  0  0  0  0  0  0  0  0  0
  128.2950  127.1710   72.5750 C   0  0  0  0  0  0  0  0  0  0  0  0
  129.4320  127.7260   73.1510 C   0  0  0  0  0  0  0  0  0  0  0  0
  130.4770  128.1780   72.3500 C   0  0  0  0  0  0  0  0  0  0  0  0
  130.3820  128.0690   70.9660 C   0  0  0  0  0  0  0  0  0  0  0  0
  129.5760  126.2200   68.3220 N   0  0  0  0  0  0  0  0  0  0  0  0
  129.4940  126.0900   66.9980 C   0  0  0  0  0  0  0  0  0  0  0  0
  130.0240  124.6400   66.1760 S   0  0  0  0  0  0  0  0  0  0  0  0
  129.5720  125.3120   64.6100 C   0  0  0  0  0  0  0  0  0  0  0  0
  129.8150  124.5500   63.3860 C   0  0  0  0  0  0  0  0  0  0  0  0
  130.9580  124.2850   63.0110 O   0  0  0  0  0  0  0  0  0  0  0  0
  128.7170  124.1950   62.6850 N   0  0  0  0  0  0  0  0  0  0  0  0
  128.7180  123.4140   61.4490 C   0  0  0  0  0  0  0  0  0  0  0  0
  127.4510  123.5920   60.6200 C   0  0  0  0  0  0  0  0  0  0  0  0
  126.2270  123.8080   61.2600 C   0  0  0  0  0  0  0  0  0  0  0  0
  125.0740  124.0010   60.5060 C   0  0  0  0  0  0  0  0  0  0  0  0
  125.1490  123.9900   59.1140 C   0  0  0  0  0  0  0  0  0  0  0  0
  126.3680  123.7920   58.4700 C   0  0  0  0  0  0  0  0  0  0  0  0
  127.5220  123.5990   59.2240 C   0  0  0  0  0  0  0  0  0  0  0  0
  129.0520  126.6080   64.7420 C   0  0  0  0  0  0  0  0  0  0  0  0
  128.6330  127.3740   63.6830 N   0  0  0  0  0  0  0  0  0  0  0  0
  128.9850  127.0710   66.1020 C   0  0  0  0  0  0  0  0  0  0  0  0
  1  2  1  0
  2  3  2  0
  3  4  1  0
  4  5  1  0
  5  6  2  0
  6  7  1  0
  7  8  2  0
  8  9  1  0
  9 10  2  0
  4 11  2  0
 11 12  1  0
 12 13  1  0
 13 14  1  0
 14 15  1  0
 15 16  2  0
 15 17  1  0
 17 18  1  0
 18 19  1  0
 19 20  2  0
 20 21  1  0
 21 22  2  0
 22 23  1  0
 23 24  2  0
 14 25  2  0
 25 26  1  0
 25 27  1  0
 27  2  1  0
 10  5  1  0
 27 12  2  0
 24 19  1  0
M  END
>  <Binding energies>  (61) 
[-7.8]

>  <Ligand effiencies>  (61) 
[-0.26]

>  <Interactions>  (61) 
["V-B:GLU:543:CG:9879, V-A:GLU:543:CG:4907, V-B:GLU:543:CD:9880, V-A:TYR:484:CZ:4347, V-A:GLU:543:CD:4908, V-A:TYR:484:CE2:4346, V-B:GLU:543:CB:9878, V-B:HIS:456:CE1:9041, V-A:GLU:543:CB:4906, V-A:GLU:543:C:4902, V-A:HIS:456:CE1:4070, V-A:GLY:544:C:4912, V-B:PRO:540:CA:9855, V-B:PRO:540:CB:9857, H-A:GLU:543:OE1:4909, H-A:GLU:543:OE2:4910, H-B:GLU:543:OE2:9882, H-B:GLU:543:OE1:9881"]

$$$$
4dj_Grossjean_2025
     RDKit          3D

 25 28  0  0  0  0  0  0  0  0999 V2000
  125.4480  129.2500   63.7630 C   0  0  0  0  0  0  0  0  0  0  0  0
  125.5680  130.0420   62.4700 C   0  0  0  0  0  0  0  0  0  0  0  0
  125.3620  131.4250   62.5210 C   0  0  0  0  0  0  0  0  0  0  0  0
  125.4560  132.2110   61.3660 C   0  0  0  0  0  0  0  0  0  0  0  0
  125.2450  133.6980   61.3920 C   0  0  0  0  0  0  0  0  0  0  0  0
  123.9510  134.2410   61.4470 C   0  0  0  0  0  0  0  0  0  0  0  0
  123.7480  135.6190   61.4710 C   0  0  0  0  0  0  0  0  0  0  0  0
  124.8420  136.4770   61.4360 C   0  0  0  0  0  0  0  0  0  0  0  0
  126.1350  135.9670   61.3770 C   0  0  0  0  0  0  0  0  0  0  0  0
  126.3320  134.5900   61.3540 C   0  0  0  0  0  0  0  0  0  0  0  0
  125.7660  131.6730   60.1550 N   0  0  0  0  0  0  0  0  0  0  0  0
  125.9620  130.3560   60.1040 C   0  0  0  0  0  0  0  0  0  0  0  0
  126.3590  129.5330   58.6120 S   0  0  0  0  0  0  0  0  0  0  0  0
  126.4280  127.9740   59.4350 C   0  0  0  0  0  0  0  0  0  0  0  0
  126.7320  126.7540   58.6850 C   0  0  0  0  0  0  0  0  0  0  0  0
  127.8290  126.6070   58.1400 O   0  0  0  0  0  0  0  0  0  0  0  0
  125.7360  125.8360   58.6360 N   0  0  0  0  0  0  0  0  0  0  0  0
  125.7660  124.6060   57.9930 C   0  0  0  0  0  0  0  0  0  0  0  0
  124.8080  124.0370   57.2930 N   0  0  0  0  0  0  0  0  0  0  0  0
  125.1840  122.8630   56.8230 C   0  0  0  0  0  0  0  0  0  0  0  0
  126.4770  122.4580   57.1390 C   0  0  0  0  0  0  0  0  0  0  0  0
  127.2330  123.6880   58.1070 S   0  0  0  0  0  0  0  0  0  0  0  0
  126.1480  128.1120   60.8040 C   0  0  0  0  0  0  0  0  0  0  0  0
  126.1290  127.0630   61.6880 N   0  0  0  0  0  0  0  0  0  0  0  0
  125.8810  129.4650   61.2120 C   0  0  0  0  0  0  0  0  0  0  0  0
  1  2  1  0
  2  3  2  0
  3  4  1  0
  4  5  1  0
  5  6  2  0
  6  7  1  0
  7  8  2  0
  8  9  1  0
  9 10  2  0
  4 11  2  0
 11 12  1  0
 12 13  1  0
 13 14  1  0
 14 15  1  0
 15 16  2  0
 15 17  1  0
 17 18  1  0
 18 19  2  0
 19 20  1  0
 20 21  2  0
 21 22  1  0
 14 23  2  0
 23 24  1  0
 23 25  1  0
 25  2  1  0
 10  5  1  0
 25 12  2  0
 22 18  1  0
M  END
>  <Binding energies>  (62) 
[-7.32]

>  <Ligand effiencies>  (62) 
[-0.26142857142857145]

>  <Interactions>  (62) 
["V-B:ARG:545:CZ:9898, V-B:GLU:543:CD:9880, V-B:LEU:475:CD2:9230, V-B:ILE:369:CG2:8208, V-B:ASP:366:CB:8183, V-A:TYR:539:CE1:4875, V-B:ASP:366:CG:8184, V-A:TYR:539:CD1:4873, V-B:SER:385:CB:8380, V-B:LEU:363:CD1:8160, V-B:PRO:540:N:9856, V-B:PRO:540:CA:9855, V-B:PRO:540:CB:9857, V-B:TYR:539:C:9839, V-B:PRO:540:CD:9859, H-B:ASP:366:OD1:8185, H-B:GLU:543:OE2:9882, H-B:GLU:543:OE1:9881, V-B:MET:535:CE:9807, V-B:SER:385:C:8376, V-B:SER:385:CA:8378"]

$$$$
4ea_Grossjean_2025
     RDKit          3D

 31 34  0  0  0  0  0  0  0  0999 V2000
  131.3370  131.8790   55.4630 C   0  0  0  0  0  0  0  0  0  0  0  0
  131.7880  132.4360   56.8160 C   0  0  0  0  0  0  0  0  0  0  0  0
  130.8690  133.4320   57.2470 O   0  0  0  0  0  0  0  0  0  0  0  0
  129.5770  133.1210   57.5240 C   0  0  0  0  0  0  0  0  0  0  0  0
  128.6370  133.3900   56.7700 O   0  0  0  0  0  0  0  0  0  0  0  0
  129.4040  132.4190   58.8400 C   0  0  0  0  0  0  0  0  0  0  0  0
  129.7260  131.0590   58.9360 C   0  0  0  0  0  0  0  0  0  0  0  0
  129.5780  130.3800   60.1420 C   0  0  0  0  0  0  0  0  0  0  0  0
  129.1060  131.0430   61.2750 C   0  0  0  0  0  0  0  0  0  0  0  0
  128.9960  130.2550   62.4370 N   0  0  0  0  0  0  0  0  0  0  0  0
  127.9110  129.6740   63.0060 C   0  0  0  0  0  0  0  0  0  0  0  0
  126.7670  129.7530   62.5570 O   0  0  0  0  0  0  0  0  0  0  0  0
  128.1790  128.9170   64.2310 C   0  0  0  0  0  0  0  0  0  0  0  0
  127.5320  129.4650   65.7800 S   0  0  0  0  0  0  0  0  0  0  0  0
  128.2610  128.1140   66.6180 C   0  0  0  0  0  0  0  0  0  0  0  0
  128.1260  127.9450   67.9340 N   0  0  0  0  0  0  0  0  0  0  0  0
  128.7400  126.8580   68.4610 C   0  0  0  0  0  0  0  0  0  0  0  0
  128.5740  126.6850   69.9600 C   0  0  0  0  0  0  0  0  0  0  0  0
  129.4780  125.9450   67.7110 C   0  0  0  0  0  0  0  0  0  0  0  0
  129.6160  126.1250   66.3310 C   0  0  0  0  0  0  0  0  0  0  0  0
  130.4030  125.1470   65.5470 C   0  0  0  0  0  0  0  0  0  0  0  0
  129.8270  123.9340   65.1550 C   0  0  0  0  0  0  0  0  0  0  0  0
  130.5650  123.0140   64.4160 C   0  0  0  0  0  0  0  0  0  0  0  0
  131.8840  123.3050   64.0720 C   0  0  0  0  0  0  0  0  0  0  0  0
  132.4690  124.5070   64.4620 C   0  0  0  0  0  0  0  0  0  0  0  0
  131.7290  125.4260   65.2010 C   0  0  0  0  0  0  0  0  0  0  0  0
  128.9870  127.2550   65.7390 C   0  0  0  0  0  0  0  0  0  0  0  0
  128.9240  127.7370   64.3830 C   0  0  0  0  0  0  0  0  0  0  0  0
  129.5430  127.0860   63.3460 N   0  0  0  0  0  0  0  0  0  0  0  0
  128.7810  132.4060   61.1880 C   0  0  0  0  0  0  0  0  0  0  0  0
  128.9300  133.0840   59.9820 C   0  0  0  0  0  0  0  0  0  0  0  0
  1  2  1  0
  2  3  1  0
  3  4  1  0
  4  5  2  0
  4  6  1  0
  6  7  2  0
  7  8  1  0
  8  9  2  0
  9 10  1  0
 10 11  1  0
 11 12  2  0
 11 13  1  0
 13 14  1  0
 14 15  1  0
 15 16  2  0
 16 17  1  0
 17 18  1  0
 17 19  2  0
 19 20  1  0
 20 21  1  0
 21 22  2  0
 22 23  1  0
 23 24  2  0
 24 25  1  0
 25 26  2  0
 20 27  2  0
 27 28  1  0
 28 29  1  0
  9 30  1  0
 30 31  2  0
 31  6  1  0
 28 13  2  0
 27 15  1  0
 26 21  1  0
M  END
>  <Binding energies>  (63) 
[-8.6]

>  <Ligand effiencies>  (63) 
[-0.2529411764705882]

>  <Interactions>  (63) 
["V-B:GLU:543:CG:9879, V-A:GLU:543:CG:4907, V-B:TYR:484:CZ:9318, V-B:GLU:543:CD:9880, V-A:GLU:543:CD:4908, V-B:GLU:543:C:9874, V-A:TYR:484:CE2:4346, V-B:GLU:543:CB:9878, V-B:HIS:456:CE1:9041, V-A:HIS:456:CE1:4070, V-A:ARG:545:CZ:4926, V-A:LEU:475:CD2:4259, V-A:ILE:538:CB:4862, H-A:TYR:539:N:4870, V-A:MET:535:CE:4835, V-A:LEU:363:CD1:3189, V-A:TYR:539:CD1:4873, V-A:ILE:538:CG2:4863, V-A:TYR:539:C:4867, V-A:PRO:540:N:4884, V-A:PRO:540:CA:4883, V-A:PRO:540:CB:4885, V-A:TYR:539:CA:4869, V-A:MET:535:CG:4833, H-A:GLU:543:OE1:4909, V-B:GLU:543:CA:9876, H-A:GLU:543:OE2:4910, H-B:GLU:543:OE1:9881"]

$$$$
4eb_Grossjean_2025
     RDKit          3D

 30 33  0  0  0  0  0  0  0  0999 V2000
  131.6110  132.5240   56.4240 C   0  0  0  0  0  0  0  0  0  0  0  0
  130.9160  133.4070   57.2920 O   0  0  0  0  0  0  0  0  0  0  0  0
  129.6100  133.1960   57.6040 C   0  0  0  0  0  0  0  0  0  0  0  0
  128.6740  133.5510   56.8840 O   0  0  0  0  0  0  0  0  0  0  0  0
  129.4210  132.4860   58.9140 C   0  0  0  0  0  0  0  0  0  0  0  0
  129.9260  131.1880   59.0680 C   0  0  0  0  0  0  0  0  0  0  0  0
  129.7670  130.5040   60.2700 C   0  0  0  0  0  0  0  0  0  0  0  0
  129.1020  131.1010   61.3410 C   0  0  0  0  0  0  0  0  0  0  0  0
  129.0010  130.3160   62.5060 N   0  0  0  0  0  0  0  0  0  0  0  0
  127.9370  129.6630   63.0350 C   0  0  0  0  0  0  0  0  0  0  0  0
  126.8100  129.6570   62.5390 O   0  0  0  0  0  0  0  0  0  0  0  0
  128.2050  128.9360   64.2780 C   0  0  0  0  0  0  0  0  0  0  0  0
  127.5830  129.5370   65.8170 S   0  0  0  0  0  0  0  0  0  0  0  0
  128.2980  128.1980   66.6850 C   0  0  0  0  0  0  0  0  0  0  0  0
  128.1740  128.0680   68.0070 N   0  0  0  0  0  0  0  0  0  0  0  0
  128.7750  126.9870   68.5580 C   0  0  0  0  0  0  0  0  0  0  0  0
  128.6210  126.8590   70.0630 C   0  0  0  0  0  0  0  0  0  0  0  0
  129.4900  126.0410   67.8280 C   0  0  0  0  0  0  0  0  0  0  0  0
  129.6180  126.1810   66.4410 C   0  0  0  0  0  0  0  0  0  0  0  0
  130.3820  125.1670   65.6770 C   0  0  0  0  0  0  0  0  0  0  0  0
  131.6470  125.4770   65.1700 C   0  0  0  0  0  0  0  0  0  0  0  0
  132.3660  124.5230   64.4530 C   0  0  0  0  0  0  0  0  0  0  0  0
  131.8180  123.2600   64.2420 C   0  0  0  0  0  0  0  0  0  0  0  0
  130.5560  122.9430   64.7420 C   0  0  0  0  0  0  0  0  0  0  0  0
  129.8380  123.8970   65.4580 C   0  0  0  0  0  0  0  0  0  0  0  0
  129.0010  127.3030   65.8240 C   0  0  0  0  0  0  0  0  0  0  0  0
  128.9320  127.7480   64.4570 C   0  0  0  0  0  0  0  0  0  0  0  0
  129.5300  127.0590   63.4310 N   0  0  0  0  0  0  0  0  0  0  0  0
  128.5930  132.4010   61.1970 C   0  0  0  0  0  0  0  0  0  0  0  0
  128.7530  133.0840   59.9940 C   0  0  0  0  0  0  0  0  0  0  0  0
  1  2  1  0
  2  3  1  0
  3  4  2  0
  3  5  1  0
  5  6  2  0
  6  7  1  0
  7  8  2  0
  8  9  1  0
  9 10  1  0
 10 11  2  0
 10 12  1  0
 12 13  1  0
 13 14  1  0
 14 15  2  0
 15 16  1  0
 16 17  1  0
 16 18  2  0
 18 19  1  0
 19 20  1  0
 20 21  2  0
 21 22  1  0
 22 23  2  0
 23 24  1  0
 24 25  2  0
 19 26  2  0
 26 27  1  0
 27 28  1  0
  8 29  1  0
 29 30  2  0
 30  5  1  0
 27 12  2  0
 26 14  1  0
 25 20  1  0
M  END
>  <Binding energies>  (64) 
[-8.37]

>  <Ligand effiencies>  (64) 
[-0.2536363636363636]

>  <Interactions>  (64) 
["V-B:GLU:543:CG:9879, V-A:GLU:543:CG:4907, V-B:TYR:484:CZ:9318, V-B:GLU:543:CD:9880, V-A:TYR:484:CZ:4347, V-A:GLU:543:CD:4908, V-B:GLU:543:C:9874, V-A:TYR:484:CE2:4346, V-B:GLU:543:CB:9878, V-B:HIS:456:CE1:9041, V-A:GLU:543:CB:4906, V-A:HIS:456:CE1:4070, V-A:LEU:475:CD2:4259, V-A:ILE:538:CB:4862, H-A:TYR:539:N:4870, V-A:LEU:363:CD1:3189, V-A:TYR:539:CD1:4873, V-A:ILE:538:CG2:4863, V-A:TYR:539:C:4867, V-A:PRO:540:N:4884, V-A:PRO:540:CA:4883, V-A:TYR:539:CA:4869, H-A:GLU:543:OE1:4909, H-A:GLU:543:OE2:4910, H-B:GLU:543:OE1:9881"]

$$$$
8b_Ghoteimi_2023
     RDKit          3D

 34 38  0  0  0  0  0  0  0  0999 V2000
  131.0040  126.9740   73.9140 C   0  0  0  0  0  0  0  0  0  0  0  0
  130.2050  127.9830   73.3060 O   0  0  0  0  0  0  0  0  0  0  0  0
  129.8810  127.8710   71.9680 C   0  0  0  0  0  0  0  0  0  0  0  0
  130.8880  128.1740   71.0550 C   0  0  0  0  0  0  0  0  0  0  0  0
  130.6530  128.0890   69.6860 C   0  0  0  0  0  0  0  0  0  0  0  0
  129.3990  127.6980   69.1940 C   0  0  0  0  0  0  0  0  0  0  0  0
  129.1390  127.6070   67.7240 C   0  0  0  0  0  0  0  0  0  0  0  0
  128.4870  128.6290   67.0260 C   0  0  0  0  0  0  0  0  0  0  0  0
  128.2570  128.5200   65.6510 C   0  0  0  0  0  0  0  0  0  0  0  0
  127.5540  129.6160   64.9440 C   0  0  0  0  0  0  0  0  0  0  0  0
  128.2540  130.7550   64.5420 C   0  0  0  0  0  0  0  0  0  0  0  0
  127.5940  131.7790   63.8690 C   0  0  0  0  0  0  0  0  0  0  0  0
  126.2290  131.6830   63.5910 C   0  0  0  0  0  0  0  0  0  0  0  0
  125.6590  132.7470   62.9180 O   0  0  0  0  0  0  0  0  0  0  0  0
  124.2410  132.8660   62.8810 C   0  0  0  0  0  0  0  0  0  0  0  0
  125.5280  130.5390   64.0010 C   0  0  0  0  0  0  0  0  0  0  0  0
  126.1890  129.5140   64.6730 C   0  0  0  0  0  0  0  0  0  0  0  0
  128.7110  127.3480   64.9880 C   0  0  0  0  0  0  0  0  0  0  0  0
  128.6500  126.9180   63.6160 C   0  0  0  0  0  0  0  0  0  0  0  0
  128.0710  127.6780   62.6330 N   0  0  0  0  0  0  0  0  0  0  0  0
  129.2360  125.6620   63.3880 C   0  0  0  0  0  0  0  0  0  0  0  0
  129.3550  124.9280   62.1260 C   0  0  0  0  0  0  0  0  0  0  0  0
  130.4510  124.7990   61.5750 O   0  0  0  0  0  0  0  0  0  0  0  0
  128.1960  124.4230   61.6350 N   0  0  0  0  0  0  0  0  0  0  0  0
  128.0200  123.6890   60.4700 C   0  0  0  0  0  0  0  0  0  0  0  0
  127.2710  124.1470   59.3870 C   0  0  0  0  0  0  0  0  0  0  0  0
  127.3390  123.1390   58.4530 C   0  0  0  0  0  0  0  0  0  0  0  0
  128.0940  122.1280   58.9450 O   0  0  0  0  0  0  0  0  0  0  0  0
  128.5210  122.4890   60.2250 N   0  0  0  0  0  0  0  0  0  0  0  0
  129.8830  124.9810   64.8810 S   0  0  0  0  0  0  0  0  0  0  0  0
  129.3670  126.3770   65.7980 C   0  0  0  0  0  0  0  0  0  0  0  0
  129.5840  126.4790   67.1090 N   0  0  0  0  0  0  0  0  0  0  0  0
  128.3900  127.3920   70.1170 C   0  0  0  0  0  0  0  0  0  0  0  0
  128.6230  127.4770   71.4880 C   0  0  0  0  0  0  0  0  0  0  0  0
  1  2  1  0
  2  3  1  0
  3  4  2  0
  4  5  1  0
  5  6  2  0
  6  7  1  0
  7  8  2  0
  8  9  1  0
  9 10  1  0
 10 11  2  0
 11 12  1  0
 12 13  2  0
 13 14  1  0
 14 15  1  0
 13 16  1  0
 16 17  2  0
  9 18  2  0
 18 19  1  0
 19 20  1  0
 19 21  2  0
 21 22  1  0
 22 23  2  0
 22 24  1  0
 24 25  1  0
 25 26  1  0
 26 27  2  0
 27 28  1  0
 28 29  1  0
 21 30  1  0
 30 31  1  0
 31 32  2  0
  6 33  1  0
 33 34  2  0
 34  3  1  0
 32  7  1  0
 17 10  1  0
 31 18  1  0
 29 25  2  0
M  END
>  <Binding energies>  (65) 
[-7.46]

>  <Ligand effiencies>  (65) 
[-0.20162162162162162]

>  <Interactions>  (65) 
["V-B:GLU:543:CG:9879, V-A:GLU:543:CG:4907, V-B:GLU:543:CD:9880, V-A:GLU:543:CD:4908, V-B:GLU:543:CB:9878, H-A:LYS:547:NZ:4951, V-B:HIS:456:CE1:9041, V-A:GLU:543:CB:4906, V-A:GLU:543:C:4902, V-A:HIS:456:CE1:4070, V-A:GLY:544:C:4912, V-B:GLY:454:CA:9020, V-B:PRO:540:N:9856, V-B:PRO:540:CA:9855, V-B:PRO:540:CB:9857, V-A:GLY:544:CA:4914, H-A:GLU:543:OE1:4909, V-A:HIS:456:CD2:4068, V-B:HIS:456:CD2:9039, H-B:GLU:543:OE2:9882, H-B:GLU:543:OE1:9881, V-A:GLU:543:CA:4904"]

$$$$
9d_Ghoteimi_2023
     RDKit          3D

 38 43  0  0  0  0  0  0  0  0999 V2000
  132.8760  124.5670   64.3560 C   0  0  0  0  0  0  0  0  0  0  0  0
  132.1680  123.3360   64.3270 O   0  0  0  0  0  0  0  0  0  0  0  0
  130.8860  123.2600   64.7680 C   0  0  0  0  0  0  0  0  0  0  0  0
  130.2960  122.2000   64.9940 O   0  0  0  0  0  0  0  0  0  0  0  0
  130.2580  124.5880   64.9490 C   0  0  0  0  0  0  0  0  0  0  0  0
  129.7350  125.5100   63.5410 S   0  0  0  0  0  0  0  0  0  0  0  0
  129.1390  126.8010   64.5580 C   0  0  0  0  0  0  0  0  0  0  0  0
  128.5430  127.8760   64.0440 N   0  0  0  0  0  0  0  0  0  0  0  0
  128.1000  128.8140   64.9210 C   0  0  0  0  0  0  0  0  0  0  0  0
  127.4110  129.9990   64.3230 C   0  0  0  0  0  0  0  0  0  0  0  0
  126.0370  129.9660   64.0640 C   0  0  0  0  0  0  0  0  0  0  0  0
  125.3870  131.0630   63.5060 C   0  0  0  0  0  0  0  0  0  0  0  0
  126.0870  132.2410   63.1970 C   0  0  0  0  0  0  0  0  0  0  0  0
  125.4510  133.3450   62.6190 N   0  0  0  0  0  0  0  0  0  0  0  0
  126.1180  134.1610   61.5850 C   0  0  0  0  0  0  0  0  0  0  0  0
  125.4290  135.5150   61.3180 C   0  0  0  0  0  0  0  0  0  0  0  0
  124.0620  135.3110   61.0010 O   0  0  0  0  0  0  0  0  0  0  0  0
  123.3720  134.6780   62.0660 C   0  0  0  0  0  0  0  0  0  0  0  0
  123.9970  133.2970   62.3590 C   0  0  0  0  0  0  0  0  0  0  0  0
  127.4670  132.2630   63.4450 C   0  0  0  0  0  0  0  0  0  0  0  0
  128.1170  131.1640   64.0000 C   0  0  0  0  0  0  0  0  0  0  0  0
  128.2830  128.6910   66.3010 C   0  0  0  0  0  0  0  0  0  0  0  0
  128.9260  127.5730   66.8440 C   0  0  0  0  0  0  0  0  0  0  0  0
  129.1190  127.5060   68.3160 C   0  0  0  0  0  0  0  0  0  0  0  0
  130.3540  127.8200   68.8890 C   0  0  0  0  0  0  0  0  0  0  0  0
  130.5250  127.7740   70.2700 C   0  0  0  0  0  0  0  0  0  0  0  0
  129.4600  127.4270   71.1160 C   0  0  0  0  0  0  0  0  0  0  0  0
  129.6080  127.3640   72.5040 N   0  0  0  0  0  0  0  0  0  0  0  0
  128.9400  128.3770   73.3430 C   0  0  0  0  0  0  0  0  0  0  0  0
  128.8570  127.9760   74.8320 C   0  0  0  0  0  0  0  0  0  0  0  0
  130.1540  127.6800   75.3290 O   0  0  0  0  0  0  0  0  0  0  0  0
  130.7570  126.6090   74.6170 C   0  0  0  0  0  0  0  0  0  0  0  0
  130.8900  126.9800   73.1240 C   0  0  0  0  0  0  0  0  0  0  0  0
  128.2250  127.1120   70.5300 C   0  0  0  0  0  0  0  0  0  0  0  0
  128.0550  127.1570   69.1500 C   0  0  0  0  0  0  0  0  0  0  0  0
  129.3610  126.5580   65.9460 C   0  0  0  0  0  0  0  0  0  0  0  0
  129.9850  125.2750   66.1380 C   0  0  0  0  0  0  0  0  0  0  0  0
  130.2670  124.7620   67.3780 N   0  0  0  0  0  0  0  0  0  0  0  0
  1  2  1  0
  2  3  1  0
  3  4  2  0
  3  5  1  0
  5  6  1  0
  6  7  1  0
  7  8  2  0
  8  9  1  0
  9 10  1  0
 10 11  2  0
 11 12  1  0
 12 13  2  0
 13 14  1  0
 14 15  1  0
 15 16  1  0
 16 17  1  0
 17 18  1  0
 18 19  1  0
 13 20  1  0
 20 21  2  0
  9 22  2  0
 22 23  1  0
 23 24  1  0
 24 25  2  0
 25 26  1  0
 26 27  2  0
 27 28  1  0
 28 29  1  0
 29 30  1  0
 30 31  1  0
 31 32  1  0
 32 33  1  0
 27 34  1  0
 34 35  2  0
 23 36  2  0
 36 37  1  0
 37 38  1  0
 37  5  2  0
 36  7  1  0
 21 10  1  0
 35 24  1  0
 19 14  1  0
 33 28  1  0
M  END
>  <Binding energies>  (66) 
[-8.85]

>  <Ligand effiencies>  (66) 
[-0.22125]

>  <Interactions>  (66) 
["V-B:GLU:543:CG:9879, V-A:GLU:543:CG:4907, V-B:GLU:543:CD:9880, V-A:TYR:484:CZ:4347, H-B:LYS:547:NZ:9923, V-A:GLU:543:CD:4908, V-B:GLU:543:C:9874, V-A:TYR:484:CE2:4346, V-B:GLU:543:CB:9878, H-A:LYS:547:NZ:4951, V-B:HIS:456:CE1:9041, V-A:GLU:543:CB:4906, V-B:LEU:475:CD2:9230, V-A:GLU:543:C:4902, V-A:HIS:456:CE1:4070, V-A:ARG:545:CZ:4926, V-A:LEU:475:CD2:4259, V-A:GLY:544:C:4912, V-B:ILE:369:CG2:8208, V-B:GLY:454:CA:9020, V-A:TYR:539:CE1:4875, V-A:TYR:539:CD1:4873, V-B:SER:385:CB:8380, H-A:TYR:484:OH:4348, H-A:HIS:456:NE2:4071, V-A:HIS:456:CD2:4068, V-B:HIS:456:CD2:9039, V-A:HIS:456:CG:4066, V-B:GLU:543:CA:9876, V-B:SER:385:C:8376, V-B:SER:385:CA:8378, H-B:GLU:543:O:9875"]

$$$$
RR10_Rahimova_2017
     RDKit          3D

 34 38  0  0  0  0  0  0  0  0999 V2000
  132.8500  125.0310   64.6890 C   0  0  0  0  0  0  0  0  0  0  0  0
  133.2060  124.2790   63.3950 C   0  0  1  0  0  0  0  0  0  0  0  0
  132.6050  122.8550   63.3720 C   0  0  0  0  0  0  0  0  0  0  0  0
  133.0040  122.1060   62.0800 C   0  0  0  0  0  0  0  0  0  0  0  0
  132.5600  122.8660   60.8030 C   0  0  1  0  0  0  0  0  0  0  0  0
  131.0960  122.8680   60.6810 N   0  0  0  0  0  0  0  0  0  0  0  0
  130.3020  121.7870   60.7910 C   0  0  0  0  0  0  0  0  0  0  0  0
  130.7360  120.6580   61.0330 O   0  0  0  0  0  0  0  0  0  0  0  0
  128.7900  122.0120   60.5830 C   0  0  1  0  0  0  0  0  0  0  0  0
  128.2490  122.9380   61.7040 C   0  0  0  0  0  0  0  0  0  0  0  0
  126.7530  123.2410   61.4470 C   0  0  0  0  0  0  0  0  0  0  0  0
  126.4920  123.7670   60.0170 C   0  0  0  0  0  0  0  0  0  0  0  0
  127.0970  122.8580   59.0050 N   0  0  0  0  0  0  0  0  0  0  0  0
  126.6110  123.1930   57.3350 S   0  0  0  0  0  0  0  0  0  0  0  0
  125.1810  123.5280   57.3340 O   0  0  0  0  0  0  0  0  0  0  0  0
  127.1150  122.1030   56.4910 O   0  0  0  0  0  0  0  0  0  0  0  0
  127.4900  124.6900   56.8850 C   0  0  0  0  0  0  0  0  0  0  0  0
  128.4190  124.6500   55.8400 C   0  0  0  0  0  0  0  0  0  0  0  0
  129.1390  125.7810   55.4420 C   0  0  0  0  0  0  0  0  0  0  0  0
  128.8830  126.9620   56.1430 C   0  0  0  0  0  0  0  0  0  0  0  0
  129.3740  128.2430   56.0610 N   0  0  0  0  0  0  0  0  0  0  0  0
  128.7430  129.0020   57.0250 C   0  0  0  0  0  0  0  0  0  0  0  0
  129.0240  130.4600   57.2500 C   0  0  0  0  0  0  0  0  0  0  0  0
  128.0970  131.2660   57.9250 C   0  0  0  0  0  0  0  0  0  0  0  0
  128.3580  132.6170   58.1380 C   0  0  0  0  0  0  0  0  0  0  0  0
  129.5490  133.1710   57.6740 C   0  0  0  0  0  0  0  0  0  0  0  0
  130.4800  132.3850   57.0020 C   0  0  0  0  0  0  0  0  0  0  0  0
  130.2180  131.0330   56.7900 C   0  0  0  0  0  0  0  0  0  0  0  0
  127.8760  128.2970   57.7170 N   0  0  0  0  0  0  0  0  0  0  0  0
  127.9420  127.0310   57.1980 C   0  0  0  0  0  0  0  0  0  0  0  0
  127.2320  125.8810   57.5730 C   0  0  0  0  0  0  0  0  0  0  0  0
  128.5550  122.6500   59.1920 C   0  0  0  0  0  0  0  0  0  0  0  0
  133.1560  124.2990   60.8490 C   0  0  0  0  0  0  0  0  0  0  0  0
  132.7530  125.0540   62.1350 C   0  0  0  0  0  0  0  0  0  0  0  0
  2  1  1  1
  2  3  1  0
  3  4  1  0
  4  5  1  0
  5  6  1  1
  6  7  1  0
  7  8  2  0
  9  7  1  1
  9 10  1  0
 10 11  1  0
 11 12  1  0
 12 13  1  0
 13 14  1  0
 14 15  2  0
 14 16  2  0
 14 17  1  0
 17 18  2  0
 18 19  1  0
 19 20  2  0
 20 21  1  0
 21 22  1  0
 22 23  1  0
 23 24  2  0
 24 25  1  0
 25 26  2  0
 26 27  1  0
 27 28  2  0
 22 29  2  0
 29 30  1  0
 30 31  2  0
 13 32  1  0
  5 33  1  0
 33 34  1  0
 34  2  1  0
 32  9  1  0
 31 17  1  0
 30 20  1  0
 28 23  1  0
M  END
>  <Binding energies>  (67) 
[-10.5]

>  <Ligand effiencies>  (67) 
[-0.2916666666666667]

>  <Interactions>  (67) 
["V-A:ARG:545:CZ:4926, V-A:LEU:475:CD2:4259, V-A:MET:535:CE:4835, V-A:TYR:539:CE1:4875, V-A:TYR:539:CD1:4873, H-B:TYR:531:OH:9767, V-A:TYR:539:C:4867, V-A:PRO:540:N:4884, V-A:PRO:540:CA:4883, V-A:ASP:366:CG:3213, V-B:PRO:540:N:9856, V-A:TYR:531:CZ:4794, V-B:PRO:540:CA:9855, V-B:PRO:540:CB:9857, V-B:TYR:539:C:9839, H-A:TYR:531:OH:4795, V-B:TYR:539:CE1:9847, V-A:TYR:539:CA:4869, H-B:TYR:539:N:9842, V-B:TYR:539:CE2:9848, V-B:PRO:540:C:9853, H-A:MET:535:SD:4834, V-B:TYR:539:CD2:9846, V-B:TYR:539:CZ:9849, V-A:GLY:454:CA:4049"]

$$$$
RR12_Rahimova_2017
     RDKit          3D

 26 28  0  0  0  0  0  0  0  0999 V2000
  122.9590  131.6150   62.0310 C   0  0  0  0  0  0  0  0  0  0  0  0
  124.1650  132.1880   62.7860 C   0  0  0  0  0  0  0  0  0  0  0  0
  125.4740  132.0740   61.9840 C   0  0  0  0  0  0  0  0  0  0  0  0
  126.1040  133.3830   61.8310 N   0  0  0  0  0  0  0  0  0  0  0  0
  127.4340  133.7100   62.0460 C   0  0  0  0  0  0  0  0  0  0  0  0
  128.4800  132.7260   62.5390 C   0  0  0  0  0  0  0  0  0  0  0  0
  129.1910  131.9970   61.3830 C   0  0  0  0  0  0  0  0  0  0  0  0
  129.4740  132.9200   60.1820 C   0  0  0  0  0  0  0  0  0  0  0  0
  128.8570  132.4700   58.9350 N   0  0  0  0  0  0  0  0  0  0  0  0
  129.2000  132.8990   57.7060 C   0  0  0  0  0  0  0  0  0  0  0  0
  130.0850  133.7340   57.5040 O   0  0  0  0  0  0  0  0  0  0  0  0
  128.4180  132.2760   56.5430 C   0  0  0  0  0  0  0  0  0  0  0  0
  127.7930  131.0690   56.9820 O   0  0  0  0  0  0  0  0  0  0  0  0
  126.4280  131.0550   57.2040 C   0  0  0  0  0  0  0  0  0  0  0  0
  126.0080  131.3650   58.5000 C   0  0  0  0  0  0  0  0  0  0  0  0
  124.6530  131.3800   58.8190 C   0  0  0  0  0  0  0  0  0  0  0  0
  123.7110  131.0840   57.8380 C   0  0  0  0  0  0  0  0  0  0  0  0
  124.1130  130.7710   56.5420 C   0  0  0  0  0  0  0  0  0  0  0  0
  125.4690  130.7550   56.2240 C   0  0  0  0  0  0  0  0  0  0  0  0
  127.7060  134.9680   61.7980 N   0  0  0  0  0  0  0  0  0  0  0  0
  126.5230  135.5060   61.3750 C   0  0  0  0  0  0  0  0  0  0  0  0
  126.2470  136.8200   60.9670 C   0  0  0  0  0  0  0  0  0  0  0  0
  124.9450  137.1250   60.5690 C   0  0  0  0  0  0  0  0  0  0  0  0
  123.9400  136.1570   60.5740 C   0  0  0  0  0  0  0  0  0  0  0  0
  124.1830  134.8420   60.9760 C   0  0  0  0  0  0  0  0  0  0  0  0
  125.4900  134.5360   61.3760 C   0  0  0  0  0  0  0  0  0  0  0  0
  1  2  1  0
  2  3  1  0
  3  4  1  0
  4  5  1  0
  5  6  1  0
  6  7  1  0
  7  8  1  0
  8  9  1  0
  9 10  1  0
 10 11  2  0
 10 12  1  0
 12 13  1  0
 13 14  1  0
 14 15  2  0
 15 16  1  0
 16 17  2  0
 17 18  1  0
 18 19  2  0
  5 20  2  0
 20 21  1  0
 21 22  2  0
 22 23  1  0
 23 24  2  0
 24 25  1  0
 25 26  2  0
 26  4  1  0
 19 14  1  0
 26 21  1  0
M  END
>  <Binding energies>  (68) 
[-6.7]

>  <Ligand effiencies>  (68) 
[-0.24814814814814815]

>  <Interactions>  (68) 
["V-A:ALA:541:CB:4892, V-B:LEU:475:CD2:9230, V-B:TYR:531:CZ:9766, V-B:ILE:369:CG2:8208, V-A:TYR:539:CG:4872, V-B:GLY:454:CA:9020, H-A:TYR:539:N:4870, V-B:ASP:366:CB:8183, V-B:TYR:531:CE1:9764, V-A:MET:535:CE:4835, V-B:ASP:366:CA:8181, V-B:ILE:369:CB:8207, V-A:TYR:539:CE1:4875, V-A:TYR:539:CD1:4873, V-A:TYR:539:CZ:4877, V-A:PRO:540:C:4881, V-A:TYR:539:C:4867, V-A:PRO:540:N:4884, V-A:PRO:540:CA:4883, V-B:SER:385:CB:8380, V-B:ASP:366:C:8179, V-A:TYR:539:CB:4871, V-B:ILE:369:CG1:8209, V-B:LEU:373:CD1:8251, V-B:HIS:383:CD2:8363, V-B:SER:385:CA:8378"]

$$$$
RR13_Rahimova_2017
     RDKit          3D

 48 54  0  0  0  0  0  0  0  0999 V2000
  125.7460  131.0590   58.9350 Cl  0  0  0  0  0  0  0  0  0  0  0  0
  124.9050  131.0210   60.4470 C   0  0  0  0  0  0  0  0  0  0  0  0
  123.5120  131.1250   60.4190 C   0  0  0  0  0  0  0  0  0  0  0  0
  122.7790  131.1210   61.6020 C   0  0  0  0  0  0  0  0  0  0  0  0
  123.4360  131.0160   62.8250 C   0  0  0  0  0  0  0  0  0  0  0  0
  124.8250  130.9120   62.8620 C   0  0  0  0  0  0  0  0  0  0  0  0
  125.5810  130.9010   61.6780 C   0  0  0  0  0  0  0  0  0  0  0  0
  127.1210  130.8100   61.7460 C   0  0  1  0  0  0  0  0  0  0  0  0
  127.6480  131.3540   63.0830 C   0  0  0  0  0  0  0  0  0  0  0  0
  127.7610  130.6880   64.2120 N   0  0  0  0  0  0  0  0  0  0  0  0
  128.2540  131.5980   65.1420 N   0  0  0  0  0  0  0  0  0  0  0  0
  128.4190  132.8360   64.5540 N   0  0  0  0  0  0  0  0  0  0  0  0
  128.0150  132.6660   63.2900 N   0  0  0  0  0  0  0  0  0  0  0  0
  128.0830  133.7690   62.3390 C   0  0  0  0  0  0  0  0  0  0  0  0
  126.9520  133.6490   61.3010 C   0  0  0  0  0  0  0  0  0  0  0  0
  126.0550  134.8770   61.2840 C   0  0  0  0  0  0  0  0  0  0  0  0
  126.6160  136.1530   61.3820 C   0  0  0  0  0  0  0  0  0  0  0  0
  125.7930  137.2760   61.3740 C   0  0  0  0  0  0  0  0  0  0  0  0
  124.4130  137.1190   61.2680 C   0  0  0  0  0  0  0  0  0  0  0  0
  123.8470  135.8500   61.1700 C   0  0  0  0  0  0  0  0  0  0  0  0
  124.6700  134.7260   61.1780 C   0  0  0  0  0  0  0  0  0  0  0  0
  127.6470  129.4570   61.4410 N   0  0  0  0  0  0  0  0  0  0  0  0
  126.9930  128.4450   62.2900 C   0  0  0  0  0  0  0  0  0  0  0  0
  127.4370  127.0190   61.8860 C   0  0  0  0  0  0  0  0  0  0  0  0
  128.8910  126.8610   62.0560 N   0  0  0  0  0  0  0  0  0  0  0  0
  129.3500  125.4840   61.7590 C   0  0  1  0  0  0  0  0  0  0  0  0
  130.7020  125.0830   62.3870 C   0  0  0  0  0  0  0  0  0  0  0  0
  130.8310  125.2260   63.7750 C   0  0  0  0  0  0  0  0  0  0  0  0
  132.0100  124.8720   64.4300 C   0  0  0  0  0  0  0  0  0  0  0  0
  133.0860  124.3730   63.7010 C   0  0  0  0  0  0  0  0  0  0  0  0
  132.9850  124.2390   62.3200 C   0  0  0  0  0  0  0  0  0  0  0  0
  131.8090  124.5940   61.6530 C   0  0  0  0  0  0  0  0  0  0  0  0
  131.8060  124.4550   59.9270 Cl  0  0  0  0  0  0  0  0  0  0  0  0
  128.2930  124.4200   62.0610 C   0  0  0  0  0  0  0  0  0  0  0  0
  128.2550  123.6680   63.1370 N   0  0  0  0  0  0  0  0  0  0  0  0
  127.1280  122.8650   63.0030 N   0  0  0  0  0  0  0  0  0  0  0  0
  126.4740  123.1600   61.8250 N   0  0  0  0  0  0  0  0  0  0  0  0
  127.1990  124.1380   61.2700 N   0  0  0  0  0  0  0  0  0  0  0  0
  126.8100  124.6950   59.9790 C   0  0  0  0  0  0  0  0  0  0  0  0
  127.7500  124.1890   58.8700 C   0  0  0  0  0  0  0  0  0  0  0  0
  126.9990  123.4540   57.7710 C   0  0  0  0  0  0  0  0  0  0  0  0
  125.6080  123.3330   57.8370 C   0  0  0  0  0  0  0  0  0  0  0  0
  124.9200  122.6660   56.8270 C   0  0  0  0  0  0  0  0  0  0  0  0
  125.6250  122.1210   55.7550 C   0  0  0  0  0  0  0  0  0  0  0  0
  127.0120  122.2380   55.6840 C   0  0  0  0  0  0  0  0  0  0  0  0
  127.7000  122.9060   56.6930 C   0  0  0  0  0  0  0  0  0  0  0  0
  129.5410  127.8720   61.2020 C   0  0  0  0  0  0  0  0  0  0  0  0
  129.1000  129.2940   61.6170 C   0  0  0  0  0  0  0  0  0  0  0  0
  1  2  1  0
  2  3  2  0
  3  4  1  0
  4  5  2  0
  5  6  1  0
  6  7  2  0
  7  8  1  0
  8  9  1  0
  9 10  2  0
 10 11  1  0
 11 12  2  0
 12 13  1  0
 13 14  1  0
 14 15  1  0
 15 16  1  0
 16 17  2  0
 17 18  1  0
 18 19  2  0
 19 20  1  0
 20 21  2  0
  8 22  1  1
 22 23  1  0
 23 24  1  0
 24 25  1  0
 26 25  1  1
 26 27  1  0
 27 28  2  0
 28 29  1  0
 29 30  2  0
 30 31  1  0
 31 32  2  0
 32 33  1  0
 26 34  1  0
 34 35  2  0
 35 36  1  0
 36 37  2  0
 37 38  1  0
 38 39  1  0
 39 40  1  0
 40 41  1  0
 41 42  2  0
 42 43  1  0
 43 44  2  0
 44 45  1  0
 45 46  2  0
 25 47  1  0
 47 48  1  0
  7  2  1  0
 13  9  1  0
 21 16  1  0
 48 22  1  0
 32 27  1  0
 38 34  1  0
 46 41  1  0
M  END
>  <Binding energies>  (69) 
[-13.19]

>  <Ligand effiencies>  (69) 
[-0.27479166666666666]

>  <Interactions>  (69) 
["H-B:TYR:484:OH:9319, V-B:GLU:543:CD:9880, V-A:ALA:541:CB:4892, V-B:LEU:475:CD2:9230, V-A:ARG:545:CZ:4926, V-B:ILE:369:CG2:8208, V-B:GLY:454:CA:9020, V-B:ASP:366:CB:8183, V-B:ASP:366:CA:8181, V-B:ILE:369:CB:8207, V-A:TYR:539:CE1:4875, V-B:ASP:366:CG:8184, V-A:TYR:539:CD1:4873, V-B:SER:385:CB:8380, V-B:LEU:363:CD1:8160, V-B:PRO:540:N:9856, V-B:PRO:540:CA:9855, V-B:PRO:540:CB:9857, V-B:PRO:540:CD:9859, V-B:TYR:539:CE1:9847, V-B:TYR:539:CD1:9845, V-B:ILE:369:CG1:8209, V-B:TYR:539:CE2:9848, V-B:GLY:453:C:9013, V-B:TYR:539:CD2:9846, V-B:TYR:539:CG:9844, V-B:TYR:539:CZ:9849, V-B:MET:535:CE:9807, V-B:ILE:538:CG2:9835, V-B:HIS:383:CD2:8363, V-B:SER:385:CA:8378, H-B:ALA:541:N:9863, V-B:GLY:453:CA:9015, V-B:ILE:538:C:9830, V-B:ILE:538:CA:9832, V-B:PRO:540:CG:9858, V-B:ILE:538:CB:9834"]

$$$$
RR14_Rahimova_2017
     RDKit          3D

 39 43  0  0  0  0  0  0  0  0999 V2000
  131.6960  132.6210   57.2530 C   0  0  0  0  0  0  0  0  0  0  0  0
  130.6750  133.4050   56.6460 O   0  0  0  0  0  0  0  0  0  0  0  0
  129.4320  132.8410   56.4320 C   0  0  0  0  0  0  0  0  0  0  0  0
  129.1130  131.7240   57.2050 C   0  0  0  0  0  0  0  0  0  0  0  0
  127.8930  131.0750   57.0420 C   0  0  0  0  0  0  0  0  0  0  0  0
  126.9780  131.5360   56.0940 C   0  0  0  0  0  0  0  0  0  0  0  0
  125.6690  130.7890   55.8670 C   0  0  0  0  0  0  0  0  0  0  0  0
  124.8200  130.7340   57.0570 N   0  0  0  0  0  0  0  0  0  0  0  0
  123.7350  131.5110   57.1490 N   0  0  0  0  0  0  0  0  0  0  0  0
  123.2030  131.2240   58.3910 N   0  0  0  0  0  0  0  0  0  0  0  0
  123.9870  130.2750   59.0400 N   0  0  0  0  0  0  0  0  0  0  0  0
  124.9670  129.9970   58.2120 C   0  0  0  0  0  0  0  0  0  0  0  0
  126.1020  129.0220   58.4930 C   0  0  0  0  0  0  0  0  0  0  0  0
  126.5370  129.0540   59.8990 N   0  0  0  0  0  0  0  0  0  0  0  0
  127.0960  127.7670   60.3310 C   0  0  0  0  0  0  0  0  0  0  0  0
  127.3040  126.7690   59.1710 C   0  0  0  0  0  0  0  0  0  0  0  0
  126.5390  125.4410   59.3510 C   0  0  0  0  0  0  0  0  0  0  0  0
  126.4920  124.6270   58.1310 N   0  0  0  0  0  0  0  0  0  0  0  0
  125.2380  123.8650   58.0740 C   0  0  0  0  0  0  0  0  0  0  0  0
  125.1790  122.9580   56.8270 C   0  0  0  0  0  0  0  0  0  0  0  0
  126.3260  122.1150   56.7800 O   0  0  0  0  0  0  0  0  0  0  0  0
  127.5380  122.8580   56.7210 C   0  0  0  0  0  0  0  0  0  0  0  0
  127.6690  123.7610   57.9660 C   0  0  0  0  0  0  0  0  0  0  0  0
  127.5160  130.1330   60.1000 C   0  0  0  0  0  0  0  0  0  0  0  0
  126.9410  131.5010   60.4610 C   0  0  0  0  0  0  0  0  0  0  0  0
  125.6550  131.6340   60.8670 C   0  0  0  0  0  0  0  0  0  0  0  0
  125.0630  132.9500   61.1840 C   0  0  0  0  0  0  0  0  0  0  0  0
  123.7400  133.1230   61.6260 C   0  0  0  0  0  0  0  0  0  0  0  0
  122.8010  131.9390   61.8140 C   0  0  0  0  0  0  0  0  0  0  0  0
  123.2790  134.4130   61.9010 C   0  0  0  0  0  0  0  0  0  0  0  0
  124.1140  135.5170   61.7420 C   0  0  0  0  0  0  0  0  0  0  0  0
  125.4320  135.3550   61.3050 C   0  0  0  0  0  0  0  0  0  0  0  0
  126.3210  136.5820   61.1440 C   0  0  0  0  0  0  0  0  0  0  0  0
  125.9070  134.0640   61.0260 C   0  0  0  0  0  0  0  0  0  0  0  0
  127.2280  133.8530   60.5800 N   0  0  0  0  0  0  0  0  0  0  0  0
  127.8120  132.6660   60.2780 C   0  0  0  0  0  0  0  0  0  0  0  0
  128.9770  132.6280   59.8820 O   0  0  0  0  0  0  0  0  0  0  0  0
  127.2750  132.6710   55.3360 C   0  0  0  0  0  0  0  0  0  0  0  0
  128.4960  133.3180   55.4990 C   0  0  0  0  0  0  0  0  0  0  0  0
  1  2  1  0
  2  3  1  0
  3  4  2  0
  4  5  1  0
  5  6  2  0
  6  7  1  0
  7  8  1  0
  8  9  1  0
  9 10  2  0
 10 11  1  0
 11 12  2  0
 12 13  1  0
 13 14  1  0
 14 15  1  0
 15 16  1  0
 16 17  1  0
 17 18  1  0
 18 19  1  0
 19 20  1  0
 20 21  1  0
 21 22  1  0
 22 23  1  0
 14 24  1  0
 24 25  1  0
 25 26  2  0
 26 27  1  0
 27 28  2  0
 28 29  1  0
 28 30  1  0
 30 31  2  0
 31 32  1  0
 32 33  1  0
 32 34  2  0
 34 35  1  0
 35 36  1  0
 36 37  2  0
  6 38  1  0
 38 39  2  0
 39  3  1  0
 12  8  1  0
 23 18  1  0
 36 25  1  0
 34 27  1  0
M  END
>  <Binding energies>  (70) 
[-10.85]

>  <Ligand effiencies>  (70) 
[-0.27125]

>  <Interactions>  (70) 
["V-B:LEU:475:CD2:9230, V-B:TYR:531:CZ:9766, V-A:ILE:538:CA:4860, V-B:ILE:369:CG2:8208, V-A:ILE:538:C:4858, V-A:TYR:539:CG:4872, H-A:TYR:539:N:4870, V-B:ASP:366:CB:8183, V-B:TYR:531:CE1:9764, V-A:MET:535:CE:4835, V-A:LEU:363:CD1:3189, H-A:TYR:539:OH:4878, V-B:ILE:369:CB:8207, V-A:TYR:539:CE1:4875, V-B:ASP:366:CG:8184, V-A:TYR:539:CD1:4873, V-A:TYR:539:CE2:4876, V-A:TYR:539:CD2:4874, V-A:TYR:539:CZ:4877, H-A:TYR:539:O:4868, V-A:PRO:540:N:4884, V-A:PRO:540:CA:4883, V-A:PRO:540:CB:4885, V-B:SER:385:CB:8380, V-A:PRO:540:CD:4887, V-B:LEU:363:CD1:8160, V-B:PRO:540:N:9856, V-B:PRO:540:CB:9857, V-B:PRO:540:CD:9859, V-B:TYR:539:CE1:9847, V-B:TYR:539:CD1:9845, V-B:ILE:369:CG1:8209, H-B:TYR:539:N:9842, V-B:TYR:539:CE2:9848, V-B:TYR:539:CD2:9846, V-B:TYR:539:CG:9844, V-B:TYR:539:CZ:9849, V-B:MET:535:CE:9807, V-B:SER:385:C:8376, V-B:SER:385:CA:8378"]

$$$$
RR15_Rahimova_2017
     RDKit          3D

 45 49  0  0  0  0  0  0  0  0999 V2000
  132.8950  123.0230   63.5740 C   0  0  0  0  0  0  0  0  0  0  0  0
  132.9080  124.3460   64.0990 O   0  0  0  0  0  0  0  0  0  0  0  0
  131.8350  125.1860   63.8580 C   0  0  0  0  0  0  0  0  0  0  0  0
  130.8880  125.5370   64.8330 C   0  0  0  0  0  0  0  0  0  0  0  0
  129.8290  126.3870   64.5230 C   0  0  0  0  0  0  0  0  0  0  0  0
  129.6830  126.9080   63.2340 C   0  0  0  0  0  0  0  0  0  0  0  0
  128.5360  127.8200   62.8970 C   0  0  0  0  0  0  0  0  0  0  0  0
  128.2040  128.8660   63.6420 N   0  0  0  0  0  0  0  0  0  0  0  0
  127.1130  129.4430   63.0260 N   0  0  0  0  0  0  0  0  0  0  0  0
  126.9320  128.6910   61.9400 N   0  0  0  0  0  0  0  0  0  0  0  0
  125.7670  128.8530   61.0720 C   0  0  0  0  0  0  0  0  0  0  0  0
  126.0230  129.6810   59.7880 C   0  0  0  0  0  0  0  0  0  0  0  0
  126.3210  129.0770   58.7550 O   0  0  0  0  0  0  0  0  0  0  0  0
  125.8850  131.0420   59.8200 N   0  0  0  0  0  0  0  0  0  0  0  0
  124.7350  131.6810   60.4910 C   0  0  0  0  0  0  0  0  0  0  0  0
  125.1370  132.8080   61.4660 C   0  0  0  0  0  0  0  0  0  0  0  0
  124.0360  133.8630   61.7280 C   0  0  0  0  0  0  0  0  0  0  0  0
  124.5170  135.2470   61.6680 N   0  0  0  0  0  0  0  0  0  0  0  0
  125.9530  135.3570   61.3680 C   0  0  0  0  0  0  0  0  0  0  0  0
  126.3900  136.8310   61.2310 C   0  0  0  0  0  0  0  0  0  0  0  0
  125.5850  137.4940   60.2620 O   0  0  0  0  0  0  0  0  0  0  0  0
  124.2030  137.4790   60.6040 C   0  0  0  0  0  0  0  0  0  0  0  0
  123.7050  136.0220   60.7200 C   0  0  0  0  0  0  0  0  0  0  0  0
  126.9510  131.9880   59.3680 C   0  0  2  0  0  0  0  0  0  0  0  0
  127.2220  131.9550   57.8320 C   0  0  0  0  0  0  0  0  0  0  0  0
  126.4860  131.3270   57.0700 O   0  0  0  0  0  0  0  0  0  0  0  0
  128.2720  132.6820   57.4100 N   0  0  0  0  0  0  0  0  0  0  0  0
  128.6540  132.8830   56.0170 C   0  0  0  0  0  0  0  0  0  0  0  0
  130.1840  132.9590   55.8650 C   0  0  2  0  0  0  0  0  0  0  0  0
  130.9020  131.6050   55.7250 C   0  0  0  0  0  0  0  0  0  0  0  0
  131.4770  131.3380   57.0950 C   0  0  0  0  0  0  0  0  0  0  0  0
  131.8040  132.7460   57.5620 C   0  0  0  0  0  0  0  0  0  0  0  0
  130.6820  133.4910   57.1000 O   0  0  0  0  0  0  0  0  0  0  0  0
  128.1590  131.9200   60.2950 C   0  0  0  0  0  0  0  0  0  0  0  0
  128.2770  132.8890   61.2980 C   0  0  0  0  0  0  0  0  0  0  0  0
  129.3590  132.8770   62.1730 C   0  0  0  0  0  0  0  0  0  0  0  0
  130.3340  131.8910   62.0530 C   0  0  0  0  0  0  0  0  0  0  0  0
  131.3850  131.8780   62.9030 F   0  0  0  0  0  0  0  0  0  0  0  0
  130.2330  130.9170   61.0620 C   0  0  0  0  0  0  0  0  0  0  0  0
  129.1510  130.9310   60.1870 C   0  0  0  0  0  0  0  0  0  0  0  0
  127.7660  127.6500   61.8390 N   0  0  0  0  0  0  0  0  0  0  0  0
  130.6310  126.5580   62.2630 C   0  0  0  0  0  0  0  0  0  0  0  0
  131.7070  125.7040   62.5610 C   0  0  0  0  0  0  0  0  0  0  0  0
  132.6700  125.3320   61.6390 O   0  0  0  0  0  0  0  0  0  0  0  0
  132.4500  125.5790   60.2540 C   0  0  0  0  0  0  0  0  0  0  0  0
  1  2  1  0
  2  3  1  0
  3  4  2  0
  4  5  1  0
  5  6  2  0
  6  7  1  0
  7  8  1  0
  8  9  2  0
  9 10  1  0
 10 11  1  0
 11 12  1  0
 12 13  2  0
 12 14  1  0
 14 15  1  0
 15 16  1  0
 16 17  1  0
 17 18  1  0
 18 19  1  0
 19 20  1  0
 20 21  1  0
 21 22  1  0
 22 23  1  0
 24 14  1  1
 24 25  1  0
 25 26  2  0
 25 27  1  0
 27 28  1  0
 29 28  1  1
 29 30  1  0
 30 31  1  0
 31 32  1  0
 32 33  1  0
 24 34  1  0
 34 35  2  0
 35 36  1  0
 36 37  2  0
 37 38  1  0
 37 39  1  0
 39 40  2  0
 10 41  1  0
  6 42  1  0
 42 43  2  0
 43 44  1  0
 44 45  1  0
 43  3  1  0
 41  7  2  0
 23 18  1  0
 33 29  1  0
 40 34  1  0
M  END
>  <Binding energies>  (71) 
[-8.22]

>  <Ligand effiencies>  (71) 
[-0.17869565217391306]

>  <Interactions>  (71) 
["V-B:GLU:543:CG:9879, V-A:GLU:543:CG:4907, V-B:GLU:543:CD:9880, V-A:GLU:543:CD:4908, V-A:ALA:541:CB:4892, V-B:LEU:475:CD2:9230, V-A:LEU:475:CD2:4259, V-A:ILE:538:CB:4862, V-A:ILE:538:CA:4860, V-B:ILE:369:CG2:8208, V-A:ILE:538:C:4858, V-A:TYR:539:CG:4872, H-A:TYR:539:N:4870, V-A:MET:535:CE:4835, V-A:LEU:363:CD1:3189, H-A:TYR:539:OH:4878, V-A:TYR:539:CE1:4875, V-B:ASP:366:CG:8184, V-A:TYR:539:CD1:4873, V-A:TYR:539:CE2:4876, V-A:TYR:539:CD2:4874, V-A:TYR:539:CZ:4877, H-B:TYR:531:OH:9767, V-A:ILE:538:CG2:4863, V-A:ALA:541:CA:4890, V-A:PRO:540:C:4881, H-A:TYR:539:O:4868, V-A:PRO:540:N:4884, H-B:HIS:383:NE2:8365, V-A:PRO:540:CA:4883, V-A:PRO:540:CB:4885, V-B:SER:385:CB:8380, V-A:ASP:366:CG:3213, V-A:PRO:540:CD:4887, V-A:PRO:540:CG:4886, V-A:ASP:366:CB:3212, H-A:GLY:454:N:4050, H-A:ARG:545:NH2:4928, H-A:TYR:484:OH:4348, V-B:LEU:373:CD1:8251, V-B:HIS:383:CD2:8363, V-B:SER:385:CA:8378, V-A:ALA:541:C:4888, V-A:GLY:454:CA:4049"]

$$$$
RR17_Rahimova_2017
     RDKit          3D

 38 41  0  0  0  0  0  0  0  0999 V2000
  129.2240  127.5060   69.0300 C   0  0  0  0  0  0  0  0  0  0  0  0
  129.4200  126.7130   67.7350 C   0  0  0  0  0  0  0  0  0  0  0  0
  130.7170  126.1210   67.7530 O   0  0  0  0  0  0  0  0  0  0  0  0
  131.1890  125.4890   66.6180 C   0  0  0  0  0  0  0  0  0  0  0  0
  132.5650  125.5430   66.4020 C   0  0  0  0  0  0  0  0  0  0  0  0
  133.1320  124.9380   65.2850 C   0  0  0  0  0  0  0  0  0  0  0  0
  132.3290  124.2620   64.3550 C   0  0  0  0  0  0  0  0  0  0  0  0
  132.9690  123.6170   63.1600 C   0  0  0  0  0  0  0  0  0  0  0  0
  134.0780  123.9590   62.7390 O   0  0  0  0  0  0  0  0  0  0  0  0
  132.1690  122.5000   62.4530 C   0  0  0  0  0  0  0  0  0  0  0  0
  133.0250  121.8790   60.9610 S   0  0  0  0  0  0  0  0  0  0  0  0
  132.7870  123.2590   59.8770 C   0  0  0  0  0  0  0  0  0  0  0  0
  133.7050  123.7810   59.0990 N   0  0  0  0  0  0  0  0  0  0  0  0
  133.1250  124.8360   58.4040 N   0  0  0  0  0  0  0  0  0  0  0  0
  131.8750  124.9070   58.7860 C   0  0  0  0  0  0  0  0  0  0  0  0
  130.8680  125.9210   58.2610 C   0  0  0  0  0  0  0  0  0  0  0  0
  130.0270  125.4110   57.1810 N   0  0  0  0  0  0  0  0  0  0  0  0
  128.6970  124.9890   57.3590 C   0  0  0  0  0  0  0  0  0  0  0  0
  127.8000  125.9060   57.9040 C   0  0  0  0  0  0  0  0  0  0  0  0
  126.4700  125.5520   58.1130 C   0  0  0  0  0  0  0  0  0  0  0  0
  126.0210  124.2720   57.7740 C   0  0  0  0  0  0  0  0  0  0  0  0
  124.5590  123.8970   58.0160 C   0  0  0  0  0  0  0  0  0  0  0  0
  124.2730  122.6690   57.5770 F   0  0  0  0  0  0  0  0  0  0  0  0
  124.2760  123.9440   59.3180 F   0  0  0  0  0  0  0  0  0  0  0  0
  123.7740  124.7640   57.3760 F   0  0  0  0  0  0  0  0  0  0  0  0
  126.9180  123.3530   57.2200 C   0  0  0  0  0  0  0  0  0  0  0  0
  128.2470  123.7080   57.0110 C   0  0  0  0  0  0  0  0  0  0  0  0
  131.5960  123.9410   59.7300 N   0  0  0  0  0  0  0  0  0  0  0  0
  130.3720  123.6910   60.3690 C   0  0  0  0  0  0  0  0  0  0  0  0
  129.7760  124.6960   61.1300 C   0  0  0  0  0  0  0  0  0  0  0  0
  128.5630  124.4460   61.7670 C   0  0  0  0  0  0  0  0  0  0  0  0
  127.9440  123.1910   61.6440 C   0  0  0  0  0  0  0  0  0  0  0  0
  126.7440  122.8550   62.2390 O   0  0  0  0  0  0  0  0  0  0  0  0
  125.5340  123.3930   61.7150 C   0  0  0  0  0  0  0  0  0  0  0  0
  128.5580  122.1960   60.8800 C   0  0  0  0  0  0  0  0  0  0  0  0
  129.7690  122.4400   60.2390 C   0  0  0  0  0  0  0  0  0  0  0  0
  130.9450  124.2070   64.5740 C   0  0  0  0  0  0  0  0  0  0  0  0
  130.3790  124.8130   65.6930 C   0  0  0  0  0  0  0  0  0  0  0  0
  1  2  1  0
  2  3  1  0
  3  4  1  0
  4  5  2  0
  5  6  1  0
  6  7  2  0
  7  8  1  0
  8  9  2  0
  8 10  1  0
 10 11  1  0
 11 12  1  0
 12 13  2  0
 13 14  1  0
 14 15  2  0
 15 16  1  0
 16 17  1  0
 17 18  1  0
 18 19  2  0
 19 20  1  0
 20 21  2  0
 21 22  1  0
 22 23  1  0
 22 24  1  0
 22 25  1  0
 21 26  1  0
 26 27  2  0
 15 28  1  0
 28 29  1  0
 29 30  2  0
 30 31  1  0
 31 32  2  0
 32 33  1  0
 33 34  1  0
 32 35  1  0
 35 36  2  0
  7 37  1  0
 37 38  2  0
 38  4  1  0
 28 12  1  0
 36 29  1  0
 27 18  1  0
M  END
>  <Binding energies>  (72) 
[-8.46]

>  <Ligand effiencies>  (72) 
[-0.21692307692307694]

>  <Interactions>  (72) 
["V-B:GLU:543:CG:9879, V-B:GLU:543:CD:9880, V-A:TYR:484:CZ:4347, V-A:TYR:484:CE2:4346, V-B:GLU:543:CB:9878, V-B:HIS:456:CE1:9041, V-A:GLU:543:CB:4906, V-A:HIS:456:CE1:4070, V-A:ARG:545:CZ:4926, V-A:LEU:475:CD2:4259, V-B:TYR:531:CZ:9766, V-B:ASP:366:CB:8183, V-B:ASP:366:CG:8184, V-B:LEU:363:CD1:8160, V-B:PRO:540:N:9856, V-B:PRO:540:CA:9855, V-B:PRO:540:CB:9857, H-A:TYR:531:OH:4795, V-B:PRO:540:CD:9859, H-B:TYR:539:OH:9850, V-B:TYR:539:CE1:9847, V-B:LEU:363:CA:8156, H-A:GLY:454:N:4050, V-B:TYR:539:CE2:9848, V-A:ILE:369:CG2:3237, V-B:PRO:540:C:9853, V-B:TYR:531:CE2:9765, V-B:TYR:539:CD2:9846, V-B:TYR:539:CZ:9849, V-B:MET:535:CE:9807, H-B:ALA:541:N:9863, V-B:PRO:540:CG:9858, V-B:LEU:363:CB:8158, V-A:ARG:545:CG:4922, V-A:ARG:545:CD:4923, V-B:LEU:363:CG:8159, V-B:TYR:531:CD2:9763"]

$$$$
RR19_Rahimova_2017
     RDKit          3D

 46 51  0  0  0  0  0  0  0  0999 V2000
  133.4960  124.3670   64.1300 O   0  0  0  0  0  0  0  0  0  0  0  0
  132.3230  124.4310   63.7540 C   0  0  0  0  0  0  0  0  0  0  0  0
  131.9030  124.7330   62.4980 N   0  0  0  0  0  0  0  0  0  0  0  0
  132.5540  124.8330   61.2930 C   0  0  0  0  0  0  0  0  0  0  0  0
  134.1440  124.3390   60.9880 S   0  0  0  0  0  0  0  0  0  0  0  0
  131.7000  125.3970   60.3780 N   0  0  0  0  0  0  0  0  0  0  0  0
  131.7780  125.5890   59.0370 C   0  0  0  0  0  0  0  0  0  0  0  0
  132.6210  125.1060   58.2770 O   0  0  0  0  0  0  0  0  0  0  0  0
  130.6870  126.5330   58.4730 C   0  0  2  0  0  0  0  0  0  0  0  0
  130.5640  127.9000   59.2050 C   0  0  0  0  0  0  0  0  0  0  0  0
  130.8970  129.1200   58.3610 C   0  0  0  0  0  0  0  0  0  0  0  0
  129.8810  129.8440   57.7020 C   0  0  0  0  0  0  0  0  0  0  0  0
  130.1940  131.0000   57.0000 C   0  0  0  0  0  0  0  0  0  0  0  0
  131.5050  131.4600   56.9580 C   0  0  0  0  0  0  0  0  0  0  0  0
  132.5110  130.7740   57.6260 C   0  0  0  0  0  0  0  0  0  0  0  0
  132.2180  129.6170   58.3360 C   0  0  0  0  0  0  0  0  0  0  0  0
  129.3710  125.8430   58.3790 N   0  0  0  0  0  0  0  0  0  0  0  0
  128.5340  125.7630   59.4530 C   0  0  0  0  0  0  0  0  0  0  0  0
  128.7360  126.1920   60.5900 O   0  0  0  0  0  0  0  0  0  0  0  0
  127.3260  125.0550   58.9620 C   0  0  0  0  0  0  0  0  0  0  0  0
  126.1500  124.6900   59.6180 C   0  0  0  0  0  0  0  0  0  0  0  0
  125.1570  124.0240   58.8920 C   0  0  0  0  0  0  0  0  0  0  0  0
  125.3480  123.7360   57.5340 C   0  0  0  0  0  0  0  0  0  0  0  0
  126.5340  124.1120   56.8930 C   0  0  0  0  0  0  0  0  0  0  0  0
  127.5130  124.7740   57.6360 C   0  0  0  0  0  0  0  0  0  0  0  0
  128.8450  125.2960   57.2420 C   0  0  0  0  0  0  0  0  0  0  0  0
  129.3590  125.2520   56.1240 O   0  0  0  0  0  0  0  0  0  0  0  0
  131.1780  124.1650   64.7670 C   0  0  2  0  0  0  0  0  0  0  0  0
  130.3440  122.8890   64.4560 C   0  0  0  0  0  0  0  0  0  0  0  0
  129.8430  122.8140   63.0250 C   0  0  0  0  0  0  0  0  0  0  0  0
  130.6240  122.1820   62.0330 C   0  0  0  0  0  0  0  0  0  0  0  0
  130.1200  122.0250   60.7480 C   0  0  0  0  0  0  0  0  0  0  0  0
  128.8390  122.4620   60.4400 C   0  0  0  0  0  0  0  0  0  0  0  0
  128.0430  123.0500   61.4160 C   0  0  0  0  0  0  0  0  0  0  0  0
  128.5290  123.2170   62.7060 C   0  0  0  0  0  0  0  0  0  0  0  0
  130.3000  125.3490   64.9920 N   0  0  0  0  0  0  0  0  0  0  0  0
  129.9920  125.7850   66.2460 C   0  0  0  0  0  0  0  0  0  0  0  0
  130.3500  125.2920   67.3160 O   0  0  0  0  0  0  0  0  0  0  0  0
  129.1340  126.9790   66.0460 C   0  0  0  0  0  0  0  0  0  0  0  0
  128.5200  127.8280   66.9690 C   0  0  0  0  0  0  0  0  0  0  0  0
  127.7560  128.8990   66.4900 C   0  0  0  0  0  0  0  0  0  0  0  0
  127.6190  129.1060   65.1110 C   0  0  0  0  0  0  0  0  0  0  0  0
  128.2440  128.2450   64.2020 C   0  0  0  0  0  0  0  0  0  0  0  0
  129.0000  127.1820   64.7000 C   0  0  0  0  0  0  0  0  0  0  0  0
  129.7680  126.1240   64.0010 C   0  0  0  0  0  0  0  0  0  0  0  0
  129.8980  125.9760   62.7850 O   0  0  0  0  0  0  0  0  0  0  0  0
  1  2  2  0
  2  3  1  0
  3  4  1  0
  4  5  2  0
  4  6  1  0
  6  7  1  0
  7  8  2  0
  7  9  1  0
  9 10  1  1
 10 11  1  0
 11 12  2  0
 12 13  1  0
 13 14  2  0
 14 15  1  0
 15 16  2  0
  9 17  1  0
 17 18  1  0
 18 19  2  0
 18 20  1  0
 20 21  2  0
 21 22  1  0
 22 23  2  0
 23 24  1  0
 24 25  2  0
 25 26  1  0
 26 27  2  0
  2 28  1  0
 28 29  1  6
 29 30  1  0
 30 31  2  0
 31 32  1  0
 32 33  2  0
 33 34  1  0
 34 35  2  0
 28 36  1  0
 36 37  1  0
 37 38  2  0
 37 39  1  0
 39 40  2  0
 40 41  1  0
 41 42  2  0
 42 43  1  0
 43 44  2  0
 44 45  1  0
 45 46  2  0
 16 11  1  0
 26 17  1  0
 35 30  1  0
 45 36  1  0
 25 20  1  0
 44 39  1  0
M  END
>  <Binding energies>  (73) 
[-10.9]

>  <Ligand effiencies>  (73) 
[-0.22708333333333333]

>  <Interactions>  (73) 
["V-B:GLU:543:CG:9879, V-A:GLU:543:CG:4907, V-B:GLU:543:CD:9880, V-A:GLU:543:CD:4908, V-A:TYR:484:CE2:4346, V-B:GLU:543:CB:9878, V-B:HIS:456:CE1:9041, V-A:GLU:543:CB:4906, V-B:ALA:541:CB:9864, V-A:LEU:475:CD2:4259, V-A:MET:535:CE:4835, V-A:LEU:363:CD1:3189, V-A:ASP:366:CG:3213, V-B:LEU:363:CD1:8160, V-A:TYR:531:CE2:4793, V-B:PRO:540:CA:9855, V-B:PRO:540:CB:9857, H-B:TYR:539:OH:9850, V-A:ASP:366:CB:3212, H-A:GLY:454:N:4050, H-A:ARG:545:NH2:4928, H-A:TYR:484:OH:4348, V-A:ASP:366:CA:3210, V-B:TYR:539:CE2:9848, V-A:ILE:369:CD1:3239, V-B:TYR:539:CD2:9846, V-B:TYR:539:CZ:9849"]

$$$$
RR1_Rahimova_2017
     RDKit          3D

 41 44  0  0  0  0  0  0  0  0999 V2000
  129.0530  127.7650   68.0640 C   0  0  0  0  0  0  0  0  0  0  0  0
  128.6310  126.7400   67.1720 O   0  0  0  0  0  0  0  0  0  0  0  0
  129.5250  126.2440   66.2430 C   0  0  0  0  0  0  0  0  0  0  0  0
  130.5980  125.3930   66.5530 C   0  0  0  0  0  0  0  0  0  0  0  0
  131.4530  124.9490   65.5490 C   0  0  0  0  0  0  0  0  0  0  0  0
  131.2510  125.3390   64.2240 C   0  0  0  0  0  0  0  0  0  0  0  0
  132.1960  124.8750   63.2900 N   0  0  0  0  0  0  0  0  0  0  0  0
  133.5310  124.7240   63.4260 C   0  0  0  0  0  0  0  0  0  0  0  0
  134.1750  125.0490   64.4230 O   0  0  0  0  0  0  0  0  0  0  0  0
  134.2310  124.0990   62.2090 C   0  0  0  0  0  0  0  0  0  0  0  0
  133.5850  122.4730   61.6820 S   0  0  0  0  0  0  0  0  0  0  0  0
  132.0930  123.0380   60.9350 C   0  0  0  0  0  0  0  0  0  0  0  0
  130.9070  122.9160   61.4760 N   0  0  0  0  0  0  0  0  0  0  0  0
  130.0940  123.4800   60.5890 C   0  0  0  0  0  0  0  0  0  0  0  0
  128.6110  123.5800   60.8080 C   0  0  0  0  0  0  0  0  0  0  0  0
  127.7970  124.3650   59.9770 C   0  0  0  0  0  0  0  0  0  0  0  0
  126.4220  124.4410   60.2070 C   0  0  0  0  0  0  0  0  0  0  0  0
  125.8860  123.7220   61.2740 C   0  0  0  0  0  0  0  0  0  0  0  0
  126.6430  122.9530   62.0970 N   0  0  0  0  0  0  0  0  0  0  0  0
  127.9780  122.8920   61.8560 C   0  0  0  0  0  0  0  0  0  0  0  0
  130.6790  123.9510   59.5040 N   0  0  0  0  0  0  0  0  0  0  0  0
  131.9660  123.6660   59.7230 N   0  0  0  0  0  0  0  0  0  0  0  0
  132.9890  124.0490   58.7500 C   0  0  0  0  0  0  0  0  0  0  0  0
  132.8780  125.4910   58.2240 C   0  0  0  0  0  0  0  0  0  0  0  0
  133.4630  125.8350   57.1900 O   0  0  0  0  0  0  0  0  0  0  0  0
  132.1150  126.3110   58.9720 N   0  0  0  0  0  0  0  0  0  0  0  0
  131.8490  127.5830   58.4830 N   0  0  0  0  0  0  0  0  0  0  0  0
  130.7420  128.2130   58.9330 C   0  0  0  0  0  0  0  0  0  0  0  0
  130.0100  127.7720   59.8260 O   0  0  0  0  0  0  0  0  0  0  0  0
  130.4400  129.5500   58.2880 C   0  0  0  0  0  0  0  0  0  0  0  0
  131.4840  130.3320   57.7800 C   0  0  0  0  0  0  0  0  0  0  0  0
  131.2310  131.5680   57.1950 C   0  0  0  0  0  0  0  0  0  0  0  0
  129.9210  132.0660   57.1060 C   0  0  0  0  0  0  0  0  0  0  0  0
  129.6020  133.2920   56.5490 O   0  0  0  0  0  0  0  0  0  0  0  0
  128.7630  133.3440   55.4010 C   0  0  0  0  0  0  0  0  0  0  0  0
  128.8620  131.3010   57.6160 C   0  0  0  0  0  0  0  0  0  0  0  0
  127.5930  131.8460   57.5220 O   0  0  0  0  0  0  0  0  0  0  0  0
  126.4900  131.0080   57.1930 C   0  0  0  0  0  0  0  0  0  0  0  0
  129.1310  130.0500   58.1990 C   0  0  0  0  0  0  0  0  0  0  0  0
  130.1790  126.1890   63.9110 C   0  0  0  0  0  0  0  0  0  0  0  0
  129.3250  126.6300   64.9180 C   0  0  0  0  0  0  0  0  0  0  0  0
  1  2  1  0
  2  3  1  0
  3  4  2  0
  4  5  1  0
  5  6  2  0
  6  7  1  0
  7  8  1  0
  8  9  2  0
  8 10  1  0
 10 11  1  0
 11 12  1  0
 12 13  2  0
 13 14  1  0
 14 15  1  0
 15 16  2  0
 16 17  1  0
 17 18  2  0
 18 19  1  0
 19 20  2  0
 14 21  2  0
 21 22  1  0
 22 23  1  0
 23 24  1  0
 24 25  2  0
 24 26  1  0
 26 27  1  0
 27 28  1  0
 28 29  2  0
 28 30  1  0
 30 31  2  0
 31 32  1  0
 32 33  2  0
 33 34  1  0
 34 35  1  0
 33 36  1  0
 36 37  1  0
 37 38  1  0
 36 39  2  0
  6 40  1  0
 40 41  2  0
 41  3  1  0
 22 12  1  0
 39 30  1  0
 20 15  1  0
M  END
>  <Binding energies>  (74) 
[-8.49]

>  <Ligand effiencies>  (74) 
[-0.19295454545454546]

>  <Interactions>  (74) 
["V-B:GLU:543:CG:9879, V-B:GLU:543:CD:9880, V-A:TYR:484:CZ:4347, V-A:GLU:543:CD:4908, V-B:GLU:543:CB:9878, V-B:HIS:456:CE1:9041, V-A:GLU:543:CB:4906, V-A:HIS:456:CE1:4070, V-B:ALA:541:CB:9864, V-A:ARG:545:CZ:4926, V-A:ILE:538:CB:4862, V-A:ILE:538:CA:4860, V-A:ILE:538:C:4858, V-A:TYR:539:CG:4872, H-A:TYR:539:N:4870, V-A:MET:535:CE:4835, V-A:TYR:539:CE1:4875, V-A:TYR:539:CE2:4876, V-A:TYR:539:CD2:4874, V-A:TYR:539:CZ:4877, V-A:ASP:366:CG:3213, H-A:ASP:366:OD2:3215, V-B:PRO:540:CA:9855, V-B:PRO:540:CB:9857, H-A:TYR:531:OH:4795, H-B:TYR:539:OH:9850, V-A:ASP:366:CB:3212, H-A:GLY:454:N:4050, H-A:ARG:545:NH2:4928, H-A:ARG:545:NH1:4927, H-A:ARG:545:NE:4924, H-A:TYR:484:OH:4348, V-A:ASP:366:CA:3210, V-B:TYR:539:CE2:9848, V-A:ILE:369:CG2:3237, V-A:ILE:369:CD1:3239, V-B:TYR:539:CD2:9846, V-B:TYR:539:CZ:9849, H-B:ALA:541:N:9863, V-A:ASP:366:C:3208"]

$$$$
RR22_Rahimova_2017
     RDKit          3D

 31 36  0  0  0  0  0  0  0  0999 V2000
  123.4330  130.8080   55.3630 O   0  0  0  0  0  0  0  0  0  0  0  0
  124.2690  130.8630   56.2620 C   0  0  0  0  0  0  0  0  0  0  0  0
  124.0530  130.7500   57.6240 N   0  0  0  0  0  0  0  0  0  0  0  0
  125.1520  130.7760   58.5400 C   0  0  1  0  0  0  0  0  0  0  0  0
  124.8510  131.8320   59.4570 O   0  0  0  0  0  0  0  0  0  0  0  0
  124.7330  131.5210   60.8120 C   0  0  0  0  0  0  0  0  0  0  0  0
  124.0900  132.4640   61.6130 C   0  0  0  0  0  0  0  0  0  0  0  0
  123.9700  132.2410   62.9850 C   0  0  0  0  0  0  0  0  0  0  0  0
  124.5000  131.0820   63.5540 C   0  0  0  0  0  0  0  0  0  0  0  0
  125.1440  130.1390   62.7520 C   0  0  0  0  0  0  0  0  0  0  0  0
  125.2500  130.3370   61.3720 C   0  0  0  0  0  0  0  0  0  0  0  0
  125.9650  129.3990   60.4250 C   0  0  1  0  0  0  0  0  0  0  0  0
  126.0170  127.9010   60.6470 C   0  0  0  0  0  0  0  0  0  0  0  0
  126.0950  127.4240   59.1940 C   0  0  0  0  0  0  0  0  0  0  0  0
  126.5500  126.0700   58.8220 C   0  0  0  0  0  0  0  0  0  0  0  0
  126.4670  125.0120   59.7400 C   0  0  0  0  0  0  0  0  0  0  0  0
  126.8960  123.7360   59.3830 C   0  0  0  0  0  0  0  0  0  0  0  0
  127.4110  123.5110   58.1100 C   0  0  0  0  0  0  0  0  0  0  0  0
  127.5010  124.5500   57.1870 C   0  0  0  0  0  0  0  0  0  0  0  0
  127.0700  125.8260   57.5410 C   0  0  0  0  0  0  0  0  0  0  0  0
  125.6960  128.3340   58.3870 N   0  0  0  0  0  0  0  0  0  0  0  0
  125.3120  129.4480   59.1520 N   0  0  0  0  0  0  0  0  0  0  0  0
  126.3730  131.2110   57.7440 C   0  0  0  0  0  0  0  0  0  0  0  0
  127.5050  131.6740   58.3240 C   0  0  0  0  0  0  0  0  0  0  0  0
  128.7590  132.1070   57.6770 C   0  0  0  0  0  0  0  0  0  0  0  0
  130.0300  131.7450   58.1470 C   0  0  0  0  0  0  0  0  0  0  0  0
  131.1730  132.1930   57.4840 C   0  0  0  0  0  0  0  0  0  0  0  0
  131.0150  133.0040   56.3600 C   0  0  0  0  0  0  0  0  0  0  0  0
  129.7990  133.3770   55.8880 N   0  0  0  0  0  0  0  0  0  0  0  0
  128.6990  132.9300   56.5460 C   0  0  0  0  0  0  0  0  0  0  0  0
  126.0520  131.1170   56.0060 S   0  0  0  0  0  0  0  0  0  0  0  0
  1  2  2  0
  2  3  1  0
  4  3  1  6
  4  5  1  0
  5  6  1  0
  6  7  2  0
  7  8  1  0
  8  9  2  0
  9 10  1  0
 10 11  2  0
 11 12  1  0
 12 13  1  1
 13 14  1  0
 14 15  1  0
 15 16  2  0
 16 17  1  0
 17 18  2  0
 18 19  1  0
 19 20  2  0
 14 21  2  0
 21 22  1  0
  4 23  1  0
 23 24  2  0
 24 25  1  0
 25 26  2  0
 26 27  1  0
 27 28  2  0
 28 29  1  0
 29 30  2  0
 23 31  1  0
 31  2  1  0
 22  4  1  0
 30 25  1  0
 11  6  1  0
 22 12  1  0
 20 15  1  0
M  END
>  <Binding energies>  (75) 
[-9.46]

>  <Ligand effiencies>  (75) 
[-0.295625]

>  <Interactions>  (75) 
["V-B:TYR:531:CZ:9766, V-A:ILE:538:CB:4862, V-A:ILE:538:CA:4860, V-B:ILE:369:CG2:8208, V-A:TYR:539:CG:4872, V-B:GLY:454:CA:9020, H-A:TYR:539:N:4870, V-B:ASP:366:CB:8183, V-B:TYR:531:CE1:9764, V-A:MET:535:CE:4835, V-B:ASP:366:CA:8181, H-A:TYR:539:OH:4878, V-A:TYR:539:CE1:4875, V-B:ASP:366:CG:8184, V-A:TYR:539:CD1:4873, V-A:TYR:539:CD2:4874, V-A:TYR:539:CZ:4877, H-B:TYR:531:OH:9767, V-A:ILE:538:CG2:4863, V-A:PRO:540:CB:4885, V-A:PRO:540:CD:4887, V-B:PRO:540:CA:9855, V-B:PRO:540:CB:9857, V-B:ASP:366:C:8179, H-B:ASN:370:N:8215, H-B:ASP:366:O:8180"]

$$$$
RR24_Rahimova_2017
     RDKit          3D

 43 49  0  0  0  0  0  0  0  0999 V2000
  131.9980  133.3420   56.5190 C   0  0  0  0  0  0  0  0  0  0  0  0
  131.5850  132.0240   57.1910 C   0  0  2  0  0  0  0  0  0  0  0  0
  130.8910  131.0290   56.2150 C   0  0  0  0  0  0  0  0  0  0  0  0
  131.3620  130.7630   55.1050 O   0  0  0  0  0  0  0  0  0  0  0  0
  129.7240  130.5300   56.7190 O   0  0  0  0  0  0  0  0  0  0  0  0
  129.6530  129.2050   57.0850 C   0  0  0  0  0  0  0  0  0  0  0  0
  129.1260  128.2740   56.1880 C   0  0  0  0  0  0  0  0  0  0  0  0
  129.0580  126.9300   56.5430 C   0  0  0  0  0  0  0  0  0  0  0  0
  129.5240  126.5090   57.7910 C   0  0  0  0  0  0  0  0  0  0  0  0
  129.4290  125.0300   58.1840 C   0  0  1  0  0  0  0  0  0  0  0  0
  130.5810  124.6070   59.1260 C   0  0  0  0  0  0  0  0  0  0  0  0
  130.3710  123.9630   60.2890 C   0  0  0  0  0  0  0  0  0  0  0  0
  129.1120  123.6340   60.7270 N   0  0  0  0  0  0  0  0  0  0  0  0
  127.9940  123.9510   59.9930 C   0  0  0  0  0  0  0  0  0  0  0  0
  126.8280  123.5490   60.5600 N   0  0  0  0  0  0  0  0  0  0  0  0
  125.6150  123.8430   60.0170 C   0  0  0  0  0  0  0  0  0  0  0  0
  124.6030  123.7420   60.7140 O   0  0  0  0  0  0  0  0  0  0  0  0
  125.6830  124.3980   58.7490 N   0  0  0  0  0  0  0  0  0  0  0  0
  124.3920  124.6530   58.0770 C   0  0  0  0  0  0  0  0  0  0  0  0
  126.8100  124.8450   58.0810 C   0  0  0  0  0  0  0  0  0  0  0  0
  126.7900  125.3790   56.9680 O   0  0  0  0  0  0  0  0  0  0  0  0
  128.0640  124.6070   58.8040 C   0  0  0  0  0  0  0  0  0  0  0  0
  131.6300  123.6930   60.9640 C   0  0  0  0  0  0  0  0  0  0  0  0
  131.9460  123.0690   62.1720 C   0  0  0  0  0  0  0  0  0  0  0  0
  133.2860  122.9630   62.5530 C   0  0  0  0  0  0  0  0  0  0  0  0
  134.2950  123.4740   61.7310 C   0  0  0  0  0  0  0  0  0  0  0  0
  133.9710  124.0970   60.5230 C   0  0  0  0  0  0  0  0  0  0  0  0
  132.6310  124.2020   60.1480 C   0  0  0  0  0  0  0  0  0  0  0  0
  132.0150  124.7990   58.9440 C   0  0  0  0  0  0  0  0  0  0  0  0
  132.5460  125.3460   57.9780 O   0  0  0  0  0  0  0  0  0  0  0  0
  130.0690  127.4410   58.6810 C   0  0  0  0  0  0  0  0  0  0  0  0
  130.1390  128.7850   58.3260 C   0  0  0  0  0  0  0  0  0  0  0  0
  130.7860  132.2540   58.4310 N   0  0  0  0  0  0  0  0  0  0  0  0
  129.6270  132.9690   58.4110 C   0  0  0  0  0  0  0  0  0  0  0  0
  129.0970  133.5080   57.4370 O   0  0  0  0  0  0  0  0  0  0  0  0
  129.1340  132.9630   59.8110 C   0  0  0  0  0  0  0  0  0  0  0  0
  127.9970  133.5370   60.3820 C   0  0  0  0  0  0  0  0  0  0  0  0
  127.7780  133.3660   61.7530 C   0  0  0  0  0  0  0  0  0  0  0  0
  128.6850  132.6310   62.5270 C   0  0  0  0  0  0  0  0  0  0  0  0
  129.8190  132.0620   61.9360 C   0  0  0  0  0  0  0  0  0  0  0  0
  130.0210  132.2460   60.5670 C   0  0  0  0  0  0  0  0  0  0  0  0
  131.1050  131.7720   59.6720 C   0  0  0  0  0  0  0  0  0  0  0  0
  132.0820  131.0880   59.9800 O   0  0  0  0  0  0  0  0  0  0  0  0
  2  1  1  6
  2  3  1  0
  3  4  2  0
  3  5  1  0
  5  6  1  0
  6  7  2  0
  7  8  1  0
  8  9  2  0
 10  9  1  1
 10 11  1  0
 11 12  2  0
 12 13  1  0
 13 14  1  0
 14 15  1  0
 15 16  1  0
 16 17  2  0
 16 18  1  0
 18 19  1  0
 18 20  1  0
 20 21  2  0
 20 22  1  0
 12 23  1  0
 23 24  2  0
 24 25  1  0
 25 26  2  0
 26 27  1  0
 27 28  2  0
 28 29  1  0
 29 30  2  0
  9 31  1  0
 31 32  2  0
  2 33  1  0
 33 34  1  0
 34 35  2  0
 34 36  1  0
 36 37  2  0
 37 38  1  0
 38 39  2  0
 39 40  1  0
 40 41  2  0
 41 42  1  0
 42 43  2  0
 32  6  1  0
 42 33  1  0
 22 10  1  0
 28 23  1  0
 41 36  1  0
 29 11  1  0
 22 14  2  0
M  END
>  <Binding energies>  (76) 
[-10.01]

>  <Ligand effiencies>  (76) 
[-0.22244444444444444]

>  <Interactions>  (76) 
["V-A:ALA:541:CB:4892, V-A:LEU:475:CD2:4259, V-A:ILE:538:CB:4862, V-A:ILE:538:CA:4860, H-A:TYR:539:N:4870, V-B:ASP:366:CB:8183, V-A:MET:535:CE:4835, V-A:LEU:363:CD1:3189, V-A:TYR:539:CE1:4875, V-B:ASP:366:CG:8184, V-A:TYR:539:CD1:4873, H-B:TYR:531:OH:9767, V-A:ILE:538:CG2:4863, V-A:TYR:539:C:4867, V-A:PRO:540:N:4884, V-A:PRO:540:CA:4883, V-A:PRO:540:CB:4885, V-A:ASP:366:CG:3213, V-A:PRO:540:CD:4887, V-B:LEU:363:CD1:8160, V-A:TYR:531:CZ:4794, V-B:PRO:540:CA:9855, V-B:PRO:540:CB:9857, H-A:TYR:531:OH:4795, H-B:TYR:539:OH:9850, V-A:PRO:540:CG:4886, V-B:LEU:363:CA:8156, V-A:ASP:366:CA:3210, V-B:TYR:539:CE2:9848, V-A:ILE:369:CG2:3237, V-A:ILE:369:CD1:3239, H-B:GLU:543:OE1:9881, V-B:TYR:531:CE2:9765, V-B:TYR:539:CZ:9849, V-A:GLY:454:CA:4049"]

$$$$
RR25_Rahimova_2017
     RDKit          3D

 39 44  0  0  0  0  0  0  0  0999 V2000
  130.2970  128.5940   59.5930 O   0  0  0  0  0  0  0  0  0  0  0  0
  129.6140  127.5930   59.3720 C   0  0  0  0  0  0  0  0  0  0  0  0
  129.2730  127.3690   58.0610 O   0  0  0  0  0  0  0  0  0  0  0  0
  128.7300  126.1640   57.6520 C   0  0  0  0  0  0  0  0  0  0  0  0
  128.9260  125.8090   56.3180 C   0  0  0  0  0  0  0  0  0  0  0  0
  128.3990  124.6120   55.8370 C   0  0  0  0  0  0  0  0  0  0  0  0
  127.6670  123.7590   56.6760 C   0  0  0  0  0  0  0  0  0  0  0  0
  127.1140  122.4820   56.1630 N   0  0  0  0  0  0  0  0  0  0  0  0
  126.3550  121.8380   56.8830 O   0  0  0  0  0  0  0  0  0  0  0  0
  127.4350  122.1130   55.0370 O   0  0  0  0  0  0  0  0  0  0  0  0
  127.4710  124.1420   58.0130 C   0  0  0  0  0  0  0  0  0  0  0  0
  127.9860  125.3420   58.5100 C   0  0  0  0  0  0  0  0  0  0  0  0
  127.8110  125.7950   59.9480 C   0  0  0  0  0  0  0  0  0  0  0  0
  129.0780  126.5670   60.4120 C   0  0  2  0  0  0  0  0  0  0  0  0
  128.8950  127.1320   61.8510 C   0  0  0  0  0  0  0  0  0  0  0  0
  129.4600  126.5090   62.7540 O   0  0  0  0  0  0  0  0  0  0  0  0
  128.2560  128.3160   62.0920 N   0  0  0  0  0  0  0  0  0  0  0  0
  127.3160  128.9290   61.1290 C   0  0  0  0  0  0  0  0  0  0  0  0
  127.4820  130.4620   61.1720 C   0  0  0  0  0  0  0  0  0  0  0  0
  127.3200  130.9800   62.5340 N   0  0  0  0  0  0  0  0  0  0  0  0
  127.3450  132.4490   62.5570 C   0  0  0  0  0  0  0  0  0  0  0  0
  128.7700  133.0300   62.3560 C   0  0  0  0  0  0  0  0  0  0  0  0
  129.4080  132.7610   61.0340 N   0  0  0  0  0  0  0  0  0  0  0  0
  130.6520  132.1700   61.0900 C   0  0  0  0  0  0  0  0  0  0  0  0
  131.2300  131.9080   62.1520 O   0  0  0  0  0  0  0  0  0  0  0  0
  131.2580  131.8430   59.7390 C   0  0  0  0  0  0  0  0  0  0  0  0
  132.5090  131.2170   59.6790 C   0  0  0  0  0  0  0  0  0  0  0  0
  133.0910  130.8950   58.4540 C   0  0  0  0  0  0  0  0  0  0  0  0
  132.4430  131.1830   57.2550 C   0  0  0  0  0  0  0  0  0  0  0  0
  131.1770  131.8160   57.2660 C   0  0  0  0  0  0  0  0  0  0  0  0
  130.4630  132.1360   56.0860 C   0  0  0  0  0  0  0  0  0  0  0  0
  129.2180  132.7570   56.1690 C   0  0  0  0  0  0  0  0  0  0  0  0
  128.6560  133.0730   57.4040 C   0  0  0  0  0  0  0  0  0  0  0  0
  129.3260  132.7740   58.5980 C   0  0  0  0  0  0  0  0  0  0  0  0
  130.5930  132.1420   58.5220 C   0  0  0  0  0  0  0  0  0  0  0  0
  128.6770  133.1260   59.9230 C   0  0  0  0  0  0  0  0  0  0  0  0
  127.5740  133.6800   59.9860 O   0  0  0  0  0  0  0  0  0  0  0  0
  128.3450  130.4080   63.4090 C   0  0  0  0  0  0  0  0  0  0  0  0
  128.2490  128.8640   63.4670 C   0  0  0  0  0  0  0  0  0  0  0  0
  1  2  2  0
  2  3  1  0
  3  4  1  0
  4  5  2  0
  5  6  1  0
  6  7  2  0
  7  8  1  0
  8  9  2  0
  8 10  1  0
  7 11  1  0
 11 12  2  0
 12 13  1  0
 13 14  1  0
 14 15  1  1
 15 16  2  0
 15 17  1  0
 17 18  1  0
 18 19  1  0
 19 20  1  0
 20 21  1  0
 21 22  1  0
 22 23  1  0
 23 24  1  0
 24 25  2  0
 24 26  1  0
 26 27  2  0
 27 28  1  0
 28 29  2  0
 29 30  1  0
 30 31  2  0
 31 32  1  0
 32 33  2  0
 33 34  1  0
 34 35  2  0
 34 36  1  0
 36 37  2  0
 20 38  1  0
 38 39  1  0
 14  2  1  0
 39 17  1  0
 12  4  1  0
 36 23  1  0
 35 26  1  0
 35 30  1  0
M  CHG  2   8   1  10  -1
M  END
>  <Binding energies>  (77) 
[-10.26]

>  <Ligand effiencies>  (77) 
[-0.2630769230769231]

>  <Interactions>  (77) 
["V-A:GLU:543:CG:4907, V-A:GLU:543:CD:4908, V-A:ALA:541:CB:4892, V-A:ILE:538:CB:4862, V-A:ILE:538:CA:4860, V-A:TYR:539:CG:4872, V-A:MET:535:CE:4835, V-A:LEU:363:CD1:3189, V-A:TYR:539:CE1:4875, V-A:TYR:539:CD1:4873, V-A:ILE:538:CG2:4863, V-A:PRO:540:C:4881, H-A:ALA:541:N:4891, V-A:TYR:539:C:4867, V-A:PRO:540:N:4884, V-A:PRO:540:CA:4883, V-A:PRO:540:CB:4885, V-A:ASP:366:CG:3213, V-A:LEU:363:CA:3185, V-B:PRO:540:N:9856, V-A:TYR:531:CE2:4793, V-B:TYR:539:CE1:9847, V-B:TYR:539:CD1:9845, V-A:ASP:366:CB:3212, H-B:TYR:539:N:9842, V-B:TYR:539:CG:9844, V-B:TYR:539:CZ:9849"]

$$$$
RR27_Rahimova_2017
     RDKit          3D

 39 44  0  0  0  0  0  0  0  0999 V2000
  130.8400  128.6120   57.9920 O   0  0  0  0  0  0  0  0  0  0  0  0
  129.8600  128.4350   57.2620 C   0  0  0  0  0  0  0  0  0  0  0  0
  128.9890  129.6690   56.8840 C   0  0  0  0  0  0  0  0  0  0  0  0
  129.7780  130.9920   56.8950 C   0  0  0  0  0  0  0  0  0  0  0  0
  129.3680  132.0920   57.6640 C   0  0  0  0  0  0  0  0  0  0  0  0
  130.1050  133.2720   57.6530 C   0  0  0  0  0  0  0  0  0  0  0  0
  131.2550  133.3590   56.8740 C   0  0  0  0  0  0  0  0  0  0  0  0
  131.6730  132.2770   56.1040 C   0  0  0  0  0  0  0  0  0  0  0  0
  130.9350  131.0970   56.1150 C   0  0  0  0  0  0  0  0  0  0  0  0
  127.6650  129.6960   57.6700 C   0  0  0  0  0  0  0  0  0  0  0  0
  127.5240  129.0380   58.8990 C   0  0  0  0  0  0  0  0  0  0  0  0
  126.3080  129.0730   59.5790 C   0  0  0  0  0  0  0  0  0  0  0  0
  125.2300  129.7610   59.0300 C   0  0  0  0  0  0  0  0  0  0  0  0
  125.3530  130.4100   57.8040 C   0  0  0  0  0  0  0  0  0  0  0  0
  126.5670  130.3740   57.1260 C   0  0  0  0  0  0  0  0  0  0  0  0
  129.6190  127.2320   56.6670 N   0  0  0  0  0  0  0  0  0  0  0  0
  128.3500  126.8950   56.0040 C   0  0  0  0  0  0  0  0  0  0  0  0
  127.4110  126.3320   57.0940 C   0  0  0  0  0  0  0  0  0  0  0  0
  128.0380  125.1300   57.8680 C   0  0  0  0  0  0  0  0  0  0  0  0
  127.1890  124.6030   59.0400 C   0  0  0  0  0  0  0  0  0  0  0  0
  125.8380  124.5760   58.8470 N   0  0  0  0  0  0  0  0  0  0  0  0
  125.0430  124.0940   59.8420 C   0  0  0  0  0  0  0  0  0  0  0  0
  123.6780  124.0120   59.7650 O   0  0  0  0  0  0  0  0  0  0  0  0
  125.6480  123.6450   61.0320 C   0  0  0  0  0  0  0  0  0  0  0  0
  125.1640  123.1130   62.1910 N   0  0  0  0  0  0  0  0  0  0  0  0
  126.2470  122.8680   63.0140 N   0  0  0  0  0  0  0  0  0  0  0  0
  127.3760  123.2340   62.3710 N   0  0  0  0  0  0  0  0  0  0  0  0
  128.6760  123.1060   63.0230 C   0  0  0  0  0  0  0  0  0  0  0  0
  129.7180  122.3860   62.1770 C   0  0  0  0  0  0  0  0  0  0  0  0
  130.7790  123.0990   61.6110 C   0  0  0  0  0  0  0  0  0  0  0  0
  131.7400  122.4360   60.8450 C   0  0  0  0  0  0  0  0  0  0  0  0
  131.6470  121.0590   60.6450 C   0  0  0  0  0  0  0  0  0  0  0  0
  130.5950  120.3410   61.2160 C   0  0  0  0  0  0  0  0  0  0  0  0
  130.4930  118.6310   60.9930 Cl  0  0  0  0  0  0  0  0  0  0  0  0
  129.6310  121.0030   61.9760 C   0  0  0  0  0  0  0  0  0  0  0  0
  127.0540  123.7340   61.1200 C   0  0  0  0  0  0  0  0  0  0  0  0
  127.8560  124.2090   60.1630 N   0  0  0  0  0  0  0  0  0  0  0  0
  129.5260  125.3990   58.2540 C   0  0  0  0  0  0  0  0  0  0  0  0
  130.3490  126.0320   57.1040 C   0  0  0  0  0  0  0  0  0  0  0  0
  1  2  2  0
  2  3  1  0
  3  4  1  0
  4  5  2  0
  5  6  1  0
  6  7  2  0
  7  8  1  0
  8  9  2  0
  3 10  1  0
 10 11  2  0
 11 12  1  0
 12 13  2  0
 13 14  1  0
 14 15  2  0
  2 16  1  0
 16 17  1  0
 17 18  1  0
 18 19  1  0
 19 20  1  0
 20 21  2  0
 21 22  1  0
 22 23  1  0
 22 24  2  0
 24 25  1  0
 25 26  2  0
 26 27  1  0
 27 28  1  0
 28 29  1  0
 29 30  2  0
 30 31  1  0
 31 32  2  0
 32 33  1  0
 33 34  1  0
 33 35  2  0
 27 36  1  0
 36 37  2  0
 19 38  1  0
 38 39  1  0
  9  4  1  0
 15 10  1  0
 39 16  1  0
 37 20  1  0
 36 24  1  0
 35 29  1  0
M  END
>  <Binding energies>  (78) 
[-10.09]

>  <Ligand effiencies>  (78) 
[-0.25225]

>  <Interactions>  (78) 
["V-B:GLU:543:CG:9879, V-B:GLU:543:CD:9880, V-B:ALA:541:CB:9864, V-A:LEU:475:CD2:4259, V-A:ILE:538:CB:4862, V-A:ILE:538:CA:4860, V-A:ILE:538:C:4858, V-B:ASP:366:CB:8183, V-A:MET:535:CE:4835, V-A:LEU:363:CD1:3189, V-B:ASP:366:CG:8184, V-A:ILE:538:CG2:4863, V-A:TYR:539:C:4867, V-A:PRO:540:N:4884, V-A:PRO:540:CA:4883, V-A:PRO:540:CB:4885, V-A:PRO:540:CD:4887, V-A:TYR:531:CZ:4794, V-B:PRO:540:CA:9855, V-B:PRO:540:CB:9857, H-A:TYR:531:OH:4795, V-A:TYR:539:CA:4869, H-B:ASP:366:OD1:8185, H-B:ASP:366:OD2:8186, V-B:TYR:539:CE2:9848, V-B:TYR:539:CD2:9846, V-B:TYR:539:CZ:9849, H-B:ALA:541:N:9863, H-B:LEU:363:N:8157, H-B:ASN:362:O:8144"]

$$$$
RR28_Rahimova_2017
     RDKit          3D

 46 49  0  0  0  0  0  0  0  0999 V2000
  130.6080  132.6280   55.1130 C   0  0  0  0  0  0  0  0  0  0  0  0
  130.0700  132.5210   56.5360 C   0  0  0  0  0  0  0  0  0  0  0  0
  130.0620  133.5150   57.2590 O   0  0  0  0  0  0  0  0  0  0  0  0
  129.6250  131.3050   56.9160 N   0  0  0  0  0  0  0  0  0  0  0  0
  129.0620  130.9050   58.2250 C   0  0  0  0  0  0  0  0  0  0  0  0
  130.1520  131.1270   59.3120 C   0  0  0  0  0  0  0  0  0  0  0  0
  131.5060  130.9910   58.9670 C   0  0  0  0  0  0  0  0  0  0  0  0
  132.5080  131.1790   59.9140 C   0  0  0  0  0  0  0  0  0  0  0  0
  132.1790  131.5060   61.2310 C   0  0  0  0  0  0  0  0  0  0  0  0
  133.2930  131.7030   62.2590 C   0  0  0  0  0  0  0  0  0  0  0  0
  133.8730  132.9010   62.1530 F   0  0  0  0  0  0  0  0  0  0  0  0
  132.8080  131.5880   63.4950 F   0  0  0  0  0  0  0  0  0  0  0  0
  134.2280  130.7710   62.0760 F   0  0  0  0  0  0  0  0  0  0  0  0
  130.8350  131.6430   61.5880 C   0  0  0  0  0  0  0  0  0  0  0  0
  129.8330  131.4550   60.6390 C   0  0  0  0  0  0  0  0  0  0  0  0
  128.5220  129.4310   58.1640 C   0  0  0  0  0  0  0  0  0  0  0  0
  127.3090  129.2610   57.2140 C   0  0  0  0  0  0  0  0  0  0  0  0
  126.2620  130.1690   57.7100 N   0  0  0  0  0  0  0  0  0  0  0  0
  125.3110  129.7160   58.5710 C   0  0  0  0  0  0  0  0  0  0  0  0
  125.1840  128.5180   58.8350 O   0  0  0  0  0  0  0  0  0  0  0  0
  124.2530  130.7110   59.1090 C   0  0  0  0  0  0  0  0  0  0  0  0
  124.0120  130.6810   60.6430 C   0  0  0  0  0  0  0  0  0  0  0  0
  125.0560  131.4490   61.4870 C   0  0  0  0  0  0  0  0  0  0  0  0
  125.4430  132.5450   61.0710 O   0  0  0  0  0  0  0  0  0  0  0  0
  125.4140  130.9760   62.7140 N   0  0  0  0  0  0  0  0  0  0  0  0
  125.2480  129.5750   63.1180 C   0  0  0  0  0  0  0  0  0  0  0  0
  126.4990  128.8200   62.6180 C   0  0  0  0  0  0  0  0  0  0  0  0
  127.8630  129.3980   63.1310 C   0  0  0  0  0  0  0  0  0  0  0  0
  128.9600  128.8710   62.2920 N   0  0  0  0  0  0  0  0  0  0  0  0
  128.8660  128.1800   61.1380 C   0  0  0  0  0  0  0  0  0  0  0  0
  130.1820  127.7470   60.5000 C   0  0  0  0  0  0  0  0  0  0  0  0
  127.8010  127.8890   60.5940 O   0  0  0  0  0  0  0  0  0  0  0  0
  128.0820  128.8630   64.5830 C   0  0  0  0  0  0  0  0  0  0  0  0
  128.6670  127.6150   64.8540 C   0  0  0  0  0  0  0  0  0  0  0  0
  128.8450  127.1750   66.1630 C   0  0  0  0  0  0  0  0  0  0  0  0
  128.4400  127.9720   67.2360 C   0  0  0  0  0  0  0  0  0  0  0  0
  128.6320  127.5050   68.6790 C   0  0  0  0  0  0  0  0  0  0  0  0
  129.5720  126.5600   68.7460 F   0  0  0  0  0  0  0  0  0  0  0  0
  129.0140  128.5400   69.4260 F   0  0  0  0  0  0  0  0  0  0  0  0
  127.5090  127.0050   69.2000 F   0  0  0  0  0  0  0  0  0  0  0  0
  127.8490  129.2110   66.9830 C   0  0  0  0  0  0  0  0  0  0  0  0
  127.6730  129.6470   65.6740 C   0  0  0  0  0  0  0  0  0  0  0  0
  127.8170  130.9740   63.0500 C   0  0  0  0  0  0  0  0  0  0  0  0
  126.4800  131.6380   63.4760 C   0  0  0  0  0  0  0  0  0  0  0  0
  126.6240  131.5890   57.6050 C   0  0  0  0  0  0  0  0  0  0  0  0
  127.8350  131.8200   58.5460 C   0  0  0  0  0  0  0  0  0  0  0  0
  1  2  1  0
  2  3  2  0
  2  4  1  0
  4  5  1  0
  5  6  1  0
  6  7  2  0
  7  8  1  0
  8  9  2  0
  9 10  1  0
 10 11  1  0
 10 12  1  0
 10 13  1  0
  9 14  1  0
 14 15  2  0
  5 16  1  0
 16 17  1  0
 17 18  1  0
 18 19  1  0
 19 20  2  0
 19 21  1  0
 21 22  1  0
 22 23  1  0
 23 24  2  0
 23 25  1  0
 25 26  1  0
 26 27  1  0
 27 28  1  0
 28 29  1  0
 29 30  1  0
 30 31  1  0
 30 32  2  0
 28 33  1  0
 33 34  2  0
 34 35  1  0
 35 36  2  0
 36 37  1  0
 37 38  1  0
 37 39  1  0
 37 40  1  0
 36 41  1  0
 41 42  2  0
 28 43  1  0
 43 44  1  0
 18 45  1  0
 45 46  1  0
 46  5  1  0
 15  6  1  0
 44 25  1  0
 42 33  1  0
M  END
>  <Binding energies>  (79) 
[-8.72]

>  <Ligand effiencies>  (79) 
[-0.18166666666666667]

>  <Interactions>  (79) 
["V-B:GLU:543:CG:9879, V-A:GLU:543:CG:4907, V-B:ARG:545:CZ:9898, V-B:TYR:484:CZ:9318, V-B:GLU:543:CD:9880, V-A:GLU:543:CD:4908, V-B:GLU:543:C:9874, V-B:GLU:543:CB:9878, V-B:HIS:456:CE1:9041, V-A:GLU:543:CB:4906, V-A:GLU:543:C:4902, V-A:HIS:456:CE1:4070, V-A:ARG:545:CZ:4926, V-A:ILE:538:CB:4862, V-A:ILE:538:CA:4860, H-A:TYR:539:N:4870, V-B:ASP:366:CB:8183, V-A:MET:535:CE:4835, V-B:ASP:366:CA:8181, V-A:TYR:539:CE1:4875, V-B:ASP:366:CG:8184, V-A:TYR:539:CD1:4873, V-A:TYR:539:CZ:4877, H-B:TYR:531:OH:9767, V-A:ILE:538:CG2:4863, V-A:ALA:541:CA:4890, V-A:PRO:540:C:4881, V-A:PRO:540:CA:4883, V-A:PRO:540:CB:4885, V-A:ASP:366:CG:3213, V-A:ASN:362:C:3172, V-A:ASN:362:CB:3176, H-A:TYR:531:OH:4795, H-A:GLU:543:OE1:4909, V-A:ALA:541:C:4888, V-A:ASN:362:CA:3174, V-A:ASN:362:CG:3177"]

$$$$
RR29_Rahimova_2017
     RDKit          3D

 18 19  0  0  0  0  0  0  0  0999 V2000
  127.8640  133.4750   63.2870 C   0  0  0  0  0  0  0  0  0  0  0  0
  128.5170  132.1430   63.6220 C   0  0  0  0  0  0  0  0  0  0  0  0
  129.9050  131.9700   62.9660 C   0  0  0  0  0  0  0  0  0  0  0  0
  129.8640  130.9600   61.8010 C   0  0  0  0  0  0  0  0  0  0  0  0
  129.9420  131.6410   60.4430 C   0  0  0  0  0  0  0  0  0  0  0  0
  128.8730  132.4440   59.9960 C   0  0  0  0  0  0  0  0  0  0  0  0
  128.9250  133.0820   58.7490 C   0  0  0  0  0  0  0  0  0  0  0  0
  130.0600  132.8820   57.9720 C   0  0  0  0  0  0  0  0  0  0  0  0
  131.0980  132.1030   58.3990 C   0  0  0  0  0  0  0  0  0  0  0  0
  131.0790  131.4670   59.6350 C   0  0  0  0  0  0  0  0  0  0  0  0
  132.0820  132.1120   57.4610 O   0  0  0  0  0  0  0  0  0  0  0  0
  131.5310  132.7500   56.3400 C   0  0  0  0  0  0  0  0  0  0  0  0
  130.3600  133.4040   56.7530 O   0  0  0  0  0  0  0  0  0  0  0  0
  127.8840  131.3200   64.3730 N   0  0  0  0  0  0  0  0  0  0  0  0
  128.4350  130.0800   64.6080 N   0  0  0  0  0  0  0  0  0  0  0  0
  127.8550  129.1290   65.3590 C   0  0  0  0  0  0  0  0  0  0  0  0
  126.6690  129.2500   65.9580 N   0  0  0  0  0  0  0  0  0  0  0  0
  128.5060  127.9860   65.5180 N   0  0  0  0  0  0  0  0  0  0  0  0
  1  2  1  0
  2  3  1  0
  3  4  1  0
  4  5  1  0
  5  6  2  0
  6  7  1  0
  7  8  2  0
  8  9  1  0
  9 10  2  0
  9 11  1  0
 11 12  1  0
 12 13  1  0
  2 14  2  0
 14 15  1  0
 15 16  1  0
 16 17  1  0
 16 18  2  0
 10  5  1  0
 13  8  1  0
M  CHG  1  18   1
M  END
>  <Binding energies>  (80) 
[-7.3]

>  <Ligand effiencies>  (80) 
[-0.3173913043478261]

>  <Interactions>  (80) 
["H-B:TYR:484:OH:9319, V-A:GLU:543:CG:4907, V-B:TYR:484:CZ:9318, V-B:GLU:543:CD:9880, V-A:GLU:543:CD:4908, V-B:HIS:456:CE1:9041, V-A:ALA:541:CB:4892, V-B:LEU:475:CD2:9230, V-A:ILE:538:CB:4862, V-A:ILE:538:CA:4860, H-A:TYR:539:N:4870, V-A:LEU:363:CD1:3189, V-A:TYR:539:CE1:4875, V-A:TYR:539:CD1:4873, V-A:ILE:538:CG2:4863, V-A:TYR:539:C:4867, V-A:PRO:540:N:4884, V-A:PRO:540:CA:4883, V-A:PRO:540:CB:4885, H-A:GLU:543:OE1:4909, H-A:GLU:543:OE2:4910, H-B:GLU:543:OE2:9882, H-B:GLU:543:OE1:9881"]

$$$$
RR30_Rahimova_2017
     RDKit          3D

 18 19  0  0  0  0  0  0  0  0999 V2000
  133.8560  131.8690   61.3680 C   0  0  0  0  0  0  0  0  0  0  0  0
  132.4750  131.4030   60.8850 C   0  0  0  0  0  0  0  0  0  0  0  0
  131.3540  131.9540   61.7400 C   0  0  0  0  0  0  0  0  0  0  0  0
  131.2160  131.8810   63.0400 N   0  0  0  0  0  0  0  0  0  0  0  0
  130.0190  132.5300   63.3340 N   0  0  0  0  0  0  0  0  0  0  0  0
  129.5330  132.9290   62.1870 C   0  0  0  0  0  0  0  0  0  0  0  0
  128.0400  133.8250   61.9050 S   0  0  0  0  0  0  0  0  0  0  0  0
  127.0930  132.5720   60.9830 C   0  0  0  0  0  0  0  0  0  0  0  0
  127.7030  132.2820   59.6080 C   0  0  0  0  0  0  0  0  0  0  0  0
  127.2620  131.3450   58.9390 O   0  0  0  0  0  0  0  0  0  0  0  0
  128.7300  133.0790   59.2380 N   0  0  0  0  0  0  0  0  0  0  0  0
  129.4390  133.0090   58.0480 C   0  0  0  0  0  0  0  0  0  0  0  0
  129.2620  133.7130   56.9520 N   0  0  0  0  0  0  0  0  0  0  0  0
  130.1640  133.3690   55.9530 N   0  0  0  0  0  0  0  0  0  0  0  0
  130.9990  132.4210   56.3080 C   0  0  0  0  0  0  0  0  0  0  0  0
  132.0700  131.8740   55.3930 C   0  0  0  0  0  0  0  0  0  0  0  0
  130.7390  131.8630   57.9390 S   0  0  0  0  0  0  0  0  0  0  0  0
  130.3270  132.6030   61.1350 O   0  0  0  0  0  0  0  0  0  0  0  0
  1  2  1  0
  2  3  1  0
  3  4  2  0
  4  5  1  0
  5  6  2  0
  6  7  1  0
  7  8  1  0
  8  9  1  0
  9 10  2  0
  9 11  1  0
 11 12  1  0
 12 13  2  0
 13 14  1  0
 14 15  2  0
 15 16  1  0
 15 17  1  0
  6 18  1  0
 18  3  1  0
 17 12  1  0
M  END
>  <Binding energies>  (81) 
[-6.66]

>  <Ligand effiencies>  (81) 
[-0.3505263157894737]

>  <Interactions>  (81) 
["V-A:ALA:541:CB:4892, V-A:ILE:538:CB:4862, H-A:TYR:539:N:4870, V-A:MET:535:CE:4835, V-A:LEU:363:CD1:3189, V-A:TYR:539:CE1:4875, V-A:TYR:539:CD1:4873, V-A:ILE:538:CG2:4863, V-A:ALA:541:CA:4890, V-A:PRO:540:C:4881, H-A:ALA:541:N:4891, V-A:TYR:539:C:4867, H-A:TYR:539:O:4868, V-A:PRO:540:N:4884, V-A:PRO:540:CA:4883, V-A:PRO:540:CB:4885, V-A:ASN:362:C:3172, V-A:ASN:362:CB:3176, V-A:LEU:363:CA:3185, V-A:TYR:531:CE2:4793, V-A:TYR:531:CZ:4794"]

$$$$
RR31_Rahimova_2017
     RDKit          3D

 18 19  0  0  0  0  0  0  0  0999 V2000
  122.5880  131.1260   60.9810 C   0  0  0  0  0  0  0  0  0  0  0  0
  123.9300  131.4030   60.3160 C   0  0  0  0  0  0  0  0  0  0  0  0
  124.2350  130.7720   59.1100 C   0  0  0  0  0  0  0  0  0  0  0  0
  125.4530  131.0080   58.4750 C   0  0  0  0  0  0  0  0  0  0  0  0
  126.3990  131.8880   59.0230 C   0  0  0  0  0  0  0  0  0  0  0  0
  127.6290  132.1260   58.4050 N   0  0  0  0  0  0  0  0  0  0  0  0
  127.7620  132.2120   56.9370 C   0  0  0  0  0  0  0  0  0  0  0  0
  129.2150  132.0660   56.4260 C   0  0  0  0  0  0  0  0  0  0  0  0
  130.0930  133.0550   57.0560 N   0  0  0  0  0  0  0  0  0  0  0  0
  131.4710  132.9660   56.5650 C   0  0  0  0  0  0  0  0  0  0  0  0
  131.9660  131.5130   56.4210 C   0  0  0  0  0  0  0  0  0  0  0  0
  132.6970  131.0180   57.6790 C   0  0  0  0  0  0  0  0  0  0  0  0
  132.3190  129.5610   57.9660 N   0  0  0  0  0  0  0  0  0  0  0  0
  130.0660  132.8090   58.4980 C   0  0  0  0  0  0  0  0  0  0  0  0
  128.6370  132.9840   59.0580 C   0  0  0  0  0  0  0  0  0  0  0  0
  126.0830  132.5080   60.2410 C   0  0  0  0  0  0  0  0  0  0  0  0
  124.8640  132.2800   60.8900 C   0  0  0  0  0  0  0  0  0  0  0  0
  124.5830  132.9830   62.2120 C   0  0  0  0  0  0  0  0  0  0  0  0
  1  2  1  0
  2  3  2  0
  3  4  1  0
  4  5  2  0
  5  6  1  0
  6  7  1  0
  7  8  1  0
  8  9  1  0
  9 10  1  0
 10 11  1  0
 11 12  1  0
 12 13  1  0
  9 14  1  0
 14 15  1  0
  5 16  1  0
 16 17  2  0
 17 18  1  0
 17  2  1  0
 15  6  1  0
M  CHG  1  13   1
M  END
>  <Binding energies>  (82) 
[-6.63]

>  <Ligand effiencies>  (82) 
[-0.3157142857142857]

>  <Interactions>  (82) 
["V-A:ILE:538:CB:4862, V-A:ILE:538:CA:4860, V-B:ILE:369:CG2:8208, H-A:TYR:539:N:4870, V-B:ASP:366:CB:8183, V-A:MET:535:CE:4835, V-B:ASP:366:CA:8181, V-A:LEU:363:CD1:3189, V-B:ILE:369:CB:8207, V-A:TYR:539:CE1:4875, V-B:ASP:366:CG:8184, V-A:TYR:539:CD1:4873, V-A:TYR:539:CZ:4877, V-A:ILE:538:CG2:4863, V-A:TYR:539:C:4867, V-A:PRO:540:N:4884, V-A:PRO:540:CA:4883, V-A:PRO:540:CB:4885, V-A:ASP:366:CG:3213, H-A:ASP:366:OD2:3215, V-A:PRO:540:CD:4887, V-A:TYR:531:CE2:4793, V-A:TYR:531:CZ:4794, H-A:TYR:531:OH:4795, V-A:ASP:366:CB:3212, V-B:ILE:369:CG1:8209"]

$$$$
RR32_Rahimova_2017
     RDKit          3D

 18 20  0  0  0  0  0  0  0  0999 V2000
  123.5690  132.4000   61.7040 C   0  0  0  0  0  0  0  0  0  0  0  0
  124.8450  133.2260   61.5740 C   0  0  0  0  0  0  0  0  0  0  0  0
  126.0710  132.5700   61.6940 C   0  0  0  0  0  0  0  0  0  0  0  0
  127.2560  133.2910   61.5770 C   0  0  0  0  0  0  0  0  0  0  0  0
  128.4690  132.6360   61.6970 N   0  0  0  0  0  0  0  0  0  0  0  0
  129.4300  132.7870   60.5890 C   0  0  0  0  0  0  0  0  0  0  0  0
  130.6740  131.8780   60.7310 C   0  0  0  0  0  0  0  0  0  0  0  0
  131.3640  132.1600   61.9890 N   0  0  0  0  0  0  0  0  0  0  0  0
  132.5550  131.3250   62.1080 C   0  0  0  0  0  0  0  0  0  0  0  0
  130.4380  131.8810   63.0840 C   0  0  0  0  0  0  0  0  0  0  0  0
  129.1890  132.7870   62.9760 C   0  0  0  0  0  0  0  0  0  0  0  0
  127.2790  134.6300   61.3510 N   0  0  0  0  0  0  0  0  0  0  0  0
  126.0990  135.2980   61.2330 C   0  0  0  0  0  0  0  0  0  0  0  0
  126.1540  136.6940   60.9990 C   0  0  0  0  0  0  0  0  0  0  0  0
  124.9800  137.4280   60.8700 C   0  0  0  0  0  0  0  0  0  0  0  0
  123.7430  136.8030   60.9670 C   0  0  0  0  0  0  0  0  0  0  0  0
  123.6550  135.4330   61.1960 C   0  0  0  0  0  0  0  0  0  0  0  0
  124.8310  134.6400   61.3360 C   0  0  0  0  0  0  0  0  0  0  0  0
  1  2  1  0
  2  3  2  0
  3  4  1  0
  4  5  1  0
  5  6  1  0
  6  7  1  0
  7  8  1  0
  8  9  1  0
  8 10  1  0
 10 11  1  0
  4 12  2  0
 12 13  1  0
 13 14  2  0
 14 15  1  0
 15 16  2  0
 16 17  1  0
 17 18  2  0
 18  2  1  0
 11  5  1  0
 18 13  1  0
M  END
>  <Binding energies>  (83) 
[-6.34]

>  <Ligand effiencies>  (83) 
[-0.3522222222222222]

>  <Interactions>  (83) 
["V-A:GLU:543:CG:4907, V-A:GLU:543:CD:4908, V-A:ALA:541:CB:4892, V-B:LEU:475:CD2:9230, V-B:ILE:369:CG2:8208, V-A:TYR:539:CE1:4875, V-A:TYR:539:CD1:4873, V-A:ALA:541:CA:4890, V-A:PRO:540:C:4881, H-A:ALA:541:N:4891, V-A:TYR:539:C:4867, V-A:PRO:540:N:4884, V-A:PRO:540:CA:4883, V-A:PRO:540:CB:4885, V-B:SER:385:CB:8380, V-A:ASN:362:CB:3176, V-A:TYR:539:CB:4871, V-B:ILE:369:CG1:8209, V-B:LEU:373:CD1:8251, V-B:SER:385:C:8376, V-B:HIS:383:CD2:8363, V-B:SER:385:CA:8378"]

$$$$
RR5_Rahimova_2017
     RDKit          3D

 45 50  0  0  0  0  0  0  0  0999 V2000
  131.2770  129.5000   58.8900 O   0  0  0  0  0  0  0  0  0  0  0  0
  130.2490  129.4650   59.5650 C   0  0  0  0  0  0  0  0  0  0  0  0
  130.3460  129.4050   61.1010 C   0  0  0  0  0  0  0  0  0  0  0  0
  130.3350  130.8130   61.7970 C   0  0  2  0  0  0  0  0  0  0  0  0
  129.2810  131.7340   61.3240 N   0  0  0  0  0  0  0  0  0  0  0  0
  129.4700  132.5470   60.2150 C   0  0  0  0  0  0  0  0  0  0  0  0
  130.4630  132.5770   59.4840 O   0  0  0  0  0  0  0  0  0  0  0  0
  128.3820  133.3220   60.0680 O   0  0  0  0  0  0  0  0  0  0  0  0
  127.0660  132.7830   60.1660 C   0  0  0  0  0  0  0  0  0  0  0  0
  126.3580  133.2930   61.4400 C   0  0  0  0  0  0  0  0  0  0  0  0
  125.8300  134.7110   61.3170 C   0  0  0  0  0  0  0  0  0  0  0  0
  126.5150  135.8930   61.0230 C   0  0  0  0  0  0  0  0  0  0  0  0
  125.8170  137.0990   60.9360 C   0  0  0  0  0  0  0  0  0  0  0  0
  124.4370  137.1260   61.1440 C   0  0  0  0  0  0  0  0  0  0  0  0
  123.7500  135.9480   61.4400 C   0  0  0  0  0  0  0  0  0  0  0  0
  124.4510  134.7430   61.5270 C   0  0  0  0  0  0  0  0  0  0  0  0
  123.9940  133.3770   61.8270 C   0  0  0  0  0  0  0  0  0  0  0  0
  122.7240  132.8770   62.1230 C   0  0  0  0  0  0  0  0  0  0  0  0
  122.5640  131.5180   62.3960 C   0  0  0  0  0  0  0  0  0  0  0  0
  123.6680  130.6630   62.3700 C   0  0  0  0  0  0  0  0  0  0  0  0
  124.9340  131.1660   62.0710 C   0  0  0  0  0  0  0  0  0  0  0  0
  125.0980  132.5250   61.7940 C   0  0  0  0  0  0  0  0  0  0  0  0
  131.7190  131.4970   61.6750 C   0  0  0  0  0  0  0  0  0  0  0  0
  132.2000  132.2400   62.5070 O   0  0  0  0  0  0  0  0  0  0  0  0
  132.3150  131.1220   60.5050 O   0  0  0  0  0  0  0  0  0  0  0  0
  128.9940  129.5060   59.0620 N   0  0  0  0  0  0  0  0  0  0  0  0
  128.4450  129.5700   57.6740 C   0  0  0  0  0  0  0  0  0  0  0  0
  129.3130  130.7030   57.0310 C   0  0  0  0  0  0  0  0  0  0  0  0
  128.8920  132.0430   57.0380 C   0  0  0  0  0  0  0  0  0  0  0  0
  129.6730  133.0420   56.4640 C   0  0  0  0  0  0  0  0  0  0  0  0
  130.8840  132.7170   55.8630 C   0  0  0  0  0  0  0  0  0  0  0  0
  131.3270  131.3990   55.8430 C   0  0  0  0  0  0  0  0  0  0  0  0
  130.5500  130.4030   56.4260 C   0  0  0  0  0  0  0  0  0  0  0  0
  128.6900  128.1730   57.0110 C   0  0  0  0  0  0  0  0  0  0  0  0
  128.2070  127.8710   55.7280 C   0  0  0  0  0  0  0  0  0  0  0  0
  128.4200  126.6150   55.1640 C   0  0  0  0  0  0  0  0  0  0  0  0
  129.1170  125.6450   55.8770 C   0  0  0  0  0  0  0  0  0  0  0  0
  129.6080  125.9220   57.1490 C   0  0  0  0  0  0  0  0  0  0  0  0
  129.4030  127.1800   57.7060 C   0  0  0  0  0  0  0  0  0  0  0  0
  126.9380  129.9670   57.8210 C   0  0  0  0  0  0  0  0  0  0  0  0
  126.2320  129.7040   59.0090 C   0  0  0  0  0  0  0  0  0  0  0  0
  124.8890  130.0480   59.1430 C   0  0  0  0  0  0  0  0  0  0  0  0
  124.2280  130.6690   58.0890 C   0  0  0  0  0  0  0  0  0  0  0  0
  124.9030  130.9550   56.9080 C   0  0  0  0  0  0  0  0  0  0  0  0
  126.2450  130.6090   56.7790 C   0  0  0  0  0  0  0  0  0  0  0  0
  1  2  2  0
  2  3  1  0
  4  3  1  6
  4  5  1  0
  5  6  1  0
  6  7  2  0
  6  8  1  0
  8  9  1  0
  9 10  1  0
 10 11  1  0
 11 12  2  0
 12 13  1  0
 13 14  2  0
 14 15  1  0
 15 16  2  0
 16 17  1  0
 17 18  2  0
 18 19  1  0
 19 20  2  0
 20 21  1  0
 21 22  2  0
  4 23  1  0
 23 24  2  0
 23 25  1  0
  2 26  1  0
 26 27  1  0
 27 28  1  0
 28 29  2  0
 29 30  1  0
 30 31  2  0
 31 32  1  0
 32 33  2  0
 27 34  1  0
 34 35  2  0
 35 36  1  0
 36 37  2  0
 37 38  1  0
 38 39  2  0
 27 40  1  0
 40 41  2  0
 41 42  1  0
 42 43  2  0
 43 44  1  0
 44 45  2  0
 22 10  1  0
 33 28  1  0
 39 34  1  0
 45 40  1  0
 16 11  1  0
 22 17  1  0
M  END
>  <Binding energies>  (84) 
[-10.89]

>  <Ligand effiencies>  (84) 
[-0.22687500000000002]

>  <Interactions>  (84) 
["V-A:GLU:543:CD:4908, V-B:LEU:475:CD2:9230, V-B:TYR:531:CZ:9766, V-A:ILE:538:CB:4862, V-A:ILE:538:CA:4860, V-B:ILE:369:CG2:8208, V-A:ILE:538:C:4858, V-A:TYR:539:CG:4872, V-B:GLY:454:CA:9020, V-B:ASP:366:CB:8183, V-A:MET:535:CE:4835, V-B:ASP:366:CA:8181, V-B:ILE:369:CB:8207, V-A:TYR:539:CE1:4875, V-B:ASP:366:CG:8184, V-A:TYR:539:CD1:4873, V-A:TYR:539:CZ:4877, V-A:ILE:538:CG2:4863, H-A:ALA:541:N:4891, V-A:PRO:540:N:4884, V-A:PRO:540:CA:4883, V-A:PRO:540:CB:4885, V-B:SER:385:CB:8380, H-A:ASP:366:OD2:3215, V-A:TYR:531:CE2:4793, V-A:TYR:531:CZ:4794, V-B:ASP:366:C:8179, V-B:ILE:369:CG1:8209, V-B:GLY:453:C:9013, V-B:ILE:369:CD1:8210, V-B:TYR:539:CZ:9849, V-B:SER:385:C:8376, V-B:HIS:383:CD2:8363, V-B:SER:385:CA:8378, V-B:GLY:453:CA:9015"]

$$$$
