1a_Ghoteimi_2023
     RDKit          3D

 40 43  0  0  0  0  0  0  0  0999 V2000
  128.1620  138.3220   62.0520 C   0  0  0  0  0  0  0  0  0  0  0  0
  126.6390  138.2310   62.1870 C   0  0  0  0  0  0  0  0  0  0  0  0
  126.0800  137.8050   60.9510 O   0  0  0  0  0  0  0  0  0  0  0  0
  125.1020  136.8640   60.9100 C   0  0  0  0  0  0  0  0  0  0  0  0
  123.9640  137.0830   60.4850 O   0  0  0  0  0  0  0  0  0  0  0  0
  125.5460  135.5260   61.4290 C   0  0  0  0  0  0  0  0  0  0  0  0
  124.6430  134.6130   61.9930 C   0  0  0  0  0  0  0  0  0  0  0  0
  125.0840  133.3810   62.4700 C   0  0  0  0  0  0  0  0  0  0  0  0
  126.4420  133.0380   62.3860 C   0  0  0  0  0  0  0  0  0  0  0  0
  126.9960  131.8260   62.8390 N   0  0  0  0  0  0  0  0  0  0  0  0
  127.7770  131.5800   63.9130 C   0  0  0  0  0  0  0  0  0  0  0  0
  128.1460  132.4170   64.7370 O   0  0  0  0  0  0  0  0  0  0  0  0
  128.2110  130.1250   64.0900 C   0  0  0  0  0  0  0  0  0  0  0  0
  127.1990  129.2670   65.3310 S   0  0  0  0  0  0  0  0  0  0  0  0
  128.2490  128.0290   66.0580 C   0  0  0  0  0  0  0  0  0  0  0  0
  128.2870  128.0670   67.4110 N   0  0  0  0  0  0  0  0  0  0  0  0
  129.0500  127.1700   68.0900 C   0  0  0  0  0  0  0  0  0  0  0  0
  129.0230  127.2640   69.5880 C   0  0  0  0  0  0  0  0  0  0  0  0
  127.8590  126.9710   70.3170 C   0  0  0  0  0  0  0  0  0  0  0  0
  127.8370  127.0580   71.7060 C   0  0  0  0  0  0  0  0  0  0  0  0
  128.9760  127.4410   72.4100 C   0  0  0  0  0  0  0  0  0  0  0  0
  128.8640  127.4970   73.7870 O   0  0  0  0  0  0  0  0  0  0  0  0
  128.1160  128.5530   74.3790 C   0  0  0  0  0  0  0  0  0  0  0  0
  130.1450  127.7400   71.6970 C   0  0  0  0  0  0  0  0  0  0  0  0
  130.1630  127.6530   70.3090 C   0  0  0  0  0  0  0  0  0  0  0  0
  129.7990  126.2070   67.4030 C   0  0  0  0  0  0  0  0  0  0  0  0
  129.7950  126.1650   66.0020 C   0  0  0  0  0  0  0  0  0  0  0  0
  130.6430  125.1300   65.3360 C   0  0  0  0  0  0  0  0  0  0  0  0
  131.9740  125.4010   65.0020 C   0  0  0  0  0  0  0  0  0  0  0  0
  132.7620  124.4270   64.3950 C   0  0  0  0  0  0  0  0  0  0  0  0
  132.2390  123.1640   64.1170 C   0  0  0  0  0  0  0  0  0  0  0  0
  133.0950  122.2630   63.5140 O   0  0  0  0  0  0  0  0  0  0  0  0
  133.8070  122.6550   62.3470 C   0  0  0  0  0  0  0  0  0  0  0  0
  130.9070  122.8860   64.4580 C   0  0  0  0  0  0  0  0  0  0  0  0
  130.1200  123.8620   65.0640 C   0  0  0  0  0  0  0  0  0  0  0  0
  128.9940  127.0990   65.3020 C   0  0  0  0  0  0  0  0  0  0  0  0
  128.9370  127.0940   63.8370 C   0  0  0  0  0  0  0  0  0  0  0  0
  128.8930  127.0880   62.6800 N   0  0  0  0  0  0  0  0  0  0  0  0
  127.3420  133.9460   61.8290 C   0  0  0  0  0  0  0  0  0  0  0  0
  126.9000  135.1780   61.3530 C   0  0  0  0  0  0  0  0  0  0  0  0
  1  2  1  0
  2  3  1  0
  3  4  1  0
  4  5  2  0
  4  6  1  0
  6  7  2  0
  7  8  1  0
  8  9  2  0
  9 10  1  0
 10 11  1  0
 11 12  2  0
 11 13  1  0
 13 14  1  0
 14 15  1  0
 15 16  2  0
 16 17  1  0
 17 18  1  0
 18 19  2  0
 19 20  1  0
 20 21  2  0
 21 22  1  0
 22 23  1  0
 21 24  1  0
 24 25  2  0
 17 26  2  0
 26 27  1  0
 27 28  1  0
 28 29  2  0
 29 30  1  0
 30 31  2  0
 31 32  1  0
 32 33  1  0
 31 34  1  0
 34 35  2  0
 27 36  2  0
 36 37  1  0
 37 38  3  0
  9 39  1  0
 39 40  2  0
 40  6  1  0
 36 15  1  0
 25 18  1  0
 35 28  1  0
M  END
>  <Binding energies>  (1) 
[-10.74]

>  <Ligand effiencies>  (1) 
[-0.26195121951219513]

>  <Interactions>  (1) 
["V-B:GLU:543:CG:9879, H-B:TYR:484:OH:9319, V-A:GLU:543:CG:4907, V-B:GLU:543:CD:9880, V-A:TYR:484:CZ:4347, H-B:LYS:547:NZ:9923, V-A:GLU:543:CD:4908, V-B:GLU:543:C:9874, V-A:TYR:484:CE2:4346, V-B:GLU:543:CB:9878, V-B:HIS:456:CE1:9041, V-B:LEU:475:CD2:9230, V-A:HIS:456:CE1:4070, V-A:ARG:545:CZ:4926, V-A:LEU:475:CD2:4259, V-A:TYR:539:CE1:4875, V-A:TYR:539:CD1:4873, V-A:VAL:344:CG1:3001, V-B:PRO:482:CB:9297, H-B:HIS:383:NE2:8365, V-B:HIS:383:CE1:8364, V-B:SER:385:CB:8380, H-A:GLY:454:N:4050, H-A:TYR:484:OH:4348, V-B:HIS:456:CD2:9039, V-A:ILE:369:CD1:3239, V-B:HIS:383:CD2:8363, V-B:LEU:475:CG:9228, V-B:GLY:544:C:9884, V-A:GLY:454:CA:4049"]

$$$$
1b_Ghoteimi_2023
     RDKit          3D

 34 37  0  0  0  0  0  0  0  0999 V2000
  128.1850  128.4910   74.2990 C   0  0  0  0  0  0  0  0  0  0  0  0
  128.6250  127.2930   73.6690 O   0  0  0  0  0  0  0  0  0  0  0  0
  128.6350  127.2220   72.2890 C   0  0  0  0  0  0  0  0  0  0  0  0
  129.8560  127.4570   71.6600 C   0  0  0  0  0  0  0  0  0  0  0  0
  129.9610  127.4080   70.2730 C   0  0  0  0  0  0  0  0  0  0  0  0
  128.8470  127.1190   69.4710 C   0  0  0  0  0  0  0  0  0  0  0  0
  128.9640  127.0690   67.9730 C   0  0  0  0  0  0  0  0  0  0  0  0
  129.7470  126.1240   67.3020 C   0  0  0  0  0  0  0  0  0  0  0  0
  129.8190  126.1180   65.9030 C   0  0  0  0  0  0  0  0  0  0  0  0
  130.6780  125.0840   65.2540 C   0  0  0  0  0  0  0  0  0  0  0  0
  131.9970  125.3830   64.8990 C   0  0  0  0  0  0  0  0  0  0  0  0
  132.7990  124.4250   64.2870 C   0  0  0  0  0  0  0  0  0  0  0  0
  132.2990  123.1520   64.0130 C   0  0  0  0  0  0  0  0  0  0  0  0
  133.1670  122.2660   63.4020 O   0  0  0  0  0  0  0  0  0  0  0  0
  133.9240  122.7000   62.2780 C   0  0  0  0  0  0  0  0  0  0  0  0
  130.9740  122.8490   64.3600 C   0  0  0  0  0  0  0  0  0  0  0  0
  130.1740  123.8100   64.9720 C   0  0  0  0  0  0  0  0  0  0  0  0
  129.0700  127.0840   65.1850 C   0  0  0  0  0  0  0  0  0  0  0  0
  129.0360  127.0600   63.7200 C   0  0  0  0  0  0  0  0  0  0  0  0
  129.0090  127.0400   62.5630 N   0  0  0  0  0  0  0  0  0  0  0  0
  128.3170  128.0220   65.9250 C   0  0  0  0  0  0  0  0  0  0  0  0
  127.3250  129.3080   65.1940 S   0  0  0  0  0  0  0  0  0  0  0  0
  125.6680  129.2400   65.9530 C   0  0  0  0  0  0  0  0  0  0  0  0
  124.5100  129.6290   65.0230 C   0  0  0  0  0  0  0  0  0  0  0  0
  123.3490  129.6480   65.4360 O   0  0  0  0  0  0  0  0  0  0  0  0
  124.8810  129.9310   63.7580 N   0  0  0  0  0  0  0  0  0  0  0  0
  124.0550  130.3160   62.7090 C   0  0  0  0  0  0  0  0  0  0  0  0
  124.5120  130.4810   61.4020 C   0  0  0  0  0  0  0  0  0  0  0  0
  123.4030  130.8600   60.6800 C   0  0  0  0  0  0  0  0  0  0  0  0
  122.3340  130.9170   61.5100 O   0  0  0  0  0  0  0  0  0  0  0  0
  122.7600  130.5700   62.7920 N   0  0  0  0  0  0  0  0  0  0  0  0
  128.2540  127.9960   67.2780 N   0  0  0  0  0  0  0  0  0  0  0  0
  127.6210  126.8860   70.1150 C   0  0  0  0  0  0  0  0  0  0  0  0
  127.5120  126.9350   71.5010 C   0  0  0  0  0  0  0  0  0  0  0  0
  1  2  1  0
  2  3  1  0
  3  4  2  0
  4  5  1  0
  5  6  2  0
  6  7  1  0
  7  8  2  0
  8  9  1  0
  9 10  1  0
 10 11  2  0
 11 12  1  0
 12 13  2  0
 13 14  1  0
 14 15  1  0
 13 16  1  0
 16 17  2  0
  9 18  2  0
 18 19  1  0
 19 20  3  0
 18 21  1  0
 21 22  1  0
 22 23  1  0
 23 24  1  0
 24 25  2  0
 24 26  1  0
 26 27  1  0
 27 28  1  0
 28 29  2  0
 29 30  1  0
 30 31  1  0
 21 32  2  0
  6 33  1  0
 33 34  2  0
 34  3  1  0
 32  7  1  0
 17 10  1  0
 31 27  2  0
M  END
>  <Binding energies>  (2) 
[-8.7]

>  <Ligand effiencies>  (2) 
[-0.24857142857142855]

>  <Interactions>  (2) 
["V-B:GLU:543:CG:9879, H-B:TYR:484:OH:9319, V-A:GLU:543:CG:4907, V-B:ARG:545:CZ:9898, V-B:TYR:484:CZ:9318, V-B:GLU:543:CD:9880, V-A:TYR:484:CZ:4347, H-B:LYS:547:NZ:9923, V-A:GLU:543:CD:4908, V-B:GLU:543:C:9874, V-A:TYR:484:CE2:4346, V-B:GLU:543:CB:9878, V-B:HIS:456:CE1:9041, V-A:HIS:456:CE1:4070, V-A:ARG:545:CZ:4926, V-A:LEU:475:CD2:4259, V-B:ILE:369:CG2:8208, V-B:ASP:366:CB:8183, V-B:ASP:366:CA:8181, V-B:ILE:369:CB:8207, V-B:ASP:366:CG:8184, H-B:ARG:545:NH1:9899, H-B:ARG:545:NH2:9900, H-B:GLY:454:N:9021, H-B:ARG:545:NE:9896, V-B:ARG:545:CD:9895, H-A:GLY:454:N:4050, H-A:TYR:484:OH:4348, V-B:HIS:456:CD2:9039, V-A:ILE:369:CD1:3239, V-B:GLY:544:C:9884, V-A:GLY:454:CA:4049, V-B:GLY:544:CA:9886"]

$$$$
1c_Ghoteimi_2023
     RDKit          3D

 34 37  0  0  0  0  0  0  0  0999 V2000
  126.2720  122.5830   56.4690 C   0  0  0  0  0  0  0  0  0  0  0  0
  125.7920  122.8710   57.7780 O   0  0  0  0  0  0  0  0  0  0  0  0
  126.6970  123.1760   58.7770 C   0  0  0  0  0  0  0  0  0  0  0  0
  127.9530  122.5810   58.6860 C   0  0  0  0  0  0  0  0  0  0  0  0
  128.9250  122.8290   59.6500 C   0  0  0  0  0  0  0  0  0  0  0  0
  128.6700  123.6810   60.7370 C   0  0  0  0  0  0  0  0  0  0  0  0
  129.7150  123.9470   61.7820 C   0  0  0  0  0  0  0  0  0  0  0  0
  129.4250  124.5750   62.9980 C   0  0  0  0  0  0  0  0  0  0  0  0
  130.4280  124.7780   63.9530 C   0  0  0  0  0  0  0  0  0  0  0  0
  130.0340  125.3930   65.2550 C   0  0  0  0  0  0  0  0  0  0  0  0
  130.2970  124.7360   66.4610 C   0  0  0  0  0  0  0  0  0  0  0  0
  129.9090  125.3010   67.6720 C   0  0  0  0  0  0  0  0  0  0  0  0
  129.2480  126.5290   67.7020 C   0  0  0  0  0  0  0  0  0  0  0  0
  128.9020  127.0130   68.9490 O   0  0  0  0  0  0  0  0  0  0  0  0
  129.8120  127.8600   69.6430 C   0  0  0  0  0  0  0  0  0  0  0  0
  128.9760  127.1880   66.4930 C   0  0  0  0  0  0  0  0  0  0  0  0
  129.3650  126.6210   65.2830 C   0  0  0  0  0  0  0  0  0  0  0  0
  131.7440  124.3610   63.6470 C   0  0  0  0  0  0  0  0  0  0  0  0
  132.8460  124.5750   64.5920 C   0  0  0  0  0  0  0  0  0  0  0  0
  133.7140  124.7440   65.3390 N   0  0  0  0  0  0  0  0  0  0  0  0
  131.9630  123.7190   62.4100 C   0  0  0  0  0  0  0  0  0  0  0  0
  133.5260  122.9930   61.9670 S   0  0  0  0  0  0  0  0  0  0  0  0
  133.3100  122.4360   60.2450 C   0  0  0  0  0  0  0  0  0  0  0  0
  132.8650  120.9720   60.1630 C   0  0  0  0  0  0  0  0  0  0  0  0
  133.6850  120.1030   59.8660 O   0  0  0  0  0  0  0  0  0  0  0  0
  131.5700  120.7450   60.4760 N   0  0  0  0  0  0  0  0  0  0  0  0
  130.9580  119.5110   60.6280 C   0  0  0  0  0  0  0  0  0  0  0  0
  131.2590  118.3810   60.0260 N   0  0  0  0  0  0  0  0  0  0  0  0
  130.4930  117.3920   60.4430 C   0  0  0  0  0  0  0  0  0  0  0  0
  129.5450  117.7130   61.4100 C   0  0  0  0  0  0  0  0  0  0  0  0
  129.6700  119.4070   61.7840 S   0  0  0  0  0  0  0  0  0  0  0  0
  130.9730  123.5120   61.5100 N   0  0  0  0  0  0  0  0  0  0  0  0
  127.4040  124.2790   60.8140 C   0  0  0  0  0  0  0  0  0  0  0  0
  126.4280  124.0330   59.8530 C   0  0  0  0  0  0  0  0  0  0  0  0
  1  2  1  0
  2  3  1  0
  3  4  2  0
  4  5  1  0
  5  6  2  0
  6  7  1  0
  7  8  2  0
  8  9  1  0
  9 10  1  0
 10 11  2  0
 11 12  1  0
 12 13  2  0
 13 14  1  0
 14 15  1  0
 13 16  1  0
 16 17  2  0
  9 18  2  0
 18 19  1  0
 19 20  3  0
 18 21  1  0
 21 22  1  0
 22 23  1  0
 23 24  1  0
 24 25  2  0
 24 26  1  0
 26 27  1  0
 27 28  2  0
 28 29  1  0
 29 30  2  0
 30 31  1  0
 21 32  2  0
  6 33  1  0
 33 34  2  0
 34  3  1  0
 32  7  1  0
 17 10  1  0
 31 27  1  0
M  END
>  <Binding energies>  (3) 
[-8.56]

>  <Ligand effiencies>  (3) 
[-0.24457142857142858]

>  <Interactions>  (3) 
["V-B:GLU:543:CG:9879, V-B:GLU:543:CD:9880, V-A:TYR:484:CZ:4347, V-A:GLU:543:CD:4908, V-A:TYR:484:CE2:4346, V-B:GLU:543:CB:9878, V-A:GLU:543:CB:4906, V-A:HIS:456:CE1:4070, V-B:ALA:541:CB:9864, V-A:ARG:545:CZ:4926, V-A:LEU:475:CD2:4259, V-B:PRO:540:N:9856, V-B:PRO:540:CA:9855, V-B:PRO:540:CB:9857, V-B:TYR:539:C:9839, V-B:PRO:540:CD:9859, H-A:GLY:454:N:4050, H-A:ARG:545:NE:4924, H-A:TYR:484:OH:4348, V-B:GLU:543:CA:9876, V-B:TYR:539:CE2:9848, V-A:ILE:369:CG2:3237, V-B:PRO:540:C:9853, V-B:TYR:539:CD2:9846, V-B:TYR:539:CG:9844, V-B:MET:535:CE:9807, V-B:ALA:541:CA:9862, H-A:SER:385:OG:3410, V-B:TYR:539:CB:9843, V-A:LEU:475:CD1:4258, V-A:PRO:482:CB:4326, V-A:HIS:383:NE2:3394, H-A:HIS:383:HE2:3395, V-A:PRO:482:CG:4327, V-A:HIS:383:CE1:3393"]

$$$$
1d_Ghoteimi_2023
     RDKit          3D

 30 32  0  0  0  0  0  0  0  0999 V2000
  131.8570  126.2070   59.2880 C   0  0  0  0  0  0  0  0  0  0  0  0
  132.0730  124.9520   58.6610 O   0  0  0  0  0  0  0  0  0  0  0  0
  133.3070  124.4070   58.6250 C   0  0  0  0  0  0  0  0  0  0  0  0
  133.8830  123.9730   57.6260 O   0  0  0  0  0  0  0  0  0  0  0  0
  133.9640  124.3670   60.0020 C   0  0  0  0  0  0  0  0  0  0  0  0
  133.2520  122.9600   60.9070 S   0  0  0  0  0  0  0  0  0  0  0  0
  131.7100  123.5140   61.6020 C   0  0  0  0  0  0  0  0  0  0  0  0
  130.6550  123.3840   60.7630 N   0  0  0  0  0  0  0  0  0  0  0  0
  129.4180  123.7720   61.1650 C   0  0  0  0  0  0  0  0  0  0  0  0
  128.3020  123.5890   60.1770 C   0  0  0  0  0  0  0  0  0  0  0  0
  128.5430  123.0720   58.8940 C   0  0  0  0  0  0  0  0  0  0  0  0
  127.5080  122.9080   57.9780 C   0  0  0  0  0  0  0  0  0  0  0  0
  126.2020  123.2580   58.3130 C   0  0  0  0  0  0  0  0  0  0  0  0
  125.2400  123.0650   57.3400 O   0  0  0  0  0  0  0  0  0  0  0  0
  125.5740  122.3220   56.1730 C   0  0  0  0  0  0  0  0  0  0  0  0
  125.9460  123.7770   59.5900 C   0  0  0  0  0  0  0  0  0  0  0  0
  126.9840  123.9380   60.5040 C   0  0  0  0  0  0  0  0  0  0  0  0
  129.2180  124.2990   62.4460 C   0  0  0  0  0  0  0  0  0  0  0  0
  130.2930  124.4590   63.3290 C   0  0  0  0  0  0  0  0  0  0  0  0
  130.0090  125.0340   64.6790 C   0  0  0  0  0  0  0  0  0  0  0  0
  130.3870  124.3420   65.8330 C   0  0  0  0  0  0  0  0  0  0  0  0
  130.1260  124.8720   67.0940 C   0  0  0  0  0  0  0  0  0  0  0  0
  129.4880  126.1040   67.2270 C   0  0  0  0  0  0  0  0  0  0  0  0
  129.2630  126.5480   68.5150 O   0  0  0  0  0  0  0  0  0  0  0  0
  128.9850  127.9270   68.7370 C   0  0  0  0  0  0  0  0  0  0  0  0
  129.1180  126.8090   66.0710 C   0  0  0  0  0  0  0  0  0  0  0  0
  129.3810  126.2780   64.8120 C   0  0  0  0  0  0  0  0  0  0  0  0
  131.5860  124.0760   62.8930 C   0  0  0  0  0  0  0  0  0  0  0  0
  132.7610  124.3170   63.7350 C   0  0  0  0  0  0  0  0  0  0  0  0
  133.6880  124.5080   64.4010 N   0  0  0  0  0  0  0  0  0  0  0  0
  1  2  1  0
  2  3  1  0
  3  4  2  0
  3  5  1  0
  5  6  1  0
  6  7  1  0
  7  8  2  0
  8  9  1  0
  9 10  1  0
 10 11  2  0
 11 12  1  0
 12 13  2  0
 13 14  1  0
 14 15  1  0
 13 16  1  0
 16 17  2  0
  9 18  2  0
 18 19  1  0
 19 20  1  0
 20 21  2  0
 21 22  1  0
 22 23  2  0
 23 24  1  0
 24 25  1  0
 23 26  1  0
 26 27  2  0
 19 28  2  0
 28 29  1  0
 29 30  3  0
 28  7  1  0
 17 10  1  0
 27 20  1  0
M  END
>  <Binding energies>  (4) 
[-7.76]

>  <Ligand effiencies>  (4) 
[-0.25866666666666666]

>  <Interactions>  (4) 
["V-B:GLU:543:CG:9879, V-B:GLU:543:CD:9880, V-A:TYR:484:CZ:4347, V-A:GLU:543:CD:4908, V-A:TYR:484:CE2:4346, V-B:GLU:543:CB:9878, V-B:HIS:456:CE1:9041, V-A:GLU:543:CB:4906, V-A:HIS:456:CE1:4070, V-A:ASP:366:CG:3213, V-B:LEU:363:CD1:8160, V-B:PRO:540:N:9856, V-B:PRO:540:CA:9855, V-B:PRO:540:CB:9857, V-B:TYR:539:C:9839, V-B:PRO:540:CD:9859, H-B:TYR:539:OH:9850, V-A:ASP:366:CB:3212, H-A:GLY:454:N:4050, H-A:ARG:545:NH2:4928, H-A:TYR:484:OH:4348, V-B:GLU:543:CA:9876, V-A:ASP:366:CA:3210, V-B:TYR:539:CE2:9848, V-A:ILE:369:CG2:3237, V-A:ILE:369:CB:3236, V-A:ILE:369:CD1:3239, V-B:TYR:539:CD2:9846, V-B:TYR:539:CZ:9849, V-B:MET:535:CE:9807, V-B:ILE:538:CG2:9835, H-A:ASN:370:N:3244"]

$$$$
1j_Grossjean_2025
     RDKit          3D

 20 21  0  0  0  0  0  0  0  0999 V2000
  123.8510  131.9540   62.2050 C   0  0  0  0  0  0  0  0  0  0  0  0
  124.4810  133.2900   61.8600 C   0  0  0  0  0  0  0  0  0  0  0  0
  123.7200  134.3510   61.3730 C   0  0  0  0  0  0  0  0  0  0  0  0
  124.3520  135.5640   61.0840 C   0  0  0  0  0  0  0  0  0  0  0  0
  123.4930  136.7180   60.5680 C   0  0  0  0  0  0  0  0  0  0  0  0
  125.7460  135.6820   61.2840 C   0  0  0  0  0  0  0  0  0  0  0  0
  126.4200  136.9590   61.0380 C   0  0  0  0  0  0  0  0  0  0  0  0
  126.9490  137.9700   60.8430 N   0  0  0  0  0  0  0  0  0  0  0  0
  126.4440  134.5450   61.7560 C   0  0  0  0  0  0  0  0  0  0  0  0
  128.1960  134.5140   62.0620 S   0  0  0  0  0  0  0  0  0  0  0  0
  128.7410  132.7830   61.9800 C   0  0  0  0  0  0  0  0  0  0  0  0
  129.8410  132.5760   60.9370 C   0  0  0  0  0  0  0  0  0  0  0  0
  130.9730  132.2600   61.3070 O   0  0  0  0  0  0  0  0  0  0  0  0
  129.4680  132.7610   59.6520 N   0  0  0  0  0  0  0  0  0  0  0  0
  130.2750  132.6410   58.5300 C   0  0  0  0  0  0  0  0  0  0  0  0
  130.2530  133.3750   57.4370 N   0  0  0  0  0  0  0  0  0  0  0  0
  131.1650  132.9800   56.5710 C   0  0  0  0  0  0  0  0  0  0  0  0
  131.9550  131.9010   56.9570 C   0  0  0  0  0  0  0  0  0  0  0  0
  131.4690  131.3830   58.5430 S   0  0  0  0  0  0  0  0  0  0  0  0
  125.8180  133.3790   62.0550 N   0  0  0  0  0  0  0  0  0  0  0  0
  1  2  1  0
  2  3  2  0
  3  4  1  0
  4  5  1  0
  4  6  2  0
  6  7  1  0
  7  8  3  0
  6  9  1  0
  9 10  1  0
 10 11  1  0
 11 12  1  0
 12 13  2  0
 12 14  1  0
 14 15  1  0
 15 16  2  0
 16 17  1  0
 17 18  2  0
 18 19  1  0
  9 20  2  0
 20  2  1  0
 19 15  1  0
M  END
>  <Binding energies>  (5) 
[-7.44]

>  <Ligand effiencies>  (5) 
[-0.3542857142857143]

>  <Interactions>  (5) 
["V-A:ALA:541:CB:4892, V-B:LEU:475:CD2:9230, V-A:ILE:538:CB:4862, V-A:ILE:538:CA:4860, V-B:ILE:369:CG2:8208, H-A:TYR:539:N:4870, V-A:LEU:363:CD1:3189, V-A:TYR:539:CE1:4875, V-A:TYR:539:CD1:4873, V-A:ILE:538:CG2:4863, V-A:PRO:540:C:4881, H-A:ALA:541:N:4891, V-A:TYR:539:C:4867, H-A:TYR:539:O:4868, V-A:PRO:540:N:4884, H-B:HIS:383:NE2:8365, V-A:PRO:540:CA:4883, V-A:PRO:540:CB:4885, V-B:SER:385:CB:8380, V-A:PRO:540:CD:4887, V-A:TYR:539:CB:4871, V-B:LEU:373:CD1:8251, V-B:HIS:383:CD2:8363, V-B:VAL:384:C:8368, V-B:SER:385:CA:8378"]

$$$$
1o_Grossjean_2025
     RDKit          3D

 26 27  0  0  0  0  0  0  0  0999 V2000
  127.1870  138.2830   61.9220 C   0  0  0  0  0  0  0  0  0  0  0  0
  126.4330  137.8650   60.7930 O   0  0  0  0  0  0  0  0  0  0  0  0
  125.3840  137.0130   60.9300 C   0  0  0  0  0  0  0  0  0  0  0  0
  124.2140  137.3330   60.6970 O   0  0  0  0  0  0  0  0  0  0  0  0
  125.7880  135.6420   61.3890 C   0  0  0  0  0  0  0  0  0  0  0  0
  127.1230  135.2140   61.3610 C   0  0  0  0  0  0  0  0  0  0  0  0
  127.4650  133.9350   61.7970 C   0  0  0  0  0  0  0  0  0  0  0  0
  126.4830  133.0600   62.2610 C   0  0  0  0  0  0  0  0  0  0  0  0
  126.9400  131.7960   62.6850 N   0  0  0  0  0  0  0  0  0  0  0  0
  127.6180  131.4510   63.8010 C   0  0  0  0  0  0  0  0  0  0  0  0
  127.9290  132.2210   64.7090 O   0  0  0  0  0  0  0  0  0  0  0  0
  127.9820  129.9630   63.9200 C   0  0  0  0  0  0  0  0  0  0  0  0
  127.9700  129.2220   62.5680 C   0  0  0  0  0  0  0  0  0  0  0  0
  126.4260  128.3240   62.2330 S   0  0  0  0  0  0  0  0  0  0  0  0
  125.2670  129.4530   61.4860 C   0  0  0  0  0  0  0  0  0  0  0  0
  125.4550  129.6150   60.1510 N   0  0  0  0  0  0  0  0  0  0  0  0
  124.6270  130.4440   59.4730 C   0  0  0  0  0  0  0  0  0  0  0  0
  124.8890  130.5630   57.9830 C   0  0  0  0  0  0  0  0  0  0  0  0
  123.5970  131.1480   60.0920 C   0  0  0  0  0  0  0  0  0  0  0  0
  123.4110  131.0090   61.4710 C   0  0  0  0  0  0  0  0  0  0  0  0
  122.2840  131.8040   62.1290 C   0  0  0  0  0  0  0  0  0  0  0  0
  124.2660  130.1520   62.2020 C   0  0  0  0  0  0  0  0  0  0  0  0
  124.1240  130.0390   63.6550 C   0  0  0  0  0  0  0  0  0  0  0  0
  124.0090  129.9510   64.8030 N   0  0  0  0  0  0  0  0  0  0  0  0
  125.1460  133.4830   62.2960 C   0  0  0  0  0  0  0  0  0  0  0  0
  124.8060  134.7620   61.8610 C   0  0  0  0  0  0  0  0  0  0  0  0
  1  2  1  0
  2  3  1  0
  3  4  2  0
  3  5  1  0
  5  6  2  0
  6  7  1  0
  7  8  2  0
  8  9  1  0
  9 10  1  0
 10 11  2  0
 10 12  1  0
 12 13  1  0
 13 14  1  0
 14 15  1  0
 15 16  2  0
 16 17  1  0
 17 18  1  0
 17 19  2  0
 19 20  1  0
 20 21  1  0
 20 22  2  0
 22 23  1  0
 23 24  3  0
  8 25  1  0
 25 26  2  0
 26  5  1  0
 22 15  1  0
M  END
>  <Binding energies>  (6) 
[-7.64]

>  <Ligand effiencies>  (6) 
[-0.28296296296296297]

>  <Interactions>  (6) 
["H-B:TYR:484:OH:9319, V-A:GLU:543:CG:4907, V-B:ARG:545:CZ:9898, V-A:GLU:543:CD:4908, V-B:LEU:475:CD2:9230, V-B:ILE:369:CG2:8208, V-B:GLY:454:CA:9020, V-B:ASP:366:CB:8183, V-B:ASP:366:CA:8181, V-B:ILE:369:CB:8207, V-A:TYR:539:CE1:4875, V-B:ASP:366:CG:8184, V-A:TYR:539:CD1:4873, V-A:TYR:539:C:4867, H-B:HIS:383:NE2:8365, V-B:HIS:383:CE1:8364, H-B:ARG:545:NH2:9900, H-B:GLY:454:N:9021, V-B:ILE:369:CG1:8209, H-B:ARG:545:NE:9896, V-B:GLY:453:C:9013, V-B:HIS:383:CD2:8363, V-B:GLY:453:CA:9015"]

$$$$
1p_Grossjean_2025
     RDKit          3D

 21 22  0  0  0  0  0  0  0  0999 V2000
  123.8970  131.8450   61.9570 C   0  0  0  0  0  0  0  0  0  0  0  0
  124.5320  133.2010   61.7180 C   0  0  0  0  0  0  0  0  0  0  0  0
  123.7760  134.2970   61.3030 C   0  0  0  0  0  0  0  0  0  0  0  0
  124.4170  135.5210   61.0850 C   0  0  0  0  0  0  0  0  0  0  0  0
  123.5720  136.7040   60.6160 C   0  0  0  0  0  0  0  0  0  0  0  0
  125.8100  135.6190   61.2980 C   0  0  0  0  0  0  0  0  0  0  0  0
  126.5120  136.8760   61.0310 C   0  0  0  0  0  0  0  0  0  0  0  0
  127.0650  137.8710   60.8190 N   0  0  0  0  0  0  0  0  0  0  0  0
  126.4940  134.4620   61.7410 C   0  0  0  0  0  0  0  0  0  0  0  0
  128.2410  134.4150   62.0660 S   0  0  0  0  0  0  0  0  0  0  0  0
  128.5530  132.9210   63.0520 C   0  0  0  0  0  0  0  0  0  0  0  0
  129.0300  131.7150   62.2190 C   0  0  0  0  0  0  0  0  0  0  0  0
  130.0000  132.0940   61.0910 C   0  0  0  0  0  0  0  0  0  0  0  0
  131.1970  132.2490   61.3450 O   0  0  0  0  0  0  0  0  0  0  0  0
  129.4490  132.2190   59.8630 N   0  0  0  0  0  0  0  0  0  0  0  0
  130.0970  132.5490   58.6800 C   0  0  0  0  0  0  0  0  0  0  0  0
  131.3430  132.0320   58.3240 C   0  0  0  0  0  0  0  0  0  0  0  0
  131.6290  132.5970   57.1020 C   0  0  0  0  0  0  0  0  0  0  0  0
  130.6110  133.4120   56.7420 O   0  0  0  0  0  0  0  0  0  0  0  0
  129.6460  133.3750   57.7500 N   0  0  0  0  0  0  0  0  0  0  0  0
  125.8670  133.2730   61.9300 N   0  0  0  0  0  0  0  0  0  0  0  0
  1  2  1  0
  2  3  2  0
  3  4  1  0
  4  5  1  0
  4  6  2  0
  6  7  1  0
  7  8  3  0
  6  9  1  0
  9 10  1  0
 10 11  1  0
 11 12  1  0
 12 13  1  0
 13 14  2  0
 13 15  1  0
 15 16  1  0
 16 17  1  0
 17 18  2  0
 18 19  1  0
 19 20  1  0
  9 21  2  0
 21  2  1  0
 20 16  2  0
M  END
>  <Binding energies>  (7) 
[-7.84]

>  <Ligand effiencies>  (7) 
[-0.3563636363636364]

>  <Interactions>  (7) 
["V-A:ALA:541:CB:4892, V-B:LEU:475:CD2:9230, V-B:ILE:369:CG2:8208, V-A:TYR:539:CG:4872, H-A:TYR:539:N:4870, V-A:LEU:363:CD1:3189, V-A:TYR:539:CE1:4875, V-A:TYR:539:CD1:4873, H-A:ALA:541:N:4891, V-A:TYR:539:C:4867, V-A:PRO:540:N:4884, H-B:HIS:383:NE2:8365, V-A:PRO:540:CA:4883, V-A:PRO:540:CB:4885, V-B:SER:385:CB:8380, V-A:PRO:540:CD:4887, V-A:TYR:539:CB:4871, V-B:LEU:373:CD1:8251, V-B:HIS:383:CD2:8363, V-B:VAL:384:C:8368, V-B:SER:385:CA:8378"]

$$$$
2a_Ghoteimi_2023
     RDKit          3D

 48 53  0  0  0  0  0  0  0  0999 V2000
  133.9060  124.4500   62.4090 C   0  0  0  0  0  0  0  0  0  0  0  0
  134.1460  124.0970   60.9380 C   0  0  0  0  0  0  0  0  0  0  0  0
  132.9160  124.1640   60.2300 O   0  0  0  0  0  0  0  0  0  0  0  0
  132.8070  124.8730   59.0770 C   0  0  0  0  0  0  0  0  0  0  0  0
  133.3450  124.5350   58.0180 O   0  0  0  0  0  0  0  0  0  0  0  0
  131.9610  126.1060   59.2170 C   0  0  0  0  0  0  0  0  0  0  0  0
  131.4900  126.8140   58.1010 C   0  0  0  0  0  0  0  0  0  0  0  0
  130.7070  127.9520   58.2660 C   0  0  0  0  0  0  0  0  0  0  0  0
  130.3730  128.4040   59.5440 C   0  0  0  0  0  0  0  0  0  0  0  0
  129.5800  129.5670   59.5930 N   0  0  0  0  0  0  0  0  0  0  0  0
  129.9380  130.8490   59.8220 C   0  0  0  0  0  0  0  0  0  0  0  0
  131.0790  131.2300   60.0880 O   0  0  0  0  0  0  0  0  0  0  0  0
  128.7890  131.8650   59.7760 C   0  0  0  0  0  0  0  0  0  0  0  0
  127.8910  132.0600   61.3490 S   0  0  0  0  0  0  0  0  0  0  0  0
  127.8750  130.4460   62.0960 C   0  0  0  0  0  0  0  0  0  0  0  0
  127.6190  129.4420   61.2250 N   0  0  0  0  0  0  0  0  0  0  0  0
  127.5710  128.1640   61.6770 C   0  0  0  0  0  0  0  0  0  0  0  0
  127.2730  127.1090   60.6600 C   0  0  0  0  0  0  0  0  0  0  0  0
  127.5650  125.7610   60.9070 C   0  0  0  0  0  0  0  0  0  0  0  0
  127.2970  124.7840   59.9530 C   0  0  0  0  0  0  0  0  0  0  0  0
  126.7190  125.1160   58.7180 C   0  0  0  0  0  0  0  0  0  0  0  0
  126.4830  124.1270   57.7570 N   0  0  0  0  0  0  0  0  0  0  0  0
  125.2230  123.3570   57.7380 C   0  0  0  0  0  0  0  0  0  0  0  0
  124.9840  122.5860   56.4230 C   0  0  0  0  0  0  0  0  0  0  0  0
  126.0940  121.7490   56.1420 O   0  0  0  0  0  0  0  0  0  0  0  0
  127.2860  122.5040   55.9900 C   0  0  0  0  0  0  0  0  0  0  0  0
  127.5960  123.2740   57.2910 C   0  0  0  0  0  0  0  0  0  0  0  0
  126.4400  126.4700   58.4720 C   0  0  0  0  0  0  0  0  0  0  0  0
  126.7060  127.4460   59.4270 C   0  0  0  0  0  0  0  0  0  0  0  0
  127.7950  127.8640   63.0230 C   0  0  0  0  0  0  0  0  0  0  0  0
  128.0630  128.8870   63.9430 C   0  0  0  0  0  0  0  0  0  0  0  0
  128.2870  128.4970   65.3680 C   0  0  0  0  0  0  0  0  0  0  0  0
  127.8970  129.3540   66.4010 C   0  0  0  0  0  0  0  0  0  0  0  0
  128.1190  129.0080   67.7300 C   0  0  0  0  0  0  0  0  0  0  0  0
  128.7350  127.7940   68.0680 C   0  0  0  0  0  0  0  0  0  0  0  0
  128.9840  127.4360   69.3960 N   0  0  0  0  0  0  0  0  0  0  0  0
  127.8590  127.0140   70.2550 C   0  0  0  0  0  0  0  0  0  0  0  0
  128.3110  126.2880   71.5390 C   0  0  0  0  0  0  0  0  0  0  0  0
  129.2210  127.1010   72.2630 O   0  0  0  0  0  0  0  0  0  0  0  0
  130.3780  127.4030   71.5000 C   0  0  0  0  0  0  0  0  0  0  0  0
  129.9810  128.1550   70.2130 C   0  0  0  0  0  0  0  0  0  0  0  0
  129.1340  126.9450   67.0250 C   0  0  0  0  0  0  0  0  0  0  0  0
  128.9130  127.2910   65.6950 C   0  0  0  0  0  0  0  0  0  0  0  0
  128.1110  130.2210   63.4700 C   0  0  0  0  0  0  0  0  0  0  0  0
  128.4420  131.3280   64.3740 C   0  0  0  0  0  0  0  0  0  0  0  0
  128.7020  132.2000   65.0890 N   0  0  0  0  0  0  0  0  0  0  0  0
  130.8470  127.7060   60.6640 C   0  0  0  0  0  0  0  0  0  0  0  0
  131.6300  126.5660   60.4980 C   0  0  0  0  0  0  0  0  0  0  0  0
  1  2  1  0
  2  3  1  0
  3  4  1  0
  4  5  2  0
  4  6  1  0
  6  7  2  0
  7  8  1  0
  8  9  2  0
  9 10  1  0
 10 11  1  0
 11 12  2  0
 11 13  1  0
 13 14  1  0
 14 15  1  0
 15 16  2  0
 16 17  1  0
 17 18  1  0
 18 19  2  0
 19 20  1  0
 20 21  2  0
 21 22  1  0
 22 23  1  0
 23 24  1  0
 24 25  1  0
 25 26  1  0
 26 27  1  0
 21 28  1  0
 28 29  2  0
 17 30  2  0
 30 31  1  0
 31 32  1  0
 32 33  2  0
 33 34  1  0
 34 35  2  0
 35 36  1  0
 36 37  1  0
 37 38  1  0
 38 39  1  0
 39 40  1  0
 40 41  1  0
 35 42  1  0
 42 43  2  0
 31 44  2  0
 44 45  1  0
 45 46  3  0
  9 47  1  0
 47 48  2  0
 48  6  1  0
 44 15  1  0
 29 18  1  0
 43 32  1  0
 27 22  1  0
 41 36  1  0
M  END
>  <Binding energies>  (8) 
[-10.76]

>  <Ligand effiencies>  (8) 
[-0.21959183673469387]

>  <Interactions>  (8) 
["V-B:GLU:543:CG:9879, H-B:TYR:484:OH:9319, V-A:GLU:543:CG:4907, V-B:TYR:484:CZ:9318, V-B:GLU:543:CD:9880, V-A:GLU:543:CD:4908, V-B:GLU:543:C:9874, V-B:GLU:543:CB:9878, V-B:HIS:456:CE1:9041, V-A:GLU:543:CB:4906, V-A:GLU:543:C:4902, V-A:HIS:456:CE1:4070, V-B:ASP:366:CG:8184, V-A:ASP:366:CG:3213, V-B:LEU:363:CD1:8160, V-B:PRO:540:N:9856, V-B:PRO:540:CA:9855, V-B:PRO:540:CB:9857, V-B:PRO:540:CD:9859, H-B:TYR:539:OH:9850, V-B:TYR:539:CE1:9847, V-B:TYR:539:CD1:9845, V-A:ASP:366:CB:3212, H-B:TYR:539:N:9842, V-A:HIS:456:CD2:4068, V-A:ASP:366:CA:3210, V-B:TYR:539:CE2:9848, V-A:ILE:369:CG2:3237, V-A:ILE:369:CD1:3239, V-B:TYR:539:CG:9844, V-B:TYR:539:CZ:9849, V-B:MET:535:CE:9807, V-B:ILE:538:CG2:9835, V-B:PRO:540:CG:9858, V-B:GLY:544:C:9884, V-B:GLY:544:CA:9886"]

$$$$
2aa_Ghoteimi_2023
     RDKit          3D

 48 53  0  0  0  0  0  0  0  0999 V2000
  129.0290  124.7800   54.6370 C   0  0  0  0  0  0  0  0  0  0  0  0
  128.3200  124.2710   55.8960 C   0  0  0  0  0  0  0  0  0  0  0  0
  127.6120  123.0770   55.5890 O   0  0  0  0  0  0  0  0  0  0  0  0
  126.7500  122.5230   56.4800 C   0  0  0  0  0  0  0  0  0  0  0  0
  125.8330  121.7600   56.1560 O   0  0  0  0  0  0  0  0  0  0  0  0
  127.0310  122.9170   57.9020 C   0  0  0  0  0  0  0  0  0  0  0  0
  128.0910  122.3560   58.6300 C   0  0  0  0  0  0  0  0  0  0  0  0
  128.3290  122.7440   59.9450 C   0  0  0  0  0  0  0  0  0  0  0  0
  127.5110  123.6930   60.5610 C   0  0  0  0  0  0  0  0  0  0  0  0
  127.8440  124.0150   61.8910 N   0  0  0  0  0  0  0  0  0  0  0  0
  129.0430  124.3160   62.4340 C   0  0  0  0  0  0  0  0  0  0  0  0
  130.1050  124.3900   61.8120 O   0  0  0  0  0  0  0  0  0  0  0  0
  129.0090  124.5990   63.9420 C   0  0  0  0  0  0  0  0  0  0  0  0
  129.7540  125.7890   64.2250 O   0  0  0  0  0  0  0  0  0  0  0  0
  129.2300  126.7530   65.0760 C   0  0  0  0  0  0  0  0  0  0  0  0
  128.5900  127.8190   64.5190 N   0  0  0  0  0  0  0  0  0  0  0  0
  128.0630  128.7770   65.3220 C   0  0  0  0  0  0  0  0  0  0  0  0
  127.3800  129.9200   64.6400 C   0  0  0  0  0  0  0  0  0  0  0  0
  126.0150  129.8610   64.3430 C   0  0  0  0  0  0  0  0  0  0  0  0
  125.3720  130.9240   63.7140 C   0  0  0  0  0  0  0  0  0  0  0  0
  126.0690  132.0940   63.3720 C   0  0  0  0  0  0  0  0  0  0  0  0
  125.4410  133.1670   62.7290 N   0  0  0  0  0  0  0  0  0  0  0  0
  126.1170  133.9220   61.6530 C   0  0  0  0  0  0  0  0  0  0  0  0
  125.4370  135.2650   61.3140 C   0  0  0  0  0  0  0  0  0  0  0  0
  124.0700  135.0520   61.0020 O   0  0  0  0  0  0  0  0  0  0  0  0
  123.3720  134.4770   62.0960 C   0  0  0  0  0  0  0  0  0  0  0  0
  123.9900  133.1100   62.4590 C   0  0  0  0  0  0  0  0  0  0  0  0
  127.4420  132.1390   63.6540 C   0  0  0  0  0  0  0  0  0  0  0  0
  128.0840  131.0740   64.2790 C   0  0  0  0  0  0  0  0  0  0  0  0
  128.1800  128.6980   66.7130 C   0  0  0  0  0  0  0  0  0  0  0  0
  128.8420  127.6190   67.3110 C   0  0  0  0  0  0  0  0  0  0  0  0
  128.9570  127.6030   68.8010 C   0  0  0  0  0  0  0  0  0  0  0  0
  130.0910  128.1260   69.4270 C   0  0  0  0  0  0  0  0  0  0  0  0
  130.2140  128.0960   70.8130 C   0  0  0  0  0  0  0  0  0  0  0  0
  129.2110  127.5290   71.6140 C   0  0  0  0  0  0  0  0  0  0  0  0
  129.3110  127.4910   73.0070 N   0  0  0  0  0  0  0  0  0  0  0  0
  128.7390  128.5600   73.8480 C   0  0  0  0  0  0  0  0  0  0  0  0
  128.6320  128.1780   75.3400 C   0  0  0  0  0  0  0  0  0  0  0  0
  129.9020  127.7740   75.8290 O   0  0  0  0  0  0  0  0  0  0  0  0
  130.4000  126.6490   75.1220 C   0  0  0  0  0  0  0  0  0  0  0  0
  130.5550  126.9910   73.6260 C   0  0  0  0  0  0  0  0  0  0  0  0
  128.0730  127.0130   70.9770 C   0  0  0  0  0  0  0  0  0  0  0  0
  127.9510  127.0430   69.5920 C   0  0  0  0  0  0  0  0  0  0  0  0
  129.3690  126.6120   66.4690 C   0  0  0  0  0  0  0  0  0  0  0  0
  130.0330  125.4220   67.0070 C   0  0  0  0  0  0  0  0  0  0  0  0
  130.5580  124.4830   67.4330 N   0  0  0  0  0  0  0  0  0  0  0  0
  126.4550  124.2640   59.8370 C   0  0  0  0  0  0  0  0  0  0  0  0
  126.2210  123.8760   58.5210 C   0  0  0  0  0  0  0  0  0  0  0  0
  1  2  1  0
  2  3  1  0
  3  4  1  0
  4  5  2  0
  4  6  1  0
  6  7  2  0
  7  8  1  0
  8  9  2  0
  9 10  1  0
 10 11  1  0
 11 12  2  0
 11 13  1  0
 13 14  1  0
 14 15  1  0
 15 16  2  0
 16 17  1  0
 17 18  1  0
 18 19  2  0
 19 20  1  0
 20 21  2  0
 21 22  1  0
 22 23  1  0
 23 24  1  0
 24 25  1  0
 25 26  1  0
 26 27  1  0
 21 28  1  0
 28 29  2  0
 17 30  2  0
 30 31  1  0
 31 32  1  0
 32 33  2  0
 33 34  1  0
 34 35  2  0
 35 36  1  0
 36 37  1  0
 37 38  1  0
 38 39  1  0
 39 40  1  0
 40 41  1  0
 35 42  1  0
 42 43  2  0
 31 44  2  0
 44 45  1  0
 45 46  3  0
  9 47  1  0
 47 48  2  0
 48  6  1  0
 44 15  1  0
 29 18  1  0
 43 32  1  0
 27 22  1  0
 41 36  1  0
M  END
>  <Binding energies>  (9) 
[-11.42]

>  <Ligand effiencies>  (9) 
[-0.2330612244897959]

>  <Interactions>  (9) 
["V-B:GLU:543:CG:9879, V-A:GLU:543:CG:4907, V-B:GLU:543:CD:9880, H-B:LYS:547:NZ:9923, V-A:GLU:543:CD:4908, V-B:GLU:543:C:9874, V-B:GLU:543:CB:9878, H-A:LYS:547:NZ:4951, V-B:HIS:456:CE1:9041, V-A:GLU:543:CB:4906, V-B:LEU:475:CD2:9230, V-A:GLU:543:C:4902, V-A:HIS:456:CE1:4070, V-A:GLY:544:C:4912, V-B:ILE:369:CG2:8208, V-B:GLY:454:CA:9020, V-A:TYR:539:CE1:4875, V-A:TYR:539:CD1:4873, V-B:SER:385:CB:8380, V-B:PRO:540:N:9856, V-B:PRO:540:CA:9855, V-B:PRO:540:CB:9857, V-B:TYR:539:C:9839, V-B:PRO:540:CD:9859, V-B:TYR:539:CE1:9847, V-B:TYR:539:CD1:9845, H-B:TYR:539:N:9842, H-A:TYR:484:OH:4348, V-A:HIS:456:CD2:4068, V-B:HIS:456:CD2:9039, V-B:TYR:539:CE2:9848, H-B:GLU:543:OE1:9881, V-B:TYR:539:CD2:9846, V-B:TYR:539:CG:9844, V-B:TYR:539:CZ:9849, V-B:SER:385:C:8376, V-B:SER:385:CA:8378, V-B:MET:535:CG:9805"]

$$$$
2b_Ghoteimi_2023
     RDKit          3D

 42 47  0  0  0  0  0  0  0  0999 V2000
  128.1970  132.5780   64.7830 N   0  0  0  0  0  0  0  0  0  0  0  0
  128.0230  131.6780   64.0770 C   0  0  0  0  0  0  0  0  0  0  0  0
  127.8020  130.5340   63.1870 C   0  0  0  0  0  0  0  0  0  0  0  0
  127.8500  129.2100   63.6920 C   0  0  0  0  0  0  0  0  0  0  0  0
  128.1180  128.8760   65.1220 C   0  0  0  0  0  0  0  0  0  0  0  0
  127.8570  129.8110   66.1250 C   0  0  0  0  0  0  0  0  0  0  0  0
  128.1060  129.5050   67.4600 C   0  0  0  0  0  0  0  0  0  0  0  0
  128.6400  128.2590   67.8270 C   0  0  0  0  0  0  0  0  0  0  0  0
  128.8860  127.9240   69.1590 N   0  0  0  0  0  0  0  0  0  0  0  0
  127.9890  126.9670   69.8370 C   0  0  0  0  0  0  0  0  0  0  0  0
  128.1350  126.9760   71.3740 C   0  0  0  0  0  0  0  0  0  0  0  0
  129.4880  126.7540   71.7380 O   0  0  0  0  0  0  0  0  0  0  0  0
  130.3450  127.7550   71.2100 C   0  0  0  0  0  0  0  0  0  0  0  0
  130.2610  127.7570   69.6690 C   0  0  0  0  0  0  0  0  0  0  0  0
  128.9020  127.3280   66.8120 C   0  0  0  0  0  0  0  0  0  0  0  0
  128.6490  127.6330   65.4780 C   0  0  0  0  0  0  0  0  0  0  0  0
  127.6280  128.1500   62.8040 C   0  0  0  0  0  0  0  0  0  0  0  0
  127.3350  128.4010   61.4610 C   0  0  0  0  0  0  0  0  0  0  0  0
  127.0600  127.3060   60.4800 C   0  0  0  0  0  0  0  0  0  0  0  0
  127.0560  127.5640   59.1050 C   0  0  0  0  0  0  0  0  0  0  0  0
  126.8170  126.5470   58.1850 C   0  0  0  0  0  0  0  0  0  0  0  0
  126.5600  125.2330   58.6070 C   0  0  0  0  0  0  0  0  0  0  0  0
  126.3490  124.1940   57.6940 N   0  0  0  0  0  0  0  0  0  0  0  0
  127.4830  123.3540   57.2580 C   0  0  0  0  0  0  0  0  0  0  0  0
  127.1890  122.5280   55.9870 C   0  0  0  0  0  0  0  0  0  0  0  0
  126.0200  121.7460   56.1760 O   0  0  0  0  0  0  0  0  0  0  0  0
  124.8870  122.5590   56.4340 C   0  0  0  0  0  0  0  0  0  0  0  0
  125.1120  123.3880   57.7160 C   0  0  0  0  0  0  0  0  0  0  0  0
  126.5730  124.9770   59.9860 C   0  0  0  0  0  0  0  0  0  0  0  0
  126.8150  125.9940   60.9040 C   0  0  0  0  0  0  0  0  0  0  0  0
  127.2880  129.6700   60.9800 N   0  0  0  0  0  0  0  0  0  0  0  0
  127.5320  130.7100   61.8120 C   0  0  0  0  0  0  0  0  0  0  0  0
  127.4350  132.2980   61.0140 S   0  0  0  0  0  0  0  0  0  0  0  0
  126.6290  132.0530   59.4020 C   0  0  0  0  0  0  0  0  0  0  0  0
  127.6390  132.0130   58.2550 C   0  0  0  0  0  0  0  0  0  0  0  0
  127.2910  131.5650   57.1600 O   0  0  0  0  0  0  0  0  0  0  0  0
  128.8710  132.4820   58.5480 N   0  0  0  0  0  0  0  0  0  0  0  0
  129.9630  132.5700   57.6960 C   0  0  0  0  0  0  0  0  0  0  0  0
  131.1100  131.7920   57.8480 C   0  0  0  0  0  0  0  0  0  0  0  0
  131.9400  132.1740   56.8200 C   0  0  0  0  0  0  0  0  0  0  0  0
  131.3250  133.1320   56.0870 O   0  0  0  0  0  0  0  0  0  0  0  0
  130.0710  133.3730   56.6510 N   0  0  0  0  0  0  0  0  0  0  0  0
  1  2  3  0
  2  3  1  0
  3  4  2  0
  4  5  1  0
  5  6  2  0
  6  7  1  0
  7  8  2  0
  8  9  1  0
  9 10  1  0
 10 11  1  0
 11 12  1  0
 12 13  1  0
 13 14  1  0
  8 15  1  0
 15 16  2  0
  4 17  1  0
 17 18  2  0
 18 19  1  0
 19 20  2  0
 20 21  1  0
 21 22  2  0
 22 23  1  0
 23 24  1  0
 24 25  1  0
 25 26  1  0
 26 27  1  0
 27 28  1  0
 22 29  1  0
 29 30  2  0
 18 31  1  0
 31 32  2  0
 32 33  1  0
 33 34  1  0
 34 35  1  0
 35 36  2  0
 35 37  1  0
 37 38  1  0
 38 39  1  0
 39 40  2  0
 40 41  1  0
 41 42  1  0
 32  3  1  0
 42 38  2  0
 16  5  1  0
 30 19  1  0
 14  9  1  0
 28 23  1  0
M  END
>  <Binding energies>  (10) 
[-11.6]

>  <Ligand effiencies>  (10) 
[-0.2697674418604651]

>  <Interactions>  (10) 
["V-B:GLU:543:CG:9879, H-B:TYR:484:OH:9319, V-A:GLU:543:CG:4907, V-B:TYR:484:CZ:9318, V-B:GLU:543:CD:9880, V-A:GLU:543:CD:4908, V-B:GLU:543:C:9874, V-B:GLU:543:CB:9878, V-B:HIS:456:CE1:9041, V-A:GLU:543:CB:4906, V-A:GLU:543:C:4902, V-A:HIS:456:CE1:4070, V-B:TYR:484:CE2:9317, V-A:GLY:544:C:4912, H-A:TYR:539:N:4870, V-A:LEU:363:CD1:3189, V-A:TYR:539:CE1:4875, V-A:TYR:539:CD1:4873, H-A:TYR:539:O:4868, V-A:PRO:540:N:4884, V-A:PRO:540:CA:4883, V-B:LEU:363:CD1:8160, V-B:PRO:540:N:9856, V-B:PRO:540:CA:9855, V-B:PRO:540:CB:9857, V-B:PRO:540:CD:9859, V-B:TYR:539:CE1:9847, V-B:TYR:539:CD1:9845, H-B:TYR:539:N:9842, V-B:TYR:539:CE2:9848, V-B:TYR:539:CG:9844, V-B:TYR:539:CZ:9849, V-B:MET:535:CE:9807, V-B:ILE:538:CG2:9835, V-B:PRO:540:CG:9858"]

$$$$
2c_Ghoteimi_2023
     RDKit          3D

 42 47  0  0  0  0  0  0  0  0999 V2000
  128.2580  132.2510   65.1250 N   0  0  0  0  0  0  0  0  0  0  0  0
  128.0910  131.3750   64.3890 C   0  0  0  0  0  0  0  0  0  0  0  0
  127.8780  130.2600   63.4600 C   0  0  0  0  0  0  0  0  0  0  0  0
  127.9550  128.9190   63.9130 C   0  0  0  0  0  0  0  0  0  0  0  0
  128.2520  128.5340   65.3260 C   0  0  0  0  0  0  0  0  0  0  0  0
  128.9500  127.3570   65.6010 C   0  0  0  0  0  0  0  0  0  0  0  0
  129.2350  126.9930   66.9150 C   0  0  0  0  0  0  0  0  0  0  0  0
  128.8150  127.7900   67.9920 C   0  0  0  0  0  0  0  0  0  0  0  0
  129.1070  127.4550   69.3160 N   0  0  0  0  0  0  0  0  0  0  0  0
  130.1390  128.2200   70.0440 C   0  0  0  0  0  0  0  0  0  0  0  0
  130.6280  127.5150   71.3270 C   0  0  0  0  0  0  0  0  0  0  0  0
  129.5250  127.2210   72.1710 O   0  0  0  0  0  0  0  0  0  0  0  0
  128.5890  126.3660   71.5330 C   0  0  0  0  0  0  0  0  0  0  0  0
  128.0470  127.0400   70.2550 C   0  0  0  0  0  0  0  0  0  0  0  0
  128.1110  128.9680   67.7050 C   0  0  0  0  0  0  0  0  0  0  0  0
  127.8290  129.3320   66.3910 C   0  0  0  0  0  0  0  0  0  0  0  0
  127.7410  127.8890   62.9880 C   0  0  0  0  0  0  0  0  0  0  0  0
  127.4330  128.1860   61.6570 C   0  0  0  0  0  0  0  0  0  0  0  0
  127.1800  127.1240   60.6360 C   0  0  0  0  0  0  0  0  0  0  0  0
  127.1980  125.7720   60.9910 C   0  0  0  0  0  0  0  0  0  0  0  0
  126.9570  124.7780   60.0450 C   0  0  0  0  0  0  0  0  0  0  0  0
  126.6990  125.1010   58.7040 C   0  0  0  0  0  0  0  0  0  0  0  0
  126.4310  124.1170   57.7470 N   0  0  0  0  0  0  0  0  0  0  0  0
  127.5230  123.2540   57.2520 C   0  0  0  0  0  0  0  0  0  0  0  0
  127.1750  122.4990   55.9520 C   0  0  0  0  0  0  0  0  0  0  0  0
  125.9830  121.7520   56.1280 O   0  0  0  0  0  0  0  0  0  0  0  0
  124.8850  122.5920   56.4470 C   0  0  0  0  0  0  0  0  0  0  0  0
  125.1650  123.3550   57.7590 C   0  0  0  0  0  0  0  0  0  0  0  0
  126.6690  126.4590   58.3540 C   0  0  0  0  0  0  0  0  0  0  0  0
  126.9090  127.4510   59.3010 C   0  0  0  0  0  0  0  0  0  0  0  0
  127.3580  129.4710   61.2260 N   0  0  0  0  0  0  0  0  0  0  0  0
  127.5920  130.4840   62.0950 C   0  0  0  0  0  0  0  0  0  0  0  0
  127.4630  132.0970   61.3580 S   0  0  0  0  0  0  0  0  0  0  0  0
  129.0400  132.9550   61.6430 C   0  0  0  0  0  0  0  0  0  0  0  0
  130.0760  132.6250   60.5670 C   0  0  0  0  0  0  0  0  0  0  0  0
  131.1910  132.2250   60.9040 O   0  0  0  0  0  0  0  0  0  0  0  0
  129.6700  132.8090   59.2920 N   0  0  0  0  0  0  0  0  0  0  0  0
  130.4090  132.5680   58.1430 C   0  0  0  0  0  0  0  0  0  0  0  0
  130.5220  133.3340   57.0800 N   0  0  0  0  0  0  0  0  0  0  0  0
  131.3140  132.7940   56.1750 C   0  0  0  0  0  0  0  0  0  0  0  0
  131.8640  131.5570   56.4990 C   0  0  0  0  0  0  0  0  0  0  0  0
  131.3080  131.0870   58.0770 S   0  0  0  0  0  0  0  0  0  0  0  0
  1  2  3  0
  2  3  1  0
  3  4  2  0
  4  5  1  0
  5  6  2  0
  6  7  1  0
  7  8  2  0
  8  9  1  0
  9 10  1  0
 10 11  1  0
 11 12  1  0
 12 13  1  0
 13 14  1  0
  8 15  1  0
 15 16  2  0
  4 17  1  0
 17 18  2  0
 18 19  1  0
 19 20  2  0
 20 21  1  0
 21 22  2  0
 22 23  1  0
 23 24  1  0
 24 25  1  0
 25 26  1  0
 26 27  1  0
 27 28  1  0
 22 29  1  0
 29 30  2  0
 18 31  1  0
 31 32  2  0
 32 33  1  0
 33 34  1  0
 34 35  1  0
 35 36  2  0
 35 37  1  0
 37 38  1  0
 38 39  2  0
 39 40  1  0
 40 41  2  0
 41 42  1  0
 32  3  1  0
 42 38  1  0
 16  5  1  0
 30 19  1  0
 14  9  1  0
 28 23  1  0
M  END
>  <Binding energies>  (11) 
[-11.6]

>  <Ligand effiencies>  (11) 
[-0.2697674418604651]

>  <Interactions>  (11) 
["V-B:GLU:543:CG:9879, H-B:TYR:484:OH:9319, V-A:GLU:543:CG:4907, V-B:TYR:484:CZ:9318, V-B:GLU:543:CD:9880, V-A:GLU:543:CD:4908, V-B:GLU:543:C:9874, V-B:GLU:543:CB:9878, V-B:HIS:456:CE1:9041, V-A:GLU:543:CB:4906, V-A:ALA:541:CB:4892, V-A:GLU:543:C:4902, V-A:HIS:456:CE1:4070, V-B:TYR:484:CE2:9317, V-A:GLY:544:C:4912, V-A:ILE:538:CB:4862, V-A:ILE:538:CA:4860, H-A:TYR:539:N:4870, V-A:LEU:363:CD1:3189, V-A:ILE:538:CG2:4863, V-A:PRO:540:C:4881, H-A:ALA:541:N:4891, V-A:TYR:539:C:4867, H-A:TYR:539:O:4868, V-A:PRO:540:N:4884, V-A:PRO:540:CA:4883, V-A:PRO:540:CB:4885, V-B:LEU:363:CD1:8160, V-B:PRO:540:N:9856, V-A:TYR:531:CE2:4793, V-B:PRO:540:CA:9855, V-B:PRO:540:CB:9857, V-B:PRO:540:CD:9859, V-B:TYR:539:CE1:9847, V-B:TYR:539:CD1:9845, H-B:TYR:539:N:9842, V-A:HIS:456:CD2:4068, V-B:TYR:539:CE2:9848, V-B:TYR:539:CG:9844, V-B:TYR:539:CZ:9849, V-B:MET:535:CE:9807, V-B:ILE:538:CG2:9835, V-B:ILE:538:CA:9832, V-B:PRO:540:CG:9858"]

$$$$
2j_Grossjean_2025
     RDKit          3D

 23 24  0  0  0  0  0  0  0  0999 V2000
  125.5870  131.0160   57.6990 C   0  0  0  0  0  0  0  0  0  0  0  0
  125.2830  131.5480   59.0880 C   0  0  0  0  0  0  0  0  0  0  0  0
  124.1270  131.1800   59.7730 C   0  0  0  0  0  0  0  0  0  0  0  0
  123.8920  131.6960   61.0560 C   0  0  0  0  0  0  0  0  0  0  0  0
  122.6090  131.2790   61.8000 C   0  0  0  0  0  0  0  0  0  0  0  0
  121.7350  130.7530   60.9420 F   0  0  0  0  0  0  0  0  0  0  0  0
  122.8970  130.3710   62.7340 F   0  0  0  0  0  0  0  0  0  0  0  0
  122.0090  132.3040   62.4090 F   0  0  0  0  0  0  0  0  0  0  0  0
  124.8470  132.5830   61.6140 C   0  0  0  0  0  0  0  0  0  0  0  0
  124.6530  133.1530   62.9510 C   0  0  0  0  0  0  0  0  0  0  0  0
  124.4990  133.6010   64.0070 N   0  0  0  0  0  0  0  0  0  0  0  0
  125.9930  132.9020   60.8470 C   0  0  0  0  0  0  0  0  0  0  0  0
  127.2620  134.0060   61.4500 S   0  0  0  0  0  0  0  0  0  0  0  0
  128.6840  133.0020   62.0000 C   0  0  0  0  0  0  0  0  0  0  0  0
  129.7470  132.7430   60.9230 C   0  0  0  0  0  0  0  0  0  0  0  0
  130.9140  132.5000   61.2350 O   0  0  0  0  0  0  0  0  0  0  0  0
  129.2940  132.8180   59.6510 N   0  0  0  0  0  0  0  0  0  0  0  0
  130.0360  132.6270   58.4930 C   0  0  0  0  0  0  0  0  0  0  0  0
  130.0780  133.3950   57.4260 N   0  0  0  0  0  0  0  0  0  0  0  0
  130.8950  132.9110   56.5110 C   0  0  0  0  0  0  0  0  0  0  0  0
  131.5400  131.7190   56.8300 C   0  0  0  0  0  0  0  0  0  0  0  0
  131.0410  131.2160   58.4180 S   0  0  0  0  0  0  0  0  0  0  0  0
  126.2030  132.3910   59.6080 N   0  0  0  0  0  0  0  0  0  0  0  0
  1  2  1  0
  2  3  2  0
  3  4  1  0
  4  5  1  0
  5  6  1  0
  5  7  1  0
  5  8  1  0
  4  9  2  0
  9 10  1  0
 10 11  3  0
  9 12  1  0
 12 13  1  0
 13 14  1  0
 14 15  1  0
 15 16  2  0
 15 17  1  0
 17 18  1  0
 18 19  2  0
 19 20  1  0
 20 21  2  0
 21 22  1  0
 12 23  2  0
 23  2  1  0
 22 18  1  0
M  END
>  <Binding energies>  (12) 
[-5.9]

>  <Ligand effiencies>  (12) 
[-0.24583333333333335]

>  <Interactions>  (12) 
["H-B:TYR:484:OH:9319, V-B:ARG:545:CZ:9898, V-A:ALA:541:CB:4892, V-B:LEU:475:CD2:9230, V-A:ILE:538:CB:4862, V-A:ILE:538:CA:4860, V-B:ILE:369:CG2:8208, V-B:GLY:454:CA:9020, H-A:TYR:539:N:4870, V-B:ASP:366:CB:8183, V-B:ASP:366:CA:8181, V-A:LEU:363:CD1:3189, V-B:ILE:369:CB:8207, V-A:TYR:539:CE1:4875, V-B:ASP:366:CG:8184, V-A:TYR:539:CD1:4873, V-A:TYR:539:CZ:4877, V-A:ILE:538:CG2:4863, V-A:PRO:540:C:4881, H-A:ALA:541:N:4891, V-A:TYR:539:C:4867, H-A:TYR:539:O:4868, V-A:PRO:540:N:4884, V-A:PRO:540:CA:4883, V-A:PRO:540:CB:4885, H-B:GLY:454:N:9021, V-B:ILE:369:CG1:8209, V-B:GLY:453:C:9013, V-B:ILE:369:CD1:8210, V-B:GLY:453:CA:9015, V-B:CYS:365:C:8175"]

$$$$
3ab_Grossjean_2025
     RDKit          3D

 33 35  0  0  0  0  0  0  0  0999 V2000
  125.2990  129.6150   64.8130 C   0  0  0  0  0  0  0  0  0  0  0  0
  124.5700  130.6520   64.1700 O   0  0  0  0  0  0  0  0  0  0  0  0
  123.7470  130.3830   63.1250 C   0  0  0  0  0  0  0  0  0  0  0  0
  122.5930  129.9650   63.2560 O   0  0  0  0  0  0  0  0  0  0  0  0
  124.3800  130.6470   61.7890 C   0  0  0  0  0  0  0  0  0  0  0  0
  123.7760  131.4770   60.8320 C   0  0  0  0  0  0  0  0  0  0  0  0
  124.3860  131.7060   59.6010 C   0  0  0  0  0  0  0  0  0  0  0  0
  125.6190  131.1030   59.3050 C   0  0  0  0  0  0  0  0  0  0  0  0
  126.3270  131.2670   58.0990 N   0  0  0  0  0  0  0  0  0  0  0  0
  125.8740  131.3240   56.8290 C   0  0  0  0  0  0  0  0  0  0  0  0
  124.6970  131.2210   56.4840 O   0  0  0  0  0  0  0  0  0  0  0  0
  126.9480  131.5300   55.7580 C   0  0  0  0  0  0  0  0  0  0  0  0
  128.0150  132.9550   56.1260 S   0  0  0  0  0  0  0  0  0  0  0  0
  129.1630  132.4510   57.3900 C   0  0  0  0  0  0  0  0  0  0  0  0
  128.6990  132.6380   58.6480 N   0  0  0  0  0  0  0  0  0  0  0  0
  129.4700  132.2920   59.7120 C   0  0  0  0  0  0  0  0  0  0  0  0
  128.8820  132.5290   61.0710 C   0  0  0  0  0  0  0  0  0  0  0  0
  129.4820  131.9850   62.2180 C   0  0  0  0  0  0  0  0  0  0  0  0
  128.9410  132.2020   63.4830 C   0  0  0  0  0  0  0  0  0  0  0  0
  127.7880  132.9680   63.6180 C   0  0  0  0  0  0  0  0  0  0  0  0
  127.1710  133.5150   62.4970 C   0  0  0  0  0  0  0  0  0  0  0  0
  127.7150  133.2950   61.2350 C   0  0  0  0  0  0  0  0  0  0  0  0
  130.7510  131.7610   59.5250 C   0  0  0  0  0  0  0  0  0  0  0  0
  131.2610  131.5760   58.2320 C   0  0  0  0  0  0  0  0  0  0  0  0
  132.6790  130.9940   58.0690 C   0  0  0  0  0  0  0  0  0  0  0  0
  133.1520  131.1220   56.8280 F   0  0  0  0  0  0  0  0  0  0  0  0
  133.5290  131.6180   58.8860 F   0  0  0  0  0  0  0  0  0  0  0  0
  132.6730  129.6930   58.3650 F   0  0  0  0  0  0  0  0  0  0  0  0
  130.4520  131.9370   57.1260 C   0  0  0  0  0  0  0  0  0  0  0  0
  130.9590  131.8160   55.7560 C   0  0  0  0  0  0  0  0  0  0  0  0
  131.3610  131.7200   54.6750 N   0  0  0  0  0  0  0  0  0  0  0  0
  126.2250  130.2820   60.2570 C   0  0  0  0  0  0  0  0  0  0  0  0
  125.6120  130.0540   61.4850 C   0  0  0  0  0  0  0  0  0  0  0  0
  1  2  1  0
  2  3  1  0
  3  4  2  0
  3  5  1  0
  5  6  2  0
  6  7  1  0
  7  8  2  0
  8  9  1  0
  9 10  1  0
 10 11  2  0
 10 12  1  0
 12 13  1  0
 13 14  1  0
 14 15  2  0
 15 16  1  0
 16 17  1  0
 17 18  2  0
 18 19  1  0
 19 20  2  0
 20 21  1  0
 21 22  2  0
 16 23  2  0
 23 24  1  0
 24 25  1  0
 25 26  1  0
 25 27  1  0
 25 28  1  0
 24 29  2  0
 29 30  1  0
 30 31  3  0
  8 32  1  0
 32 33  2  0
 33  5  1  0
 29 14  1  0
 22 17  1  0
M  END
>  <Binding energies>  (13) 
[-7.56]

>  <Ligand effiencies>  (13) 
[-0.2223529411764706]

>  <Interactions>  (13) 
["H-B:TYR:484:OH:9319, V-A:GLU:543:CG:4907, V-B:ARG:545:CZ:9898, V-A:ALA:541:CB:4892, V-B:LEU:475:CD2:9230, V-A:ILE:538:CB:4862, V-B:ILE:369:CG2:8208, V-A:MET:535:CE:4835, V-A:LEU:363:CD1:3189, H-A:TYR:539:OH:4878, V-B:ILE:369:CB:8207, V-A:TYR:539:CE1:4875, V-B:ASP:366:CG:8184, V-A:TYR:539:CZ:4877, H-B:TYR:531:OH:9767, V-A:ILE:538:CG2:4863, V-A:PRO:540:CA:4883, V-A:PRO:540:CB:4885, V-A:ASP:366:CG:3213, V-A:LEU:363:CA:3185, V-A:LEU:363:CB:3187, V-A:TYR:531:CE2:4793, V-A:TYR:531:CZ:4794, V-A:ASP:366:CB:3212, H-B:ARG:545:NH1:9899, H-B:ARG:545:NH2:9900, H-B:GLY:454:N:9021, V-A:LEU:363:CG:3188"]

$$$$
3ac_Grossjean_2025
     RDKit          3D

 31 33  0  0  0  0  0  0  0  0999 V2000
  128.0930  138.2060   62.0440 C   0  0  0  0  0  0  0  0  0  0  0  0
  126.8440  138.2700   61.3620 O   0  0  0  0  0  0  0  0  0  0  0  0
  126.0870  137.1220   61.2310 C   0  0  0  0  0  0  0  0  0  0  0  0
  126.7620  135.9110   61.3820 C   0  0  0  0  0  0  0  0  0  0  0  0
  126.0820  134.7020   61.2720 C   0  0  0  0  0  0  0  0  0  0  0  0
  124.7130  134.6870   60.9980 C   0  0  0  0  0  0  0  0  0  0  0  0
  124.1090  133.4180   60.9250 N   0  0  0  0  0  0  0  0  0  0  0  0
  123.2210  132.8480   61.7670 C   0  0  0  0  0  0  0  0  0  0  0  0
  122.7380  133.3870   62.7640 O   0  0  0  0  0  0  0  0  0  0  0  0
  122.8040  131.4180   61.4180 C   0  0  0  0  0  0  0  0  0  0  0  0
  124.0580  130.5620   60.4160 S   0  0  0  0  0  0  0  0  0  0  0  0
  125.6690  131.1740   60.8710 C   0  0  0  0  0  0  0  0  0  0  0  0
  126.4370  131.4990   59.8030 N   0  0  0  0  0  0  0  0  0  0  0  0
  127.6900  131.9870   59.9940 C   0  0  0  0  0  0  0  0  0  0  0  0
  128.4760  132.3160   58.7600 C   0  0  0  0  0  0  0  0  0  0  0  0
  127.8590  132.3310   57.4980 C   0  0  0  0  0  0  0  0  0  0  0  0
  128.5820  132.6410   56.3490 C   0  0  0  0  0  0  0  0  0  0  0  0
  129.9370  132.9400   56.4470 C   0  0  0  0  0  0  0  0  0  0  0  0
  130.5730  132.9270   57.6830 C   0  0  0  0  0  0  0  0  0  0  0  0
  129.8470  132.6160   58.8290 C   0  0  0  0  0  0  0  0  0  0  0  0
  128.2100  132.1410   61.2830 C   0  0  0  0  0  0  0  0  0  0  0  0
  127.4440  131.7900   62.4040 C   0  0  0  0  0  0  0  0  0  0  0  0
  128.0590  131.9710   63.8060 C   0  0  0  0  0  0  0  0  0  0  0  0
  129.3660  132.2370   63.7690 F   0  0  0  0  0  0  0  0  0  0  0  0
  127.4670  132.9830   64.4430 F   0  0  0  0  0  0  0  0  0  0  0  0
  127.8940  130.8570   64.5200 F   0  0  0  0  0  0  0  0  0  0  0  0
  126.1390  131.2770   62.2010 C   0  0  0  0  0  0  0  0  0  0  0  0
  125.3320  130.8250   63.3360 C   0  0  0  0  0  0  0  0  0  0  0  0
  124.6950  130.4670   64.2340 N   0  0  0  0  0  0  0  0  0  0  0  0
  124.0250  135.9010   60.8520 C   0  0  0  0  0  0  0  0  0  0  0  0
  124.7080  137.1090   60.9640 C   0  0  0  0  0  0  0  0  0  0  0  0
  1  2  1  0
  2  3  1  0
  3  4  2  0
  4  5  1  0
  5  6  2  0
  6  7  1  0
  7  8  1  0
  8  9  2  0
  8 10  1  0
 10 11  1  0
 11 12  1  0
 12 13  2  0
 13 14  1  0
 14 15  1  0
 15 16  2  0
 16 17  1  0
 17 18  2  0
 18 19  1  0
 19 20  2  0
 14 21  2  0
 21 22  1  0
 22 23  1  0
 23 24  1  0
 23 25  1  0
 23 26  1  0
 22 27  2  0
 27 28  1  0
 28 29  3  0
  6 30  1  0
 30 31  2  0
 31  3  1  0
 27 12  1  0
 20 15  1  0
M  END
>  <Binding energies>  (14) 
[-7.88]

>  <Ligand effiencies>  (14) 
[-0.24625]

>  <Interactions>  (14) 
["H-B:TYR:484:OH:9319, V-A:GLU:543:CG:4907, V-B:TYR:484:CZ:9318, V-A:GLU:543:CD:4908, V-A:ALA:541:CB:4892, V-B:LEU:475:CD2:9230, V-B:TYR:484:CE2:9317, V-A:ILE:538:CB:4862, V-A:ILE:538:CA:4860, V-B:ILE:369:CG2:8208, V-A:ILE:538:C:4858, V-A:MET:535:CE:4835, V-B:ILE:369:CB:8207, V-A:TYR:539:CE1:4875, V-A:TYR:539:CD1:4873, V-A:TYR:539:CZ:4877, V-A:ALA:541:CA:4890, V-A:VAL:344:CG1:3001, V-A:TYR:539:C:4867, V-A:PRO:540:N:4884, V-B:PRO:482:CB:9297, H-B:HIS:383:NE2:8365, V-A:PRO:540:CA:4883, V-A:PRO:540:CB:4885, V-B:SER:385:CB:8380, V-A:PRO:540:CD:4887, H-B:GLY:454:N:9021, V-B:ILE:369:CG1:8209, V-B:LEU:373:CD1:8251, V-B:HIS:383:CD2:8363, V-B:SER:385:CA:8378"]

$$$$
3af_Grossjean_2025
     RDKit          3D

 29 31  0  0  0  0  0  0  0  0999 V2000
  124.3780  130.3650   64.8410 N   0  0  0  0  0  0  0  0  0  0  0  0
  124.5280  130.5250   63.7040 C   0  0  0  0  0  0  0  0  0  0  0  0
  124.7160  130.7270   62.2650 C   0  0  0  0  0  0  0  0  0  0  0  0
  123.6020  130.9080   61.4100 C   0  0  0  0  0  0  0  0  0  0  0  0
  122.1520  130.9530   61.9290 C   0  0  0  0  0  0  0  0  0  0  0  0
  121.9080  130.0320   62.8650 F   0  0  0  0  0  0  0  0  0  0  0  0
  121.8970  132.1470   62.4640 F   0  0  0  0  0  0  0  0  0  0  0  0
  121.2990  130.7360   60.9270 F   0  0  0  0  0  0  0  0  0  0  0  0
  123.8300  131.0430   60.0310 C   0  0  0  0  0  0  0  0  0  0  0  0
  125.1320  130.9970   59.5230 C   0  0  0  0  0  0  0  0  0  0  0  0
  125.4310  131.1170   58.0580 C   0  0  0  0  0  0  0  0  0  0  0  0
  126.7290  131.4160   57.6120 C   0  0  0  0  0  0  0  0  0  0  0  0
  127.0120  131.5270   56.2540 C   0  0  0  0  0  0  0  0  0  0  0  0
  126.0000  131.3380   55.3200 C   0  0  0  0  0  0  0  0  0  0  0  0
  124.7060  131.0370   55.7340 C   0  0  0  0  0  0  0  0  0  0  0  0
  124.4270  130.9270   57.0940 C   0  0  0  0  0  0  0  0  0  0  0  0
  126.1970  130.8200   60.3460 N   0  0  0  0  0  0  0  0  0  0  0  0
  126.0040  130.7100   61.6830 C   0  0  0  0  0  0  0  0  0  0  0  0
  127.5170  130.5000   62.5990 S   0  0  0  0  0  0  0  0  0  0  0  0
  128.3250  132.1240   62.7310 C   0  0  0  0  0  0  0  0  0  0  0  0
  129.4270  132.2970   61.6870 C   0  0  0  0  0  0  0  0  0  0  0  0
  130.5720  132.5510   62.0610 O   0  0  0  0  0  0  0  0  0  0  0  0
  129.0340  132.1600   60.4020 N   0  0  0  0  0  0  0  0  0  0  0  0
  129.7870  132.2650   59.2160 C   0  0  0  0  0  0  0  0  0  0  0  0
  130.9590  131.5450   58.9210 C   0  0  0  0  0  0  0  0  0  0  0  0
  131.6080  131.7510   57.7020 C   0  0  0  0  0  0  0  0  0  0  0  0
  131.0690  132.6740   56.8050 C   0  0  0  0  0  0  0  0  0  0  0  0
  129.9410  133.3800   57.0650 N   0  0  0  0  0  0  0  0  0  0  0  0
  129.3220  133.1680   58.2550 C   0  0  0  0  0  0  0  0  0  0  0  0
  1  2  3  0
  2  3  1  0
  3  4  2  0
  4  5  1  0
  5  6  1  0
  5  7  1  0
  5  8  1  0
  4  9  1  0
  9 10  2  0
 10 11  1  0
 11 12  2  0
 12 13  1  0
 13 14  2  0
 14 15  1  0
 15 16  2  0
 10 17  1  0
 17 18  2  0
 18 19  1  0
 19 20  1  0
 20 21  1  0
 21 22  2  0
 21 23  1  0
 23 24  1  0
 24 25  2  0
 25 26  1  0
 26 27  2  0
 27 28  1  0
 28 29  2  0
 18  3  1  0
 29 24  1  0
 16 11  1  0
M  END
>  <Binding energies>  (15) 
[-7.99]

>  <Ligand effiencies>  (15) 
[-0.26633333333333337]

>  <Interactions>  (15) 
["H-B:TYR:484:OH:9319, V-B:ARG:545:CZ:9898, V-B:TYR:531:CZ:9766, V-A:ILE:538:CB:4862, V-B:ILE:369:CG2:8208, V-B:GLY:454:CA:9020, H-A:TYR:539:N:4870, V-B:ASP:366:CB:8183, V-B:TYR:531:CE1:9764, V-A:MET:535:CE:4835, V-B:ASP:366:CA:8181, V-A:LEU:363:CD1:3189, V-B:ILE:369:CB:8207, V-A:TYR:539:CE1:4875, V-B:ASP:366:CG:8184, V-A:TYR:539:CD1:4873, V-A:TYR:539:CZ:4877, H-A:ALA:541:N:4891, V-A:TYR:539:C:4867, V-A:PRO:540:N:4884, V-A:PRO:540:CA:4883, V-A:PRO:540:CB:4885, V-A:TYR:539:CA:4869, H-B:GLY:454:N:9021, V-B:ILE:369:CG1:8209, V-B:GLY:453:C:9013, V-B:ILE:369:CD1:8210, V-B:GLY:453:CA:9015, V-B:CYS:365:C:8175"]

$$$$
3ag_Grossjean_2025
     RDKit          3D

 30 32  0  0  0  0  0  0  0  0999 V2000
  124.0410  129.9190   64.9490 N   0  0  0  0  0  0  0  0  0  0  0  0
  124.4950  130.2390   63.9330 C   0  0  0  0  0  0  0  0  0  0  0  0
  125.0660  130.6450   62.6460 C   0  0  0  0  0  0  0  0  0  0  0  0
  124.2310  131.0930   61.5930 C   0  0  0  0  0  0  0  0  0  0  0  0
  122.7050  131.2380   61.7460 C   0  0  0  0  0  0  0  0  0  0  0  0
  122.1820  130.3480   62.5910 F   0  0  0  0  0  0  0  0  0  0  0  0
  122.4090  132.4540   62.2080 F   0  0  0  0  0  0  0  0  0  0  0  0
  122.1060  131.0660   60.5660 F   0  0  0  0  0  0  0  0  0  0  0  0
  124.8210  131.4190   60.3620 C   0  0  0  0  0  0  0  0  0  0  0  0
  126.2020  131.2890   60.1830 C   0  0  0  0  0  0  0  0  0  0  0  0
  126.8840  131.6210   58.8910 C   0  0  0  0  0  0  0  0  0  0  0  0
  128.0580  132.3900   58.8760 C   0  0  0  0  0  0  0  0  0  0  0  0
  128.6960  132.7020   57.6780 C   0  0  0  0  0  0  0  0  0  0  0  0
  128.1670  132.2460   56.4750 C   0  0  0  0  0  0  0  0  0  0  0  0
  127.0030  131.4840   56.4620 C   0  0  0  0  0  0  0  0  0  0  0  0
  126.3670  131.1760   57.6610 C   0  0  0  0  0  0  0  0  0  0  0  0
  127.0010  130.8710   61.1990 N   0  0  0  0  0  0  0  0  0  0  0  0
  126.4550  130.5700   62.4030 C   0  0  0  0  0  0  0  0  0  0  0  0
  127.6490  130.0440   63.6120 S   0  0  0  0  0  0  0  0  0  0  0  0
  128.4570  131.5370   64.2610 C   0  0  0  0  0  0  0  0  0  0  0  0
  128.7880  132.5420   63.1560 C   0  0  0  0  0  0  0  0  0  0  0  0
  129.9430  132.6340   62.7350 O   0  0  0  0  0  0  0  0  0  0  0  0
  127.7640  133.2800   62.6940 N   0  0  0  0  0  0  0  0  0  0  0  0
  127.8480  134.2700   61.6200 C   0  0  0  0  0  0  0  0  0  0  0  0
  126.5520  135.0350   61.3770 C   0  0  0  0  0  0  0  0  0  0  0  0
  125.3350  134.3480   61.3490 C   0  0  0  0  0  0  0  0  0  0  0  0
  124.1460  135.0470   61.1570 C   0  0  0  0  0  0  0  0  0  0  0  0
  124.1780  136.4320   61.0020 C   0  0  0  0  0  0  0  0  0  0  0  0
  125.3850  137.1240   61.0440 C   0  0  0  0  0  0  0  0  0  0  0  0
  126.5740  136.4260   61.2370 C   0  0  0  0  0  0  0  0  0  0  0  0
  1  2  3  0
  2  3  1  0
  3  4  2  0
  4  5  1  0
  5  6  1  0
  5  7  1  0
  5  8  1  0
  4  9  1  0
  9 10  2  0
 10 11  1  0
 11 12  2  0
 12 13  1  0
 13 14  2  0
 14 15  1  0
 15 16  2  0
 10 17  1  0
 17 18  2  0
 18 19  1  0
 19 20  1  0
 20 21  1  0
 21 22  2  0
 21 23  1  0
 23 24  1  0
 24 25  1  0
 25 26  2  0
 26 27  1  0
 27 28  2  0
 28 29  1  0
 29 30  2  0
 18  3  1  0
 30 25  1  0
 16 11  1  0
M  END
>  <Binding energies>  (16) 
[-7.57]

>  <Ligand effiencies>  (16) 
[-0.24419354838709678]

>  <Interactions>  (16) 
["H-B:TYR:484:OH:9319, V-A:GLU:543:CG:4907, V-B:ARG:545:CZ:9898, V-A:GLU:543:CD:4908, V-A:ALA:541:CB:4892, V-B:LEU:475:CD2:9230, V-B:ILE:369:CG2:8208, V-B:GLY:454:CA:9020, V-B:ASP:366:CB:8183, V-A:MET:535:CE:4835, V-B:ASP:366:CA:8181, V-B:ILE:369:CB:8207, V-A:TYR:539:CE1:4875, V-B:ASP:366:CG:8184, V-A:TYR:539:CD1:4873, V-A:TYR:539:CZ:4877, H-A:ALA:541:N:4891, V-A:TYR:539:C:4867, V-B:SER:385:CB:8380, H-B:ARG:545:NH2:9900, H-B:GLY:454:N:9021, V-B:ILE:369:CG1:8209, H-B:ARG:545:NE:9896, V-B:GLY:453:C:9013, V-B:ILE:369:CD1:8210, V-B:LEU:373:CD1:8251, V-B:HIS:383:CD2:8363, V-B:SER:385:CA:8378, V-B:GLY:453:CA:9015, V-B:CYS:365:C:8175"]

$$$$
3bc_Grossjean_2025
     RDKit          3D

 28 30  0  0  0  0  0  0  0  0999 V2000
  131.7820  132.3730   55.7490 C   0  0  0  0  0  0  0  0  0  0  0  0
  131.0040  133.3510   56.4280 O   0  0  0  0  0  0  0  0  0  0  0  0
  130.3160  132.9900   57.5720 C   0  0  0  0  0  0  0  0  0  0  0  0
  131.0000  132.1800   58.4780 C   0  0  0  0  0  0  0  0  0  0  0  0
  130.3900  131.7640   59.6590 C   0  0  0  0  0  0  0  0  0  0  0  0
  129.0780  132.1470   59.9440 C   0  0  0  0  0  0  0  0  0  0  0  0
  128.5500  131.6890   61.1660 N   0  0  0  0  0  0  0  0  0  0  0  0
  129.0680  131.7870   62.4090 C   0  0  0  0  0  0  0  0  0  0  0  0
  130.1260  132.3570   62.6850 O   0  0  0  0  0  0  0  0  0  0  0  0
  128.2100  131.1540   63.5140 C   0  0  0  0  0  0  0  0  0  0  0  0
  127.3140  129.6400   63.0290 S   0  0  0  0  0  0  0  0  0  0  0  0
  125.9060  130.1290   62.0580 C   0  0  0  0  0  0  0  0  0  0  0  0
  126.1630  130.2140   60.7290 N   0  0  0  0  0  0  0  0  0  0  0  0
  125.1740  130.5750   59.8700 C   0  0  0  0  0  0  0  0  0  0  0  0
  125.5460  130.6660   58.4200 C   0  0  0  0  0  0  0  0  0  0  0  0
  124.5890  131.0150   57.4560 C   0  0  0  0  0  0  0  0  0  0  0  0
  124.9260  131.1010   56.1070 C   0  0  0  0  0  0  0  0  0  0  0  0
  126.2310  130.8370   55.7050 C   0  0  0  0  0  0  0  0  0  0  0  0
  127.1990  130.4860   56.6410 C   0  0  0  0  0  0  0  0  0  0  0  0
  126.8560  130.4000   57.9880 C   0  0  0  0  0  0  0  0  0  0  0  0
  123.8870  130.8630   60.3370 C   0  0  0  0  0  0  0  0  0  0  0  0
  123.6000  130.7570   61.7020 C   0  0  0  0  0  0  0  0  0  0  0  0
  122.1760  131.0640   62.1640 C   0  0  0  0  0  0  0  0  0  0  0  0
  124.6220  130.3720   62.5960 C   0  0  0  0  0  0  0  0  0  0  0  0
  124.3320  130.2070   64.0220 C   0  0  0  0  0  0  0  0  0  0  0  0
  124.1000  130.0790   65.1480 N   0  0  0  0  0  0  0  0  0  0  0  0
  128.3880  132.9720   59.0440 C   0  0  0  0  0  0  0  0  0  0  0  0
  129.0020  133.3870   57.8650 C   0  0  0  0  0  0  0  0  0  0  0  0
  1  2  1  0
  2  3  1  0
  3  4  2  0
  4  5  1  0
  5  6  2  0
  6  7  1  0
  7  8  1  0
  8  9  2  0
  8 10  1  0
 10 11  1  0
 11 12  1  0
 12 13  2  0
 13 14  1  0
 14 15  1  0
 15 16  2  0
 16 17  1  0
 17 18  2  0
 18 19  1  0
 19 20  2  0
 14 21  2  0
 21 22  1  0
 22 23  1  0
 22 24  2  0
 24 25  1  0
 25 26  3  0
  6 27  1  0
 27 28  2  0
 28  3  1  0
 24 12  1  0
 20 15  1  0
M  END
>  <Binding energies>  (17) 
[-8.08]

>  <Ligand effiencies>  (17) 
[-0.2786206896551724]

>  <Interactions>  (17) 
["H-B:TYR:484:OH:9319, V-B:ARG:545:CZ:9898, V-B:TYR:531:CZ:9766, V-A:ILE:538:CB:4862, V-A:ILE:538:CA:4860, V-B:ILE:369:CG2:8208, V-A:TYR:539:CG:4872, V-B:GLY:454:CA:9020, H-A:TYR:539:N:4870, V-B:ASP:366:CB:8183, V-B:TYR:531:CE1:9764, V-A:MET:535:CE:4835, V-B:ASP:366:CA:8181, V-A:LEU:363:CD1:3189, V-A:TYR:539:CE1:4875, V-B:ASP:366:CG:8184, V-A:TYR:539:CD1:4873, V-A:TYR:539:CZ:4877, V-A:ILE:538:CG2:4863, H-A:ALA:541:N:4891, V-A:TYR:539:C:4867, V-A:PRO:540:N:4884, V-A:PRO:540:CA:4883, V-A:PRO:540:CB:4885, V-A:PRO:540:CD:4887, V-A:TYR:539:CA:4869, H-B:GLY:454:N:9021, V-B:ILE:369:CG1:8209, H-B:ARG:545:NE:9896, V-B:GLY:453:C:9013, V-B:GLY:453:CA:9015"]

$$$$
3bd_Grossjean_2025
     RDKit          3D

 26 28  0  0  0  0  0  0  0  0999 V2000
  126.7810  131.8430   56.1050 C   0  0  0  0  0  0  0  0  0  0  0  0
  126.9900  131.8730   57.6180 C   0  0  0  0  0  0  0  0  0  0  0  0
  125.9210  131.5050   58.4420 C   0  0  0  0  0  0  0  0  0  0  0  0
  126.0710  131.5230   59.8330 C   0  0  0  0  0  0  0  0  0  0  0  0
  124.9680  131.1360   60.7730 C   0  0  0  0  0  0  0  0  0  0  0  0
  125.2440  130.4130   61.9450 C   0  0  0  0  0  0  0  0  0  0  0  0
  124.2240  130.0500   62.8200 C   0  0  0  0  0  0  0  0  0  0  0  0
  122.9100  130.4050   62.5350 C   0  0  0  0  0  0  0  0  0  0  0  0
  122.6090  131.1190   61.3800 C   0  0  0  0  0  0  0  0  0  0  0  0
  123.6320  131.4800   60.5070 C   0  0  0  0  0  0  0  0  0  0  0  0
  127.2530  131.8820   60.4000 N   0  0  0  0  0  0  0  0  0  0  0  0
  128.3010  132.2430   59.6160 C   0  0  0  0  0  0  0  0  0  0  0  0
  129.7920  132.7050   60.4830 S   0  0  0  0  0  0  0  0  0  0  0  0
  129.3750  132.9380   62.2370 C   0  0  0  0  0  0  0  0  0  0  0  0
  128.0120  133.6070   62.4180 C   0  0  0  0  0  0  0  0  0  0  0  0
  127.3150  133.2930   63.3830 O   0  0  0  0  0  0  0  0  0  0  0  0
  127.6700  134.5050   61.4680 N   0  0  0  0  0  0  0  0  0  0  0  0
  126.5080  135.2950   61.3740 C   0  0  0  0  0  0  0  0  0  0  0  0
  125.3020  134.6010   61.2470 C   0  0  0  0  0  0  0  0  0  0  0  0
  124.1010  135.2970   61.1390 C   0  0  0  0  0  0  0  0  0  0  0  0
  124.1070  136.6890   61.1460 C   0  0  0  0  0  0  0  0  0  0  0  0
  125.3050  137.3920   61.2570 C   0  0  0  0  0  0  0  0  0  0  0  0
  126.5070  136.6990   61.3680 C   0  0  0  0  0  0  0  0  0  0  0  0
  128.2140  132.2550   58.2080 C   0  0  0  0  0  0  0  0  0  0  0  0
  129.3540  132.6450   57.3720 C   0  0  0  0  0  0  0  0  0  0  0  0
  130.2530  132.9520   56.7110 N   0  0  0  0  0  0  0  0  0  0  0  0
  1  2  1  0
  2  3  2  0
  3  4  1  0
  4  5  1  0
  5  6  2  0
  6  7  1  0
  7  8  2  0
  8  9  1  0
  9 10  2  0
  4 11  2  0
 11 12  1  0
 12 13  1  0
 13 14  1  0
 14 15  1  0
 15 16  2  0
 15 17  1  0
 17 18  1  0
 18 19  2  0
 19 20  1  0
 20 21  2  0
 21 22  1  0
 22 23  2  0
 12 24  2  0
 24 25  1  0
 25 26  3  0
 24  2  1  0
 10  5  1  0
 23 18  1  0
M  END
>  <Binding energies>  (18) 
[-7.92]

>  <Ligand effiencies>  (18) 
[-0.29333333333333333]

>  <Interactions>  (18) 
["V-B:ARG:545:CZ:9898, V-A:ALA:541:CB:4892, V-B:LEU:475:CD2:9230, V-B:ILE:369:CG2:8208, H-A:TYR:539:N:4870, V-A:MET:535:CE:4835, V-B:ASP:366:CA:8181, V-B:ILE:369:CB:8207, V-A:TYR:539:CE1:4875, V-B:ASP:366:CG:8184, V-A:TYR:539:CD1:4873, V-A:TYR:539:CE2:4876, V-A:TYR:539:CZ:4877, V-A:ALA:541:CA:4890, V-A:PRO:540:C:4881, H-A:ALA:541:N:4891, V-A:TYR:539:C:4867, H-A:TYR:539:O:4868, V-A:PRO:540:CA:4883, V-B:SER:385:CB:8380, V-B:ILE:369:CG1:8209, V-B:GLY:453:C:9013, V-B:HIS:383:CD2:8363, V-B:SER:385:CA:8378, V-B:GLY:453:CA:9015"]

$$$$
3be_Grossjean_2025
     RDKit          3D

 27 29  0  0  0  0  0  0  0  0999 V2000
  128.6310  133.3870   55.4490 C   0  0  0  0  0  0  0  0  0  0  0  0
  129.4020  132.9120   56.6650 C   0  0  0  0  0  0  0  0  0  0  0  0
  130.7610  132.6010   56.5940 C   0  0  0  0  0  0  0  0  0  0  0  0
  131.4060  132.1670   57.7530 C   0  0  0  0  0  0  0  0  0  0  0  0
  130.6830  132.0570   58.9430 C   0  0  0  0  0  0  0  0  0  0  0  0
  129.3230  132.3890   58.9460 C   0  0  0  0  0  0  0  0  0  0  0  0
  128.6490  132.2470   60.1730 N   0  0  0  0  0  0  0  0  0  0  0  0
  129.1380  132.3690   61.4260 C   0  0  0  0  0  0  0  0  0  0  0  0
  130.3120  132.6300   61.6970 O   0  0  0  0  0  0  0  0  0  0  0  0
  128.1040  132.1560   62.5440 C   0  0  0  0  0  0  0  0  0  0  0  0
  127.2970  130.5190   62.5520 S   0  0  0  0  0  0  0  0  0  0  0  0
  125.7710  130.6510   61.6480 C   0  0  0  0  0  0  0  0  0  0  0  0
  125.9390  130.7220   60.3050 N   0  0  0  0  0  0  0  0  0  0  0  0
  124.8550  130.8210   59.4900 C   0  0  0  0  0  0  0  0  0  0  0  0
  125.1290  130.9090   58.0180 C   0  0  0  0  0  0  0  0  0  0  0  0
  124.0760  131.0450   57.0990 C   0  0  0  0  0  0  0  0  0  0  0  0
  124.3230  131.1250   55.7320 C   0  0  0  0  0  0  0  0  0  0  0  0
  125.6300  131.0680   55.2620 C   0  0  0  0  0  0  0  0  0  0  0  0
  126.6910  130.9320   56.1500 C   0  0  0  0  0  0  0  0  0  0  0  0
  126.4400  130.8520   57.5170 C   0  0  0  0  0  0  0  0  0  0  0  0
  123.5610  130.8560   60.0200 C   0  0  0  0  0  0  0  0  0  0  0  0
  123.3680  130.7590   61.4020 C   0  0  0  0  0  0  0  0  0  0  0  0
  121.9360  130.7830   61.9330 C   0  0  0  0  0  0  0  0  0  0  0  0
  124.4910  130.6420   62.2490 C   0  0  0  0  0  0  0  0  0  0  0  0
  124.3100  130.4840   63.6940 C   0  0  0  0  0  0  0  0  0  0  0  0
  124.1650  130.3600   64.8350 N   0  0  0  0  0  0  0  0  0  0  0  0
  128.6870  132.8110   57.8140 N   0  0  0  0  0  0  0  0  0  0  0  0
  1  2  1  0
  2  3  2  0
  3  4  1  0
  4  5  2  0
  5  6  1  0
  6  7  1  0
  7  8  1  0
  8  9  2  0
  8 10  1  0
 10 11  1  0
 11 12  1  0
 12 13  2  0
 13 14  1  0
 14 15  1  0
 15 16  2  0
 16 17  1  0
 17 18  2  0
 18 19  1  0
 19 20  2  0
 14 21  2  0
 21 22  1  0
 22 23  1  0
 22 24  2  0
 24 25  1  0
 25 26  3  0
  6 27  2  0
 27  2  1  0
 24 12  1  0
 20 15  1  0
M  END
>  <Binding energies>  (19) 
[-8.36]

>  <Ligand effiencies>  (19) 
[-0.29857142857142854]

>  <Interactions>  (19) 
["H-B:TYR:484:OH:9319, V-B:ARG:545:CZ:9898, V-B:TYR:531:CZ:9766, V-A:ILE:538:CB:4862, V-A:ILE:538:CA:4860, V-B:ILE:369:CG2:8208, V-A:ILE:538:C:4858, V-A:TYR:539:CG:4872, V-B:GLY:454:CA:9020, V-B:ASP:366:CB:8183, V-B:TYR:531:CE1:9764, V-A:MET:535:CE:4835, V-B:ASP:366:CA:8181, V-A:LEU:363:CD1:3189, V-B:ILE:369:CB:8207, V-A:TYR:539:CE1:4875, V-B:ASP:366:CG:8184, V-A:TYR:539:CD1:4873, V-A:TYR:539:CE2:4876, V-A:TYR:539:CD2:4874, V-A:TYR:539:CZ:4877, H-A:ALA:541:N:4891, V-A:PRO:540:N:4884, V-A:PRO:540:CA:4883, V-A:PRO:540:CB:4885, V-B:ASP:366:C:8179, H-B:GLY:454:N:9021, V-B:ILE:369:CG1:8209, V-B:ASN:370:CB:8216, V-B:GLY:453:C:9013, V-B:GLY:453:CA:9015"]

$$$$
3bf_Grossjean_2025
     RDKit          3D

 26 28  0  0  0  0  0  0  0  0999 V2000
  122.0710  131.0510   61.7490 C   0  0  0  0  0  0  0  0  0  0  0  0
  123.5060  130.8920   61.2530 C   0  0  0  0  0  0  0  0  0  0  0  0
  123.7530  131.0540   59.8860 C   0  0  0  0  0  0  0  0  0  0  0  0
  125.0560  130.9320   59.3900 C   0  0  0  0  0  0  0  0  0  0  0  0
  125.3890  131.1150   57.9400 C   0  0  0  0  0  0  0  0  0  0  0  0
  124.4030  130.9580   56.9530 C   0  0  0  0  0  0  0  0  0  0  0  0
  124.7050  131.1260   55.6050 C   0  0  0  0  0  0  0  0  0  0  0  0
  126.0020  131.4550   55.2240 C   0  0  0  0  0  0  0  0  0  0  0  0
  126.9980  131.6150   56.1820 C   0  0  0  0  0  0  0  0  0  0  0  0
  126.6920  131.4440   57.5300 C   0  0  0  0  0  0  0  0  0  0  0  0
  126.0950  130.6560   60.2230 N   0  0  0  0  0  0  0  0  0  0  0  0
  125.8680  130.4710   61.5470 C   0  0  0  0  0  0  0  0  0  0  0  0
  127.3420  130.1130   62.4780 S   0  0  0  0  0  0  0  0  0  0  0  0
  128.2190  131.6850   62.7780 C   0  0  0  0  0  0  0  0  0  0  0  0
  129.3260  132.0170   61.7670 C   0  0  0  0  0  0  0  0  0  0  0  0
  130.4740  132.2530   62.1460 O   0  0  0  0  0  0  0  0  0  0  0  0
  128.9330  131.9950   60.4750 N   0  0  0  0  0  0  0  0  0  0  0  0
  129.6890  132.2610   59.3180 C   0  0  0  0  0  0  0  0  0  0  0  0
  130.8850  131.5530   59.1600 C   0  0  0  0  0  0  0  0  0  0  0  0
  131.6730  131.7630   58.0260 C   0  0  0  0  0  0  0  0  0  0  0  0
  131.2340  132.6790   57.0700 C   0  0  0  0  0  0  0  0  0  0  0  0
  130.0730  133.3710   57.1910 N   0  0  0  0  0  0  0  0  0  0  0  0
  129.3180  133.1570   58.2990 C   0  0  0  0  0  0  0  0  0  0  0  0
  124.5830  130.5990   62.1180 C   0  0  0  0  0  0  0  0  0  0  0  0
  124.3550  130.4750   63.5600 C   0  0  0  0  0  0  0  0  0  0  0  0
  124.1730  130.3760   64.6990 N   0  0  0  0  0  0  0  0  0  0  0  0
  1  2  1  0
  2  3  2  0
  3  4  1  0
  4  5  1  0
  5  6  2  0
  6  7  1  0
  7  8  2  0
  8  9  1  0
  9 10  2  0
  4 11  2  0
 11 12  1  0
 12 13  1  0
 13 14  1  0
 14 15  1  0
 15 16  2  0
 15 17  1  0
 17 18  1  0
 18 19  2  0
 19 20  1  0
 20 21  2  0
 21 22  1  0
 22 23  2  0
 12 24  2  0
 24 25  1  0
 25 26  3  0
 24  2  1  0
 10  5  1  0
 23 18  1  0
M  END
>  <Binding energies>  (20) 
[-8.3]

>  <Ligand effiencies>  (20) 
[-0.3074074074074074]

>  <Interactions>  (20) 
["H-B:TYR:484:OH:9319, V-B:ARG:545:CZ:9898, V-B:TYR:531:CZ:9766, V-A:ILE:538:CB:4862, V-B:ILE:369:CG2:8208, V-B:GLY:454:CA:9020, H-A:TYR:539:N:4870, V-B:ASP:366:CB:8183, V-B:TYR:531:CE1:9764, V-A:MET:535:CE:4835, V-B:ASP:366:CA:8181, V-A:LEU:363:CD1:3189, V-B:ILE:369:CB:8207, V-A:TYR:539:CE1:4875, V-B:ASP:366:CG:8184, V-A:TYR:539:CD1:4873, V-A:TYR:539:CE2:4876, V-A:TYR:539:CZ:4877, H-A:ALA:541:N:4891, V-A:TYR:539:C:4867, V-A:PRO:540:N:4884, V-A:PRO:540:CA:4883, V-A:PRO:540:CB:4885, V-A:PRO:540:CD:4887, V-A:TYR:539:CA:4869, H-B:GLY:454:N:9021, V-B:ILE:369:CG1:8209, V-B:ASN:370:CB:8216, V-B:GLY:453:C:9013, V-B:GLY:453:CA:9015"]

$$$$
3bg_Grossjean_2025
     RDKit          3D

 27 29  0  0  0  0  0  0  0  0999 V2000
  122.0080  131.1860   62.1160 C   0  0  0  0  0  0  0  0  0  0  0  0
  123.3830  130.7890   61.5850 C   0  0  0  0  0  0  0  0  0  0  0  0
  123.6570  131.0070   60.2310 C   0  0  0  0  0  0  0  0  0  0  0  0
  124.9100  130.6640   59.7040 C   0  0  0  0  0  0  0  0  0  0  0  0
  125.2730  130.8830   58.2610 C   0  0  0  0  0  0  0  0  0  0  0  0
  124.3120  130.7520   57.2440 C   0  0  0  0  0  0  0  0  0  0  0  0
  124.6400  130.9710   55.9100 C   0  0  0  0  0  0  0  0  0  0  0  0
  125.9410  131.3240   55.5670 C   0  0  0  0  0  0  0  0  0  0  0  0
  126.9150  131.4500   56.5510 C   0  0  0  0  0  0  0  0  0  0  0  0
  126.5830  131.2280   57.8840 C   0  0  0  0  0  0  0  0  0  0  0  0
  125.8730  130.1340   60.5030 N   0  0  0  0  0  0  0  0  0  0  0  0
  125.6250  129.9190   61.8200 C   0  0  0  0  0  0  0  0  0  0  0  0
  126.9850  129.2500   62.7650 S   0  0  0  0  0  0  0  0  0  0  0  0
  127.2930  130.3550   64.1820 C   0  0  0  0  0  0  0  0  0  0  0  0
  127.7580  131.7430   63.7320 C   0  0  0  0  0  0  0  0  0  0  0  0
  128.2130  132.5350   64.5580 O   0  0  0  0  0  0  0  0  0  0  0  0
  127.6150  132.0280   62.4270 N   0  0  0  0  0  0  0  0  0  0  0  0
  127.8200  133.3420   61.8160 C   0  0  0  0  0  0  0  0  0  0  0  0
  126.5170  134.1250   61.7080 C   0  0  0  0  0  0  0  0  0  0  0  0
  126.5390  135.4740   61.3340 C   0  0  0  0  0  0  0  0  0  0  0  0
  125.3510  136.1920   61.2450 C   0  0  0  0  0  0  0  0  0  0  0  0
  124.1400  135.5570   61.5170 C   0  0  0  0  0  0  0  0  0  0  0  0
  124.1070  134.2100   61.8690 C   0  0  0  0  0  0  0  0  0  0  0  0
  125.2970  133.4920   61.9600 C   0  0  0  0  0  0  0  0  0  0  0  0
  124.3800  130.2250   62.4090 C   0  0  0  0  0  0  0  0  0  0  0  0
  124.1250  129.9920   63.8320 C   0  0  0  0  0  0  0  0  0  0  0  0
  123.9230  129.8080   64.9560 N   0  0  0  0  0  0  0  0  0  0  0  0
  1  2  1  0
  2  3  2  0
  3  4  1  0
  4  5  1  0
  5  6  2  0
  6  7  1  0
  7  8  2  0
  8  9  1  0
  9 10  2  0
  4 11  2  0
 11 12  1  0
 12 13  1  0
 13 14  1  0
 14 15  1  0
 15 16  2  0
 15 17  1  0
 17 18  1  0
 18 19  1  0
 19 20  2  0
 20 21  1  0
 21 22  2  0
 22 23  1  0
 23 24  2  0
 12 25  2  0
 25 26  1  0
 26 27  3  0
 25  2  1  0
 10  5  1  0
 24 19  1  0
M  END
>  <Binding energies>  (21) 
[-8.04]

>  <Ligand effiencies>  (21) 
[-0.2871428571428571]

>  <Interactions>  (21) 
["H-B:TYR:484:OH:9319, V-B:ARG:545:CZ:9898, V-B:LEU:475:CD2:9230, V-B:TYR:531:CZ:9766, V-B:ILE:369:CG2:8208, V-B:ASP:366:CB:8183, V-B:TYR:531:CE1:9764, V-A:MET:535:CE:4835, V-B:ASP:366:CA:8181, V-B:ILE:369:CB:8207, V-A:TYR:539:CE1:4875, V-B:ASP:366:CG:8184, V-A:TYR:539:CD1:4873, V-A:TYR:539:CZ:4877, V-B:SER:385:CB:8380, V-B:ASP:366:C:8179, H-B:ARG:545:NH1:9899, H-B:ARG:545:NH2:9900, H-B:GLY:454:N:9021, V-B:ILE:369:CG1:8209, H-B:ARG:545:NE:9896, V-B:GLY:453:C:9013, V-B:SER:385:CA:8378, V-B:GLY:453:CA:9015"]

$$$$
3ca_Grossjean_2025
     RDKit          3D

 31 33  0  0  0  0  0  0  0  0999 V2000
  131.8980  131.7920   55.7130 C   0  0  0  0  0  0  0  0  0  0  0  0
  131.7720  132.3200   57.1440 C   0  0  0  0  0  0  0  0  0  0  0  0
  130.8160  133.3730   57.1780 O   0  0  0  0  0  0  0  0  0  0  0  0
  129.4870  133.1110   57.2550 C   0  0  0  0  0  0  0  0  0  0  0  0
  128.6880  133.3740   56.3500 O   0  0  0  0  0  0  0  0  0  0  0  0
  129.0830  132.4630   58.5480 C   0  0  0  0  0  0  0  0  0  0  0  0
  128.7740  131.0970   58.5620 C   0  0  0  0  0  0  0  0  0  0  0  0
  128.3960  130.4690   59.7450 C   0  0  0  0  0  0  0  0  0  0  0  0
  128.3110  131.1930   60.9350 C   0  0  0  0  0  0  0  0  0  0  0  0
  127.9210  130.4600   62.0730 N   0  0  0  0  0  0  0  0  0  0  0  0
  127.0390  129.4430   62.1820 C   0  0  0  0  0  0  0  0  0  0  0  0
  126.4080  128.9450   61.2500 O   0  0  0  0  0  0  0  0  0  0  0  0
  126.8600  128.8810   63.5960 C   0  0  0  0  0  0  0  0  0  0  0  0
  125.4670  129.6370   64.4980 S   0  0  0  0  0  0  0  0  0  0  0  0
  124.6180  130.8010   63.4390 C   0  0  0  0  0  0  0  0  0  0  0  0
  123.4010  130.4040   62.9870 N   0  0  0  0  0  0  0  0  0  0  0  0
  122.6930  131.2410   62.1980 C   0  0  0  0  0  0  0  0  0  0  0  0
  121.3370  130.7350   61.7500 C   0  0  0  0  0  0  0  0  0  0  0  0
  123.1700  132.4930   61.8160 C   0  0  0  0  0  0  0  0  0  0  0  0
  124.4310  132.9180   62.2530 C   0  0  0  0  0  0  0  0  0  0  0  0
  124.9070  134.2620   61.8060 C   0  0  0  0  0  0  0  0  0  0  0  0
  126.2480  134.4500   61.4520 C   0  0  0  0  0  0  0  0  0  0  0  0
  126.7030  135.7010   61.0440 C   0  0  0  0  0  0  0  0  0  0  0  0
  125.8150  136.7730   60.9910 C   0  0  0  0  0  0  0  0  0  0  0  0
  124.4790  136.6040   61.3460 C   0  0  0  0  0  0  0  0  0  0  0  0
  124.0290  135.3510   61.7550 C   0  0  0  0  0  0  0  0  0  0  0  0
  125.1770  132.0550   63.0960 C   0  0  0  0  0  0  0  0  0  0  0  0
  126.4810  132.4660   63.6270 C   0  0  0  0  0  0  0  0  0  0  0  0
  127.5100  132.7920   64.0460 N   0  0  0  0  0  0  0  0  0  0  0  0
  128.6260  132.5600   60.9320 C   0  0  0  0  0  0  0  0  0  0  0  0
  129.0060  133.1860   59.7480 C   0  0  0  0  0  0  0  0  0  0  0  0
  1  2  1  0
  2  3  1  0
  3  4  1  0
  4  5  2  0
  4  6  1  0
  6  7  2  0
  7  8  1  0
  8  9  2  0
  9 10  1  0
 10 11  1  0
 11 12  2  0
 11 13  1  0
 13 14  1  0
 14 15  1  0
 15 16  2  0
 16 17  1  0
 17 18  1  0
 17 19  2  0
 19 20  1  0
 20 21  1  0
 21 22  2  0
 22 23  1  0
 23 24  2  0
 24 25  1  0
 25 26  2  0
 20 27  2  0
 27 28  1  0
 28 29  3  0
  9 30  1  0
 30 31  2  0
 31  6  1  0
 27 15  1  0
 26 21  1  0
M  END
>  <Binding energies>  (22) 
[-8.81]

>  <Ligand effiencies>  (22) 
[-0.2753125]

>  <Interactions>  (22) 
["H-B:TYR:484:OH:9319, V-B:GLU:543:CD:9880, V-B:LEU:475:CD2:9230, V-A:ILE:538:CB:4862, V-B:ILE:369:CG2:8208, V-B:GLY:454:CA:9020, H-A:TYR:539:N:4870, V-A:MET:535:CE:4835, V-B:ASP:366:CA:8181, V-A:LEU:363:CD1:3189, V-B:ILE:369:CB:8207, V-A:TYR:539:CE1:4875, V-B:ASP:366:CG:8184, V-A:TYR:539:CD1:4873, V-A:ILE:538:CG2:4863, V-A:TYR:539:C:4867, V-A:PRO:540:N:4884, V-A:PRO:540:CA:4883, V-A:PRO:540:CB:4885, V-B:SER:385:CB:8380, V-A:TYR:531:CE2:4793, V-A:TYR:531:CZ:4794, V-A:TYR:539:CA:4869, H-A:GLU:543:OE1:4909, H-B:ARG:545:NH2:9900, H-B:GLY:454:N:9021, V-B:ILE:369:CG1:8209, V-B:GLY:453:C:9013, V-B:SER:385:CA:8378, V-B:GLY:453:CA:9015, V-B:CYS:365:C:8175"]

$$$$
3ce_Grossjean_2025
     RDKit          3D

 27 29  0  0  0  0  0  0  0  0999 V2000
  123.9520  134.6340   62.2020 C   0  0  0  0  0  0  0  0  0  0  0  0
  123.9020  133.2930   61.4950 C   0  0  0  0  0  0  0  0  0  0  0  0
  122.9420  132.3310   61.8200 C   0  0  0  0  0  0  0  0  0  0  0  0
  122.9510  131.1240   61.1220 C   0  0  0  0  0  0  0  0  0  0  0  0
  123.9070  130.9080   60.1270 C   0  0  0  0  0  0  0  0  0  0  0  0
  124.8470  131.9100   59.8590 C   0  0  0  0  0  0  0  0  0  0  0  0
  125.7730  131.6460   58.8360 N   0  0  0  0  0  0  0  0  0  0  0  0
  125.5260  131.2420   57.5700 C   0  0  0  0  0  0  0  0  0  0  0  0
  124.4060  131.0410   57.0980 O   0  0  0  0  0  0  0  0  0  0  0  0
  126.7570  131.0390   56.6870 C   0  0  0  0  0  0  0  0  0  0  0  0
  127.6780  132.5860   56.4400 S   0  0  0  0  0  0  0  0  0  0  0  0
  129.3670  132.2130   56.8480 C   0  0  0  0  0  0  0  0  0  0  0  0
  130.1610  132.0000   55.7700 N   0  0  0  0  0  0  0  0  0  0  0  0
  131.4700  131.7250   55.9740 C   0  0  0  0  0  0  0  0  0  0  0  0
  132.3020  131.5120   54.7250 C   0  0  0  0  0  0  0  0  0  0  0  0
  132.0280  131.6390   57.2470 C   0  0  0  0  0  0  0  0  0  0  0  0
  131.2190  131.8300   58.3750 C   0  0  0  0  0  0  0  0  0  0  0  0
  131.8570  131.7020   59.7190 C   0  0  0  0  0  0  0  0  0  0  0  0
  133.2520  131.6420   59.8320 C   0  0  0  0  0  0  0  0  0  0  0  0
  133.8540  131.5160   61.0810 C   0  0  0  0  0  0  0  0  0  0  0  0
  133.0630  131.4440   62.2240 C   0  0  0  0  0  0  0  0  0  0  0  0
  131.6750  131.4920   62.1280 C   0  0  0  0  0  0  0  0  0  0  0  0
  131.0750  131.6180   60.8780 C   0  0  0  0  0  0  0  0  0  0  0  0
  129.8470  132.1300   58.1770 C   0  0  0  0  0  0  0  0  0  0  0  0
  128.9540  132.3540   59.3190 C   0  0  0  0  0  0  0  0  0  0  0  0
  128.2510  132.5310   60.2200 N   0  0  0  0  0  0  0  0  0  0  0  0
  124.8400  133.0970   60.5340 N   0  0  0  0  0  0  0  0  0  0  0  0
  1  2  1  0
  2  3  2  0
  3  4  1  0
  4  5  2  0
  5  6  1  0
  6  7  1  0
  7  8  1  0
  8  9  2  0
  8 10  1  0
 10 11  1  0
 11 12  1  0
 12 13  2  0
 13 14  1  0
 14 15  1  0
 14 16  2  0
 16 17  1  0
 17 18  1  0
 18 19  2  0
 19 20  1  0
 20 21  2  0
 21 22  1  0
 22 23  2  0
 17 24  2  0
 24 25  1  0
 25 26  3  0
  6 27  2  0
 27  2  1  0
 24 12  1  0
 23 18  1  0
M  END
>  <Binding energies>  (23) 
[-8.04]

>  <Ligand effiencies>  (23) 
[-0.2871428571428571]

>  <Interactions>  (23) 
["V-A:GLU:543:CD:4908, V-B:LEU:475:CD2:9230, V-A:ILE:538:CB:4862, V-B:ILE:369:CG2:8208, V-B:ASP:366:CB:8183, V-A:MET:535:CE:4835, V-B:ASP:366:CA:8181, V-A:LEU:363:CD1:3189, H-A:TYR:539:OH:4878, V-B:ILE:369:CB:8207, V-A:TYR:539:CE1:4875, V-B:ASP:366:CG:8184, V-A:TYR:539:CZ:4877, H-B:TYR:531:OH:9767, V-A:ILE:538:CG2:4863, V-A:PRO:540:CA:4883, V-A:PRO:540:CB:4885, V-B:SER:385:CB:8380, V-A:ASP:366:CG:3213, V-A:ASN:362:C:3172, V-A:ASN:362:CB:3176, V-A:LEU:363:CA:3185, V-A:LEU:363:CB:3187, V-A:TYR:531:CE2:4793, V-A:TYR:531:CZ:4794, V-A:TYR:531:CD2:4791, V-A:MET:535:CG:4833, V-B:ILE:369:CG1:8209, V-B:SER:385:CA:8378"]

$$$$
3cj_Grossjean_2025
     RDKit          3D

 25 27  0  0  0  0  0  0  0  0999 V2000
  128.4200  122.1040   61.5840 C   0  0  0  0  0  0  0  0  0  0  0  0
  129.5230  122.7310   62.4130 C   0  0  0  0  0  0  0  0  0  0  0  0
  129.2400  123.6030   63.4630 C   0  0  0  0  0  0  0  0  0  0  0  0
  130.2900  124.1420   64.2180 C   0  0  0  0  0  0  0  0  0  0  0  0
  129.9370  125.0190   65.3730 C   0  0  0  0  0  0  0  0  0  0  0  0
  130.1430  124.5830   66.6870 C   0  0  0  0  0  0  0  0  0  0  0  0
  129.8000  125.3970   67.7630 C   0  0  0  0  0  0  0  0  0  0  0  0
  129.2440  126.6510   67.5280 C   0  0  0  0  0  0  0  0  0  0  0  0
  129.0240  127.0950   66.2270 C   0  0  0  0  0  0  0  0  0  0  0  0
  129.3680  126.2790   65.1520 C   0  0  0  0  0  0  0  0  0  0  0  0
  131.6190  123.8040   63.8630 C   0  0  0  0  0  0  0  0  0  0  0  0
  132.7610  124.3590   64.5970 C   0  0  0  0  0  0  0  0  0  0  0  0
  133.6620  124.7960   65.1770 N   0  0  0  0  0  0  0  0  0  0  0  0
  131.8140  122.9090   62.7870 C   0  0  0  0  0  0  0  0  0  0  0  0
  133.4210  122.2980   62.3240 S   0  0  0  0  0  0  0  0  0  0  0  0
  133.3220  122.0440   60.5230 C   0  0  0  0  0  0  0  0  0  0  0  0
  132.8160  120.6410   60.1710 C   0  0  0  0  0  0  0  0  0  0  0  0
  133.5320  119.8850   59.5110 O   0  0  0  0  0  0  0  0  0  0  0  0
  131.5980  120.3250   60.6630 N   0  0  0  0  0  0  0  0  0  0  0  0
  130.9780  119.0880   60.6030 C   0  0  0  0  0  0  0  0  0  0  0  0
  131.2260  118.0990   59.7730 N   0  0  0  0  0  0  0  0  0  0  0  0
  130.4630  117.0540   60.0240 C   0  0  0  0  0  0  0  0  0  0  0  0
  129.5660  117.1850   61.0810 C   0  0  0  0  0  0  0  0  0  0  0  0
  129.7400  118.7690   61.7770 S   0  0  0  0  0  0  0  0  0  0  0  0
  130.7840  122.3750   62.0830 N   0  0  0  0  0  0  0  0  0  0  0  0
  1  2  1  0
  2  3  2  0
  3  4  1  0
  4  5  1  0
  5  6  2  0
  6  7  1  0
  7  8  2  0
  8  9  1  0
  9 10  2  0
  4 11  2  0
 11 12  1  0
 12 13  3  0
 11 14  1  0
 14 15  1  0
 15 16  1  0
 16 17  1  0
 17 18  2  0
 17 19  1  0
 19 20  1  0
 20 21  2  0
 21 22  1  0
 22 23  2  0
 23 24  1  0
 14 25  2  0
 25  2  1  0
 10  5  1  0
 24 20  1  0
M  END
>  <Binding energies>  (24) 
[-7.76]

>  <Ligand effiencies>  (24) 
[-0.29846153846153844]

>  <Interactions>  (24) 
["V-B:GLU:543:CG:9879, V-B:GLU:543:CD:9880, V-A:TYR:484:CZ:4347, V-A:GLU:543:CD:4908, V-A:TYR:484:CE2:4346, V-B:GLU:543:CB:9878, V-A:HIS:456:CE1:4070, V-B:ALA:541:CB:9864, V-A:LEU:475:CD2:4259, V-B:PRO:540:CA:9855, V-B:TYR:539:C:9839, H-A:GLY:454:N:4050, H-A:ARG:545:NH2:4928, H-A:ARG:545:NE:4924, H-A:TYR:484:OH:4348, V-B:GLU:543:CA:9876, V-B:TYR:539:CE2:9848, V-A:ILE:369:CG2:3237, V-B:PRO:540:C:9853, V-B:TYR:539:CD2:9846, H-A:SER:385:OG:3410, V-B:TYR:539:CB:9843, V-A:LEU:475:CD1:4258, V-A:PRO:482:CB:4326, V-A:LEU:475:CG:4257, V-A:HIS:383:NE2:3394, H-A:HIS:383:HE2:3395, V-A:PRO:482:CG:4327, V-A:HIS:383:CE1:3393, V-B:VAL:344:CG1:7972, V-A:HIS:383:CD2:3392"]

$$$$
4ba_Grossjean_2025
     RDKit          3D

 28 30  0  0  0  0  0  0  0  0999 V2000
  129.1760  127.8550   72.4340 C   0  0  0  0  0  0  0  0  0  0  0  0
  129.2090  127.0330   71.1320 C   0  0  0  0  0  0  0  0  0  0  0  0
  130.0730  127.6310   70.0020 C   0  0  0  0  0  0  0  0  0  0  0  0
  131.2770  127.8170   70.1930 O   0  0  0  0  0  0  0  0  0  0  0  0
  129.3950  127.9570   68.7030 C   0  0  0  0  0  0  0  0  0  0  0  0
  128.8020  129.2150   68.5340 C   0  0  0  0  0  0  0  0  0  0  0  0
  128.1650  129.5430   67.3400 C   0  0  0  0  0  0  0  0  0  0  0  0
  128.1120  128.6240   66.2910 C   0  0  0  0  0  0  0  0  0  0  0  0
  127.4360  129.0570   65.1340 N   0  0  0  0  0  0  0  0  0  0  0  0
  127.5200  130.2320   64.4630 C   0  0  0  0  0  0  0  0  0  0  0  0
  128.2210  131.1820   64.8160 O   0  0  0  0  0  0  0  0  0  0  0  0
  126.6850  130.3290   63.2640 C   0  0  0  0  0  0  0  0  0  0  0  0
  127.4190  130.2600   61.6640 S   0  0  0  0  0  0  0  0  0  0  0  0
  125.8680  130.4830   60.8910 C   0  0  0  0  0  0  0  0  0  0  0  0
  125.7530  130.5260   59.5640 N   0  0  0  0  0  0  0  0  0  0  0  0
  124.5020  130.7040   59.0820 C   0  0  0  0  0  0  0  0  0  0  0  0
  124.3950  130.7600   57.5690 C   0  0  0  0  0  0  0  0  0  0  0  0
  123.3730  130.8350   59.8870 C   0  0  0  0  0  0  0  0  0  0  0  0
  123.4870  130.7900   61.2850 C   0  0  0  0  0  0  0  0  0  0  0  0
  122.2170  130.9350   62.1290 C   0  0  0  0  0  0  0  0  0  0  0  0
  121.1020  130.6790   61.4420 F   0  0  0  0  0  0  0  0  0  0  0  0
  122.2570  130.0870   63.1570 F   0  0  0  0  0  0  0  0  0  0  0  0
  122.1230  132.1830   62.5910 F   0  0  0  0  0  0  0  0  0  0  0  0
  124.7960  130.6090   61.8270 C   0  0  0  0  0  0  0  0  0  0  0  0
  125.2960  130.5260   63.1770 C   0  0  0  0  0  0  0  0  0  0  0  0
  124.4820  130.6290   64.2760 N   0  0  0  0  0  0  0  0  0  0  0  0
  128.6970  127.3600   66.4550 C   0  0  0  0  0  0  0  0  0  0  0  0
  129.3330  127.0330   67.6500 C   0  0  0  0  0  0  0  0  0  0  0  0
  1  2  1  0
  2  3  1  0
  3  4  2  0
  3  5  1  0
  5  6  2  0
  6  7  1  0
  7  8  2  0
  8  9  1  0
  9 10  1  0
 10 11  2  0
 10 12  1  0
 12 13  1  0
 13 14  1  0
 14 15  2  0
 15 16  1  0
 16 17  1  0
 16 18  2  0
 18 19  1  0
 19 20  1  0
 20 21  1  0
 20 22  1  0
 20 23  1  0
 19 24  2  0
 24 25  1  0
 25 26  1  0
  8 27  1  0
 27 28  2  0
 28  5  1  0
 25 12  2  0
 24 14  1  0
M  END
>  <Binding energies>  (25) 
[-7.05]

>  <Ligand effiencies>  (25) 
[-0.22741935483870968]

>  <Interactions>  (25) 
["V-B:GLU:543:CG:9879, H-B:TYR:484:OH:9319, V-A:GLU:543:CG:4907, V-B:ARG:545:CZ:9898, V-B:TYR:484:CZ:9318, V-B:GLU:543:CD:9880, V-A:GLU:543:CD:4908, V-B:GLU:543:CB:9878, V-B:HIS:456:CE1:9041, V-A:GLU:543:CB:4906, V-A:GLU:543:C:4902, V-A:HIS:456:CE1:4070, V-B:TYR:484:CE2:9317, V-B:ILE:369:CG2:8208, V-B:GLY:454:CA:9020, V-B:ASP:366:CB:8183, V-B:ASP:366:CA:8181, V-B:ILE:369:CB:8207, V-B:ASP:366:CG:8184, V-B:ILE:369:CG1:8209, V-B:HIS:456:CD2:9039, H-B:GLU:543:OE2:9882, H-B:GLU:543:OE1:9881, V-B:GLY:453:C:9013, V-B:ILE:369:CD1:8210, V-B:GLY:453:CA:9015, V-A:GLU:543:CA:4904, H-A:ARG:545:N:4920, V-B:CYS:365:C:8175"]

$$$$
4bb_Grossjean_2025
     RDKit          3D

 27 29  0  0  0  0  0  0  0  0999 V2000
  129.1900  127.0810   71.1130 C   0  0  0  0  0  0  0  0  0  0  0  0
  130.0430  127.6570   69.9800 C   0  0  0  0  0  0  0  0  0  0  0  0
  131.2430  127.8380   70.1910 O   0  0  0  0  0  0  0  0  0  0  0  0
  129.3710  127.9800   68.6790 C   0  0  0  0  0  0  0  0  0  0  0  0
  128.8150  129.2510   68.4890 C   0  0  0  0  0  0  0  0  0  0  0  0
  128.1860  129.5760   67.2910 C   0  0  0  0  0  0  0  0  0  0  0  0
  128.1060  128.6410   66.2580 C   0  0  0  0  0  0  0  0  0  0  0  0
  127.4450  129.0740   65.0910 N   0  0  0  0  0  0  0  0  0  0  0  0
  127.5400  130.2480   64.4210 C   0  0  0  0  0  0  0  0  0  0  0  0
  128.2500  131.1900   64.7730 O   0  0  0  0  0  0  0  0  0  0  0  0
  126.7000  130.3540   63.2250 C   0  0  0  0  0  0  0  0  0  0  0  0
  127.4270  130.2940   61.6210 S   0  0  0  0  0  0  0  0  0  0  0  0
  125.8710  130.5160   60.8550 C   0  0  0  0  0  0  0  0  0  0  0  0
  125.7480  130.5570   59.5300 N   0  0  0  0  0  0  0  0  0  0  0  0
  124.4940  130.7340   59.0550 C   0  0  0  0  0  0  0  0  0  0  0  0
  124.3760  130.7760   57.5420 C   0  0  0  0  0  0  0  0  0  0  0  0
  123.3700  130.8690   59.8660 C   0  0  0  0  0  0  0  0  0  0  0  0
  123.4940  130.8260   61.2630 C   0  0  0  0  0  0  0  0  0  0  0  0
  122.2290  130.9800   62.1150 C   0  0  0  0  0  0  0  0  0  0  0  0
  122.0890  132.2060   62.6240 F   0  0  0  0  0  0  0  0  0  0  0  0
  121.1510  130.7310   61.3700 F   0  0  0  0  0  0  0  0  0  0  0  0
  122.2650  130.1240   63.1360 F   0  0  0  0  0  0  0  0  0  0  0  0
  124.8040  130.6410   61.7980 C   0  0  0  0  0  0  0  0  0  0  0  0
  125.3110  130.5490   63.1440 C   0  0  0  0  0  0  0  0  0  0  0  0
  124.5010  130.6380   64.2480 N   0  0  0  0  0  0  0  0  0  0  0  0
  128.6540  127.3630   66.4440 C   0  0  0  0  0  0  0  0  0  0  0  0
  129.2820  127.0390   67.6430 C   0  0  0  0  0  0  0  0  0  0  0  0
  1  2  1  0
  2  3  2  0
  2  4  1  0
  4  5  2  0
  5  6  1  0
  6  7  2  0
  7  8  1  0
  8  9  1  0
  9 10  2  0
  9 11  1  0
 11 12  1  0
 12 13  1  0
 13 14  2  0
 14 15  1  0
 15 16  1  0
 15 17  2  0
 17 18  1  0
 18 19  1  0
 19 20  1  0
 19 21  1  0
 19 22  1  0
 18 23  2  0
 23 24  1  0
 24 25  1  0
  7 26  1  0
 26 27  2  0
 27  4  1  0
 24 11  2  0
 23 13  1  0
M  END
>  <Binding energies>  (26) 
[-6.91]

>  <Ligand effiencies>  (26) 
[-0.23033333333333333]

>  <Interactions>  (26) 
["V-B:GLU:543:CG:9879, H-B:TYR:484:OH:9319, V-A:GLU:543:CG:4907, V-B:ARG:545:CZ:9898, V-B:TYR:484:CZ:9318, V-B:GLU:543:CD:9880, V-A:GLU:543:CD:4908, V-B:GLU:543:CB:9878, V-B:HIS:456:CE1:9041, V-A:GLU:543:CB:4906, V-A:GLU:543:C:4902, V-A:HIS:456:CE1:4070, V-B:TYR:484:CE2:9317, V-B:ILE:369:CG2:8208, V-B:GLY:454:CA:9020, V-B:ASP:366:CB:8183, V-B:ASP:366:CA:8181, V-B:ILE:369:CB:8207, V-A:TYR:539:CE1:4875, V-B:ASP:366:CG:8184, V-B:ILE:369:CG1:8209, H-B:GLU:543:OE2:9882, H-B:GLU:543:OE1:9881, V-B:GLY:453:C:9013, V-B:ILE:369:CD1:8210, V-B:GLY:453:CA:9015, V-A:GLU:543:CA:4904, H-A:ARG:545:N:4920, V-B:CYS:365:C:8175"]

$$$$
4bd_Grossjean_2025
     RDKit          3D

 24 26  0  0  0  0  0  0  0  0999 V2000
  127.1310  122.1040   54.9250 C   0  0  0  0  0  0  0  0  0  0  0  0
  126.9120  122.6330   56.3310 C   0  0  0  0  0  0  0  0  0  0  0  0
  125.8150  123.4350   56.6340 C   0  0  0  0  0  0  0  0  0  0  0  0
  125.6260  123.9190   57.9380 C   0  0  0  0  0  0  0  0  0  0  0  0
  124.4050  124.8010   58.2230 C   0  0  0  0  0  0  0  0  0  0  0  0
  123.5040  124.7780   57.2380 F   0  0  0  0  0  0  0  0  0  0  0  0
  123.7950  124.3830   59.3320 F   0  0  0  0  0  0  0  0  0  0  0  0
  124.7900  126.0670   58.3810 F   0  0  0  0  0  0  0  0  0  0  0  0
  126.5970  123.5540   58.9170 C   0  0  0  0  0  0  0  0  0  0  0  0
  126.7350  123.8510   60.3220 C   0  0  0  0  0  0  0  0  0  0  0  0
  125.8330  124.6230   61.0060 N   0  0  0  0  0  0  0  0  0  0  0  0
  127.8720  123.2820   60.9200 C   0  0  0  0  0  0  0  0  0  0  0  0
  128.3250  123.3930   62.3100 C   0  0  0  0  0  0  0  0  0  0  0  0
  127.6740  122.8870   63.2250 O   0  0  0  0  0  0  0  0  0  0  0  0
  129.4890  124.0650   62.4900 N   0  0  0  0  0  0  0  0  0  0  0  0
  130.1650  124.3800   63.6840 C   0  0  0  0  0  0  0  0  0  0  0  0
  131.3400  125.1240   63.5440 C   0  0  0  0  0  0  0  0  0  0  0  0
  132.0750  125.4940   64.6670 C   0  0  0  0  0  0  0  0  0  0  0  0
  131.6300  125.1270   65.9340 C   0  0  0  0  0  0  0  0  0  0  0  0
  130.4540  124.3970   66.0880 C   0  0  0  0  0  0  0  0  0  0  0  0
  129.7170  124.0250   64.9670 C   0  0  0  0  0  0  0  0  0  0  0  0
  128.8070  122.3490   59.7530 S   0  0  0  0  0  0  0  0  0  0  0  0
  127.6760  122.7270   58.4750 C   0  0  0  0  0  0  0  0  0  0  0  0
  127.8500  122.2700   57.2360 N   0  0  0  0  0  0  0  0  0  0  0  0
  1  2  1  0
  2  3  2  0
  3  4  1  0
  4  5  1  0
  5  6  1  0
  5  7  1  0
  5  8  1  0
  4  9  2  0
  9 10  1  0
 10 11  1  0
 10 12  2  0
 12 13  1  0
 13 14  2  0
 13 15  1  0
 15 16  1  0
 16 17  2  0
 17 18  1  0
 18 19  2  0
 19 20  1  0
 20 21  2  0
 12 22  1  0
 22 23  1  0
 23 24  2  0
 24  2  1  0
 23  9  1  0
 21 16  1  0
M  END
>  <Binding energies>  (27) 
[-6.81]

>  <Ligand effiencies>  (27) 
[-0.2522222222222222]

>  <Interactions>  (27) 
["V-B:GLU:543:CG:9879, V-B:GLU:543:CD:9880, V-A:TYR:484:CZ:4347, V-A:GLU:543:CD:4908, V-A:TYR:484:CE2:4346, V-B:GLU:543:CB:9878, V-A:ARG:545:CZ:4926, V-B:TYR:531:CZ:9766, V-B:ASP:366:CB:8183, V-B:ASP:366:CG:8184, V-B:LEU:363:CD1:8160, V-B:PRO:540:N:9856, V-B:PRO:540:CA:9855, V-B:PRO:540:CB:9857, V-B:TYR:539:C:9839, V-B:TYR:539:CE1:9847, V-B:TYR:539:CD1:9845, V-B:LEU:363:CA:8156, H-B:ASP:366:OD1:8185, H-B:TYR:539:N:9842, V-B:ASN:362:C:8143, V-B:TYR:539:CE2:9848, H-B:GLU:543:OE1:9881, V-B:TYR:531:CE2:9765, V-B:TYR:539:CD2:9846, V-B:TYR:539:CG:9844, V-B:MET:535:CE:9807, V-B:ILE:538:CG2:9835, H-B:ALA:541:N:9863, V-B:ILE:538:C:9830, V-B:ILE:538:CA:9832, V-B:LEU:363:CB:8158, V-B:ILE:538:CB:9834, V-B:LEU:363:CG:8159, V-B:TYR:531:CD2:9763"]

$$$$
4be_Grossjean_2025
     RDKit          3D

 25 27  0  0  0  0  0  0  0  0999 V2000
  129.7540  124.7840   67.2450 C   0  0  0  0  0  0  0  0  0  0  0  0
  130.4750  124.8100   65.9100 C   0  0  0  0  0  0  0  0  0  0  0  0
  131.8330  125.1220   65.8190 C   0  0  0  0  0  0  0  0  0  0  0  0
  132.4300  125.1290   64.5570 C   0  0  0  0  0  0  0  0  0  0  0  0
  131.6620  124.8280   63.4300 C   0  0  0  0  0  0  0  0  0  0  0  0
  130.3070  124.5170   63.5930 C   0  0  0  0  0  0  0  0  0  0  0  0
  129.5890  124.2300   62.4190 N   0  0  0  0  0  0  0  0  0  0  0  0
  128.4280  123.5420   62.2760 C   0  0  0  0  0  0  0  0  0  0  0  0
  127.8030  123.0490   63.2180 O   0  0  0  0  0  0  0  0  0  0  0  0
  127.9510  123.3910   60.8990 C   0  0  0  0  0  0  0  0  0  0  0  0
  128.8970  122.4700   59.7310 S   0  0  0  0  0  0  0  0  0  0  0  0
  127.7360  122.7960   58.4660 C   0  0  0  0  0  0  0  0  0  0  0  0
  127.9030  122.3240   57.2310 N   0  0  0  0  0  0  0  0  0  0  0  0
  126.9360  122.6410   56.3390 C   0  0  0  0  0  0  0  0  0  0  0  0
  127.1460  122.0960   54.9380 C   0  0  0  0  0  0  0  0  0  0  0  0
  125.8180  123.4110   56.6490 C   0  0  0  0  0  0  0  0  0  0  0  0
  125.6370  123.9100   57.9480 C   0  0  0  0  0  0  0  0  0  0  0  0
  124.3890  124.7490   58.2430 C   0  0  0  0  0  0  0  0  0  0  0  0
  123.7670  124.3820   59.3660 F   0  0  0  0  0  0  0  0  0  0  0  0
  124.7280  126.0310   58.3770 F   0  0  0  0  0  0  0  0  0  0  0  0
  123.5160  124.6270   57.2440 F   0  0  0  0  0  0  0  0  0  0  0  0
  126.6400  123.5980   58.9130 C   0  0  0  0  0  0  0  0  0  0  0  0
  126.7980  123.9300   60.3080 C   0  0  0  0  0  0  0  0  0  0  0  0
  125.8940  124.7010   60.9930 N   0  0  0  0  0  0  0  0  0  0  0  0
  129.7160  124.5140   64.8240 N   0  0  0  0  0  0  0  0  0  0  0  0
  1  2  1  0
  2  3  2  0
  3  4  1  0
  4  5  2  0
  5  6  1  0
  6  7  1  0
  7  8  1  0
  8  9  2  0
  8 10  1  0
 10 11  1  0
 11 12  1  0
 12 13  2  0
 13 14  1  0
 14 15  1  0
 14 16  2  0
 16 17  1  0
 17 18  1  0
 18 19  1  0
 18 20  1  0
 18 21  1  0
 17 22  2  0
 22 23  1  0
 23 24  1  0
  6 25  2  0
 25  2  1  0
 23 10  2  0
 22 12  1  0
M  END
>  <Binding energies>  (28) 
[-6.85]

>  <Ligand effiencies>  (28) 
[-0.24464285714285713]

>  <Interactions>  (28) 
["V-B:GLU:543:CG:9879, V-B:GLU:543:CD:9880, V-A:TYR:484:CZ:4347, V-A:TYR:484:CE2:4346, V-B:GLU:543:CB:9878, V-A:HIS:456:CE1:4070, V-A:ARG:545:CZ:4926, V-B:TYR:531:CZ:9766, V-B:ASP:366:CB:8183, V-B:ASP:366:CG:8184, V-B:LEU:363:CD1:8160, V-B:PRO:540:N:9856, V-B:PRO:540:CA:9855, V-B:PRO:540:CB:9857, V-B:TYR:539:C:9839, V-B:TYR:539:CE1:9847, V-B:TYR:539:CD1:9845, V-B:LEU:363:CA:8156, H-B:ASP:366:OD1:8185, H-B:TYR:539:N:9842, V-B:ASN:362:C:8143, V-B:GLU:543:CA:9876, V-B:TYR:539:CE2:9848, H-B:GLU:543:OE1:9881, V-B:TYR:531:CE2:9765, V-B:TYR:539:CD2:9846, V-B:TYR:539:CG:9844, V-B:MET:535:CE:9807, V-B:ILE:538:CG2:9835, H-B:ALA:541:N:9863, V-B:ILE:538:C:9830, V-B:ILE:538:CA:9832, V-B:LEU:363:CB:8158, V-B:ILE:538:CB:9834, V-B:LEU:363:CG:8159, V-B:TYR:531:CD2:9763"]

$$$$
4bg_Grossjean_2025
     RDKit          3D

 25 27  0  0  0  0  0  0  0  0999 V2000
  127.4530  122.1220   54.8830 C   0  0  0  0  0  0  0  0  0  0  0  0
  127.0910  122.5760   56.2850 C   0  0  0  0  0  0  0  0  0  0  0  0
  125.9950  123.4040   56.5110 C   0  0  0  0  0  0  0  0  0  0  0  0
  125.6750  123.8210   57.8130 C   0  0  0  0  0  0  0  0  0  0  0  0
  124.4590  124.7320   58.0120 C   0  0  0  0  0  0  0  0  0  0  0  0
  123.6760  124.3440   59.0210 F   0  0  0  0  0  0  0  0  0  0  0  0
  124.8650  125.9740   58.2770 F   0  0  0  0  0  0  0  0  0  0  0  0
  123.7130  124.7390   56.9070 F   0  0  0  0  0  0  0  0  0  0  0  0
  126.5140  123.3590   58.8700 C   0  0  0  0  0  0  0  0  0  0  0  0
  126.5050  123.5750   60.2960 C   0  0  0  0  0  0  0  0  0  0  0  0
  125.5750  124.3670   60.9220 N   0  0  0  0  0  0  0  0  0  0  0  0
  127.5240  122.8990   60.9830 C   0  0  0  0  0  0  0  0  0  0  0  0
  127.8270  122.9170   62.4150 C   0  0  0  0  0  0  0  0  0  0  0  0
  126.9330  122.8870   63.2610 O   0  0  0  0  0  0  0  0  0  0  0  0
  129.1360  122.9270   62.7410 N   0  0  0  0  0  0  0  0  0  0  0  0
  129.6710  122.9610   64.1020 C   0  0  0  0  0  0  0  0  0  0  0  0
  131.0020  123.6920   64.2150 C   0  0  0  0  0  0  0  0  0  0  0  0
  131.1610  124.7210   65.1490 C   0  0  0  0  0  0  0  0  0  0  0  0
  132.3900  125.3610   65.2770 C   0  0  0  0  0  0  0  0  0  0  0  0
  133.4630  124.9610   64.4820 C   0  0  0  0  0  0  0  0  0  0  0  0
  133.3180  123.9260   63.5620 C   0  0  0  0  0  0  0  0  0  0  0  0
  132.0870  123.2860   63.4330 C   0  0  0  0  0  0  0  0  0  0  0  0
  128.5560  121.9980   59.8760 S   0  0  0  0  0  0  0  0  0  0  0  0
  127.6020  122.5080   58.5040 C   0  0  0  0  0  0  0  0  0  0  0  0
  127.9030  122.1180   57.2650 N   0  0  0  0  0  0  0  0  0  0  0  0
  1  2  1  0
  2  3  2  0
  3  4  1  0
  4  5  1  0
  5  6  1  0
  5  7  1  0
  5  8  1  0
  4  9  2  0
  9 10  1  0
 10 11  1  0
 10 12  2  0
 12 13  1  0
 13 14  2  0
 13 15  1  0
 15 16  1  0
 16 17  1  0
 17 18  2  0
 18 19  1  0
 19 20  2  0
 20 21  1  0
 21 22  2  0
 12 23  1  0
 23 24  1  0
 24 25  2  0
 25  2  1  0
 24  9  1  0
 22 17  1  0
M  END
>  <Binding energies>  (29) 
[-7.22]

>  <Ligand effiencies>  (29) 
[-0.25785714285714284]

>  <Interactions>  (29) 
["V-B:GLU:543:CG:9879, V-B:GLU:543:CD:9880, V-B:ALA:541:CB:9864, V-A:ARG:545:CZ:4926, V-A:LEU:475:CD2:4259, V-B:TYR:531:CZ:9766, V-B:ASP:366:CB:8183, V-B:ASP:366:CG:8184, V-B:LEU:363:CD1:8160, V-B:PRO:540:N:9856, V-B:PRO:540:CA:9855, V-B:PRO:540:CB:9857, V-B:TYR:539:C:9839, V-B:TYR:539:CE1:9847, V-B:TYR:539:CD1:9845, V-B:LEU:363:CA:8156, H-B:ASP:366:OD1:8185, H-B:TYR:539:N:9842, V-B:ASN:362:C:8143, V-B:TYR:539:CE2:9848, V-B:PRO:540:C:9853, H-B:GLU:543:OE1:9881, V-B:TYR:531:CE2:9765, V-B:TYR:539:CD2:9846, V-B:TYR:539:CG:9844, V-B:TYR:539:CZ:9849, V-B:MET:535:CE:9807, V-B:ALA:541:CA:9862, H-B:ALA:541:N:9863, V-B:ILE:538:C:9830, V-B:ILE:538:CA:9832, V-B:LEU:363:CB:8158, V-A:GLY:454:CA:4049, V-B:LEU:363:CG:8159, V-B:TYR:531:CD2:9763"]

$$$$
4ca_Grossjean_2025
     RDKit          3D

 34 37  0  0  0  0  0  0  0  0999 V2000
  131.2520  131.8490   55.5900 C   0  0  0  0  0  0  0  0  0  0  0  0
  131.8810  132.7010   56.6970 C   0  0  0  0  0  0  0  0  0  0  0  0
  130.8990  133.5790   57.2330 O   0  0  0  0  0  0  0  0  0  0  0  0
  129.6230  133.1620   57.4400 C   0  0  0  0  0  0  0  0  0  0  0  0
  128.7090  133.3430   56.6290 O   0  0  0  0  0  0  0  0  0  0  0  0
  129.4360  132.4560   58.7510 C   0  0  0  0  0  0  0  0  0  0  0  0
  130.1570  131.2820   59.0060 C   0  0  0  0  0  0  0  0  0  0  0  0
  130.0070  130.6070   60.2140 C   0  0  0  0  0  0  0  0  0  0  0  0
  129.1320  131.0870   61.1890 C   0  0  0  0  0  0  0  0  0  0  0  0
  129.0660  130.3320   62.3760 N   0  0  0  0  0  0  0  0  0  0  0  0
  128.0130  129.6980   62.9500 C   0  0  0  0  0  0  0  0  0  0  0  0
  126.8860  129.6460   62.4580 O   0  0  0  0  0  0  0  0  0  0  0  0
  128.3010  129.0380   64.2250 C   0  0  0  0  0  0  0  0  0  0  0  0
  127.8590  129.8130   65.7440 S   0  0  0  0  0  0  0  0  0  0  0  0
  128.4580  128.4540   66.6640 C   0  0  0  0  0  0  0  0  0  0  0  0
  128.3970  128.4350   67.9940 N   0  0  0  0  0  0  0  0  0  0  0  0
  128.8740  127.3300   68.6220 C   0  0  0  0  0  0  0  0  0  0  0  0
  128.7820  127.3340   70.1210 C   0  0  0  0  0  0  0  0  0  0  0  0
  127.5910  126.9710   70.7690 C   0  0  0  0  0  0  0  0  0  0  0  0
  127.4980  126.9790   72.1590 C   0  0  0  0  0  0  0  0  0  0  0  0
  128.5980  127.3530   72.9230 C   0  0  0  0  0  0  0  0  0  0  0  0
  129.7900  127.7190   72.3060 C   0  0  0  0  0  0  0  0  0  0  0  0
  129.8790  127.7110   70.9170 C   0  0  0  0  0  0  0  0  0  0  0  0
  129.4300  126.2590   67.9140 C   0  0  0  0  0  0  0  0  0  0  0  0
  129.5040  126.2710   66.5130 C   0  0  0  0  0  0  0  0  0  0  0  0
  130.1230  125.0630   65.8000 C   0  0  0  0  0  0  0  0  0  0  0  0
  131.3770  125.2780   65.3990 F   0  0  0  0  0  0  0  0  0  0  0  0
  130.1410  124.0150   66.6220 F   0  0  0  0  0  0  0  0  0  0  0  0
  129.4060  124.7620   64.7170 F   0  0  0  0  0  0  0  0  0  0  0  0
  128.9900  127.4180   65.8420 C   0  0  0  0  0  0  0  0  0  0  0  0
  128.8850  127.7790   64.4500 C   0  0  0  0  0  0  0  0  0  0  0  0
  129.3200  126.9630   63.4380 N   0  0  0  0  0  0  0  0  0  0  0  0
  128.4100  132.2640   60.9460 C   0  0  0  0  0  0  0  0  0  0  0  0
  128.5620  132.9390   59.7370 C   0  0  0  0  0  0  0  0  0  0  0  0
  1  2  1  0
  2  3  1  0
  3  4  1  0
  4  5  2  0
  4  6  1  0
  6  7  2  0
  7  8  1  0
  8  9  2  0
  9 10  1  0
 10 11  1  0
 11 12  2  0
 11 13  1  0
 13 14  1  0
 14 15  1  0
 15 16  2  0
 16 17  1  0
 17 18  1  0
 18 19  2  0
 19 20  1  0
 20 21  2  0
 21 22  1  0
 22 23  2  0
 17 24  2  0
 24 25  1  0
 25 26  1  0
 26 27  1  0
 26 28  1  0
 26 29  1  0
 25 30  2  0
 30 31  1  0
 31 32  1  0
  9 33  1  0
 33 34  2  0
 34  6  1  0
 31 13  2  0
 30 15  1  0
 23 18  1  0
M  END
>  <Binding energies>  (30) 
[-8.56]

>  <Ligand effiencies>  (30) 
[-0.23135135135135138]

>  <Interactions>  (30) 
["V-B:GLU:543:CG:9879, V-A:GLU:543:CG:4907, V-B:TYR:484:CZ:9318, V-B:GLU:543:CD:9880, V-A:TYR:484:CZ:4347, V-A:GLU:543:CD:4908, V-B:GLU:543:C:9874, V-A:TYR:484:CE2:4346, V-B:GLU:543:CB:9878, V-B:HIS:456:CE1:9041, V-A:GLU:543:CB:4906, V-A:HIS:456:CE1:4070, V-A:ILE:538:CB:4862, H-A:TYR:539:N:4870, V-A:MET:535:CE:4835, V-A:LEU:363:CD1:3189, V-A:TYR:539:CD1:4873, V-A:ILE:538:CG2:4863, V-A:TYR:539:C:4867, V-A:PRO:540:N:4884, V-A:PRO:540:CA:4883, V-A:PRO:540:CB:4885, V-A:PRO:540:CD:4887, V-A:TYR:539:CA:4869, H-A:GLU:543:OE1:4909, V-B:LYS:547:CE:9922, V-B:HIS:456:CD2:9039, V-B:GLU:543:CA:9876, H-A:GLU:543:OE2:4910, H-B:GLU:543:OE1:9881, V-B:GLY:544:C:9884, V-B:GLY:544:CA:9886"]

$$$$
4cb_Grossjean_2025
     RDKit          3D

 33 36  0  0  0  0  0  0  0  0999 V2000
  131.6430  132.5880   56.3210 C   0  0  0  0  0  0  0  0  0  0  0  0
  130.8920  133.4030   57.2100 O   0  0  0  0  0  0  0  0  0  0  0  0
  129.5900  133.1270   57.4800 C   0  0  0  0  0  0  0  0  0  0  0  0
  128.6600  133.4250   56.7240 O   0  0  0  0  0  0  0  0  0  0  0  0
  129.3920  132.4210   58.7910 C   0  0  0  0  0  0  0  0  0  0  0  0
  130.1410  131.2700   59.0680 C   0  0  0  0  0  0  0  0  0  0  0  0
  129.9870  130.5980   60.2770 C   0  0  0  0  0  0  0  0  0  0  0  0
  129.0770  131.0580   61.2300 C   0  0  0  0  0  0  0  0  0  0  0  0
  129.0120  130.3110   62.4220 N   0  0  0  0  0  0  0  0  0  0  0  0
  127.9600  129.6830   63.0030 C   0  0  0  0  0  0  0  0  0  0  0  0
  126.8310  129.6290   62.5140 O   0  0  0  0  0  0  0  0  0  0  0  0
  128.2500  129.0290   64.2820 C   0  0  0  0  0  0  0  0  0  0  0  0
  127.8270  129.8200   65.7980 S   0  0  0  0  0  0  0  0  0  0  0  0
  128.4190  128.4620   66.7250 C   0  0  0  0  0  0  0  0  0  0  0  0
  128.3700  128.4530   68.0550 N   0  0  0  0  0  0  0  0  0  0  0  0
  128.8450  127.3480   68.6880 C   0  0  0  0  0  0  0  0  0  0  0  0
  128.7700  127.3660   70.1870 C   0  0  0  0  0  0  0  0  0  0  0  0
  129.8840  127.7380   70.9570 C   0  0  0  0  0  0  0  0  0  0  0  0
  129.8230  127.7520   72.3480 C   0  0  0  0  0  0  0  0  0  0  0  0
  128.6420  127.3940   72.9910 C   0  0  0  0  0  0  0  0  0  0  0  0
  127.5250  127.0180   72.2520 C   0  0  0  0  0  0  0  0  0  0  0  0
  127.5910  127.0030   70.8620 C   0  0  0  0  0  0  0  0  0  0  0  0
  129.3870  126.2690   67.9820 C   0  0  0  0  0  0  0  0  0  0  0  0
  129.4470  126.2700   66.5800 C   0  0  0  0  0  0  0  0  0  0  0  0
  130.0520  125.0520   65.8700 C   0  0  0  0  0  0  0  0  0  0  0  0
  129.3590  124.6780   64.7920 F   0  0  0  0  0  0  0  0  0  0  0  0
  131.2910  125.3350   65.4700 F   0  0  0  0  0  0  0  0  0  0  0  0
  130.0840  124.0130   66.7040 F   0  0  0  0  0  0  0  0  0  0  0  0
  128.9360  127.4160   65.9060 C   0  0  0  0  0  0  0  0  0  0  0  0
  128.8220  127.7660   64.5110 C   0  0  0  0  0  0  0  0  0  0  0  0
  129.2380  126.9350   63.5020 N   0  0  0  0  0  0  0  0  0  0  0  0
  128.3250  132.2110   60.9620 C   0  0  0  0  0  0  0  0  0  0  0  0
  128.4820  132.8830   59.7540 C   0  0  0  0  0  0  0  0  0  0  0  0
  1  2  1  0
  2  3  1  0
  3  4  2  0
  3  5  1  0
  5  6  2  0
  6  7  1  0
  7  8  2  0
  8  9  1  0
  9 10  1  0
 10 11  2  0
 10 12  1  0
 12 13  1  0
 13 14  1  0
 14 15  2  0
 15 16  1  0
 16 17  1  0
 17 18  2  0
 18 19  1  0
 19 20  2  0
 20 21  1  0
 21 22  2  0
 16 23  2  0
 23 24  1  0
 24 25  1  0
 25 26  1  0
 25 27  1  0
 25 28  1  0
 24 29  2  0
 29 30  1  0
 30 31  1  0
  8 32  1  0
 32 33  2  0
 33  5  1  0
 30 12  2  0
 29 14  1  0
 22 17  1  0
M  END
>  <Binding energies>  (31) 
[-8.34]

>  <Ligand effiencies>  (31) 
[-0.23166666666666666]

>  <Interactions>  (31) 
["V-B:GLU:543:CG:9879, V-A:GLU:543:CG:4907, V-B:TYR:484:CZ:9318, V-B:GLU:543:CD:9880, V-A:TYR:484:CZ:4347, V-A:GLU:543:CD:4908, V-B:GLU:543:C:9874, V-A:TYR:484:CE2:4346, V-B:GLU:543:CB:9878, V-B:HIS:456:CE1:9041, V-A:GLU:543:CB:4906, V-A:HIS:456:CE1:4070, V-A:ILE:538:CB:4862, H-A:TYR:539:N:4870, V-A:LEU:363:CD1:3189, V-A:TYR:539:CD1:4873, V-A:ILE:538:CG2:4863, V-A:TYR:539:C:4867, V-A:PRO:540:N:4884, V-A:PRO:540:CA:4883, V-A:TYR:539:CA:4869, H-A:GLU:543:OE1:4909, V-B:LYS:547:CE:9922, V-B:HIS:456:CD2:9039, V-B:GLU:543:CA:9876, H-A:GLU:543:OE2:4910, H-B:GLU:543:OE2:9882, H-B:GLU:543:OE1:9881, V-B:GLY:544:C:9884"]

$$$$
4cc_Grossjean_2025
     RDKit          3D

 31 34  0  0  0  0  0  0  0  0999 V2000
  130.1310  132.6570   56.4370 C   0  0  0  0  0  0  0  0  0  0  0  0
  129.7560  133.3820   57.6030 O   0  0  0  0  0  0  0  0  0  0  0  0
  129.5100  132.6950   58.7760 C   0  0  0  0  0  0  0  0  0  0  0  0
  130.4610  131.7460   59.1510 C   0  0  0  0  0  0  0  0  0  0  0  0
  130.3010  131.0050   60.3190 C   0  0  0  0  0  0  0  0  0  0  0  0
  129.1770  131.1970   61.1240 C   0  0  0  0  0  0  0  0  0  0  0  0
  129.1080  130.4140   62.2920 N   0  0  0  0  0  0  0  0  0  0  0  0
  128.0780  129.6740   62.7680 C   0  0  0  0  0  0  0  0  0  0  0  0
  126.9990  129.5430   62.1890 O   0  0  0  0  0  0  0  0  0  0  0  0
  128.3210  129.0110   64.0530 C   0  0  0  0  0  0  0  0  0  0  0  0
  127.8770  129.8070   65.5610 S   0  0  0  0  0  0  0  0  0  0  0  0
  128.4490  128.4480   66.4990 C   0  0  0  0  0  0  0  0  0  0  0  0
  128.3790  128.4430   67.8290 N   0  0  0  0  0  0  0  0  0  0  0  0
  128.8400  127.3380   68.4710 C   0  0  0  0  0  0  0  0  0  0  0  0
  128.7520  127.3620   69.9690 C   0  0  0  0  0  0  0  0  0  0  0  0
  129.8520  127.7560   70.7470 C   0  0  0  0  0  0  0  0  0  0  0  0
  129.7780  127.7790   72.1380 C   0  0  0  0  0  0  0  0  0  0  0  0
  128.5980  127.4070   72.7720 C   0  0  0  0  0  0  0  0  0  0  0  0
  127.4930  127.0090   72.0250 C   0  0  0  0  0  0  0  0  0  0  0  0
  127.5730  126.9860   70.6350 C   0  0  0  0  0  0  0  0  0  0  0  0
  129.3840  126.2530   67.7770 C   0  0  0  0  0  0  0  0  0  0  0  0
  129.4640  126.2490   66.3750 C   0  0  0  0  0  0  0  0  0  0  0  0
  130.0650  125.0230   65.6790 C   0  0  0  0  0  0  0  0  0  0  0  0
  129.3810  124.6460   64.5960 F   0  0  0  0  0  0  0  0  0  0  0  0
  131.3110  125.2920   65.2890 F   0  0  0  0  0  0  0  0  0  0  0  0
  130.0820  123.9890   66.5200 F   0  0  0  0  0  0  0  0  0  0  0  0
  128.9750  127.3980   65.6900 C   0  0  0  0  0  0  0  0  0  0  0  0
  128.8920  127.7510   64.2940 C   0  0  0  0  0  0  0  0  0  0  0  0
  129.3320  126.9220   63.2930 N   0  0  0  0  0  0  0  0  0  0  0  0
  128.2220  132.1590   60.7600 C   0  0  0  0  0  0  0  0  0  0  0  0
  128.3870  132.8980   59.5920 C   0  0  0  0  0  0  0  0  0  0  0  0
  1  2  1  0
  2  3  1  0
  3  4  2  0
  4  5  1  0
  5  6  2  0
  6  7  1  0
  7  8  1  0
  8  9  2  0
  8 10  1  0
 10 11  1  0
 11 12  1  0
 12 13  2  0
 13 14  1  0
 14 15  1  0
 15 16  2  0
 16 17  1  0
 17 18  2  0
 18 19  1  0
 19 20  2  0
 14 21  2  0
 21 22  1  0
 22 23  1  0
 23 24  1  0
 23 25  1  0
 23 26  1  0
 22 27  2  0
 27 28  1  0
 28 29  1  0
  6 30  1  0
 30 31  2  0
 31  3  1  0
 28 10  2  0
 27 12  1  0
 20 15  1  0
M  END
>  <Binding energies>  (32) 
[-7.53]

>  <Ligand effiencies>  (32) 
[-0.2214705882352941]

>  <Interactions>  (32) 
["V-B:GLU:543:CG:9879, V-A:GLU:543:CG:4907, V-B:TYR:484:CZ:9318, V-B:GLU:543:CD:9880, V-A:TYR:484:CZ:4347, V-A:GLU:543:CD:4908, V-B:GLU:543:C:9874, V-A:TYR:484:CE2:4346, V-B:GLU:543:CB:9878, V-B:HIS:456:CE1:9041, V-A:GLU:543:CB:4906, V-A:HIS:456:CE1:4070, V-A:ILE:538:CB:4862, V-A:ILE:538:CA:4860, H-A:TYR:539:N:4870, V-A:MET:535:CE:4835, V-A:TYR:539:CE1:4875, V-A:TYR:539:CD1:4873, V-A:TYR:539:C:4867, V-A:PRO:540:N:4884, V-A:PRO:540:CA:4883, V-A:PRO:540:CB:4885, H-A:GLU:543:OE1:4909, V-B:HIS:456:CD2:9039, V-B:GLU:543:CA:9876, H-A:GLU:543:OE2:4910, H-B:GLU:543:OE1:9881, V-B:GLY:544:C:9884, V-B:GLY:544:CA:9886"]

$$$$
4ce_Grossjean_2025
     RDKit          3D

 30 33  0  0  0  0  0  0  0  0999 V2000
  123.0980  130.6850   76.7430 C   0  0  0  0  0  0  0  0  0  0  0  0
  124.3580  130.1640   76.0780 C   0  0  0  0  0  0  0  0  0  0  0  0
  124.4730  128.8320   75.6710 C   0  0  0  0  0  0  0  0  0  0  0  0
  125.6590  128.4250   75.0580 C   0  0  0  0  0  0  0  0  0  0  0  0
  126.6880  129.3480   74.8660 C   0  0  0  0  0  0  0  0  0  0  0  0
  126.5090  130.6670   75.3030 C   0  0  0  0  0  0  0  0  0  0  0  0
  127.5720  131.5550   75.0600 N   0  0  0  0  0  0  0  0  0  0  0  0
  127.6000  132.6450   74.2530 C   0  0  0  0  0  0  0  0  0  0  0  0
  126.6340  133.0350   73.5970 O   0  0  0  0  0  0  0  0  0  0  0  0
  128.8790  133.3570   74.2010 C   0  0  0  0  0  0  0  0  0  0  0  0
  130.2910  132.5920   73.4760 S   0  0  0  0  0  0  0  0  0  0  0  0
  131.2650  134.0130   73.7650 C   0  0  0  0  0  0  0  0  0  0  0  0
  132.5450  134.0630   73.4030 N   0  0  0  0  0  0  0  0  0  0  0  0
  133.2180  135.2170   73.6560 C   0  0  0  0  0  0  0  0  0  0  0  0
  134.6560  135.2420   73.2310 C   0  0  0  0  0  0  0  0  0  0  0  0
  135.2100  136.3940   72.6490 C   0  0  0  0  0  0  0  0  0  0  0  0
  136.5430  136.4220   72.2450 C   0  0  0  0  0  0  0  0  0  0  0  0
  137.3410  135.2970   72.4200 C   0  0  0  0  0  0  0  0  0  0  0  0
  136.8170  134.1440   72.9930 C   0  0  0  0  0  0  0  0  0  0  0  0
  135.4830  134.1180   73.3930 C   0  0  0  0  0  0  0  0  0  0  0  0
  132.6080  136.3050   74.2890 C   0  0  0  0  0  0  0  0  0  0  0  0
  131.2600  136.2600   74.6800 C   0  0  0  0  0  0  0  0  0  0  0  0
  130.6560  137.4890   75.3680 C   0  0  0  0  0  0  0  0  0  0  0  0
  129.7500  137.1770   76.2970 F   0  0  0  0  0  0  0  0  0  0  0  0
  131.6180  138.1890   75.9690 F   0  0  0  0  0  0  0  0  0  0  0  0
  130.0510  138.2590   74.4640 F   0  0  0  0  0  0  0  0  0  0  0  0
  130.5410  135.0620   74.4060 C   0  0  0  0  0  0  0  0  0  0  0  0
  129.1780  134.6560   74.6450 C   0  0  0  0  0  0  0  0  0  0  0  0
  128.2570  135.4720   75.2500 N   0  0  0  0  0  0  0  0  0  0  0  0
  125.3510  131.0740   75.9000 N   0  0  0  0  0  0  0  0  0  0  0  0
  1  2  1  0
  2  3  2  0
  3  4  1  0
  4  5  2  0
  5  6  1  0
  6  7  1  0
  7  8  1  0
  8  9  2  0
  8 10  1  0
 10 11  1  0
 11 12  1  0
 12 13  2  0
 13 14  1  0
 14 15  1  0
 15 16  2  0
 16 17  1  0
 17 18  2  0
 18 19  1  0
 19 20  2  0
 14 21  2  0
 21 22  1  0
 22 23  1  0
 23 24  1  0
 23 25  1  0
 23 26  1  0
 22 27  2  0
 27 28  1  0
 28 29  1  0
  6 30  2  0
 30  2  1  0
 28 10  2  0
 27 12  1  0
 20 15  1  0
M  END
>  <Binding energies>  (33) 
[-7.67]

>  <Ligand effiencies>  (33) 
[-0.23242424242424242]

>  <Interactions>  (33) 
["V-A:GLU:543:C:4902, V-A:GLU:357:CA:3132, V-A:ARG:356:CB:3117, V-A:LYS:547:CE:4950, V-A:GLU:357:CB:3134, V-A:GLY:544:CA:4914, V-A:VAL:542:CG1:4899, V-B:LYS:547:CE:9922, V-B:VAL:457:CA:9046, V-B:HIS:456:C:9032, V-B:VAL:457:C:9044, V-B:VAL:458:CG2:9058, V-B:HIS:456:CB:9036, V-B:HIS:456:CD2:9039, H-B:LYS:471:NZ:9192, V-B:HIS:456:CG:9037, V-B:LYS:471:CD:9190, V-B:ASP:473:CG:9211, V-B:TYR:484:CB:9312, H-B:ASP:473:OD2:9213, V-B:TYR:484:C:9308, V-B:ASP:485:CB:9326, V-B:ASP:485:CA:9324, H-B:TYR:484:O:9309, V-B:LYS:471:C:9184, V-B:LYS:471:CB:9188, V-B:LYS:471:CG:9189"]

$$$$
4cf_Grossjean_2025
     RDKit          3D

 29 32  0  0  0  0  0  0  0  0999 V2000
  125.7710  127.7090   61.7450 N   0  0  0  0  0  0  0  0  0  0  0  0
  126.0250  128.7460   60.8840 C   0  0  0  0  0  0  0  0  0  0  0  0
  126.5620  128.5650   59.5990 C   0  0  0  0  0  0  0  0  0  0  0  0
  126.9790  127.3190   58.9490 C   0  0  0  0  0  0  0  0  0  0  0  0
  128.1540  127.1430   58.6260 O   0  0  0  0  0  0  0  0  0  0  0  0
  125.9940  126.4090   58.7550 N   0  0  0  0  0  0  0  0  0  0  0  0
  126.0460  125.1510   58.1240 C   0  0  0  0  0  0  0  0  0  0  0  0
  127.1930  124.5720   57.5490 C   0  0  0  0  0  0  0  0  0  0  0  0
  127.1020  123.3190   56.9390 C   0  0  0  0  0  0  0  0  0  0  0  0
  125.8650  122.6750   56.9170 C   0  0  0  0  0  0  0  0  0  0  0  0
  124.7440  123.2130   57.4570 N   0  0  0  0  0  0  0  0  0  0  0  0
  124.8470  124.4330   58.0460 C   0  0  0  0  0  0  0  0  0  0  0  0
  126.7520  130.1070   58.7670 S   0  0  0  0  0  0  0  0  0  0  0  0
  126.1200  130.9790   60.1440 C   0  0  0  0  0  0  0  0  0  0  0  0
  126.0090  132.3060   60.1340 N   0  0  0  0  0  0  0  0  0  0  0  0
  125.5230  132.8960   61.2580 C   0  0  0  0  0  0  0  0  0  0  0  0
  125.4160  134.3920   61.2220 C   0  0  0  0  0  0  0  0  0  0  0  0
  126.5560  135.1970   61.3690 C   0  0  0  0  0  0  0  0  0  0  0  0
  126.4660  136.5860   61.3350 C   0  0  0  0  0  0  0  0  0  0  0  0
  125.2280  137.1920   61.1500 C   0  0  0  0  0  0  0  0  0  0  0  0
  124.0810  136.4190   60.9980 C   0  0  0  0  0  0  0  0  0  0  0  0
  124.1770  135.0310   61.0320 C   0  0  0  0  0  0  0  0  0  0  0  0
  125.1280  132.1500   62.3730 C   0  0  0  0  0  0  0  0  0  0  0  0
  125.2370  130.7510   62.3910 C   0  0  0  0  0  0  0  0  0  0  0  0
  124.7910  129.9960   63.6490 C   0  0  0  0  0  0  0  0  0  0  0  0
  125.5320  128.9150   63.9020 F   0  0  0  0  0  0  0  0  0  0  0  0
  124.8780  130.7970   64.7100 F   0  0  0  0  0  0  0  0  0  0  0  0
  123.5290  129.5890   63.5070 F   0  0  0  0  0  0  0  0  0  0  0  0
  125.7630  130.1220   61.2250 C   0  0  0  0  0  0  0  0  0  0  0  0
  1  2  1  0
  2  3  2  0
  3  4  1  0
  4  5  2  0
  4  6  1  0
  6  7  1  0
  7  8  2  0
  8  9  1  0
  9 10  2  0
 10 11  1  0
 11 12  2  0
  3 13  1  0
 13 14  1  0
 14 15  2  0
 15 16  1  0
 16 17  1  0
 17 18  2  0
 18 19  1  0
 19 20  2  0
 20 21  1  0
 21 22  2  0
 16 23  2  0
 23 24  1  0
 24 25  1  0
 25 26  1  0
 25 27  1  0
 25 28  1  0
 24 29  2  0
 29  2  1  0
 12  7  1  0
 29 14  1  0
 22 17  1  0
M  END
>  <Binding energies>  (34) 
[-7.18]

>  <Ligand effiencies>  (34) 
[-0.224375]

>  <Interactions>  (34) 
["V-B:ARG:545:CZ:9898, V-B:TYR:484:CZ:9318, V-B:GLU:543:CD:9880, V-B:LEU:475:CD2:9230, V-B:ILE:369:CG2:8208, V-B:GLY:454:CA:9020, V-B:ASP:366:CB:8183, V-A:TYR:539:CE1:4875, V-B:ASP:366:CG:8184, V-A:TYR:539:CD1:4873, H-B:TYR:531:OH:9767, V-B:SER:385:CB:8380, V-B:LEU:363:CD1:8160, V-B:PRO:540:N:9856, V-B:PRO:540:CA:9855, V-B:PRO:540:CB:9857, V-B:PRO:540:CD:9859, H-B:ASP:366:OD1:8185, H-B:ASP:366:OD2:8186, H-B:GLU:543:OE2:9882, H-B:GLU:543:OE1:9881, V-B:MET:535:CE:9807, V-B:LEU:373:CD1:8251, V-B:HIS:383:CD2:8363, V-B:SER:385:CA:8378, V-B:GLY:453:CA:9015"]

$$$$
4ci_Grossjean_2025
     RDKit          3D

 28 31  0  0  0  0  0  0  0  0999 V2000
  124.6020  130.6310   64.3500 N   0  0  0  0  0  0  0  0  0  0  0  0
  125.5010  130.6330   63.3150 C   0  0  0  0  0  0  0  0  0  0  0  0
  126.8890  130.5220   63.5010 C   0  0  0  0  0  0  0  0  0  0  0  0
  127.6330  130.3760   64.7550 C   0  0  0  0  0  0  0  0  0  0  0  0
  128.3390  131.2950   65.1780 O   0  0  0  0  0  0  0  0  0  0  0  0
  127.4940  129.1800   65.3810 N   0  0  0  0  0  0  0  0  0  0  0  0
  128.0840  128.7750   66.5710 C   0  0  0  0  0  0  0  0  0  0  0  0
  128.6010  127.4950   66.7690 C   0  0  0  0  0  0  0  0  0  0  0  0
  129.0840  127.4990   68.0570 C   0  0  0  0  0  0  0  0  0  0  0  0
  128.8700  128.7190   68.6060 O   0  0  0  0  0  0  0  0  0  0  0  0
  128.2340  129.5180   67.6550 N   0  0  0  0  0  0  0  0  0  0  0  0
  127.7420  130.5500   61.9600 S   0  0  0  0  0  0  0  0  0  0  0  0
  126.2410  130.7190   61.0800 C   0  0  0  0  0  0  0  0  0  0  0  0
  126.2180  130.8010   59.7520 N   0  0  0  0  0  0  0  0  0  0  0  0
  125.0040  130.9270   59.1560 C   0  0  0  0  0  0  0  0  0  0  0  0
  125.0120  131.0230   57.6570 C   0  0  0  0  0  0  0  0  0  0  0  0
  123.8100  131.0340   56.9300 C   0  0  0  0  0  0  0  0  0  0  0  0
  123.8110  131.1240   55.5400 C   0  0  0  0  0  0  0  0  0  0  0  0
  125.0190  131.2020   54.8550 C   0  0  0  0  0  0  0  0  0  0  0  0
  126.2230  131.1880   55.5490 C   0  0  0  0  0  0  0  0  0  0  0  0
  126.2180  131.0970   56.9380 C   0  0  0  0  0  0  0  0  0  0  0  0
  123.8210  130.9870   59.8990 C   0  0  0  0  0  0  0  0  0  0  0  0
  123.8330  130.9000   61.3010 C   0  0  0  0  0  0  0  0  0  0  0  0
  122.4980  130.9730   62.0520 C   0  0  0  0  0  0  0  0  0  0  0  0
  121.4420  130.7490   61.2670 F   0  0  0  0  0  0  0  0  0  0  0  0
  122.4770  130.0560   63.0190 F   0  0  0  0  0  0  0  0  0  0  0  0
  122.3470  132.1840   62.5890 F   0  0  0  0  0  0  0  0  0  0  0  0
  125.1000  130.7550   61.9340 C   0  0  0  0  0  0  0  0  0  0  0  0
  1  2  1  0
  2  3  2  0
  3  4  1  0
  4  5  2  0
  4  6  1  0
  6  7  1  0
  7  8  1  0
  8  9  2  0
  9 10  1  0
 10 11  1  0
  3 12  1  0
 12 13  1  0
 13 14  2  0
 14 15  1  0
 15 16  1  0
 16 17  2  0
 17 18  1  0
 18 19  2  0
 19 20  1  0
 20 21  2  0
 15 22  2  0
 22 23  1  0
 23 24  1  0
 24 25  1  0
 24 26  1  0
 24 27  1  0
 23 28  2  0
 28  2  1  0
 11  7  2  0
 28 13  1  0
 21 16  1  0
M  END
>  <Binding energies>  (35) 
[-6.93]

>  <Ligand effiencies>  (35) 
[-0.2235483870967742]

>  <Interactions>  (35) 
["V-B:GLU:543:CG:9879, H-B:TYR:484:OH:9319, V-A:GLU:543:CG:4907, V-B:ARG:545:CZ:9898, V-B:TYR:484:CZ:9318, V-B:GLU:543:CD:9880, V-A:GLU:543:CD:4908, V-B:GLU:543:CB:9878, V-B:HIS:456:CE1:9041, V-A:GLU:543:CB:4906, V-B:TYR:531:CZ:9766, V-B:ILE:369:CG2:8208, V-B:GLY:454:CA:9020, V-B:ASP:366:CB:8183, V-B:TYR:531:CE1:9764, V-A:MET:535:CE:4835, V-B:ASP:366:CA:8181, V-B:ILE:369:CB:8207, V-A:TYR:539:CE1:4875, V-B:ASP:366:CG:8184, V-A:TYR:539:CZ:4877, V-B:ASP:366:C:8179, V-B:ILE:369:CG1:8209, V-B:ASN:370:CB:8216, H-B:GLU:543:OE2:9882, H-B:GLU:543:OE1:9881, V-B:GLY:453:C:9013, V-B:GLY:453:CA:9015, V-B:CYS:365:C:8175, V-B:ASN:370:CA:8214, V-B:TYR:531:CD1:9762"]

$$$$
8a_Ghoteimi_2023
     RDKit          3D

 40 44  0  0  0  0  0  0  0  0999 V2000
  131.8240  131.8280   55.7420 C   0  0  0  0  0  0  0  0  0  0  0  0
  131.6170  132.6160   57.0390 C   0  0  0  0  0  0  0  0  0  0  0  0
  130.5090  133.4940   56.8860 O   0  0  0  0  0  0  0  0  0  0  0  0
  129.2430  133.0790   57.1560 C   0  0  0  0  0  0  0  0  0  0  0  0
  128.2680  133.3740   56.4570 O   0  0  0  0  0  0  0  0  0  0  0  0
  129.1470  132.2310   58.3900 C   0  0  0  0  0  0  0  0  0  0  0  0
  129.1820  132.8470   59.6470 C   0  0  0  0  0  0  0  0  0  0  0  0
  129.0960  132.0880   60.8110 C   0  0  0  0  0  0  0  0  0  0  0  0
  128.9750  130.7000   60.7450 C   0  0  0  0  0  0  0  0  0  0  0  0
  128.9010  130.0360   61.9850 N   0  0  0  0  0  0  0  0  0  0  0  0
  127.8380  129.4870   62.6240 C   0  0  0  0  0  0  0  0  0  0  0  0
  126.6890  129.4870   62.1850 O   0  0  0  0  0  0  0  0  0  0  0  0
  128.1410  128.8610   63.9150 C   0  0  0  0  0  0  0  0  0  0  0  0
  127.4910  129.5380   65.4080 S   0  0  0  0  0  0  0  0  0  0  0  0
  128.2820  128.3070   66.3650 C   0  0  0  0  0  0  0  0  0  0  0  0
  128.1860  128.2860   67.6950 N   0  0  0  0  0  0  0  0  0  0  0  0
  128.8440  127.2890   68.3440 C   0  0  0  0  0  0  0  0  0  0  0  0
  128.7400  127.2960   69.8350 C   0  0  0  0  0  0  0  0  0  0  0  0
  129.8500  127.5970   70.6370 C   0  0  0  0  0  0  0  0  0  0  0  0
  129.7500  127.5900   72.0250 C   0  0  0  0  0  0  0  0  0  0  0  0
  128.5400  127.2860   72.6470 C   0  0  0  0  0  0  0  0  0  0  0  0
  128.5350  127.3010   74.0290 O   0  0  0  0  0  0  0  0  0  0  0  0
  128.2540  128.5210   74.7070 C   0  0  0  0  0  0  0  0  0  0  0  0
  127.4220  126.9890   71.8540 C   0  0  0  0  0  0  0  0  0  0  0  0
  127.5260  126.9940   70.4650 C   0  0  0  0  0  0  0  0  0  0  0  0
  129.5850  126.3190   67.6660 C   0  0  0  0  0  0  0  0  0  0  0  0
  129.6750  126.3280   66.2700 C   0  0  0  0  0  0  0  0  0  0  0  0
  130.4490  125.2540   65.5970 C   0  0  0  0  0  0  0  0  0  0  0  0
  131.7740  125.4760   65.2160 C   0  0  0  0  0  0  0  0  0  0  0  0
  132.5100  124.4650   64.6040 C   0  0  0  0  0  0  0  0  0  0  0  0
  131.9380  123.2150   64.3670 C   0  0  0  0  0  0  0  0  0  0  0  0
  132.7430  122.2740   63.7550 O   0  0  0  0  0  0  0  0  0  0  0  0
  133.4480  122.6270   62.5710 C   0  0  0  0  0  0  0  0  0  0  0  0
  130.6080  122.9870   64.7560 C   0  0  0  0  0  0  0  0  0  0  0  0
  129.8750  124.0000   65.3700 C   0  0  0  0  0  0  0  0  0  0  0  0
  129.0120  127.3760   65.5700 C   0  0  0  0  0  0  0  0  0  0  0  0
  128.9290  127.7280   64.1740 C   0  0  0  0  0  0  0  0  0  0  0  0
  129.5810  127.0200   63.1950 N   0  0  0  0  0  0  0  0  0  0  0  0
  128.9340  130.0740   59.4890 C   0  0  0  0  0  0  0  0  0  0  0  0
  129.0200  130.8350   58.3260 C   0  0  0  0  0  0  0  0  0  0  0  0
  1  2  1  0
  2  3  1  0
  3  4  1  0
  4  5  2  0
  4  6  1  0
  6  7  2  0
  7  8  1  0
  8  9  2  0
  9 10  1  0
 10 11  1  0
 11 12  2  0
 11 13  1  0
 13 14  1  0
 14 15  1  0
 15 16  2  0
 16 17  1  0
 17 18  1  0
 18 19  2  0
 19 20  1  0
 20 21  2  0
 21 22  1  0
 22 23  1  0
 21 24  1  0
 24 25  2  0
 17 26  2  0
 26 27  1  0
 27 28  1  0
 28 29  2  0
 29 30  1  0
 30 31  2  0
 31 32  1  0
 32 33  1  0
 31 34  1  0
 34 35  2  0
 27 36  2  0
 36 37  1  0
 37 38  1  0
  9 39  1  0
 39 40  2  0
 40  6  1  0
 37 13  2  0
 36 15  1  0
 25 18  1  0
 35 28  1  0
M  END
>  <Binding energies>  (36) 
[-9.77]

>  <Ligand effiencies>  (36) 
[-0.2272093023255814]

>  <Interactions>  (36) 
["V-B:GLU:543:CG:9879, V-A:GLU:543:CG:4907, V-B:GLU:543:CD:9880, V-A:TYR:484:CZ:4347, H-B:LYS:547:NZ:9923, V-A:GLU:543:CD:4908, V-B:GLU:543:C:9874, V-A:TYR:484:CE2:4346, V-B:GLU:543:CB:9878, V-B:HIS:456:CE1:9041, V-A:GLU:543:CB:4906, V-A:HIS:456:CE1:4070, V-A:ARG:545:CZ:4926, V-A:LEU:475:CD2:4259, V-A:ILE:538:CB:4862, V-A:TYR:539:CG:4872, H-A:TYR:539:N:4870, V-A:MET:535:CE:4835, V-A:LEU:363:CD1:3189, V-A:TYR:539:CD1:4873, V-A:ILE:538:CG2:4863, V-A:TYR:539:C:4867, V-A:PRO:540:N:4884, V-A:PRO:540:CA:4883, V-A:PRO:540:CB:4885, V-A:PRO:540:CD:4887, V-A:TYR:531:CE2:4793, V-A:TYR:531:CZ:4794, H-A:GLU:543:OE1:4909, H-A:GLY:454:N:4050, H-A:TYR:484:OH:4348, V-B:HIS:456:CD2:9039, H-A:GLU:543:OE2:4910, H-B:GLU:543:OE1:9881, V-B:GLY:544:C:9884, V-A:GLY:454:CA:4049, V-B:GLY:544:CA:9886"]

$$$$
8c_Ghoteimi_2023
     RDKit          3D

 34 38  0  0  0  0  0  0  0  0999 V2000
  130.6850  126.5950   74.8500 C   0  0  0  0  0  0  0  0  0  0  0  0
  129.6440  127.2970   74.1800 O   0  0  0  0  0  0  0  0  0  0  0  0
  129.6160  127.3040   72.7980 C   0  0  0  0  0  0  0  0  0  0  0  0
  128.4700  126.7900   72.1950 C   0  0  0  0  0  0  0  0  0  0  0  0
  128.3560  126.7540   70.8090 C   0  0  0  0  0  0  0  0  0  0  0  0
  129.3870  127.2330   69.9880 C   0  0  0  0  0  0  0  0  0  0  0  0
  129.2720  127.1940   68.4970 C   0  0  0  0  0  0  0  0  0  0  0  0
  129.9620  126.2520   67.7280 C   0  0  0  0  0  0  0  0  0  0  0  0
  129.8350  126.2350   66.3350 C   0  0  0  0  0  0  0  0  0  0  0  0
  130.5860  125.2300   65.5500 C   0  0  0  0  0  0  0  0  0  0  0  0
  131.8850  125.5050   65.1140 C   0  0  0  0  0  0  0  0  0  0  0  0
  132.5930  124.5560   64.3850 C   0  0  0  0  0  0  0  0  0  0  0  0
  132.0170  123.3220   64.0770 C   0  0  0  0  0  0  0  0  0  0  0  0
  132.7960  122.4410   63.3510 O   0  0  0  0  0  0  0  0  0  0  0  0
  133.7300  122.9530   62.4090 C   0  0  0  0  0  0  0  0  0  0  0  0
  130.7110  123.0490   64.5120 C   0  0  0  0  0  0  0  0  0  0  0  0
  130.0030  123.9990   65.2430 C   0  0  0  0  0  0  0  0  0  0  0  0
  128.9820  127.1970   65.7310 C   0  0  0  0  0  0  0  0  0  0  0  0
  128.6230  127.4600   64.3630 C   0  0  0  0  0  0  0  0  0  0  0  0
  129.1200  126.7220   63.3180 N   0  0  0  0  0  0  0  0  0  0  0  0
  127.7280  128.5310   64.2040 C   0  0  0  0  0  0  0  0  0  0  0  0
  127.1550  129.0650   62.9670 C   0  0  0  0  0  0  0  0  0  0  0  0
  127.8170  129.0960   61.9280 O   0  0  0  0  0  0  0  0  0  0  0  0
  125.8780  129.5100   63.0630 N   0  0  0  0  0  0  0  0  0  0  0  0
  125.1060  130.0560   62.0470 C   0  0  0  0  0  0  0  0  0  0  0  0
  125.4010  130.1470   60.7680 N   0  0  0  0  0  0  0  0  0  0  0  0
  124.4310  130.7230   60.0870 C   0  0  0  0  0  0  0  0  0  0  0  0
  123.3150  131.1170   60.8180 C   0  0  0  0  0  0  0  0  0  0  0  0
  123.5600  130.7050   62.4900 S   0  0  0  0  0  0  0  0  0  0  0  0
  127.3030  129.2400   65.7630 S   0  0  0  0  0  0  0  0  0  0  0  0
  128.3250  128.1050   66.6120 C   0  0  0  0  0  0  0  0  0  0  0  0
  128.4470  128.1220   67.9390 N   0  0  0  0  0  0  0  0  0  0  0  0
  130.5360  127.7510   70.6020 C   0  0  0  0  0  0  0  0  0  0  0  0
  130.6530  127.7870   71.9880 C   0  0  0  0  0  0  0  0  0  0  0  0
  1  2  1  0
  2  3  1  0
  3  4  2  0
  4  5  1  0
  5  6  2  0
  6  7  1  0
  7  8  2  0
  8  9  1  0
  9 10  1  0
 10 11  2  0
 11 12  1  0
 12 13  2  0
 13 14  1  0
 14 15  1  0
 13 16  1  0
 16 17  2  0
  9 18  2  0
 18 19  1  0
 19 20  1  0
 19 21  2  0
 21 22  1  0
 22 23  2  0
 22 24  1  0
 24 25  1  0
 25 26  2  0
 26 27  1  0
 27 28  2  0
 28 29  1  0
 21 30  1  0
 30 31  1  0
 31 32  2  0
  6 33  1  0
 33 34  2  0
 34  3  1  0
 32  7  1  0
 17 10  1  0
 31 18  1  0
 29 25  1  0
M  END
>  <Binding energies>  (37) 
[-7.4]

>  <Ligand effiencies>  (37) 
[-0.2]

>  <Interactions>  (37) 
["V-B:GLU:543:CG:9879, H-B:TYR:484:OH:9319, V-A:GLU:543:CG:4907, V-B:GLU:543:CD:9880, V-A:TYR:484:CZ:4347, H-B:LYS:547:NZ:9923, V-A:GLU:543:CD:4908, V-B:GLU:543:C:9874, V-A:TYR:484:CE2:4346, V-B:GLU:543:CB:9878, H-A:LYS:547:NZ:4951, V-B:HIS:456:CE1:9041, V-A:GLU:543:CB:4906, V-A:GLU:543:C:4902, V-A:HIS:456:CE1:4070, V-A:ARG:545:CZ:4926, V-A:LEU:475:CD2:4259, V-A:GLY:544:C:4912, V-B:ILE:369:CG2:8208, V-B:ASP:366:CB:8183, V-B:ASP:366:CA:8181, V-B:ILE:369:CB:8207, V-B:ASP:366:CG:8184, H-A:GLU:543:OE1:4909, V-B:ILE:369:CG1:8209, H-A:TYR:484:OH:4348, V-A:HIS:456:CD2:4068, V-A:ILE:369:CD1:3239, H-B:GLU:543:OE2:9882, H-B:GLU:543:OE1:9881, V-A:GLY:454:CA:4049"]

$$$$
8d_Ghoteimi_2023
     RDKit          3D

 30 33  0  0  0  0  0  0  0  0999 V2000
  128.6590  133.3560   55.2820 C   0  0  0  0  0  0  0  0  0  0  0  0
  129.9110  133.6110   55.9040 O   0  0  0  0  0  0  0  0  0  0  0  0
  130.6800  132.5900   56.3630 C   0  0  0  0  0  0  0  0  0  0  0  0
  131.8020  132.3210   55.9260 O   0  0  0  0  0  0  0  0  0  0  0  0
  130.0330  131.8250   57.4520 C   0  0  0  0  0  0  0  0  0  0  0  0
  128.7660  132.5770   58.4230 S   0  0  0  0  0  0  0  0  0  0  0  0
  128.5800  131.1230   59.3760 C   0  0  0  0  0  0  0  0  0  0  0  0
  127.6940  131.0410   60.3690 N   0  0  0  0  0  0  0  0  0  0  0  0
  127.6300  129.8630   61.0460 C   0  0  0  0  0  0  0  0  0  0  0  0
  126.6320  129.8000   62.1580 C   0  0  0  0  0  0  0  0  0  0  0  0
  125.2790  130.0930   61.9350 C   0  0  0  0  0  0  0  0  0  0  0  0
  124.3540  130.0330   62.9740 C   0  0  0  0  0  0  0  0  0  0  0  0
  124.7560  129.6800   64.2610 C   0  0  0  0  0  0  0  0  0  0  0  0
  123.7710  129.6460   65.2290 O   0  0  0  0  0  0  0  0  0  0  0  0
  124.1470  129.6250   66.6020 C   0  0  0  0  0  0  0  0  0  0  0  0
  126.1060  129.3820   64.4950 C   0  0  0  0  0  0  0  0  0  0  0  0
  127.0280  129.4430   63.4530 C   0  0  0  0  0  0  0  0  0  0  0  0
  128.4530  128.7770   60.7330 C   0  0  0  0  0  0  0  0  0  0  0  0
  129.3800  128.8620   59.6890 C   0  0  0  0  0  0  0  0  0  0  0  0
  130.2320  127.6910   59.3770 C   0  0  0  0  0  0  0  0  0  0  0  0
  131.2370  127.2980   60.2620 C   0  0  0  0  0  0  0  0  0  0  0  0
  132.0440  126.2030   59.9650 C   0  0  0  0  0  0  0  0  0  0  0  0
  131.8550  125.4840   58.7840 C   0  0  0  0  0  0  0  0  0  0  0  0
  132.7020  124.4140   58.5720 O   0  0  0  0  0  0  0  0  0  0  0  0
  133.8700  124.2830   59.3740 C   0  0  0  0  0  0  0  0  0  0  0  0
  130.8400  125.8780   57.8970 C   0  0  0  0  0  0  0  0  0  0  0  0
  130.0350  126.9740   58.1960 C   0  0  0  0  0  0  0  0  0  0  0  0
  129.4620  130.0820   58.9670 C   0  0  0  0  0  0  0  0  0  0  0  0
  130.2800  130.5110   57.8670 C   0  0  0  0  0  0  0  0  0  0  0  0
  131.2210  129.7010   57.2850 N   0  0  0  0  0  0  0  0  0  0  0  0
  1  2  1  0
  2  3  1  0
  3  4  2  0
  3  5  1  0
  5  6  1  0
  6  7  1  0
  7  8  2  0
  8  9  1  0
  9 10  1  0
 10 11  2  0
 11 12  1  0
 12 13  2  0
 13 14  1  0
 14 15  1  0
 13 16  1  0
 16 17  2  0
  9 18  2  0
 18 19  1  0
 19 20  1  0
 20 21  2  0
 21 22  1  0
 22 23  2  0
 23 24  1  0
 24 25  1  0
 23 26  1  0
 26 27  2  0
 19 28  2  0
 28 29  1  0
 29 30  1  0
 29  5  2  0
 28  7  1  0
 17 10  1  0
 27 20  1  0
M  END
>  <Binding energies>  (38) 
[-6.62]

>  <Ligand effiencies>  (38) 
[-0.206875]

>  <Interactions>  (38) 
["H-B:TYR:484:OH:9319, V-B:ARG:545:CZ:9898, V-B:TYR:484:CZ:9318, V-B:GLU:543:CD:9880, V-B:HIS:456:CE1:9041, V-A:ILE:538:CB:4862, V-A:ILE:538:CA:4860, V-A:ILE:538:C:4858, V-A:TYR:539:CG:4872, V-B:GLY:454:CA:9020, H-A:TYR:539:N:4870, V-A:MET:535:CE:4835, V-A:TYR:539:CE1:4875, V-B:ASP:366:CG:8184, V-A:TYR:539:CD1:4873, V-A:TYR:539:CE2:4876, V-A:TYR:539:CD2:4874, V-A:TYR:539:CZ:4877, V-A:ILE:538:CG2:4863, V-A:ASP:366:CG:3213, V-A:TYR:531:CE2:4793, V-A:TYR:531:CZ:4794, H-A:TYR:531:OH:4795, H-B:TYR:539:OH:9850, V-A:ASP:366:CB:3212, H-B:ARG:545:NH1:9899, H-B:ARG:545:NH2:9900, V-B:ARG:545:CG:9894, H-B:GLY:454:N:9021, H-B:ARG:545:NE:9896, V-B:ARG:545:CD:9895, V-A:ASP:366:CA:3210, V-B:TYR:539:CE2:9848, V-A:ILE:369:CG2:3237, V-A:ILE:369:CB:3236, V-A:ILE:369:CD1:3239, V-B:TYR:539:CZ:9849, V-B:TYR:484:CE1:9316"]

$$$$
9a_Ghoteimi_2023
     RDKit          3D

 48 54  0  0  0  0  0  0  0  0999 V2000
  124.7710  122.8670   57.2540 C   0  0  0  0  0  0  0  0  0  0  0  0
  125.1560  122.1140   55.9760 C   0  0  0  0  0  0  0  0  0  0  0  0
  126.5310  121.7540   56.0350 O   0  0  0  0  0  0  0  0  0  0  0  0
  127.5060  122.6960   55.9680 C   0  0  0  0  0  0  0  0  0  0  0  0
  128.1540  122.9340   54.9440 O   0  0  0  0  0  0  0  0  0  0  0  0
  127.7260  123.4160   57.2670 C   0  0  0  0  0  0  0  0  0  0  0  0
  127.6320  122.7040   58.4700 C   0  0  0  0  0  0  0  0  0  0  0  0
  127.8280  123.3440   59.6900 C   0  0  0  0  0  0  0  0  0  0  0  0
  128.1240  124.7070   59.7350 C   0  0  0  0  0  0  0  0  0  0  0  0
  128.3010  125.2480   61.0230 N   0  0  0  0  0  0  0  0  0  0  0  0
  129.4060  125.3010   61.8090 C   0  0  0  0  0  0  0  0  0  0  0  0
  130.5060  124.8500   61.4880 O   0  0  0  0  0  0  0  0  0  0  0  0
  129.2180  125.9540   63.1080 C   0  0  0  0  0  0  0  0  0  0  0  0
  129.6820  125.1280   64.5960 S   0  0  0  0  0  0  0  0  0  0  0  0
  129.1800  126.4930   65.5650 C   0  0  0  0  0  0  0  0  0  0  0  0
  129.3060  126.4930   66.8910 N   0  0  0  0  0  0  0  0  0  0  0  0
  128.8960  127.6090   67.5500 C   0  0  0  0  0  0  0  0  0  0  0  0
  129.0570  127.5900   69.0360 C   0  0  0  0  0  0  0  0  0  0  0  0
  128.0610  127.0440   69.8520 C   0  0  0  0  0  0  0  0  0  0  0  0
  128.2030  127.0220   71.2370 C   0  0  0  0  0  0  0  0  0  0  0  0
  129.3540  127.5330   71.8570 C   0  0  0  0  0  0  0  0  0  0  0  0
  129.5020  127.5350   73.2480 N   0  0  0  0  0  0  0  0  0  0  0  0
  130.7160  126.9970   73.8950 C   0  0  0  0  0  0  0  0  0  0  0  0
  130.5560  126.7490   75.4100 C   0  0  0  0  0  0  0  0  0  0  0  0
  130.1180  127.9330   76.0540 O   0  0  0  0  0  0  0  0  0  0  0  0
  128.8640  128.3670   75.5480 C   0  0  0  0  0  0  0  0  0  0  0  0
  128.9800  128.6680   74.0400 C   0  0  0  0  0  0  0  0  0  0  0  0
  130.3430  128.0920   71.0350 C   0  0  0  0  0  0  0  0  0  0  0  0
  130.1990  128.1170   69.6510 C   0  0  0  0  0  0  0  0  0  0  0  0
  128.3400  128.7050   66.8870 C   0  0  0  0  0  0  0  0  0  0  0  0
  128.1870  128.7010   65.4960 C   0  0  0  0  0  0  0  0  0  0  0  0
  127.5550  129.8770   64.8440 C   0  0  0  0  0  0  0  0  0  0  0  0
  128.2920  131.0410   64.6090 C   0  0  0  0  0  0  0  0  0  0  0  0
  127.7020  132.1360   63.9870 C   0  0  0  0  0  0  0  0  0  0  0  0
  126.3640  132.0920   63.5640 C   0  0  0  0  0  0  0  0  0  0  0  0
  125.7470  133.1830   62.9470 N   0  0  0  0  0  0  0  0  0  0  0  0
  124.2720  133.2460   62.9030 C   0  0  0  0  0  0  0  0  0  0  0  0
  123.7310  134.6470   62.5490 C   0  0  0  0  0  0  0  0  0  0  0  0
  124.2940  135.0900   61.3230 O   0  0  0  0  0  0  0  0  0  0  0  0
  125.7090  135.1740   61.3950 C   0  0  0  0  0  0  0  0  0  0  0  0
  126.3030  133.7860   61.7190 C   0  0  0  0  0  0  0  0  0  0  0  0
  125.6350  130.9170   63.8020 C   0  0  0  0  0  0  0  0  0  0  0  0
  126.2230  129.8230   64.4290 C   0  0  0  0  0  0  0  0  0  0  0  0
  128.6430  127.5560   64.7810 C   0  0  0  0  0  0  0  0  0  0  0  0
  128.6990  127.2300   63.3780 C   0  0  0  0  0  0  0  0  0  0  0  0
  128.2930  128.1030   62.4010 N   0  0  0  0  0  0  0  0  0  0  0  0
  128.2230  125.4280   58.5350 C   0  0  0  0  0  0  0  0  0  0  0  0
  128.0260  124.7870   57.3150 C   0  0  0  0  0  0  0  0  0  0  0  0
  1  2  1  0
  2  3  1  0
  3  4  1  0
  4  5  2  0
  4  6  1  0
  6  7  2  0
  7  8  1  0
  8  9  2  0
  9 10  1  0
 10 11  1  0
 11 12  2  0
 11 13  1  0
 13 14  1  0
 14 15  1  0
 15 16  2  0
 16 17  1  0
 17 18  1  0
 18 19  2  0
 19 20  1  0
 20 21  2  0
 21 22  1  0
 22 23  1  0
 23 24  1  0
 24 25  1  0
 25 26  1  0
 26 27  1  0
 21 28  1  0
 28 29  2  0
 17 30  2  0
 30 31  1  0
 31 32  1  0
 32 33  2  0
 33 34  1  0
 34 35  2  0
 35 36  1  0
 36 37  1  0
 37 38  1  0
 38 39  1  0
 39 40  1  0
 40 41  1  0
 35 42  1  0
 42 43  2  0
 31 44  2  0
 44 45  1  0
 45 46  1  0
  9 47  1  0
 47 48  2  0
 48  6  1  0
 45 13  2  0
 44 15  1  0
 29 18  1  0
 43 32  1  0
 27 22  1  0
 41 36  1  0
M  END
>  <Binding energies>  (39) 
[-10.66]

>  <Ligand effiencies>  (39) 
[-0.20901960784313725]

>  <Interactions>  (39) 
["V-B:GLU:543:CG:9879, V-A:GLU:543:CG:4907, V-B:GLU:543:CD:9880, V-A:GLU:543:CD:4908, V-B:GLU:543:C:9874, V-B:GLU:543:CB:9878, H-A:LYS:547:NZ:4951, V-B:HIS:456:CE1:9041, V-A:GLU:543:CB:4906, V-B:LEU:475:CD2:9230, V-A:GLU:543:C:4902, V-A:HIS:456:CE1:4070, V-B:TYR:484:CE2:9317, V-A:GLY:544:C:4912, V-B:GLY:454:CA:9020, V-A:TYR:539:CE1:4875, V-A:TYR:539:CD1:4873, V-B:SER:385:CB:8380, V-B:LEU:363:CD1:8160, V-B:PRO:540:N:9856, V-B:PRO:540:CA:9855, V-B:PRO:540:CB:9857, V-B:TYR:539:C:9839, V-B:PRO:540:CD:9859, H-B:TYR:539:OH:9850, V-B:TYR:539:CE1:9847, V-B:TYR:539:CD1:9845, H-A:GLU:543:OE1:4909, H-B:TYR:539:N:9842, V-A:HIS:456:CD2:4068, V-B:HIS:456:CD2:9039, V-B:TYR:539:CE2:9848, H-B:GLU:543:OE1:9881, V-B:TYR:539:CD2:9846, V-B:TYR:539:CG:9844, V-B:TYR:539:CZ:9849, V-B:MET:535:CE:9807, V-B:ILE:538:CG2:9835, V-B:SER:385:C:8376, V-B:SER:385:CA:8378, V-B:ILE:538:CA:9832, V-B:PRO:540:CG:9858, V-B:ILE:538:CB:9834"]

$$$$
9b_Ghoteimi_2023
     RDKit          3D

 42 48  0  0  0  0  0  0  0  0999 V2000
  128.6760  125.9430   59.1210 N   0  0  0  0  0  0  0  0  0  0  0  0
  128.5850  125.2310   60.2900 C   0  0  0  0  0  0  0  0  0  0  0  0
  128.1950  123.8840   60.3470 C   0  0  0  0  0  0  0  0  0  0  0  0
  127.8440  122.9870   59.2430 C   0  0  0  0  0  0  0  0  0  0  0  0
  128.3670  121.8750   59.1450 O   0  0  0  0  0  0  0  0  0  0  0  0
  126.9300  123.4730   58.3660 N   0  0  0  0  0  0  0  0  0  0  0  0
  126.4280  122.8470   57.2320 C   0  0  0  0  0  0  0  0  0  0  0  0
  125.0700  122.8090   56.9210 C   0  0  0  0  0  0  0  0  0  0  0  0
  124.9920  122.1110   55.7380 C   0  0  0  0  0  0  0  0  0  0  0  0
  126.2400  121.7470   55.3570 O   0  0  0  0  0  0  0  0  0  0  0  0
  127.1410  122.2190   56.3120 N   0  0  0  0  0  0  0  0  0  0  0  0
  128.1580  123.3000   62.0110 S   0  0  0  0  0  0  0  0  0  0  0  0
  128.6470  124.8640   62.6180 C   0  0  0  0  0  0  0  0  0  0  0  0
  128.7840  125.0950   63.9230 N   0  0  0  0  0  0  0  0  0  0  0  0
  129.1510  126.3500   64.2920 C   0  0  0  0  0  0  0  0  0  0  0  0
  129.2760  126.5870   65.7620 C   0  0  0  0  0  0  0  0  0  0  0  0
  130.0100  125.7160   66.5760 C   0  0  0  0  0  0  0  0  0  0  0  0
  130.1120  125.9340   67.9470 C   0  0  0  0  0  0  0  0  0  0  0  0
  129.4710  127.0240   68.5560 C   0  0  0  0  0  0  0  0  0  0  0  0
  129.5670  127.2580   69.9330 N   0  0  0  0  0  0  0  0  0  0  0  0
  128.3610  127.3990   70.7750 C   0  0  0  0  0  0  0  0  0  0  0  0
  128.6440  127.3040   72.2880 C   0  0  0  0  0  0  0  0  0  0  0  0
  129.6330  128.2500   72.6570 O   0  0  0  0  0  0  0  0  0  0  0  0
  130.8550  128.0170   71.9760 C   0  0  0  0  0  0  0  0  0  0  0  0
  130.6430  128.1290   70.4510 C   0  0  0  0  0  0  0  0  0  0  0  0
  128.7540  127.9040   67.7330 C   0  0  0  0  0  0  0  0  0  0  0  0
  128.6560  127.6890   66.3620 C   0  0  0  0  0  0  0  0  0  0  0  0
  129.4050  127.3580   63.3590 C   0  0  0  0  0  0  0  0  0  0  0  0
  129.2830  127.1140   61.9860 C   0  0  0  0  0  0  0  0  0  0  0  0
  129.5930  128.2110   61.0340 C   0  0  0  0  0  0  0  0  0  0  0  0
  130.7620  128.1730   60.2720 C   0  0  0  0  0  0  0  0  0  0  0  0
  131.0470  129.1890   59.3660 C   0  0  0  0  0  0  0  0  0  0  0  0
  130.1700  130.2730   59.1960 C   0  0  0  0  0  0  0  0  0  0  0  0
  130.4290  131.2960   58.2810 N   0  0  0  0  0  0  0  0  0  0  0  0
  129.3340  132.2010   57.8800 C   0  0  0  0  0  0  0  0  0  0  0  0
  129.6450  133.0020   56.5980 C   0  0  0  0  0  0  0  0  0  0  0  0
  130.8580  133.7230   56.7590 O   0  0  0  0  0  0  0  0  0  0  0  0
  131.9540  132.8570   57.0140 C   0  0  0  0  0  0  0  0  0  0  0  0
  131.7000  132.0470   58.3030 C   0  0  0  0  0  0  0  0  0  0  0  0
  128.9900  130.2910   59.9540 C   0  0  0  0  0  0  0  0  0  0  0  0
  128.7050  129.2740   60.8610 C   0  0  0  0  0  0  0  0  0  0  0  0
  128.8660  125.8160   61.5780 C   0  0  0  0  0  0  0  0  0  0  0  0
  1  2  1  0
  2  3  2  0
  3  4  1  0
  4  5  2  0
  4  6  1  0
  6  7  1  0
  7  8  1  0
  8  9  2  0
  9 10  1  0
 10 11  1  0
  3 12  1  0
 12 13  1  0
 13 14  2  0
 14 15  1  0
 15 16  1  0
 16 17  2  0
 17 18  1  0
 18 19  2  0
 19 20  1  0
 20 21  1  0
 21 22  1  0
 22 23  1  0
 23 24  1  0
 24 25  1  0
 19 26  1  0
 26 27  2  0
 15 28  2  0
 28 29  1  0
 29 30  1  0
 30 31  2  0
 31 32  1  0
 32 33  2  0
 33 34  1  0
 34 35  1  0
 35 36  1  0
 36 37  1  0
 37 38  1  0
 38 39  1  0
 33 40  1  0
 40 41  2  0
 29 42  2  0
 42  2  1  0
 11  7  2  0
 42 13  1  0
 27 16  1  0
 41 30  1  0
 25 20  1  0
 39 34  1  0
M  END
>  <Binding energies>  (40) 
[-9.95]

>  <Ligand effiencies>  (40) 
[-0.2211111111111111]

>  <Interactions>  (40) 
["V-B:GLU:543:CG:9879, V-A:GLU:543:CG:4907, V-B:GLU:543:CD:9880, V-A:GLU:543:CD:4908, V-B:GLU:543:CB:9878, H-A:LYS:547:NZ:4951, V-B:HIS:456:CE1:9041, V-A:GLU:543:CB:4906, V-A:GLU:543:C:4902, V-A:HIS:456:CE1:4070, V-A:GLY:544:C:4912, V-A:ILE:538:CB:4862, V-A:ILE:538:CA:4860, H-A:TYR:539:N:4870, V-A:LEU:363:CD1:3189, V-A:PRO:540:N:4884, V-A:PRO:540:CA:4883, V-A:PRO:540:CB:4885, V-A:ASP:366:CG:3213, V-A:PRO:540:CD:4887, V-B:LEU:363:CD1:8160, V-B:PRO:540:N:9856, V-B:PRO:540:CA:9855, V-B:PRO:540:CB:9857, V-B:TYR:539:C:9839, V-B:PRO:540:CD:9859, V-A:PRO:540:CG:4886, H-B:TYR:539:N:9842, V-B:HIS:456:CD2:9039, V-B:TYR:539:CE2:9848, V-B:TYR:539:CD2:9846, V-B:MET:535:CE:9807, V-B:ILE:538:CG2:9835, V-B:ILE:538:CA:9832, V-B:PRO:540:CG:9858, V-B:ILE:538:CB:9834, V-B:ILE:538:CG1:9836"]

$$$$
9c_Ghoteimi_2023
     RDKit          3D

 42 48  0  0  0  0  0  0  0  0999 V2000
  127.8070  128.1550   62.1610 N   0  0  0  0  0  0  0  0  0  0  0  0
  128.3730  127.3290   63.0990 C   0  0  0  0  0  0  0  0  0  0  0  0
  128.9120  126.0690   62.7950 C   0  0  0  0  0  0  0  0  0  0  0  0
  129.0030  125.4050   61.4910 C   0  0  0  0  0  0  0  0  0  0  0  0
  130.0310  125.4800   60.8150 O   0  0  0  0  0  0  0  0  0  0  0  0
  127.8940  124.7280   61.1040 N   0  0  0  0  0  0  0  0  0  0  0  0
  127.7130  124.0310   59.9180 C   0  0  0  0  0  0  0  0  0  0  0  0
  128.2920  122.9110   59.5420 N   0  0  0  0  0  0  0  0  0  0  0  0
  127.8860  122.5330   58.3460 C   0  0  0  0  0  0  0  0  0  0  0  0
  126.9540  123.3580   57.7230 C   0  0  0  0  0  0  0  0  0  0  0  0
  126.5970  124.6980   58.7700 S   0  0  0  0  0  0  0  0  0  0  0  0
  129.5260  125.2720   64.2430 S   0  0  0  0  0  0  0  0  0  0  0  0
  129.0430  126.6190   65.2450 C   0  0  0  0  0  0  0  0  0  0  0  0
  129.2290  126.6100   66.5640 N   0  0  0  0  0  0  0  0  0  0  0  0
  128.8010  127.7000   67.2540 C   0  0  0  0  0  0  0  0  0  0  0  0
  129.0030  127.6540   68.7340 C   0  0  0  0  0  0  0  0  0  0  0  0
  130.1880  128.1160   69.3190 C   0  0  0  0  0  0  0  0  0  0  0  0
  130.3750  128.0630   70.6960 C   0  0  0  0  0  0  0  0  0  0  0  0
  129.3860  127.5330   71.5410 C   0  0  0  0  0  0  0  0  0  0  0  0
  129.5560  127.4790   72.9290 N   0  0  0  0  0  0  0  0  0  0  0  0
  129.0000  128.5240   73.8130 C   0  0  0  0  0  0  0  0  0  0  0  0
  128.9740  128.1310   75.3050 C   0  0  0  0  0  0  0  0  0  0  0  0
  130.2740  127.7490   75.7270 O   0  0  0  0  0  0  0  0  0  0  0  0
  130.7500  126.6320   74.9940 C   0  0  0  0  0  0  0  0  0  0  0  0
  130.8270  126.9760   73.4910 C   0  0  0  0  0  0  0  0  0  0  0  0
  128.1940  127.0900   70.9520 C   0  0  0  0  0  0  0  0  0  0  0  0
  128.0060  127.1470   69.5740 C   0  0  0  0  0  0  0  0  0  0  0  0
  128.2180  128.8010   66.6230 C   0  0  0  0  0  0  0  0  0  0  0  0
  128.0410  128.8240   65.2360 C   0  0  0  0  0  0  0  0  0  0  0  0
  127.4450  130.0300   64.6100 C   0  0  0  0  0  0  0  0  0  0  0  0
  128.2300  131.1580   64.3640 C   0  0  0  0  0  0  0  0  0  0  0  0
  127.6780  132.2850   63.7620 C   0  0  0  0  0  0  0  0  0  0  0  0
  126.3260  132.3150   63.3900 C   0  0  0  0  0  0  0  0  0  0  0  0
  125.7530  133.4320   62.7730 N   0  0  0  0  0  0  0  0  0  0  0  0
  126.4700  134.0860   61.6600 C   0  0  0  0  0  0  0  0  0  0  0  0
  125.9390  135.5000   61.3420 C   0  0  0  0  0  0  0  0  0  0  0  0
  124.5450  135.4480   61.0790 O   0  0  0  0  0  0  0  0  0  0  0  0
  123.8200  134.9470   62.1920 C   0  0  0  0  0  0  0  0  0  0  0  0
  124.2990  133.5200   62.5370 C   0  0  0  0  0  0  0  0  0  0  0  0
  125.5510  131.1690   63.6220 C   0  0  0  0  0  0  0  0  0  0  0  0
  126.1030  130.0410   64.2250 C   0  0  0  0  0  0  0  0  0  0  0  0
  128.4490  127.6770   64.4950 C   0  0  0  0  0  0  0  0  0  0  0  0
  1  2  1  0
  2  3  2  0
  3  4  1  0
  4  5  2  0
  4  6  1  0
  6  7  1  0
  7  8  2  0
  8  9  1  0
  9 10  2  0
 10 11  1  0
  3 12  1  0
 12 13  1  0
 13 14  2  0
 14 15  1  0
 15 16  1  0
 16 17  2  0
 17 18  1  0
 18 19  2  0
 19 20  1  0
 20 21  1  0
 21 22  1  0
 22 23  1  0
 23 24  1  0
 24 25  1  0
 19 26  1  0
 26 27  2  0
 15 28  2  0
 28 29  1  0
 29 30  1  0
 30 31  2  0
 31 32  1  0
 32 33  2  0
 33 34  1  0
 34 35  1  0
 35 36  1  0
 36 37  1  0
 37 38  1  0
 38 39  1  0
 33 40  1  0
 40 41  2  0
 29 42  2  0
 42  2  1  0
 11  7  1  0
 42 13  1  0
 27 16  1  0
 41 30  1  0
 25 20  1  0
 39 34  1  0
M  END
>  <Binding energies>  (41) 
[-9.12]

>  <Ligand effiencies>  (41) 
[-0.20266666666666666]

>  <Interactions>  (41) 
["V-B:GLU:543:CG:9879, V-A:GLU:543:CG:4907, V-B:GLU:543:CD:9880, V-A:GLU:543:CD:4908, V-B:GLU:543:C:9874, V-B:GLU:543:CB:9878, H-A:LYS:547:NZ:4951, V-B:HIS:456:CE1:9041, V-A:GLU:543:CB:4906, V-A:ALA:541:CB:4892, V-B:LEU:475:CD2:9230, V-A:GLU:543:C:4902, V-A:HIS:456:CE1:4070, V-A:GLY:544:C:4912, V-B:ILE:369:CG2:8208, V-B:GLY:454:CA:9020, V-A:TYR:539:CE1:4875, V-A:TYR:539:CD1:4873, V-B:SER:385:CB:8380, V-B:PRO:540:N:9856, V-B:PRO:540:CA:9855, V-B:TYR:539:C:9839, V-A:HIS:456:CD2:4068, V-B:HIS:456:CD2:9039, V-B:TYR:539:CE2:9848, H-B:GLU:543:OE1:9881, V-B:TYR:539:CD2:9846, V-B:TYR:539:CG:9844, V-B:TYR:539:CZ:9849, V-B:SER:385:C:8376, V-B:SER:385:CA:8378, V-A:GLU:543:CA:4904"]

$$$$
RR11_Rahimova_2017
     RDKit          3D

 33 38  0  0  0  0  0  0  0  0999 V2000
  133.7660  121.2670   61.0530 N   0  0  0  0  0  0  0  0  0  0  0  0
  133.0770  122.0940   61.9380 C   0  0  0  0  0  0  0  0  0  0  0  0
  133.7760  122.7960   62.9180 C   0  0  0  0  0  0  0  0  0  0  0  0
  133.0870  123.6240   63.8000 C   0  0  0  0  0  0  0  0  0  0  0  0
  131.6960  123.7580   63.7110 C   0  0  0  0  0  0  0  0  0  0  0  0
  130.9560  124.6550   64.6580 C   0  0  0  0  0  0  0  0  0  0  0  0
  130.3290  125.7550   64.3040 N   0  0  0  0  0  0  0  0  0  0  0  0
  129.7870  126.2520   65.4600 C   0  0  0  0  0  0  0  0  0  0  0  0
  129.0110  127.4040   65.6510 C   0  0  0  0  0  0  0  0  0  0  0  0
  128.5530  127.6910   66.9430 C   0  0  0  0  0  0  0  0  0  0  0  0
  127.7140  128.9390   67.1820 C   0  0  0  0  0  0  0  0  0  0  0  0
  126.7330  129.2200   66.0530 C   0  0  0  0  0  0  0  0  0  0  0  0
  125.3650  129.3050   66.3330 C   0  0  0  0  0  0  0  0  0  0  0  0
  124.4270  129.5700   65.3330 C   0  0  0  0  0  0  0  0  0  0  0  0
  124.8930  129.7580   64.0250 C   0  0  0  0  0  0  0  0  0  0  0  0
  124.1850  130.0190   62.8810 N   0  0  0  0  0  0  0  0  0  0  0  0
  125.0870  130.1030   61.9260 C   0  0  0  0  0  0  0  0  0  0  0  0
  124.7720  130.3640   60.4810 C   0  0  0  0  0  0  0  0  0  0  0  0
  125.7070  130.0600   59.4840 C   0  0  0  0  0  0  0  0  0  0  0  0
  125.4200  130.3120   58.1450 C   0  0  0  0  0  0  0  0  0  0  0  0
  124.1930  130.8710   57.7940 C   0  0  0  0  0  0  0  0  0  0  0  0
  123.9060  131.1280   56.4530 N   0  0  0  0  0  0  0  0  0  0  0  0
  123.2520  131.1740   58.7740 C   0  0  0  0  0  0  0  0  0  0  0  0
  123.5410  130.9220   60.1120 C   0  0  0  0  0  0  0  0  0  0  0  0
  126.3650  129.9110   62.4050 N   0  0  0  0  0  0  0  0  0  0  0  0
  126.2810  129.6820   63.7580 C   0  0  0  0  0  0  0  0  0  0  0  0
  127.2240  129.4230   64.7560 C   0  0  0  0  0  0  0  0  0  0  0  0
  128.8860  126.8600   68.0190 C   0  0  0  0  0  0  0  0  0  0  0  0
  129.6610  125.7080   67.8610 C   0  0  0  0  0  0  0  0  0  0  0  0
  130.0970  125.4250   66.5650 C   0  0  0  0  0  0  0  0  0  0  0  0
  130.8490  124.4140   66.0130 N   0  0  0  0  0  0  0  0  0  0  0  0
  131.0050  123.0450   62.7210 C   0  0  0  0  0  0  0  0  0  0  0  0
  131.6920  122.2160   61.8380 C   0  0  0  0  0  0  0  0  0  0  0  0
  1  2  1  0
  2  3  2  0
  3  4  1  0
  4  5  2  0
  5  6  1  0
  6  7  2  0
  7  8  1  0
  8  9  2  0
  9 10  1  0
 10 11  1  0
 11 12  1  0
 12 13  2  0
 13 14  1  0
 14 15  2  0
 15 16  1  0
 16 17  2  0
 17 18  1  0
 18 19  2  0
 19 20  1  0
 20 21  2  0
 21 22  1  0
 21 23  1  0
 23 24  2  0
 17 25  1  0
 25 26  1  0
 26 27  2  0
 10 28  2  0
 28 29  1  0
 29 30  2  0
 30 31  1  0
  5 32  1  0
 32 33  2  0
 33  2  1  0
 31  6  1  0
 30  8  1  0
 27 12  1  0
 26 15  1  0
 24 18  1  0
M  END
>  <Binding energies>  (42) 
[-8.85]

>  <Ligand effiencies>  (42) 
[-0.22692307692307692]

>  <Interactions>  (42) 
["V-B:GLU:543:CG:9879, V-A:GLU:543:CG:4907, V-B:ARG:545:CZ:9898, V-B:TYR:484:CZ:9318, V-B:GLU:543:CD:9880, V-A:TYR:484:CZ:4347, V-A:GLU:543:CD:4908, V-A:TYR:484:CE2:4346, V-B:GLU:543:CB:9878, V-B:HIS:456:CE1:9041, V-A:HIS:456:CE1:4070, V-A:LEU:475:CD2:4259, V-B:TYR:531:CZ:9766, V-B:ILE:369:CG2:8208, V-B:ASP:366:CB:8183, V-B:TYR:531:CE1:9764, V-B:ASP:366:CA:8181, H-A:TYR:539:OH:4878, V-B:ILE:369:CB:8207, V-A:TYR:539:CE1:4875, V-B:ASP:366:CG:8184, V-A:TYR:539:CZ:4877, H-B:TYR:531:OH:9767, V-B:ASP:366:C:8179, H-B:ARG:545:NH2:9900, V-B:ARG:545:CG:9894, V-B:ARG:545:CD:9895, H-A:TYR:484:OH:4348, V-B:GLU:543:CA:9876, V-B:ASN:370:CB:8216, V-A:ILE:369:CG2:3237, V-A:ILE:369:CD1:3239, H-B:ASP:366:O:8180, H-A:SER:385:OG:3410, V-A:SER:385:CB:3409, V-A:SER:385:C:3405, V-A:GLY:454:CA:4049, H-A:SER:385:O:3406, V-A:SER:385:CA:3407"]

$$$$
RR16_Rahimova_2017
     RDKit          3D

 44 49  0  0  0  0  0  0  0  0999 V2000
  129.0790  122.2270   63.4060 O   0  0  0  0  0  0  0  0  0  0  0  0
  129.5150  121.7450   62.0910 S   0  0  0  0  0  0  0  0  0  0  0  0
  129.7460  120.3160   61.8510 O   0  0  0  0  0  0  0  0  0  0  0  0
  130.9890  122.6180   61.6670 N   0  0  0  0  0  0  0  0  0  0  0  0
  130.9500  124.0600   61.3280 C   0  0  0  0  0  0  0  0  0  0  0  0
  131.7580  124.8540   62.3870 C   0  0  0  0  0  0  0  0  0  0  0  0
  133.0340  124.1930   62.9430 C   0  0  0  0  0  0  0  0  0  0  0  0
  134.2120  124.1770   61.9540 C   0  0  0  0  0  0  0  0  0  0  0  0
  133.8870  123.6730   60.5340 C   0  0  0  0  0  0  0  0  0  0  0  0
  132.9170  124.5250   59.6920 C   0  0  0  0  0  0  0  0  0  0  0  0
  131.4140  124.2310   59.8630 C   0  0  0  0  0  0  0  0  0  0  0  0
  128.3040  122.3140   60.9030 C   0  0  0  0  0  0  0  0  0  0  0  0
  128.5470  122.1880   59.5330 C   0  0  0  0  0  0  0  0  0  0  0  0
  127.6540  122.7450   58.6220 C   0  0  0  0  0  0  0  0  0  0  0  0
  126.5230  123.4220   59.0830 C   0  0  0  0  0  0  0  0  0  0  0  0
  125.4490  124.2590   57.9190 S   0  0  0  0  0  0  0  0  0  0  0  0
  124.1650  124.4900   58.5940 O   0  0  0  0  0  0  0  0  0  0  0  0
  125.4980  123.5090   56.6570 O   0  0  0  0  0  0  0  0  0  0  0  0
  126.2310  125.8300   57.6590 N   0  0  0  0  0  0  0  0  0  0  0  0
  126.3680  126.6600   58.8840 C   0  0  0  0  0  0  0  0  0  0  0  0
  126.7620  128.1050   58.5160 C   0  0  0  0  0  0  0  0  0  0  0  0
  128.0200  128.1460   57.6140 C   0  0  0  0  0  0  0  0  0  0  0  0
  128.4010  129.5690   57.1990 C   0  0  0  0  0  0  0  0  0  0  0  0
  127.4430  130.3990   56.5980 C   0  0  0  0  0  0  0  0  0  0  0  0
  127.7430  131.7050   56.2110 C   0  0  0  0  0  0  0  0  0  0  0  0
  126.7920  132.5030   55.6290 O   0  0  0  0  0  0  0  0  0  0  0  0
  129.0430  132.1810   56.4410 C   0  0  0  0  0  0  0  0  0  0  0  0
  129.6100  133.3970   56.1890 N   0  0  0  0  0  0  0  0  0  0  0  0
  130.9120  133.3490   56.6380 N   0  0  0  0  0  0  0  0  0  0  0  0
  131.1520  132.1110   57.1140 N   0  0  0  0  0  0  0  0  0  0  0  0
  132.4330  131.8010   57.7350 C   0  0  0  0  0  0  0  0  0  0  0  0
  132.3450  131.7140   59.2520 C   0  0  0  0  0  0  0  0  0  0  0  0
  133.5070  131.5510   60.0140 C   0  0  0  0  0  0  0  0  0  0  0  0
  133.4310  131.4930   61.4060 C   0  0  0  0  0  0  0  0  0  0  0  0
  132.1940  131.6000   62.0440 C   0  0  0  0  0  0  0  0  0  0  0  0
  131.0320  131.7640   61.2890 C   0  0  0  0  0  0  0  0  0  0  0  0
  129.5020  131.9070   62.0750 Cl  0  0  0  0  0  0  0  0  0  0  0  0
  131.1070  131.8180   59.8960 C   0  0  0  0  0  0  0  0  0  0  0  0
  130.0070  131.3360   57.0400 C   0  0  0  0  0  0  0  0  0  0  0  0
  129.7080  130.0250   57.4240 C   0  0  0  0  0  0  0  0  0  0  0  0
  127.9110  127.1770   56.4070 C   0  0  0  0  0  0  0  0  0  0  0  0
  127.4700  125.7650   56.8410 C   0  0  0  0  0  0  0  0  0  0  0  0
  126.2600  123.5100   60.4520 C   0  0  0  0  0  0  0  0  0  0  0  0
  127.1540  122.9580   61.3630 C   0  0  0  0  0  0  0  0  0  0  0  0
  1  2  2  0
  2  3  2  0
  2  4  1  0
  4  5  1  0
  5  6  1  0
  6  7  1  0
  7  8  1  0
  8  9  1  0
  9 10  1  0
 10 11  1  0
  2 12  1  0
 12 13  2  0
 13 14  1  0
 14 15  2  0
 15 16  1  0
 16 17  2  0
 16 18  2  0
 16 19  1  0
 19 20  1  0
 20 21  1  0
 21 22  1  0
 22 23  1  0
 23 24  2  0
 24 25  1  0
 25 26  1  0
 25 27  2  0
 27 28  1  0
 28 29  2  0
 29 30  1  0
 30 31  1  0
 31 32  1  0
 32 33  2  0
 33 34  1  0
 34 35  2  0
 35 36  1  0
 36 37  1  0
 36 38  2  0
 30 39  1  0
 39 40  2  0
 22 41  1  0
 41 42  1  0
 15 43  1  0
 43 44  2  0
 11  5  1  0
 44 12  1  0
 42 19  1  0
 40 23  1  0
 39 27  1  0
 38 32  1  0
M  END
>  <Binding energies>  (43) 
[-10.25]

>  <Ligand effiencies>  (43) 
[-0.21354166666666666]

>  <Interactions>  (43) 
["V-B:ALA:541:CB:9864, V-A:LEU:475:CD2:4259, H-A:TYR:539:N:4870, V-A:MET:535:CE:4835, V-A:LEU:363:CD1:3189, H-A:TYR:539:OH:4878, V-A:TYR:539:CE1:4875, V-B:ASP:366:CG:8184, V-A:TYR:539:CZ:4877, H-B:TYR:531:OH:9767, V-A:PRO:540:CA:4883, V-A:PRO:540:CB:4885, V-A:ASP:366:CG:3213, V-A:ASN:362:C:3172, V-A:ASN:362:CB:3176, V-A:LEU:363:CA:3185, V-A:LEU:363:CB:3187, V-B:PRO:540:N:9856, V-B:PRO:540:CA:9855, V-B:PRO:540:CB:9857, V-B:TYR:539:C:9839, V-A:ASP:366:CB:3212, V-B:TYR:539:CE2:9848, V-A:ILE:369:CG2:3237, V-A:ILE:369:CB:3236, V-A:ILE:369:CD1:3239, V-B:PRO:540:C:9853, V-B:TYR:539:CD2:9846, V-B:TYR:539:CG:9844"]

$$$$
RR18_Rahimova_2017
     RDKit          3D

 36 41  0  0  0  0  0  0  0  0999 V2000
  129.2390  126.4250   62.4890 C   0  0  0  0  0  0  0  0  0  0  0  0
  128.3090  127.4590   61.9070 C   0  0  0  0  0  0  0  0  0  0  0  0
  127.1510  127.3980   61.1480 C   0  0  0  0  0  0  0  0  0  0  0  0
  126.7510  128.7140   60.9190 C   0  0  0  0  0  0  0  0  0  0  0  0
  127.6770  129.5310   61.5470 C   0  0  0  0  0  0  0  0  0  0  0  0
  127.8270  131.0430   61.6920 C   0  0  1  0  0  0  0  0  0  0  0  0
  128.6920  131.4150   62.9330 C   0  0  0  0  0  0  0  0  0  0  0  0
  128.2230  131.1070   64.2800 C   0  0  0  0  0  0  0  0  0  0  0  0
  128.2700  131.9360   65.1910 O   0  0  0  0  0  0  0  0  0  0  0  0
  127.7270  129.8550   64.4220 N   0  0  0  0  0  0  0  0  0  0  0  0
  127.2090  129.2020   65.5600 C   0  0  0  0  0  0  0  0  0  0  0  0
  128.0030  128.4780   66.4680 C   0  0  0  0  0  0  0  0  0  0  0  0
  127.4270  127.8500   67.5700 C   0  0  0  0  0  0  0  0  0  0  0  0
  126.0540  127.9280   67.7810 C   0  0  0  0  0  0  0  0  0  0  0  0
  125.2530  128.6320   66.8850 C   0  0  0  0  0  0  0  0  0  0  0  0
  125.8170  129.2690   65.7740 C   0  0  0  0  0  0  0  0  0  0  0  0
  124.8950  130.0230   64.8200 C   0  0  0  0  0  0  0  0  0  0  0  0
  129.9310  131.9350   62.7260 C   0  0  0  0  0  0  0  0  0  0  0  0
  130.4390  132.2720   61.5080 N   0  0  0  0  0  0  0  0  0  0  0  0
  129.6960  132.1780   60.4680 C   0  0  0  0  0  0  0  0  0  0  0  0
  130.1570  132.7130   58.8690 S   0  0  0  0  0  0  0  0  0  0  0  0
  128.5690  132.2300   58.1930 C   0  0  0  0  0  0  0  0  0  0  0  0
  128.1480  132.3530   56.8860 C   0  0  0  0  0  0  0  0  0  0  0  0
  129.0060  133.0110   55.8890 C   0  0  0  0  0  0  0  0  0  0  0  0
  130.1320  133.4910   56.0070 O   0  0  0  0  0  0  0  0  0  0  0  0
  128.3290  133.0360   54.7360 N   0  0  0  0  0  0  0  0  0  0  0  0
  127.1100  132.4360   54.8230 C   0  0  0  0  0  0  0  0  0  0  0  0
  126.1620  132.2760   53.8120 C   0  0  0  0  0  0  0  0  0  0  0  0
  124.9800  131.5990   54.0990 C   0  0  0  0  0  0  0  0  0  0  0  0
  124.7720  131.0890   55.3800 C   0  0  0  0  0  0  0  0  0  0  0  0
  125.7360  131.2630   56.3760 C   0  0  0  0  0  0  0  0  0  0  0  0
  126.9270  131.9650   56.1110 C   0  0  0  0  0  0  0  0  0  0  0  0
  127.7620  131.6810   59.2830 C   0  0  0  0  0  0  0  0  0  0  0  0
  126.6000  131.2950   59.2080 O   0  0  0  0  0  0  0  0  0  0  0  0
  128.4430  131.6540   60.4610 N   0  0  0  0  0  0  0  0  0  0  0  0
  128.6230  128.7590   62.1450 O   0  0  0  0  0  0  0  0  0  0  0  0
  1  2  1  0
  2  3  2  0
  3  4  1  0
  4  5  2  0
  6  5  1  6
  6  7  1  0
  7  8  1  0
  8  9  2  0
  8 10  1  0
 10 11  1  0
 11 12  2  0
 12 13  1  0
 13 14  2  0
 14 15  1  0
 15 16  2  0
 16 17  1  0
  7 18  2  0
 18 19  1  0
 19 20  2  0
 20 21  1  0
 21 22  1  0
 22 23  2  0
 23 24  1  0
 24 25  2  0
 24 26  1  0
 26 27  1  0
 27 28  2  0
 28 29  1  0
 29 30  2  0
 30 31  1  0
 31 32  2  0
 22 33  1  0
 33 34  2  0
 33 35  1  0
  5 36  1  0
 36  2  1  0
 35  6  1  0
 16 11  1  0
 35 20  1  0
 32 23  1  0
 32 27  1  0
M  END
>  <Binding energies>  (44) 
[-8.84]

>  <Ligand effiencies>  (44) 
[-0.2326315789473684]

>  <Interactions>  (44) 
["H-B:TYR:484:OH:9319, V-A:GLU:543:CG:4907, V-B:ARG:545:CZ:9898, V-B:TYR:484:CZ:9318, V-B:GLU:543:CD:9880, V-A:GLU:543:CD:4908, V-B:GLU:543:CB:9878, V-B:HIS:456:CE1:9041, V-A:ALA:541:CB:4892, V-B:TYR:531:CZ:9766, V-A:ILE:538:CA:4860, V-A:ILE:538:C:4858, H-A:TYR:539:N:4870, V-B:TYR:531:CE1:9764, V-A:MET:535:CE:4835, V-A:TYR:539:CE1:4875, V-A:TYR:539:CD1:4873, V-A:TYR:539:CE2:4876, V-A:TYR:539:CD2:4874, V-A:TYR:539:CZ:4877, H-A:ALA:541:N:4891, V-A:TYR:539:C:4867, V-A:PRO:540:N:4884, V-A:PRO:540:CA:4883, V-A:PRO:540:CB:4885, V-A:VAL:537:C:4850, H-A:GLU:543:OE1:4909, V-B:ARG:545:CG:9894, V-B:ARG:545:CD:9895, V-B:ASN:370:CB:8216, H-A:VAL:537:O:4851, V-B:ASN:370:CG:8217"]

$$$$
RR20_Rahimova_2017
     RDKit          3D

 38 43  0  0  0  0  0  0  0  0999 V2000
  133.4900  130.7520   58.3420 C   0  0  0  0  0  0  0  0  0  0  0  0
  132.1890  131.2610   57.7500 C   0  0  0  0  0  0  0  0  0  0  0  0
  131.1760  130.3600   57.4210 C   0  0  0  0  0  0  0  0  0  0  0  0
  129.9780  130.8260   56.8870 C   0  0  0  0  0  0  0  0  0  0  0  0
  129.7870  132.1950   56.6650 C   0  0  0  0  0  0  0  0  0  0  0  0
  128.4710  132.6830   56.1030 C   0  0  0  0  0  0  0  0  0  0  0  0
  128.5110  133.5050   55.1840 O   0  0  0  0  0  0  0  0  0  0  0  0
  127.3030  132.1940   56.6140 N   0  0  0  0  0  0  0  0  0  0  0  0
  126.3300  131.4810   55.7710 C   0  0  0  0  0  0  0  0  0  0  0  0
  125.2520  130.9620   56.7070 C   0  0  0  0  0  0  0  0  0  0  0  0
  125.8880  131.0950   58.0570 C   0  0  0  0  0  0  0  0  0  0  0  0
  125.4020  130.6940   59.3010 C   0  0  0  0  0  0  0  0  0  0  0  0
  126.0720  131.0540   60.4780 C   0  0  0  0  0  0  0  0  0  0  0  0
  125.5540  130.6140   61.8190 C   0  0  0  0  0  0  0  0  0  0  0  0
  126.4190  130.1460   62.7050 N   0  0  0  0  0  0  0  0  0  0  0  0
  125.8620  129.8130   63.8410 C   0  0  0  0  0  0  0  0  0  0  0  0
  126.4740  129.2990   64.9740 N   0  0  0  0  0  0  0  0  0  0  0  0
  127.5870  129.7730   65.5850 C   0  0  0  0  0  0  0  0  0  0  0  0
  128.2080  130.7690   65.2090 O   0  0  0  0  0  0  0  0  0  0  0  0
  128.0960  129.0330   66.8450 C   0  0  0  0  0  0  0  0  0  0  0  0
  128.9610  127.8820   66.5270 N   0  0  0  0  0  0  0  0  0  0  0  0
  128.7410  126.7470   67.4360 C   0  0  0  0  0  0  0  0  0  0  0  0
  129.8440  125.6820   67.2350 C   0  0  0  0  0  0  0  0  0  0  0  0
  130.1140  125.3740   65.7620 C   0  0  0  0  0  0  0  0  0  0  0  0
  130.8730  124.2610   65.3860 C   0  0  0  0  0  0  0  0  0  0  0  0
  131.1520  124.0010   64.0470 C   0  0  0  0  0  0  0  0  0  0  0  0
  130.6690  124.8570   63.0610 C   0  0  0  0  0  0  0  0  0  0  0  0
  129.9040  125.9640   63.4210 C   0  0  0  0  0  0  0  0  0  0  0  0
  129.6180  126.2370   64.7630 C   0  0  0  0  0  0  0  0  0  0  0  0
  128.7300  127.4190   65.1540 C   0  0  0  0  0  0  0  0  0  0  0  0
  124.1590  130.0520   63.8960 S   0  0  0  0  0  0  0  0  0  0  0  0
  124.2100  130.6400   62.2510 C   0  0  0  0  0  0  0  0  0  0  0  0
  122.9360  131.0420   61.5410 C   0  0  0  0  0  0  0  0  0  0  0  0
  127.2080  131.8710   60.3790 C   0  0  0  0  0  0  0  0  0  0  0  0
  127.6850  132.2900   59.1370 C   0  0  0  0  0  0  0  0  0  0  0  0
  127.0560  131.8530   57.9630 C   0  0  0  0  0  0  0  0  0  0  0  0
  130.7980  133.0960   57.0250 C   0  0  0  0  0  0  0  0  0  0  0  0
  131.9960  132.6310   57.5610 C   0  0  0  0  0  0  0  0  0  0  0  0
  1  2  1  0
  2  3  2  0
  3  4  1  0
  4  5  2  0
  5  6  1  0
  6  7  2  0
  6  8  1  0
  8  9  1  0
  9 10  1  0
 10 11  1  0
 11 12  2  0
 12 13  1  0
 13 14  1  0
 14 15  1  0
 15 16  2  0
 16 17  1  0
 17 18  1  0
 18 19  2  0
 18 20  1  0
 20 21  1  0
 21 22  1  0
 22 23  1  0
 23 24  1  0
 24 25  2  0
 25 26  1  0
 26 27  2  0
 27 28  1  0
 28 29  2  0
 29 30  1  0
 16 31  1  0
 31 32  1  0
 32 33  1  0
 13 34  2  0
 34 35  1  0
 35 36  2  0
  5 37  1  0
 37 38  2  0
 38  2  1  0
 36  8  1  0
 36 11  1  0
 32 14  2  0
 30 21  1  0
 29 24  1  0
M  END
>  <Binding energies>  (45) 
[-10.71]

>  <Ligand effiencies>  (45) 
[-0.27461538461538465]

>  <Interactions>  (45) 
["V-B:GLU:543:CG:9879, H-B:TYR:484:OH:9319, V-A:GLU:543:CG:4907, V-B:ARG:545:CZ:9898, V-B:TYR:484:CZ:9318, V-B:GLU:543:CD:9880, V-A:TYR:484:CZ:4347, V-A:GLU:543:CD:4908, V-A:TYR:484:CE2:4346, V-B:GLU:543:CB:9878, V-B:HIS:456:CE1:9041, V-A:GLU:543:CB:4906, V-A:HIS:456:CE1:4070, V-B:TYR:531:CZ:9766, V-A:ILE:538:CB:4862, V-A:ILE:538:CA:4860, V-B:GLY:454:CA:9020, H-A:TYR:539:N:4870, V-B:TYR:531:CE1:9764, V-A:MET:535:CE:4835, V-A:LEU:363:CD1:3189, V-B:ILE:369:CB:8207, V-A:TYR:539:CE1:4875, V-B:ASP:366:CG:8184, V-A:TYR:539:CD1:4873, V-A:TYR:539:CE2:4876, V-A:TYR:539:CZ:4877, V-A:TYR:539:C:4867, V-A:PRO:540:N:4884, V-A:PRO:540:CA:4883, V-A:PRO:540:CB:4885, V-A:ASP:366:CG:3213, V-A:PRO:540:CD:4887, V-A:LEU:363:CA:3185, V-A:LEU:363:CB:3187, V-A:PRO:540:CG:4886, V-A:ASP:366:CB:3212, V-B:ILE:369:CG1:8209, H-B:GLU:543:OE2:9882, H-B:GLU:543:OE1:9881"]

$$$$
RR21_Rahimova_2017
     RDKit          3D

 40 45  0  0  0  0  0  0  0  0999 V2000
  133.3280  122.9430   62.0330 C   0  0  0  0  0  0  0  0  0  0  0  0
  132.9020  122.5230   63.3260 O   0  0  0  0  0  0  0  0  0  0  0  0
  132.0910  123.3550   64.0740 C   0  0  0  0  0  0  0  0  0  0  0  0
  130.7780  123.0390   64.4620 C   0  0  0  0  0  0  0  0  0  0  0  0
  130.0270  123.9360   65.2200 C   0  0  0  0  0  0  0  0  0  0  0  0
  130.5660  125.1670   65.6130 C   0  0  0  0  0  0  0  0  0  0  0  0
  129.7580  126.1260   66.4320 C   0  0  0  0  0  0  0  0  0  0  0  0
  129.8060  126.0660   67.7480 N   0  0  0  0  0  0  0  0  0  0  0  0
  128.9950  127.0310   68.2080 N   0  0  0  0  0  0  0  0  0  0  0  0
  128.8280  127.2590   69.5980 C   0  0  0  0  0  0  0  0  0  0  0  0
  127.6030  126.9880   70.2280 C   0  0  0  0  0  0  0  0  0  0  0  0
  127.4530  127.2120   71.5940 C   0  0  0  0  0  0  0  0  0  0  0  0
  128.5240  127.7060   72.3350 C   0  0  0  0  0  0  0  0  0  0  0  0
  129.7430  127.9820   71.7210 C   0  0  0  0  0  0  0  0  0  0  0  0
  129.8970  127.7600   70.3560 C   0  0  0  0  0  0  0  0  0  0  0  0
  128.4400  127.7220   67.1600 C   0  0  0  0  0  0  0  0  0  0  0  0
  128.9000  127.1550   65.9810 C   0  0  0  0  0  0  0  0  0  0  0  0
  128.6250  127.5740   64.6150 C   0  0  0  0  0  0  0  0  0  0  0  0
  128.3590  128.8190   64.1580 C   0  0  0  0  0  0  0  0  0  0  0  0
  128.2540  130.3260   65.0950 S   0  0  0  0  0  0  0  0  0  0  0  0
  127.9280  131.2100   63.6110 C   0  0  0  0  0  0  0  0  0  0  0  0
  127.7370  132.4850   63.4690 N   0  0  0  0  0  0  0  0  0  0  0  0
  127.4930  133.0790   62.2000 C   0  0  0  0  0  0  0  0  0  0  0  0
  127.3230  134.2770   61.9800 O   0  0  0  0  0  0  0  0  0  0  0  0
  127.4600  132.0930   61.0640 C   0  0  0  0  0  0  0  0  0  0  0  0
  127.1840  132.6160   59.6490 C   0  0  0  0  0  0  0  0  0  0  0  0
  128.4050  132.6230   58.7310 C   0  0  0  0  0  0  0  0  0  0  0  0
  129.6730  132.3530   59.2520 C   0  0  0  0  0  0  0  0  0  0  0  0
  130.7840  132.3430   58.4120 C   0  0  0  0  0  0  0  0  0  0  0  0
  130.6290  132.6010   57.0490 C   0  0  0  0  0  0  0  0  0  0  0  0
  131.8410  132.5780   56.1360 C   0  0  0  0  0  0  0  0  0  0  0  0
  129.3600  132.8600   56.5240 C   0  0  0  0  0  0  0  0  0  0  0  0
  128.2500  132.8700   57.3640 C   0  0  0  0  0  0  0  0  0  0  0  0
  127.6460  130.8230   61.2210 N   0  0  0  0  0  0  0  0  0  0  0  0
  127.8890  130.3740   62.5260 N   0  0  0  0  0  0  0  0  0  0  0  0
  128.1090  129.0540   62.7430 C   0  0  0  0  0  0  0  0  0  0  0  0
  128.1030  128.1850   61.8630 O   0  0  0  0  0  0  0  0  0  0  0  0
  131.8700  125.4840   65.2210 C   0  0  0  0  0  0  0  0  0  0  0  0
  132.6240  124.5890   64.4620 C   0  0  0  0  0  0  0  0  0  0  0  0
  133.8840  124.9270   64.1000 F   0  0  0  0  0  0  0  0  0  0  0  0
  1  2  1  0
  2  3  1  0
  3  4  2  0
  4  5  1  0
  5  6  2  0
  6  7  1  0
  7  8  2  0
  8  9  1  0
  9 10  1  0
 10 11  2  0
 11 12  1  0
 12 13  2  0
 13 14  1  0
 14 15  2  0
  9 16  1  0
 16 17  2  0
 17 18  1  0
 18 19  2  0
 19 20  1  0
 20 21  1  0
 21 22  2  0
 22 23  1  0
 23 24  2  0
 23 25  1  0
 25 26  1  0
 26 27  1  0
 27 28  2  0
 28 29  1  0
 29 30  2  0
 30 31  1  0
 30 32  1  0
 32 33  2  0
 25 34  2  0
 34 35  1  0
 35 36  1  0
 36 37  2  0
  6 38  1  0
 38 39  2  0
 39 40  1  0
 39  3  1  0
 17  7  1  0
 36 19  1  0
 15 10  1  0
 35 21  1  0
 33 27  1  0
M  END
>  <Binding energies>  (46) 
[-10.06]

>  <Ligand effiencies>  (46) 
[-0.2515]

>  <Interactions>  (46) 
["V-B:GLU:543:CG:9879, H-B:TYR:484:OH:9319, V-A:GLU:543:CG:4907, V-B:GLU:543:CD:9880, V-A:TYR:484:CZ:4347, V-A:GLU:543:CD:4908, V-B:GLU:543:C:9874, V-A:TYR:484:CE2:4346, V-B:GLU:543:CB:9878, V-B:HIS:456:CE1:9041, V-B:LEU:475:CD2:9230, V-A:HIS:456:CE1:4070, V-A:ARG:545:CZ:4926, V-A:LEU:475:CD2:4259, V-A:ILE:538:CB:4862, V-A:ILE:538:CA:4860, V-A:TYR:539:CG:4872, V-A:MET:535:CE:4835, V-A:LEU:363:CD1:3189, V-A:TYR:539:CE1:4875, V-A:TYR:539:CD1:4873, V-A:TYR:539:CZ:4877, V-A:ILE:538:CG2:4863, V-A:PRO:540:N:4884, V-A:PRO:540:CA:4883, V-A:PRO:540:CB:4885, H-A:GLY:454:N:4050, H-A:TYR:484:OH:4348, V-B:HIS:456:CD2:9039, V-B:HIS:456:CG:9037, V-A:GLY:453:CA:4044, V-B:GLY:544:C:9884, V-A:GLY:453:C:4042, V-A:GLY:454:CA:4049"]

$$$$
RR23_Rahimova_2017
     RDKit          3D

 39 44  0  0  0  0  0  0  0  0999 V2000
  124.1920  123.9900   61.7430 C   0  0  0  0  0  0  0  0  0  0  0  0
  124.9630  123.8230   60.4470 C   0  0  0  0  0  0  0  0  0  0  0  0
  126.3180  123.4920   60.4780 C   0  0  0  0  0  0  0  0  0  0  0  0
  127.0220  123.3290   59.2870 C   0  0  0  0  0  0  0  0  0  0  0  0
  126.3790  123.5070   58.0570 C   0  0  0  0  0  0  0  0  0  0  0  0
  127.1560  123.3050   56.7750 C   0  0  0  0  0  0  0  0  0  0  0  0
  126.9760  122.2520   56.1580 O   0  0  0  0  0  0  0  0  0  0  0  0
  128.0050  124.2850   56.3440 N   0  0  0  0  0  0  0  0  0  0  0  0
  128.6210  124.2380   55.0080 C   0  0  0  0  0  0  0  0  0  0  0  0
  129.3680  125.5500   54.8360 C   0  0  0  0  0  0  0  0  0  0  0  0
  128.8090  126.4000   55.9360 C   0  0  0  0  0  0  0  0  0  0  0  0
  129.0560  127.7430   56.2200 C   0  0  0  0  0  0  0  0  0  0  0  0
  128.5570  128.3220   57.3970 C   0  0  0  0  0  0  0  0  0  0  0  0
  128.8050  129.7970   57.7480 C   0  0  2  0  0  0  0  0  0  0  0  0
  128.6720  130.0500   59.1670 N   0  0  0  0  0  0  0  0  0  0  0  0
  128.2310  131.2210   59.4000 C   0  0  0  0  0  0  0  0  0  0  0  0
  127.9590  131.7900   60.6050 N   0  0  0  0  0  0  0  0  0  0  0  0
  127.9570  131.2090   61.8290 C   0  0  0  0  0  0  0  0  0  0  0  0
  128.2510  130.0350   62.0660 O   0  0  0  0  0  0  0  0  0  0  0  0
  127.5420  132.1220   62.9950 C   0  0  0  0  0  0  0  0  0  0  0  0
  126.9540  133.3660   62.4510 N   0  0  0  0  0  0  0  0  0  0  0  0
  127.8550  134.3930   62.2020 N   0  0  0  0  0  0  0  0  0  0  0  0
  127.4670  135.5330   61.7270 N   0  0  0  0  0  0  0  0  0  0  0  0
  126.1150  135.7460   61.4520 C   0  0  0  0  0  0  0  0  0  0  0  0
  125.7290  136.9880   60.9410 C   0  0  0  0  0  0  0  0  0  0  0  0
  124.3850  137.2320   60.6560 C   0  0  0  0  0  0  0  0  0  0  0  0
  123.4280  136.2400   60.8810 C   0  0  0  0  0  0  0  0  0  0  0  0
  123.8110  134.9980   61.3920 C   0  0  0  0  0  0  0  0  0  0  0  0
  125.1600  134.7530   61.6760 C   0  0  0  0  0  0  0  0  0  0  0  0
  125.5950  133.4180   62.2330 C   0  0  0  0  0  0  0  0  0  0  0  0
  124.8180  132.4890   62.4740 O   0  0  0  0  0  0  0  0  0  0  0  0
  127.9060  132.2620   57.9840 S   0  0  0  0  0  0  0  0  0  0  0  0
  127.9520  130.7980   56.9340 C   0  0  2  0  0  0  0  0  0  0  0  0
  126.5060  130.3690   56.6070 C   0  0  0  0  0  0  0  0  0  0  0  0
  127.8520  127.5180   58.2990 C   0  0  0  0  0  0  0  0  0  0  0  0
  127.6230  126.1690   58.0250 C   0  0  0  0  0  0  0  0  0  0  0  0
  128.0540  125.6180   56.8110 C   0  0  0  0  0  0  0  0  0  0  0  0
  125.0120  123.8110   58.0330 C   0  0  0  0  0  0  0  0  0  0  0  0
  124.3080  123.9730   59.2230 C   0  0  0  0  0  0  0  0  0  0  0  0
  1  2  1  0
  2  3  2  0
  3  4  1  0
  4  5  2  0
  5  6  1  0
  6  7  2  0
  6  8  1  0
  8  9  1  0
  9 10  1  0
 10 11  1  0
 11 12  2  0
 12 13  1  0
 14 13  1  1
 14 15  1  0
 15 16  2  0
 16 17  1  0
 17 18  1  0
 18 19  2  0
 18 20  1  0
 20 21  1  0
 21 22  1  0
 22 23  2  0
 23 24  1  0
 24 25  2  0
 25 26  1  0
 26 27  2  0
 27 28  1  0
 28 29  2  0
 29 30  1  0
 30 31  2  0
 16 32  1  0
 32 33  1  0
 33 34  1  1
 13 35  2  0
 35 36  1  0
 36 37  2  0
  5 38  1  0
 38 39  2  0
 39  2  1  0
 37  8  1  0
 37 11  1  0
 33 14  1  0
 30 21  1  0
 29 24  1  0
M  END
>  <Binding energies>  (47) 
[-10.07]

>  <Ligand effiencies>  (47) 
[-0.25175000000000003]

>  <Interactions>  (47) 
["V-B:LEU:475:CD2:9230, V-B:TYR:531:CZ:9766, V-B:ILE:369:CG2:8208, V-A:MET:535:CE:4835, V-B:ASP:366:CG:8184, V-A:TYR:539:CD1:4873, V-B:SER:385:CB:8380, V-B:LEU:363:CD1:8160, V-B:PRO:540:N:9856, V-B:PRO:540:CA:9855, V-B:PRO:540:CB:9857, V-B:TYR:539:CE1:9847, V-B:LEU:363:CA:8156, H-B:TYR:539:N:9842, V-B:ASN:362:CB:8147, V-B:ASN:362:C:8143, V-B:TYR:539:CZ:9849, V-B:LEU:373:CD1:8251, V-B:SER:385:C:8376, V-B:HIS:383:CD2:8363, V-B:SER:385:CA:8378, V-B:MET:535:CG:9805, V-B:ASN:362:CA:8145"]

$$$$
RR26_Rahimova_2017
     RDKit          3D

 38 44  0  0  0  0  0  0  0  0999 V2000
  124.3740  123.9490   58.5160 C   0  0  0  0  0  0  0  0  0  0  0  0
  125.4960  123.3240   57.6980 C   0  0  0  0  0  0  0  0  0  0  0  0
  125.1640  122.6780   56.5020 C   0  0  0  0  0  0  0  0  0  0  0  0
  126.1540  122.1230   55.6940 C   0  0  0  0  0  0  0  0  0  0  0  0
  127.4890  122.2150   56.0720 C   0  0  0  0  0  0  0  0  0  0  0  0
  127.8330  122.8560   57.2610 C   0  0  0  0  0  0  0  0  0  0  0  0
  126.8490  123.4130   58.0920 C   0  0  0  0  0  0  0  0  0  0  0  0
  127.3040  124.0720   59.3620 C   0  0  0  0  0  0  0  0  0  0  0  0
  127.5660  123.3810   60.4680 N   0  0  0  0  0  0  0  0  0  0  0  0
  127.9300  124.3220   61.2950 C   0  0  0  0  0  0  0  0  0  0  0  0
  128.4390  124.3930   62.9420 S   0  0  0  0  0  0  0  0  0  0  0  0
  128.6120  126.1820   62.7870 C   0  0  0  0  0  0  0  0  0  0  0  0
  129.0010  127.0610   63.7380 C   0  0  0  0  0  0  0  0  0  0  0  0
  129.3830  126.7840   65.1130 C   0  0  0  0  0  0  0  0  0  0  0  0
  128.9160  127.3880   66.2700 C   0  0  0  0  0  0  0  0  0  0  0  0
  129.5230  126.7790   67.3390 N   0  0  0  0  0  0  0  0  0  0  0  0
  129.3530  127.0570   68.7200 C   0  0  0  0  0  0  0  0  0  0  0  0
  130.3810  127.6540   69.4640 C   0  0  0  0  0  0  0  0  0  0  0  0
  130.2020  127.9180   70.8200 C   0  0  0  0  0  0  0  0  0  0  0  0
  128.9970  127.5890   71.4340 C   0  0  0  0  0  0  0  0  0  0  0  0
  127.9670  126.9980   70.7050 C   0  0  0  0  0  0  0  0  0  0  0  0
  128.1430  126.7310   69.3510 C   0  0  0  0  0  0  0  0  0  0  0  0
  130.3330  125.7960   66.9160 N   0  0  0  0  0  0  0  0  0  0  0  0
  130.2640  125.7910   65.5990 C   0  0  0  0  0  0  0  0  0  0  0  0
  131.0700  124.8030   64.8140 C   0  0  0  0  0  0  0  0  0  0  0  0
  130.6780  123.4570   64.7500 C   0  0  0  0  0  0  0  0  0  0  0  0
  131.4240  122.5280   64.0240 C   0  0  0  0  0  0  0  0  0  0  0  0
  132.5750  122.9400   63.3550 C   0  0  0  0  0  0  0  0  0  0  0  0
  132.9670  124.2860   63.3960 C   0  0  0  0  0  0  0  0  0  0  0  0
  132.2230  125.2110   64.1270 C   0  0  0  0  0  0  0  0  0  0  0  0
  134.1240  124.7310   62.7850 O   0  0  0  0  0  0  0  0  0  0  0  0
  134.6270  123.8510   61.7740 C   0  0  0  0  0  0  0  0  0  0  0  0
  134.5930  122.3830   62.2660 C   0  0  0  0  0  0  0  0  0  0  0  0
  133.2570  121.9990   62.6090 O   0  0  0  0  0  0  0  0  0  0  0  0
  128.2580  126.6610   61.4540 C   0  0  0  0  0  0  0  0  0  0  0  0
  128.2600  127.8120   61.0160 O   0  0  0  0  0  0  0  0  0  0  0  0
  127.8950  125.5310   60.7050 N   0  0  0  0  0  0  0  0  0  0  0  0
  127.4920  125.3810   59.4410 N   0  0  0  0  0  0  0  0  0  0  0  0
  1  2  1  0
  2  3  2  0
  3  4  1  0
  4  5  2  0
  5  6  1  0
  6  7  2  0
  7  8  1  0
  8  9  1  0
  9 10  2  0
 10 11  1  0
 11 12  1  0
 12 13  2  0
 13 14  1  0
 14 15  2  0
 15 16  1  0
 16 17  1  0
 17 18  2  0
 18 19  1  0
 19 20  2  0
 20 21  1  0
 21 22  2  0
 16 23  1  0
 23 24  2  0
 24 25  1  0
 25 26  2  0
 26 27  1  0
 27 28  2  0
 28 29  1  0
 29 30  2  0
 29 31  1  0
 31 32  1  0
 32 33  1  0
 33 34  1  0
 12 35  1  0
 35 36  2  0
 35 37  1  0
 37 38  1  0
  7  2  1  0
 38  8  2  0
 37 10  1  0
 24 14  1  0
 30 25  1  0
 22 17  1  0
 34 28  1  0
M  END
>  <Binding energies>  (48) 
[-9.65]

>  <Ligand effiencies>  (48) 
[-0.25394736842105264]

>  <Interactions>  (48) 
["V-B:GLU:543:CG:9879, V-B:GLU:543:CD:9880, V-A:TYR:484:CZ:4347, V-A:GLU:543:CD:4908, V-B:GLU:543:C:9874, V-A:TYR:484:CE2:4346, V-B:GLU:543:CB:9878, V-B:HIS:456:CE1:9041, V-A:GLU:543:CB:4906, V-A:GLU:543:C:4902, V-A:HIS:456:CE1:4070, V-A:ARG:545:CZ:4926, V-A:LEU:475:CD2:4259, V-B:LEU:363:CD1:8160, V-B:PRO:540:N:9856, V-B:PRO:540:CA:9855, V-B:PRO:540:CB:9857, V-B:TYR:539:C:9839, V-B:PRO:540:CD:9859, V-B:TYR:539:CE1:9847, V-B:TYR:539:CD1:9845, V-B:LEU:363:CA:8156, H-A:GLY:454:N:4050, H-A:ARG:545:NH2:4928, H-A:ARG:545:NH1:4927, V-B:TYR:539:CE2:9848, V-A:ILE:369:CD1:3239, V-B:TYR:539:CD2:9846, V-B:TYR:539:CG:9844, V-B:TYR:539:CZ:9849, V-B:MET:535:CE:9807, V-B:TYR:539:CA:9841, V-B:ILE:538:CG2:9835, V-B:ILE:538:C:9830, V-B:ILE:538:CA:9832, V-A:GLY:453:C:4042, V-B:ILE:538:CB:9834, V-A:SER:385:C:3405, V-A:GLY:454:CA:4049"]

$$$$
RR2_Rahimova_2017
     RDKit          3D

 46 50  0  0  0  0  0  0  0  0999 V2000
  133.4540  122.7740   62.8670 C   0  0  0  0  0  0  0  0  0  0  0  0
  133.3140  123.9900   63.5940 O   0  0  0  0  0  0  0  0  0  0  0  0
  132.4960  124.9850   63.0920 C   0  0  0  0  0  0  0  0  0  0  0  0
  131.4820  125.6190   63.8240 C   0  0  0  0  0  0  0  0  0  0  0  0
  130.7050  126.6110   63.2330 C   0  0  0  0  0  0  0  0  0  0  0  0
  130.9190  126.9910   61.9000 C   0  0  0  0  0  0  0  0  0  0  0  0
  130.0540  128.0690   61.2780 C   0  0  0  0  0  0  0  0  0  0  0  0
  129.2370  127.7810   60.3970 O   0  0  0  0  0  0  0  0  0  0  0  0
  130.2540  129.3260   61.7400 N   0  0  0  0  0  0  0  0  0  0  0  0
  129.5530  130.3660   61.1380 N   0  0  0  0  0  0  0  0  0  0  0  0
  130.0430  131.6160   61.2540 C   0  0  0  0  0  0  0  0  0  0  0  0
  130.9700  131.9440   62.0020 O   0  0  0  0  0  0  0  0  0  0  0  0
  129.3840  132.6710   60.3550 C   0  0  0  0  0  0  0  0  0  0  0  0
  130.1070  132.8220   58.6800 S   0  0  0  0  0  0  0  0  0  0  0  0
  130.3680  131.1200   58.2830 C   0  0  0  0  0  0  0  0  0  0  0  0
  131.5570  130.5760   58.2160 N   0  0  0  0  0  0  0  0  0  0  0  0
  131.3920  129.2590   57.8130 N   0  0  0  0  0  0  0  0  0  0  0  0
  130.1040  129.0460   57.6800 C   0  0  0  0  0  0  0  0  0  0  0  0
  129.5270  127.7290   57.2720 C   0  0  0  0  0  0  0  0  0  0  0  0
  128.5480  127.6790   56.2750 C   0  0  0  0  0  0  0  0  0  0  0  0
  127.9990  126.4590   55.8940 C   0  0  0  0  0  0  0  0  0  0  0  0
  128.4370  125.2730   56.4950 C   0  0  0  0  0  0  0  0  0  0  0  0
  127.9120  124.0160   56.1580 N   0  0  0  0  0  0  0  0  0  0  0  0
  126.5440  123.2360   56.9830 S   0  0  0  0  0  0  0  0  0  0  0  0
  126.5310  121.8450   56.5160 O   0  0  0  0  0  0  0  0  0  0  0  0
  125.3650  124.0950   56.8220 O   0  0  0  0  0  0  0  0  0  0  0  0
  127.0030  123.1950   58.7140 C   0  0  0  0  0  0  0  0  0  0  0  0
  126.1980  123.8060   59.6790 C   0  0  0  0  0  0  0  0  0  0  0  0
  126.5810  123.7760   61.0170 C   0  0  0  0  0  0  0  0  0  0  0  0
  127.7620  123.1310   61.3910 C   0  0  0  0  0  0  0  0  0  0  0  0
  128.1850  123.1130   62.8490 C   0  0  0  0  0  0  0  0  0  0  0  0
  128.5670  122.5250   60.4240 C   0  0  0  0  0  0  0  0  0  0  0  0
  128.1860  122.5550   59.0860 C   0  0  0  0  0  0  0  0  0  0  0  0
  129.4150  125.3240   57.4880 C   0  0  0  0  0  0  0  0  0  0  0  0
  129.9610  126.5450   57.8740 C   0  0  0  0  0  0  0  0  0  0  0  0
  129.3880  130.1980   57.9620 N   0  0  0  0  0  0  0  0  0  0  0  0
  127.9950  130.4030   57.8940 C   0  0  0  0  0  0  0  0  0  0  0  0
  127.4580  131.2160   56.8950 C   0  0  0  0  0  0  0  0  0  0  0  0
  126.0810  131.4100   56.8310 C   0  0  0  0  0  0  0  0  0  0  0  0
  125.2330  130.8010   57.7580 C   0  0  0  0  0  0  0  0  0  0  0  0
  123.8830  131.0540   57.6140 O   0  0  0  0  0  0  0  0  0  0  0  0
  123.0610  131.1210   58.7760 C   0  0  0  0  0  0  0  0  0  0  0  0
  125.7830  129.9840   58.7600 C   0  0  0  0  0  0  0  0  0  0  0  0
  127.1580  129.7850   58.8270 C   0  0  0  0  0  0  0  0  0  0  0  0
  131.9400  126.3550   61.1770 C   0  0  0  0  0  0  0  0  0  0  0  0
  132.7170  125.3650   61.7700 C   0  0  0  0  0  0  0  0  0  0  0  0
  1  2  1  0
  2  3  1  0
  3  4  2  0
  4  5  1  0
  5  6  2  0
  6  7  1  0
  7  8  2  0
  7  9  1  0
  9 10  1  0
 10 11  1  0
 11 12  2  0
 11 13  1  0
 13 14  1  0
 14 15  1  0
 15 16  2  0
 16 17  1  0
 17 18  2  0
 18 19  1  0
 19 20  2  0
 20 21  1  0
 21 22  2  0
 22 23  1  0
 23 24  1  0
 24 25  2  0
 24 26  2  0
 24 27  1  0
 27 28  2  0
 28 29  1  0
 29 30  2  0
 30 31  1  0
 30 32  1  0
 32 33  2  0
 22 34  1  0
 34 35  2  0
 18 36  1  0
 36 37  1  0
 37 38  2  0
 38 39  1  0
 39 40  2  0
 40 41  1  0
 41 42  1  0
 40 43  1  0
 43 44  2  0
  6 45  1  0
 45 46  2  0
 46  3  1  0
 36 15  1  0
 44 37  1  0
 35 19  1  0
 33 27  1  0
M  END
>  <Binding energies>  (49) 
[-9.97]

>  <Ligand effiencies>  (49) 
[-0.20346938775510207]

>  <Interactions>  (49) 
["V-B:GLU:543:CG:9879, V-B:GLU:543:CD:9880, V-A:GLU:543:CD:4908, V-B:ALA:541:CB:9864, V-A:ARG:545:CZ:4926, V-A:LEU:475:CD2:4259, V-B:ILE:369:CG2:8208, V-B:ASP:366:CB:8183, V-A:MET:535:CE:4835, V-B:ASP:366:CA:8181, H-A:TYR:539:OH:4878, V-B:ILE:369:CB:8207, V-A:TYR:539:CE1:4875, V-B:ASP:366:CG:8184, V-A:TYR:539:CZ:4877, H-A:ALA:541:N:4891, V-A:TYR:539:C:4867, V-A:PRO:540:N:4884, V-A:PRO:540:CA:4883, V-A:ASP:366:CG:3213, H-A:ASP:366:OD2:3215, V-B:PRO:540:N:9856, V-B:PRO:540:CA:9855, V-B:PRO:540:CB:9857, V-B:TYR:539:C:9839, H-A:TYR:531:OH:4795, H-B:TYR:539:OH:9850, V-B:TYR:539:CE1:9847, V-B:ASP:366:C:8179, H-A:GLU:543:OE1:4909, V-B:ILE:369:CG1:8209, H-A:GLY:454:N:4050, H-B:TYR:539:N:9842, H-A:TYR:484:OH:4348, V-B:TYR:539:CE2:9848, V-B:TYR:539:CD2:9846, V-B:TYR:539:CZ:9849, H-B:MET:535:SD:9806, V-A:GLY:454:CA:4049"]

$$$$
RR33_Rahimova_2017
     RDKit          3D

 18 19  0  0  0  0  0  0  0  0999 V2000
  127.2620  139.0860   62.6940 C   0  0  0  0  0  0  0  0  0  0  0  0
  127.7220  138.2650   61.4850 C   0  0  0  0  0  0  0  0  0  0  0  0
  126.5750  137.8680   60.7380 O   0  0  0  0  0  0  0  0  0  0  0  0
  125.9150  136.7030   61.0770 C   0  0  0  0  0  0  0  0  0  0  0  0
  126.7140  135.5990   61.3720 C   0  0  0  0  0  0  0  0  0  0  0  0
  126.1390  134.3800   61.7210 C   0  0  0  0  0  0  0  0  0  0  0  0
  124.7480  134.2480   61.7800 C   0  0  0  0  0  0  0  0  0  0  0  0
  124.1300  132.9390   62.1530 C   0  0  0  0  0  0  0  0  0  0  0  0
  124.6090  132.0310   62.9750 N   0  0  0  0  0  0  0  0  0  0  0  0
  123.7110  131.0580   62.9820 C   0  0  0  0  0  0  0  0  0  0  0  0
  123.9090  129.8230   63.8350 C   0  0  0  0  0  0  0  0  0  0  0  0
  124.5540  130.1670   65.0940 N   0  0  0  0  0  0  0  0  0  0  0  0
  123.7120  129.7940   66.2190 C   0  0  0  0  0  0  0  0  0  0  0  0
  122.6580  131.3880   62.1380 C   0  0  0  0  0  0  0  0  0  0  0  0
  121.3650  130.7280   61.7260 C   0  0  0  0  0  0  0  0  0  0  0  0
  122.9340  132.6010   61.6060 O   0  0  0  0  0  0  0  0  0  0  0  0
  123.9430  135.3530   61.4880 C   0  0  0  0  0  0  0  0  0  0  0  0
  124.5190  136.5730   61.1380 C   0  0  0  0  0  0  0  0  0  0  0  0
  1  2  1  0
  2  3  1  0
  3  4  1  0
  4  5  2  0
  5  6  1  0
  6  7  2  0
  7  8  1  0
  8  9  2  0
  9 10  1  0
 10 11  1  0
 11 12  1  0
 12 13  1  0
 10 14  2  0
 14 15  1  0
 14 16  1  0
  7 17  1  0
 17 18  2  0
 18  4  1  0
 16  8  1  0
M  END
>  <Binding energies>  (50) 
[-5.98]

>  <Ligand effiencies>  (50) 
[-0.3147368421052632]

>  <Interactions>  (50) 
["H-B:TYR:484:OH:9319, V-B:ARG:545:CZ:9898, V-B:LEU:475:CD2:9230, V-B:ILE:369:CG2:8208, V-B:GLY:454:CA:9020, V-B:ASP:366:CA:8181, V-B:ILE:369:CB:8207, V-B:ASP:366:CG:8184, V-A:TYR:539:CD1:4873, V-A:VAL:344:CG1:3001, V-A:TYR:539:C:4867, V-B:PRO:482:CB:9297, H-B:HIS:383:NE2:8365, V-B:HIS:383:CE1:8364, V-B:SER:385:CB:8380, V-A:TYR:539:CB:4871, V-B:ARG:545:CG:9894, H-B:GLY:454:N:9021, V-B:ILE:369:CG1:8209, H-B:ARG:545:NE:9896, V-B:ARG:545:CD:9895, V-B:GLY:453:C:9013, V-B:SER:385:CA:8378, V-B:LEU:475:CD1:9229, V-B:LEU:475:CG:9228, V-B:GLY:453:CA:9015, V-B:CYS:365:C:8175"]

$$$$
RR3_Rahimova_2017
     RDKit          3D

 38 44  0  0  0  0  0  0  0  0999 V2000
  129.4810  126.8070   72.1880 C   0  0  0  0  0  0  0  0  0  0  0  0
  130.4510  127.5720   71.5490 C   0  0  0  0  0  0  0  0  0  0  0  0
  130.1910  128.1040   70.2900 C   0  0  0  0  0  0  0  0  0  0  0  0
  128.9600  127.8810   69.6540 C   0  0  0  0  0  0  0  0  0  0  0  0
  128.6820  128.4550   68.3000 C   0  0  0  0  0  0  0  0  0  0  0  0
  128.5490  129.8380   68.1170 C   0  0  0  0  0  0  0  0  0  0  0  0
  128.2860  130.3710   66.8580 C   0  0  0  0  0  0  0  0  0  0  0  0
  128.1420  129.5290   65.7520 C   0  0  0  0  0  0  0  0  0  0  0  0
  127.8540  130.0950   64.3960 C   0  0  0  0  0  0  0  0  0  0  0  0
  127.5030  131.3700   64.2700 N   0  0  0  0  0  0  0  0  0  0  0  0
  127.3600  131.5940   62.9850 C   0  0  0  0  0  0  0  0  0  0  0  0
  126.9780  132.8720   62.3910 C   0  0  0  0  0  0  0  0  0  0  0  0
  127.8450  133.8040   61.8470 C   0  0  0  0  0  0  0  0  0  0  0  0
  127.1440  134.8820   61.3720 N   0  0  0  0  0  0  0  0  0  0  0  0
  125.7970  134.6970   61.5890 C   0  0  0  0  0  0  0  0  0  0  0  0
  124.7020  135.5120   61.2820 C   0  0  0  0  0  0  0  0  0  0  0  0
  123.4400  135.0370   61.6370 C   0  0  0  0  0  0  0  0  0  0  0  0
  123.2680  133.8090   62.2680 C   0  0  0  0  0  0  0  0  0  0  0  0
  124.3590  132.9970   62.5740 C   0  0  0  0  0  0  0  0  0  0  0  0
  125.6540  133.4290   62.2370 C   0  0  0  0  0  0  0  0  0  0  0  0
  127.6110  130.4610   62.2610 N   0  0  0  0  0  0  0  0  0  0  0  0
  127.9140  129.4580   63.1450 C   0  0  0  0  0  0  0  0  0  0  0  0
  128.1880  128.0540   62.7160 C   0  0  0  0  0  0  0  0  0  0  0  0
  127.3440  127.4250   61.7990 C   0  0  0  0  0  0  0  0  0  0  0  0
  127.5890  126.1130   61.4060 C   0  0  0  0  0  0  0  0  0  0  0  0
  128.6830  125.4000   61.9160 C   0  0  0  0  0  0  0  0  0  0  0  0
  128.9320  123.9830   61.5070 C   0  0  0  0  0  0  0  0  0  0  0  0
  129.6310  123.1030   62.3470 C   0  0  0  0  0  0  0  0  0  0  0  0
  129.8590  121.7820   61.9670 C   0  0  0  0  0  0  0  0  0  0  0  0
  129.3880  121.3260   60.7400 C   0  0  0  0  0  0  0  0  0  0  0  0
  128.6920  122.1810   59.8920 C   0  0  0  0  0  0  0  0  0  0  0  0
  128.4670  123.5010   60.2740 C   0  0  0  0  0  0  0  0  0  0  0  0
  129.5330  126.0490   62.8230 C   0  0  0  0  0  0  0  0  0  0  0  0
  129.2910  127.3610   63.2190 C   0  0  0  0  0  0  0  0  0  0  0  0
  128.2850  128.1510   65.9210 C   0  0  0  0  0  0  0  0  0  0  0  0
  128.5480  127.6210   67.1810 C   0  0  0  0  0  0  0  0  0  0  0  0
  127.9970  127.1060   70.3170 C   0  0  0  0  0  0  0  0  0  0  0  0
  128.2540  126.5720   71.5770 C   0  0  0  0  0  0  0  0  0  0  0  0
  1  2  2  0
  2  3  1  0
  3  4  2  0
  4  5  1  0
  5  6  2  0
  6  7  1  0
  7  8  2  0
  8  9  1  0
  9 10  1  0
 10 11  2  0
 11 12  1  0
 12 13  2  0
 13 14  1  0
 14 15  1  0
 15 16  2  0
 16 17  1  0
 17 18  2  0
 18 19  1  0
 19 20  2  0
 11 21  1  0
 21 22  1  0
 22 23  1  0
 23 24  2  0
 24 25  1  0
 25 26  2  0
 26 27  1  0
 27 28  2  0
 28 29  1  0
 29 30  2  0
 30 31  1  0
 31 32  2  0
 26 33  1  0
 33 34  2  0
  8 35  1  0
 35 36  2  0
  4 37  1  0
 37 38  2  0
 38  1  1  0
 36  5  1  0
 22  9  2  0
 34 23  1  0
 20 12  1  0
 32 27  1  0
 20 15  1  0
M  END
>  <Binding energies>  (51) 
[-9.83]

>  <Ligand effiencies>  (51) 
[-0.24575]

>  <Interactions>  (51) 
["H-B:TYR:484:OH:9319, V-A:GLU:543:CG:4907, V-B:TYR:484:CZ:9318, V-B:GLU:543:CD:9880, V-A:GLU:543:CD:4908, V-B:GLU:543:C:9874, V-B:GLU:543:CB:9878, V-B:HIS:456:CE1:9041, V-A:GLU:543:CB:4906, V-A:ALA:541:CB:4892, V-B:LEU:475:CD2:9230, V-A:GLU:543:C:4902, V-A:HIS:456:CE1:4070, V-B:ALA:541:CB:9864, V-B:TYR:484:CE2:9317, V-A:LEU:475:CD2:4259, V-A:GLY:544:C:4912, V-B:ILE:369:CG2:8208, V-B:GLY:454:CA:9020, V-A:TYR:539:CE1:4875, V-A:TYR:539:CD1:4873, V-A:TYR:539:C:4867, H-A:TYR:539:O:4868, V-B:SER:385:CB:8380, V-B:PRO:540:N:9856, V-B:PRO:540:CA:9855, V-B:TYR:539:C:9839, V-B:ILE:369:CG1:8209, V-A:HIS:456:CD2:4068, V-B:TYR:539:CE2:9848, V-B:TYR:539:CD2:9846, V-B:SER:385:C:8376, V-B:SER:385:CA:8378, V-A:GLU:543:CA:4904"]

$$$$
RR4_Rahimova_2017
     RDKit          3D

 40 44  0  0  0  0  0  0  0  0999 V2000
  128.8920  128.0790   74.5750 C   0  0  0  0  0  0  0  0  0  0  0  0
  129.0520  126.8860   73.8160 O   0  0  0  0  0  0  0  0  0  0  0  0
  129.1310  126.9690   72.4390 C   0  0  0  0  0  0  0  0  0  0  0  0
  127.9740  126.6620   71.7260 C   0  0  0  0  0  0  0  0  0  0  0  0
  127.9600  126.7200   70.3360 C   0  0  0  0  0  0  0  0  0  0  0  0
  129.1060  127.0840   69.6150 C   0  0  0  0  0  0  0  0  0  0  0  0
  129.0880  127.1440   68.1140 C   0  0  0  0  0  0  0  0  0  0  0  0
  129.7060  126.1810   67.3100 C   0  0  0  0  0  0  0  0  0  0  0  0
  129.6570  126.2790   65.9130 C   0  0  0  0  0  0  0  0  0  0  0  0
  130.3160  125.1990   65.1200 C   0  0  0  0  0  0  0  0  0  0  0  0
  129.5570  124.1420   64.6060 C   0  0  0  0  0  0  0  0  0  0  0  0
  130.1610  123.1370   63.8560 C   0  0  0  0  0  0  0  0  0  0  0  0
  131.5310  123.1710   63.5980 C   0  0  0  0  0  0  0  0  0  0  0  0
  132.0420  122.1320   62.8440 O   0  0  0  0  0  0  0  0  0  0  0  0
  133.1800  122.3670   62.0190 C   0  0  0  0  0  0  0  0  0  0  0  0
  132.2960  124.2320   64.1070 C   0  0  0  0  0  0  0  0  0  0  0  0
  131.6900  125.2360   64.8570 C   0  0  0  0  0  0  0  0  0  0  0  0
  128.9930  127.3900   65.3380 C   0  0  0  0  0  0  0  0  0  0  0  0
  128.9120  127.5410   63.8820 C   0  0  0  0  0  0  0  0  0  0  0  0
  128.8480  127.6600   62.7330 N   0  0  0  0  0  0  0  0  0  0  0  0
  128.4160  128.3410   66.2100 C   0  0  0  0  0  0  0  0  0  0  0  0
  127.5560  129.8010   65.6650 S   0  0  0  0  0  0  0  0  0  0  0  0
  126.1550  129.2660   64.6270 C   0  0  0  0  0  0  0  0  0  0  0  0
  125.3520  130.4130   63.9990 C   0  0  0  0  0  0  0  0  0  0  0  0
  124.1190  130.3830   63.9890 O   0  0  0  0  0  0  0  0  0  0  0  0
  126.1040  131.4060   63.4690 N   0  0  0  0  0  0  0  0  0  0  0  0
  125.6760  132.5760   62.8360 C   0  0  0  0  0  0  0  0  0  0  0  0
  123.9930  132.9910   62.6460 S   0  0  0  0  0  0  0  0  0  0  0  0
  124.3930  134.4640   61.8170 C   0  0  0  0  0  0  0  0  0  0  0  0
  125.7810  134.6250   61.6900 C   0  0  0  0  0  0  0  0  0  0  0  0
  126.5070  133.5620   62.2810 C   0  0  0  0  0  0  0  0  0  0  0  0
  127.9650  133.4980   62.3020 C   0  0  0  0  0  0  0  0  0  0  0  0
  129.1210  133.4470   62.3180 N   0  0  0  0  0  0  0  0  0  0  0  0
  126.3880  135.8670   61.0280 C   0  0  0  0  0  0  0  0  0  0  0  0
  125.3390  136.9980   60.9250 C   0  0  0  0  0  0  0  0  0  0  0  0
  123.9850  136.4880   60.4020 C   0  0  0  0  0  0  0  0  0  0  0  0
  123.3400  135.4680   61.3650 C   0  0  0  0  0  0  0  0  0  0  0  0
  128.4500  128.2050   67.5570 N   0  0  0  0  0  0  0  0  0  0  0  0
  130.2660  127.3950   70.3420 C   0  0  0  0  0  0  0  0  0  0  0  0
  130.2840  127.3390   71.7320 C   0  0  0  0  0  0  0  0  0  0  0  0
  1  2  1  0
  2  3  1  0
  3  4  2  0
  4  5  1  0
  5  6  2  0
  6  7  1  0
  7  8  2  0
  8  9  1  0
  9 10  1  0
 10 11  2  0
 11 12  1  0
 12 13  2  0
 13 14  1  0
 14 15  1  0
 13 16  1  0
 16 17  2  0
  9 18  2  0
 18 19  1  0
 19 20  3  0
 18 21  1  0
 21 22  1  0
 22 23  1  0
 23 24  1  0
 24 25  2  0
 24 26  1  0
 26 27  1  0
 27 28  1  0
 28 29  1  0
 29 30  2  0
 30 31  1  0
 31 32  1  0
 32 33  3  0
 30 34  1  0
 34 35  1  0
 35 36  1  0
 36 37  1  0
 21 38  2  0
  6 39  1  0
 39 40  2  0
 40  3  1  0
 38  7  1  0
 17 10  1  0
 31 27  2  0
 37 29  1  0
M  END
>  <Binding energies>  (52) 
[-10.45]

>  <Ligand effiencies>  (52) 
[-0.2548780487804878]

>  <Interactions>  (52) 
["V-B:GLU:543:CG:9879, H-B:TYR:484:OH:9319, V-A:GLU:543:CG:4907, V-B:GLU:543:CD:9880, H-B:LYS:547:NZ:9923, V-A:GLU:543:CD:4908, V-B:GLU:543:C:9874, V-B:GLU:543:CB:9878, V-B:HIS:456:CE1:9041, V-A:GLU:543:CB:4906, V-A:ALA:541:CB:4892, V-B:LEU:475:CD2:9230, V-A:HIS:456:CE1:4070, V-A:LEU:475:CD2:4259, V-B:ILE:369:CG2:8208, V-B:GLY:454:CA:9020, V-A:TYR:539:CE1:4875, V-A:TYR:539:CD1:4873, H-A:ALA:541:N:4891, V-B:SER:385:CB:8380, H-B:ARG:545:NH2:9900, H-B:GLY:454:N:9021, V-A:HIS:456:CD2:4068, V-B:LEU:373:CD1:8251, V-B:SER:385:C:8376, V-B:HIS:383:CD2:8363, V-B:SER:385:CA:8378, V-B:GLY:544:C:9884, V-B:GLY:544:CA:9886"]

$$$$
RR6_Rahimova_2017
     RDKit          3D

 38 41  0  0  0  0  0  0  0  0999 V2000
  126.9760  129.2900   64.6830 C   0  0  0  0  0  0  0  0  0  0  0  0
  125.9500  130.2710   64.6430 O   0  0  0  0  0  0  0  0  0  0  0  0
  124.7670  130.0210   64.0240 C   0  0  0  0  0  0  0  0  0  0  0  0
  123.7430  129.6820   64.6260 O   0  0  0  0  0  0  0  0  0  0  0  0
  124.8280  130.1970   62.5340 C   0  0  0  0  0  0  0  0  0  0  0  0
  124.1590  131.2420   61.8810 C   0  0  0  0  0  0  0  0  0  0  0  0
  124.2290  131.3740   60.4960 C   0  0  0  0  0  0  0  0  0  0  0  0
  124.9700  130.4550   59.7380 C   0  0  0  0  0  0  0  0  0  0  0  0
  125.0840  130.4790   58.3350 N   0  0  0  0  0  0  0  0  0  0  0  0
  124.3220  131.1240   57.4250 C   0  0  0  0  0  0  0  0  0  0  0  0
  123.3580  131.8450   57.6840 O   0  0  0  0  0  0  0  0  0  0  0  0
  124.6800  130.8650   55.9580 C   0  0  0  0  0  0  0  0  0  0  0  0
  126.3780  131.3660   55.5190 S   0  0  0  0  0  0  0  0  0  0  0  0
  127.4770  130.4270   56.5590 C   0  0  0  0  0  0  0  0  0  0  0  0
  127.1960  129.1030   56.6150 N   0  0  0  0  0  0  0  0  0  0  0  0
  127.9810  128.2790   57.3530 C   0  0  0  0  0  0  0  0  0  0  0  0
  127.6400  126.8180   57.3120 C   0  0  0  0  0  0  0  0  0  0  0  0
  126.5440  126.3120   58.0290 C   0  0  0  0  0  0  0  0  0  0  0  0
  126.2350  124.9550   58.0020 C   0  0  0  0  0  0  0  0  0  0  0  0
  127.0150  124.0760   57.2500 C   0  0  0  0  0  0  0  0  0  0  0  0
  126.6800  122.5960   57.2310 C   0  0  0  0  0  0  0  0  0  0  0  0
  128.1050  124.5590   56.5300 C   0  0  0  0  0  0  0  0  0  0  0  0
  128.4090  125.9160   56.5610 C   0  0  0  0  0  0  0  0  0  0  0  0
  129.0720  128.7820   58.0690 C   0  0  0  0  0  0  0  0  0  0  0  0
  129.3800  130.1500   58.0320 C   0  0  0  0  0  0  0  0  0  0  0  0
  130.5690  130.6170   58.8050 C   0  0  0  0  0  0  0  0  0  0  0  0
  131.7970  130.8040   58.1610 C   0  0  0  0  0  0  0  0  0  0  0  0
  132.9070  131.2540   58.8720 C   0  0  0  0  0  0  0  0  0  0  0  0
  132.8100  131.5320   60.2340 C   0  0  0  0  0  0  0  0  0  0  0  0
  133.9610  131.9760   60.8560 O   0  0  0  0  0  0  0  0  0  0  0  0
  133.8630  132.6070   62.1280 C   0  0  0  0  0  0  0  0  0  0  0  0
  131.5790  131.3500   60.8840 C   0  0  0  0  0  0  0  0  0  0  0  0
  130.4720  130.9000   60.1700 C   0  0  0  0  0  0  0  0  0  0  0  0
  128.5560  131.0040   57.2580 C   0  0  0  0  0  0  0  0  0  0  0  0
  128.8050  132.4480   57.1980 C   0  0  0  0  0  0  0  0  0  0  0  0
  129.0020  133.5870   57.1500 N   0  0  0  0  0  0  0  0  0  0  0  0
  125.6510  129.4240   60.3860 C   0  0  0  0  0  0  0  0  0  0  0  0
  125.5780  129.2930   61.7700 C   0  0  0  0  0  0  0  0  0  0  0  0
  1  2  1  0
  2  3  1  0
  3  4  2  0
  3  5  1  0
  5  6  2  0
  6  7  1  0
  7  8  2  0
  8  9  1  0
  9 10  1  0
 10 11  2  0
 10 12  1  0
 12 13  1  0
 13 14  1  0
 14 15  2  0
 15 16  1  0
 16 17  1  0
 17 18  2  0
 18 19  1  0
 19 20  2  0
 20 21  1  0
 20 22  1  0
 22 23  2  0
 16 24  2  0
 24 25  1  0
 25 26  1  0
 26 27  2  0
 27 28  1  0
 28 29  2  0
 29 30  1  0
 30 31  1  0
 29 32  1  0
 32 33  2  0
 25 34  2  0
 34 35  1  0
 35 36  3  0
  8 37  1  0
 37 38  2  0
 38  5  1  0
 34 14  1  0
 23 17  1  0
 33 26  1  0
M  END
>  <Binding energies>  (53) 
[-9.57]

>  <Ligand effiencies>  (53) 
[-0.2453846153846154]

>  <Interactions>  (53) 
["H-B:TYR:484:OH:9319, V-B:ARG:545:CZ:9898, V-B:GLU:543:CD:9880, V-B:TYR:531:CZ:9766, V-B:ILE:369:CG2:8208, H-A:TYR:539:N:4870, V-B:ASP:366:CB:8183, V-B:TYR:531:CE1:9764, V-A:MET:535:CE:4835, V-A:LEU:363:CD1:3189, H-A:TYR:539:OH:4878, V-A:TYR:539:CE1:4875, V-B:ASP:366:CG:8184, V-A:TYR:539:CD1:4873, V-A:TYR:539:CZ:4877, H-B:TYR:531:OH:9767, V-A:PRO:540:C:4881, V-A:PRO:540:CA:4883, V-A:PRO:540:CB:4885, V-A:ASN:362:C:3172, V-A:ASN:362:CB:3176, V-A:LEU:363:CA:3185, V-B:PRO:540:N:9856, V-B:PRO:540:CA:9855, V-B:PRO:540:CB:9857, V-B:TYR:539:C:9839, V-B:PRO:540:CD:9859, V-B:TYR:539:CE1:9847, H-B:ARG:545:NH1:9899, H-B:ARG:545:NH2:9900, H-B:GLY:454:N:9021, H-B:ARG:545:NE:9896, H-B:ASN:370:N:8215, V-B:TYR:539:CZ:9849, V-A:ALA:541:C:4888, H-A:LEU:363:N:3186, V-A:ASN:362:CG:3177"]

$$$$
RR7_Rahimova_2017
     RDKit          3D

 47 53  0  0  0  0  0  0  0  0999 V2000
  130.8770  132.8660   57.0770 C   0  0  0  0  0  0  0  0  0  0  0  0
  130.5540  132.0120   58.1700 O   0  0  0  0  0  0  0  0  0  0  0  0
  129.5210  132.3640   59.0170 C   0  0  0  0  0  0  0  0  0  0  0  0
  128.2320  132.2820   58.4940 C   0  0  0  0  0  0  0  0  0  0  0  0
  127.1280  132.6110   59.2730 C   0  0  0  0  0  0  0  0  0  0  0  0
  127.2880  133.0450   60.5970 C   0  0  0  0  0  0  0  0  0  0  0  0
  126.0670  133.3900   61.5050 C   0  0  0  0  0  0  0  0  0  0  0  0
  126.5390  133.3160   62.8690 O   0  0  0  0  0  0  0  0  0  0  0  0
  126.3860  132.1050   63.6170 C   0  0  0  0  0  0  0  0  0  0  0  0
  127.2270  131.0000   62.9570 C   0  0  1  0  0  0  0  0  0  0  0  0
  128.0860  130.4770   63.9670 O   0  0  0  0  0  0  0  0  0  0  0  0
  127.8900  129.1060   64.1630 C   0  0  1  0  0  0  0  0  0  0  0  0
  128.1130  128.7640   65.5550 N   0  0  0  0  0  0  0  0  0  0  0  0
  127.8780  129.5440   66.6730 C   0  0  0  0  0  0  0  0  0  0  0  0
  128.2150  129.0020   67.8170 N   0  0  0  0  0  0  0  0  0  0  0  0
  128.7550  127.7960   67.4600 C   0  0  0  0  0  0  0  0  0  0  0  0
  129.3150  126.7520   68.2210 C   0  0  0  0  0  0  0  0  0  0  0  0
  129.3560  126.8840   69.6220 N   0  0  0  0  0  0  0  0  0  0  0  0
  130.1500  127.6760   70.3800 C   0  0  0  0  0  0  0  0  0  0  0  0
  131.0160  128.4290   69.9270 O   0  0  0  0  0  0  0  0  0  0  0  0
  129.9430  127.5720   71.8760 C   0  0  0  0  0  0  0  0  0  0  0  0
  128.7370  128.0140   72.4420 C   0  0  0  0  0  0  0  0  0  0  0  0
  128.5230  127.9220   73.8140 C   0  0  0  0  0  0  0  0  0  0  0  0
  129.5110  127.3820   74.6320 C   0  0  0  0  0  0  0  0  0  0  0  0
  130.7120  126.9340   74.0900 C   0  0  0  0  0  0  0  0  0  0  0  0
  130.9280  127.0270   72.7170 C   0  0  0  0  0  0  0  0  0  0  0  0
  129.8040  125.6470   67.5800 N   0  0  0  0  0  0  0  0  0  0  0  0
  129.7240  125.6130   66.2250 C   0  0  0  0  0  0  0  0  0  0  0  0
  129.2040  126.5580   65.3970 N   0  0  0  0  0  0  0  0  0  0  0  0
  128.7270  127.6250   66.0520 C   0  0  0  0  0  0  0  0  0  0  0  0
  126.4830  128.8250   63.6490 C   0  0  0  0  0  0  0  0  0  0  0  0
  126.4290  129.7810   62.4700 C   0  0  2  0  0  0  0  0  0  0  0  0
  126.9800  129.2090   61.2960 O   0  0  0  0  0  0  0  0  0  0  0  0
  125.5540  134.8370   61.2810 C   0  0  0  0  0  0  0  0  0  0  0  0
  126.4350  135.9250   61.3880 C   0  0  0  0  0  0  0  0  0  0  0  0
  125.9840  137.2280   61.2030 C   0  0  0  0  0  0  0  0  0  0  0  0
  124.6440  137.4570   60.9090 C   0  0  0  0  0  0  0  0  0  0  0  0
  123.7520  136.3950   60.7980 C   0  0  0  0  0  0  0  0  0  0  0  0
  124.2040  135.0910   60.9850 C   0  0  0  0  0  0  0  0  0  0  0  0
  124.8200  132.4750   61.3380 C   0  0  0  0  0  0  0  0  0  0  0  0
  124.6580  131.6990   60.1790 C   0  0  0  0  0  0  0  0  0  0  0  0
  123.5420  130.8850   60.0160 C   0  0  0  0  0  0  0  0  0  0  0  0
  122.5680  130.8450   61.0100 C   0  0  0  0  0  0  0  0  0  0  0  0
  122.7010  131.6150   62.1600 C   0  0  0  0  0  0  0  0  0  0  0  0
  123.8180  132.4290   62.3210 C   0  0  0  0  0  0  0  0  0  0  0  0
  128.5870  133.1130   61.1230 C   0  0  0  0  0  0  0  0  0  0  0  0
  129.6920  132.7820   60.3440 C   0  0  0  0  0  0  0  0  0  0  0  0
  1  2  1  0
  2  3  1  0
  3  4  2  0
  4  5  1  0
  5  6  2  0
  6  7  1  0
  7  8  1  0
  8  9  1  0
 10  9  1  1
 10 11  1  0
 11 12  1  0
 12 13  1  1
 13 14  1  0
 14 15  2  0
 15 16  1  0
 16 17  2  0
 17 18  1  0
 18 19  1  0
 19 20  2  0
 19 21  1  0
 21 22  2  0
 22 23  1  0
 23 24  2  0
 24 25  1  0
 25 26  2  0
 17 27  1  0
 27 28  2  0
 28 29  1  0
 29 30  2  0
 12 31  1  0
 31 32  1  0
 32 33  1  6
  7 34  1  0
 34 35  2  0
 35 36  1  0
 36 37  2  0
 37 38  1  0
 38 39  2  0
  7 40  1  0
 40 41  2  0
 41 42  1  0
 42 43  2  0
 43 44  1  0
 44 45  2  0
  6 46  1  0
 46 47  2  0
 47  3  1  0
 32 10  1  0
 39 34  1  0
 45 40  1  0
 30 13  1  0
 30 16  1  0
 26 21  1  0
M  END
>  <Binding energies>  (54) 
[-10.18]

>  <Ligand effiencies>  (54) 
[-0.20775510204081632]

>  <Interactions>  (54) 
["V-B:GLU:543:CG:9879, H-B:TYR:484:OH:9319, V-A:GLU:543:CG:4907, V-B:TYR:484:CZ:9318, V-B:GLU:543:CD:9880, V-A:GLU:543:CD:4908, V-B:GLU:543:CB:9878, V-B:HIS:456:CE1:9041, V-A:GLU:543:CB:4906, V-B:LEU:475:CD2:9230, V-A:HIS:456:CE1:4070, V-B:TYR:484:CE2:9317, V-A:ILE:538:CB:4862, V-B:ILE:369:CG2:8208, V-B:GLY:454:CA:9020, V-B:ASP:366:CB:8183, V-B:ASP:366:CA:8181, V-B:ILE:369:CB:8207, V-A:TYR:539:CE1:4875, V-B:ASP:366:CG:8184, V-A:TYR:539:CD1:4873, V-A:PRO:540:C:4881, V-A:TYR:539:C:4867, V-A:PRO:540:N:4884, V-A:PRO:540:CA:4883, V-A:PRO:540:CB:4885, V-B:SER:385:CB:8380, V-A:PRO:540:CD:4887, V-B:ILE:369:CG1:8209, H-A:HIS:456:NE2:4071, V-A:HIS:456:CD2:4068, V-B:HIS:456:CD2:9039, V-A:HIS:456:CG:4066, V-B:GLY:453:C:9013, V-B:LEU:373:CD1:8251, V-B:HIS:383:CD2:8363, V-B:SER:385:CA:8378, V-B:GLY:453:CA:9015, H-A:ARG:545:N:4920, H-B:GLU:543:O:9875"]

$$$$
RR8_A_Rahimova_2017
     RDKit          3D

 42 46  0  0  0  0  0  0  0  0999 V2000
  126.3480  126.6400   61.3160 O   0  0  0  0  0  0  0  0  0  0  0  0
  126.8280  126.7200   60.1810 C   0  0  0  0  0  0  0  0  0  0  0  0
  127.5180  127.8050   59.7080 O   0  0  0  0  0  0  0  0  0  0  0  0
  126.7730  128.8610   59.1670 C   0  0  1  0  0  0  0  0  0  0  0  0
  125.8720  129.3870   60.0980 O   0  0  0  0  0  0  0  0  0  0  0  0
  125.7710  130.8050   59.9940 C   0  0  2  0  0  0  0  0  0  0  0  0
  124.2940  131.1760   59.7760 C   0  0  0  0  0  0  0  0  0  0  0  0
  124.1450  132.5800   59.9370 O   0  0  0  0  0  0  0  0  0  0  0  0
  124.4050  133.0410   61.2560 C   0  0  0  0  0  0  0  0  0  0  0  0
  124.8870  134.4840   61.2130 C   0  0  0  0  0  0  0  0  0  0  0  0
  123.9690  135.5190   61.0200 C   0  0  0  0  0  0  0  0  0  0  0  0
  124.4070  136.8410   60.9860 C   0  0  0  0  0  0  0  0  0  0  0  0
  125.7620  137.1240   61.1490 C   0  0  0  0  0  0  0  0  0  0  0  0
  126.6830  136.0980   61.3480 C   0  0  0  0  0  0  0  0  0  0  0  0
  126.2450  134.7770   61.3830 C   0  0  0  0  0  0  0  0  0  0  0  0
  126.7170  131.1550   58.8390 C   0  0  1  0  0  0  0  0  0  0  0  0
  127.4490  132.3590   59.0580 O   0  0  0  0  0  0  0  0  0  0  0  0
  128.7910  132.1940   59.5020 C   0  0  0  0  0  0  0  0  0  0  0  0
  129.7470  132.3280   58.3260 C   0  0  0  0  0  0  0  0  0  0  0  0
  131.0870  131.9580   58.4760 C   0  0  0  0  0  0  0  0  0  0  0  0
  131.9700  132.0870   57.4080 C   0  0  0  0  0  0  0  0  0  0  0  0
  131.5120  132.5890   56.1910 C   0  0  0  0  0  0  0  0  0  0  0  0
  130.1810  132.9670   56.0340 C   0  0  0  0  0  0  0  0  0  0  0  0
  129.2980  132.8390   57.1040 C   0  0  0  0  0  0  0  0  0  0  0  0
  127.7160  130.0120   58.8460 C   0  0  2  0  0  0  0  0  0  0  0  0
  128.3530  129.8940   57.5760 O   0  0  0  0  0  0  0  0  0  0  0  0
  127.6040  129.2190   56.5710 C   0  0  0  0  0  0  0  0  0  0  0  0
  128.2860  127.9090   56.2090 C   0  0  0  0  0  0  0  0  0  0  0  0
  129.1250  127.2730   57.1310 C   0  0  0  0  0  0  0  0  0  0  0  0
  129.7390  126.0690   56.7980 C   0  0  0  0  0  0  0  0  0  0  0  0
  129.5110  125.5010   55.5470 C   0  0  0  0  0  0  0  0  0  0  0  0
  128.6730  126.1240   54.6250 C   0  0  0  0  0  0  0  0  0  0  0  0
  128.0580  127.3290   54.9570 C   0  0  0  0  0  0  0  0  0  0  0  0
  126.7240  125.6160   59.1690 C   0  0  0  0  0  0  0  0  0  0  0  0
  125.7460  125.6230   58.1610 C   0  0  0  0  0  0  0  0  0  0  0  0
  125.6740  124.5840   57.2380 C   0  0  0  0  0  0  0  0  0  0  0  0
  126.5730  123.5110   57.2990 C   0  0  0  0  0  0  0  0  0  0  0  0
  126.4960  122.4050   56.3140 N   0  0  0  0  0  0  0  0  0  0  0  0
  127.4980  122.1270   55.6610 O   0  0  0  0  0  0  0  0  0  0  0  0
  125.4330  121.8050   56.1860 O   0  0  0  0  0  0  0  0  0  0  0  0
  127.5460  123.5040   58.3060 C   0  0  0  0  0  0  0  0  0  0  0  0
  127.6200  124.5420   59.2290 C   0  0  0  0  0  0  0  0  0  0  0  0
  1  2  2  0
  2  3  1  0
  4  3  1  1
  4  5  1  0
  5  6  1  0
  6  7  1  6
  7  8  1  0
  8  9  1  0
  9 10  1  0
 10 11  2  0
 11 12  1  0
 12 13  2  0
 13 14  1  0
 14 15  2  0
  6 16  1  0
 16 17  1  1
 17 18  1  0
 18 19  1  0
 19 20  2  0
 20 21  1  0
 21 22  2  0
 22 23  1  0
 23 24  2  0
 16 25  1  0
 25 26  1  6
 26 27  1  0
 27 28  1  0
 28 29  2  0
 29 30  1  0
 30 31  2  0
 31 32  1  0
 32 33  2  0
  2 34  1  0
 34 35  2  0
 35 36  1  0
 36 37  2  0
 37 38  1  0
 38 39  2  0
 38 40  1  0
 37 41  1  0
 41 42  2  0
 25  4  1  0
 33 28  1  0
 42 34  1  0
 15 10  1  0
 24 19  1  0
M  CHG  2  38   1  40  -1
M  END
>  <Binding energies>  (55) 
[-9.71]

>  <Ligand effiencies>  (55) 
[-0.23119047619047622]

>  <Interactions>  (55) 
["V-B:LEU:475:CD2:9230, V-A:ILE:538:CB:4862, V-A:ILE:538:CA:4860, V-B:ILE:369:CG2:8208, V-A:ILE:538:C:4858, V-A:MET:535:CE:4835, V-A:LEU:363:CD1:3189, V-A:TYR:539:CE1:4875, V-B:ASP:366:CG:8184, V-A:TYR:539:CD1:4873, V-A:ILE:538:CG2:4863, V-A:PRO:540:N:4884, V-A:PRO:540:CA:4883, V-A:PRO:540:CB:4885, V-B:SER:385:CB:8380, V-B:PRO:540:N:9856, V-B:PRO:540:CA:9855, V-B:PRO:540:CD:9859, V-B:TYR:539:CE1:9847, H-B:ARG:545:NH2:9900, H-B:TYR:539:N:9842, V-B:TYR:531:CE2:9765, V-B:TYR:539:CZ:9849, V-B:MET:535:CE:9807, V-B:LEU:373:CD1:8251, V-B:HIS:383:CD2:8363, V-B:SER:385:CA:8378, V-B:MET:535:CG:9805"]

$$$$
RR8_B_Rahimova_2017
     RDKit          3D

 42 46  0  0  0  0  0  0  0  0999 V2000
  124.1040  131.4640   63.9300 O   0  0  0  0  0  0  0  0  0  0  0  0
  124.8090  131.7930   62.9700 C   0  0  0  0  0  0  0  0  0  0  0  0
  125.6950  130.9630   62.3420 O   0  0  0  0  0  0  0  0  0  0  0  0
  126.6140  130.2500   63.1330 C   0  0  2  0  0  0  0  0  0  0  0  0
  127.6320  131.0760   63.6230 O   0  0  0  0  0  0  0  0  0  0  0  0
  128.7560  131.0970   62.7440 C   0  0  2  0  0  0  0  0  0  0  0  0
  129.0330  132.5440   62.3000 C   0  0  0  0  0  0  0  0  0  0  0  0
  129.3730  132.5530   60.9190 O   0  0  0  0  0  0  0  0  0  0  0  0
  128.3040  132.8760   60.0420 C   0  0  0  0  0  0  0  0  0  0  0  0
  128.8010  132.8220   58.6050 C   0  0  0  0  0  0  0  0  0  0  0  0
  130.1610  133.0010   58.3340 C   0  0  0  0  0  0  0  0  0  0  0  0
  130.6190  132.9770   57.0200 C   0  0  0  0  0  0  0  0  0  0  0  0
  129.7150  132.7730   55.9790 C   0  0  0  0  0  0  0  0  0  0  0  0
  128.3600  132.5870   56.2420 C   0  0  0  0  0  0  0  0  0  0  0  0
  127.9010  132.6140   57.5560 C   0  0  0  0  0  0  0  0  0  0  0  0
  128.3770  130.1240   61.6210 C   0  0  1  0  0  0  0  0  0  0  0  0
  129.5410  129.4230   61.1740 O   0  0  0  0  0  0  0  0  0  0  0  0
  130.1400  129.8680   59.9540 C   0  0  0  0  0  0  0  0  0  0  0  0
  131.4660  130.5830   60.1890 C   0  0  0  0  0  0  0  0  0  0  0  0
  131.8530  130.9350   61.4860 C   0  0  0  0  0  0  0  0  0  0  0  0
  133.0790  131.5590   61.7000 C   0  0  0  0  0  0  0  0  0  0  0  0
  133.9130  131.8330   60.6180 C   0  0  0  0  0  0  0  0  0  0  0  0
  133.5320  131.4890   59.3220 C   0  0  0  0  0  0  0  0  0  0  0  0
  132.3070  130.8620   59.1080 C   0  0  0  0  0  0  0  0  0  0  0  0
  127.3370  129.2170   62.2700 C   0  0  2  0  0  0  0  0  0  0  0  0
  126.5100  128.6190   61.2750 O   0  0  0  0  0  0  0  0  0  0  0  0
  126.9190  128.8240   59.9320 C   0  0  0  0  0  0  0  0  0  0  0  0
  125.8600  129.6590   59.2340 C   0  0  0  0  0  0  0  0  0  0  0  0
  126.0080  130.0080   57.8890 C   0  0  0  0  0  0  0  0  0  0  0  0
  125.0400  130.7910   57.2650 C   0  0  0  0  0  0  0  0  0  0  0  0
  123.9290  131.2210   57.9870 C   0  0  0  0  0  0  0  0  0  0  0  0
  123.7740  130.8760   59.3280 C   0  0  0  0  0  0  0  0  0  0  0  0
  124.7410  130.0930   59.9520 C   0  0  0  0  0  0  0  0  0  0  0  0
  124.8100  133.1770   62.3880 C   0  0  0  0  0  0  0  0  0  0  0  0
  123.6400  133.9480   62.3120 C   0  0  0  0  0  0  0  0  0  0  0  0
  123.6680  135.2240   61.7600 C   0  0  0  0  0  0  0  0  0  0  0  0
  124.8620  135.7580   61.2600 C   0  0  0  0  0  0  0  0  0  0  0  0
  124.8840  137.1090   60.6470 N   0  0  0  0  0  0  0  0  0  0  0  0
  125.9610  137.6890   60.5410 O   0  0  0  0  0  0  0  0  0  0  0  0
  123.8250  137.5990   60.2630 O   0  0  0  0  0  0  0  0  0  0  0  0
  126.0310  134.9910   61.3420 C   0  0  0  0  0  0  0  0  0  0  0  0
  126.0060  133.7180   61.9010 C   0  0  0  0  0  0  0  0  0  0  0  0
  1  2  2  0
  2  3  1  0
  4  3  1  6
  4  5  1  0
  5  6  1  0
  6  7  1  6
  7  8  1  0
  8  9  1  0
  9 10  1  0
 10 11  2  0
 11 12  1  0
 12 13  2  0
 13 14  1  0
 14 15  2  0
  6 16  1  0
 16 17  1  1
 17 18  1  0
 18 19  1  0
 19 20  2  0
 20 21  1  0
 21 22  2  0
 22 23  1  0
 23 24  2  0
 16 25  1  0
 25 26  1  6
 26 27  1  0
 27 28  1  0
 28 29  2  0
 29 30  1  0
 30 31  2  0
 31 32  1  0
 32 33  2  0
  2 34  1  0
 34 35  2  0
 35 36  1  0
 36 37  2  0
 37 38  1  0
 38 39  2  0
 38 40  1  0
 37 41  1  0
 41 42  2  0
 25  4  1  0
 33 28  1  0
 42 34  1  0
 15 10  1  0
 24 19  1  0
M  CHG  2  38   1  40  -1
M  END
>  <Binding energies>  (56) 
[-9.43]

>  <Ligand effiencies>  (56) 
[-0.22452380952380951]

>  <Interactions>  (56) 
["H-B:TYR:484:OH:9319, V-A:ALA:541:CB:4892, V-B:LEU:475:CD2:9230, V-B:TYR:531:CZ:9766, V-A:ILE:538:CB:4862, V-A:ILE:538:CA:4860, V-B:ILE:369:CG2:8208, V-A:TYR:539:CG:4872, V-B:GLY:454:CA:9020, V-B:ASP:366:CB:8183, V-A:MET:535:CE:4835, V-B:ASP:366:CA:8181, V-A:LEU:363:CD1:3189, V-B:ILE:369:CB:8207, V-A:TYR:539:CE1:4875, V-B:ASP:366:CG:8184, V-A:TYR:539:CD1:4873, V-A:TYR:539:CE2:4876, V-A:TYR:539:CZ:4877, V-A:ILE:538:CG2:4863, V-A:TYR:539:C:4867, V-A:PRO:540:N:4884, H-B:HIS:383:NE2:8365, V-A:PRO:540:CA:4883, V-A:PRO:540:CB:4885, V-B:SER:385:CB:8380, V-A:ASP:366:CG:3213, V-A:ASN:362:C:3172, V-A:PRO:540:CD:4887, V-A:ASN:362:CB:3176, V-A:LEU:363:CA:3185, V-A:LEU:363:CB:3187, V-B:ASP:366:C:8179, H-B:GLY:454:N:9021, V-B:LEU:373:CD1:8251, V-B:SER:385:C:8376, V-B:HIS:383:CD2:8363, V-B:SER:385:CA:8378"]

$$$$
RR9_Rahimova_2017
     RDKit          3D

 36 40  0  0  0  0  0  0  0  0999 V2000
  128.9140  127.0700   71.8250 C   0  0  0  0  0  0  0  0  0  0  0  0
  130.1270  127.8300   71.2770 C   0  0  0  0  0  0  0  0  0  0  0  0
  130.5100  127.2460   70.0350 O   0  0  0  0  0  0  0  0  0  0  0  0
  129.8030  127.5610   68.8910 C   0  0  0  0  0  0  0  0  0  0  0  0
  129.1160  128.7730   68.8960 C   0  0  0  0  0  0  0  0  0  0  0  0
  128.3740  129.1730   67.7890 C   0  0  0  0  0  0  0  0  0  0  0  0
  128.2990  128.3690   66.6420 C   0  0  0  0  0  0  0  0  0  0  0  0
  127.4980  128.7930   65.4470 C   0  0  0  0  0  0  0  0  0  0  0  0
  127.8190  128.3550   64.1520 C   0  0  0  0  0  0  0  0  0  0  0  0
  127.0570  128.7440   63.0360 C   0  0  0  0  0  0  0  0  0  0  0  0
  127.3900  128.1610   61.6900 C   0  0  0  0  0  0  0  0  0  0  0  0
  128.1950  128.7250   60.9490 O   0  0  0  0  0  0  0  0  0  0  0  0
  126.7400  127.0250   61.3670 N   0  0  0  0  0  0  0  0  0  0  0  0
  126.7960  126.3430   60.0700 C   0  0  0  0  0  0  0  0  0  0  0  0
  126.8010  124.8010   60.1970 C   0  0  0  0  0  0  0  0  0  0  0  0
  126.4300  124.0560   58.9190 C   0  0  0  0  0  0  0  0  0  0  0  0
  125.1610  124.2190   58.3550 C   0  0  0  0  0  0  0  0  0  0  0  0
  124.8380  123.5640   57.1700 C   0  0  0  0  0  0  0  0  0  0  0  0
  125.7820  122.7450   56.5550 C   0  0  0  0  0  0  0  0  0  0  0  0
  127.0480  122.5740   57.1140 C   0  0  0  0  0  0  0  0  0  0  0  0
  127.3720  123.2300   58.2990 C   0  0  0  0  0  0  0  0  0  0  0  0
  125.9760  129.6250   63.2910 C   0  0  0  0  0  0  0  0  0  0  0  0
  124.9520  130.3290   62.5570 C   0  0  0  0  0  0  0  0  0  0  0  0
  124.7280  130.4120   61.0830 C   0  0  0  0  0  0  0  0  0  0  0  0
  125.7300  130.0070   60.1960 C   0  0  0  0  0  0  0  0  0  0  0  0
  125.5260  130.1010   58.8210 C   0  0  0  0  0  0  0  0  0  0  0  0
  124.3170  130.5960   58.3290 C   0  0  0  0  0  0  0  0  0  0  0  0
  124.1010  130.7150   56.8320 C   0  0  0  0  0  0  0  0  0  0  0  0
  123.3150  131.0030   59.2120 C   0  0  0  0  0  0  0  0  0  0  0  0
  123.5200  130.9060   60.5850 C   0  0  0  0  0  0  0  0  0  0  0  0
  124.1600  130.9810   63.3800 N   0  0  0  0  0  0  0  0  0  0  0  0
  124.6250  130.8050   64.6270 N   0  0  0  0  0  0  0  0  0  0  0  0
  125.7380  129.9970   64.6360 C   0  0  0  0  0  0  0  0  0  0  0  0
  126.4490  129.6240   65.6990 N   0  0  0  0  0  0  0  0  0  0  0  0
  128.9920  127.1500   66.6440 C   0  0  0  0  0  0  0  0  0  0  0  0
  129.7360  126.7480   67.7510 C   0  0  0  0  0  0  0  0  0  0  0  0
  1  2  1  0
  2  3  1  0
  3  4  1  0
  4  5  2  0
  5  6  1  0
  6  7  2  0
  7  8  1  0
  8  9  2  0
  9 10  1  0
 10 11  1  0
 11 12  2  0
 11 13  1  0
 13 14  1  0
 14 15  1  0
 15 16  1  0
 16 17  2  0
 17 18  1  0
 18 19  2  0
 19 20  1  0
 20 21  2  0
 10 22  2  0
 22 23  1  0
 23 24  1  0
 24 25  2  0
 25 26  1  0
 26 27  2  0
 27 28  1  0
 27 29  1  0
 29 30  2  0
 23 31  2  0
 31 32  1  0
 32 33  1  0
 33 34  2  0
  7 35  1  0
 35 36  2  0
 36  4  1  0
 34  8  1  0
 21 16  1  0
 33 22  1  0
 30 24  1  0
M  END
>  <Binding energies>  (57) 
[-9.52]

>  <Ligand effiencies>  (57) 
[-0.25052631578947365]

>  <Interactions>  (57) 
["V-B:GLU:543:CG:9879, H-B:TYR:484:OH:9319, V-A:GLU:543:CG:4907, V-B:TYR:484:CZ:9318, V-B:GLU:543:CD:9880, V-A:GLU:543:CD:4908, V-B:GLU:543:CB:9878, V-B:HIS:456:CE1:9041, V-A:GLU:543:CB:4906, V-A:GLU:543:C:4902, V-A:HIS:456:CE1:4070, V-B:TYR:531:CZ:9766, V-B:ILE:369:CG2:8208, V-B:GLY:454:CA:9020, V-B:ASP:366:CB:8183, V-B:TYR:531:CE1:9764, V-B:ASP:366:CA:8181, V-B:ILE:369:CB:8207, V-B:ASP:366:CG:8184, V-B:LEU:363:CD1:8160, V-B:PRO:540:N:9856, V-B:PRO:540:CA:9855, V-B:PRO:540:CB:9857, V-B:TYR:539:C:9839, V-B:PRO:540:CD:9859, V-B:TYR:539:CD1:9845, V-B:ASP:366:C:8179, H-B:GLY:454:N:9021, H-B:ASP:366:OD1:8185, H-B:GLU:543:OE2:9882, H-B:GLU:543:OE1:9881, V-B:TYR:539:CG:9844, V-B:MET:535:CE:9807, V-A:GLU:543:CA:4904"]

$$$$
