1a_Ghoteimi_2023
     RDKit          3D

 40 43  0  0  0  0  0  0  0  0999 V2000
  127.1260  123.7270   54.3430 C   0  0  0  0  0  0  0  0  0  0  0  0
  128.1240  124.0310   55.4640 C   0  0  0  0  0  0  0  0  0  0  0  0
  127.4340  124.0800   56.7070 O   0  0  0  0  0  0  0  0  0  0  0  0
  127.1360  122.9450   57.3900 C   0  0  0  0  0  0  0  0  0  0  0  0
  126.5750  121.9710   56.8790 O   0  0  0  0  0  0  0  0  0  0  0  0
  127.5630  122.9890   58.8290 C   0  0  0  0  0  0  0  0  0  0  0  0
  128.5200  122.1050   59.3470 C   0  0  0  0  0  0  0  0  0  0  0  0
  128.8940  122.1680   60.6870 C   0  0  0  0  0  0  0  0  0  0  0  0
  128.3160  123.1250   61.5350 C   0  0  0  0  0  0  0  0  0  0  0  0
  128.6150  123.2750   62.9030 N   0  0  0  0  0  0  0  0  0  0  0  0
  129.6440  122.7790   63.6230 C   0  0  0  0  0  0  0  0  0  0  0  0
  130.5590  122.0840   63.1810 O   0  0  0  0  0  0  0  0  0  0  0  0
  129.6410  123.1400   65.1080 C   0  0  0  0  0  0  0  0  0  0  0  0
  130.5790  124.6620   65.4330 S   0  0  0  0  0  0  0  0  0  0  0  0
  129.4590  125.7660   66.2630 C   0  0  0  0  0  0  0  0  0  0  0  0
  129.4720  125.6490   67.6120 N   0  0  0  0  0  0  0  0  0  0  0  0
  128.6640  126.4410   68.3660 C   0  0  0  0  0  0  0  0  0  0  0  0
  128.7510  126.2670   69.8550 C   0  0  0  0  0  0  0  0  0  0  0  0
  128.2200  127.2240   70.7340 C   0  0  0  0  0  0  0  0  0  0  0  0
  128.3010  127.0590   72.1140 C   0  0  0  0  0  0  0  0  0  0  0  0
  128.9160  125.9350   72.6580 C   0  0  0  0  0  0  0  0  0  0  0  0
  128.9490  125.8520   74.0370 O   0  0  0  0  0  0  0  0  0  0  0  0
  128.1100  126.7100   74.8030 C   0  0  0  0  0  0  0  0  0  0  0  0
  129.4550  124.9710   71.7940 C   0  0  0  0  0  0  0  0  0  0  0  0
  129.3720  125.1400   70.4150 C   0  0  0  0  0  0  0  0  0  0  0  0
  127.8170  127.3770   67.7590 C   0  0  0  0  0  0  0  0  0  0  0  0
  127.7680  127.4990   66.3640 C   0  0  0  0  0  0  0  0  0  0  0  0
  126.8180  128.4960   65.7860 C   0  0  0  0  0  0  0  0  0  0  0  0
  125.4930  128.5650   66.2310 C   0  0  0  0  0  0  0  0  0  0  0  0
  124.6180  129.5070   65.6970 C   0  0  0  0  0  0  0  0  0  0  0  0
  125.0480  130.4010   64.7180 C   0  0  0  0  0  0  0  0  0  0  0  0
  124.1110  131.3000   64.2490 O   0  0  0  0  0  0  0  0  0  0  0  0
  123.7750  131.2950   62.8650 C   0  0  0  0  0  0  0  0  0  0  0  0
  126.3790  130.3400   64.2750 C   0  0  0  0  0  0  0  0  0  0  0  0
  127.2530  129.3960   64.8090 C   0  0  0  0  0  0  0  0  0  0  0  0
  128.6160  126.6740   65.5860 C   0  0  0  0  0  0  0  0  0  0  0  0
  128.6210  126.7660   64.1230 C   0  0  0  0  0  0  0  0  0  0  0  0
  128.6240  126.8400   62.9680 N   0  0  0  0  0  0  0  0  0  0  0  0
  127.3610  124.0030   61.0240 C   0  0  0  0  0  0  0  0  0  0  0  0
  126.9880  123.9390   59.6830 C   0  0  0  0  0  0  0  0  0  0  0  0
  1  2  1  0
  2  3  1  0
  3  4  1  0
  4  5  2  0
  4  6  1  0
  6  7  2  0
  7  8  1  0
  8  9  2  0
  9 10  1  0
 10 11  1  0
 11 12  2  0
 11 13  1  0
 13 14  1  0
 14 15  1  0
 15 16  2  0
 16 17  1  0
 17 18  1  0
 18 19  2  0
 19 20  1  0
 20 21  2  0
 21 22  1  0
 22 23  1  0
 21 24  1  0
 24 25  2  0
 17 26  2  0
 26 27  1  0
 27 28  1  0
 28 29  2  0
 29 30  1  0
 30 31  2  0
 31 32  1  0
 32 33  1  0
 31 34  1  0
 34 35  2  0
 27 36  2  0
 36 37  1  0
 37 38  3  0
  9 39  1  0
 39 40  2  0
 40  6  1  0
 36 15  1  0
 25 18  1  0
 35 28  1  0
M  END
>  <Binding energies>  (1) 
[-10.18]

>  <Ligand effiencies>  (1) 
[-0.24829268292682927]

>  <Interactions>  (1) 
["V-A:HIS:456:CE1:4069, V-A:HIS:456:CD2:4068, V-B:ARG:545:CZ:9898, H-B:GLY:454:N:9021, H-B:LYS:547:NZ:9923, V-B:GLU:543:CB:9878, V-B:HIS:456:CE1:9040, V-B:ARG:545:CG:9894, V-B:GLY:454:CA:9020, H-A:TYR:484:OH:4348, H-B:GLU:543:OE1:9881, V-A:TYR:484:CE1:4345, V-B:ARG:545:CD:9895, V-B:GLU:543:CD:9880, V-B:TYR:539:CE2:9848, V-B:TYR:539:C:9839, V-B:PRO:540:N:9856, V-B:ILE:538:CA:9832, V-B:PRO:540:CA:9855, V-B:TYR:539:CZ:9849, H-B:TYR:484:OH:9319, H-B:TYR:539:N:9842, V-B:TYR:539:CE1:9847, V-B:ILE:538:CG2:9835, V-B:TYR:539:CD2:9846, V-B:GLU:543:CG:9879, V-B:ALA:541:CB:9864, H-B:GLU:543:OE2:9882, V-B:GLU:543:CA:9876, V-B:ILE:369:CD1:8210, H-A:HIS:456:NE2:4070"]

$$$$
1b_Ghoteimi_2023
     RDKit          3D

 34 37  0  0  0  0  0  0  0  0999 V2000
  127.2390  126.6890   74.6340 C   0  0  0  0  0  0  0  0  0  0  0  0
  128.2530  125.8810   74.0490 O   0  0  0  0  0  0  0  0  0  0  0  0
  128.4640  125.9470   72.6850 C   0  0  0  0  0  0  0  0  0  0  0  0
  127.8650  127.0100   72.0110 C   0  0  0  0  0  0  0  0  0  0  0  0
  128.0210  127.1580   70.6360 C   0  0  0  0  0  0  0  0  0  0  0  0
  128.7850  126.2460   69.8910 C   0  0  0  0  0  0  0  0  0  0  0  0
  128.9490  126.4070   68.4060 C   0  0  0  0  0  0  0  0  0  0  0  0
  129.7150  125.5350   67.6260 C   0  0  0  0  0  0  0  0  0  0  0  0
  129.8330  125.7270   66.2430 C   0  0  0  0  0  0  0  0  0  0  0  0
  130.6710  124.7600   65.4740 C   0  0  0  0  0  0  0  0  0  0  0  0
  131.9790  125.0920   65.1120 C   0  0  0  0  0  0  0  0  0  0  0  0
  132.7620  124.1970   64.3880 C   0  0  0  0  0  0  0  0  0  0  0  0
  132.2510  122.9550   64.0080 C   0  0  0  0  0  0  0  0  0  0  0  0
  133.0990  122.1320   63.2920 O   0  0  0  0  0  0  0  0  0  0  0  0
  133.7930  122.6610   62.1670 C   0  0  0  0  0  0  0  0  0  0  0  0
  130.9360  122.6200   64.3630 C   0  0  0  0  0  0  0  0  0  0  0  0
  130.1560  123.5180   65.0860 C   0  0  0  0  0  0  0  0  0  0  0  0
  129.1480  126.8180   65.6530 C   0  0  0  0  0  0  0  0  0  0  0  0
  129.1600  127.0070   64.2000 C   0  0  0  0  0  0  0  0  0  0  0  0
  129.1710  127.1550   63.0520 N   0  0  0  0  0  0  0  0  0  0  0  0
  128.4080  127.6730   66.5010 C   0  0  0  0  0  0  0  0  0  0  0  0
  127.4940  129.0940   65.9380 S   0  0  0  0  0  0  0  0  0  0  0  0
  125.7510  128.8700   66.4270 C   0  0  0  0  0  0  0  0  0  0  0  0
  124.7290  129.6020   65.5440 C   0  0  0  0  0  0  0  0  0  0  0  0
  123.7580  130.1720   66.0460 O   0  0  0  0  0  0  0  0  0  0  0  0
  124.9930  129.5540   64.2190 N   0  0  0  0  0  0  0  0  0  0  0  0
  124.2500  130.1240   63.1930 C   0  0  0  0  0  0  0  0  0  0  0  0
  124.8090  130.5250   61.9800 C   0  0  0  0  0  0  0  0  0  0  0  0
  123.7560  131.0290   61.2500 C   0  0  0  0  0  0  0  0  0  0  0  0
  122.6220  130.9350   61.9850 O   0  0  0  0  0  0  0  0  0  0  0  0
  122.9480  130.3590   63.2140 N   0  0  0  0  0  0  0  0  0  0  0  0
  128.3000  127.4550   67.8340 N   0  0  0  0  0  0  0  0  0  0  0  0
  129.3820  125.1780   70.5800 C   0  0  0  0  0  0  0  0  0  0  0  0
  129.2270  125.0270   71.9540 C   0  0  0  0  0  0  0  0  0  0  0  0
  1  2  1  0
  2  3  1  0
  3  4  2  0
  4  5  1  0
  5  6  2  0
  6  7  1  0
  7  8  2  0
  8  9  1  0
  9 10  1  0
 10 11  2  0
 11 12  1  0
 12 13  2  0
 13 14  1  0
 14 15  1  0
 13 16  1  0
 16 17  2  0
  9 18  2  0
 18 19  1  0
 19 20  3  0
 18 21  1  0
 21 22  1  0
 22 23  1  0
 23 24  1  0
 24 25  2  0
 24 26  1  0
 26 27  1  0
 27 28  1  0
 28 29  2  0
 29 30  1  0
 30 31  1  0
 21 32  2  0
  6 33  1  0
 33 34  2  0
 34  3  1  0
 32  7  1  0
 17 10  1  0
 31 27  2  0
M  END
>  <Binding energies>  (2) 
[-9.72]

>  <Ligand effiencies>  (2) 
[-0.27771428571428575]

>  <Interactions>  (2) 
["V-A:HIS:456:CE1:4069, V-A:HIS:456:CD2:4068, V-A:TYR:484:CZ:4347, V-B:ARG:545:CZ:9898, H-B:GLY:454:N:9021, H-B:LYS:547:NZ:9923, V-B:HIS:456:CE1:9040, H-B:ARG:545:NH2:9900, V-B:ARG:545:CG:9894, V-B:LYS:547:CD:9921, H-B:GLU:543:OE1:9881, H-B:ARG:545:NH1:9899, V-A:TYR:484:CE1:4345, V-B:ARG:545:CD:9895, V-B:GLU:543:CD:9880, V-A:GLU:543:CD:4908, H-A:GLY:454:N:4050, V-A:ILE:369:CD1:3239, H-B:TYR:484:OH:9319, H-B:ILE:455:N:9026, V-B:GLU:543:CG:9879, V-A:GLY:454:CA:4049, V-A:LEU:475:CD1:4258, H-B:ARG:545:NE:9896, V-B:ASP:366:CG:8184, V-B:ILE:369:CD1:8210"]

$$$$
1c_Ghoteimi_2023
     RDKit          3D

 34 37  0  0  0  0  0  0  0  0999 V2000
  127.4170  126.6290   74.8520 C   0  0  0  0  0  0  0  0  0  0  0  0
  128.4400  125.8790   74.2050 O   0  0  0  0  0  0  0  0  0  0  0  0
  128.6020  125.9970   72.8380 C   0  0  0  0  0  0  0  0  0  0  0  0
  128.0740  127.1390   72.2420 C   0  0  0  0  0  0  0  0  0  0  0  0
  128.1880  127.3380   70.8690 C   0  0  0  0  0  0  0  0  0  0  0  0
  128.8340  126.3990   70.0500 C   0  0  0  0  0  0  0  0  0  0  0  0
  128.9560  126.6080   68.5680 C   0  0  0  0  0  0  0  0  0  0  0  0
  129.6460  125.7220   67.7330 C   0  0  0  0  0  0  0  0  0  0  0  0
  129.7090  125.9440   66.3530 C   0  0  0  0  0  0  0  0  0  0  0  0
  130.4040  124.9230   65.5150 C   0  0  0  0  0  0  0  0  0  0  0  0
  131.7140  125.1360   65.0740 C   0  0  0  0  0  0  0  0  0  0  0  0
  132.3530  124.1930   64.2760 C   0  0  0  0  0  0  0  0  0  0  0  0
  131.6950  123.0220   63.8980 C   0  0  0  0  0  0  0  0  0  0  0  0
  132.4060  122.1430   63.1040 O   0  0  0  0  0  0  0  0  0  0  0  0
  133.5390  122.6180   62.3830 C   0  0  0  0  0  0  0  0  0  0  0  0
  130.3780  122.8080   64.3320 C   0  0  0  0  0  0  0  0  0  0  0  0
  129.7410  123.7530   65.1310 C   0  0  0  0  0  0  0  0  0  0  0  0
  129.0850  127.1000   65.8270 C   0  0  0  0  0  0  0  0  0  0  0  0
  129.1440  127.4070   64.3940 C   0  0  0  0  0  0  0  0  0  0  0  0
  129.1910  127.6480   63.2630 N   0  0  0  0  0  0  0  0  0  0  0  0
  128.3920  127.9410   66.7220 C   0  0  0  0  0  0  0  0  0  0  0  0
  127.4220  129.3310   66.1810 S   0  0  0  0  0  0  0  0  0  0  0  0
  125.7070  128.9040   66.6240 C   0  0  0  0  0  0  0  0  0  0  0  0
  124.6870  129.5600   65.6870 C   0  0  0  0  0  0  0  0  0  0  0  0
  123.7540  130.2100   66.1620 O   0  0  0  0  0  0  0  0  0  0  0  0
  124.9300  129.3990   64.3680 N   0  0  0  0  0  0  0  0  0  0  0  0
  124.2590  130.0100   63.3210 C   0  0  0  0  0  0  0  0  0  0  0  0
  122.9920  130.3600   63.2680 N   0  0  0  0  0  0  0  0  0  0  0  0
  122.7020  130.9580   62.1290 C   0  0  0  0  0  0  0  0  0  0  0  0
  123.7520  131.1060   61.2270 C   0  0  0  0  0  0  0  0  0  0  0  0
  125.1920  130.4170   61.9170 S   0  0  0  0  0  0  0  0  0  0  0  0
  128.3240  127.6950   68.0530 N   0  0  0  0  0  0  0  0  0  0  0  0
  129.3680  125.2560   70.6620 C   0  0  0  0  0  0  0  0  0  0  0  0
  129.2550  125.0510   72.0340 C   0  0  0  0  0  0  0  0  0  0  0  0
  1  2  1  0
  2  3  1  0
  3  4  2  0
  4  5  1  0
  5  6  2  0
  6  7  1  0
  7  8  2  0
  8  9  1  0
  9 10  1  0
 10 11  2  0
 11 12  1  0
 12 13  2  0
 13 14  1  0
 14 15  1  0
 13 16  1  0
 16 17  2  0
  9 18  2  0
 18 19  1  0
 19 20  3  0
 18 21  1  0
 21 22  1  0
 22 23  1  0
 23 24  1  0
 24 25  2  0
 24 26  1  0
 26 27  1  0
 27 28  2  0
 28 29  1  0
 29 30  2  0
 30 31  1  0
 21 32  2  0
  6 33  1  0
 33 34  2  0
 34  3  1  0
 32  7  1  0
 17 10  1  0
 31 27  1  0
M  END
>  <Binding energies>  (3) 
[-9.42]

>  <Ligand effiencies>  (3) 
[-0.26914285714285713]

>  <Interactions>  (3) 
["V-A:HIS:456:CE1:4069, V-A:HIS:456:CD2:4068, V-B:ARG:545:CZ:9898, H-B:GLY:454:N:9021, H-B:LYS:547:NZ:9923, V-B:GLU:543:CB:9878, V-B:HIS:456:CE1:9040, V-B:GLY:453:C:9013, H-B:ARG:545:NH2:9900, V-B:ARG:545:CG:9894, V-B:LYS:547:CD:9921, H-B:GLU:543:OE1:9881, H-B:ARG:545:NH1:9899, V-A:TYR:484:CE1:4345, V-B:ARG:545:CD:9895, V-A:GLU:543:CD:4908, V-B:HIS:456:CD2:9039, H-B:TYR:484:OH:9319, H-B:ILE:455:N:9026, V-B:GLU:543:CG:9879, V-A:GLY:454:CA:4049, V-A:LEU:475:CD1:4258, V-B:ALA:541:CB:9864, H-B:ARG:545:NE:9896, V-B:ASP:366:CG:8184, V-B:GLU:543:CA:9876, V-B:ILE:369:CD1:8210, V-B:GLY:453:CA:9015"]

$$$$
1d_Ghoteimi_2023
     RDKit          3D

 30 32  0  0  0  0  0  0  0  0999 V2000
  133.5220  124.9700   63.1700 C   0  0  0  0  0  0  0  0  0  0  0  0
  133.5660  124.2260   64.3780 O   0  0  0  0  0  0  0  0  0  0  0  0
  133.7570  124.8490   65.5600 C   0  0  0  0  0  0  0  0  0  0  0  0
  134.6900  124.6590   66.3420 O   0  0  0  0  0  0  0  0  0  0  0  0
  132.6570  125.8620   65.8660 C   0  0  0  0  0  0  0  0  0  0  0  0
  131.0640  125.0670   65.4990 S   0  0  0  0  0  0  0  0  0  0  0  0
  129.8050  126.0230   66.3150 C   0  0  0  0  0  0  0  0  0  0  0  0
  129.7920  125.8730   67.6610 N   0  0  0  0  0  0  0  0  0  0  0  0
  128.8790  126.5430   68.4090 C   0  0  0  0  0  0  0  0  0  0  0  0
  128.9370  126.3270   69.8930 C   0  0  0  0  0  0  0  0  0  0  0  0
  129.3840  125.1110   70.4350 C   0  0  0  0  0  0  0  0  0  0  0  0
  129.4310  124.9100   71.8110 C   0  0  0  0  0  0  0  0  0  0  0  0
  129.0310  125.9150   72.6890 C   0  0  0  0  0  0  0  0  0  0  0  0
  129.1080  125.6260   74.0380 O   0  0  0  0  0  0  0  0  0  0  0  0
  130.3880  125.4820   74.6450 C   0  0  0  0  0  0  0  0  0  0  0  0
  128.5820  127.1340   72.1640 C   0  0  0  0  0  0  0  0  0  0  0  0
  128.5380  127.3320   70.7860 C   0  0  0  0  0  0  0  0  0  0  0  0
  127.9520  127.3990   67.8030 C   0  0  0  0  0  0  0  0  0  0  0  0
  127.9320  127.5610   66.4120 C   0  0  0  0  0  0  0  0  0  0  0  0
  126.9100  128.4850   65.8310 C   0  0  0  0  0  0  0  0  0  0  0  0
  127.2480  129.3290   64.7690 C   0  0  0  0  0  0  0  0  0  0  0  0
  126.3010  130.1910   64.2220 C   0  0  0  0  0  0  0  0  0  0  0  0
  125.0000  130.2250   64.7220 C   0  0  0  0  0  0  0  0  0  0  0  0
  124.1310  131.1160   64.1230 O   0  0  0  0  0  0  0  0  0  0  0  0
  123.8220  130.9650   62.7420 C   0  0  0  0  0  0  0  0  0  0  0  0
  124.6530  129.3700   65.7800 C   0  0  0  0  0  0  0  0  0  0  0  0
  125.6010  128.5080   66.3240 C   0  0  0  0  0  0  0  0  0  0  0  0
  128.8710  126.8380   65.6360 C   0  0  0  0  0  0  0  0  0  0  0  0
  128.8280  126.8890   64.1710 C   0  0  0  0  0  0  0  0  0  0  0  0
  128.7930  126.9300   63.0150 N   0  0  0  0  0  0  0  0  0  0  0  0
  1  2  1  0
  2  3  1  0
  3  4  2  0
  3  5  1  0
  5  6  1  0
  6  7  1  0
  7  8  2  0
  8  9  1  0
  9 10  1  0
 10 11  2  0
 11 12  1  0
 12 13  2  0
 13 14  1  0
 14 15  1  0
 13 16  1  0
 16 17  2  0
  9 18  2  0
 18 19  1  0
 19 20  1  0
 20 21  2  0
 21 22  1  0
 22 23  2  0
 23 24  1  0
 24 25  1  0
 23 26  1  0
 26 27  2  0
 19 28  2  0
 28 29  1  0
 29 30  3  0
 28  7  1  0
 17 10  1  0
 27 20  1  0
M  END
>  <Binding energies>  (4) 
[-8.59]

>  <Ligand effiencies>  (4) 
[-0.28633333333333333]

>  <Interactions>  (4) 
["V-A:HIS:456:CE1:4069, V-A:HIS:456:CD2:4068, V-B:ARG:545:CZ:9898, H-B:GLY:454:N:9021, H-B:LYS:547:NZ:9923, V-B:HIS:456:CE1:9040, V-B:ARG:545:CG:9894, H-A:TYR:484:OH:4348, V-B:ARG:545:CD:9895, V-B:GLU:543:CD:9880, V-A:GLU:543:CD:4908, H-A:GLY:454:N:4050, V-A:ARG:545:CG:4922, V-A:ARG:545:CZ:4926, V-A:ARG:545:CD:4923, H-B:TYR:484:OH:9319, H-A:HIS:456:NE2:4070, H-A:ILE:455:N:4055"]

$$$$
1j_Grossjean_2025
     RDKit          3D

 20 21  0  0  0  0  0  0  0  0999 V2000
  132.5110  132.5890   56.1220 C   0  0  0  0  0  0  0  0  0  0  0  0
  131.1360  132.1430   55.6590 C   0  0  0  0  0  0  0  0  0  0  0  0
  130.7890  132.1300   54.3100 C   0  0  0  0  0  0  0  0  0  0  0  0
  129.5120  131.6980   53.9420 C   0  0  0  0  0  0  0  0  0  0  0  0
  129.1610  131.6760   52.4540 C   0  0  0  0  0  0  0  0  0  0  0  0
  128.6030  131.2930   54.9450 C   0  0  0  0  0  0  0  0  0  0  0  0
  127.2780  130.7860   54.5780 C   0  0  0  0  0  0  0  0  0  0  0  0
  126.2330  130.3850   54.2840 N   0  0  0  0  0  0  0  0  0  0  0  0
  129.0320  131.3640   56.2920 C   0  0  0  0  0  0  0  0  0  0  0  0
  128.0200  130.8980   57.6800 S   0  0  0  0  0  0  0  0  0  0  0  0
  127.8840  132.3420   58.7740 C   0  0  0  0  0  0  0  0  0  0  0  0
  129.0340  132.4100   59.7810 C   0  0  0  0  0  0  0  0  0  0  0  0
  128.9470  133.1690   60.7470 O   0  0  0  0  0  0  0  0  0  0  0  0
  130.0840  131.6010   59.5210 N   0  0  0  0  0  0  0  0  0  0  0  0
  131.2450  131.4830   60.2730 C   0  0  0  0  0  0  0  0  0  0  0  0
  131.4320  131.8310   61.5290 N   0  0  0  0  0  0  0  0  0  0  0  0
  132.6630  131.5740   61.9230 C   0  0  0  0  0  0  0  0  0  0  0  0
  133.5070  131.0030   60.9750 C   0  0  0  0  0  0  0  0  0  0  0  0
  132.6290  130.7940   59.4890 S   0  0  0  0  0  0  0  0  0  0  0  0
  130.2810  131.7640   56.6380 N   0  0  0  0  0  0  0  0  0  0  0  0
  1  2  1  0
  2  3  2  0
  3  4  1  0
  4  5  1  0
  4  6  2  0
  6  7  1  0
  7  8  3  0
  6  9  1  0
  9 10  1  0
 10 11  1  0
 11 12  1  0
 12 13  2  0
 12 14  1  0
 14 15  1  0
 15 16  2  0
 16 17  1  0
 17 18  2  0
 18 19  1  0
  9 20  2  0
 20  2  1  0
 19 15  1  0
M  END
>  <Binding energies>  (5) 
[-7.11]

>  <Ligand effiencies>  (5) 
[-0.3385714285714286]

>  <Interactions>  (5) 
["V-A:GLU:543:CD:4908, V-A:ILE:538:CG2:4863, V-A:ILE:538:CD1:4865, V-A:ILE:538:CA:4860, H-B:TYR:531:OH:9767, V-A:LEU:363:CD1:3189, V-A:MET:535:CG:4833, V-A:TYR:539:CZ:4877, V-A:PRO:540:CD:4887, V-A:TYR:539:C:4867, V-A:MET:535:CB:4832, V-A:PRO:540:CB:4885, V-A:PRO:540:N:4884, V-A:TYR:539:CE1:4875, V-A:PRO:540:CA:4883, V-A:TYR:539:CD1:4873, V-A:TYR:539:CE2:4876, H-A:ALA:541:N:4891, V-A:TYR:539:CD2:4874, H-A:TYR:539:OH:4878, V-A:ASN:362:C:3172, V-A:ASN:362:CB:3176, V-A:PRO:540:C:4881, V-A:PRO:540:CG:4886"]

$$$$
1o_Grossjean_2025
     RDKit          3D

 26 27  0  0  0  0  0  0  0  0999 V2000
  127.6480  122.5400   58.5440 C   0  0  0  0  0  0  0  0  0  0  0  0
  127.5750  122.0510   57.2120 O   0  0  0  0  0  0  0  0  0  0  0  0
  126.7060  122.5880   56.3170 C   0  0  0  0  0  0  0  0  0  0  0  0
  125.6060  122.0900   56.0560 O   0  0  0  0  0  0  0  0  0  0  0  0
  127.2120  123.8490   55.6790 C   0  0  0  0  0  0  0  0  0  0  0  0
  128.5220  124.3080   55.8790 C   0  0  0  0  0  0  0  0  0  0  0  0
  128.9620  125.4810   55.2700 C   0  0  0  0  0  0  0  0  0  0  0  0
  128.1030  126.2210   54.4570 C   0  0  0  0  0  0  0  0  0  0  0  0
  128.6520  127.3850   53.8850 N   0  0  0  0  0  0  0  0  0  0  0  0
  129.3060  128.4120   54.4710 C   0  0  0  0  0  0  0  0  0  0  0  0
  129.5840  128.4850   55.6680 O   0  0  0  0  0  0  0  0  0  0  0  0
  129.7430  129.5420   53.5280 C   0  0  0  0  0  0  0  0  0  0  0  0
  128.6260  130.0080   52.5730 C   0  0  0  0  0  0  0  0  0  0  0  0
  127.4790  131.2090   53.3110 S   0  0  0  0  0  0  0  0  0  0  0  0
  127.4650  130.9650   55.0760 C   0  0  0  0  0  0  0  0  0  0  0  0
  126.3990  130.2480   55.5130 N   0  0  0  0  0  0  0  0  0  0  0  0
  126.2860  129.9910   56.8380 C   0  0  0  0  0  0  0  0  0  0  0  0
  125.0770  129.1710   57.2490 C   0  0  0  0  0  0  0  0  0  0  0  0
  127.2130  130.4440   57.7730 C   0  0  0  0  0  0  0  0  0  0  0  0
  128.3010  131.2060   57.3370 C   0  0  0  0  0  0  0  0  0  0  0  0
  129.2970  131.7040   58.3840 C   0  0  0  0  0  0  0  0  0  0  0  0
  128.4390  131.4910   55.9590 C   0  0  0  0  0  0  0  0  0  0  0  0
  129.5390  132.3370   55.4910 C   0  0  0  0  0  0  0  0  0  0  0  0
  130.4100  133.0050   55.1230 N   0  0  0  0  0  0  0  0  0  0  0  0
  126.7920  125.7650   54.2480 C   0  0  0  0  0  0  0  0  0  0  0  0
  126.3550  124.5920   54.8570 C   0  0  0  0  0  0  0  0  0  0  0  0
  1  2  1  0
  2  3  1  0
  3  4  2  0
  3  5  1  0
  5  6  2  0
  6  7  1  0
  7  8  2  0
  8  9  1  0
  9 10  1  0
 10 11  2  0
 10 12  1  0
 12 13  1  0
 13 14  1  0
 14 15  1  0
 15 16  2  0
 16 17  1  0
 17 18  1  0
 17 19  2  0
 19 20  1  0
 20 21  1  0
 20 22  2  0
 22 23  1  0
 23 24  3  0
  8 25  1  0
 25 26  2  0
 26  5  1  0
 22 15  1  0
M  END
>  <Binding energies>  (6) 
[-7.48]

>  <Ligand effiencies>  (6) 
[-0.277037037037037]

>  <Interactions>  (6) 
["V-B:TYR:539:CE2:9848, V-B:TYR:539:C:9839, V-B:PRO:540:N:9856, V-B:PRO:540:CA:9855, V-B:ILE:538:CB:9834, V-B:TYR:539:CZ:9849, H-B:TYR:539:N:9842, V-B:TYR:539:CE1:9847, V-B:ILE:538:CG2:9835, V-B:TYR:539:CD2:9846, H-A:TYR:531:OH:4795, H-B:TYR:531:OH:9767, V-A:MET:535:CE:4835, V-A:MET:535:CG:4833, H-A:TYR:539:N:4870, V-A:TYR:539:CZ:4877, V-A:MET:535:CB:4832, V-A:TYR:539:CE1:4875, V-A:TYR:539:CD1:4873, V-B:TYR:531:CE2:9765, V-A:TYR:539:CE2:4876, H-A:TYR:539:OH:4878, V-B:ASP:366:CB:8183, H-B:MET:535:SD:9806, V-A:TYR:531:CZ:4794, V-B:TYR:531:CZ:9766, V-B:MET:535:CE:9807, V-B:MET:535:CG:9805, H-A:MET:535:SD:4834"]

$$$$
1p_Grossjean_2025
     RDKit          3D

 21 22  0  0  0  0  0  0  0  0999 V2000
  127.5700  130.7060   56.0780 C   0  0  0  0  0  0  0  0  0  0  0  0
  128.4130  130.9730   57.3110 C   0  0  0  0  0  0  0  0  0  0  0  0
  127.9330  131.7430   58.3690 C   0  0  0  0  0  0  0  0  0  0  0  0
  128.7590  131.9680   59.4760 C   0  0  0  0  0  0  0  0  0  0  0  0
  128.2170  132.8270   60.6170 C   0  0  0  0  0  0  0  0  0  0  0  0
  130.0540  131.4030   59.4970 C   0  0  0  0  0  0  0  0  0  0  0  0
  130.9540  131.6640   60.6210 C   0  0  0  0  0  0  0  0  0  0  0  0
  131.6660  131.8700   61.5110 N   0  0  0  0  0  0  0  0  0  0  0  0
  130.4490  130.6160   58.3890 C   0  0  0  0  0  0  0  0  0  0  0  0
  132.0370  129.8260   58.2600 S   0  0  0  0  0  0  0  0  0  0  0  0
  132.7790  130.3870   56.6990 C   0  0  0  0  0  0  0  0  0  0  0  0
  132.4680  131.8560   56.3560 C   0  0  0  0  0  0  0  0  0  0  0  0
  131.3290  132.0210   55.3390 C   0  0  0  0  0  0  0  0  0  0  0  0
  130.8590  133.1410   55.1300 O   0  0  0  0  0  0  0  0  0  0  0  0
  130.9280  130.8870   54.7220 N   0  0  0  0  0  0  0  0  0  0  0  0
  129.9270  130.7590   53.7670 C   0  0  0  0  0  0  0  0  0  0  0  0
  129.4630  131.8280   53.0010 C   0  0  0  0  0  0  0  0  0  0  0  0
  128.4900  131.2920   52.1890 C   0  0  0  0  0  0  0  0  0  0  0  0
  128.3720  129.9700   52.4530 O   0  0  0  0  0  0  0  0  0  0  0  0
  129.2880  129.6440   53.4560 N   0  0  0  0  0  0  0  0  0  0  0  0
  129.6490  130.4210   57.3110 N   0  0  0  0  0  0  0  0  0  0  0  0
  1  2  1  0
  2  3  2  0
  3  4  1  0
  4  5  1  0
  4  6  2  0
  6  7  1  0
  7  8  3  0
  6  9  1  0
  9 10  1  0
 10 11  1  0
 11 12  1  0
 12 13  1  0
 13 14  2  0
 13 15  1  0
 15 16  1  0
 16 17  1  0
 17 18  2  0
 18 19  1  0
 19 20  1  0
  9 21  2  0
 21  2  1  0
 20 16  2  0
M  END
>  <Binding energies>  (7) 
[-6.72]

>  <Ligand effiencies>  (7) 
[-0.3054545454545454]

>  <Interactions>  (7) 
["H-A:TYR:531:OH:4795, V-A:LEU:363:CD1:3189, V-A:TYR:531:CE2:4793, V-A:MET:535:CG:4833, H-A:TYR:539:N:4870, V-A:TYR:539:CZ:4877, V-A:PRO:540:CD:4887, V-A:MET:535:CB:4832, V-A:PRO:540:CB:4885, V-A:TYR:539:CE1:4875, V-A:PRO:540:CA:4883, V-A:TYR:539:CE2:4876, H-A:ALA:541:N:4891, V-A:TYR:539:CD2:4874, V-A:PRO:540:C:4881, V-A:TYR:531:CZ:4794, V-B:MET:535:CE:9807"]

$$$$
2a_Ghoteimi_2023
     RDKit          3D

 48 53  0  0  0  0  0  0  0  0999 V2000
  126.5950  124.3120   54.2890 C   0  0  0  0  0  0  0  0  0  0  0  0
  127.4710  123.1050   54.6390 C   0  0  0  0  0  0  0  0  0  0  0  0
  126.7210  122.1930   55.4300 O   0  0  0  0  0  0  0  0  0  0  0  0
  125.7660  122.6300   56.2910 C   0  0  0  0  0  0  0  0  0  0  0  0
  124.5840  122.7900   55.9710 O   0  0  0  0  0  0  0  0  0  0  0  0
  126.2890  122.8930   57.6740 C   0  0  0  0  0  0  0  0  0  0  0  0
  125.5540  123.6220   58.6200 C   0  0  0  0  0  0  0  0  0  0  0  0
  126.0680  123.8460   59.8930 C   0  0  0  0  0  0  0  0  0  0  0  0
  127.3210  123.3450   60.2510 C   0  0  0  0  0  0  0  0  0  0  0  0
  127.7450  123.6350   61.5620 N   0  0  0  0  0  0  0  0  0  0  0  0
  128.9370  123.4120   62.1560 C   0  0  0  0  0  0  0  0  0  0  0  0
  129.8940  122.8410   61.6310 O   0  0  0  0  0  0  0  0  0  0  0  0
  129.0420  123.8900   63.6090 C   0  0  0  0  0  0  0  0  0  0  0  0
  130.2780  125.1990   63.8860 S   0  0  0  0  0  0  0  0  0  0  0  0
  129.4000  126.5320   64.6680 C   0  0  0  0  0  0  0  0  0  0  0  0
  129.3570  126.4420   66.0180 N   0  0  0  0  0  0  0  0  0  0  0  0
  128.7060  127.3960   66.7300 C   0  0  0  0  0  0  0  0  0  0  0  0
  128.6920  127.2270   68.2150 C   0  0  0  0  0  0  0  0  0  0  0  0
  129.3810  128.1120   69.0530 C   0  0  0  0  0  0  0  0  0  0  0  0
  129.3740  127.9430   70.4340 C   0  0  0  0  0  0  0  0  0  0  0  0
  128.6710  126.8860   71.0320 C   0  0  0  0  0  0  0  0  0  0  0  0
  128.6980  126.7110   72.4190 N   0  0  0  0  0  0  0  0  0  0  0  0
  129.6720  125.8070   73.0630 C   0  0  0  0  0  0  0  0  0  0  0  0
  129.7990  126.0100   74.5870 C   0  0  0  0  0  0  0  0  0  0  0  0
  128.5240  125.9020   75.2000 O   0  0  0  0  0  0  0  0  0  0  0  0
  127.6270  126.8840   74.7050 C   0  0  0  0  0  0  0  0  0  0  0  0
  127.4330  126.7080   73.1840 C   0  0  0  0  0  0  0  0  0  0  0  0
  127.9930  125.9940   70.1860 C   0  0  0  0  0  0  0  0  0  0  0  0
  127.9980  126.1650   68.8050 C   0  0  0  0  0  0  0  0  0  0  0  0
  128.0910  128.4780   66.0940 C   0  0  0  0  0  0  0  0  0  0  0  0
  128.1220  128.5920   64.6970 C   0  0  0  0  0  0  0  0  0  0  0  0
  127.4380  129.7700   64.0830 C   0  0  0  0  0  0  0  0  0  0  0  0
  126.1040  129.6770   63.6800 C   0  0  0  0  0  0  0  0  0  0  0  0
  125.4640  130.7620   63.0890 C   0  0  0  0  0  0  0  0  0  0  0  0
  126.1390  131.9750   62.8850 C   0  0  0  0  0  0  0  0  0  0  0  0
  125.5200  133.0710   62.2760 N   0  0  0  0  0  0  0  0  0  0  0  0
  124.0780  133.0080   61.9670 C   0  0  0  0  0  0  0  0  0  0  0  0
  123.4570  134.3900   61.6710 C   0  0  0  0  0  0  0  0  0  0  0  0
  124.1690  135.0280   60.6230 O   0  0  0  0  0  0  0  0  0  0  0  0
  125.5340  135.2240   60.9590 C   0  0  0  0  0  0  0  0  0  0  0  0
  126.2090  133.8660   61.2410 C   0  0  0  0  0  0  0  0  0  0  0  0
  127.4820  132.0570   63.2810 C   0  0  0  0  0  0  0  0  0  0  0  0
  128.1220  130.9710   63.8710 C   0  0  0  0  0  0  0  0  0  0  0  0
  128.8010  127.5950   63.9560 C   0  0  0  0  0  0  0  0  0  0  0  0
  128.9160  127.6890   62.4970 C   0  0  0  0  0  0  0  0  0  0  0  0
  129.0040  127.7660   61.3450 N   0  0  0  0  0  0  0  0  0  0  0  0
  128.0660  122.6220   59.3070 C   0  0  0  0  0  0  0  0  0  0  0  0
  127.5500  122.3970   58.0330 C   0  0  0  0  0  0  0  0  0  0  0  0
  1  2  1  0
  2  3  1  0
  3  4  1  0
  4  5  2  0
  4  6  1  0
  6  7  2  0
  7  8  1  0
  8  9  2  0
  9 10  1  0
 10 11  1  0
 11 12  2  0
 11 13  1  0
 13 14  1  0
 14 15  1  0
 15 16  2  0
 16 17  1  0
 17 18  1  0
 18 19  2  0
 19 20  1  0
 20 21  2  0
 21 22  1  0
 22 23  1  0
 23 24  1  0
 24 25  1  0
 25 26  1  0
 26 27  1  0
 21 28  1  0
 28 29  2  0
 17 30  2  0
 30 31  1  0
 31 32  1  0
 32 33  2  0
 33 34  1  0
 34 35  2  0
 35 36  1  0
 36 37  1  0
 37 38  1  0
 38 39  1  0
 39 40  1  0
 40 41  1  0
 35 42  1  0
 42 43  2  0
 31 44  2  0
 44 45  1  0
 45 46  3  0
  9 47  1  0
 47 48  2  0
 48  6  1  0
 44 15  1  0
 29 18  1  0
 43 32  1  0
 27 22  1  0
 41 36  1  0
M  END
>  <Binding energies>  (8) 
[-11.69]

>  <Ligand effiencies>  (8) 
[-0.23857142857142857]

>  <Interactions>  (8) 
["V-A:HIS:456:CE1:4069, V-A:HIS:456:CD2:4068, H-B:LYS:547:NZ:9923, V-B:GLU:543:CB:9878, V-B:HIS:456:CE1:9040, V-B:GLU:543:C:9874, V-B:LYS:547:CD:9921, H-B:GLU:543:OE1:9881, V-B:GLU:543:CD:9880, V-A:GLU:543:CD:4908, V-B:TYR:539:CE2:9848, V-B:TYR:539:C:9839, V-B:PRO:540:N:9856, V-B:ILE:538:CA:9832, V-B:PRO:540:CA:9855, V-B:PRO:540:CD:9859, V-B:LEU:363:CD1:8160, V-B:TYR:539:CD1:9845, V-B:ILE:538:CB:9834, V-B:TYR:539:CZ:9849, H-B:TYR:539:N:9842, V-B:PRO:540:CB:9857, V-B:TYR:539:CE1:9847, V-B:ILE:538:CG2:9835, V-B:TYR:539:CD2:9846, V-B:GLU:543:CG:9879, V-B:TYR:539:CG:9844, V-B:ALA:541:CB:9864, V-B:LEU:475:CD1:9229, V-A:TYR:539:CE2:4876, V-A:ALA:541:CB:4892, V-A:TYR:539:CD2:4874, V-B:ILE:369:CG2:8208, V-B:TRP:381:CZ2:8341, V-B:TRP:381:CH2:8343, H-B:GLU:543:OE2:9882, V-B:ILE:369:CD1:8210, V-B:MET:535:CG:9805, V-B:GLY:544:C:9884"]

$$$$
2aa_Ghoteimi_2023
     RDKit          3D

 48 53  0  0  0  0  0  0  0  0999 V2000
  127.8680  131.3940   53.2190 C   0  0  0  0  0  0  0  0  0  0  0  0
  126.7190  130.3900   53.3580 C   0  0  0  0  0  0  0  0  0  0  0  0
  126.2300  130.4160   54.6930 O   0  0  0  0  0  0  0  0  0  0  0  0
  127.0000  130.0030   55.7320 C   0  0  0  0  0  0  0  0  0  0  0  0
  128.1130  129.4830   55.5900 O   0  0  0  0  0  0  0  0  0  0  0  0
  126.3730  130.2530   57.0730 C   0  0  0  0  0  0  0  0  0  0  0  0
  127.0480  130.9450   58.0890 C   0  0  0  0  0  0  0  0  0  0  0  0
  126.4380  131.1660   59.3200 C   0  0  0  0  0  0  0  0  0  0  0  0
  125.1470  130.6940   59.5640 C   0  0  0  0  0  0  0  0  0  0  0  0
  124.6240  130.9760   60.8420 N   0  0  0  0  0  0  0  0  0  0  0  0
  124.2720  132.1580   61.3910 C   0  0  0  0  0  0  0  0  0  0  0  0
  124.3270  133.2490   60.8200 O   0  0  0  0  0  0  0  0  0  0  0  0
  123.7500  132.0630   62.8310 C   0  0  0  0  0  0  0  0  0  0  0  0
  123.9940  130.7500   63.3460 O   0  0  0  0  0  0  0  0  0  0  0  0
  125.2910  130.3430   63.6290 C   0  0  0  0  0  0  0  0  0  0  0  0
  126.2450  130.5330   62.6750 N   0  0  0  0  0  0  0  0  0  0  0  0
  127.5230  130.1500   62.9210 C   0  0  0  0  0  0  0  0  0  0  0  0
  128.5150  130.3860   61.8260 C   0  0  0  0  0  0  0  0  0  0  0  0
  129.0530  129.3140   61.1070 C   0  0  0  0  0  0  0  0  0  0  0  0
  129.9720  129.5280   60.0830 C   0  0  0  0  0  0  0  0  0  0  0  0
  130.3760  130.8250   59.7300 C   0  0  0  0  0  0  0  0  0  0  0  0
  131.3070  131.0580   58.7110 N   0  0  0  0  0  0  0  0  0  0  0  0
  132.3900  130.0940   58.4230 C   0  0  0  0  0  0  0  0  0  0  0  0
  133.5120  130.6660   57.5320 C   0  0  0  0  0  0  0  0  0  0  0  0
  132.9620  131.1850   56.3320 O   0  0  0  0  0  0  0  0  0  0  0  0
  132.0390  132.2310   56.5930 C   0  0  0  0  0  0  0  0  0  0  0  0
  130.8730  131.7050   57.4560 C   0  0  0  0  0  0  0  0  0  0  0  0
  129.8490  131.8950   60.4680 C   0  0  0  0  0  0  0  0  0  0  0  0
  128.9340  131.6800   61.4940 C   0  0  0  0  0  0  0  0  0  0  0  0
  127.8760  129.5470   64.1320 C   0  0  0  0  0  0  0  0  0  0  0  0
  126.9130  129.3300   65.1250 C   0  0  0  0  0  0  0  0  0  0  0  0
  127.3450  128.6580   66.3880 C   0  0  0  0  0  0  0  0  0  0  0  0
  128.5730  128.9770   66.9720 C   0  0  0  0  0  0  0  0  0  0  0  0
  128.9910  128.3400   68.1380 C   0  0  0  0  0  0  0  0  0  0  0  0
  128.1980  127.3550   68.7460 C   0  0  0  0  0  0  0  0  0  0  0  0
  128.5950  126.7050   69.9180 N   0  0  0  0  0  0  0  0  0  0  0  0
  129.2230  125.3710   69.8820 C   0  0  0  0  0  0  0  0  0  0  0  0
  129.9060  124.9770   71.2100 C   0  0  0  0  0  0  0  0  0  0  0  0
  128.9770  125.0710   72.2790 O   0  0  0  0  0  0  0  0  0  0  0  0
  128.4730  126.3900   72.4190 C   0  0  0  0  0  0  0  0  0  0  0  0
  127.7510  126.8200   71.1250 C   0  0  0  0  0  0  0  0  0  0  0  0
  126.9640  127.0470   68.1570 C   0  0  0  0  0  0  0  0  0  0  0  0
  126.5460  127.6830   66.9920 C   0  0  0  0  0  0  0  0  0  0  0  0
  125.5870  129.7520   64.8710 C   0  0  0  0  0  0  0  0  0  0  0  0
  124.5250  129.6110   65.8700 C   0  0  0  0  0  0  0  0  0  0  0  0
  123.6860  129.5000   66.6590 N   0  0  0  0  0  0  0  0  0  0  0  0
  124.4620  130.0080   58.5510 C   0  0  0  0  0  0  0  0  0  0  0  0
  125.0730  129.7920   57.3190 C   0  0  0  0  0  0  0  0  0  0  0  0
  1  2  1  0
  2  3  1  0
  3  4  1  0
  4  5  2  0
  4  6  1  0
  6  7  2  0
  7  8  1  0
  8  9  2  0
  9 10  1  0
 10 11  1  0
 11 12  2  0
 11 13  1  0
 13 14  1  0
 14 15  1  0
 15 16  2  0
 16 17  1  0
 17 18  1  0
 18 19  2  0
 19 20  1  0
 20 21  2  0
 21 22  1  0
 22 23  1  0
 23 24  1  0
 24 25  1  0
 25 26  1  0
 26 27  1  0
 21 28  1  0
 28 29  2  0
 17 30  2  0
 30 31  1  0
 31 32  1  0
 32 33  2  0
 33 34  1  0
 34 35  2  0
 35 36  1  0
 36 37  1  0
 37 38  1  0
 38 39  1  0
 39 40  1  0
 40 41  1  0
 35 42  1  0
 42 43  2  0
 31 44  2  0
 44 45  1  0
 45 46  3  0
  9 47  1  0
 47 48  2  0
 48  6  1  0
 44 15  1  0
 29 18  1  0
 43 32  1  0
 27 22  1  0
 41 36  1  0
M  END
>  <Binding energies>  (9) 
[-11.06]

>  <Ligand effiencies>  (9) 
[-0.22571428571428573]

>  <Interactions>  (9) 
["V-A:HIS:456:CE1:4069, V-A:HIS:456:CD2:4068, V-B:ARG:545:CZ:9898, H-B:GLY:454:N:9021, H-B:LYS:547:NZ:9923, V-B:GLU:543:CB:9878, V-B:HIS:456:CE1:9040, V-A:HIS:456:CG:4066, H-B:ARG:545:NH2:9900, V-B:GLU:543:C:9874, V-B:ARG:545:CG:9894, V-B:GLY:454:CA:9020, V-B:ARG:545:CD:9895, V-A:GLU:543:CD:4908, V-A:GLU:543:CB:4906, V-A:ASP:366:CG:3213, V-A:GLU:543:CG:4907, H-B:TYR:484:OH:9319, V-A:ASP:366:CB:3212, H-B:ILE:455:N:9026, H-A:TYR:531:OH:4795, H-B:TYR:531:OH:9767, V-A:LEU:363:CD1:3189, V-A:TYR:539:CZ:4877, V-A:PRO:540:CD:4887, V-A:LEU:363:CA:3185, V-A:PRO:540:CB:4885, V-A:PRO:540:N:4884, V-A:TYR:539:CE1:4875, V-A:PRO:540:CA:4883, H-B:ARG:545:NE:9896, V-B:LEU:475:CD1:9229, V-A:TYR:539:CE2:4876, V-B:ASP:366:CG:8184, H-A:TYR:539:OH:4878, V-B:ASP:366:CB:8183, V-A:LEU:363:CB:3187, V-B:ASP:366:CA:8181, V-B:ILE:369:CD1:8210, V-A:PRO:540:CG:4886, V-B:TYR:531:CE1:9764, V-B:TYR:531:CZ:9766, V-B:MET:535:CE:9807, H-B:ASP:366:OD1:8185, H-B:ASP:366:OD2:8186, V-B:GLY:544:C:9884"]

$$$$
2b_Ghoteimi_2023
     RDKit          3D

 42 47  0  0  0  0  0  0  0  0999 V2000
  130.0870  124.3620   68.0520 N   0  0  0  0  0  0  0  0  0  0  0  0
  129.7480  125.2760   67.4280 C   0  0  0  0  0  0  0  0  0  0  0  0
  129.3190  126.4290   66.6320 C   0  0  0  0  0  0  0  0  0  0  0  0
  129.2340  126.3380   65.2200 C   0  0  0  0  0  0  0  0  0  0  0  0
  129.5590  125.1030   64.4460 C   0  0  0  0  0  0  0  0  0  0  0  0
  129.3930  123.8450   65.0270 C   0  0  0  0  0  0  0  0  0  0  0  0
  129.6960  122.6900   64.3100 C   0  0  0  0  0  0  0  0  0  0  0  0
  130.1910  122.7640   62.9980 C   0  0  0  0  0  0  0  0  0  0  0  0
  130.4890  121.6210   62.2550 N   0  0  0  0  0  0  0  0  0  0  0  0
  129.4570  121.0510   61.3670 C   0  0  0  0  0  0  0  0  0  0  0  0
  129.7710  119.6100   60.9100 C   0  0  0  0  0  0  0  0  0  0  0  0
  131.0530  119.5590   60.3030 O   0  0  0  0  0  0  0  0  0  0  0  0
  132.0750  119.9680   61.1990 C   0  0  0  0  0  0  0  0  0  0  0  0
  131.8230  121.4200   61.6540 C   0  0  0  0  0  0  0  0  0  0  0  0
  130.3570  124.0330   62.4260 C   0  0  0  0  0  0  0  0  0  0  0  0
  130.0500  125.1870   63.1400 C   0  0  0  0  0  0  0  0  0  0  0  0
  128.8140  127.4650   64.5030 C   0  0  0  0  0  0  0  0  0  0  0  0
  128.4590  128.6390   65.1740 C   0  0  0  0  0  0  0  0  0  0  0  0
  127.9760  129.8600   64.4570 C   0  0  0  0  0  0  0  0  0  0  0  0
  128.2240  131.1360   64.9750 C   0  0  0  0  0  0  0  0  0  0  0  0
  127.7910  132.2780   64.3050 C   0  0  0  0  0  0  0  0  0  0  0  0
  127.0820  132.1850   63.0970 C   0  0  0  0  0  0  0  0  0  0  0  0
  126.6680  133.3240   62.3970 N   0  0  0  0  0  0  0  0  0  0  0  0
  127.6630  134.1590   61.6940 C   0  0  0  0  0  0  0  0  0  0  0  0
  127.1360  135.5590   61.3100 C   0  0  0  0  0  0  0  0  0  0  0  0
  125.9450  135.4360   60.5480 O   0  0  0  0  0  0  0  0  0  0  0  0
  124.9250  134.7770   61.2800 C   0  0  0  0  0  0  0  0  0  0  0  0
  125.3850  133.3560   61.6670 C   0  0  0  0  0  0  0  0  0  0  0  0
  126.8420  130.9050   62.5780 C   0  0  0  0  0  0  0  0  0  0  0  0
  127.2780  129.7640   63.2470 C   0  0  0  0  0  0  0  0  0  0  0  0
  128.5400  128.7240   66.5260 N   0  0  0  0  0  0  0  0  0  0  0  0
  128.9750  127.6580   67.2390 C   0  0  0  0  0  0  0  0  0  0  0  0
  129.0240  127.9470   68.9940 S   0  0  0  0  0  0  0  0  0  0  0  0
  127.8700  126.7790   69.7750 C   0  0  0  0  0  0  0  0  0  0  0  0
  128.5350  125.9720   70.8910 C   0  0  0  0  0  0  0  0  0  0  0  0
  128.6540  126.4750   72.0100 O   0  0  0  0  0  0  0  0  0  0  0  0
  128.9560  124.7370   70.5440 N   0  0  0  0  0  0  0  0  0  0  0  0
  129.5760  123.7990   71.3580 C   0  0  0  0  0  0  0  0  0  0  0  0
  130.7390  124.0690   72.0790 C   0  0  0  0  0  0  0  0  0  0  0  0
  131.0250  122.9010   72.7460 C   0  0  0  0  0  0  0  0  0  0  0  0
  130.0840  121.9760   72.4430 O   0  0  0  0  0  0  0  0  0  0  0  0
  129.1690  122.5580   71.5630 N   0  0  0  0  0  0  0  0  0  0  0  0
  1  2  3  0
  2  3  1  0
  3  4  2  0
  4  5  1  0
  5  6  2  0
  6  7  1  0
  7  8  2  0
  8  9  1  0
  9 10  1  0
 10 11  1  0
 11 12  1  0
 12 13  1  0
 13 14  1  0
  8 15  1  0
 15 16  2  0
  4 17  1  0
 17 18  2  0
 18 19  1  0
 19 20  2  0
 20 21  1  0
 21 22  2  0
 22 23  1  0
 23 24  1  0
 24 25  1  0
 25 26  1  0
 26 27  1  0
 27 28  1  0
 22 29  1  0
 29 30  2  0
 18 31  1  0
 31 32  2  0
 32 33  1  0
 33 34  1  0
 34 35  1  0
 35 36  2  0
 35 37  1  0
 37 38  1  0
 38 39  1  0
 39 40  2  0
 40 41  1  0
 41 42  1  0
 32  3  1  0
 42 38  2  0
 16  5  1  0
 30 19  1  0
 14  9  1  0
 28 23  1  0
M  END
>  <Binding energies>  (10) 
[-11.29]

>  <Ligand effiencies>  (10) 
[-0.2625581395348837]

>  <Interactions>  (10) 
["V-A:HIS:456:CE1:4069, V-A:HIS:456:CD2:4068, V-A:TYR:484:CZ:4347, H-B:LYS:547:NZ:9923, V-B:GLU:543:CB:9878, V-B:HIS:456:CE1:9040, V-A:HIS:456:CG:4066, V-B:GLU:543:C:9874, V-A:TYR:484:CD2:4344, H-A:TYR:484:OH:4348, H-B:HIS:456:NE2:9041, H-B:GLU:543:O:9875, V-A:TYR:484:CE1:4345, V-A:TYR:484:CG:4342, V-B:GLU:543:CD:9880, V-A:GLU:543:CD:4908, V-A:HIS:456:CB:4065, V-A:GLU:543:CB:4906, V-B:TYR:539:CD2:9846, V-B:GLU:543:CG:9879, V-A:TRP:381:CH2:3372, V-A:LEU:475:CD1:4258, V-B:ALA:541:CB:9864, V-B:LEU:475:CD1:9229, V-B:PRO:482:CG:9298, V-A:TYR:539:CE2:4876, V-A:ALA:541:CB:4892, V-A:TYR:539:CD2:4874, V-B:TRP:381:CZ2:8341, V-B:TRP:381:CH2:8343, V-B:PRO:482:CB:9297, V-B:GLU:543:CA:9876, V-A:PRO:482:CG:4327, V-A:PRO:482:CB:4326, V-B:ALA:541:CA:9862, H-A:HIS:456:NE2:4070, V-B:TYR:484:CE1:9316"]

$$$$
2c_Ghoteimi_2023
     RDKit          3D

 42 47  0  0  0  0  0  0  0  0999 V2000
  130.0120  122.2140   64.2420 N   0  0  0  0  0  0  0  0  0  0  0  0
  130.0980  123.1280   63.5390 C   0  0  0  0  0  0  0  0  0  0  0  0
  130.2070  124.2920   62.6530 C   0  0  0  0  0  0  0  0  0  0  0  0
  130.0640  125.6050   63.1650 C   0  0  0  0  0  0  0  0  0  0  0  0
  129.7950  125.9130   64.6020 C   0  0  0  0  0  0  0  0  0  0  0  0
  128.8410  126.8710   64.9490 C   0  0  0  0  0  0  0  0  0  0  0  0
  128.5820  127.1600   66.2860 C   0  0  0  0  0  0  0  0  0  0  0  0
  129.2800  126.5080   67.3140 C   0  0  0  0  0  0  0  0  0  0  0  0
  129.0220  126.7680   68.6630 N   0  0  0  0  0  0  0  0  0  0  0  0
  129.3920  128.0800   69.2290 C   0  0  0  0  0  0  0  0  0  0  0  0
  129.4150  128.0930   70.7730 C   0  0  0  0  0  0  0  0  0  0  0  0
  128.1630  127.6570   71.2810 O   0  0  0  0  0  0  0  0  0  0  0  0
  127.8570  126.3370   70.8590 C   0  0  0  0  0  0  0  0  0  0  0  0
  127.7950  126.2770   69.3190 C   0  0  0  0  0  0  0  0  0  0  0  0
  130.2400  125.5500   66.9560 C   0  0  0  0  0  0  0  0  0  0  0  0
  130.4970  125.2600   65.6190 C   0  0  0  0  0  0  0  0  0  0  0  0
  130.1800  126.6830   62.2780 C   0  0  0  0  0  0  0  0  0  0  0  0
  130.4570  126.4610   60.9260 C   0  0  0  0  0  0  0  0  0  0  0  0
  130.6070  127.5780   59.9430 C   0  0  0  0  0  0  0  0  0  0  0  0
  130.8540  127.3120   58.5930 C   0  0  0  0  0  0  0  0  0  0  0  0
  130.9900  128.3480   57.6710 C   0  0  0  0  0  0  0  0  0  0  0  0
  130.8940  129.6910   58.0700 C   0  0  0  0  0  0  0  0  0  0  0  0
  131.0020  130.7420   57.1540 N   0  0  0  0  0  0  0  0  0  0  0  0
  129.9210  131.7430   57.0510 C   0  0  0  0  0  0  0  0  0  0  0  0
  129.9860  132.5960   55.7670 C   0  0  0  0  0  0  0  0  0  0  0  0
  131.2580  133.2150   55.6590 O   0  0  0  0  0  0  0  0  0  0  0  0
  132.2990  132.2540   55.5920 C   0  0  0  0  0  0  0  0  0  0  0  0
  132.3010  131.3860   56.8680 C   0  0  0  0  0  0  0  0  0  0  0  0
  130.6330  129.9520   59.4230 C   0  0  0  0  0  0  0  0  0  0  0  0
  130.4960  128.9150   60.3430 C   0  0  0  0  0  0  0  0  0  0  0  0
  130.5960  125.2020   60.4380 N   0  0  0  0  0  0  0  0  0  0  0  0
  130.4570  124.1420   61.2690 C   0  0  0  0  0  0  0  0  0  0  0  0
  130.6590  122.5710   60.4600 S   0  0  0  0  0  0  0  0  0  0  0  0
  129.1550  121.5980   60.7740 C   0  0  0  0  0  0  0  0  0  0  0  0
  127.9360  122.1790   60.0560 C   0  0  0  0  0  0  0  0  0  0  0  0
  126.9710  122.5640   60.7190 O   0  0  0  0  0  0  0  0  0  0  0  0
  128.0180  122.2180   58.7090 N   0  0  0  0  0  0  0  0  0  0  0  0
  127.0600  122.7100   57.8340 C   0  0  0  0  0  0  0  0  0  0  0  0
  126.5700  122.1260   56.7620 N   0  0  0  0  0  0  0  0  0  0  0  0
  125.6680  122.8820   56.1680 C   0  0  0  0  0  0  0  0  0  0  0  0
  125.4100  124.1140   56.7620 C   0  0  0  0  0  0  0  0  0  0  0  0
  126.4080  124.2800   58.1750 S   0  0  0  0  0  0  0  0  0  0  0  0
  1  2  3  0
  2  3  1  0
  3  4  2  0
  4  5  1  0
  5  6  2  0
  6  7  1  0
  7  8  2  0
  8  9  1  0
  9 10  1  0
 10 11  1  0
 11 12  1  0
 12 13  1  0
 13 14  1  0
  8 15  1  0
 15 16  2  0
  4 17  1  0
 17 18  2  0
 18 19  1  0
 19 20  2  0
 20 21  1  0
 21 22  2  0
 22 23  1  0
 23 24  1  0
 24 25  1  0
 25 26  1  0
 26 27  1  0
 27 28  1  0
 22 29  1  0
 29 30  2  0
 18 31  1  0
 31 32  2  0
 32 33  1  0
 33 34  1  0
 34 35  1  0
 35 36  2  0
 35 37  1  0
 37 38  1  0
 38 39  2  0
 39 40  1  0
 40 41  2  0
 41 42  1  0
 32  3  1  0
 42 38  1  0
 16  5  1  0
 30 19  1  0
 14  9  1  0
 28 23  1  0
M  END
>  <Binding energies>  (11) 
[-10.75]

>  <Ligand effiencies>  (11) 
[-0.25]

>  <Interactions>  (11) 
["V-A:HIS:456:CE1:4069, V-A:HIS:456:CD2:4068, V-B:HIS:456:CE1:9040, V-B:GLU:543:C:9874, H-B:HIS:456:NE2:9041, V-B:GLU:543:CD:9880, V-A:GLU:543:CD:4908, V-B:HIS:456:CD2:9039, V-B:TYR:539:CE2:9848, V-B:TYR:539:C:9839, V-B:PRO:540:N:9856, V-B:PRO:540:C:9853, V-B:PRO:540:CA:9855, H-B:ALA:541:N:9863, V-B:PRO:540:CD:9859, V-B:LEU:363:CD1:8160, V-B:ILE:538:CB:9834, H-B:TYR:539:N:9842, V-B:ILE:538:CG2:9835, V-B:TYR:539:CD2:9846, V-A:ILE:538:CG2:4863, V-A:ILE:538:CD1:4865, V-A:LEU:363:CD1:3189, V-A:TYR:531:CE2:4793, H-A:TYR:539:N:4870, V-A:PRO:540:CD:4887, V-A:TYR:539:C:4867, V-A:PRO:540:CB:4885, V-A:TYR:539:CE1:4875, V-A:TYR:539:CD1:4873, V-B:TYR:539:CG:9844, V-B:ALA:541:CB:9864, H-B:TYR:539:O:9840, V-B:GLY:544:C:9884"]

$$$$
2j_Grossjean_2025
     RDKit          3D

 23 24  0  0  0  0  0  0  0  0999 V2000
  133.1240  131.1970   62.1090 C   0  0  0  0  0  0  0  0  0  0  0  0
  132.1150  131.2770   60.9780 C   0  0  0  0  0  0  0  0  0  0  0  0
  130.8400  131.8000   61.1740 C   0  0  0  0  0  0  0  0  0  0  0  0
  129.9440  131.8560   60.0960 C   0  0  0  0  0  0  0  0  0  0  0  0
  128.5370  132.4390   60.3300 C   0  0  0  0  0  0  0  0  0  0  0  0
  128.2670  133.3630   59.4060 F   0  0  0  0  0  0  0  0  0  0  0  0
  127.6220  131.4710   60.2540 F   0  0  0  0  0  0  0  0  0  0  0  0
  128.4110  133.0180   61.5260 F   0  0  0  0  0  0  0  0  0  0  0  0
  130.3710  131.3710   58.8350 C   0  0  0  0  0  0  0  0  0  0  0  0
  129.4770  131.4030   57.6740 C   0  0  0  0  0  0  0  0  0  0  0  0
  128.7700  131.4300   56.7570 N   0  0  0  0  0  0  0  0  0  0  0  0
  131.6850  130.8540   58.7260 C   0  0  0  0  0  0  0  0  0  0  0  0
  132.3310  130.2180   57.1860 S   0  0  0  0  0  0  0  0  0  0  0  0
  132.6180  131.6250   56.0590 C   0  0  0  0  0  0  0  0  0  0  0  0
  131.4210  131.9960   55.1710 C   0  0  0  0  0  0  0  0  0  0  0  0
  131.0300  133.1620   55.0970 O   0  0  0  0  0  0  0  0  0  0  0  0
  130.8570  130.9550   54.5170 N   0  0  0  0  0  0  0  0  0  0  0  0
  129.7710  131.0090   53.6540 C   0  0  0  0  0  0  0  0  0  0  0  0
  129.5650  131.8540   52.6670 N   0  0  0  0  0  0  0  0  0  0  0  0
  128.4240  131.6120   52.0510 C   0  0  0  0  0  0  0  0  0  0  0  0
  127.6740  130.5460   52.5400 C   0  0  0  0  0  0  0  0  0  0  0  0
  128.5190  129.8290   53.8800 S   0  0  0  0  0  0  0  0  0  0  0  0
  132.5380  130.8120   59.7810 N   0  0  0  0  0  0  0  0  0  0  0  0
  1  2  1  0
  2  3  2  0
  3  4  1  0
  4  5  1  0
  5  6  1  0
  5  7  1  0
  5  8  1  0
  4  9  2  0
  9 10  1  0
 10 11  3  0
  9 12  1  0
 12 13  1  0
 13 14  1  0
 14 15  1  0
 15 16  2  0
 15 17  1  0
 17 18  1  0
 18 19  2  0
 19 20  1  0
 20 21  2  0
 21 22  1  0
 12 23  2  0
 23  2  1  0
 22 18  1  0
M  END
>  <Binding energies>  (12) 
[-6.76]

>  <Ligand effiencies>  (12) 
[-0.2816666666666667]

>  <Interactions>  (12) 
["V-A:GLU:543:CD:4908, V-A:ILE:538:CD1:4865, H-A:TYR:531:OH:4795, V-A:LEU:363:CD1:3189, V-A:TYR:531:CE2:4793, H-A:TYR:539:N:4870, V-A:TYR:539:C:4867, V-A:MET:535:CB:4832, V-A:TYR:539:CG:4872, V-A:PRO:540:CB:4885, V-A:PRO:540:N:4884, V-A:PRO:540:CA:4883, V-A:TYR:539:CE2:4876, V-A:ALA:541:CB:4892, V-A:TYR:539:CD2:4874, V-A:ASN:362:CB:3176, V-A:ASN:362:CG:3177, V-A:PRO:540:C:4881, V-A:TYR:531:CZ:4794, V-B:MET:535:CE:9807"]

$$$$
3ab_Grossjean_2025
     RDKit          3D

 33 35  0  0  0  0  0  0  0  0999 V2000
  131.5510  132.2440   56.8540 C   0  0  0  0  0  0  0  0  0  0  0  0
  130.3510  132.8560   56.4020 O   0  0  0  0  0  0  0  0  0  0  0  0
  129.8310  132.5590   55.1840 C   0  0  0  0  0  0  0  0  0  0  0  0
  129.7550  133.3720   54.2580 O   0  0  0  0  0  0  0  0  0  0  0  0
  129.3580  131.1380   55.0720 C   0  0  0  0  0  0  0  0  0  0  0  0
  128.7630  130.4650   56.1500 C   0  0  0  0  0  0  0  0  0  0  0  0
  128.3330  129.1480   56.0170 C   0  0  0  0  0  0  0  0  0  0  0  0
  128.4930  128.4760   54.7950 C   0  0  0  0  0  0  0  0  0  0  0  0
  128.0910  127.1500   54.5470 N   0  0  0  0  0  0  0  0  0  0  0  0
  128.8350  126.0470   54.3210 C   0  0  0  0  0  0  0  0  0  0  0  0
  130.0650  126.0100   54.2780 O   0  0  0  0  0  0  0  0  0  0  0  0
  128.0440  124.7550   54.1030 C   0  0  0  0  0  0  0  0  0  0  0  0
  126.2940  124.9390   54.5590 S   0  0  0  0  0  0  0  0  0  0  0  0
  126.2270  125.2340   56.3130 C   0  0  0  0  0  0  0  0  0  0  0  0
  125.9560  126.5200   56.6360 N   0  0  0  0  0  0  0  0  0  0  0  0
  125.8690  126.8870   57.9410 C   0  0  0  0  0  0  0  0  0  0  0  0
  125.5620  128.3290   58.2140 C   0  0  0  0  0  0  0  0  0  0  0  0
  124.6510  129.0340   57.4120 C   0  0  0  0  0  0  0  0  0  0  0  0
  124.3610  130.3730   57.6610 C   0  0  0  0  0  0  0  0  0  0  0  0
  124.9830  131.0290   58.7190 C   0  0  0  0  0  0  0  0  0  0  0  0
  125.8930  130.3550   59.5260 C   0  0  0  0  0  0  0  0  0  0  0  0
  126.1790  129.0160   59.2740 C   0  0  0  0  0  0  0  0  0  0  0  0
  126.0790  125.9530   58.9620 C   0  0  0  0  0  0  0  0  0  0  0  0
  126.3810  124.6190   58.6530 C   0  0  0  0  0  0  0  0  0  0  0  0
  126.6110  123.6230   59.8070 C   0  0  0  0  0  0  0  0  0  0  0  0
  127.4690  122.6520   59.4890 F   0  0  0  0  0  0  0  0  0  0  0  0
  127.1040  124.2580   60.8710 F   0  0  0  0  0  0  0  0  0  0  0  0
  125.4570  123.0450   60.1460 F   0  0  0  0  0  0  0  0  0  0  0  0
  126.4680  124.2410   57.2900 C   0  0  0  0  0  0  0  0  0  0  0  0
  126.8360  122.8740   56.9120 C   0  0  0  0  0  0  0  0  0  0  0  0
  127.1270  121.7940   56.6180 N   0  0  0  0  0  0  0  0  0  0  0  0
  129.0790  129.1440   53.7190 C   0  0  0  0  0  0  0  0  0  0  0  0
  129.5090  130.4600   53.8550 C   0  0  0  0  0  0  0  0  0  0  0  0
  1  2  1  0
  2  3  1  0
  3  4  2  0
  3  5  1  0
  5  6  2  0
  6  7  1  0
  7  8  2  0
  8  9  1  0
  9 10  1  0
 10 11  2  0
 10 12  1  0
 12 13  1  0
 13 14  1  0
 14 15  2  0
 15 16  1  0
 16 17  1  0
 17 18  2  0
 18 19  1  0
 19 20  2  0
 20 21  1  0
 21 22  2  0
 16 23  2  0
 23 24  1  0
 24 25  1  0
 25 26  1  0
 25 27  1  0
 25 28  1  0
 24 29  2  0
 29 30  1  0
 30 31  3  0
  8 32  1  0
 32 33  2  0
 33  5  1  0
 29 14  1  0
 22 17  1  0
M  END
>  <Binding energies>  (13) 
[-8.14]

>  <Ligand effiencies>  (13) 
[-0.23941176470588238]

>  <Interactions>  (13) 
["V-B:GLU:543:CD:9880, V-B:TYR:539:C:9839, H-B:TYR:539:OH:9850, V-B:PRO:540:N:9856, V-B:PRO:540:C:9853, V-B:PRO:540:CA:9855, H-B:TYR:539:N:9842, V-B:PRO:540:CB:9857, H-A:TYR:531:OH:4795, H-B:TYR:531:OH:9767, V-A:MET:535:CE:4835, H-A:TYR:539:N:4870, V-A:TYR:539:CZ:4877, V-A:PRO:540:CD:4887, V-A:TYR:539:C:4867, V-A:PRO:540:CB:4885, V-A:PRO:540:N:4884, V-A:TYR:539:CE1:4875, V-A:PRO:540:CA:4883, V-A:TYR:539:CD1:4873, V-B:GLU:543:CG:9879, V-A:TYR:539:CE2:4876, V-B:ASP:366:CG:8184, V-B:ASP:366:CB:8183, H-B:MET:535:SD:9806, V-B:TYR:531:CZ:9766"]

$$$$
3ac_Grossjean_2025
     RDKit          3D

 31 33  0  0  0  0  0  0  0  0999 V2000
  123.0200  130.7490   62.5080 C   0  0  0  0  0  0  0  0  0  0  0  0
  123.9490  130.7530   63.5880 O   0  0  0  0  0  0  0  0  0  0  0  0
  125.2940  130.5850   63.3220 C   0  0  0  0  0  0  0  0  0  0  0  0
  125.6210  129.6800   62.3120 C   0  0  0  0  0  0  0  0  0  0  0  0
  126.9500  129.4490   61.9710 C   0  0  0  0  0  0  0  0  0  0  0  0
  127.9760  130.1150   62.6440 C   0  0  0  0  0  0  0  0  0  0  0  0
  129.2860  129.8310   62.2150 N   0  0  0  0  0  0  0  0  0  0  0  0
  129.7740  128.7010   61.6600 C   0  0  0  0  0  0  0  0  0  0  0  0
  129.1110  127.7000   61.3850 O   0  0  0  0  0  0  0  0  0  0  0  0
  131.2730  128.7080   61.3600 C   0  0  0  0  0  0  0  0  0  0  0  0
  131.9300  130.3940   61.1750 S   0  0  0  0  0  0  0  0  0  0  0  0
  130.9690  131.2500   59.9410 C   0  0  0  0  0  0  0  0  0  0  0  0
  129.8280  131.7890   60.4330 N   0  0  0  0  0  0  0  0  0  0  0  0
  128.9950  132.4780   59.6100 C   0  0  0  0  0  0  0  0  0  0  0  0
  127.7500  133.0360   60.2330 C   0  0  0  0  0  0  0  0  0  0  0  0
  127.8000  134.1970   61.0220 C   0  0  0  0  0  0  0  0  0  0  0  0
  126.6470  134.7230   61.5980 C   0  0  0  0  0  0  0  0  0  0  0  0
  125.4240  134.0930   61.3930 C   0  0  0  0  0  0  0  0  0  0  0  0
  125.3470  132.9400   60.6200 C   0  0  0  0  0  0  0  0  0  0  0  0
  126.5030  132.4160   60.0460 C   0  0  0  0  0  0  0  0  0  0  0  0
  129.2910  132.6250   58.2520 C   0  0  0  0  0  0  0  0  0  0  0  0
  130.4540  132.0570   57.7120 C   0  0  0  0  0  0  0  0  0  0  0  0
  130.7380  132.2390   56.2080 C   0  0  0  0  0  0  0  0  0  0  0  0
  131.8860  132.8780   55.9710 F   0  0  0  0  0  0  0  0  0  0  0  0
  130.8140  131.0510   55.6060 F   0  0  0  0  0  0  0  0  0  0  0  0
  129.7590  132.9470   55.6450 F   0  0  0  0  0  0  0  0  0  0  0  0
  131.3180  131.3340   58.5730 C   0  0  0  0  0  0  0  0  0  0  0  0
  132.5030  130.6590   58.0410 C   0  0  0  0  0  0  0  0  0  0  0  0
  133.4400  130.1260   57.6200 N   0  0  0  0  0  0  0  0  0  0  0  0
  127.6550  131.0330   63.6570 C   0  0  0  0  0  0  0  0  0  0  0  0
  126.3240  131.2620   63.9940 C   0  0  0  0  0  0  0  0  0  0  0  0
  1  2  1  0
  2  3  1  0
  3  4  2  0
  4  5  1  0
  5  6  2  0
  6  7  1  0
  7  8  1  0
  8  9  2  0
  8 10  1  0
 10 11  1  0
 11 12  1  0
 12 13  2  0
 13 14  1  0
 14 15  1  0
 15 16  2  0
 16 17  1  0
 17 18  2  0
 18 19  1  0
 19 20  2  0
 14 21  2  0
 21 22  1  0
 22 23  1  0
 23 24  1  0
 23 25  1  0
 23 26  1  0
 22 27  2  0
 27 28  1  0
 28 29  3  0
  6 30  1  0
 30 31  2  0
 31  3  1  0
 27 12  1  0
 20 15  1  0
M  END
>  <Binding energies>  (14) 
[-7.11]

>  <Ligand effiencies>  (14) 
[-0.2221875]

>  <Interactions>  (14) 
["V-B:ARG:545:CZ:9898, H-B:GLY:454:N:9021, V-B:GLY:453:C:9013, H-B:ARG:545:NH2:9900, V-A:GLU:543:CD:4908, H-A:GLU:543:OE1:4909, V-A:ILE:538:CG2:4863, V-A:ILE:538:CA:4860, V-A:LEU:363:CD1:3189, V-A:PRO:540:CD:4887, V-A:TYR:539:C:4867, V-A:TYR:539:CG:4872, V-A:PRO:540:CB:4885, V-A:PRO:540:N:4884, V-A:TYR:539:CE1:4875, V-A:PRO:540:CA:4883, V-A:TYR:539:CD1:4873, V-A:TYR:539:CA:4869, V-B:LEU:475:CD1:9229, V-A:TYR:539:CE2:4876, H-A:ALA:541:N:4891, V-A:ALA:541:CB:4892, V-A:TYR:539:CD2:4874, V-B:ASP:366:CG:8184, V-B:ILE:369:CD1:8210, H-A:ARG:545:NH2:4928, V-A:PRO:540:CG:4886, V-B:GLY:453:CA:9015"]

$$$$
3af_Grossjean_2025
     RDKit          3D

 29 31  0  0  0  0  0  0  0  0999 V2000
  124.1590  132.0080   59.6680 N   0  0  0  0  0  0  0  0  0  0  0  0
  125.3080  131.9150   59.7690 C   0  0  0  0  0  0  0  0  0  0  0  0
  126.7640  131.7990   59.8980 C   0  0  0  0  0  0  0  0  0  0  0  0
  127.5160  132.8170   60.5330 C   0  0  0  0  0  0  0  0  0  0  0  0
  126.8640  134.0630   61.1640 C   0  0  0  0  0  0  0  0  0  0  0  0
  127.7590  134.9540   61.5970 F   0  0  0  0  0  0  0  0  0  0  0  0
  126.0900  134.6750   60.2670 F   0  0  0  0  0  0  0  0  0  0  0  0
  126.1170  133.7100   62.2110 F   0  0  0  0  0  0  0  0  0  0  0  0
  128.9120  132.6870   60.5840 C   0  0  0  0  0  0  0  0  0  0  0  0
  129.5390  131.5740   60.0140 C   0  0  0  0  0  0  0  0  0  0  0  0
  131.0280  131.3950   60.0220 C   0  0  0  0  0  0  0  0  0  0  0  0
  131.7570  131.4970   61.2180 C   0  0  0  0  0  0  0  0  0  0  0  0
  133.1390  131.3280   61.2330 C   0  0  0  0  0  0  0  0  0  0  0  0
  133.8120  131.0540   60.0480 C   0  0  0  0  0  0  0  0  0  0  0  0
  133.1150  130.9440   58.8490 C   0  0  0  0  0  0  0  0  0  0  0  0
  131.7320  131.1130   58.8390 C   0  0  0  0  0  0  0  0  0  0  0  0
  128.8150  130.6030   59.4020 N   0  0  0  0  0  0  0  0  0  0  0  0
  127.4640  130.6950   59.3600 C   0  0  0  0  0  0  0  0  0  0  0  0
  126.6880  129.3220   58.5320 S   0  0  0  0  0  0  0  0  0  0  0  0
  125.8060  129.9680   57.0790 C   0  0  0  0  0  0  0  0  0  0  0  0
  126.7700  130.4170   55.9810 C   0  0  0  0  0  0  0  0  0  0  0  0
  126.4580  130.2440   54.8030 O   0  0  0  0  0  0  0  0  0  0  0  0
  127.9200  130.9760   56.4150 N   0  0  0  0  0  0  0  0  0  0  0  0
  129.0080  131.4810   55.6760 C   0  0  0  0  0  0  0  0  0  0  0  0
  129.3390  131.1260   54.3560 C   0  0  0  0  0  0  0  0  0  0  0  0
  130.4520  131.7060   53.7430 C   0  0  0  0  0  0  0  0  0  0  0  0
  131.2090  132.6280   54.4670 C   0  0  0  0  0  0  0  0  0  0  0  0
  130.9110  132.9870   55.7400 N   0  0  0  0  0  0  0  0  0  0  0  0
  129.8260  132.4150   56.3210 C   0  0  0  0  0  0  0  0  0  0  0  0
  1  2  3  0
  2  3  1  0
  3  4  2  0
  4  5  1  0
  5  6  1  0
  5  7  1  0
  5  8  1  0
  4  9  1  0
  9 10  2  0
 10 11  1  0
 11 12  2  0
 12 13  1  0
 13 14  2  0
 14 15  1  0
 15 16  2  0
 10 17  1  0
 17 18  2  0
 18 19  1  0
 19 20  1  0
 20 21  1  0
 21 22  2  0
 21 23  1  0
 23 24  1  0
 24 25  2  0
 25 26  1  0
 26 27  2  0
 27 28  1  0
 28 29  2  0
 18  3  1  0
 29 24  1  0
 16 11  1  0
M  END
>  <Binding energies>  (15) 
[-7.87]

>  <Ligand effiencies>  (15) 
[-0.26233333333333336]

>  <Interactions>  (15) 
["V-A:ASP:366:CG:3213, V-A:ILE:538:CD1:4865, V-A:ILE:538:C:4858, V-A:ILE:538:CA:4860, H-B:TYR:531:OH:9767, H-A:TYR:539:N:4870, V-A:TYR:539:CZ:4877, V-A:TYR:539:C:4867, V-A:LEU:363:CA:3185, V-A:PRO:540:CB:4885, V-A:PRO:540:N:4884, V-A:TYR:539:CE1:4875, V-A:PRO:540:CA:4883, V-A:TYR:539:CD1:4873, V-B:LEU:475:CD1:9229, V-B:PRO:482:CG:9298, V-A:TYR:539:CE2:4876, V-A:ALA:541:CB:4892, V-A:TYR:539:CD2:4874, H-A:TYR:539:OH:4878, V-A:ASN:362:C:3172, V-A:ASN:362:CB:3176, V-A:ALA:541:CA:4890, V-A:PRO:540:C:4881, V-B:TRP:381:CH2:8343"]

$$$$
3ag_Grossjean_2025
     RDKit          3D

 30 32  0  0  0  0  0  0  0  0999 V2000
  126.5790  130.3600   53.8520 N   0  0  0  0  0  0  0  0  0  0  0  0
  127.3190  130.5290   54.7270 C   0  0  0  0  0  0  0  0  0  0  0  0
  128.2570  130.7450   55.8320 C   0  0  0  0  0  0  0  0  0  0  0  0
  129.4240  131.5270   55.6480 C   0  0  0  0  0  0  0  0  0  0  0  0
  129.7480  132.2380   54.3200 C   0  0  0  0  0  0  0  0  0  0  0  0
  130.4010  131.4550   53.4600 F   0  0  0  0  0  0  0  0  0  0  0  0
  128.6200  132.6320   53.7290 F   0  0  0  0  0  0  0  0  0  0  0  0
  130.5140  133.3070   54.5460 F   0  0  0  0  0  0  0  0  0  0  0  0
  130.3180  131.6590   56.7210 C   0  0  0  0  0  0  0  0  0  0  0  0
  130.0620  131.0190   57.9390 C   0  0  0  0  0  0  0  0  0  0  0  0
  130.9830  131.1240   59.1160 C   0  0  0  0  0  0  0  0  0  0  0  0
  130.4810  131.4020   60.3970 C   0  0  0  0  0  0  0  0  0  0  0  0
  131.3310  131.5010   61.4950 C   0  0  0  0  0  0  0  0  0  0  0  0
  132.7000  131.3230   61.3260 C   0  0  0  0  0  0  0  0  0  0  0  0
  133.2240  131.0500   60.0660 C   0  0  0  0  0  0  0  0  0  0  0  0
  132.3710  130.9530   58.9710 C   0  0  0  0  0  0  0  0  0  0  0  0
  128.9360  130.2800   58.1150 N   0  0  0  0  0  0  0  0  0  0  0  0
  128.0480  130.1550   57.0980 C   0  0  0  0  0  0  0  0  0  0  0  0
  126.6350  129.1560   57.5090 S   0  0  0  0  0  0  0  0  0  0  0  0
  125.2350  130.2840   57.7820 C   0  0  0  0  0  0  0  0  0  0  0  0
  125.2700  130.9220   59.1710 C   0  0  0  0  0  0  0  0  0  0  0  0
  124.2240  131.3100   59.6950 O   0  0  0  0  0  0  0  0  0  0  0  0
  126.4770  131.0160   59.7550 N   0  0  0  0  0  0  0  0  0  0  0  0
  126.7340  131.5570   61.0890 C   0  0  0  0  0  0  0  0  0  0  0  0
  126.7310  133.0800   61.1550 C   0  0  0  0  0  0  0  0  0  0  0  0
  127.9320  133.7690   61.3450 C   0  0  0  0  0  0  0  0  0  0  0  0
  127.9380  135.1610   61.3760 C   0  0  0  0  0  0  0  0  0  0  0  0
  126.7440  135.8600   61.2060 C   0  0  0  0  0  0  0  0  0  0  0  0
  125.5460  135.1800   61.0010 C   0  0  0  0  0  0  0  0  0  0  0  0
  125.5400  133.7880   60.9700 C   0  0  0  0  0  0  0  0  0  0  0  0
  1  2  3  0
  2  3  1  0
  3  4  2  0
  4  5  1  0
  5  6  1  0
  5  7  1  0
  5  8  1  0
  4  9  1  0
  9 10  2  0
 10 11  1  0
 11 12  2  0
 12 13  1  0
 13 14  2  0
 14 15  1  0
 15 16  2  0
 10 17  1  0
 17 18  2  0
 18 19  1  0
 19 20  1  0
 20 21  1  0
 21 22  2  0
 21 23  1  0
 23 24  1  0
 24 25  1  0
 25 26  2  0
 26 27  1  0
 27 28  2  0
 28 29  1  0
 29 30  2  0
 18  3  1  0
 30 25  1  0
 16 11  1  0
M  END
>  <Binding energies>  (16) 
[-7.27]

>  <Ligand effiencies>  (16) 
[-0.23451612903225805]

>  <Interactions>  (16) 
["V-A:ILE:538:CD1:4865, V-A:ILE:538:C:4858, V-A:ILE:538:CA:4860, V-A:ILE:538:CB:4862, H-B:TYR:531:OH:9767, V-A:MET:535:CG:4833, V-A:TYR:539:CZ:4877, V-A:MET:535:CB:4832, V-A:PRO:540:CB:4885, V-A:TYR:539:CE1:4875, V-A:PRO:540:CA:4883, V-A:TYR:539:CD1:4873, V-A:TYR:539:CA:4869, V-B:LEU:475:CD1:9229, V-B:PRO:482:CG:9298, V-A:TYR:539:CE2:4876, V-A:ALA:541:CB:4892, V-A:TYR:539:CD2:4874, H-A:TYR:539:OH:4878, V-A:ASN:362:CB:3176, V-A:ALA:541:CA:4890, V-B:TRP:381:CZ2:8341, V-A:PRO:540:C:4881, V-B:TRP:381:CH2:8343, V-B:PRO:482:CB:9297, V-A:VAL:537:C:4850, V-B:TRP:381:CZ3:8342"]

$$$$
3bc_Grossjean_2025
     RDKit          3D

 28 30  0  0  0  0  0  0  0  0999 V2000
  130.0300  132.4170   54.4790 C   0  0  0  0  0  0  0  0  0  0  0  0
  130.7670  132.9120   55.5920 O   0  0  0  0  0  0  0  0  0  0  0  0
  130.3780  132.5560   56.8690 C   0  0  0  0  0  0  0  0  0  0  0  0
  129.0980  132.9480   57.2620 C   0  0  0  0  0  0  0  0  0  0  0  0
  128.6180  132.6350   58.5310 C   0  0  0  0  0  0  0  0  0  0  0  0
  129.4190  131.9300   59.4310 C   0  0  0  0  0  0  0  0  0  0  0  0
  128.8440  131.6490   60.6840 N   0  0  0  0  0  0  0  0  0  0  0  0
  129.3960  131.7320   61.9130 C   0  0  0  0  0  0  0  0  0  0  0  0
  130.5420  132.1260   62.1420 O   0  0  0  0  0  0  0  0  0  0  0  0
  128.4630  131.3310   63.0650 C   0  0  0  0  0  0  0  0  0  0  0  0
  127.3830  129.9000   62.7250 S   0  0  0  0  0  0  0  0  0  0  0  0
  126.5700  129.4600   64.2450 C   0  0  0  0  0  0  0  0  0  0  0  0
  127.3200  128.6780   65.0590 N   0  0  0  0  0  0  0  0  0  0  0  0
  126.8210  128.2700   66.2540 C   0  0  0  0  0  0  0  0  0  0  0  0
  127.7060  127.3890   67.0860 C   0  0  0  0  0  0  0  0  0  0  0  0
  128.9110  126.8900   66.5670 C   0  0  0  0  0  0  0  0  0  0  0  0
  129.7380  126.0730   67.3330 C   0  0  0  0  0  0  0  0  0  0  0  0
  129.3680  125.7410   68.6320 C   0  0  0  0  0  0  0  0  0  0  0  0
  128.1770  126.2200   69.1690 C   0  0  0  0  0  0  0  0  0  0  0  0
  127.3530  127.0360   68.3990 C   0  0  0  0  0  0  0  0  0  0  0  0
  125.5370  128.6450   66.6630 C   0  0  0  0  0  0  0  0  0  0  0  0
  124.7580  129.4710   65.8450 C   0  0  0  0  0  0  0  0  0  0  0  0
  123.3680  129.8700   66.3380 C   0  0  0  0  0  0  0  0  0  0  0  0
  125.2780  129.9060   64.6060 C   0  0  0  0  0  0  0  0  0  0  0  0
  124.5010  130.8100   63.7570 C   0  0  0  0  0  0  0  0  0  0  0  0
  123.8840  131.5240   63.0870 N   0  0  0  0  0  0  0  0  0  0  0  0
  130.7020  131.5200   59.0400 C   0  0  0  0  0  0  0  0  0  0  0  0
  131.1780  131.8350   57.7690 C   0  0  0  0  0  0  0  0  0  0  0  0
  1  2  1  0
  2  3  1  0
  3  4  2  0
  4  5  1  0
  5  6  2  0
  6  7  1  0
  7  8  1  0
  8  9  2  0
  8 10  1  0
 10 11  1  0
 11 12  1  0
 12 13  2  0
 13 14  1  0
 14 15  1  0
 15 16  2  0
 16 17  1  0
 17 18  2  0
 18 19  1  0
 19 20  2  0
 14 21  2  0
 21 22  1  0
 22 23  1  0
 22 24  2  0
 24 25  1  0
 25 26  3  0
  6 27  1  0
 27 28  2  0
 28  3  1  0
 24 12  1  0
 20 15  1  0
M  END
>  <Binding energies>  (17) 
[-8.91]

>  <Ligand effiencies>  (17) 
[-0.30724137931034484]

>  <Interactions>  (17) 
["V-A:HIS:456:CE1:4069, V-B:ARG:545:CZ:9898, H-B:GLY:454:N:9021, V-B:GLU:543:CB:9878, V-B:HIS:456:CE1:9040, V-B:GLY:453:C:9013, V-B:GLU:543:C:9874, V-B:ARG:545:CG:9894, V-B:GLY:454:CA:9020, V-B:ARG:545:CD:9895, V-A:ILE:538:CA:4860, H-A:TYR:539:N:4870, V-A:TYR:539:CZ:4877, V-A:PRO:540:CD:4887, V-A:TYR:539:C:4867, V-A:TYR:539:CG:4872, V-A:PRO:540:CB:4885, V-A:PRO:540:N:4884, V-A:TYR:539:CE1:4875, V-A:PRO:540:CA:4883, V-A:TYR:539:CD1:4873, V-A:TYR:539:CA:4869, V-A:TYR:539:CE2:4876, H-A:ALA:541:N:4891, V-A:ALA:541:CB:4892, V-A:TYR:539:CD2:4874, V-B:ILE:455:C:9023, V-B:GLY:453:CA:9015, V-B:GLY:454:C:9018"]

$$$$
3bd_Grossjean_2025
     RDKit          3D

 26 28  0  0  0  0  0  0  0  0999 V2000
  127.5940  133.8770   61.4840 C   0  0  0  0  0  0  0  0  0  0  0  0
  127.5550  133.0000   60.2330 C   0  0  0  0  0  0  0  0  0  0  0  0
  128.6720  133.0010   59.3900 C   0  0  0  0  0  0  0  0  0  0  0  0
  128.6740  132.2140   58.2330 C   0  0  0  0  0  0  0  0  0  0  0  0
  129.8390  132.1640   57.2890 C   0  0  0  0  0  0  0  0  0  0  0  0
  129.7300  132.6770   55.9860 C   0  0  0  0  0  0  0  0  0  0  0  0
  130.8060  132.6320   55.1040 C   0  0  0  0  0  0  0  0  0  0  0  0
  132.0120  132.0720   55.5150 C   0  0  0  0  0  0  0  0  0  0  0  0
  132.1460  131.5540   56.7980 C   0  0  0  0  0  0  0  0  0  0  0  0
  131.0670  131.6000   57.6770 C   0  0  0  0  0  0  0  0  0  0  0  0
  127.6070  131.4340   57.9200 N   0  0  0  0  0  0  0  0  0  0  0  0
  126.5150  131.4220   58.7260 C   0  0  0  0  0  0  0  0  0  0  0  0
  125.1760  130.3660   58.1980 S   0  0  0  0  0  0  0  0  0  0  0  0
  125.8740  128.7450   57.7630 C   0  0  0  0  0  0  0  0  0  0  0  0
  126.7430  128.8140   56.5060 C   0  0  0  0  0  0  0  0  0  0  0  0
  127.3850  127.8190   56.1680 O   0  0  0  0  0  0  0  0  0  0  0  0
  126.7440  130.0000   55.8600 N   0  0  0  0  0  0  0  0  0  0  0  0
  127.4120  130.3620   54.6750 C   0  0  0  0  0  0  0  0  0  0  0  0
  126.6780  131.1240   53.7630 C   0  0  0  0  0  0  0  0  0  0  0  0
  127.2530  131.5230   52.5590 C   0  0  0  0  0  0  0  0  0  0  0  0
  128.5600  131.1490   52.2610 C   0  0  0  0  0  0  0  0  0  0  0  0
  129.2980  130.3770   53.1560 C   0  0  0  0  0  0  0  0  0  0  0  0
  128.7260  129.9780   54.3610 C   0  0  0  0  0  0  0  0  0  0  0  0
  126.4430  132.1970   59.9030 C   0  0  0  0  0  0  0  0  0  0  0  0
  125.2580  132.1740   60.7660 C   0  0  0  0  0  0  0  0  0  0  0  0
  124.3240  132.1560   61.4490 N   0  0  0  0  0  0  0  0  0  0  0  0
  1  2  1  0
  2  3  2  0
  3  4  1  0
  4  5  1  0
  5  6  2  0
  6  7  1  0
  7  8  2  0
  8  9  1  0
  9 10  2  0
  4 11  2  0
 11 12  1  0
 12 13  1  0
 13 14  1  0
 14 15  1  0
 15 16  2  0
 15 17  1  0
 17 18  1  0
 18 19  2  0
 19 20  1  0
 20 21  2  0
 21 22  1  0
 22 23  2  0
 12 24  2  0
 24 25  1  0
 25 26  3  0
 24  2  1  0
 10  5  1  0
 23 18  1  0
M  END
>  <Binding energies>  (18) 
[-7.8]

>  <Ligand effiencies>  (18) 
[-0.28888888888888886]

>  <Interactions>  (18) 
["V-A:ILE:538:CD1:4865, V-A:ILE:538:CA:4860, H-B:TYR:531:OH:9767, V-A:LEU:363:CD1:3189, V-A:TYR:531:CE2:4793, V-A:MET:535:CG:4833, V-A:TYR:539:CZ:4877, V-A:TYR:539:C:4867, V-A:MET:535:CB:4832, V-A:TYR:539:CG:4872, V-A:PRO:540:CB:4885, V-A:PRO:540:N:4884, V-A:TYR:539:CE1:4875, V-A:PRO:540:CA:4883, V-A:TYR:539:CD1:4873, V-A:TYR:539:CA:4869, V-A:TYR:539:CE2:4876, V-A:ALA:541:CB:4892, V-A:TYR:539:CD2:4874, H-A:TYR:539:OH:4878, V-B:TYR:531:CE1:9764, V-B:MET:535:CE:9807"]

$$$$
3be_Grossjean_2025
     RDKit          3D

 27 29  0  0  0  0  0  0  0  0999 V2000
  126.4700  131.3260   52.0860 C   0  0  0  0  0  0  0  0  0  0  0  0
  127.1300  130.7370   53.3170 C   0  0  0  0  0  0  0  0  0  0  0  0
  128.4340  130.2360   53.2800 C   0  0  0  0  0  0  0  0  0  0  0  0
  128.9760  129.7060   54.4510 C   0  0  0  0  0  0  0  0  0  0  0  0
  128.2110  129.6910   55.6200 C   0  0  0  0  0  0  0  0  0  0  0  0
  126.9130  130.2130   55.5890 C   0  0  0  0  0  0  0  0  0  0  0  0
  126.1900  130.1590   56.7960 N   0  0  0  0  0  0  0  0  0  0  0  0
  125.8200  129.0750   57.5120 C   0  0  0  0  0  0  0  0  0  0  0  0
  126.0670  127.9100   57.1960 O   0  0  0  0  0  0  0  0  0  0  0  0
  125.0400  129.3900   58.7980 C   0  0  0  0  0  0  0  0  0  0  0  0
  124.5330  131.1330   58.9910 S   0  0  0  0  0  0  0  0  0  0  0  0
  125.9470  132.0630   59.5380 C   0  0  0  0  0  0  0  0  0  0  0  0
  127.0620  131.8430   58.8000 N   0  0  0  0  0  0  0  0  0  0  0  0
  128.2170  132.4920   59.1050 C   0  0  0  0  0  0  0  0  0  0  0  0
  129.4080  132.1810   58.2470 C   0  0  0  0  0  0  0  0  0  0  0  0
  129.4810  132.6460   56.9250 C   0  0  0  0  0  0  0  0  0  0  0  0
  130.5810  132.3590   56.1230 C   0  0  0  0  0  0  0  0  0  0  0  0
  131.6280  131.6000   56.6340 C   0  0  0  0  0  0  0  0  0  0  0  0
  131.5810  131.1250   57.9400 C   0  0  0  0  0  0  0  0  0  0  0  0
  130.4770  131.4140   58.7390 C   0  0  0  0  0  0  0  0  0  0  0  0
  128.2740  133.3870   60.1780 C   0  0  0  0  0  0  0  0  0  0  0  0
  127.1260  133.6450   60.9360 C   0  0  0  0  0  0  0  0  0  0  0  0
  127.2320  134.6430   62.0870 C   0  0  0  0  0  0  0  0  0  0  0  0
  125.9220  132.9820   60.6120 C   0  0  0  0  0  0  0  0  0  0  0  0
  124.6960  133.2780   61.3570 C   0  0  0  0  0  0  0  0  0  0  0  0
  123.7290  133.5130   61.9470 N   0  0  0  0  0  0  0  0  0  0  0  0
  126.3760  130.7300   54.4450 N   0  0  0  0  0  0  0  0  0  0  0  0
  1  2  1  0
  2  3  2  0
  3  4  1  0
  4  5  2  0
  5  6  1  0
  6  7  1  0
  7  8  1  0
  8  9  2  0
  8 10  1  0
 10 11  1  0
 11 12  1  0
 12 13  2  0
 13 14  1  0
 14 15  1  0
 15 16  2  0
 16 17  1  0
 17 18  2  0
 18 19  1  0
 19 20  2  0
 14 21  2  0
 21 22  1  0
 22 23  1  0
 22 24  2  0
 24 25  1  0
 25 26  3  0
  6 27  2  0
 27  2  1  0
 24 12  1  0
 20 15  1  0
M  END
>  <Binding energies>  (19) 
[-8.24]

>  <Ligand effiencies>  (19) 
[-0.2942857142857143]

>  <Interactions>  (19) 
["H-B:TYR:531:OH:9767, V-A:TYR:539:CZ:4877, V-A:TYR:539:C:4867, V-A:TYR:539:CG:4872, V-A:PRO:540:CB:4885, V-A:PRO:540:N:4884, V-A:TYR:539:CE1:4875, V-A:PRO:540:CA:4883, V-A:TYR:539:CD1:4873, V-A:TYR:539:CA:4869, V-B:LEU:475:CD1:9229, V-A:TYR:539:CE2:4876, V-A:ALA:541:CB:4892, V-A:TYR:539:CD2:4874, V-B:ASP:366:CG:8184, H-A:TYR:539:OH:4878, V-B:ASP:366:CB:8183, V-B:MET:535:CE:9807, V-B:ASN:370:CG:8217"]

$$$$
3bf_Grossjean_2025
     RDKit          3D

 26 28  0  0  0  0  0  0  0  0999 V2000
  126.5810  134.0360   60.9250 C   0  0  0  0  0  0  0  0  0  0  0  0
  127.2640  132.7950   60.3560 C   0  0  0  0  0  0  0  0  0  0  0  0
  128.6550  132.6980   60.4670 C   0  0  0  0  0  0  0  0  0  0  0  0
  129.3190  131.5700   59.9720 C   0  0  0  0  0  0  0  0  0  0  0  0
  130.8040  131.3950   60.0810 C   0  0  0  0  0  0  0  0  0  0  0  0
  131.4500  131.5080   61.3220 C   0  0  0  0  0  0  0  0  0  0  0  0
  132.8290  131.3480   61.4300 C   0  0  0  0  0  0  0  0  0  0  0  0
  133.5820  131.0720   60.2940 C   0  0  0  0  0  0  0  0  0  0  0  0
  132.9670  130.9560   59.0520 C   0  0  0  0  0  0  0  0  0  0  0  0
  131.5880  131.1190   58.9480 C   0  0  0  0  0  0  0  0  0  0  0  0
  128.6300  130.5590   59.3790 N   0  0  0  0  0  0  0  0  0  0  0  0
  127.2840  130.6500   59.2410 C   0  0  0  0  0  0  0  0  0  0  0  0
  126.5530  129.2400   58.4370 S   0  0  0  0  0  0  0  0  0  0  0  0
  125.7790  129.8120   56.8860 C   0  0  0  0  0  0  0  0  0  0  0  0
  126.7520  130.3730   55.8390 C   0  0  0  0  0  0  0  0  0  0  0  0
  126.4380  130.4140   54.6480 O   0  0  0  0  0  0  0  0  0  0  0  0
  127.9220  130.8230   56.3420 N   0  0  0  0  0  0  0  0  0  0  0  0
  129.0200  131.3800   55.6600 C   0  0  0  0  0  0  0  0  0  0  0  0
  129.3720  130.8010   54.4360 C   0  0  0  0  0  0  0  0  0  0  0  0
  130.4440  131.3160   53.7050 C   0  0  0  0  0  0  0  0  0  0  0  0
  131.1370  132.4120   54.2210 C   0  0  0  0  0  0  0  0  0  0  0  0
  130.8110  133.0000   55.4000 N   0  0  0  0  0  0  0  0  0  0  0  0
  129.7660  132.4880   56.1000 C   0  0  0  0  0  0  0  0  0  0  0  0
  126.5470  131.7500   59.7340 C   0  0  0  0  0  0  0  0  0  0  0  0
  125.0850  131.8080   59.6510 C   0  0  0  0  0  0  0  0  0  0  0  0
  123.9310  131.8560   59.5850 N   0  0  0  0  0  0  0  0  0  0  0  0
  1  2  1  0
  2  3  2  0
  3  4  1  0
  4  5  1  0
  5  6  2  0
  6  7  1  0
  7  8  2  0
  8  9  1  0
  9 10  2  0
  4 11  2  0
 11 12  1  0
 12 13  1  0
 13 14  1  0
 14 15  1  0
 15 16  2  0
 15 17  1  0
 17 18  1  0
 18 19  2  0
 19 20  1  0
 20 21  2  0
 21 22  1  0
 22 23  2  0
 12 24  2  0
 24 25  1  0
 25 26  3  0
 24  2  1  0
 10  5  1  0
 23 18  1  0
M  END
>  <Binding energies>  (20) 
[-8.05]

>  <Ligand effiencies>  (20) 
[-0.29814814814814816]

>  <Interactions>  (20) 
["V-A:ILE:538:CD1:4865, V-A:ILE:538:CA:4860, H-B:TYR:531:OH:9767, V-A:TYR:531:CE2:4793, H-A:TYR:539:N:4870, V-A:TYR:539:CZ:4877, V-A:TYR:539:C:4867, V-A:LEU:363:CA:3185, V-A:MET:535:CB:4832, V-A:TYR:539:CG:4872, V-A:PRO:540:CB:4885, V-A:TYR:539:CE1:4875, V-A:PRO:540:CA:4883, V-A:TYR:539:CD1:4873, V-A:TYR:539:CE2:4876, V-A:TYR:539:CD2:4874, H-A:TYR:539:OH:4878, V-A:ASN:362:C:3172, V-A:ASN:362:CB:3176, V-A:PRO:540:C:4881"]

$$$$
3bg_Grossjean_2025
     RDKit          3D

 27 29  0  0  0  0  0  0  0  0999 V2000
  126.7330  135.2870   61.7400 C   0  0  0  0  0  0  0  0  0  0  0  0
  126.7290  134.0410   60.8560 C   0  0  0  0  0  0  0  0  0  0  0  0
  127.8770  133.7560   60.1100 C   0  0  0  0  0  0  0  0  0  0  0  0
  127.9180  132.6180   59.2920 C   0  0  0  0  0  0  0  0  0  0  0  0
  129.1240  132.2480   58.4740 C   0  0  0  0  0  0  0  0  0  0  0  0
  129.2720  132.7030   57.1530 C   0  0  0  0  0  0  0  0  0  0  0  0
  130.3950  132.3770   56.3990 C   0  0  0  0  0  0  0  0  0  0  0  0
  131.3930  131.5840   56.9550 C   0  0  0  0  0  0  0  0  0  0  0  0
  131.2690  131.1090   58.2550 C   0  0  0  0  0  0  0  0  0  0  0  0
  130.1430  131.4360   59.0050 C   0  0  0  0  0  0  0  0  0  0  0  0
  126.8540  131.7740   59.2290 N   0  0  0  0  0  0  0  0  0  0  0  0
  125.7330  132.0350   59.9500 C   0  0  0  0  0  0  0  0  0  0  0  0
  124.4220  130.8310   59.8040 S   0  0  0  0  0  0  0  0  0  0  0  0
  123.8890  130.7740   58.0620 C   0  0  0  0  0  0  0  0  0  0  0  0
  124.7890  129.8660   57.2200 C   0  0  0  0  0  0  0  0  0  0  0  0
  124.3980  128.7430   56.8980 O   0  0  0  0  0  0  0  0  0  0  0  0
  125.9970  130.3570   56.8940 N   0  0  0  0  0  0  0  0  0  0  0  0
  127.0770  129.6020   56.2580 C   0  0  0  0  0  0  0  0  0  0  0  0
  127.4710  130.2010   54.9130 C   0  0  0  0  0  0  0  0  0  0  0  0
  126.4900  130.7320   54.0690 C   0  0  0  0  0  0  0  0  0  0  0  0
  126.8480  131.2700   52.8370 C   0  0  0  0  0  0  0  0  0  0  0  0
  128.1880  131.2870   52.4550 C   0  0  0  0  0  0  0  0  0  0  0  0
  129.1730  130.7790   53.2980 C   0  0  0  0  0  0  0  0  0  0  0  0
  128.8140  130.2400   54.5310 C   0  0  0  0  0  0  0  0  0  0  0  0
  125.6210  133.1710   60.7770 C   0  0  0  0  0  0  0  0  0  0  0  0
  124.4070  133.4400   61.5530 C   0  0  0  0  0  0  0  0  0  0  0  0
  123.4500  133.6530   62.1660 N   0  0  0  0  0  0  0  0  0  0  0  0
  1  2  1  0
  2  3  2  0
  3  4  1  0
  4  5  1  0
  5  6  2  0
  6  7  1  0
  7  8  2  0
  8  9  1  0
  9 10  2  0
  4 11  2  0
 11 12  1  0
 12 13  1  0
 13 14  1  0
 14 15  1  0
 15 16  2  0
 15 17  1  0
 17 18  1  0
 18 19  1  0
 19 20  2  0
 20 21  1  0
 21 22  2  0
 22 23  1  0
 23 24  2  0
 12 25  2  0
 25 26  1  0
 26 27  3  0
 25  2  1  0
 10  5  1  0
 24 19  1  0
M  END
>  <Binding energies>  (21) 
[-7.86]

>  <Ligand effiencies>  (21) 
[-0.28071428571428575]

>  <Interactions>  (21) 
["H-B:TYR:531:OH:9767, V-A:MET:535:CG:4833, V-A:TYR:539:CZ:4877, V-A:TYR:539:C:4867, V-A:MET:535:CB:4832, V-A:TYR:539:CG:4872, V-A:PRO:540:CB:4885, V-A:PRO:540:N:4884, V-A:TYR:539:CE1:4875, V-A:PRO:540:CA:4883, V-A:TYR:539:CD1:4873, V-A:TYR:539:CA:4869, V-B:LEU:475:CD1:9229, V-B:PRO:482:CG:9298, V-A:TYR:539:CE2:4876, V-A:TYR:539:CD2:4874, V-B:ASP:366:CG:8184, H-A:TYR:539:OH:4878, V-B:ASP:366:CB:8183, V-B:TRP:381:CH2:8343, V-B:PRO:482:CB:9297, V-B:ASP:366:CA:8181, V-B:ASP:366:C:8179, V-B:TYR:531:CE1:9764, V-B:TYR:531:CZ:9766, V-B:MET:535:CE:9807"]

$$$$
3ca_Grossjean_2025
     RDKit          3D

 31 33  0  0  0  0  0  0  0  0999 V2000
  129.3760  132.2500   59.2050 C   0  0  0  0  0  0  0  0  0  0  0  0
  128.5470  132.1810   57.9190 C   0  0  0  0  0  0  0  0  0  0  0  0
  129.1640  132.9770   56.9140 O   0  0  0  0  0  0  0  0  0  0  0  0
  130.1160  132.4610   56.0960 C   0  0  0  0  0  0  0  0  0  0  0  0
  131.0910  133.1040   55.6950 O   0  0  0  0  0  0  0  0  0  0  0  0
  129.8690  131.0250   55.7310 C   0  0  0  0  0  0  0  0  0  0  0  0
  129.1430  130.7290   54.5710 C   0  0  0  0  0  0  0  0  0  0  0  0
  128.8980  129.4080   54.2060 C   0  0  0  0  0  0  0  0  0  0  0  0
  129.3660  128.3570   54.9960 C   0  0  0  0  0  0  0  0  0  0  0  0
  129.0640  127.0610   54.5360 N   0  0  0  0  0  0  0  0  0  0  0  0
  129.7610  125.9130   54.6750 C   0  0  0  0  0  0  0  0  0  0  0  0
  130.8280  125.7960   55.2770 O   0  0  0  0  0  0  0  0  0  0  0  0
  129.1220  124.6780   54.0320 C   0  0  0  0  0  0  0  0  0  0  0  0
  127.3020  124.6730   54.1390 S   0  0  0  0  0  0  0  0  0  0  0  0
  126.7850  125.3150   55.7260 C   0  0  0  0  0  0  0  0  0  0  0  0
  126.9210  126.6550   55.8910 N   0  0  0  0  0  0  0  0  0  0  0  0
  126.5310  127.2110   57.0580 C   0  0  0  0  0  0  0  0  0  0  0  0
  126.6980  128.7150   57.1590 C   0  0  0  0  0  0  0  0  0  0  0  0
  126.0080  126.4610   58.1080 C   0  0  0  0  0  0  0  0  0  0  0  0
  125.8750  125.0740   57.9700 C   0  0  0  0  0  0  0  0  0  0  0  0
  125.3220  124.3080   59.1280 C   0  0  0  0  0  0  0  0  0  0  0  0
  123.9470  124.3280   59.3910 C   0  0  0  0  0  0  0  0  0  0  0  0
  123.4230  123.6260   60.4730 C   0  0  0  0  0  0  0  0  0  0  0  0
  124.2760  122.9020   61.3020 C   0  0  0  0  0  0  0  0  0  0  0  0
  125.6480  122.8770   61.0580 C   0  0  0  0  0  0  0  0  0  0  0  0
  126.1670  123.5820   59.9750 C   0  0  0  0  0  0  0  0  0  0  0  0
  126.2640  124.4790   56.7420 C   0  0  0  0  0  0  0  0  0  0  0  0
  126.1000  123.0380   56.5200 C   0  0  0  0  0  0  0  0  0  0  0  0
  125.9700  121.9010   56.3460 N   0  0  0  0  0  0  0  0  0  0  0  0
  130.1020  128.6440   56.1560 C   0  0  0  0  0  0  0  0  0  0  0  0
  130.3470  129.9660   56.5180 C   0  0  0  0  0  0  0  0  0  0  0  0
  1  2  1  0
  2  3  1  0
  3  4  1  0
  4  5  2  0
  4  6  1  0
  6  7  2  0
  7  8  1  0
  8  9  2  0
  9 10  1  0
 10 11  1  0
 11 12  2  0
 11 13  1  0
 13 14  1  0
 14 15  1  0
 15 16  2  0
 16 17  1  0
 17 18  1  0
 17 19  2  0
 19 20  1  0
 20 21  1  0
 21 22  2  0
 22 23  1  0
 23 24  2  0
 24 25  1  0
 25 26  2  0
 20 27  2  0
 27 28  1  0
 28 29  3  0
  9 30  1  0
 30 31  2  0
 31  6  1  0
 27 15  1  0
 26 21  1  0
M  END
>  <Binding energies>  (22) 
[-8.82]

>  <Ligand effiencies>  (22) 
[-0.275625]

>  <Interactions>  (22) 
["V-B:GLU:543:CD:9880, H-B:TYR:539:OH:9850, V-B:PRO:540:N:9856, V-B:PRO:540:C:9853, V-B:PRO:540:CA:9855, V-B:LEU:363:CD1:8160, V-B:TYR:539:CZ:9849, H-B:TYR:539:N:9842, V-B:PRO:540:CB:9857, V-B:TYR:539:CE1:9847, H-A:TYR:531:OH:4795, V-B:ASN:362:CB:8147, V-B:ASN:362:C:8143, V-B:LEU:363:CA:8156, H-B:TYR:531:OH:9767, V-A:MET:535:CE:4835, H-A:TYR:539:N:4870, V-A:TYR:539:CZ:4877, V-A:TYR:539:C:4867, V-A:TYR:539:CG:4872, V-A:PRO:540:N:4884, V-A:TYR:539:CE1:4875, V-A:PRO:540:CA:4883, V-A:TYR:539:CD1:4873, V-B:GLU:543:CG:9879, V-A:TYR:539:CE2:4876, V-A:TYR:539:CD2:4874, V-B:ASP:366:CG:8184, H-B:MET:535:SD:9806"]

$$$$
3ce_Grossjean_2025
     RDKit          3D

 27 29  0  0  0  0  0  0  0  0999 V2000
  123.1740  129.7410   66.6240 C   0  0  0  0  0  0  0  0  0  0  0  0
  124.2030  129.6940   65.5100 C   0  0  0  0  0  0  0  0  0  0  0  0
  125.5300  129.3340   65.7560 C   0  0  0  0  0  0  0  0  0  0  0  0
  126.4190  129.3020   64.6820 C   0  0  0  0  0  0  0  0  0  0  0  0
  125.9660  129.6280   63.4010 C   0  0  0  0  0  0  0  0  0  0  0  0
  124.6260  129.9900   63.2260 C   0  0  0  0  0  0  0  0  0  0  0  0
  124.2220  130.2880   61.9140 N   0  0  0  0  0  0  0  0  0  0  0  0
  124.0760  131.5040   61.3410 C   0  0  0  0  0  0  0  0  0  0  0  0
  124.2900  132.5800   61.9010 O   0  0  0  0  0  0  0  0  0  0  0  0
  123.6180  131.4980   59.8820 C   0  0  0  0  0  0  0  0  0  0  0  0
  124.7890  130.6170   58.8070 S   0  0  0  0  0  0  0  0  0  0  0  0
  126.3330  131.4840   58.9600 C   0  0  0  0  0  0  0  0  0  0  0  0
  126.4030  132.2980   60.0420 N   0  0  0  0  0  0  0  0  0  0  0  0
  127.5450  132.9910   60.2570 C   0  0  0  0  0  0  0  0  0  0  0  0
  127.5600  133.8720   61.4910 C   0  0  0  0  0  0  0  0  0  0  0  0
  128.6430  132.9100   59.4050 C   0  0  0  0  0  0  0  0  0  0  0  0
  128.5800  132.0940   58.2680 C   0  0  0  0  0  0  0  0  0  0  0  0
  129.7740  132.0600   57.3700 C   0  0  0  0  0  0  0  0  0  0  0  0
  129.7080  132.6250   56.0910 C   0  0  0  0  0  0  0  0  0  0  0  0
  130.8150  132.5910   55.2460 C   0  0  0  0  0  0  0  0  0  0  0  0
  131.9920  131.9850   55.6750 C   0  0  0  0  0  0  0  0  0  0  0  0
  132.0700  131.4100   56.9410 C   0  0  0  0  0  0  0  0  0  0  0  0
  130.9630  131.4450   57.7830 C   0  0  0  0  0  0  0  0  0  0  0  0
  127.3950  131.3530   58.0340 C   0  0  0  0  0  0  0  0  0  0  0  0
  127.2770  130.4710   56.8690 C   0  0  0  0  0  0  0  0  0  0  0  0
  127.1850  129.7750   55.9490 N   0  0  0  0  0  0  0  0  0  0  0  0
  123.7480  130.0160   64.2720 N   0  0  0  0  0  0  0  0  0  0  0  0
  1  2  1  0
  2  3  2  0
  3  4  1  0
  4  5  2  0
  5  6  1  0
  6  7  1  0
  7  8  1  0
  8  9  2  0
  8 10  1  0
 10 11  1  0
 11 12  1  0
 12 13  2  0
 13 14  1  0
 14 15  1  0
 14 16  2  0
 16 17  1  0
 17 18  1  0
 18 19  2  0
 19 20  1  0
 20 21  2  0
 21 22  1  0
 22 23  2  0
 17 24  2  0
 24 25  1  0
 25 26  3  0
  6 27  2  0
 27  2  1  0
 24 12  1  0
 23 18  1  0
M  END
>  <Binding energies>  (23) 
[-8.6]

>  <Ligand effiencies>  (23) 
[-0.3071428571428571]

>  <Interactions>  (23) 
["V-B:ARG:545:CZ:9898, H-B:GLY:454:N:9021, V-B:GLY:453:C:9013, H-B:ARG:545:NH2:9900, V-B:ARG:545:CG:9894, V-B:GLY:454:CA:9020, H-B:ARG:545:NH1:9899, V-B:ARG:545:CD:9895, V-A:ILE:538:CA:4860, H-B:TYR:531:OH:9767, V-A:LEU:363:CD1:3189, V-A:TYR:531:CE2:4793, V-A:TYR:539:CZ:4877, V-A:TYR:539:C:4867, V-A:TYR:539:CG:4872, V-A:PRO:540:CB:4885, V-A:PRO:540:N:4884, V-A:TYR:539:CE1:4875, V-A:PRO:540:CA:4883, V-A:TYR:539:CD1:4873, H-B:ARG:545:NE:9896, V-A:TYR:539:CE2:4876, V-A:ALA:541:CB:4892, V-A:TYR:539:CD2:4874, V-B:ASP:366:CG:8184, H-A:TYR:539:OH:4878, V-B:ILE:369:CG2:8208, V-B:ILE:369:CB:8207, V-B:ILE:369:CD1:8210, H-B:ASP:366:OD1:8185, H-B:ASP:366:OD2:8186, V-B:ILE:455:C:9023, V-B:GLY:453:CA:9015, V-B:GLY:454:C:9018"]

$$$$
3cj_Grossjean_2025
     RDKit          3D

 25 27  0  0  0  0  0  0  0  0999 V2000
  133.1200  131.1460   62.1770 C   0  0  0  0  0  0  0  0  0  0  0  0
  132.1000  131.2140   61.0570 C   0  0  0  0  0  0  0  0  0  0  0  0
  130.8390  131.7720   61.2530 C   0  0  0  0  0  0  0  0  0  0  0  0
  129.9350  131.8350   60.1830 C   0  0  0  0  0  0  0  0  0  0  0  0
  128.6210  132.5000   60.4220 C   0  0  0  0  0  0  0  0  0  0  0  0
  127.4270  131.8670   60.0540 C   0  0  0  0  0  0  0  0  0  0  0  0
  126.2020  132.4940   60.2650 C   0  0  0  0  0  0  0  0  0  0  0  0
  126.1670  133.7600   60.8420 C   0  0  0  0  0  0  0  0  0  0  0  0
  127.3450  134.4060   61.2050 C   0  0  0  0  0  0  0  0  0  0  0  0
  128.5700  133.7770   60.9930 C   0  0  0  0  0  0  0  0  0  0  0  0
  130.3290  131.2930   58.9350 C   0  0  0  0  0  0  0  0  0  0  0  0
  129.4180  131.3030   57.7860 C   0  0  0  0  0  0  0  0  0  0  0  0
  128.6990  131.3130   56.8790 N   0  0  0  0  0  0  0  0  0  0  0  0
  131.6290  130.7500   58.8250 C   0  0  0  0  0  0  0  0  0  0  0  0
  132.2970  130.1600   57.2840 S   0  0  0  0  0  0  0  0  0  0  0  0
  132.6010  131.6620   56.3010 C   0  0  0  0  0  0  0  0  0  0  0  0
  131.3930  132.0310   55.4340 C   0  0  0  0  0  0  0  0  0  0  0  0
  131.0300  133.2080   55.3670 O   0  0  0  0  0  0  0  0  0  0  0  0
  130.8280  131.0050   54.7620 N   0  0  0  0  0  0  0  0  0  0  0  0
  129.8190  131.0910   53.8170 C   0  0  0  0  0  0  0  0  0  0  0  0
  129.4820  132.1320   53.0880 N   0  0  0  0  0  0  0  0  0  0  0  0
  128.4910  131.8460   52.2660 C   0  0  0  0  0  0  0  0  0  0  0  0
  128.0020  130.5440   52.3200 C   0  0  0  0  0  0  0  0  0  0  0  0
  128.8950  129.6530   53.5170 S   0  0  0  0  0  0  0  0  0  0  0  0
  132.5010  130.7210   59.8640 N   0  0  0  0  0  0  0  0  0  0  0  0
  1  2  1  0
  2  3  2  0
  3  4  1  0
  4  5  1  0
  5  6  2  0
  6  7  1  0
  7  8  2  0
  8  9  1  0
  9 10  2  0
  4 11  2  0
 11 12  1  0
 12 13  3  0
 11 14  1  0
 14 15  1  0
 15 16  1  0
 16 17  1  0
 17 18  2  0
 17 19  1  0
 19 20  1  0
 20 21  2  0
 21 22  1  0
 22 23  2  0
 23 24  1  0
 14 25  2  0
 25  2  1  0
 10  5  1  0
 24 20  1  0
M  END
>  <Binding energies>  (24) 
[-8.33]

>  <Ligand effiencies>  (24) 
[-0.3203846153846154]

>  <Interactions>  (24) 
["V-A:GLU:543:CD:4908, V-A:ARG:545:CZ:4926, H-A:TYR:531:OH:4795, V-A:LEU:363:CD1:3189, V-A:TYR:531:CE2:4793, V-A:MET:535:CE:4835, V-A:MET:535:CG:4833, H-A:TYR:539:N:4870, V-A:TYR:539:C:4867, V-A:MET:535:CB:4832, V-A:PRO:540:CB:4885, V-A:PRO:540:CA:4883, V-A:TYR:539:CE2:4876, V-A:ALA:541:CB:4892, V-A:TYR:539:CD2:4874, V-A:ASN:362:CB:3176, V-A:ALA:541:CA:4890, V-A:ASN:362:CG:3177, V-A:PRO:540:C:4881, V-A:TYR:531:CZ:4794, V-B:MET:535:CE:9807"]

$$$$
4ba_Grossjean_2025
     RDKit          3D

 28 30  0  0  0  0  0  0  0  0999 V2000
  125.9650  127.9750   66.9670 C   0  0  0  0  0  0  0  0  0  0  0  0
  125.0710  129.2300   66.9790 C   0  0  0  0  0  0  0  0  0  0  0  0
  124.4950  129.6350   65.6070 C   0  0  0  0  0  0  0  0  0  0  0  0
  123.2720  129.6810   65.4510 O   0  0  0  0  0  0  0  0  0  0  0  0
  125.4660  129.9660   64.5120 C   0  0  0  0  0  0  0  0  0  0  0  0
  124.9990  130.1180   63.2000 C   0  0  0  0  0  0  0  0  0  0  0  0
  125.8780  130.4220   62.1650 C   0  0  0  0  0  0  0  0  0  0  0  0
  127.2410  130.5850   62.4190 C   0  0  0  0  0  0  0  0  0  0  0  0
  128.0400  130.8830   61.2990 N   0  0  0  0  0  0  0  0  0  0  0  0
  129.1870  131.6020   61.2120 C   0  0  0  0  0  0  0  0  0  0  0  0
  129.7160  132.1770   62.1640 O   0  0  0  0  0  0  0  0  0  0  0  0
  129.7740  131.6820   59.8730 C   0  0  0  0  0  0  0  0  0  0  0  0
  128.9790  132.6210   58.6120 S   0  0  0  0  0  0  0  0  0  0  0  0
  130.1990  132.1730   57.4440 C   0  0  0  0  0  0  0  0  0  0  0  0
  130.1480  132.6070   56.1850 N   0  0  0  0  0  0  0  0  0  0  0  0
  131.1470  132.1930   55.3730 C   0  0  0  0  0  0  0  0  0  0  0  0
  131.0640  132.6910   53.9410 C   0  0  0  0  0  0  0  0  0  0  0  0
  132.1890  131.3670   55.7870 C   0  0  0  0  0  0  0  0  0  0  0  0
  132.2490  130.9070   57.1120 C   0  0  0  0  0  0  0  0  0  0  0  0
  133.4160  130.0030   57.5210 C   0  0  0  0  0  0  0  0  0  0  0  0
  134.2520  129.7410   56.5140 F   0  0  0  0  0  0  0  0  0  0  0  0
  134.1260  130.5880   58.4870 F   0  0  0  0  0  0  0  0  0  0  0  0
  132.9480  128.8360   57.9650 F   0  0  0  0  0  0  0  0  0  0  0  0
  131.2060  131.3210   57.9930 C   0  0  0  0  0  0  0  0  0  0  0  0
  130.9300  131.0510   59.3830 C   0  0  0  0  0  0  0  0  0  0  0  0
  131.7310  130.2470   60.1540 N   0  0  0  0  0  0  0  0  0  0  0  0
  127.7180  130.4280   63.7290 C   0  0  0  0  0  0  0  0  0  0  0  0
  126.8370  130.1230   64.7630 C   0  0  0  0  0  0  0  0  0  0  0  0
  1  2  1  0
  2  3  1  0
  3  4  2  0
  3  5  1  0
  5  6  2  0
  6  7  1  0
  7  8  2  0
  8  9  1  0
  9 10  1  0
 10 11  2  0
 10 12  1  0
 12 13  1  0
 13 14  1  0
 14 15  2  0
 15 16  1  0
 16 17  1  0
 16 18  2  0
 18 19  1  0
 19 20  1  0
 20 21  1  0
 20 22  1  0
 20 23  1  0
 19 24  2  0
 24 25  1  0
 25 26  1  0
  8 27  1  0
 27 28  2  0
 28  5  1  0
 25 12  2  0
 24 14  1  0
M  END
>  <Binding energies>  (25) 
[-8.24]

>  <Ligand effiencies>  (25) 
[-0.2658064516129032]

>  <Interactions>  (25) 
["V-B:ARG:545:CZ:9898, H-B:GLY:454:N:9021, V-B:HIS:456:CE1:9040, H-B:ARG:545:NH2:9900, V-B:ARG:545:CG:9894, H-B:ARG:545:NH1:9899, V-B:ARG:545:CD:9895, V-B:TYR:484:CZ:9318, V-A:ASP:366:CG:3213, H-A:ASP:366:OD1:3214, H-A:GLU:543:OE1:4909, V-A:ASP:366:CB:3212, V-A:ILE:538:CD1:4865, V-A:ILE:538:C:4858, V-A:ILE:538:CA:4860, V-A:ILE:538:CB:4862, V-A:LEU:363:CD1:3189, V-A:TYR:531:CE2:4793, H-A:TYR:539:N:4870, V-A:TYR:539:C:4867, V-A:LEU:363:CA:3185, V-A:PRO:540:CB:4885, V-A:PRO:540:N:4884, V-A:PRO:540:CA:4883, H-B:ARG:545:NE:9896, V-A:TYR:539:CE2:4876, H-A:ALA:541:N:4891, V-A:TYR:539:CD2:4874, V-A:LEU:363:CB:3187, V-A:ASN:362:C:3172, V-A:TYR:531:CZ:4794, V-A:VAL:537:C:4850, V-A:ILE:538:CG1:4864, V-A:LEU:363:CG:3188"]

$$$$
4bb_Grossjean_2025
     RDKit          3D

 27 29  0  0  0  0  0  0  0  0999 V2000
  125.0590  128.8590   66.9430 C   0  0  0  0  0  0  0  0  0  0  0  0
  124.5480  129.6270   65.7220 C   0  0  0  0  0  0  0  0  0  0  0  0
  123.3620  129.9620   65.7020 O   0  0  0  0  0  0  0  0  0  0  0  0
  125.5130  129.9220   64.6130 C   0  0  0  0  0  0  0  0  0  0  0  0
  125.0230  130.3340   63.3670 C   0  0  0  0  0  0  0  0  0  0  0  0
  125.8970  130.6130   62.3210 C   0  0  0  0  0  0  0  0  0  0  0  0
  127.2770  130.4950   62.5010 C   0  0  0  0  0  0  0  0  0  0  0  0
  128.0680  130.7990   61.3760 N   0  0  0  0  0  0  0  0  0  0  0  0
  129.1620  131.5930   61.2690 C   0  0  0  0  0  0  0  0  0  0  0  0
  129.6440  132.2350   62.2020 O   0  0  0  0  0  0  0  0  0  0  0  0
  129.7450  131.6750   59.9270 C   0  0  0  0  0  0  0  0  0  0  0  0
  128.9520  132.6240   58.6720 S   0  0  0  0  0  0  0  0  0  0  0  0
  130.1710  132.1800   57.5000 C   0  0  0  0  0  0  0  0  0  0  0  0
  130.1260  132.6270   56.2460 N   0  0  0  0  0  0  0  0  0  0  0  0
  131.1240  132.2140   55.4320 C   0  0  0  0  0  0  0  0  0  0  0  0
  131.0540  132.7360   54.0080 C   0  0  0  0  0  0  0  0  0  0  0  0
  132.1560  131.3720   55.8380 C   0  0  0  0  0  0  0  0  0  0  0  0
  132.2090  130.8980   57.1570 C   0  0  0  0  0  0  0  0  0  0  0  0
  133.3640  129.9740   57.5570 C   0  0  0  0  0  0  0  0  0  0  0  0
  134.1960  129.7100   56.5470 F   0  0  0  0  0  0  0  0  0  0  0  0
  134.0820  130.5430   58.5270 F   0  0  0  0  0  0  0  0  0  0  0  0
  132.8820  128.8100   57.9920 F   0  0  0  0  0  0  0  0  0  0  0  0
  131.1700  131.3150   58.0440 C   0  0  0  0  0  0  0  0  0  0  0  0
  130.8960  131.0410   59.4320 C   0  0  0  0  0  0  0  0  0  0  0  0
  131.6980  130.2350   60.2000 N   0  0  0  0  0  0  0  0  0  0  0  0
  127.7740  130.0760   63.7440 C   0  0  0  0  0  0  0  0  0  0  0  0
  126.8980  129.7950   64.7890 C   0  0  0  0  0  0  0  0  0  0  0  0
  1  2  1  0
  2  3  2  0
  2  4  1  0
  4  5  2  0
  5  6  1  0
  6  7  2  0
  7  8  1  0
  8  9  1  0
  9 10  2  0
  9 11  1  0
 11 12  1  0
 12 13  1  0
 13 14  2  0
 14 15  1  0
 15 16  1  0
 15 17  2  0
 17 18  1  0
 18 19  1  0
 19 20  1  0
 19 21  1  0
 19 22  1  0
 18 23  2  0
 23 24  1  0
 24 25  1  0
  7 26  1  0
 26 27  2  0
 27  4  1  0
 24 11  2  0
 23 13  1  0
M  END
>  <Binding energies>  (26) 
[-8.1]

>  <Ligand effiencies>  (26) 
[-0.26999999999999996]

>  <Interactions>  (26) 
["V-B:ARG:545:CZ:9898, H-B:GLY:454:N:9021, V-B:HIS:456:CE1:9040, V-B:ARG:545:CG:9894, V-B:ARG:545:CD:9895, V-A:ASP:366:CG:3213, H-A:ASP:366:OD1:3214, H-B:TYR:484:OH:9319, H-A:GLU:543:OE1:4909, V-A:ASP:366:CB:3212, H-B:ILE:455:N:9026, V-A:ILE:538:CD1:4865, V-A:ILE:538:C:4858, V-A:ILE:538:CA:4860, V-A:ILE:538:CB:4862, V-A:LEU:363:CD1:3189, V-A:TYR:531:CE2:4793, H-A:TYR:539:N:4870, V-A:TYR:539:C:4867, V-A:LEU:363:CA:3185, V-A:PRO:540:CB:4885, V-A:PRO:540:N:4884, V-A:PRO:540:CA:4883, H-B:ARG:545:NE:9896, V-A:TYR:539:CE2:4876, H-A:ALA:541:N:4891, V-A:TYR:539:CD2:4874, V-A:LEU:363:CB:3187, V-A:ASN:362:C:3172, V-A:TYR:531:CZ:4794, V-A:VAL:537:C:4850, V-A:LEU:363:CG:3188"]

$$$$
4bd_Grossjean_2025
     RDKit          3D

 24 26  0  0  0  0  0  0  0  0999 V2000
  127.1500  123.2350   53.8260 C   0  0  0  0  0  0  0  0  0  0  0  0
  126.7680  123.5170   55.2680 C   0  0  0  0  0  0  0  0  0  0  0  0
  125.6350  124.2640   55.5780 C   0  0  0  0  0  0  0  0  0  0  0  0
  125.2950  124.5200   56.9150 C   0  0  0  0  0  0  0  0  0  0  0  0
  124.0410  125.3500   57.2070 C   0  0  0  0  0  0  0  0  0  0  0  0
  123.2300  125.4590   56.1520 F   0  0  0  0  0  0  0  0  0  0  0  0
  123.3420  124.7830   58.1900 F   0  0  0  0  0  0  0  0  0  0  0  0
  124.3900  126.5840   57.5700 F   0  0  0  0  0  0  0  0  0  0  0  0
  126.1540  123.9840   57.9210 C   0  0  0  0  0  0  0  0  0  0  0  0
  126.1300  124.0350   59.3620 C   0  0  0  0  0  0  0  0  0  0  0  0
  125.1470  124.6850   60.0620 N   0  0  0  0  0  0  0  0  0  0  0  0
  127.1980  123.3620   59.9790 C   0  0  0  0  0  0  0  0  0  0  0  0
  127.4900  123.2290   61.4090 C   0  0  0  0  0  0  0  0  0  0  0  0
  126.8020  122.5000   62.1250 O   0  0  0  0  0  0  0  0  0  0  0  0
  128.5530  123.9440   61.8550 N   0  0  0  0  0  0  0  0  0  0  0  0
  129.0650  124.0670   63.1590 C   0  0  0  0  0  0  0  0  0  0  0  0
  129.3700  122.8700   63.8130 C   0  0  0  0  0  0  0  0  0  0  0  0
  129.8920  122.8870   65.1040 C   0  0  0  0  0  0  0  0  0  0  0  0
  130.1170  124.1040   65.7410 C   0  0  0  0  0  0  0  0  0  0  0  0
  129.8290  125.3050   65.0960 C   0  0  0  0  0  0  0  0  0  0  0  0
  129.3070  125.2910   63.8050 C   0  0  0  0  0  0  0  0  0  0  0  0
  128.2680  122.6340   58.7830 S   0  0  0  0  0  0  0  0  0  0  0  0
  127.2850  123.2360   57.4690 C   0  0  0  0  0  0  0  0  0  0  0  0
  127.6020  122.9960   56.1980 N   0  0  0  0  0  0  0  0  0  0  0  0
  1  2  1  0
  2  3  2  0
  3  4  1  0
  4  5  1  0
  5  6  1  0
  5  7  1  0
  5  8  1  0
  4  9  2  0
  9 10  1  0
 10 11  1  0
 10 12  2  0
 12 13  1  0
 13 14  2  0
 13 15  1  0
 15 16  1  0
 16 17  2  0
 17 18  1  0
 18 19  2  0
 19 20  1  0
 20 21  2  0
 12 22  1  0
 22 23  1  0
 23 24  2  0
 24  2  1  0
 23  9  1  0
 21 16  1  0
M  END
>  <Binding energies>  (27) 
[-6.94]

>  <Ligand effiencies>  (27) 
[-0.25703703703703706]

>  <Interactions>  (27) 
["V-A:TYR:484:CZ:4347, V-B:GLU:543:CB:9878, V-A:TYR:484:CE1:4345, V-B:GLU:543:CD:9880, V-B:TYR:539:CE2:9848, V-B:TYR:539:C:9839, V-B:ILE:538:CA:9832, V-B:PRO:540:CA:9855, H-B:ALA:541:N:9863, V-B:LEU:363:CD1:8160, V-B:ILE:538:CB:9834, V-B:TYR:539:CZ:9849, V-B:TYR:539:CE1:9847, V-B:ILE:538:CG2:9835, V-B:TYR:539:CD2:9846, V-B:LEU:363:CA:8156, V-B:GLU:543:CG:9879, V-B:TYR:531:CE2:9765, V-B:ALA:541:CB:9864, V-B:ASP:366:CG:8184, V-B:ASP:366:CB:8183, H-B:GLU:543:OE2:9882, V-B:GLU:543:CA:9876, V-B:TYR:531:CZ:9766, H-B:ASP:366:OD1:8185, V-B:TYR:531:CD2:9763"]

$$$$
4be_Grossjean_2025
     RDKit          3D

 25 27  0  0  0  0  0  0  0  0999 V2000
  128.0410  119.8830   72.7590 C   0  0  0  0  0  0  0  0  0  0  0  0
  129.0890  120.9710   72.6240 C   0  0  0  0  0  0  0  0  0  0  0  0
  130.2270  120.9930   73.4350 C   0  0  0  0  0  0  0  0  0  0  0  0
  131.1480  122.0260   73.2580 C   0  0  0  0  0  0  0  0  0  0  0  0
  130.9130  123.0010   72.2850 C   0  0  0  0  0  0  0  0  0  0  0  0
  129.7560  122.9150   71.5030 C   0  0  0  0  0  0  0  0  0  0  0  0
  129.5740  123.9300   70.5460 N   0  0  0  0  0  0  0  0  0  0  0  0
  129.5470  125.2740   70.7260 C   0  0  0  0  0  0  0  0  0  0  0  0
  129.6930  125.8240   71.8200 O   0  0  0  0  0  0  0  0  0  0  0  0
  129.3060  126.0660   69.5160 C   0  0  0  0  0  0  0  0  0  0  0  0
  128.7670  127.7390   69.6470 S   0  0  0  0  0  0  0  0  0  0  0  0
  128.6970  127.9000   67.9080 C   0  0  0  0  0  0  0  0  0  0  0  0
  128.3270  129.0410   67.3300 N   0  0  0  0  0  0  0  0  0  0  0  0
  128.3130  129.0450   65.9770 C   0  0  0  0  0  0  0  0  0  0  0  0
  127.8850  130.3530   65.3370 C   0  0  0  0  0  0  0  0  0  0  0  0
  128.6610  127.9450   65.1970 C   0  0  0  0  0  0  0  0  0  0  0  0
  129.0530  126.7400   65.7990 C   0  0  0  0  0  0  0  0  0  0  0  0
  129.4290  125.5590   64.8990 C   0  0  0  0  0  0  0  0  0  0  0  0
  128.9940  124.3860   65.3680 F   0  0  0  0  0  0  0  0  0  0  0  0
  128.8970  125.7250   63.6890 F   0  0  0  0  0  0  0  0  0  0  0  0
  130.7550  125.4780   64.7900 F   0  0  0  0  0  0  0  0  0  0  0  0
  129.0730  126.7010   67.2260 C   0  0  0  0  0  0  0  0  0  0  0  0
  129.4060  125.6670   68.1750 C   0  0  0  0  0  0  0  0  0  0  0  0
  129.7920  124.4080   67.7930 N   0  0  0  0  0  0  0  0  0  0  0  0
  128.8470  121.9100   71.6740 N   0  0  0  0  0  0  0  0  0  0  0  0
  1  2  1  0
  2  3  2  0
  3  4  1  0
  4  5  2  0
  5  6  1  0
  6  7  1  0
  7  8  1  0
  8  9  2  0
  8 10  1  0
 10 11  1  0
 11 12  1  0
 12 13  2  0
 13 14  1  0
 14 15  1  0
 14 16  2  0
 16 17  1  0
 17 18  1  0
 18 19  1  0
 18 20  1  0
 18 21  1  0
 17 22  2  0
 22 23  1  0
 23 24  1  0
  6 25  2  0
 25  2  1  0
 23 10  2  0
 22 12  1  0
M  END
>  <Binding energies>  (28) 
[-7.1]

>  <Ligand effiencies>  (28) 
[-0.25357142857142856]

>  <Interactions>  (28) 
["V-A:HIS:456:CE1:4069, V-A:HIS:456:CD2:4068, V-A:TYR:484:CZ:4347, H-B:LYS:547:NZ:9923, H-A:HIS:456:ND1:4067, V-B:GLU:543:CB:9878, V-B:HIS:456:CE1:9040, V-A:TYR:484:CE2:4346, V-A:HIS:456:CG:4066, V-B:GLU:543:C:9874, V-A:TYR:484:CD2:4344, H-A:TYR:484:OH:4348, V-A:TYR:484:CD1:4343, H-B:HIS:456:NE2:9041, H-B:GLU:543:O:9875, V-A:TYR:484:CE1:4345, V-A:TYR:484:CG:4342, V-B:GLU:543:CD:9880, V-A:GLU:543:CD:4908, V-A:ASP:473:CB:4239, V-A:HIS:456:CB:4065, V-A:ASP:473:CG:4240, V-A:GLU:543:CB:4906, V-A:GLU:543:CG:4907, V-B:GLU:543:CG:9879, V-B:GLU:543:CA:9876, H-A:HIS:456:NE2:4070, V-B:LYS:547:CE:9922, V-A:TYR:484:CB:4341"]

$$$$
4bg_Grossjean_2025
     RDKit          3D

 25 27  0  0  0  0  0  0  0  0999 V2000
  130.9350  132.2690   53.4810 C   0  0  0  0  0  0  0  0  0  0  0  0
  131.0850  131.9460   54.9560 C   0  0  0  0  0  0  0  0  0  0  0  0
  132.1380  131.1590   55.4140 C   0  0  0  0  0  0  0  0  0  0  0  0
  132.2620  130.8630   56.7820 C   0  0  0  0  0  0  0  0  0  0  0  0
  133.4370  129.9930   57.2390 C   0  0  0  0  0  0  0  0  0  0  0  0
  134.2310  129.6180   56.2330 F   0  0  0  0  0  0  0  0  0  0  0  0
  134.1880  130.6700   58.1080 F   0  0  0  0  0  0  0  0  0  0  0  0
  132.9790  128.8850   57.8210 F   0  0  0  0  0  0  0  0  0  0  0  0
  131.2740  131.4030   57.6570 C   0  0  0  0  0  0  0  0  0  0  0  0
  131.0710  131.3130   59.0820 C   0  0  0  0  0  0  0  0  0  0  0  0
  131.9000  130.5940   59.9070 N   0  0  0  0  0  0  0  0  0  0  0  0
  129.9590  132.0310   59.5480 C   0  0  0  0  0  0  0  0  0  0  0  0
  129.4470  132.1340   60.9150 C   0  0  0  0  0  0  0  0  0  0  0  0
  130.1620  131.8960   61.8890 O   0  0  0  0  0  0  0  0  0  0  0  0
  128.1650  132.5390   61.0360 N   0  0  0  0  0  0  0  0  0  0  0  0
  127.4410  132.6980   62.2970 C   0  0  0  0  0  0  0  0  0  0  0  0
  126.0220  133.2240   62.1230 C   0  0  0  0  0  0  0  0  0  0  0  0
  125.7890  134.3790   61.3710 C   0  0  0  0  0  0  0  0  0  0  0  0
  124.4880  134.8360   61.1820 C   0  0  0  0  0  0  0  0  0  0  0  0
  123.4210  134.1280   61.7320 C   0  0  0  0  0  0  0  0  0  0  0  0
  123.6440  132.9670   62.4670 C   0  0  0  0  0  0  0  0  0  0  0  0
  124.9460  132.5110   62.6580 C   0  0  0  0  0  0  0  0  0  0  0  0
  129.1000  132.8140   58.2240 S   0  0  0  0  0  0  0  0  0  0  0  0
  130.2500  132.2000   57.0590 C   0  0  0  0  0  0  0  0  0  0  0  0
  130.1360  132.4760   55.7600 N   0  0  0  0  0  0  0  0  0  0  0  0
  1  2  1  0
  2  3  2  0
  3  4  1  0
  4  5  1  0
  5  6  1  0
  5  7  1  0
  5  8  1  0
  4  9  2  0
  9 10  1  0
 10 11  1  0
 10 12  2  0
 12 13  1  0
 13 14  2  0
 13 15  1  0
 15 16  1  0
 16 17  1  0
 17 18  2  0
 18 19  1  0
 19 20  2  0
 20 21  1  0
 21 22  2  0
 12 23  1  0
 23 24  1  0
 24 25  2  0
 25  2  1  0
 24  9  1  0
 22 17  1  0
M  END
>  <Binding energies>  (29) 
[-7.18]

>  <Ligand effiencies>  (29) 
[-0.2564285714285714]

>  <Interactions>  (29) 
["V-B:GLY:454:CA:9020, V-A:ASP:366:CG:3213, H-A:ASP:366:OD1:3214, H-A:GLU:543:OE1:4909, V-A:ASP:366:CB:3212, V-A:ILE:538:CD1:4865, V-A:ILE:538:CA:4860, V-A:LEU:363:CD1:3189, V-A:TYR:531:CE2:4793, H-A:TYR:539:N:4870, V-A:TYR:539:C:4867, V-A:LEU:363:CA:3185, V-A:MET:535:CB:4832, V-A:TYR:539:CG:4872, V-A:PRO:540:CB:4885, V-A:PRO:540:N:4884, V-A:PRO:540:CA:4883, V-B:LEU:475:CD1:9229, V-A:TYR:539:CE2:4876, H-A:ALA:541:N:4891, V-A:ALA:541:CB:4892, V-A:TYR:539:CD2:4874, H-A:TYR:539:O:4868, V-A:LEU:363:CB:3187, V-A:ASN:362:C:3172, V-B:ILE:369:CG2:8208, V-B:TRP:381:CZ2:8341, V-B:TRP:381:CH2:8343, V-B:ILE:369:CD1:8210, V-A:TYR:531:CZ:4794, V-A:VAL:537:C:4850, V-A:LEU:363:C:3183, V-A:LEU:363:CG:3188, V-A:TYR:531:CD2:4791"]

$$$$
4ca_Grossjean_2025
     RDKit          3D

 34 37  0  0  0  0  0  0  0  0999 V2000
  127.8170  123.3950   53.5380 C   0  0  0  0  0  0  0  0  0  0  0  0
  127.8450  123.5870   55.0570 C   0  0  0  0  0  0  0  0  0  0  0  0
  127.3850  122.4020   55.6930 O   0  0  0  0  0  0  0  0  0  0  0  0
  126.3690  122.4380   56.5950 C   0  0  0  0  0  0  0  0  0  0  0  0
  125.2020  122.1450   56.3160 O   0  0  0  0  0  0  0  0  0  0  0  0
  126.8080  122.8660   57.9640 C   0  0  0  0  0  0  0  0  0  0  0  0
  126.1310  123.9120   58.6040 C   0  0  0  0  0  0  0  0  0  0  0  0
  126.5120  124.3290   59.8770 C   0  0  0  0  0  0  0  0  0  0  0  0
  127.5790  123.7150   60.5320 C   0  0  0  0  0  0  0  0  0  0  0  0
  127.8730  124.2090   61.8180 N   0  0  0  0  0  0  0  0  0  0  0  0
  129.0610  124.5710   62.3640 C   0  0  0  0  0  0  0  0  0  0  0  0
  130.1310  124.5650   61.7550 O   0  0  0  0  0  0  0  0  0  0  0  0
  129.0000  125.0040   63.7610 C   0  0  0  0  0  0  0  0  0  0  0  0
  129.4860  123.9060   65.0510 S   0  0  0  0  0  0  0  0  0  0  0  0
  129.1780  125.1250   66.2650 C   0  0  0  0  0  0  0  0  0  0  0  0
  129.3790  124.8810   67.5580 N   0  0  0  0  0  0  0  0  0  0  0  0
  129.1260  125.8940   68.4280 C   0  0  0  0  0  0  0  0  0  0  0  0
  129.3710  125.5910   69.8780 C   0  0  0  0  0  0  0  0  0  0  0  0
  129.0070  126.5100   70.8750 C   0  0  0  0  0  0  0  0  0  0  0  0
  129.2360  126.2380   72.2210 C   0  0  0  0  0  0  0  0  0  0  0  0
  129.8360  125.0390   72.5910 C   0  0  0  0  0  0  0  0  0  0  0  0
  130.2090  124.1120   71.6230 C   0  0  0  0  0  0  0  0  0  0  0  0
  129.9780  124.3880   70.2780 C   0  0  0  0  0  0  0  0  0  0  0  0
  128.6520  127.1370   67.9960 C   0  0  0  0  0  0  0  0  0  0  0  0
  128.4330  127.4020   66.6350 C   0  0  0  0  0  0  0  0  0  0  0  0
  127.9160  128.7880   66.2320 C   0  0  0  0  0  0  0  0  0  0  0  0
  126.6120  128.7980   65.9480 F   0  0  0  0  0  0  0  0  0  0  0  0
  128.1140  129.6510   67.2280 F   0  0  0  0  0  0  0  0  0  0  0  0
  128.5630  129.2120   65.1460 F   0  0  0  0  0  0  0  0  0  0  0  0
  128.7120  126.3530   65.7130 C   0  0  0  0  0  0  0  0  0  0  0  0
  128.6220  126.2550   64.2770 C   0  0  0  0  0  0  0  0  0  0  0  0
  128.2010  127.2960   63.4890 N   0  0  0  0  0  0  0  0  0  0  0  0
  128.2610  122.6630   59.9020 C   0  0  0  0  0  0  0  0  0  0  0  0
  127.8770  122.2460   58.6300 C   0  0  0  0  0  0  0  0  0  0  0  0
  1  2  1  0
  2  3  1  0
  3  4  1  0
  4  5  2  0
  4  6  1  0
  6  7  2  0
  7  8  1  0
  8  9  2  0
  9 10  1  0
 10 11  1  0
 11 12  2  0
 11 13  1  0
 13 14  1  0
 14 15  1  0
 15 16  2  0
 16 17  1  0
 17 18  1  0
 18 19  2  0
 19 20  1  0
 20 21  2  0
 21 22  1  0
 22 23  2  0
 17 24  2  0
 24 25  1  0
 25 26  1  0
 26 27  1  0
 26 28  1  0
 26 29  1  0
 25 30  2  0
 30 31  1  0
 31 32  1  0
  9 33  1  0
 33 34  2  0
 34  6  1  0
 31 13  2  0
 30 15  1  0
 23 18  1  0
M  END
>  <Binding energies>  (30) 
[-8.35]

>  <Ligand effiencies>  (30) 
[-0.22567567567567567]

>  <Interactions>  (30) 
["V-A:HIS:456:CE1:4069, V-A:HIS:456:CD2:4068, V-A:TYR:484:CZ:4347, V-B:GLU:543:CB:9878, V-B:HIS:456:CE1:9040, V-A:HIS:456:CG:4066, H-A:TYR:484:OH:4348, H-B:GLU:543:OE1:9881, V-A:TYR:484:CE1:4345, V-B:GLU:543:CD:9880, V-A:GLU:543:CD:4908, V-B:TYR:539:CE2:9848, V-B:TYR:539:C:9839, V-B:PRO:540:N:9856, V-B:TYR:484:CZ:9318, V-A:GLU:543:CB:4906, V-B:ILE:538:CA:9832, V-A:GLU:543:CG:4907, V-B:PRO:540:CA:9855, V-B:PRO:540:CD:9859, V-B:ILE:538:CB:9834, V-B:TYR:539:CZ:9849, H-B:TYR:539:N:9842, V-B:PRO:540:CB:9857, V-B:TYR:539:CE1:9847, H-A:GLU:543:OE1:4909, V-B:ILE:538:CG2:9835, V-B:TYR:539:CD2:9846, V-B:GLU:543:CG:9879, V-B:TYR:539:CG:9844, H-B:GLU:543:OE2:9882, V-B:GLU:543:CA:9876, V-B:TYR:484:CE1:9316"]

$$$$
4cb_Grossjean_2025
     RDKit          3D

 33 36  0  0  0  0  0  0  0  0999 V2000
  127.3990  123.2990   54.5860 C   0  0  0  0  0  0  0  0  0  0  0  0
  127.3640  122.3830   55.6720 O   0  0  0  0  0  0  0  0  0  0  0  0
  126.3660  122.4270   56.5900 C   0  0  0  0  0  0  0  0  0  0  0  0
  125.1950  122.1260   56.3390 O   0  0  0  0  0  0  0  0  0  0  0  0
  126.8270  122.8770   57.9480 C   0  0  0  0  0  0  0  0  0  0  0  0
  125.9820  123.6780   58.7260 C   0  0  0  0  0  0  0  0  0  0  0  0
  126.3780  124.1040   59.9910 C   0  0  0  0  0  0  0  0  0  0  0  0
  127.6260  123.7450   60.5000 C   0  0  0  0  0  0  0  0  0  0  0  0
  127.9170  124.2190   61.7940 N   0  0  0  0  0  0  0  0  0  0  0  0
  129.1120  124.4340   62.3960 C   0  0  0  0  0  0  0  0  0  0  0  0
  130.2030  124.2800   61.8450 O   0  0  0  0  0  0  0  0  0  0  0  0
  129.0380  124.8970   63.7850 C   0  0  0  0  0  0  0  0  0  0  0  0
  129.5260  123.8310   65.1010 S   0  0  0  0  0  0  0  0  0  0  0  0
  129.1980  125.0720   66.2880 C   0  0  0  0  0  0  0  0  0  0  0  0
  129.3900  124.8600   67.5870 N   0  0  0  0  0  0  0  0  0  0  0  0
  129.1180  125.8880   68.4330 C   0  0  0  0  0  0  0  0  0  0  0  0
  129.3490  125.6190   69.8910 C   0  0  0  0  0  0  0  0  0  0  0  0
  129.8930  124.3980   70.3190 C   0  0  0  0  0  0  0  0  0  0  0  0
  130.1070  124.1400   71.6710 C   0  0  0  0  0  0  0  0  0  0  0  0
  129.7790  125.1050   72.6170 C   0  0  0  0  0  0  0  0  0  0  0  0
  129.2360  126.3240   72.2210 C   0  0  0  0  0  0  0  0  0  0  0  0
  129.0220  126.5750   70.8690 C   0  0  0  0  0  0  0  0  0  0  0  0
  128.6330  127.1160   67.9700 C   0  0  0  0  0  0  0  0  0  0  0  0
  128.4240  127.3490   66.6020 C   0  0  0  0  0  0  0  0  0  0  0  0
  127.8940  128.7200   66.1630 C   0  0  0  0  0  0  0  0  0  0  0  0
  128.4830  129.1790   65.0570 F   0  0  0  0  0  0  0  0  0  0  0  0
  126.5870  128.6370   65.9140 F   0  0  0  0  0  0  0  0  0  0  0  0
  128.1020  129.6150   67.1280 F   0  0  0  0  0  0  0  0  0  0  0  0
  128.7230  126.2830   65.7050 C   0  0  0  0  0  0  0  0  0  0  0  0
  128.6460  126.1550   64.2700 C   0  0  0  0  0  0  0  0  0  0  0  0
  128.2250  127.1760   63.4570 N   0  0  0  0  0  0  0  0  0  0  0  0
  128.4770  122.9400   59.7280 C   0  0  0  0  0  0  0  0  0  0  0  0
  128.0800  122.5140   58.4650 C   0  0  0  0  0  0  0  0  0  0  0  0
  1  2  1  0
  2  3  1  0
  3  4  2  0
  3  5  1  0
  5  6  2  0
  6  7  1  0
  7  8  2  0
  8  9  1  0
  9 10  1  0
 10 11  2  0
 10 12  1  0
 12 13  1  0
 13 14  1  0
 14 15  2  0
 15 16  1  0
 16 17  1  0
 17 18  2  0
 18 19  1  0
 19 20  2  0
 20 21  1  0
 21 22  2  0
 16 23  2  0
 23 24  1  0
 24 25  1  0
 25 26  1  0
 25 27  1  0
 25 28  1  0
 24 29  2  0
 29 30  1  0
 30 31  1  0
  8 32  1  0
 32 33  2  0
 33  5  1  0
 30 12  2  0
 29 14  1  0
 22 17  1  0
M  END
>  <Binding energies>  (31) 
[-8.06]

>  <Ligand effiencies>  (31) 
[-0.22388888888888892]

>  <Interactions>  (31) 
["V-A:HIS:456:CE1:4069, V-A:HIS:456:CD2:4068, V-A:TYR:484:CZ:4347, V-B:GLU:543:CB:9878, V-B:HIS:456:CE1:9040, V-A:HIS:456:CG:4066, H-A:TYR:484:OH:4348, H-B:GLU:543:OE1:9881, V-A:TYR:484:CE1:4345, V-B:GLU:543:CD:9880, V-A:GLU:543:CD:4908, V-B:TYR:539:CE2:9848, V-B:TYR:539:C:9839, V-B:PRO:540:N:9856, V-B:TYR:484:CZ:9318, V-A:GLU:543:CB:4906, V-B:ILE:538:CA:9832, V-A:GLU:543:CG:4907, V-B:PRO:540:CA:9855, V-B:PRO:540:CD:9859, V-B:ILE:538:CB:9834, V-B:TYR:539:CZ:9849, H-B:TYR:539:N:9842, V-B:PRO:540:CB:9857, V-B:TYR:539:CE1:9847, H-A:GLU:543:OE1:4909, V-B:ILE:538:CG2:9835, V-B:TYR:539:CD2:9846, V-B:GLU:543:CG:9879, V-B:TYR:539:CG:9844, H-B:GLU:543:OE2:9882, V-B:GLU:543:CA:9876, V-B:TYR:484:CE1:9316"]

$$$$
4cc_Grossjean_2025
     RDKit          3D

 31 34  0  0  0  0  0  0  0  0999 V2000
  126.7450  122.8630   55.5510 C   0  0  0  0  0  0  0  0  0  0  0  0
  126.3770  122.1290   56.7140 O   0  0  0  0  0  0  0  0  0  0  0  0
  126.8280  122.5530   57.9490 C   0  0  0  0  0  0  0  0  0  0  0  0
  126.0230  123.4690   58.6240 C   0  0  0  0  0  0  0  0  0  0  0  0
  126.3940  123.9520   59.8760 C   0  0  0  0  0  0  0  0  0  0  0  0
  127.5860  123.5300   60.4670 C   0  0  0  0  0  0  0  0  0  0  0  0
  127.8700  124.0600   61.7400 N   0  0  0  0  0  0  0  0  0  0  0  0
  129.0520  124.4880   62.2450 C   0  0  0  0  0  0  0  0  0  0  0  0
  130.1060  124.5110   61.6070 O   0  0  0  0  0  0  0  0  0  0  0  0
  129.0140  124.9410   63.6390 C   0  0  0  0  0  0  0  0  0  0  0  0
  129.4980  123.8550   64.9400 S   0  0  0  0  0  0  0  0  0  0  0  0
  129.1850  125.0830   66.1430 C   0  0  0  0  0  0  0  0  0  0  0  0
  129.3800  124.8520   67.4390 N   0  0  0  0  0  0  0  0  0  0  0  0
  129.1180  125.8710   68.2980 C   0  0  0  0  0  0  0  0  0  0  0  0
  129.3440  125.5800   69.7530 C   0  0  0  0  0  0  0  0  0  0  0  0
  129.9270  124.3690   70.1610 C   0  0  0  0  0  0  0  0  0  0  0  0
  130.1380  124.0910   71.5100 C   0  0  0  0  0  0  0  0  0  0  0  0
  129.7670  125.0230   72.4720 C   0  0  0  0  0  0  0  0  0  0  0  0
  129.1840  126.2290   72.0960 C   0  0  0  0  0  0  0  0  0  0  0  0
  128.9740  126.5020   70.7470 C   0  0  0  0  0  0  0  0  0  0  0  0
  128.6470  127.1100   67.8540 C   0  0  0  0  0  0  0  0  0  0  0  0
  128.4370  127.3640   66.4890 C   0  0  0  0  0  0  0  0  0  0  0  0
  127.9250  128.7470   66.0710 C   0  0  0  0  0  0  0  0  0  0  0  0
  126.6250  128.7550   65.7640 F   0  0  0  0  0  0  0  0  0  0  0  0
  128.1040  129.6140   67.0670 F   0  0  0  0  0  0  0  0  0  0  0  0
  128.5910  129.1690   64.9960 F   0  0  0  0  0  0  0  0  0  0  0  0
  128.7170  126.3060   65.5780 C   0  0  0  0  0  0  0  0  0  0  0  0
  128.6250  126.1930   64.1430 C   0  0  0  0  0  0  0  0  0  0  0  0
  128.1960  127.2230   63.3440 N   0  0  0  0  0  0  0  0  0  0  0  0
  128.3960  122.5990   59.7990 C   0  0  0  0  0  0  0  0  0  0  0  0
  128.0200  122.1180   58.5480 C   0  0  0  0  0  0  0  0  0  0  0  0
  1  2  1  0
  2  3  1  0
  3  4  2  0
  4  5  1  0
  5  6  2  0
  6  7  1  0
  7  8  1  0
  8  9  2  0
  8 10  1  0
 10 11  1  0
 11 12  1  0
 12 13  2  0
 13 14  1  0
 14 15  1  0
 15 16  2  0
 16 17  1  0
 17 18  2  0
 18 19  1  0
 19 20  2  0
 14 21  2  0
 21 22  1  0
 22 23  1  0
 23 24  1  0
 23 25  1  0
 23 26  1  0
 22 27  2  0
 27 28  1  0
 28 29  1  0
  6 30  1  0
 30 31  2  0
 31  3  1  0
 28 10  2  0
 27 12  1  0
 20 15  1  0
M  END
>  <Binding energies>  (32) 
[-7.34]

>  <Ligand effiencies>  (32) 
[-0.21588235294117647]

>  <Interactions>  (32) 
["V-A:HIS:456:CE1:4069, V-A:HIS:456:CD2:4068, V-A:TYR:484:CZ:4347, V-B:GLU:543:CB:9878, V-B:HIS:456:CE1:9040, V-A:HIS:456:CG:4066, V-B:GLU:543:C:9874, H-A:TYR:484:OH:4348, V-A:TYR:484:CD1:4343, H-B:GLU:543:OE1:9881, V-A:TYR:484:CE1:4345, V-B:GLU:543:CD:9880, V-A:GLU:543:CD:4908, V-B:TYR:539:CE2:9848, V-B:TYR:539:C:9839, V-B:PRO:540:N:9856, V-B:TYR:484:CZ:9318, V-A:GLU:543:CB:4906, V-B:ILE:538:CA:9832, V-A:GLU:543:CG:4907, V-B:PRO:540:CA:9855, V-B:PRO:540:CD:9859, V-B:ILE:538:CB:9834, V-B:TYR:539:CZ:9849, H-B:TYR:539:N:9842, V-B:PRO:540:CB:9857, H-A:GLU:543:OE1:4909, V-B:ILE:538:CG2:9835, V-B:TYR:539:CD2:9846, V-B:GLU:543:CG:9879, V-B:TYR:539:CG:9844, H-B:GLU:543:OE2:9882, V-B:GLU:543:CA:9876, V-B:TYR:484:CE1:9316"]

$$$$
4ce_Grossjean_2025
     RDKit          3D

 30 33  0  0  0  0  0  0  0  0999 V2000
  128.5790  119.7130   73.3700 C   0  0  0  0  0  0  0  0  0  0  0  0
  129.4920  120.8830   73.0550 C   0  0  0  0  0  0  0  0  0  0  0  0
  130.7160  121.0520   73.7100 C   0  0  0  0  0  0  0  0  0  0  0  0
  131.5080  122.1470   73.3640 C   0  0  0  0  0  0  0  0  0  0  0  0
  131.0650  123.0360   72.3820 C   0  0  0  0  0  0  0  0  0  0  0  0
  129.8270  122.8110   71.7700 C   0  0  0  0  0  0  0  0  0  0  0  0
  129.4470  123.7270   70.7730 N   0  0  0  0  0  0  0  0  0  0  0  0
  129.1840  125.0520   70.8930 C   0  0  0  0  0  0  0  0  0  0  0  0
  129.2630  125.6720   71.9550 O   0  0  0  0  0  0  0  0  0  0  0  0
  128.7890  125.7310   69.6560 C   0  0  0  0  0  0  0  0  0  0  0  0
  127.5240  126.9570   69.6830 S   0  0  0  0  0  0  0  0  0  0  0  0
  127.7080  127.2480   67.9700 C   0  0  0  0  0  0  0  0  0  0  0  0
  126.9660  128.1520   67.3360 N   0  0  0  0  0  0  0  0  0  0  0  0
  127.1920  128.3190   66.0060 C   0  0  0  0  0  0  0  0  0  0  0  0
  126.3430  129.3490   65.3220 C   0  0  0  0  0  0  0  0  0  0  0  0
  124.9530  129.3800   65.5210 C   0  0  0  0  0  0  0  0  0  0  0  0
  124.1590  130.3290   64.8840 C   0  0  0  0  0  0  0  0  0  0  0  0
  124.7450  131.2650   64.0390 C   0  0  0  0  0  0  0  0  0  0  0  0
  126.1180  131.2570   63.8240 C   0  0  0  0  0  0  0  0  0  0  0  0
  126.9100  130.3040   64.4600 C   0  0  0  0  0  0  0  0  0  0  0  0
  128.1450  127.5620   65.3160 C   0  0  0  0  0  0  0  0  0  0  0  0
  128.9290  126.6010   65.9750 C   0  0  0  0  0  0  0  0  0  0  0  0
  129.9560  125.8090   65.1600 C   0  0  0  0  0  0  0  0  0  0  0  0
  131.1850  125.8550   65.6770 F   0  0  0  0  0  0  0  0  0  0  0  0
  129.5950  124.5260   65.1040 F   0  0  0  0  0  0  0  0  0  0  0  0
  130.0250  126.2990   63.9230 F   0  0  0  0  0  0  0  0  0  0  0  0
  128.7120  126.4290   67.3730 C   0  0  0  0  0  0  0  0  0  0  0  0
  129.3130  125.5690   68.3630 C   0  0  0  0  0  0  0  0  0  0  0  0
  130.3080  124.6760   68.0630 N   0  0  0  0  0  0  0  0  0  0  0  0
  129.0480  121.7390   72.1000 N   0  0  0  0  0  0  0  0  0  0  0  0
  1  2  1  0
  2  3  2  0
  3  4  1  0
  4  5  2  0
  5  6  1  0
  6  7  1  0
  7  8  1  0
  8  9  2  0
  8 10  1  0
 10 11  1  0
 11 12  1  0
 12 13  2  0
 13 14  1  0
 14 15  1  0
 15 16  2  0
 16 17  1  0
 17 18  2  0
 18 19  1  0
 19 20  2  0
 14 21  2  0
 21 22  1  0
 22 23  1  0
 23 24  1  0
 23 25  1  0
 23 26  1  0
 22 27  2  0
 27 28  1  0
 28 29  1  0
  6 30  2  0
 30  2  1  0
 28 10  2  0
 27 12  1  0
 20 15  1  0
M  END
>  <Binding energies>  (33) 
[-8.14]

>  <Ligand effiencies>  (33) 
[-0.24666666666666667]

>  <Interactions>  (33) 
["V-A:HIS:456:CE1:4069, V-A:HIS:456:CD2:4068, V-A:TYR:484:CZ:4347, V-B:ARG:545:CZ:9898, H-B:LYS:547:NZ:9923, H-A:HIS:456:ND1:4067, V-B:GLU:543:CB:9878, V-B:HIS:456:CE1:9040, V-A:TYR:484:CE2:4346, V-A:HIS:456:CG:4066, V-B:GLU:543:C:9874, V-B:GLY:454:CA:9020, V-A:TYR:484:CD2:4344, H-A:TYR:484:OH:4348, V-A:TYR:484:CD1:4343, H-B:GLU:543:O:9875, V-A:TYR:484:CE1:4345, V-B:ARG:545:CD:9895, V-A:TYR:484:CG:4342, V-B:GLU:543:CD:9880, V-A:GLU:543:CD:4908, V-A:ASP:473:CB:4239, V-A:HIS:456:CB:4065, V-A:ASP:473:CG:4240, V-B:GLU:543:CG:9879, V-B:GLY:544:C:9884, V-B:LYS:547:CE:9922, V-A:TYR:484:CB:4341"]

$$$$
4cf_Grossjean_2025
     RDKit          3D

 29 32  0  0  0  0  0  0  0  0999 V2000
  129.7420  131.3290   62.5570 N   0  0  0  0  0  0  0  0  0  0  0  0
  128.9560  131.5120   61.4480 C   0  0  0  0  0  0  0  0  0  0  0  0
  127.5650  131.6910   61.5120 C   0  0  0  0  0  0  0  0  0  0  0  0
  126.6960  131.6840   62.6930 C   0  0  0  0  0  0  0  0  0  0  0  0
  126.1680  132.7240   63.0890 O   0  0  0  0  0  0  0  0  0  0  0  0
  126.5230  130.4750   63.2790 N   0  0  0  0  0  0  0  0  0  0  0  0
  125.8030  130.1340   64.4400 C   0  0  0  0  0  0  0  0  0  0  0  0
  126.2780  129.3200   65.4860 C   0  0  0  0  0  0  0  0  0  0  0  0
  125.4520  129.0480   66.5790 C   0  0  0  0  0  0  0  0  0  0  0  0
  124.1680  129.5940   66.5990 C   0  0  0  0  0  0  0  0  0  0  0  0
  123.6840  130.3750   65.6000 N   0  0  0  0  0  0  0  0  0  0  0  0
  124.4980  130.6290   64.5440 C   0  0  0  0  0  0  0  0  0  0  0  0
  126.8760  131.9040   59.9050 S   0  0  0  0  0  0  0  0  0  0  0  0
  128.4500  131.7450   59.1600 C   0  0  0  0  0  0  0  0  0  0  0  0
  128.6040  131.8140   57.8390 N   0  0  0  0  0  0  0  0  0  0  0  0
  129.8640  131.6620   57.3530 C   0  0  0  0  0  0  0  0  0  0  0  0
  130.0060  131.7370   55.8610 C   0  0  0  0  0  0  0  0  0  0  0  0
  129.1190  131.0470   55.0200 C   0  0  0  0  0  0  0  0  0  0  0  0
  129.2430  131.1120   53.6350 C   0  0  0  0  0  0  0  0  0  0  0  0
  130.2600  131.8730   53.0690 C   0  0  0  0  0  0  0  0  0  0  0  0
  131.1520  132.5700   53.8790 C   0  0  0  0  0  0  0  0  0  0  0  0
  131.0230  132.5020   55.2630 C   0  0  0  0  0  0  0  0  0  0  0  0
  130.9630  131.4670   58.1950 C   0  0  0  0  0  0  0  0  0  0  0  0
  130.8110  131.3970   59.5890 C   0  0  0  0  0  0  0  0  0  0  0  0
  132.0580  131.1760   60.4520 C   0  0  0  0  0  0  0  0  0  0  0  0
  132.2550  132.1450   61.3480 F   0  0  0  0  0  0  0  0  0  0  0  0
  131.9440  130.0300   61.1240 F   0  0  0  0  0  0  0  0  0  0  0  0
  133.1420  131.1260   59.6770 F   0  0  0  0  0  0  0  0  0  0  0  0
  129.4920  131.5370   60.1090 C   0  0  0  0  0  0  0  0  0  0  0  0
  1  2  1  0
  2  3  2  0
  3  4  1  0
  4  5  2  0
  4  6  1  0
  6  7  1  0
  7  8  2  0
  8  9  1  0
  9 10  2  0
 10 11  1  0
 11 12  2  0
  3 13  1  0
 13 14  1  0
 14 15  2  0
 15 16  1  0
 16 17  1  0
 17 18  2  0
 18 19  1  0
 19 20  2  0
 20 21  1  0
 21 22  2  0
 16 23  2  0
 23 24  1  0
 24 25  1  0
 25 26  1  0
 25 27  1  0
 25 28  1  0
 24 29  2  0
 29  2  1  0
 12  7  1  0
 29 14  1  0
 22 17  1  0
M  END
>  <Binding energies>  (34) 
[-7.75]

>  <Ligand effiencies>  (34) 
[-0.2421875]

>  <Interactions>  (34) 
["V-B:ARG:545:CZ:9898, H-B:GLY:454:N:9021, V-B:HIS:456:CE1:9040, V-B:ARG:545:CG:9894, V-B:GLY:454:CA:9020, V-B:ARG:545:CD:9895, V-A:GLU:543:CD:4908, H-B:TYR:484:OH:9319, H-A:GLU:543:OE1:4909, H-B:ILE:455:N:9026, V-A:ILE:538:CD1:4865, V-A:ILE:538:CA:4860, V-A:ILE:538:CB:4862, V-A:MET:535:CG:4833, V-A:MET:535:CB:4832, V-A:PRO:540:CB:4885, V-A:PRO:540:N:4884, V-A:TYR:539:CE1:4875, V-A:PRO:540:CA:4883, V-A:TYR:539:CE2:4876, V-A:ALA:541:CB:4892, V-A:ALA:541:CA:4890, V-A:PRO:540:C:4881, V-A:ILE:538:CG1:4864"]

$$$$
4ci_Grossjean_2025
     RDKit          3D

 28 31  0  0  0  0  0  0  0  0999 V2000
  129.9130  124.3830   67.6820 N   0  0  0  0  0  0  0  0  0  0  0  0
  129.4180  125.6200   68.0040 C   0  0  0  0  0  0  0  0  0  0  0  0
  129.2790  126.0720   69.3270 C   0  0  0  0  0  0  0  0  0  0  0  0
  129.6190  125.3750   70.5710 C   0  0  0  0  0  0  0  0  0  0  0  0
  129.7550  126.0010   71.6250 O   0  0  0  0  0  0  0  0  0  0  0  0
  129.7780  124.0330   70.4630 N   0  0  0  0  0  0  0  0  0  0  0  0
  130.1020  123.1350   71.4720 C   0  0  0  0  0  0  0  0  0  0  0  0
  131.2890  123.2040   72.2010 C   0  0  0  0  0  0  0  0  0  0  0  0
  131.2260  122.1530   73.0870 C   0  0  0  0  0  0  0  0  0  0  0  0
  130.0610  121.4870   72.9020 O   0  0  0  0  0  0  0  0  0  0  0  0
  129.3580  122.1190   71.8750 N   0  0  0  0  0  0  0  0  0  0  0  0
  128.6240  127.7070   69.3760 S   0  0  0  0  0  0  0  0  0  0  0  0
  128.5330  127.7710   67.6310 C   0  0  0  0  0  0  0  0  0  0  0  0
  128.0760  128.8480   66.9970 N   0  0  0  0  0  0  0  0  0  0  0  0
  128.0450  128.8070   65.6400 C   0  0  0  0  0  0  0  0  0  0  0  0
  127.5200  130.0350   64.9540 C   0  0  0  0  0  0  0  0  0  0  0  0
  126.2590  130.0320   64.3360 C   0  0  0  0  0  0  0  0  0  0  0  0
  125.7660  131.1680   63.6990 C   0  0  0  0  0  0  0  0  0  0  0  0
  126.5320  132.3290   63.6700 C   0  0  0  0  0  0  0  0  0  0  0  0
  127.7850  132.3590   64.2700 C   0  0  0  0  0  0  0  0  0  0  0  0
  128.2750  131.2210   64.9040 C   0  0  0  0  0  0  0  0  0  0  0  0
  128.4580  127.6760   64.9280 C   0  0  0  0  0  0  0  0  0  0  0  0
  128.9420  126.5340   65.5860 C   0  0  0  0  0  0  0  0  0  0  0  0
  129.3780  125.3300   64.7420 C   0  0  0  0  0  0  0  0  0  0  0  0
  129.0020  124.1610   65.2630 F   0  0  0  0  0  0  0  0  0  0  0  0
  128.8400  125.4160   63.5260 F   0  0  0  0  0  0  0  0  0  0  0  0
  130.7070  125.3120   64.6350 F   0  0  0  0  0  0  0  0  0  0  0  0
  128.9900  126.5730   67.0080 C   0  0  0  0  0  0  0  0  0  0  0  0
  1  2  1  0
  2  3  2  0
  3  4  1  0
  4  5  2  0
  4  6  1  0
  6  7  1  0
  7  8  1  0
  8  9  2  0
  9 10  1  0
 10 11  1  0
  3 12  1  0
 12 13  1  0
 13 14  2  0
 14 15  1  0
 15 16  1  0
 16 17  2  0
 17 18  1  0
 18 19  2  0
 19 20  1  0
 20 21  2  0
 15 22  2  0
 22 23  1  0
 23 24  1  0
 24 25  1  0
 24 26  1  0
 24 27  1  0
 23 28  2  0
 28  2  1  0
 11  7  2  0
 28 13  1  0
 21 16  1  0
M  END
>  <Binding energies>  (35) 
[-8.49]

>  <Ligand effiencies>  (35) 
[-0.2738709677419355]

>  <Interactions>  (35) 
["V-A:HIS:456:CE1:4069, V-A:HIS:456:CD2:4068, V-A:TYR:484:CZ:4347, H-B:LYS:547:NZ:9923, H-A:HIS:456:ND1:4067, V-B:GLU:543:CB:9878, V-B:HIS:456:CE1:9040, V-A:TYR:484:CE2:4346, V-A:HIS:456:CG:4066, V-B:GLU:543:C:9874, V-A:TYR:484:CD2:4344, H-A:TYR:484:OH:4348, V-A:TYR:484:CD1:4343, H-B:GLU:543:O:9875, V-A:TYR:484:CE1:4345, V-A:TYR:484:CG:4342, V-B:GLU:543:CD:9880, V-A:GLU:543:CD:4908, V-A:ASP:473:CB:4239, V-A:HIS:456:CB:4065, V-A:ASP:473:CG:4240, V-A:GLU:543:CB:4906, V-B:GLU:543:CG:9879, V-B:LEU:475:CD1:9229, V-A:ALA:541:CB:4892, V-B:GLU:543:CA:9876, H-A:HIS:456:NE2:4070, V-B:TYR:484:CE1:9316, V-A:TYR:484:CB:4341"]

$$$$
8a_Ghoteimi_2023
     RDKit          3D

 40 44  0  0  0  0  0  0  0  0999 V2000
  131.5820  132.0710   54.5810 C   0  0  0  0  0  0  0  0  0  0  0  0
  132.2940  131.8050   55.9110 C   0  0  0  0  0  0  0  0  0  0  0  0
  131.7400  132.6400   56.9190 O   0  0  0  0  0  0  0  0  0  0  0  0
  130.4110  132.6110   57.2020 C   0  0  0  0  0  0  0  0  0  0  0  0
  129.5520  133.1320   56.4830 O   0  0  0  0  0  0  0  0  0  0  0  0
  130.0910  131.8880   58.4780 C   0  0  0  0  0  0  0  0  0  0  0  0
  131.0900  131.1320   59.1040 C   0  0  0  0  0  0  0  0  0  0  0  0
  130.8250  130.4500   60.2870 C   0  0  0  0  0  0  0  0  0  0  0  0
  129.5580  130.5060   60.8700 C   0  0  0  0  0  0  0  0  0  0  0  0
  129.4050  129.7730   62.0630 N   0  0  0  0  0  0  0  0  0  0  0  0
  128.2810  129.3840   62.7150 C   0  0  0  0  0  0  0  0  0  0  0  0
  127.1370  129.6350   62.3360 O   0  0  0  0  0  0  0  0  0  0  0  0
  128.5060  128.6130   63.9420 C   0  0  0  0  0  0  0  0  0  0  0  0
  127.6850  129.0580   65.4370 S   0  0  0  0  0  0  0  0  0  0  0  0
  128.4620  127.7550   66.3070 C   0  0  0  0  0  0  0  0  0  0  0  0
  128.2500  127.5570   67.6070 N   0  0  0  0  0  0  0  0  0  0  0  0
  128.9080  126.5190   68.1880 C   0  0  0  0  0  0  0  0  0  0  0  0
  128.6720  126.3280   69.6520 C   0  0  0  0  0  0  0  0  0  0  0  0
  127.7900  127.1590   70.3570 C   0  0  0  0  0  0  0  0  0  0  0  0
  127.5830  126.9830   71.7220 C   0  0  0  0  0  0  0  0  0  0  0  0
  128.2470  125.9740   72.4160 C   0  0  0  0  0  0  0  0  0  0  0  0
  127.9810  125.8750   73.7690 O   0  0  0  0  0  0  0  0  0  0  0  0
  126.8910  126.6090   74.3160 C   0  0  0  0  0  0  0  0  0  0  0  0
  129.1260  125.1330   71.7190 C   0  0  0  0  0  0  0  0  0  0  0  0
  129.3340  125.3130   70.3540 C   0  0  0  0  0  0  0  0  0  0  0  0
  129.7650  125.6830   67.4690 C   0  0  0  0  0  0  0  0  0  0  0  0
  129.9780  125.8770   66.1000 C   0  0  0  0  0  0  0  0  0  0  0  0
  130.8740  124.9390   65.3770 C   0  0  0  0  0  0  0  0  0  0  0  0
  132.2220  125.2550   65.1950 C   0  0  0  0  0  0  0  0  0  0  0  0
  133.0700  124.3690   64.5360 C   0  0  0  0  0  0  0  0  0  0  0  0
  132.5880  123.1520   64.0530 C   0  0  0  0  0  0  0  0  0  0  0  0
  133.5020  122.3370   63.4130 O   0  0  0  0  0  0  0  0  0  0  0  0
  133.8830  122.6380   62.0760 C   0  0  0  0  0  0  0  0  0  0  0  0
  131.2350  122.8300   64.2420 C   0  0  0  0  0  0  0  0  0  0  0  0
  130.3900  123.7170   64.9030 C   0  0  0  0  0  0  0  0  0  0  0  0
  129.3160  126.9720   65.4760 C   0  0  0  0  0  0  0  0  0  0  0  0
  129.3360  127.4960   64.1330 C   0  0  0  0  0  0  0  0  0  0  0  0
  130.1150  126.9550   63.1410 N   0  0  0  0  0  0  0  0  0  0  0  0
  128.5520  131.2650   60.2530 C   0  0  0  0  0  0  0  0  0  0  0  0
  128.8190  131.9480   59.0690 C   0  0  0  0  0  0  0  0  0  0  0  0
  1  2  1  0
  2  3  1  0
  3  4  1  0
  4  5  2  0
  4  6  1  0
  6  7  2  0
  7  8  1  0
  8  9  2  0
  9 10  1  0
 10 11  1  0
 11 12  2  0
 11 13  1  0
 13 14  1  0
 14 15  1  0
 15 16  2  0
 16 17  1  0
 17 18  1  0
 18 19  2  0
 19 20  1  0
 20 21  2  0
 21 22  1  0
 22 23  1  0
 21 24  1  0
 24 25  2  0
 17 26  2  0
 26 27  1  0
 27 28  1  0
 28 29  2  0
 29 30  1  0
 30 31  2  0
 31 32  1  0
 32 33  1  0
 31 34  1  0
 34 35  2  0
 27 36  2  0
 36 37  1  0
 37 38  1  0
  9 39  1  0
 39 40  2  0
 40  6  1  0
 37 13  2  0
 36 15  1  0
 25 18  1  0
 35 28  1  0
M  END
>  <Binding energies>  (36) 
[-10.27]

>  <Ligand effiencies>  (36) 
[-0.23883720930232558]

>  <Interactions>  (36) 
["V-A:HIS:456:CE1:4069, V-A:HIS:456:CD2:4068, H-B:LYS:547:NZ:9923, V-B:HIS:456:CE1:9040, V-B:LYS:547:CD:9921, V-A:TYR:484:CE1:4345, V-A:GLU:543:CD:4908, H-A:GLY:454:N:4050, H-A:GLU:543:OE2:4910, V-A:ILE:369:CD1:3239, V-B:HIS:456:CD2:9039, H-A:GLU:543:OE1:4909, V-A:ILE:538:CD1:4865, V-A:ILE:538:CA:4860, V-A:LEU:363:CD1:3189, V-A:TYR:531:CE2:4793, H-A:TYR:539:N:4870, V-A:PRO:540:CD:4887, V-A:TYR:539:C:4867, V-A:PRO:540:CB:4885, V-A:PRO:540:N:4884, V-A:PRO:540:CA:4883, V-A:GLY:454:CA:4049, V-A:LEU:475:CD1:4258, V-A:TYR:539:CA:4869, V-B:GLY:544:C:9884, V-B:LYS:547:CE:9922"]

$$$$
8c_Ghoteimi_2023
     RDKit          3D

 34 38  0  0  0  0  0  0  0  0999 V2000
  123.6800  131.8360   61.9010 C   0  0  0  0  0  0  0  0  0  0  0  0
  123.8510  131.9120   63.3110 O   0  0  0  0  0  0  0  0  0  0  0  0
  124.7070  131.0240   63.9350 C   0  0  0  0  0  0  0  0  0  0  0  0
  124.1440  130.1810   64.8900 C   0  0  0  0  0  0  0  0  0  0  0  0
  124.9310  129.2570   65.5700 C   0  0  0  0  0  0  0  0  0  0  0  0
  126.3050  129.1510   65.3120 C   0  0  0  0  0  0  0  0  0  0  0  0
  127.1580  128.1630   66.0430 C   0  0  0  0  0  0  0  0  0  0  0  0
  128.1930  127.4700   65.4070 C   0  0  0  0  0  0  0  0  0  0  0  0
  128.9770  126.5520   66.1140 C   0  0  0  0  0  0  0  0  0  0  0  0
  130.0590  125.8290   65.4100 C   0  0  0  0  0  0  0  0  0  0  0  0
  131.3690  125.8750   65.8950 C   0  0  0  0  0  0  0  0  0  0  0  0
  132.3830  125.1870   65.2370 C   0  0  0  0  0  0  0  0  0  0  0  0
  132.1080  124.4470   64.0860 C   0  0  0  0  0  0  0  0  0  0  0  0
  133.1770  123.7940   63.5010 O   0  0  0  0  0  0  0  0  0  0  0  0
  133.8770  124.4250   62.4350 C   0  0  0  0  0  0  0  0  0  0  0  0
  130.7930  124.4040   63.5980 C   0  0  0  0  0  0  0  0  0  0  0  0
  129.7780  125.0930   64.2570 C   0  0  0  0  0  0  0  0  0  0  0  0
  128.6930  126.3530   67.4910 C   0  0  0  0  0  0  0  0  0  0  0  0
  129.2840  125.5100   68.4970 C   0  0  0  0  0  0  0  0  0  0  0  0
  130.3410  124.6770   68.2300 N   0  0  0  0  0  0  0  0  0  0  0  0
  128.6830  125.6240   69.7610 C   0  0  0  0  0  0  0  0  0  0  0  0
  129.0280  124.9270   71.0020 C   0  0  0  0  0  0  0  0  0  0  0  0
  128.8140  125.4490   72.0980 O   0  0  0  0  0  0  0  0  0  0  0  0
  129.5850  123.7010   70.8440 N   0  0  0  0  0  0  0  0  0  0  0  0
  129.9980  122.8360   71.8470 C   0  0  0  0  0  0  0  0  0  0  0  0
  129.4360  121.7080   72.2230 N   0  0  0  0  0  0  0  0  0  0  0  0
  130.1010  121.1410   73.2110 C   0  0  0  0  0  0  0  0  0  0  0  0
  131.2310  121.8160   73.6590 C   0  0  0  0  0  0  0  0  0  0  0  0
  131.4250  123.2730   72.7300 S   0  0  0  0  0  0  0  0  0  0  0  0
  127.3600  126.7920   69.7330 S   0  0  0  0  0  0  0  0  0  0  0  0
  127.6190  127.1160   68.0350 C   0  0  0  0  0  0  0  0  0  0  0  0
  126.8710  127.9890   67.3610 N   0  0  0  0  0  0  0  0  0  0  0  0
  126.8650  130.0010   64.3480 C   0  0  0  0  0  0  0  0  0  0  0  0
  126.0800  130.9270   63.6660 C   0  0  0  0  0  0  0  0  0  0  0  0
  1  2  1  0
  2  3  1  0
  3  4  2  0
  4  5  1  0
  5  6  2  0
  6  7  1  0
  7  8  2  0
  8  9  1  0
  9 10  1  0
 10 11  2  0
 11 12  1  0
 12 13  2  0
 13 14  1  0
 14 15  1  0
 13 16  1  0
 16 17  2  0
  9 18  2  0
 18 19  1  0
 19 20  1  0
 19 21  2  0
 21 22  1  0
 22 23  2  0
 22 24  1  0
 24 25  1  0
 25 26  2  0
 26 27  1  0
 27 28  2  0
 28 29  1  0
 21 30  1  0
 30 31  1  0
 31 32  2  0
  6 33  1  0
 33 34  2  0
 34  3  1  0
 32  7  1  0
 17 10  1  0
 31 18  1  0
 29 25  1  0
M  END
>  <Binding energies>  (37) 
[-9.26]

>  <Ligand effiencies>  (37) 
[-0.25027027027027027]

>  <Interactions>  (37) 
["V-A:HIS:456:CE1:4069, V-A:HIS:456:CD2:4068, V-A:TYR:484:CZ:4347, V-B:ARG:545:CZ:9898, H-B:GLY:454:N:9021, H-B:LYS:547:NZ:9923, H-A:HIS:456:ND1:4067, V-B:GLU:543:CB:9878, V-B:HIS:456:CE1:9040, V-A:TYR:484:CE2:4346, V-A:HIS:456:CG:4066, V-B:GLU:543:C:9874, V-B:GLY:454:CA:9020, V-A:TYR:484:CD2:4344, H-A:TYR:484:OH:4348, V-A:TYR:484:CD1:4343, H-B:GLU:543:O:9875, V-A:TYR:484:CE1:4345, V-B:ARG:545:CD:9895, V-A:TYR:484:CG:4342, V-B:GLU:543:CD:9880, V-A:GLU:543:CD:4908, H-A:GLY:454:N:4050, V-A:ASP:473:CB:4239, V-A:ARG:545:CZ:4926, V-A:HIS:456:CB:4065, V-A:ASP:473:CG:4240, V-A:ASP:366:CG:3213, V-B:GLU:543:CG:9879, V-B:ILE:369:CD1:8210, V-B:GLY:544:C:9884, V-A:TYR:484:CB:4341"]

$$$$
8d_Ghoteimi_2023
     RDKit          3D

 30 33  0  0  0  0  0  0  0  0999 V2000
  131.0550  123.3270   72.1680 C   0  0  0  0  0  0  0  0  0  0  0  0
  129.7690  123.6190   71.6390 O   0  0  0  0  0  0  0  0  0  0  0  0
  129.2230  124.8550   71.7770 C   0  0  0  0  0  0  0  0  0  0  0  0
  129.0710  125.4250   72.8600 O   0  0  0  0  0  0  0  0  0  0  0  0
  128.8250  125.4560   70.4850 C   0  0  0  0  0  0  0  0  0  0  0  0
  127.4880  126.6070   70.4250 S   0  0  0  0  0  0  0  0  0  0  0  0
  127.6760  126.7930   68.6970 C   0  0  0  0  0  0  0  0  0  0  0  0
  126.8900  127.6040   67.9870 N   0  0  0  0  0  0  0  0  0  0  0  0
  127.1230  127.6770   66.6490 C   0  0  0  0  0  0  0  0  0  0  0  0
  126.2250  128.5900   65.8770 C   0  0  0  0  0  0  0  0  0  0  0  0
  126.5890  129.0620   64.6070 C   0  0  0  0  0  0  0  0  0  0  0  0
  125.7500  129.9120   63.8930 C   0  0  0  0  0  0  0  0  0  0  0  0
  124.5260  130.3130   64.4270 C   0  0  0  0  0  0  0  0  0  0  0  0
  123.7590  131.1570   63.6470 O   0  0  0  0  0  0  0  0  0  0  0  0
  123.5970  130.8670   62.2620 C   0  0  0  0  0  0  0  0  0  0  0  0
  124.1510  129.8460   65.6940 C   0  0  0  0  0  0  0  0  0  0  0  0
  124.9930  128.9950   66.4060 C   0  0  0  0  0  0  0  0  0  0  0  0
  128.1310  126.9360   66.0260 C   0  0  0  0  0  0  0  0  0  0  0  0
  128.9570  126.0880   66.7710 C   0  0  0  0  0  0  0  0  0  0  0  0
  130.0220  125.3230   66.0820 C   0  0  0  0  0  0  0  0  0  0  0  0
  131.3110  125.8500   65.9810 C   0  0  0  0  0  0  0  0  0  0  0  0
  132.3100  125.1350   65.3260 C   0  0  0  0  0  0  0  0  0  0  0  0
  132.0390  123.8850   64.7690 C   0  0  0  0  0  0  0  0  0  0  0  0
  133.0900  123.2490   64.1390 O   0  0  0  0  0  0  0  0  0  0  0  0
  133.4770  123.6710   62.8360 C   0  0  0  0  0  0  0  0  0  0  0  0
  130.7420  123.3550   64.8770 C   0  0  0  0  0  0  0  0  0  0  0  0
  129.7440  124.0720   65.5310 C   0  0  0  0  0  0  0  0  0  0  0  0
  128.7340  125.9990   68.1700 C   0  0  0  0  0  0  0  0  0  0  0  0
  129.3720  125.2460   69.2140 C   0  0  0  0  0  0  0  0  0  0  0  0
  130.4200  124.3940   68.9760 N   0  0  0  0  0  0  0  0  0  0  0  0
  1  2  1  0
  2  3  1  0
  3  4  2  0
  3  5  1  0
  5  6  1  0
  6  7  1  0
  7  8  2  0
  8  9  1  0
  9 10  1  0
 10 11  2  0
 11 12  1  0
 12 13  2  0
 13 14  1  0
 14 15  1  0
 13 16  1  0
 16 17  2  0
  9 18  2  0
 18 19  1  0
 19 20  1  0
 20 21  2  0
 21 22  1  0
 22 23  2  0
 23 24  1  0
 24 25  1  0
 23 26  1  0
 26 27  2  0
 19 28  2  0
 28 29  1  0
 29 30  1  0
 29  5  2  0
 28  7  1  0
 17 10  1  0
 27 20  1  0
M  END
>  <Binding energies>  (38) 
[-8.05]

>  <Ligand effiencies>  (38) 
[-0.2515625]

>  <Interactions>  (38) 
["V-A:HIS:456:CE1:4069, V-A:HIS:456:CD2:4068, V-A:TYR:484:CZ:4347, V-B:ARG:545:CZ:9898, H-B:GLY:454:N:9021, H-B:LYS:547:NZ:9923, H-A:HIS:456:ND1:4067, V-B:GLU:543:CB:9878, V-B:HIS:456:CE1:9040, V-A:TYR:484:CE2:4346, V-A:HIS:456:CG:4066, V-B:GLU:543:C:9874, V-B:ARG:545:CG:9894, V-A:TYR:484:CD2:4344, H-A:TYR:484:OH:4348, V-A:TYR:484:CD1:4343, H-B:GLU:543:O:9875, V-A:TYR:484:CE1:4345, V-B:ARG:545:CD:9895, V-A:TYR:484:CG:4342, V-B:GLU:543:CD:9880, V-A:GLU:543:CD:4908, H-A:GLY:454:N:4050, V-A:HIS:456:CB:4065, V-B:GLU:543:CG:9879, V-A:GLY:454:CA:4049, V-B:ASP:366:CG:8184, V-B:GLU:543:CA:9876, V-B:ILE:369:CD1:8210, V-B:GLY:544:C:9884"]

$$$$
9a_Ghoteimi_2023
     RDKit          3D

 48 54  0  0  0  0  0  0  0  0999 V2000
  130.5890  131.4510   54.0190 C   0  0  0  0  0  0  0  0  0  0  0  0
  129.7910  132.7390   54.2480 C   0  0  0  0  0  0  0  0  0  0  0  0
  129.7050  133.0010   55.6440 O   0  0  0  0  0  0  0  0  0  0  0  0
  130.7700  132.8000   56.4620 C   0  0  0  0  0  0  0  0  0  0  0  0
  131.9250  133.1270   56.1680 O   0  0  0  0  0  0  0  0  0  0  0  0
  130.4070  132.1330   57.7570 C   0  0  0  0  0  0  0  0  0  0  0  0
  131.3270  131.2680   58.3640 C   0  0  0  0  0  0  0  0  0  0  0  0
  131.0190  130.6340   59.5640 C   0  0  0  0  0  0  0  0  0  0  0  0
  129.7890  130.8510   60.1830 C   0  0  0  0  0  0  0  0  0  0  0  0
  129.5870  130.1570   61.3920 N   0  0  0  0  0  0  0  0  0  0  0  0
  128.4480  129.9220   62.0910 C   0  0  0  0  0  0  0  0  0  0  0  0
  127.3320  130.3100   61.7460 O   0  0  0  0  0  0  0  0  0  0  0  0
  128.6180  129.1460   63.3230 C   0  0  0  0  0  0  0  0  0  0  0  0
  128.3000  129.8860   64.8920 S   0  0  0  0  0  0  0  0  0  0  0  0
  128.6980  128.4010   65.7240 C   0  0  0  0  0  0  0  0  0  0  0  0
  128.6250  128.3030   67.0510 N   0  0  0  0  0  0  0  0  0  0  0  0
  128.9440  127.1000   67.5990 C   0  0  0  0  0  0  0  0  0  0  0  0
  128.8440  127.0090   69.0870 C   0  0  0  0  0  0  0  0  0  0  0  0
  128.2090  125.9190   69.6920 C   0  0  0  0  0  0  0  0  0  0  0  0
  128.1120  125.8260   71.0770 C   0  0  0  0  0  0  0  0  0  0  0  0
  128.6600  126.8130   71.9110 C   0  0  0  0  0  0  0  0  0  0  0  0
  128.5550  126.7430   73.3040 N   0  0  0  0  0  0  0  0  0  0  0  0
  129.7470  126.5900   74.1620 C   0  0  0  0  0  0  0  0  0  0  0  0
  129.4220  126.1700   75.6110 C   0  0  0  0  0  0  0  0  0  0  0  0
  128.4950  127.0770   76.1840 O   0  0  0  0  0  0  0  0  0  0  0  0
  127.2780  127.1070   75.4560 C   0  0  0  0  0  0  0  0  0  0  0  0
  127.5430  127.5600   74.0060 C   0  0  0  0  0  0  0  0  0  0  0  0
  129.2840  127.9110   71.3000 C   0  0  0  0  0  0  0  0  0  0  0  0
  129.3770  128.0040   69.9140 C   0  0  0  0  0  0  0  0  0  0  0  0
  129.3600  126.0150   66.8240 C   0  0  0  0  0  0  0  0  0  0  0  0
  129.4580  126.1210   65.4320 C   0  0  0  0  0  0  0  0  0  0  0  0
  129.9410  124.9480   64.6590 C   0  0  0  0  0  0  0  0  0  0  0  0
  129.0920  124.2820   63.7710 C   0  0  0  0  0  0  0  0  0  0  0  0
  129.5500  123.1920   63.0380 C   0  0  0  0  0  0  0  0  0  0  0  0
  130.8760  122.7480   63.1600 C   0  0  0  0  0  0  0  0  0  0  0  0
  131.3560  121.6490   62.4420 N   0  0  0  0  0  0  0  0  0  0  0  0
  132.6100  121.7820   61.6740 C   0  0  0  0  0  0  0  0  0  0  0  0
  133.2160  120.4270   61.2550 C   0  0  0  0  0  0  0  0  0  0  0  0
  132.2590  119.6670   60.5340 O   0  0  0  0  0  0  0  0  0  0  0  0
  131.1020  119.4060   61.3120 C   0  0  0  0  0  0  0  0  0  0  0  0
  130.4380  120.7350   61.7330 C   0  0  0  0  0  0  0  0  0  0  0  0
  131.7210  123.4250   64.0520 C   0  0  0  0  0  0  0  0  0  0  0  0
  131.2610  124.5130   64.7880 C   0  0  0  0  0  0  0  0  0  0  0  0
  129.0930  127.3610   64.8340 C   0  0  0  0  0  0  0  0  0  0  0  0
  129.0150  127.8080   63.4650 C   0  0  0  0  0  0  0  0  0  0  0  0
  129.2920  126.9850   62.4030 N   0  0  0  0  0  0  0  0  0  0  0  0
  128.8610  131.7180   59.5850 C   0  0  0  0  0  0  0  0  0  0  0  0
  129.1700  132.3510   58.3840 C   0  0  0  0  0  0  0  0  0  0  0  0
  1  2  1  0
  2  3  1  0
  3  4  1  0
  4  5  2  0
  4  6  1  0
  6  7  2  0
  7  8  1  0
  8  9  2  0
  9 10  1  0
 10 11  1  0
 11 12  2  0
 11 13  1  0
 13 14  1  0
 14 15  1  0
 15 16  2  0
 16 17  1  0
 17 18  1  0
 18 19  2  0
 19 20  1  0
 20 21  2  0
 21 22  1  0
 22 23  1  0
 23 24  1  0
 24 25  1  0
 25 26  1  0
 26 27  1  0
 21 28  1  0
 28 29  2  0
 17 30  2  0
 30 31  1  0
 31 32  1  0
 32 33  2  0
 33 34  1  0
 34 35  2  0
 35 36  1  0
 36 37  1  0
 37 38  1  0
 38 39  1  0
 39 40  1  0
 40 41  1  0
 35 42  1  0
 42 43  2  0
 31 44  2  0
 44 45  1  0
 45 46  1  0
  9 47  1  0
 47 48  2  0
 48  6  1  0
 45 13  2  0
 44 15  1  0
 29 18  1  0
 43 32  1  0
 27 22  1  0
 41 36  1  0
M  END
>  <Binding energies>  (39) 
[-10.67]

>  <Ligand effiencies>  (39) 
[-0.20921568627450982]

>  <Interactions>  (39) 
["V-A:HIS:456:CE1:4069, V-A:HIS:456:CD2:4068, V-B:GLU:543:CB:9878, V-B:HIS:456:CE1:9040, H-A:LYS:547:NZ:4951, V-B:GLU:543:C:9874, V-B:LYS:547:CD:9921, V-B:GLU:543:CD:9880, V-A:GLU:543:CD:4908, V-A:ILE:369:CD1:3239, V-B:HIS:456:CD2:9039, V-A:GLU:543:CB:4906, V-A:GLU:543:CG:4907, H-A:GLU:543:OE1:4909, V-A:ILE:538:CA:4860, V-A:TYR:531:CE2:4793, H-A:TYR:539:N:4870, V-A:PRO:540:CD:4887, V-A:TYR:539:C:4867, V-A:PRO:540:CB:4885, V-A:PRO:540:N:4884, V-A:TYR:539:CE1:4875, V-A:PRO:540:CA:4883, V-A:TYR:539:CD1:4873, V-B:GLU:543:CG:9879, V-A:ILE:369:CG2:3237, V-A:TRP:381:CH2:3372, V-A:LEU:475:CD1:4258, V-B:ALA:541:CB:9864, V-A:TYR:539:CA:4869, V-A:TYR:539:CD2:4874, H-B:GLU:543:OE2:9882, V-A:TRP:381:CZ2:3370, V-A:PRO:482:CG:4327, V-A:PRO:482:CB:4326, V-B:GLY:544:C:9884"]

$$$$
9b_Ghoteimi_2023
     RDKit          3D

 42 48  0  0  0  0  0  0  0  0999 V2000
  129.8160  124.2970   67.4960 N   0  0  0  0  0  0  0  0  0  0  0  0
  129.3980  125.5780   67.7540 C   0  0  0  0  0  0  0  0  0  0  0  0
  129.2000  126.0810   69.0490 C   0  0  0  0  0  0  0  0  0  0  0  0
  129.4060  125.4060   70.3330 C   0  0  0  0  0  0  0  0  0  0  0  0
  129.3190  126.0300   71.3930 O   0  0  0  0  0  0  0  0  0  0  0  0
  129.6950  124.0830   70.2560 N   0  0  0  0  0  0  0  0  0  0  0  0
  129.9460  123.2080   71.3050 C   0  0  0  0  0  0  0  0  0  0  0  0
  131.1000  123.2660   72.0840 C   0  0  0  0  0  0  0  0  0  0  0  0
  130.9640  122.2480   73.0000 C   0  0  0  0  0  0  0  0  0  0  0  0
  129.7890  121.6110   72.7830 O   0  0  0  0  0  0  0  0  0  0  0  0
  129.1520  122.2280   71.7060 N   0  0  0  0  0  0  0  0  0  0  0  0
  128.6320  127.7500   69.0050 S   0  0  0  0  0  0  0  0  0  0  0  0
  128.6460  127.7570   67.2580 C   0  0  0  0  0  0  0  0  0  0  0  0
  128.2600  128.8230   66.5600 N   0  0  0  0  0  0  0  0  0  0  0  0
  128.2910  128.7200   65.2060 C   0  0  0  0  0  0  0  0  0  0  0  0
  127.8330  129.9230   64.4480 C   0  0  0  0  0  0  0  0  0  0  0  0
  126.9840  129.8010   63.3400 C   0  0  0  0  0  0  0  0  0  0  0  0
  126.5720  130.9240   62.6300 C   0  0  0  0  0  0  0  0  0  0  0  0
  127.0050  132.2100   62.9900 C   0  0  0  0  0  0  0  0  0  0  0  0
  126.5960  133.3480   62.2870 N   0  0  0  0  0  0  0  0  0  0  0  0
  125.3960  133.3320   61.4270 C   0  0  0  0  0  0  0  0  0  0  0  0
  124.9050  134.7350   61.0160 C   0  0  0  0  0  0  0  0  0  0  0  0
  125.9590  135.4570   60.4010 O   0  0  0  0  0  0  0  0  0  0  0  0
  127.0570  135.6270   61.2820 C   0  0  0  0  0  0  0  0  0  0  0  0
  127.6140  134.2510   61.7080 C   0  0  0  0  0  0  0  0  0  0  0  0
  127.8380  132.3270   64.1120 C   0  0  0  0  0  0  0  0  0  0  0  0
  128.2470  131.2040   64.8260 C   0  0  0  0  0  0  0  0  0  0  0  0
  128.7330  127.5650   64.5560 C   0  0  0  0  0  0  0  0  0  0  0  0
  129.1600  126.4480   65.2850 C   0  0  0  0  0  0  0  0  0  0  0  0
  129.6490  125.2560   64.5470 C   0  0  0  0  0  0  0  0  0  0  0  0
  128.9270  124.7530   63.4630 C   0  0  0  0  0  0  0  0  0  0  0  0
  129.3930  123.6480   62.7580 C   0  0  0  0  0  0  0  0  0  0  0  0
  130.5920  123.0140   63.1170 C   0  0  0  0  0  0  0  0  0  0  0  0
  131.0860  121.9130   62.4130 N   0  0  0  0  0  0  0  0  0  0  0  0
  130.1400  121.0110   61.7270 C   0  0  0  0  0  0  0  0  0  0  0  0
  130.7640  119.6520   61.3430 C   0  0  0  0  0  0  0  0  0  0  0  0
  131.9250  119.8580   60.5520 O   0  0  0  0  0  0  0  0  0  0  0  0
  132.9070  120.6130   61.2460 C   0  0  0  0  0  0  0  0  0  0  0  0
  132.3360  121.9940   61.6330 C   0  0  0  0  0  0  0  0  0  0  0  0
  131.3180  123.5390   64.1960 C   0  0  0  0  0  0  0  0  0  0  0  0
  130.8520  124.6450   64.9020 C   0  0  0  0  0  0  0  0  0  0  0  0
  129.1020  126.5230   66.7050 C   0  0  0  0  0  0  0  0  0  0  0  0
  1  2  1  0
  2  3  2  0
  3  4  1  0
  4  5  2  0
  4  6  1  0
  6  7  1  0
  7  8  1  0
  8  9  2  0
  9 10  1  0
 10 11  1  0
  3 12  1  0
 12 13  1  0
 13 14  2  0
 14 15  1  0
 15 16  1  0
 16 17  2  0
 17 18  1  0
 18 19  2  0
 19 20  1  0
 20 21  1  0
 21 22  1  0
 22 23  1  0
 23 24  1  0
 24 25  1  0
 19 26  1  0
 26 27  2  0
 15 28  2  0
 28 29  1  0
 29 30  1  0
 30 31  2  0
 31 32  1  0
 32 33  2  0
 33 34  1  0
 34 35  1  0
 35 36  1  0
 36 37  1  0
 37 38  1  0
 38 39  1  0
 33 40  1  0
 40 41  2  0
 29 42  2  0
 42  2  1  0
 11  7  2  0
 42 13  1  0
 27 16  1  0
 41 30  1  0
 25 20  1  0
 39 34  1  0
M  END
>  <Binding energies>  (40) 
[-12.25]

>  <Ligand effiencies>  (40) 
[-0.2722222222222222]

>  <Interactions>  (40) 
["V-A:HIS:456:CE1:4069, V-A:HIS:456:CD2:4068, V-A:TYR:484:CZ:4347, H-B:LYS:547:NZ:9923, H-A:HIS:456:ND1:4067, V-B:GLU:543:CB:9878, V-B:HIS:456:CE1:9040, V-A:TYR:484:CE2:4346, V-A:HIS:456:CG:4066, V-B:GLU:543:C:9874, V-A:TYR:484:CD2:4344, H-A:TYR:484:OH:4348, V-A:TYR:484:CD1:4343, H-B:GLU:543:O:9875, V-A:TYR:484:CE1:4345, V-A:TYR:484:CG:4342, V-B:GLU:543:CD:9880, V-A:GLU:543:CD:4908, V-A:ASP:473:CB:4239, V-A:HIS:456:CB:4065, V-A:GLU:543:CB:4906, V-B:GLU:543:CG:9879, V-A:TRP:381:CH2:3372, V-A:LEU:475:CD1:4258, V-B:ALA:541:CB:9864, V-B:LEU:475:CD1:9229, V-B:PRO:482:CG:9298, V-A:TYR:539:CE2:4876, V-A:ALA:541:CB:4892, V-A:TYR:539:CD2:4874, V-B:TRP:381:CZ2:8341, V-B:TRP:381:CH2:8343, V-B:PRO:482:CB:9297, V-B:GLU:543:CA:9876, V-A:PRO:482:CG:4327, V-A:PRO:482:CB:4326, H-A:HIS:456:NE2:4070, V-A:TYR:484:CB:4341"]

$$$$
9c_Ghoteimi_2023
     RDKit          3D

 42 48  0  0  0  0  0  0  0  0999 V2000
  129.9260  124.3330   67.5360 N   0  0  0  0  0  0  0  0  0  0  0  0
  129.4670  125.5960   67.8110 C   0  0  0  0  0  0  0  0  0  0  0  0
  129.2390  126.0680   69.1130 C   0  0  0  0  0  0  0  0  0  0  0  0
  129.4440  125.3720   70.3870 C   0  0  0  0  0  0  0  0  0  0  0  0
  129.3700  125.9800   71.4570 O   0  0  0  0  0  0  0  0  0  0  0  0
  129.7190  124.0490   70.2880 N   0  0  0  0  0  0  0  0  0  0  0  0
  129.9680  123.1680   71.3320 C   0  0  0  0  0  0  0  0  0  0  0  0
  129.3400  122.0460   71.6100 N   0  0  0  0  0  0  0  0  0  0  0  0
  129.8400  121.4640   72.6830 C   0  0  0  0  0  0  0  0  0  0  0  0
  130.9020  122.1200   73.3010 C   0  0  0  0  0  0  0  0  0  0  0  0
  131.2550  123.5760   72.4210 S   0  0  0  0  0  0  0  0  0  0  0  0
  128.6250  127.7210   69.0930 S   0  0  0  0  0  0  0  0  0  0  0  0
  128.6610  127.7610   67.3460 C   0  0  0  0  0  0  0  0  0  0  0  0
  128.2540  128.8310   66.6640 N   0  0  0  0  0  0  0  0  0  0  0  0
  128.3060  128.7540   65.3090 C   0  0  0  0  0  0  0  0  0  0  0  0
  127.8240  129.9590   64.5680 C   0  0  0  0  0  0  0  0  0  0  0  0
  126.9500  129.8410   63.4810 C   0  0  0  0  0  0  0  0  0  0  0  0
  126.5120  130.9650   62.7890 C   0  0  0  0  0  0  0  0  0  0  0  0
  126.9430  132.2520   63.1510 C   0  0  0  0  0  0  0  0  0  0  0  0
  126.5050  133.3940   62.4700 N   0  0  0  0  0  0  0  0  0  0  0  0
  125.2190  133.4100   61.7430 C   0  0  0  0  0  0  0  0  0  0  0  0
  124.7380  134.8250   61.3580 C   0  0  0  0  0  0  0  0  0  0  0  0
  125.7480  135.4930   60.6180 O   0  0  0  0  0  0  0  0  0  0  0  0
  126.9390  135.6340   61.3740 C   0  0  0  0  0  0  0  0  0  0  0  0
  127.4870  134.2440   61.7660 C   0  0  0  0  0  0  0  0  0  0  0  0
  127.8030  132.3660   64.2530 C   0  0  0  0  0  0  0  0  0  0  0  0
  128.2370  131.2410   64.9470 C   0  0  0  0  0  0  0  0  0  0  0  0
  128.7890  127.6240   64.6430 C   0  0  0  0  0  0  0  0  0  0  0  0
  129.2370  126.5070   65.3560 C   0  0  0  0  0  0  0  0  0  0  0  0
  129.7700  125.3440   64.6040 C   0  0  0  0  0  0  0  0  0  0  0  0
  131.0370  124.8350   64.8970 C   0  0  0  0  0  0  0  0  0  0  0  0
  131.5330  123.7340   64.2050 C   0  0  0  0  0  0  0  0  0  0  0  0
  130.7760  123.1130   63.2000 C   0  0  0  0  0  0  0  0  0  0  0  0
  131.2490  121.9980   62.5000 N   0  0  0  0  0  0  0  0  0  0  0  0
  130.2890  121.1410   61.7770 C   0  0  0  0  0  0  0  0  0  0  0  0
  130.8720  119.7650   61.3910 C   0  0  0  0  0  0  0  0  0  0  0  0
  132.0610  119.9360   60.6340 O   0  0  0  0  0  0  0  0  0  0  0  0
  133.0510  120.6440   61.3650 C   0  0  0  0  0  0  0  0  0  0  0  0
  132.5220  122.0410   61.7560 C   0  0  0  0  0  0  0  0  0  0  0  0
  129.4960  123.6190   62.9290 C   0  0  0  0  0  0  0  0  0  0  0  0
  129.0000  124.7210   63.6200 C   0  0  0  0  0  0  0  0  0  0  0  0
  129.1590  126.5520   66.7780 C   0  0  0  0  0  0  0  0  0  0  0  0
  1  2  1  0
  2  3  2  0
  3  4  1  0
  4  5  2  0
  4  6  1  0
  6  7  1  0
  7  8  2  0
  8  9  1  0
  9 10  2  0
 10 11  1  0
  3 12  1  0
 12 13  1  0
 13 14  2  0
 14 15  1  0
 15 16  1  0
 16 17  2  0
 17 18  1  0
 18 19  2  0
 19 20  1  0
 20 21  1  0
 21 22  1  0
 22 23  1  0
 23 24  1  0
 24 25  1  0
 19 26  1  0
 26 27  2  0
 15 28  2  0
 28 29  1  0
 29 30  1  0
 30 31  2  0
 31 32  1  0
 32 33  2  0
 33 34  1  0
 34 35  1  0
 35 36  1  0
 36 37  1  0
 37 38  1  0
 38 39  1  0
 33 40  1  0
 40 41  2  0
 29 42  2  0
 42  2  1  0
 11  7  1  0
 42 13  1  0
 27 16  1  0
 41 30  1  0
 25 20  1  0
 39 34  1  0
M  END
>  <Binding energies>  (41) 
[-11.12]

>  <Ligand effiencies>  (41) 
[-0.2471111111111111]

>  <Interactions>  (41) 
["V-A:HIS:456:CE1:4069, V-A:HIS:456:CD2:4068, V-A:TYR:484:CZ:4347, H-B:LYS:547:NZ:9923, H-A:HIS:456:ND1:4067, V-B:GLU:543:CB:9878, V-B:HIS:456:CE1:9040, V-A:TYR:484:CE2:4346, V-A:HIS:456:CG:4066, V-B:GLU:543:C:9874, V-A:TYR:484:CD2:4344, H-A:TYR:484:OH:4348, V-A:TYR:484:CD1:4343, H-B:GLU:543:O:9875, V-A:TYR:484:CE1:4345, V-A:TYR:484:CG:4342, V-B:GLU:543:CD:9880, V-A:GLU:543:CD:4908, V-A:ASP:473:CB:4239, V-A:ILE:369:CD1:3239, V-A:HIS:456:CB:4065, V-A:ASP:473:CG:4240, V-A:GLU:543:CB:4906, V-B:GLU:543:CG:9879, V-A:TRP:381:CH2:3372, V-A:LEU:475:CD1:4258, V-B:ALA:541:CB:9864, V-B:LEU:475:CD1:9229, V-B:PRO:482:CG:9298, V-A:ALA:541:CB:4892, V-A:TYR:539:CD2:4874, V-B:TRP:381:CZ2:8341, V-B:TRP:381:CH2:8343, V-B:PRO:482:CB:9297, V-B:GLU:543:CA:9876, V-A:PRO:482:CB:4326, H-A:HIS:456:NE2:4070, V-B:TYR:484:CE1:9316, V-B:LYS:547:CE:9922, V-A:TYR:484:CB:4341"]

$$$$
RR11_Rahimova_2017
     RDKit          3D

 33 38  0  0  0  0  0  0  0  0999 V2000
  131.1150  131.8150   52.8950 N   0  0  0  0  0  0  0  0  0  0  0  0
  130.5670  131.9020   54.1730 C   0  0  0  0  0  0  0  0  0  0  0  0
  131.2890  132.5110   55.1980 C   0  0  0  0  0  0  0  0  0  0  0  0
  130.7390  132.6010   56.4730 C   0  0  0  0  0  0  0  0  0  0  0  0
  129.4640  132.0840   56.7370 C   0  0  0  0  0  0  0  0  0  0  0  0
  128.8700  132.1860   58.1100 C   0  0  0  0  0  0  0  0  0  0  0  0
  127.5900  132.0510   58.3790 N   0  0  0  0  0  0  0  0  0  0  0  0
  127.4860  132.2030   59.7370 C   0  0  0  0  0  0  0  0  0  0  0  0
  126.3460  132.1460   60.5500 C   0  0  0  0  0  0  0  0  0  0  0  0
  126.5040  132.3180   61.9310 C   0  0  0  0  0  0  0  0  0  0  0  0
  125.2830  132.2660   62.8390 C   0  0  0  0  0  0  0  0  0  0  0  0
  125.3800  131.1800   63.9020 C   0  0  0  0  0  0  0  0  0  0  0  0
  124.2140  130.7230   64.5270 C   0  0  0  0  0  0  0  0  0  0  0  0
  124.2500  129.7230   65.5010 C   0  0  0  0  0  0  0  0  0  0  0  0
  125.4950  129.1750   65.8390 C   0  0  0  0  0  0  0  0  0  0  0  0
  125.7940  128.2010   66.7550 N   0  0  0  0  0  0  0  0  0  0  0  0
  127.1010  128.0540   66.6920 C   0  0  0  0  0  0  0  0  0  0  0  0
  127.8890  127.0960   67.5380 C   0  0  0  0  0  0  0  0  0  0  0  0
  127.5670  126.9090   68.8880 C   0  0  0  0  0  0  0  0  0  0  0  0
  128.3050  126.0290   69.6750 C   0  0  0  0  0  0  0  0  0  0  0  0
  129.3720  125.3280   69.1160 C   0  0  0  0  0  0  0  0  0  0  0  0
  130.1140  124.4500   69.9050 N   0  0  0  0  0  0  0  0  0  0  0  0
  129.7010  125.5010   67.7740 C   0  0  0  0  0  0  0  0  0  0  0  0
  128.9620  126.3820   66.9890 C   0  0  0  0  0  0  0  0  0  0  0  0
  127.6690  128.8950   65.7590 N   0  0  0  0  0  0  0  0  0  0  0  0
  126.6630  129.6380   65.1890 C   0  0  0  0  0  0  0  0  0  0  0  0
  126.6330  130.6340   64.2100 C   0  0  0  0  0  0  0  0  0  0  0  0
  127.7680  132.5670   62.4780 C   0  0  0  0  0  0  0  0  0  0  0  0
  128.9220  132.6360   61.6940 C   0  0  0  0  0  0  0  0  0  0  0  0
  128.7520  132.4460   60.3200 C   0  0  0  0  0  0  0  0  0  0  0  0
  129.6130  132.4310   59.2470 N   0  0  0  0  0  0  0  0  0  0  0  0
  128.7490  131.4730   55.6970 C   0  0  0  0  0  0  0  0  0  0  0  0
  129.2970  131.3820   54.4200 C   0  0  0  0  0  0  0  0  0  0  0  0
  1  2  1  0
  2  3  2  0
  3  4  1  0
  4  5  2  0
  5  6  1  0
  6  7  2  0
  7  8  1  0
  8  9  2  0
  9 10  1  0
 10 11  1  0
 11 12  1  0
 12 13  2  0
 13 14  1  0
 14 15  2  0
 15 16  1  0
 16 17  2  0
 17 18  1  0
 18 19  2  0
 19 20  1  0
 20 21  2  0
 21 22  1  0
 21 23  1  0
 23 24  2  0
 17 25  1  0
 25 26  1  0
 26 27  2  0
 10 28  2  0
 28 29  1  0
 29 30  2  0
 30 31  1  0
  5 32  1  0
 32 33  2  0
 33  2  1  0
 31  6  1  0
 30  8  1  0
 27 12  1  0
 26 15  1  0
 24 18  1  0
M  END
>  <Binding energies>  (42) 
[-9.12]

>  <Ligand effiencies>  (42) 
[-0.23384615384615381]

>  <Interactions>  (42) 
["V-A:HIS:456:CE1:4069, V-A:HIS:456:CD2:4068, V-A:TYR:484:CZ:4347, V-B:ARG:545:CZ:9898, H-A:HIS:456:ND1:4067, V-B:GLU:543:CB:9878, V-B:HIS:456:CE1:9040, V-A:TYR:484:CE2:4346, V-A:HIS:456:CG:4066, V-B:GLU:543:C:9874, V-B:GLY:454:CA:9020, H-A:TYR:484:OH:4348, V-A:TYR:484:CD1:4343, H-B:GLU:543:O:9875, V-A:TYR:484:CE1:4345, V-B:ARG:545:CD:9895, H-A:GLU:543:OE2:4910, H-A:GLU:543:OE1:4909, V-A:ILE:538:CD1:4865, H-A:TYR:531:OH:4795, V-A:ILE:538:CA:4860, V-A:TYR:531:CE2:4793, V-A:MET:535:CG:4833, V-A:TYR:539:CZ:4877, V-A:PRO:540:CD:4887, V-A:TYR:539:C:4867, V-A:MET:535:CB:4832, V-A:PRO:540:N:4884, H-A:VAL:537:O:4851, V-A:TYR:539:CE1:4875, V-A:PRO:540:CA:4883, V-A:TYR:539:CD1:4873, H-B:ARG:545:NE:9896, V-B:LEU:475:CD1:9229, V-A:TYR:539:CE2:4876, V-A:ALA:541:CB:4892, V-A:TYR:539:CD2:4874, H-A:TYR:539:OH:4878, H-A:TYR:539:O:4868, V-A:ALA:541:CA:4890, V-B:GLY:544:C:9884"]

$$$$
RR16_Rahimova_2017
     RDKit          3D

 44 49  0  0  0  0  0  0  0  0999 V2000
  129.7530  132.2230   62.9200 O   0  0  0  0  0  0  0  0  0  0  0  0
  128.6410  132.6610   62.0690 S   0  0  0  0  0  0  0  0  0  0  0  0
  128.0450  133.9920   62.2360 O   0  0  0  0  0  0  0  0  0  0  0  0
  127.3540  131.4620   62.2160 N   0  0  0  0  0  0  0  0  0  0  0  0
  125.9860  131.7510   61.7270 C   0  0  0  0  0  0  0  0  0  0  0  0
  125.7300  130.9460   60.4260 C   0  0  0  0  0  0  0  0  0  0  0  0
  124.7160  131.5280   59.4220 C   0  0  0  0  0  0  0  0  0  0  0  0
  123.2520  131.4280   59.8830 C   0  0  0  0  0  0  0  0  0  0  0  0
  123.0290  130.8110   61.2780 C   0  0  0  0  0  0  0  0  0  0  0  0
  123.5030  131.6310   62.4940 C   0  0  0  0  0  0  0  0  0  0  0  0
  124.9880  131.4940   62.8810 C   0  0  0  0  0  0  0  0  0  0  0  0
  129.1950  132.5150   60.3740 C   0  0  0  0  0  0  0  0  0  0  0  0
  128.4130  133.0170   59.3320 C   0  0  0  0  0  0  0  0  0  0  0  0
  128.7950  132.7890   58.0130 C   0  0  0  0  0  0  0  0  0  0  0  0
  129.9560  132.0610   57.7430 C   0  0  0  0  0  0  0  0  0  0  0  0
  130.3740  131.6450   56.0510 S   0  0  0  0  0  0  0  0  0  0  0  0
  131.8380  131.6790   55.9390 O   0  0  0  0  0  0  0  0  0  0  0  0
  129.5440  132.4810   55.1750 O   0  0  0  0  0  0  0  0  0  0  0  0
  129.8420  129.9610   55.8740 N   0  0  0  0  0  0  0  0  0  0  0  0
  129.7460  129.4910   54.4680 C   0  0  0  0  0  0  0  0  0  0  0  0
  128.9900  128.1490   54.3980 C   0  0  0  0  0  0  0  0  0  0  0  0
  129.6040  127.0920   55.3490 C   0  0  0  0  0  0  0  0  0  0  0  0
  128.8390  125.7670   55.3290 C   0  0  0  0  0  0  0  0  0  0  0  0
  128.6250  125.1050   54.1120 C   0  0  0  0  0  0  0  0  0  0  0  0
  127.9390  123.8910   54.0480 C   0  0  0  0  0  0  0  0  0  0  0  0
  127.7420  123.2570   52.8490 O   0  0  0  0  0  0  0  0  0  0  0  0
  127.4630  123.3360   55.2450 C   0  0  0  0  0  0  0  0  0  0  0  0
  126.7870  122.1750   55.4890 N   0  0  0  0  0  0  0  0  0  0  0  0
  126.5850  122.0910   56.8490 N   0  0  0  0  0  0  0  0  0  0  0  0
  127.0880  123.2000   57.4240 N   0  0  0  0  0  0  0  0  0  0  0  0
  127.0870  123.3390   58.8740 C   0  0  0  0  0  0  0  0  0  0  0  0
  128.4310  122.9880   59.4980 C   0  0  0  0  0  0  0  0  0  0  0  0
  129.4760  123.9180   59.4830 C   0  0  0  0  0  0  0  0  0  0  0  0
  130.7010  123.6070   60.0740 C   0  0  0  0  0  0  0  0  0  0  0  0
  130.8870  122.3660   60.6840 C   0  0  0  0  0  0  0  0  0  0  0  0
  129.8490  121.4350   60.7050 C   0  0  0  0  0  0  0  0  0  0  0  0
  130.0720  119.9040   61.4670 Cl  0  0  0  0  0  0  0  0  0  0  0  0
  128.6230  121.7450   60.1090 C   0  0  0  0  0  0  0  0  0  0  0  0
  127.6760  124.0130   56.4690 C   0  0  0  0  0  0  0  0  0  0  0  0
  128.3590  125.2320   56.5340 C   0  0  0  0  0  0  0  0  0  0  0  0
  129.8140  127.6430   56.7840 C   0  0  0  0  0  0  0  0  0  0  0  0
  130.5350  129.0060   56.7770 C   0  0  0  0  0  0  0  0  0  0  0  0
  130.7580  131.5960   58.7870 C   0  0  0  0  0  0  0  0  0  0  0  0
  130.3750  131.8210   60.1050 C   0  0  0  0  0  0  0  0  0  0  0  0
  1  2  2  0
  2  3  2  0
  2  4  1  0
  4  5  1  0
  5  6  1  0
  6  7  1  0
  7  8  1  0
  8  9  1  0
  9 10  1  0
 10 11  1  0
  2 12  1  0
 12 13  2  0
 13 14  1  0
 14 15  2  0
 15 16  1  0
 16 17  2  0
 16 18  2  0
 16 19  1  0
 19 20  1  0
 20 21  1  0
 21 22  1  0
 22 23  1  0
 23 24  2  0
 24 25  1  0
 25 26  1  0
 25 27  2  0
 27 28  1  0
 28 29  2  0
 29 30  1  0
 30 31  1  0
 31 32  1  0
 32 33  2  0
 33 34  1  0
 34 35  2  0
 35 36  1  0
 36 37  1  0
 36 38  2  0
 30 39  1  0
 39 40  2  0
 22 41  1  0
 41 42  1  0
 15 43  1  0
 43 44  2  0
 11  5  1  0
 44 12  1  0
 42 19  1  0
 40 23  1  0
 39 27  1  0
 38 32  1  0
M  END
>  <Binding energies>  (43) 
[-11.1]

>  <Ligand effiencies>  (43) 
[-0.23124999999999998]

>  <Interactions>  (43) 
["V-B:GLY:454:CA:9020, V-B:TYR:539:CE2:9848, V-B:TYR:539:C:9839, V-B:PRO:540:C:9853, V-B:PRO:540:CA:9855, V-B:TYR:539:CZ:9849, H-B:TYR:539:N:9842, V-B:TYR:539:CE1:9847, V-B:TYR:539:CD2:9846, H-A:TYR:531:OH:4795, V-A:MET:535:CE:4835, H-A:TYR:539:N:4870, V-A:TYR:539:CZ:4877, V-A:TYR:539:C:4867, V-A:TYR:539:CG:4872, V-A:PRO:540:CB:4885, V-A:PRO:540:N:4884, V-A:TYR:539:CE1:4875, V-A:PRO:540:CA:4883, V-A:TYR:539:CD1:4873, V-A:LEU:475:CD1:4258, V-B:ALA:541:CB:9864, V-A:TYR:539:CE2:4876, H-A:ALA:541:N:4891, V-A:ALA:541:CB:4892, V-A:TYR:539:CD2:4874, V-B:ASP:366:CG:8184, V-B:ASP:366:CB:8183, V-B:ILE:369:CG2:8208, V-A:ALA:541:CA:4890, V-A:PRO:540:C:4881, V-B:ASP:366:CA:8181, V-B:ILE:369:CB:8207, V-B:ILE:369:CD1:8210, V-A:TYR:531:CZ:4794, V-A:PRO:482:CG:4327, V-A:PRO:482:CB:4326, H-B:VAL:537:O:9823"]

$$$$
RR18_Rahimova_2017
     RDKit          3D

 36 41  0  0  0  0  0  0  0  0999 V2000
  128.1040  126.7160   61.8870 C   0  0  0  0  0  0  0  0  0  0  0  0
  127.5130  127.7170   60.9260 C   0  0  0  0  0  0  0  0  0  0  0  0
  126.6470  127.6250   59.8480 C   0  0  0  0  0  0  0  0  0  0  0  0
  126.4770  128.9190   59.3570 C   0  0  0  0  0  0  0  0  0  0  0  0
  127.2440  129.7550   60.1520 C   0  0  0  0  0  0  0  0  0  0  0  0
  127.5000  131.2600   60.1680 C   0  0  1  0  0  0  0  0  0  0  0  0
  128.0060  131.7390   61.5610 C   0  0  0  0  0  0  0  0  0  0  0  0
  127.1410  131.6470   62.7330 C   0  0  0  0  0  0  0  0  0  0  0  0
  126.5500  132.6300   63.1830 O   0  0  0  0  0  0  0  0  0  0  0  0
  127.0430  130.4010   63.2530 N   0  0  0  0  0  0  0  0  0  0  0  0
  126.3290  129.9350   64.3780 C   0  0  0  0  0  0  0  0  0  0  0  0
  126.9410  129.3140   65.4820 C   0  0  0  0  0  0  0  0  0  0  0  0
  126.1760  128.8700   66.5590 C   0  0  0  0  0  0  0  0  0  0  0  0
  124.7940  129.0320   66.5490 C   0  0  0  0  0  0  0  0  0  0  0  0
  124.1740  129.6350   65.4580 C   0  0  0  0  0  0  0  0  0  0  0  0
  124.9270  130.0870   64.3700 C   0  0  0  0  0  0  0  0  0  0  0  0
  124.1990  130.7360   63.1970 C   0  0  0  0  0  0  0  0  0  0  0  0
  129.2980  132.1450   61.6750 C   0  0  0  0  0  0  0  0  0  0  0  0
  130.1650  132.2800   60.6340 N   0  0  0  0  0  0  0  0  0  0  0  0
  129.7460  132.0950   59.4360 C   0  0  0  0  0  0  0  0  0  0  0  0
  130.6970  132.3770   57.9980 S   0  0  0  0  0  0  0  0  0  0  0  0
  129.3300  131.9110   56.9380 C   0  0  0  0  0  0  0  0  0  0  0  0
  129.3160  131.8830   55.5600 C   0  0  0  0  0  0  0  0  0  0  0  0
  130.4850  132.3430   54.7970 C   0  0  0  0  0  0  0  0  0  0  0  0
  131.5730  132.7600   55.1900 O   0  0  0  0  0  0  0  0  0  0  0  0
  130.1730  132.2560   53.5000 N   0  0  0  0  0  0  0  0  0  0  0  0
  128.9260  131.7530   53.2860 C   0  0  0  0  0  0  0  0  0  0  0  0
  128.2970  131.5190   52.0630 C   0  0  0  0  0  0  0  0  0  0  0  0
  127.0200  130.9650   52.0600 C   0  0  0  0  0  0  0  0  0  0  0  0
  126.4020  130.6480   53.2680 C   0  0  0  0  0  0  0  0  0  0  0  0
  127.0530  130.8930   54.4800 C   0  0  0  0  0  0  0  0  0  0  0  0
  128.3350  131.4740   54.5060 C   0  0  0  0  0  0  0  0  0  0  0  0
  128.1930  131.5680   57.7930 C   0  0  0  0  0  0  0  0  0  0  0  0
  127.0680  131.2520   57.4190 O   0  0  0  0  0  0  0  0  0  0  0  0
  128.5010  131.6570   59.1160 N   0  0  0  0  0  0  0  0  0  0  0  0
  127.8730  129.0150   61.1040 O   0  0  0  0  0  0  0  0  0  0  0  0
  1  2  1  0
  2  3  2  0
  3  4  1  0
  4  5  2  0
  6  5  1  1
  6  7  1  0
  7  8  1  0
  8  9  2  0
  8 10  1  0
 10 11  1  0
 11 12  2  0
 12 13  1  0
 13 14  2  0
 14 15  1  0
 15 16  2  0
 16 17  1  0
  7 18  2  0
 18 19  1  0
 19 20  2  0
 20 21  1  0
 21 22  1  0
 22 23  2  0
 23 24  1  0
 24 25  2  0
 24 26  1  0
 26 27  1  0
 27 28  2  0
 28 29  1  0
 29 30  2  0
 30 31  1  0
 31 32  2  0
 22 33  1  0
 33 34  2  0
 33 35  1  0
  5 36  1  0
 36  2  1  0
 35  6  1  0
 16 11  1  0
 35 20  1  0
 32 23  1  0
 32 27  1  0
M  END
>  <Binding energies>  (44) 
[-9.88]

>  <Ligand effiencies>  (44) 
[-0.26]

>  <Interactions>  (44) 
["V-B:ARG:545:CZ:9898, V-B:HIS:456:CE1:9040, V-B:ARG:545:CG:9894, V-B:ARG:545:CD:9895, V-B:GLU:543:CD:9880, V-A:ILE:538:CD1:4865, V-A:ILE:538:CA:4860, H-A:TYR:539:N:4870, V-A:TYR:539:CZ:4877, V-A:PRO:540:CD:4887, V-A:TYR:539:C:4867, V-A:MET:535:CB:4832, V-A:PRO:540:CB:4885, V-A:PRO:540:N:4884, H-A:VAL:537:O:4851, V-A:TYR:539:CE1:4875, V-A:PRO:540:CA:4883, V-A:TYR:539:CD1:4873, V-A:TYR:539:CE2:4876, H-A:ALA:541:N:4891, V-A:ALA:541:CB:4892, H-A:TYR:539:OH:4878, V-B:TYR:531:CE1:9764, V-B:TYR:531:CZ:9766, V-B:MET:535:CE:9807, V-A:VAL:537:C:4850"]

$$$$
RR20_Rahimova_2017
     RDKit          3D

 38 43  0  0  0  0  0  0  0  0999 V2000
  132.7590  130.7650   60.3420 C   0  0  0  0  0  0  0  0  0  0  0  0
  132.1690  131.1100   58.9870 C   0  0  0  0  0  0  0  0  0  0  0  0
  132.9340  130.9400   57.8330 C   0  0  0  0  0  0  0  0  0  0  0  0
  132.3920  131.2480   56.5880 C   0  0  0  0  0  0  0  0  0  0  0  0
  131.0850  131.7400   56.4880 C   0  0  0  0  0  0  0  0  0  0  0  0
  130.5080  132.0480   55.1240 C   0  0  0  0  0  0  0  0  0  0  0  0
  130.8860  133.0800   54.5640 O   0  0  0  0  0  0  0  0  0  0  0  0
  129.6150  131.1810   54.5640 N   0  0  0  0  0  0  0  0  0  0  0  0
  129.1510  131.3400   53.1760 C   0  0  0  0  0  0  0  0  0  0  0  0
  128.3010  130.1200   52.8660 C   0  0  0  0  0  0  0  0  0  0  0  0
  128.6540  129.1760   53.9750 C   0  0  0  0  0  0  0  0  0  0  0  0
  128.2460  127.8560   54.1700 C   0  0  0  0  0  0  0  0  0  0  0  0
  128.5520  127.1830   55.3600 C   0  0  0  0  0  0  0  0  0  0  0  0
  128.1200  125.7580   55.5660 C   0  0  0  0  0  0  0  0  0  0  0  0
  127.8310  125.3610   56.7960 N   0  0  0  0  0  0  0  0  0  0  0  0
  127.4490  124.1100   56.8550 C   0  0  0  0  0  0  0  0  0  0  0  0
  127.0710  123.3850   57.9750 N   0  0  0  0  0  0  0  0  0  0  0  0
  126.7750  123.8770   59.2030 C   0  0  0  0  0  0  0  0  0  0  0  0
  126.7840  125.0770   59.4850 O   0  0  0  0  0  0  0  0  0  0  0  0
  126.3770  122.8740   60.3110 C   0  0  0  0  0  0  0  0  0  0  0  0
  127.5010  122.5190   61.1980 N   0  0  0  0  0  0  0  0  0  0  0  0
  128.6310  121.9300   60.4650 C   0  0  0  0  0  0  0  0  0  0  0  0
  129.6580  121.3370   61.4560 C   0  0  0  0  0  0  0  0  0  0  0  0
  129.9750  122.2760   62.6200 C   0  0  0  0  0  0  0  0  0  0  0  0
  131.0650  122.0360   63.4640 C   0  0  0  0  0  0  0  0  0  0  0  0
  131.3320  122.8690   64.5470 C   0  0  0  0  0  0  0  0  0  0  0  0
  130.5060  123.9610   64.7990 C   0  0  0  0  0  0  0  0  0  0  0  0
  129.4230  124.2170   63.9620 C   0  0  0  0  0  0  0  0  0  0  0  0
  129.1440  123.3870   62.8710 C   0  0  0  0  0  0  0  0  0  0  0  0
  127.9890  123.7010   61.9190 C   0  0  0  0  0  0  0  0  0  0  0  0
  127.4300  123.2990   55.3380 S   0  0  0  0  0  0  0  0  0  0  0  0
  127.9900  124.7660   54.5710 C   0  0  0  0  0  0  0  0  0  0  0  0
  128.2690  124.7950   53.0840 C   0  0  0  0  0  0  0  0  0  0  0  0
  129.2260  127.8840   56.3710 C   0  0  0  0  0  0  0  0  0  0  0  0
  129.6190  129.2100   56.1870 C   0  0  0  0  0  0  0  0  0  0  0  0
  129.3820  129.8440   54.9600 C   0  0  0  0  0  0  0  0  0  0  0  0
  130.3130  131.8800   57.6480 C   0  0  0  0  0  0  0  0  0  0  0  0
  130.8550  131.5720   58.8940 C   0  0  0  0  0  0  0  0  0  0  0  0
  1  2  1  0
  2  3  2  0
  3  4  1  0
  4  5  2  0
  5  6  1  0
  6  7  2  0
  6  8  1  0
  8  9  1  0
  9 10  1  0
 10 11  1  0
 11 12  2  0
 12 13  1  0
 13 14  1  0
 14 15  1  0
 15 16  2  0
 16 17  1  0
 17 18  1  0
 18 19  2  0
 18 20  1  0
 20 21  1  0
 21 22  1  0
 22 23  1  0
 23 24  1  0
 24 25  2  0
 25 26  1  0
 26 27  2  0
 27 28  1  0
 28 29  2  0
 29 30  1  0
 16 31  1  0
 31 32  1  0
 32 33  1  0
 13 34  2  0
 34 35  1  0
 35 36  2  0
  5 37  1  0
 37 38  2  0
 38  2  1  0
 36  8  1  0
 36 11  1  0
 32 14  2  0
 30 21  1  0
 29 24  1  0
M  END
>  <Binding energies>  (45) 
[-10.97]

>  <Ligand effiencies>  (45) 
[-0.2812820512820513]

>  <Interactions>  (45) 
["V-A:TYR:484:CZ:4347, V-B:GLU:543:CB:9878, V-A:TYR:484:CE1:4345, V-B:GLU:543:CD:9880, V-B:TYR:539:CE2:9848, V-B:PRO:540:N:9856, V-B:PRO:540:C:9853, V-B:PRO:540:CA:9855, H-B:ALA:541:N:9863, V-B:TYR:539:CZ:9849, V-B:PRO:540:CB:9857, V-B:TYR:539:CE1:9847, V-B:TYR:539:CD2:9846, V-A:LEU:363:CD1:3189, V-A:MET:535:CE:4835, H-A:TYR:539:N:4870, V-A:TYR:539:C:4867, V-A:MET:535:CB:4832, V-A:PRO:540:CB:4885, V-A:PRO:540:N:4884, V-A:PRO:540:CA:4883, V-B:GLU:543:CG:9879, V-A:LEU:475:CD1:4258, V-B:ALA:541:CB:9864, H-B:TYR:539:O:9840, V-B:MET:535:CE:9807, V-B:MET:535:CB:9804, V-B:MET:535:CG:9805"]

$$$$
RR21_Rahimova_2017
     RDKit          3D

 40 45  0  0  0  0  0  0  0  0999 V2000
  123.8160  130.5340   62.9860 C   0  0  0  0  0  0  0  0  0  0  0  0
  123.8610  130.4720   64.4080 O   0  0  0  0  0  0  0  0  0  0  0  0
  124.8450  129.7190   65.0210 C   0  0  0  0  0  0  0  0  0  0  0  0
  126.0710  129.3830   64.4220 C   0  0  0  0  0  0  0  0  0  0  0  0
  127.0130  128.6210   65.1120 C   0  0  0  0  0  0  0  0  0  0  0  0
  126.7580  128.1780   66.4150 C   0  0  0  0  0  0  0  0  0  0  0  0
  127.7740  127.3640   67.1560 C   0  0  0  0  0  0  0  0  0  0  0  0
  127.7890  127.3760   68.4740 N   0  0  0  0  0  0  0  0  0  0  0  0
  128.7880  126.5660   68.8550 N   0  0  0  0  0  0  0  0  0  0  0  0
  129.0720  126.3340   70.2260 C   0  0  0  0  0  0  0  0  0  0  0  0
  129.3910  125.0460   70.6850 C   0  0  0  0  0  0  0  0  0  0  0  0
  129.6730  124.8320   72.0320 C   0  0  0  0  0  0  0  0  0  0  0  0
  129.6350  125.9010   72.9240 C   0  0  0  0  0  0  0  0  0  0  0  0
  129.3170  127.1830   72.4820 C   0  0  0  0  0  0  0  0  0  0  0  0
  129.0350  127.4000   71.1360 C   0  0  0  0  0  0  0  0  0  0  0  0
  129.4020  126.0220   67.7560 C   0  0  0  0  0  0  0  0  0  0  0  0
  128.7810  126.5270   66.6240 C   0  0  0  0  0  0  0  0  0  0  0  0
  129.0520  126.2060   65.2310 C   0  0  0  0  0  0  0  0  0  0  0  0
  130.1980  125.7330   64.6880 C   0  0  0  0  0  0  0  0  0  0  0  0
  131.7280  125.3670   65.5150 S   0  0  0  0  0  0  0  0  0  0  0  0
  132.4140  124.8430   63.9840 C   0  0  0  0  0  0  0  0  0  0  0  0
  133.6040  124.3740   63.7640 N   0  0  0  0  0  0  0  0  0  0  0  0
  134.0330  123.9720   62.4700 C   0  0  0  0  0  0  0  0  0  0  0  0
  135.1320  123.5010   62.1830 O   0  0  0  0  0  0  0  0  0  0  0  0
  132.9920  124.1600   61.3990 C   0  0  0  0  0  0  0  0  0  0  0  0
  133.3480  123.7780   59.9570 C   0  0  0  0  0  0  0  0  0  0  0  0
  132.5060  124.4810   58.8940 C   0  0  0  0  0  0  0  0  0  0  0  0
  133.1280  125.1420   57.8320 C   0  0  0  0  0  0  0  0  0  0  0  0
  132.3590  125.7690   56.8540 C   0  0  0  0  0  0  0  0  0  0  0  0
  130.9660  125.7330   56.9340 C   0  0  0  0  0  0  0  0  0  0  0  0
  130.1330  126.4070   55.8600 C   0  0  0  0  0  0  0  0  0  0  0  0
  130.3410  125.0630   57.9890 C   0  0  0  0  0  0  0  0  0  0  0  0
  131.1100  124.4370   58.9670 C   0  0  0  0  0  0  0  0  0  0  0  0
  131.8120  124.6330   61.6330 N   0  0  0  0  0  0  0  0  0  0  0  0
  131.5180  124.9790   62.9580 N   0  0  0  0  0  0  0  0  0  0  0  0
  130.2880  125.4630   63.2600 C   0  0  0  0  0  0  0  0  0  0  0  0
  129.3790  125.6410   62.4400 O   0  0  0  0  0  0  0  0  0  0  0  0
  125.5350  128.5080   67.0100 C   0  0  0  0  0  0  0  0  0  0  0  0
  124.5910  129.2700   66.3220 C   0  0  0  0  0  0  0  0  0  0  0  0
  123.4180  129.5720   66.9260 F   0  0  0  0  0  0  0  0  0  0  0  0
  1  2  1  0
  2  3  1  0
  3  4  2  0
  4  5  1  0
  5  6  2  0
  6  7  1  0
  7  8  2  0
  8  9  1  0
  9 10  1  0
 10 11  2  0
 11 12  1  0
 12 13  2  0
 13 14  1  0
 14 15  2  0
  9 16  1  0
 16 17  2  0
 17 18  1  0
 18 19  2  0
 19 20  1  0
 20 21  1  0
 21 22  2  0
 22 23  1  0
 23 24  2  0
 23 25  1  0
 25 26  1  0
 26 27  1  0
 27 28  2  0
 28 29  1  0
 29 30  2  0
 30 31  1  0
 30 32  1  0
 32 33  2  0
 25 34  2  0
 34 35  1  0
 35 36  1  0
 36 37  2  0
  6 38  1  0
 38 39  2  0
 39 40  1  0
 39  3  1  0
 17  7  1  0
 36 19  1  0
 15 10  1  0
 35 21  1  0
 33 27  1  0
M  END
>  <Binding energies>  (46) 
[-10.44]

>  <Ligand effiencies>  (46) 
[-0.261]

>  <Interactions>  (46) 
["V-A:HIS:456:CE1:4069, V-A:HIS:456:CD2:4068, V-B:ARG:545:CZ:9898, H-B:GLY:454:N:9021, V-B:GLU:543:CB:9878, V-B:HIS:456:CE1:9040, H-B:ARG:545:NH2:9900, V-B:ARG:545:CG:9894, V-B:ARG:545:CD:9895, V-B:GLU:543:CD:9880, H-A:GLY:454:N:4050, V-A:GLY:453:C:4042, V-B:TYR:539:CE2:9848, V-A:ASP:366:CG:3213, V-B:TYR:539:CZ:9849, H-B:TYR:484:OH:9319, V-A:ASP:366:CB:3212, V-B:GLU:543:CG:9879, V-A:ASP:366:C:3208, V-A:ASP:366:CA:3210, V-B:ILE:455:C:9023"]

$$$$
RR23_Rahimova_2017
     RDKit          3D

 39 44  0  0  0  0  0  0  0  0999 V2000
  130.4860  123.0400   64.9290 C   0  0  0  0  0  0  0  0  0  0  0  0
  129.8500  124.3420   65.3820 C   0  0  0  0  0  0  0  0  0  0  0  0
  129.5780  124.5530   66.7340 C   0  0  0  0  0  0  0  0  0  0  0  0
  129.0030  125.7520   67.1490 C   0  0  0  0  0  0  0  0  0  0  0  0
  128.6850  126.7430   66.2140 C   0  0  0  0  0  0  0  0  0  0  0  0
  128.0800  128.0460   66.6880 C   0  0  0  0  0  0  0  0  0  0  0  0
  128.7950  128.8000   67.3510 O   0  0  0  0  0  0  0  0  0  0  0  0
  126.7880  128.3440   66.3560 N   0  0  0  0  0  0  0  0  0  0  0  0
  125.7440  128.4890   67.3830 C   0  0  0  0  0  0  0  0  0  0  0  0
  124.4940  128.9610   66.6590 C   0  0  0  0  0  0  0  0  0  0  0  0
  125.0270  129.4100   65.3320 C   0  0  0  0  0  0  0  0  0  0  0  0
  124.3530  130.0240   64.2760 C   0  0  0  0  0  0  0  0  0  0  0  0
  124.9950  130.2240   63.0450 C   0  0  0  0  0  0  0  0  0  0  0  0
  124.2900  130.8960   61.8570 C   0  0  2  0  0  0  0  0  0  0  0  0
  124.6690  130.3040   60.5920 N   0  0  0  0  0  0  0  0  0  0  0  0
  124.6620  131.1580   59.6490 C   0  0  0  0  0  0  0  0  0  0  0  0
  124.9870  130.9670   58.3420 N   0  0  0  0  0  0  0  0  0  0  0  0
  125.5250  129.8680   57.7600 C   0  0  0  0  0  0  0  0  0  0  0  0
  125.7820  128.8070   58.3330 O   0  0  0  0  0  0  0  0  0  0  0  0
  125.8320  129.9960   56.2590 C   0  0  0  0  0  0  0  0  0  0  0  0
  127.1560  130.6360   56.0880 N   0  0  0  0  0  0  0  0  0  0  0  0
  127.6500  131.2920   57.2080 N   0  0  0  0  0  0  0  0  0  0  0  0
  128.7970  131.8930   57.1880 N   0  0  0  0  0  0  0  0  0  0  0  0
  129.5650  131.8860   56.0210 C   0  0  0  0  0  0  0  0  0  0  0  0
  130.7960  132.5450   56.0330 C   0  0  0  0  0  0  0  0  0  0  0  0
  131.5860  132.5570   54.8820 C   0  0  0  0  0  0  0  0  0  0  0  0
  131.1470  131.9140   53.7230 C   0  0  0  0  0  0  0  0  0  0  0  0
  129.9160  131.2550   53.7090 C   0  0  0  0  0  0  0  0  0  0  0  0
  129.1250  131.2420   54.8640 C   0  0  0  0  0  0  0  0  0  0  0  0
  127.7880  130.5380   54.8680 C   0  0  0  0  0  0  0  0  0  0  0  0
  127.3160  129.9540   53.8880 O   0  0  0  0  0  0  0  0  0  0  0  0
  124.1840  132.8280   60.0710 S   0  0  0  0  0  0  0  0  0  0  0  0
  124.4480  132.4330   61.8090 C   0  0  2  0  0  0  0  0  0  0  0  0
  125.8120  133.0030   62.2520 C   0  0  0  0  0  0  0  0  0  0  0  0
  126.3030  129.7540   62.8820 C   0  0  0  0  0  0  0  0  0  0  0  0
  126.9710  129.1210   63.9310 C   0  0  0  0  0  0  0  0  0  0  0  0
  126.3520  128.9980   65.1820 C   0  0  0  0  0  0  0  0  0  0  0  0
  128.9870  126.5360   64.8620 C   0  0  0  0  0  0  0  0  0  0  0  0
  129.5630  125.3380   64.4470 C   0  0  0  0  0  0  0  0  0  0  0  0
  1  2  1  0
  2  3  2  0
  3  4  1  0
  4  5  2  0
  5  6  1  0
  6  7  2  0
  6  8  1  0
  8  9  1  0
  9 10  1  0
 10 11  1  0
 11 12  2  0
 12 13  1  0
 14 13  1  1
 14 15  1  0
 15 16  2  0
 16 17  1  0
 17 18  1  0
 18 19  2  0
 18 20  1  0
 20 21  1  0
 21 22  1  0
 22 23  2  0
 23 24  1  0
 24 25  2  0
 25 26  1  0
 26 27  2  0
 27 28  1  0
 28 29  2  0
 29 30  1  0
 30 31  2  0
 16 32  1  0
 32 33  1  0
 33 34  1  6
 13 35  2  0
 35 36  1  0
 36 37  2  0
  5 38  1  0
 38 39  2  0
 39  2  1  0
 37  8  1  0
 37 11  1  0
 33 14  1  0
 30 21  1  0
 29 24  1  0
M  END
>  <Binding energies>  (47) 
[-11.0]

>  <Ligand effiencies>  (47) 
[-0.275]

>  <Interactions>  (47) 
["V-A:HIS:456:CE1:4069, V-A:TYR:484:CZ:4347, V-B:ARG:545:CZ:9898, V-B:GLU:543:CB:9878, V-B:HIS:456:CE1:9040, V-B:GLU:543:C:9874, V-B:ARG:545:CG:9894, V-A:TYR:484:CE1:4345, V-B:ARG:545:CD:9895, V-B:GLU:543:CD:9880, V-A:ILE:538:CG2:4863, V-A:ILE:538:CD1:4865, V-A:ILE:538:CA:4860, H-B:TYR:531:OH:9767, V-A:TYR:531:CE2:4793, V-A:TYR:539:CZ:4877, V-A:PRO:540:CD:4887, V-A:TYR:539:C:4867, V-A:PRO:540:N:4884, V-A:TYR:539:CE1:4875, V-A:TYR:539:CD1:4873, V-B:GLU:543:CG:9879, V-B:LEU:475:CD1:9229, V-A:TYR:539:CE2:4876, H-A:TYR:539:OH:4878, V-B:GLU:543:CA:9876, V-B:TYR:531:CE1:9764, V-B:TYR:531:CZ:9766"]

$$$$
RR26_Rahimova_2017
     RDKit          3D

 38 44  0  0  0  0  0  0  0  0999 V2000
  127.7410  133.7570   61.3920 C   0  0  0  0  0  0  0  0  0  0  0  0
  126.2290  133.8160   61.5710 C   0  0  0  0  0  0  0  0  0  0  0  0
  125.5370  134.8930   61.0060 C   0  0  0  0  0  0  0  0  0  0  0  0
  124.1500  134.9780   61.1040 C   0  0  0  0  0  0  0  0  0  0  0  0
  123.4400  133.9790   61.7630 C   0  0  0  0  0  0  0  0  0  0  0  0
  124.1170  132.9020   62.3290 C   0  0  0  0  0  0  0  0  0  0  0  0
  125.5150  132.8040   62.2480 C   0  0  0  0  0  0  0  0  0  0  0  0
  126.1680  131.6180   62.8980 C   0  0  0  0  0  0  0  0  0  0  0  0
  126.3060  131.5170   64.2180 N   0  0  0  0  0  0  0  0  0  0  0  0
  126.8960  130.3580   64.3390 C   0  0  0  0  0  0  0  0  0  0  0  0
  127.4740  129.3960   65.6480 S   0  0  0  0  0  0  0  0  0  0  0  0
  128.0080  128.1450   64.4630 C   0  0  0  0  0  0  0  0  0  0  0  0
  128.6220  126.9690   64.7220 C   0  0  0  0  0  0  0  0  0  0  0  0
  128.9960  126.4180   66.0140 C   0  0  0  0  0  0  0  0  0  0  0  0
  128.5450  126.7950   67.2690 C   0  0  0  0  0  0  0  0  0  0  0  0
  129.1370  125.9740   68.1950 N   0  0  0  0  0  0  0  0  0  0  0  0
  128.9740  125.9790   69.6040 C   0  0  0  0  0  0  0  0  0  0  0  0
  129.5540  124.9790   70.3980 C   0  0  0  0  0  0  0  0  0  0  0  0
  129.3840  124.9940   71.7800 C   0  0  0  0  0  0  0  0  0  0  0  0
  128.6370  126.0090   72.3730 C   0  0  0  0  0  0  0  0  0  0  0  0
  128.0590  127.0110   71.5960 C   0  0  0  0  0  0  0  0  0  0  0  0
  128.2250  126.9970   70.2140 C   0  0  0  0  0  0  0  0  0  0  0  0
  129.9210  125.0730   67.5840 N   0  0  0  0  0  0  0  0  0  0  0  0
  129.8520  125.3280   66.2920 C   0  0  0  0  0  0  0  0  0  0  0  0
  130.6330  124.4930   65.3240 C   0  0  0  0  0  0  0  0  0  0  0  0
  130.0980  123.2940   64.8280 C   0  0  0  0  0  0  0  0  0  0  0  0
  130.8200  122.5080   63.9280 C   0  0  0  0  0  0  0  0  0  0  0  0
  132.0870  122.9160   63.5180 C   0  0  0  0  0  0  0  0  0  0  0  0
  132.6250  124.1210   63.9920 C   0  0  0  0  0  0  0  0  0  0  0  0
  131.9040  124.9020   64.8950 C   0  0  0  0  0  0  0  0  0  0  0  0
  133.8940  124.5430   63.6480 O   0  0  0  0  0  0  0  0  0  0  0  0
  134.4180  123.9200   62.4710 C   0  0  0  0  0  0  0  0  0  0  0  0
  134.1510  122.3950   62.4990 C   0  0  0  0  0  0  0  0  0  0  0  0
  132.7460  122.1330   62.5910 O   0  0  0  0  0  0  0  0  0  0  0  0
  127.7200  128.5290   63.0840 C   0  0  0  0  0  0  0  0  0  0  0  0
  127.9540  127.9150   62.0420 O   0  0  0  0  0  0  0  0  0  0  0  0
  127.0960  129.7850   63.1390 N   0  0  0  0  0  0  0  0  0  0  0  0
  126.6200  130.5950   62.1890 N   0  0  0  0  0  0  0  0  0  0  0  0
  1  2  1  0
  2  3  2  0
  3  4  1  0
  4  5  2  0
  5  6  1  0
  6  7  2  0
  7  8  1  0
  8  9  1  0
  9 10  2  0
 10 11  1  0
 11 12  1  0
 12 13  2  0
 13 14  1  0
 14 15  2  0
 15 16  1  0
 16 17  1  0
 17 18  2  0
 18 19  1  0
 19 20  2  0
 20 21  1  0
 21 22  2  0
 16 23  1  0
 23 24  2  0
 24 25  1  0
 25 26  2  0
 26 27  1  0
 27 28  2  0
 28 29  1  0
 29 30  2  0
 29 31  1  0
 31 32  1  0
 32 33  1  0
 33 34  1  0
 12 35  1  0
 35 36  2  0
 35 37  1  0
 37 38  1  0
  7  2  1  0
 38  8  2  0
 37 10  1  0
 24 14  1  0
 30 25  1  0
 22 17  1  0
 34 28  1  0
M  END
>  <Binding energies>  (48) 
[-10.13]

>  <Ligand effiencies>  (48) 
[-0.2665789473684211]

>  <Interactions>  (48) 
["V-A:HIS:456:CE1:4069, V-A:HIS:456:CD2:4068, V-A:TYR:484:CZ:4347, V-B:GLU:543:CB:9878, V-B:HIS:456:CE1:9040, V-B:GLY:454:CA:9020, H-A:TYR:484:OH:4348, V-A:TYR:484:CE1:4345, V-B:GLU:543:CD:9880, H-A:GLY:454:N:4050, V-A:GLY:453:CA:4044, V-A:ILE:369:CD1:3239, V-A:GLY:453:C:4042, H-B:TYR:484:OH:9319, V-B:GLU:543:CG:9879, V-A:GLY:454:CA:4049, V-A:LEU:475:CD1:4258, V-B:LEU:475:CD1:9229, V-A:TYR:539:CE2:4876, V-A:ALA:541:CB:4892, V-A:TYR:539:CD2:4874, V-B:ILE:369:CG2:8208, V-B:TRP:381:CZ2:8341, V-B:TRP:381:CH2:8343, V-B:ILE:369:CD1:8210, H-A:ARG:545:NH2:4928, H-A:HIS:456:NE2:4070"]

$$$$
RR2_Rahimova_2017
     RDKit          3D

 46 50  0  0  0  0  0  0  0  0999 V2000
  124.8950  122.8080   57.4440 C   0  0  0  0  0  0  0  0  0  0  0  0
  125.9900  122.3790   56.6430 O   0  0  0  0  0  0  0  0  0  0  0  0
  126.7910  123.3270   56.0330 C   0  0  0  0  0  0  0  0  0  0  0  0
  127.5830  123.0840   54.9020 C   0  0  0  0  0  0  0  0  0  0  0  0
  128.3620  124.1020   54.3580 C   0  0  0  0  0  0  0  0  0  0  0  0
  128.3720  125.3810   54.9320 C   0  0  0  0  0  0  0  0  0  0  0  0
  129.2350  126.4690   54.3240 C   0  0  0  0  0  0  0  0  0  0  0  0
  130.4620  126.3340   54.2700 O   0  0  0  0  0  0  0  0  0  0  0  0
  128.5770  127.5650   53.8790 N   0  0  0  0  0  0  0  0  0  0  0  0
  129.3280  128.6320   53.3970 N   0  0  0  0  0  0  0  0  0  0  0  0
  128.7380  129.8410   53.3160 C   0  0  0  0  0  0  0  0  0  0  0  0
  127.5300  130.0490   53.4650 O   0  0  0  0  0  0  0  0  0  0  0  0
  129.6810  131.0190   53.0380 C   0  0  0  0  0  0  0  0  0  0  0  0
  131.2400  131.0070   53.9970 S   0  0  0  0  0  0  0  0  0  0  0  0
  130.6990  131.7480   55.5070 C   0  0  0  0  0  0  0  0  0  0  0  0
  130.4430  133.0270   55.6230 N   0  0  0  0  0  0  0  0  0  0  0  0
  130.1180  133.2690   56.9500 N   0  0  0  0  0  0  0  0  0  0  0  0
  130.1600  132.1200   57.5820 C   0  0  0  0  0  0  0  0  0  0  0  0
  129.8500  131.9710   59.0360 C   0  0  0  0  0  0  0  0  0  0  0  0
  130.4250  130.9260   59.7650 C   0  0  0  0  0  0  0  0  0  0  0  0
  130.1370  130.7740   61.1180 C   0  0  0  0  0  0  0  0  0  0  0  0
  129.2830  131.6780   61.7600 C   0  0  0  0  0  0  0  0  0  0  0  0
  128.9490  131.5670   63.1180 N   0  0  0  0  0  0  0  0  0  0  0  0
  127.3060  131.7430   63.7750 S   0  0  0  0  0  0  0  0  0  0  0  0
  127.1910  133.1420   64.2030 O   0  0  0  0  0  0  0  0  0  0  0  0
  127.0740  130.6450   64.7200 O   0  0  0  0  0  0  0  0  0  0  0  0
  126.2160  131.5430   62.3680 C   0  0  0  0  0  0  0  0  0  0  0  0
  126.1120  130.3110   61.7180 C   0  0  0  0  0  0  0  0  0  0  0  0
  125.2710  130.1800   60.6170 C   0  0  0  0  0  0  0  0  0  0  0  0
  124.5300  131.2760   60.1700 C   0  0  0  0  0  0  0  0  0  0  0  0
  123.6240  131.1350   58.9600 C   0  0  0  0  0  0  0  0  0  0  0  0
  124.6380  132.5080   60.8200 C   0  0  0  0  0  0  0  0  0  0  0  0
  125.4800  132.6410   61.9200 C   0  0  0  0  0  0  0  0  0  0  0  0
  128.7120  132.7220   61.0330 C   0  0  0  0  0  0  0  0  0  0  0  0
  128.9950  132.8710   59.6780 C   0  0  0  0  0  0  0  0  0  0  0  0
  130.5300  131.1030   56.7180 N   0  0  0  0  0  0  0  0  0  0  0  0
  130.7330  129.7370   57.0080 C   0  0  0  0  0  0  0  0  0  0  0  0
  132.0240  129.2580   57.2330 C   0  0  0  0  0  0  0  0  0  0  0  0
  132.2180  127.9100   57.5230 C   0  0  0  0  0  0  0  0  0  0  0  0
  131.1330  127.0350   57.5890 C   0  0  0  0  0  0  0  0  0  0  0  0
  131.4240  125.7160   57.8820 O   0  0  0  0  0  0  0  0  0  0  0  0
  132.7350  125.2210   57.6280 C   0  0  0  0  0  0  0  0  0  0  0  0
  129.8370  127.5270   57.3610 C   0  0  0  0  0  0  0  0  0  0  0  0
  129.6380  128.8730   57.0730 C   0  0  0  0  0  0  0  0  0  0  0  0
  127.5720  125.6170   56.0610 C   0  0  0  0  0  0  0  0  0  0  0  0
  126.7930  124.5990   56.6020 C   0  0  0  0  0  0  0  0  0  0  0  0
  1  2  1  0
  2  3  1  0
  3  4  2  0
  4  5  1  0
  5  6  2  0
  6  7  1  0
  7  8  2  0
  7  9  1  0
  9 10  1  0
 10 11  1  0
 11 12  2  0
 11 13  1  0
 13 14  1  0
 14 15  1  0
 15 16  2  0
 16 17  1  0
 17 18  2  0
 18 19  1  0
 19 20  2  0
 20 21  1  0
 21 22  2  0
 22 23  1  0
 23 24  1  0
 24 25  2  0
 24 26  2  0
 24 27  1  0
 27 28  2  0
 28 29  1  0
 29 30  2  0
 30 31  1  0
 30 32  1  0
 32 33  2  0
 22 34  1  0
 34 35  2  0
 18 36  1  0
 36 37  1  0
 37 38  2  0
 38 39  1  0
 39 40  2  0
 40 41  1  0
 41 42  1  0
 40 43  1  0
 43 44  2  0
  6 45  1  0
 45 46  2  0
 46  3  1  0
 36 15  1  0
 44 37  1  0
 35 19  1  0
 33 27  1  0
M  END
>  <Binding energies>  (49) 
[-10.89]

>  <Ligand effiencies>  (49) 
[-0.22224489795918367]

>  <Interactions>  (49) 
["V-A:GLU:543:CD:4908, H-B:TYR:539:OH:9850, V-B:PRO:540:N:9856, V-A:ASP:366:CG:3213, V-B:ILE:538:CA:9832, V-B:PRO:540:CA:9855, V-B:PRO:540:CD:9859, V-B:LEU:363:CD1:8160, V-B:TYR:539:CD1:9845, V-B:TYR:539:CZ:9849, H-B:TYR:484:OH:9319, H-B:TYR:539:N:9842, V-B:PRO:540:CB:9857, V-B:TYR:539:CE1:9847, H-A:GLU:543:OE1:4909, V-B:ILE:538:CG2:9835, V-A:ASP:366:CB:3212, H-A:TYR:531:OH:4795, H-B:TYR:531:OH:9767, V-A:MET:535:CE:4835, V-A:MET:535:CG:4833, H-A:TYR:539:N:4870, V-A:TYR:539:C:4867, V-A:MET:535:CB:4832, V-A:PRO:540:N:4884, V-B:PRO:540:CG:9858, V-A:PRO:540:CA:4883, V-A:ASP:366:CA:3210, V-B:LEU:475:CD1:9229, V-A:ALA:541:CB:4892, V-B:ASP:366:CG:8184, V-B:ASP:366:CB:8183, V-B:ILE:369:CG2:8208, V-A:PRO:540:C:4881, V-B:ASP:366:CA:8181, H-B:MET:535:SD:9806, V-A:TYR:531:CZ:4794, H-A:MET:535:SD:4834"]

$$$$
RR33_Rahimova_2017
     RDKit          3D

 18 19  0  0  0  0  0  0  0  0999 V2000
  123.7450  131.8220   75.9940 C   0  0  0  0  0  0  0  0  0  0  0  0
  123.5540  130.3250   76.2570 C   0  0  0  0  0  0  0  0  0  0  0  0
  124.8190  129.7520   76.5780 O   0  0  0  0  0  0  0  0  0  0  0  0
  125.5290  129.0830   75.5990 C   0  0  0  0  0  0  0  0  0  0  0  0
  124.8100  128.1820   74.8150 C   0  0  0  0  0  0  0  0  0  0  0  0
  125.4410  127.4600   73.8060 C   0  0  0  0  0  0  0  0  0  0  0  0
  126.8070  127.6310   73.5650 C   0  0  0  0  0  0  0  0  0  0  0  0
  127.4840  126.8540   72.4810 C   0  0  0  0  0  0  0  0  0  0  0  0
  128.3650  125.8880   72.6160 N   0  0  0  0  0  0  0  0  0  0  0  0
  128.6690  125.5160   71.3830 C   0  0  0  0  0  0  0  0  0  0  0  0
  129.6590  124.4000   71.1280 C   0  0  0  0  0  0  0  0  0  0  0  0
  129.1070  123.1190   71.5450 N   0  0  0  0  0  0  0  0  0  0  0  0
  130.1380  122.2880   72.1440 C   0  0  0  0  0  0  0  0  0  0  0  0
  127.9490  126.2830   70.4740 C   0  0  0  0  0  0  0  0  0  0  0  0
  127.8450  126.3470   68.9700 C   0  0  0  0  0  0  0  0  0  0  0  0
  127.1880  127.1440   71.1870 O   0  0  0  0  0  0  0  0  0  0  0  0
  127.5310  128.5370   74.3450 C   0  0  0  0  0  0  0  0  0  0  0  0
  126.9000  129.2590   75.3560 C   0  0  0  0  0  0  0  0  0  0  0  0
  1  2  1  0
  2  3  1  0
  3  4  1  0
  4  5  2  0
  5  6  1  0
  6  7  2  0
  7  8  1  0
  8  9  2  0
  9 10  1  0
 10 11  1  0
 11 12  1  0
 12 13  1  0
 10 14  2  0
 14 15  1  0
 14 16  1  0
  7 17  1  0
 17 18  2  0
 18  4  1  0
 16  8  1  0
M  END
>  <Binding energies>  (50) 
[-5.79]

>  <Ligand effiencies>  (50) 
[-0.30473684210526314]

>  <Interactions>  (50) 
["V-A:HIS:456:CD2:4068, H-B:LYS:547:NZ:9923, V-B:HIS:456:CE1:9040, V-A:TYR:484:CE2:4346, V-B:GLU:543:C:9874, V-A:TYR:484:CD2:4344, V-A:TYR:484:CD1:4343, H-B:HIS:456:NE2:9041, H-B:GLU:543:O:9875, V-A:TYR:484:CG:4342, V-B:HIS:456:CG:9037, V-B:HIS:456:CD2:9039, V-B:VAL:458:CG2:9058, V-B:LYS:471:CE:9191, V-B:LYS:471:CG:9189, V-B:HIS:456:C:9032, V-B:VAL:457:C:9044, V-B:HIS:456:CB:9036, V-B:LEU:472:CA:9199, V-B:VAL:457:CA:9046, V-B:GLY:544:C:9884, V-B:LYS:471:C:9184, V-B:ASP:473:CB:9210, V-B:ASP:473:CG:9211, V-B:HIS:456:CA:9034, V-B:LEU:472:C:9197, V-A:TYR:484:CB:4341"]

$$$$
RR3_Rahimova_2017
     RDKit          3D

 38 44  0  0  0  0  0  0  0  0999 V2000
  123.9020  132.0730   62.3700 C   0  0  0  0  0  0  0  0  0  0  0  0
  125.1310  132.4890   62.8710 C   0  0  0  0  0  0  0  0  0  0  0  0
  125.8350  131.6650   63.7450 C   0  0  0  0  0  0  0  0  0  0  0  0
  125.3210  130.4180   64.1290 C   0  0  0  0  0  0  0  0  0  0  0  0
  126.0790  129.5320   65.0680 C   0  0  0  0  0  0  0  0  0  0  0  0
  127.4620  129.3540   64.9320 C   0  0  0  0  0  0  0  0  0  0  0  0
  128.1660  128.5270   65.8030 C   0  0  0  0  0  0  0  0  0  0  0  0
  127.5000  127.8530   66.8290 C   0  0  0  0  0  0  0  0  0  0  0  0
  128.2500  126.9580   67.7660 C   0  0  0  0  0  0  0  0  0  0  0  0
  128.3150  127.2560   69.0590 N   0  0  0  0  0  0  0  0  0  0  0  0
  128.9870  126.2870   69.6330 C   0  0  0  0  0  0  0  0  0  0  0  0
  129.2970  126.2080   71.0580 C   0  0  0  0  0  0  0  0  0  0  0  0
  128.9940  127.1680   72.0080 C   0  0  0  0  0  0  0  0  0  0  0  0
  129.4230  126.7620   73.2450 N   0  0  0  0  0  0  0  0  0  0  0  0
  130.0230  125.5260   73.1500 C   0  0  0  0  0  0  0  0  0  0  0  0
  130.6070  124.7170   74.1310 C   0  0  0  0  0  0  0  0  0  0  0  0
  131.1400  123.4980   73.7110 C   0  0  0  0  0  0  0  0  0  0  0  0
  131.0970  123.0980   72.3800 C   0  0  0  0  0  0  0  0  0  0  0  0
  130.5150  123.9040   71.4030 C   0  0  0  0  0  0  0  0  0  0  0  0
  129.9630  125.1440   71.7730 C   0  0  0  0  0  0  0  0  0  0  0  0
  129.3720  125.3490   68.7160 N   0  0  0  0  0  0  0  0  0  0  0  0
  128.9310  125.7620   67.4850 C   0  0  0  0  0  0  0  0  0  0  0  0
  129.2220  125.0120   66.2260 C   0  0  0  0  0  0  0  0  0  0  0  0
  129.3750  123.6260   66.2570 C   0  0  0  0  0  0  0  0  0  0  0  0
  129.6590  122.9250   65.0890 C   0  0  0  0  0  0  0  0  0  0  0  0
  129.7900  123.5930   63.8620 C   0  0  0  0  0  0  0  0  0  0  0  0
  130.1140  122.8390   62.6110 C   0  0  0  0  0  0  0  0  0  0  0  0
  129.0970  122.4140   61.7430 C   0  0  0  0  0  0  0  0  0  0  0  0
  129.3990  121.7150   60.5760 C   0  0  0  0  0  0  0  0  0  0  0  0
  130.7260  121.4350   60.2640 C   0  0  0  0  0  0  0  0  0  0  0  0
  131.7500  121.8480   61.1090 C   0  0  0  0  0  0  0  0  0  0  0  0
  131.4450  122.5450   62.2750 C   0  0  0  0  0  0  0  0  0  0  0  0
  129.6160  124.9840   63.8420 C   0  0  0  0  0  0  0  0  0  0  0  0
  129.3330  125.6870   65.0090 C   0  0  0  0  0  0  0  0  0  0  0  0
  126.1240  128.0340   66.9810 C   0  0  0  0  0  0  0  0  0  0  0  0
  125.4220  128.8610   66.1080 C   0  0  0  0  0  0  0  0  0  0  0  0
  124.0790  130.0190   63.6120 C   0  0  0  0  0  0  0  0  0  0  0  0
  123.3730  130.8400   62.7380 C   0  0  0  0  0  0  0  0  0  0  0  0
  1  2  2  0
  2  3  1  0
  3  4  2  0
  4  5  1  0
  5  6  2  0
  6  7  1  0
  7  8  2  0
  8  9  1  0
  9 10  1  0
 10 11  2  0
 11 12  1  0
 12 13  2  0
 13 14  1  0
 14 15  1  0
 15 16  2  0
 16 17  1  0
 17 18  2  0
 18 19  1  0
 19 20  2  0
 11 21  1  0
 21 22  1  0
 22 23  1  0
 23 24  2  0
 24 25  1  0
 25 26  2  0
 26 27  1  0
 27 28  2  0
 28 29  1  0
 29 30  2  0
 30 31  1  0
 31 32  2  0
 26 33  1  0
 33 34  2  0
  8 35  1  0
 35 36  2  0
  4 37  1  0
 37 38  2  0
 38  1  1  0
 36  5  1  0
 22  9  2  0
 34 23  1  0
 20 12  1  0
 32 27  1  0
 20 15  1  0
M  END
>  <Binding energies>  (51) 
[-10.35]

>  <Ligand effiencies>  (51) 
[-0.25875]

>  <Interactions>  (51) 
["V-A:HIS:456:CE1:4069, V-A:HIS:456:CD2:4068, V-A:TYR:484:CZ:4347, V-B:ARG:545:CZ:9898, H-A:HIS:456:ND1:4067, V-B:GLU:543:CB:9878, V-B:HIS:456:CE1:9040, V-B:GLY:453:C:9013, V-A:TYR:484:CE2:4346, V-A:HIS:456:CG:4066, V-B:GLU:543:C:9874, V-B:ARG:545:CG:9894, V-B:GLY:454:CA:9020, V-A:TYR:484:CD2:4344, H-A:TYR:484:OH:4348, H-B:GLU:543:O:9875, V-A:TYR:484:CE1:4345, V-B:ARG:545:CD:9895, V-A:TYR:484:CG:4342, V-B:GLU:543:CD:9880, V-A:GLU:543:CD:4908, V-A:HIS:456:CB:4065, V-B:TYR:539:CE2:9848, V-B:TYR:539:CD2:9846, V-B:GLU:543:CG:9879, V-A:LEU:475:CD1:4258, V-B:ALA:541:CB:9864, V-B:LEU:475:CD1:9229, V-B:GLU:543:CA:9876, V-B:ILE:369:CD1:8210"]

$$$$
RR4_Rahimova_2017
     RDKit          3D

 40 44  0  0  0  0  0  0  0  0999 V2000
  127.6830  126.6090   74.9660 C   0  0  0  0  0  0  0  0  0  0  0  0
  128.5980  125.8730   74.1620 O   0  0  0  0  0  0  0  0  0  0  0  0
  128.6780  126.1470   72.8100 C   0  0  0  0  0  0  0  0  0  0  0  0
  128.9250  125.0660   71.9660 C   0  0  0  0  0  0  0  0  0  0  0  0
  129.0200  125.2470   70.5900 C   0  0  0  0  0  0  0  0  0  0  0  0
  128.8750  126.5190   70.0150 C   0  0  0  0  0  0  0  0  0  0  0  0
  128.9810  126.7110   68.5290 C   0  0  0  0  0  0  0  0  0  0  0  0
  129.7050  125.8450   67.7030 C   0  0  0  0  0  0  0  0  0  0  0  0
  129.7690  126.0650   66.3210 C   0  0  0  0  0  0  0  0  0  0  0  0
  130.5380  125.0830   65.4980 C   0  0  0  0  0  0  0  0  0  0  0  0
  129.9050  123.9430   64.9940 C   0  0  0  0  0  0  0  0  0  0  0  0
  130.6110  123.0280   64.2170 C   0  0  0  0  0  0  0  0  0  0  0  0
  131.9580  123.2380   63.9230 C   0  0  0  0  0  0  0  0  0  0  0  0
  132.5760  122.2780   63.1450 O   0  0  0  0  0  0  0  0  0  0  0  0
  133.4730  122.6890   62.1170 C   0  0  0  0  0  0  0  0  0  0  0  0
  132.5950  124.3840   64.4220 C   0  0  0  0  0  0  0  0  0  0  0  0
  131.8870  125.2970   65.1990 C   0  0  0  0  0  0  0  0  0  0  0  0
  129.1090  127.1990   65.7860 C   0  0  0  0  0  0  0  0  0  0  0  0
  129.1440  127.4750   64.3470 C   0  0  0  0  0  0  0  0  0  0  0  0
  129.1710  127.6940   63.2110 N   0  0  0  0  0  0  0  0  0  0  0  0
  128.4210  128.0470   66.6830 C   0  0  0  0  0  0  0  0  0  0  0  0
  127.5480  129.5190   66.1910 S   0  0  0  0  0  0  0  0  0  0  0  0
  125.7720  129.1120   66.1110 C   0  0  0  0  0  0  0  0  0  0  0  0
  125.0440  129.6700   64.8800 C   0  0  0  0  0  0  0  0  0  0  0  0
  124.0190  130.3430   65.0100 O   0  0  0  0  0  0  0  0  0  0  0  0
  125.6110  129.3480   63.6940 N   0  0  0  0  0  0  0  0  0  0  0  0
  125.1940  129.7020   62.4080 C   0  0  0  0  0  0  0  0  0  0  0  0
  124.0700  130.9980   62.0980 S   0  0  0  0  0  0  0  0  0  0  0  0
  124.1370  130.7210   60.3850 C   0  0  0  0  0  0  0  0  0  0  0  0
  124.9970  129.6590   60.0670 C   0  0  0  0  0  0  0  0  0  0  0  0
  125.6070  129.0930   61.2130 C   0  0  0  0  0  0  0  0  0  0  0  0
  126.5580  127.9870   61.1540 C   0  0  0  0  0  0  0  0  0  0  0  0
  127.3120  127.1100   61.1070 N   0  0  0  0  0  0  0  0  0  0  0  0
  125.2560  129.2430   58.6140 C   0  0  0  0  0  0  0  0  0  0  0  0
  124.7990  130.3520   57.6400 C   0  0  0  0  0  0  0  0  0  0  0  0
  123.4070  130.9020   57.9980 C   0  0  0  0  0  0  0  0  0  0  0  0
  123.3950  131.5920   59.3790 C   0  0  0  0  0  0  0  0  0  0  0  0
  128.3470  127.7940   68.0100 N   0  0  0  0  0  0  0  0  0  0  0  0
  128.6230  127.6010   70.8730 C   0  0  0  0  0  0  0  0  0  0  0  0
  128.5270  127.4230   72.2500 C   0  0  0  0  0  0  0  0  0  0  0  0
  1  2  1  0
  2  3  1  0
  3  4  2  0
  4  5  1  0
  5  6  2  0
  6  7  1  0
  7  8  2  0
  8  9  1  0
  9 10  1  0
 10 11  2  0
 11 12  1  0
 12 13  2  0
 13 14  1  0
 14 15  1  0
 13 16  1  0
 16 17  2  0
  9 18  2  0
 18 19  1  0
 19 20  3  0
 18 21  1  0
 21 22  1  0
 22 23  1  0
 23 24  1  0
 24 25  2  0
 24 26  1  0
 26 27  1  0
 27 28  1  0
 28 29  1  0
 29 30  2  0
 30 31  1  0
 31 32  1  0
 32 33  3  0
 30 34  1  0
 34 35  1  0
 35 36  1  0
 36 37  1  0
 21 38  2  0
  6 39  1  0
 39 40  2  0
 40  3  1  0
 38  7  1  0
 17 10  1  0
 31 27  2  0
 37 29  1  0
M  END
>  <Binding energies>  (52) 
[-10.33]

>  <Ligand effiencies>  (52) 
[-0.2519512195121951]

>  <Interactions>  (52) 
["V-A:HIS:456:CE1:4069, V-A:HIS:456:CD2:4068, V-B:ARG:545:CZ:9898, H-B:GLY:454:N:9021, H-B:LYS:547:NZ:9923, V-B:GLU:543:CB:9878, V-B:HIS:456:CE1:9040, V-B:LYS:547:CD:9921, H-B:GLU:543:OE1:9881, V-A:TYR:484:CE1:4345, V-A:GLU:543:CD:4908, V-B:HIS:456:CD2:9039, H-B:TYR:484:OH:9319, V-A:TYR:539:CZ:4877, V-B:GLU:543:CG:9879, V-A:GLY:454:CA:4049, V-A:LEU:475:CD1:4258, V-B:ASP:366:CG:8184, V-B:ASP:366:CB:8183, V-B:ILE:369:CG2:8208, V-B:ASP:366:CA:8181, V-B:ASP:366:C:8179, V-B:ILE:369:CB:8207, V-B:ILE:369:CD1:8210"]

$$$$
RR6_Rahimova_2017
     RDKit          3D

 38 41  0  0  0  0  0  0  0  0999 V2000
  130.3910  132.4010   54.0700 C   0  0  0  0  0  0  0  0  0  0  0  0
  129.7510  133.0110   55.1820 O   0  0  0  0  0  0  0  0  0  0  0  0
  130.1740  132.7710   56.4500 C   0  0  0  0  0  0  0  0  0  0  0  0
  131.3370  132.9530   56.8230 O   0  0  0  0  0  0  0  0  0  0  0  0
  129.0870  132.2640   57.3530 C   0  0  0  0  0  0  0  0  0  0  0  0
  128.2800  131.1710   57.0050 C   0  0  0  0  0  0  0  0  0  0  0  0
  127.2740  130.7300   57.8620 C   0  0  0  0  0  0  0  0  0  0  0  0
  127.0560  131.3810   59.0850 C   0  0  0  0  0  0  0  0  0  0  0  0
  126.0530  131.0360   60.0090 N   0  0  0  0  0  0  0  0  0  0  0  0
  124.7150  131.2050   59.9230 C   0  0  0  0  0  0  0  0  0  0  0  0
  124.1180  131.7030   58.9680 O   0  0  0  0  0  0  0  0  0  0  0  0
  123.9140  130.7840   61.1600 C   0  0  0  0  0  0  0  0  0  0  0  0
  124.4730  131.5820   62.7010 S   0  0  0  0  0  0  0  0  0  0  0  0
  125.8920  130.6680   63.2680 C   0  0  0  0  0  0  0  0  0  0  0  0
  126.9620  130.7290   62.4390 N   0  0  0  0  0  0  0  0  0  0  0  0
  128.1130  130.0950   62.7780 C   0  0  0  0  0  0  0  0  0  0  0  0
  129.2690  130.2630   61.8360 C   0  0  0  0  0  0  0  0  0  0  0  0
  129.6670  129.2190   60.9870 C   0  0  0  0  0  0  0  0  0  0  0  0
  130.7480  129.3700   60.1230 C   0  0  0  0  0  0  0  0  0  0  0  0
  131.4490  130.5740   60.0870 C   0  0  0  0  0  0  0  0  0  0  0  0
  132.6330  130.7320   59.1500 C   0  0  0  0  0  0  0  0  0  0  0  0
  131.0690  131.6240   60.9200 C   0  0  0  0  0  0  0  0  0  0  0  0
  129.9880  131.4680   61.7810 C   0  0  0  0  0  0  0  0  0  0  0  0
  128.2040  129.3680   63.9690 C   0  0  0  0  0  0  0  0  0  0  0  0
  127.1100  129.2860   64.8410 C   0  0  0  0  0  0  0  0  0  0  0  0
  127.2830  128.5080   66.1030 C   0  0  0  0  0  0  0  0  0  0  0  0
  126.2130  127.7790   66.6320 C   0  0  0  0  0  0  0  0  0  0  0  0
  126.3700  127.0380   67.8010 C   0  0  0  0  0  0  0  0  0  0  0  0
  127.5980  127.0060   68.4590 C   0  0  0  0  0  0  0  0  0  0  0  0
  127.6620  126.2420   69.6090 O   0  0  0  0  0  0  0  0  0  0  0  0
  128.2720  126.7910   70.7720 C   0  0  0  0  0  0  0  0  0  0  0  0
  128.6770  127.7300   67.9290 C   0  0  0  0  0  0  0  0  0  0  0  0
  128.5160  128.4700   66.7610 C   0  0  0  0  0  0  0  0  0  0  0  0
  125.9110  129.9500   64.4810 C   0  0  0  0  0  0  0  0  0  0  0  0
  124.7200  129.8810   65.3330 C   0  0  0  0  0  0  0  0  0  0  0  0
  123.7800  129.8280   66.0070 N   0  0  0  0  0  0  0  0  0  0  0  0
  127.8680  132.4580   59.4420 C   0  0  0  0  0  0  0  0  0  0  0  0
  128.8710  132.8990   58.5830 C   0  0  0  0  0  0  0  0  0  0  0  0
  1  2  1  0
  2  3  1  0
  3  4  2  0
  3  5  1  0
  5  6  2  0
  6  7  1  0
  7  8  2  0
  8  9  1  0
  9 10  1  0
 10 11  2  0
 10 12  1  0
 12 13  1  0
 13 14  1  0
 14 15  2  0
 15 16  1  0
 16 17  1  0
 17 18  2  0
 18 19  1  0
 19 20  2  0
 20 21  1  0
 20 22  1  0
 22 23  2  0
 16 24  2  0
 24 25  1  0
 25 26  1  0
 26 27  2  0
 27 28  1  0
 28 29  2  0
 29 30  1  0
 30 31  1  0
 29 32  1  0
 32 33  2  0
 25 34  2  0
 34 35  1  0
 35 36  3  0
  8 37  1  0
 37 38  2  0
 38  5  1  0
 34 14  1  0
 23 17  1  0
 33 26  1  0
M  END
>  <Binding energies>  (53) 
[-9.01]

>  <Ligand effiencies>  (53) 
[-0.23102564102564102]

>  <Interactions>  (53) 
["V-B:ARG:545:CZ:9898, H-B:GLY:454:N:9021, V-B:GLU:543:CB:9878, V-B:HIS:456:CE1:9040, V-B:ARG:545:CG:9894, V-B:GLU:543:CD:9880, V-A:GLU:543:CD:4908, V-A:GLU:543:CB:4906, H-B:TYR:484:OH:9319, H-B:ILE:455:N:9026, V-A:ILE:538:CD1:4865, V-A:ILE:538:CA:4860, H-A:TYR:539:N:4870, V-A:TYR:539:CZ:4877, V-A:PRO:540:CD:4887, V-A:TYR:539:C:4867, V-A:TYR:539:CG:4872, V-A:PRO:540:CB:4885, V-A:PRO:540:N:4884, V-A:TYR:539:CE1:4875, V-A:PRO:540:CA:4883, V-A:TYR:539:CD1:4873, V-A:TYR:539:CA:4869, H-B:ARG:545:NE:9896, V-A:TYR:539:CE2:4876, V-A:ALA:541:CB:4892, V-A:TYR:539:CD2:4874, V-B:ASP:366:CG:8184, H-A:TYR:539:OH:4878, V-A:PRO:540:C:4881"]

$$$$
RR7_Rahimova_2017
     RDKit          3D

 47 53  0  0  0  0  0  0  0  0999 V2000
  132.8110  131.3410   61.8720 C   0  0  0  0  0  0  0  0  0  0  0  0
  131.5180  131.8620   61.5790 O   0  0  0  0  0  0  0  0  0  0  0  0
  130.8980  131.5000   60.3990 C   0  0  0  0  0  0  0  0  0  0  0  0
  131.6170  130.6600   59.5500 C   0  0  0  0  0  0  0  0  0  0  0  0
  131.0720  130.2390   58.3420 C   0  0  0  0  0  0  0  0  0  0  0  0
  129.7940  130.6590   57.9450 C   0  0  0  0  0  0  0  0  0  0  0  0
  129.1450  130.1760   56.6110 C   0  0  0  0  0  0  0  0  0  0  0  0
  127.7550  130.5670   56.6690 O   0  0  0  0  0  0  0  0  0  0  0  0
  126.7680  129.8150   55.9560 C   0  0  0  0  0  0  0  0  0  0  0  0
  125.5530  129.5900   56.8710 C   0  0  1  0  0  0  0  0  0  0  0  0
  125.5580  128.2110   57.2320 O   0  0  0  0  0  0  0  0  0  0  0  0
  125.6300  128.0330   58.6170 C   0  0  1  0  0  0  0  0  0  0  0  0
  126.3770  126.8290   58.9290 N   0  0  0  0  0  0  0  0  0  0  0  0
  127.4510  126.6920   59.7900 C   0  0  0  0  0  0  0  0  0  0  0  0
  127.9720  125.4910   59.8490 N   0  0  0  0  0  0  0  0  0  0  0  0
  127.2420  124.7730   58.9420 C   0  0  0  0  0  0  0  0  0  0  0  0
  127.3130  123.4290   58.5270 C   0  0  0  0  0  0  0  0  0  0  0  0
  128.2800  122.5910   59.1130 N   0  0  0  0  0  0  0  0  0  0  0  0
  128.3880  122.1840   60.4000 C   0  0  0  0  0  0  0  0  0  0  0  0
  127.6190  122.5230   61.3020 O   0  0  0  0  0  0  0  0  0  0  0  0
  129.5640  121.2810   60.7050 C   0  0  0  0  0  0  0  0  0  0  0  0
  130.8650  121.8080   60.6950 C   0  0  0  0  0  0  0  0  0  0  0  0
  131.9600  120.9970   60.9780 C   0  0  0  0  0  0  0  0  0  0  0  0
  131.7640  119.6530   61.2780 C   0  0  0  0  0  0  0  0  0  0  0  0
  130.4810  119.1110   61.2970 C   0  0  0  0  0  0  0  0  0  0  0  0
  129.3850  119.9220   61.0130 C   0  0  0  0  0  0  0  0  0  0  0  0
  126.4470  122.9790   57.5680 N   0  0  0  0  0  0  0  0  0  0  0  0
  125.5510  123.8640   57.0580 C   0  0  0  0  0  0  0  0  0  0  0  0
  125.3940  125.1740   57.3870 N   0  0  0  0  0  0  0  0  0  0  0  0
  126.2510  125.5840   58.3320 C   0  0  0  0  0  0  0  0  0  0  0  0
  126.2350  129.3240   59.1570 C   0  0  0  0  0  0  0  0  0  0  0  0
  125.6050  130.3330   58.2130 C   0  0  2  0  0  0  0  0  0  0  0  0
  124.3210  130.7440   58.6540 O   0  0  0  0  0  0  0  0  0  0  0  0
  129.7600  130.8730   55.3690 C   0  0  0  0  0  0  0  0  0  0  0  0
  131.1210  131.2210   55.3530 C   0  0  0  0  0  0  0  0  0  0  0  0
  131.6800  131.8590   54.2510 C   0  0  0  0  0  0  0  0  0  0  0  0
  130.8830  132.1580   53.1500 C   0  0  0  0  0  0  0  0  0  0  0  0
  129.5320  131.8230   53.1430 C   0  0  0  0  0  0  0  0  0  0  0  0
  128.9730  131.1850   54.2470 C   0  0  0  0  0  0  0  0  0  0  0  0
  129.2430  128.6500   56.3240 C   0  0  0  0  0  0  0  0  0  0  0  0
  129.4450  127.7420   57.3750 C   0  0  0  0  0  0  0  0  0  0  0  0
  129.5430  126.3760   57.1280 C   0  0  0  0  0  0  0  0  0  0  0  0
  129.4490  125.9040   55.8220 C   0  0  0  0  0  0  0  0  0  0  0  0
  129.2630  126.7870   54.7640 C   0  0  0  0  0  0  0  0  0  0  0  0
  129.1640  128.1530   55.0130 C   0  0  0  0  0  0  0  0  0  0  0  0
  129.0700  131.4930   58.8090 C   0  0  0  0  0  0  0  0  0  0  0  0
  129.6140  131.9140   60.0190 C   0  0  0  0  0  0  0  0  0  0  0  0
  1  2  1  0
  2  3  1  0
  3  4  2  0
  4  5  1  0
  5  6  2  0
  6  7  1  0
  7  8  1  0
  8  9  1  0
 10  9  1  6
 10 11  1  0
 11 12  1  0
 12 13  1  6
 13 14  1  0
 14 15  2  0
 15 16  1  0
 16 17  2  0
 17 18  1  0
 18 19  1  0
 19 20  2  0
 19 21  1  0
 21 22  2  0
 22 23  1  0
 23 24  2  0
 24 25  1  0
 25 26  2  0
 17 27  1  0
 27 28  2  0
 28 29  1  0
 29 30  2  0
 12 31  1  0
 31 32  1  0
 32 33  1  1
  7 34  1  0
 34 35  2  0
 35 36  1  0
 36 37  2  0
 37 38  1  0
 38 39  2  0
  7 40  1  0
 40 41  2  0
 41 42  1  0
 42 43  2  0
 43 44  1  0
 44 45  2  0
  6 46  1  0
 46 47  2  0
 47  3  1  0
 32 10  1  0
 39 34  1  0
 45 40  1  0
 30 13  1  0
 30 16  1  0
 26 21  1  0
M  END
>  <Binding energies>  (54) 
[-10.12]

>  <Ligand effiencies>  (54) 
[-0.20653061224489794]

>  <Interactions>  (54) 
["V-A:GLU:543:CD:4908, V-B:TYR:539:CE2:9848, V-B:TYR:539:C:9839, V-B:PRO:540:C:9853, V-B:PRO:540:CA:9855, H-B:ALA:541:N:9863, V-B:LEU:363:CD1:8160, V-B:TYR:539:CD2:9846, V-A:ILE:538:CD1:4865, V-A:ILE:538:CA:4860, H-B:TYR:531:OH:9767, V-A:TYR:531:CE2:4793, V-A:MET:535:CE:4835, V-A:TYR:539:CZ:4877, V-A:MET:535:CB:4832, V-A:PRO:540:CB:4885, V-A:TYR:539:CE1:4875, V-A:PRO:540:CA:4883, V-A:TRP:381:CH2:3372, V-A:LEU:475:CD1:4258, V-B:ALA:541:CB:9864, H-A:ALA:541:N:4891, V-B:ASP:366:CG:8184, H-A:TYR:539:OH:4878, V-B:ASP:366:CB:8183, V-A:ASN:362:CB:3176, H-B:TYR:539:O:9840, V-A:TRP:381:CZ2:3370, V-A:PRO:482:CG:4327, V-A:PRO:482:CB:4326, V-B:ALA:541:CA:9862, V-B:TYR:531:CZ:9766, V-A:VAL:537:C:4850"]

$$$$
RR8_A_Rahimova_2017
     RDKit          3D

 42 46  0  0  0  0  0  0  0  0999 V2000
  126.8730  127.9070   57.8160 O   0  0  0  0  0  0  0  0  0  0  0  0
  126.6190  129.0920   58.0600 C   0  0  0  0  0  0  0  0  0  0  0  0
  126.9950  130.1430   57.2680 O   0  0  0  0  0  0  0  0  0  0  0  0
  128.3100  130.6100   57.3930 C   0  0  1  0  0  0  0  0  0  0  0  0
  128.5360  131.7360   56.5960 O   0  0  0  0  0  0  0  0  0  0  0  0
  129.3760  132.6860   57.2460 C   0  0  2  0  0  0  0  0  0  0  0  0
  130.5830  132.9750   56.3380 C   0  0  0  0  0  0  0  0  0  0  0  0
  130.1100  133.3470   55.0500 O   0  0  0  0  0  0  0  0  0  0  0  0
  130.5130  132.4660   54.0100 C   0  0  0  0  0  0  0  0  0  0  0  0
  129.5730  131.2710   53.9540 C   0  0  0  0  0  0  0  0  0  0  0  0
  128.3100  131.4040   53.3700 C   0  0  0  0  0  0  0  0  0  0  0  0
  127.4500  130.3090   53.3110 C   0  0  0  0  0  0  0  0  0  0  0  0
  127.8570  129.0830   53.8340 C   0  0  0  0  0  0  0  0  0  0  0  0
  129.1160  128.9400   54.4130 C   0  0  0  0  0  0  0  0  0  0  0  0
  129.9760  130.0340   54.4700 C   0  0  0  0  0  0  0  0  0  0  0  0
  129.7050  132.0220   58.5900 C   0  0  1  0  0  0  0  0  0  0  0  0
  129.7370  132.9440   59.6770 O   0  0  0  0  0  0  0  0  0  0  0  0
  128.9520  132.5900   60.8100 C   0  0  0  0  0  0  0  0  0  0  0  0
  127.7420  133.5080   60.9100 C   0  0  0  0  0  0  0  0  0  0  0  0
  127.9040  134.8240   61.3540 C   0  0  0  0  0  0  0  0  0  0  0  0
  126.8010  135.6670   61.4570 C   0  0  0  0  0  0  0  0  0  0  0  0
  125.5350  135.1910   61.1190 C   0  0  0  0  0  0  0  0  0  0  0  0
  125.3630  133.8790   60.6840 C   0  0  0  0  0  0  0  0  0  0  0  0
  126.4660  133.0360   60.5820 C   0  0  0  0  0  0  0  0  0  0  0  0
  128.5260  131.0950   58.8200 C   0  0  2  0  0  0  0  0  0  0  0  0
  128.8750  130.0560   59.7310 O   0  0  0  0  0  0  0  0  0  0  0  0
  129.9660  129.2310   59.3380 C   0  0  0  0  0  0  0  0  0  0  0  0
  131.2810  129.9060   59.6970 C   0  0  0  0  0  0  0  0  0  0  0  0
  131.5510  130.2610   61.0230 C   0  0  0  0  0  0  0  0  0  0  0  0
  132.7610  130.8700   61.3480 C   0  0  0  0  0  0  0  0  0  0  0  0
  133.6990  131.1190   60.3490 C   0  0  0  0  0  0  0  0  0  0  0  0
  133.4400  130.7640   59.0270 C   0  0  0  0  0  0  0  0  0  0  0  0
  132.2300  130.1540   58.7010 C   0  0  0  0  0  0  0  0  0  0  0  0
  125.8420  129.5270   59.2690 C   0  0  0  0  0  0  0  0  0  0  0  0
  126.1630  129.0760   60.5590 C   0  0  0  0  0  0  0  0  0  0  0  0
  125.4230  129.4970   61.6600 C   0  0  0  0  0  0  0  0  0  0  0  0
  124.3440  130.3760   61.5020 C   0  0  0  0  0  0  0  0  0  0  0  0
  123.5570  130.8250   62.6770 N   0  0  0  0  0  0  0  0  0  0  0  0
  123.1270  131.9740   62.6920 O   0  0  0  0  0  0  0  0  0  0  0  0
  123.3630  130.0310   63.5930 O   0  0  0  0  0  0  0  0  0  0  0  0
  124.0230  130.8230   60.2140 C   0  0  0  0  0  0  0  0  0  0  0  0
  124.7610  130.4040   59.1120 C   0  0  0  0  0  0  0  0  0  0  0  0
  1  2  2  0
  2  3  1  0
  4  3  1  1
  4  5  1  0
  5  6  1  0
  6  7  1  6
  7  8  1  0
  8  9  1  0
  9 10  1  0
 10 11  2  0
 11 12  1  0
 12 13  2  0
 13 14  1  0
 14 15  2  0
  6 16  1  0
 16 17  1  1
 17 18  1  0
 18 19  1  0
 19 20  2  0
 20 21  1  0
 21 22  2  0
 22 23  1  0
 23 24  2  0
 16 25  1  0
 25 26  1  1
 26 27  1  0
 27 28  1  0
 28 29  2  0
 29 30  1  0
 30 31  2  0
 31 32  1  0
 32 33  2  0
  2 34  1  0
 34 35  2  0
 35 36  1  0
 36 37  2  0
 37 38  1  0
 38 39  2  0
 38 40  1  0
 37 41  1  0
 41 42  2  0
 25  4  1  0
 33 28  1  0
 42 34  1  0
 15 10  1  0
 24 19  1  0
M  CHG  2  38   1  40  -1
M  END
>  <Binding energies>  (55) 
[-10.07]

>  <Ligand effiencies>  (55) 
[-0.23976190476190476]

>  <Interactions>  (55) 
["H-B:GLY:454:N:9021, H-B:ARG:545:NH2:9900, H-B:ARG:545:NH1:9899, V-A:ASP:366:CG:3213, V-A:ILE:538:CD1:4865, V-A:ILE:538:CA:4860, V-A:MET:535:CE:4835, H-A:TYR:539:N:4870, V-A:TYR:539:CZ:4877, V-A:PRO:540:CD:4887, V-A:TYR:539:C:4867, V-A:LEU:363:CA:3185, V-A:TYR:539:CG:4872, V-A:PRO:540:CB:4885, V-A:PRO:540:N:4884, V-A:TYR:539:CE1:4875, V-A:PRO:540:CA:4883, V-A:TYR:539:CD1:4873, V-A:TYR:539:CA:4869, H-B:ARG:545:NE:9896, V-B:LEU:475:CD1:9229, V-B:PRO:482:CG:9298, V-A:TYR:539:CE2:4876, H-A:ALA:541:N:4891, V-A:ALA:541:CB:4892, V-A:TYR:539:CD2:4874, V-B:ASP:366:CG:8184, H-A:TYR:539:OH:4878, V-B:ASP:366:CB:8183, V-A:ASN:362:C:3172, V-A:ASN:362:CB:3176, V-A:ALA:541:CA:4890, V-B:TRP:381:CZ2:8341, V-A:PRO:540:C:4881, V-B:TRP:381:CH2:8343, V-B:PRO:482:CB:9297, V-B:ILE:369:CD1:8210, V-A:TYR:531:CZ:4794, V-B:MET:535:CE:9807"]

$$$$
RR8_B_Rahimova_2017
     RDKit          3D

 42 46  0  0  0  0  0  0  0  0999 V2000
  126.9840  129.1360   60.9290 O   0  0  0  0  0  0  0  0  0  0  0  0
  127.1910  129.7780   61.9640 C   0  0  0  0  0  0  0  0  0  0  0  0
  128.2790  130.5790   62.1720 O   0  0  0  0  0  0  0  0  0  0  0  0
  128.1200  131.9680   62.0220 C   0  0  2  0  0  0  0  0  0  0  0  0
  126.9350  132.2880   61.3500 O   0  0  0  0  0  0  0  0  0  0  0  0
  127.1450  132.3910   59.9420 C   0  0  2  0  0  0  0  0  0  0  0  0
  126.2270  131.3950   59.2120 C   0  0  0  0  0  0  0  0  0  0  0  0
  127.0100  130.5910   58.3380 O   0  0  0  0  0  0  0  0  0  0  0  0
  126.2970  130.0180   57.2520 C   0  0  0  0  0  0  0  0  0  0  0  0
  127.2360  129.8550   56.0670 C   0  0  0  0  0  0  0  0  0  0  0  0
  126.8740  130.3710   54.8190 C   0  0  0  0  0  0  0  0  0  0  0  0
  127.7180  130.2050   53.7240 C   0  0  0  0  0  0  0  0  0  0  0  0
  128.9230  129.5230   53.8810 C   0  0  0  0  0  0  0  0  0  0  0  0
  129.2940  129.0110   55.1220 C   0  0  0  0  0  0  0  0  0  0  0  0
  128.4480  129.1750   56.2170 C   0  0  0  0  0  0  0  0  0  0  0  0
  128.6490  132.1540   59.7650 C   0  0  1  0  0  0  0  0  0  0  0  0
  129.1470  132.9710   58.7010 O   0  0  0  0  0  0  0  0  0  0  0  0
  128.7390  132.6290   57.3730 C   0  0  0  0  0  0  0  0  0  0  0  0
  129.9110  132.6030   56.3970 C   0  0  0  0  0  0  0  0  0  0  0  0
  131.2240  132.6140   56.8780 C   0  0  0  0  0  0  0  0  0  0  0  0
  132.2910  132.5570   55.9860 C   0  0  0  0  0  0  0  0  0  0  0  0
  132.0420  132.4930   54.6160 C   0  0  0  0  0  0  0  0  0  0  0  0
  130.7370  132.4850   54.1300 C   0  0  0  0  0  0  0  0  0  0  0  0
  129.6690  132.5390   55.0230 C   0  0  0  0  0  0  0  0  0  0  0  0
  129.2310  132.5150   61.1270 C   0  0  2  0  0  0  0  0  0  0  0  0
  130.4900  131.8730   61.3150 O   0  0  0  0  0  0  0  0  0  0  0  0
  130.5640  130.5270   60.8730 C   0  0  0  0  0  0  0  0  0  0  0  0
  131.6180  130.4420   59.7830 C   0  0  0  0  0  0  0  0  0  0  0  0
  131.3830  129.6850   58.6320 C   0  0  0  0  0  0  0  0  0  0  0  0
  132.3650  129.5990   57.6470 C   0  0  0  0  0  0  0  0  0  0  0  0
  133.5750  130.2670   57.8170 C   0  0  0  0  0  0  0  0  0  0  0  0
  133.8150  131.0250   58.9620 C   0  0  0  0  0  0  0  0  0  0  0  0
  132.8340  131.1120   59.9460 C   0  0  0  0  0  0  0  0  0  0  0  0
  126.2790  129.7290   63.1560 C   0  0  0  0  0  0  0  0  0  0  0  0
  124.9400  130.1430   63.0800 C   0  0  0  0  0  0  0  0  0  0  0  0
  124.1220  130.0950   64.2030 C   0  0  0  0  0  0  0  0  0  0  0  0
  124.6200  129.6440   65.4310 C   0  0  0  0  0  0  0  0  0  0  0  0
  123.7520  129.6190   66.6340 N   0  0  0  0  0  0  0  0  0  0  0  0
  122.5740  129.9470   66.5170 O   0  0  0  0  0  0  0  0  0  0  0  0
  124.2400  129.2660   67.7050 O   0  0  0  0  0  0  0  0  0  0  0  0
  125.9550  129.2260   65.5050 C   0  0  0  0  0  0  0  0  0  0  0  0
  126.7730  129.2660   64.3810 C   0  0  0  0  0  0  0  0  0  0  0  0
  1  2  2  0
  2  3  1  0
  4  3  1  6
  4  5  1  0
  5  6  1  0
  6  7  1  6
  7  8  1  0
  8  9  1  0
  9 10  1  0
 10 11  2  0
 11 12  1  0
 12 13  2  0
 13 14  1  0
 14 15  2  0
  6 16  1  0
 16 17  1  6
 17 18  1  0
 18 19  1  0
 19 20  2  0
 20 21  1  0
 21 22  2  0
 22 23  1  0
 23 24  2  0
 16 25  1  0
 25 26  1  1
 26 27  1  0
 27 28  1  0
 28 29  2  0
 29 30  1  0
 30 31  2  0
 31 32  1  0
 32 33  2  0
  2 34  1  0
 34 35  2  0
 35 36  1  0
 36 37  2  0
 37 38  1  0
 38 39  2  0
 38 40  1  0
 37 41  1  0
 41 42  2  0
 25  4  1  0
 33 28  1  0
 42 34  1  0
 15 10  1  0
 24 19  1  0
M  CHG  2  38   1  40  -1
M  END
>  <Binding energies>  (56) 
[-10.2]

>  <Ligand effiencies>  (56) 
[-0.24285714285714283]

>  <Interactions>  (56) 
["V-B:ARG:545:CZ:9898, H-B:GLY:454:N:9021, V-B:ARG:545:CG:9894, V-B:ARG:545:CD:9895, V-A:ASP:366:CG:3213, H-B:TYR:484:OH:9319, V-A:ASP:366:CB:3212, H-B:ILE:455:N:9026, V-A:ILE:538:CG2:4863, V-A:ILE:538:CD1:4865, V-A:ILE:538:CA:4860, V-A:ILE:538:CB:4862, V-A:LEU:363:CD1:3189, V-A:TYR:531:CE2:4793, V-A:MET:535:CE:4835, V-A:TYR:539:CZ:4877, V-A:PRO:540:CD:4887, V-A:TYR:539:C:4867, V-A:LEU:363:CA:3185, V-A:TYR:539:CG:4872, V-A:PRO:540:CB:4885, V-A:PRO:540:N:4884, V-A:TYR:539:CE1:4875, V-A:PRO:540:CA:4883, V-A:TYR:539:CD1:4873, V-A:TYR:539:CA:4869, H-B:ARG:545:NE:9896, V-A:TYR:539:CE2:4876, H-A:ALA:541:N:4891, V-A:ALA:541:CB:4892, V-A:TYR:539:CD2:4874, H-A:TYR:539:OH:4878, V-A:LEU:363:CB:3187, V-A:ASN:362:C:3172, V-A:PRO:540:C:4881, V-A:PRO:540:CG:4886, V-B:ILE:455:C:9023"]

$$$$
RR9_Rahimova_2017
     RDKit          3D

 36 40  0  0  0  0  0  0  0  0999 V2000
  131.2300  123.1980   72.3020 C   0  0  0  0  0  0  0  0  0  0  0  0
  130.4590  123.6220   71.0470 C   0  0  0  0  0  0  0  0  0  0  0  0
  129.6200  124.7250   71.3770 O   0  0  0  0  0  0  0  0  0  0  0  0
  129.0140  125.4430   70.3640 C   0  0  0  0  0  0  0  0  0  0  0  0
  127.8760  126.1700   70.7090 C   0  0  0  0  0  0  0  0  0  0  0  0
  127.1980  126.9200   69.7540 C   0  0  0  0  0  0  0  0  0  0  0  0
  127.6390  126.9660   68.4240 C   0  0  0  0  0  0  0  0  0  0  0  0
  126.9090  127.7700   67.3890 C   0  0  0  0  0  0  0  0  0  0  0  0
  127.4900  128.0720   66.1470 C   0  0  0  0  0  0  0  0  0  0  0  0
  126.7960  128.8150   65.1760 C   0  0  0  0  0  0  0  0  0  0  0  0
  127.4330  129.0190   63.8280 C   0  0  0  0  0  0  0  0  0  0  0  0
  128.2650  129.9110   63.6610 O   0  0  0  0  0  0  0  0  0  0  0  0
  127.0130  128.1920   62.8500 N   0  0  0  0  0  0  0  0  0  0  0  0
  127.3840  128.2770   61.4340 C   0  0  0  0  0  0  0  0  0  0  0  0
  126.5670  129.3350   60.6560 C   0  0  0  0  0  0  0  0  0  0  0  0
  127.3810  130.5170   60.1430 C   0  0  0  0  0  0  0  0  0  0  0  0
  127.4600  130.7720   58.7700 C   0  0  0  0  0  0  0  0  0  0  0  0
  128.1760  131.8720   58.3070 C   0  0  0  0  0  0  0  0  0  0  0  0
  128.8150  132.7110   59.2160 C   0  0  0  0  0  0  0  0  0  0  0  0
  128.7450  132.4610   60.5860 C   0  0  0  0  0  0  0  0  0  0  0  0
  128.0280  131.3610   61.0500 C   0  0  0  0  0  0  0  0  0  0  0  0
  125.5020  129.2650   65.5360 C   0  0  0  0  0  0  0  0  0  0  0  0
  124.4290  130.0500   64.9730 C   0  0  0  0  0  0  0  0  0  0  0  0
  124.3750  130.7940   63.6800 C   0  0  0  0  0  0  0  0  0  0  0  0
  125.2240  131.8820   63.4580 C   0  0  0  0  0  0  0  0  0  0  0  0
  125.1610  132.5850   62.2570 C   0  0  0  0  0  0  0  0  0  0  0  0
  124.2510  132.1990   61.2720 C   0  0  0  0  0  0  0  0  0  0  0  0
  124.1690  132.9760   59.9710 C   0  0  0  0  0  0  0  0  0  0  0  0
  123.4000  131.1150   61.4900 C   0  0  0  0  0  0  0  0  0  0  0  0
  123.4660  130.4120   62.6900 C   0  0  0  0  0  0  0  0  0  0  0  0
  123.4010  130.0790   65.7910 N   0  0  0  0  0  0  0  0  0  0  0  0
  123.7380  129.4050   66.9020 N   0  0  0  0  0  0  0  0  0  0  0  0
  125.0110  128.8960   66.8110 C   0  0  0  0  0  0  0  0  0  0  0  0
  125.6580  128.1840   67.7330 N   0  0  0  0  0  0  0  0  0  0  0  0
  128.7840  126.2300   68.0840 C   0  0  0  0  0  0  0  0  0  0  0  0
  129.4660  125.4790   69.0380 C   0  0  0  0  0  0  0  0  0  0  0  0
  1  2  1  0
  2  3  1  0
  3  4  1  0
  4  5  2  0
  5  6  1  0
  6  7  2  0
  7  8  1  0
  8  9  2  0
  9 10  1  0
 10 11  1  0
 11 12  2  0
 11 13  1  0
 13 14  1  0
 14 15  1  0
 15 16  1  0
 16 17  2  0
 17 18  1  0
 18 19  2  0
 19 20  1  0
 20 21  2  0
 10 22  2  0
 22 23  1  0
 23 24  1  0
 24 25  2  0
 25 26  1  0
 26 27  2  0
 27 28  1  0
 27 29  1  0
 29 30  2  0
 23 31  2  0
 31 32  1  0
 32 33  1  0
 33 34  2  0
  7 35  1  0
 35 36  2  0
 36  4  1  0
 34  8  1  0
 21 16  1  0
 33 22  1  0
 30 24  1  0
M  END
>  <Binding energies>  (57) 
[-9.58]

>  <Ligand effiencies>  (57) 
[-0.2521052631578947]

>  <Interactions>  (57) 
["V-A:HIS:456:CE1:4069, V-A:HIS:456:CD2:4068, V-A:TYR:484:CZ:4347, V-B:ARG:545:CZ:9898, H-B:GLY:454:N:9021, H-B:LYS:547:NZ:9923, V-B:GLU:543:CB:9878, V-B:HIS:456:CE1:9040, V-A:TYR:484:CE2:4346, V-A:HIS:456:CG:4066, V-B:GLU:543:C:9874, V-B:ARG:545:CG:9894, V-B:GLY:454:CA:9020, V-A:TYR:484:CD2:4344, V-A:TYR:484:CD1:4343, H-B:GLU:543:OE1:9881, V-A:TYR:484:CE1:4345, V-B:ARG:545:CD:9895, V-A:TYR:484:CG:4342, V-B:GLU:543:CD:9880, H-B:HIS:456:ND1:9038, V-A:HIS:456:CB:4065, H-B:TYR:484:OH:9319, H-B:ILE:455:N:9026, V-A:TYR:539:CZ:4877, V-A:TYR:539:C:4867, V-A:PRO:540:N:4884, V-A:PRO:540:CA:4883, H-B:ARG:545:NE:9896, V-B:LEU:475:CD1:9229, V-A:TYR:539:CE2:4876, V-A:TYR:539:CD2:4874, V-B:ASP:366:CG:8184, V-B:ILE:369:CG2:8208, H-B:GLU:543:OE2:9882, V-B:ILE:369:CD1:8210, H-A:HIS:456:NE2:4070, V-B:GLY:544:C:9884, V-B:ARG:545:CB:9893, V-B:ILE:455:C:9023, H-B:ILE:455:O:9024"]

$$$$
