1a_Grossjean_2025
     RDKit          3D

 26 27  0  0  0  0  0  0  0  0999 V2000
  130.3470  131.4480   53.8120 C   0  0  0  0  0  0  0  0  0  0  0  0
  129.7670  132.8280   54.1360 C   0  0  0  0  0  0  0  0  0  0  0  0
  129.7650  133.0230   55.5450 O   0  0  0  0  0  0  0  0  0  0  0  0
  130.8800  132.7900   56.2860 C   0  0  0  0  0  0  0  0  0  0  0  0
  132.0250  132.9940   55.8730 O   0  0  0  0  0  0  0  0  0  0  0  0
  130.5810  132.2430   57.6520 C   0  0  0  0  0  0  0  0  0  0  0  0
  129.3200  132.4710   58.2180 C   0  0  0  0  0  0  0  0  0  0  0  0
  129.0130  131.9810   59.4840 C   0  0  0  0  0  0  0  0  0  0  0  0
  129.9580  131.2560   60.2110 C   0  0  0  0  0  0  0  0  0  0  0  0
  129.5420  130.8100   61.4810 N   0  0  0  0  0  0  0  0  0  0  0  0
  128.3520  130.3130   61.8790 C   0  0  0  0  0  0  0  0  0  0  0  0
  127.3670  130.1510   61.1580 O   0  0  0  0  0  0  0  0  0  0  0  0
  128.2630  129.9310   63.3580 C   0  0  0  0  0  0  0  0  0  0  0  0
  127.4110  131.1990   64.3430 S   0  0  0  0  0  0  0  0  0  0  0  0
  126.6600  132.3430   63.2070 C   0  0  0  0  0  0  0  0  0  0  0  0
  127.5160  133.2810   62.7290 N   0  0  0  0  0  0  0  0  0  0  0  0
  127.0470  134.2070   61.8590 C   0  0  0  0  0  0  0  0  0  0  0  0
  128.0570  135.2310   61.3780 C   0  0  0  0  0  0  0  0  0  0  0  0
  125.7230  134.2300   61.4260 C   0  0  0  0  0  0  0  0  0  0  0  0
  124.8370  133.2540   61.8970 C   0  0  0  0  0  0  0  0  0  0  0  0
  123.3950  133.2890   61.3960 C   0  0  0  0  0  0  0  0  0  0  0  0
  125.3050  132.2750   62.8030 C   0  0  0  0  0  0  0  0  0  0  0  0
  124.4090  131.2150   63.2720 C   0  0  0  0  0  0  0  0  0  0  0  0
  123.6990  130.3790   63.6400 N   0  0  0  0  0  0  0  0  0  0  0  0
  131.2210  131.0150   59.6480 C   0  0  0  0  0  0  0  0  0  0  0  0
  131.5270  131.5070   58.3820 C   0  0  0  0  0  0  0  0  0  0  0  0
  1  2  1  0
  2  3  1  0
  3  4  1  0
  4  5  2  0
  4  6  1  0
  6  7  2  0
  7  8  1  0
  8  9  2  0
  9 10  1  0
 10 11  1  0
 11 12  2  0
 11 13  1  0
 13 14  1  0
 14 15  1  0
 15 16  2  0
 16 17  1  0
 17 18  1  0
 17 19  2  0
 19 20  1  0
 20 21  1  0
 20 22  2  0
 22 23  1  0
 23 24  3  0
  9 25  1  0
 25 26  2  0
 26  6  1  0
 22 15  1  0
M  END
>  <Binding energies>  (1) 
[-7.77]

>  <Ligand effiencies>  (1) 
[-0.28777777777777774]

>  <Interactions>  (1) 
["H-B:GLY:454:N:9021, H-B:ARG:545:NH2:9900, V-B:GLY:454:CA:9020, V-A:GLU:543:CD:4908, H-B:TYR:484:OH:9319, H-A:GLU:543:OE1:4909, V-A:ILE:538:C:4858, V-A:ILE:538:CA:4860, H-A:TYR:539:N:4870, V-A:PRO:540:CD:4887, V-A:TYR:539:C:4867, V-A:PRO:540:CB:4885, V-A:PRO:540:N:4884, V-A:TYR:539:CE1:4875, V-A:PRO:540:CA:4883, V-A:TYR:539:CD1:4873, V-A:TYR:539:CA:4869, V-B:LEU:475:CD1:9229, V-B:PRO:482:CG:9298, V-A:ALA:541:CB:4892, V-A:TYR:539:CD2:4874, V-B:ILE:369:CG2:8208, V-A:ALA:541:CA:4890, V-A:PRO:540:C:4881, V-B:PRO:482:CB:9297, V-B:ILE:369:CD1:8210, V-A:VAL:537:C:4850, V-B:ILE:369:CG1:8209"]

$$$$
1aa_Ghoteimi_2023
     RDKit          3D

 40 43  0  0  0  0  0  0  0  0999 V2000
  127.5310  123.2900   54.4480 C   0  0  0  0  0  0  0  0  0  0  0  0
  127.1210  124.1430   55.6520 C   0  0  0  0  0  0  0  0  0  0  0  0
  127.9880  123.8670   56.7450 O   0  0  0  0  0  0  0  0  0  0  0  0
  127.7130  122.8690   57.6230 C   0  0  0  0  0  0  0  0  0  0  0  0
  127.1140  121.8340   57.3120 O   0  0  0  0  0  0  0  0  0  0  0  0
  128.2090  123.1460   59.0130 C   0  0  0  0  0  0  0  0  0  0  0  0
  129.4760  123.6990   59.2520 C   0  0  0  0  0  0  0  0  0  0  0  0
  129.9100  123.9470   60.5530 C   0  0  0  0  0  0  0  0  0  0  0  0
  129.0770  123.6460   61.6410 C   0  0  0  0  0  0  0  0  0  0  0  0
  129.4080  123.8510   62.9930 N   0  0  0  0  0  0  0  0  0  0  0  0
  129.8910  122.9890   63.9180 C   0  0  0  0  0  0  0  0  0  0  0  0
  130.1440  121.8030   63.7100 O   0  0  0  0  0  0  0  0  0  0  0  0
  130.1430  123.5410   65.3300 C   0  0  0  0  0  0  0  0  0  0  0  0
  130.2620  124.9690   65.2980 O   0  0  0  0  0  0  0  0  0  0  0  0
  129.4350  125.7600   66.0810 C   0  0  0  0  0  0  0  0  0  0  0  0
  129.5020  125.6150   67.4340 N   0  0  0  0  0  0  0  0  0  0  0  0
  128.6980  126.3620   68.2340 C   0  0  0  0  0  0  0  0  0  0  0  0
  128.8340  126.1440   69.7140 C   0  0  0  0  0  0  0  0  0  0  0  0
  128.2160  127.0070   70.6310 C   0  0  0  0  0  0  0  0  0  0  0  0
  128.3420  126.8080   72.0030 C   0  0  0  0  0  0  0  0  0  0  0  0
  129.0870  125.7400   72.5010 C   0  0  0  0  0  0  0  0  0  0  0  0
  129.1570  125.6220   73.8750 O   0  0  0  0  0  0  0  0  0  0  0  0
  130.4340  125.5660   74.5030 C   0  0  0  0  0  0  0  0  0  0  0  0
  129.7050  124.8660   71.5970 C   0  0  0  0  0  0  0  0  0  0  0  0
  129.5770  125.0670   70.2260 C   0  0  0  0  0  0  0  0  0  0  0  0
  127.8130  127.2970   67.6840 C   0  0  0  0  0  0  0  0  0  0  0  0
  127.7320  127.4750   66.2960 C   0  0  0  0  0  0  0  0  0  0  0  0
  126.7760  128.4950   65.7710 C   0  0  0  0  0  0  0  0  0  0  0  0
  127.1700  129.3710   64.7550 C   0  0  0  0  0  0  0  0  0  0  0  0
  126.2820  130.3180   64.2540 C   0  0  0  0  0  0  0  0  0  0  0  0
  124.9820  130.4060   64.7530 C   0  0  0  0  0  0  0  0  0  0  0  0
  124.1710  131.3760   64.1960 O   0  0  0  0  0  0  0  0  0  0  0  0
  123.8890  131.3290   62.8020 C   0  0  0  0  0  0  0  0  0  0  0  0
  124.5800  129.5240   65.7670 C   0  0  0  0  0  0  0  0  0  0  0  0
  125.4700  128.5770   66.2670 C   0  0  0  0  0  0  0  0  0  0  0  0
  128.5610  126.6770   65.4730 C   0  0  0  0  0  0  0  0  0  0  0  0
  128.5150  126.7600   64.0120 C   0  0  0  0  0  0  0  0  0  0  0  0
  128.4800  126.8250   62.8570 N   0  0  0  0  0  0  0  0  0  0  0  0
  127.8170  123.0940   61.4060 C   0  0  0  0  0  0  0  0  0  0  0  0
  127.3860  122.8470   60.1060 C   0  0  0  0  0  0  0  0  0  0  0  0
  1  2  1  0
  2  3  1  0
  3  4  1  0
  4  5  2  0
  4  6  1  0
  6  7  2  0
  7  8  1  0
  8  9  2  0
  9 10  1  0
 10 11  1  0
 11 12  2  0
 11 13  1  0
 13 14  1  0
 14 15  1  0
 15 16  2  0
 16 17  1  0
 17 18  1  0
 18 19  2  0
 19 20  1  0
 20 21  2  0
 21 22  1  0
 22 23  1  0
 21 24  1  0
 24 25  2  0
 17 26  2  0
 26 27  1  0
 27 28  1  0
 28 29  2  0
 29 30  1  0
 30 31  2  0
 31 32  1  0
 32 33  1  0
 31 34  1  0
 34 35  2  0
 27 36  2  0
 36 37  1  0
 37 38  3  0
  9 39  1  0
 39 40  2  0
 40  6  1  0
 36 15  1  0
 25 18  1  0
 35 28  1  0
M  END
>  <Binding energies>  (2) 
[-9.06]

>  <Ligand effiencies>  (2) 
[-0.22097560975609756]

>  <Interactions>  (2) 
["V-A:HIS:456:CE1:4069, V-A:HIS:456:CD2:4068, V-A:TYR:484:CZ:4347, V-B:ARG:545:CZ:9898, H-B:GLY:454:N:9021, H-B:LYS:547:NZ:9923, V-B:GLU:543:CB:9878, V-B:HIS:456:CE1:9040, V-B:ARG:545:CG:9894, V-B:GLY:454:CA:9020, H-A:TYR:484:OH:4348, V-A:TYR:484:CE1:4345, V-B:ARG:545:CD:9895, V-B:GLU:543:CD:9880, V-B:TYR:539:CE2:9848, V-B:TYR:539:C:9839, V-B:PRO:540:N:9856, V-B:ILE:538:CA:9832, V-B:PRO:540:C:9853, V-B:PRO:540:CA:9855, V-B:TYR:539:CD1:9845, V-B:ILE:538:CB:9834, V-B:TYR:539:CZ:9849, H-B:TYR:484:OH:9319, H-B:TYR:539:N:9842, V-B:TYR:539:CE1:9847, V-B:ILE:538:CG2:9835, V-B:TYR:539:CD2:9846, V-B:GLU:543:CG:9879, V-B:ALA:541:CB:9864"]

$$$$
1b_Grossjean_2025
     RDKit          3D

 25 26  0  0  0  0  0  0  0  0999 V2000
  132.1740  132.1480   56.1850 C   0  0  0  0  0  0  0  0  0  0  0  0
  130.8320  132.6140   56.1320 O   0  0  0  0  0  0  0  0  0  0  0  0
  130.0930  132.4870   55.0000 C   0  0  0  0  0  0  0  0  0  0  0  0
  129.9440  133.3970   54.1790 O   0  0  0  0  0  0  0  0  0  0  0  0
  129.4800  131.1250   54.8420 C   0  0  0  0  0  0  0  0  0  0  0  0
  129.3550  130.5090   53.5870 C   0  0  0  0  0  0  0  0  0  0  0  0
  128.7800  129.2470   53.4750 C   0  0  0  0  0  0  0  0  0  0  0  0
  128.3200  128.5740   54.6070 C   0  0  0  0  0  0  0  0  0  0  0  0
  127.7570  127.3050   54.3740 N   0  0  0  0  0  0  0  0  0  0  0  0
  128.2880  126.0730   54.5360 C   0  0  0  0  0  0  0  0  0  0  0  0
  129.4230  125.8320   54.9450 O   0  0  0  0  0  0  0  0  0  0  0  0
  127.3630  124.9090   54.1800 C   0  0  0  0  0  0  0  0  0  0  0  0
  127.8790  123.3560   54.9720 S   0  0  0  0  0  0  0  0  0  0  0  0
  127.2160  123.3570   56.6240 C   0  0  0  0  0  0  0  0  0  0  0  0
  128.1110  122.9850   57.5720 N   0  0  0  0  0  0  0  0  0  0  0  0
  127.7130  122.9520   58.8650 C   0  0  0  0  0  0  0  0  0  0  0  0
  128.7710  122.5410   59.8720 C   0  0  0  0  0  0  0  0  0  0  0  0
  126.4160  123.2750   59.2610 C   0  0  0  0  0  0  0  0  0  0  0  0
  125.4800  123.6380   58.2880 C   0  0  0  0  0  0  0  0  0  0  0  0
  124.0610  123.9720   58.7430 C   0  0  0  0  0  0  0  0  0  0  0  0
  125.8730  123.6790   56.9310 C   0  0  0  0  0  0  0  0  0  0  0  0
  124.8980  124.0140   55.8900 C   0  0  0  0  0  0  0  0  0  0  0  0
  124.1260  124.2800   55.0700 N   0  0  0  0  0  0  0  0  0  0  0  0
  128.4420  129.1830   55.8650 C   0  0  0  0  0  0  0  0  0  0  0  0
  129.0170  130.4460   55.9760 C   0  0  0  0  0  0  0  0  0  0  0  0
  1  2  1  0
  2  3  1  0
  3  4  2  0
  3  5  1  0
  5  6  2  0
  6  7  1  0
  7  8  2  0
  8  9  1  0
  9 10  1  0
 10 11  2  0
 10 12  1  0
 12 13  1  0
 13 14  1  0
 14 15  2  0
 15 16  1  0
 16 17  1  0
 16 18  2  0
 18 19  1  0
 19 20  1  0
 19 21  2  0
 21 22  1  0
 22 23  3  0
  8 24  1  0
 24 25  2  0
 25  5  1  0
 21 14  1  0
M  END
>  <Binding energies>  (3) 
[-7.96]

>  <Ligand effiencies>  (3) 
[-0.30615384615384617]

>  <Interactions>  (3) 
["V-B:TYR:539:CE2:9848, H-B:TYR:539:OH:9850, V-B:PRO:540:N:9856, V-B:PRO:540:CA:9855, V-B:LEU:363:CD1:8160, V-B:PRO:540:CB:9857, V-B:ILE:538:CG2:9835, V-B:TYR:539:CD2:9846, H-A:TYR:531:OH:4795, V-A:ILE:538:CA:4860, H-B:TYR:531:OH:9767, V-A:LEU:363:CD1:3189, V-A:MET:535:CE:4835, V-A:MET:535:CG:4833, H-A:TYR:539:N:4870, V-A:PRO:540:CD:4887, H-A:ILE:538:N:4861, V-A:PRO:540:CB:4885, V-A:PRO:540:N:4884, V-A:TYR:539:CE1:4875, V-A:TYR:539:CD1:4873, V-B:TYR:531:CE2:9765, H-B:MET:535:SD:9806, V-B:MET:535:CG:9805"]

$$$$
1c_Grossjean_2025
     RDKit          3D

 23 24  0  0  0  0  0  0  0  0999 V2000
  131.9560  132.3640   55.0270 C   0  0  0  0  0  0  0  0  0  0  0  0
  130.8760  133.0190   55.6830 O   0  0  0  0  0  0  0  0  0  0  0  0
  130.3830  132.4900   56.8610 C   0  0  0  0  0  0  0  0  0  0  0  0
  131.2900  131.7880   57.6550 C   0  0  0  0  0  0  0  0  0  0  0  0
  130.8890  131.2200   58.8600 C   0  0  0  0  0  0  0  0  0  0  0  0
  129.5610  131.3550   59.2920 C   0  0  0  0  0  0  0  0  0  0  0  0
  129.0480  130.8120   60.4860 N   0  0  0  0  0  0  0  0  0  0  0  0
  129.3720  131.0970   61.7660 C   0  0  0  0  0  0  0  0  0  0  0  0
  130.2000  131.9340   62.1240 O   0  0  0  0  0  0  0  0  0  0  0  0
  128.6170  130.2940   62.8270 C   0  0  0  0  0  0  0  0  0  0  0  0
  127.6340  131.3670   63.9160 S   0  0  0  0  0  0  0  0  0  0  0  0
  126.7600  132.5440   62.9050 C   0  0  0  0  0  0  0  0  0  0  0  0
  127.5390  133.5670   62.4710 N   0  0  0  0  0  0  0  0  0  0  0  0
  126.9830  134.5260   61.6940 C   0  0  0  0  0  0  0  0  0  0  0  0
  127.9180  135.6300   61.2380 C   0  0  0  0  0  0  0  0  0  0  0  0
  125.6390  134.5110   61.3290 C   0  0  0  0  0  0  0  0  0  0  0  0
  124.8200  133.4760   61.7910 C   0  0  0  0  0  0  0  0  0  0  0  0
  123.3460  133.4910   61.3930 C   0  0  0  0  0  0  0  0  0  0  0  0
  125.3790  132.4640   62.6070 C   0  0  0  0  0  0  0  0  0  0  0  0
  124.5260  131.4020   63.1450 C   0  0  0  0  0  0  0  0  0  0  0  0
  123.8520  130.5630   63.5690 N   0  0  0  0  0  0  0  0  0  0  0  0
  128.6480  132.0470   58.4950 C   0  0  0  0  0  0  0  0  0  0  0  0
  129.0530  132.6140   57.2900 C   0  0  0  0  0  0  0  0  0  0  0  0
  1  2  1  0
  2  3  1  0
  3  4  2  0
  4  5  1  0
  5  6  2  0
  6  7  1  0
  7  8  1  0
  8  9  2  0
  8 10  1  0
 10 11  1  0
 11 12  1  0
 12 13  2  0
 13 14  1  0
 14 15  1  0
 14 16  2  0
 16 17  1  0
 17 18  1  0
 17 19  2  0
 19 20  1  0
 20 21  3  0
  6 22  1  0
 22 23  2  0
 23  3  1  0
 19 12  1  0
M  END
>  <Binding energies>  (4) 
[-7.13]

>  <Ligand effiencies>  (4) 
[-0.2970833333333333]

>  <Interactions>  (4) 
["H-B:GLY:454:N:9021, H-B:ARG:545:NH2:9900, V-B:GLY:454:CA:9020, V-A:GLU:543:CD:4908, H-B:TYR:484:OH:9319, V-A:ILE:538:CG2:4863, V-A:ILE:538:CD1:4865, V-A:ILE:538:CA:4860, V-A:LEU:363:CD1:3189, V-A:TYR:531:CE2:4793, H-A:TYR:539:N:4870, V-A:TYR:539:CZ:4877, V-A:PRO:540:CD:4887, V-A:TYR:539:C:4867, V-A:TYR:539:CG:4872, V-A:PRO:540:CB:4885, V-A:PRO:540:N:4884, V-A:TYR:539:CE1:4875, V-A:PRO:540:CA:4883, V-A:TYR:539:CD1:4873, V-B:LEU:475:CD1:9229, V-B:PRO:482:CG:9298, V-A:TYR:539:CE2:4876, H-A:ALA:541:N:4891, V-A:ALA:541:CB:4892, V-A:TYR:539:CD2:4874, V-B:ILE:369:CG2:8208, V-A:ALA:541:CA:4890, V-A:PRO:540:C:4881, V-B:TRP:381:CH2:8343, V-B:PRO:482:CB:9297, V-B:ILE:369:CD1:8210, V-B:ILE:369:CG1:8209"]

$$$$
1d_Grossjean_2025
     RDKit          3D

 21 22  0  0  0  0  0  0  0  0999 V2000
  133.1450  131.2170   62.0930 C   0  0  0  0  0  0  0  0  0  0  0  0
  132.1030  131.2600   60.9920 C   0  0  0  0  0  0  0  0  0  0  0  0
  130.8370  131.8000   61.2070 C   0  0  0  0  0  0  0  0  0  0  0  0
  129.9190  131.8220   60.1510 C   0  0  0  0  0  0  0  0  0  0  0  0
  128.5420  132.4330   60.4060 C   0  0  0  0  0  0  0  0  0  0  0  0
  130.2950  131.2890   58.8960 C   0  0  0  0  0  0  0  0  0  0  0  0
  129.3680  131.3450   57.7640 C   0  0  0  0  0  0  0  0  0  0  0  0
  128.6340  131.3910   56.8710 N   0  0  0  0  0  0  0  0  0  0  0  0
  131.5930  130.7390   58.7760 C   0  0  0  0  0  0  0  0  0  0  0  0
  132.2310  130.0270   57.2760 S   0  0  0  0  0  0  0  0  0  0  0  0
  132.5760  131.3960   56.1290 C   0  0  0  0  0  0  0  0  0  0  0  0
  131.3260  131.8350   55.3640 C   0  0  0  0  0  0  0  0  0  0  0  0
  130.9560  133.0070   55.4400 O   0  0  0  0  0  0  0  0  0  0  0  0
  130.7310  130.8720   54.6270 N   0  0  0  0  0  0  0  0  0  0  0  0
  129.5730  130.9320   53.8310 C   0  0  0  0  0  0  0  0  0  0  0  0
  128.5640  130.0210   54.1580 C   0  0  0  0  0  0  0  0  0  0  0  0
  127.3750  129.9990   53.4360 C   0  0  0  0  0  0  0  0  0  0  0  0
  127.1880  130.8960   52.3870 C   0  0  0  0  0  0  0  0  0  0  0  0
  128.1800  131.8150   52.0560 C   0  0  0  0  0  0  0  0  0  0  0  0
  129.3720  131.8380   52.7760 C   0  0  0  0  0  0  0  0  0  0  0  0
  132.4840  130.7420   59.8010 N   0  0  0  0  0  0  0  0  0  0  0  0
  1  2  1  0
  2  3  2  0
  3  4  1  0
  4  5  1  0
  4  6  2  0
  6  7  1  0
  7  8  3  0
  6  9  1  0
  9 10  1  0
 10 11  1  0
 11 12  1  0
 12 13  2  0
 12 14  1  0
 14 15  1  0
 15 16  2  0
 16 17  1  0
 17 18  2  0
 18 19  1  0
 19 20  2  0
  9 21  2  0
 21  2  1  0
 20 15  1  0
M  END
>  <Binding energies>  (5) 
[-7.65]

>  <Ligand effiencies>  (5) 
[-0.3477272727272727]

>  <Interactions>  (5) 
["V-A:GLU:543:CD:4908, H-A:TYR:531:OH:4795, V-A:LEU:363:CD1:3189, V-A:TYR:531:CE2:4793, H-A:TYR:539:N:4870, V-A:MET:535:CB:4832, V-A:PRO:540:CB:4885, V-A:PRO:540:CA:4883, V-A:ASN:362:CB:3176, V-A:ASN:362:CG:3177, V-A:PRO:540:C:4881, V-A:TYR:531:CZ:4794, V-B:MET:535:CE:9807"]

$$$$
1e_Grossjean_2025
     RDKit          3D

 22 23  0  0  0  0  0  0  0  0999 V2000
  130.4210  132.9800   53.8840 C   0  0  0  0  0  0  0  0  0  0  0  0
  130.7820  132.5210   55.2850 C   0  0  0  0  0  0  0  0  0  0  0  0
  131.9090  131.7310   55.5280 C   0  0  0  0  0  0  0  0  0  0  0  0
  132.1760  131.3440   56.8410 C   0  0  0  0  0  0  0  0  0  0  0  0
  131.3210  131.7490   57.8680 C   0  0  0  0  0  0  0  0  0  0  0  0
  130.2120  132.5440   57.5560 C   0  0  0  0  0  0  0  0  0  0  0  0
  129.3810  132.9100   58.6300 N   0  0  0  0  0  0  0  0  0  0  0  0
  128.1480  132.4500   58.9340 C   0  0  0  0  0  0  0  0  0  0  0  0
  127.5270  131.6080   58.2830 O   0  0  0  0  0  0  0  0  0  0  0  0
  127.4940  133.0670   60.1720 C   0  0  0  0  0  0  0  0  0  0  0  0
  128.5450  132.9070   61.6480 S   0  0  0  0  0  0  0  0  0  0  0  0
  129.6720  131.5490   61.4010 C   0  0  0  0  0  0  0  0  0  0  0  0
  130.9730  131.9310   61.3440 N   0  0  0  0  0  0  0  0  0  0  0  0
  131.9230  130.9850   61.1570 C   0  0  0  0  0  0  0  0  0  0  0  0
  133.3540  131.4850   61.1110 C   0  0  0  0  0  0  0  0  0  0  0  0
  131.6190  129.6330   61.0080 C   0  0  0  0  0  0  0  0  0  0  0  0
  130.2800  129.2310   61.0400 C   0  0  0  0  0  0  0  0  0  0  0  0
  129.9720  127.7460   60.8560 C   0  0  0  0  0  0  0  0  0  0  0  0
  129.2700  130.2020   61.2310 C   0  0  0  0  0  0  0  0  0  0  0  0
  127.8600  129.8050   61.2090 C   0  0  0  0  0  0  0  0  0  0  0  0
  126.7470  129.4890   61.1910 N   0  0  0  0  0  0  0  0  0  0  0  0
  129.9420  132.9230   56.2720 N   0  0  0  0  0  0  0  0  0  0  0  0
  1  2  1  0
  2  3  2  0
  3  4  1  0
  4  5  2  0
  5  6  1  0
  6  7  1  0
  7  8  1  0
  8  9  2  0
  8 10  1  0
 10 11  1  0
 11 12  1  0
 12 13  2  0
 13 14  1  0
 14 15  1  0
 14 16  2  0
 16 17  1  0
 17 18  1  0
 17 19  2  0
 19 20  1  0
 20 21  3  0
  6 22  2  0
 22  2  1  0
 19 12  1  0
M  END
>  <Binding energies>  (6) 
[-6.83]

>  <Ligand effiencies>  (6) 
[-0.29695652173913045]

>  <Interactions>  (6) 
["V-A:ILE:538:CD1:4865, V-A:ILE:538:C:4858, V-A:ILE:538:CA:4860, V-A:LEU:363:CD1:3189, V-A:TYR:531:CE2:4793, H-A:TYR:539:N:4870, V-A:TYR:539:CZ:4877, V-A:PRO:540:CD:4887, V-A:TYR:539:C:4867, V-A:TYR:539:CG:4872, V-A:PRO:540:CB:4885, V-A:PRO:540:N:4884, V-A:PRO:540:CA:4883, V-A:TYR:539:CD1:4873, V-A:TYR:539:CE2:4876, H-A:ALA:541:N:4891, V-A:TYR:539:CD2:4874, H-A:TYR:539:OH:4878, H-A:TYR:539:O:4868, V-A:ASN:362:CB:3176, V-A:VAL:537:C:4850"]

$$$$
1f_Grossjean_2025
     RDKit          3D

 21 22  0  0  0  0  0  0  0  0999 V2000
  127.3880  131.2360   57.8070 C   0  0  0  0  0  0  0  0  0  0  0  0
  128.7120  131.2010   58.5470 C   0  0  0  0  0  0  0  0  0  0  0  0
  128.8000  131.5110   59.9010 C   0  0  0  0  0  0  0  0  0  0  0  0
  130.0500  131.4740   60.5270 C   0  0  0  0  0  0  0  0  0  0  0  0
  130.1240  131.8370   62.0090 C   0  0  0  0  0  0  0  0  0  0  0  0
  131.1910  131.1150   59.7720 C   0  0  0  0  0  0  0  0  0  0  0  0
  132.5170  131.1250   60.3960 C   0  0  0  0  0  0  0  0  0  0  0  0
  133.5630  131.1330   60.8910 N   0  0  0  0  0  0  0  0  0  0  0  0
  131.0040  130.7880   58.4090 C   0  0  0  0  0  0  0  0  0  0  0  0
  132.3190  130.3130   57.3040 S   0  0  0  0  0  0  0  0  0  0  0  0
  132.3800  131.5140   55.9310 C   0  0  0  0  0  0  0  0  0  0  0  0
  131.0120  131.8980   55.3470 C   0  0  0  0  0  0  0  0  0  0  0  0
  130.5550  133.0290   55.5170 O   0  0  0  0  0  0  0  0  0  0  0  0
  130.3850  130.9020   54.6840 N   0  0  0  0  0  0  0  0  0  0  0  0
  129.1410  130.9050   54.0260 C   0  0  0  0  0  0  0  0  0  0  0  0
  128.9110  131.3380   52.7070 C   0  0  0  0  0  0  0  0  0  0  0  0
  127.6200  131.2820   52.1760 C   0  0  0  0  0  0  0  0  0  0  0  0
  126.5890  130.7900   52.9760 C   0  0  0  0  0  0  0  0  0  0  0  0
  126.7840  130.3610   54.2480 N   0  0  0  0  0  0  0  0  0  0  0  0
  128.0440  130.4220   54.7500 C   0  0  0  0  0  0  0  0  0  0  0  0
  129.7900  130.8510   57.8060 N   0  0  0  0  0  0  0  0  0  0  0  0
  1  2  1  0
  2  3  2  0
  3  4  1  0
  4  5  1  0
  4  6  2  0
  6  7  1  0
  7  8  3  0
  6  9  1  0
  9 10  1  0
 10 11  1  0
 11 12  1  0
 12 13  2  0
 12 14  1  0
 14 15  1  0
 15 16  2  0
 16 17  1  0
 17 18  2  0
 18 19  1  0
 19 20  2  0
  9 21  2  0
 21  2  1  0
 20 15  1  0
M  END
>  <Binding energies>  (7) 
[-7.27]

>  <Ligand effiencies>  (7) 
[-0.33045454545454545]

>  <Interactions>  (7) 
["H-A:TYR:531:OH:4795, H-B:TYR:531:OH:9767, V-A:LEU:363:CD1:3189, V-A:TYR:531:CE2:4793, V-A:MET:535:CG:4833, H-A:TYR:539:N:4870, V-A:TYR:539:CZ:4877, V-A:MET:535:CB:4832, V-A:PRO:540:CB:4885, V-A:TYR:539:CE1:4875, V-A:PRO:540:CA:4883, V-A:TYR:539:CE2:4876, V-A:ALA:541:CB:4892, H-A:TYR:539:OH:4878, V-A:ALA:541:CA:4890, H-A:ARG:545:NH2:4928, V-B:TYR:531:CE1:9764, V-B:MET:535:CE:9807"]

$$$$
1g_Grossjean_2025
     RDKit          3D

 22 23  0  0  0  0  0  0  0  0999 V2000
  129.0050  132.9940   59.8790 C   0  0  0  0  0  0  0  0  0  0  0  0
  128.6570  132.2650   58.5940 C   0  0  0  0  0  0  0  0  0  0  0  0
  127.7330  131.2230   58.5740 C   0  0  0  0  0  0  0  0  0  0  0  0
  127.4640  130.5770   57.3620 C   0  0  0  0  0  0  0  0  0  0  0  0
  126.4570  129.4270   57.3670 C   0  0  0  0  0  0  0  0  0  0  0  0
  128.1280  131.0020   56.1900 C   0  0  0  0  0  0  0  0  0  0  0  0
  127.9020  130.3060   54.9200 C   0  0  0  0  0  0  0  0  0  0  0  0
  127.7220  129.7540   53.9190 N   0  0  0  0  0  0  0  0  0  0  0  0
  129.0320  132.0850   56.2990 C   0  0  0  0  0  0  0  0  0  0  0  0
  129.9450  132.7520   54.9260 S   0  0  0  0  0  0  0  0  0  0  0  0
  131.3530  131.6430   54.6230 C   0  0  0  0  0  0  0  0  0  0  0  0
  132.3650  131.6760   55.7690 C   0  0  0  0  0  0  0  0  0  0  0  0
  132.7760  132.7550   56.1980 O   0  0  0  0  0  0  0  0  0  0  0  0
  132.7610  130.4840   56.2480 N   0  0  0  0  0  0  0  0  0  0  0  0
  133.6730  130.2830   57.3730 C   0  0  0  0  0  0  0  0  0  0  0  0
  133.0630  130.5880   58.7380 C   0  0  0  0  0  0  0  0  0  0  0  0
  133.8610  131.1180   59.7570 C   0  0  0  0  0  0  0  0  0  0  0  0
  133.3050  131.3970   61.0020 C   0  0  0  0  0  0  0  0  0  0  0  0
  131.9510  131.1510   61.2230 C   0  0  0  0  0  0  0  0  0  0  0  0
  131.1490  130.6280   60.2110 C   0  0  0  0  0  0  0  0  0  0  0  0
  131.7050  130.3470   58.9660 C   0  0  0  0  0  0  0  0  0  0  0  0
  129.3040  132.6900   57.4830 N   0  0  0  0  0  0  0  0  0  0  0  0
  1  2  1  0
  2  3  2  0
  3  4  1  0
  4  5  1  0
  4  6  2  0
  6  7  1  0
  7  8  3  0
  6  9  1  0
  9 10  1  0
 10 11  1  0
 11 12  1  0
 12 13  2  0
 12 14  1  0
 14 15  1  0
 15 16  1  0
 16 17  2  0
 17 18  1  0
 18 19  2  0
 19 20  1  0
 20 21  2  0
  9 22  2  0
 22  2  1  0
 21 16  1  0
M  END
>  <Binding energies>  (8) 
[-7.16]

>  <Ligand effiencies>  (8) 
[-0.31130434782608696]

>  <Interactions>  (8) 
["V-A:ASP:366:CG:3213, V-A:ASP:366:CB:3212, V-A:ILE:538:CD1:4865, H-A:TYR:531:OH:4795, H-B:TYR:531:OH:9767, V-A:LEU:363:CD1:3189, V-A:TYR:531:CE2:4793, H-A:TYR:539:N:4870, V-A:TYR:539:CZ:4877, V-A:TYR:539:C:4867, V-A:LEU:363:CA:3185, V-A:TYR:539:CG:4872, V-A:PRO:540:CB:4885, V-A:PRO:540:N:4884, V-A:TYR:539:CE1:4875, V-A:PRO:540:CA:4883, V-A:TYR:539:CD1:4873, V-A:TYR:539:CE2:4876, V-A:TYR:539:CD2:4874, V-A:LEU:363:CB:3187, V-A:ASN:362:C:3172, V-A:ASN:362:CB:3176, V-A:PRO:540:C:4881, V-A:TYR:531:CZ:4794"]

$$$$
1h_Grossjean_2025
     RDKit          3D

 28 29  0  0  0  0  0  0  0  0999 V2000
  129.0640  132.6010   59.5830 C   0  0  0  0  0  0  0  0  0  0  0  0
  129.5610  132.6960   58.2530 O   0  0  0  0  0  0  0  0  0  0  0  0
  128.8990  132.0380   57.2320 C   0  0  0  0  0  0  0  0  0  0  0  0
  127.7330  131.2790   57.4160 C   0  0  0  0  0  0  0  0  0  0  0  0
  127.1250  130.6300   56.3410 C   0  0  0  0  0  0  0  0  0  0  0  0
  125.8440  129.8270   56.5510 C   0  0  0  0  0  0  0  0  0  0  0  0
  126.0630  128.4940   57.1110 N   0  0  0  0  0  0  0  0  0  0  0  0
  126.4860  128.2360   58.3610 C   0  0  0  0  0  0  0  0  0  0  0  0
  126.7160  129.1090   59.1980 O   0  0  0  0  0  0  0  0  0  0  0  0
  126.6870  126.7640   58.7230 C   0  0  0  0  0  0  0  0  0  0  0  0
  125.8740  125.6540   57.5330 S   0  0  0  0  0  0  0  0  0  0  0  0
  126.9150  125.5330   56.0880 C   0  0  0  0  0  0  0  0  0  0  0  0
  127.5350  126.6820   55.7100 N   0  0  0  0  0  0  0  0  0  0  0  0
  128.3430  126.6600   54.6240 C   0  0  0  0  0  0  0  0  0  0  0  0
  129.0030  127.9790   54.2680 C   0  0  0  0  0  0  0  0  0  0  0  0
  128.5650  125.5070   53.8750 C   0  0  0  0  0  0  0  0  0  0  0  0
  127.9300  124.3180   54.2520 C   0  0  0  0  0  0  0  0  0  0  0  0
  128.1880  123.0650   53.4190 C   0  0  0  0  0  0  0  0  0  0  0  0
  127.0830  124.3190   55.3840 C   0  0  0  0  0  0  0  0  0  0  0  0
  126.4030  123.0890   55.8010 C   0  0  0  0  0  0  0  0  0  0  0  0
  125.8660  122.1180   56.1310 N   0  0  0  0  0  0  0  0  0  0  0  0
  127.6630  130.7670   55.0610 C   0  0  0  0  0  0  0  0  0  0  0  0
  128.8260  131.5240   54.8460 C   0  0  0  0  0  0  0  0  0  0  0  0
  129.4150  131.7000   53.6070 O   0  0  0  0  0  0  0  0  0  0  0  0
  128.5910  131.8350   52.4540 C   0  0  0  0  0  0  0  0  0  0  0  0
  129.4410  132.1450   55.9430 C   0  0  0  0  0  0  0  0  0  0  0  0
  130.5750  132.8950   55.7470 O   0  0  0  0  0  0  0  0  0  0  0  0
  131.7710  132.1290   55.6920 C   0  0  0  0  0  0  0  0  0  0  0  0
  1  2  1  0
  2  3  1  0
  3  4  2  0
  4  5  1  0
  5  6  1  0
  6  7  1  0
  7  8  1  0
  8  9  2  0
  8 10  1  0
 10 11  1  0
 11 12  1  0
 12 13  2  0
 13 14  1  0
 14 15  1  0
 14 16  2  0
 16 17  1  0
 17 18  1  0
 17 19  2  0
 19 20  1  0
 20 21  3  0
  5 22  2  0
 22 23  1  0
 23 24  1  0
 24 25  1  0
 23 26  2  0
 26 27  1  0
 27 28  1  0
 26  3  1  0
 19 12  1  0
M  END
>  <Binding energies>  (9) 
[-6.79]

>  <Ligand effiencies>  (9) 
[-0.23413793103448277]

>  <Interactions>  (9) 
["V-B:ILE:538:CA:9832, V-B:TYR:539:CD1:9845, V-B:ILE:538:CB:9834, V-B:TYR:539:CZ:9849, H-B:TYR:539:N:9842, V-B:TYR:539:CE1:9847, V-B:ILE:538:CG2:9835, H-B:TYR:531:OH:9767, V-A:LEU:363:CD1:3189, V-A:MET:535:CE:4835, H-A:TYR:539:N:4870, V-A:TYR:539:CZ:4877, V-A:TYR:539:C:4867, V-A:MET:535:CB:4832, V-A:TYR:539:CG:4872, V-A:PRO:540:N:4884, V-A:TYR:539:CE1:4875, V-A:PRO:540:CA:4883, V-A:TYR:539:CD1:4873, V-A:TYR:539:CE2:4876, V-B:TYR:531:CZ:9766, V-B:VAL:537:C:9822"]

$$$$
1i_Grossjean_2025
     RDKit          3D

 20 21  0  0  0  0  0  0  0  0999 V2000
  132.7160  132.6200   56.1020 C   0  0  0  0  0  0  0  0  0  0  0  0
  131.3300  132.1540   55.6990 C   0  0  0  0  0  0  0  0  0  0  0  0
  130.9290  132.1260   54.3650 C   0  0  0  0  0  0  0  0  0  0  0  0
  129.6410  131.6770   54.0510 C   0  0  0  0  0  0  0  0  0  0  0  0
  129.2300  131.6400   52.5800 C   0  0  0  0  0  0  0  0  0  0  0  0
  128.7780  131.2690   55.0940 C   0  0  0  0  0  0  0  0  0  0  0  0
  127.4450  130.7470   54.7840 C   0  0  0  0  0  0  0  0  0  0  0  0
  126.3920  130.3340   54.5370 N   0  0  0  0  0  0  0  0  0  0  0  0
  129.2610  131.3530   56.4210 C   0  0  0  0  0  0  0  0  0  0  0  0
  128.3130  130.8830   57.8510 S   0  0  0  0  0  0  0  0  0  0  0  0
  128.2090  132.3330   58.9440 C   0  0  0  0  0  0  0  0  0  0  0  0
  129.2690  132.2980   60.0480 C   0  0  0  0  0  0  0  0  0  0  0  0
  129.0440  132.8650   61.1180 O   0  0  0  0  0  0  0  0  0  0  0  0
  130.4000  131.6230   59.7480 N   0  0  0  0  0  0  0  0  0  0  0  0
  131.5110  131.4420   60.5590 C   0  0  0  0  0  0  0  0  0  0  0  0
  132.6560  130.7650   60.1420 C   0  0  0  0  0  0  0  0  0  0  0  0
  133.5090  130.8050   61.2210 C   0  0  0  0  0  0  0  0  0  0  0  0
  132.9080  131.4700   62.2360 O   0  0  0  0  0  0  0  0  0  0  0  0
  131.6410  131.8680   61.8050 N   0  0  0  0  0  0  0  0  0  0  0  0
  130.5190  131.7710   56.7140 N   0  0  0  0  0  0  0  0  0  0  0  0
  1  2  1  0
  2  3  2  0
  3  4  1  0
  4  5  1  0
  4  6  2  0
  6  7  1  0
  7  8  3  0
  6  9  1  0
  9 10  1  0
 10 11  1  0
 11 12  1  0
 12 13  2  0
 12 14  1  0
 14 15  1  0
 15 16  1  0
 16 17  2  0
 17 18  1  0
 18 19  1  0
  9 20  2  0
 20  2  1  0
 19 15  2  0
M  END
>  <Binding energies>  (10) 
[-6.98]

>  <Ligand effiencies>  (10) 
[-0.3323809523809524]

>  <Interactions>  (10) 
["V-A:ARG:545:CZ:4926, V-A:ILE:538:CG2:4863, V-A:ILE:538:CD1:4865, V-A:ILE:538:CA:4860, H-B:TYR:531:OH:9767, V-A:LEU:363:CD1:3189, V-A:MET:535:CG:4833, V-A:TYR:539:CZ:4877, V-A:PRO:540:CD:4887, V-A:MET:535:CB:4832, V-A:PRO:540:CB:4885, V-A:PRO:540:N:4884, V-A:TYR:539:CE1:4875, V-A:PRO:540:CA:4883, V-A:TYR:539:CD1:4873, V-A:TYR:539:CE2:4876, H-A:ALA:541:N:4891, V-A:TYR:539:CD2:4874, H-A:TYR:539:OH:4878, V-A:ASN:362:C:3172, V-A:ASN:362:CB:3176, V-A:PRO:540:C:4881, H-A:ARG:545:NH2:4928, V-A:PRO:540:CG:4886, H-A:ASN:362:ND2:3179"]

$$$$
1k_Grossjean_2025
     RDKit          3D

 25 25  0  0  0  0  0  0  0  0999 V2000
  130.1380  132.5890   56.2380 C   0  0  0  0  0  0  0  0  0  0  0  0
  130.7710  133.0340   55.0490 O   0  0  0  0  0  0  0  0  0  0  0  0
  130.4960  132.2160   53.9200 C   0  0  0  0  0  0  0  0  0  0  0  0
  129.0300  132.3930   53.5040 C   0  0  0  0  0  0  0  0  0  0  0  0
  128.7640  131.5960   52.3570 O   0  0  0  0  0  0  0  0  0  0  0  0
  128.2250  130.3170   52.6630 C   0  0  0  0  0  0  0  0  0  0  0  0
  126.8830  130.4890   53.3850 C   0  0  0  0  0  0  0  0  0  0  0  0
  126.8460  129.6420   54.5260 O   0  0  0  0  0  0  0  0  0  0  0  0
  127.9000  129.8800   55.4490 C   0  0  0  0  0  0  0  0  0  0  0  0
  128.6240  128.5560   55.7590 C   0  0  0  0  0  0  0  0  0  0  0  0
  128.1060  127.4060   55.0160 N   0  0  0  0  0  0  0  0  0  0  0  0
  128.8290  126.3380   54.6380 C   0  0  0  0  0  0  0  0  0  0  0  0
  130.0290  126.2150   54.8910 O   0  0  0  0  0  0  0  0  0  0  0  0
  128.0620  125.2610   53.8550 C   0  0  0  0  0  0  0  0  0  0  0  0
  126.3630  124.9210   54.4350 S   0  0  0  0  0  0  0  0  0  0  0  0
  126.2550  125.2900   56.1810 C   0  0  0  0  0  0  0  0  0  0  0  0
  126.0500  126.5940   56.5000 N   0  0  0  0  0  0  0  0  0  0  0  0
  125.9680  126.9430   57.8040 C   0  0  0  0  0  0  0  0  0  0  0  0
  125.7470  128.4180   58.0790 C   0  0  0  0  0  0  0  0  0  0  0  0
  126.0760  126.0160   58.8380 C   0  0  0  0  0  0  0  0  0  0  0  0
  126.2800  124.6680   58.5230 C   0  0  0  0  0  0  0  0  0  0  0  0
  126.3970  123.6680   59.6710 C   0  0  0  0  0  0  0  0  0  0  0  0
  126.3730  124.2830   57.1670 C   0  0  0  0  0  0  0  0  0  0  0  0
  126.5900  122.8790   56.8070 C   0  0  0  0  0  0  0  0  0  0  0  0
  126.7620  121.7700   56.5240 N   0  0  0  0  0  0  0  0  0  0  0  0
  1  2  1  0
  2  3  1  0
  3  4  1  0
  4  5  1  0
  5  6  1  0
  6  7  1  0
  7  8  1  0
  8  9  1  0
  9 10  1  0
 10 11  1  0
 11 12  1  0
 12 13  2  0
 12 14  1  0
 14 15  1  0
 15 16  1  0
 16 17  2  0
 17 18  1  0
 18 19  1  0
 18 20  2  0
 20 21  1  0
 21 22  1  0
 21 23  2  0
 23 24  1  0
 24 25  3  0
 23 16  1  0
M  END
>  <Binding energies>  (11) 
[-5.89]

>  <Ligand effiencies>  (11) 
[-0.22653846153846152]

>  <Interactions>  (11) 
["H-B:TYR:539:OH:9850, V-B:PRO:540:N:9856, V-B:PRO:540:CA:9855, H-B:TYR:539:N:9842, V-B:PRO:540:CB:9857, V-A:ILE:538:CD1:4865, H-A:TYR:531:OH:4795, V-A:ILE:538:CA:4860, H-B:TYR:531:OH:9767, V-A:MET:535:CE:4835, H-A:TYR:539:N:4870, V-A:TYR:539:C:4867, V-A:PRO:540:N:4884, V-A:TYR:539:CE1:4875, V-A:TYR:539:CD1:4873, V-B:ASP:366:CG:8184, V-B:ASP:366:CB:8183, H-B:MET:535:SD:9806, V-B:TYR:531:CE1:9764, V-B:MET:535:CE:9807, V-B:MET:535:CG:9805"]

$$$$
1l_Grossjean_2025
     RDKit          3D

 17 17  0  0  0  0  0  0  0  0999 V2000
  127.1650  135.3690   61.1210 C   0  0  0  0  0  0  0  0  0  0  0  0
  128.2890  134.5370   61.3660 O   0  0  0  0  0  0  0  0  0  0  0  0
  128.4250  133.6050   60.3370 N   0  0  0  0  0  0  0  0  0  0  0  0
  129.2670  132.5670   60.5030 C   0  0  0  0  0  0  0  0  0  0  0  0
  129.7610  132.2540   61.5890 O   0  0  0  0  0  0  0  0  0  0  0  0
  129.5720  131.7660   59.2290 C   0  0  0  0  0  0  0  0  0  0  0  0
  128.4210  132.0540   57.8420 S   0  0  0  0  0  0  0  0  0  0  0  0
  129.3460  131.9460   56.3200 C   0  0  0  0  0  0  0  0  0  0  0  0
  130.6010  132.4660   56.3540 N   0  0  0  0  0  0  0  0  0  0  0  0
  131.3580  132.4190   55.2320 C   0  0  0  0  0  0  0  0  0  0  0  0
  132.7470  133.0190   55.3490 C   0  0  0  0  0  0  0  0  0  0  0  0
  130.9050  131.8550   54.0420 C   0  0  0  0  0  0  0  0  0  0  0  0
  129.6160  131.3150   53.9950 C   0  0  0  0  0  0  0  0  0  0  0  0
  129.1390  130.7010   52.6790 C   0  0  0  0  0  0  0  0  0  0  0  0
  128.8080  131.3550   55.1530 C   0  0  0  0  0  0  0  0  0  0  0  0
  127.4520  130.7960   55.1330 C   0  0  0  0  0  0  0  0  0  0  0  0
  126.3830  130.3550   55.1140 N   0  0  0  0  0  0  0  0  0  0  0  0
  1  2  1  0
  2  3  1  0
  3  4  1  0
  4  5  2  0
  4  6  1  0
  6  7  1  0
  7  8  1  0
  8  9  2  0
  9 10  1  0
 10 11  1  0
 10 12  2  0
 12 13  1  0
 13 14  1  0
 13 15  2  0
 15 16  1  0
 16 17  3  0
 15  8  1  0
M  END
>  <Binding energies>  (12) 
[-6.62]

>  <Ligand effiencies>  (12) 
[-0.36777777777777776]

>  <Interactions>  (12) 
["V-A:ILE:538:CG2:4863, V-A:ILE:538:CD1:4865, V-A:ILE:538:CA:4860, V-A:ILE:538:CB:4862, H-B:TYR:531:OH:9767, V-A:LEU:363:CD1:3189, V-A:TYR:531:CE2:4793, V-A:MET:535:CG:4833, H-A:TYR:539:N:4870, V-A:TYR:539:CZ:4877, V-A:PRO:540:CD:4887, V-A:TYR:539:C:4867, V-A:MET:535:CB:4832, V-A:PRO:540:N:4884, V-A:TYR:539:CE1:4875, V-A:PRO:540:CA:4883, V-A:TYR:539:CD1:4873, V-B:LEU:475:CD1:9229, V-B:PRO:482:CG:9298, H-A:ALA:541:N:4891, V-A:TYR:539:CD2:4874, H-A:TYR:539:OH:4878, H-A:TYR:539:O:4868, V-A:PRO:540:C:4881, V-B:TRP:381:CH2:8343, V-A:PRO:540:CG:4886"]

$$$$
1m_Grossjean_2025
     RDKit          3D

 20 20  0  0  0  0  0  0  0  0999 V2000
  130.5620  136.4750   72.6230 C   0  0  0  0  0  0  0  0  0  0  0  0
  130.1260  135.6420   71.5590 O   0  0  0  0  0  0  0  0  0  0  0  0
  130.9430  134.6980   71.0480 C   0  0  0  0  0  0  0  0  0  0  0  0
  131.6820  134.8410   70.0690 O   0  0  0  0  0  0  0  0  0  0  0  0
  130.8590  133.3830   71.8510 C   0  0  0  0  0  0  0  0  0  0  0  0
  129.7110  133.3480   72.7690 N   0  0  0  0  0  0  0  0  0  0  0  0
  129.2170  132.2480   73.3690 C   0  0  0  0  0  0  0  0  0  0  0  0
  129.6810  131.1200   73.1900 O   0  0  0  0  0  0  0  0  0  0  0  0
  128.0170  132.4820   74.2950 C   0  0  0  0  0  0  0  0  0  0  0  0
  127.8270  131.2450   75.6240 S   0  0  0  0  0  0  0  0  0  0  0  0
  127.2630  129.7270   74.8860 C   0  0  0  0  0  0  0  0  0  0  0  0
  128.2030  129.1110   74.1250 N   0  0  0  0  0  0  0  0  0  0  0  0
  127.8880  127.9430   73.5180 C   0  0  0  0  0  0  0  0  0  0  0  0
  128.9940  127.3050   72.7000 C   0  0  0  0  0  0  0  0  0  0  0  0
  126.6310  127.3510   73.6330 C   0  0  0  0  0  0  0  0  0  0  0  0
  125.6460  127.9900   74.3940 C   0  0  0  0  0  0  0  0  0  0  0  0
  124.2720  127.3310   74.4920 C   0  0  0  0  0  0  0  0  0  0  0  0
  125.9520  129.2120   75.0360 C   0  0  0  0  0  0  0  0  0  0  0  0
  124.9210  129.9220   75.7960 C   0  0  0  0  0  0  0  0  0  0  0  0
  124.1070  130.4830   76.3970 N   0  0  0  0  0  0  0  0  0  0  0  0
  1  2  1  0
  2  3  1  0
  3  4  2  0
  3  5  1  0
  5  6  1  0
  6  7  1  0
  7  8  2  0
  7  9  1  0
  9 10  1  0
 10 11  1  0
 11 12  2  0
 12 13  1  0
 13 14  1  0
 13 15  2  0
 15 16  1  0
 16 17  1  0
 16 18  2  0
 18 19  1  0
 19 20  3  0
 18 11  1  0
M  END
>  <Binding energies>  (13) 
[-6.15]

>  <Ligand effiencies>  (13) 
[-0.29285714285714287]

>  <Interactions>  (13) 
["H-A:LYS:547:NZ:4951, H-B:HIS:456:NE2:9041, V-B:HIS:456:CG:9037, V-B:HIS:456:CD2:9039, V-B:VAL:458:CG2:9058, V-B:TYR:484:CA:9310, H-B:LYS:471:NZ:9192, V-B:LYS:471:CE:9191, V-B:LYS:471:CG:9189, V-B:TYR:484:CB:9312, V-B:HIS:456:C:9032, V-A:LYS:547:CE:4950, V-B:VAL:457:C:9044, V-B:HIS:456:CB:9036, V-B:TYR:484:CD1:9314, V-A:GLU:543:C:4902, V-A:GLY:544:CA:4914, H-B:TYR:484:N:9311, V-B:TYR:484:C:9308, H-B:SER:483:OG:9305, V-B:ARG:545:C:9889, H-A:GLY:544:N:4915, H-A:GLU:543:N:4905"]

$$$$
1n_Grossjean_2025
     RDKit          3D

 27 28  0  0  0  0  0  0  0  0999 V2000
  132.4930  131.4120   56.6930 C   0  0  0  0  0  0  0  0  0  0  0  0
  132.2980  132.5290   55.6620 C   0  0  0  0  0  0  0  0  0  0  0  0
  130.9670  133.0240   55.7490 O   0  0  0  0  0  0  0  0  0  0  0  0
  130.0880  132.8550   54.7270 C   0  0  0  0  0  0  0  0  0  0  0  0
  129.7850  133.7530   53.9360 O   0  0  0  0  0  0  0  0  0  0  0  0
  129.5320  131.4620   54.6480 C   0  0  0  0  0  0  0  0  0  0  0  0
  129.4670  130.7570   53.4370 C   0  0  0  0  0  0  0  0  0  0  0  0
  128.9430  129.4680   53.3970 C   0  0  0  0  0  0  0  0  0  0  0  0
  128.4680  128.8610   54.5610 C   0  0  0  0  0  0  0  0  0  0  0  0
  127.9550  127.5590   54.4060 N   0  0  0  0  0  0  0  0  0  0  0  0
  128.5920  126.3690   54.4470 C   0  0  0  0  0  0  0  0  0  0  0  0
  129.7970  126.2110   54.6450 O   0  0  0  0  0  0  0  0  0  0  0  0
  127.7070  125.1350   54.2280 C   0  0  0  0  0  0  0  0  0  0  0  0
  128.4860  123.8060   54.3270 C   0  0  0  0  0  0  0  0  0  0  0  0
  127.5030  122.3990   54.9290 S   0  0  0  0  0  0  0  0  0  0  0  0
  126.9620  122.7870   56.5800 C   0  0  0  0  0  0  0  0  0  0  0  0
  127.8270  122.3840   57.5440 N   0  0  0  0  0  0  0  0  0  0  0  0
  127.5260  122.6410   58.8380 C   0  0  0  0  0  0  0  0  0  0  0  0
  128.5440  122.1710   59.8580 C   0  0  0  0  0  0  0  0  0  0  0  0
  126.3580  123.2980   59.2220 C   0  0  0  0  0  0  0  0  0  0  0  0
  125.4490  123.6990   58.2360 C   0  0  0  0  0  0  0  0  0  0  0  0
  124.1700  124.4050   58.6820 C   0  0  0  0  0  0  0  0  0  0  0  0
  125.7410  123.4360   56.8780 C   0  0  0  0  0  0  0  0  0  0  0  0
  124.7810  123.8010   55.8350 C   0  0  0  0  0  0  0  0  0  0  0  0
  124.0200  124.0900   55.0120 N   0  0  0  0  0  0  0  0  0  0  0  0
  128.5400  129.5560   55.7770 C   0  0  0  0  0  0  0  0  0  0  0  0
  129.0670  130.8440   55.8150 C   0  0  0  0  0  0  0  0  0  0  0  0
  1  2  1  0
  2  3  1  0
  3  4  1  0
  4  5  2  0
  4  6  1  0
  6  7  2  0
  7  8  1  0
  8  9  2  0
  9 10  1  0
 10 11  1  0
 11 12  2  0
 11 13  1  0
 13 14  1  0
 14 15  1  0
 15 16  1  0
 16 17  2  0
 17 18  1  0
 18 19  1  0
 18 20  2  0
 20 21  1  0
 21 22  1  0
 21 23  2  0
 23 24  1  0
 24 25  3  0
  9 26  1  0
 26 27  2  0
 27  6  1  0
 23 16  1  0
M  END
>  <Binding energies>  (14) 
[-8.81]

>  <Ligand effiencies>  (14) 
[-0.31464285714285717]

>  <Interactions>  (14) 
["V-B:TYR:539:CE2:9848, V-B:TYR:539:C:9839, H-B:TYR:539:OH:9850, V-B:PRO:540:N:9856, V-B:PRO:540:CA:9855, V-B:LEU:363:CD1:8160, V-B:ILE:538:CB:9834, V-B:TYR:539:CZ:9849, H-B:TYR:539:N:9842, V-B:PRO:540:CB:9857, V-B:TYR:539:CE1:9847, V-B:ILE:538:CG2:9835, V-B:TYR:539:CD2:9846, V-A:ILE:538:CG2:4863, V-A:ILE:538:CD1:4865, V-A:ILE:538:C:4858, H-A:TYR:531:OH:4795, V-A:ILE:538:CA:4860, H-B:TYR:531:OH:9767, V-A:LEU:363:CD1:3189, V-A:MET:535:CE:4835, V-A:MET:535:CG:4833, H-A:TYR:539:N:4870, V-A:PRO:540:CD:4887, H-A:ILE:538:N:4861, V-A:MET:535:CB:4832, V-A:PRO:540:CB:4885, V-A:PRO:540:N:4884, V-A:TYR:539:CE1:4875, V-A:TYR:539:CD1:4873, V-B:TYR:531:CE2:9765, H-B:MET:535:SD:9806"]

$$$$
1q_Grossjean_2025
     RDKit          3D

 21 21  0  0  0  0  0  0  0  0999 V2000
  129.5310  131.4340   53.3560 C   0  0  0  0  0  0  0  0  0  0  0  0
  128.2030  131.3860   53.8590 O   0  0  0  0  0  0  0  0  0  0  0  0
  127.6170  130.1960   54.1400 C   0  0  0  0  0  0  0  0  0  0  0  0
  126.4050  130.0050   54.2550 O   0  0  0  0  0  0  0  0  0  0  0  0
  128.6140  129.0370   54.3500 C   0  0  0  0  0  0  0  0  0  0  0  0
  127.9570  127.7260   54.4550 N   0  0  0  0  0  0  0  0  0  0  0  0
  128.5810  126.5380   54.5760 C   0  0  0  0  0  0  0  0  0  0  0  0
  129.8070  126.4220   54.6140 O   0  0  0  0  0  0  0  0  0  0  0  0
  127.6680  125.3080   54.6820 C   0  0  0  0  0  0  0  0  0  0  0  0
  128.3350  123.9860   54.2520 C   0  0  0  0  0  0  0  0  0  0  0  0
  127.4970  122.5060   54.8940 S   0  0  0  0  0  0  0  0  0  0  0  0
  126.9490  122.8400   56.5570 C   0  0  0  0  0  0  0  0  0  0  0  0
  127.8430  122.4600   57.5050 N   0  0  0  0  0  0  0  0  0  0  0  0
  127.5370  122.6600   58.8070 C   0  0  0  0  0  0  0  0  0  0  0  0
  128.5780  122.1940   59.8080 C   0  0  0  0  0  0  0  0  0  0  0  0
  126.3450  123.2530   59.2170 C   0  0  0  0  0  0  0  0  0  0  0  0
  125.4280  123.6730   58.2480 C   0  0  0  0  0  0  0  0  0  0  0  0
  124.1350  124.3370   58.7230 C   0  0  0  0  0  0  0  0  0  0  0  0
  125.7260  123.4760   56.8810 C   0  0  0  0  0  0  0  0  0  0  0  0
  124.8030  123.9600   55.8520 C   0  0  0  0  0  0  0  0  0  0  0  0
  124.0720  124.3440   55.0420 N   0  0  0  0  0  0  0  0  0  0  0  0
  1  2  1  0
  2  3  1  0
  3  4  2  0
  3  5  1  0
  5  6  1  0
  6  7  1  0
  7  8  2  0
  7  9  1  0
  9 10  1  0
 10 11  1  0
 11 12  1  0
 12 13  2  0
 13 14  1  0
 14 15  1  0
 14 16  2  0
 16 17  1  0
 17 18  1  0
 17 19  2  0
 19 20  1  0
 20 21  3  0
 19 12  1  0
M  END
>  <Binding energies>  (15) 
[-6.31]

>  <Ligand effiencies>  (15) 
[-0.2868181818181818]

>  <Interactions>  (15) 
["V-B:TYR:539:CE2:9848, V-B:TYR:539:C:9839, V-B:PRO:540:N:9856, V-B:PRO:540:CA:9855, V-B:LEU:363:CD1:8160, V-B:TYR:539:CZ:9849, H-B:TYR:539:N:9842, V-B:PRO:540:CB:9857, V-B:TYR:539:CE1:9847, V-B:ILE:538:CG2:9835, V-B:TYR:539:CD2:9846, H-A:TYR:531:OH:4795, H-B:TYR:531:OH:9767, V-A:MET:535:CE:4835, V-A:MET:535:CB:4832, V-A:TYR:539:CE1:4875, V-B:TYR:531:CE2:9765, H-A:TYR:539:OH:4878, H-B:MET:535:SD:9806"]

$$$$
2a_Grossjean_2025
     RDKit          3D

 29 30  0  0  0  0  0  0  0  0999 V2000
  132.7680  131.5330   57.0730 C   0  0  0  0  0  0  0  0  0  0  0  0
  132.3710  132.6060   56.0560 C   0  0  0  0  0  0  0  0  0  0  0  0
  130.9630  132.8030   56.1060 O   0  0  0  0  0  0  0  0  0  0  0  0
  130.1790  132.5360   55.0300 C   0  0  0  0  0  0  0  0  0  0  0  0
  129.7930  133.4010   54.2370 O   0  0  0  0  0  0  0  0  0  0  0  0
  129.8460  131.0780   54.8890 C   0  0  0  0  0  0  0  0  0  0  0  0
  129.4250  130.5290   53.6690 C   0  0  0  0  0  0  0  0  0  0  0  0
  129.1230  129.1740   53.5720 C   0  0  0  0  0  0  0  0  0  0  0  0
  129.2260  128.3430   54.6890 C   0  0  0  0  0  0  0  0  0  0  0  0
  128.8820  126.9950   54.4790 N   0  0  0  0  0  0  0  0  0  0  0  0
  129.6570  125.8900   54.4880 C   0  0  0  0  0  0  0  0  0  0  0  0
  130.8750  125.8720   54.6670 O   0  0  0  0  0  0  0  0  0  0  0  0
  128.9230  124.5660   54.2480 C   0  0  0  0  0  0  0  0  0  0  0  0
  127.1070  124.7370   54.2500 S   0  0  0  0  0  0  0  0  0  0  0  0
  126.5540  125.2780   55.8630 C   0  0  0  0  0  0  0  0  0  0  0  0
  126.6700  126.6080   56.1100 N   0  0  0  0  0  0  0  0  0  0  0  0
  126.2820  127.0850   57.3140 C   0  0  0  0  0  0  0  0  0  0  0  0
  126.4690  128.5760   57.5250 C   0  0  0  0  0  0  0  0  0  0  0  0
  125.7590  126.2690   58.3120 C   0  0  0  0  0  0  0  0  0  0  0  0
  125.6210  124.8920   58.0760 C   0  0  0  0  0  0  0  0  0  0  0  0
  125.0390  124.0030   59.1900 C   0  0  0  0  0  0  0  0  0  0  0  0
  124.7260  124.7450   60.2520 F   0  0  0  0  0  0  0  0  0  0  0  0
  123.9400  123.3860   58.7530 F   0  0  0  0  0  0  0  0  0  0  0  0
  125.8930  123.0600   59.5970 F   0  0  0  0  0  0  0  0  0  0  0  0
  126.0270  124.3780   56.8180 C   0  0  0  0  0  0  0  0  0  0  0  0
  125.9090  122.9470   56.5190 C   0  0  0  0  0  0  0  0  0  0  0  0
  125.8150  121.8180   56.2830 N   0  0  0  0  0  0  0  0  0  0  0  0
  129.6540  128.8840   55.9100 C   0  0  0  0  0  0  0  0  0  0  0  0
  129.9600  130.2390   56.0040 C   0  0  0  0  0  0  0  0  0  0  0  0
  1  2  1  0
  2  3  1  0
  3  4  1  0
  4  5  2  0
  4  6  1  0
  6  7  2  0
  7  8  1  0
  8  9  2  0
  9 10  1  0
 10 11  1  0
 11 12  2  0
 11 13  1  0
 13 14  1  0
 14 15  1  0
 15 16  2  0
 16 17  1  0
 17 18  1  0
 17 19  2  0
 19 20  1  0
 20 21  1  0
 21 22  1  0
 21 23  1  0
 21 24  1  0
 20 25  2  0
 25 26  1  0
 26 27  3  0
  9 28  1  0
 28 29  2  0
 29  6  1  0
 25 15  1  0
M  END
>  <Binding energies>  (16) 
[-7.5]

>  <Ligand effiencies>  (16) 
[-0.25]

>  <Interactions>  (16) 
["V-B:GLU:543:CD:9880, H-B:TYR:539:OH:9850, V-B:PRO:540:N:9856, V-B:PRO:540:C:9853, V-B:PRO:540:CA:9855, V-B:PRO:540:CD:9859, V-B:LEU:363:CD1:8160, V-B:ILE:538:CB:9834, V-B:TYR:539:CZ:9849, H-B:TYR:539:N:9842, V-B:PRO:540:CB:9857, V-B:TYR:539:CE1:9847, V-A:ILE:538:CG2:4863, H-A:TYR:531:OH:4795, V-A:ILE:538:CA:4860, H-B:TYR:531:OH:9767, V-A:LEU:363:CD1:3189, V-A:MET:535:CE:4835, V-A:MET:535:CG:4833, H-A:TYR:539:N:4870, V-A:PRO:540:CD:4887, V-A:PRO:540:CB:4885, V-A:PRO:540:N:4884, V-B:PRO:540:CG:9858, V-A:TYR:539:CE1:4875, V-A:TYR:539:CD1:4873, V-B:ASP:366:CG:8184, H-B:MET:535:SD:9806, V-A:PRO:540:CG:4886, H-A:ASN:370:ND2:3248"]

$$$$
2b_Grossjean_2025
     RDKit          3D

 28 29  0  0  0  0  0  0  0  0999 V2000
  127.0730  126.6390   73.9410 C   0  0  0  0  0  0  0  0  0  0  0  0
  128.2830  125.9150   74.1150 O   0  0  0  0  0  0  0  0  0  0  0  0
  129.4180  126.2830   73.4670 C   0  0  0  0  0  0  0  0  0  0  0  0
  130.3830  126.8090   74.0320 O   0  0  0  0  0  0  0  0  0  0  0  0
  129.3820  125.9930   71.9950 C   0  0  0  0  0  0  0  0  0  0  0  0
  129.7960  124.7590   71.4720 C   0  0  0  0  0  0  0  0  0  0  0  0
  129.7520  124.5220   70.1010 C   0  0  0  0  0  0  0  0  0  0  0  0
  129.2900  125.5060   69.2270 C   0  0  0  0  0  0  0  0  0  0  0  0
  129.2930  125.1630   67.8610 N   0  0  0  0  0  0  0  0  0  0  0  0
  129.3800  125.9580   66.7740 C   0  0  0  0  0  0  0  0  0  0  0  0
  129.4500  127.1880   66.7930 O   0  0  0  0  0  0  0  0  0  0  0  0
  129.3700  125.2260   65.4280 C   0  0  0  0  0  0  0  0  0  0  0  0
  130.0440  123.5350   65.5260 S   0  0  0  0  0  0  0  0  0  0  0  0
  130.6410  123.0220   63.9210 C   0  0  0  0  0  0  0  0  0  0  0  0
  129.7230  122.4370   63.1100 N   0  0  0  0  0  0  0  0  0  0  0  0
  130.1050  122.0200   61.8830 C   0  0  0  0  0  0  0  0  0  0  0  0
  129.0240  121.3660   61.0450 C   0  0  0  0  0  0  0  0  0  0  0  0
  131.4060  122.1720   61.4100 C   0  0  0  0  0  0  0  0  0  0  0  0
  132.3700  122.7800   62.2280 C   0  0  0  0  0  0  0  0  0  0  0  0
  133.8030  122.9450   61.6880 C   0  0  0  0  0  0  0  0  0  0  0  0
  133.8140  122.7720   60.3650 F   0  0  0  0  0  0  0  0  0  0  0  0
  134.2610  124.1660   61.9680 F   0  0  0  0  0  0  0  0  0  0  0  0
  134.6590  122.0660   62.2140 F   0  0  0  0  0  0  0  0  0  0  0  0
  131.9840  123.2170   63.5210 C   0  0  0  0  0  0  0  0  0  0  0  0
  132.9510  123.8540   64.4200 C   0  0  0  0  0  0  0  0  0  0  0  0
  133.7150  124.3570   65.1290 N   0  0  0  0  0  0  0  0  0  0  0  0
  128.8810  126.7450   69.7410 C   0  0  0  0  0  0  0  0  0  0  0  0
  128.9270  126.9810   71.1120 C   0  0  0  0  0  0  0  0  0  0  0  0
  1  2  1  0
  2  3  1  0
  3  4  2  0
  3  5  1  0
  5  6  2  0
  6  7  1  0
  7  8  2  0
  8  9  1  0
  9 10  1  0
 10 11  2  0
 10 12  1  0
 12 13  1  0
 13 14  1  0
 14 15  2  0
 15 16  1  0
 16 17  1  0
 16 18  2  0
 18 19  1  0
 19 20  1  0
 20 21  1  0
 20 22  1  0
 20 23  1  0
 19 24  2  0
 24 25  1  0
 25 26  3  0
  8 27  1  0
 27 28  2  0
 28  5  1  0
 24 14  1  0
M  END
>  <Binding energies>  (17) 
[-7.43]

>  <Ligand effiencies>  (17) 
[-0.25620689655172413]

>  <Interactions>  (17) 
["V-A:HIS:456:CE1:4069, V-A:HIS:456:CD2:4068, V-A:TYR:484:CZ:4347, H-B:LYS:547:NZ:9923, V-B:GLU:543:CB:9878, V-B:HIS:456:CE1:9040, V-A:HIS:456:CG:4066, H-A:LYS:547:NZ:4951, V-B:GLU:543:C:9874, H-A:TYR:484:OH:4348, V-B:LYS:547:CD:9921, H-B:GLU:543:O:9875, V-A:TYR:484:CE1:4345, V-B:GLU:543:CD:9880, H-A:GLY:454:N:4050, V-A:ILE:369:CD1:3239, V-A:GLY:453:C:4042, V-A:ASP:366:CG:3213, V-B:TYR:539:CD2:9846, V-B:GLU:543:CG:9879, V-A:ILE:369:CG2:3237, V-A:ILE:369:CB:3236, V-A:GLY:454:CA:4049, V-A:LEU:475:CD1:4258, V-B:ALA:541:CB:9864, V-B:GLU:543:CA:9876, V-B:ALA:541:CA:9862, V-B:LYS:547:CE:9922"]

$$$$
2c_Grossjean_2025
     RDKit          3D

 26 27  0  0  0  0  0  0  0  0999 V2000
  123.4730  135.2440   61.4010 C   0  0  0  0  0  0  0  0  0  0  0  0
  124.8290  135.6350   61.5950 O   0  0  0  0  0  0  0  0  0  0  0  0
  125.8390  134.7620   61.2370 C   0  0  0  0  0  0  0  0  0  0  0  0
  127.1420  135.1680   61.5230 C   0  0  0  0  0  0  0  0  0  0  0  0
  128.2270  134.3570   61.1990 C   0  0  0  0  0  0  0  0  0  0  0  0
  128.0130  133.1220   60.5690 C   0  0  0  0  0  0  0  0  0  0  0  0
  129.0430  132.2290   60.2200 N   0  0  0  0  0  0  0  0  0  0  0  0
  130.0860  131.8120   60.9690 C   0  0  0  0  0  0  0  0  0  0  0  0
  130.3360  132.2120   62.1080 O   0  0  0  0  0  0  0  0  0  0  0  0
  131.0110  130.7960   60.2810 C   0  0  0  0  0  0  0  0  0  0  0  0
  131.6760  131.3110   58.6590 S   0  0  0  0  0  0  0  0  0  0  0  0
  130.3670  131.2720   57.4410 C   0  0  0  0  0  0  0  0  0  0  0  0
  129.2170  130.6650   57.8330 N   0  0  0  0  0  0  0  0  0  0  0  0
  128.1890  130.5890   56.9610 C   0  0  0  0  0  0  0  0  0  0  0  0
  126.9470  129.8820   57.4670 C   0  0  0  0  0  0  0  0  0  0  0  0
  128.2550  131.1180   55.6740 C   0  0  0  0  0  0  0  0  0  0  0  0
  129.4290  131.7560   55.2500 C   0  0  0  0  0  0  0  0  0  0  0  0
  129.4860  132.3390   53.8240 C   0  0  0  0  0  0  0  0  0  0  0  0
  129.7420  133.6460   53.8750 F   0  0  0  0  0  0  0  0  0  0  0  0
  130.4460  131.7360   53.1210 F   0  0  0  0  0  0  0  0  0  0  0  0
  128.3400  132.1800   53.1570 F   0  0  0  0  0  0  0  0  0  0  0  0
  130.5190  131.8380   56.1530 C   0  0  0  0  0  0  0  0  0  0  0  0
  131.7730  132.4920   55.7630 C   0  0  0  0  0  0  0  0  0  0  0  0
  132.7610  133.0090   55.4550 N   0  0  0  0  0  0  0  0  0  0  0  0
  126.7100  132.7040   60.2950 C   0  0  0  0  0  0  0  0  0  0  0  0
  125.6290  133.5180   60.6220 C   0  0  0  0  0  0  0  0  0  0  0  0
  1  2  1  0
  2  3  1  0
  3  4  2  0
  4  5  1  0
  5  6  2  0
  6  7  1  0
  7  8  1  0
  8  9  2  0
  8 10  1  0
 10 11  1  0
 11 12  1  0
 12 13  2  0
 13 14  1  0
 14 15  1  0
 14 16  2  0
 16 17  1  0
 17 18  1  0
 18 19  1  0
 18 20  1  0
 18 21  1  0
 17 22  2  0
 22 23  1  0
 23 24  3  0
  6 25  1  0
 25 26  2  0
 26  3  1  0
 22 12  1  0
M  END
>  <Binding energies>  (18) 
[-6.49]

>  <Ligand effiencies>  (18) 
[-0.24037037037037037]

>  <Interactions>  (18) 
["V-A:ILE:538:CD1:4865, V-A:ILE:538:C:4858, V-A:ILE:538:CA:4860, V-A:LEU:363:CD1:3189, V-A:MET:535:CG:4833, H-A:TYR:539:N:4870, V-A:TYR:539:CZ:4877, V-A:PRO:540:CD:4887, V-A:TYR:539:C:4867, V-A:MET:535:CB:4832, V-A:TYR:539:CG:4872, V-A:PRO:540:N:4884, V-A:TYR:539:CE1:4875, V-A:PRO:540:CA:4883, V-A:TYR:539:CD1:4873, V-B:LEU:475:CD1:9229, V-B:PRO:482:CG:9298, V-A:TYR:539:CE2:4876, H-A:ALA:541:N:4891, V-A:ALA:541:CB:4892, V-A:TYR:539:CD2:4874, V-B:ILE:369:CG2:8208, V-A:ALA:541:CA:4890, V-B:TRP:381:CZ2:8341, V-A:PRO:540:C:4881, V-B:TRP:381:CH2:8343, V-B:PRO:482:CB:9297, V-A:VAL:537:C:4850, V-B:SER:385:C:8376"]

$$$$
2d_Ghoteimi_2023
     RDKit          3D

 38 42  0  0  0  0  0  0  0  0999 V2000
  124.3140  130.3600   63.4900 C   0  0  0  0  0  0  0  0  0  0  0  0
  123.7530  130.1190   64.7720 O   0  0  0  0  0  0  0  0  0  0  0  0
  124.5100  129.6140   65.7680 C   0  0  0  0  0  0  0  0  0  0  0  0
  124.2460  129.6790   66.9720 O   0  0  0  0  0  0  0  0  0  0  0  0
  125.7670  128.9230   65.2180 C   0  0  0  0  0  0  0  0  0  0  0  0
  127.2440  129.3650   66.1940 S   0  0  0  0  0  0  0  0  0  0  0  0
  128.1310  127.8680   66.5760 C   0  0  0  0  0  0  0  0  0  0  0  0
  128.2590  127.6470   67.9080 N   0  0  0  0  0  0  0  0  0  0  0  0
  128.9200  126.5450   68.3440 C   0  0  0  0  0  0  0  0  0  0  0  0
  129.0360  126.3770   69.8250 C   0  0  0  0  0  0  0  0  0  0  0  0
  128.8280  127.4630   70.6830 C   0  0  0  0  0  0  0  0  0  0  0  0
  128.9350  127.3140   72.0630 C   0  0  0  0  0  0  0  0  0  0  0  0
  129.2420  126.0700   72.6360 C   0  0  0  0  0  0  0  0  0  0  0  0
  129.3710  125.9080   74.0200 N   0  0  0  0  0  0  0  0  0  0  0  0
  130.6850  125.6720   74.6510 C   0  0  0  0  0  0  0  0  0  0  0  0
  130.5900  125.1520   76.1010 C   0  0  0  0  0  0  0  0  0  0  0  0
  129.8060  126.0390   76.8830 O   0  0  0  0  0  0  0  0  0  0  0  0
  128.4870  126.1540   76.3760 C   0  0  0  0  0  0  0  0  0  0  0  0
  128.5180  126.6980   74.9320 C   0  0  0  0  0  0  0  0  0  0  0  0
  129.4630  124.9890   71.7720 C   0  0  0  0  0  0  0  0  0  0  0  0
  129.3590  125.1380   70.3920 C   0  0  0  0  0  0  0  0  0  0  0  0
  129.4680  125.6290   67.4430 C   0  0  0  0  0  0  0  0  0  0  0  0
  129.3210  125.8160   66.0630 C   0  0  0  0  0  0  0  0  0  0  0  0
  129.9090  124.7820   65.1590 C   0  0  0  0  0  0  0  0  0  0  0  0
  129.3890  123.4870   65.1420 C   0  0  0  0  0  0  0  0  0  0  0  0
  129.9210  122.5190   64.2950 C   0  0  0  0  0  0  0  0  0  0  0  0
  130.9940  122.8200   63.4410 C   0  0  0  0  0  0  0  0  0  0  0  0
  131.5370  121.8680   62.5740 N   0  0  0  0  0  0  0  0  0  0  0  0
  132.8640  122.0560   61.9570 C   0  0  0  0  0  0  0  0  0  0  0  0
  133.4410  120.7680   61.3330 C   0  0  0  0  0  0  0  0  0  0  0  0
  132.5200  120.2250   60.3990 O   0  0  0  0  0  0  0  0  0  0  0  0
  131.2810  119.9020   61.0120 C   0  0  0  0  0  0  0  0  0  0  0  0
  130.6480  121.1700   61.6240 C   0  0  0  0  0  0  0  0  0  0  0  0
  131.4990  124.1280   63.4520 C   0  0  0  0  0  0  0  0  0  0  0  0
  130.9650  125.0950   64.2990 C   0  0  0  0  0  0  0  0  0  0  0  0
  128.6280  126.9660   65.6080 C   0  0  0  0  0  0  0  0  0  0  0  0
  128.4310  127.1960   64.1730 C   0  0  0  0  0  0  0  0  0  0  0  0
  128.2780  127.3740   63.0390 N   0  0  0  0  0  0  0  0  0  0  0  0
  1  2  1  0
  2  3  1  0
  3  4  2  0
  3  5  1  0
  5  6  1  0
  6  7  1  0
  7  8  2  0
  8  9  1  0
  9 10  1  0
 10 11  2  0
 11 12  1  0
 12 13  2  0
 13 14  1  0
 14 15  1  0
 15 16  1  0
 16 17  1  0
 17 18  1  0
 18 19  1  0
 13 20  1  0
 20 21  2  0
  9 22  2  0
 22 23  1  0
 23 24  1  0
 24 25  2  0
 25 26  1  0
 26 27  2  0
 27 28  1  0
 28 29  1  0
 29 30  1  0
 30 31  1  0
 31 32  1  0
 32 33  1  0
 27 34  1  0
 34 35  2  0
 23 36  2  0
 36 37  1  0
 37 38  3  0
 36  7  1  0
 21 10  1  0
 35 24  1  0
 19 14  1  0
 33 28  1  0
M  END
>  <Binding energies>  (19) 
[-9.06]

>  <Ligand effiencies>  (19) 
[-0.23842105263157895]

>  <Interactions>  (19) 
["V-A:HIS:456:CE1:4069, V-A:HIS:456:CD2:4068, V-B:ARG:545:CZ:9898, H-B:GLY:454:N:9021, V-B:GLU:543:CB:9878, V-B:HIS:456:CE1:9040, H-B:ARG:545:NH2:9900, V-A:TYR:484:CE1:4345, V-B:ARG:545:CD:9895, V-B:GLU:543:CD:9880, V-A:ILE:369:CD1:3239, H-B:TYR:484:OH:9319, V-B:TYR:539:CD2:9846, V-B:GLU:543:CG:9879, V-A:ILE:369:CG2:3237, V-A:TRP:381:CH2:3372, V-A:LEU:475:CD1:4258, V-B:ALA:541:CB:9864, H-B:ARG:545:NE:9896, V-B:GLU:543:CA:9876"]

$$$$
2d_Grossjean_2025
     RDKit          3D

 24 25  0  0  0  0  0  0  0  0999 V2000
  127.3940  130.7260   56.3590 C   0  0  0  0  0  0  0  0  0  0  0  0
  128.3140  131.0270   57.5270 C   0  0  0  0  0  0  0  0  0  0  0  0
  127.8440  131.6380   58.6870 C   0  0  0  0  0  0  0  0  0  0  0  0
  128.7340  131.8900   59.7420 C   0  0  0  0  0  0  0  0  0  0  0  0
  128.1940  132.5570   61.0220 C   0  0  0  0  0  0  0  0  0  0  0  0
  126.8960  132.8290   60.8820 F   0  0  0  0  0  0  0  0  0  0  0  0
  128.3540  131.7410   62.0650 F   0  0  0  0  0  0  0  0  0  0  0  0
  128.8150  133.7020   61.3100 F   0  0  0  0  0  0  0  0  0  0  0  0
  130.0940  131.5200   59.5860 C   0  0  0  0  0  0  0  0  0  0  0  0
  131.0530  131.7200   60.6750 C   0  0  0  0  0  0  0  0  0  0  0  0
  131.8090  131.8770   61.5370 N   0  0  0  0  0  0  0  0  0  0  0  0
  130.4860  130.9270   58.3620 C   0  0  0  0  0  0  0  0  0  0  0  0
  132.1560  130.4300   57.9860 S   0  0  0  0  0  0  0  0  0  0  0  0
  132.7180  131.3370   56.5070 C   0  0  0  0  0  0  0  0  0  0  0  0
  131.5620  131.8600   55.6500 C   0  0  0  0  0  0  0  0  0  0  0  0
  131.2700  133.0550   55.7040 O   0  0  0  0  0  0  0  0  0  0  0  0
  130.9210  130.9330   54.9060 N   0  0  0  0  0  0  0  0  0  0  0  0
  129.8370  131.0970   54.0240 C   0  0  0  0  0  0  0  0  0  0  0  0
  129.2420  129.9220   53.5600 C   0  0  0  0  0  0  0  0  0  0  0  0
  128.1660  129.9810   52.6780 C   0  0  0  0  0  0  0  0  0  0  0  0
  127.6900  131.2190   52.2520 C   0  0  0  0  0  0  0  0  0  0  0  0
  128.2850  132.3970   52.6960 C   0  0  0  0  0  0  0  0  0  0  0  0
  129.3590  132.3410   53.5790 C   0  0  0  0  0  0  0  0  0  0  0  0
  129.6080  130.6710   57.3610 N   0  0  0  0  0  0  0  0  0  0  0  0
  1  2  1  0
  2  3  2  0
  3  4  1  0
  4  5  1  0
  5  6  1  0
  5  7  1  0
  5  8  1  0
  4  9  2  0
  9 10  1  0
 10 11  3  0
  9 12  1  0
 12 13  1  0
 13 14  1  0
 14 15  1  0
 15 16  2  0
 15 17  1  0
 17 18  1  0
 18 19  2  0
 19 20  1  0
 20 21  2  0
 21 22  1  0
 22 23  2  0
 12 24  2  0
 24  2  1  0
 23 18  1  0
M  END
>  <Binding energies>  (20) 
[-7.05]

>  <Ligand effiencies>  (20) 
[-0.282]

>  <Interactions>  (20) 
["H-A:TYR:531:OH:4795, V-A:LEU:363:CD1:3189, V-A:TYR:531:CE2:4793, V-A:MET:535:CE:4835, V-A:MET:535:CG:4833, H-A:TYR:539:N:4870, V-A:TYR:539:CZ:4877, V-A:PRO:540:CB:4885, V-A:TYR:539:CE1:4875, V-A:PRO:540:CA:4883, V-A:TYR:539:CD1:4873, V-A:TYR:539:CE2:4876, H-A:ALA:541:N:4891, V-A:ALA:541:CB:4892, V-A:ALA:541:CA:4890, V-A:PRO:540:C:4881, V-A:TYR:531:CZ:4794, V-B:MET:535:CE:9807, V-A:VAL:537:C:4850"]

$$$$
2e_Grossjean_2025
     RDKit          3D

 25 26  0  0  0  0  0  0  0  0999 V2000
  130.1310  119.8250   60.6960 C   0  0  0  0  0  0  0  0  0  0  0  0
  129.6920  121.1300   61.3330 C   0  0  0  0  0  0  0  0  0  0  0  0
  130.5290  121.8410   62.1970 C   0  0  0  0  0  0  0  0  0  0  0  0
  130.0620  123.0400   62.7360 C   0  0  0  0  0  0  0  0  0  0  0  0
  128.7830  123.4950   62.4050 C   0  0  0  0  0  0  0  0  0  0  0  0
  127.9930  122.7280   61.5410 C   0  0  0  0  0  0  0  0  0  0  0  0
  126.7330  123.2530   61.2070 N   0  0  0  0  0  0  0  0  0  0  0  0
  126.1600  123.3330   59.9850 C   0  0  0  0  0  0  0  0  0  0  0  0
  126.6430  122.8770   58.9480 O   0  0  0  0  0  0  0  0  0  0  0  0
  124.8330  124.0950   59.9200 C   0  0  0  0  0  0  0  0  0  0  0  0
  124.2390  124.2890   58.2090 S   0  0  0  0  0  0  0  0  0  0  0  0
  125.4950  125.2330   57.3740 C   0  0  0  0  0  0  0  0  0  0  0  0
  125.5200  126.5500   57.6980 N   0  0  0  0  0  0  0  0  0  0  0  0
  126.4140  127.3500   57.0750 C   0  0  0  0  0  0  0  0  0  0  0  0
  126.3890  128.8100   57.4840 C   0  0  0  0  0  0  0  0  0  0  0  0
  127.3050  126.8780   56.1120 C   0  0  0  0  0  0  0  0  0  0  0  0
  127.2850  125.5200   55.7600 C   0  0  0  0  0  0  0  0  0  0  0  0
  128.2610  125.0180   54.6790 C   0  0  0  0  0  0  0  0  0  0  0  0
  129.0840  126.0010   54.3120 F   0  0  0  0  0  0  0  0  0  0  0  0
  128.9830  124.0030   55.1540 F   0  0  0  0  0  0  0  0  0  0  0  0
  127.6350  124.5870   53.5810 F   0  0  0  0  0  0  0  0  0  0  0  0
  126.3570  124.6670   56.4070 C   0  0  0  0  0  0  0  0  0  0  0  0
  126.2660  123.2450   56.0620 C   0  0  0  0  0  0  0  0  0  0  0  0
  126.1950  122.1230   55.7890 N   0  0  0  0  0  0  0  0  0  0  0  0
  128.4460  121.5580   61.0030 N   0  0  0  0  0  0  0  0  0  0  0  0
  1  2  1  0
  2  3  2  0
  3  4  1  0
  4  5  2  0
  5  6  1  0
  6  7  1  0
  7  8  1  0
  8  9  2  0
  8 10  1  0
 10 11  1  0
 11 12  1  0
 12 13  2  0
 13 14  1  0
 14 15  1  0
 14 16  2  0
 16 17  1  0
 17 18  1  0
 18 19  1  0
 18 20  1  0
 18 21  1  0
 17 22  2  0
 22 23  1  0
 23 24  3  0
  6 25  2  0
 25  2  1  0
 22 12  1  0
M  END
>  <Binding energies>  (21) 
[-6.88]

>  <Ligand effiencies>  (21) 
[-0.2646153846153846]

>  <Interactions>  (21) 
["V-B:GLU:543:CD:9880, V-B:TYR:539:CE2:9848, V-B:PRO:540:CA:9855, H-B:ALA:541:N:9863, V-B:ILE:538:CB:9834, V-B:TYR:539:CZ:9849, H-B:TYR:539:N:9842, V-B:PRO:540:CB:9857, V-B:TYR:539:CE1:9847, V-B:ILE:538:CG2:9835, V-B:TYR:539:CD2:9846, H-B:TYR:531:OH:9767, V-A:MET:535:CE:4835, V-B:GLU:543:CG:9879, V-A:TRP:381:CH2:3372, V-A:LEU:475:CD1:4258, V-B:ALA:541:CB:9864, H-B:GLU:543:OE2:9882, V-A:PRO:482:CG:4327, V-B:ALA:541:CA:9862, V-B:MET:535:CB:9804, V-B:MET:535:CG:9805"]

$$$$
2f_Grossjean_2025
     RDKit          3D

 24 25  0  0  0  0  0  0  0  0999 V2000
  130.4420  131.2570   58.9400 C   0  0  0  0  0  0  0  0  0  0  0  0
  129.0680  131.7780   59.3170 C   0  0  0  0  0  0  0  0  0  0  0  0
  128.9090  132.9360   60.0750 C   0  0  0  0  0  0  0  0  0  0  0  0
  127.6170  133.3730   60.4050 C   0  0  0  0  0  0  0  0  0  0  0  0
  127.4630  134.6500   61.2540 C   0  0  0  0  0  0  0  0  0  0  0  0
  128.6430  135.2600   61.3840 F   0  0  0  0  0  0  0  0  0  0  0  0
  126.6060  135.4860   60.6670 F   0  0  0  0  0  0  0  0  0  0  0  0
  127.0040  134.4020   62.4830 F   0  0  0  0  0  0  0  0  0  0  0  0
  126.5070  132.6180   59.9460 C   0  0  0  0  0  0  0  0  0  0  0  0
  125.1420  133.0020   60.3120 C   0  0  0  0  0  0  0  0  0  0  0  0
  124.0630  133.3060   60.6010 N   0  0  0  0  0  0  0  0  0  0  0  0
  126.7640  131.4690   59.1590 C   0  0  0  0  0  0  0  0  0  0  0  0
  125.4950  130.4130   58.4900 S   0  0  0  0  0  0  0  0  0  0  0  0
  126.2560  129.3530   57.2140 C   0  0  0  0  0  0  0  0  0  0  0  0
  126.9060  130.1060   56.0450 C   0  0  0  0  0  0  0  0  0  0  0  0
  126.2560  130.3790   55.0340 O   0  0  0  0  0  0  0  0  0  0  0  0
  128.2100  130.4050   56.2270 N   0  0  0  0  0  0  0  0  0  0  0  0
  129.1000  131.0880   55.3760 C   0  0  0  0  0  0  0  0  0  0  0  0
  129.3920  130.7340   54.0460 C   0  0  0  0  0  0  0  0  0  0  0  0
  130.2920  131.5030   53.3070 C   0  0  0  0  0  0  0  0  0  0  0  0
  130.8770  132.6140   53.9170 C   0  0  0  0  0  0  0  0  0  0  0  0
  130.6070  132.9820   55.1940 N   0  0  0  0  0  0  0  0  0  0  0  0
  129.7280  132.2240   55.8990 C   0  0  0  0  0  0  0  0  0  0  0  0
  128.0200  131.0500   58.8690 N   0  0  0  0  0  0  0  0  0  0  0  0
  1  2  1  0
  2  3  2  0
  3  4  1  0
  4  5  1  0
  5  6  1  0
  5  7  1  0
  5  8  1  0
  4  9  2  0
  9 10  1  0
 10 11  3  0
  9 12  1  0
 12 13  1  0
 13 14  1  0
 14 15  1  0
 15 16  2  0
 15 17  1  0
 17 18  1  0
 18 19  2  0
 19 20  1  0
 20 21  2  0
 21 22  1  0
 22 23  2  0
 12 24  2  0
 24  2  1  0
 23 18  1  0
M  END
>  <Binding energies>  (22) 
[-6.45]

>  <Ligand effiencies>  (22) 
[-0.258]

>  <Interactions>  (22) 
["V-A:ILE:538:CD1:4865, V-A:ILE:538:CA:4860, H-B:TYR:531:OH:9767, V-A:MET:535:CG:4833, H-A:TYR:539:N:4870, V-A:TYR:539:CZ:4877, V-A:TYR:539:C:4867, V-A:MET:535:CB:4832, V-A:PRO:540:N:4884, V-A:TYR:539:CE1:4875, V-A:PRO:540:CA:4883, V-A:TYR:539:CD1:4873, V-B:LEU:475:CD1:9229, V-B:PRO:482:CG:9298, V-A:TYR:539:CE2:4876, V-A:ALA:541:CB:4892, V-A:TYR:539:CD2:4874, H-A:TYR:539:OH:4878, V-A:ALA:541:CA:4890, V-B:TRP:381:CZ2:8341, V-A:PRO:540:C:4881, V-B:TRP:381:CH2:8343, V-B:PRO:482:CB:9297, V-A:VAL:537:C:4850, V-B:TRP:381:CZ3:8342"]

$$$$
2g_Grossjean_2025
     RDKit          3D

 25 26  0  0  0  0  0  0  0  0999 V2000
  132.4220  130.7200   61.6930 C   0  0  0  0  0  0  0  0  0  0  0  0
  131.8500  131.1720   60.3630 C   0  0  0  0  0  0  0  0  0  0  0  0
  132.5390  130.9750   59.1680 C   0  0  0  0  0  0  0  0  0  0  0  0
  131.9710  131.4180   57.9640 C   0  0  0  0  0  0  0  0  0  0  0  0
  132.7520  131.1990   56.6530 C   0  0  0  0  0  0  0  0  0  0  0  0
  133.1240  132.3710   56.1350 F   0  0  0  0  0  0  0  0  0  0  0  0
  133.8410  130.4670   56.8930 F   0  0  0  0  0  0  0  0  0  0  0  0
  132.0340  130.5630   55.7250 F   0  0  0  0  0  0  0  0  0  0  0  0
  130.7010  132.0490   58.0040 C   0  0  0  0  0  0  0  0  0  0  0  0
  130.0900  132.5800   56.7820 C   0  0  0  0  0  0  0  0  0  0  0  0
  129.6080  133.0000   55.8180 N   0  0  0  0  0  0  0  0  0  0  0  0
  130.0620  132.1790   59.2610 C   0  0  0  0  0  0  0  0  0  0  0  0
  128.4600  132.9200   59.4880 S   0  0  0  0  0  0  0  0  0  0  0  0
  127.2080  131.6400   59.1330 C   0  0  0  0  0  0  0  0  0  0  0  0
  127.6360  130.5950   58.0940 C   0  0  0  0  0  0  0  0  0  0  0  0
  128.5680  129.8180   58.3110 O   0  0  0  0  0  0  0  0  0  0  0  0
  126.9320  130.5990   56.9470 N   0  0  0  0  0  0  0  0  0  0  0  0
  127.1470  129.6950   55.8160 C   0  0  0  0  0  0  0  0  0  0  0  0
  127.8050  130.3480   54.6050 C   0  0  0  0  0  0  0  0  0  0  0  0
  129.1850  130.2310   54.4160 C   0  0  0  0  0  0  0  0  0  0  0  0
  129.7830  130.7940   53.2910 C   0  0  0  0  0  0  0  0  0  0  0  0
  128.9990  131.4640   52.3550 C   0  0  0  0  0  0  0  0  0  0  0  0
  127.6210  131.5730   52.5320 C   0  0  0  0  0  0  0  0  0  0  0  0
  127.0230  131.0100   53.6550 C   0  0  0  0  0  0  0  0  0  0  0  0
  130.6360  131.7650   60.4170 N   0  0  0  0  0  0  0  0  0  0  0  0
  1  2  1  0
  2  3  2  0
  3  4  1  0
  4  5  1  0
  5  6  1  0
  5  7  1  0
  5  8  1  0
  4  9  2  0
  9 10  1  0
 10 11  3  0
  9 12  1  0
 12 13  1  0
 13 14  1  0
 14 15  1  0
 15 16  2  0
 15 17  1  0
 17 18  1  0
 18 19  1  0
 19 20  2  0
 20 21  1  0
 21 22  2  0
 22 23  1  0
 23 24  2  0
 12 25  2  0
 25  2  1  0
 24 19  1  0
M  END
>  <Binding energies>  (23) 
[-6.65]

>  <Ligand effiencies>  (23) 
[-0.2557692307692308]

>  <Interactions>  (23) 
["V-A:GLU:543:CD:4908, V-A:ASP:366:CB:3212, V-A:ILE:538:CG2:4863, V-A:LEU:363:CD1:3189, V-A:TYR:531:CE2:4793, V-A:MET:535:CG:4833, H-A:TYR:539:N:4870, V-A:TYR:539:CZ:4877, V-A:PRO:540:CD:4887, V-A:TYR:539:C:4867, V-A:LEU:363:CA:3185, V-A:MET:535:CB:4832, V-A:PRO:540:CB:4885, V-A:PRO:540:N:4884, V-A:TYR:539:CE1:4875, V-A:PRO:540:CA:4883, V-A:TYR:539:CD1:4873, V-A:TYR:539:CA:4869, V-A:TYR:539:CE2:4876, H-A:ALA:541:N:4891, H-A:TYR:539:OH:4878, V-A:LEU:363:CB:3187, V-A:TYR:531:CZ:4794, V-A:PRO:540:CG:4886, V-A:LEU:363:CG:3188"]

$$$$
2h_Grossjean_2025
     RDKit          3D

 31 32  0  0  0  0  0  0  0  0999 V2000
  132.1880  132.6420   55.6030 C   0  0  0  0  0  0  0  0  0  0  0  0
  130.8290  133.0600   55.5380 O   0  0  0  0  0  0  0  0  0  0  0  0
  129.8410  132.2370   56.0480 C   0  0  0  0  0  0  0  0  0  0  0  0
  129.7300  131.8950   57.4050 C   0  0  0  0  0  0  0  0  0  0  0  0
  128.7020  131.0660   57.8470 C   0  0  0  0  0  0  0  0  0  0  0  0
  127.7620  130.5610   56.9460 C   0  0  0  0  0  0  0  0  0  0  0  0
  126.6310  129.6710   57.4570 C   0  0  0  0  0  0  0  0  0  0  0  0
  125.4300  130.4120   57.8430 N   0  0  0  0  0  0  0  0  0  0  0  0
  124.8690  130.3870   59.0650 C   0  0  0  0  0  0  0  0  0  0  0  0
  125.2700  129.6620   59.9780 O   0  0  0  0  0  0  0  0  0  0  0  0
  123.6820  131.3390   59.2680 C   0  0  0  0  0  0  0  0  0  0  0  0
  123.6690  132.2250   60.8630 S   0  0  0  0  0  0  0  0  0  0  0  0
  125.2810  132.0080   61.5850 C   0  0  0  0  0  0  0  0  0  0  0  0
  126.2620  132.6890   60.9430 N   0  0  0  0  0  0  0  0  0  0  0  0
  127.5300  132.5800   61.3980 C   0  0  0  0  0  0  0  0  0  0  0  0
  128.5760  133.3620   60.6270 C   0  0  0  0  0  0  0  0  0  0  0  0
  127.8690  131.8010   62.5020 C   0  0  0  0  0  0  0  0  0  0  0  0
  126.8640  131.1060   63.1920 C   0  0  0  0  0  0  0  0  0  0  0  0
  127.2560  130.2560   64.4160 C   0  0  0  0  0  0  0  0  0  0  0  0
  128.2110  130.8750   65.1120 F   0  0  0  0  0  0  0  0  0  0  0  0
  126.2320  130.0410   65.2450 F   0  0  0  0  0  0  0  0  0  0  0  0
  127.7110  129.0660   64.0220 F   0  0  0  0  0  0  0  0  0  0  0  0
  125.5270  131.2160   62.7310 C   0  0  0  0  0  0  0  0  0  0  0  0
  124.4330  130.5570   63.4510 C   0  0  0  0  0  0  0  0  0  0  0  0
  123.5710  130.0390   64.0220 N   0  0  0  0  0  0  0  0  0  0  0  0
  127.8750  130.8760   55.5830 C   0  0  0  0  0  0  0  0  0  0  0  0
  126.9550  130.3800   54.6890 O   0  0  0  0  0  0  0  0  0  0  0  0
  127.5060  129.5260   53.6950 C   0  0  0  0  0  0  0  0  0  0  0  0
  128.9020  131.7280   55.1430 C   0  0  0  0  0  0  0  0  0  0  0  0
  129.0030  132.0530   53.8110 O   0  0  0  0  0  0  0  0  0  0  0  0
  130.1250  131.4770   53.1560 C   0  0  0  0  0  0  0  0  0  0  0  0
  1  2  1  0
  2  3  1  0
  3  4  2  0
  4  5  1  0
  5  6  2  0
  6  7  1  0
  7  8  1  0
  8  9  1  0
  9 10  2  0
  9 11  1  0
 11 12  1  0
 12 13  1  0
 13 14  2  0
 14 15  1  0
 15 16  1  0
 15 17  2  0
 17 18  1  0
 18 19  1  0
 19 20  1  0
 19 21  1  0
 19 22  1  0
 18 23  2  0
 23 24  1  0
 24 25  3  0
  6 26  1  0
 26 27  1  0
 27 28  1  0
 26 29  2  0
 29 30  1  0
 30 31  1  0
 29  3  1  0
 23 13  1  0
M  END
>  <Binding energies>  (24) 
[-6.96]

>  <Ligand effiencies>  (24) 
[-0.2175]

>  <Interactions>  (24) 
["V-B:ARG:545:CZ:9898, H-B:GLY:454:N:9021, H-B:ARG:545:NH2:9900, H-B:ARG:545:NH1:9899, V-A:GLU:543:CD:4908, V-B:TYR:484:CZ:9318, V-A:GLU:543:CB:4906, V-A:ILE:538:CG2:4863, V-A:ILE:538:CD1:4865, V-A:ILE:538:CA:4860, H-B:TYR:531:OH:9767, V-A:LEU:363:CD1:3189, V-A:MET:535:CG:4833, H-A:TYR:539:N:4870, V-A:TYR:539:CZ:4877, V-A:PRO:540:CD:4887, V-A:TYR:539:C:4867, V-A:MET:535:CB:4832, V-A:PRO:540:N:4884, V-A:TYR:539:CE1:4875, V-A:PRO:540:CA:4883, V-A:TYR:539:CD1:4873, H-B:ARG:545:NE:9896, V-A:TYR:539:CE2:4876, V-A:ALA:541:CB:4892, V-B:ASP:366:CG:8184, H-A:TYR:539:OH:4878, V-B:ASP:366:CB:8183, V-B:ILE:369:CG2:8208, V-A:PRO:540:C:4881, V-B:ASP:366:CA:8181, V-B:ILE:369:CB:8207, V-B:MET:535:CE:9807, V-B:TYR:484:CE1:9316"]

$$$$
2i_Grossjean_2025
     RDKit          3D

 23 24  0  0  0  0  0  0  0  0999 V2000
  132.6390  132.2190   56.8510 C   0  0  0  0  0  0  0  0  0  0  0  0
  131.2810  131.8420   56.2890 C   0  0  0  0  0  0  0  0  0  0  0  0
  131.0340  131.8380   54.9190 C   0  0  0  0  0  0  0  0  0  0  0  0
  129.7620  131.4800   54.4480 C   0  0  0  0  0  0  0  0  0  0  0  0
  129.5060  131.4810   52.9290 C   0  0  0  0  0  0  0  0  0  0  0  0
  130.5990  131.8910   52.2830 F   0  0  0  0  0  0  0  0  0  0  0  0
  129.1950  130.2520   52.5160 F   0  0  0  0  0  0  0  0  0  0  0  0
  128.5040  132.2890   52.5750 F   0  0  0  0  0  0  0  0  0  0  0  0
  128.7640  131.1330   55.3940 C   0  0  0  0  0  0  0  0  0  0  0  0
  127.4170  130.7500   54.9570 C   0  0  0  0  0  0  0  0  0  0  0  0
  126.3540  130.4470   54.6130 N   0  0  0  0  0  0  0  0  0  0  0  0
  129.1000  131.1670   56.7670 C   0  0  0  0  0  0  0  0  0  0  0  0
  127.9240  130.7580   58.0460 S   0  0  0  0  0  0  0  0  0  0  0  0
  127.7690  132.1930   59.1510 C   0  0  0  0  0  0  0  0  0  0  0  0
  128.9890  132.3600   60.0590 C   0  0  0  0  0  0  0  0  0  0  0  0
  129.0220  133.3040   60.8510 O   0  0  0  0  0  0  0  0  0  0  0  0
  129.9720  131.4480   59.8970 N   0  0  0  0  0  0  0  0  0  0  0  0
  131.1740  131.3970   60.5830 C   0  0  0  0  0  0  0  0  0  0  0  0
  132.4240  130.9070   60.1790 C   0  0  0  0  0  0  0  0  0  0  0  0
  133.2480  131.1150   61.2610 C   0  0  0  0  0  0  0  0  0  0  0  0
  132.5370  131.7020   62.2530 O   0  0  0  0  0  0  0  0  0  0  0  0
  131.2260  131.8800   61.8050 N   0  0  0  0  0  0  0  0  0  0  0  0
  130.3390  131.5150   57.2010 N   0  0  0  0  0  0  0  0  0  0  0  0
  1  2  1  0
  2  3  2  0
  3  4  1  0
  4  5  1  0
  5  6  1  0
  5  7  1  0
  5  8  1  0
  4  9  2  0
  9 10  1  0
 10 11  3  0
  9 12  1  0
 12 13  1  0
 13 14  1  0
 14 15  1  0
 15 16  2  0
 15 17  1  0
 17 18  1  0
 18 19  1  0
 19 20  2  0
 20 21  1  0
 21 22  1  0
 12 23  2  0
 23  2  1  0
 22 18  2  0
M  END
>  <Binding energies>  (25) 
[-6.6]

>  <Ligand effiencies>  (25) 
[-0.27499999999999997]

>  <Interactions>  (25) 
["V-A:ILE:538:CD1:4865, H-B:TYR:531:OH:9767, V-A:LEU:363:CD1:3189, V-A:MET:535:CE:4835, V-A:MET:535:CG:4833, V-A:TYR:539:CZ:4877, V-A:PRO:540:CD:4887, V-A:MET:535:CB:4832, V-A:PRO:540:CB:4885, V-A:PRO:540:N:4884, V-A:TYR:539:CE1:4875, V-A:PRO:540:CA:4883, V-A:TYR:539:CD1:4873, V-A:TYR:539:CE2:4876, H-A:ALA:541:N:4891, V-A:TYR:539:CD2:4874, H-A:TYR:539:OH:4878, V-A:ASN:362:CB:3176, V-A:PRO:540:CG:4886, V-B:MET:535:CE:9807, V-A:VAL:537:C:4850"]

$$$$
2k_Grossjean_2025
     RDKit          3D

 28 28  0  0  0  0  0  0  0  0999 V2000
  123.7520  129.9710   65.7780 C   0  0  0  0  0  0  0  0  0  0  0  0
  123.7560  130.3480   64.4100 O   0  0  0  0  0  0  0  0  0  0  0  0
  125.0130  130.8380   63.9610 C   0  0  0  0  0  0  0  0  0  0  0  0
  125.4290  130.1020   62.6810 C   0  0  0  0  0  0  0  0  0  0  0  0
  125.6600  131.0550   61.6530 O   0  0  0  0  0  0  0  0  0  0  0  0
  124.8320  130.8920   60.5080 C   0  0  0  0  0  0  0  0  0  0  0  0
  123.6410  131.8510   60.6300 C   0  0  0  0  0  0  0  0  0  0  0  0
  123.8300  132.6330   61.7980 O   0  0  0  0  0  0  0  0  0  0  0  0
  123.3810  133.9770   61.7050 C   0  0  0  0  0  0  0  0  0  0  0  0
  124.5490  134.8630   61.2330 C   0  0  0  0  0  0  0  0  0  0  0  0
  125.8500  134.1940   61.3300 N   0  0  0  0  0  0  0  0  0  0  0  0
  127.0500  134.8000   61.2470 C   0  0  0  0  0  0  0  0  0  0  0  0
  127.1870  136.0170   61.1060 O   0  0  0  0  0  0  0  0  0  0  0  0
  128.2710  133.8710   61.3190 C   0  0  0  0  0  0  0  0  0  0  0  0
  128.2910  132.5100   60.1010 S   0  0  0  0  0  0  0  0  0  0  0  0
  129.9700  131.9360   59.8790 C   0  0  0  0  0  0  0  0  0  0  0  0
  130.7250  131.8780   61.0060 N   0  0  0  0  0  0  0  0  0  0  0  0
  132.0060  131.4570   60.9120 C   0  0  0  0  0  0  0  0  0  0  0  0
  132.7870  131.4300   62.2110 C   0  0  0  0  0  0  0  0  0  0  0  0
  132.5830  131.0680   59.7060 C   0  0  0  0  0  0  0  0  0  0  0  0
  131.8180  131.1120   58.5300 C   0  0  0  0  0  0  0  0  0  0  0  0
  132.4700  130.6730   57.2050 C   0  0  0  0  0  0  0  0  0  0  0  0
  132.5080  131.6520   56.2990 F   0  0  0  0  0  0  0  0  0  0  0  0
  133.7260  130.2800   57.4220 F   0  0  0  0  0  0  0  0  0  0  0  0
  131.7860  129.6600   56.6730 F   0  0  0  0  0  0  0  0  0  0  0  0
  130.4750  131.5600   58.6120 C   0  0  0  0  0  0  0  0  0  0  0  0
  129.6310  131.6300   57.4150 C   0  0  0  0  0  0  0  0  0  0  0  0
  128.9660  131.6850   56.4690 N   0  0  0  0  0  0  0  0  0  0  0  0
  1  2  1  0
  2  3  1  0
  3  4  1  0
  4  5  1  0
  5  6  1  0
  6  7  1  0
  7  8  1  0
  8  9  1  0
  9 10  1  0
 10 11  1  0
 11 12  1  0
 12 13  2  0
 12 14  1  0
 14 15  1  0
 15 16  1  0
 16 17  2  0
 17 18  1  0
 18 19  1  0
 18 20  2  0
 20 21  1  0
 21 22  1  0
 22 23  1  0
 22 24  1  0
 22 25  1  0
 21 26  2  0
 26 27  1  0
 27 28  3  0
 26 16  1  0
M  END
>  <Binding energies>  (26) 
[-5.48]

>  <Ligand effiencies>  (26) 
[-0.18896551724137933]

>  <Interactions>  (26) 
["V-B:ARG:545:CZ:9898, H-B:GLY:454:N:9021, H-B:ARG:545:NH2:9900, V-B:GLY:454:CA:9020, V-B:ARG:545:CD:9895, V-A:GLU:543:CD:4908, V-A:ASP:366:CG:3213, V-A:ASP:366:CB:3212, V-A:LEU:363:CD1:3189, V-A:TYR:531:CE2:4793, V-A:LEU:363:CA:3185, V-A:PRO:540:CB:4885, V-A:PRO:540:N:4884, V-A:PRO:540:CA:4883, V-B:LEU:475:CD1:9229, V-A:TYR:539:CE2:4876, H-A:ALA:541:N:4891, V-A:ALA:541:CB:4892, V-A:TYR:539:CD2:4874, V-B:ASP:366:CG:8184, V-A:LEU:363:CB:3187, V-A:ASN:362:CB:3176, V-B:ILE:369:CG2:8208, V-A:ALA:541:CA:4890, V-B:TRP:381:CZ2:8341, V-A:PRO:540:C:4881, V-B:TRP:381:CH2:8343, V-B:ILE:369:CD1:8210, V-A:TYR:531:CZ:4794"]

$$$$
3aa_Grossjean_2025
     RDKit          3D

 34 36  0  0  0  0  0  0  0  0999 V2000
  124.4580  129.3340   67.2150 C   0  0  0  0  0  0  0  0  0  0  0  0
  124.7840  129.2840   65.7190 C   0  0  0  0  0  0  0  0  0  0  0  0
  123.9090  130.1560   65.0140 O   0  0  0  0  0  0  0  0  0  0  0  0
  124.1130  130.4390   63.7020 C   0  0  0  0  0  0  0  0  0  0  0  0
  123.2100  130.7810   62.9310 O   0  0  0  0  0  0  0  0  0  0  0  0
  125.5440  130.2800   63.2760 C   0  0  0  0  0  0  0  0  0  0  0  0
  125.9490  129.2640   62.3970 C   0  0  0  0  0  0  0  0  0  0  0  0
  127.2840  129.1470   62.0180 C   0  0  0  0  0  0  0  0  0  0  0  0
  128.2380  130.0440   62.5030 C   0  0  0  0  0  0  0  0  0  0  0  0
  129.5580  129.8400   62.0550 N   0  0  0  0  0  0  0  0  0  0  0  0
  130.1480  128.7120   61.6000 C   0  0  0  0  0  0  0  0  0  0  0  0
  129.6100  127.6080   61.5170 O   0  0  0  0  0  0  0  0  0  0  0  0
  131.6100  128.8590   61.1750 C   0  0  0  0  0  0  0  0  0  0  0  0
  132.1160  130.6030   61.0900 S   0  0  0  0  0  0  0  0  0  0  0  0
  131.0860  131.3870   59.8710 C   0  0  0  0  0  0  0  0  0  0  0  0
  129.9330  131.8880   60.3750 N   0  0  0  0  0  0  0  0  0  0  0  0
  129.0520  132.5120   59.5500 C   0  0  0  0  0  0  0  0  0  0  0  0
  127.8070  133.0520   60.1860 C   0  0  0  0  0  0  0  0  0  0  0  0
  127.8560  134.2020   60.9900 C   0  0  0  0  0  0  0  0  0  0  0  0
  126.7020  134.7100   61.5830 C   0  0  0  0  0  0  0  0  0  0  0  0
  125.4830  134.0730   61.3790 C   0  0  0  0  0  0  0  0  0  0  0  0
  125.4080  132.9340   60.5850 C   0  0  0  0  0  0  0  0  0  0  0  0
  126.5620  132.4290   59.9910 C   0  0  0  0  0  0  0  0  0  0  0  0
  129.3220  132.6520   58.1850 C   0  0  0  0  0  0  0  0  0  0  0  0
  130.5020  132.1250   57.6370 C   0  0  0  0  0  0  0  0  0  0  0  0
  130.7570  132.2900   56.1270 C   0  0  0  0  0  0  0  0  0  0  0  0
  130.8550  131.1220   55.4870 F   0  0  0  0  0  0  0  0  0  0  0  0
  129.7590  132.9700   55.5620 F   0  0  0  0  0  0  0  0  0  0  0  0
  131.8970  132.9540   55.9290 F   0  0  0  0  0  0  0  0  0  0  0  0
  131.4090  131.4620   58.4980 C   0  0  0  0  0  0  0  0  0  0  0  0
  132.6290  130.8420   57.9710 C   0  0  0  0  0  0  0  0  0  0  0  0
  133.5920  130.3520   57.5550 N   0  0  0  0  0  0  0  0  0  0  0  0
  127.8420  131.0540   63.3930 C   0  0  0  0  0  0  0  0  0  0  0  0
  126.5090  131.1670   63.7720 C   0  0  0  0  0  0  0  0  0  0  0  0
  1  2  1  0
  2  3  1  0
  3  4  1  0
  4  5  2  0
  4  6  1  0
  6  7  2  0
  7  8  1  0
  8  9  2  0
  9 10  1  0
 10 11  1  0
 11 12  2  0
 11 13  1  0
 13 14  1  0
 14 15  1  0
 15 16  2  0
 16 17  1  0
 17 18  1  0
 18 19  2  0
 19 20  1  0
 20 21  2  0
 21 22  1  0
 22 23  2  0
 17 24  2  0
 24 25  1  0
 25 26  1  0
 26 27  1  0
 26 28  1  0
 26 29  1  0
 25 30  2  0
 30 31  1  0
 31 32  3  0
  9 33  1  0
 33 34  2  0
 34  6  1  0
 30 15  1  0
 23 18  1  0
M  END
>  <Binding energies>  (27) 
[-8.26]

>  <Ligand effiencies>  (27) 
[-0.236]

>  <Interactions>  (27) 
["V-B:ARG:545:CZ:9898, H-B:GLY:454:N:9021, V-B:HIS:456:CE1:9040, H-B:ARG:545:NH2:9900, V-B:ARG:545:CG:9894, V-B:GLY:454:CA:9020, V-B:ARG:545:CD:9895, V-A:GLU:543:CD:4908, V-B:TYR:484:CZ:9318, V-A:ASP:366:CG:3213, H-B:TYR:484:OH:9319, H-A:GLU:543:OE1:4909, V-A:ILE:538:CG2:4863, V-A:ILE:538:C:4858, V-A:ILE:538:CA:4860, V-A:LEU:363:CD1:3189, V-A:PRO:540:CD:4887, V-A:TYR:539:C:4867, V-A:TYR:539:CG:4872, V-A:PRO:540:CB:4885, V-A:PRO:540:N:4884, V-A:TYR:539:CE1:4875, V-A:PRO:540:CA:4883, V-A:TYR:539:CD1:4873, V-A:TYR:539:CA:4869, H-B:ARG:545:NE:9896, V-B:LEU:475:CD1:9229, V-A:TYR:539:CE2:4876, H-A:ALA:541:N:4891, V-A:ALA:541:CB:4892, V-A:TYR:539:CD2:4874, H-A:ARG:545:NH2:4928, V-A:PRO:540:CG:4886, V-B:ILE:455:C:9023"]

$$$$
3ad_Grossjean_2025
     RDKit          3D

 29 31  0  0  0  0  0  0  0  0999 V2000
  124.1630  131.9530   59.6530 N   0  0  0  0  0  0  0  0  0  0  0  0
  125.3130  131.8760   59.7650 C   0  0  0  0  0  0  0  0  0  0  0  0
  126.7690  131.7810   59.9080 C   0  0  0  0  0  0  0  0  0  0  0  0
  127.5020  132.8140   60.5420 C   0  0  0  0  0  0  0  0  0  0  0  0
  126.8310  134.0590   61.1520 C   0  0  0  0  0  0  0  0  0  0  0  0
  126.1230  134.7550   60.2600 F   0  0  0  0  0  0  0  0  0  0  0  0
  125.9990  133.6940   62.1290 F   0  0  0  0  0  0  0  0  0  0  0  0
  127.7550  134.8780   61.6550 F   0  0  0  0  0  0  0  0  0  0  0  0
  128.8990  132.6960   60.6120 C   0  0  0  0  0  0  0  0  0  0  0  0
  129.5450  131.5840   60.0620 C   0  0  0  0  0  0  0  0  0  0  0  0
  131.0350  131.4160   60.0960 C   0  0  0  0  0  0  0  0  0  0  0  0
  131.7450  131.5520   61.2990 C   0  0  0  0  0  0  0  0  0  0  0  0
  133.1270  131.3960   61.3380 C   0  0  0  0  0  0  0  0  0  0  0  0
  133.8210  131.1010   60.1680 C   0  0  0  0  0  0  0  0  0  0  0  0
  133.1410  130.9580   58.9640 C   0  0  0  0  0  0  0  0  0  0  0  0
  131.7570  131.1130   58.9300 C   0  0  0  0  0  0  0  0  0  0  0  0
  128.8370  130.6000   59.4510 N   0  0  0  0  0  0  0  0  0  0  0  0
  127.4870  130.6810   59.3890 C   0  0  0  0  0  0  0  0  0  0  0  0
  126.7260  129.3000   58.5650 S   0  0  0  0  0  0  0  0  0  0  0  0
  125.8360  129.9570   57.1220 C   0  0  0  0  0  0  0  0  0  0  0  0
  126.7860  130.3810   56.0010 C   0  0  0  0  0  0  0  0  0  0  0  0
  126.3810  130.3730   54.8380 O   0  0  0  0  0  0  0  0  0  0  0  0
  128.0260  130.7400   56.3960 N   0  0  0  0  0  0  0  0  0  0  0  0
  129.1210  131.1870   55.6340 C   0  0  0  0  0  0  0  0  0  0  0  0
  129.9550  132.1190   56.2610 C   0  0  0  0  0  0  0  0  0  0  0  0
  131.0650  132.6300   55.5930 C   0  0  0  0  0  0  0  0  0  0  0  0
  131.3410  132.2130   54.2950 C   0  0  0  0  0  0  0  0  0  0  0  0
  130.5160  131.2910   53.6560 C   0  0  0  0  0  0  0  0  0  0  0  0
  129.4040  130.7780   54.3200 C   0  0  0  0  0  0  0  0  0  0  0  0
  1  2  3  0
  2  3  1  0
  3  4  2  0
  4  5  1  0
  5  6  1  0
  5  7  1  0
  5  8  1  0
  4  9  1  0
  9 10  2  0
 10 11  1  0
 11 12  2  0
 12 13  1  0
 13 14  2  0
 14 15  1  0
 15 16  2  0
 10 17  1  0
 17 18  2  0
 18 19  1  0
 19 20  1  0
 20 21  1  0
 21 22  2  0
 21 23  1  0
 23 24  1  0
 24 25  2  0
 25 26  1  0
 26 27  2  0
 27 28  1  0
 28 29  2  0
 18  3  1  0
 29 24  1  0
 16 11  1  0
M  END
>  <Binding energies>  (28) 
[-7.59]

>  <Ligand effiencies>  (28) 
[-0.253]

>  <Interactions>  (28) 
["V-A:ASP:366:CG:3213, V-A:ILE:538:CD1:4865, V-A:ILE:538:CA:4860, H-B:TYR:531:OH:9767, V-A:TYR:531:CE2:4793, V-A:MET:535:CG:4833, V-A:TYR:539:CZ:4877, V-A:PRO:540:CD:4887, V-A:LEU:363:CA:3185, V-A:MET:535:CB:4832, V-A:PRO:540:CB:4885, V-A:PRO:540:N:4884, V-A:TYR:539:CE1:4875, V-A:PRO:540:CA:4883, V-A:TYR:539:CD1:4873, V-B:LEU:475:CD1:9229, V-B:PRO:482:CG:9298, V-A:TYR:539:CE2:4876, V-A:ALA:541:CB:4892, V-A:TYR:539:CD2:4874, H-A:TYR:539:OH:4878, V-A:ASN:362:C:3172, V-A:ASN:362:CB:3176, V-A:ALA:541:CA:4890, V-A:PRO:540:C:4881, V-B:TRP:381:CH2:8343"]

$$$$
3ai_Grossjean_2025
     RDKit          3D

 28 30  0  0  0  0  0  0  0  0999 V2000
  124.1240  133.0240   60.2420 N   0  0  0  0  0  0  0  0  0  0  0  0
  125.2460  132.7760   60.1100 C   0  0  0  0  0  0  0  0  0  0  0  0
  126.6690  132.4620   59.9450 C   0  0  0  0  0  0  0  0  0  0  0  0
  127.6650  133.3100   60.4870 C   0  0  0  0  0  0  0  0  0  0  0  0
  127.3280  134.5680   61.3100 C   0  0  0  0  0  0  0  0  0  0  0  0
  128.4010  135.3180   61.5720 F   0  0  0  0  0  0  0  0  0  0  0  0
  126.4590  135.3290   60.6430 F   0  0  0  0  0  0  0  0  0  0  0  0
  126.7910  134.2210   62.4800 F   0  0  0  0  0  0  0  0  0  0  0  0
  129.0130  132.9910   60.2610 C   0  0  0  0  0  0  0  0  0  0  0  0
  129.3560  131.8610   59.5120 C   0  0  0  0  0  0  0  0  0  0  0  0
  130.7780  131.4800   59.2290 C   0  0  0  0  0  0  0  0  0  0  0  0
  131.6510  131.1410   60.2760 C   0  0  0  0  0  0  0  0  0  0  0  0
  132.9710  130.7810   60.0210 C   0  0  0  0  0  0  0  0  0  0  0  0
  133.4380  130.7540   58.7110 C   0  0  0  0  0  0  0  0  0  0  0  0
  132.5940  131.0830   57.6560 C   0  0  0  0  0  0  0  0  0  0  0  0
  131.2740  131.4420   57.9150 C   0  0  0  0  0  0  0  0  0  0  0  0
  128.3980  131.0560   58.9860 N   0  0  0  0  0  0  0  0  0  0  0  0
  127.0900  131.3290   59.2120 C   0  0  0  0  0  0  0  0  0  0  0  0
  125.9810  130.1530   58.4660 S   0  0  0  0  0  0  0  0  0  0  0  0
  126.8850  129.3040   57.1260 C   0  0  0  0  0  0  0  0  0  0  0  0
  127.4040  130.2220   56.0100 C   0  0  0  0  0  0  0  0  0  0  0  0
  126.7380  130.4140   54.9900 O   0  0  0  0  0  0  0  0  0  0  0  0
  128.6150  130.7730   56.2510 N   0  0  0  0  0  0  0  0  0  0  0  0
  129.3230  131.6400   55.4300 C   0  0  0  0  0  0  0  0  0  0  0  0
  129.7490  131.2990   54.1470 C   0  0  0  0  0  0  0  0  0  0  0  0
  130.4040  132.4140   53.6780 C   0  0  0  0  0  0  0  0  0  0  0  0
  130.3750  133.3780   54.6280 O   0  0  0  0  0  0  0  0  0  0  0  0
  129.6860  132.8760   55.7340 N   0  0  0  0  0  0  0  0  0  0  0  0
  1  2  3  0
  2  3  1  0
  3  4  2  0
  4  5  1  0
  5  6  1  0
  5  7  1  0
  5  8  1  0
  4  9  1  0
  9 10  2  0
 10 11  1  0
 11 12  2  0
 12 13  1  0
 13 14  2  0
 14 15  1  0
 15 16  2  0
 10 17  1  0
 17 18  2  0
 18 19  1  0
 19 20  1  0
 20 21  1  0
 21 22  2  0
 21 23  1  0
 23 24  1  0
 24 25  1  0
 25 26  2  0
 26 27  1  0
 27 28  1  0
 18  3  1  0
 28 24  2  0
 16 11  1  0
M  END
>  <Binding energies>  (29) 
[-7.63]

>  <Ligand effiencies>  (29) 
[-0.2631034482758621]

>  <Interactions>  (29) 
["V-A:ASP:366:CG:3213, V-A:ILE:538:CD1:4865, V-A:ILE:538:CA:4860, H-B:TYR:531:OH:9767, V-A:LEU:363:CD1:3189, H-A:TYR:539:N:4870, V-A:TYR:539:CZ:4877, V-A:TYR:539:C:4867, V-A:LEU:363:CA:3185, V-A:PRO:540:CB:4885, V-A:PRO:540:N:4884, V-A:TYR:539:CE1:4875, V-A:PRO:540:CA:4883, V-A:TYR:539:CD1:4873, V-B:LEU:475:CD1:9229, V-B:PRO:482:CG:9298, V-A:TYR:539:CE2:4876, V-A:ALA:541:CB:4892, V-A:TYR:539:CD2:4874, H-A:TYR:539:OH:4878, V-A:ALA:541:CA:4890, V-B:TRP:381:CZ2:8341, V-A:PRO:540:C:4881, V-B:TRP:381:CH2:8343, V-B:PRO:482:CB:9297, V-A:VAL:537:C:4850, V-B:TRP:381:CZ3:8342"]

$$$$
3aj_Grossjean_2025
     RDKit          3D

 28 30  0  0  0  0  0  0  0  0999 V2000
  123.7880  133.0050   61.7810 N   0  0  0  0  0  0  0  0  0  0  0  0
  124.7660  132.8660   61.1770 C   0  0  0  0  0  0  0  0  0  0  0  0
  126.0050  132.6920   60.4140 C   0  0  0  0  0  0  0  0  0  0  0  0
  127.1130  133.5470   60.6280 C   0  0  0  0  0  0  0  0  0  0  0  0
  127.1070  134.6690   61.6860 C   0  0  0  0  0  0  0  0  0  0  0  0
  126.0300  135.4540   61.6000 F   0  0  0  0  0  0  0  0  0  0  0  0
  127.1240  134.1410   62.9100 F   0  0  0  0  0  0  0  0  0  0  0  0
  128.1800  135.4450   61.5340 F   0  0  0  0  0  0  0  0  0  0  0  0
  128.2600  133.3690   59.8390 C   0  0  0  0  0  0  0  0  0  0  0  0
  128.2970  132.3680   58.8620 C   0  0  0  0  0  0  0  0  0  0  0  0
  129.4910  132.1410   57.9860 C   0  0  0  0  0  0  0  0  0  0  0  0
  129.5890  132.7650   56.7330 C   0  0  0  0  0  0  0  0  0  0  0  0
  130.6980  132.5610   55.9140 C   0  0  0  0  0  0  0  0  0  0  0  0
  131.7270  131.7270   56.3420 C   0  0  0  0  0  0  0  0  0  0  0  0
  131.6540  131.0990   57.5810 C   0  0  0  0  0  0  0  0  0  0  0  0
  130.5450  131.3070   58.3950 C   0  0  0  0  0  0  0  0  0  0  0  0
  127.2300  131.5550   58.6560 N   0  0  0  0  0  0  0  0  0  0  0  0
  126.1210  131.6920   59.4210 C   0  0  0  0  0  0  0  0  0  0  0  0
  124.8360  130.5270   59.0240 S   0  0  0  0  0  0  0  0  0  0  0  0
  125.6330  128.9510   58.5620 C   0  0  0  0  0  0  0  0  0  0  0  0
  126.2230  128.9130   57.1440 C   0  0  0  0  0  0  0  0  0  0  0  0
  126.6070  127.8510   56.6490 O   0  0  0  0  0  0  0  0  0  0  0  0
  126.2740  130.1120   56.5220 N   0  0  0  0  0  0  0  0  0  0  0  0
  126.7510  130.3620   55.2420 C   0  0  0  0  0  0  0  0  0  0  0  0
  126.0650  130.7330   54.1830 N   0  0  0  0  0  0  0  0  0  0  0  0
  126.8430  130.8850   53.1290 C   0  0  0  0  0  0  0  0  0  0  0  0
  128.1980  130.6320   53.3230 C   0  0  0  0  0  0  0  0  0  0  0  0
  128.4550  130.1710   54.9790 S   0  0  0  0  0  0  0  0  0  0  0  0
  1  2  3  0
  2  3  1  0
  3  4  2  0
  4  5  1  0
  5  6  1  0
  5  7  1  0
  5  8  1  0
  4  9  1  0
  9 10  2  0
 10 11  1  0
 11 12  2  0
 12 13  1  0
 13 14  2  0
 14 15  1  0
 15 16  2  0
 10 17  1  0
 17 18  2  0
 18 19  1  0
 19 20  1  0
 20 21  1  0
 21 22  2  0
 21 23  1  0
 23 24  1  0
 24 25  2  0
 25 26  1  0
 26 27  2  0
 27 28  1  0
 18  3  1  0
 28 24  1  0
 16 11  1  0
M  END
>  <Binding energies>  (30) 
[-7.28]

>  <Ligand effiencies>  (30) 
[-0.2510344827586207]

>  <Interactions>  (30) 
["H-B:TYR:531:OH:9767, V-A:TYR:539:CZ:4877, V-A:PRO:540:CD:4887, V-A:TYR:539:C:4867, V-A:TYR:539:CG:4872, V-A:PRO:540:CB:4885, V-A:PRO:540:N:4884, V-A:TYR:539:CE1:4875, V-A:PRO:540:CA:4883, V-A:TYR:539:CD1:4873, V-A:TYR:539:CA:4869, V-B:LEU:475:CD1:9229, V-B:PRO:482:CG:9298, V-A:TYR:539:CE2:4876, V-A:ALA:541:CB:4892, V-A:TYR:539:CD2:4874, V-B:ASP:366:CG:8184, H-A:TYR:539:OH:4878, V-B:ASP:366:CB:8183, V-A:ALA:541:CA:4890, V-B:TRP:381:CZ2:8341, V-A:PRO:540:C:4881, V-B:TRP:381:CH2:8343, V-B:PRO:482:CB:9297, V-B:TYR:531:CE1:9764, V-B:MET:535:CE:9807, V-B:LEU:475:CG:9228, V-B:LEU:475:CD2:9230"]

$$$$
3ak_Grossjean_2025
     RDKit          3D

 33 34  0  0  0  0  0  0  0  0999 V2000
  130.0770  132.5340   56.5310 C   0  0  0  0  0  0  0  0  0  0  0  0
  130.2250  133.0030   55.2000 O   0  0  0  0  0  0  0  0  0  0  0  0
  130.7270  132.0200   54.3060 C   0  0  0  0  0  0  0  0  0  0  0  0
  129.7510  131.8640   53.1340 C   0  0  0  0  0  0  0  0  0  0  0  0
  129.0540  130.6300   53.2730 O   0  0  0  0  0  0  0  0  0  0  0  0
  127.6610  130.6730   52.9750 C   0  0  0  0  0  0  0  0  0  0  0  0
  126.7610  130.6880   54.2240 C   0  0  0  0  0  0  0  0  0  0  0  0
  126.9990  129.5120   54.9860 O   0  0  0  0  0  0  0  0  0  0  0  0
  128.1330  129.5980   55.8390 C   0  0  0  0  0  0  0  0  0  0  0  0
  129.0360  128.3660   55.6470 C   0  0  0  0  0  0  0  0  0  0  0  0
  128.3540  127.2310   55.0210 N   0  0  0  0  0  0  0  0  0  0  0  0
  128.9480  126.1300   54.5220 C   0  0  0  0  0  0  0  0  0  0  0  0
  130.1660  125.9550   54.5600 O   0  0  0  0  0  0  0  0  0  0  0  0
  128.0710  125.0440   53.8760 C   0  0  0  0  0  0  0  0  0  0  0  0
  126.3360  124.9440   54.4530 S   0  0  0  0  0  0  0  0  0  0  0  0
  126.2940  125.2910   56.2050 C   0  0  0  0  0  0  0  0  0  0  0  0
  125.9980  126.5710   56.5420 N   0  0  0  0  0  0  0  0  0  0  0  0
  125.9480  126.9340   57.8480 C   0  0  0  0  0  0  0  0  0  0  0  0
  125.6130  128.3680   58.1300 C   0  0  0  0  0  0  0  0  0  0  0  0
  126.3110  129.0890   59.1110 C   0  0  0  0  0  0  0  0  0  0  0  0
  126.0060  130.4220   59.3740 C   0  0  0  0  0  0  0  0  0  0  0  0
  124.9970  131.0550   58.6560 C   0  0  0  0  0  0  0  0  0  0  0  0
  124.2930  130.3650   57.6760 C   0  0  0  0  0  0  0  0  0  0  0  0
  124.6000  129.0320   57.4150 C   0  0  0  0  0  0  0  0  0  0  0  0
  126.1830  125.9990   58.8620 C   0  0  0  0  0  0  0  0  0  0  0  0
  126.4890  124.6690   58.5410 C   0  0  0  0  0  0  0  0  0  0  0  0
  126.7440  123.6680   59.6850 C   0  0  0  0  0  0  0  0  0  0  0  0
  127.6800  122.7900   59.3240 F   0  0  0  0  0  0  0  0  0  0  0  0
  127.1570  124.3160   60.7760 F   0  0  0  0  0  0  0  0  0  0  0  0
  125.6530  122.9760   60.0210 F   0  0  0  0  0  0  0  0  0  0  0  0
  126.5490  124.2990   57.1760 C   0  0  0  0  0  0  0  0  0  0  0  0
  126.8660  122.9220   56.7810 C   0  0  0  0  0  0  0  0  0  0  0  0
  127.1160  121.8360   56.4690 N   0  0  0  0  0  0  0  0  0  0  0  0
  1  2  1  0
  2  3  1  0
  3  4  1  0
  4  5  1  0
  5  6  1  0
  6  7  1  0
  7  8  1  0
  8  9  1  0
  9 10  1  0
 10 11  1  0
 11 12  1  0
 12 13  2  0
 12 14  1  0
 14 15  1  0
 15 16  1  0
 16 17  2  0
 17 18  1  0
 18 19  1  0
 19 20  2  0
 20 21  1  0
 21 22  2  0
 22 23  1  0
 23 24  2  0
 18 25  2  0
 25 26  1  0
 26 27  1  0
 27 28  1  0
 27 29  1  0
 27 30  1  0
 26 31  2  0
 31 32  1  0
 32 33  3  0
 31 16  1  0
 24 19  1  0
M  END
>  <Binding energies>  (31) 
[-6.24]

>  <Ligand effiencies>  (31) 
[-0.18352941176470589]

>  <Interactions>  (31) 
["V-B:GLU:543:CD:9880, H-B:TYR:539:OH:9850, V-B:PRO:540:N:9856, V-B:PRO:540:C:9853, V-B:PRO:540:CA:9855, H-B:TYR:539:N:9842, V-B:PRO:540:CB:9857, V-A:ILE:538:CD1:4865, H-A:TYR:531:OH:4795, V-A:ILE:538:CA:4860, H-B:TYR:531:OH:9767, V-A:MET:535:CE:4835, H-A:TYR:539:N:4870, V-A:TYR:539:CZ:4877, V-A:TYR:539:C:4867, V-A:MET:535:CB:4832, V-A:PRO:540:N:4884, V-A:TYR:539:CE1:4875, V-A:TYR:539:CD1:4873, V-A:TYR:539:CE2:4876, V-B:ASP:366:CG:8184, V-B:ASP:366:CB:8183, V-B:ASP:366:CA:8181, H-B:MET:535:SD:9806, V-B:TYR:531:CE1:9764, V-B:TYR:531:CZ:9766, V-B:MET:535:CE:9807"]

$$$$
3bk_Grossjean_2025
     RDKit          3D

 30 31  0  0  0  0  0  0  0  0999 V2000
  129.6270  132.6230   56.9780 C   0  0  0  0  0  0  0  0  0  0  0  0
  130.4380  133.0130   55.8800 O   0  0  0  0  0  0  0  0  0  0  0  0
  130.7770  131.9360   55.0160 C   0  0  0  0  0  0  0  0  0  0  0  0
  130.2750  132.2360   53.5970 C   0  0  0  0  0  0  0  0  0  0  0  0
  128.8800  131.9790   53.5270 O   0  0  0  0  0  0  0  0  0  0  0  0
  128.5570  130.6090   53.3240 C   0  0  0  0  0  0  0  0  0  0  0  0
  127.0390  130.4230   53.4450 C   0  0  0  0  0  0  0  0  0  0  0  0
  126.7500  129.6380   54.5940 O   0  0  0  0  0  0  0  0  0  0  0  0
  127.6840  129.8030   55.6530 C   0  0  0  0  0  0  0  0  0  0  0  0
  128.6600  128.6170   55.6640 C   0  0  0  0  0  0  0  0  0  0  0  0
  128.1050  127.4340   55.0040 N   0  0  0  0  0  0  0  0  0  0  0  0
  128.7930  126.3260   54.6820 C   0  0  0  0  0  0  0  0  0  0  0  0
  129.9910  126.1690   54.9260 O   0  0  0  0  0  0  0  0  0  0  0  0
  128.0040  125.2070   53.9980 C   0  0  0  0  0  0  0  0  0  0  0  0
  126.2800  125.1360   54.5800 S   0  0  0  0  0  0  0  0  0  0  0  0
  126.2470  125.4450   56.3380 C   0  0  0  0  0  0  0  0  0  0  0  0
  126.1660  126.7470   56.7100 N   0  0  0  0  0  0  0  0  0  0  0  0
  126.1390  127.0780   58.0280 C   0  0  0  0  0  0  0  0  0  0  0  0
  126.0270  128.5370   58.3510 C   0  0  0  0  0  0  0  0  0  0  0  0
  127.0820  129.2170   58.9810 C   0  0  0  0  0  0  0  0  0  0  0  0
  126.9810  130.5710   59.2880 C   0  0  0  0  0  0  0  0  0  0  0  0
  125.8200  131.2670   58.9680 C   0  0  0  0  0  0  0  0  0  0  0  0
  124.7610  130.6190   58.3400 C   0  0  0  0  0  0  0  0  0  0  0  0
  124.8670  129.2650   58.0330 C   0  0  0  0  0  0  0  0  0  0  0  0
  126.1880  126.0890   59.0170 C   0  0  0  0  0  0  0  0  0  0  0  0
  126.2730  124.7410   58.6520 C   0  0  0  0  0  0  0  0  0  0  0  0
  126.3240  123.6930   59.7630 C   0  0  0  0  0  0  0  0  0  0  0  0
  126.3040  124.3980   57.2840 C   0  0  0  0  0  0  0  0  0  0  0  0
  126.3910  122.9940   56.8710 C   0  0  0  0  0  0  0  0  0  0  0  0
  126.4600  121.8850   56.5460 N   0  0  0  0  0  0  0  0  0  0  0  0
  1  2  1  0
  2  3  1  0
  3  4  1  0
  4  5  1  0
  5  6  1  0
  6  7  1  0
  7  8  1  0
  8  9  1  0
  9 10  1  0
 10 11  1  0
 11 12  1  0
 12 13  2  0
 12 14  1  0
 14 15  1  0
 15 16  1  0
 16 17  2  0
 17 18  1  0
 18 19  1  0
 19 20  2  0
 20 21  1  0
 21 22  2  0
 22 23  1  0
 23 24  2  0
 18 25  2  0
 25 26  1  0
 26 27  1  0
 26 28  2  0
 28 29  1  0
 29 30  3  0
 28 16  1  0
 24 19  1  0
M  END
>  <Binding energies>  (32) 
[-6.66]

>  <Ligand effiencies>  (32) 
[-0.21483870967741936]

>  <Interactions>  (32) 
["H-B:TYR:539:OH:9850, V-B:PRO:540:N:9856, V-B:PRO:540:CA:9855, H-B:TYR:539:N:9842, V-B:PRO:540:CB:9857, V-A:ILE:538:CD1:4865, H-A:TYR:531:OH:4795, V-A:ILE:538:CA:4860, H-B:TYR:531:OH:9767, V-A:MET:535:CE:4835, H-A:TYR:539:N:4870, V-A:TYR:539:CZ:4877, V-A:TYR:539:C:4867, V-A:TYR:539:CG:4872, V-A:PRO:540:N:4884, V-A:TYR:539:CE1:4875, V-A:PRO:540:CA:4883, V-A:TYR:539:CD1:4873, V-A:TYR:539:CA:4869, V-A:TYR:539:CE2:4876, V-B:ASP:366:CG:8184, V-B:ASP:366:CB:8183, H-B:MET:535:SD:9806, V-B:TYR:531:CE1:9764, V-B:MET:535:CE:9807"]

$$$$
3cb_Grossjean_2025
     RDKit          3D

 30 32  0  0  0  0  0  0  0  0999 V2000
  129.4250  132.6020   57.7120 C   0  0  0  0  0  0  0  0  0  0  0  0
  129.5740  133.0520   56.3740 O   0  0  0  0  0  0  0  0  0  0  0  0
  130.4390  132.4430   55.5230 C   0  0  0  0  0  0  0  0  0  0  0  0
  131.4370  132.9990   55.0540 O   0  0  0  0  0  0  0  0  0  0  0  0
  130.0600  131.0240   55.2060 C   0  0  0  0  0  0  0  0  0  0  0  0
  130.1070  130.0090   56.1730 C   0  0  0  0  0  0  0  0  0  0  0  0
  129.7460  128.7050   55.8460 C   0  0  0  0  0  0  0  0  0  0  0  0
  129.3380  128.3850   54.5510 C   0  0  0  0  0  0  0  0  0  0  0  0
  128.9930  127.0360   54.3330 N   0  0  0  0  0  0  0  0  0  0  0  0
  129.7170  125.9130   54.5270 C   0  0  0  0  0  0  0  0  0  0  0  0
  130.8660  125.8820   54.9730 O   0  0  0  0  0  0  0  0  0  0  0  0
  128.9860  124.6120   54.1600 C   0  0  0  0  0  0  0  0  0  0  0  0
  127.1650  124.7310   54.1480 S   0  0  0  0  0  0  0  0  0  0  0  0
  126.6460  125.3170   55.7470 C   0  0  0  0  0  0  0  0  0  0  0  0
  126.8220  126.6510   55.9160 N   0  0  0  0  0  0  0  0  0  0  0  0
  126.4630  127.2080   57.0930 C   0  0  0  0  0  0  0  0  0  0  0  0
  126.6760  128.7060   57.2070 C   0  0  0  0  0  0  0  0  0  0  0  0
  125.9240  126.4660   58.1410 C   0  0  0  0  0  0  0  0  0  0  0  0
  125.7490  125.0840   57.9950 C   0  0  0  0  0  0  0  0  0  0  0  0
  125.1730  124.3310   59.1510 C   0  0  0  0  0  0  0  0  0  0  0  0
  123.7900  124.3280   59.3710 C   0  0  0  0  0  0  0  0  0  0  0  0
  123.2420  123.6210   60.4380 C   0  0  0  0  0  0  0  0  0  0  0  0
  124.0800  122.9070   61.2920 C   0  0  0  0  0  0  0  0  0  0  0  0
  125.4560  122.8920   61.0840 C   0  0  0  0  0  0  0  0  0  0  0  0
  125.9990  123.5990   60.0150 C   0  0  0  0  0  0  0  0  0  0  0  0
  126.1330  124.4810   56.7700 C   0  0  0  0  0  0  0  0  0  0  0  0
  126.0590  123.0270   56.5960 C   0  0  0  0  0  0  0  0  0  0  0  0
  126.0000  121.8800   56.4590 N   0  0  0  0  0  0  0  0  0  0  0  0
  129.2840  129.3960   53.5790 C   0  0  0  0  0  0  0  0  0  0  0  0
  129.6440  130.7010   53.9070 C   0  0  0  0  0  0  0  0  0  0  0  0
  1  2  1  0
  2  3  1  0
  3  4  2  0
  3  5  1  0
  5  6  2  0
  6  7  1  0
  7  8  2  0
  8  9  1  0
  9 10  1  0
 10 11  2  0
 10 12  1  0
 12 13  1  0
 13 14  1  0
 14 15  2  0
 15 16  1  0
 16 17  1  0
 16 18  2  0
 18 19  1  0
 19 20  1  0
 20 21  2  0
 21 22  1  0
 22 23  2  0
 23 24  1  0
 24 25  2  0
 19 26  2  0
 26 27  1  0
 27 28  3  0
  8 29  1  0
 29 30  2  0
 30  5  1  0
 26 14  1  0
 25 20  1  0
M  END
>  <Binding energies>  (33) 
[-9.26]

>  <Ligand effiencies>  (33) 
[-0.29870967741935484]

>  <Interactions>  (33) 
["V-B:GLU:543:CD:9880, H-B:TYR:539:OH:9850, V-B:PRO:540:N:9856, V-B:PRO:540:C:9853, V-B:PRO:540:CA:9855, V-B:LEU:363:CD1:8160, V-B:TYR:539:CZ:9849, H-B:TYR:539:N:9842, V-B:PRO:540:CB:9857, V-B:TYR:539:CE1:9847, H-A:TYR:531:OH:4795, V-B:ASN:362:CB:8147, V-B:ASN:362:C:8143, V-B:LEU:363:CA:8156, H-B:TYR:531:OH:9767, V-A:MET:535:CE:4835, V-A:MET:535:CG:4833, H-A:TYR:539:N:4870, V-A:TYR:539:C:4867, V-A:TYR:539:CG:4872, V-A:PRO:540:N:4884, V-A:PRO:540:CA:4883, V-A:TYR:539:CD1:4873, V-B:GLU:543:CG:9879, V-A:TYR:539:CD2:4874, V-B:ASP:366:CG:8184, H-B:MET:535:SD:9806, H-A:ASN:370:ND2:3248"]

$$$$
3ch_Grossjean_2025
     RDKit          3D

 32 34  0  0  0  0  0  0  0  0999 V2000
  131.6940  130.7490   57.9010 C   0  0  0  0  0  0  0  0  0  0  0  0
  130.3520  130.8790   57.4430 O   0  0  0  0  0  0  0  0  0  0  0  0
  129.9970  130.3490   56.2150 C   0  0  0  0  0  0  0  0  0  0  0  0
  129.7400  128.9870   55.9920 C   0  0  0  0  0  0  0  0  0  0  0  0
  129.3740  128.5230   54.7200 C   0  0  0  0  0  0  0  0  0  0  0  0
  129.0930  127.1810   54.4010 N   0  0  0  0  0  0  0  0  0  0  0  0
  129.6610  126.0470   54.8670 C   0  0  0  0  0  0  0  0  0  0  0  0
  130.5620  125.9900   55.7040 O   0  0  0  0  0  0  0  0  0  0  0  0
  129.0820  124.7450   54.3140 C   0  0  0  0  0  0  0  0  0  0  0  0
  127.2700  124.7990   54.1880 S   0  0  0  0  0  0  0  0  0  0  0  0
  126.6830  125.3940   55.7590 C   0  0  0  0  0  0  0  0  0  0  0  0
  126.7790  126.7390   55.9080 N   0  0  0  0  0  0  0  0  0  0  0  0
  126.3660  127.2910   57.0710 C   0  0  0  0  0  0  0  0  0  0  0  0
  126.5070  128.7970   57.1730 C   0  0  0  0  0  0  0  0  0  0  0  0
  125.8480  126.5340   58.1200 C   0  0  0  0  0  0  0  0  0  0  0  0
  125.7340  125.1430   57.9820 C   0  0  0  0  0  0  0  0  0  0  0  0
  125.1820  124.3710   59.1370 C   0  0  0  0  0  0  0  0  0  0  0  0
  126.0380  123.6280   59.9590 C   0  0  0  0  0  0  0  0  0  0  0  0
  125.5300  122.8990   61.0310 C   0  0  0  0  0  0  0  0  0  0  0  0
  124.1600  122.9080   61.2840 C   0  0  0  0  0  0  0  0  0  0  0  0
  123.2960  123.6360   60.4720 C   0  0  0  0  0  0  0  0  0  0  0  0
  123.8070  124.3630   59.3990 C   0  0  0  0  0  0  0  0  0  0  0  0
  126.1450  124.5520   56.7600 C   0  0  0  0  0  0  0  0  0  0  0  0
  125.9600  123.1160   56.5250 C   0  0  0  0  0  0  0  0  0  0  0  0
  125.8160  121.9830   56.3400 N   0  0  0  0  0  0  0  0  0  0  0  0
  129.2860  129.4320   53.6640 C   0  0  0  0  0  0  0  0  0  0  0  0
  129.5400  130.7980   53.8620 C   0  0  0  0  0  0  0  0  0  0  0  0
  129.4620  131.7520   52.8610 O   0  0  0  0  0  0  0  0  0  0  0  0
  128.2770  131.8500   52.0780 C   0  0  0  0  0  0  0  0  0  0  0  0
  129.8960  131.2440   55.1410 C   0  0  0  0  0  0  0  0  0  0  0  0
  130.1300  132.5820   55.3520 O   0  0  0  0  0  0  0  0  0  0  0  0
  131.4850  132.9690   55.1700 C   0  0  0  0  0  0  0  0  0  0  0  0
  1  2  1  0
  2  3  1  0
  3  4  2  0
  4  5  1  0
  5  6  1  0
  6  7  1  0
  7  8  2  0
  7  9  1  0
  9 10  1  0
 10 11  1  0
 11 12  2  0
 12 13  1  0
 13 14  1  0
 13 15  2  0
 15 16  1  0
 16 17  1  0
 17 18  2  0
 18 19  1  0
 19 20  2  0
 20 21  1  0
 21 22  2  0
 16 23  2  0
 23 24  1  0
 24 25  3  0
  5 26  2  0
 26 27  1  0
 27 28  1  0
 28 29  1  0
 27 30  2  0
 30 31  1  0
 31 32  1  0
 30  3  1  0
 23 11  1  0
 22 17  1  0
M  END
>  <Binding energies>  (34) 
[-7.65]

>  <Ligand effiencies>  (34) 
[-0.23181818181818184]

>  <Interactions>  (34) 
["V-B:GLU:543:CD:9880, H-B:TYR:539:OH:9850, V-B:PRO:540:N:9856, V-B:PRO:540:C:9853, V-B:PRO:540:CA:9855, V-B:LEU:363:CD1:8160, V-B:TYR:539:CZ:9849, H-B:TYR:539:N:9842, V-B:PRO:540:CB:9857, V-B:TYR:539:CE1:9847, V-A:ILE:538:CG2:4863, V-A:ILE:538:CD1:4865, V-A:ILE:538:C:4858, H-A:TYR:531:OH:4795, V-A:ILE:538:CA:4860, V-B:ASN:362:CB:8147, V-B:ASN:362:C:8143, V-B:LEU:363:CA:8156, V-A:ILE:538:CB:4862, H-B:TYR:531:OH:9767, V-A:MET:535:CE:4835, V-A:MET:535:CG:4833, H-A:TYR:539:N:4870, V-A:PRO:540:CD:4887, V-A:MET:535:CB:4832, V-A:PRO:540:CB:4885, V-A:PRO:540:N:4884, V-B:GLU:543:CG:9879, V-B:ASP:366:CG:8184, H-B:MET:535:SD:9806"]

$$$$
3ci_Grossjean_2025
     RDKit          3D

 25 27  0  0  0  0  0  0  0  0999 V2000
  128.0320  133.1000   61.0800 C   0  0  0  0  0  0  0  0  0  0  0  0
  127.9160  132.4400   59.7190 C   0  0  0  0  0  0  0  0  0  0  0  0
  128.9230  132.5490   58.7650 C   0  0  0  0  0  0  0  0  0  0  0  0
  128.7770  131.9070   57.5270 C   0  0  0  0  0  0  0  0  0  0  0  0
  129.8900  132.0390   56.5400 C   0  0  0  0  0  0  0  0  0  0  0  0
  129.6470  132.5140   55.2450 C   0  0  0  0  0  0  0  0  0  0  0  0
  130.6870  132.6260   54.3260 C   0  0  0  0  0  0  0  0  0  0  0  0
  131.9760  132.2580   54.6970 C   0  0  0  0  0  0  0  0  0  0  0  0
  132.2340  131.7750   55.9780 C   0  0  0  0  0  0  0  0  0  0  0  0
  131.1920  131.6640   56.8940 C   0  0  0  0  0  0  0  0  0  0  0  0
  127.5890  131.1720   57.2860 C   0  0  0  0  0  0  0  0  0  0  0  0
  127.3610  130.5150   55.9940 C   0  0  0  0  0  0  0  0  0  0  0  0
  127.1830  129.9970   54.9740 N   0  0  0  0  0  0  0  0  0  0  0  0
  126.6170  131.1080   58.3130 C   0  0  0  0  0  0  0  0  0  0  0  0
  125.0920  130.1920   58.1250 S   0  0  0  0  0  0  0  0  0  0  0  0
  123.7030  131.1830   58.7640 C   0  0  0  0  0  0  0  0  0  0  0  0
  123.7990  131.4660   60.2680 C   0  0  0  0  0  0  0  0  0  0  0  0
  123.6380  132.6180   60.6750 O   0  0  0  0  0  0  0  0  0  0  0  0
  124.0760  130.3980   61.0490 N   0  0  0  0  0  0  0  0  0  0  0  0
  124.1880  130.3750   62.4320 C   0  0  0  0  0  0  0  0  0  0  0  0
  125.4140  130.3730   63.0960 C   0  0  0  0  0  0  0  0  0  0  0  0
  125.0960  130.3430   64.4350 C   0  0  0  0  0  0  0  0  0  0  0  0
  123.7480  130.3300   64.5690 O   0  0  0  0  0  0  0  0  0  0  0  0
  123.1840  130.3490   63.2930 N   0  0  0  0  0  0  0  0  0  0  0  0
  126.7810  131.7390   59.5040 N   0  0  0  0  0  0  0  0  0  0  0  0
  1  2  1  0
  2  3  2  0
  3  4  1  0
  4  5  1  0
  5  6  2  0
  6  7  1  0
  7  8  2  0
  8  9  1  0
  9 10  2  0
  4 11  2  0
 11 12  1  0
 12 13  3  0
 11 14  1  0
 14 15  1  0
 15 16  1  0
 16 17  1  0
 17 18  2  0
 17 19  1  0
 19 20  1  0
 20 21  1  0
 21 22  2  0
 22 23  1  0
 23 24  1  0
 14 25  2  0
 25  2  1  0
 10  5  1  0
 24 20  2  0
M  END
>  <Binding energies>  (35) 
[-8.54]

>  <Ligand effiencies>  (35) 
[-0.3284615384615384]

>  <Interactions>  (35) 
["V-B:ARG:545:CZ:9898, H-B:GLY:454:N:9021, H-B:ARG:545:NH2:9900, H-B:ARG:545:NH1:9899, H-B:TYR:484:OH:9319, V-A:ILE:538:CG2:4863, V-A:ILE:538:CD1:4865, V-A:ILE:538:CA:4860, H-B:TYR:531:OH:9767, V-A:LEU:363:CD1:3189, V-A:TYR:531:CE2:4793, V-A:TYR:539:CZ:4877, V-A:TYR:539:C:4867, V-A:PRO:540:N:4884, V-A:TYR:539:CE1:4875, V-A:PRO:540:CA:4883, V-A:TYR:539:CD1:4873, V-A:TYR:539:CE2:4876, V-A:ALA:541:CB:4892, V-A:TYR:539:CD2:4874, V-B:ASP:366:CG:8184, H-A:TYR:539:OH:4878, V-B:ASP:366:CB:8183, V-B:ILE:369:CG2:8208, V-B:ASP:366:CA:8181, V-B:ILE:369:CD1:8210, H-B:ASP:366:OD1:8185, H-B:ASP:366:OD2:8186"]

$$$$
3ck_Grossjean_2025
     RDKit          3D

 30 31  0  0  0  0  0  0  0  0999 V2000
  127.0780  122.6190   57.0290 C   0  0  0  0  0  0  0  0  0  0  0  0
  126.8530  122.5080   55.6320 O   0  0  0  0  0  0  0  0  0  0  0  0
  126.5640  123.7500   55.0050 C   0  0  0  0  0  0  0  0  0  0  0  0
  127.8250  124.6230   54.9900 C   0  0  0  0  0  0  0  0  0  0  0  0
  127.6900  125.6610   55.9520 O   0  0  0  0  0  0  0  0  0  0  0  0
  127.8220  126.9700   55.4120 C   0  0  0  0  0  0  0  0  0  0  0  0
  129.0150  126.9960   54.4480 C   0  0  0  0  0  0  0  0  0  0  0  0
  129.4970  128.3290   54.3700 O   0  0  0  0  0  0  0  0  0  0  0  0
  128.7830  129.1700   53.4780 C   0  0  0  0  0  0  0  0  0  0  0  0
  129.3350  130.6050   53.5680 C   0  0  0  0  0  0  0  0  0  0  0  0
  130.4810  130.7400   54.4720 N   0  0  0  0  0  0  0  0  0  0  0  0
  130.9850  131.9000   54.9320 C   0  0  0  0  0  0  0  0  0  0  0  0
  130.5060  133.0010   54.6560 O   0  0  0  0  0  0  0  0  0  0  0  0
  132.2140  131.7710   55.8470 C   0  0  0  0  0  0  0  0  0  0  0  0
  132.1770  130.3670   57.0140 S   0  0  0  0  0  0  0  0  0  0  0  0
  131.5940  130.9410   58.6020 C   0  0  0  0  0  0  0  0  0  0  0  0
  132.4710  130.8130   59.6300 N   0  0  0  0  0  0  0  0  0  0  0  0
  132.0950  131.2240   60.8610 C   0  0  0  0  0  0  0  0  0  0  0  0
  133.1260  131.0470   61.9590 C   0  0  0  0  0  0  0  0  0  0  0  0
  130.8410  131.7730   61.1190 C   0  0  0  0  0  0  0  0  0  0  0  0
  129.9170  131.9090   60.0740 C   0  0  0  0  0  0  0  0  0  0  0  0
  128.5760  132.4810   60.4020 C   0  0  0  0  0  0  0  0  0  0  0  0
  128.4770  133.7450   60.9960 C   0  0  0  0  0  0  0  0  0  0  0  0
  127.2310  134.2810   61.3130 C   0  0  0  0  0  0  0  0  0  0  0  0
  126.0780  133.5500   61.0420 C   0  0  0  0  0  0  0  0  0  0  0  0
  126.1600  132.2870   60.4590 C   0  0  0  0  0  0  0  0  0  0  0  0
  127.4070  131.7550   60.1430 C   0  0  0  0  0  0  0  0  0  0  0  0
  130.3030  131.4940   58.7740 C   0  0  0  0  0  0  0  0  0  0  0  0
  129.3920  131.6510   57.6350 C   0  0  0  0  0  0  0  0  0  0  0  0
  128.6730  131.7750   56.7360 N   0  0  0  0  0  0  0  0  0  0  0  0
  1  2  1  0
  2  3  1  0
  3  4  1  0
  4  5  1  0
  5  6  1  0
  6  7  1  0
  7  8  1  0
  8  9  1  0
  9 10  1  0
 10 11  1  0
 11 12  1  0
 12 13  2  0
 12 14  1  0
 14 15  1  0
 15 16  1  0
 16 17  2  0
 17 18  1  0
 18 19  1  0
 18 20  2  0
 20 21  1  0
 21 22  1  0
 22 23  2  0
 23 24  1  0
 24 25  2  0
 25 26  1  0
 26 27  2  0
 21 28  2  0
 28 29  1  0
 29 30  3  0
 28 16  1  0
 27 22  1  0
M  END
>  <Binding energies>  (36) 
[-7.5]

>  <Ligand effiencies>  (36) 
[-0.24193548387096775]

>  <Interactions>  (36) 
["V-A:GLU:543:CD:4908, V-A:ARG:545:CZ:4926, V-B:TYR:539:CE2:9848, V-B:TYR:539:C:9839, V-B:PRO:540:N:9856, V-B:PRO:540:CA:9855, V-B:ILE:538:CB:9834, H-B:TYR:539:N:9842, V-B:ILE:538:CG2:9835, V-B:TYR:539:CD2:9846, H-A:TYR:531:OH:4795, V-A:LEU:363:CD1:3189, V-A:TYR:531:CE2:4793, V-A:MET:535:CE:4835, V-A:MET:535:CG:4833, H-A:TYR:539:N:4870, V-A:TYR:539:C:4867, V-A:PRO:540:CB:4885, V-A:PRO:540:CA:4883, V-B:LEU:475:CD1:9229, V-A:TYR:539:CE2:4876, V-A:ALA:541:CB:4892, V-A:TYR:539:CD2:4874, V-A:ASN:362:CB:3176, V-A:ALA:541:CA:4890, V-A:ASN:362:CG:3177, V-A:PRO:540:C:4881, V-A:TYR:531:CZ:4794"]

$$$$
4aa_Grossjean_2025
     RDKit          3D

 26 28  0  0  0  0  0  0  0  0999 V2000
  126.0760  126.9680   67.7060 C   0  0  0  0  0  0  0  0  0  0  0  0
  126.1400  128.2830   66.9220 C   0  0  0  0  0  0  0  0  0  0  0  0
  124.9130  128.4810   66.2320 O   0  0  0  0  0  0  0  0  0  0  0  0
  124.6420  129.6560   65.6060 C   0  0  0  0  0  0  0  0  0  0  0  0
  123.6890  130.3820   65.9060 O   0  0  0  0  0  0  0  0  0  0  0  0
  125.6140  129.9820   64.5100 C   0  0  0  0  0  0  0  0  0  0  0  0
  125.1270  130.2920   63.2330 C   0  0  0  0  0  0  0  0  0  0  0  0
  126.0030  130.5930   62.1940 C   0  0  0  0  0  0  0  0  0  0  0  0
  127.3820  130.6010   62.4120 C   0  0  0  0  0  0  0  0  0  0  0  0
  128.1760  130.9120   61.2910 N   0  0  0  0  0  0  0  0  0  0  0  0
  129.3880  131.5120   61.2180 C   0  0  0  0  0  0  0  0  0  0  0  0
  130.0040  131.9470   62.1920 O   0  0  0  0  0  0  0  0  0  0  0  0
  129.9390  131.6460   59.8680 C   0  0  0  0  0  0  0  0  0  0  0  0
  129.0150  132.4650   58.6060 S   0  0  0  0  0  0  0  0  0  0  0  0
  130.2680  132.1590   57.4250 C   0  0  0  0  0  0  0  0  0  0  0  0
  130.1590  132.5670   56.1600 N   0  0  0  0  0  0  0  0  0  0  0  0
  131.1990  132.2610   55.3460 C   0  0  0  0  0  0  0  0  0  0  0  0
  131.0530  132.7300   53.9090 C   0  0  0  0  0  0  0  0  0  0  0  0
  132.3330  131.5690   55.7630 C   0  0  0  0  0  0  0  0  0  0  0  0
  132.4440  131.1440   57.0910 C   0  0  0  0  0  0  0  0  0  0  0  0
  133.7020  130.3920   57.5000 C   0  0  0  0  0  0  0  0  0  0  0  0
  131.3720  131.4420   57.9750 C   0  0  0  0  0  0  0  0  0  0  0  0
  131.1570  131.1580   59.3690 C   0  0  0  0  0  0  0  0  0  0  0  0
  132.0740  130.4740   60.1260 N   0  0  0  0  0  0  0  0  0  0  0  0
  127.8790  130.2880   63.6850 C   0  0  0  0  0  0  0  0  0  0  0  0
  127.0010  129.9820   64.7220 C   0  0  0  0  0  0  0  0  0  0  0  0
  1  2  1  0
  2  3  1  0
  3  4  1  0
  4  5  2  0
  4  6  1  0
  6  7  2  0
  7  8  1  0
  8  9  2  0
  9 10  1  0
 10 11  1  0
 11 12  2  0
 11 13  1  0
 13 14  1  0
 14 15  1  0
 15 16  2  0
 16 17  1  0
 17 18  1  0
 17 19  2  0
 19 20  1  0
 20 21  1  0
 20 22  2  0
 22 23  1  0
 23 24  1  0
  9 25  1  0
 25 26  2  0
 26  6  1  0
 23 13  2  0
 22 15  1  0
M  END
>  <Binding energies>  (37) 
[-8.12]

>  <Ligand effiencies>  (37) 
[-0.27999999999999997]

>  <Interactions>  (37) 
["V-B:ARG:545:CZ:9898, H-B:GLY:454:N:9021, V-B:GLU:543:CB:9878, V-B:HIS:456:CE1:9040, V-B:ARG:545:CG:9894, V-B:ARG:545:CD:9895, H-A:ASP:366:OD1:3214, H-B:TYR:484:OH:9319, H-A:GLU:543:OE1:4909, V-A:ASP:366:CB:3212, H-B:ILE:455:N:9026, V-A:ILE:538:CD1:4865, V-A:ILE:538:C:4858, V-A:ILE:538:CA:4860, V-A:ILE:538:CB:4862, V-A:LEU:363:CD1:3189, V-A:TYR:531:CE2:4793, H-A:TYR:539:N:4870, V-A:TYR:539:C:4867, V-A:LEU:363:CA:3185, V-A:PRO:540:CB:4885, V-A:PRO:540:N:4884, V-A:PRO:540:CA:4883, H-B:ARG:545:NE:9896, V-A:TYR:539:CE2:4876, H-A:ALA:541:N:4891, V-A:TYR:539:CD2:4874, V-A:LEU:363:CB:3187, V-A:VAL:537:C:4850, V-B:ARG:545:CB:9893, V-A:ILE:538:CG1:4864, V-B:ARG:545:CA:9891"]

$$$$
4ab_Grossjean_2025
     RDKit          3D

 25 27  0  0  0  0  0  0  0  0999 V2000
  126.0480  128.0930   67.0370 C   0  0  0  0  0  0  0  0  0  0  0  0
  124.8690  128.3740   66.2960 O   0  0  0  0  0  0  0  0  0  0  0  0
  124.6540  129.6050   65.7660 C   0  0  0  0  0  0  0  0  0  0  0  0
  123.7500  130.3590   66.1420 O   0  0  0  0  0  0  0  0  0  0  0  0
  125.6190  129.9560   64.6710 C   0  0  0  0  0  0  0  0  0  0  0  0
  125.1510  130.0570   63.3540 C   0  0  0  0  0  0  0  0  0  0  0  0
  126.0220  130.3800   62.3160 C   0  0  0  0  0  0  0  0  0  0  0  0
  127.3720  130.6150   62.5730 C   0  0  0  0  0  0  0  0  0  0  0  0
  128.1630  130.9250   61.4500 N   0  0  0  0  0  0  0  0  0  0  0  0
  129.3010  131.6550   61.3580 C   0  0  0  0  0  0  0  0  0  0  0  0
  129.8330  132.2320   62.3060 O   0  0  0  0  0  0  0  0  0  0  0  0
  129.8760  131.7470   60.0140 C   0  0  0  0  0  0  0  0  0  0  0  0
  129.0060  132.5880   58.7290 S   0  0  0  0  0  0  0  0  0  0  0  0
  130.2600  132.2130   57.5690 C   0  0  0  0  0  0  0  0  0  0  0  0
  130.1870  132.6060   56.2970 N   0  0  0  0  0  0  0  0  0  0  0  0
  131.2240  132.2480   55.5020 C   0  0  0  0  0  0  0  0  0  0  0  0
  131.1180  132.7010   54.0570 C   0  0  0  0  0  0  0  0  0  0  0  0
  132.3230  131.5160   55.9450 C   0  0  0  0  0  0  0  0  0  0  0  0
  132.3970  131.1050   57.2810 C   0  0  0  0  0  0  0  0  0  0  0  0
  133.6170  130.3060   57.7160 C   0  0  0  0  0  0  0  0  0  0  0  0
  131.3260  131.4580   58.1450 C   0  0  0  0  0  0  0  0  0  0  0  0
  131.0780  131.2010   59.5380 C   0  0  0  0  0  0  0  0  0  0  0  0
  131.9530  130.4870   60.3170 N   0  0  0  0  0  0  0  0  0  0  0  0
  127.8520  130.5100   63.8880 C   0  0  0  0  0  0  0  0  0  0  0  0
  126.9800  130.1860   64.9240 C   0  0  0  0  0  0  0  0  0  0  0  0
  1  2  1  0
  2  3  1  0
  3  4  2  0
  3  5  1  0
  5  6  2  0
  6  7  1  0
  7  8  2  0
  8  9  1  0
  9 10  1  0
 10 11  2  0
 10 12  1  0
 12 13  1  0
 13 14  1  0
 14 15  2  0
 15 16  1  0
 16 17  1  0
 16 18  2  0
 18 19  1  0
 19 20  1  0
 19 21  2  0
 21 22  1  0
 22 23  1  0
  8 24  1  0
 24 25  2  0
 25  5  1  0
 22 12  2  0
 21 14  1  0
M  END
>  <Binding energies>  (38) 
[-8.08]

>  <Ligand effiencies>  (38) 
[-0.2885714285714286]

>  <Interactions>  (38) 
["V-B:ARG:545:CZ:9898, H-B:GLY:454:N:9021, V-B:HIS:456:CE1:9040, V-B:ARG:545:CG:9894, V-B:ARG:545:CD:9895, V-A:ASP:366:CG:3213, H-A:ASP:366:OD1:3214, H-B:TYR:484:OH:9319, H-A:GLU:543:OE1:4909, V-A:ASP:366:CB:3212, H-B:ILE:455:N:9026, V-A:ILE:538:CD1:4865, V-A:ILE:538:C:4858, V-A:ILE:538:CA:4860, V-A:ILE:538:CB:4862, V-A:LEU:363:CD1:3189, V-A:TYR:531:CE2:4793, H-A:TYR:539:N:4870, V-A:TYR:539:C:4867, V-A:LEU:363:CA:3185, V-A:PRO:540:CB:4885, V-A:PRO:540:N:4884, V-A:PRO:540:CA:4883, H-B:ARG:545:NE:9896, V-A:TYR:539:CE2:4876, H-A:ALA:541:N:4891, V-A:TYR:539:CD2:4874"]

$$$$
4ac_Grossjean_2025
     RDKit          3D

 23 25  0  0  0  0  0  0  0  0999 V2000
  124.1280  129.6160   66.1930 C   0  0  0  0  0  0  0  0  0  0  0  0
  124.1190  130.7350   65.3130 O   0  0  0  0  0  0  0  0  0  0  0  0
  125.0980  130.8390   64.3440 C   0  0  0  0  0  0  0  0  0  0  0  0
  124.7330  131.4750   63.1570 C   0  0  0  0  0  0  0  0  0  0  0  0
  125.6530  131.6270   62.1230 C   0  0  0  0  0  0  0  0  0  0  0  0
  126.9570  131.1530   62.2680 C   0  0  0  0  0  0  0  0  0  0  0  0
  127.8130  131.3400   61.1670 N   0  0  0  0  0  0  0  0  0  0  0  0
  129.0880  131.7970   61.1390 C   0  0  0  0  0  0  0  0  0  0  0  0
  129.7080  132.1690   62.1370 O   0  0  0  0  0  0  0  0  0  0  0  0
  129.7130  131.8360   59.8150 C   0  0  0  0  0  0  0  0  0  0  0  0
  128.8910  132.6180   58.4630 S   0  0  0  0  0  0  0  0  0  0  0  0
  130.2080  132.2340   57.3780 C   0  0  0  0  0  0  0  0  0  0  0  0
  130.1900  132.5880   56.0930 N   0  0  0  0  0  0  0  0  0  0  0  0
  131.2730  132.2300   55.3620 C   0  0  0  0  0  0  0  0  0  0  0  0
  131.2330  132.6420   53.9020 C   0  0  0  0  0  0  0  0  0  0  0  0
  132.3620  131.5300   55.8800 C   0  0  0  0  0  0  0  0  0  0  0  0
  132.3770  131.1600   57.2300 C   0  0  0  0  0  0  0  0  0  0  0  0
  133.5870  130.3990   57.7480 C   0  0  0  0  0  0  0  0  0  0  0  0
  131.2590  131.5210   58.0280 C   0  0  0  0  0  0  0  0  0  0  0  0
  130.9520  131.3090   59.4180 C   0  0  0  0  0  0  0  0  0  0  0  0
  131.8060  130.6470   60.2630 N   0  0  0  0  0  0  0  0  0  0  0  0
  127.3290  130.5010   63.4530 C   0  0  0  0  0  0  0  0  0  0  0  0
  126.4050  130.3500   64.4850 C   0  0  0  0  0  0  0  0  0  0  0  0
  1  2  1  0
  2  3  1  0
  3  4  2  0
  4  5  1  0
  5  6  2  0
  6  7  1  0
  7  8  1  0
  8  9  2  0
  8 10  1  0
 10 11  1  0
 11 12  1  0
 12 13  2  0
 13 14  1  0
 14 15  1  0
 14 16  2  0
 16 17  1  0
 17 18  1  0
 17 19  2  0
 19 20  1  0
 20 21  1  0
  6 22  1  0
 22 23  2  0
 23  3  1  0
 20 10  2  0
 19 12  1  0
M  END
>  <Binding energies>  (39) 
[-7.46]

>  <Ligand effiencies>  (39) 
[-0.28692307692307695]

>  <Interactions>  (39) 
["V-B:ARG:545:CZ:9898, H-B:GLY:454:N:9021, V-B:ARG:545:CG:9894, V-B:ARG:545:CD:9895, V-A:ASP:366:CG:3213, H-A:ASP:366:OD1:3214, H-B:TYR:484:OH:9319, H-A:GLU:543:OE1:4909, V-A:ASP:366:CB:3212, V-A:ILE:538:CD1:4865, V-A:ILE:538:CA:4860, V-A:ILE:538:CB:4862, V-A:LEU:363:CD1:3189, V-A:TYR:531:CE2:4793, H-A:TYR:539:N:4870, V-A:TYR:539:C:4867, V-A:LEU:363:CA:3185, V-A:TYR:539:CG:4872, V-A:PRO:540:CB:4885, V-A:PRO:540:N:4884, V-A:PRO:540:CA:4883, V-A:TYR:539:CE2:4876, H-A:ALA:541:N:4891, V-A:TYR:539:CD2:4874, V-A:LEU:363:CB:3187, V-A:ILE:538:CG1:4864"]

$$$$
4ad_Grossjean_2025
     RDKit          3D

 21 23  0  0  0  0  0  0  0  0999 V2000
  130.4890  133.0010   53.8780 C   0  0  0  0  0  0  0  0  0  0  0  0
  130.8400  132.3980   55.2260 C   0  0  0  0  0  0  0  0  0  0  0  0
  131.9190  131.5270   55.3630 C   0  0  0  0  0  0  0  0  0  0  0  0
  132.2220  130.9810   56.6170 C   0  0  0  0  0  0  0  0  0  0  0  0
  133.4080  130.0340   56.7170 C   0  0  0  0  0  0  0  0  0  0  0  0
  131.3990  131.3470   57.7160 C   0  0  0  0  0  0  0  0  0  0  0  0
  131.4220  130.9850   59.1070 C   0  0  0  0  0  0  0  0  0  0  0  0
  132.3660  130.1330   59.6260 N   0  0  0  0  0  0  0  0  0  0  0  0
  130.4030  131.5790   59.8690 C   0  0  0  0  0  0  0  0  0  0  0  0
  130.1230  131.4200   61.2970 C   0  0  0  0  0  0  0  0  0  0  0  0
  130.8810  131.8980   62.1430 O   0  0  0  0  0  0  0  0  0  0  0  0
  128.9900  130.7360   61.5940 N   0  0  0  0  0  0  0  0  0  0  0  0
  128.4640  130.3770   62.8500 C   0  0  0  0  0  0  0  0  0  0  0  0
  128.4000  131.4010   63.8010 C   0  0  0  0  0  0  0  0  0  0  0  0
  127.8850  131.1490   65.0700 C   0  0  0  0  0  0  0  0  0  0  0  0
  127.4260  129.8730   65.3870 C   0  0  0  0  0  0  0  0  0  0  0  0
  127.4720  128.8480   64.4450 C   0  0  0  0  0  0  0  0  0  0  0  0
  127.9870  129.0970   63.1760 C   0  0  0  0  0  0  0  0  0  0  0  0
  129.3840  132.6150   58.8700 S   0  0  0  0  0  0  0  0  0  0  0  0
  130.3250  132.2460   57.4430 C   0  0  0  0  0  0  0  0  0  0  0  0
  130.0340  132.7680   56.2500 N   0  0  0  0  0  0  0  0  0  0  0  0
  1  2  1  0
  2  3  2  0
  3  4  1  0
  4  5  1  0
  4  6  2  0
  6  7  1  0
  7  8  1  0
  7  9  2  0
  9 10  1  0
 10 11  2  0
 10 12  1  0
 12 13  1  0
 13 14  2  0
 14 15  1  0
 15 16  2  0
 16 17  1  0
 17 18  2  0
  9 19  1  0
 19 20  1  0
 20 21  2  0
 21  2  1  0
 20  6  1  0
 18 13  1  0
M  END
>  <Binding energies>  (40) 
[-7.26]

>  <Ligand effiencies>  (40) 
[-0.3025]

>  <Interactions>  (40) 
["V-B:TYR:484:CZ:9318, V-A:GLU:543:CB:4906, V-A:ASP:366:CG:3213, H-A:ASP:366:OD1:3214, H-A:GLU:543:OE1:4909, V-A:ASP:366:CB:3212, V-A:ILE:538:CD1:4865, V-A:ILE:538:C:4858, V-A:ILE:538:CA:4860, V-A:ILE:538:CB:4862, V-A:LEU:363:CD1:3189, V-A:TYR:531:CE2:4793, H-A:TYR:539:N:4870, V-A:TYR:539:C:4867, V-A:PRO:540:CB:4885, V-A:PRO:540:N:4884, V-A:PRO:540:CA:4883, V-A:TYR:539:CD1:4873, H-A:ALA:541:N:4891, V-A:ALA:541:CB:4892, V-A:TYR:531:CZ:4794, V-B:TYR:484:CE1:9316, V-A:VAL:537:C:4850"]

$$$$
4ae_Grossjean_2025
     RDKit          3D

 22 24  0  0  0  0  0  0  0  0999 V2000
  129.5540  126.5170   65.8050 C   0  0  0  0  0  0  0  0  0  0  0  0
  129.5740  125.1830   65.0850 C   0  0  0  0  0  0  0  0  0  0  0  0
  130.1190  124.0400   65.6780 C   0  0  0  0  0  0  0  0  0  0  0  0
  130.1090  122.8490   64.9520 C   0  0  0  0  0  0  0  0  0  0  0  0
  129.5640  122.8280   63.6670 C   0  0  0  0  0  0  0  0  0  0  0  0
  129.0280  124.0060   63.1360 C   0  0  0  0  0  0  0  0  0  0  0  0
  128.5120  123.9270   61.8310 N   0  0  0  0  0  0  0  0  0  0  0  0
  127.4450  123.2190   61.3820 C   0  0  0  0  0  0  0  0  0  0  0  0
  126.7470  122.5020   62.1000 O   0  0  0  0  0  0  0  0  0  0  0  0
  127.1610  123.3530   59.9520 C   0  0  0  0  0  0  0  0  0  0  0  0
  128.2030  122.5750   58.7600 S   0  0  0  0  0  0  0  0  0  0  0  0
  127.2590  123.2230   57.4390 C   0  0  0  0  0  0  0  0  0  0  0  0
  127.5660  122.9770   56.1650 N   0  0  0  0  0  0  0  0  0  0  0  0
  126.7570  123.5440   55.2380 C   0  0  0  0  0  0  0  0  0  0  0  0
  127.1280  123.2580   53.7940 C   0  0  0  0  0  0  0  0  0  0  0  0
  125.6570  124.3410   55.5520 C   0  0  0  0  0  0  0  0  0  0  0  0
  125.3380  124.5960   56.8900 C   0  0  0  0  0  0  0  0  0  0  0  0
  124.1310  125.4750   57.1830 C   0  0  0  0  0  0  0  0  0  0  0  0
  126.1650  124.0200   57.8920 C   0  0  0  0  0  0  0  0  0  0  0  0
  126.1310  124.0760   59.3290 C   0  0  0  0  0  0  0  0  0  0  0  0
  125.1710  124.7790   60.0120 N   0  0  0  0  0  0  0  0  0  0  0  0
  129.0400  125.1780   63.8380 N   0  0  0  0  0  0  0  0  0  0  0  0
  1  2  1  0
  2  3  2  0
  3  4  1  0
  4  5  2  0
  5  6  1  0
  6  7  1  0
  7  8  1  0
  8  9  2  0
  8 10  1  0
 10 11  1  0
 11 12  1  0
 12 13  2  0
 13 14  1  0
 14 15  1  0
 14 16  2  0
 16 17  1  0
 17 18  1  0
 17 19  2  0
 19 20  1  0
 20 21  1  0
  6 22  2  0
 22  2  1  0
 20 10  2  0
 19 12  1  0
M  END
>  <Binding energies>  (41) 
[-7.36]

>  <Ligand effiencies>  (41) 
[-0.2944]

>  <Interactions>  (41) 
["V-A:TYR:484:CZ:4347, V-B:GLU:543:CB:9878, V-A:TYR:484:CE1:4345, V-B:GLU:543:CD:9880, V-A:GLU:543:CD:4908, V-B:TYR:539:CE2:9848, V-B:TYR:539:C:9839, V-B:PRO:540:N:9856, V-B:ILE:538:CA:9832, V-B:PRO:540:CA:9855, H-B:ALA:541:N:9863, V-B:LEU:363:CD1:8160, V-B:ILE:538:CB:9834, V-B:TYR:539:CE1:9847, V-B:ILE:538:CG2:9835, V-B:TYR:539:CD2:9846, V-B:GLU:543:CG:9879, V-B:TYR:531:CE2:9765, V-B:ALA:541:CB:9864, V-B:ASP:366:CB:8183, H-B:GLU:543:OE2:9882, H-B:ASP:366:OD1:8185"]

$$$$
4af_Grossjean_2025
     RDKit          3D

 21 23  0  0  0  0  0  0  0  0999 V2000
  130.4530  132.9640   53.8700 C   0  0  0  0  0  0  0  0  0  0  0  0
  130.8150  132.3740   55.2210 C   0  0  0  0  0  0  0  0  0  0  0  0
  131.9010  131.5120   55.3610 C   0  0  0  0  0  0  0  0  0  0  0  0
  132.2140  130.9780   56.6170 C   0  0  0  0  0  0  0  0  0  0  0  0
  133.4070  130.0410   56.7180 C   0  0  0  0  0  0  0  0  0  0  0  0
  131.3930  131.3460   57.7170 C   0  0  0  0  0  0  0  0  0  0  0  0
  131.4250  130.9920   59.1110 C   0  0  0  0  0  0  0  0  0  0  0  0
  132.3730  130.1470   59.6300 N   0  0  0  0  0  0  0  0  0  0  0  0
  130.4080  131.5880   59.8740 C   0  0  0  0  0  0  0  0  0  0  0  0
  130.1270  131.4270   61.3020 C   0  0  0  0  0  0  0  0  0  0  0  0
  130.9010  131.8760   62.1480 O   0  0  0  0  0  0  0  0  0  0  0  0
  128.9740  130.7780   61.5950 N   0  0  0  0  0  0  0  0  0  0  0  0
  128.4410  130.4220   62.8490 C   0  0  0  0  0  0  0  0  0  0  0  0
  127.9400  129.1530   63.1910 C   0  0  0  0  0  0  0  0  0  0  0  0
  127.4210  128.9360   64.4690 C   0  0  0  0  0  0  0  0  0  0  0  0
  127.4120  129.9970   65.3760 C   0  0  0  0  0  0  0  0  0  0  0  0
  127.8820  131.2320   65.0680 N   0  0  0  0  0  0  0  0  0  0  0  0
  128.3820  131.4270   63.8220 C   0  0  0  0  0  0  0  0  0  0  0  0
  129.3760  132.6110   58.8710 S   0  0  0  0  0  0  0  0  0  0  0  0
  130.3130  132.2370   57.4420 C   0  0  0  0  0  0  0  0  0  0  0  0
  130.0120  132.7480   56.2480 N   0  0  0  0  0  0  0  0  0  0  0  0
  1  2  1  0
  2  3  2  0
  3  4  1  0
  4  5  1  0
  4  6  2  0
  6  7  1  0
  7  8  1  0
  7  9  2  0
  9 10  1  0
 10 11  2  0
 10 12  1  0
 12 13  1  0
 13 14  2  0
 14 15  1  0
 15 16  2  0
 16 17  1  0
 17 18  2  0
  9 19  1  0
 19 20  1  0
 20 21  2  0
 21  2  1  0
 20  6  1  0
 18 13  1  0
M  END
>  <Binding energies>  (42) 
[-7.0]

>  <Ligand effiencies>  (42) 
[-0.2916666666666667]

>  <Interactions>  (42) 
["V-A:GLU:543:CB:4906, V-A:ASP:366:CG:3213, H-A:ASP:366:OD1:3214, H-B:TYR:484:OH:9319, V-A:ASP:366:CB:3212, V-A:ILE:538:CD1:4865, V-A:ILE:538:C:4858, V-A:ILE:538:CA:4860, V-A:LEU:363:CD1:3189, V-A:TYR:531:CE2:4793, H-A:TYR:539:N:4870, V-A:TYR:539:C:4867, V-A:PRO:540:CB:4885, V-A:PRO:540:N:4884, V-A:PRO:540:CA:4883, V-A:TYR:539:CD1:4873, H-A:ALA:541:N:4891, V-A:ALA:541:CB:4892, V-A:TYR:531:CZ:4794, V-A:VAL:537:C:4850"]

$$$$
4ag_Grossjean_2025
     RDKit          3D

 22 24  0  0  0  0  0  0  0  0999 V2000
  131.2420  132.2140   53.6430 C   0  0  0  0  0  0  0  0  0  0  0  0
  131.3330  131.9000   55.1250 C   0  0  0  0  0  0  0  0  0  0  0  0
  132.4100  131.1800   55.6400 C   0  0  0  0  0  0  0  0  0  0  0  0
  132.4740  130.9020   57.0100 C   0  0  0  0  0  0  0  0  0  0  0  0
  133.6690  130.1130   57.5250 C   0  0  0  0  0  0  0  0  0  0  0  0
  131.4190  131.3770   57.8340 C   0  0  0  0  0  0  0  0  0  0  0  0
  131.1710  131.2760   59.2460 C   0  0  0  0  0  0  0  0  0  0  0  0
  132.0300  130.6260   60.0970 N   0  0  0  0  0  0  0  0  0  0  0  0
  129.9830  131.8940   59.6610 C   0  0  0  0  0  0  0  0  0  0  0  0
  129.4330  131.9920   61.0140 C   0  0  0  0  0  0  0  0  0  0  0  0
  130.1490  131.8610   62.0090 O   0  0  0  0  0  0  0  0  0  0  0  0
  128.1040  132.2130   61.1000 N   0  0  0  0  0  0  0  0  0  0  0  0
  127.3510  132.3700   62.3430 C   0  0  0  0  0  0  0  0  0  0  0  0
  125.9750  133.0000   62.1580 C   0  0  0  0  0  0  0  0  0  0  0  0
  125.8420  134.1730   61.4100 C   0  0  0  0  0  0  0  0  0  0  0  0
  124.5830  134.7370   61.2180 C   0  0  0  0  0  0  0  0  0  0  0  0
  123.4600  134.1190   61.7650 C   0  0  0  0  0  0  0  0  0  0  0  0
  123.5840  132.9420   62.4990 C   0  0  0  0  0  0  0  0  0  0  0  0
  124.8420  132.3770   62.6900 C   0  0  0  0  0  0  0  0  0  0  0  0
  129.1380  132.6350   58.3020 S   0  0  0  0  0  0  0  0  0  0  0  0
  130.3750  132.1030   57.1850 C   0  0  0  0  0  0  0  0  0  0  0  0
  130.3110  132.3700   55.8800 N   0  0  0  0  0  0  0  0  0  0  0  0
  1  2  1  0
  2  3  2  0
  3  4  1  0
  4  5  1  0
  4  6  2  0
  6  7  1  0
  7  8  1  0
  7  9  2  0
  9 10  1  0
 10 11  2  0
 10 12  1  0
 12 13  1  0
 13 14  1  0
 14 15  2  0
 15 16  1  0
 16 17  2  0
 17 18  1  0
 18 19  2  0
  9 20  1  0
 20 21  1  0
 21 22  2  0
 22  2  1  0
 21  6  1  0
 19 14  1  0
M  END
>  <Binding energies>  (43) 
[-7.46]

>  <Ligand effiencies>  (43) 
[-0.2984]

>  <Interactions>  (43) 
["V-B:GLY:454:CA:9020, V-A:ASP:366:CG:3213, H-A:ASP:366:OD1:3214, H-A:GLU:543:OE1:4909, V-A:ASP:366:CB:3212, V-A:ILE:538:CD1:4865, V-A:ILE:538:CA:4860, V-A:LEU:363:CD1:3189, V-A:TYR:531:CE2:4793, H-A:TYR:539:N:4870, V-A:TYR:539:C:4867, V-A:LEU:363:CA:3185, V-A:TYR:539:CG:4872, V-A:PRO:540:CB:4885, V-A:PRO:540:N:4884, V-A:PRO:540:CA:4883, V-B:LEU:475:CD1:9229, V-A:TYR:539:CE2:4876, H-A:ALA:541:N:4891, V-A:ALA:541:CB:4892, V-A:TYR:539:CD2:4874, V-B:ILE:369:CG2:8208, V-B:TRP:381:CH2:8343, V-B:ILE:369:CD1:8210, V-A:TYR:531:CZ:4794"]

$$$$
4ah_Grossjean_2025
     RDKit          3D

 28 30  0  0  0  0  0  0  0  0999 V2000
  123.1940  131.1250   62.1080 C   0  0  0  0  0  0  0  0  0  0  0  0
  123.8320  131.8030   63.1830 O   0  0  0  0  0  0  0  0  0  0  0  0
  125.0280  131.3150   63.6800 C   0  0  0  0  0  0  0  0  0  0  0  0
  126.2860  131.8430   63.3520 C   0  0  0  0  0  0  0  0  0  0  0  0
  127.4530  131.2990   63.8900 C   0  0  0  0  0  0  0  0  0  0  0  0
  128.8070  131.9150   63.5590 C   0  0  0  0  0  0  0  0  0  0  0  0
  129.1250  131.8960   62.1310 N   0  0  0  0  0  0  0  0  0  0  0  0
  130.3690  131.8600   61.6080 C   0  0  0  0  0  0  0  0  0  0  0  0
  131.3840  131.8770   62.3050 O   0  0  0  0  0  0  0  0  0  0  0  0
  130.4490  131.8410   60.1470 C   0  0  0  0  0  0  0  0  0  0  0  0
  129.1970  132.6230   59.1810 S   0  0  0  0  0  0  0  0  0  0  0  0
  129.9740  132.1280   57.6940 C   0  0  0  0  0  0  0  0  0  0  0  0
  129.4750  132.4430   56.4980 N   0  0  0  0  0  0  0  0  0  0  0  0
  130.1740  132.0000   55.4250 C   0  0  0  0  0  0  0  0  0  0  0  0
  129.5880  132.3660   54.0750 C   0  0  0  0  0  0  0  0  0  0  0  0
  131.3500  131.2590   55.5200 C   0  0  0  0  0  0  0  0  0  0  0  0
  131.8710  130.9270   56.7760 C   0  0  0  0  0  0  0  0  0  0  0  0
  133.1560  130.1160   56.8270 C   0  0  0  0  0  0  0  0  0  0  0  0
  131.1630  131.3730   57.9250 C   0  0  0  0  0  0  0  0  0  0  0  0
  131.4040  131.2140   59.3340 C   0  0  0  0  0  0  0  0  0  0  0  0
  132.4800  130.5170   59.8210 N   0  0  0  0  0  0  0  0  0  0  0  0
  127.3640  130.2330   64.7870 C   0  0  0  0  0  0  0  0  0  0  0  0
  126.1200  129.6810   65.1290 C   0  0  0  0  0  0  0  0  0  0  0  0
  125.9600  128.6170   65.9990 O   0  0  0  0  0  0  0  0  0  0  0  0
  127.0960  128.1000   66.6850 C   0  0  0  0  0  0  0  0  0  0  0  0
  124.9600  130.2280   64.5630 C   0  0  0  0  0  0  0  0  0  0  0  0
  123.7330  129.7090   64.9040 O   0  0  0  0  0  0  0  0  0  0  0  0
  123.3480  129.9680   66.2470 C   0  0  0  0  0  0  0  0  0  0  0  0
  1  2  1  0
  2  3  1  0
  3  4  2  0
  4  5  1  0
  5  6  1  0
  6  7  1  0
  7  8  1  0
  8  9  2  0
  8 10  1  0
 10 11  1  0
 11 12  1  0
 12 13  2  0
 13 14  1  0
 14 15  1  0
 14 16  2  0
 16 17  1  0
 17 18  1  0
 17 19  2  0
 19 20  1  0
 20 21  1  0
  5 22  2  0
 22 23  1  0
 23 24  1  0
 24 25  1  0
 23 26  2  0
 26 27  1  0
 27 28  1  0
 26  3  1  0
 20 10  2  0
 19 12  1  0
M  END
>  <Binding energies>  (44) 
[-7.5]

>  <Ligand effiencies>  (44) 
[-0.24193548387096775]

>  <Interactions>  (44) 
["V-B:ARG:545:CZ:9898, H-B:GLY:454:N:9021, V-B:HIS:456:CE1:9040, V-B:GLY:453:C:9013, H-B:ARG:545:NH2:9900, V-B:ARG:545:CG:9894, V-B:GLY:454:CA:9020, H-B:ARG:545:NH1:9899, V-B:ARG:545:CD:9895, V-A:GLU:543:CB:4906, V-A:ASP:366:CG:3213, H-A:ASP:366:OD1:3214, H-B:TYR:484:OH:9319, H-A:GLU:543:OE1:4909, V-A:ASP:366:CB:3212, V-A:LEU:363:CD1:3189, V-A:TYR:531:CE2:4793, V-A:TYR:539:C:4867, V-A:PRO:540:CB:4885, V-A:PRO:540:N:4884, V-A:TYR:539:CE1:4875, V-A:PRO:540:CA:4883, V-A:TYR:539:CD1:4873, H-B:ARG:545:NE:9896, V-B:LEU:475:CD1:9229, H-A:ALA:541:N:4891, V-A:ALA:541:CB:4892, V-A:ALA:541:CA:4890, V-A:PRO:540:C:4881, V-B:ILE:369:CD1:8210, V-A:TYR:531:CZ:4794, V-B:GLY:453:CA:9015, V-B:GLY:454:C:9018"]

$$$$
4ai_Grossjean_2025
     RDKit          3D

 20 22  0  0  0  0  0  0  0  0999 V2000
  127.9970  130.2890   65.1630 C   0  0  0  0  0  0  0  0  0  0  0  0
  128.3810  128.9880   65.8440 C   0  0  0  0  0  0  0  0  0  0  0  0
  128.6650  127.8460   65.0970 C   0  0  0  0  0  0  0  0  0  0  0  0
  129.0230  126.6580   65.7450 C   0  0  0  0  0  0  0  0  0  0  0  0
  129.3260  125.4390   64.8870 C   0  0  0  0  0  0  0  0  0  0  0  0
  129.0830  126.6690   67.1650 C   0  0  0  0  0  0  0  0  0  0  0  0
  129.4070  125.6520   68.1290 C   0  0  0  0  0  0  0  0  0  0  0  0
  129.7400  124.3730   67.7610 N   0  0  0  0  0  0  0  0  0  0  0  0
  129.3580  126.0930   69.4610 C   0  0  0  0  0  0  0  0  0  0  0  0
  129.6170  125.3290   70.6840 C   0  0  0  0  0  0  0  0  0  0  0  0
  129.7130  125.8980   71.7730 O   0  0  0  0  0  0  0  0  0  0  0  0
  129.7210  123.9860   70.5190 N   0  0  0  0  0  0  0  0  0  0  0  0
  129.9520  123.0310   71.5000 C   0  0  0  0  0  0  0  0  0  0  0  0
  131.1280  122.9750   72.2470 C   0  0  0  0  0  0  0  0  0  0  0  0
  130.9660  121.9010   73.0920 C   0  0  0  0  0  0  0  0  0  0  0  0
  129.7540  121.3410   72.8670 O   0  0  0  0  0  0  0  0  0  0  0  0
  129.1200  122.0660   71.8570 N   0  0  0  0  0  0  0  0  0  0  0  0
  128.8780  127.7890   69.5540 S   0  0  0  0  0  0  0  0  0  0  0  0
  128.7680  127.9020   67.8110 C   0  0  0  0  0  0  0  0  0  0  0  0
  128.4250  129.0350   67.1970 N   0  0  0  0  0  0  0  0  0  0  0  0
  1  2  1  0
  2  3  2  0
  3  4  1  0
  4  5  1  0
  4  6  2  0
  6  7  1  0
  7  8  1  0
  7  9  2  0
  9 10  1  0
 10 11  2  0
 10 12  1  0
 12 13  1  0
 13 14  1  0
 14 15  2  0
 15 16  1  0
 16 17  1  0
  9 18  1  0
 18 19  1  0
 19 20  2  0
 20  2  1  0
 19  6  1  0
 17 13  2  0
M  END
>  <Binding energies>  (45) 
[-7.67]

>  <Ligand effiencies>  (45) 
[-0.3334782608695652]

>  <Interactions>  (45) 
["V-A:HIS:456:CE1:4069, V-A:HIS:456:CD2:4068, V-A:TYR:484:CZ:4347, H-B:LYS:547:NZ:9923, H-A:HIS:456:ND1:4067, V-B:GLU:543:CB:9878, V-B:HIS:456:CE1:9040, V-A:TYR:484:CE2:4346, V-A:HIS:456:CG:4066, V-B:GLU:543:C:9874, V-A:TYR:484:CD2:4344, H-A:TYR:484:OH:4348, V-A:TYR:484:CD1:4343, H-B:GLU:543:O:9875, V-A:TYR:484:CE1:4345, V-A:TYR:484:CG:4342, V-B:GLU:543:CD:9880, V-A:GLU:543:CD:4908, V-A:ASP:473:CB:4239, V-A:HIS:456:CB:4065, V-A:ASP:473:CG:4240, V-A:GLU:543:CB:4906, V-A:GLU:543:CG:4907, V-B:GLU:543:CG:9879, V-B:GLU:543:CA:9876, H-A:HIS:456:NE2:4070, V-A:TYR:484:CB:4341"]

$$$$
4aj_Grossjean_2025
     RDKit          3D

 20 22  0  0  0  0  0  0  0  0999 V2000
  130.5830  132.9860   53.8800 C   0  0  0  0  0  0  0  0  0  0  0  0
  130.9160  132.3780   55.2310 C   0  0  0  0  0  0  0  0  0  0  0  0
  132.0030  131.5220   55.3840 C   0  0  0  0  0  0  0  0  0  0  0  0
  132.2880  130.9690   56.6370 C   0  0  0  0  0  0  0  0  0  0  0  0
  133.4870  130.0390   56.7530 C   0  0  0  0  0  0  0  0  0  0  0  0
  131.4390  131.3130   57.7230 C   0  0  0  0  0  0  0  0  0  0  0  0
  131.4380  130.9350   59.1110 C   0  0  0  0  0  0  0  0  0  0  0  0
  132.3740  130.0830   59.6380 N   0  0  0  0  0  0  0  0  0  0  0  0
  130.4050  131.5210   59.8590 C   0  0  0  0  0  0  0  0  0  0  0  0
  130.1020  131.3510   61.2820 C   0  0  0  0  0  0  0  0  0  0  0  0
  130.8010  131.8900   62.1430 O   0  0  0  0  0  0  0  0  0  0  0  0
  129.0170  130.5880   61.5590 N   0  0  0  0  0  0  0  0  0  0  0  0
  128.5110  130.2820   62.8150 C   0  0  0  0  0  0  0  0  0  0  0  0
  128.1750  129.1000   63.2850 N   0  0  0  0  0  0  0  0  0  0  0  0
  127.7330  129.1780   64.5250 C   0  0  0  0  0  0  0  0  0  0  0  0
  127.7030  130.4510   65.0880 C   0  0  0  0  0  0  0  0  0  0  0  0
  128.2890  131.5990   63.9210 S   0  0  0  0  0  0  0  0  0  0  0  0
  129.3890  132.5500   58.8490 S   0  0  0  0  0  0  0  0  0  0  0  0
  130.3590  132.2020   57.4360 C   0  0  0  0  0  0  0  0  0  0  0  0
  130.0850  132.7310   56.2420 N   0  0  0  0  0  0  0  0  0  0  0  0
  1  2  1  0
  2  3  2  0
  3  4  1  0
  4  5  1  0
  4  6  2  0
  6  7  1  0
  7  8  1  0
  7  9  2  0
  9 10  1  0
 10 11  2  0
 10 12  1  0
 12 13  1  0
 13 14  2  0
 14 15  1  0
 15 16  2  0
 16 17  1  0
  9 18  1  0
 18 19  1  0
 19 20  2  0
 20  2  1  0
 19  6  1  0
 17 13  1  0
M  END
>  <Binding energies>  (46) 
[-6.8]

>  <Ligand effiencies>  (46) 
[-0.2956521739130435]

>  <Interactions>  (46) 
["V-A:GLU:543:CD:4908, V-A:GLU:543:CB:4906, V-A:ASP:366:CG:3213, H-A:ASP:366:OD1:3214, H-A:GLU:543:OE1:4909, V-A:ASP:366:CB:3212, V-A:ILE:538:CD1:4865, V-A:ILE:538:C:4858, V-A:ILE:538:CA:4860, V-A:ILE:538:CB:4862, V-A:LEU:363:CD1:3189, V-A:TYR:531:CE2:4793, H-A:TYR:539:N:4870, V-A:TYR:539:C:4867, V-A:LEU:363:CA:3185, V-A:PRO:540:CB:4885, V-A:PRO:540:N:4884, V-A:PRO:540:CA:4883, V-A:TYR:539:CD1:4873, H-A:ALA:541:N:4891, V-A:ALA:541:CB:4892, V-A:TYR:531:CZ:4794, V-A:VAL:537:C:4850"]

$$$$
4ak_Grossjean_2025
     RDKit          3D

 25 26  0  0  0  0  0  0  0  0999 V2000
  126.3550  130.7260   53.0230 C   0  0  0  0  0  0  0  0  0  0  0  0
  126.4140  130.3570   54.3920 O   0  0  0  0  0  0  0  0  0  0  0  0
  127.7170  129.9830   54.8220 C   0  0  0  0  0  0  0  0  0  0  0  0
  128.0680  130.7410   56.1080 C   0  0  0  0  0  0  0  0  0  0  0  0
  128.9220  131.8330   55.7930 O   0  0  0  0  0  0  0  0  0  0  0  0
  129.1710  131.9840   54.4020 C   0  0  0  0  0  0  0  0  0  0  0  0
  130.4660  132.7810   54.2020 C   0  0  0  0  0  0  0  0  0  0  0  0
  131.0730  133.0140   55.4650 O   0  0  0  0  0  0  0  0  0  0  0  0
  132.3080  132.3330   55.6440 C   0  0  0  0  0  0  0  0  0  0  0  0
  132.2410  131.4890   56.9300 C   0  0  0  0  0  0  0  0  0  0  0  0
  131.1130  131.8290   57.7970 N   0  0  0  0  0  0  0  0  0  0  0  0
  131.0180  131.5300   59.1080 C   0  0  0  0  0  0  0  0  0  0  0  0
  131.9130  130.9410   59.7180 O   0  0  0  0  0  0  0  0  0  0  0  0
  129.7890  131.9520   59.7770 C   0  0  0  0  0  0  0  0  0  0  0  0
  128.4550  132.6300   58.8440 S   0  0  0  0  0  0  0  0  0  0  0  0
  127.4860  132.8270   60.2860 C   0  0  0  0  0  0  0  0  0  0  0  0
  126.2570  133.3440   60.2450 N   0  0  0  0  0  0  0  0  0  0  0  0
  125.6140  133.4440   61.4350 C   0  0  0  0  0  0  0  0  0  0  0  0
  124.2170  134.0330   61.3670 C   0  0  0  0  0  0  0  0  0  0  0  0
  126.1650  133.0430   62.6500 C   0  0  0  0  0  0  0  0  0  0  0  0
  127.4550  132.5010   62.6900 C   0  0  0  0  0  0  0  0  0  0  0  0
  128.0140  132.0820   64.0400 C   0  0  0  0  0  0  0  0  0  0  0  0
  128.1600  132.3810   61.4620 C   0  0  0  0  0  0  0  0  0  0  0  0
  129.4710  131.8810   61.1430 C   0  0  0  0  0  0  0  0  0  0  0  0
  130.3210  131.3860   62.0990 N   0  0  0  0  0  0  0  0  0  0  0  0
  1  2  1  0
  2  3  1  0
  3  4  1  0
  4  5  1  0
  5  6  1  0
  6  7  1  0
  7  8  1  0
  8  9  1  0
  9 10  1  0
 10 11  1  0
 11 12  1  0
 12 13  2  0
 12 14  1  0
 14 15  1  0
 15 16  1  0
 16 17  2  0
 17 18  1  0
 18 19  1  0
 18 20  2  0
 20 21  1  0
 21 22  1  0
 21 23  2  0
 23 24  1  0
 24 25  1  0
 24 14  2  0
 23 16  1  0
M  END
>  <Binding energies>  (47) 
[-5.98]

>  <Ligand effiencies>  (47) 
[-0.21357142857142858]

>  <Interactions>  (47) 
["V-A:GLU:543:CD:4908, H-A:GLU:543:OE1:4909, V-A:ILE:538:CG2:4863, V-A:ILE:538:CD1:4865, V-A:ILE:538:C:4858, V-A:ILE:538:CA:4860, H-B:TYR:531:OH:9767, V-A:LEU:363:CD1:3189, H-A:TYR:539:N:4870, V-A:TYR:539:CZ:4877, V-A:PRO:540:CD:4887, V-A:TYR:539:C:4867, V-A:TYR:539:CG:4872, V-A:PRO:540:CB:4885, V-A:PRO:540:N:4884, V-A:TYR:539:CE1:4875, V-A:PRO:540:CA:4883, V-A:TYR:539:CD1:4873, V-B:LEU:475:CD1:9229, V-A:TYR:539:CE2:4876, V-A:ALA:541:CB:4892, V-A:TYR:539:CD2:4874, H-A:TYR:539:OH:4878, V-B:ILE:369:CG2:8208, V-B:TYR:531:CE1:9764, V-B:TYR:531:CZ:9766, V-B:MET:535:CE:9807, V-B:ASN:370:CG:8217"]

$$$$
4al_Grossjean_2025
     RDKit          3D

 16 17  0  0  0  0  0  0  0  0999 V2000
  129.2260  123.5220   61.7100 C   0  0  0  0  0  0  0  0  0  0  0  0
  128.3020  122.5290   61.2940 O   0  0  0  0  0  0  0  0  0  0  0  0
  127.0210  122.8550   60.9810 C   0  0  0  0  0  0  0  0  0  0  0  0
  126.0960  122.8760   61.7960 O   0  0  0  0  0  0  0  0  0  0  0  0
  126.8440  123.1880   59.5510 C   0  0  0  0  0  0  0  0  0  0  0  0
  127.8690  122.4220   58.3340 S   0  0  0  0  0  0  0  0  0  0  0  0
  127.0660  123.2950   57.0490 C   0  0  0  0  0  0  0  0  0  0  0  0
  127.4120  123.1430   55.7710 N   0  0  0  0  0  0  0  0  0  0  0  0
  126.7120  123.8780   54.8720 C   0  0  0  0  0  0  0  0  0  0  0  0
  127.1210  123.6890   53.4230 C   0  0  0  0  0  0  0  0  0  0  0  0
  125.6840  124.7530   55.2200 C   0  0  0  0  0  0  0  0  0  0  0  0
  125.3240  124.9110   56.5620 C   0  0  0  0  0  0  0  0  0  0  0  0
  124.1970  125.8760   56.8920 C   0  0  0  0  0  0  0  0  0  0  0  0
  126.0370  124.1560   57.5320 C   0  0  0  0  0  0  0  0  0  0  0  0
  125.9330  124.0740   58.9630 C   0  0  0  0  0  0  0  0  0  0  0  0
  125.0190  124.8020   59.6800 N   0  0  0  0  0  0  0  0  0  0  0  0
  1  2  1  0
  2  3  1  0
  3  4  2  0
  3  5  1  0
  5  6  1  0
  6  7  1  0
  7  8  2  0
  8  9  1  0
  9 10  1  0
  9 11  2  0
 11 12  1  0
 12 13  1  0
 12 14  2  0
 14 15  1  0
 15 16  1  0
 15  5  2  0
 14  7  1  0
M  END
>  <Binding energies>  (48) 
[-5.72]

>  <Ligand effiencies>  (48) 
[-0.31777777777777777]

>  <Interactions>  (48) 
["V-B:GLU:543:CD:9880, V-B:TYR:539:CE2:9848, V-B:TYR:539:C:9839, V-B:PRO:540:N:9856, V-B:ILE:538:CA:9832, V-B:PRO:540:C:9853, V-B:PRO:540:CA:9855, H-B:ALA:541:N:9863, V-B:LEU:363:CD1:8160, V-B:ILE:538:CB:9834, V-B:TYR:539:CZ:9849, V-B:PRO:540:CB:9857, V-B:ILE:538:CG2:9835, V-B:TYR:539:CD2:9846, V-B:GLU:543:CG:9879, V-B:TYR:531:CE2:9765, V-B:TYR:539:CG:9844, V-B:ALA:541:CB:9864, V-B:ASP:366:CG:8184, V-B:ASP:366:CB:8183, H-B:GLU:543:OE2:9882, V-B:TYR:531:CZ:9766, V-B:MET:535:CB:9804, V-B:MET:535:CG:9805, H-B:ASP:366:OD1:8185"]

$$$$
4bc_Grossjean_2025
     RDKit          3D

 26 28  0  0  0  0  0  0  0  0999 V2000
  124.1610  129.6290   66.2470 C   0  0  0  0  0  0  0  0  0  0  0  0
  124.1250  130.7250   65.3400 O   0  0  0  0  0  0  0  0  0  0  0  0
  125.0980  130.8240   64.3640 C   0  0  0  0  0  0  0  0  0  0  0  0
  124.7160  131.4180   63.1620 C   0  0  0  0  0  0  0  0  0  0  0  0
  125.6270  131.5610   62.1190 C   0  0  0  0  0  0  0  0  0  0  0  0
  126.9420  131.1170   62.2700 C   0  0  0  0  0  0  0  0  0  0  0  0
  127.7870  131.2890   61.1590 N   0  0  0  0  0  0  0  0  0  0  0  0
  129.0700  131.7270   61.1160 C   0  0  0  0  0  0  0  0  0  0  0  0
  129.7050  132.0910   62.1070 O   0  0  0  0  0  0  0  0  0  0  0  0
  129.6830  131.7530   59.7850 C   0  0  0  0  0  0  0  0  0  0  0  0
  128.9220  132.6560   58.4770 S   0  0  0  0  0  0  0  0  0  0  0  0
  130.1850  132.1920   57.3610 C   0  0  0  0  0  0  0  0  0  0  0  0
  130.1760  132.6000   56.0920 N   0  0  0  0  0  0  0  0  0  0  0  0
  131.2060  132.1740   55.3240 C   0  0  0  0  0  0  0  0  0  0  0  0
  131.1800  132.6540   53.8850 C   0  0  0  0  0  0  0  0  0  0  0  0
  132.2340  131.3580   55.7900 C   0  0  0  0  0  0  0  0  0  0  0  0
  132.2470  130.9250   57.1250 C   0  0  0  0  0  0  0  0  0  0  0  0
  133.3990  130.0250   57.5900 C   0  0  0  0  0  0  0  0  0  0  0  0
  134.2950  129.7870   56.6310 F   0  0  0  0  0  0  0  0  0  0  0  0
  134.0410  130.6050   58.6030 F   0  0  0  0  0  0  0  0  0  0  0  0
  132.9180  128.8470   57.9890 F   0  0  0  0  0  0  0  0  0  0  0  0
  131.1770  131.3570   57.9630 C   0  0  0  0  0  0  0  0  0  0  0  0
  130.8620  131.1270   59.3520 C   0  0  0  0  0  0  0  0  0  0  0  0
  131.6510  130.3610   60.1720 N   0  0  0  0  0  0  0  0  0  0  0  0
  127.3320  130.5050   63.4720 C   0  0  0  0  0  0  0  0  0  0  0  0
  126.4170  130.3640   64.5110 C   0  0  0  0  0  0  0  0  0  0  0  0
  1  2  1  0
  2  3  1  0
  3  4  2  0
  4  5  1  0
  5  6  2  0
  6  7  1  0
  7  8  1  0
  8  9  2  0
  8 10  1  0
 10 11  1  0
 11 12  1  0
 12 13  2  0
 13 14  1  0
 14 15  1  0
 14 16  2  0
 16 17  1  0
 17 18  1  0
 18 19  1  0
 18 20  1  0
 18 21  1  0
 17 22  2  0
 22 23  1  0
 23 24  1  0
  6 25  1  0
 25 26  2  0
 26  3  1  0
 23 10  2  0
 22 12  1  0
M  END
>  <Binding energies>  (49) 
[-7.07]

>  <Ligand effiencies>  (49) 
[-0.24379310344827587]

>  <Interactions>  (49) 
["V-B:ARG:545:CZ:9898, H-B:GLY:454:N:9021, V-B:ARG:545:CG:9894, V-B:ARG:545:CD:9895, V-A:ASP:366:CG:3213, H-A:ASP:366:OD1:3214, H-B:TYR:484:OH:9319, H-A:GLU:543:OE1:4909, V-A:ASP:366:CB:3212, V-A:ILE:538:CD1:4865, V-A:ILE:538:CA:4860, V-A:ILE:538:CB:4862, V-A:LEU:363:CD1:3189, V-A:TYR:531:CE2:4793, H-A:TYR:539:N:4870, V-A:TYR:539:C:4867, V-A:LEU:363:CA:3185, V-A:TYR:539:CG:4872, V-A:PRO:540:CB:4885, V-A:PRO:540:N:4884, V-A:PRO:540:CA:4883, V-A:TYR:539:CE2:4876, H-A:ALA:541:N:4891, V-A:TYR:539:CD2:4874, V-A:LEU:363:CB:3187, V-A:ASN:362:C:3172, V-A:TYR:531:CZ:4794, V-A:VAL:537:C:4850, V-A:ILE:538:CG1:4864, V-A:LEU:363:C:3183, V-A:LEU:363:CG:3188"]

$$$$
4bf_Grossjean_2025
     RDKit          3D

 24 26  0  0  0  0  0  0  0  0999 V2000
  127.1250  123.2500   53.8100 C   0  0  0  0  0  0  0  0  0  0  0  0
  126.7420  123.5260   55.2530 C   0  0  0  0  0  0  0  0  0  0  0  0
  125.6100  124.2760   55.5640 C   0  0  0  0  0  0  0  0  0  0  0  0
  125.2700  124.5260   56.9020 C   0  0  0  0  0  0  0  0  0  0  0  0
  124.0170  125.3580   57.1960 C   0  0  0  0  0  0  0  0  0  0  0  0
  123.2050  125.4710   56.1410 F   0  0  0  0  0  0  0  0  0  0  0  0
  123.3170  124.7910   58.1780 F   0  0  0  0  0  0  0  0  0  0  0  0
  124.3690  126.5910   57.5600 F   0  0  0  0  0  0  0  0  0  0  0  0
  126.1260  123.9830   57.9060 C   0  0  0  0  0  0  0  0  0  0  0  0
  126.1010  124.0300   59.3470 C   0  0  0  0  0  0  0  0  0  0  0  0
  125.1200  124.6840   60.0490 N   0  0  0  0  0  0  0  0  0  0  0  0
  127.1610  123.3450   59.9630 C   0  0  0  0  0  0  0  0  0  0  0  0
  127.4590  123.2180   61.3930 C   0  0  0  0  0  0  0  0  0  0  0  0
  126.7640  122.5030   62.1170 O   0  0  0  0  0  0  0  0  0  0  0  0
  128.5360  123.9180   61.8270 N   0  0  0  0  0  0  0  0  0  0  0  0
  129.0540  124.0490   63.1290 C   0  0  0  0  0  0  0  0  0  0  0  0
  129.3160  125.2650   63.7830 C   0  0  0  0  0  0  0  0  0  0  0  0
  129.8470  125.2550   65.0750 C   0  0  0  0  0  0  0  0  0  0  0  0
  130.1080  124.0250   65.6800 C   0  0  0  0  0  0  0  0  0  0  0  0
  129.8710  122.8380   65.0680 N   0  0  0  0  0  0  0  0  0  0  0  0
  129.3550  122.8650   63.8130 C   0  0  0  0  0  0  0  0  0  0  0  0
  128.2320  122.6220   58.7660 S   0  0  0  0  0  0  0  0  0  0  0  0
  127.2540  123.2320   57.4520 C   0  0  0  0  0  0  0  0  0  0  0  0
  127.5730  122.9970   56.1800 N   0  0  0  0  0  0  0  0  0  0  0  0
  1  2  1  0
  2  3  2  0
  3  4  1  0
  4  5  1  0
  5  6  1  0
  5  7  1  0
  5  8  1  0
  4  9  2  0
  9 10  1  0
 10 11  1  0
 10 12  2  0
 12 13  1  0
 13 14  2  0
 13 15  1  0
 15 16  1  0
 16 17  2  0
 17 18  1  0
 18 19  2  0
 19 20  1  0
 20 21  2  0
 12 22  1  0
 22 23  1  0
 23 24  2  0
 24  2  1  0
 23  9  1  0
 21 16  1  0
M  END
>  <Binding energies>  (50) 
[-6.65]

>  <Ligand effiencies>  (50) 
[-0.24629629629629632]

>  <Interactions>  (50) 
["V-A:TYR:484:CZ:4347, V-B:GLU:543:CB:9878, H-A:TYR:484:OH:4348, V-A:TYR:484:CE1:4345, V-B:GLU:543:CD:9880, V-B:TYR:539:CE2:9848, V-B:TYR:539:C:9839, V-B:ILE:538:CA:9832, V-B:PRO:540:CA:9855, H-B:ALA:541:N:9863, V-B:LEU:363:CD1:8160, V-B:ILE:538:CB:9834, V-B:TYR:539:CE1:9847, V-B:ILE:538:CG2:9835, V-B:TYR:539:CD2:9846, V-B:LEU:363:CA:8156, V-B:GLU:543:CG:9879, V-B:TYR:531:CE2:9765, V-B:ALA:541:CB:9864, V-B:ASP:366:CG:8184, V-B:ASP:366:CB:8183, H-B:GLU:543:OE2:9882, V-B:TYR:531:CZ:9766, H-B:ASP:366:OD1:8185, V-B:TYR:531:CD2:9763"]

$$$$
4bh_Grossjean_2025
     RDKit          3D

 31 33  0  0  0  0  0  0  0  0999 V2000
  123.1050  130.9820   62.1170 C   0  0  0  0  0  0  0  0  0  0  0  0
  123.6710  131.6380   63.2460 O   0  0  0  0  0  0  0  0  0  0  0  0
  124.8040  131.1120   63.8400 C   0  0  0  0  0  0  0  0  0  0  0  0
  126.1080  131.5600   63.5750 C   0  0  0  0  0  0  0  0  0  0  0  0
  127.2070  130.9810   64.2100 C   0  0  0  0  0  0  0  0  0  0  0  0
  128.6110  131.5100   63.9450 C   0  0  0  0  0  0  0  0  0  0  0  0
  128.9610  131.5500   62.5240 N   0  0  0  0  0  0  0  0  0  0  0  0
  130.1780  131.8530   62.0270 C   0  0  0  0  0  0  0  0  0  0  0  0
  131.1260  132.1730   62.7460 O   0  0  0  0  0  0  0  0  0  0  0  0
  130.3020  131.8250   60.5690 C   0  0  0  0  0  0  0  0  0  0  0  0
  129.1000  132.6320   59.5670 S   0  0  0  0  0  0  0  0  0  0  0  0
  129.9060  132.1110   58.1060 C   0  0  0  0  0  0  0  0  0  0  0  0
  129.4410  132.4370   56.9010 N   0  0  0  0  0  0  0  0  0  0  0  0
  130.1520  131.9770   55.8450 C   0  0  0  0  0  0  0  0  0  0  0  0
  129.6030  132.3590   54.4820 C   0  0  0  0  0  0  0  0  0  0  0  0
  131.3060  131.2090   55.9640 C   0  0  0  0  0  0  0  0  0  0  0  0
  131.8010  130.8600   57.2310 C   0  0  0  0  0  0  0  0  0  0  0  0
  133.0760  130.0150   57.3120 C   0  0  0  0  0  0  0  0  0  0  0  0
  133.9600  130.4850   58.1950 F   0  0  0  0  0  0  0  0  0  0  0  0
  132.7700  128.7710   57.6790 F   0  0  0  0  0  0  0  0  0  0  0  0
  133.6760  129.9880   56.1220 F   0  0  0  0  0  0  0  0  0  0  0  0
  131.0730  131.3260   58.3660 C   0  0  0  0  0  0  0  0  0  0  0  0
  131.2650  131.1700   59.7870 C   0  0  0  0  0  0  0  0  0  0  0  0
  132.3020  130.4500   60.3210 N   0  0  0  0  0  0  0  0  0  0  0  0
  127.0030  129.9610   65.1430 C   0  0  0  0  0  0  0  0  0  0  0  0
  125.7120  129.4880   65.4220 C   0  0  0  0  0  0  0  0  0  0  0  0
  125.4380  128.4740   66.3220 O   0  0  0  0  0  0  0  0  0  0  0  0
  126.5140  127.8440   67.0100 C   0  0  0  0  0  0  0  0  0  0  0  0
  124.6210  130.0690   64.7590 C   0  0  0  0  0  0  0  0  0  0  0  0
  123.3480  129.6270   65.0370 O   0  0  0  0  0  0  0  0  0  0  0  0
  122.9990  129.7000   66.4120 C   0  0  0  0  0  0  0  0  0  0  0  0
  1  2  1  0
  2  3  1  0
  3  4  2  0
  4  5  1  0
  5  6  1  0
  6  7  1  0
  7  8  1  0
  8  9  2  0
  8 10  1  0
 10 11  1  0
 11 12  1  0
 12 13  2  0
 13 14  1  0
 14 15  1  0
 14 16  2  0
 16 17  1  0
 17 18  1  0
 18 19  1  0
 18 20  1  0
 18 21  1  0
 17 22  2  0
 22 23  1  0
 23 24  1  0
  5 25  2  0
 25 26  1  0
 26 27  1  0
 27 28  1  0
 26 29  2  0
 29 30  1  0
 30 31  1  0
 29  3  1  0
 23 10  2  0
 22 12  1  0
M  END
>  <Binding energies>  (51) 
[-7.25]

>  <Ligand effiencies>  (51) 
[-0.21323529411764705]

>  <Interactions>  (51) 
["V-B:ARG:545:CZ:9898, H-B:GLY:454:N:9021, V-B:HIS:456:CE1:9040, V-B:GLY:453:C:9013, H-B:ARG:545:NH2:9900, V-B:ARG:545:CG:9894, V-B:GLY:454:CA:9020, H-B:ARG:545:NH1:9899, V-B:ARG:545:CD:9895, V-A:GLU:543:CD:4908, V-A:GLU:543:CB:4906, V-A:ASP:366:CG:3213, H-A:ASP:366:OD1:3214, H-B:TYR:484:OH:9319, H-A:GLU:543:OE1:4909, V-A:ASP:366:CB:3212, V-A:LEU:363:CD1:3189, V-A:TYR:531:CE2:4793, V-A:TYR:539:C:4867, V-A:LEU:363:CA:3185, V-A:PRO:540:CB:4885, V-A:PRO:540:N:4884, V-A:TYR:539:CE1:4875, V-A:PRO:540:CA:4883, V-A:TYR:539:CD1:4873, H-B:ARG:545:NE:9896, V-B:LEU:475:CD1:9229, H-A:ALA:541:N:4891, V-A:ALA:541:CB:4892, V-B:ASP:366:CG:8184, V-A:LEU:363:CB:3187, V-A:ALA:541:CA:4890, V-A:PRO:540:C:4881, V-B:ILE:369:CD1:8210, V-A:TYR:531:CZ:4794, V-B:ILE:455:C:9023, V-B:GLY:453:CA:9015, V-B:GLY:454:C:9018, V-A:TYR:531:CD2:4791"]

$$$$
4bi_Grossjean_2025
     RDKit          3D

 23 25  0  0  0  0  0  0  0  0999 V2000
  127.8860  130.2680   65.1380 C   0  0  0  0  0  0  0  0  0  0  0  0
  128.3080  128.9780   65.8170 C   0  0  0  0  0  0  0  0  0  0  0  0
  128.7070  127.8720   65.0710 C   0  0  0  0  0  0  0  0  0  0  0  0
  129.0990  126.6850   65.7130 C   0  0  0  0  0  0  0  0  0  0  0  0
  129.5380  125.4970   64.8500 C   0  0  0  0  0  0  0  0  0  0  0  0
  129.0030  124.3400   65.2450 F   0  0  0  0  0  0  0  0  0  0  0  0
  129.1670  125.6960   63.5860 F   0  0  0  0  0  0  0  0  0  0  0  0
  130.8630  125.3650   64.9040 F   0  0  0  0  0  0  0  0  0  0  0  0
  129.0640  126.6730   67.1390 C   0  0  0  0  0  0  0  0  0  0  0  0
  129.3820  125.6640   68.1190 C   0  0  0  0  0  0  0  0  0  0  0  0
  129.8120  124.4080   67.7780 N   0  0  0  0  0  0  0  0  0  0  0  0
  129.2190  126.0840   69.4500 C   0  0  0  0  0  0  0  0  0  0  0  0
  129.4360  125.3220   70.6820 C   0  0  0  0  0  0  0  0  0  0  0  0
  129.3760  125.8740   71.7830 O   0  0  0  0  0  0  0  0  0  0  0  0
  129.6810  123.9980   70.5130 N   0  0  0  0  0  0  0  0  0  0  0  0
  129.9090  123.0470   71.4990 C   0  0  0  0  0  0  0  0  0  0  0  0
  131.0890  122.9850   72.2380 C   0  0  0  0  0  0  0  0  0  0  0  0
  130.9190  121.9200   73.0950 C   0  0  0  0  0  0  0  0  0  0  0  0
  129.6990  121.3710   72.8820 O   0  0  0  0  0  0  0  0  0  0  0  0
  129.0690  122.0940   71.8670 N   0  0  0  0  0  0  0  0  0  0  0  0
  128.6390  127.7460   69.5260 S   0  0  0  0  0  0  0  0  0  0  0  0
  128.6360  127.8740   67.7830 C   0  0  0  0  0  0  0  0  0  0  0  0
  128.2660  128.9980   67.1690 N   0  0  0  0  0  0  0  0  0  0  0  0
  1  2  1  0
  2  3  2  0
  3  4  1  0
  4  5  1  0
  5  6  1  0
  5  7  1  0
  5  8  1  0
  4  9  2  0
  9 10  1  0
 10 11  1  0
 10 12  2  0
 12 13  1  0
 13 14  2  0
 13 15  1  0
 15 16  1  0
 16 17  1  0
 17 18  2  0
 18 19  1  0
 19 20  1  0
 12 21  1  0
 21 22  1  0
 22 23  2  0
 23  2  1  0
 22  9  1  0
 20 16  2  0
M  END
>  <Binding energies>  (52) 
[-7.38]

>  <Ligand effiencies>  (52) 
[-0.28384615384615386]

>  <Interactions>  (52) 
["V-A:HIS:456:CE1:4069, V-A:HIS:456:CD2:4068, V-A:TYR:484:CZ:4347, H-B:LYS:547:NZ:9923, H-A:HIS:456:ND1:4067, V-B:GLU:543:CB:9878, V-B:HIS:456:CE1:9040, V-A:TYR:484:CE2:4346, V-A:HIS:456:CG:4066, V-B:GLU:543:C:9874, V-A:TYR:484:CD2:4344, H-A:TYR:484:OH:4348, V-A:TYR:484:CD1:4343, H-B:GLU:543:O:9875, V-A:TYR:484:CE1:4345, V-A:TYR:484:CG:4342, V-B:GLU:543:CD:9880, V-A:GLU:543:CD:4908, V-A:ASP:473:CB:4239, V-A:HIS:456:CB:4065, V-A:ASP:473:CG:4240, V-A:GLU:543:CB:4906, V-B:GLU:543:CG:9879, V-B:GLU:543:CA:9876, H-A:HIS:456:NE2:4070, V-A:TYR:484:CB:4341"]

$$$$
4bj_Grossjean_2025
     RDKit          3D

 23 25  0  0  0  0  0  0  0  0999 V2000
  127.7570  130.2050   65.1620 C   0  0  0  0  0  0  0  0  0  0  0  0
  128.2370  128.9310   65.8340 C   0  0  0  0  0  0  0  0  0  0  0  0
  128.6330  127.8290   65.0820 C   0  0  0  0  0  0  0  0  0  0  0  0
  129.0680  126.6550   65.7170 C   0  0  0  0  0  0  0  0  0  0  0  0
  129.4920  125.4660   64.8470 C   0  0  0  0  0  0  0  0  0  0  0  0
  129.0360  125.5470   63.5950 F   0  0  0  0  0  0  0  0  0  0  0  0
  130.8210  125.4030   64.7850 F   0  0  0  0  0  0  0  0  0  0  0  0
  129.0200  124.3340   65.3710 F   0  0  0  0  0  0  0  0  0  0  0  0
  129.0860  126.6530   67.1430 C   0  0  0  0  0  0  0  0  0  0  0  0
  129.4570  125.6560   68.1190 C   0  0  0  0  0  0  0  0  0  0  0  0
  129.8980  124.4050   67.7700 N   0  0  0  0  0  0  0  0  0  0  0  0
  129.3320  126.0840   69.4510 C   0  0  0  0  0  0  0  0  0  0  0  0
  129.6090  125.3350   70.6790 C   0  0  0  0  0  0  0  0  0  0  0  0
  129.6440  125.9060   71.7720 O   0  0  0  0  0  0  0  0  0  0  0  0
  129.8020  124.0030   70.5190 N   0  0  0  0  0  0  0  0  0  0  0  0
  130.0670  123.0730   71.5150 C   0  0  0  0  0  0  0  0  0  0  0  0
  129.3320  122.0430   71.8760 N   0  0  0  0  0  0  0  0  0  0  0  0
  129.8930  121.3670   72.8570 C   0  0  0  0  0  0  0  0  0  0  0  0
  131.1150  121.8480   73.3160 C   0  0  0  0  0  0  0  0  0  0  0  0
  131.5420  123.2670   72.4070 S   0  0  0  0  0  0  0  0  0  0  0  0
  128.7260  127.7360   69.5370 S   0  0  0  0  0  0  0  0  0  0  0  0
  128.6590  127.8510   67.7940 C   0  0  0  0  0  0  0  0  0  0  0  0
  128.2440  128.9620   67.1870 N   0  0  0  0  0  0  0  0  0  0  0  0
  1  2  1  0
  2  3  2  0
  3  4  1  0
  4  5  1  0
  5  6  1  0
  5  7  1  0
  5  8  1  0
  4  9  2  0
  9 10  1  0
 10 11  1  0
 10 12  2  0
 12 13  1  0
 13 14  2  0
 13 15  1  0
 15 16  1  0
 16 17  2  0
 17 18  1  0
 18 19  2  0
 19 20  1  0
 12 21  1  0
 21 22  1  0
 22 23  2  0
 23  2  1  0
 22  9  1  0
 20 16  1  0
M  END
>  <Binding energies>  (53) 
[-6.51]

>  <Ligand effiencies>  (53) 
[-0.25038461538461537]

>  <Interactions>  (53) 
["V-A:HIS:456:CE1:4069, V-A:HIS:456:CD2:4068, V-A:TYR:484:CZ:4347, H-B:LYS:547:NZ:9923, H-A:HIS:456:ND1:4067, V-B:GLU:543:CB:9878, V-B:HIS:456:CE1:9040, V-A:TYR:484:CE2:4346, V-A:HIS:456:CG:4066, V-B:GLU:543:C:9874, V-A:TYR:484:CD2:4344, H-A:TYR:484:OH:4348, V-A:TYR:484:CD1:4343, H-B:GLU:543:O:9875, V-A:TYR:484:CE1:4345, V-A:TYR:484:CG:4342, V-B:GLU:543:CD:9880, V-A:GLU:543:CD:4908, V-A:ASP:473:CB:4239, V-A:HIS:456:CB:4065, V-A:ASP:473:CG:4240, V-A:GLU:543:CB:4906, V-B:GLU:543:CG:9879, V-B:GLU:543:CA:9876, H-A:HIS:456:NE2:4070, V-B:LYS:547:CE:9922, V-A:TYR:484:CB:4341"]

$$$$
4bk_Grossjean_2025
     RDKit          3D

 28 29  0  0  0  0  0  0  0  0999 V2000
  127.4450  130.7540   53.7020 C   0  0  0  0  0  0  0  0  0  0  0  0
  128.4790  130.9970   54.6440 O   0  0  0  0  0  0  0  0  0  0  0  0
  129.7820  130.9480   54.0780 C   0  0  0  0  0  0  0  0  0  0  0  0
  130.2960  132.3760   53.8530 C   0  0  0  0  0  0  0  0  0  0  0  0
  130.5030  133.0070   55.1090 O   0  0  0  0  0  0  0  0  0  0  0  0
  131.6780  132.5730   55.7830 C   0  0  0  0  0  0  0  0  0  0  0  0
  131.2900  131.9320   57.1220 C   0  0  0  0  0  0  0  0  0  0  0  0
  129.9320  131.5170   57.0690 O   0  0  0  0  0  0  0  0  0  0  0  0
  129.0670  132.2720   57.9090 C   0  0  0  0  0  0  0  0  0  0  0  0
  127.7430  131.5120   58.0920 C   0  0  0  0  0  0  0  0  0  0  0  0
  127.7050  130.2220   57.4010 N   0  0  0  0  0  0  0  0  0  0  0  0
  126.9200  129.1790   57.7400 C   0  0  0  0  0  0  0  0  0  0  0  0
  126.1250  129.2290   58.6810 O   0  0  0  0  0  0  0  0  0  0  0  0
  127.0570  127.9750   56.9180 C   0  0  0  0  0  0  0  0  0  0  0  0
  128.1980  127.9480   55.5760 S   0  0  0  0  0  0  0  0  0  0  0  0
  127.7800  126.2930   55.1980 C   0  0  0  0  0  0  0  0  0  0  0  0
  128.3540  125.6440   54.1870 N   0  0  0  0  0  0  0  0  0  0  0  0
  127.9510  124.3670   53.9930 C   0  0  0  0  0  0  0  0  0  0  0  0
  128.6210  123.6470   52.8370 C   0  0  0  0  0  0  0  0  0  0  0  0
  126.9950  123.7300   54.7800 C   0  0  0  0  0  0  0  0  0  0  0  0
  126.3840  124.4080   55.8460 C   0  0  0  0  0  0  0  0  0  0  0  0
  125.3340  123.6670   56.6810 C   0  0  0  0  0  0  0  0  0  0  0  0
  124.1690  124.3150   56.7490 F   0  0  0  0  0  0  0  0  0  0  0  0
  125.0960  122.4700   56.1450 F   0  0  0  0  0  0  0  0  0  0  0  0
  125.7780  123.5110   57.9270 F   0  0  0  0  0  0  0  0  0  0  0  0
  126.7880  125.7570   56.0780 C   0  0  0  0  0  0  0  0  0  0  0  0
  126.3990  126.7440   57.0540 C   0  0  0  0  0  0  0  0  0  0  0  0
  125.4640  126.4970   58.0270 N   0  0  0  0  0  0  0  0  0  0  0  0
  1  2  1  0
  2  3  1  0
  3  4  1  0
  4  5  1  0
  5  6  1  0
  6  7  1  0
  7  8  1  0
  8  9  1  0
  9 10  1  0
 10 11  1  0
 11 12  1  0
 12 13  2  0
 12 14  1  0
 14 15  1  0
 15 16  1  0
 16 17  2  0
 17 18  1  0
 18 19  1  0
 18 20  2  0
 20 21  1  0
 21 22  1  0
 22 23  1  0
 22 24  1  0
 22 25  1  0
 21 26  2  0
 26 27  1  0
 27 28  1  0
 27 14  2  0
 26 16  1  0
M  END
>  <Binding energies>  (54) 
[-4.73]

>  <Ligand effiencies>  (54) 
[-0.15258064516129033]

>  <Interactions>  (54) 
["V-B:PRO:540:N:9856, V-B:ILE:538:CA:9832, V-B:PRO:540:CA:9855, V-B:PRO:540:CD:9859, V-B:LEU:363:CD1:8160, V-B:ILE:538:CB:9834, V-B:PRO:540:CB:9857, V-B:TYR:539:CE1:9847, V-B:ILE:538:CG2:9835, V-A:ILE:538:CD1:4865, V-A:ILE:538:CA:4860, V-A:MET:535:CE:4835, H-A:TYR:539:N:4870, V-A:TYR:539:CZ:4877, V-A:PRO:540:CD:4887, V-A:TYR:539:C:4867, V-A:PRO:540:CB:4885, V-A:PRO:540:N:4884, V-A:TYR:539:CE1:4875, V-A:PRO:540:CA:4883, V-A:TYR:539:CE2:4876, V-A:TYR:539:CD2:4874, V-B:ASP:366:CG:8184, H-B:ASP:366:OD1:8185"]

$$$$
4cd_Grossjean_2025
     RDKit          3D

 29 32  0  0  0  0  0  0  0  0999 V2000
  129.3740  131.1110   62.8510 N   0  0  0  0  0  0  0  0  0  0  0  0
  128.6710  131.3740   61.7030 C   0  0  0  0  0  0  0  0  0  0  0  0
  127.2790  131.5560   61.6780 C   0  0  0  0  0  0  0  0  0  0  0  0
  126.3290  131.4910   62.7930 C   0  0  0  0  0  0  0  0  0  0  0  0
  125.5440  132.4160   63.0030 O   0  0  0  0  0  0  0  0  0  0  0  0
  126.3860  130.3610   63.5390 N   0  0  0  0  0  0  0  0  0  0  0  0
  125.6590  130.0100   64.6920 C   0  0  0  0  0  0  0  0  0  0  0  0
  126.3560  129.2750   65.6540 C   0  0  0  0  0  0  0  0  0  0  0  0
  125.7290  128.8920   66.8360 C   0  0  0  0  0  0  0  0  0  0  0  0
  124.4030  129.2510   67.0610 C   0  0  0  0  0  0  0  0  0  0  0  0
  123.7000  129.9950   66.1170 C   0  0  0  0  0  0  0  0  0  0  0  0
  124.3250  130.3800   64.9320 C   0  0  0  0  0  0  0  0  0  0  0  0
  126.7100  131.8860   60.0430 S   0  0  0  0  0  0  0  0  0  0  0  0
  128.3320  131.7690   59.4060 C   0  0  0  0  0  0  0  0  0  0  0  0
  128.5830  131.9330   58.1090 N   0  0  0  0  0  0  0  0  0  0  0  0
  129.8750  131.8100   57.7060 C   0  0  0  0  0  0  0  0  0  0  0  0
  130.1260  131.9980   56.2380 C   0  0  0  0  0  0  0  0  0  0  0  0
  129.1140  131.7430   55.2970 C   0  0  0  0  0  0  0  0  0  0  0  0
  129.3400  131.9160   53.9340 C   0  0  0  0  0  0  0  0  0  0  0  0
  130.5860  132.3480   53.4910 C   0  0  0  0  0  0  0  0  0  0  0  0
  131.6040  132.6100   54.4010 C   0  0  0  0  0  0  0  0  0  0  0  0
  131.3730  132.4380   55.7620 C   0  0  0  0  0  0  0  0  0  0  0  0
  130.9090  131.5430   58.6070 C   0  0  0  0  0  0  0  0  0  0  0  0
  130.6550  131.3720   59.9780 C   0  0  0  0  0  0  0  0  0  0  0  0
  131.8360  131.0760   60.9110 C   0  0  0  0  0  0  0  0  0  0  0  0
  133.0230  131.2210   60.3170 F   0  0  0  0  0  0  0  0  0  0  0  0
  131.8070  131.9080   61.9530 F   0  0  0  0  0  0  0  0  0  0  0  0
  131.7600  129.8200   61.3490 F   0  0  0  0  0  0  0  0  0  0  0  0
  129.3040  131.4860   60.4110 C   0  0  0  0  0  0  0  0  0  0  0  0
  1  2  1  0
  2  3  2  0
  3  4  1  0
  4  5  2  0
  4  6  1  0
  6  7  1  0
  7  8  2  0
  8  9  1  0
  9 10  2  0
 10 11  1  0
 11 12  2  0
  3 13  1  0
 13 14  1  0
 14 15  2  0
 15 16  1  0
 16 17  1  0
 17 18  2  0
 18 19  1  0
 19 20  2  0
 20 21  1  0
 21 22  2  0
 16 23  2  0
 23 24  1  0
 24 25  1  0
 25 26  1  0
 25 27  1  0
 25 28  1  0
 24 29  2  0
 29  2  1  0
 12  7  1  0
 29 14  1  0
 22 17  1  0
M  END
>  <Binding energies>  (55) 
[-7.81]

>  <Ligand effiencies>  (55) 
[-0.2440625]

>  <Interactions>  (55) 
["V-B:ARG:545:CZ:9898, V-B:HIS:456:CE1:9040, V-B:ARG:545:CG:9894, V-B:GLY:454:CA:9020, V-B:ARG:545:CD:9895, V-A:GLU:543:CD:4908, H-A:GLU:543:OE1:4909, V-A:ILE:538:CG2:4863, V-A:ILE:538:CD1:4865, V-A:ILE:538:CA:4860, V-A:ILE:538:CB:4862, V-A:TYR:539:CZ:4877, V-A:PRO:540:CD:4887, V-A:PRO:540:CB:4885, V-A:PRO:540:N:4884, V-A:TYR:539:CE1:4875, V-A:PRO:540:CA:4883, V-A:TYR:539:CD1:4873, V-A:TYR:539:CE2:4876, V-A:ALA:541:CB:4892, V-A:ALA:541:CA:4890, V-A:ALA:541:C:4888, V-A:PRO:540:C:4881, V-A:VAL:537:C:4850, V-A:ILE:538:CG1:4864, V-B:GLY:454:C:9018"]

$$$$
4cg_Grossjean_2025
     RDKit          3D

 30 33  0  0  0  0  0  0  0  0999 V2000
  129.6510  131.4980   62.8160 N   0  0  0  0  0  0  0  0  0  0  0  0
  128.9600  131.7360   61.6550 C   0  0  0  0  0  0  0  0  0  0  0  0
  127.5840  132.0030   61.6220 C   0  0  0  0  0  0  0  0  0  0  0  0
  126.6520  132.1310   62.7410 C   0  0  0  0  0  0  0  0  0  0  0  0
  126.8830  132.8870   63.6870 O   0  0  0  0  0  0  0  0  0  0  0  0
  125.5560  131.3450   62.6910 N   0  0  0  0  0  0  0  0  0  0  0  0
  124.4830  131.3230   63.6840 C   0  0  0  0  0  0  0  0  0  0  0  0
  124.7560  130.3770   64.8490 C   0  0  0  0  0  0  0  0  0  0  0  0
  125.9890  129.7250   64.9400 C   0  0  0  0  0  0  0  0  0  0  0  0
  126.2530  128.8850   66.0190 C   0  0  0  0  0  0  0  0  0  0  0  0
  125.2880  128.7080   67.0070 C   0  0  0  0  0  0  0  0  0  0  0  0
  124.0630  129.3680   66.9300 C   0  0  0  0  0  0  0  0  0  0  0  0
  123.7990  130.2090   65.8530 C   0  0  0  0  0  0  0  0  0  0  0  0
  127.0240  132.2810   59.9750 S   0  0  0  0  0  0  0  0  0  0  0  0
  128.6310  132.0140   59.3400 C   0  0  0  0  0  0  0  0  0  0  0  0
  128.8830  132.0880   58.0360 N   0  0  0  0  0  0  0  0  0  0  0  0
  130.1630  131.8700   57.6350 C   0  0  0  0  0  0  0  0  0  0  0  0
  130.4140  131.9590   56.1570 C   0  0  0  0  0  0  0  0  0  0  0  0
  129.3610  132.1990   55.2590 C   0  0  0  0  0  0  0  0  0  0  0  0
  129.5880  132.2810   53.8890 C   0  0  0  0  0  0  0  0  0  0  0  0
  130.8780  132.1230   53.3920 C   0  0  0  0  0  0  0  0  0  0  0  0
  131.9400  131.8810   54.2580 C   0  0  0  0  0  0  0  0  0  0  0  0
  131.7070  131.8000   55.6280 C   0  0  0  0  0  0  0  0  0  0  0  0
  131.1790  131.5600   58.5460 C   0  0  0  0  0  0  0  0  0  0  0  0
  130.9240  131.4780   59.9240 C   0  0  0  0  0  0  0  0  0  0  0  0
  132.0830  131.1340   60.8670 C   0  0  0  0  0  0  0  0  0  0  0  0
  132.2180  132.0040   61.8700 F   0  0  0  0  0  0  0  0  0  0  0  0
  131.8830  129.9310   61.4060 F   0  0  0  0  0  0  0  0  0  0  0  0
  133.2290  131.1270   60.1880 F   0  0  0  0  0  0  0  0  0  0  0  0
  129.5870  131.7200   60.3560 C   0  0  0  0  0  0  0  0  0  0  0  0
  1  2  1  0
  2  3  2  0
  3  4  1  0
  4  5  2  0
  4  6  1  0
  6  7  1  0
  7  8  1  0
  8  9  2  0
  9 10  1  0
 10 11  2  0
 11 12  1  0
 12 13  2  0
  3 14  1  0
 14 15  1  0
 15 16  2  0
 16 17  1  0
 17 18  1  0
 18 19  2  0
 19 20  1  0
 20 21  2  0
 21 22  1  0
 22 23  2  0
 17 24  2  0
 24 25  1  0
 25 26  1  0
 26 27  1  0
 26 28  1  0
 26 29  1  0
 25 30  2  0
 30  2  1  0
 13  8  1  0
 30 15  1  0
 23 18  1  0
M  END
>  <Binding energies>  (56) 
[-8.07]

>  <Ligand effiencies>  (56) 
[-0.24454545454545457]

>  <Interactions>  (56) 
["V-B:ARG:545:CZ:9898, V-B:HIS:456:CE1:9040, V-B:GLY:453:C:9013, V-B:ARG:545:CG:9894, V-B:GLY:454:CA:9020, V-B:ARG:545:CD:9895, V-A:GLU:543:CD:4908, H-B:TYR:484:OH:9319, H-A:GLU:543:OE1:4909, V-A:ILE:538:CD1:4865, V-A:ILE:538:CA:4860, V-A:LEU:363:CD1:3189, V-A:TYR:531:CE2:4793, V-A:TYR:539:C:4867, V-A:MET:535:CB:4832, V-A:PRO:540:CB:4885, V-A:PRO:540:N:4884, V-A:TYR:539:CE1:4875, V-A:PRO:540:CA:4883, V-A:TYR:539:CD1:4873, V-B:LEU:475:CD1:9229, V-A:TYR:539:CE2:4876, V-A:ALA:541:CB:4892, V-A:TYR:539:CD2:4874, V-A:ASN:362:CB:3176, V-A:ALA:541:CA:4890, V-A:ALA:541:C:4888, V-A:PRO:540:C:4881, V-A:TYR:531:CZ:4794, V-B:ILE:455:C:9023, V-B:GLY:454:C:9018"]

$$$$
4ch_Grossjean_2025
     RDKit          3D

 36 39  0  0  0  0  0  0  0  0999 V2000
  123.5740  123.8260   60.6280 C   0  0  0  0  0  0  0  0  0  0  0  0
  124.4640  124.3710   59.6600 O   0  0  0  0  0  0  0  0  0  0  0  0
  125.5750  123.6440   59.2740 C   0  0  0  0  0  0  0  0  0  0  0  0
  126.6210  123.2920   60.1420 C   0  0  0  0  0  0  0  0  0  0  0  0
  127.7130  122.5540   59.6840 C   0  0  0  0  0  0  0  0  0  0  0  0
  128.8530  122.2050   60.6340 C   0  0  0  0  0  0  0  0  0  0  0  0
  128.8310  122.9460   61.8960 N   0  0  0  0  0  0  0  0  0  0  0  0
  129.8130  123.7530   62.3490 C   0  0  0  0  0  0  0  0  0  0  0  0
  130.8440  123.9680   61.7070 O   0  0  0  0  0  0  0  0  0  0  0  0
  129.5710  124.3940   63.6420 C   0  0  0  0  0  0  0  0  0  0  0  0
  129.8630  123.5080   65.1350 S   0  0  0  0  0  0  0  0  0  0  0  0
  129.3960  124.8900   66.0970 C   0  0  0  0  0  0  0  0  0  0  0  0
  129.3990  124.8440   67.4270 N   0  0  0  0  0  0  0  0  0  0  0  0
  129.0260  125.9690   68.0900 C   0  0  0  0  0  0  0  0  0  0  0  0
  129.0340  125.8820   69.5890 C   0  0  0  0  0  0  0  0  0  0  0  0
  128.3630  126.8380   70.3690 C   0  0  0  0  0  0  0  0  0  0  0  0
  128.3670  126.7640   71.7600 C   0  0  0  0  0  0  0  0  0  0  0  0
  129.0450  125.7280   72.3930 C   0  0  0  0  0  0  0  0  0  0  0  0
  129.7210  124.7690   71.6450 C   0  0  0  0  0  0  0  0  0  0  0  0
  129.7160  124.8490   70.2550 C   0  0  0  0  0  0  0  0  0  0  0  0
  128.6360  127.1290   67.4140 C   0  0  0  0  0  0  0  0  0  0  0  0
  128.6270  127.1900   66.0110 C   0  0  0  0  0  0  0  0  0  0  0  0
  128.1890  128.4930   65.3340 C   0  0  0  0  0  0  0  0  0  0  0  0
  128.2610  129.5530   66.1420 F   0  0  0  0  0  0  0  0  0  0  0  0
  128.9670  128.7390   64.2820 F   0  0  0  0  0  0  0  0  0  0  0  0
  126.9230  128.3860   64.9290 F   0  0  0  0  0  0  0  0  0  0  0  0
  129.0290  126.0190   65.3060 C   0  0  0  0  0  0  0  0  0  0  0  0
  129.1510  125.7080   63.9030 C   0  0  0  0  0  0  0  0  0  0  0  0
  128.8700  126.6160   62.9130 N   0  0  0  0  0  0  0  0  0  0  0  0
  127.7740  122.1750   58.3420 C   0  0  0  0  0  0  0  0  0  0  0  0
  126.7430  122.5150   57.4520 C   0  0  0  0  0  0  0  0  0  0  0  0
  126.7370  122.1720   56.1120 O   0  0  0  0  0  0  0  0  0  0  0  0
  127.1760  123.1200   55.1450 C   0  0  0  0  0  0  0  0  0  0  0  0
  125.6460  123.2440   57.9320 C   0  0  0  0  0  0  0  0  0  0  0  0
  124.6370  123.5960   57.0680 O   0  0  0  0  0  0  0  0  0  0  0  0
  124.5970  124.9820   56.7590 C   0  0  0  0  0  0  0  0  0  0  0  0
  1  2  1  0
  2  3  1  0
  3  4  2  0
  4  5  1  0
  5  6  1  0
  6  7  1  0
  7  8  1  0
  8  9  2  0
  8 10  1  0
 10 11  1  0
 11 12  1  0
 12 13  2  0
 13 14  1  0
 14 15  1  0
 15 16  2  0
 16 17  1  0
 17 18  2  0
 18 19  1  0
 19 20  2  0
 14 21  2  0
 21 22  1  0
 22 23  1  0
 23 24  1  0
 23 25  1  0
 23 26  1  0
 22 27  2  0
 27 28  1  0
 28 29  1  0
  5 30  2  0
 30 31  1  0
 31 32  1  0
 32 33  1  0
 31 34  2  0
 34 35  1  0
 35 36  1  0
 34  3  1  0
 28 10  2  0
 27 12  1  0
 20 15  1  0
M  END
>  <Binding energies>  (57) 
[-7.51]

>  <Ligand effiencies>  (57) 
[-0.19256410256410256]

>  <Interactions>  (57) 
["V-A:HIS:456:CE1:4069, V-A:HIS:456:CD2:4068, V-A:TYR:484:CZ:4347, V-B:GLU:543:CB:9878, V-B:HIS:456:CE1:9040, V-A:HIS:456:CG:4066, H-A:TYR:484:OH:4348, H-B:GLU:543:OE1:9881, V-A:TYR:484:CE1:4345, V-B:GLU:543:CD:9880, V-A:GLU:543:CD:4908, H-A:GLU:543:OE2:4910, V-B:TYR:539:CE2:9848, V-B:TYR:539:C:9839, V-B:PRO:540:N:9856, V-A:GLU:543:CB:4906, V-B:ILE:538:CA:9832, V-A:GLU:543:CG:4907, V-B:PRO:540:CA:9855, V-B:PRO:540:CD:9859, V-B:LEU:363:CD1:8160, V-B:ILE:538:CB:9834, H-B:TYR:539:N:9842, V-B:PRO:540:CB:9857, V-B:TYR:539:CE1:9847, H-A:GLU:543:OE1:4909, V-B:ILE:538:CG2:9835, V-B:TYR:539:CD2:9846, V-B:ASN:362:CB:8147, V-B:ASN:362:C:8143, V-B:LEU:363:CA:8156, V-B:GLU:543:CG:9879, V-B:TYR:531:CE2:9765, V-B:TYR:539:CG:9844, V-B:ALA:541:CB:9864, H-B:GLU:543:OE2:9882, V-B:GLU:543:CA:9876"]

$$$$
4cj_Grossjean_2025
     RDKit          3D

 28 31  0  0  0  0  0  0  0  0999 V2000
  130.3070  124.7080   68.0730 N   0  0  0  0  0  0  0  0  0  0  0  0
  129.3050  125.5980   68.3660 C   0  0  0  0  0  0  0  0  0  0  0  0
  128.7840  125.7710   69.6580 C   0  0  0  0  0  0  0  0  0  0  0  0
  129.1730  125.0950   70.8980 C   0  0  0  0  0  0  0  0  0  0  0  0
  129.1240  125.6840   71.9810 O   0  0  0  0  0  0  0  0  0  0  0  0
  129.5860  123.8110   70.7560 N   0  0  0  0  0  0  0  0  0  0  0  0
  130.0050  122.9530   71.7640 C   0  0  0  0  0  0  0  0  0  0  0  0
  129.4650  121.8090   72.1270 N   0  0  0  0  0  0  0  0  0  0  0  0
  130.1270  121.2560   73.1230 C   0  0  0  0  0  0  0  0  0  0  0  0
  131.2350  121.9560   73.5910 C   0  0  0  0  0  0  0  0  0  0  0  0
  131.4110  123.4190   72.6680 S   0  0  0  0  0  0  0  0  0  0  0  0
  127.5220  127.0010   69.6770 S   0  0  0  0  0  0  0  0  0  0  0  0
  127.6980  127.2700   67.9590 C   0  0  0  0  0  0  0  0  0  0  0  0
  126.9550  128.1690   67.3180 N   0  0  0  0  0  0  0  0  0  0  0  0
  127.1680  128.3140   65.9840 C   0  0  0  0  0  0  0  0  0  0  0  0
  126.3220  129.3450   65.2940 C   0  0  0  0  0  0  0  0  0  0  0  0
  124.9350  129.3980   65.5080 C   0  0  0  0  0  0  0  0  0  0  0  0
  124.1440  130.3480   64.8660 C   0  0  0  0  0  0  0  0  0  0  0  0
  124.7320  131.2610   63.9960 C   0  0  0  0  0  0  0  0  0  0  0  0
  126.1020  131.2290   63.7640 C   0  0  0  0  0  0  0  0  0  0  0  0
  126.8890  130.2790   64.4090 C   0  0  0  0  0  0  0  0  0  0  0  0
  128.1080  127.5400   65.2980 C   0  0  0  0  0  0  0  0  0  0  0  0
  128.8960  126.5870   65.9640 C   0  0  0  0  0  0  0  0  0  0  0  0
  129.9100  125.7750   65.1500 C   0  0  0  0  0  0  0  0  0  0  0  0
  130.0090  126.1780   63.8820 F   0  0  0  0  0  0  0  0  0  0  0  0
  131.1200  125.8860   65.7000 F   0  0  0  0  0  0  0  0  0  0  0  0
  129.5510  124.4910   65.1340 F   0  0  0  0  0  0  0  0  0  0  0  0
  128.6940  126.4400   67.3660 C   0  0  0  0  0  0  0  0  0  0  0  0
  1  2  1  0
  2  3  2  0
  3  4  1  0
  4  5  2  0
  4  6  1  0
  6  7  1  0
  7  8  2  0
  8  9  1  0
  9 10  2  0
 10 11  1  0
  3 12  1  0
 12 13  1  0
 13 14  2  0
 14 15  1  0
 15 16  1  0
 16 17  2  0
 17 18  1  0
 18 19  2  0
 19 20  1  0
 20 21  2  0
 15 22  2  0
 22 23  1  0
 23 24  1  0
 24 25  1  0
 24 26  1  0
 24 27  1  0
 23 28  2  0
 28  2  1  0
 11  7  1  0
 28 13  1  0
 21 16  1  0
M  END
>  <Binding energies>  (58) 
[-7.66]

>  <Ligand effiencies>  (58) 
[-0.2470967741935484]

>  <Interactions>  (58) 
["V-A:HIS:456:CE1:4069, V-A:HIS:456:CD2:4068, V-A:TYR:484:CZ:4347, V-B:ARG:545:CZ:9898, H-B:LYS:547:NZ:9923, H-A:HIS:456:ND1:4067, V-B:GLU:543:CB:9878, V-B:HIS:456:CE1:9040, V-A:TYR:484:CE2:4346, V-A:HIS:456:CG:4066, V-B:GLU:543:C:9874, V-B:GLY:454:CA:9020, V-A:TYR:484:CD2:4344, H-A:TYR:484:OH:4348, V-A:TYR:484:CD1:4343, H-B:GLU:543:O:9875, V-A:TYR:484:CE1:4345, V-B:ARG:545:CD:9895, V-A:TYR:484:CG:4342, V-B:GLU:543:CD:9880, V-A:GLU:543:CD:4908, V-A:ASP:473:CB:4239, V-A:HIS:456:CB:4065, V-A:ASP:473:CG:4240, V-B:GLU:543:CG:9879, V-B:GLY:544:C:9884, V-A:TYR:484:CB:4341"]

$$$$
4ck_Grossjean_2025
     RDKit          3D

 33 35  0  0  0  0  0  0  0  0999 V2000
  132.7530  131.8600   62.1800 C   0  0  0  0  0  0  0  0  0  0  0  0
  131.7020  131.8880   61.2270 O   0  0  0  0  0  0  0  0  0  0  0  0
  131.9980  131.1680   60.0380 C   0  0  0  0  0  0  0  0  0  0  0  0
  130.7090  130.9900   59.2270 C   0  0  0  0  0  0  0  0  0  0  0  0
  130.7320  131.8790   58.1190 O   0  0  0  0  0  0  0  0  0  0  0  0
  131.5470  131.4280   57.0450 C   0  0  0  0  0  0  0  0  0  0  0  0
  131.7330  132.5720   56.0400 C   0  0  0  0  0  0  0  0  0  0  0  0
  130.4540  132.9950   55.5870 O   0  0  0  0  0  0  0  0  0  0  0  0
  130.0490  132.3910   54.3660 C   0  0  0  0  0  0  0  0  0  0  0  0
  129.0380  131.2700   54.6560 C   0  0  0  0  0  0  0  0  0  0  0  0
  128.5800  131.2890   56.0450 N   0  0  0  0  0  0  0  0  0  0  0  0
  127.5480  130.5790   56.5460 C   0  0  0  0  0  0  0  0  0  0  0  0
  126.8850  129.7960   55.8640 O   0  0  0  0  0  0  0  0  0  0  0  0
  127.2620  130.7830   57.9670 C   0  0  0  0  0  0  0  0  0  0  0  0
  126.4450  129.5260   58.8930 S   0  0  0  0  0  0  0  0  0  0  0  0
  126.5520  130.4750   60.3570 C   0  0  0  0  0  0  0  0  0  0  0  0
  126.0680  130.0280   61.5120 N   0  0  0  0  0  0  0  0  0  0  0  0
  126.1970  130.8370   62.5960 C   0  0  0  0  0  0  0  0  0  0  0  0
  125.6560  130.2950   63.8880 C   0  0  0  0  0  0  0  0  0  0  0  0
  124.3230  130.5250   64.2630 C   0  0  0  0  0  0  0  0  0  0  0  0
  123.8160  130.0270   65.4610 C   0  0  0  0  0  0  0  0  0  0  0  0
  124.6390  129.2880   66.3040 C   0  0  0  0  0  0  0  0  0  0  0  0
  125.9630  129.0410   65.9550 C   0  0  0  0  0  0  0  0  0  0  0  0
  126.4650  129.5400   64.7560 C   0  0  0  0  0  0  0  0  0  0  0  0
  126.8190  132.0870   62.5160 C   0  0  0  0  0  0  0  0  0  0  0  0
  127.3320  132.5690   61.3020 C   0  0  0  0  0  0  0  0  0  0  0  0
  127.9990  133.9500   61.2840 C   0  0  0  0  0  0  0  0  0  0  0  0
  129.3050  133.8980   61.0190 F   0  0  0  0  0  0  0  0  0  0  0  0
  127.4310  134.7120   60.3500 F   0  0  0  0  0  0  0  0  0  0  0  0
  127.8560  134.5330   62.4750 F   0  0  0  0  0  0  0  0  0  0  0  0
  127.2010  131.7300   60.1580 C   0  0  0  0  0  0  0  0  0  0  0  0
  127.6030  131.8750   58.7800 C   0  0  0  0  0  0  0  0  0  0  0  0
  128.2570  132.9840   58.3090 N   0  0  0  0  0  0  0  0  0  0  0  0
  1  2  1  0
  2  3  1  0
  3  4  1  0
  4  5  1  0
  5  6  1  0
  6  7  1  0
  7  8  1  0
  8  9  1  0
  9 10  1  0
 10 11  1  0
 11 12  1  0
 12 13  2  0
 12 14  1  0
 14 15  1  0
 15 16  1  0
 16 17  2  0
 17 18  1  0
 18 19  1  0
 19 20  2  0
 20 21  1  0
 21 22  2  0
 22 23  1  0
 23 24  2  0
 18 25  2  0
 25 26  1  0
 26 27  1  0
 27 28  1  0
 27 29  1  0
 27 30  1  0
 26 31  2  0
 31 32  1  0
 32 33  1  0
 32 14  2  0
 31 16  1  0
 24 19  1  0
M  END
>  <Binding energies>  (59) 
[-6.06]

>  <Ligand effiencies>  (59) 
[-0.16833333333333333]

>  <Interactions>  (59) 
["V-B:ARG:545:CZ:9898, V-B:HIS:456:CE1:9040, V-B:ARG:545:CG:9894, V-B:GLY:454:CA:9020, V-B:ARG:545:CD:9895, V-A:GLU:543:CD:4908, V-A:ILE:538:CA:4860, H-B:TYR:531:OH:9767, H-A:TYR:539:N:4870, V-A:TYR:539:CZ:4877, V-A:PRO:540:CD:4887, V-A:TYR:539:C:4867, V-A:TYR:539:CG:4872, V-A:PRO:540:CB:4885, V-A:PRO:540:N:4884, V-A:TYR:539:CE1:4875, V-A:PRO:540:CA:4883, V-A:TYR:539:CD1:4873, V-B:LEU:475:CD1:9229, V-B:PRO:482:CG:9298, V-A:TYR:539:CE2:4876, H-A:ALA:541:N:4891, V-A:ALA:541:CB:4892, V-A:TYR:539:CD2:4874, H-A:TYR:539:OH:4878, H-A:TYR:539:O:4868, V-A:ASN:362:CB:3176, V-A:ALA:541:CA:4890, V-A:ALA:541:C:4888, V-A:PRO:540:C:4881"]

$$$$
4dd_Grossjean_2025
     RDKit          3D

 26 29  0  0  0  0  0  0  0  0999 V2000
  131.8330  131.1760   60.9870 C   0  0  0  0  0  0  0  0  0  0  0  0
  130.6880  131.4250   60.0170 C   0  0  0  0  0  0  0  0  0  0  0  0
  130.9930  131.5680   58.6580 C   0  0  0  0  0  0  0  0  0  0  0  0
  129.9840  131.7980   57.7150 C   0  0  0  0  0  0  0  0  0  0  0  0
  130.2820  131.9610   56.2530 C   0  0  0  0  0  0  0  0  0  0  0  0
  131.6010  132.1220   55.8010 C   0  0  0  0  0  0  0  0  0  0  0  0
  131.8850  132.2700   54.4460 C   0  0  0  0  0  0  0  0  0  0  0  0
  130.8480  132.2610   53.5200 C   0  0  0  0  0  0  0  0  0  0  0  0
  129.5320  132.1020   53.9390 C   0  0  0  0  0  0  0  0  0  0  0  0
  129.2530  131.9520   55.2950 C   0  0  0  0  0  0  0  0  0  0  0  0
  128.6750  131.9060   58.0740 N   0  0  0  0  0  0  0  0  0  0  0  0
  128.3830  131.7640   59.3660 C   0  0  0  0  0  0  0  0  0  0  0  0
  126.7420  131.8600   59.9620 S   0  0  0  0  0  0  0  0  0  0  0  0
  127.2770  131.5740   61.6200 C   0  0  0  0  0  0  0  0  0  0  0  0
  126.3050  131.5120   62.7120 C   0  0  0  0  0  0  0  0  0  0  0  0
  125.5390  132.4540   62.9250 O   0  0  0  0  0  0  0  0  0  0  0  0
  126.3170  130.3670   63.4370 N   0  0  0  0  0  0  0  0  0  0  0  0
  125.5600  130.0140   64.5690 C   0  0  0  0  0  0  0  0  0  0  0  0
  126.2450  129.3160   65.5680 C   0  0  0  0  0  0  0  0  0  0  0  0
  125.5870  128.9350   66.7350 C   0  0  0  0  0  0  0  0  0  0  0  0
  124.2440  129.2580   66.9060 C   0  0  0  0  0  0  0  0  0  0  0  0
  123.5530  129.9630   65.9250 C   0  0  0  0  0  0  0  0  0  0  0  0
  124.2080  130.3460   64.7570 C   0  0  0  0  0  0  0  0  0  0  0  0
  128.6710  131.4200   61.6810 C   0  0  0  0  0  0  0  0  0  0  0  0
  129.3640  131.1910   62.8440 N   0  0  0  0  0  0  0  0  0  0  0  0
  129.3260  131.5210   60.4040 C   0  0  0  0  0  0  0  0  0  0  0  0
  1  2  1  0
  2  3  2  0
  3  4  1  0
  4  5  1  0
  5  6  2  0
  6  7  1  0
  7  8  2  0
  8  9  1  0
  9 10  2  0
  4 11  2  0
 11 12  1  0
 12 13  1  0
 13 14  1  0
 14 15  1  0
 15 16  2  0
 15 17  1  0
 17 18  1  0
 18 19  2  0
 19 20  1  0
 20 21  2  0
 21 22  1  0
 22 23  2  0
 14 24  2  0
 24 25  1  0
 24 26  1  0
 26  2  1  0
 10  5  1  0
 26 12  2  0
 23 18  1  0
M  END
>  <Binding energies>  (60) 
[-8.11]

>  <Ligand effiencies>  (60) 
[-0.27965517241379306]

>  <Interactions>  (60) 
["V-B:ARG:545:CZ:9898, V-B:HIS:456:CE1:9040, V-B:GLY:453:C:9013, V-B:ARG:545:CG:9894, V-B:GLY:454:CA:9020, V-B:ARG:545:CD:9895, V-A:GLU:543:CD:4908, H-A:GLU:543:OE1:4909, V-A:ILE:538:CG2:4863, V-A:ILE:538:CD1:4865, V-A:ILE:538:CA:4860, V-A:LEU:363:CD1:3189, V-A:TYR:531:CE2:4793, V-A:TYR:539:CZ:4877, V-A:PRO:540:CB:4885, V-A:PRO:540:N:4884, V-A:TYR:539:CE1:4875, V-A:PRO:540:CA:4883, V-A:TYR:539:CD1:4873, V-A:TYR:539:CE2:4876, V-A:ALA:541:CB:4892, V-A:VAL:537:C:4850, V-B:GLY:453:CA:9015, V-B:GLY:454:C:9018"]

$$$$
4dg_Grossjean_2025
     RDKit          3D

 27 30  0  0  0  0  0  0  0  0999 V2000
  131.9870  131.2620   60.8770 C   0  0  0  0  0  0  0  0  0  0  0  0
  130.8350  131.5320   59.9200 C   0  0  0  0  0  0  0  0  0  0  0  0
  131.1200  131.6130   58.5520 C   0  0  0  0  0  0  0  0  0  0  0  0
  130.1050  131.8590   57.6190 C   0  0  0  0  0  0  0  0  0  0  0  0
  130.3790  131.9500   56.1440 C   0  0  0  0  0  0  0  0  0  0  0  0
  129.3360  132.1670   55.2290 C   0  0  0  0  0  0  0  0  0  0  0  0
  129.5840  132.2480   53.8610 C   0  0  0  0  0  0  0  0  0  0  0  0
  130.8840  132.1140   53.3860 C   0  0  0  0  0  0  0  0  0  0  0  0
  131.9360  131.8950   54.2700 C   0  0  0  0  0  0  0  0  0  0  0  0
  131.6830  131.8130   55.6360 C   0  0  0  0  0  0  0  0  0  0  0  0
  128.8060  132.0110   57.9950 N   0  0  0  0  0  0  0  0  0  0  0  0
  128.5340  131.9350   59.2980 C   0  0  0  0  0  0  0  0  0  0  0  0
  126.9090  132.1180   59.9160 S   0  0  0  0  0  0  0  0  0  0  0  0
  127.4660  131.8830   61.5720 C   0  0  0  0  0  0  0  0  0  0  0  0
  126.5210  131.9650   62.6840 C   0  0  0  0  0  0  0  0  0  0  0  0
  126.7250  132.7060   63.6480 O   0  0  0  0  0  0  0  0  0  0  0  0
  125.4430  131.1570   62.6030 N   0  0  0  0  0  0  0  0  0  0  0  0
  124.3610  131.0870   63.5830 C   0  0  0  0  0  0  0  0  0  0  0  0
  124.7050  130.2430   64.8060 C   0  0  0  0  0  0  0  0  0  0  0  0
  123.7530  130.0610   65.8140 C   0  0  0  0  0  0  0  0  0  0  0  0
  124.0520  129.2660   66.9160 C   0  0  0  0  0  0  0  0  0  0  0  0
  125.2970  128.6460   67.0030 C   0  0  0  0  0  0  0  0  0  0  0  0
  126.2440  128.8090   65.9940 C   0  0  0  0  0  0  0  0  0  0  0  0
  125.9440  129.6040   64.8900 C   0  0  0  0  0  0  0  0  0  0  0  0
  128.8550  131.6890   61.6200 C   0  0  0  0  0  0  0  0  0  0  0  0
  129.5590  131.4960   62.7820 N   0  0  0  0  0  0  0  0  0  0  0  0
  129.4880  131.7020   60.3290 C   0  0  0  0  0  0  0  0  0  0  0  0
  1  2  1  0
  2  3  2  0
  3  4  1  0
  4  5  1  0
  5  6  2  0
  6  7  1  0
  7  8  2  0
  8  9  1  0
  9 10  2  0
  4 11  2  0
 11 12  1  0
 12 13  1  0
 13 14  1  0
 14 15  1  0
 15 16  2  0
 15 17  1  0
 17 18  1  0
 18 19  1  0
 19 20  2  0
 20 21  1  0
 21 22  2  0
 22 23  1  0
 23 24  2  0
 14 25  2  0
 25 26  1  0
 25 27  1  0
 27  2  1  0
 10  5  1  0
 27 12  2  0
 24 19  1  0
M  END
>  <Binding energies>  (61) 
[-8.23]

>  <Ligand effiencies>  (61) 
[-0.2743333333333334]

>  <Interactions>  (61) 
["V-B:ARG:545:CZ:9898, V-B:HIS:456:CE1:9040, V-B:GLY:453:C:9013, V-B:ARG:545:CG:9894, V-B:GLY:454:CA:9020, V-B:ARG:545:CD:9895, V-A:GLU:543:CD:4908, H-B:TYR:484:OH:9319, H-A:GLU:543:OE1:4909, V-A:ILE:538:CD1:4865, V-A:ILE:538:CA:4860, V-A:LEU:363:CD1:3189, V-A:TYR:531:CE2:4793, V-A:TYR:539:C:4867, V-A:MET:535:CB:4832, V-A:PRO:540:CB:4885, V-A:PRO:540:N:4884, V-A:TYR:539:CE1:4875, V-A:PRO:540:CA:4883, V-A:TYR:539:CD1:4873, V-B:LEU:475:CD1:9229, V-A:TYR:539:CE2:4876, V-A:ALA:541:CB:4892, V-A:TYR:531:CZ:4794, V-B:ARG:545:CB:9893, V-B:ILE:455:C:9023"]

$$$$
4dj_Grossjean_2025
     RDKit          3D

 25 28  0  0  0  0  0  0  0  0999 V2000
  129.9960  125.8340   65.1540 C   0  0  0  0  0  0  0  0  0  0  0  0
  128.9860  126.6210   65.9760 C   0  0  0  0  0  0  0  0  0  0  0  0
  128.1780  127.5520   65.3130 C   0  0  0  0  0  0  0  0  0  0  0  0
  127.2310  128.3100   66.0120 C   0  0  0  0  0  0  0  0  0  0  0  0
  126.3460  129.3120   65.3260 C   0  0  0  0  0  0  0  0  0  0  0  0
  124.9600  129.3240   65.5530 C   0  0  0  0  0  0  0  0  0  0  0  0
  124.1350  130.2500   64.9210 C   0  0  0  0  0  0  0  0  0  0  0  0
  124.6860  131.1790   64.0440 C   0  0  0  0  0  0  0  0  0  0  0  0
  126.0540  131.1870   63.7970 C   0  0  0  0  0  0  0  0  0  0  0  0
  126.8750  130.2600   64.4320 C   0  0  0  0  0  0  0  0  0  0  0  0
  127.0420  128.1650   67.3510 N   0  0  0  0  0  0  0  0  0  0  0  0
  127.8100  127.2800   67.9840 C   0  0  0  0  0  0  0  0  0  0  0  0
  127.6790  126.9990   69.7060 S   0  0  0  0  0  0  0  0  0  0  0  0
  128.9570  125.7840   69.6530 C   0  0  0  0  0  0  0  0  0  0  0  0
  129.3810  125.1010   70.8770 C   0  0  0  0  0  0  0  0  0  0  0  0
  129.5150  125.7260   71.9320 O   0  0  0  0  0  0  0  0  0  0  0  0
  129.6130  123.7720   70.7530 N   0  0  0  0  0  0  0  0  0  0  0  0
  130.0230  122.8990   71.7520 C   0  0  0  0  0  0  0  0  0  0  0  0
  129.4410  121.7850   72.1400 N   0  0  0  0  0  0  0  0  0  0  0  0
  130.1080  121.2050   73.1190 C   0  0  0  0  0  0  0  0  0  0  0  0
  131.2630  121.8530   73.5450 C   0  0  0  0  0  0  0  0  0  0  0  0
  131.4780  123.3010   72.6060 S   0  0  0  0  0  0  0  0  0  0  0  0
  129.4500  125.6250   68.3490 C   0  0  0  0  0  0  0  0  0  0  0  0
  130.4510  124.7480   68.0130 N   0  0  0  0  0  0  0  0  0  0  0  0
  128.8090  126.4670   67.3750 C   0  0  0  0  0  0  0  0  0  0  0  0
  1  2  1  0
  2  3  2  0
  3  4  1  0
  4  5  1  0
  5  6  2  0
  6  7  1  0
  7  8  2  0
  8  9  1  0
  9 10  2  0
  4 11  2  0
 11 12  1  0
 12 13  1  0
 13 14  1  0
 14 15  1  0
 15 16  2  0
 15 17  1  0
 17 18  1  0
 18 19  2  0
 19 20  1  0
 20 21  2  0
 21 22  1  0
 14 23  2  0
 23 24  1  0
 23 25  1  0
 25  2  1  0
 10  5  1  0
 25 12  2  0
 22 18  1  0
M  END
>  <Binding energies>  (62) 
[-7.96]

>  <Ligand effiencies>  (62) 
[-0.2842857142857143]

>  <Interactions>  (62) 
["V-A:HIS:456:CE1:4069, V-A:HIS:456:CD2:4068, V-A:TYR:484:CZ:4347, V-B:ARG:545:CZ:9898, H-B:LYS:547:NZ:9923, H-A:HIS:456:ND1:4067, V-B:GLU:543:CB:9878, V-B:HIS:456:CE1:9040, V-A:TYR:484:CE2:4346, V-A:HIS:456:CG:4066, V-B:GLU:543:C:9874, V-B:GLY:454:CA:9020, V-A:TYR:484:CD2:4344, H-A:TYR:484:OH:4348, V-A:TYR:484:CD1:4343, H-B:GLU:543:O:9875, V-A:TYR:484:CE1:4345, V-B:ARG:545:CD:9895, V-A:TYR:484:CG:4342, V-B:GLU:543:CD:9880, V-A:ASP:473:CB:4239, V-A:HIS:456:CB:4065, V-A:ASP:473:CG:4240, H-A:HIS:456:NE2:4070, V-A:TYR:484:CB:4341"]

$$$$
4ea_Grossjean_2025
     RDKit          3D

 31 34  0  0  0  0  0  0  0  0999 V2000
  129.0930  131.8560   53.6050 C   0  0  0  0  0  0  0  0  0  0  0  0
  130.5720  132.2170   53.7740 C   0  0  0  0  0  0  0  0  0  0  0  0
  130.7370  132.9940   54.9520 O   0  0  0  0  0  0  0  0  0  0  0  0
  131.5310  132.5670   55.9690 C   0  0  0  0  0  0  0  0  0  0  0  0
  132.7590  132.4790   55.8800 O   0  0  0  0  0  0  0  0  0  0  0  0
  130.7650  132.2140   57.2110 C   0  0  0  0  0  0  0  0  0  0  0  0
  129.4380  132.6430   57.3400 C   0  0  0  0  0  0  0  0  0  0  0  0
  128.7010  132.3320   58.4790 C   0  0  0  0  0  0  0  0  0  0  0  0
  129.2730  131.5870   59.5110 C   0  0  0  0  0  0  0  0  0  0  0  0
  128.4340  131.3330   60.6130 N   0  0  0  0  0  0  0  0  0  0  0  0
  127.6350  132.1700   61.3200 C   0  0  0  0  0  0  0  0  0  0  0  0
  127.5120  133.3730   61.0870 O   0  0  0  0  0  0  0  0  0  0  0  0
  126.8950  131.5450   62.4200 C   0  0  0  0  0  0  0  0  0  0  0  0
  125.1840  131.9070   62.6640 S   0  0  0  0  0  0  0  0  0  0  0  0
  125.1070  130.8430   64.0500 C   0  0  0  0  0  0  0  0  0  0  0  0
  123.9790  130.6650   64.7400 N   0  0  0  0  0  0  0  0  0  0  0  0
  124.0530  129.8140   65.7930 C   0  0  0  0  0  0  0  0  0  0  0  0
  122.7600  129.6270   66.5640 C   0  0  0  0  0  0  0  0  0  0  0  0
  125.2160  129.1430   66.1670 C   0  0  0  0  0  0  0  0  0  0  0  0
  126.3960  129.3330   65.4400 C   0  0  0  0  0  0  0  0  0  0  0  0
  127.6230  128.6130   65.8500 C   0  0  0  0  0  0  0  0  0  0  0  0
  128.2630  128.9420   67.0490 C   0  0  0  0  0  0  0  0  0  0  0  0
  129.4160  128.2640   67.4360 C   0  0  0  0  0  0  0  0  0  0  0  0
  129.9310  127.2580   66.6220 C   0  0  0  0  0  0  0  0  0  0  0  0
  129.3030  126.9260   65.4230 C   0  0  0  0  0  0  0  0  0  0  0  0
  128.1510  127.6050   65.0370 C   0  0  0  0  0  0  0  0  0  0  0  0
  126.3600  130.2180   64.3280 C   0  0  0  0  0  0  0  0  0  0  0  0
  127.3630  130.6370   63.3820 C   0  0  0  0  0  0  0  0  0  0  0  0
  128.6540  130.1780   63.4340 N   0  0  0  0  0  0  0  0  0  0  0  0
  130.6020  131.1530   59.3900 C   0  0  0  0  0  0  0  0  0  0  0  0
  131.3380  131.4650   58.2500 C   0  0  0  0  0  0  0  0  0  0  0  0
  1  2  1  0
  2  3  1  0
  3  4  1  0
  4  5  2  0
  4  6  1  0
  6  7  2  0
  7  8  1  0
  8  9  2  0
  9 10  1  0
 10 11  1  0
 11 12  2  0
 11 13  1  0
 13 14  1  0
 14 15  1  0
 15 16  2  0
 16 17  1  0
 17 18  1  0
 17 19  2  0
 19 20  1  0
 20 21  1  0
 21 22  2  0
 22 23  1  0
 23 24  2  0
 24 25  1  0
 25 26  2  0
 20 27  2  0
 27 28  1  0
 28 29  1  0
  9 30  1  0
 30 31  2  0
 31  6  1  0
 28 13  2  0
 27 15  1  0
 26 21  1  0
M  END
>  <Binding energies>  (63) 
[-9.27]

>  <Ligand effiencies>  (63) 
[-0.2726470588235294]

>  <Interactions>  (63) 
["V-A:HIS:456:CE1:4069, V-B:ARG:545:CZ:9898, H-B:GLY:454:N:9021, V-B:HIS:456:CE1:9040, V-B:GLY:453:C:9013, V-B:ARG:545:CG:9894, V-B:GLY:454:CA:9020, V-B:ARG:545:CD:9895, V-B:GLU:543:CD:9880, V-A:GLU:543:CD:4908, V-A:GLU:543:CB:4906, V-A:GLU:543:CG:4907, H-B:TYR:484:OH:9319, H-A:GLU:543:OE1:4909, V-A:ILE:538:CD1:4865, V-A:ILE:538:CA:4860, H-A:TYR:539:N:4870, V-A:TYR:539:CZ:4877, V-A:PRO:540:CD:4887, V-A:TYR:539:C:4867, V-A:TYR:539:CG:4872, V-A:PRO:540:CB:4885, V-A:PRO:540:N:4884, V-A:TYR:539:CE1:4875, V-A:PRO:540:CA:4883, V-A:TYR:539:CD1:4873, V-A:TYR:539:CA:4869, V-B:LEU:475:CD1:9229, V-A:TYR:539:CE2:4876, V-A:TYR:539:CD2:4874, V-B:ILE:455:C:9023, V-B:GLY:453:CA:9015, V-B:GLY:454:C:9018, V-B:ILE:455:CA:9025"]

$$$$
4eb_Grossjean_2025
     RDKit          3D

 30 33  0  0  0  0  0  0  0  0999 V2000
  130.4100  132.1970   53.6520 C   0  0  0  0  0  0  0  0  0  0  0  0
  130.6320  133.0240   54.7850 O   0  0  0  0  0  0  0  0  0  0  0  0
  131.4430  132.6200   55.7970 C   0  0  0  0  0  0  0  0  0  0  0  0
  132.6710  132.5470   55.6960 O   0  0  0  0  0  0  0  0  0  0  0  0
  130.6960  132.2710   57.0520 C   0  0  0  0  0  0  0  0  0  0  0  0
  129.3460  132.6300   57.1670 C   0  0  0  0  0  0  0  0  0  0  0  0
  128.6270  132.3210   58.3170 C   0  0  0  0  0  0  0  0  0  0  0  0
  129.2390  131.6470   59.3750 C   0  0  0  0  0  0  0  0  0  0  0  0
  128.4140  131.3870   60.4870 N   0  0  0  0  0  0  0  0  0  0  0  0
  127.7920  132.2400   61.3370 C   0  0  0  0  0  0  0  0  0  0  0  0
  127.8580  133.4670   61.2600 O   0  0  0  0  0  0  0  0  0  0  0  0
  127.0040  131.6040   62.3960 C   0  0  0  0  0  0  0  0  0  0  0  0
  125.2790  131.9460   62.5530 S   0  0  0  0  0  0  0  0  0  0  0  0
  125.1440  130.8760   63.9300 C   0  0  0  0  0  0  0  0  0  0  0  0
  123.9840  130.6840   64.5610 N   0  0  0  0  0  0  0  0  0  0  0  0
  124.0130  129.8310   65.6140 C   0  0  0  0  0  0  0  0  0  0  0  0
  122.6830  129.6270   66.3170 C   0  0  0  0  0  0  0  0  0  0  0  0
  125.1620  129.1720   66.0460 C   0  0  0  0  0  0  0  0  0  0  0  0
  126.3760  129.3770   65.3810 C   0  0  0  0  0  0  0  0  0  0  0  0
  127.5890  128.6700   65.8530 C   0  0  0  0  0  0  0  0  0  0  0  0
  128.0710  127.5600   65.1520 C   0  0  0  0  0  0  0  0  0  0  0  0
  129.2130  126.8960   65.5940 C   0  0  0  0  0  0  0  0  0  0  0  0
  129.8700  127.3400   66.7390 C   0  0  0  0  0  0  0  0  0  0  0  0
  129.3950  128.4430   67.4450 C   0  0  0  0  0  0  0  0  0  0  0  0
  128.2540  129.1060   67.0020 C   0  0  0  0  0  0  0  0  0  0  0  0
  126.3880  130.2650   64.2710 C   0  0  0  0  0  0  0  0  0  0  0  0
  127.4310  130.6980   63.3800 C   0  0  0  0  0  0  0  0  0  0  0  0
  128.7250  130.2540   63.4960 N   0  0  0  0  0  0  0  0  0  0  0  0
  130.5900  131.2830   59.2690 C   0  0  0  0  0  0  0  0  0  0  0  0
  131.3080  131.5930   58.1180 C   0  0  0  0  0  0  0  0  0  0  0  0
  1  2  1  0
  2  3  1  0
  3  4  2  0
  3  5  1  0
  5  6  2  0
  6  7  1  0
  7  8  2  0
  8  9  1  0
  9 10  1  0
 10 11  2  0
 10 12  1  0
 12 13  1  0
 13 14  1  0
 14 15  2  0
 15 16  1  0
 16 17  1  0
 16 18  2  0
 18 19  1  0
 19 20  1  0
 20 21  2  0
 21 22  1  0
 22 23  2  0
 23 24  1  0
 24 25  2  0
 19 26  2  0
 26 27  1  0
 27 28  1  0
  8 29  1  0
 29 30  2  0
 30  5  1  0
 27 12  2  0
 26 14  1  0
 25 20  1  0
M  END
>  <Binding energies>  (64) 
[-9.0]

>  <Ligand effiencies>  (64) 
[-0.2727272727272727]

>  <Interactions>  (64) 
["V-A:HIS:456:CE1:4069, V-B:ARG:545:CZ:9898, H-B:GLY:454:N:9021, V-B:HIS:456:CE1:9040, V-B:GLY:453:C:9013, V-B:ARG:545:CG:9894, V-B:GLY:454:CA:9020, V-B:ARG:545:CD:9895, V-B:GLU:543:CD:9880, V-A:GLU:543:CD:4908, H-A:GLU:543:OE2:4910, V-A:GLU:543:CB:4906, V-A:GLU:543:CG:4907, H-B:TYR:484:OH:9319, H-A:GLU:543:OE1:4909, V-A:ILE:538:CD1:4865, V-A:ILE:538:CA:4860, H-A:TYR:539:N:4870, V-A:TYR:539:CZ:4877, V-A:PRO:540:CD:4887, V-A:TYR:539:C:4867, V-A:TYR:539:CG:4872, V-A:PRO:540:CB:4885, V-A:PRO:540:N:4884, V-A:TYR:539:CE1:4875, V-A:PRO:540:CA:4883, V-A:TYR:539:CD1:4873, V-A:TYR:539:CA:4869, V-B:LEU:475:CD1:9229, V-A:TYR:539:CE2:4876, V-A:TYR:539:CD2:4874, V-B:ILE:455:C:9023, V-B:GLY:453:CA:9015, V-B:GLY:454:C:9018"]

$$$$
8b_Ghoteimi_2023
     RDKit          3D

 34 38  0  0  0  0  0  0  0  0999 V2000
  123.4050  131.6510   61.9620 C   0  0  0  0  0  0  0  0  0  0  0  0
  123.8490  131.9330   63.2860 O   0  0  0  0  0  0  0  0  0  0  0  0
  124.7010  131.0460   63.9140 C   0  0  0  0  0  0  0  0  0  0  0  0
  124.1380  130.2250   64.8890 C   0  0  0  0  0  0  0  0  0  0  0  0
  124.9200  129.3010   65.5750 C   0  0  0  0  0  0  0  0  0  0  0  0
  126.2900  129.1740   65.3020 C   0  0  0  0  0  0  0  0  0  0  0  0
  127.1360  128.1830   66.0380 C   0  0  0  0  0  0  0  0  0  0  0  0
  128.1560  127.4680   65.4010 C   0  0  0  0  0  0  0  0  0  0  0  0
  128.9330  126.5490   66.1110 C   0  0  0  0  0  0  0  0  0  0  0  0
  129.9980  125.8010   65.4040 C   0  0  0  0  0  0  0  0  0  0  0  0
  131.3210  125.8770   65.8450 C   0  0  0  0  0  0  0  0  0  0  0  0
  132.3190  125.1650   65.1850 C   0  0  0  0  0  0  0  0  0  0  0  0
  132.0130  124.3720   64.0780 C   0  0  0  0  0  0  0  0  0  0  0  0
  133.0670  123.7020   63.4880 O   0  0  0  0  0  0  0  0  0  0  0  0
  133.8640  124.3750   62.5200 C   0  0  0  0  0  0  0  0  0  0  0  0
  130.6830  124.3020   63.6350 C   0  0  0  0  0  0  0  0  0  0  0  0
  129.6850  125.0130   64.2960 C   0  0  0  0  0  0  0  0  0  0  0  0
  128.6600  126.3700   67.4940 C   0  0  0  0  0  0  0  0  0  0  0  0
  129.2520  125.5340   68.5060 C   0  0  0  0  0  0  0  0  0  0  0  0
  130.2950  124.6850   68.2380 N   0  0  0  0  0  0  0  0  0  0  0  0
  128.6650  125.6740   69.7730 C   0  0  0  0  0  0  0  0  0  0  0  0
  129.0140  124.9890   71.0200 C   0  0  0  0  0  0  0  0  0  0  0  0
  128.8090  125.5250   72.1110 O   0  0  0  0  0  0  0  0  0  0  0  0
  129.5650  123.7570   70.8720 N   0  0  0  0  0  0  0  0  0  0  0  0
  129.9830  122.8930   71.8750 C   0  0  0  0  0  0  0  0  0  0  0  0
  131.1330  123.1070   72.6340 C   0  0  0  0  0  0  0  0  0  0  0  0
  131.1940  122.0380   73.5000 C   0  0  0  0  0  0  0  0  0  0  0  0
  130.1350  121.2260   73.2760 O   0  0  0  0  0  0  0  0  0  0  0  0
  129.3730  121.7780   72.2450 N   0  0  0  0  0  0  0  0  0  0  0  0
  127.3560  126.8570   69.7420 S   0  0  0  0  0  0  0  0  0  0  0  0
  127.6030  127.1550   68.0370 C   0  0  0  0  0  0  0  0  0  0  0  0
  126.8600  128.0300   67.3610 N   0  0  0  0  0  0  0  0  0  0  0  0
  126.8500  130.0000   64.3190 C   0  0  0  0  0  0  0  0  0  0  0  0
  126.0700  130.9260   63.6320 C   0  0  0  0  0  0  0  0  0  0  0  0
  1  2  1  0
  2  3  1  0
  3  4  2  0
  4  5  1  0
  5  6  2  0
  6  7  1  0
  7  8  2  0
  8  9  1  0
  9 10  1  0
 10 11  2  0
 11 12  1  0
 12 13  2  0
 13 14  1  0
 14 15  1  0
 13 16  1  0
 16 17  2  0
  9 18  2  0
 18 19  1  0
 19 20  1  0
 19 21  2  0
 21 22  1  0
 22 23  2  0
 22 24  1  0
 24 25  1  0
 25 26  1  0
 26 27  2  0
 27 28  1  0
 28 29  1  0
 21 30  1  0
 30 31  1  0
 31 32  2  0
  6 33  1  0
 33 34  2  0
 34  3  1  0
 32  7  1  0
 17 10  1  0
 31 18  1  0
 29 25  2  0
M  END
>  <Binding energies>  (65) 
[-9.63]

>  <Ligand effiencies>  (65) 
[-0.2602702702702703]

>  <Interactions>  (65) 
["V-A:HIS:456:CE1:4069, V-A:TYR:484:CZ:4347, V-B:ARG:545:CZ:9898, H-B:GLY:454:N:9021, H-B:LYS:547:NZ:9923, H-A:HIS:456:ND1:4067, V-B:GLU:543:CB:9878, V-B:HIS:456:CE1:9040, V-A:TYR:484:CE2:4346, V-A:HIS:456:CG:4066, V-B:GLU:543:C:9874, V-B:GLY:454:CA:9020, V-A:TYR:484:CD2:4344, H-A:TYR:484:OH:4348, V-A:TYR:484:CD1:4343, H-B:GLU:543:O:9875, V-A:TYR:484:CE1:4345, V-B:ARG:545:CD:9895, V-A:TYR:484:CG:4342, V-B:GLU:543:CD:9880, V-A:GLU:543:CD:4908, H-A:GLY:454:N:4050, V-A:ASP:473:CB:4239, V-A:ARG:545:CZ:4926, V-A:HIS:456:CB:4065, V-A:ASP:473:CG:4240, V-B:GLU:543:CG:9879, V-B:ILE:369:CD1:8210, V-B:GLY:544:C:9884, V-A:TYR:484:CB:4341"]

$$$$
9d_Ghoteimi_2023
     RDKit          3D

 38 43  0  0  0  0  0  0  0  0999 V2000
  132.8260  124.4750   64.6970 C   0  0  0  0  0  0  0  0  0  0  0  0
  132.1170  123.2940   64.3490 O   0  0  0  0  0  0  0  0  0  0  0  0
  130.7930  123.1690   64.6270 C   0  0  0  0  0  0  0  0  0  0  0  0
  130.2110  122.0870   64.7380 O   0  0  0  0  0  0  0  0  0  0  0  0
  130.1110  124.4730   64.7780 C   0  0  0  0  0  0  0  0  0  0  0  0
  129.7370  125.4390   63.3520 S   0  0  0  0  0  0  0  0  0  0  0  0
  128.9850  126.6730   64.3360 C   0  0  0  0  0  0  0  0  0  0  0  0
  128.4250  127.7530   63.7930 N   0  0  0  0  0  0  0  0  0  0  0  0
  127.8520  128.6450   64.6430 C   0  0  0  0  0  0  0  0  0  0  0  0
  127.2070  129.8360   64.0100 C   0  0  0  0  0  0  0  0  0  0  0  0
  125.8960  129.7630   63.5310 C   0  0  0  0  0  0  0  0  0  0  0  0
  125.2870  130.8660   62.9380 C   0  0  0  0  0  0  0  0  0  0  0  0
  125.9660  132.0880   62.8140 C   0  0  0  0  0  0  0  0  0  0  0  0
  125.3750  133.2000   62.2040 N   0  0  0  0  0  0  0  0  0  0  0  0
  126.0000  133.8630   61.0420 C   0  0  0  0  0  0  0  0  0  0  0  0
  125.4100  135.2530   60.7230 C   0  0  0  0  0  0  0  0  0  0  0  0
  124.0050  135.1580   60.5600 O   0  0  0  0  0  0  0  0  0  0  0  0
  123.3760  134.6820   61.7380 C   0  0  0  0  0  0  0  0  0  0  0  0
  123.9030  133.2740   62.0910 C   0  0  0  0  0  0  0  0  0  0  0  0
  127.2870  132.1520   63.2820 C   0  0  0  0  0  0  0  0  0  0  0  0
  127.8960  131.0470   63.8720 C   0  0  0  0  0  0  0  0  0  0  0  0
  127.8690  128.4700   66.0300 C   0  0  0  0  0  0  0  0  0  0  0  0
  128.4730  127.3470   66.6060 C   0  0  0  0  0  0  0  0  0  0  0  0
  128.4880  127.2240   68.0870 C   0  0  0  0  0  0  0  0  0  0  0  0
  129.3770  127.9780   68.8560 C   0  0  0  0  0  0  0  0  0  0  0  0
  129.3740  127.8740   70.2450 C   0  0  0  0  0  0  0  0  0  0  0  0
  128.4700  127.0240   70.9020 C   0  0  0  0  0  0  0  0  0  0  0  0
  128.4540  126.8950   72.2920 N   0  0  0  0  0  0  0  0  0  0  0  0
  129.3640  125.9260   72.9330 C   0  0  0  0  0  0  0  0  0  0  0  0
  129.5270  126.1570   74.4510 C   0  0  0  0  0  0  0  0  0  0  0  0
  128.2560  126.1540   75.0840 O   0  0  0  0  0  0  0  0  0  0  0  0
  127.4120  127.1750   74.5710 C   0  0  0  0  0  0  0  0  0  0  0  0
  127.1940  126.9650   73.0570 C   0  0  0  0  0  0  0  0  0  0  0  0
  127.5830  126.2710   70.1190 C   0  0  0  0  0  0  0  0  0  0  0  0
  127.5870  126.3750   68.7310 C   0  0  0  0  0  0  0  0  0  0  0  0
  129.0430  126.3800   65.7310 C   0  0  0  0  0  0  0  0  0  0  0  0
  129.6760  125.1050   65.9500 C   0  0  0  0  0  0  0  0  0  0  0  0
  129.8190  124.5490   67.1950 N   0  0  0  0  0  0  0  0  0  0  0  0
  1  2  1  0
  2  3  1  0
  3  4  2  0
  3  5  1  0
  5  6  1  0
  6  7  1  0
  7  8  2  0
  8  9  1  0
  9 10  1  0
 10 11  2  0
 11 12  1  0
 12 13  2  0
 13 14  1  0
 14 15  1  0
 15 16  1  0
 16 17  1  0
 17 18  1  0
 18 19  1  0
 13 20  1  0
 20 21  2  0
  9 22  2  0
 22 23  1  0
 23 24  1  0
 24 25  2  0
 25 26  1  0
 26 27  2  0
 27 28  1  0
 28 29  1  0
 29 30  1  0
 30 31  1  0
 31 32  1  0
 32 33  1  0
 27 34  1  0
 34 35  2  0
 23 36  2  0
 36 37  1  0
 37 38  1  0
 37  5  2  0
 36  7  1  0
 21 10  1  0
 35 24  1  0
 19 14  1  0
 33 28  1  0
M  END
>  <Binding energies>  (66) 
[-9.46]

>  <Ligand effiencies>  (66) 
[-0.23650000000000002]

>  <Interactions>  (66) 
["V-A:HIS:456:CE1:4069, V-A:HIS:456:CD2:4068, V-A:TYR:484:CZ:4347, H-B:LYS:547:NZ:9923, H-A:HIS:456:ND1:4067, V-B:GLU:543:CB:9878, V-B:HIS:456:CE1:9040, V-B:GLU:543:C:9874, V-B:GLY:454:CA:9020, H-A:TYR:484:OH:4348, H-B:GLU:543:O:9875, V-A:TYR:484:CE1:4345, V-B:GLU:543:CD:9880, V-A:GLU:543:CD:4908, V-B:GLU:543:CG:9879, V-B:LEU:475:CD1:9229, V-A:TYR:539:CE2:4876, V-A:ALA:541:CB:4892, V-A:TYR:539:CD2:4874, V-B:ILE:369:CG2:8208, V-B:TRP:381:CZ2:8341, V-B:TRP:381:CH2:8343, V-B:GLU:543:CA:9876, V-B:ILE:369:CD1:8210, V-B:GLY:544:C:9884, V-B:TRP:381:CZ3:8342"]

$$$$
RR10_Rahimova_2017
     RDKit          3D

 34 38  0  0  0  0  0  0  0  0999 V2000
  124.4320  130.1390   64.1680 C   0  0  0  0  0  0  0  0  0  0  0  0
  124.1220  130.9020   62.8680 C   0  0  1  0  0  0  0  0  0  0  0  0
  124.7770  132.3030   62.8510 C   0  0  0  0  0  0  0  0  0  0  0  0
  124.4240  133.0640   61.5530 C   0  0  0  0  0  0  0  0  0  0  0  0
  124.8560  132.2860   60.2840 C   0  0  1  0  0  0  0  0  0  0  0  0
  126.3200  132.2280   60.1810 N   0  0  0  0  0  0  0  0  0  0  0  0
  127.1500  133.2830   60.2730 C   0  0  0  0  0  0  0  0  0  0  0  0
  126.7550  134.4330   60.4800 O   0  0  0  0  0  0  0  0  0  0  0  0
  128.6560  132.9990   60.0920 C   0  0  1  0  0  0  0  0  0  0  0  0
  129.1020  131.9170   61.1100 C   0  0  0  0  0  0  0  0  0  0  0  0
  130.5890  131.5620   60.8700 C   0  0  0  0  0  0  0  0  0  0  0  0
  130.8800  131.1970   59.3960 C   0  0  0  0  0  0  0  0  0  0  0  0
  130.3660  132.2520   58.4810 N   0  0  0  0  0  0  0  0  0  0  0  0
  130.9010  132.0910   56.8000 S   0  0  0  0  0  0  0  0  0  0  0  0
  132.2700  131.5600   56.8060 O   0  0  0  0  0  0  0  0  0  0  0  0
  130.6000  133.3510   56.1090 O   0  0  0  0  0  0  0  0  0  0  0  0
  129.8570  130.8140   56.0990 C   0  0  0  0  0  0  0  0  0  0  0  0
  128.8420  131.1730   55.2050 C   0  0  0  0  0  0  0  0  0  0  0  0
  127.9930  130.2270   54.6260 C   0  0  0  0  0  0  0  0  0  0  0  0
  128.2080  128.8930   54.9830 C   0  0  0  0  0  0  0  0  0  0  0  0
  127.6020  127.7070   54.6440 N   0  0  0  0  0  0  0  0  0  0  0  0
  128.2500  126.6920   55.3170 C   0  0  0  0  0  0  0  0  0  0  0  0
  127.8640  125.2440   55.2080 C   0  0  0  0  0  0  0  0  0  0  0  0
  127.4540  124.5320   56.3430 C   0  0  0  0  0  0  0  0  0  0  0  0
  127.0920  123.1910   56.2430 C   0  0  0  0  0  0  0  0  0  0  0  0
  127.1410  122.5540   55.0060 C   0  0  0  0  0  0  0  0  0  0  0  0
  127.5460  123.2470   53.8690 C   0  0  0  0  0  0  0  0  0  0  0  0
  127.9070  124.5880   53.9700 C   0  0  0  0  0  0  0  0  0  0  0  0
  129.2360  127.1440   56.0600 N   0  0  0  0  0  0  0  0  0  0  0  0
  129.2330  128.5020   55.8770 C   0  0  0  0  0  0  0  0  0  0  0  0
  130.0720  129.4740   56.4410 C   0  0  0  0  0  0  0  0  0  0  0  0
  128.9140  132.5190   58.6420 C   0  0  0  0  0  0  0  0  0  0  0  0
  124.2050  130.8770   60.3230 C   0  0  0  0  0  0  0  0  0  0  0  0
  124.5620  130.1090   61.6150 C   0  0  0  0  0  0  0  0  0  0  0  0
  2  1  1  1
  2  3  1  0
  3  4  1  0
  4  5  1  0
  5  6  1  1
  6  7  1  0
  7  8  2  0
  9  7  1  6
  9 10  1  0
 10 11  1  0
 11 12  1  0
 12 13  1  0
 13 14  1  0
 14 15  2  0
 14 16  2  0
 14 17  1  0
 17 18  2  0
 18 19  1  0
 19 20  2  0
 20 21  1  0
 21 22  1  0
 22 23  1  0
 23 24  2  0
 24 25  1  0
 25 26  2  0
 26 27  1  0
 27 28  2  0
 22 29  2  0
 29 30  1  0
 30 31  2  0
 13 32  1  0
  5 33  1  0
 33 34  1  0
 34  2  1  0
 32  9  1  0
 31 17  1  0
 30 20  1  0
 28 23  1  0
M  END
>  <Binding energies>  (67) 
[-10.75]

>  <Ligand effiencies>  (67) 
[-0.2986111111111111]

>  <Interactions>  (67) 
["V-B:ARG:545:CZ:9898, V-B:GLY:454:CA:9020, V-B:ILE:538:CA:9832, V-B:ILE:538:C:9830, V-B:TYR:539:CD1:9845, V-B:ILE:538:CB:9834, V-B:TYR:539:CZ:9849, V-B:TYR:539:CE1:9847, V-B:ILE:538:CG2:9835, H-A:TYR:531:OH:4795, H-B:TYR:531:OH:9767, H-A:TYR:539:N:4870, V-A:PRO:540:CD:4887, V-A:TYR:539:C:4867, V-A:PRO:540:CB:4885, V-A:PRO:540:N:4884, V-A:TYR:539:CE1:4875, V-A:PRO:540:CA:4883, V-B:LEU:475:CD1:9229, V-A:TYR:539:CE2:4876, V-A:TYR:539:CD2:4874, V-B:ASP:366:CG:8184, H-B:MET:535:SD:9806, V-B:TYR:531:CZ:9766"]

$$$$
RR12_Rahimova_2017
     RDKit          3D

 26 28  0  0  0  0  0  0  0  0999 V2000
  133.8880  130.0200   57.8050 C   0  0  0  0  0  0  0  0  0  0  0  0
  133.0130  130.2200   56.5610 C   0  0  0  0  0  0  0  0  0  0  0  0
  132.7130  131.7040   56.2820 C   0  0  0  0  0  0  0  0  0  0  0  0
  131.3050  132.0030   56.5310 N   0  0  0  0  0  0  0  0  0  0  0  0
  130.3500  132.4000   55.6070 C   0  0  0  0  0  0  0  0  0  0  0  0
  130.6420  132.6390   54.1360 C   0  0  0  0  0  0  0  0  0  0  0  0
  130.9030  131.3300   53.3690 C   0  0  0  0  0  0  0  0  0  0  0  0
  129.6130  130.5370   53.0880 C   0  0  0  0  0  0  0  0  0  0  0  0
  129.3760  129.4420   54.0280 N   0  0  0  0  0  0  0  0  0  0  0  0
  128.2360  129.2490   54.7170 C   0  0  0  0  0  0  0  0  0  0  0  0
  127.2570  129.9930   54.6260 O   0  0  0  0  0  0  0  0  0  0  0  0
  128.2180  128.0230   55.6390 C   0  0  0  0  0  0  0  0  0  0  0  0
  129.0970  127.0240   55.1210 O   0  0  0  0  0  0  0  0  0  0  0  0
  128.5660  125.8550   54.6080 C   0  0  0  0  0  0  0  0  0  0  0  0
  129.4420  125.0400   53.8880 C   0  0  0  0  0  0  0  0  0  0  0  0
  129.0000  123.8410   53.3350 C   0  0  0  0  0  0  0  0  0  0  0  0
  127.6740  123.4520   53.5050 C   0  0  0  0  0  0  0  0  0  0  0  0
  126.7860  124.2540   54.2180 C   0  0  0  0  0  0  0  0  0  0  0  0
  127.2300  125.4540   54.7700 C   0  0  0  0  0  0  0  0  0  0  0  0
  129.1600  132.5680   56.1300 N   0  0  0  0  0  0  0  0  0  0  0  0
  129.3090  132.2490   57.4510 C   0  0  0  0  0  0  0  0  0  0  0  0
  128.3450  132.2440   58.4710 C   0  0  0  0  0  0  0  0  0  0  0  0
  128.7490  131.8700   59.7530 C   0  0  0  0  0  0  0  0  0  0  0  0
  130.0690  131.5080   60.0210 C   0  0  0  0  0  0  0  0  0  0  0  0
  131.0510  131.5050   59.0280 C   0  0  0  0  0  0  0  0  0  0  0  0
  130.6460  131.8820   57.7410 C   0  0  0  0  0  0  0  0  0  0  0  0
  1  2  1  0
  2  3  1  0
  3  4  1  0
  4  5  1  0
  5  6  1  0
  6  7  1  0
  7  8  1  0
  8  9  1  0
  9 10  1  0
 10 11  2  0
 10 12  1  0
 12 13  1  0
 13 14  1  0
 14 15  2  0
 15 16  1  0
 16 17  2  0
 17 18  1  0
 18 19  2  0
  5 20  2  0
 20 21  1  0
 21 22  2  0
 22 23  1  0
 23 24  2  0
 24 25  1  0
 25 26  2  0
 26  4  1  0
 19 14  1  0
 26 21  1  0
M  END
>  <Binding energies>  (68) 
[-7.27]

>  <Ligand effiencies>  (68) 
[-0.26925925925925925]

>  <Interactions>  (68) 
["V-A:ASP:366:CG:3213, V-B:ILE:538:CA:9832, V-B:TYR:539:CZ:9849, V-B:TYR:539:CE1:9847, V-B:ILE:538:CG2:9835, V-A:ASP:366:CB:3212, V-A:ILE:538:CD1:4865, H-A:TYR:531:OH:4795, V-A:ILE:538:CA:4860, H-B:TYR:531:OH:9767, V-A:LEU:363:CD1:3189, V-A:TYR:531:CE2:4793, V-A:MET:535:CE:4835, V-A:MET:535:CG:4833, H-A:TYR:539:N:4870, V-A:TYR:539:CZ:4877, V-A:PRO:540:CD:4887, V-A:TYR:539:C:4867, V-A:LEU:363:CA:3185, V-A:MET:535:CB:4832, V-A:PRO:540:CB:4885, V-A:PRO:540:N:4884, V-A:TYR:539:CE1:4875, V-A:PRO:540:CA:4883, V-A:TYR:539:CD1:4873, V-A:TYR:539:CE2:4876, V-A:TYR:539:CD2:4874, V-A:LEU:363:CB:3187, V-A:TYR:531:CZ:4794, V-B:MET:535:CG:9805"]

$$$$
RR13_Rahimova_2017
     RDKit          3D

 48 54  0  0  0  0  0  0  0  0999 V2000
  129.5300  130.0850   59.1200 Cl  0  0  0  0  0  0  0  0  0  0  0  0
  131.0690  129.9890   58.3310 C   0  0  0  0  0  0  0  0  0  0  0  0
  131.8140  131.1640   58.2140 C   0  0  0  0  0  0  0  0  0  0  0  0
  133.0490  131.1570   57.5710 C   0  0  0  0  0  0  0  0  0  0  0  0
  133.5470  129.9710   57.0380 C   0  0  0  0  0  0  0  0  0  0  0  0
  132.8100  128.7940   57.1520 C   0  0  0  0  0  0  0  0  0  0  0  0
  131.5670  128.7790   57.8070 C   0  0  0  0  0  0  0  0  0  0  0  0
  130.7580  127.4660   57.8970 C   0  0  1  0  0  0  0  0  0  0  0  0
  130.6620  126.7810   56.5250 C   0  0  0  0  0  0  0  0  0  0  0  0
  131.4860  125.8790   56.0390 N   0  0  0  0  0  0  0  0  0  0  0  0
  131.0120  125.5770   54.7660 N   0  0  0  0  0  0  0  0  0  0  0  0
  129.8910  126.3350   54.4850 N   0  0  0  0  0  0  0  0  0  0  0  0
  129.7100  127.0870   55.5760 N   0  0  0  0  0  0  0  0  0  0  0  0
  128.5780  128.0020   55.6620 C   0  0  0  0  0  0  0  0  0  0  0  0
  128.5490  128.9320   54.4340 C   0  0  0  0  0  0  0  0  0  0  0  0
  129.3810  130.1880   54.6450 C   0  0  0  0  0  0  0  0  0  0  0  0
  129.0350  131.0930   55.6520 C   0  0  0  0  0  0  0  0  0  0  0  0
  129.7920  132.2460   55.8390 C   0  0  0  0  0  0  0  0  0  0  0  0
  130.8920  132.4900   55.0180 C   0  0  0  0  0  0  0  0  0  0  0  0
  131.2410  131.5920   54.0130 C   0  0  0  0  0  0  0  0  0  0  0  0
  130.4840  130.4380   53.8240 C   0  0  0  0  0  0  0  0  0  0  0  0
  131.2410  126.5460   58.9550 N   0  0  0  0  0  0  0  0  0  0  0  0
  130.8280  125.1610   58.6640 C   0  0  0  0  0  0  0  0  0  0  0  0
  131.4400  124.1790   59.6900 C   0  0  0  0  0  0  0  0  0  0  0  0
  130.9790  124.4970   61.0520 N   0  0  0  0  0  0  0  0  0  0  0  0
  131.4760  123.5300   62.0580 C   0  0  1  0  0  0  0  0  0  0  0  0
  131.7840  122.1140   61.5250 C   0  0  0  0  0  0  0  0  0  0  0  0
  133.1280  121.7140   61.5090 C   0  0  0  0  0  0  0  0  0  0  0  0
  133.4980  120.4470   61.0610 C   0  0  0  0  0  0  0  0  0  0  0  0
  132.5250  119.5580   60.6140 C   0  0  0  0  0  0  0  0  0  0  0  0
  131.1860  119.9400   60.6060 C   0  0  0  0  0  0  0  0  0  0  0  0
  130.8050  121.2100   61.0500 C   0  0  0  0  0  0  0  0  0  0  0  0
  129.1260  121.6150   60.9360 Cl  0  0  0  0  0  0  0  0  0  0  0  0
  132.6640  124.0580   62.8650 C   0  0  0  0  0  0  0  0  0  0  0  0
  133.8720  124.2670   62.3940 N   0  0  0  0  0  0  0  0  0  0  0  0
  134.6180  124.7600   63.4600 N   0  0  0  0  0  0  0  0  0  0  0  0
  133.8260  124.8600   64.5850 N   0  0  0  0  0  0  0  0  0  0  0  0
  132.6180  124.4410   64.1890 N   0  0  0  0  0  0  0  0  0  0  0  0
  131.5140  124.3900   65.1410 C   0  0  0  0  0  0  0  0  0  0  0  0
  130.4130  125.3890   64.7400 C   0  0  0  0  0  0  0  0  0  0  0  0
  129.7160  125.9910   65.9500 C   0  0  0  0  0  0  0  0  0  0  0  0
  129.0650  127.2230   65.8390 C   0  0  0  0  0  0  0  0  0  0  0  0
  128.4210  127.7710   66.9460 C   0  0  0  0  0  0  0  0  0  0  0  0
  128.4320  127.0860   68.1600 C   0  0  0  0  0  0  0  0  0  0  0  0
  129.0800  125.8570   68.2760 C   0  0  0  0  0  0  0  0  0  0  0  0
  129.7230  125.3080   67.1700 C   0  0  0  0  0  0  0  0  0  0  0  0
  131.3990  125.8800   61.3400 C   0  0  0  0  0  0  0  0  0  0  0  0
  130.7760  126.8580   60.3170 C   0  0  0  0  0  0  0  0  0  0  0  0
  1  2  1  0
  2  3  2  0
  3  4  1  0
  4  5  2  0
  5  6  1  0
  6  7  2  0
  7  8  1  0
  8  9  1  0
  9 10  2  0
 10 11  1  0
 11 12  2  0
 12 13  1  0
 13 14  1  0
 14 15  1  0
 15 16  1  0
 16 17  2  0
 17 18  1  0
 18 19  2  0
 19 20  1  0
 20 21  2  0
  8 22  1  1
 22 23  1  0
 23 24  1  0
 24 25  1  0
 26 25  1  6
 26 27  1  0
 27 28  2  0
 28 29  1  0
 29 30  2  0
 30 31  1  0
 31 32  2  0
 32 33  1  0
 26 34  1  0
 34 35  2  0
 35 36  1  0
 36 37  2  0
 37 38  1  0
 38 39  1  0
 39 40  1  0
 40 41  1  0
 41 42  2  0
 42 43  1  0
 43 44  2  0
 44 45  1  0
 45 46  2  0
 25 47  1  0
 47 48  1  0
  7  2  1  0
 13  9  1  0
 21 16  1  0
 48 22  1  0
 32 27  1  0
 38 34  1  0
 46 41  1  0
M  END
>  <Binding energies>  (69) 
[-13.04]

>  <Ligand effiencies>  (69) 
[-0.27166666666666667]

>  <Interactions>  (69) 
["V-A:HIS:456:CE1:4069, V-A:TYR:484:CZ:4347, V-B:GLU:543:CB:9878, V-B:HIS:456:CE1:9040, V-B:GLU:543:C:9874, H-A:TYR:484:OH:4348, V-A:TYR:484:CE1:4345, V-A:GLU:543:CD:4908, H-A:GLY:454:N:4050, V-A:ILE:369:CD1:3239, H-A:ARG:545:NE:4924, V-B:TYR:539:CE2:9848, H-B:TYR:539:OH:9850, V-A:ASP:366:CG:3213, V-B:TYR:539:CD2:9846, V-A:ASP:366:CB:3212, V-A:ILE:538:CD1:4865, H-A:TYR:531:OH:4795, V-A:ILE:538:CA:4860, V-A:LEU:363:CD1:3189, V-A:TYR:531:CE2:4793, V-A:MET:535:CG:4833, V-A:LEU:363:CA:3185, V-A:PRO:540:CB:4885, V-A:TYR:539:CE1:4875, V-A:PRO:540:CA:4883, V-A:TYR:539:CD1:4873, V-A:ILE:369:CG2:3237, V-A:TRP:381:CH2:3372, V-A:LEU:475:CD1:4258, V-B:ALA:541:CB:9864, V-A:TRP:381:CZ2:3370, V-A:TYR:531:CZ:4794, H-A:ARG:545:NH2:4928, H-A:ASN:370:ND2:3248, H-A:ARG:545:NH1:4927"]

$$$$
RR14_Rahimova_2017
     RDKit          3D

 39 43  0  0  0  0  0  0  0  0999 V2000
  128.7740  132.1180   62.0430 C   0  0  0  0  0  0  0  0  0  0  0  0
  130.1340  131.9240   61.6720 O   0  0  0  0  0  0  0  0  0  0  0  0
  130.4440  131.7040   60.3430 C   0  0  0  0  0  0  0  0  0  0  0  0
  131.6160  130.9910   60.0870 C   0  0  0  0  0  0  0  0  0  0  0  0
  132.0220  130.7420   58.7800 C   0  0  0  0  0  0  0  0  0  0  0  0
  131.2580  131.2120   57.7100 C   0  0  0  0  0  0  0  0  0  0  0  0
  131.7330  130.9990   56.2780 C   0  0  0  0  0  0  0  0  0  0  0  0
  130.9290  131.7150   55.2880 N   0  0  0  0  0  0  0  0  0  0  0  0
  130.8690  133.0510   55.3050 N   0  0  0  0  0  0  0  0  0  0  0  0
  130.0140  133.3770   54.2710 N   0  0  0  0  0  0  0  0  0  0  0  0
  129.5590  132.2210   53.6440 N   0  0  0  0  0  0  0  0  0  0  0  0
  130.1230  131.2240   54.2830 C   0  0  0  0  0  0  0  0  0  0  0  0
  129.9080  129.7490   53.9730 C   0  0  0  0  0  0  0  0  0  0  0  0
  128.7590  129.1830   54.6980 N   0  0  0  0  0  0  0  0  0  0  0  0
  128.3980  127.8490   54.2000 C   0  0  0  0  0  0  0  0  0  0  0  0
  128.6850  126.7190   55.2120 C   0  0  0  0  0  0  0  0  0  0  0  0
  127.4220  126.1890   55.9230 C   0  0  0  0  0  0  0  0  0  0  0  0
  127.4360  124.7360   56.1240 N   0  0  0  0  0  0  0  0  0  0  0  0
  127.4970  124.0420   54.8310 C   0  0  0  0  0  0  0  0  0  0  0  0
  127.4610  122.5090   55.0050 C   0  0  0  0  0  0  0  0  0  0  0  0
  126.3210  122.1300   55.7680 O   0  0  0  0  0  0  0  0  0  0  0  0
  126.3200  122.7150   57.0650 C   0  0  0  0  0  0  0  0  0  0  0  0
  126.3200  124.2550   56.9530 C   0  0  0  0  0  0  0  0  0  0  0  0
  129.0450  129.1350   56.1390 C   0  0  0  0  0  0  0  0  0  0  0  0
  127.8940  129.5240   57.0650 C   0  0  0  0  0  0  0  0  0  0  0  0
  127.9580  129.2880   58.3980 C   0  0  0  0  0  0  0  0  0  0  0  0
  126.8430  129.6190   59.3090 C   0  0  0  0  0  0  0  0  0  0  0  0
  126.8830  129.4060   60.6970 C   0  0  0  0  0  0  0  0  0  0  0  0
  128.1060  128.8060   61.3780 C   0  0  0  0  0  0  0  0  0  0  0  0
  125.7730  129.7570   61.4710 C   0  0  0  0  0  0  0  0  0  0  0  0
  124.6400  130.3110   60.8790 C   0  0  0  0  0  0  0  0  0  0  0  0
  124.5910  130.5290   59.4990 C   0  0  0  0  0  0  0  0  0  0  0  0
  123.3380  131.1390   58.8830 C   0  0  0  0  0  0  0  0  0  0  0  0
  125.7000  130.1800   58.7120 C   0  0  0  0  0  0  0  0  0  0  0  0
  125.6950  130.3790   57.3160 N   0  0  0  0  0  0  0  0  0  0  0  0
  126.6930  130.0910   56.4430 C   0  0  0  0  0  0  0  0  0  0  0  0
  126.5490  130.3030   55.2390 O   0  0  0  0  0  0  0  0  0  0  0  0
  130.0680  131.9010   57.9560 C   0  0  0  0  0  0  0  0  0  0  0  0
  129.6640  132.1500   59.2640 C   0  0  0  0  0  0  0  0  0  0  0  0
  1  2  1  0
  2  3  1  0
  3  4  2  0
  4  5  1  0
  5  6  2  0
  6  7  1  0
  7  8  1  0
  8  9  1  0
  9 10  2  0
 10 11  1  0
 11 12  2  0
 12 13  1  0
 13 14  1  0
 14 15  1  0
 15 16  1  0
 16 17  1  0
 17 18  1  0
 18 19  1  0
 19 20  1  0
 20 21  1  0
 21 22  1  0
 22 23  1  0
 14 24  1  0
 24 25  1  0
 25 26  2  0
 26 27  1  0
 27 28  2  0
 28 29  1  0
 28 30  1  0
 30 31  2  0
 31 32  1  0
 32 33  1  0
 32 34  2  0
 34 35  1  0
 35 36  1  0
 36 37  2  0
  6 38  1  0
 38 39  2  0
 39  3  1  0
 12  8  1  0
 23 18  1  0
 36 25  1  0
 34 27  1  0
M  END
>  <Binding energies>  (70) 
[-10.72]

>  <Ligand effiencies>  (70) 
[-0.268]

>  <Interactions>  (70) 
["V-B:TYR:539:C:9839, V-B:PRO:540:N:9856, V-B:ILE:538:CA:9832, V-B:PRO:540:CA:9855, V-B:PRO:540:CD:9859, V-B:ILE:538:C:9830, V-B:TYR:539:CD1:9845, V-B:ILE:538:CB:9834, V-B:TYR:539:CZ:9849, H-B:TYR:539:N:9842, V-B:PRO:540:CB:9857, V-B:TYR:539:CE1:9847, V-B:ILE:538:CG2:9835, H-A:TYR:531:OH:4795, H-B:TYR:531:OH:9767, V-A:TYR:531:CE2:4793, V-A:MET:535:CE:4835, V-A:MET:535:CG:4833, H-A:TYR:539:N:4870, V-A:TYR:539:CZ:4877, V-A:TYR:539:C:4867, V-A:PRO:540:CB:4885, V-A:PRO:540:N:4884, V-A:PRO:540:CA:4883, V-B:TYR:539:CG:9844, V-A:TYR:539:CE2:4876, H-A:ALA:541:N:4891, V-A:ALA:541:CB:4892, V-B:ASP:366:CG:8184, H-A:TYR:539:OH:4878, V-B:ASP:366:CB:8183, V-B:ILE:369:CG2:8208, V-A:PRO:540:C:4881, V-B:ASP:366:CA:8181, V-B:ASP:366:C:8179, V-B:ILE:369:CB:8207, V-A:TYR:531:CZ:4794"]

$$$$
RR15_Rahimova_2017
     RDKit          3D

 45 49  0  0  0  0  0  0  0  0999 V2000
  129.8090  122.1560   64.8510 C   0  0  0  0  0  0  0  0  0  0  0  0
  130.0770  121.3730   63.6920 O   0  0  0  0  0  0  0  0  0  0  0  0
  130.6440  121.9710   62.5810 C   0  0  0  0  0  0  0  0  0  0  0  0
  132.0230  122.1890   62.4340 C   0  0  0  0  0  0  0  0  0  0  0  0
  132.5290  122.7990   61.2890 C   0  0  0  0  0  0  0  0  0  0  0  0
  131.6760  123.2120   60.2610 C   0  0  0  0  0  0  0  0  0  0  0  0
  132.2220  123.8770   59.0280 C   0  0  0  0  0  0  0  0  0  0  0  0
  133.3350  123.4790   58.4270 N   0  0  0  0  0  0  0  0  0  0  0  0
  133.5130  124.3270   57.3530 N   0  0  0  0  0  0  0  0  0  0  0  0
  132.4480  125.1280   57.4050 N   0  0  0  0  0  0  0  0  0  0  0  0
  132.3150  126.2960   56.5360 C   0  0  0  0  0  0  0  0  0  0  0  0
  131.3900  127.4110   57.0840 C   0  0  0  0  0  0  0  0  0  0  0  0
  131.8690  128.2300   57.8720 O   0  0  0  0  0  0  0  0  0  0  0  0
  130.0900  127.4810   56.6640 N   0  0  0  0  0  0  0  0  0  0  0  0
  128.9780  127.6100   57.6270 C   0  0  0  0  0  0  0  0  0  0  0  0
  128.6680  126.3060   58.3920 C   0  0  0  0  0  0  0  0  0  0  0  0
  127.1970  125.8360   58.3050 C   0  0  0  0  0  0  0  0  0  0  0  0
  126.9840  124.7310   57.3660 N   0  0  0  0  0  0  0  0  0  0  0  0
  127.8780  123.5850   57.5940 C   0  0  0  0  0  0  0  0  0  0  0  0
  127.5560  122.4180   56.6360 C   0  0  0  0  0  0  0  0  0  0  0  0
  126.1820  122.0600   56.7420 O   0  0  0  0  0  0  0  0  0  0  0  0
  125.3130  123.1410   56.4200 C   0  0  0  0  0  0  0  0  0  0  0  0
  125.5720  124.3260   57.3740 C   0  0  0  0  0  0  0  0  0  0  0  0
  129.6960  127.6280   55.2290 C   0  0  2  0  0  0  0  0  0  0  0  0
  129.0780  129.0170   54.8770 C   0  0  0  0  0  0  0  0  0  0  0  0
  127.9300  129.3060   55.2150 O   0  0  0  0  0  0  0  0  0  0  0  0
  129.8920  129.8680   54.2290 N   0  0  0  0  0  0  0  0  0  0  0  0
  129.5700  131.2500   53.8890 C   0  0  0  0  0  0  0  0  0  0  0  0
  130.7000  132.2060   54.3160 C   0  0  2  0  0  0  0  0  0  0  0  0
  131.9990  131.5260   54.7810 C   0  0  0  0  0  0  0  0  0  0  0  0
  131.9460  131.5980   56.2880 C   0  0  0  0  0  0  0  0  0  0  0  0
  131.2250  132.9170   56.4990 C   0  0  0  0  0  0  0  0  0  0  0  0
  130.2260  132.8870   55.4850 O   0  0  0  0  0  0  0  0  0  0  0  0
  128.9550  126.3870   54.7450 C   0  0  0  0  0  0  0  0  0  0  0  0
  129.7130  125.2830   54.3360 C   0  0  0  0  0  0  0  0  0  0  0  0
  129.0900  124.1240   53.8840 C   0  0  0  0  0  0  0  0  0  0  0  0
  127.7000  124.0580   53.8390 C   0  0  0  0  0  0  0  0  0  0  0  0
  127.0950  122.9320   53.4010 F   0  0  0  0  0  0  0  0  0  0  0  0
  126.9300  125.1450   54.2430 C   0  0  0  0  0  0  0  0  0  0  0  0
  127.5540  126.3050   54.6940 C   0  0  0  0  0  0  0  0  0  0  0  0
  131.6410  124.9120   58.4500 N   0  0  0  0  0  0  0  0  0  0  0  0
  130.3000  122.9910   60.4090 C   0  0  0  0  0  0  0  0  0  0  0  0
  129.7740  122.3740   61.5570 C   0  0  0  0  0  0  0  0  0  0  0  0
  128.4250  122.1310   61.7480 O   0  0  0  0  0  0  0  0  0  0  0  0
  127.4710  123.1020   61.3310 C   0  0  0  0  0  0  0  0  0  0  0  0
  1  2  1  0
  2  3  1  0
  3  4  2  0
  4  5  1  0
  5  6  2  0
  6  7  1  0
  7  8  1  0
  8  9  2  0
  9 10  1  0
 10 11  1  0
 11 12  1  0
 12 13  2  0
 12 14  1  0
 14 15  1  0
 15 16  1  0
 16 17  1  0
 17 18  1  0
 18 19  1  0
 19 20  1  0
 20 21  1  0
 21 22  1  0
 22 23  1  0
 24 14  1  1
 24 25  1  0
 25 26  2  0
 25 27  1  0
 27 28  1  0
 29 28  1  1
 29 30  1  0
 30 31  1  0
 31 32  1  0
 32 33  1  0
 24 34  1  0
 34 35  2  0
 35 36  1  0
 36 37  2  0
 37 38  1  0
 37 39  1  0
 39 40  2  0
 10 41  1  0
  6 42  1  0
 42 43  2  0
 43 44  1  0
 44 45  1  0
 43  3  1  0
 41  7  2  0
 23 18  1  0
 33 29  1  0
 40 34  1  0
M  END
>  <Binding energies>  (71) 
[-10.02]

>  <Ligand effiencies>  (71) 
[-0.21782608695652173]

>  <Interactions>  (71) 
["V-A:TYR:484:CE1:4345, V-B:GLU:543:CD:9880, V-B:TYR:539:CE2:9848, V-B:TYR:539:C:9839, H-B:TYR:539:OH:9850, V-B:PRO:540:N:9856, V-A:ASP:366:CG:3213, V-B:ILE:538:CA:9832, H-B:ALA:541:N:9863, V-B:PRO:540:CD:9859, V-B:LEU:363:CD1:8160, V-B:TYR:539:CD1:9845, V-B:ILE:538:CB:9834, V-B:TYR:539:CZ:9849, H-B:TYR:539:N:9842, V-B:TYR:539:CE1:9847, V-B:ILE:538:CG2:9835, V-B:TYR:539:CD2:9846, V-A:ASP:366:CB:3212, V-A:ILE:538:CD1:4865, H-A:TYR:531:OH:4795, V-A:ILE:538:CA:4860, H-B:TYR:531:OH:9767, V-A:LEU:363:CD1:3189, V-A:TYR:531:CE2:4793, V-A:MET:535:CE:4835, H-A:TYR:539:N:4870, V-A:PRO:540:CD:4887, V-A:TYR:539:C:4867, V-A:PRO:540:CB:4885, V-A:PRO:540:N:4884, V-A:PRO:540:CA:4883, V-B:GLU:543:CG:9879, V-A:LEU:475:CD1:4258, V-B:TYR:539:CG:9844, V-B:ALA:541:CB:9864, V-A:TYR:539:CA:4869, V-B:GLU:543:CA:9876, V-A:TYR:531:CZ:4794, V-B:MET:535:CG:9805, V-B:VAL:537:C:9822, V-B:TYR:539:CA:9841, V-A:TYR:531:CE1:4792"]

$$$$
RR17_Rahimova_2017
     RDKit          3D

 38 41  0  0  0  0  0  0  0  0999 V2000
  132.1440  131.9080   54.6980 C   0  0  0  0  0  0  0  0  0  0  0  0
  131.9490  132.4850   56.1040 C   0  0  0  0  0  0  0  0  0  0  0  0
  130.6720  133.1150   56.1670 O   0  0  0  0  0  0  0  0  0  0  0  0
  129.5720  132.3770   56.5630 C   0  0  0  0  0  0  0  0  0  0  0  0
  128.9960  131.5530   55.5980 C   0  0  0  0  0  0  0  0  0  0  0  0
  127.8840  130.7750   55.9020 C   0  0  0  0  0  0  0  0  0  0  0  0
  127.3210  130.8060   57.1860 C   0  0  0  0  0  0  0  0  0  0  0  0
  126.1220  129.9540   57.4860 C   0  0  0  0  0  0  0  0  0  0  0  0
  125.5620  129.2730   56.6220 O   0  0  0  0  0  0  0  0  0  0  0  0
  125.5940  129.9720   58.9380 C   0  0  0  0  0  0  0  0  0  0  0  0
  124.3760  131.3090   59.2110 S   0  0  0  0  0  0  0  0  0  0  0  0
  124.0770  131.0990   60.9440 C   0  0  0  0  0  0  0  0  0  0  0  0
  122.9110  130.8430   61.4890 N   0  0  0  0  0  0  0  0  0  0  0  0
  123.0960  130.7430   62.8620 N   0  0  0  0  0  0  0  0  0  0  0  0
  124.3690  130.9380   63.0960 C   0  0  0  0  0  0  0  0  0  0  0  0
  125.0090  130.9030   64.4750 C   0  0  0  0  0  0  0  0  0  0  0  0
  124.9070  129.6070   65.1410 N   0  0  0  0  0  0  0  0  0  0  0  0
  125.9670  129.0010   65.8380 C   0  0  0  0  0  0  0  0  0  0  0  0
  125.6380  128.1100   66.8600 C   0  0  0  0  0  0  0  0  0  0  0  0
  126.6380  127.4800   67.5940 C   0  0  0  0  0  0  0  0  0  0  0  0
  127.9840  127.7310   67.3110 C   0  0  0  0  0  0  0  0  0  0  0  0
  129.0700  127.0350   68.1300 C   0  0  0  0  0  0  0  0  0  0  0  0
  128.5660  126.1350   68.9780 F   0  0  0  0  0  0  0  0  0  0  0  0
  129.9290  126.4060   67.3260 F   0  0  0  0  0  0  0  0  0  0  0  0
  129.7370  127.9480   68.8370 F   0  0  0  0  0  0  0  0  0  0  0  0
  128.3160  128.6180   66.2810 C   0  0  0  0  0  0  0  0  0  0  0  0
  127.3150  129.2470   65.5480 C   0  0  0  0  0  0  0  0  0  0  0  0
  125.0490  131.1820   61.9200 N   0  0  0  0  0  0  0  0  0  0  0  0
  126.4210  131.4270   61.7560 C   0  0  0  0  0  0  0  0  0  0  0  0
  127.3260  130.3730   61.8810 C   0  0  0  0  0  0  0  0  0  0  0  0
  128.6880  130.6160   61.7210 C   0  0  0  0  0  0  0  0  0  0  0  0
  129.1470  131.9120   61.4350 C   0  0  0  0  0  0  0  0  0  0  0  0
  130.4760  132.2460   61.2600 O   0  0  0  0  0  0  0  0  0  0  0  0
  131.4640  131.2230   61.3280 C   0  0  0  0  0  0  0  0  0  0  0  0
  128.2250  132.9550   61.3160 C   0  0  0  0  0  0  0  0  0  0  0  0
  126.8630  132.7190   61.4740 C   0  0  0  0  0  0  0  0  0  0  0  0
  127.9020  131.6350   58.1570 C   0  0  0  0  0  0  0  0  0  0  0  0
  129.0160  132.4130   57.8500 C   0  0  0  0  0  0  0  0  0  0  0  0
  1  2  1  0
  2  3  1  0
  3  4  1  0
  4  5  2  0
  5  6  1  0
  6  7  2  0
  7  8  1  0
  8  9  2  0
  8 10  1  0
 10 11  1  0
 11 12  1  0
 12 13  2  0
 13 14  1  0
 14 15  2  0
 15 16  1  0
 16 17  1  0
 17 18  1  0
 18 19  2  0
 19 20  1  0
 20 21  2  0
 21 22  1  0
 22 23  1  0
 22 24  1  0
 22 25  1  0
 21 26  1  0
 26 27  2  0
 15 28  1  0
 28 29  1  0
 29 30  2  0
 30 31  1  0
 31 32  2  0
 32 33  1  0
 33 34  1  0
 32 35  1  0
 35 36  2  0
  7 37  1  0
 37 38  2  0
 38  4  1  0
 28 12  1  0
 36 29  1  0
 27 18  1  0
M  END
>  <Binding energies>  (72) 
[-8.64]

>  <Ligand effiencies>  (72) 
[-0.22153846153846155]

>  <Interactions>  (72) 
["V-A:HIS:456:CE1:4069, V-B:ARG:545:CZ:9898, H-B:GLY:454:N:9021, V-B:GLU:543:CB:9878, V-B:HIS:456:CE1:9040, H-B:ARG:545:NH2:9900, V-B:GLU:543:C:9874, V-B:ARG:545:CG:9894, V-B:GLY:454:CA:9020, H-B:GLU:543:OE1:9881, V-B:ARG:545:CD:9895, V-A:GLU:543:CD:4908, V-A:GLU:543:CB:4906, V-A:ILE:538:CD1:4865, H-B:TYR:531:OH:9767, V-A:LEU:363:CD1:3189, V-A:TYR:531:CE2:4793, H-A:TYR:539:N:4870, V-A:TYR:539:CZ:4877, V-A:PRO:540:CD:4887, V-A:TYR:539:C:4867, V-A:TYR:539:CG:4872, V-A:PRO:540:CB:4885, V-A:PRO:540:N:4884, V-A:TYR:539:CE1:4875, V-A:PRO:540:CA:4883, V-A:TYR:539:CD1:4873, V-A:TYR:539:CE2:4876, H-A:ALA:541:N:4891, V-A:ALA:541:CB:4892, V-A:TYR:539:CD2:4874, V-B:ASP:366:CG:8184, H-A:TYR:539:OH:4878"]

$$$$
RR19_Rahimova_2017
     RDKit          3D

 46 51  0  0  0  0  0  0  0  0999 V2000
  133.4940  123.8890   63.9890 O   0  0  0  0  0  0  0  0  0  0  0  0
  132.3590  124.0120   63.5200 C   0  0  0  0  0  0  0  0  0  0  0  0
  132.0570  124.2690   62.2220 N   0  0  0  0  0  0  0  0  0  0  0  0
  132.8000  124.2500   61.0670 C   0  0  0  0  0  0  0  0  0  0  0  0
  134.3670  123.6300   60.9130 S   0  0  0  0  0  0  0  0  0  0  0  0
  132.0600  124.8180   60.0600 N   0  0  0  0  0  0  0  0  0  0  0  0
  132.2500  124.9250   58.7200 C   0  0  0  0  0  0  0  0  0  0  0  0
  133.1080  124.3400   58.0550 O   0  0  0  0  0  0  0  0  0  0  0  0
  131.2760  125.9080   58.0230 C   0  0  2  0  0  0  0  0  0  0  0  0
  130.9240  127.1760   58.8540 C   0  0  0  0  0  0  0  0  0  0  0  0
  131.6130  128.4550   58.4060 C   0  0  0  0  0  0  0  0  0  0  0  0
  131.5600  129.6220   59.1990 C   0  0  0  0  0  0  0  0  0  0  0  0
  132.2600  130.7560   58.8130 C   0  0  0  0  0  0  0  0  0  0  0  0
  133.0300  130.7450   57.6560 C   0  0  0  0  0  0  0  0  0  0  0  0
  133.1160  129.5950   56.8820 C   0  0  0  0  0  0  0  0  0  0  0  0
  132.4250  128.4490   57.2520 C   0  0  0  0  0  0  0  0  0  0  0  0
  130.0520  125.2080   57.5470 N   0  0  0  0  0  0  0  0  0  0  0  0
  129.1830  124.6240   58.4200 C   0  0  0  0  0  0  0  0  0  0  0  0
  129.2860  124.5640   59.6470 O   0  0  0  0  0  0  0  0  0  0  0  0
  128.0850  124.0810   57.5840 C   0  0  0  0  0  0  0  0  0  0  0  0
  126.9300  123.3800   57.9340 C   0  0  0  0  0  0  0  0  0  0  0  0
  126.0500  122.9900   56.9180 C   0  0  0  0  0  0  0  0  0  0  0  0
  126.3310  123.3030   55.5810 C   0  0  0  0  0  0  0  0  0  0  0  0
  127.4940  124.0080   55.2520 C   0  0  0  0  0  0  0  0  0  0  0  0
  128.3590  124.3860   56.2790 C   0  0  0  0  0  0  0  0  0  0  0  0
  129.6400  125.1350   56.2450 C   0  0  0  0  0  0  0  0  0  0  0  0
  130.2040  125.5980   55.2530 O   0  0  0  0  0  0  0  0  0  0  0  0
  131.1260  123.8870   64.4550 C   0  0  2  0  0  0  0  0  0  0  0  0
  130.2880  122.5970   64.2230 C   0  0  0  0  0  0  0  0  0  0  0  0
  129.9150  122.3560   62.7710 C   0  0  0  0  0  0  0  0  0  0  0  0
  130.7820  121.6280   61.9290 C   0  0  0  0  0  0  0  0  0  0  0  0
  130.3940  121.3220   60.6300 C   0  0  0  0  0  0  0  0  0  0  0  0
  129.1430  121.7060   60.1650 C   0  0  0  0  0  0  0  0  0  0  0  0
  128.2630  122.3880   60.9950 C   0  0  0  0  0  0  0  0  0  0  0  0
  128.6330  122.7050   62.2960 C   0  0  0  0  0  0  0  0  0  0  0  0
  130.2650  125.1040   64.4630 N   0  0  0  0  0  0  0  0  0  0  0  0
  130.0180  125.8000   65.6080 C   0  0  0  0  0  0  0  0  0  0  0  0
  130.4250  125.5410   66.7410 O   0  0  0  0  0  0  0  0  0  0  0  0
  129.1560  126.9370   65.1990 C   0  0  0  0  0  0  0  0  0  0  0  0
  128.5900  127.9700   65.9470 C   0  0  0  0  0  0  0  0  0  0  0  0
  127.8090  128.9250   65.2870 C   0  0  0  0  0  0  0  0  0  0  0  0
  127.6060  128.8370   63.9030 C   0  0  0  0  0  0  0  0  0  0  0  0
  128.1840  127.7940   63.1700 C   0  0  0  0  0  0  0  0  0  0  0  0
  128.9590  126.8510   63.8480 C   0  0  0  0  0  0  0  0  0  0  0  0
  129.6880  125.6580   63.3550 C   0  0  0  0  0  0  0  0  0  0  0  0
  129.7600  125.2540   62.1940 O   0  0  0  0  0  0  0  0  0  0  0  0
  1  2  2  0
  2  3  1  0
  3  4  1  0
  4  5  2  0
  4  6  1  0
  6  7  1  0
  7  8  2  0
  7  9  1  0
  9 10  1  1
 10 11  1  0
 11 12  2  0
 12 13  1  0
 13 14  2  0
 14 15  1  0
 15 16  2  0
  9 17  1  0
 17 18  1  0
 18 19  2  0
 18 20  1  0
 20 21  2  0
 21 22  1  0
 22 23  2  0
 23 24  1  0
 24 25  2  0
 25 26  1  0
 26 27  2  0
  2 28  1  0
 28 29  1  6
 29 30  1  0
 30 31  2  0
 31 32  1  0
 32 33  2  0
 33 34  1  0
 34 35  2  0
 28 36  1  0
 36 37  1  0
 37 38  2  0
 37 39  1  0
 39 40  2  0
 40 41  1  0
 41 42  2  0
 42 43  1  0
 43 44  2  0
 44 45  1  0
 45 46  2  0
 16 11  1  0
 26 17  1  0
 35 30  1  0
 45 36  1  0
 25 20  1  0
 44 39  1  0
M  END
>  <Binding energies>  (73) 
[-10.88]

>  <Ligand effiencies>  (73) 
[-0.22666666666666668]

>  <Interactions>  (73) 
["H-A:TYR:484:OH:4348, V-B:GLU:543:CD:9880, V-A:GLU:543:CD:4908, H-A:GLY:454:N:4050, V-A:ILE:369:CD1:3239, V-B:TYR:539:CE2:9848, H-B:TYR:539:OH:9850, V-B:PRO:540:N:9856, V-A:ASP:366:CG:3213, V-B:PRO:540:CA:9855, V-B:PRO:540:CD:9859, V-B:ILE:538:CB:9834, V-B:TYR:539:CZ:9849, V-B:TYR:539:CE1:9847, V-B:ILE:538:CG2:9835, V-B:TYR:539:CD2:9846, V-A:ASP:366:CB:3212, H-A:TYR:531:OH:4795, V-A:LEU:363:CD1:3189, V-A:TYR:531:CE2:4793, V-A:PRO:540:CB:4885, V-A:PRO:540:CA:4883, V-B:GLU:543:CG:9879, V-A:LEU:475:CD1:4258, V-B:ALA:541:CB:9864, V-A:TYR:531:CZ:4794"]

$$$$
RR1_Rahimova_2017
     RDKit          3D

 41 44  0  0  0  0  0  0  0  0999 V2000
  123.4330  130.7500   62.1840 C   0  0  0  0  0  0  0  0  0  0  0  0
  123.3750  130.7410   63.6060 O   0  0  0  0  0  0  0  0  0  0  0  0
  124.3690  130.0980   64.3180 C   0  0  0  0  0  0  0  0  0  0  0  0
  125.6200  129.7460   63.7870 C   0  0  0  0  0  0  0  0  0  0  0  0
  126.5590  129.0920   64.5800 C   0  0  0  0  0  0  0  0  0  0  0  0
  126.2700  128.7850   65.9100 C   0  0  0  0  0  0  0  0  0  0  0  0
  127.2660  128.0820   66.6150 N   0  0  0  0  0  0  0  0  0  0  0  0
  128.3060  128.5610   67.3310 C   0  0  0  0  0  0  0  0  0  0  0  0
  128.6010  129.7520   67.4290 O   0  0  0  0  0  0  0  0  0  0  0  0
  129.1410  127.4850   68.0440 C   0  0  0  0  0  0  0  0  0  0  0  0
  128.2600  125.9270   68.4130 S   0  0  0  0  0  0  0  0  0  0  0  0
  128.2570  126.0630   70.1700 C   0  0  0  0  0  0  0  0  0  0  0  0
  127.4790  126.8720   70.8440 N   0  0  0  0  0  0  0  0  0  0  0  0
  127.7990  126.6380   72.1120 C   0  0  0  0  0  0  0  0  0  0  0  0
  127.1310  127.3490   73.2540 C   0  0  0  0  0  0  0  0  0  0  0  0
  125.8070  127.0620   73.6240 C   0  0  0  0  0  0  0  0  0  0  0  0
  125.2110  127.7410   74.6890 C   0  0  0  0  0  0  0  0  0  0  0  0
  125.9600  128.7020   75.3660 C   0  0  0  0  0  0  0  0  0  0  0  0
  127.2410  129.0040   75.0360 N   0  0  0  0  0  0  0  0  0  0  0  0
  127.8020  128.3320   73.9990 C   0  0  0  0  0  0  0  0  0  0  0  0
  128.7430  125.7340   72.3000 N   0  0  0  0  0  0  0  0  0  0  0  0
  129.0400  125.3640   71.0510 N   0  0  0  0  0  0  0  0  0  0  0  0
  130.0490  124.3340   70.8010 C   0  0  0  0  0  0  0  0  0  0  0  0
  130.5630  123.6100   72.0580 C   0  0  0  0  0  0  0  0  0  0  0  0
  131.1650  124.2280   72.9430 O   0  0  0  0  0  0  0  0  0  0  0  0
  130.3070  122.2880   72.0970 N   0  0  0  0  0  0  0  0  0  0  0  0
  130.6090  121.5980   73.2620 N   0  0  0  0  0  0  0  0  0  0  0  0
  129.7270  120.6680   73.6910 C   0  0  0  0  0  0  0  0  0  0  0  0
  128.7230  120.3230   73.0600 O   0  0  0  0  0  0  0  0  0  0  0  0
  130.0520  120.0220   75.0230 C   0  0  0  0  0  0  0  0  0  0  0  0
  130.5000  118.6980   75.0660 C   0  0  0  0  0  0  0  0  0  0  0  0
  130.7920  118.0810   76.2780 C   0  0  0  0  0  0  0  0  0  0  0  0
  130.6360  118.7720   77.4910 C   0  0  0  0  0  0  0  0  0  0  0  0
  130.8950  118.2130   78.7300 O   0  0  0  0  0  0  0  0  0  0  0  0
  130.2400  117.0080   79.1070 C   0  0  0  0  0  0  0  0  0  0  0  0
  130.1810  120.0970   77.4700 C   0  0  0  0  0  0  0  0  0  0  0  0
  130.0250  120.7260   78.6940 O   0  0  0  0  0  0  0  0  0  0  0  0
  128.7980  120.5940   79.4020 C   0  0  0  0  0  0  0  0  0  0  0  0
  129.8960  120.7110   76.2370 C   0  0  0  0  0  0  0  0  0  0  0  0
  125.0210  129.1360   66.4440 C   0  0  0  0  0  0  0  0  0  0  0  0
  124.0850  129.7910   65.6490 C   0  0  0  0  0  0  0  0  0  0  0  0
  1  2  1  0
  2  3  1  0
  3  4  2  0
  4  5  1  0
  5  6  2  0
  6  7  1  0
  7  8  1  0
  8  9  2  0
  8 10  1  0
 10 11  1  0
 11 12  1  0
 12 13  2  0
 13 14  1  0
 14 15  1  0
 15 16  2  0
 16 17  1  0
 17 18  2  0
 18 19  1  0
 19 20  2  0
 14 21  2  0
 21 22  1  0
 22 23  1  0
 23 24  1  0
 24 25  2  0
 24 26  1  0
 26 27  1  0
 27 28  1  0
 28 29  2  0
 28 30  1  0
 30 31  2  0
 31 32  1  0
 32 33  2  0
 33 34  1  0
 34 35  1  0
 33 36  1  0
 36 37  1  0
 37 38  1  0
 36 39  2  0
  6 40  1  0
 40 41  2  0
 41  3  1  0
 22 12  1  0
 39 30  1  0
 20 15  1  0
M  END
>  <Binding energies>  (74) 
[-9.69]

>  <Ligand effiencies>  (74) 
[-0.22022727272727272]

>  <Interactions>  (74) 
["V-A:HIS:456:CE1:4069, V-A:HIS:456:CD2:4068, V-A:TYR:484:CZ:4347, V-B:ARG:545:CZ:9898, H-B:GLY:454:N:9021, H-B:LYS:547:NZ:9923, V-B:HIS:456:CE1:9040, V-A:TYR:484:CE2:4346, V-A:HIS:456:CG:4066, H-B:ARG:545:NH2:9900, V-B:ARG:545:CG:9894, V-A:TYR:484:CD2:4344, V-A:TYR:484:CD1:4343, H-B:GLU:543:OE1:9881, H-B:HIS:456:NE2:9041, H-B:GLU:543:O:9875, V-A:TYR:484:CE1:4345, V-B:ARG:545:CD:9895, V-A:TYR:484:CG:4342, V-A:ASP:473:CB:4239, V-B:HIS:456:CG:9037, V-A:HIS:456:CB:4065, V-B:HIS:456:CD2:9039, V-A:ASP:473:CG:4240, V-A:GLU:543:CB:4906, H-B:TYR:484:OH:9319, V-B:ASP:366:CG:8184, V-B:ILE:369:CD1:8210, V-B:VAL:458:CG2:9058, V-B:HIS:456:CB:9036, V-B:GLY:544:C:9884, V-B:LYS:547:CE:9922, H-A:LYS:471:NZ:4221, V-A:LYS:471:CE:4220, V-A:ASP:485:CA:4353, V-A:TYR:484:CB:4341, V-A:PRO:486:CD:4366, H-A:ASP:473:OD1:4241, V-A:PRO:486:N:4363, V-A:PRO:486:CG:4365"]

$$$$
RR22_Rahimova_2017
     RDKit          3D

 31 36  0  0  0  0  0  0  0  0999 V2000
  124.6560  130.2610   59.2390 O   0  0  0  0  0  0  0  0  0  0  0  0
  125.4510  129.8430   58.4010 C   0  0  0  0  0  0  0  0  0  0  0  0
  125.9820  130.5300   57.3230 N   0  0  0  0  0  0  0  0  0  0  0  0
  126.9500  129.9120   56.4700 C   0  0  1  0  0  0  0  0  0  0  0  0
  126.4030  130.0060   55.1520 O   0  0  0  0  0  0  0  0  0  0  0  0
  127.1280  130.6960   54.1800 C   0  0  0  0  0  0  0  0  0  0  0  0
  126.4270  131.0870   53.0400 C   0  0  0  0  0  0  0  0  0  0  0  0
  127.0940  131.7450   52.0070 C   0  0  0  0  0  0  0  0  0  0  0  0
  128.4600  132.0050   52.1120 C   0  0  0  0  0  0  0  0  0  0  0  0
  129.1630  131.6130   53.2530 C   0  0  0  0  0  0  0  0  0  0  0  0
  128.5030  130.9740   54.3070 C   0  0  0  0  0  0  0  0  0  0  0  0
  129.1790  130.4730   55.5630 C   0  0  1  0  0  0  0  0  0  0  0  0
  130.3840  131.1640   56.1700 C   0  0  0  0  0  0  0  0  0  0  0  0
  130.1660  130.8210   57.6460 C   0  0  0  0  0  0  0  0  0  0  0  0
  131.2410  130.9120   58.6540 C   0  0  0  0  0  0  0  0  0  0  0  0
  130.9340  131.1080   60.0090 C   0  0  0  0  0  0  0  0  0  0  0  0
  131.9520  131.1920   60.9550 C   0  0  0  0  0  0  0  0  0  0  0  0
  133.2800  131.0820   60.5540 C   0  0  0  0  0  0  0  0  0  0  0  0
  133.6010  130.8870   59.2140 C   0  0  0  0  0  0  0  0  0  0  0  0
  132.5850  130.8010   58.2660 C   0  0  0  0  0  0  0  0  0  0  0  0
  128.9520  130.4810   57.8670 N   0  0  0  0  0  0  0  0  0  0  0  0
  128.2530  130.5680   56.6510 N   0  0  0  0  0  0  0  0  0  0  0  0
  126.9750  128.4360   56.8390 C   0  0  0  0  0  0  0  0  0  0  0  0
  127.5050  127.4840   56.0350 C   0  0  0  0  0  0  0  0  0  0  0  0
  127.6130  126.0320   56.2760 C   0  0  0  0  0  0  0  0  0  0  0  0
  128.2590  125.4860   57.3940 C   0  0  0  0  0  0  0  0  0  0  0  0
  128.3220  124.1010   57.5550 C   0  0  0  0  0  0  0  0  0  0  0  0
  127.7360  123.2910   56.5830 C   0  0  0  0  0  0  0  0  0  0  0  0
  127.1120  123.7910   55.4880 N   0  0  0  0  0  0  0  0  0  0  0  0
  127.0600  125.1400   55.3490 C   0  0  0  0  0  0  0  0  0  0  0  0
  126.1410  128.1610   58.3760 S   0  0  0  0  0  0  0  0  0  0  0  0
  1  2  2  0
  2  3  1  0
  4  3  1  1
  4  5  1  0
  5  6  1  0
  6  7  2  0
  7  8  1  0
  8  9  2  0
  9 10  1  0
 10 11  2  0
 11 12  1  0
 12 13  1  1
 13 14  1  0
 14 15  1  0
 15 16  2  0
 16 17  1  0
 17 18  2  0
 18 19  1  0
 19 20  2  0
 14 21  2  0
 21 22  1  0
  4 23  1  0
 23 24  2  0
 24 25  1  0
 25 26  2  0
 26 27  1  0
 27 28  2  0
 28 29  1  0
 29 30  2  0
 23 31  1  0
 31  2  1  0
 22  4  1  0
 30 25  1  0
 11  6  1  0
 22 12  1  0
 20 15  1  0
M  END
>  <Binding energies>  (75) 
[-9.24]

>  <Ligand effiencies>  (75) 
[-0.28875]

>  <Interactions>  (75) 
["V-B:TYR:539:CE2:9848, V-A:ASP:366:CG:3213, V-B:TYR:539:CZ:9849, V-B:TYR:539:CE1:9847, V-B:TYR:539:CD2:9846, H-B:TYR:531:OH:9767, V-A:TYR:539:CZ:4877, V-A:LEU:363:CA:3185, V-A:MET:535:CB:4832, V-A:PRO:540:CB:4885, V-A:TYR:539:CE1:4875, V-A:PRO:540:CA:4883, V-A:TYR:539:CE2:4876, V-B:ASP:366:CG:8184, H-A:TYR:539:OH:4878, V-A:ASN:362:C:3172, V-A:ASN:362:CB:3176, V-B:TYR:531:CE1:9764, V-B:MET:535:CE:9807, V-A:VAL:537:C:4850, V-B:ASN:370:CG:8217"]

$$$$
RR24_Rahimova_2017
     RDKit          3D

 43 49  0  0  0  0  0  0  0  0999 V2000
  123.5770  125.1530   57.6240 C   0  0  0  0  0  0  0  0  0  0  0  0
  124.7240  124.1560   57.8420 C   0  0  2  0  0  0  0  0  0  0  0  0
  125.3660  124.2600   59.2570 C   0  0  0  0  0  0  0  0  0  0  0  0
  125.4540  123.2850   60.0100 O   0  0  0  0  0  0  0  0  0  0  0  0
  125.7780  125.5270   59.5520 O   0  0  0  0  0  0  0  0  0  0  0  0
  126.7890  125.7180   60.4670 C   0  0  0  0  0  0  0  0  0  0  0  0
  127.0110  126.9950   60.9860 C   0  0  0  0  0  0  0  0  0  0  0  0
  128.0230  127.1980   61.9190 C   0  0  0  0  0  0  0  0  0  0  0  0
  128.8130  126.1250   62.3430 C   0  0  0  0  0  0  0  0  0  0  0  0
  129.9390  126.3580   63.3570 C   0  0  1  0  0  0  0  0  0  0  0  0
  129.4040  126.4500   64.8050 C   0  0  0  0  0  0  0  0  0  0  0  0
  129.9130  125.7240   65.8170 C   0  0  0  0  0  0  0  0  0  0  0  0
  130.9490  124.8420   65.6360 N   0  0  0  0  0  0  0  0  0  0  0  0
  131.5220  124.6550   64.4000 C   0  0  0  0  0  0  0  0  0  0  0  0
  132.5390  123.7560   64.3930 N   0  0  0  0  0  0  0  0  0  0  0  0
  133.1730  123.3840   63.2470 C   0  0  0  0  0  0  0  0  0  0  0  0
  133.8530  122.3560   63.2420 O   0  0  0  0  0  0  0  0  0  0  0  0
  132.8350  124.1470   62.1410 N   0  0  0  0  0  0  0  0  0  0  0  0
  133.5620  123.8440   60.8900 C   0  0  0  0  0  0  0  0  0  0  0  0
  131.8190  125.0820   62.0370 C   0  0  0  0  0  0  0  0  0  0  0  0
  131.5390  125.6890   60.9990 O   0  0  0  0  0  0  0  0  0  0  0  0
  131.0990  125.3200   63.2930 C   0  0  0  0  0  0  0  0  0  0  0  0
  129.2190  126.0130   67.0610 C   0  0  0  0  0  0  0  0  0  0  0  0
  129.3600  125.5320   68.3630 C   0  0  0  0  0  0  0  0  0  0  0  0
  128.5170  126.0190   69.3650 C   0  0  0  0  0  0  0  0  0  0  0  0
  127.5460  126.9790   69.0630 C   0  0  0  0  0  0  0  0  0  0  0  0
  127.4100  127.4570   67.7570 C   0  0  0  0  0  0  0  0  0  0  0  0
  128.2530  126.9650   66.7600 C   0  0  0  0  0  0  0  0  0  0  0  0
  128.3290  127.2920   65.3200 C   0  0  0  0  0  0  0  0  0  0  0  0
  127.6620  128.0840   64.6570 O   0  0  0  0  0  0  0  0  0  0  0  0
  128.5760  124.8430   61.8350 C   0  0  0  0  0  0  0  0  0  0  0  0
  127.5620  124.6390   60.9040 C   0  0  0  0  0  0  0  0  0  0  0  0
  125.7390  124.2220   56.7500 N   0  0  0  0  0  0  0  0  0  0  0  0
  126.0830  123.1180   56.0280 C   0  0  0  0  0  0  0  0  0  0  0  0
  125.6470  121.9730   56.1600 O   0  0  0  0  0  0  0  0  0  0  0  0
  127.0950  123.5860   55.0490 C   0  0  0  0  0  0  0  0  0  0  0  0
  127.7960  122.8950   54.0600 C   0  0  0  0  0  0  0  0  0  0  0  0
  128.7040  123.6040   53.2640 C   0  0  0  0  0  0  0  0  0  0  0  0
  128.8960  124.9770   53.4640 C   0  0  0  0  0  0  0  0  0  0  0  0
  128.1820  125.6520   54.4600 C   0  0  0  0  0  0  0  0  0  0  0  0
  127.2830  124.9270   55.2440 C   0  0  0  0  0  0  0  0  0  0  0  0
  126.3960  125.3550   56.3540 C   0  0  0  0  0  0  0  0  0  0  0  0
  126.2740  126.4900   56.8160 O   0  0  0  0  0  0  0  0  0  0  0  0
  2  1  1  6
  2  3  1  0
  3  4  2  0
  3  5  1  0
  5  6  1  0
  6  7  2  0
  7  8  1  0
  8  9  2  0
 10  9  1  6
 10 11  1  0
 11 12  2  0
 12 13  1  0
 13 14  1  0
 14 15  1  0
 15 16  1  0
 16 17  2  0
 16 18  1  0
 18 19  1  0
 18 20  1  0
 20 21  2  0
 20 22  1  0
 12 23  1  0
 23 24  2  0
 24 25  1  0
 25 26  2  0
 26 27  1  0
 27 28  2  0
 28 29  1  0
 29 30  2  0
  9 31  1  0
 31 32  2  0
  2 33  1  0
 33 34  1  0
 34 35  2  0
 34 36  1  0
 36 37  2  0
 37 38  1  0
 38 39  2  0
 39 40  1  0
 40 41  2  0
 41 42  1  0
 42 43  2  0
 32  6  1  0
 42 33  1  0
 22 10  1  0
 28 23  1  0
 41 36  1  0
 29 11  1  0
 22 14  2  0
M  END
>  <Binding energies>  (76) 
[-10.83]

>  <Ligand effiencies>  (76) 
[-0.24066666666666667]

>  <Interactions>  (76) 
["V-A:HIS:456:CE1:4069, V-A:TYR:484:CZ:4347, V-B:GLU:543:CB:9878, V-B:HIS:456:CE1:9040, V-B:GLU:543:C:9874, H-A:TYR:484:OH:4348, V-B:GLU:543:CD:9880, V-A:GLU:543:CD:4908, H-A:GLY:454:N:4050, V-A:ASP:366:CG:3213, V-B:ILE:538:CA:9832, V-B:LEU:363:CD1:8160, V-B:TYR:539:CD1:9845, V-B:ILE:538:CB:9834, V-B:TYR:539:CZ:9849, H-B:TYR:539:N:9842, V-B:PRO:540:CB:9857, V-B:TYR:539:CE1:9847, V-B:ILE:538:CG2:9835, V-B:LEU:363:CA:8156, H-B:TYR:531:OH:9767, V-A:MET:535:CE:4835, V-B:GLU:543:CG:9879, V-A:GLY:454:CA:4049, V-B:ASP:366:CG:8184, V-B:ASP:366:CB:8183"]

$$$$
RR25_Rahimova_2017
     RDKit          3D

 39 44  0  0  0  0  0  0  0  0999 V2000
  123.0160  130.0150   66.2260 O   0  0  0  0  0  0  0  0  0  0  0  0
  124.1790  129.6600   66.0300 C   0  0  0  0  0  0  0  0  0  0  0  0
  124.7940  128.9990   67.0640 O   0  0  0  0  0  0  0  0  0  0  0  0
  125.9950  128.3370   66.8850 C   0  0  0  0  0  0  0  0  0  0  0  0
  126.2630  127.2790   67.7520 C   0  0  0  0  0  0  0  0  0  0  0  0
  127.4580  126.5730   67.6340 C   0  0  0  0  0  0  0  0  0  0  0  0
  128.4010  126.9150   66.6530 C   0  0  0  0  0  0  0  0  0  0  0  0
  129.6700  126.1570   66.5240 N   0  0  0  0  0  0  0  0  0  0  0  0
  130.7190  126.7070   66.8480 O   0  0  0  0  0  0  0  0  0  0  0  0
  129.6260  125.0070   66.0970 O   0  0  0  0  0  0  0  0  0  0  0  0
  128.1170  127.9920   65.7980 C   0  0  0  0  0  0  0  0  0  0  0  0
  126.9270  128.7150   65.9080 C   0  0  0  0  0  0  0  0  0  0  0  0
  126.5690  129.8790   65.0010 C   0  0  0  0  0  0  0  0  0  0  0  0
  125.0340  129.8940   64.7510 C   0  0  2  0  0  0  0  0  0  0  0  0
  124.6170  131.1320   63.9040 C   0  0  0  0  0  0  0  0  0  0  0  0
  124.4680  132.1880   64.5250 O   0  0  0  0  0  0  0  0  0  0  0  0
  124.5430  131.0890   62.5400 N   0  0  0  0  0  0  0  0  0  0  0  0
  124.4030  129.8260   61.7850 C   0  0  0  0  0  0  0  0  0  0  0  0
  125.2140  129.9310   60.4770 C   0  0  0  0  0  0  0  0  0  0  0  0
  124.8210  131.1070   59.6950 N   0  0  0  0  0  0  0  0  0  0  0  0
  125.4960  131.1360   58.3910 C   0  0  0  0  0  0  0  0  0  0  0  0
  126.8210  130.3290   58.3790 C   0  0  0  0  0  0  0  0  0  0  0  0
  127.8190  130.7210   57.3420 N   0  0  0  0  0  0  0  0  0  0  0  0
  127.4210  130.5240   56.0370 C   0  0  0  0  0  0  0  0  0  0  0  0
  126.3320  130.0250   55.7290 O   0  0  0  0  0  0  0  0  0  0  0  0
  128.4200  130.9890   54.9950 C   0  0  0  0  0  0  0  0  0  0  0  0
  128.1060  130.8600   53.6350 C   0  0  0  0  0  0  0  0  0  0  0  0
  128.9970  131.2840   52.6510 C   0  0  0  0  0  0  0  0  0  0  0  0
  130.2240  131.8510   52.9910 C   0  0  0  0  0  0  0  0  0  0  0  0
  130.5850  132.0000   54.3520 C   0  0  0  0  0  0  0  0  0  0  0  0
  131.8120  132.5680   54.7670 C   0  0  0  0  0  0  0  0  0  0  0  0
  132.1040  132.6890   56.1250 C   0  0  0  0  0  0  0  0  0  0  0  0
  131.1990  132.2560   57.0920 C   0  0  0  0  0  0  0  0  0  0  0  0
  129.9720  131.6880   56.7280 C   0  0  0  0  0  0  0  0  0  0  0  0
  129.6680  131.5630   55.3480 C   0  0  0  0  0  0  0  0  0  0  0  0
  129.0100  131.2370   57.8110 C   0  0  0  0  0  0  0  0  0  0  0  0
  129.2790  131.3450   59.0120 O   0  0  0  0  0  0  0  0  0  0  0  0
  125.0800  132.3250   60.4660 C   0  0  0  0  0  0  0  0  0  0  0  0
  124.2840  132.3410   61.7930 C   0  0  0  0  0  0  0  0  0  0  0  0
  1  2  2  0
  2  3  1  0
  3  4  1  0
  4  5  2  0
  5  6  1  0
  6  7  2  0
  7  8  1  0
  8  9  2  0
  8 10  1  0
  7 11  1  0
 11 12  2  0
 12 13  1  0
 13 14  1  0
 14 15  1  1
 15 16  2  0
 15 17  1  0
 17 18  1  0
 18 19  1  0
 19 20  1  0
 20 21  1  0
 21 22  1  0
 22 23  1  0
 23 24  1  0
 24 25  2  0
 24 26  1  0
 26 27  2  0
 27 28  1  0
 28 29  2  0
 29 30  1  0
 30 31  2  0
 31 32  1  0
 32 33  2  0
 33 34  1  0
 34 35  2  0
 34 36  1  0
 36 37  2  0
 20 38  1  0
 38 39  1  0
 14  2  1  0
 39 17  1  0
 12  4  1  0
 36 23  1  0
 35 26  1  0
 35 30  1  0
M  CHG  2   8   1  10  -1
M  END
>  <Binding energies>  (77) 
[-11.79]

>  <Ligand effiencies>  (77) 
[-0.3023076923076923]

>  <Interactions>  (77) 
["V-A:HIS:456:CE1:4069, V-B:ARG:545:CZ:9898, H-B:GLY:454:N:9021, V-B:GLU:543:CB:9878, V-B:HIS:456:CE1:9040, V-B:GLU:543:C:9874, V-B:ARG:545:CG:9894, V-B:GLY:454:CA:9020, H-A:TYR:484:OH:4348, V-B:ARG:545:CD:9895, V-A:GLU:543:CD:4908, H-B:TYR:484:OH:9319, H-B:ILE:455:N:9026, V-A:ILE:538:CG2:4863, V-A:ILE:538:CD1:4865, V-A:ILE:538:CA:4860, V-A:ILE:538:CB:4862, H-B:TYR:531:OH:9767, V-A:LEU:363:CD1:3189, V-A:MET:535:CG:4833, V-A:TYR:539:CZ:4877, V-A:PRO:540:CD:4887, V-A:TYR:539:C:4867, V-A:MET:535:CB:4832, V-A:PRO:540:CB:4885, V-A:PRO:540:N:4884, V-A:TYR:539:CE1:4875, V-A:PRO:540:CA:4883, H-B:ARG:545:NE:9896, V-A:TYR:539:CE2:4876, V-B:ASP:366:CG:8184, H-A:TYR:539:OH:4878, V-B:ILE:369:CD1:8210, V-A:PRO:540:CG:4886, H-A:HIS:456:NE2:4070"]

$$$$
RR27_Rahimova_2017
     RDKit          3D

 39 44  0  0  0  0  0  0  0  0999 V2000
  127.1580  132.1360   63.9530 O   0  0  0  0  0  0  0  0  0  0  0  0
  126.5780  131.7330   62.9400 C   0  0  0  0  0  0  0  0  0  0  0  0
  125.8730  130.3460   62.9960 C   0  0  0  0  0  0  0  0  0  0  0  0
  125.4080  129.9600   64.4130 C   0  0  0  0  0  0  0  0  0  0  0  0
  126.2340  129.2460   65.2940 C   0  0  0  0  0  0  0  0  0  0  0  0
  125.7840  128.9160   66.5690 C   0  0  0  0  0  0  0  0  0  0  0  0
  124.5060  129.2970   66.9680 C   0  0  0  0  0  0  0  0  0  0  0  0
  123.6740  130.0040   66.1050 C   0  0  0  0  0  0  0  0  0  0  0  0
  124.1250  130.3340   64.8300 C   0  0  0  0  0  0  0  0  0  0  0  0
  126.6850  129.2620   62.2610 C   0  0  0  0  0  0  0  0  0  0  0  0
  128.0740  129.1560   62.4090 C   0  0  0  0  0  0  0  0  0  0  0  0
  128.7790  128.1710   61.7210 C   0  0  0  0  0  0  0  0  0  0  0  0
  128.0990  127.2940   60.8800 C   0  0  0  0  0  0  0  0  0  0  0  0
  126.7200  127.3960   60.7160 C   0  0  0  0  0  0  0  0  0  0  0  0
  126.0170  128.3810   61.4020 C   0  0  0  0  0  0  0  0  0  0  0  0
  126.4150  132.5290   61.8450 N   0  0  0  0  0  0  0  0  0  0  0  0
  125.9650  132.0270   60.5380 C   0  0  0  0  0  0  0  0  0  0  0  0
  127.2280  131.5630   59.7780 C   0  0  0  0  0  0  0  0  0  0  0  0
  128.3110  132.6820   59.6680 C   0  0  0  0  0  0  0  0  0  0  0  0
  129.6350  132.2380   59.0190 C   0  0  0  0  0  0  0  0  0  0  0  0
  130.5540  131.6600   59.8460 N   0  0  0  0  0  0  0  0  0  0  0  0
  131.7300  131.2250   59.3170 C   0  0  0  0  0  0  0  0  0  0  0  0
  132.7260  130.6260   60.0430 O   0  0  0  0  0  0  0  0  0  0  0  0
  131.9520  131.3910   57.9360 C   0  0  0  0  0  0  0  0  0  0  0  0
  132.9860  131.0730   57.1040 N   0  0  0  0  0  0  0  0  0  0  0  0
  132.6340  131.4920   55.8340 N   0  0  0  0  0  0  0  0  0  0  0  0
  131.4050  132.0480   55.8830 N   0  0  0  0  0  0  0  0  0  0  0  0
  130.7940  132.6010   54.6780 C   0  0  0  0  0  0  0  0  0  0  0  0
  129.6640  131.7480   54.1170 C   0  0  0  0  0  0  0  0  0  0  0  0
  128.8190  132.2600   53.1270 C   0  0  0  0  0  0  0  0  0  0  0  0
  127.7900  131.4740   52.6060 C   0  0  0  0  0  0  0  0  0  0  0  0
  127.6040  130.1710   53.0680 C   0  0  0  0  0  0  0  0  0  0  0  0
  128.4500  129.6510   54.0490 C   0  0  0  0  0  0  0  0  0  0  0  0
  128.2380  128.0290   54.6030 Cl  0  0  0  0  0  0  0  0  0  0  0  0
  129.4730  130.4390   54.5760 C   0  0  0  0  0  0  0  0  0  0  0  0
  130.9330  132.0130   57.1850 C   0  0  0  0  0  0  0  0  0  0  0  0
  129.7740  132.4560   57.6800 N   0  0  0  0  0  0  0  0  0  0  0  0
  128.5080  133.4360   61.0200 C   0  0  0  0  0  0  0  0  0  0  0  0
  127.1730  133.7840   61.7240 C   0  0  0  0  0  0  0  0  0  0  0  0
  1  2  2  0
  2  3  1  0
  3  4  1  0
  4  5  2  0
  5  6  1  0
  6  7  2  0
  7  8  1  0
  8  9  2  0
  3 10  1  0
 10 11  2  0
 11 12  1  0
 12 13  2  0
 13 14  1  0
 14 15  2  0
  2 16  1  0
 16 17  1  0
 17 18  1  0
 18 19  1  0
 19 20  1  0
 20 21  2  0
 21 22  1  0
 22 23  1  0
 22 24  2  0
 24 25  1  0
 25 26  2  0
 26 27  1  0
 27 28  1  0
 28 29  1  0
 29 30  2  0
 30 31  1  0
 31 32  2  0
 32 33  1  0
 33 34  1  0
 33 35  2  0
 27 36  1  0
 36 37  2  0
 19 38  1  0
 38 39  1  0
  9  4  1  0
 15 10  1  0
 39 16  1  0
 37 20  1  0
 36 24  1  0
 35 29  1  0
M  END
>  <Binding energies>  (78) 
[-10.81]

>  <Ligand effiencies>  (78) 
[-0.27025]

>  <Interactions>  (78) 
["V-B:ARG:545:CZ:9898, V-B:HIS:456:CE1:9040, V-B:ARG:545:CG:9894, V-B:GLY:454:CA:9020, V-B:ARG:545:CD:9895, H-A:ASP:366:OD1:3214, H-B:TYR:484:OH:9319, V-A:ILE:538:CD1:4865, H-A:TYR:531:OH:4795, V-A:ILE:538:CA:4860, V-A:MET:535:CE:4835, V-A:PRO:540:CD:4887, V-A:TYR:539:C:4867, V-A:PRO:540:CB:4885, V-A:PRO:540:N:4884, V-A:TYR:539:CE1:4875, V-A:PRO:540:CA:4883, V-A:TYR:539:CD1:4873, V-B:LEU:475:CD1:9229, V-A:TYR:539:CE2:4876, V-A:ALA:541:CB:4892, V-A:TYR:539:CD2:4874, V-B:ASP:366:CG:8184, V-A:PRO:540:C:4881, V-B:MET:535:CE:9807, V-A:VAL:537:C:4850, V-B:GLY:454:C:9018"]

$$$$
RR28_Rahimova_2017
     RDKit          3D

 46 49  0  0  0  0  0  0  0  0999 V2000
  126.7520  135.8130   61.4080 C   0  0  0  0  0  0  0  0  0  0  0  0
  126.8850  134.3370   61.0470 C   0  0  0  0  0  0  0  0  0  0  0  0
  126.0430  133.8120   60.3210 O   0  0  0  0  0  0  0  0  0  0  0  0
  127.9480  133.6890   61.5640 N   0  0  0  0  0  0  0  0  0  0  0  0
  128.3250  132.2680   61.3930 C   0  0  0  0  0  0  0  0  0  0  0  0
  129.1400  132.1350   60.0750 C   0  0  0  0  0  0  0  0  0  0  0  0
  128.5980  132.6280   58.8780 C   0  0  0  0  0  0  0  0  0  0  0  0
  129.2960  132.5240   57.6790 C   0  0  0  0  0  0  0  0  0  0  0  0
  130.5550  131.9220   57.6490 C   0  0  0  0  0  0  0  0  0  0  0  0
  131.3060  131.8120   56.3230 C   0  0  0  0  0  0  0  0  0  0  0  0
  130.9000  130.7680   55.5960 F   0  0  0  0  0  0  0  0  0  0  0  0
  131.1250  132.9140   55.5960 F   0  0  0  0  0  0  0  0  0  0  0  0
  132.6090  131.6680   56.5670 F   0  0  0  0  0  0  0  0  0  0  0  0
  131.1060  131.4250   58.8340 C   0  0  0  0  0  0  0  0  0  0  0  0
  130.4060  131.5310   60.0320 C   0  0  0  0  0  0  0  0  0  0  0  0
  127.0510  131.3500   61.4430 C   0  0  0  0  0  0  0  0  0  0  0  0
  126.3530  131.3450   62.8270 C   0  0  0  0  0  0  0  0  0  0  0  0
  127.3560  130.8800   63.7980 N   0  0  0  0  0  0  0  0  0  0  0  0
  127.4320  129.5620   64.1300 C   0  0  0  0  0  0  0  0  0  0  0  0
  126.5780  128.7470   63.7730 O   0  0  0  0  0  0  0  0  0  0  0  0
  128.5310  129.1010   65.1180 C   0  0  0  0  0  0  0  0  0  0  0  0
  128.1860  129.2340   66.6270 C   0  0  0  0  0  0  0  0  0  0  0  0
  127.4290  128.0300   67.2350 C   0  0  0  0  0  0  0  0  0  0  0  0
  126.2230  127.9230   66.9940 O   0  0  0  0  0  0  0  0  0  0  0  0
  128.1220  127.0580   67.8930 N   0  0  0  0  0  0  0  0  0  0  0  0
  129.4540  127.2690   68.4740 C   0  0  0  0  0  0  0  0  0  0  0  0
  129.2320  127.8670   69.8800 C   0  0  0  0  0  0  0  0  0  0  0  0
  128.3330  126.9980   70.8280 C   0  0  0  0  0  0  0  0  0  0  0  0
  127.8710  127.8320   71.9570 N   0  0  0  0  0  0  0  0  0  0  0  0
  127.3310  127.4270   73.1240 C   0  0  0  0  0  0  0  0  0  0  0  0
  126.9290  128.5280   74.1010 C   0  0  0  0  0  0  0  0  0  0  0  0
  127.1500  126.2490   73.4280 O   0  0  0  0  0  0  0  0  0  0  0  0
  129.2330  125.8640   71.4170 C   0  0  0  0  0  0  0  0  0  0  0  0
  129.9510  126.0070   72.6170 C   0  0  0  0  0  0  0  0  0  0  0  0
  130.7410  124.9720   73.1080 C   0  0  0  0  0  0  0  0  0  0  0  0
  130.8370  123.7660   72.4100 C   0  0  0  0  0  0  0  0  0  0  0  0
  131.6970  122.6180   72.9380 C   0  0  0  0  0  0  0  0  0  0  0  0
  132.7590  122.4260   72.1520 F   0  0  0  0  0  0  0  0  0  0  0  0
  132.1240  122.9200   74.1640 F   0  0  0  0  0  0  0  0  0  0  0  0
  131.0200  121.4700   73.0020 F   0  0  0  0  0  0  0  0  0  0  0  0
  130.1370  123.6110   71.2130 C   0  0  0  0  0  0  0  0  0  0  0  0
  129.3480  124.6470   70.7250 C   0  0  0  0  0  0  0  0  0  0  0  0
  127.1010  126.4500   70.0080 C   0  0  0  0  0  0  0  0  0  0  0  0
  127.4040  125.9670   68.5640 C   0  0  0  0  0  0  0  0  0  0  0  0
  128.4890  131.8030   63.9530 C   0  0  0  0  0  0  0  0  0  0  0  0
  129.2330  131.8410   62.5930 C   0  0  0  0  0  0  0  0  0  0  0  0
  1  2  1  0
  2  3  2  0
  2  4  1  0
  4  5  1  0
  5  6  1  0
  6  7  2  0
  7  8  1  0
  8  9  2  0
  9 10  1  0
 10 11  1  0
 10 12  1  0
 10 13  1  0
  9 14  1  0
 14 15  2  0
  5 16  1  0
 16 17  1  0
 17 18  1  0
 18 19  1  0
 19 20  2  0
 19 21  1  0
 21 22  1  0
 22 23  1  0
 23 24  2  0
 23 25  1  0
 25 26  1  0
 26 27  1  0
 27 28  1  0
 28 29  1  0
 29 30  1  0
 30 31  1  0
 30 32  2  0
 28 33  1  0
 33 34  2  0
 34 35  1  0
 35 36  2  0
 36 37  1  0
 37 38  1  0
 37 39  1  0
 37 40  1  0
 36 41  1  0
 41 42  2  0
 28 43  1  0
 43 44  1  0
 18 45  1  0
 45 46  1  0
 46  5  1  0
 15  6  1  0
 44 25  1  0
 42 33  1  0
M  END
>  <Binding energies>  (79) 
[-10.0]

>  <Ligand effiencies>  (79) 
[-0.20833333333333334]

>  <Interactions>  (79) 
["V-A:HIS:456:CE1:4069, V-A:HIS:456:CD2:4068, V-A:TYR:484:CZ:4347, H-B:LYS:547:NZ:9923, V-B:GLU:543:CB:9878, V-B:HIS:456:CE1:9040, V-A:TYR:484:CE2:4346, V-A:HIS:456:CG:4066, H-B:ARG:545:NH2:9900, V-B:GLU:543:C:9874, V-A:TYR:484:CD2:4344, V-A:TYR:484:CD1:4343, V-A:TYR:484:CE1:4345, V-A:TYR:484:CG:4342, V-A:GLU:543:CD:4908, V-A:ASP:473:CB:4239, H-B:HIS:456:ND1:9038, V-B:HIS:456:CG:9037, V-A:HIS:456:CB:4065, V-B:HIS:456:CD2:9039, V-A:ASP:473:CG:4240, V-A:GLU:543:CB:4906, V-A:GLU:543:CG:4907, V-A:ILE:538:C:4858, V-A:ILE:538:CA:4860, V-A:LEU:363:CD1:3189, V-A:PRO:540:CD:4887, V-A:TYR:539:C:4867, V-A:TYR:539:CG:4872, V-A:PRO:540:CB:4885, V-A:PRO:540:N:4884, V-A:TYR:539:CE1:4875, V-A:PRO:540:CA:4883, V-A:TYR:539:CD1:4873, V-B:LEU:475:CD1:9229, V-B:PRO:482:CG:9298, V-A:TYR:539:CE2:4876, V-A:ALA:541:CB:4892, V-A:TYR:539:CD2:4874, H-A:TYR:539:O:4868, V-B:TRP:381:CZ2:8341, V-B:TRP:381:CH2:8343, V-B:PRO:482:CB:9297, V-B:GLU:543:CA:9876, V-B:HIS:456:CB:9036, V-B:GLY:544:C:9884, V-A:HIS:456:CA:4063, V-B:ARG:545:CA:9891, V-A:TYR:484:CB:4341, V-A:ASP:473:C:4235"]

$$$$
RR29_Rahimova_2017
     RDKit          3D

 18 19  0  0  0  0  0  0  0  0999 V2000
  127.9880  132.5800   62.4400 C   0  0  0  0  0  0  0  0  0  0  0  0
  129.0080  132.4250   61.3220 C   0  0  0  0  0  0  0  0  0  0  0  0
  128.5040  132.9660   59.9660 C   0  0  0  0  0  0  0  0  0  0  0  0
  127.8210  131.8620   59.1300 C   0  0  0  0  0  0  0  0  0  0  0  0
  128.4030  131.7550   57.7300 C   0  0  0  0  0  0  0  0  0  0  0  0
  127.8450  130.8530   56.8030 C   0  0  0  0  0  0  0  0  0  0  0  0
  128.3660  130.7390   55.5060 C   0  0  0  0  0  0  0  0  0  0  0  0
  129.4550  131.5390   55.1780 C   0  0  0  0  0  0  0  0  0  0  0  0
  130.0010  132.4140   56.0740 C   0  0  0  0  0  0  0  0  0  0  0  0
  129.4990  132.5560   57.3630 C   0  0  0  0  0  0  0  0  0  0  0  0
  131.0230  133.0860   55.4790 O   0  0  0  0  0  0  0  0  0  0  0  0
  131.2330  132.4450   54.2490 C   0  0  0  0  0  0  0  0  0  0  0  0
  130.1160  131.6340   53.9940 O   0  0  0  0  0  0  0  0  0  0  0  0
  130.1360  131.8790   61.5910 N   0  0  0  0  0  0  0  0  0  0  0  0
  131.0270  131.6600   60.5640 N   0  0  0  0  0  0  0  0  0  0  0  0
  131.8830  130.6250   60.5190 C   0  0  0  0  0  0  0  0  0  0  0  0
  131.9710  129.6680   61.4430 N   0  0  0  0  0  0  0  0  0  0  0  0
  132.7000  130.5470   59.4790 N   0  0  0  0  0  0  0  0  0  0  0  0
  1  2  1  0
  2  3  1  0
  3  4  1  0
  4  5  1  0
  5  6  2  0
  6  7  1  0
  7  8  2  0
  8  9  1  0
  9 10  2  0
  9 11  1  0
 11 12  1  0
 12 13  1  0
  2 14  2  0
 14 15  1  0
 15 16  1  0
 16 17  1  0
 16 18  2  0
 10  5  1  0
 13  8  1  0
M  CHG  1  18   1
M  END
>  <Binding energies>  (80) 
[-7.35]

>  <Ligand effiencies>  (80) 
[-0.31956521739130433]

>  <Interactions>  (80) 
["V-A:GLU:543:CD:4908, H-A:GLU:543:OE2:4910, V-A:ASP:366:CG:3213, H-A:ASP:366:OD1:3214, H-A:GLU:543:OE1:4909, V-A:ILE:538:CD1:4865, V-A:ILE:538:CA:4860, H-A:TYR:539:N:4870, V-A:TYR:539:CZ:4877, V-A:TYR:539:C:4867, V-A:TYR:539:CG:4872, V-A:PRO:540:CB:4885, V-A:PRO:540:N:4884, V-A:TYR:539:CE1:4875, V-A:PRO:540:CA:4883, V-A:TYR:539:CD1:4873, V-A:TYR:539:CE2:4876, H-A:ALA:541:N:4891, V-A:ALA:541:CB:4892, V-A:TYR:539:CD2:4874, V-A:PRO:540:C:4881"]

$$$$
RR30_Rahimova_2017
     RDKit          3D

 18 19  0  0  0  0  0  0  0  0999 V2000
  133.8820  131.0930   60.2450 C   0  0  0  0  0  0  0  0  0  0  0  0
  132.4870  130.7590   59.6960 C   0  0  0  0  0  0  0  0  0  0  0  0
  131.3850  131.4280   60.4870 C   0  0  0  0  0  0  0  0  0  0  0  0
  131.2580  131.5140   61.7880 N   0  0  0  0  0  0  0  0  0  0  0  0
  130.0770  132.2160   62.0120 N   0  0  0  0  0  0  0  0  0  0  0  0
  129.5870  132.4860   60.8290 C   0  0  0  0  0  0  0  0  0  0  0  0
  128.1080  133.3700   60.4530 S   0  0  0  0  0  0  0  0  0  0  0  0
  127.2150  132.0990   59.5030 C   0  0  0  0  0  0  0  0  0  0  0  0
  127.8570  131.8400   58.1370 C   0  0  0  0  0  0  0  0  0  0  0  0
  127.4110  130.9390   57.4230 O   0  0  0  0  0  0  0  0  0  0  0  0
  128.9150  132.6210   57.8250 N   0  0  0  0  0  0  0  0  0  0  0  0
  129.6570  132.5730   56.6530 C   0  0  0  0  0  0  0  0  0  0  0  0
  130.6740  133.3280   56.3030 N   0  0  0  0  0  0  0  0  0  0  0  0
  131.1730  132.9930   55.0500 N   0  0  0  0  0  0  0  0  0  0  0  0
  130.5300  131.9980   54.4820 C   0  0  0  0  0  0  0  0  0  0  0  0
  130.8850  131.4550   53.1170 C   0  0  0  0  0  0  0  0  0  0  0  0
  129.2320  131.3800   55.4660 S   0  0  0  0  0  0  0  0  0  0  0  0
  130.3650  132.0210   59.8180 O   0  0  0  0  0  0  0  0  0  0  0  0
  1  2  1  0
  2  3  1  0
  3  4  2  0
  4  5  1  0
  5  6  2  0
  6  7  1  0
  7  8  1  0
  8  9  1  0
  9 10  2  0
  9 11  1  0
 11 12  1  0
 12 13  2  0
 13 14  1  0
 14 15  2  0
 15 16  1  0
 15 17  1  0
  6 18  1  0
 18  3  1  0
 17 12  1  0
M  END
>  <Binding energies>  (81) 
[-6.84]

>  <Ligand effiencies>  (81) 
[-0.36]

>  <Interactions>  (81) 
["V-A:ASP:366:CG:3213, V-A:ILE:538:CD1:4865, V-A:TYR:531:CE2:4793, V-A:MET:535:CG:4833, H-A:TYR:539:N:4870, V-A:TYR:539:CZ:4877, V-A:TYR:539:C:4867, V-A:LEU:363:CA:3185, V-A:MET:535:CB:4832, V-A:TYR:539:CG:4872, V-A:PRO:540:CB:4885, V-A:PRO:540:N:4884, V-A:TYR:539:CE1:4875, V-A:PRO:540:CA:4883, V-A:TYR:539:CD1:4873, V-A:TYR:539:CE2:4876, H-A:ALA:541:N:4891, V-A:ALA:541:CB:4892, V-A:TYR:539:CD2:4874, H-A:TYR:539:OH:4878, H-A:TYR:539:O:4868, V-A:ASN:362:C:3172, V-A:ASN:362:CB:3176, V-A:PRO:540:C:4881"]

$$$$
RR31_Rahimova_2017
     RDKit          3D

 18 19  0  0  0  0  0  0  0  0999 V2000
  130.8350  131.5310   53.2460 C   0  0  0  0  0  0  0  0  0  0  0  0
  130.2420  131.7540   54.6310 C   0  0  0  0  0  0  0  0  0  0  0  0
  128.9610  131.2760   54.9080 C   0  0  0  0  0  0  0  0  0  0  0  0
  128.3910  131.4610   56.1660 C   0  0  0  0  0  0  0  0  0  0  0  0
  129.0890  132.1230   57.1880 C   0  0  0  0  0  0  0  0  0  0  0  0
  128.5280  132.3260   58.4510 N   0  0  0  0  0  0  0  0  0  0  0  0
  127.3140  131.6120   58.8910 C   0  0  0  0  0  0  0  0  0  0  0  0
  126.6160  132.2490   60.1160 C   0  0  0  0  0  0  0  0  0  0  0  0
  127.5460  132.3740   61.2410 N   0  0  0  0  0  0  0  0  0  0  0  0
  126.9030  132.9430   62.4300 C   0  0  0  0  0  0  0  0  0  0  0  0
  127.5490  132.4710   63.7480 C   0  0  0  0  0  0  0  0  0  0  0  0
  127.7890  130.9530   63.7690 C   0  0  0  0  0  0  0  0  0  0  0  0
  128.9920  130.6000   62.8860 N   0  0  0  0  0  0  0  0  0  0  0  0
  128.6410  133.2420   60.8100 C   0  0  0  0  0  0  0  0  0  0  0  0
  129.3930  132.6220   59.6110 C   0  0  0  0  0  0  0  0  0  0  0  0
  130.3730  132.6070   56.8940 C   0  0  0  0  0  0  0  0  0  0  0  0
  130.9560  132.4290   55.6330 C   0  0  0  0  0  0  0  0  0  0  0  0
  132.3520  132.9810   55.3760 C   0  0  0  0  0  0  0  0  0  0  0  0
  1  2  1  0
  2  3  2  0
  3  4  1  0
  4  5  2  0
  5  6  1  0
  6  7  1  0
  7  8  1  0
  8  9  1  0
  9 10  1  0
 10 11  1  0
 11 12  1  0
 12 13  1  0
  9 14  1  0
 14 15  1  0
  5 16  1  0
 16 17  2  0
 17 18  1  0
 17  2  1  0
 15  6  1  0
M  CHG  1  13   1
M  END
>  <Binding energies>  (82) 
[-6.33]

>  <Ligand effiencies>  (82) 
[-0.30142857142857143]

>  <Interactions>  (82) 
["V-A:GLU:543:CD:4908, H-A:GLU:543:OE1:4909, V-A:ILE:538:CG2:4863, V-A:ILE:538:CD1:4865, V-A:ILE:538:C:4858, V-A:ILE:538:CA:4860, V-A:ILE:538:CB:4862, V-A:LEU:363:CD1:3189, V-A:TYR:531:CE2:4793, V-A:MET:535:CG:4833, V-A:TYR:539:CZ:4877, V-A:PRO:540:CD:4887, V-A:TYR:539:C:4867, V-A:MET:535:CB:4832, V-A:TYR:539:CG:4872, V-A:PRO:540:N:4884, V-A:TYR:539:CE1:4875, V-A:PRO:540:CA:4883, V-A:TYR:539:CD1:4873, V-A:TYR:539:CA:4869, V-B:LEU:475:CD1:9229, V-A:TYR:539:CE2:4876, V-A:ALA:541:CB:4892, V-A:TYR:539:CD2:4874, V-A:PRO:540:C:4881"]

$$$$
RR32_Rahimova_2017
     RDKit          3D

 18 20  0  0  0  0  0  0  0  0999 V2000
  132.3930  132.9410   55.0120 C   0  0  0  0  0  0  0  0  0  0  0  0
  131.0910  132.3190   55.5050 C   0  0  0  0  0  0  0  0  0  0  0  0
  130.8900  132.2160   56.8820 C   0  0  0  0  0  0  0  0  0  0  0  0
  129.7120  131.6570   57.3700 C   0  0  0  0  0  0  0  0  0  0  0  0
  129.5170  131.5560   58.7360 N   0  0  0  0  0  0  0  0  0  0  0  0
  130.6860  131.2050   59.5620 C   0  0  0  0  0  0  0  0  0  0  0  0
  130.3300  130.9390   61.0440 C   0  0  0  0  0  0  0  0  0  0  0  0
  129.6830  132.1150   61.6270 N   0  0  0  0  0  0  0  0  0  0  0  0
  129.3760  131.8760   63.0330 C   0  0  0  0  0  0  0  0  0  0  0  0
  128.4560  132.3730   60.8770 C   0  0  0  0  0  0  0  0  0  0  0  0
  128.7830  132.6560   59.3920 C   0  0  0  0  0  0  0  0  0  0  0  0
  128.7290  131.1950   56.5550 N   0  0  0  0  0  0  0  0  0  0  0  0
  128.8970  131.2790   55.2070 C   0  0  0  0  0  0  0  0  0  0  0  0
  127.8570  130.7870   54.3810 C   0  0  0  0  0  0  0  0  0  0  0  0
  127.9740  130.8470   52.9970 C   0  0  0  0  0  0  0  0  0  0  0  0
  129.1100  131.3890   52.4090 C   0  0  0  0  0  0  0  0  0  0  0  0
  130.1510  131.8820   53.1910 C   0  0  0  0  0  0  0  0  0  0  0  0
  130.0750  131.8400   54.6140 C   0  0  0  0  0  0  0  0  0  0  0  0
  1  2  1  0
  2  3  2  0
  3  4  1  0
  4  5  1  0
  5  6  1  0
  6  7  1  0
  7  8  1  0
  8  9  1  0
  8 10  1  0
 10 11  1  0
  4 12  2  0
 12 13  1  0
 13 14  2  0
 14 15  1  0
 15 16  2  0
 16 17  1  0
 17 18  2  0
 18  2  1  0
 11  5  1  0
 18 13  1  0
M  END
>  <Binding energies>  (83) 
[-6.5]

>  <Ligand effiencies>  (83) 
[-0.3611111111111111]

>  <Interactions>  (83) 
["V-A:GLU:543:CD:4908, V-A:ILE:538:CG2:4863, V-A:ILE:538:CD1:4865, V-A:ILE:538:C:4858, V-A:ILE:538:CA:4860, V-A:ILE:538:CB:4862, V-A:LEU:363:CD1:3189, V-A:MET:535:CG:4833, V-A:TYR:539:CZ:4877, V-A:PRO:540:CD:4887, V-A:TYR:539:C:4867, V-A:MET:535:CB:4832, V-A:PRO:540:CB:4885, V-A:PRO:540:N:4884, V-A:TYR:539:CE1:4875, V-A:PRO:540:CA:4883, V-A:TYR:539:CD1:4873, V-A:TYR:539:CE2:4876, H-A:ALA:541:N:4891, V-A:ALA:541:CB:4892, V-A:TYR:539:CD2:4874, V-A:ALA:541:CA:4890, V-B:MET:535:CE:9807, V-A:ILE:538:CG1:4864"]

$$$$
RR5_Rahimova_2017
     RDKit          3D

 45 50  0  0  0  0  0  0  0  0999 V2000
  130.1700  128.3440   57.6320 O   0  0  0  0  0  0  0  0  0  0  0  0
  130.1680  129.5240   57.2850 C   0  0  0  0  0  0  0  0  0  0  0  0
  131.3510  130.4340   57.6670 C   0  0  0  0  0  0  0  0  0  0  0  0
  130.9310  131.8930   58.0670 C   0  0  2  0  0  0  0  0  0  0  0  0
  129.8700  131.9780   59.0900 N   0  0  0  0  0  0  0  0  0  0  0  0
  130.1570  131.8910   60.4450 C   0  0  0  0  0  0  0  0  0  0  0  0
  131.2750  131.7860   60.9560 O   0  0  0  0  0  0  0  0  0  0  0  0
  128.9980  131.9250   61.1270 O   0  0  0  0  0  0  0  0  0  0  0  0
  128.9510  131.6600   62.5260 C   0  0  0  0  0  0  0  0  0  0  0  0
  127.7530  132.3820   63.1810 C   0  0  0  0  0  0  0  0  0  0  0  0
  127.0670  133.3790   62.2640 C   0  0  0  0  0  0  0  0  0  0  0  0
  127.5960  134.4950   61.6100 C   0  0  0  0  0  0  0  0  0  0  0  0
  126.7780  135.2700   60.7860 C   0  0  0  0  0  0  0  0  0  0  0  0
  125.4340  134.9340   60.6160 C   0  0  0  0  0  0  0  0  0  0  0  0
  124.9030  133.8210   61.2710 C   0  0  0  0  0  0  0  0  0  0  0  0
  125.7230  133.0480   62.0950 C   0  0  0  0  0  0  0  0  0  0  0  0
  125.4330  131.8500   62.8980 C   0  0  0  0  0  0  0  0  0  0  0  0
  124.2500  131.1310   63.0840 C   0  0  0  0  0  0  0  0  0  0  0  0
  124.2410  130.0240   63.9330 C   0  0  0  0  0  0  0  0  0  0  0  0
  125.4110  129.6350   64.5900 C   0  0  0  0  0  0  0  0  0  0  0  0
  126.5910  130.3530   64.3980 C   0  0  0  0  0  0  0  0  0  0  0  0
  126.6050  131.4610   63.5470 C   0  0  0  0  0  0  0  0  0  0  0  0
  130.5180  132.7080   56.8170 C   0  0  0  0  0  0  0  0  0  0  0  0
  131.2580  132.9850   55.8940 O   0  0  0  0  0  0  0  0  0  0  0  0
  129.1980  133.0460   56.9060 O   0  0  0  0  0  0  0  0  0  0  0  0
  129.2000  130.1080   56.5440 N   0  0  0  0  0  0  0  0  0  0  0  0
  127.9120  129.6190   55.9660 C   0  0  0  0  0  0  0  0  0  0  0  0
  127.8380  130.4110   54.6170 C   0  0  0  0  0  0  0  0  0  0  0  0
  128.9310  131.1580   54.1440 C   0  0  0  0  0  0  0  0  0  0  0  0
  128.8540  131.8560   52.9420 C   0  0  0  0  0  0  0  0  0  0  0  0
  127.6800  131.8290   52.1980 C   0  0  0  0  0  0  0  0  0  0  0  0
  126.5840  131.0980   52.6410 C   0  0  0  0  0  0  0  0  0  0  0  0
  126.6650  130.3910   53.8370 C   0  0  0  0  0  0  0  0  0  0  0  0
  128.0540  128.0750   55.7500 C   0  0  0  0  0  0  0  0  0  0  0  0
  127.4970  127.1500   56.6480 C   0  0  0  0  0  0  0  0  0  0  0  0
  127.6520  125.7810   56.4470 C   0  0  0  0  0  0  0  0  0  0  0  0
  128.3680  125.3190   55.3480 C   0  0  0  0  0  0  0  0  0  0  0  0
  128.9260  126.2150   54.4430 C   0  0  0  0  0  0  0  0  0  0  0  0
  128.7630  127.5820   54.6400 C   0  0  0  0  0  0  0  0  0  0  0  0
  126.7940  130.0370   56.9790 C   0  0  0  0  0  0  0  0  0  0  0  0
  125.4610  129.6250   56.7960 C   0  0  0  0  0  0  0  0  0  0  0  0
  124.4610  130.0000   57.6890 C   0  0  0  0  0  0  0  0  0  0  0  0
  124.7770  130.7910   58.7870 C   0  0  0  0  0  0  0  0  0  0  0  0
  126.0870  131.2020   59.0020 C   0  0  0  0  0  0  0  0  0  0  0  0
  127.0850  130.8250   58.1070 C   0  0  0  0  0  0  0  0  0  0  0  0
  1  2  2  0
  2  3  1  0
  4  3  1  6
  4  5  1  0
  5  6  1  0
  6  7  2  0
  6  8  1  0
  8  9  1  0
  9 10  1  0
 10 11  1  0
 11 12  2  0
 12 13  1  0
 13 14  2  0
 14 15  1  0
 15 16  2  0
 16 17  1  0
 17 18  2  0
 18 19  1  0
 19 20  2  0
 20 21  1  0
 21 22  2  0
  4 23  1  0
 23 24  2  0
 23 25  1  0
  2 26  1  0
 26 27  1  0
 27 28  1  0
 28 29  2  0
 29 30  1  0
 30 31  2  0
 31 32  1  0
 32 33  2  0
 27 34  1  0
 34 35  2  0
 35 36  1  0
 36 37  2  0
 37 38  1  0
 38 39  2  0
 27 40  1  0
 40 41  2  0
 41 42  1  0
 42 43  2  0
 43 44  1  0
 44 45  2  0
 22 10  1  0
 33 28  1  0
 39 34  1  0
 45 40  1  0
 16 11  1  0
 22 17  1  0
M  END
>  <Binding energies>  (84) 
[-10.72]

>  <Ligand effiencies>  (84) 
[-0.22333333333333336]

>  <Interactions>  (84) 
["V-B:ARG:545:CZ:9898, V-B:GLY:454:CA:9020, V-A:MET:535:CE:4835, H-A:TYR:539:N:4870, V-A:TYR:539:CZ:4877, V-A:PRO:540:CD:4887, V-A:TYR:539:C:4867, V-A:PRO:540:CB:4885, V-A:PRO:540:N:4884, V-A:TYR:539:CE1:4875, V-A:PRO:540:CA:4883, V-A:TYR:539:CA:4869, V-B:LEU:475:CD1:9229, V-B:PRO:482:CG:9298, V-A:TYR:539:CE2:4876, H-A:ALA:541:N:4891, V-A:ALA:541:CB:4892, V-A:TYR:539:CD2:4874, V-B:ASP:366:CG:8184, V-B:ASP:366:CB:8183, H-A:TYR:539:O:4868, V-B:TRP:381:CZ2:8341, V-A:PRO:540:C:4881, V-B:TRP:381:CH2:8343, V-B:TYR:531:CE1:9764, V-B:TYR:531:CZ:9766, V-B:MET:535:CE:9807"]

$$$$
