lig1.pdb
 OpenBabel06022622243D

 42 44  0  0  1  0  0  0  0  0999 V2000
  155.2140  135.9740   62.0170 C   0  0  0  0  0  0  0  0  0  0  0  0
  153.5270  129.4250   56.9580 N   0  0  0  0  0  0  0  0  0  0  0  0
  156.3870  135.5990   61.3020 O   0  0  0  0  0  0  0  0  0  0  0  0
  154.2900  134.7460   62.0650 C   0  0  1  0  0  0  0  0  0  0  0  0
  152.8060  131.0400   58.5780 N   0  3  0  0  0  0  0  0  0  0  0  0
  154.3010  134.1190   60.7720 O   0  0  0  0  0  0  0  0  0  0  0  0
  154.7490  133.6200   63.0070 C   0  0  1  0  0  0  0  0  0  0  0  0
  155.6360  128.7980   56.7610 N   0  0  0  0  0  0  0  0  0  0  0  0
  154.4870  133.9100   64.3840 O   0  0  0  0  0  0  0  0  0  0  0  0
  153.9260  132.4190   62.4490 C   0  0  1  0  0  0  0  0  0  0  0  0
  156.3260  130.8230   58.9880 N   0  3  0  0  0  0  0  0  0  0  0  0
  152.6400  132.2970   63.0730 O   0  0  0  0  0  0  0  0  0  0  0  0
  153.8200  132.7670   60.9200 C   0  0  2  0  0  0  0  0  0  0  0  0
  154.5640  131.9150   60.0020 N   0  0  2  0  0  0  0  0  0  0  0  0
  152.6010  130.1880   57.5610 C   0  0  0  0  0  0  0  0  0  0  0  0
  154.0620  131.1520   58.9940 C   0  0  2  0  0  0  0  0  0  0  0  0
  155.0960  130.4900   58.4150 C   0  0  2  0  0  0  0  0  0  0  0  0
  154.7640  129.5910   57.3940 C   0  0  2  0  0  0  0  0  0  0  0  0
  155.9460  131.6690   59.9600 C   0  0  0  0  0  0  0  0  0  0  0  0
  153.3020  128.4500   57.0960 H   0  0  0  0  0  0  0  0  0  0  0  0
  153.2760  135.0540   62.3200 H   0  0  0  0  0  0  0  0  0  0  0  0
  155.8140  133.4340   62.8660 H   0  0  0  0  0  0  0  0  0  0  0  0
  154.4880  131.4940   62.5790 H   0  0  0  0  0  0  0  0  0  0  0  0
  152.7680  132.7430   60.6350 H   0  0  0  0  0  0  0  0  0  0  0  0
  153.9120  130.3240   59.6870 H   0  0  0  0  0  0  0  0  0  0  0  0
  155.2100  131.2910   57.6840 H   0  0  0  0  0  0  0  0  0  0  0  0
  154.9260  130.3700   56.6490 H   0  0  0  0  0  0  0  0  0  0  0  0
  156.1470  135.3250   60.4140 H   0  0  0  0  0  0  0  0  0  0  0  0
  154.7880  133.1790   64.9280 H   0  0  0  0  0  0  0  0  0  0  0  0
  152.7530  132.1640   64.0170 H   0  0  0  0  0  0  0  0  0  0  0  0
  156.4780  132.6140   59.8450 H   0  0  0  0  0  0  0  0  0  0  0  0
  156.2730  131.2810   60.9250 H   0  0  0  0  0  0  0  0  0  0  0  0
  154.7120  136.7850   61.4900 H   0  0  0  0  0  0  0  0  0  0  0  0
  155.4850  136.2640   63.0320 H   0  0  0  0  0  0  0  0  0  0  0  0
  152.2190  130.7770   59.3570 H   0  0  0  0  0  0  0  0  0  0  0  0
  152.4560  131.9530   58.3240 H   0  0  0  0  0  0  0  0  0  0  0  0
  156.5640  128.9590   57.1260 H   0  0  0  0  0  0  0  0  0  0  0  0
  155.3800  127.8320   56.9070 H   0  0  0  0  0  0  0  0  0  0  0  0
  156.8820  131.3250   58.3110 H   0  0  0  0  0  0  0  0  0  0  0  0
  156.7310  129.9980   59.4070 H   0  0  0  0  0  0  0  0  0  0  0  0
  151.7520  129.5530   57.8160 H   0  0  0  0  0  0  0  0  0  0  0  0
  152.0370  130.7110   56.7890 H   0  0  0  0  0  0  0  0  0  0  0  0
  1  4  1  0  0  0  0
  1 34  1  0  0  0  0
  2 20  1  0  0  0  0
  2 18  1  0  0  0  0
  2 15  1  0  0  0  0
  3  1  1  0  0  0  0
  4 21  1  0  0  0  0
  4  7  1  1  0  0  0
  5 16  1  0  0  0  0
  5 35  1  0  0  0  0
  6 13  1  0  0  0  0
  6  4  1  0  0  0  0
  7 10  1  6  0  0  0
  7  9  1  0  0  0  0
  8 38  1  0  0  0  0
  8 37  1  0  0  0  0
  8 18  1  0  0  0  0
  9 29  1  0  0  0  0
 10 13  1  6  0  0  0
 10 23  1  0  0  0  0
 10 12  1  0  0  0  0
 11 40  1  0  0  0  0
 11 19  1  0  0  0  0
 12 30  1  0  0  0  0
 13 24  1  6  0  0  0
 14 16  1  1  0  0  0
 14 13  1  0  0  0  0
 15 41  1  0  0  0  0
 15  5  1  0  0  0  0
 16 17  1  6  0  0  0
 16 25  1  0  0  0  0
 17 18  1  6  0  0  0
 17 11  1  0  0  0  0
 18 27  1  6  0  0  0
 19 14  1  0  0  0  0
 19 32  1  0  0  0  0
 22  7  1  0  0  0  0
 26 17  1  0  0  0  0
 28  3  1  0  0  0  0
 31 19  1  0  0  0  0
 33  1  1  0  0  0  0
 36  5  1  0  0  0  0
 39 11  1  0  0  0  0
 42 15  1  0  0  0  0
M  CHG  2   5   1  11   1
M  END
$$$$
