lig2.pdb
 OpenBabel06022622243D

 42 44  0  0  1  0  0  0  0  0999 V2000
  100.1490  119.5500   63.5790 C   0  0  0  0  0  0  0  0  0  0  0  0
  103.5330  125.4370   58.9610 N   0  0  0  0  0  0  0  0  0  0  0  0
  100.4460  118.2680   63.0120 O   0  0  0  0  0  0  0  0  0  0  0  0
  101.4700  120.3070   63.8500 C   0  0  1  0  0  0  0  0  0  0  0  0
  104.1130  123.8410   60.6650 N   0  3  0  0  0  0  0  0  0  0  0  0
  102.1530  120.5020   62.5910 O   0  0  0  0  0  0  0  0  0  0  0  0
  101.3510  121.7350   64.4580 C   0  0  1  0  0  0  0  0  0  0  0  0
  101.4460  125.7700   58.3500 N   0  0  0  0  0  0  0  0  0  0  0  0
  101.1220  121.7290   65.8670 O   0  0  0  0  0  0  0  0  0  0  0  0
  102.7470  122.3120   64.0650 C   0  0  1  0  0  0  0  0  0  0  0  0
  100.5700  123.6630   60.3390 N   0  3  0  0  0  0  0  0  0  0  0  0
  103.8130  121.8110   64.8830 O   0  0  0  0  0  0  0  0  0  0  0  0
  102.8320  121.7820   62.5990 C   0  0  2  0  0  0  0  0  0  0  0  0
  102.2090  122.6470   61.6080 N   0  0  2  0  0  0  0  0  0  0  0  0
  104.4050  124.7560   59.7250 C   0  0  0  0  0  0  0  0  0  0  0  0
  102.8180  123.5520   60.7970 C   0  0  2  0  0  0  0  0  0  0  0  0
  101.8470  124.1510   60.0620 C   0  0  1  0  0  0  0  0  0  0  0  0
  102.2720  125.1180   59.1600 C   0  0  1  0  0  0  0  0  0  0  0  0
  100.8490  122.7430   61.2720 C   0  0  0  0  0  0  0  0  0  0  0  0
  103.6200  126.4250   59.1500 H   0  0  0  0  0  0  0  0  0  0  0  0
  102.0980  119.6980   64.5010 H   0  0  0  0  0  0  0  0  0  0  0  0
  100.5610  122.2910   63.9530 H   0  0  0  0  0  0  0  0  0  0  0  0
  102.7310  123.4020   64.0800 H   0  0  0  0  0  0  0  0  0  0  0  0
  103.8790  121.6320   62.3340 H   0  0  0  0  0  0  0  0  0  0  0  0
  102.7180  124.3180   61.5660 H   0  0  0  0  0  0  0  0  0  0  0  0
  101.7280  124.9140   60.8310 H   0  0  0  0  0  0  0  0  0  0  0  0
  102.1740  125.8960   59.9180 H   0  0  0  0  0  0  0  0  0  0  0  0
  100.9240  118.3850   62.1880 H   0  0  0  0  0  0  0  0  0  0  0  0
  101.0580  122.6320   66.1850 H   0  0  0  0  0  0  0  0  0  0  0  0
  103.7430  122.1840   65.7650 H   0  0  0  0  0  0  0  0  0  0  0  0
  100.4900  121.7700   60.9380 H   0  0  0  0  0  0  0  0  0  0  0  0
  100.2690  122.9530   62.1710 H   0  0  0  0  0  0  0  0  0  0  0  0
   99.6080  119.4160   64.5160 H   0  0  0  0  0  0  0  0  0  0  0  0
   99.5390  120.1230   62.8810 H   0  0  0  0  0  0  0  0  0  0  0  0
  104.4790  124.1480   61.5550 H   0  0  0  0  0  0  0  0  0  0  0  0
  104.6270  122.9920   60.4760 H   0  0  0  0  0  0  0  0  0  0  0  0
  100.4950  125.4910   58.5420 H   0  0  0  0  0  0  0  0  0  0  0  0
  101.5410  126.7640   58.5000 H   0  0  0  0  0  0  0  0  0  0  0  0
  100.2070  123.2010   59.5170 H   0  0  0  0  0  0  0  0  0  0  0  0
  100.0180  124.3990   60.7550 H   0  0  0  0  0  0  0  0  0  0  0  0
  105.1070  125.4700   60.1550 H   0  0  0  0  0  0  0  0  0  0  0  0
  105.1710  124.3370   59.0720 H   0  0  0  0  0  0  0  0  0  0  0  0
  1  4  1  0  0  0  0
  1 33  1  0  0  0  0
  2 20  1  0  0  0  0
  2 18  1  0  0  0  0
  2 15  1  0  0  0  0
  3  1  1  0  0  0  0
  4  7  1  1  0  0  0
  4 21  1  0  0  0  0
  5 16  1  0  0  0  0
  5 35  1  0  0  0  0
  6 13  1  0  0  0  0
  6  4  1  0  0  0  0
  7 10  1  6  0  0  0
  7  9  1  0  0  0  0
  8 38  1  0  0  0  0
  8 37  1  0  0  0  0
  8 18  1  0  0  0  0
  9 29  1  0  0  0  0
 10 13  1  6  0  0  0
 10 23  1  0  0  0  0
 10 12  1  0  0  0  0
 11 40  1  0  0  0  0
 11 19  1  0  0  0  0
 12 30  1  0  0  0  0
 13 24  1  6  0  0  0
 14 16  1  1  0  0  0
 14 13  1  0  0  0  0
 15 41  1  0  0  0  0
 15  5  1  0  0  0  0
 16 17  1  6  0  0  0
 16 25  1  0  0  0  0
 17 18  1  6  0  0  0
 17 11  1  0  0  0  0
 17 26  1  0  0  0  0
 18 27  1  1  0  0  0
 19 14  1  0  0  0  0
 19 32  1  0  0  0  0
 22  7  1  0  0  0  0
 28  3  1  0  0  0  0
 31 19  1  0  0  0  0
 34  1  1  0  0  0  0
 36  5  1  0  0  0  0
 39 11  1  0  0  0  0
 42 15  1  0  0  0  0
M  CHG  2   5   1  11   1
M  END
$$$$
