1a_Grossjean_2025
     RDKit          3D

 26 27  0  0  0  0  0  0  0  0999 V2000
  127.7910  131.8650   73.0300 C   0  0  0  0  0  0  0  0  0  0  0  0
  128.5160  130.8500   72.1420 C   0  0  0  0  0  0  0  0  0  0  0  0
  129.7060  130.4180   72.7900 O   0  0  0  0  0  0  0  0  0  0  0  0
  130.0560  129.1060   72.8110 C   0  0  0  0  0  0  0  0  0  0  0  0
  130.2330  128.4660   73.8520 O   0  0  0  0  0  0  0  0  0  0  0  0
  130.2220  128.5140   71.4410 C   0  0  0  0  0  0  0  0  0  0  0  0
  129.1640  127.7890   70.8760 C   0  0  0  0  0  0  0  0  0  0  0  0
  129.2890  127.2240   69.6110 C   0  0  0  0  0  0  0  0  0  0  0  0
  130.4710  127.3700   68.8840 C   0  0  0  0  0  0  0  0  0  0  0  0
  130.4880  126.7550   67.6160 N   0  0  0  0  0  0  0  0  0  0  0  0
  129.9380  125.5920   67.2080 C   0  0  0  0  0  0  0  0  0  0  0  0
  129.2870  124.8220   67.9140 O   0  0  0  0  0  0  0  0  0  0  0  0
  130.1680  125.2390   65.7370 C   0  0  0  0  0  0  0  0  0  0  0  0
  130.2360  123.4430   65.4660 S   0  0  0  0  0  0  0  0  0  0  0  0
  130.7710  123.1750   63.7910 C   0  0  0  0  0  0  0  0  0  0  0  0
  129.8760  122.4950   63.0320 N   0  0  0  0  0  0  0  0  0  0  0  0
  130.1850  122.2320   61.7400 C   0  0  0  0  0  0  0  0  0  0  0  0
  129.1410  121.4560   60.9580 C   0  0  0  0  0  0  0  0  0  0  0  0
  131.3810  122.6400   61.1540 C   0  0  0  0  0  0  0  0  0  0  0  0
  132.3020  123.3610   61.9220 C   0  0  0  0  0  0  0  0  0  0  0  0
  133.6000  123.8120   61.2550 C   0  0  0  0  0  0  0  0  0  0  0  0
  132.0000  123.6510   63.2730 C   0  0  0  0  0  0  0  0  0  0  0  0
  132.9280  124.4460   64.0820 C   0  0  0  0  0  0  0  0  0  0  0  0
  133.6610  125.0740   64.7190 N   0  0  0  0  0  0  0  0  0  0  0  0
  131.5330  128.1010   69.4380 C   0  0  0  0  0  0  0  0  0  0  0  0
  131.4070  128.6650   70.7040 C   0  0  0  0  0  0  0  0  0  0  0  0
  1  2  1  0
  2  3  1  0
  3  4  1  0
  4  5  2  0
  4  6  1  0
  6  7  2  0
  7  8  1  0
  8  9  2  0
  9 10  1  0
 10 11  1  0
 11 12  2  0
 11 13  1  0
 13 14  1  0
 14 15  1  0
 15 16  2  0
 16 17  1  0
 17 18  1  0
 17 19  2  0
 19 20  1  0
 20 21  1  0
 20 22  2  0
 22 23  1  0
 23 24  3  0
  9 25  1  0
 25 26  2  0
 26  6  1  0
 22 15  1  0
M  END
>  <Binding energies>  (1) 
[-7.44]

>  <Ligand effiencies>  (1) 
[-0.27555555555555555]

>  <Interactions>  (1) 
["V-B:TYR:539:CD2:9845, V-B:GLU:543:CD:9879, H-A:TYR:484:OH:4347, H-A:GLY:454:N:4049, V-B:GLU:543:CG:9878, V-A:HIS:456:CE1:4069, V-B:GLU:543:CB:9877, V-A:ILE:369:CD1:3238, V-A:ARG:545:CG:4922, V-B:PRO:540:C:9852, V-B:ALA:541:CB:9863, V-A:GLU:543:CB:4906, V-B:HIS:456:CE1:9041, V-A:GLU:543:CD:4908, H-A:GLU:543:OE2:4910, H-A:GLU:543:OE1:4909, V-A:GLU:543:C:4902, V-A:ILE:369:CG2:3236, V-A:GLY:544:C:4912, V-A:ARG:545:CA:4919, V-A:ILE:369:CB:3235, H-A:LYS:547:NZ:4951, V-B:TYR:484:CD1:9314, V-B:HIS:456:CG:9037, V-B:TYR:484:CE1:9316, V-B:TYR:484:CG:9313, V-B:HIS:456:CB:9036, V-B:HIS:456:CD2:9039"]

$$$$
1aa_Ghoteimi_2023
     RDKit          3D

 40 43  0  0  0  0  0  0  0  0999 V2000
  133.6000  130.7230   58.0500 C   0  0  0  0  0  0  0  0  0  0  0  0
  132.4130  131.2760   57.2550 C   0  0  0  0  0  0  0  0  0  0  0  0
  132.0010  132.5140   57.8190 O   0  0  0  0  0  0  0  0  0  0  0  0
  130.6960  132.7510   58.1120 C   0  0  0  0  0  0  0  0  0  0  0  0
  129.9320  133.3680   57.3640 O   0  0  0  0  0  0  0  0  0  0  0  0
  130.2740  132.1880   59.4390 C   0  0  0  0  0  0  0  0  0  0  0  0
  131.2080  131.7820   60.4050 C   0  0  0  0  0  0  0  0  0  0  0  0
  130.7860  131.2640   61.6270 C   0  0  0  0  0  0  0  0  0  0  0  0
  129.4170  131.1440   61.9060 C   0  0  0  0  0  0  0  0  0  0  0  0
  128.8760  130.6360   63.1010 N   0  0  0  0  0  0  0  0  0  0  0  0
  128.4620  131.2770   64.2190 C   0  0  0  0  0  0  0  0  0  0  0  0
  128.4890  132.4970   64.3810 O   0  0  0  0  0  0  0  0  0  0  0  0
  127.9180  130.4110   65.3660 C   0  0  0  0  0  0  0  0  0  0  0  0
  127.8280  129.0390   64.9610 O   0  0  0  0  0  0  0  0  0  0  0  0
  128.6160  128.0740   65.5710 C   0  0  0  0  0  0  0  0  0  0  0  0
  128.5080  127.9170   66.9190 N   0  0  0  0  0  0  0  0  0  0  0  0
  129.2740  126.9920   67.5550 C   0  0  0  0  0  0  0  0  0  0  0  0
  129.0940  126.8790   69.0420 C   0  0  0  0  0  0  0  0  0  0  0  0
  128.3280  125.8440   69.6000 C   0  0  0  0  0  0  0  0  0  0  0  0
  128.1580  125.7390   70.9780 C   0  0  0  0  0  0  0  0  0  0  0  0
  128.7480  126.6610   71.8390 C   0  0  0  0  0  0  0  0  0  0  0  0
  128.5240  126.4770   73.1900 O   0  0  0  0  0  0  0  0  0  0  0  0
  129.0520  127.4220   74.1160 C   0  0  0  0  0  0  0  0  0  0  0  0
  129.5200  127.6970   71.2970 C   0  0  0  0  0  0  0  0  0  0  0  0
  129.6890  127.8000   69.9200 C   0  0  0  0  0  0  0  0  0  0  0  0
  130.1610  126.1820   66.8350 C   0  0  0  0  0  0  0  0  0  0  0  0
  130.2830  126.3160   65.4450 C   0  0  0  0  0  0  0  0  0  0  0  0
  131.2390  125.4160   64.7330 C   0  0  0  0  0  0  0  0  0  0  0  0
  132.5130  125.8770   64.3870 C   0  0  0  0  0  0  0  0  0  0  0  0
  133.4130  125.0410   63.7320 C   0  0  0  0  0  0  0  0  0  0  0  0
  133.0620  123.7290   63.4150 C   0  0  0  0  0  0  0  0  0  0  0  0
  134.0190  122.9730   62.7650 O   0  0  0  0  0  0  0  0  0  0  0  0
  133.7150  121.6310   62.4030 C   0  0  0  0  0  0  0  0  0  0  0  0
  131.7880  123.2610   63.7690 C   0  0  0  0  0  0  0  0  0  0  0  0
  130.8890  124.0980   64.4230 C   0  0  0  0  0  0  0  0  0  0  0  0
  129.4950  127.2960   64.7980 C   0  0  0  0  0  0  0  0  0  0  0  0
  129.5860  127.5380   63.3570 C   0  0  0  0  0  0  0  0  0  0  0  0
  129.6570  127.7310   62.2180 N   0  0  0  0  0  0  0  0  0  0  0  0
  128.4860  131.5450   60.9460 C   0  0  0  0  0  0  0  0  0  0  0  0
  128.9080  132.0620   59.7260 C   0  0  0  0  0  0  0  0  0  0  0  0
  1  2  1  0
  2  3  1  0
  3  4  1  0
  4  5  2  0
  4  6  1  0
  6  7  2  0
  7  8  1  0
  8  9  2  0
  9 10  1  0
 10 11  1  0
 11 12  2  0
 11 13  1  0
 13 14  1  0
 14 15  1  0
 15 16  2  0
 16 17  1  0
 17 18  1  0
 18 19  2  0
 19 20  1  0
 20 21  2  0
 21 22  1  0
 22 23  1  0
 21 24  1  0
 24 25  2  0
 17 26  2  0
 26 27  1  0
 27 28  1  0
 28 29  2  0
 29 30  1  0
 30 31  2  0
 31 32  1  0
 32 33  1  0
 31 34  1  0
 34 35  2  0
 27 36  2  0
 36 37  1  0
 37 38  3  0
  9 39  1  0
 39 40  2  0
 40  6  1  0
 36 15  1  0
 25 18  1  0
 35 28  1  0
M  END
>  <Binding energies>  (2) 
[-8.19]

>  <Ligand effiencies>  (2) 
[-0.1997560975609756]

>  <Interactions>  (2) 
["V-B:GLU:543:CD:9879, H-A:GLY:454:N:4049, V-A:HIS:456:CE1:4069, V-B:GLU:543:CB:9877, V-A:ILE:369:CD1:3238, V-A:ARG:545:CZ:4926, V-B:HIS:456:CE1:9041, V-A:GLU:543:CD:4908, V-A:GLY:454:CA:4048, V-A:GLU:543:CG:4907, V-A:ASP:366:CG:3212, V-A:LEU:475:CD2:4258, V-B:GLU:543:C:9873, H-A:GLU:543:OE1:4909, V-A:ILE:369:CG2:3236, V-A:ASP:366:CB:3211, H-B:LYS:547:NZ:9922, V-B:HIS:456:CD2:9039, V-A:TYR:539:C:4867, V-A:PRO:540:CA:4883, V-A:PRO:540:N:4884, V-A:PRO:540:CB:4885, H-A:TYR:539:N:4870, V-A:TYR:531:CE2:4793, V-A:LEU:363:CD1:3188, V-A:LEU:363:CA:3184"]

$$$$
1b_Grossjean_2025
     RDKit          3D

 25 26  0  0  0  0  0  0  0  0999 V2000
  128.7100  130.7160   71.7410 C   0  0  0  0  0  0  0  0  0  0  0  0
  128.8810  129.7400   72.7600 O   0  0  0  0  0  0  0  0  0  0  0  0
  129.8710  128.8140   72.6800 C   0  0  0  0  0  0  0  0  0  0  0  0
  130.5780  128.4880   73.6390 O   0  0  0  0  0  0  0  0  0  0  0  0
  130.0160  128.2170   71.3090 C   0  0  0  0  0  0  0  0  0  0  0  0
  131.0730  128.5680   70.4560 C   0  0  0  0  0  0  0  0  0  0  0  0
  131.1790  127.9970   69.1910 C   0  0  0  0  0  0  0  0  0  0  0  0
  130.2360  127.0680   68.7520 C   0  0  0  0  0  0  0  0  0  0  0  0
  130.4410  126.5580   67.4560 N   0  0  0  0  0  0  0  0  0  0  0  0
  130.0700  125.3760   66.9170 C   0  0  0  0  0  0  0  0  0  0  0  0
  129.4450  124.4890   67.4980 O   0  0  0  0  0  0  0  0  0  0  0  0
  130.4700  125.1690   65.4550 C   0  0  0  0  0  0  0  0  0  0  0  0
  130.6130  123.4070   65.0270 S   0  0  0  0  0  0  0  0  0  0  0  0
  131.0150  123.3140   63.2950 C   0  0  0  0  0  0  0  0  0  0  0  0
  130.1070  122.6230   62.5610 N   0  0  0  0  0  0  0  0  0  0  0  0
  130.3130  122.4910   61.2290 C   0  0  0  0  0  0  0  0  0  0  0  0
  129.2500  121.7200   60.4700 C   0  0  0  0  0  0  0  0  0  0  0  0
  131.4260  123.0270   60.5840 C   0  0  0  0  0  0  0  0  0  0  0  0
  132.3790  123.7210   61.3370 C   0  0  0  0  0  0  0  0  0  0  0  0
  133.5990  124.2850   60.6110 C   0  0  0  0  0  0  0  0  0  0  0  0
  132.1850  123.8720   62.7290 C   0  0  0  0  0  0  0  0  0  0  0  0
  133.1900  124.5570   63.5440 C   0  0  0  0  0  0  0  0  0  0  0  0
  133.9870  125.0980   64.1850 N   0  0  0  0  0  0  0  0  0  0  0  0
  129.1760  126.7120   69.6000 C   0  0  0  0  0  0  0  0  0  0  0  0
  129.0720  127.2830   70.8650 C   0  0  0  0  0  0  0  0  0  0  0  0
  1  2  1  0
  2  3  1  0
  3  4  2  0
  3  5  1  0
  5  6  2  0
  6  7  1  0
  7  8  2  0
  8  9  1  0
  9 10  1  0
 10 11  2  0
 10 12  1  0
 12 13  1  0
 13 14  1  0
 14 15  2  0
 15 16  1  0
 16 17  1  0
 16 18  2  0
 18 19  1  0
 19 20  1  0
 19 21  2  0
 21 22  1  0
 22 23  3  0
  8 24  1  0
 24 25  2  0
 25  5  1  0
 21 14  1  0
M  END
>  <Binding energies>  (3) 
[-7.11]

>  <Ligand effiencies>  (3) 
[-0.2734615384615385]

>  <Interactions>  (3) 
["V-B:TYR:539:CD2:9845, H-A:TYR:484:OH:4347, H-A:GLY:454:N:4049, V-B:GLU:543:CG:9878, V-A:HIS:456:CE1:4069, H-A:ARG:545:NH1:4927, V-B:TYR:539:CE2:9847, V-B:GLU:543:CB:9877, V-A:ILE:369:CD1:3238, V-A:ARG:545:CG:4922, V-B:ALA:541:CB:9863, V-A:GLU:543:CB:4906, V-B:HIS:456:CE1:9041, V-A:GLU:543:CD:4908, H-A:ARG:545:NH2:4928, V-A:GLU:543:CG:4907, V-A:ASP:366:CG:3212, H-A:GLU:543:OE2:4910, V-A:GLU:543:C:4902, V-A:ILE:369:CG2:3236, V-A:ILE:369:CB:3235, V-A:ASP:366:CA:3209, H-A:LYS:547:NZ:4951, V-B:TYR:484:CD1:9314, V-B:HIS:456:CG:9037, V-B:TYR:484:CE1:9316"]

$$$$
1c_Grossjean_2025
     RDKit          3D

 23 24  0  0  0  0  0  0  0  0999 V2000
  129.8260  130.3380   73.4000 C   0  0  0  0  0  0  0  0  0  0  0  0
  130.6050  129.1760   73.1370 O   0  0  0  0  0  0  0  0  0  0  0  0
  130.6110  128.6450   71.8610 C   0  0  0  0  0  0  0  0  0  0  0  0
  129.4340  128.0270   71.4380 C   0  0  0  0  0  0  0  0  0  0  0  0
  129.3420  127.4630   70.1690 C   0  0  0  0  0  0  0  0  0  0  0  0
  130.4390  127.5180   69.2960 C   0  0  0  0  0  0  0  0  0  0  0  0
  130.4580  126.9720   67.9980 N   0  0  0  0  0  0  0  0  0  0  0  0
  129.8590  125.8580   67.5280 C   0  0  0  0  0  0  0  0  0  0  0  0
  129.1440  125.1000   68.1840 O   0  0  0  0  0  0  0  0  0  0  0  0
  130.1110  125.5510   66.0500 C   0  0  0  0  0  0  0  0  0  0  0  0
  130.2290  123.7650   65.7400 S   0  0  0  0  0  0  0  0  0  0  0  0
  130.7790  123.5210   64.0630 C   0  0  0  0  0  0  0  0  0  0  0  0
  129.8830  122.8540   63.2930 N   0  0  0  0  0  0  0  0  0  0  0  0
  130.1920  122.6090   61.9980 C   0  0  0  0  0  0  0  0  0  0  0  0
  129.1370  121.8680   61.1970 C   0  0  0  0  0  0  0  0  0  0  0  0
  131.3980  123.0040   61.4250 C   0  0  0  0  0  0  0  0  0  0  0  0
  132.3400  123.6700   62.2160 C   0  0  0  0  0  0  0  0  0  0  0  0
  133.6630  124.0780   61.5700 C   0  0  0  0  0  0  0  0  0  0  0  0
  132.0400  123.9350   63.5720 C   0  0  0  0  0  0  0  0  0  0  0  0
  133.0360  124.5830   64.4300 C   0  0  0  0  0  0  0  0  0  0  0  0
  133.8220  125.0950   65.1070 N   0  0  0  0  0  0  0  0  0  0  0  0
  131.6220  128.1260   69.7200 C   0  0  0  0  0  0  0  0  0  0  0  0
  131.7100  128.6880   70.9900 C   0  0  0  0  0  0  0  0  0  0  0  0
  1  2  1  0
  2  3  1  0
  3  4  2  0
  4  5  1  0
  5  6  2  0
  6  7  1  0
  7  8  1  0
  8  9  2  0
  8 10  1  0
 10 11  1  0
 11 12  1  0
 12 13  2  0
 13 14  1  0
 14 15  1  0
 14 16  2  0
 16 17  1  0
 17 18  1  0
 17 19  2  0
 19 20  1  0
 20 21  3  0
  6 22  1  0
 22 23  2  0
 23  3  1  0
 19 12  1  0
M  END
>  <Binding energies>  (4) 
[-6.94]

>  <Ligand effiencies>  (4) 
[-0.2891666666666667]

>  <Interactions>  (4) 
["V-B:GLU:543:CD:9879, H-A:TYR:484:OH:4347, H-A:GLY:454:N:4049, V-B:GLU:543:CG:9878, V-A:HIS:456:CE1:4069, V-B:GLU:543:CB:9877, V-A:ILE:369:CD1:3238, V-A:ARG:545:CG:4922, H-A:ARG:545:NE:4924, V-B:ALA:541:CB:9863, V-A:GLU:543:CB:4906, V-B:HIS:456:CE1:9041, V-A:GLU:543:CD:4908, V-A:GLY:454:CA:4048, H-A:GLU:543:OE2:4910, V-A:GLU:543:C:4902, V-A:ILE:369:CG2:3236, V-A:GLY:544:C:4912, V-A:ARG:545:CA:4919, H-A:LYS:547:NZ:4951, V-A:LYS:547:CE:4950"]

$$$$
1d_Grossjean_2025
     RDKit          3D

 21 22  0  0  0  0  0  0  0  0999 V2000
  132.5780  125.1090   58.1650 C   0  0  0  0  0  0  0  0  0  0  0  0
  132.6860  124.4540   59.5280 C   0  0  0  0  0  0  0  0  0  0  0  0
  133.3800  125.0580   60.5740 C   0  0  0  0  0  0  0  0  0  0  0  0
  133.4380  124.4130   61.8140 C   0  0  0  0  0  0  0  0  0  0  0  0
  134.1910  125.1020   62.9510 C   0  0  0  0  0  0  0  0  0  0  0  0
  132.8000  123.1610   61.9730 C   0  0  0  0  0  0  0  0  0  0  0  0
  132.8080  122.4900   63.2740 C   0  0  0  0  0  0  0  0  0  0  0  0
  132.8150  121.9620   64.3040 N   0  0  0  0  0  0  0  0  0  0  0  0
  132.1400  122.6100   60.8490 C   0  0  0  0  0  0  0  0  0  0  0  0
  131.2880  121.0490   60.8690 S   0  0  0  0  0  0  0  0  0  0  0  0
  129.6760  121.3200   61.6640 C   0  0  0  0  0  0  0  0  0  0  0  0
  128.7360  122.1540   60.7920 C   0  0  0  0  0  0  0  0  0  0  0  0
  127.6320  122.4740   61.2340 O   0  0  0  0  0  0  0  0  0  0  0  0
  129.2260  122.5010   59.5820 N   0  0  0  0  0  0  0  0  0  0  0  0
  128.6260  123.2380   58.5440 C   0  0  0  0  0  0  0  0  0  0  0  0
  127.5570  122.6130   57.8960 C   0  0  0  0  0  0  0  0  0  0  0  0
  126.8900  123.2580   56.8580 C   0  0  0  0  0  0  0  0  0  0  0  0
  127.2880  124.5350   56.4700 C   0  0  0  0  0  0  0  0  0  0  0  0
  128.3460  125.1730   57.1130 C   0  0  0  0  0  0  0  0  0  0  0  0
  129.0160  124.5300   58.1510 C   0  0  0  0  0  0  0  0  0  0  0  0
  132.0710  123.2550   59.6560 N   0  0  0  0  0  0  0  0  0  0  0  0
  1  2  1  0
  2  3  2  0
  3  4  1  0
  4  5  1  0
  4  6  2  0
  6  7  1  0
  7  8  3  0
  6  9  1  0
  9 10  1  0
 10 11  1  0
 11 12  1  0
 12 13  2  0
 12 14  1  0
 14 15  1  0
 15 16  2  0
 16 17  1  0
 17 18  2  0
 18 19  1  0
 19 20  2  0
  9 21  2  0
 21  2  1  0
 20 15  1  0
M  END
>  <Binding energies>  (5) 
[-6.09]

>  <Ligand effiencies>  (5) 
[-0.2768181818181818]

>  <Interactions>  (5) 
["V-B:TYR:539:CD2:9845, V-B:PRO:540:CA:9854, H-A:TYR:484:OH:4347, V-B:PRO:540:N:9855, H-A:GLY:454:N:4049, V-B:TYR:539:CE2:9847, V-A:ILE:369:CD1:3238, V-B:TYR:539:C:9838, V-A:ARG:545:CZ:4926, V-B:ALA:541:CB:9863, V-A:GLY:454:CA:4048, V-A:ASP:366:CG:3212, V-A:LEU:475:CD2:4258, V-B:ALA:541:CA:9861, V-A:ILE:369:CG2:3236, H-B:ALA:541:N:9862, V-A:ASP:366:CB:3211, V-A:ASP:366:C:3207, V-A:ASP:366:CA:3209, V-A:GLY:453:CA:4043, V-B:TYR:539:CZ:9848, V-B:TYR:539:CE1:9846, V-B:TYR:539:CG:9843"]

$$$$
1e_Grossjean_2025
     RDKit          3D

 22 23  0  0  0  0  0  0  0  0999 V2000
  129.3630  126.2570   56.5050 C   0  0  0  0  0  0  0  0  0  0  0  0
  128.6170  125.0330   57.0030 C   0  0  0  0  0  0  0  0  0  0  0  0
  127.3840  124.6590   56.4630 C   0  0  0  0  0  0  0  0  0  0  0  0
  126.7540  123.5230   56.9730 C   0  0  0  0  0  0  0  0  0  0  0  0
  127.3630  122.7970   57.9990 C   0  0  0  0  0  0  0  0  0  0  0  0
  128.6020  123.2250   58.4910 C   0  0  0  0  0  0  0  0  0  0  0  0
  129.1600  122.4610   59.5320 N   0  0  0  0  0  0  0  0  0  0  0  0
  128.6110  122.1330   60.7220 C   0  0  0  0  0  0  0  0  0  0  0  0
  127.4900  122.4750   61.1010 O   0  0  0  0  0  0  0  0  0  0  0  0
  129.4910  121.2950   61.6520 C   0  0  0  0  0  0  0  0  0  0  0  0
  131.1630  121.0590   60.9780 S   0  0  0  0  0  0  0  0  0  0  0  0
  132.0010  122.6320   60.9690 C   0  0  0  0  0  0  0  0  0  0  0  0
  131.9870  123.2430   59.7570 N   0  0  0  0  0  0  0  0  0  0  0  0
  132.5960  124.4450   59.6250 C   0  0  0  0  0  0  0  0  0  0  0  0
  132.5330  125.0690   58.2450 C   0  0  0  0  0  0  0  0  0  0  0  0
  133.2480  125.0760   60.6820 C   0  0  0  0  0  0  0  0  0  0  0  0
  133.2900  124.4450   61.9290 C   0  0  0  0  0  0  0  0  0  0  0  0
  134.0260  125.1500   63.0670 C   0  0  0  0  0  0  0  0  0  0  0  0
  132.6640  123.1870   62.0890 C   0  0  0  0  0  0  0  0  0  0  0  0
  132.7490  122.4860   63.3720 C   0  0  0  0  0  0  0  0  0  0  0  0
  132.8170  121.9340   64.3880 N   0  0  0  0  0  0  0  0  0  0  0  0
  129.2220  124.3380   58.0000 N   0  0  0  0  0  0  0  0  0  0  0  0
  1  2  1  0
  2  3  2  0
  3  4  1  0
  4  5  2  0
  5  6  1  0
  6  7  1  0
  7  8  1  0
  8  9  2  0
  8 10  1  0
 10 11  1  0
 11 12  1  0
 12 13  2  0
 13 14  1  0
 14 15  1  0
 14 16  2  0
 16 17  1  0
 17 18  1  0
 17 19  2  0
 19 20  1  0
 20 21  3  0
  6 22  2  0
 22  2  1  0
 19 12  1  0
M  END
>  <Binding energies>  (6) 
[-6.08]

>  <Ligand effiencies>  (6) 
[-0.2643478260869565]

>  <Interactions>  (6) 
["V-B:TYR:539:CD2:9845, V-B:PRO:540:CA:9854, H-A:TYR:484:OH:4347, V-B:PRO:540:N:9855, H-A:GLY:454:N:4049, V-B:TYR:539:CE2:9847, V-A:ILE:369:CD1:3238, V-B:TYR:539:C:9838, V-A:ARG:545:CZ:4926, V-B:PRO:540:C:9852, V-B:ALA:541:CB:9863, V-A:GLY:454:CA:4048, V-A:ASP:366:CG:3212, V-A:LEU:475:CD2:4258, V-B:ALA:541:CA:9861, V-A:ILE:369:CG2:3236, H-B:ALA:541:N:9862, V-A:ASP:366:CB:3211, V-A:ASP:366:C:3207, V-A:ASP:366:CA:3209, V-A:GLY:453:CA:4043, V-B:TYR:539:CZ:9848, H-B:TYR:539:OH:9849"]

$$$$
1f_Grossjean_2025
     RDKit          3D

 21 22  0  0  0  0  0  0  0  0999 V2000
  129.1160  126.2860   67.3870 C   0  0  0  0  0  0  0  0  0  0  0  0
  129.3760  126.6690   68.8320 C   0  0  0  0  0  0  0  0  0  0  0  0
  130.2150  127.7290   69.1660 C   0  0  0  0  0  0  0  0  0  0  0  0
  130.4270  128.0270   70.5160 C   0  0  0  0  0  0  0  0  0  0  0  0
  131.3650  129.1830   70.8580 C   0  0  0  0  0  0  0  0  0  0  0  0
  129.7790  127.2530   71.5060 C   0  0  0  0  0  0  0  0  0  0  0  0
  130.0320  127.5150   72.9250 C   0  0  0  0  0  0  0  0  0  0  0  0
  130.2330  127.7230   74.0460 N   0  0  0  0  0  0  0  0  0  0  0  0
  128.9220  126.2130   71.0750 C   0  0  0  0  0  0  0  0  0  0  0  0
  128.0240  125.1360   72.1730 S   0  0  0  0  0  0  0  0  0  0  0  0
  129.2290  124.1980   73.1730 C   0  0  0  0  0  0  0  0  0  0  0  0
  129.1120  122.6700   73.0620 C   0  0  0  0  0  0  0  0  0  0  0  0
  130.0930  121.9520   73.2620 O   0  0  0  0  0  0  0  0  0  0  0  0
  127.8860  122.2250   72.7120 N   0  0  0  0  0  0  0  0  0  0  0  0
  127.4270  120.9070   72.5290 C   0  0  0  0  0  0  0  0  0  0  0  0
  126.4940  120.2430   73.3470 C   0  0  0  0  0  0  0  0  0  0  0  0
  126.1220  118.9300   73.0460 C   0  0  0  0  0  0  0  0  0  0  0  0
  126.6910  118.3130   71.9310 C   0  0  0  0  0  0  0  0  0  0  0  0
  127.5890  118.9320   71.1250 N   0  0  0  0  0  0  0  0  0  0  0  0
  127.9400  120.2080   71.4300 C   0  0  0  0  0  0  0  0  0  0  0  0
  128.7430  125.9170   69.7630 N   0  0  0  0  0  0  0  0  0  0  0  0
  1  2  1  0
  2  3  2  0
  3  4  1  0
  4  5  1  0
  4  6  2  0
  6  7  1  0
  7  8  3  0
  6  9  1  0
  9 10  1  0
 10 11  1  0
 11 12  1  0
 12 13  2  0
 12 14  1  0
 14 15  1  0
 15 16  2  0
 16 17  1  0
 17 18  2  0
 18 19  1  0
 19 20  2  0
  9 21  2  0
 21  2  1  0
 20 15  1  0
M  END
>  <Binding energies>  (7) 
[-6.65]

>  <Ligand effiencies>  (7) 
[-0.3022727272727273]

>  <Interactions>  (7) 
["V-B:GLU:543:CD:9879, V-B:GLU:543:CG:9878, V-A:HIS:456:CE1:4069, V-B:GLU:543:CB:9877, V-A:GLU:543:CB:4906, V-B:HIS:456:CE1:9041, V-B:GLU:543:C:9873, V-A:GLU:543:C:4902, V-A:GLY:544:C:4912, V-A:ARG:545:CA:4919, V-A:HIS:456:CD2:4067, H-B:LYS:547:NZ:9922, H-A:LYS:547:NZ:4951, V-B:LYS:547:CE:9921, H-B:GLU:543:O:9874, H-B:GLY:544:O:9884, V-B:GLY:544:CA:9885, V-A:TYR:484:CB:4340, V-A:TYR:484:CD1:4342, V-A:TYR:484:CG:4341, H-A:TYR:484:N:4339"]

$$$$
1g_Grossjean_2025
     RDKit          3D

 22 23  0  0  0  0  0  0  0  0999 V2000
  133.7360  121.3540   62.0170 C   0  0  0  0  0  0  0  0  0  0  0  0
  132.2710  121.7440   62.0650 C   0  0  0  0  0  0  0  0  0  0  0  0
  131.4630  121.6890   60.9300 C   0  0  0  0  0  0  0  0  0  0  0  0
  130.1230  122.0760   61.0310 C   0  0  0  0  0  0  0  0  0  0  0  0
  129.2610  122.0210   59.7710 C   0  0  0  0  0  0  0  0  0  0  0  0
  129.6190  122.5050   62.2800 C   0  0  0  0  0  0  0  0  0  0  0  0
  128.2330  122.9650   62.3980 C   0  0  0  0  0  0  0  0  0  0  0  0
  127.1380  123.3290   62.4870 N   0  0  0  0  0  0  0  0  0  0  0  0
  130.5040  122.5050   63.3840 C   0  0  0  0  0  0  0  0  0  0  0  0
  130.0360  123.0040   65.0260 S   0  0  0  0  0  0  0  0  0  0  0  0
  130.8810  124.5750   65.3740 C   0  0  0  0  0  0  0  0  0  0  0  0
  132.1850  124.7110   64.5860 C   0  0  0  0  0  0  0  0  0  0  0  0
  133.2500  124.3490   65.0880 O   0  0  0  0  0  0  0  0  0  0  0  0
  132.0830  125.2410   63.3550 N   0  0  0  0  0  0  0  0  0  0  0  0
  133.1870  125.4090   62.4100 C   0  0  0  0  0  0  0  0  0  0  0  0
  132.7800  125.3010   60.9430 C   0  0  0  0  0  0  0  0  0  0  0  0
  133.5990  124.6170   60.0400 C   0  0  0  0  0  0  0  0  0  0  0  0
  133.2280  124.5170   58.7020 C   0  0  0  0  0  0  0  0  0  0  0  0
  132.0350  125.0970   58.2720 C   0  0  0  0  0  0  0  0  0  0  0  0
  131.2120  125.7760   59.1680 C   0  0  0  0  0  0  0  0  0  0  0  0
  131.5840  125.8770   60.5060 C   0  0  0  0  0  0  0  0  0  0  0  0
  131.8090  122.1490   63.2710 N   0  0  0  0  0  0  0  0  0  0  0  0
  1  2  1  0
  2  3  2  0
  3  4  1  0
  4  5  1  0
  4  6  2  0
  6  7  1  0
  7  8  3  0
  6  9  1  0
  9 10  1  0
 10 11  1  0
 11 12  1  0
 12 13  2  0
 12 14  1  0
 14 15  1  0
 15 16  1  0
 16 17  2  0
 17 18  1  0
 18 19  2  0
 19 20  1  0
 20 21  2  0
  9 22  2  0
 22  2  1  0
 21 16  1  0
M  END
>  <Binding energies>  (8) 
[-5.66]

>  <Ligand effiencies>  (8) 
[-0.24608695652173915]

>  <Interactions>  (8) 
["V-B:TYR:539:CD2:9845, H-A:TYR:484:OH:4347, H-A:GLY:454:N:4049, V-B:TYR:539:CE2:9847, V-A:ILE:369:CD1:3238, V-B:TYR:539:C:9838, V-A:ARG:545:CZ:4926, V-B:ALA:541:CB:9863, V-A:GLY:454:CA:4048, V-A:ASP:366:CG:3212, V-A:LEU:475:CD2:4258, V-B:ALA:541:CA:9861, V-A:ILE:369:CG2:3236, H-B:ALA:541:N:9862, V-A:ILE:369:CB:3235, V-A:ASP:366:CB:3211, V-A:ASP:366:C:3207, V-A:ASP:366:CA:3209, V-B:TYR:539:CZ:9848"]

$$$$
1h_Grossjean_2025
     RDKit          3D

 28 29  0  0  0  0  0  0  0  0999 V2000
  128.7020  124.0920   72.5820 C   0  0  0  0  0  0  0  0  0  0  0  0
  128.7210  125.4060   73.1290 O   0  0  0  0  0  0  0  0  0  0  0  0
  129.0960  126.4690   72.3270 C   0  0  0  0  0  0  0  0  0  0  0  0
  128.7300  126.6000   70.9780 C   0  0  0  0  0  0  0  0  0  0  0  0
  129.1560  127.6950   70.2250 C   0  0  0  0  0  0  0  0  0  0  0  0
  128.7320  127.8370   68.7660 C   0  0  0  0  0  0  0  0  0  0  0  0
  129.6500  127.2090   67.8160 N   0  0  0  0  0  0  0  0  0  0  0  0
  129.7810  125.8840   67.6210 C   0  0  0  0  0  0  0  0  0  0  0  0
  129.1130  125.0380   68.2140 O   0  0  0  0  0  0  0  0  0  0  0  0
  130.8360  125.4460   66.6040 C   0  0  0  0  0  0  0  0  0  0  0  0
  130.3940  125.9400   64.9110 S   0  0  0  0  0  0  0  0  0  0  0  0
  130.7520  124.5690   63.8240 C   0  0  0  0  0  0  0  0  0  0  0  0
  129.6840  124.0400   63.1700 N   0  0  0  0  0  0  0  0  0  0  0  0
  129.8860  123.0010   62.3270 C   0  0  0  0  0  0  0  0  0  0  0  0
  128.6470  122.4680   61.6310 C   0  0  0  0  0  0  0  0  0  0  0  0
  131.1440  122.4480   62.1010 C   0  0  0  0  0  0  0  0  0  0  0  0
  132.2510  122.9820   62.7700 C   0  0  0  0  0  0  0  0  0  0  0  0
  133.6220  122.3630   62.5070 C   0  0  0  0  0  0  0  0  0  0  0  0
  132.0630  124.0680   63.6550 C   0  0  0  0  0  0  0  0  0  0  0  0
  133.2040  124.6470   64.3710 C   0  0  0  0  0  0  0  0  0  0  0  0
  134.1050  125.1030   64.9370 N   0  0  0  0  0  0  0  0  0  0  0  0
  129.9250  128.6900   70.8300 C   0  0  0  0  0  0  0  0  0  0  0  0
  130.3010  128.5870   72.1790 C   0  0  0  0  0  0  0  0  0  0  0  0
  131.0630  129.5320   72.8420 O   0  0  0  0  0  0  0  0  0  0  0  0
  130.4310  130.6930   73.3730 C   0  0  0  0  0  0  0  0  0  0  0  0
  129.8890  127.4660   72.9130 C   0  0  0  0  0  0  0  0  0  0  0  0
  130.2440  127.3560   74.2360 O   0  0  0  0  0  0  0  0  0  0  0  0
  131.0900  126.2490   74.5170 C   0  0  0  0  0  0  0  0  0  0  0  0
  1  2  1  0
  2  3  1  0
  3  4  2  0
  4  5  1  0
  5  6  1  0
  6  7  1  0
  7  8  1  0
  8  9  2  0
  8 10  1  0
 10 11  1  0
 11 12  1  0
 12 13  2  0
 13 14  1  0
 14 15  1  0
 14 16  2  0
 16 17  1  0
 17 18  1  0
 17 19  2  0
 19 20  1  0
 20 21  3  0
  5 22  2  0
 22 23  1  0
 23 24  1  0
 24 25  1  0
 23 26  2  0
 26 27  1  0
 27 28  1  0
 26  3  1  0
 19 12  1  0
M  END
>  <Binding energies>  (9) 
[-7.21]

>  <Ligand effiencies>  (9) 
[-0.24862068965517242]

>  <Interactions>  (9) 
["H-A:GLY:454:N:4049, V-A:HIS:456:CE1:4069, H-A:ARG:545:NH1:4927, V-B:GLU:543:CB:9877, V-A:ILE:369:CD1:3238, H-A:ARG:545:NE:4924, V-B:ALA:541:CB:9863, V-A:GLU:543:CB:4906, V-B:HIS:456:CE1:9041, V-A:GLU:543:CD:4908, V-A:GLY:454:CA:4048, V-A:LEU:475:CD2:4258, H-A:GLU:543:OE2:4910, V-B:ALA:541:CA:9861, V-A:ILE:369:CG2:3236, V-A:HIS:456:CD2:4067, H-B:LYS:547:NZ:9922, H-A:LYS:547:NZ:4951, V-B:LYS:547:CE:9921, V-A:LYS:547:CE:4950"]

$$$$
1i_Grossjean_2025
     RDKit          3D

 20 21  0  0  0  0  0  0  0  0999 V2000
  128.7340  126.2920   67.7040 C   0  0  0  0  0  0  0  0  0  0  0  0
  129.1220  126.5570   69.1460 C   0  0  0  0  0  0  0  0  0  0  0  0
  129.9760  127.6020   69.4920 C   0  0  0  0  0  0  0  0  0  0  0  0
  130.2910  127.8050   70.8400 C   0  0  0  0  0  0  0  0  0  0  0  0
  131.2170  128.9670   71.1960 C   0  0  0  0  0  0  0  0  0  0  0  0
  129.7400  126.9420   71.8160 C   0  0  0  0  0  0  0  0  0  0  0  0
  130.0170  127.1680   73.2370 C   0  0  0  0  0  0  0  0  0  0  0  0
  130.2350  127.3490   74.3590 N   0  0  0  0  0  0  0  0  0  0  0  0
  128.9020  125.8930   71.3710 C   0  0  0  0  0  0  0  0  0  0  0  0
  128.1270  124.7180   72.4590 S   0  0  0  0  0  0  0  0  0  0  0  0
  129.4460  123.8400   73.3510 C   0  0  0  0  0  0  0  0  0  0  0  0
  129.4230  122.3350   73.0770 C   0  0  0  0  0  0  0  0  0  0  0  0
  130.4070  121.6530   73.3700 O   0  0  0  0  0  0  0  0  0  0  0  0
  128.2860  121.8610   72.5210 N   0  0  0  0  0  0  0  0  0  0  0  0
  128.0060  120.5490   72.1690 C   0  0  0  0  0  0  0  0  0  0  0  0
  127.8780  119.5220   73.1020 C   0  0  0  0  0  0  0  0  0  0  0  0
  127.6040  118.3960   72.3600 C   0  0  0  0  0  0  0  0  0  0  0  0
  127.5720  118.7270   71.0480 O   0  0  0  0  0  0  0  0  0  0  0  0
  127.8290  120.0950   70.9390 N   0  0  0  0  0  0  0  0  0  0  0  0
  128.5870  125.7170   70.0640 N   0  0  0  0  0  0  0  0  0  0  0  0
  1  2  1  0
  2  3  2  0
  3  4  1  0
  4  5  1  0
  4  6  2  0
  6  7  1  0
  7  8  3  0
  6  9  1  0
  9 10  1  0
 10 11  1  0
 11 12  1  0
 12 13  2  0
 12 14  1  0
 14 15  1  0
 15 16  1  0
 16 17  2  0
 17 18  1  0
 18 19  1  0
  9 20  2  0
 20  2  1  0
 19 15  2  0
M  END
>  <Binding energies>  (10) 
[-6.67]

>  <Ligand effiencies>  (10) 
[-0.31761904761904763]

>  <Interactions>  (10) 
["V-B:GLU:543:CD:9879, V-B:GLU:543:CG:9878, V-A:HIS:456:CE1:4069, V-B:GLU:543:CB:9877, V-A:GLU:543:CB:4906, V-B:GLU:543:C:9873, V-A:GLU:543:C:4902, V-A:GLY:544:C:4912, V-A:HIS:456:CD2:4067, H-B:LYS:547:NZ:9922, H-A:LYS:547:NZ:4951, H-B:GLU:543:O:9874, H-B:GLY:544:O:9884, V-B:GLY:544:CA:9885, V-A:TYR:484:CB:4340, V-A:TYR:484:CD1:4342, V-A:TYR:484:C:4336, V-A:TYR:484:CA:4338, V-A:TYR:484:CG:4341, H-A:TYR:484:N:4339"]

$$$$
1k_Grossjean_2025
     RDKit          3D

 25 25  0  0  0  0  0  0  0  0999 V2000
  129.8810  120.5410   60.9330 C   0  0  0  0  0  0  0  0  0  0  0  0
  130.1510  121.9290   61.0440 O   0  0  0  0  0  0  0  0  0  0  0  0
  129.5540  122.7060   60.0150 C   0  0  0  0  0  0  0  0  0  0  0  0
  128.0330  122.5010   60.0350 C   0  0  0  0  0  0  0  0  0  0  0  0
  127.5380  122.7550   61.3430 O   0  0  0  0  0  0  0  0  0  0  0  0
  128.1860  123.8380   61.9990 C   0  0  0  0  0  0  0  0  0  0  0  0
  128.1770  123.5950   63.5130 C   0  0  0  0  0  0  0  0  0  0  0  0
  129.5080  123.6430   64.0090 O   0  0  0  0  0  0  0  0  0  0  0  0
  129.8390  122.5570   64.8650 C   0  0  0  0  0  0  0  0  0  0  0  0
  130.9640  121.7210   64.2270 C   0  0  0  0  0  0  0  0  0  0  0  0
  131.6600  122.3970   63.1300 N   0  0  0  0  0  0  0  0  0  0  0  0
  132.9350  122.1740   62.7670 C   0  0  0  0  0  0  0  0  0  0  0  0
  133.6610  121.3540   63.3310 O   0  0  0  0  0  0  0  0  0  0  0  0
  133.4460  123.0190   61.5890 C   0  0  0  0  0  0  0  0  0  0  0  0
  133.9270  124.7340   61.9980 S   0  0  0  0  0  0  0  0  0  0  0  0
  133.1810  125.1980   63.5540 C   0  0  0  0  0  0  0  0  0  0  0  0
  133.9540  125.0260   64.6570 N   0  0  0  0  0  0  0  0  0  0  0  0
  133.4460  125.3490   65.8690 C   0  0  0  0  0  0  0  0  0  0  0  0
  134.3670  125.1200   67.0510 C   0  0  0  0  0  0  0  0  0  0  0  0
  132.1610  125.8610   66.0320 C   0  0  0  0  0  0  0  0  0  0  0  0
  131.3570  126.0500   64.9040 C   0  0  0  0  0  0  0  0  0  0  0  0
  129.9510  126.6110   65.1050 C   0  0  0  0  0  0  0  0  0  0  0  0
  131.8670  125.7150   63.6290 C   0  0  0  0  0  0  0  0  0  0  0  0
  131.0450  125.8990   62.4300 C   0  0  0  0  0  0  0  0  0  0  0  0
  130.3950  126.0450   61.4830 N   0  0  0  0  0  0  0  0  0  0  0  0
  1  2  1  0
  2  3  1  0
  3  4  1  0
  4  5  1  0
  5  6  1  0
  6  7  1  0
  7  8  1  0
  8  9  1  0
  9 10  1  0
 10 11  1  0
 11 12  1  0
 12 13  2  0
 12 14  1  0
 14 15  1  0
 15 16  1  0
 16 17  2  0
 17 18  1  0
 18 19  1  0
 18 20  2  0
 20 21  1  0
 21 22  1  0
 21 23  2  0
 23 24  1  0
 24 25  3  0
 23 16  1  0
M  END
>  <Binding energies>  (11) 
[-4.26]

>  <Ligand effiencies>  (11) 
[-0.16384615384615384]

>  <Interactions>  (11) 
["V-B:TYR:539:CD2:9845, V-A:ARG:545:CD:4923, V-B:GLU:543:CD:9879, V-B:PRO:540:CA:9854, V-B:PRO:540:N:9855, H-A:GLY:454:N:4049, V-B:GLU:543:CG:9878, V-A:HIS:456:CE1:4069, H-A:ARG:545:NH1:4927, V-B:TYR:539:CE2:9847, V-A:ILE:369:CD1:3238, V-A:ARG:545:CZ:4926, V-A:ARG:545:CG:4922, V-B:PRO:540:C:9852, V-B:ALA:541:CB:9863, V-A:TYR:484:CE1:4344, V-A:GLU:543:CD:4908, V-A:GLY:454:CA:4048, V-A:LEU:475:CD2:4258, V-A:ILE:369:CG2:3236, H-B:ALA:541:N:9862, V-A:LEU:475:CD1:4257, V-A:ILE:455:C:4051, V-A:LEU:475:CG:4256"]

$$$$
1l_Grossjean_2025
     RDKit          3D

 17 17  0  0  0  0  0  0  0  0999 V2000
  133.5630  125.4470   65.6590 C   0  0  0  0  0  0  0  0  0  0  0  0
  134.3530  125.1190   64.5250 O   0  0  0  0  0  0  0  0  0  0  0  0
  133.7270  125.5700   63.3640 N   0  0  0  0  0  0  0  0  0  0  0  0
  132.9880  124.7060   62.6420 C   0  0  0  0  0  0  0  0  0  0  0  0
  132.6370  123.5970   63.0540 O   0  0  0  0  0  0  0  0  0  0  0  0
  132.5830  125.2010   61.2470 C   0  0  0  0  0  0  0  0  0  0  0  0
  132.5740  123.9200   59.9460 S   0  0  0  0  0  0  0  0  0  0  0  0
  131.1590  122.8660   60.2150 C   0  0  0  0  0  0  0  0  0  0  0  0
  129.9680  123.3550   59.7830 N   0  0  0  0  0  0  0  0  0  0  0  0
  128.8530  122.6070   59.9570 C   0  0  0  0  0  0  0  0  0  0  0  0
  127.5620  123.2210   59.4490 C   0  0  0  0  0  0  0  0  0  0  0  0
  128.8760  121.3520   60.5600 C   0  0  0  0  0  0  0  0  0  0  0  0
  130.0970  120.8360   61.0070 C   0  0  0  0  0  0  0  0  0  0  0  0
  130.1000  119.4570   61.6640 C   0  0  0  0  0  0  0  0  0  0  0  0
  131.2730  121.6010   60.8360 C   0  0  0  0  0  0  0  0  0  0  0  0
  132.5660  121.0850   61.2960 C   0  0  0  0  0  0  0  0  0  0  0  0
  133.5860  120.6770   61.6580 N   0  0  0  0  0  0  0  0  0  0  0  0
  1  2  1  0
  2  3  1  0
  3  4  1  0
  4  5  2  0
  4  6  1  0
  6  7  1  0
  7  8  1  0
  8  9  2  0
  9 10  1  0
 10 11  1  0
 10 12  2  0
 12 13  1  0
 13 14  1  0
 13 15  2  0
 15 16  1  0
 16 17  3  0
 15  8  1  0
M  END
>  <Binding energies>  (12) 
[-5.57]

>  <Ligand effiencies>  (12) 
[-0.30944444444444447]

>  <Interactions>  (12) 
["V-B:TYR:539:CD2:9845, V-A:ARG:545:CD:4923, V-B:PRO:540:CA:9854, H-A:GLY:454:N:4049, H-A:ARG:545:NH1:4927, V-B:TYR:539:CE2:9847, V-B:TYR:539:C:9838, V-A:ARG:545:CZ:4926, H-A:ARG:545:NE:4924, V-B:PRO:540:C:9852, V-B:ALA:541:CB:9863, V-A:ASP:366:CG:3212, V-A:LEU:475:CD2:4258, V-A:PRO:482:CB:4325, V-A:ILE:369:CG2:3236, V-A:PRO:482:CG:4326, H-A:ASP:366:OD1:3213, H-A:ASP:366:OD2:3214"]

$$$$
1m_Grossjean_2025
     RDKit          3D

 20 20  0  0  0  0  0  0  0  0999 V2000
  134.0050  125.4710   63.8250 C   0  0  0  0  0  0  0  0  0  0  0  0
  133.8850  124.6850   65.0020 O   0  0  0  0  0  0  0  0  0  0  0  0
  134.1990  125.2020   66.2080 C   0  0  0  0  0  0  0  0  0  0  0  0
  135.3200  125.1870   66.7250 O   0  0  0  0  0  0  0  0  0  0  0  0
  132.9700  125.8430   66.8860 C   0  0  0  0  0  0  0  0  0  0  0  0
  131.9030  126.1790   65.9310 N   0  0  0  0  0  0  0  0  0  0  0  0
  130.8100  125.4330   65.6810 C   0  0  0  0  0  0  0  0  0  0  0  0
  130.5940  124.3520   66.2320 O   0  0  0  0  0  0  0  0  0  0  0  0
  129.8370  126.0130   64.6460 C   0  0  0  0  0  0  0  0  0  0  0  0
  129.3340  124.8470   63.3350 S   0  0  0  0  0  0  0  0  0  0  0  0
  130.8060  124.2770   62.5120 C   0  0  0  0  0  0  0  0  0  0  0  0
  131.1120  124.9850   61.3950 N   0  0  0  0  0  0  0  0  0  0  0  0
  132.2150  124.6450   60.6890 C   0  0  0  0  0  0  0  0  0  0  0  0
  132.5030  125.4940   59.4650 C   0  0  0  0  0  0  0  0  0  0  0  0
  133.0450  123.5880   61.0560 C   0  0  0  0  0  0  0  0  0  0  0  0
  132.7250  122.8340   62.1900 C   0  0  0  0  0  0  0  0  0  0  0  0
  133.6410  121.6700   62.5630 C   0  0  0  0  0  0  0  0  0  0  0  0
  131.5770  123.1700   62.9430 C   0  0  0  0  0  0  0  0  0  0  0  0
  131.1960  122.3640   64.1050 C   0  0  0  0  0  0  0  0  0  0  0  0
  130.8960  121.7270   65.0220 N   0  0  0  0  0  0  0  0  0  0  0  0
  1  2  1  0
  2  3  1  0
  3  4  2  0
  3  5  1  0
  5  6  1  0
  6  7  1  0
  7  8  2  0
  7  9  1  0
  9 10  1  0
 10 11  1  0
 11 12  2  0
 12 13  1  0
 13 14  1  0
 13 15  2  0
 15 16  1  0
 16 17  1  0
 16 18  2  0
 18 19  1  0
 19 20  3  0
 18 11  1  0
M  END
>  <Binding energies>  (13) 
[-5.26]

>  <Ligand effiencies>  (13) 
[-0.25047619047619046]

>  <Interactions>  (13) 
["V-A:ARG:545:CD:4923, V-B:GLU:543:CD:9879, H-A:TYR:484:OH:4347, H-A:GLY:454:N:4049, V-A:HIS:456:CE1:4069, V-A:ILE:369:CD1:3238, V-A:ARG:545:CZ:4926, V-A:ARG:545:CG:4922, H-A:ARG:545:NE:4924, V-B:ALA:541:CB:9863, V-A:GLU:543:CD:4908, V-A:GLY:454:CA:4048, V-A:ASP:366:CG:3212, V-A:LEU:475:CD2:4258, H-A:GLU:543:OE2:4910, H-A:GLU:543:OE1:4909, V-A:ILE:369:CG2:3236, V-A:ASP:366:CB:3211, V-A:ASP:366:CA:3209, H-A:ILE:455:N:4054, V-A:GLY:453:CA:4043, V-A:GLY:453:C:4041"]

$$$$
1n_Grossjean_2025
     RDKit          3D

 27 28  0  0  0  0  0  0  0  0999 V2000
  129.1360  130.5590   73.1250 C   0  0  0  0  0  0  0  0  0  0  0  0
  129.3930  129.7100   74.3740 C   0  0  0  0  0  0  0  0  0  0  0  0
  130.1890  128.5840   74.0250 O   0  0  0  0  0  0  0  0  0  0  0  0
  129.6260  127.4600   73.5120 C   0  0  0  0  0  0  0  0  0  0  0  0
  129.0870  126.5920   74.2060 O   0  0  0  0  0  0  0  0  0  0  0  0
  129.7140  127.3820   72.0150 C   0  0  0  0  0  0  0  0  0  0  0  0
  130.6090  128.1770   71.2820 C   0  0  0  0  0  0  0  0  0  0  0  0
  130.6630  128.0830   69.8950 C   0  0  0  0  0  0  0  0  0  0  0  0
  129.8230  127.2030   69.2110 C   0  0  0  0  0  0  0  0  0  0  0  0
  129.9580  127.1930   67.8090 N   0  0  0  0  0  0  0  0  0  0  0  0
  129.6820  126.2130   66.9220 C   0  0  0  0  0  0  0  0  0  0  0  0
  129.2340  125.1010   67.2030 O   0  0  0  0  0  0  0  0  0  0  0  0
  129.9600  126.5520   65.4520 C   0  0  0  0  0  0  0  0  0  0  0  0
  129.5340  125.4290   64.4810 C   0  0  0  0  0  0  0  0  0  0  0  0
  130.3070  125.5200   62.8380 S   0  0  0  0  0  0  0  0  0  0  0  0
  130.9200  123.8970   62.4400 C   0  0  0  0  0  0  0  0  0  0  0  0
  129.9870  123.0870   61.8790 N   0  0  0  0  0  0  0  0  0  0  0  0
  130.3460  121.8330   61.5200 C   0  0  0  0  0  0  0  0  0  0  0  0
  129.2540  120.9890   60.8900 C   0  0  0  0  0  0  0  0  0  0  0  0
  131.6340  121.3360   61.7070 C   0  0  0  0  0  0  0  0  0  0  0  0
  132.5980  122.1570   62.3030 C   0  0  0  0  0  0  0  0  0  0  0  0
  134.0000  121.5860   62.5110 C   0  0  0  0  0  0  0  0  0  0  0  0
  132.2450  123.4690   62.6920 C   0  0  0  0  0  0  0  0  0  0  0  0
  133.2230  124.3270   63.3630 C   0  0  0  0  0  0  0  0  0  0  0  0
  133.9970  125.0030   63.8950 N   0  0  0  0  0  0  0  0  0  0  0  0
  128.9330  126.3990   69.9370 C   0  0  0  0  0  0  0  0  0  0  0  0
  128.8820  126.4920   71.3260 C   0  0  0  0  0  0  0  0  0  0  0  0
  1  2  1  0
  2  3  1  0
  3  4  1  0
  4  5  2  0
  4  6  1  0
  6  7  2  0
  7  8  1  0
  8  9  2  0
  9 10  1  0
 10 11  1  0
 11 12  2  0
 11 13  1  0
 13 14  1  0
 14 15  1  0
 15 16  1  0
 16 17  2  0
 17 18  1  0
 18 19  1  0
 18 20  2  0
 20 21  1  0
 21 22  1  0
 21 23  2  0
 23 24  1  0
 24 25  3  0
  9 26  1  0
 26 27  2  0
 27  6  1  0
 23 16  1  0
M  END
>  <Binding energies>  (14) 
[-7.53]

>  <Ligand effiencies>  (14) 
[-0.26892857142857146]

>  <Interactions>  (14) 
["V-B:TYR:539:CD2:9845, V-B:GLU:543:CD:9879, V-B:PRO:540:CA:9854, H-A:GLY:454:N:4049, V-B:GLU:543:CG:9878, V-A:HIS:456:CE1:4069, H-A:ARG:545:NH1:4927, V-B:TYR:539:CE2:9847, V-A:ILE:369:CD1:3238, V-B:TYR:539:C:9838, V-B:PRO:540:C:9852, V-B:ALA:541:CB:9863, V-A:GLU:543:CB:4906, V-B:HIS:456:CE1:9041, V-A:GLU:543:CD:4908, V-A:GLY:454:CA:4048, V-A:LEU:475:CD2:4258, H-A:GLU:543:OE2:4910, H-A:GLU:543:OE1:4909, V-B:ALA:541:CA:9861, V-A:ILE:369:CG2:3236, H-B:LYS:547:NZ:9922, H-A:LYS:547:NZ:4951, V-A:LYS:547:CE:4950"]

$$$$
1q_Grossjean_2025
     RDKit          3D

 21 21  0  0  0  0  0  0  0  0999 V2000
  133.3270  125.4330   63.9360 C   0  0  0  0  0  0  0  0  0  0  0  0
  133.9240  124.7160   65.0080 O   0  0  0  0  0  0  0  0  0  0  0  0
  134.3440  125.3670   66.1210 C   0  0  0  0  0  0  0  0  0  0  0  0
  135.5070  125.4110   66.5270 O   0  0  0  0  0  0  0  0  0  0  0  0
  133.2130  126.0600   66.9100 C   0  0  0  0  0  0  0  0  0  0  0  0
  131.8960  125.4440   66.6870 N   0  0  0  0  0  0  0  0  0  0  0  0
  130.7190  125.9110   67.1450 C   0  0  0  0  0  0  0  0  0  0  0  0
  130.6180  126.9380   67.8190 O   0  0  0  0  0  0  0  0  0  0  0  0
  129.4770  125.0910   66.7640 C   0  0  0  0  0  0  0  0  0  0  0  0
  129.4800  124.5730   65.3120 C   0  0  0  0  0  0  0  0  0  0  0  0
  129.9530  122.8250   65.1640 S   0  0  0  0  0  0  0  0  0  0  0  0
  130.5670  122.5410   63.5160 C   0  0  0  0  0  0  0  0  0  0  0  0
  131.8750  122.1760   63.4840 N   0  0  0  0  0  0  0  0  0  0  0  0
  132.4550  121.9350   62.2860 C   0  0  0  0  0  0  0  0  0  0  0  0
  133.9220  121.5500   62.3290 C   0  0  0  0  0  0  0  0  0  0  0  0
  131.7620  122.0340   61.0810 C   0  0  0  0  0  0  0  0  0  0  0  0
  130.4090  122.3840   61.1040 C   0  0  0  0  0  0  0  0  0  0  0  0
  129.6660  122.4690   59.7700 C   0  0  0  0  0  0  0  0  0  0  0  0
  129.7790  122.6380   62.3430 C   0  0  0  0  0  0  0  0  0  0  0  0
  128.3500  122.9500   62.3900 C   0  0  0  0  0  0  0  0  0  0  0  0
  127.2190  123.1950   62.4230 N   0  0  0  0  0  0  0  0  0  0  0  0
  1  2  1  0
  2  3  1  0
  3  4  2  0
  3  5  1  0
  5  6  1  0
  6  7  1  0
  7  8  2  0
  7  9  1  0
  9 10  1  0
 10 11  1  0
 11 12  1  0
 12 13  2  0
 13 14  1  0
 14 15  1  0
 14 16  2  0
 16 17  1  0
 17 18  1  0
 17 19  2  0
 19 20  1  0
 20 21  3  0
 19 12  1  0
M  END
>  <Binding energies>  (15) 
[-5.55]

>  <Ligand effiencies>  (15) 
[-0.25227272727272726]

>  <Interactions>  (15) 
["V-B:TYR:539:CD2:9845, V-A:ARG:545:CD:4923, V-B:GLU:543:CD:9879, H-A:TYR:484:OH:4347, H-A:GLY:454:N:4049, V-B:GLU:543:CG:9878, V-A:HIS:456:CE1:4069, V-B:TYR:539:CE2:9847, V-B:GLU:543:CB:9877, V-A:ILE:369:CD1:3238, V-A:ARG:545:CZ:4926, V-A:ARG:545:CG:4922, H-A:ARG:545:NE:4924, V-B:ALA:541:CB:9863, V-A:GLY:454:CA:4048, V-A:LEU:475:CD2:4258, V-A:TYR:484:CZ:4346, V-B:ALA:541:CA:9861, V-A:ILE:369:CG2:3236, H-B:ALA:541:N:9862, H-A:ILE:455:N:4054, V-A:GLY:453:CA:4043, V-B:TYR:539:CZ:9848, H-A:GLY:453:N:4044, V-A:GLY:453:C:4041"]

$$$$
2a_Grossjean_2025
     RDKit          3D

 29 30  0  0  0  0  0  0  0  0999 V2000
  128.7600  130.6500   72.5710 C   0  0  0  0  0  0  0  0  0  0  0  0
  129.1020  130.0110   73.9200 C   0  0  0  0  0  0  0  0  0  0  0  0
  129.9080  128.8590   73.7030 O   0  0  0  0  0  0  0  0  0  0  0  0
  129.3700  127.7070   73.2250 C   0  0  0  0  0  0  0  0  0  0  0  0
  128.7010  126.9310   73.9130 O   0  0  0  0  0  0  0  0  0  0  0  0
  129.6530  127.4840   71.7660 C   0  0  0  0  0  0  0  0  0  0  0  0
  130.6970  128.1450   71.1040 C   0  0  0  0  0  0  0  0  0  0  0  0
  130.9310  127.9160   69.7510 C   0  0  0  0  0  0  0  0  0  0  0  0
  130.1260  127.0320   69.0320 C   0  0  0  0  0  0  0  0  0  0  0  0
  130.4450  126.8890   67.6690 N   0  0  0  0  0  0  0  0  0  0  0  0
  130.1620  125.8850   66.8120 C   0  0  0  0  0  0  0  0  0  0  0  0
  129.5610  124.8490   67.0980 O   0  0  0  0  0  0  0  0  0  0  0  0
  130.6470  126.0890   65.3720 C   0  0  0  0  0  0  0  0  0  0  0  0
  132.2460  125.2800   65.0290 S   0  0  0  0  0  0  0  0  0  0  0  0
  132.1480  124.3790   63.4860 C   0  0  0  0  0  0  0  0  0  0  0  0
  132.9850  124.8000   62.5040 N   0  0  0  0  0  0  0  0  0  0  0  0
  132.9560  124.1730   61.3070 C   0  0  0  0  0  0  0  0  0  0  0  0
  133.9010  124.7180   60.2520 C   0  0  0  0  0  0  0  0  0  0  0  0
  132.1070  123.1040   61.0400 C   0  0  0  0  0  0  0  0  0  0  0  0
  131.2380  122.6450   62.0430 C   0  0  0  0  0  0  0  0  0  0  0  0
  130.3050  121.4600   61.7320 C   0  0  0  0  0  0  0  0  0  0  0  0
  130.3600  120.5640   62.7170 F   0  0  0  0  0  0  0  0  0  0  0  0
  129.0490  121.8900   61.6060 F   0  0  0  0  0  0  0  0  0  0  0  0
  130.6300  120.8320   60.5990 F   0  0  0  0  0  0  0  0  0  0  0  0
  131.2560  123.2970   63.3030 C   0  0  0  0  0  0  0  0  0  0  0  0
  130.3680  122.8620   64.3850 C   0  0  0  0  0  0  0  0  0  0  0  0
  129.6670  122.5180   65.2400 N   0  0  0  0  0  0  0  0  0  0  0  0
  129.0850  126.3610   69.6900 C   0  0  0  0  0  0  0  0  0  0  0  0
  128.8550  126.5870   71.0440 C   0  0  0  0  0  0  0  0  0  0  0  0
  1  2  1  0
  2  3  1  0
  3  4  1  0
  4  5  2  0
  4  6  1  0
  6  7  2  0
  7  8  1  0
  8  9  2  0
  9 10  1  0
 10 11  1  0
 11 12  2  0
 11 13  1  0
 13 14  1  0
 14 15  1  0
 15 16  2  0
 16 17  1  0
 17 18  1  0
 17 19  2  0
 19 20  1  0
 20 21  1  0
 21 22  1  0
 21 23  1  0
 21 24  1  0
 20 25  2  0
 25 26  1  0
 26 27  3  0
  9 28  1  0
 28 29  2  0
 29  6  1  0
 25 15  1  0
M  END
>  <Binding energies>  (16) 
[-6.74]

>  <Ligand effiencies>  (16) 
[-0.22466666666666668]

>  <Interactions>  (16) 
["V-B:TYR:539:CD2:9845, H-A:TYR:484:OH:4347, V-A:HIS:456:CE1:4069, V-B:TYR:539:CE2:9847, V-A:ILE:369:CD1:3238, V-B:ALA:541:CB:9863, V-A:GLU:543:CB:4906, V-B:HIS:456:CE1:9041, V-A:GLU:543:CD:4908, V-A:ASP:366:CG:3212, V-A:LEU:475:CD2:4258, H-A:GLU:543:OE2:4910, H-A:GLU:543:OE1:4909, V-B:ALA:541:CA:9861, V-A:ILE:369:CG2:3236, V-A:ILE:369:CB:3235, V-A:ASP:366:CB:3211, V-A:ASP:366:CA:3209, H-B:LYS:547:NZ:9922, H-A:LYS:547:NZ:4951, V-B:HIS:456:CG:9037, V-B:HIS:456:CD2:9039, V-A:LEU:475:CD1:4257, V-A:LEU:475:CG:4256"]

$$$$
2b_Grossjean_2025
     RDKit          3D

 28 29  0  0  0  0  0  0  0  0999 V2000
  129.4720  124.5930   73.7250 C   0  0  0  0  0  0  0  0  0  0  0  0
  129.0030  125.9340   73.7640 O   0  0  0  0  0  0  0  0  0  0  0  0
  129.7730  126.9580   73.3140 C   0  0  0  0  0  0  0  0  0  0  0  0
  130.4310  127.6920   74.0580 O   0  0  0  0  0  0  0  0  0  0  0  0
  129.7410  127.1110   71.8210 C   0  0  0  0  0  0  0  0  0  0  0  0
  128.7930  126.4490   71.0270 C   0  0  0  0  0  0  0  0  0  0  0  0
  128.7920  126.6110   69.6440 C   0  0  0  0  0  0  0  0  0  0  0  0
  129.7300  127.4400   69.0290 C   0  0  0  0  0  0  0  0  0  0  0  0
  129.6430  127.5280   67.6260 N   0  0  0  0  0  0  0  0  0  0  0  0
  129.3660  126.5680   66.7180 C   0  0  0  0  0  0  0  0  0  0  0  0
  129.1570  125.3820   66.9750 O   0  0  0  0  0  0  0  0  0  0  0  0
  129.3390  127.0380   65.2600 C   0  0  0  0  0  0  0  0  0  0  0  0
  130.8980  126.7100   64.3720 S   0  0  0  0  0  0  0  0  0  0  0  0
  130.8060  125.1310   63.5400 C   0  0  0  0  0  0  0  0  0  0  0  0
  129.5710  124.7570   63.1200 N   0  0  0  0  0  0  0  0  0  0  0  0
  129.4270  123.5710   62.4870 C   0  0  0  0  0  0  0  0  0  0  0  0
  128.0140  123.2220   62.0610 C   0  0  0  0  0  0  0  0  0  0  0  0
  130.4970  122.7170   62.2400 C   0  0  0  0  0  0  0  0  0  0  0  0
  131.7850  123.0860   62.6590 C   0  0  0  0  0  0  0  0  0  0  0  0
  132.9590  122.1310   62.3730 C   0  0  0  0  0  0  0  0  0  0  0  0
  133.4850  121.6990   63.5210 F   0  0  0  0  0  0  0  0  0  0  0  0
  132.5350  121.0800   61.6700 F   0  0  0  0  0  0  0  0  0  0  0  0
  133.9390  122.7110   61.6760 F   0  0  0  0  0  0  0  0  0  0  0  0
  131.9500  124.3250   63.3300 C   0  0  0  0  0  0  0  0  0  0  0  0
  133.2710  124.7570   63.7950 C   0  0  0  0  0  0  0  0  0  0  0  0
  134.3140  125.0990   64.1620 N   0  0  0  0  0  0  0  0  0  0  0  0
  130.6850  128.1010   69.8140 C   0  0  0  0  0  0  0  0  0  0  0  0
  130.6860  127.9360   71.1970 C   0  0  0  0  0  0  0  0  0  0  0  0
  1  2  1  0
  2  3  1  0
  3  4  2  0
  3  5  1  0
  5  6  2  0
  6  7  1  0
  7  8  2  0
  8  9  1  0
  9 10  1  0
 10 11  2  0
 10 12  1  0
 12 13  1  0
 13 14  1  0
 14 15  2  0
 15 16  1  0
 16 17  1  0
 16 18  2  0
 18 19  1  0
 19 20  1  0
 20 21  1  0
 20 22  1  0
 20 23  1  0
 19 24  2  0
 24 25  1  0
 25 26  3  0
  8 27  1  0
 27 28  2  0
 28  5  1  0
 24 14  1  0
M  END
>  <Binding energies>  (17) 
[-6.73]

>  <Ligand effiencies>  (17) 
[-0.2320689655172414]

>  <Interactions>  (17) 
["V-B:GLU:543:CD:9879, H-A:GLY:454:N:4049, V-B:GLU:543:CG:9878, V-A:HIS:456:CE1:4069, H-A:ARG:545:NH1:4927, V-A:ILE:369:CD1:3238, V-B:ALA:541:CB:9863, V-A:GLU:543:CB:4906, V-B:HIS:456:CE1:9041, V-A:GLU:543:CD:4908, H-A:ARG:545:NH2:4928, V-A:GLY:454:CA:4048, V-A:GLU:543:CG:4907, V-A:LEU:475:CD2:4258, H-A:GLU:543:OE2:4910, H-A:GLU:543:OE1:4909, V-A:ILE:369:CG2:3236, V-A:HIS:456:CD2:4067, V-A:ILE:369:CB:3235, H-B:LYS:547:NZ:9922, H-A:LYS:547:NZ:4951, V-B:LYS:547:CE:9921, V-A:ILE:369:CG1:3237"]

$$$$
2c_Grossjean_2025
     RDKit          3D

 26 27  0  0  0  0  0  0  0  0999 V2000
  129.8130  131.0810   73.6100 C   0  0  0  0  0  0  0  0  0  0  0  0
  130.6050  129.9140   73.4160 O   0  0  0  0  0  0  0  0  0  0  0  0
  130.6140  129.3030   72.1770 C   0  0  0  0  0  0  0  0  0  0  0  0
  129.4150  129.3220   71.4660 C   0  0  0  0  0  0  0  0  0  0  0  0
  129.3250  128.7310   70.2080 C   0  0  0  0  0  0  0  0  0  0  0  0
  130.4460  128.0990   69.6500 C   0  0  0  0  0  0  0  0  0  0  0  0
  130.4570  127.4920   68.3810 N   0  0  0  0  0  0  0  0  0  0  0  0
  129.6470  126.5230   67.9040 C   0  0  0  0  0  0  0  0  0  0  0  0
  128.7680  125.9590   68.5580 O   0  0  0  0  0  0  0  0  0  0  0  0
  129.9170  126.1120   66.4480 C   0  0  0  0  0  0  0  0  0  0  0  0
  130.2070  124.3290   66.1760 S   0  0  0  0  0  0  0  0  0  0  0  0
  130.4750  124.0300   64.4330 C   0  0  0  0  0  0  0  0  0  0  0  0
  129.3720  123.6830   63.7200 N   0  0  0  0  0  0  0  0  0  0  0  0
  129.5010  123.4330   62.3990 C   0  0  0  0  0  0  0  0  0  0  0  0
  128.2280  123.0350   61.6770 C   0  0  0  0  0  0  0  0  0  0  0  0
  130.7200  123.5250   61.7320 C   0  0  0  0  0  0  0  0  0  0  0  0
  131.8710  123.8890   62.4460 C   0  0  0  0  0  0  0  0  0  0  0  0
  133.2120  123.9890   61.6930 C   0  0  0  0  0  0  0  0  0  0  0  0
  133.8470  125.1100   62.0390 F   0  0  0  0  0  0  0  0  0  0  0  0
  133.9840  122.9440   61.9930 F   0  0  0  0  0  0  0  0  0  0  0  0
  133.0590  124.0070   60.3670 F   0  0  0  0  0  0  0  0  0  0  0  0
  131.7510  124.1500   63.8340 C   0  0  0  0  0  0  0  0  0  0  0  0
  132.9220  124.5330   64.6320 C   0  0  0  0  0  0  0  0  0  0  0  0
  133.8460  124.8350   65.2600 N   0  0  0  0  0  0  0  0  0  0  0  0
  131.6530  128.0920   70.3510 C   0  0  0  0  0  0  0  0  0  0  0  0
  131.7380  128.6840   71.6080 C   0  0  0  0  0  0  0  0  0  0  0  0
  1  2  1  0
  2  3  1  0
  3  4  2  0
  4  5  1  0
  5  6  2  0
  6  7  1  0
  7  8  1  0
  8  9  2  0
  8 10  1  0
 10 11  1  0
 11 12  1  0
 12 13  2  0
 13 14  1  0
 14 15  1  0
 14 16  2  0
 16 17  1  0
 17 18  1  0
 18 19  1  0
 18 20  1  0
 18 21  1  0
 17 22  2  0
 22 23  1  0
 23 24  3  0
  6 25  1  0
 25 26  2  0
 26  3  1  0
 22 12  1  0
M  END
>  <Binding energies>  (18) 
[-6.37]

>  <Ligand effiencies>  (18) 
[-0.23592592592592593]

>  <Interactions>  (18) 
["V-B:GLU:543:CD:9879, H-A:TYR:484:OH:4347, H-A:GLY:454:N:4049, V-B:GLU:543:CG:9878, V-A:HIS:456:CE1:4069, V-A:ILE:369:CD1:3238, V-A:ARG:545:CG:4922, V-B:ALA:541:CB:9863, V-A:GLU:543:CB:4906, V-B:HIS:456:CE1:9041, V-A:GLU:543:CD:4908, V-A:GLY:454:CA:4048, V-A:GLU:543:CG:4907, V-A:ASP:366:CG:3212, H-A:GLU:543:OE2:4910, V-A:ILE:369:CG2:3236, V-A:GLY:544:C:4912, V-A:ARG:545:CA:4919, V-A:ILE:369:CB:3235, H-A:LYS:547:NZ:4951, V-A:LYS:547:CE:4950, V-A:ILE:369:CG1:3237"]

$$$$
2d_Ghoteimi_2023
     RDKit          3D

 38 42  0  0  0  0  0  0  0  0999 V2000
  127.6430  122.8270   58.0870 C   0  0  0  0  0  0  0  0  0  0  0  0
  127.1080  123.2330   59.3380 O   0  0  0  0  0  0  0  0  0  0  0  0
  127.6680  122.8130   60.4910 C   0  0  0  0  0  0  0  0  0  0  0  0
  127.2310  123.0390   61.6230 O   0  0  0  0  0  0  0  0  0  0  0  0
  128.9420  121.9960   60.2280 C   0  0  0  0  0  0  0  0  0  0  0  0
  130.2230  122.3470   61.4800 S   0  0  0  0  0  0  0  0  0  0  0  0
  130.1400  124.0770   61.8950 C   0  0  0  0  0  0  0  0  0  0  0  0
  130.0110  124.3030   63.2260 N   0  0  0  0  0  0  0  0  0  0  0  0
  129.9280  125.5770   63.6860 C   0  0  0  0  0  0  0  0  0  0  0  0
  129.7690  125.7460   65.1620 C   0  0  0  0  0  0  0  0  0  0  0  0
  129.9980  124.6730   66.0310 C   0  0  0  0  0  0  0  0  0  0  0  0
  129.8510  124.8240   67.4070 C   0  0  0  0  0  0  0  0  0  0  0  0
  129.4800  126.0570   67.9660 C   0  0  0  0  0  0  0  0  0  0  0  0
  129.3110  126.2200   69.3450 N   0  0  0  0  0  0  0  0  0  0  0  0
  129.5540  127.5180   70.0050 C   0  0  0  0  0  0  0  0  0  0  0  0
  129.6820  127.4180   71.5390 C   0  0  0  0  0  0  0  0  0  0  0  0
  128.5330  126.7840   72.0800 O   0  0  0  0  0  0  0  0  0  0  0  0
  128.3750  125.4700   71.5710 C   0  0  0  0  0  0  0  0  0  0  0  0
  128.2140  125.5110   70.0360 C   0  0  0  0  0  0  0  0  0  0  0  0
  129.2380  127.1250   67.0900 C   0  0  0  0  0  0  0  0  0  0  0  0
  129.3830  126.9730   65.7140 C   0  0  0  0  0  0  0  0  0  0  0  0
  129.9790  126.6640   62.8090 C   0  0  0  0  0  0  0  0  0  0  0  0
  130.1470  126.4600   61.4340 C   0  0  0  0  0  0  0  0  0  0  0  0
  130.2210  127.6700   60.5610 C   0  0  0  0  0  0  0  0  0  0  0  0
  130.9570  128.7840   60.9670 C   0  0  0  0  0  0  0  0  0  0  0  0
  131.0430  129.9120   60.1560 C   0  0  0  0  0  0  0  0  0  0  0  0
  130.3910  129.9580   58.9130 C   0  0  0  0  0  0  0  0  0  0  0  0
  130.4740  131.0740   58.0760 N   0  0  0  0  0  0  0  0  0  0  0  0
  131.7390  131.8150   57.9050 C   0  0  0  0  0  0  0  0  0  0  0  0
  131.7330  132.7720   56.6930 C   0  0  0  0  0  0  0  0  0  0  0  0
  130.6320  133.6620   56.7840 O   0  0  0  0  0  0  0  0  0  0  0  0
  129.3950  132.9670   56.8040 C   0  0  0  0  0  0  0  0  0  0  0  0
  129.3410  132.0180   58.0200 C   0  0  0  0  0  0  0  0  0  0  0  0
  129.6690  128.8270   58.5060 C   0  0  0  0  0  0  0  0  0  0  0  0
  129.5840  127.6990   59.3170 C   0  0  0  0  0  0  0  0  0  0  0  0
  130.2360  125.1290   60.9550 C   0  0  0  0  0  0  0  0  0  0  0  0
  130.4310  124.8650   59.5260 C   0  0  0  0  0  0  0  0  0  0  0  0
  130.5850  124.6610   58.3970 N   0  0  0  0  0  0  0  0  0  0  0  0
  1  2  1  0
  2  3  1  0
  3  4  2  0
  3  5  1  0
  5  6  1  0
  6  7  1  0
  7  8  2  0
  8  9  1  0
  9 10  1  0
 10 11  2  0
 11 12  1  0
 12 13  2  0
 13 14  1  0
 14 15  1  0
 15 16  1  0
 16 17  1  0
 17 18  1  0
 18 19  1  0
 13 20  1  0
 20 21  2  0
  9 22  2  0
 22 23  1  0
 23 24  1  0
 24 25  2  0
 25 26  1  0
 26 27  2  0
 27 28  1  0
 28 29  1  0
 29 30  1  0
 30 31  1  0
 31 32  1  0
 32 33  1  0
 27 34  1  0
 34 35  2  0
 23 36  2  0
 36 37  1  0
 37 38  3  0
 36  7  1  0
 21 10  1  0
 35 24  1  0
 19 14  1  0
 33 28  1  0
M  END
>  <Binding energies>  (19) 
[-7.98]

>  <Ligand effiencies>  (19) 
[-0.21000000000000002]

>  <Interactions>  (19) 
["V-B:TYR:539:CD2:9845, V-B:GLU:543:CD:9879, V-B:PRO:540:CA:9854, V-B:PRO:540:N:9855, V-B:GLU:543:CG:9878, V-A:HIS:456:CE1:4069, V-B:TYR:539:CE2:9847, V-B:GLU:543:CB:9877, V-B:TYR:539:C:9838, V-B:PRO:540:C:9852, V-A:TYR:484:CE1:4344, V-B:HIS:456:CE1:9041, V-A:GLU:543:CD:4908, V-A:ASP:366:CG:3212, V-A:TYR:484:CZ:4346, V-B:GLU:543:C:9873, V-B:GLU:543:CA:9875, H-B:ALA:541:N:9862, V-B:TYR:539:CZ:9848, H-B:TYR:539:OH:9849, V-A:TYR:539:C:4867, V-A:PRO:540:CA:4883, V-A:TYR:539:CE2:4876, V-A:TYR:539:CD2:4874, V-A:PRO:540:N:4884, V-A:PRO:540:CB:4885, H-A:TYR:539:N:4870, V-A:LEU:363:CD1:3188, V-A:ILE:538:CB:4862, V-A:PRO:540:CD:4887, V-A:TYR:539:CZ:4877, V-A:TYR:539:CG:4872, V-A:TYR:539:CD1:4873, V-A:TYR:539:CE1:4875"]

$$$$
2d_Grossjean_2025
     RDKit          3D

 24 25  0  0  0  0  0  0  0  0999 V2000
  128.7540  126.6700   70.1750 C   0  0  0  0  0  0  0  0  0  0  0  0
  128.8850  126.8820   68.6790 C   0  0  0  0  0  0  0  0  0  0  0  0
  128.1850  127.8900   68.0200 C   0  0  0  0  0  0  0  0  0  0  0  0
  128.3440  128.0480   66.6360 C   0  0  0  0  0  0  0  0  0  0  0  0
  127.5690  129.1750   65.9260 C   0  0  0  0  0  0  0  0  0  0  0  0
  126.6960  128.6550   65.0620 F   0  0  0  0  0  0  0  0  0  0  0  0
  126.9040  129.9080   66.8220 F   0  0  0  0  0  0  0  0  0  0  0  0
  128.3650  130.0010   65.2450 F   0  0  0  0  0  0  0  0  0  0  0  0
  129.2130  127.1640   65.9470 C   0  0  0  0  0  0  0  0  0  0  0  0
  129.4490  127.3170   64.5090 C   0  0  0  0  0  0  0  0  0  0  0  0
  129.6350  127.4400   63.3730 N   0  0  0  0  0  0  0  0  0  0  0  0
  129.8630  126.1540   66.6950 C   0  0  0  0  0  0  0  0  0  0  0  0
  130.9620  124.9420   65.9860 S   0  0  0  0  0  0  0  0  0  0  0  0
  132.5710  125.7330   65.6540 C   0  0  0  0  0  0  0  0  0  0  0  0
  133.0880  125.4690   64.2370 C   0  0  0  0  0  0  0  0  0  0  0  0
  134.2550  125.1070   64.0830 O   0  0  0  0  0  0  0  0  0  0  0  0
  132.2030  125.6890   63.2420 N   0  0  0  0  0  0  0  0  0  0  0  0
  132.3710  125.5350   61.8530 C   0  0  0  0  0  0  0  0  0  0  0  0
  133.3530  124.6260   61.4520 C   0  0  0  0  0  0  0  0  0  0  0  0
  133.5980  124.4090   60.0980 C   0  0  0  0  0  0  0  0  0  0  0  0
  132.8630  125.1100   59.1440 C   0  0  0  0  0  0  0  0  0  0  0  0
  131.8910  126.0270   59.5320 C   0  0  0  0  0  0  0  0  0  0  0  0
  131.6430  126.2460   60.8840 C   0  0  0  0  0  0  0  0  0  0  0  0
  129.7150  126.0280   68.0360 N   0  0  0  0  0  0  0  0  0  0  0  0
  1  2  1  0
  2  3  2  0
  3  4  1  0
  4  5  1  0
  5  6  1  0
  5  7  1  0
  5  8  1  0
  4  9  2  0
  9 10  1  0
 10 11  3  0
  9 12  1  0
 12 13  1  0
 13 14  1  0
 14 15  1  0
 15 16  2  0
 15 17  1  0
 17 18  1  0
 18 19  2  0
 19 20  1  0
 20 21  2  0
 21 22  1  0
 22 23  2  0
 12 24  2  0
 24  2  1  0
 23 18  1  0
M  END
>  <Binding energies>  (20) 
[-5.47]

>  <Ligand effiencies>  (20) 
[-0.2188]

>  <Interactions>  (20) 
["V-B:GLU:543:CD:9879, H-A:TYR:484:OH:4347, H-A:GLY:454:N:4049, V-B:GLU:543:CG:9878, V-A:HIS:456:CE1:4069, H-A:ARG:545:NH1:4927, V-A:ILE:369:CD1:3238, V-A:ARG:545:CZ:4926, V-B:HIS:456:CE1:9041, V-A:GLU:543:CD:4908, H-A:ARG:545:NH2:4928, V-A:GLU:543:CG:4907, V-A:ASP:366:CG:3212, V-A:ILE:369:CG2:3236, V-A:ILE:369:CB:3235, V-A:ASP:366:CB:3211, V-A:ASP:366:CA:3209, V-B:TYR:484:CZ:9318"]

$$$$
2e_Grossjean_2025
     RDKit          3D

 25 26  0  0  0  0  0  0  0  0999 V2000
  125.3980  124.3740   61.6170 C   0  0  0  0  0  0  0  0  0  0  0  0
  126.2820  123.8100   60.5210 C   0  0  0  0  0  0  0  0  0  0  0  0
  126.2030  124.2750   59.2050 C   0  0  0  0  0  0  0  0  0  0  0  0
  127.0560  123.7170   58.2520 C   0  0  0  0  0  0  0  0  0  0  0  0
  127.9570  122.7180   58.6310 C   0  0  0  0  0  0  0  0  0  0  0  0
  127.9770  122.2930   59.9650 C   0  0  0  0  0  0  0  0  0  0  0  0
  128.9320  121.3180   60.3010 N   0  0  0  0  0  0  0  0  0  0  0  0
  129.6960  121.2480   61.4140 C   0  0  0  0  0  0  0  0  0  0  0  0
  129.6180  122.0170   62.3730 O   0  0  0  0  0  0  0  0  0  0  0  0
  130.7550  120.1420   61.4260 C   0  0  0  0  0  0  0  0  0  0  0  0
  132.3830  120.7480   60.8780 S   0  0  0  0  0  0  0  0  0  0  0  0
  132.3030  122.5200   61.0200 C   0  0  0  0  0  0  0  0  0  0  0  0
  132.1780  123.1760   59.8400 N   0  0  0  0  0  0  0  0  0  0  0  0
  132.1550  124.5280   59.8530 C   0  0  0  0  0  0  0  0  0  0  0  0
  132.0120  125.1980   58.5000 C   0  0  0  0  0  0  0  0  0  0  0  0
  132.2600  125.2720   61.0280 C   0  0  0  0  0  0  0  0  0  0  0  0
  132.3990  124.6080   62.2550 C   0  0  0  0  0  0  0  0  0  0  0  0
  132.5360  125.4430   63.5420 C   0  0  0  0  0  0  0  0  0  0  0  0
  133.8210  125.5630   63.8760 F   0  0  0  0  0  0  0  0  0  0  0  0
  132.0220  126.6590   63.3520 F   0  0  0  0  0  0  0  0  0  0  0  0
  131.9010  124.8960   64.5810 F   0  0  0  0  0  0  0  0  0  0  0  0
  132.4200  123.1910   62.2590 C   0  0  0  0  0  0  0  0  0  0  0  0
  132.5920  122.4390   63.5060 C   0  0  0  0  0  0  0  0  0  0  0  0
  132.7290  121.8450   64.4900 N   0  0  0  0  0  0  0  0  0  0  0  0
  127.1510  122.8400   60.9040 N   0  0  0  0  0  0  0  0  0  0  0  0
  1  2  1  0
  2  3  2  0
  3  4  1  0
  4  5  2  0
  5  6  1  0
  6  7  1  0
  7  8  1  0
  8  9  2  0
  8 10  1  0
 10 11  1  0
 11 12  1  0
 12 13  2  0
 13 14  1  0
 14 15  1  0
 14 16  2  0
 16 17  1  0
 17 18  1  0
 18 19  1  0
 18 20  1  0
 18 21  1  0
 17 22  2  0
 22 23  1  0
 23 24  3  0
  6 25  2  0
 25  2  1  0
 22 12  1  0
M  END
>  <Binding energies>  (21) 
[-6.27]

>  <Ligand effiencies>  (21) 
[-0.24115384615384614]

>  <Interactions>  (21) 
["V-B:TYR:539:CD2:9845, V-B:PRO:540:CA:9854, H-A:TYR:484:OH:4347, V-B:PRO:540:N:9855, H-A:GLY:454:N:4049, V-B:TYR:539:CE2:9847, V-B:TYR:539:C:9838, V-A:ARG:545:CZ:4926, V-B:PRO:540:C:9852, V-B:ALA:541:CB:9863, V-A:GLY:454:CA:4048, V-A:ASP:366:CG:3212, V-A:LEU:475:CD2:4258, V-A:ILE:369:CG2:3236, H-B:ALA:541:N:9862, V-A:ASP:366:CB:3211, V-A:GLY:453:CA:4043, V-B:PRO:540:CB:9856, V-B:TYR:539:CZ:9848, H-B:TYR:539:O:9839"]

$$$$
2f_Grossjean_2025
     RDKit          3D

 24 25  0  0  0  0  0  0  0  0999 V2000
  128.7060  126.3260   67.7600 C   0  0  0  0  0  0  0  0  0  0  0  0
  129.1460  126.5370   69.1960 C   0  0  0  0  0  0  0  0  0  0  0  0
  130.0870  127.5070   69.5360 C   0  0  0  0  0  0  0  0  0  0  0  0
  130.4680  127.6580   70.8790 C   0  0  0  0  0  0  0  0  0  0  0  0
  131.5190  128.7280   71.2320 C   0  0  0  0  0  0  0  0  0  0  0  0
  132.0750  129.2100   70.1190 F   0  0  0  0  0  0  0  0  0  0  0  0
  130.9420  129.7300   71.8970 F   0  0  0  0  0  0  0  0  0  0  0  0
  132.5040  128.2520   71.9970 F   0  0  0  0  0  0  0  0  0  0  0  0
  129.8710  126.8170   71.8520 C   0  0  0  0  0  0  0  0  0  0  0  0
  130.2770  126.8980   73.2580 C   0  0  0  0  0  0  0  0  0  0  0  0
  130.5970  126.9630   74.3680 N   0  0  0  0  0  0  0  0  0  0  0  0
  128.9040  125.8780   71.4180 C   0  0  0  0  0  0  0  0  0  0  0  0
  128.0470  124.7530   72.5010 S   0  0  0  0  0  0  0  0  0  0  0  0
  129.2930  123.7190   73.3440 C   0  0  0  0  0  0  0  0  0  0  0  0
  128.8720  122.2640   73.5930 C   0  0  0  0  0  0  0  0  0  0  0  0
  128.9830  121.7600   74.7110 O   0  0  0  0  0  0  0  0  0  0  0  0
  128.4070  121.6210   72.5000 N   0  0  0  0  0  0  0  0  0  0  0  0
  127.9320  120.3020   72.3720 C   0  0  0  0  0  0  0  0  0  0  0  0
  127.7160  119.4050   73.4350 C   0  0  0  0  0  0  0  0  0  0  0  0
  127.2350  118.1220   73.1690 C   0  0  0  0  0  0  0  0  0  0  0  0
  126.9760  117.7670   71.8450 C   0  0  0  0  0  0  0  0  0  0  0  0
  127.1680  118.6150   70.8040 N   0  0  0  0  0  0  0  0  0  0  0  0
  127.6350  119.8590   71.0780 C   0  0  0  0  0  0  0  0  0  0  0  0
  128.5660  125.7310   70.1140 N   0  0  0  0  0  0  0  0  0  0  0  0
  1  2  1  0
  2  3  2  0
  3  4  1  0
  4  5  1  0
  5  6  1  0
  5  7  1  0
  5  8  1  0
  4  9  2  0
  9 10  1  0
 10 11  3  0
  9 12  1  0
 12 13  1  0
 13 14  1  0
 14 15  1  0
 15 16  2  0
 15 17  1  0
 17 18  1  0
 18 19  2  0
 19 20  1  0
 20 21  2  0
 21 22  1  0
 22 23  2  0
 12 24  2  0
 24  2  1  0
 23 18  1  0
M  END
>  <Binding energies>  (22) 
[-6.47]

>  <Ligand effiencies>  (22) 
[-0.2588]

>  <Interactions>  (22) 
["V-B:GLU:543:CD:9879, V-B:GLU:543:CG:9878, V-A:HIS:456:CE1:4069, V-B:GLU:543:CB:9877, V-A:ARG:545:CG:4922, V-A:GLU:543:CB:4906, V-B:GLU:543:C:9873, V-A:HIS:456:CG:4065, V-A:GLU:543:C:4902, V-A:GLY:544:C:4912, V-A:ARG:545:CA:4919, V-A:HIS:456:CD2:4067, H-B:LYS:547:NZ:9922, H-A:LYS:547:NZ:4951, V-B:LYS:547:CE:9921, H-A:HIS:456:NE2:4070, H-B:GLU:543:O:9874, V-A:ARG:545:C:4917, V-A:GLU:543:CA:4904, V-A:ARG:545:CB:4921, V-A:TYR:484:CB:4340, V-A:GLY:544:CA:4914, V-A:TYR:484:CD1:4342, V-A:TYR:484:CG:4341, H-A:TYR:484:N:4339, V-A:SER:483:CB:4332"]

$$$$
2g_Grossjean_2025
     RDKit          3D

 25 26  0  0  0  0  0  0  0  0999 V2000
  134.7710  125.1100   66.7430 C   0  0  0  0  0  0  0  0  0  0  0  0
  133.6470  125.2960   65.7410 C   0  0  0  0  0  0  0  0  0  0  0  0
  132.3590  125.6370   66.1450 C   0  0  0  0  0  0  0  0  0  0  0  0
  131.3520  125.7900   65.1800 C   0  0  0  0  0  0  0  0  0  0  0  0
  129.9300  126.1590   65.6470 C   0  0  0  0  0  0  0  0  0  0  0  0
  129.4730  127.2040   64.9540 F   0  0  0  0  0  0  0  0  0  0  0  0
  129.1100  125.1240   65.4590 F   0  0  0  0  0  0  0  0  0  0  0  0
  129.8790  126.4850   66.9400 F   0  0  0  0  0  0  0  0  0  0  0  0
  131.6850  125.5970   63.8150 C   0  0  0  0  0  0  0  0  0  0  0  0
  130.6580  125.6890   62.7730 C   0  0  0  0  0  0  0  0  0  0  0  0
  129.8470  125.7610   61.9510 N   0  0  0  0  0  0  0  0  0  0  0  0
  133.0280  125.2820   63.4960 C   0  0  0  0  0  0  0  0  0  0  0  0
  133.6220  125.0330   61.8370 S   0  0  0  0  0  0  0  0  0  0  0  0
  132.6230  123.7000   61.0910 C   0  0  0  0  0  0  0  0  0  0  0  0
  132.1260  123.9900   59.6680 C   0  0  0  0  0  0  0  0  0  0  0  0
  132.7440  123.5940   58.6780 O   0  0  0  0  0  0  0  0  0  0  0  0
  130.9880  124.7030   59.5880 N   0  0  0  0  0  0  0  0  0  0  0  0
  130.3160  125.0960   58.3470 C   0  0  0  0  0  0  0  0  0  0  0  0
  129.1250  124.2200   57.9730 C   0  0  0  0  0  0  0  0  0  0  0  0
  128.6470  123.2710   58.8820 C   0  0  0  0  0  0  0  0  0  0  0  0
  127.5350  122.4970   58.5570 C   0  0  0  0  0  0  0  0  0  0  0  0
  126.9010  122.6800   57.3310 C   0  0  0  0  0  0  0  0  0  0  0  0
  127.3650  123.6330   56.4270 C   0  0  0  0  0  0  0  0  0  0  0  0
  128.4750  124.4080   56.7510 C   0  0  0  0  0  0  0  0  0  0  0  0
  133.9830  125.1160   64.4440 N   0  0  0  0  0  0  0  0  0  0  0  0
  1  2  1  0
  2  3  2  0
  3  4  1  0
  4  5  1  0
  5  6  1  0
  5  7  1  0
  5  8  1  0
  4  9  2  0
  9 10  1  0
 10 11  3  0
  9 12  1  0
 12 13  1  0
 13 14  1  0
 14 15  1  0
 15 16  2  0
 15 17  1  0
 17 18  1  0
 18 19  1  0
 19 20  2  0
 20 21  1  0
 21 22  2  0
 22 23  1  0
 23 24  2  0
 12 25  2  0
 25  2  1  0
 24 19  1  0
M  END
>  <Binding energies>  (23) 
[-5.76]

>  <Ligand effiencies>  (23) 
[-0.22153846153846152]

>  <Interactions>  (23) 
["V-B:TYR:539:CD2:9845, V-A:ARG:545:CD:4923, V-B:GLU:543:CD:9879, V-B:PRO:540:CA:9854, V-B:PRO:540:N:9855, H-A:GLY:454:N:4049, V-B:GLU:543:CG:9878, V-A:HIS:456:CE1:4069, H-A:ARG:545:NH1:4927, V-B:TYR:539:CE2:9847, V-B:GLU:543:CB:9877, V-B:TYR:539:C:9838, V-A:ARG:545:CZ:4926, V-A:ARG:545:CG:4922, V-A:GLU:543:CD:4908, H-A:ARG:545:NH2:4928, V-A:GLY:454:CA:4048, V-A:ILE:369:CG2:3236, V-A:GLY:453:CA:4043, V-B:TYR:539:CZ:9848, H-B:TYR:539:OH:9849, V-A:GLY:453:C:4041, V-A:ILE:455:C:4051, V-B:TYR:539:CE1:9846, V-A:GLY:454:C:4046"]

$$$$
2h_Grossjean_2025
     RDKit          3D

 31 32  0  0  0  0  0  0  0  0999 V2000
  130.2350  125.1250   74.5320 C   0  0  0  0  0  0  0  0  0  0  0  0
  129.0660  125.8180   74.1090 O   0  0  0  0  0  0  0  0  0  0  0  0
  128.9460  126.1990   72.7840 C   0  0  0  0  0  0  0  0  0  0  0  0
  128.2240  125.4730   71.8230 C   0  0  0  0  0  0  0  0  0  0  0  0
  128.1410  125.9240   70.5070 C   0  0  0  0  0  0  0  0  0  0  0  0
  128.7750  127.1070   70.1230 C   0  0  0  0  0  0  0  0  0  0  0  0
  128.6520  127.5920   68.6790 C   0  0  0  0  0  0  0  0  0  0  0  0
  129.7280  127.1180   67.8080 N   0  0  0  0  0  0  0  0  0  0  0  0
  130.0050  125.8260   67.5580 C   0  0  0  0  0  0  0  0  0  0  0  0
  129.4230  124.8920   68.1120 O   0  0  0  0  0  0  0  0  0  0  0  0
  131.1050  125.5740   66.5170 C   0  0  0  0  0  0  0  0  0  0  0  0
  130.7890  126.2950   64.8720 S   0  0  0  0  0  0  0  0  0  0  0  0
  130.7320  124.9410   63.7190 C   0  0  0  0  0  0  0  0  0  0  0  0
  129.4760  124.5980   63.3410 N   0  0  0  0  0  0  0  0  0  0  0  0
  129.3170  123.5680   62.4800 C   0  0  0  0  0  0  0  0  0  0  0  0
  127.8840  123.2360   62.1080 C   0  0  0  0  0  0  0  0  0  0  0  0
  130.3910  122.8480   61.9610 C   0  0  0  0  0  0  0  0  0  0  0  0
  131.6990  123.2010   62.3250 C   0  0  0  0  0  0  0  0  0  0  0  0
  132.8750  122.3990   61.7340 C   0  0  0  0  0  0  0  0  0  0  0  0
  133.5720  121.8250   62.7150 F   0  0  0  0  0  0  0  0  0  0  0  0
  132.4750  121.4300   60.9080 F   0  0  0  0  0  0  0  0  0  0  0  0
  133.6810  123.2070   61.0450 F   0  0  0  0  0  0  0  0  0  0  0  0
  131.8840  124.2850   63.2220 C   0  0  0  0  0  0  0  0  0  0  0  0
  133.2310  124.7310   63.5860 C   0  0  0  0  0  0  0  0  0  0  0  0
  134.2960  125.0830   63.8700 N   0  0  0  0  0  0  0  0  0  0  0  0
  129.5190  127.8300   71.0670 C   0  0  0  0  0  0  0  0  0  0  0  0
  130.1490  128.9940   70.6950 O   0  0  0  0  0  0  0  0  0  0  0  0
  131.5290  128.8420   70.3890 C   0  0  0  0  0  0  0  0  0  0  0  0
  129.5860  127.3830   72.3980 C   0  0  0  0  0  0  0  0  0  0  0  0
  130.2990  128.0990   73.3300 O   0  0  0  0  0  0  0  0  0  0  0  0
  129.7250  129.3560   73.6600 C   0  0  0  0  0  0  0  0  0  0  0  0
  1  2  1  0
  2  3  1  0
  3  4  2  0
  4  5  1  0
  5  6  2  0
  6  7  1  0
  7  8  1  0
  8  9  1  0
  9 10  2  0
  9 11  1  0
 11 12  1  0
 12 13  1  0
 13 14  2  0
 14 15  1  0
 15 16  1  0
 15 17  2  0
 17 18  1  0
 18 19  1  0
 19 20  1  0
 19 21  1  0
 19 22  1  0
 18 23  2  0
 23 24  1  0
 24 25  3  0
  6 26  1  0
 26 27  1  0
 27 28  1  0
 26 29  2  0
 29 30  1  0
 30 31  1  0
 29  3  1  0
 23 13  1  0
M  END
>  <Binding energies>  (24) 
[-6.63]

>  <Ligand effiencies>  (24) 
[-0.2071875]

>  <Interactions>  (24) 
["H-A:GLY:454:N:4049, V-A:HIS:456:CE1:4069, H-A:ARG:545:NH1:4927, V-B:TYR:539:CE2:9847, V-B:GLU:543:CB:9877, V-A:ILE:369:CD1:3238, V-A:ARG:545:CG:4922, V-B:ALA:541:CB:9863, V-A:GLU:543:CB:4906, V-B:HIS:456:CE1:9041, V-A:GLU:543:CD:4908, H-A:ARG:545:NH2:4928, V-A:GLY:454:CA:4048, V-A:LEU:475:CD2:4258, H-A:GLU:543:OE2:4910, V-B:GLU:543:C:9873, V-A:GLU:543:C:4902, V-B:ALA:541:CA:9861, V-A:ILE:369:CG2:3236, V-A:GLY:544:C:4912, V-A:ARG:545:CA:4919, V-A:HIS:456:CD2:4067, V-A:ILE:369:CB:3235, H-B:LYS:547:NZ:9922, H-A:LYS:547:NZ:4951, V-A:LYS:547:CE:4950, V-A:ILE:369:CG1:3237"]

$$$$
2i_Grossjean_2025
     RDKit          3D

 23 24  0  0  0  0  0  0  0  0999 V2000
  128.6480  126.5490   67.7490 C   0  0  0  0  0  0  0  0  0  0  0  0
  129.1180  126.6910   69.1850 C   0  0  0  0  0  0  0  0  0  0  0  0
  130.1220  127.5880   69.5390 C   0  0  0  0  0  0  0  0  0  0  0  0
  130.5200  127.6840   70.8810 C   0  0  0  0  0  0  0  0  0  0  0  0
  131.6340  128.6800   71.2540 C   0  0  0  0  0  0  0  0  0  0  0  0
  132.1240  129.2510   70.1520 F   0  0  0  0  0  0  0  0  0  0  0  0
  131.1490  129.6300   72.0540 F   0  0  0  0  0  0  0  0  0  0  0  0
  132.6530  128.1010   71.8930 F   0  0  0  0  0  0  0  0  0  0  0  0
  129.8790  126.8560   71.8380 C   0  0  0  0  0  0  0  0  0  0  0  0
  130.2540  126.9160   73.2540 C   0  0  0  0  0  0  0  0  0  0  0  0
  130.5500  126.9630   74.3720 N   0  0  0  0  0  0  0  0  0  0  0  0
  128.8700  125.9720   71.3910 C   0  0  0  0  0  0  0  0  0  0  0  0
  128.0000  124.8790   72.5020 S   0  0  0  0  0  0  0  0  0  0  0  0
  129.0560  123.4310   72.8130 C   0  0  0  0  0  0  0  0  0  0  0  0
  128.2460  122.1400   72.9440 C   0  0  0  0  0  0  0  0  0  0  0  0
  127.4990  121.9980   73.9140 O   0  0  0  0  0  0  0  0  0  0  0  0
  128.4410  121.2220   71.9730 N   0  0  0  0  0  0  0  0  0  0  0  0
  127.8420  119.9770   71.8800 C   0  0  0  0  0  0  0  0  0  0  0  0
  127.3940  119.1120   72.8890 C   0  0  0  0  0  0  0  0  0  0  0  0
  126.8850  118.0250   72.2180 C   0  0  0  0  0  0  0  0  0  0  0  0
  127.0120  118.2280   70.8840 O   0  0  0  0  0  0  0  0  0  0  0  0
  127.6150  119.4720   70.6870 N   0  0  0  0  0  0  0  0  0  0  0  0
  128.4990  125.8960   70.0870 N   0  0  0  0  0  0  0  0  0  0  0  0
  1  2  1  0
  2  3  2  0
  3  4  1  0
  4  5  1  0
  5  6  1  0
  5  7  1  0
  5  8  1  0
  4  9  2  0
  9 10  1  0
 10 11  3  0
  9 12  1  0
 12 13  1  0
 13 14  1  0
 14 15  1  0
 15 16  2  0
 15 17  1  0
 17 18  1  0
 18 19  1  0
 19 20  2  0
 20 21  1  0
 21 22  1  0
 12 23  2  0
 23  2  1  0
 22 18  2  0
M  END
>  <Binding energies>  (25) 
[-6.54]

>  <Ligand effiencies>  (25) 
[-0.2725]

>  <Interactions>  (25) 
["V-B:GLU:543:CD:9879, V-B:GLU:543:CG:9878, V-A:HIS:456:CE1:4069, V-B:GLU:543:CB:9877, V-A:ARG:545:CG:4922, V-A:GLU:543:CB:4906, V-B:HIS:456:CE1:9041, V-B:GLU:543:C:9873, V-A:HIS:456:CG:4065, V-A:GLU:543:C:4902, V-A:GLY:544:C:4912, V-A:ARG:545:CA:4919, V-A:HIS:456:CD2:4067, H-B:LYS:547:NZ:9922, H-A:LYS:547:NZ:4951, H-A:HIS:456:NE2:4070, H-B:GLU:543:O:9874, V-A:ARG:545:C:4917, V-A:GLU:543:CA:4904, V-A:ARG:545:CB:4921, V-A:TYR:484:CB:4340, V-A:GLY:544:CA:4914, V-A:TYR:484:CD1:4342, V-A:TYR:484:CG:4341, H-A:TYR:484:N:4339"]

$$$$
2k_Grossjean_2025
     RDKit          3D

 28 28  0  0  0  0  0  0  0  0999 V2000
  133.3900  125.4560   65.7580 C   0  0  0  0  0  0  0  0  0  0  0  0
  134.1140  125.1090   64.5870 O   0  0  0  0  0  0  0  0  0  0  0  0
  133.3520  125.2350   63.3930 C   0  0  0  0  0  0  0  0  0  0  0  0
  132.0980  126.0760   63.6640 C   0  0  0  0  0  0  0  0  0  0  0  0
  131.8800  126.9490   62.5650 O   0  0  0  0  0  0  0  0  0  0  0  0
  130.5300  127.3720   62.4140 C   0  0  0  0  0  0  0  0  0  0  0  0
  130.5050  128.5880   61.4780 C   0  0  0  0  0  0  0  0  0  0  0  0
  129.5770  129.5230   62.0050 O   0  0  0  0  0  0  0  0  0  0  0  0
  128.9670  129.1440   63.2300 C   0  0  0  0  0  0  0  0  0  0  0  0
  128.1150  130.3170   63.7480 C   0  0  0  0  0  0  0  0  0  0  0  0
  128.3300  131.5560   62.9960 N   0  0  0  0  0  0  0  0  0  0  0  0
  127.5900  132.6760   63.1030 C   0  0  0  0  0  0  0  0  0  0  0  0
  126.6450  132.7920   63.8860 O   0  0  0  0  0  0  0  0  0  0  0  0
  127.9790  133.8250   62.1600 C   0  0  0  0  0  0  0  0  0  0  0  0
  128.1760  133.3630   60.4040 S   0  0  0  0  0  0  0  0  0  0  0  0
  129.8350  132.7530   60.1330 C   0  0  0  0  0  0  0  0  0  0  0  0
  130.5640  132.5110   61.2530 N   0  0  0  0  0  0  0  0  0  0  0  0
  131.8290  132.0530   61.1220 C   0  0  0  0  0  0  0  0  0  0  0  0
  132.5800  131.8190   62.4180 C   0  0  0  0  0  0  0  0  0  0  0  0
  132.4140  131.8040   59.8840 C   0  0  0  0  0  0  0  0  0  0  0  0
  131.6760  132.0380   58.7130 C   0  0  0  0  0  0  0  0  0  0  0  0
  132.3370  131.7530   57.3510 C   0  0  0  0  0  0  0  0  0  0  0  0
  131.6220  130.9200   56.5940 F   0  0  0  0  0  0  0  0  0  0  0  0
  132.4840  132.8900   56.6680 F   0  0  0  0  0  0  0  0  0  0  0  0
  133.5370  131.2010   57.5330 F   0  0  0  0  0  0  0  0  0  0  0  0
  130.3500  132.5280   58.8350 C   0  0  0  0  0  0  0  0  0  0  0  0
  129.5350  132.7930   57.6450 C   0  0  0  0  0  0  0  0  0  0  0  0
  128.8920  133.0020   56.7050 N   0  0  0  0  0  0  0  0  0  0  0  0
  1  2  1  0
  2  3  1  0
  3  4  1  0
  4  5  1  0
  5  6  1  0
  6  7  1  0
  7  8  1  0
  8  9  1  0
  9 10  1  0
 10 11  1  0
 11 12  1  0
 12 13  2  0
 12 14  1  0
 14 15  1  0
 15 16  1  0
 16 17  2  0
 17 18  1  0
 18 19  1  0
 18 20  2  0
 20 21  1  0
 21 22  1  0
 22 23  1  0
 22 24  1  0
 22 25  1  0
 21 26  2  0
 26 27  1  0
 27 28  3  0
 26 16  1  0
M  END
>  <Binding energies>  (26) 
[-4.53]

>  <Ligand effiencies>  (26) 
[-0.15620689655172415]

>  <Interactions>  (26) 
["V-A:ARG:545:CD:4923, H-A:GLY:454:N:4049, H-A:ARG:545:NH1:4927, V-A:ARG:545:CZ:4926, H-A:ARG:545:NE:4924, V-A:GLU:543:CD:4908, H-A:ARG:545:NH2:4928, V-A:GLU:543:CG:4907, H-A:GLU:543:OE1:4909, V-A:ASP:366:CB:3211, V-A:ALA:541:CB:4892, H-A:ALA:541:N:4891, V-A:TYR:539:C:4867, V-A:PRO:540:CA:4883, V-A:TYR:539:CD2:4874, V-A:PRO:540:N:4884, V-A:PRO:540:CB:4885, H-A:TYR:539:N:4870, V-A:TYR:531:CE2:4793, V-A:LEU:363:CD1:3188, V-A:ILE:538:CB:4862, V-A:TYR:531:CZ:4794, V-A:PRO:540:CD:4887, V-A:PRO:540:C:4881, V-A:ASN:362:CB:3175, V-A:LEU:363:CG:3187, V-A:LEU:363:CA:3184"]

$$$$
3aa_Grossjean_2025
     RDKit          3D

 34 36  0  0  0  0  0  0  0  0999 V2000
  128.7400  123.5270   73.2100 C   0  0  0  0  0  0  0  0  0  0  0  0
  129.5150  124.6350   73.9300 C   0  0  0  0  0  0  0  0  0  0  0  0
  128.9160  125.8930   73.6470 O   0  0  0  0  0  0  0  0  0  0  0  0
  129.6240  126.8860   73.0510 C   0  0  0  0  0  0  0  0  0  0  0  0
  130.2640  127.7370   73.6780 O   0  0  0  0  0  0  0  0  0  0  0  0
  129.5400  126.8580   71.5510 C   0  0  0  0  0  0  0  0  0  0  0  0
  128.6900  125.9740   70.8720 C   0  0  0  0  0  0  0  0  0  0  0  0
  128.6320  125.9770   69.4800 C   0  0  0  0  0  0  0  0  0  0  0  0
  129.4150  126.8670   68.7420 C   0  0  0  0  0  0  0  0  0  0  0  0
  129.2790  126.7910   67.3420 N   0  0  0  0  0  0  0  0  0  0  0  0
  128.7640  127.6920   66.4770 C   0  0  0  0  0  0  0  0  0  0  0  0
  128.2800  128.7820   66.7850 O   0  0  0  0  0  0  0  0  0  0  0  0
  128.7920  127.2830   65.0040 C   0  0  0  0  0  0  0  0  0  0  0  0
  130.4850  126.9620   64.4240 S   0  0  0  0  0  0  0  0  0  0  0  0
  130.4530  125.4120   63.5530 C   0  0  0  0  0  0  0  0  0  0  0  0
  129.3020  125.1950   62.8720 N   0  0  0  0  0  0  0  0  0  0  0  0
  129.1450  124.0460   62.1650 C   0  0  0  0  0  0  0  0  0  0  0  0
  127.8500  123.8870   61.4270 C   0  0  0  0  0  0  0  0  0  0  0  0
  127.8160  123.9310   60.0240 C   0  0  0  0  0  0  0  0  0  0  0  0
  126.6170  123.7830   59.3310 C   0  0  0  0  0  0  0  0  0  0  0  0
  125.4330  123.5880   60.0350 C   0  0  0  0  0  0  0  0  0  0  0  0
  125.4400  123.5370   61.4250 C   0  0  0  0  0  0  0  0  0  0  0  0
  126.6410  123.6830   62.1140 C   0  0  0  0  0  0  0  0  0  0  0  0
  130.1590  123.0850   62.1210 C   0  0  0  0  0  0  0  0  0  0  0  0
  131.3530  123.2790   62.8320 C   0  0  0  0  0  0  0  0  0  0  0  0
  132.4420  122.1910   62.7680 C   0  0  0  0  0  0  0  0  0  0  0  0
  133.5890  122.6360   62.2520 F   0  0  0  0  0  0  0  0  0  0  0  0
  132.7070  121.7340   63.9920 F   0  0  0  0  0  0  0  0  0  0  0  0
  132.0260  121.1770   62.0090 F   0  0  0  0  0  0  0  0  0  0  0  0
  131.5060  124.4710   63.5820 C   0  0  0  0  0  0  0  0  0  0  0  0
  132.7070  124.7010   64.3900 C   0  0  0  0  0  0  0  0  0  0  0  0
  133.6550  124.8830   65.0290 N   0  0  0  0  0  0  0  0  0  0  0  0
  130.2780  127.7450   69.4150 C   0  0  0  0  0  0  0  0  0  0  0  0
  130.3350  127.7380   70.8050 C   0  0  0  0  0  0  0  0  0  0  0  0
  1  2  1  0
  2  3  1  0
  3  4  1  0
  4  5  2  0
  4  6  1  0
  6  7  2  0
  7  8  1  0
  8  9  2  0
  9 10  1  0
 10 11  1  0
 11 12  2  0
 11 13  1  0
 13 14  1  0
 14 15  1  0
 15 16  2  0
 16 17  1  0
 17 18  1  0
 18 19  2  0
 19 20  1  0
 20 21  2  0
 21 22  1  0
 22 23  2  0
 17 24  2  0
 24 25  1  0
 25 26  1  0
 26 27  1  0
 26 28  1  0
 26 29  1  0
 25 30  2  0
 30 31  1  0
 31 32  3  0
  9 33  1  0
 33 34  2  0
 34  6  1  0
 30 15  1  0
 23 18  1  0
M  END
>  <Binding energies>  (27) 
[-7.6]

>  <Ligand effiencies>  (27) 
[-0.21714285714285714]

>  <Interactions>  (27) 
["V-B:GLU:543:CD:9879, V-B:PRO:540:CA:9854, H-A:TYR:484:OH:4347, H-A:GLY:454:N:4049, V-B:GLU:543:CG:9878, V-A:HIS:456:CE1:4069, V-B:GLU:543:CB:9877, V-A:ILE:369:CD1:3238, V-B:ALA:541:CB:9863, V-A:GLU:543:CB:4906, V-B:HIS:456:CE1:9041, V-A:GLU:543:CD:4908, V-A:GLY:454:CA:4048, V-A:GLU:543:CG:4907, V-A:LEU:475:CD2:4258, V-A:ILE:369:CG2:3236, V-A:HIS:456:CD2:4067, V-B:PRO:540:CB:9856, H-B:LYS:547:NZ:9922, H-A:LYS:547:NZ:4951, V-B:LYS:547:CE:9921, V-A:LEU:475:CG:4256"]

$$$$
3ad_Grossjean_2025
     RDKit          3D

 29 31  0  0  0  0  0  0  0  0999 V2000
  133.9680  121.0850   61.9170 N   0  0  0  0  0  0  0  0  0  0  0  0
  132.9170  121.4380   61.5850 C   0  0  0  0  0  0  0  0  0  0  0  0
  131.5830  121.8810   61.1660 C   0  0  0  0  0  0  0  0  0  0  0  0
  130.5390  120.9460   60.9670 C   0  0  0  0  0  0  0  0  0  0  0  0
  130.7150  119.4360   61.2170 C   0  0  0  0  0  0  0  0  0  0  0  0
  131.9960  119.0650   61.2690 F   0  0  0  0  0  0  0  0  0  0  0  0
  130.1510  119.0980   62.3780 F   0  0  0  0  0  0  0  0  0  0  0  0
  130.1370  118.7380   60.2370 F   0  0  0  0  0  0  0  0  0  0  0  0
  129.2950  121.4160   60.5200 C   0  0  0  0  0  0  0  0  0  0  0  0
  129.1000  122.7800   60.2760 C   0  0  0  0  0  0  0  0  0  0  0  0
  127.7960  123.3340   59.7830 C   0  0  0  0  0  0  0  0  0  0  0  0
  127.4050  123.1660   58.4460 C   0  0  0  0  0  0  0  0  0  0  0  0
  126.1960  123.6770   57.9820 C   0  0  0  0  0  0  0  0  0  0  0  0
  125.3580  124.3660   58.8540 C   0  0  0  0  0  0  0  0  0  0  0  0
  125.7220  124.5440   60.1840 C   0  0  0  0  0  0  0  0  0  0  0  0
  126.9320  124.0300   60.6440 C   0  0  0  0  0  0  0  0  0  0  0  0
  130.1060  123.6710   60.4620 N   0  0  0  0  0  0  0  0  0  0  0  0
  131.3100  123.2440   60.9120 C   0  0  0  0  0  0  0  0  0  0  0  0
  132.5020  124.5490   61.1100 S   0  0  0  0  0  0  0  0  0  0  0  0
  133.4570  124.1840   62.6130 C   0  0  0  0  0  0  0  0  0  0  0  0
  132.8620  124.8570   63.8530 C   0  0  0  0  0  0  0  0  0  0  0  0
  133.5860  125.0620   64.8280 O   0  0  0  0  0  0  0  0  0  0  0  0
  131.5530  125.1770   63.7660 N   0  0  0  0  0  0  0  0  0  0  0  0
  130.7160  125.8070   64.7050 C   0  0  0  0  0  0  0  0  0  0  0  0
  130.8180  125.3380   66.0190 C   0  0  0  0  0  0  0  0  0  0  0  0
  130.0310  125.8890   67.0260 C   0  0  0  0  0  0  0  0  0  0  0  0
  129.1350  126.9090   66.7200 C   0  0  0  0  0  0  0  0  0  0  0  0
  129.0170  127.3810   65.4160 C   0  0  0  0  0  0  0  0  0  0  0  0
  129.8020  126.8320   64.4050 C   0  0  0  0  0  0  0  0  0  0  0  0
  1  2  3  0
  2  3  1  0
  3  4  2  0
  4  5  1  0
  5  6  1  0
  5  7  1  0
  5  8  1  0
  4  9  1  0
  9 10  2  0
 10 11  1  0
 11 12  2  0
 12 13  1  0
 13 14  2  0
 14 15  1  0
 15 16  2  0
 10 17  1  0
 17 18  2  0
 18 19  1  0
 19 20  1  0
 20 21  1  0
 21 22  2  0
 21 23  1  0
 23 24  1  0
 24 25  2  0
 25 26  1  0
 26 27  2  0
 27 28  1  0
 28 29  2  0
 18  3  1  0
 29 24  1  0
 16 11  1  0
M  END
>  <Binding energies>  (28) 
[-6.96]

>  <Ligand effiencies>  (28) 
[-0.232]

>  <Interactions>  (28) 
["V-B:TYR:539:CD2:9845, V-B:GLU:543:CD:9879, V-B:PRO:540:CA:9854, H-A:TYR:484:OH:4347, V-B:PRO:540:N:9855, H-A:GLY:454:N:4049, V-B:GLU:543:CG:9878, V-A:HIS:456:CE1:4069, V-B:TYR:539:CE2:9847, V-A:ILE:369:CD1:3238, V-B:TYR:539:C:9838, V-B:ALA:541:CB:9863, V-A:GLU:543:CD:4908, V-A:LEU:475:CD2:4258, V-A:PRO:482:CB:4325, V-A:TRP:381:CH2:3371, V-B:ALA:541:CA:9861, V-A:ILE:369:CG2:3236, V-A:PRO:482:CG:4326, V-A:TRP:381:CZ2:3369, V-B:PRO:540:CB:9856, V-A:LEU:475:CD1:4257, V-A:LEU:475:CG:4256, V-B:TYR:539:CG:9843, V-B:TYR:539:CB:9842, V-A:TRP:381:CZ3:3370"]

$$$$
3ai_Grossjean_2025
     RDKit          3D

 28 30  0  0  0  0  0  0  0  0999 V2000
  128.7520  127.2010   74.9090 N   0  0  0  0  0  0  0  0  0  0  0  0
  128.9020  127.0530   73.7710 C   0  0  0  0  0  0  0  0  0  0  0  0
  129.0930  126.8670   72.3300 C   0  0  0  0  0  0  0  0  0  0  0  0
  129.6540  127.8960   71.5340 C   0  0  0  0  0  0  0  0  0  0  0  0
  130.1340  129.2360   72.1260 C   0  0  0  0  0  0  0  0  0  0  0  0
  130.3020  129.1870   73.4490 F   0  0  0  0  0  0  0  0  0  0  0  0
  131.3030  129.5790   71.5840 F   0  0  0  0  0  0  0  0  0  0  0  0
  129.2420  130.1940   71.8730 F   0  0  0  0  0  0  0  0  0  0  0  0
  129.7720  127.6860   70.1520 C   0  0  0  0  0  0  0  0  0  0  0  0
  129.3400  126.4860   69.5790 C   0  0  0  0  0  0  0  0  0  0  0  0
  129.4320  126.2130   68.1080 C   0  0  0  0  0  0  0  0  0  0  0  0
  129.7960  124.9410   67.6370 C   0  0  0  0  0  0  0  0  0  0  0  0
  129.8790  124.6790   66.2720 C   0  0  0  0  0  0  0  0  0  0  0  0
  129.5960  125.6880   65.3570 C   0  0  0  0  0  0  0  0  0  0  0  0
  129.2300  126.9560   65.7980 C   0  0  0  0  0  0  0  0  0  0  0  0
  129.1480  127.2140   67.1630 C   0  0  0  0  0  0  0  0  0  0  0  0
  128.7950  125.5050   70.3440 N   0  0  0  0  0  0  0  0  0  0  0  0
  128.6930  125.6740   71.6840 C   0  0  0  0  0  0  0  0  0  0  0  0
  127.9770  124.2770   72.5230 S   0  0  0  0  0  0  0  0  0  0  0  0
  129.3420  123.2540   73.1730 C   0  0  0  0  0  0  0  0  0  0  0  0
  129.1940  121.7450   72.9300 C   0  0  0  0  0  0  0  0  0  0  0  0
  130.0990  120.9650   73.2390 O   0  0  0  0  0  0  0  0  0  0  0  0
  128.0230  121.3760   72.3650 N   0  0  0  0  0  0  0  0  0  0  0  0
  127.6140  120.0900   72.0380 C   0  0  0  0  0  0  0  0  0  0  0  0
  127.0340  119.2170   72.9580 C   0  0  0  0  0  0  0  0  0  0  0  0
  126.7820  118.0650   72.2500 C   0  0  0  0  0  0  0  0  0  0  0  0
  127.1880  118.2340   70.9690 O   0  0  0  0  0  0  0  0  0  0  0  0
  127.7140  119.5220   70.8470 N   0  0  0  0  0  0  0  0  0  0  0  0
  1  2  3  0
  2  3  1  0
  3  4  2  0
  4  5  1  0
  5  6  1  0
  5  7  1  0
  5  8  1  0
  4  9  1  0
  9 10  2  0
 10 11  1  0
 11 12  2  0
 12 13  1  0
 13 14  2  0
 14 15  1  0
 15 16  2  0
 10 17  1  0
 17 18  2  0
 18 19  1  0
 19 20  1  0
 20 21  1  0
 21 22  2  0
 21 23  1  0
 23 24  1  0
 24 25  1  0
 25 26  2  0
 26 27  1  0
 27 28  1  0
 18  3  1  0
 28 24  2  0
 16 11  1  0
M  END
>  <Binding energies>  (29) 
[-7.29]

>  <Ligand effiencies>  (29) 
[-0.2513793103448276]

>  <Interactions>  (29) 
["V-B:GLU:543:CD:9879, V-B:GLU:543:CG:9878, V-A:HIS:456:CE1:4069, V-B:GLU:543:CB:9877, V-A:GLU:543:CB:4906, V-A:TYR:484:CE1:4344, V-B:HIS:456:CE1:9041, V-A:GLU:543:CD:4908, V-A:TYR:484:CZ:4346, V-B:GLU:543:C:9873, V-A:GLU:543:C:4902, V-A:GLY:544:C:4912, V-A:HIS:456:CD2:4067, H-B:LYS:547:NZ:9922, V-B:HIS:456:CD2:9039, H-B:GLU:543:O:9874, V-A:LYS:547:CE:4950, V-B:GLY:544:CA:9885, V-A:TYR:484:CB:4340, V-A:GLY:544:CA:4914, V-A:TYR:484:CD1:4342, V-A:TYR:484:CG:4341, H-A:TYR:484:N:4339"]

$$$$
3aj_Grossjean_2025
     RDKit          3D

 28 30  0  0  0  0  0  0  0  0999 V2000
  127.4600  129.9280   68.0240 N   0  0  0  0  0  0  0  0  0  0  0  0
  128.0060  129.0300   67.5400 C   0  0  0  0  0  0  0  0  0  0  0  0
  128.6980  127.8940   66.9250 C   0  0  0  0  0  0  0  0  0  0  0  0
  128.6800  127.7100   65.5210 C   0  0  0  0  0  0  0  0  0  0  0  0
  127.9840  128.6950   64.5610 C   0  0  0  0  0  0  0  0  0  0  0  0
  126.6520  128.6470   64.6480 F   0  0  0  0  0  0  0  0  0  0  0  0
  128.3610  129.9430   64.8370 F   0  0  0  0  0  0  0  0  0  0  0  0
  128.3120  128.4120   63.3000 F   0  0  0  0  0  0  0  0  0  0  0  0
  129.3180  126.5800   64.9850 C   0  0  0  0  0  0  0  0  0  0  0  0
  129.9510  125.6590   65.8260 C   0  0  0  0  0  0  0  0  0  0  0  0
  130.6370  124.4320   65.3080 C   0  0  0  0  0  0  0  0  0  0  0  0
  131.9260  124.5110   64.7580 C   0  0  0  0  0  0  0  0  0  0  0  0
  132.5720  123.3740   64.2780 C   0  0  0  0  0  0  0  0  0  0  0  0
  131.9330  122.1400   64.3420 C   0  0  0  0  0  0  0  0  0  0  0  0
  130.6560  122.0350   64.8830 C   0  0  0  0  0  0  0  0  0  0  0  0
  130.0160  123.1740   65.3630 C   0  0  0  0  0  0  0  0  0  0  0  0
  129.9590  125.8360   67.1720 N   0  0  0  0  0  0  0  0  0  0  0  0
  129.3710  126.9310   67.7110 C   0  0  0  0  0  0  0  0  0  0  0  0
  129.5010  127.0060   69.4850 S   0  0  0  0  0  0  0  0  0  0  0  0
  128.1000  126.0720   70.1880 C   0  0  0  0  0  0  0  0  0  0  0  0
  128.2880  125.6140   71.6420 C   0  0  0  0  0  0  0  0  0  0  0  0
  128.0410  126.3750   72.5800 O   0  0  0  0  0  0  0  0  0  0  0  0
  128.7330  124.3450   71.7810 N   0  0  0  0  0  0  0  0  0  0  0  0
  128.9810  123.6800   72.9740 C   0  0  0  0  0  0  0  0  0  0  0  0
  129.1100  124.1980   74.1760 N   0  0  0  0  0  0  0  0  0  0  0  0
  129.3380  123.2690   75.0840 C   0  0  0  0  0  0  0  0  0  0  0  0
  129.3980  121.9580   74.6200 C   0  0  0  0  0  0  0  0  0  0  0  0
  129.1440  121.9540   72.9010 S   0  0  0  0  0  0  0  0  0  0  0  0
  1  2  3  0
  2  3  1  0
  3  4  2  0
  4  5  1  0
  5  6  1  0
  5  7  1  0
  5  8  1  0
  4  9  1  0
  9 10  2  0
 10 11  1  0
 11 12  2  0
 12 13  1  0
 13 14  2  0
 14 15  1  0
 15 16  2  0
 10 17  1  0
 17 18  2  0
 18 19  1  0
 19 20  1  0
 20 21  1  0
 21 22  2  0
 21 23  1  0
 23 24  1  0
 24 25  2  0
 25 26  1  0
 26 27  2  0
 27 28  1  0
 18  3  1  0
 28 24  1  0
 16 11  1  0
M  END
>  <Binding energies>  (30) 
[-6.77]

>  <Ligand effiencies>  (30) 
[-0.23344827586206895]

>  <Interactions>  (30) 
["V-B:GLU:543:CD:9879, V-B:GLU:543:CG:9878, V-A:HIS:456:CE1:4069, V-B:GLU:543:CB:9877, V-B:ALA:541:CB:9863, V-A:GLU:543:CB:4906, V-A:TYR:484:CE1:4344, V-B:HIS:456:CE1:9041, V-A:GLU:543:CD:4908, V-A:GLY:454:CA:4048, V-A:GLU:543:CG:4907, V-A:LEU:475:CD2:4258, V-A:TYR:484:CZ:4346, V-B:GLU:543:C:9873, V-A:HIS:456:CD2:4067, H-B:LYS:547:NZ:9922, V-B:LYS:547:CE:9921, H-B:HIS:456:ND1:9038, V-A:LEU:475:CD1:4257, H-A:HIS:456:NE2:4070, H-B:GLU:543:O:9874, H-B:TYR:484:OH:9319, V-A:TYR:484:CB:4340"]

$$$$
3ak_Grossjean_2025
     RDKit          3D

 33 34  0  0  0  0  0  0  0  0999 V2000
  128.5310  125.7370   72.1390 C   0  0  0  0  0  0  0  0  0  0  0  0
  128.8000  125.8570   73.5270 O   0  0  0  0  0  0  0  0  0  0  0  0
  130.1800  125.7550   73.8460 C   0  0  0  0  0  0  0  0  0  0  0  0
  130.9580  126.8050   73.0430 C   0  0  0  0  0  0  0  0  0  0  0  0
  130.5650  128.1030   73.4750 O   0  0  0  0  0  0  0  0  0  0  0  0
  130.6880  129.1390   72.5040 C   0  0  0  0  0  0  0  0  0  0  0  0
  131.2000  128.6480   71.1370 C   0  0  0  0  0  0  0  0  0  0  0  0
  130.1030  128.1670   70.3720 O   0  0  0  0  0  0  0  0  0  0  0  0
  129.3400  129.1930   69.7510 C   0  0  0  0  0  0  0  0  0  0  0  0
  128.6790  128.6590   68.4670 C   0  0  0  0  0  0  0  0  0  0  0  0
  129.3230  127.4570   67.9330 N   0  0  0  0  0  0  0  0  0  0  0  0
  129.0520  126.1890   68.2960 C   0  0  0  0  0  0  0  0  0  0  0  0
  128.1940  125.9030   69.1310 O   0  0  0  0  0  0  0  0  0  0  0  0
  129.8480  125.0460   67.6420 C   0  0  0  0  0  0  0  0  0  0  0  0
  131.3100  125.5290   66.6520 S   0  0  0  0  0  0  0  0  0  0  0  0
  130.7500  126.2180   65.1010 C   0  0  0  0  0  0  0  0  0  0  0  0
  129.6400  126.9930   65.1710 N   0  0  0  0  0  0  0  0  0  0  0  0
  129.1330  127.5560   64.0450 C   0  0  0  0  0  0  0  0  0  0  0  0
  127.9040  128.3990   64.2140 C   0  0  0  0  0  0  0  0  0  0  0  0
  127.0670  128.6740   63.1220 C   0  0  0  0  0  0  0  0  0  0  0  0
  125.9220  129.4530   63.2750 C   0  0  0  0  0  0  0  0  0  0  0  0
  125.5990  129.9670   64.5250 C   0  0  0  0  0  0  0  0  0  0  0  0
  126.4100  129.7070   65.6240 C   0  0  0  0  0  0  0  0  0  0  0  0
  127.5530  128.9280   65.4690 C   0  0  0  0  0  0  0  0  0  0  0  0
  129.7520  127.3610   62.8050 C   0  0  0  0  0  0  0  0  0  0  0  0
  130.9020  126.5650   62.7050 C   0  0  0  0  0  0  0  0  0  0  0  0
  131.5550  126.3720   61.3220 C   0  0  0  0  0  0  0  0  0  0  0  0
  130.9860  125.3460   60.6890 F   0  0  0  0  0  0  0  0  0  0  0  0
  131.4010  127.4740   60.5860 F   0  0  0  0  0  0  0  0  0  0  0  0
  132.8640  126.1220   61.3980 F   0  0  0  0  0  0  0  0  0  0  0  0
  131.4190  125.9730   63.8830 C   0  0  0  0  0  0  0  0  0  0  0  0
  132.6190  125.1300   63.8380 C   0  0  0  0  0  0  0  0  0  0  0  0
  133.5660  124.4640   63.8040 N   0  0  0  0  0  0  0  0  0  0  0  0
  1  2  1  0
  2  3  1  0
  3  4  1  0
  4  5  1  0
  5  6  1  0
  6  7  1  0
  7  8  1  0
  8  9  1  0
  9 10  1  0
 10 11  1  0
 11 12  1  0
 12 13  2  0
 12 14  1  0
 14 15  1  0
 15 16  1  0
 16 17  2  0
 17 18  1  0
 18 19  1  0
 19 20  2  0
 20 21  1  0
 21 22  2  0
 22 23  1  0
 23 24  2  0
 18 25  2  0
 25 26  1  0
 26 27  1  0
 27 28  1  0
 27 29  1  0
 27 30  1  0
 26 31  2  0
 31 32  1  0
 32 33  3  0
 31 16  1  0
 24 19  1  0
M  END
>  <Binding energies>  (31) 
[-5.65]

>  <Ligand effiencies>  (31) 
[-0.16617647058823531]

>  <Interactions>  (31) 
["V-B:GLU:543:CD:9879, H-A:TYR:484:OH:4347, H-A:GLY:454:N:4049, V-B:GLU:543:CG:9878, V-A:HIS:456:CE1:4069, V-B:GLU:543:CB:9877, V-A:ARG:545:CZ:4926, V-A:GLU:543:CB:4906, V-A:TYR:484:CE1:4344, V-B:HIS:456:CE1:9041, V-A:GLU:543:CD:4908, V-A:GLU:543:CG:4907, V-A:ASP:366:CG:3212, V-A:TYR:484:CZ:4346, H-A:GLU:543:OE2:4910, V-A:HIS:456:CG:4065, V-A:GLY:544:C:4912, V-A:HIS:456:CD2:4067, V-A:ASP:366:CB:3211, H-B:LYS:547:NZ:9922, H-A:LYS:547:NZ:4951, V-B:ARG:545:CZ:9897"]

$$$$
3bk_Grossjean_2025
     RDKit          3D

 30 31  0  0  0  0  0  0  0  0999 V2000
  125.3720  123.6040   61.5940 C   0  0  0  0  0  0  0  0  0  0  0  0
  126.6370  122.9610   61.6210 O   0  0  0  0  0  0  0  0  0  0  0  0
  127.5680  123.5810   62.4990 C   0  0  0  0  0  0  0  0  0  0  0  0
  127.9050  124.9870   61.9840 C   0  0  0  0  0  0  0  0  0  0  0  0
  129.2450  125.3070   62.3320 O   0  0  0  0  0  0  0  0  0  0  0  0
  129.3540  126.3200   63.3230 C   0  0  0  0  0  0  0  0  0  0  0  0
  129.4740  125.6660   64.7050 C   0  0  0  0  0  0  0  0  0  0  0  0
  129.5160  124.2530   64.5560 O   0  0  0  0  0  0  0  0  0  0  0  0
  130.4880  123.6170   65.3750 C   0  0  0  0  0  0  0  0  0  0  0  0
  131.7560  123.3510   64.5510 C   0  0  0  0  0  0  0  0  0  0  0  0
  131.7950  124.1390   63.3180 N   0  0  0  0  0  0  0  0  0  0  0  0
  132.9030  124.6470   62.7510 C   0  0  0  0  0  0  0  0  0  0  0  0
  134.0370  124.4880   63.2040 O   0  0  0  0  0  0  0  0  0  0  0  0
  132.7040  125.4390   61.4560 C   0  0  0  0  0  0  0  0  0  0  0  0
  132.6880  124.3570   59.9920 S   0  0  0  0  0  0  0  0  0  0  0  0
  131.2990  123.2420   60.1090 C   0  0  0  0  0  0  0  0  0  0  0  0
  130.1830  123.6110   59.4300 N   0  0  0  0  0  0  0  0  0  0  0  0
  129.0750  122.8250   59.4640 C   0  0  0  0  0  0  0  0  0  0  0  0
  127.8940  123.2950   58.6700 C   0  0  0  0  0  0  0  0  0  0  0  0
  127.3080  122.4700   57.6970 C   0  0  0  0  0  0  0  0  0  0  0  0
  126.2140  122.9040   56.9520 C   0  0  0  0  0  0  0  0  0  0  0  0
  125.6900  124.1730   57.1710 C   0  0  0  0  0  0  0  0  0  0  0  0
  126.2490  125.0090   58.1320 C   0  0  0  0  0  0  0  0  0  0  0  0
  127.3410  124.5710   58.8760 C   0  0  0  0  0  0  0  0  0  0  0  0
  129.0670  121.6270   60.1890 C   0  0  0  0  0  0  0  0  0  0  0  0
  130.2080  121.2320   60.8960 C   0  0  0  0  0  0  0  0  0  0  0  0
  130.1560  119.9190   61.6750 C   0  0  0  0  0  0  0  0  0  0  0  0
  131.3570  122.0500   60.8630 C   0  0  0  0  0  0  0  0  0  0  0  0
  132.5670  121.6600   61.5920 C   0  0  0  0  0  0  0  0  0  0  0  0
  133.5230  121.3530   62.1680 N   0  0  0  0  0  0  0  0  0  0  0  0
  1  2  1  0
  2  3  1  0
  3  4  1  0
  4  5  1  0
  5  6  1  0
  6  7  1  0
  7  8  1  0
  8  9  1  0
  9 10  1  0
 10 11  1  0
 11 12  1  0
 12 13  2  0
 12 14  1  0
 14 15  1  0
 15 16  1  0
 16 17  2  0
 17 18  1  0
 18 19  1  0
 19 20  2  0
 20 21  1  0
 21 22  2  0
 22 23  1  0
 23 24  2  0
 18 25  2  0
 25 26  1  0
 26 27  1  0
 26 28  2  0
 28 29  1  0
 29 30  3  0
 28 16  1  0
 24 19  1  0
M  END
>  <Binding energies>  (32) 
[-5.99]

>  <Ligand effiencies>  (32) 
[-0.1932258064516129]

>  <Interactions>  (32) 
["V-B:TYR:539:CD2:9845, V-B:GLU:543:CD:9879, V-B:PRO:540:CA:9854, V-B:PRO:540:N:9855, H-A:GLY:454:N:4049, V-B:GLU:543:CG:9878, V-B:TYR:539:CE2:9847, V-B:TYR:539:C:9838, V-B:ALA:541:CB:9863, V-A:TYR:484:CE1:4344, V-A:ASP:366:CG:3212, V-A:LEU:475:CD2:4258, V-A:TYR:484:CZ:4346, V-A:PRO:482:CB:4325, V-A:ILE:369:CG2:3236, H-B:ALA:541:N:9862, V-B:PRO:540:CB:9856, V-B:TYR:539:CZ:9848, V-B:TYR:539:CD1:9844, V-B:TYR:539:CE1:9846, V-B:TYR:539:CG:9843, V-B:ASN:362:CB:8147"]

$$$$
3cb_Grossjean_2025
     RDKit          3D

 30 32  0  0  0  0  0  0  0  0999 V2000
  129.4440  129.6350   73.8920 C   0  0  0  0  0  0  0  0  0  0  0  0
  130.0680  128.3590   73.9070 O   0  0  0  0  0  0  0  0  0  0  0  0
  129.4680  127.2800   73.3410 C   0  0  0  0  0  0  0  0  0  0  0  0
  128.8580  126.4240   73.9890 O   0  0  0  0  0  0  0  0  0  0  0  0
  129.6210  127.2310   71.8480 C   0  0  0  0  0  0  0  0  0  0  0  0
  130.5450  128.0380   71.1680 C   0  0  0  0  0  0  0  0  0  0  0  0
  130.6630  127.9660   69.7830 C   0  0  0  0  0  0  0  0  0  0  0  0
  129.8610  127.0910   69.0480 C   0  0  0  0  0  0  0  0  0  0  0  0
  130.0670  127.0970   67.6540 N   0  0  0  0  0  0  0  0  0  0  0  0
  129.9150  126.1050   66.7500 C   0  0  0  0  0  0  0  0  0  0  0  0
  129.5290  124.9650   67.0120 O   0  0  0  0  0  0  0  0  0  0  0  0
  130.2490  126.5050   65.3040 C   0  0  0  0  0  0  0  0  0  0  0  0
  131.8980  125.9800   64.7220 S   0  0  0  0  0  0  0  0  0  0  0  0
  131.6900  125.1840   63.1430 C   0  0  0  0  0  0  0  0  0  0  0  0
  131.7630  126.0400   62.0940 N   0  0  0  0  0  0  0  0  0  0  0  0
  131.6200  125.5460   60.8440 C   0  0  0  0  0  0  0  0  0  0  0  0
  131.7260  126.5580   59.7190 C   0  0  0  0  0  0  0  0  0  0  0  0
  131.3950  124.1960   60.5920 C   0  0  0  0  0  0  0  0  0  0  0  0
  131.3000  123.2960   61.6610 C   0  0  0  0  0  0  0  0  0  0  0  0
  131.0510  121.8570   61.3390 C   0  0  0  0  0  0  0  0  0  0  0  0
  132.0850  121.0610   60.8300 C   0  0  0  0  0  0  0  0  0  0  0  0
  131.8670  119.7170   60.5370 C   0  0  0  0  0  0  0  0  0  0  0  0
  130.6090  119.1610   60.7570 C   0  0  0  0  0  0  0  0  0  0  0  0
  129.5730  119.9350   61.2690 C   0  0  0  0  0  0  0  0  0  0  0  0
  129.7950  121.2780   61.5630 C   0  0  0  0  0  0  0  0  0  0  0  0
  131.4340  123.8000   62.9810 C   0  0  0  0  0  0  0  0  0  0  0  0
  131.2500  122.9210   64.1400 C   0  0  0  0  0  0  0  0  0  0  0  0
  131.1060  122.2270   65.0540 N   0  0  0  0  0  0  0  0  0  0  0  0
  128.9380  126.2770   69.7210 C   0  0  0  0  0  0  0  0  0  0  0  0
  128.8210  126.3500   71.1070 C   0  0  0  0  0  0  0  0  0  0  0  0
  1  2  1  0
  2  3  1  0
  3  4  2  0
  3  5  1  0
  5  6  2  0
  6  7  1  0
  7  8  2  0
  8  9  1  0
  9 10  1  0
 10 11  2  0
 10 12  1  0
 12 13  1  0
 13 14  1  0
 14 15  2  0
 15 16  1  0
 16 17  1  0
 16 18  2  0
 18 19  1  0
 19 20  1  0
 20 21  2  0
 21 22  1  0
 22 23  2  0
 23 24  1  0
 24 25  2  0
 19 26  2  0
 26 27  1  0
 27 28  3  0
  8 29  1  0
 29 30  2  0
 30  5  1  0
 26 14  1  0
 25 20  1  0
M  END
>  <Binding energies>  (33) 
[-8.24]

>  <Ligand effiencies>  (33) 
[-0.2658064516129032]

>  <Interactions>  (33) 
["V-B:TYR:539:CD2:9845, V-B:GLU:543:CD:9879, H-A:TYR:484:OH:4347, V-B:GLU:543:CG:9878, V-A:HIS:456:CE1:4069, V-B:TYR:539:CE2:9847, V-B:TYR:539:C:9838, V-B:PRO:540:C:9852, V-B:ALA:541:CB:9863, V-A:GLU:543:CB:4906, V-B:HIS:456:CE1:9041, V-A:GLU:543:CD:4908, H-A:ARG:545:NH2:4928, V-A:ASP:366:CG:3212, V-A:LEU:475:CD2:4258, H-A:GLU:543:OE2:4910, H-A:GLU:543:OE1:4909, V-A:PRO:482:CB:4325, V-A:TRP:381:CH2:3371, V-B:ALA:541:CA:9861, V-A:ILE:369:CG2:3236, V-A:PRO:482:CG:4326, V-A:TRP:381:CZ2:3369, V-A:ASP:366:CB:3211, H-B:LYS:547:NZ:9922, H-A:LYS:547:NZ:4951, V-A:LYS:547:CE:4950, V-A:TRP:381:CZ3:3370"]

$$$$
3ch_Grossjean_2025
     RDKit          3D

 32 34  0  0  0  0  0  0  0  0999 V2000
  128.6070  123.1310   73.0070 C   0  0  0  0  0  0  0  0  0  0  0  0
  127.9400  124.3830   72.8810 O   0  0  0  0  0  0  0  0  0  0  0  0
  128.5520  125.4170   72.1960 C   0  0  0  0  0  0  0  0  0  0  0  0
  128.5990  125.5120   70.7960 C   0  0  0  0  0  0  0  0  0  0  0  0
  129.2310  126.5970   70.1700 C   0  0  0  0  0  0  0  0  0  0  0  0
  129.3250  126.7810   68.7770 N   0  0  0  0  0  0  0  0  0  0  0  0
  129.4310  125.8640   67.7910 C   0  0  0  0  0  0  0  0  0  0  0  0
  129.4530  124.6430   67.9500 O   0  0  0  0  0  0  0  0  0  0  0  0
  129.4860  126.4260   66.3710 C   0  0  0  0  0  0  0  0  0  0  0  0
  130.9410  125.8390   65.4550 S   0  0  0  0  0  0  0  0  0  0  0  0
  130.3130  125.0200   64.0040 C   0  0  0  0  0  0  0  0  0  0  0  0
  129.3080  125.6890   63.3870 N   0  0  0  0  0  0  0  0  0  0  0  0
  128.7570  125.1460   62.2780 C   0  0  0  0  0  0  0  0  0  0  0  0
  127.6350  125.9430   61.6410 C   0  0  0  0  0  0  0  0  0  0  0  0
  129.1790  123.9290   61.7480 C   0  0  0  0  0  0  0  0  0  0  0  0
  130.2220  123.2260   62.3680 C   0  0  0  0  0  0  0  0  0  0  0  0
  130.6350  121.9200   61.7700 C   0  0  0  0  0  0  0  0  0  0  0  0
  129.7050  120.8820   61.6380 C   0  0  0  0  0  0  0  0  0  0  0  0
  130.0850  119.6590   61.0900 C   0  0  0  0  0  0  0  0  0  0  0  0
  131.4000  119.4690   60.6730 C   0  0  0  0  0  0  0  0  0  0  0  0
  132.3380  120.4890   60.8030 C   0  0  0  0  0  0  0  0  0  0  0  0
  131.9550  121.7110   61.3530 C   0  0  0  0  0  0  0  0  0  0  0  0
  130.8240  123.7920   63.5210 C   0  0  0  0  0  0  0  0  0  0  0  0
  131.9790  123.1490   64.1540 C   0  0  0  0  0  0  0  0  0  0  0  0
  132.8900  122.6400   64.6550 N   0  0  0  0  0  0  0  0  0  0  0  0
  129.8340  127.5790   70.9580 C   0  0  0  0  0  0  0  0  0  0  0  0
  129.8020  127.5050   72.3590 C   0  0  0  0  0  0  0  0  0  0  0  0
  130.3730  128.4480   73.1960 O   0  0  0  0  0  0  0  0  0  0  0  0
  130.1950  129.8320   72.9160 C   0  0  0  0  0  0  0  0  0  0  0  0
  129.1600  126.4180   72.9650 C   0  0  0  0  0  0  0  0  0  0  0  0
  129.1060  126.3420   74.3370 O   0  0  0  0  0  0  0  0  0  0  0  0
  130.2710  125.7900   74.9330 C   0  0  0  0  0  0  0  0  0  0  0  0
  1  2  1  0
  2  3  1  0
  3  4  2  0
  4  5  1  0
  5  6  1  0
  6  7  1  0
  7  8  2  0
  7  9  1  0
  9 10  1  0
 10 11  1  0
 11 12  2  0
 12 13  1  0
 13 14  1  0
 13 15  2  0
 15 16  1  0
 16 17  1  0
 17 18  2  0
 18 19  1  0
 19 20  2  0
 20 21  1  0
 21 22  2  0
 16 23  2  0
 23 24  1  0
 24 25  3  0
  5 26  2  0
 26 27  1  0
 27 28  1  0
 28 29  1  0
 27 30  2  0
 30 31  1  0
 31 32  1  0
 30  3  1  0
 23 11  1  0
 22 17  1  0
M  END
>  <Binding energies>  (34) 
[-7.65]

>  <Ligand effiencies>  (34) 
[-0.23181818181818184]

>  <Interactions>  (34) 
["V-B:TYR:539:CD2:9845, V-B:GLU:543:CD:9879, H-A:TYR:484:OH:4347, H-A:GLY:454:N:4049, V-B:GLU:543:CG:9878, V-A:HIS:456:CE1:4069, V-B:TYR:539:CE2:9847, V-B:GLU:543:CB:9877, V-B:ALA:541:CB:9863, V-B:HIS:456:CE1:9041, V-A:GLU:543:CD:4908, V-A:LEU:475:CD2:4258, H-A:GLU:543:OE2:4910, V-B:GLU:543:C:9873, V-A:PRO:482:CB:4325, V-A:TRP:381:CH2:3371, V-B:ALA:541:CA:9861, V-A:ILE:369:CG2:3236, V-A:PRO:482:CG:4326, V-A:TRP:381:CZ2:3369, V-A:HIS:456:CD2:4067, H-B:LYS:547:NZ:9922, H-A:LYS:547:NZ:4951, V-B:LYS:547:CE:9921, V-A:TRP:381:CZ3:3370"]

$$$$
3ci_Grossjean_2025
     RDKit          3D

 25 27  0  0  0  0  0  0  0  0999 V2000
  127.4570  130.5560   65.1570 C   0  0  0  0  0  0  0  0  0  0  0  0
  128.0690  129.2180   65.5260 C   0  0  0  0  0  0  0  0  0  0  0  0
  128.2760  128.8500   66.8520 C   0  0  0  0  0  0  0  0  0  0  0  0
  128.8300  127.5950   67.1440 C   0  0  0  0  0  0  0  0  0  0  0  0
  129.0200  127.2370   68.5810 C   0  0  0  0  0  0  0  0  0  0  0  0
  128.2640  126.2150   69.1710 C   0  0  0  0  0  0  0  0  0  0  0  0
  128.4390  125.8910   70.5140 C   0  0  0  0  0  0  0  0  0  0  0  0
  129.3690  126.5920   71.2760 C   0  0  0  0  0  0  0  0  0  0  0  0
  130.1220  127.6170   70.7070 C   0  0  0  0  0  0  0  0  0  0  0  0
  129.9440  127.9380   69.3640 C   0  0  0  0  0  0  0  0  0  0  0  0
  129.1720  126.7420   66.0640 C   0  0  0  0  0  0  0  0  0  0  0  0
  129.7940  125.4360   66.3060 C   0  0  0  0  0  0  0  0  0  0  0  0
  130.2840  124.4050   66.4990 N   0  0  0  0  0  0  0  0  0  0  0  0
  128.9230  127.1930   64.7450 C   0  0  0  0  0  0  0  0  0  0  0  0
  129.2950  126.1920   63.3110 S   0  0  0  0  0  0  0  0  0  0  0  0
  130.9620  126.6020   62.6990 C   0  0  0  0  0  0  0  0  0  0  0  0
  132.0840  125.8930   63.4660 C   0  0  0  0  0  0  0  0  0  0  0  0
  132.7240  125.0000   62.9070 O   0  0  0  0  0  0  0  0  0  0  0  0
  132.2770  126.3060   64.7380 N   0  0  0  0  0  0  0  0  0  0  0  0
  133.2360  125.8520   65.6330 C   0  0  0  0  0  0  0  0  0  0  0  0
  133.0600  125.8820   67.0160 C   0  0  0  0  0  0  0  0  0  0  0  0
  134.2220  125.3560   67.5360 C   0  0  0  0  0  0  0  0  0  0  0  0
  135.0520  125.0260   66.5180 O   0  0  0  0  0  0  0  0  0  0  0  0
  134.4170  125.3460   65.3170 N   0  0  0  0  0  0  0  0  0  0  0  0
  128.3870  128.4130   64.4880 N   0  0  0  0  0  0  0  0  0  0  0  0
  1  2  1  0
  2  3  2  0
  3  4  1  0
  4  5  1  0
  5  6  2  0
  6  7  1  0
  7  8  2  0
  8  9  1  0
  9 10  2  0
  4 11  2  0
 11 12  1  0
 12 13  3  0
 11 14  1  0
 14 15  1  0
 15 16  1  0
 16 17  1  0
 17 18  2  0
 17 19  1  0
 19 20  1  0
 20 21  1  0
 21 22  2  0
 22 23  1  0
 23 24  1  0
 14 25  2  0
 25  2  1  0
 10  5  1  0
 24 20  2  0
M  END
>  <Binding energies>  (35) 
[-7.09]

>  <Ligand effiencies>  (35) 
[-0.2726923076923077]

>  <Interactions>  (35) 
["V-A:ARG:545:CD:4923, V-B:GLU:543:CD:9879, H-A:TYR:484:OH:4347, H-A:GLY:454:N:4049, V-B:GLU:543:CG:9878, V-A:HIS:456:CE1:4069, H-A:ARG:545:NH1:4927, V-B:GLU:543:CB:9877, V-A:ARG:545:CZ:4926, V-A:ARG:545:CG:4922, H-A:ARG:545:NE:4924, V-A:GLU:543:CB:4906, V-B:HIS:456:CE1:9041, V-A:GLU:543:CD:4908, V-A:GLU:543:CG:4907, H-A:GLU:543:OE2:4910, H-A:GLU:543:OE1:4909, V-A:HIS:456:CD2:4067, H-A:ILE:455:N:4054, V-A:ILE:455:C:4051, V-A:ARG:545:CB:4921"]

$$$$
3ck_Grossjean_2025
     RDKit          3D

 30 31  0  0  0  0  0  0  0  0999 V2000
  133.6440  124.9590   62.8030 C   0  0  0  0  0  0  0  0  0  0  0  0
  134.1040  125.0970   64.1380 O   0  0  0  0  0  0  0  0  0  0  0  0
  133.1830  124.6150   65.1070 C   0  0  0  0  0  0  0  0  0  0  0  0
  133.2780  125.4710   66.3760 C   0  0  0  0  0  0  0  0  0  0  0  0
  132.0040  126.0340   66.6610 O   0  0  0  0  0  0  0  0  0  0  0  0
  130.9180  125.1450   66.4380 C   0  0  0  0  0  0  0  0  0  0  0  0
  129.6200  125.9560   66.3290 C   0  0  0  0  0  0  0  0  0  0  0  0
  129.3820  126.2370   64.9580 O   0  0  0  0  0  0  0  0  0  0  0  0
  130.5330  126.1820   64.1290 C   0  0  0  0  0  0  0  0  0  0  0  0
  130.1190  126.3710   62.6580 C   0  0  0  0  0  0  0  0  0  0  0  0
  128.6700  126.3050   62.4390 N   0  0  0  0  0  0  0  0  0  0  0  0
  128.0110  126.8290   61.3900 C   0  0  0  0  0  0  0  0  0  0  0  0
  128.5730  127.4130   60.4620 O   0  0  0  0  0  0  0  0  0  0  0  0
  126.4850  126.6480   61.4110 C   0  0  0  0  0  0  0  0  0  0  0  0
  125.9020  124.9320   61.6350 S   0  0  0  0  0  0  0  0  0  0  0  0
  126.8590  123.8480   60.5860 C   0  0  0  0  0  0  0  0  0  0  0  0
  126.3830  123.6820   59.3260 N   0  0  0  0  0  0  0  0  0  0  0  0
  127.0560  122.8710   58.4790 C   0  0  0  0  0  0  0  0  0  0  0  0
  126.4630  122.7330   57.0900 C   0  0  0  0  0  0  0  0  0  0  0  0
  128.2170  122.1980   58.8470 C   0  0  0  0  0  0  0  0  0  0  0  0
  128.7240  122.3490   60.1450 C   0  0  0  0  0  0  0  0  0  0  0  0
  129.9590  121.5900   60.5030 C   0  0  0  0  0  0  0  0  0  0  0  0
  129.8830  120.2240   60.8010 C   0  0  0  0  0  0  0  0  0  0  0  0
  131.0300  119.5120   61.1460 C   0  0  0  0  0  0  0  0  0  0  0  0
  132.2570  120.1660   61.2000 C   0  0  0  0  0  0  0  0  0  0  0  0
  132.3470  121.5260   60.9150 C   0  0  0  0  0  0  0  0  0  0  0  0
  131.2000  122.2350   60.5700 C   0  0  0  0  0  0  0  0  0  0  0  0
  128.0350  123.2070   61.0410 C   0  0  0  0  0  0  0  0  0  0  0  0
  128.5410  123.4370   62.3990 C   0  0  0  0  0  0  0  0  0  0  0  0
  128.9420  123.6180   63.4700 N   0  0  0  0  0  0  0  0  0  0  0  0
  1  2  1  0
  2  3  1  0
  3  4  1  0
  4  5  1  0
  5  6  1  0
  6  7  1  0
  7  8  1  0
  8  9  1  0
  9 10  1  0
 10 11  1  0
 11 12  1  0
 12 13  2  0
 12 14  1  0
 14 15  1  0
 15 16  1  0
 16 17  2  0
 17 18  1  0
 18 19  1  0
 18 20  2  0
 20 21  1  0
 21 22  1  0
 22 23  2  0
 23 24  1  0
 24 25  2  0
 25 26  1  0
 26 27  2  0
 21 28  2  0
 28 29  1  0
 29 30  3  0
 28 16  1  0
 27 22  1  0
M  END
>  <Binding energies>  (36) 
[-5.34]

>  <Ligand effiencies>  (36) 
[-0.17225806451612902]

>  <Interactions>  (36) 
["V-B:TYR:539:CD2:9845, V-A:ARG:545:CD:4923, V-B:GLU:543:CD:9879, V-B:PRO:540:CA:9854, H-A:TYR:484:OH:4347, V-B:PRO:540:N:9855, H-A:GLY:454:N:4049, V-B:GLU:543:CG:9878, V-A:HIS:456:CE1:4069, H-A:ARG:545:NH1:4927, V-B:TYR:539:CE2:9847, V-B:GLU:543:CB:9877, V-A:ILE:369:CD1:3238, V-B:TYR:539:C:9838, V-A:ARG:545:CZ:4926, V-A:ARG:545:CG:4922, H-A:ARG:545:NE:4924, V-B:ALA:541:CB:9863, H-A:ARG:545:NH2:4928, V-A:GLY:454:CA:4048, V-A:LEU:475:CD2:4258, V-A:TYR:484:CZ:4346, V-A:PRO:482:CB:4325, V-A:TRP:381:CH2:3371, V-A:ILE:369:CG2:3236, V-A:TRP:381:CZ2:3369, H-B:GLU:543:OE2:9881, V-B:PRO:540:CB:9856, V-B:TYR:539:CZ:9848, H-B:ARG:545:NH2:9899, V-B:PRO:540:CD:9858, V-B:TYR:539:CG:9843, V-B:ASP:366:CG:8184"]

$$$$
4aa_Grossjean_2025
     RDKit          3D

 26 28  0  0  0  0  0  0  0  0999 V2000
  127.3380  132.1350   73.3130 C   0  0  0  0  0  0  0  0  0  0  0  0
  128.7370  131.8940   72.7380 C   0  0  0  0  0  0  0  0  0  0  0  0
  128.7570  130.6500   72.0500 O   0  0  0  0  0  0  0  0  0  0  0  0
  129.7260  129.7300   72.2920 C   0  0  0  0  0  0  0  0  0  0  0  0
  130.2530  129.5720   73.3990 O   0  0  0  0  0  0  0  0  0  0  0  0
  130.0960  128.9240   71.0810 C   0  0  0  0  0  0  0  0  0  0  0  0
  129.1130  128.1560   70.4440 C   0  0  0  0  0  0  0  0  0  0  0  0
  129.4260  127.3940   69.3210 C   0  0  0  0  0  0  0  0  0  0  0  0
  130.7230  127.3920   68.8070 C   0  0  0  0  0  0  0  0  0  0  0  0
  130.9310  126.5810   67.6750 N   0  0  0  0  0  0  0  0  0  0  0  0
  130.3110  125.4380   67.2930 C   0  0  0  0  0  0  0  0  0  0  0  0
  129.4350  124.8740   67.9500 O   0  0  0  0  0  0  0  0  0  0  0  0
  130.7690  124.8730   66.0230 C   0  0  0  0  0  0  0  0  0  0  0  0
  129.8370  123.6030   65.2260 S   0  0  0  0  0  0  0  0  0  0  0  0
  131.0080  123.4910   63.9320 C   0  0  0  0  0  0  0  0  0  0  0  0
  130.8620  122.6330   62.9210 N   0  0  0  0  0  0  0  0  0  0  0  0
  131.8440  122.6440   61.9860 C   0  0  0  0  0  0  0  0  0  0  0  0
  131.6610  121.6580   60.8460 C   0  0  0  0  0  0  0  0  0  0  0  0
  132.9530  123.4860   62.0360 C   0  0  0  0  0  0  0  0  0  0  0  0
  133.1020  124.3850   63.0970 C   0  0  0  0  0  0  0  0  0  0  0  0
  134.3300  125.2830   63.1080 C   0  0  0  0  0  0  0  0  0  0  0  0
  132.0950  124.4000   64.1000 C   0  0  0  0  0  0  0  0  0  0  0  0
  131.9360  125.1730   65.3030 C   0  0  0  0  0  0  0  0  0  0  0  0
  132.8530  126.1170   65.6920 N   0  0  0  0  0  0  0  0  0  0  0  0
  131.7160  128.1540   69.4410 C   0  0  0  0  0  0  0  0  0  0  0  0
  131.4020  128.9120   70.5660 C   0  0  0  0  0  0  0  0  0  0  0  0
  1  2  1  0
  2  3  1  0
  3  4  1  0
  4  5  2  0
  4  6  1  0
  6  7  2  0
  7  8  1  0
  8  9  2  0
  9 10  1  0
 10 11  1  0
 11 12  2  0
 11 13  1  0
 13 14  1  0
 14 15  1  0
 15 16  2  0
 16 17  1  0
 17 18  1  0
 17 19  2  0
 19 20  1  0
 20 21  1  0
 20 22  2  0
 22 23  1  0
 23 24  1  0
  9 25  1  0
 25 26  2  0
 26  6  1  0
 23 13  2  0
 22 15  1  0
M  END
>  <Binding energies>  (37) 
[-6.96]

>  <Ligand effiencies>  (37) 
[-0.24]

>  <Interactions>  (37) 
["V-B:TYR:539:CD2:9845, V-A:ARG:545:CD:4923, H-A:TYR:484:OH:4347, V-B:GLU:543:CG:9878, V-A:HIS:456:CE1:4069, V-B:TYR:539:CE2:9847, V-A:ILE:369:CD1:3238, V-A:ARG:545:CZ:4926, V-A:ARG:545:CG:4922, V-A:GLU:543:CB:4906, V-A:TYR:484:CE1:4344, V-B:HIS:456:CE1:9041, V-A:GLU:543:CD:4908, V-A:ASP:366:CG:3212, V-A:TYR:484:CZ:4346, H-A:GLU:543:OE2:4910, H-A:GLU:543:OE1:4909, V-A:GLU:543:C:4902, V-A:ILE:369:CG2:3236, V-A:GLY:544:C:4912, V-A:ARG:545:CA:4919, V-A:GLY:453:CA:4043, H-A:LYS:547:NZ:4951, V-B:TYR:484:CD1:9314, V-B:HIS:456:CG:9037, V-B:TYR:484:CE1:9316, V-B:TYR:484:CG:9313, V-B:HIS:456:CB:9036, H-B:HIS:456:ND1:9038, V-A:GLY:453:C:4041, V-B:TYR:484:CD2:9315"]

$$$$
4ab_Grossjean_2025
     RDKit          3D

 25 27  0  0  0  0  0  0  0  0999 V2000
  128.4040  131.5690   72.9930 C   0  0  0  0  0  0  0  0  0  0  0  0
  128.8380  130.6770   71.9770 O   0  0  0  0  0  0  0  0  0  0  0  0
  129.7610  129.7160   72.2370 C   0  0  0  0  0  0  0  0  0  0  0  0
  130.2550  129.5320   73.3540 O   0  0  0  0  0  0  0  0  0  0  0  0
  130.1260  128.9020   71.0300 C   0  0  0  0  0  0  0  0  0  0  0  0
  129.1350  128.1450   70.3910 C   0  0  0  0  0  0  0  0  0  0  0  0
  129.4430  127.3780   69.2700 C   0  0  0  0  0  0  0  0  0  0  0  0
  130.7410  127.3590   68.7610 C   0  0  0  0  0  0  0  0  0  0  0  0
  130.9410  126.5440   67.6300 N   0  0  0  0  0  0  0  0  0  0  0  0
  130.3330  125.3880   67.2670 C   0  0  0  0  0  0  0  0  0  0  0  0
  129.4780  124.8140   67.9420 O   0  0  0  0  0  0  0  0  0  0  0  0
  130.7780  124.8220   65.9920 C   0  0  0  0  0  0  0  0  0  0  0  0
  129.8130  123.5860   65.1820 S   0  0  0  0  0  0  0  0  0  0  0  0
  130.9830  123.4540   63.8880 C   0  0  0  0  0  0  0  0  0  0  0  0
  130.8170  122.6090   62.8700 N   0  0  0  0  0  0  0  0  0  0  0  0
  131.7990  122.6030   61.9350 C   0  0  0  0  0  0  0  0  0  0  0  0
  131.5930  121.6320   60.7880 C   0  0  0  0  0  0  0  0  0  0  0  0
  132.9290  123.4150   61.9930 C   0  0  0  0  0  0  0  0  0  0  0  0
  133.1010  124.3000   63.0640 C   0  0  0  0  0  0  0  0  0  0  0  0
  134.3520  125.1640   63.0830 C   0  0  0  0  0  0  0  0  0  0  0  0
  132.0940  124.3320   64.0660 C   0  0  0  0  0  0  0  0  0  0  0  0
  131.9540  125.0960   65.2770 C   0  0  0  0  0  0  0  0  0  0  0  0
  132.8960  126.0100   65.6780 N   0  0  0  0  0  0  0  0  0  0  0  0
  131.7410  128.1090   69.3970 C   0  0  0  0  0  0  0  0  0  0  0  0
  131.4320  128.8730   70.5190 C   0  0  0  0  0  0  0  0  0  0  0  0
  1  2  1  0
  2  3  1  0
  3  4  2  0
  3  5  1  0
  5  6  2  0
  6  7  1  0
  7  8  2  0
  8  9  1  0
  9 10  1  0
 10 11  2  0
 10 12  1  0
 12 13  1  0
 13 14  1  0
 14 15  2  0
 15 16  1  0
 16 17  1  0
 16 18  2  0
 18 19  1  0
 19 20  1  0
 19 21  2  0
 21 22  1  0
 22 23  1  0
  8 24  1  0
 24 25  2  0
 25  5  1  0
 22 12  2  0
 21 14  1  0
M  END
>  <Binding energies>  (38) 
[-6.77]

>  <Ligand effiencies>  (38) 
[-0.24178571428571427]

>  <Interactions>  (38) 
["V-B:TYR:539:CD2:9845, V-A:ARG:545:CD:4923, H-A:TYR:484:OH:4347, V-B:GLU:543:CG:9878, V-A:HIS:456:CE1:4069, V-B:TYR:539:CE2:9847, V-A:ILE:369:CD1:3238, V-A:ARG:545:CZ:4926, V-A:ARG:545:CG:4922, V-A:GLU:543:CB:4906, V-A:TYR:484:CE1:4344, V-B:HIS:456:CE1:9041, V-A:GLU:543:CD:4908, V-A:ASP:366:CG:3212, V-A:TYR:484:CZ:4346, H-A:GLU:543:OE2:4910, H-A:GLU:543:OE1:4909, V-A:GLU:543:C:4902, V-A:ILE:369:CG2:3236, V-A:GLY:544:C:4912, V-A:ARG:545:CA:4919, V-A:GLY:453:CA:4043, H-A:LYS:547:NZ:4951, V-B:TYR:484:CD1:9314, V-B:HIS:456:CG:9037, V-A:GLY:453:C:4041"]

$$$$
4ac_Grossjean_2025
     RDKit          3D

 23 25  0  0  0  0  0  0  0  0999 V2000
  129.2860  129.6950   74.3490 C   0  0  0  0  0  0  0  0  0  0  0  0
  130.2290  128.7360   73.8810 O   0  0  0  0  0  0  0  0  0  0  0  0
  130.2150  128.3700   72.5500 C   0  0  0  0  0  0  0  0  0  0  0  0
  131.2710  128.8320   71.7660 C   0  0  0  0  0  0  0  0  0  0  0  0
  131.3420  128.5130   70.4120 C   0  0  0  0  0  0  0  0  0  0  0  0
  130.3570  127.7170   69.8260 C   0  0  0  0  0  0  0  0  0  0  0  0
  130.5040  127.4580   68.4500 N   0  0  0  0  0  0  0  0  0  0  0  0
  129.8670  126.5470   67.6770 C   0  0  0  0  0  0  0  0  0  0  0  0
  129.0380  125.7400   68.1030 O   0  0  0  0  0  0  0  0  0  0  0  0
  130.2320  126.5630   66.2580 C   0  0  0  0  0  0  0  0  0  0  0  0
  129.1770  127.3360   65.0740 S   0  0  0  0  0  0  0  0  0  0  0  0
  130.2640  126.9250   63.7660 C   0  0  0  0  0  0  0  0  0  0  0  0
  130.0070  127.2630   62.5020 N   0  0  0  0  0  0  0  0  0  0  0  0
  130.9300  126.8840   61.5860 C   0  0  0  0  0  0  0  0  0  0  0  0
  130.6200  127.2780   60.1540 C   0  0  0  0  0  0  0  0  0  0  0  0
  132.0920  126.1800   61.9000 C   0  0  0  0  0  0  0  0  0  0  0  0
  132.3580  125.8270   63.2280 C   0  0  0  0  0  0  0  0  0  0  0  0
  133.6380  125.0600   63.5210 C   0  0  0  0  0  0  0  0  0  0  0  0
  131.4130  126.2100   64.2170 C   0  0  0  0  0  0  0  0  0  0  0  0
  131.3710  126.0180   65.6420 C   0  0  0  0  0  0  0  0  0  0  0  0
  132.3630  125.3580   66.3220 N   0  0  0  0  0  0  0  0  0  0  0  0
  129.2850  127.2580   70.6040 C   0  0  0  0  0  0  0  0  0  0  0  0
  129.2170  127.5800   71.9580 C   0  0  0  0  0  0  0  0  0  0  0  0
  1  2  1  0
  2  3  1  0
  3  4  2  0
  4  5  1  0
  5  6  2  0
  6  7  1  0
  7  8  1  0
  8  9  2  0
  8 10  1  0
 10 11  1  0
 11 12  1  0
 12 13  2  0
 13 14  1  0
 14 15  1  0
 14 16  2  0
 16 17  1  0
 17 18  1  0
 17 19  2  0
 19 20  1  0
 20 21  1  0
  6 22  1  0
 22 23  2  0
 23  3  1  0
 20 10  2  0
 19 12  1  0
M  END
>  <Binding energies>  (39) 
[-6.25]

>  <Ligand effiencies>  (39) 
[-0.2403846153846154]

>  <Interactions>  (39) 
["V-B:GLU:543:CD:9879, H-A:TYR:484:OH:4347, V-A:HIS:456:CE1:4069, V-A:ARG:545:CZ:4926, V-A:GLU:543:CB:4906, V-B:HIS:456:CE1:9041, V-A:GLU:543:CD:4908, V-A:ASP:366:CG:3212, H-A:GLU:543:OE2:4910, V-A:GLY:544:C:4912, V-A:ARG:545:CA:4919, H-A:LYS:547:NZ:4951, V-B:HIS:456:CD2:9039, V-A:LYS:547:CE:4950"]

$$$$
4ad_Grossjean_2025
     RDKit          3D

 21 23  0  0  0  0  0  0  0  0999 V2000
  134.3900  125.1240   66.1330 C   0  0  0  0  0  0  0  0  0  0  0  0
  133.0650  124.9430   65.4170 C   0  0  0  0  0  0  0  0  0  0  0  0
  131.9120  125.5840   65.8660 C   0  0  0  0  0  0  0  0  0  0  0  0
  130.7000  125.4000   65.1910 C   0  0  0  0  0  0  0  0  0  0  0  0
  129.4680  126.1190   65.7200 C   0  0  0  0  0  0  0  0  0  0  0  0
  130.6980  124.5490   64.0520 C   0  0  0  0  0  0  0  0  0  0  0  0
  129.6580  124.1470   63.1440 C   0  0  0  0  0  0  0  0  0  0  0  0
  128.3650  124.5910   63.2700 N   0  0  0  0  0  0  0  0  0  0  0  0
  130.0880  123.2700   62.1350 C   0  0  0  0  0  0  0  0  0  0  0  0
  129.3010  122.6560   61.0650 C   0  0  0  0  0  0  0  0  0  0  0  0
  129.4110  121.4540   60.8150 O   0  0  0  0  0  0  0  0  0  0  0  0
  128.4630  123.4940   60.4060 N   0  0  0  0  0  0  0  0  0  0  0  0
  127.6120  123.2330   59.3140 C   0  0  0  0  0  0  0  0  0  0  0  0
  126.3380  123.8040   59.3830 C   0  0  0  0  0  0  0  0  0  0  0  0
  125.4270  123.6130   58.3470 C   0  0  0  0  0  0  0  0  0  0  0  0
  125.7920  122.8570   57.2370 C   0  0  0  0  0  0  0  0  0  0  0  0
  127.0640  122.2950   57.1500 C   0  0  0  0  0  0  0  0  0  0  0  0
  127.9760  122.4830   58.1840 C   0  0  0  0  0  0  0  0  0  0  0  0
  131.8120  122.9250   62.2860 S   0  0  0  0  0  0  0  0  0  0  0  0
  131.9440  123.9510   63.6960 C   0  0  0  0  0  0  0  0  0  0  0  0
  133.1000  124.1250   64.3370 N   0  0  0  0  0  0  0  0  0  0  0  0
  1  2  1  0
  2  3  2  0
  3  4  1  0
  4  5  1  0
  4  6  2  0
  6  7  1  0
  7  8  1  0
  7  9  2  0
  9 10  1  0
 10 11  2  0
 10 12  1  0
 12 13  1  0
 13 14  2  0
 14 15  1  0
 15 16  2  0
 16 17  1  0
 17 18  2  0
  9 19  1  0
 19 20  1  0
 20 21  2  0
 21  2  1  0
 20  6  1  0
 18 13  1  0
M  END
>  <Binding energies>  (40) 
[-6.57]

>  <Ligand effiencies>  (40) 
[-0.27375]

>  <Interactions>  (40) 
["V-B:TYR:539:CD2:9845, V-A:ARG:545:CD:4923, V-B:GLU:543:CD:9879, V-B:PRO:540:CA:9854, H-A:TYR:484:OH:4347, V-B:PRO:540:N:9855, H-A:GLY:454:N:4049, V-B:GLU:543:CG:9878, V-A:HIS:456:CE1:4069, V-B:TYR:539:CE2:9847, V-B:TYR:539:C:9838, V-A:ARG:545:CZ:4926, V-B:ALA:541:CB:9863, V-A:GLY:454:CA:4048, H-B:ALA:541:N:9862, V-A:GLY:453:CA:4043, H-B:GLU:543:OE2:9881, V-B:PRO:540:CB:9856, V-B:TYR:539:CZ:9848, V-B:PRO:540:CD:9858, V-A:GLY:453:C:4041, V-B:TYR:539:CD1:9844, V-B:TYR:539:CE1:9846, V-B:TYR:539:CG:9843, V-B:TYR:539:CA:9840"]

$$$$
4ae_Grossjean_2025
     RDKit          3D

 22 24  0  0  0  0  0  0  0  0999 V2000
  131.5010  128.6160   71.8040 C   0  0  0  0  0  0  0  0  0  0  0  0
  130.6240  128.5690   70.5690 C   0  0  0  0  0  0  0  0  0  0  0  0
  129.4920  129.3790   70.4440 C   0  0  0  0  0  0  0  0  0  0  0  0
  128.7280  129.2770   69.2820 C   0  0  0  0  0  0  0  0  0  0  0  0
  129.1060  128.3750   68.2840 C   0  0  0  0  0  0  0  0  0  0  0  0
  130.2560  127.5990   68.4700 C   0  0  0  0  0  0  0  0  0  0  0  0
  130.5740  126.6970   67.4400 N   0  0  0  0  0  0  0  0  0  0  0  0
  130.1480  125.4200   67.2690 C   0  0  0  0  0  0  0  0  0  0  0  0
  129.3830  124.8430   68.0440 O   0  0  0  0  0  0  0  0  0  0  0  0
  130.6650  124.7410   66.0790 C   0  0  0  0  0  0  0  0  0  0  0  0
  129.8560  123.3040   65.4520 S   0  0  0  0  0  0  0  0  0  0  0  0
  131.0400  123.1340   64.1770 C   0  0  0  0  0  0  0  0  0  0  0  0
  130.9810  122.1450   63.2860 N   0  0  0  0  0  0  0  0  0  0  0  0
  131.9630  122.1230   62.3540 C   0  0  0  0  0  0  0  0  0  0  0  0
  131.8800  120.9850   61.3530 C   0  0  0  0  0  0  0  0  0  0  0  0
  132.9930  123.0610   62.2900 C   0  0  0  0  0  0  0  0  0  0  0  0
  133.0520  124.0990   63.2270 C   0  0  0  0  0  0  0  0  0  0  0  0
  134.1960  125.0960   63.1200 C   0  0  0  0  0  0  0  0  0  0  0  0
  132.0380  124.1530   64.2230 C   0  0  0  0  0  0  0  0  0  0  0  0
  131.8000  125.0580   65.3160 C   0  0  0  0  0  0  0  0  0  0  0  0
  132.6200  126.1270   65.5740 N   0  0  0  0  0  0  0  0  0  0  0  0
  131.0050  127.6900   69.6070 N   0  0  0  0  0  0  0  0  0  0  0  0
  1  2  1  0
  2  3  2  0
  3  4  1  0
  4  5  2  0
  5  6  1  0
  6  7  1  0
  7  8  1  0
  8  9  2  0
  8 10  1  0
 10 11  1  0
 11 12  1  0
 12 13  2  0
 13 14  1  0
 14 15  1  0
 14 16  2  0
 16 17  1  0
 17 18  1  0
 17 19  2  0
 19 20  1  0
 20 21  1  0
  6 22  2  0
 22  2  1  0
 20 10  2  0
 19 12  1  0
M  END
>  <Binding energies>  (41) 
[-6.58]

>  <Ligand effiencies>  (41) 
[-0.2632]

>  <Interactions>  (41) 
["H-A:HIS:456:ND1:4066, V-A:ARG:545:CD:4923, V-B:GLU:543:CG:9878, V-A:HIS:456:CE1:4069, V-A:ILE:369:CD1:3238, V-A:ARG:545:CZ:4926, V-B:ALA:541:CB:9863, V-A:GLU:543:CB:4906, V-A:TYR:484:CE1:4344, V-B:HIS:456:CE1:9041, V-A:GLU:543:CD:4908, V-A:GLU:543:CG:4907, V-A:LEU:475:CD2:4258, V-A:TYR:484:CZ:4346, H-A:GLU:543:OE2:4910, H-A:GLU:543:OE1:4909, V-A:GLU:543:C:4902, V-A:ILE:369:CG2:3236, V-A:GLY:544:C:4912, V-A:ARG:545:CA:4919, V-A:GLY:453:CA:4043, V-A:GLY:453:C:4041"]

$$$$
4af_Grossjean_2025
     RDKit          3D

 21 23  0  0  0  0  0  0  0  0999 V2000
  134.6860  125.2360   66.5190 C   0  0  0  0  0  0  0  0  0  0  0  0
  133.3750  125.0880   65.7680 C   0  0  0  0  0  0  0  0  0  0  0  0
  132.2390  125.7920   66.1630 C   0  0  0  0  0  0  0  0  0  0  0  0
  131.0400  125.6380   65.4570 C   0  0  0  0  0  0  0  0  0  0  0  0
  129.8270  126.4260   65.9260 C   0  0  0  0  0  0  0  0  0  0  0  0
  131.0330  124.7510   64.3460 C   0  0  0  0  0  0  0  0  0  0  0  0
  130.0010  124.3620   63.4220 C   0  0  0  0  0  0  0  0  0  0  0  0
  128.7250  124.8600   63.4990 N   0  0  0  0  0  0  0  0  0  0  0  0
  130.4230  123.4400   62.4520 C   0  0  0  0  0  0  0  0  0  0  0  0
  129.6370  122.8140   61.3870 C   0  0  0  0  0  0  0  0  0  0  0  0
  129.8140  121.6330   61.0880 O   0  0  0  0  0  0  0  0  0  0  0  0
  128.7200  123.6180   60.7940 N   0  0  0  0  0  0  0  0  0  0  0  0
  127.8490  123.3440   59.7230 C   0  0  0  0  0  0  0  0  0  0  0  0
  128.2040  122.6850   58.5310 C   0  0  0  0  0  0  0  0  0  0  0  0
  127.2440  122.4930   57.5360 C   0  0  0  0  0  0  0  0  0  0  0  0
  125.9500  122.9690   57.7540 C   0  0  0  0  0  0  0  0  0  0  0  0
  125.5850  123.6150   58.8900 N   0  0  0  0  0  0  0  0  0  0  0  0
  126.5290  123.7940   59.8480 C   0  0  0  0  0  0  0  0  0  0  0  0
  132.1260  123.0260   62.6640 S   0  0  0  0  0  0  0  0  0  0  0  0
  132.2620  124.0910   64.0450 C   0  0  0  0  0  0  0  0  0  0  0  0
  133.4060  124.2360   64.7140 N   0  0  0  0  0  0  0  0  0  0  0  0
  1  2  1  0
  2  3  2  0
  3  4  1  0
  4  5  1  0
  4  6  2  0
  6  7  1  0
  7  8  1  0
  7  9  2  0
  9 10  1  0
 10 11  2  0
 10 12  1  0
 12 13  1  0
 13 14  2  0
 14 15  1  0
 15 16  2  0
 16 17  1  0
 17 18  2  0
  9 19  1  0
 19 20  1  0
 20 21  2  0
 21  2  1  0
 20  6  1  0
 18 13  1  0
M  END
>  <Binding energies>  (42) 
[-6.16]

>  <Ligand effiencies>  (42) 
[-0.25666666666666665]

>  <Interactions>  (42) 
["V-B:TYR:539:CD2:9845, V-A:ARG:545:CD:4923, V-B:GLU:543:CD:9879, V-B:PRO:540:CA:9854, H-A:TYR:484:OH:4347, V-B:PRO:540:N:9855, H-A:GLY:454:N:4049, V-B:GLU:543:CG:9878, V-A:HIS:456:CE1:4069, V-B:TYR:539:CE2:9847, V-B:TYR:539:C:9838, V-A:ARG:545:CZ:4926, V-A:ARG:545:CG:4922, V-B:ALA:541:CB:9863, V-A:GLU:543:CD:4908, V-A:GLY:454:CA:4048, V-A:GLY:453:CA:4043, H-B:GLU:543:OE2:9881, V-B:PRO:540:CB:9856, V-B:TYR:539:CZ:9848, V-B:PRO:540:CD:9858, V-A:GLY:453:C:4041, V-B:TYR:539:CD1:9844, V-B:TYR:539:CE1:9846, V-B:TYR:539:CG:9843"]

$$$$
4ag_Grossjean_2025
     RDKit          3D

 22 24  0  0  0  0  0  0  0  0999 V2000
  132.5860  121.1510   61.5680 C   0  0  0  0  0  0  0  0  0  0  0  0
  132.4550  122.2800   62.5740 C   0  0  0  0  0  0  0  0  0  0  0  0
  133.3800  123.3220   62.6070 C   0  0  0  0  0  0  0  0  0  0  0  0
  133.2400  124.3530   63.5420 C   0  0  0  0  0  0  0  0  0  0  0  0
  134.2740  125.4690   63.5380 C   0  0  0  0  0  0  0  0  0  0  0  0
  132.1380  124.2920   64.4370 C   0  0  0  0  0  0  0  0  0  0  0  0
  131.7010  125.1590   65.4970 C   0  0  0  0  0  0  0  0  0  0  0  0
  132.3730  126.3090   65.8280 N   0  0  0  0  0  0  0  0  0  0  0  0
  130.5400  124.7200   66.1500 C   0  0  0  0  0  0  0  0  0  0  0  0
  129.8220  125.3570   67.2540 C   0  0  0  0  0  0  0  0  0  0  0  0
  129.2220  124.6900   68.0990 O   0  0  0  0  0  0  0  0  0  0  0  0
  129.8420  126.7060   67.2760 N   0  0  0  0  0  0  0  0  0  0  0  0
  129.2170  127.5470   68.2960 C   0  0  0  0  0  0  0  0  0  0  0  0
  130.0350  127.6800   69.5750 C   0  0  0  0  0  0  0  0  0  0  0  0
  131.3660  128.1040   69.5080 C   0  0  0  0  0  0  0  0  0  0  0  0
  132.1080  128.2510   70.6780 C   0  0  0  0  0  0  0  0  0  0  0  0
  131.5140  127.9840   71.9100 C   0  0  0  0  0  0  0  0  0  0  0  0
  130.1850  127.5760   71.9840 C   0  0  0  0  0  0  0  0  0  0  0  0
  129.4420  127.4300   70.8160 C   0  0  0  0  0  0  0  0  0  0  0  0
  129.9470  123.2120   65.4550 S   0  0  0  0  0  0  0  0  0  0  0  0
  131.2620  123.1730   64.3010 C   0  0  0  0  0  0  0  0  0  0  0  0
  131.3920  122.1890   63.4100 N   0  0  0  0  0  0  0  0  0  0  0  0
  1  2  1  0
  2  3  2  0
  3  4  1  0
  4  5  1  0
  4  6  2  0
  6  7  1  0
  7  8  1  0
  7  9  2  0
  9 10  1  0
 10 11  2  0
 10 12  1  0
 12 13  1  0
 13 14  1  0
 14 15  2  0
 15 16  1  0
 16 17  2  0
 17 18  1  0
 18 19  2  0
  9 20  1  0
 20 21  1  0
 21 22  2  0
 22  2  1  0
 21  6  1  0
 19 14  1  0
M  END
>  <Binding energies>  (43) 
[-6.68]

>  <Ligand effiencies>  (43) 
[-0.2672]

>  <Interactions>  (43) 
["V-A:ARG:545:CD:4923, V-B:GLU:543:CD:9879, H-A:TYR:484:OH:4347, V-B:GLU:543:CG:9878, V-A:HIS:456:CE1:4069, V-B:GLU:543:CB:9877, V-A:ILE:369:CD1:3238, V-A:ARG:545:CZ:4926, V-A:ARG:545:CG:4922, V-B:ALA:541:CB:9863, V-A:GLU:543:CB:4906, V-A:TYR:484:CE1:4344, V-B:HIS:456:CE1:9041, V-A:GLU:543:CD:4908, V-A:GLY:454:CA:4048, V-A:LEU:475:CD2:4258, V-A:TYR:484:CZ:4346, H-A:GLU:543:OE2:4910, H-A:GLU:543:OE1:4909, V-A:HIS:456:CG:4065, V-A:ILE:369:CG2:3236, V-A:GLY:544:C:4912, V-A:ARG:545:CA:4919, V-A:GLY:453:CA:4043, V-A:GLY:453:C:4041, V-A:ARG:545:CB:4921"]

$$$$
4ah_Grossjean_2025
     RDKit          3D

 28 30  0  0  0  0  0  0  0  0999 V2000
  128.7270  123.9920   72.6380 C   0  0  0  0  0  0  0  0  0  0  0  0
  128.8170  125.3630   73.0060 O   0  0  0  0  0  0  0  0  0  0  0  0
  129.1580  126.3020   72.0480 C   0  0  0  0  0  0  0  0  0  0  0  0
  128.6370  126.3170   70.7450 C   0  0  0  0  0  0  0  0  0  0  0  0
  129.0280  127.2950   69.8290 C   0  0  0  0  0  0  0  0  0  0  0  0
  128.4160  127.3230   68.4330 C   0  0  0  0  0  0  0  0  0  0  0  0
  129.1640  126.5390   67.4500 N   0  0  0  0  0  0  0  0  0  0  0  0
  129.4520  125.2240   67.5540 C   0  0  0  0  0  0  0  0  0  0  0  0
  129.1320  124.5500   68.5350 O   0  0  0  0  0  0  0  0  0  0  0  0
  130.2090  124.6450   66.4450 C   0  0  0  0  0  0  0  0  0  0  0  0
  129.6650  123.1460   65.6880 S   0  0  0  0  0  0  0  0  0  0  0  0
  131.0360  123.1460   64.6010 C   0  0  0  0  0  0  0  0  0  0  0  0
  131.2150  122.1890   63.6910 N   0  0  0  0  0  0  0  0  0  0  0  0
  132.3160  122.3070   62.9110 C   0  0  0  0  0  0  0  0  0  0  0  0
  132.5030  121.2050   61.8840 C   0  0  0  0  0  0  0  0  0  0  0  0
  133.2320  123.3510   63.0160 C   0  0  0  0  0  0  0  0  0  0  0  0
  133.0430  124.3550   63.9740 C   0  0  0  0  0  0  0  0  0  0  0  0
  134.0700  125.4740   64.0510 C   0  0  0  0  0  0  0  0  0  0  0  0
  131.8990  124.2630   64.8130 C   0  0  0  0  0  0  0  0  0  0  0  0
  131.4100  125.0950   65.8790 C   0  0  0  0  0  0  0  0  0  0  0  0
  132.0670  126.2290   66.2870 N   0  0  0  0  0  0  0  0  0  0  0  0
  129.9270  128.2860   70.2240 C   0  0  0  0  0  0  0  0  0  0  0  0
  130.4690  128.2930   71.5190 C   0  0  0  0  0  0  0  0  0  0  0  0
  131.3750  129.2350   71.9710 O   0  0  0  0  0  0  0  0  0  0  0  0
  130.9440  130.2330   72.8910 C   0  0  0  0  0  0  0  0  0  0  0  0
  130.0810  127.2910   72.4190 C   0  0  0  0  0  0  0  0  0  0  0  0
  130.5890  127.2960   73.6960 O   0  0  0  0  0  0  0  0  0  0  0  0
  131.4600  126.2090   73.9760 C   0  0  0  0  0  0  0  0  0  0  0  0
  1  2  1  0
  2  3  1  0
  3  4  2  0
  4  5  1  0
  5  6  1  0
  6  7  1  0
  7  8  1  0
  8  9  2  0
  8 10  1  0
 10 11  1  0
 11 12  1  0
 12 13  2  0
 13 14  1  0
 14 15  1  0
 14 16  2  0
 16 17  1  0
 17 18  1  0
 17 19  2  0
 19 20  1  0
 20 21  1  0
  5 22  2  0
 22 23  1  0
 23 24  1  0
 24 25  1  0
 23 26  2  0
 26 27  1  0
 27 28  1  0
 26  3  1  0
 20 10  2  0
 19 12  1  0
M  END
>  <Binding energies>  (44) 
[-6.89]

>  <Ligand effiencies>  (44) 
[-0.22225806451612903]

>  <Interactions>  (44) 
["V-B:GLU:543:CD:9879, H-A:TYR:484:OH:4347, V-B:GLU:543:CG:9878, V-A:HIS:456:CE1:4069, V-B:GLU:543:CB:9877, V-A:ILE:369:CD1:3238, V-A:ARG:545:CZ:4926, V-B:ALA:541:CB:9863, V-A:GLU:543:CB:4906, V-A:TYR:484:CE1:4344, V-B:HIS:456:CE1:9041, V-A:GLU:543:CD:4908, V-A:GLY:454:CA:4048, V-A:LEU:475:CD2:4258, V-A:TYR:484:CZ:4346, H-A:GLU:543:OE2:4910, H-A:GLU:543:OE1:4909, V-B:GLU:543:CA:9875, V-A:HIS:456:CG:4065, V-A:GLU:543:C:4902, V-A:HIS:456:CB:4064, V-A:ILE:369:CG2:3236, V-A:GLY:544:C:4912, V-A:HIS:456:CD2:4067, V-A:GLY:453:CA:4043, H-B:LYS:547:NZ:9922, H-A:LYS:547:NZ:4951, V-B:LYS:547:CE:9921, V-A:GLY:453:C:4041, H-B:GLU:543:OE1:9880, V-A:LYS:547:CE:4950, V-A:GLY:544:CA:4914"]

$$$$
4ai_Grossjean_2025
     RDKit          3D

 20 22  0  0  0  0  0  0  0  0999 V2000
  126.7120  122.1160   56.5800 C   0  0  0  0  0  0  0  0  0  0  0  0
  127.0610  122.5860   57.9810 C   0  0  0  0  0  0  0  0  0  0  0  0
  126.1450  123.3090   58.7430 C   0  0  0  0  0  0  0  0  0  0  0  0
  126.4860  123.7280   60.0340 C   0  0  0  0  0  0  0  0  0  0  0  0
  125.4520  124.5120   60.8280 C   0  0  0  0  0  0  0  0  0  0  0  0
  127.7780  123.3910   60.5220 C   0  0  0  0  0  0  0  0  0  0  0  0
  128.4410  123.6530   61.7700 C   0  0  0  0  0  0  0  0  0  0  0  0
  127.8420  124.3590   62.7840 N   0  0  0  0  0  0  0  0  0  0  0  0
  129.7370  123.1200   61.8510 C   0  0  0  0  0  0  0  0  0  0  0  0
  130.6900  123.2050   62.9590 C   0  0  0  0  0  0  0  0  0  0  0  0
  130.8750  122.2420   63.7060 O   0  0  0  0  0  0  0  0  0  0  0  0
  131.3410  124.3910   63.0760 N   0  0  0  0  0  0  0  0  0  0  0  0
  132.2960  124.7390   64.0210 C   0  0  0  0  0  0  0  0  0  0  0  0
  131.9730  125.2360   65.2840 C   0  0  0  0  0  0  0  0  0  0  0  0
  133.1820  125.4570   65.9030 C   0  0  0  0  0  0  0  0  0  0  0  0
  134.1820  125.1100   65.0580 O   0  0  0  0  0  0  0  0  0  0  0  0
  133.6080  124.6550   63.8690 N   0  0  0  0  0  0  0  0  0  0  0  0
  130.1800  122.2930   60.3550 S   0  0  0  0  0  0  0  0  0  0  0  0
  128.6220  122.6480   59.6420 C   0  0  0  0  0  0  0  0  0  0  0  0
  128.3010  122.2480   58.4110 N   0  0  0  0  0  0  0  0  0  0  0  0
  1  2  1  0
  2  3  2  0
  3  4  1  0
  4  5  1  0
  4  6  2  0
  6  7  1  0
  7  8  1  0
  7  9  2  0
  9 10  1  0
 10 11  2  0
 10 12  1  0
 12 13  1  0
 13 14  1  0
 14 15  2  0
 15 16  1  0
 16 17  1  0
  9 18  1  0
 18 19  1  0
 19 20  2  0
 20  2  1  0
 19  6  1  0
 17 13  2  0
M  END
>  <Binding energies>  (45) 
[-6.83]

>  <Ligand effiencies>  (45) 
[-0.29695652173913045]

>  <Interactions>  (45) 
["V-B:TYR:539:CD2:9845, V-A:ARG:545:CD:4923, V-B:GLU:543:CD:9879, V-B:PRO:540:CA:9854, H-A:TYR:484:OH:4347, V-B:PRO:540:N:9855, H-A:GLY:454:N:4049, V-B:GLU:543:CG:9878, H-A:ARG:545:NH1:4927, V-B:TYR:539:CE2:9847, V-B:TYR:539:C:9838, V-A:ARG:545:CZ:4926, H-A:ARG:545:NE:4924, V-B:ALA:541:CB:9863, H-B:GLU:543:OE2:9881, V-B:PRO:540:CB:9856, V-B:PRO:540:CD:9858, V-B:TYR:539:CD1:9844, V-B:TYR:539:CE1:9846, V-B:TYR:539:CG:9843, V-B:TYR:539:CA:9840"]

$$$$
4aj_Grossjean_2025
     RDKit          3D

 20 22  0  0  0  0  0  0  0  0999 V2000
  126.7600  122.1480   56.7780 C   0  0  0  0  0  0  0  0  0  0  0  0
  127.1280  122.6070   58.1770 C   0  0  0  0  0  0  0  0  0  0  0  0
  126.2300  123.3390   58.9510 C   0  0  0  0  0  0  0  0  0  0  0  0
  126.5920  123.7570   60.2370 C   0  0  0  0  0  0  0  0  0  0  0  0
  125.5760  124.5540   61.0420 C   0  0  0  0  0  0  0  0  0  0  0  0
  127.8850  123.4070   60.7080 C   0  0  0  0  0  0  0  0  0  0  0  0
  128.5690  123.6670   61.9470 C   0  0  0  0  0  0  0  0  0  0  0  0
  127.9900  124.3780   62.9670 N   0  0  0  0  0  0  0  0  0  0  0  0
  129.8610  123.1230   62.0090 C   0  0  0  0  0  0  0  0  0  0  0  0
  130.8310  123.2030   63.1040 C   0  0  0  0  0  0  0  0  0  0  0  0
  131.3200  122.1800   63.5880 O   0  0  0  0  0  0  0  0  0  0  0  0
  131.1440  124.4570   63.5140 N   0  0  0  0  0  0  0  0  0  0  0  0
  132.0370  124.8070   64.5170 C   0  0  0  0  0  0  0  0  0  0  0  0
  133.3420  124.6420   64.5300 N   0  0  0  0  0  0  0  0  0  0  0  0
  133.8770  125.0970   65.6470 C   0  0  0  0  0  0  0  0  0  0  0  0
  132.9950  125.6470   66.5730 C   0  0  0  0  0  0  0  0  0  0  0  0
  131.3800  125.5590   65.9350 S   0  0  0  0  0  0  0  0  0  0  0  0
  130.2730  122.2840   60.5130 S   0  0  0  0  0  0  0  0  0  0  0  0
  128.7100  122.6530   59.8200 C   0  0  0  0  0  0  0  0  0  0  0  0
  128.3690  122.2540   58.5940 N   0  0  0  0  0  0  0  0  0  0  0  0
  1  2  1  0
  2  3  2  0
  3  4  1  0
  4  5  1  0
  4  6  2  0
  6  7  1  0
  7  8  1  0
  7  9  2  0
  9 10  1  0
 10 11  2  0
 10 12  1  0
 12 13  1  0
 13 14  2  0
 14 15  1  0
 15 16  2  0
 16 17  1  0
  9 18  1  0
 18 19  1  0
 19 20  2  0
 20  2  1  0
 19  6  1  0
 17 13  1  0
M  END
>  <Binding energies>  (46) 
[-6.12]

>  <Ligand effiencies>  (46) 
[-0.26608695652173914]

>  <Interactions>  (46) 
["V-B:TYR:539:CD2:9845, V-A:ARG:545:CD:4923, V-B:GLU:543:CD:9879, V-B:PRO:540:CA:9854, H-A:TYR:484:OH:4347, V-B:PRO:540:N:9855, H-A:GLY:454:N:4049, V-B:GLU:543:CG:9878, V-A:HIS:456:CE1:4069, V-B:TYR:539:CE2:9847, V-B:TYR:539:C:9838, V-A:ARG:545:CZ:4926, V-A:ARG:545:CG:4922, V-B:ALA:541:CB:9863, V-A:GLY:454:CA:4048, V-A:GLY:453:CA:4043, H-B:GLU:543:OE2:9881, V-B:PRO:540:CB:9856, V-B:PRO:540:CD:9858, V-A:GLY:453:C:4041, V-B:TYR:539:CD1:9844, V-B:TYR:539:CE1:9846, V-B:TYR:539:CG:9843, V-B:TYR:539:CA:9840"]

$$$$
4ak_Grossjean_2025
     RDKit          3D

 25 26  0  0  0  0  0  0  0  0999 V2000
  128.7290  125.6650   72.1950 C   0  0  0  0  0  0  0  0  0  0  0  0
  128.7530  125.8680   73.5990 O   0  0  0  0  0  0  0  0  0  0  0  0
  130.0660  126.0140   74.1270 C   0  0  0  0  0  0  0  0  0  0  0  0
  130.9660  126.6840   73.0810 C   0  0  0  0  0  0  0  0  0  0  0  0
  130.9130  128.0940   73.2480 O   0  0  0  0  0  0  0  0  0  0  0  0
  130.4860  128.7940   72.0860 C   0  0  0  0  0  0  0  0  0  0  0  0
  131.6270  128.8210   71.0620 C   0  0  0  0  0  0  0  0  0  0  0  0
  131.3090  127.9520   69.9830 O   0  0  0  0  0  0  0  0  0  0  0  0
  130.3030  128.4570   69.1150 C   0  0  0  0  0  0  0  0  0  0  0  0
  129.4030  127.2970   68.6500 C   0  0  0  0  0  0  0  0  0  0  0  0
  129.9710  126.5200   67.5480 N   0  0  0  0  0  0  0  0  0  0  0  0
  129.8390  125.1890   67.3840 C   0  0  0  0  0  0  0  0  0  0  0  0
  129.1890  124.4880   68.1620 O   0  0  0  0  0  0  0  0  0  0  0  0
  130.5080  124.6160   66.2170 C   0  0  0  0  0  0  0  0  0  0  0  0
  129.8650  123.1660   65.4460 S   0  0  0  0  0  0  0  0  0  0  0  0
  131.1390  123.1820   64.2470 C   0  0  0  0  0  0  0  0  0  0  0  0
  131.2220  122.2540   63.2930 N   0  0  0  0  0  0  0  0  0  0  0  0
  132.2590  122.3820   62.4290 C   0  0  0  0  0  0  0  0  0  0  0  0
  132.3360  121.3170   61.3500 C   0  0  0  0  0  0  0  0  0  0  0  0
  133.2030  123.4040   62.4960 C   0  0  0  0  0  0  0  0  0  0  0  0
  133.1130  124.3770   63.4990 C   0  0  0  0  0  0  0  0  0  0  0  0
  134.1690  125.4700   63.5330 C   0  0  0  0  0  0  0  0  0  0  0  0
  132.0390  124.2760   64.4240 C   0  0  0  0  0  0  0  0  0  0  0  0
  131.6520  125.0810   65.5510 C   0  0  0  0  0  0  0  0  0  0  0  0
  132.3530  126.1980   65.9290 N   0  0  0  0  0  0  0  0  0  0  0  0
  1  2  1  0
  2  3  1  0
  3  4  1  0
  4  5  1  0
  5  6  1  0
  6  7  1  0
  7  8  1  0
  8  9  1  0
  9 10  1  0
 10 11  1  0
 11 12  1  0
 12 13  2  0
 12 14  1  0
 14 15  1  0
 15 16  1  0
 16 17  2  0
 17 18  1  0
 18 19  1  0
 18 20  2  0
 20 21  1  0
 21 22  1  0
 21 23  2  0
 23 24  1  0
 24 25  1  0
 24 14  2  0
 23 16  1  0
M  END
>  <Binding energies>  (47) 
[-5.98]

>  <Ligand effiencies>  (47) 
[-0.21357142857142858]

>  <Interactions>  (47) 
["H-A:HIS:456:ND1:4066, V-A:ARG:545:CD:4923, H-A:TYR:484:OH:4347, V-B:GLU:543:CG:9878, V-A:HIS:456:CE1:4069, V-B:GLU:543:CB:9877, V-A:ILE:369:CD1:3238, V-A:ARG:545:CZ:4926, V-B:ALA:541:CB:9863, V-A:GLU:543:CB:4906, V-A:TYR:484:CE1:4344, V-A:GLU:543:CD:4908, V-A:GLU:543:CG:4907, V-A:LEU:475:CD2:4258, V-A:TYR:484:CZ:4346, H-A:GLU:543:OE2:4910, H-A:GLU:543:OE1:4909, V-A:HIS:456:CG:4065, V-A:GLU:543:C:4902, V-A:ILE:369:CG2:3236, V-A:GLY:544:C:4912, V-A:ARG:545:CA:4919, V-A:HIS:456:CD2:4067, V-A:GLY:453:CA:4043, H-B:LYS:547:NZ:9922, H-A:LYS:547:NZ:4951, V-A:GLY:453:C:4041"]

$$$$
4al_Grossjean_2025
     RDKit          3D

 16 17  0  0  0  0  0  0  0  0999 V2000
  130.3000  123.8660   64.9990 C   0  0  0  0  0  0  0  0  0  0  0  0
  129.6730  122.8390   64.2450 O   0  0  0  0  0  0  0  0  0  0  0  0
  130.2240  122.3900   63.0870 C   0  0  0  0  0  0  0  0  0  0  0  0
  131.3520  121.8980   63.0050 O   0  0  0  0  0  0  0  0  0  0  0  0
  129.3260  122.5510   61.9230 C   0  0  0  0  0  0  0  0  0  0  0  0
  129.7250  121.7750   60.3880 S   0  0  0  0  0  0  0  0  0  0  0  0
  128.2820  122.4190   59.6400 C   0  0  0  0  0  0  0  0  0  0  0  0
  127.9780  122.1720   58.3650 N   0  0  0  0  0  0  0  0  0  0  0  0
  126.8310  122.7310   57.9070 C   0  0  0  0  0  0  0  0  0  0  0  0
  126.5040  122.4370   56.4540 C   0  0  0  0  0  0  0  0  0  0  0  0
  125.9900  123.5230   58.6860 C   0  0  0  0  0  0  0  0  0  0  0  0
  126.3110  123.7810   60.0230 C   0  0  0  0  0  0  0  0  0  0  0  0
  125.3630  124.6500   60.8330 C   0  0  0  0  0  0  0  0  0  0  0  0
  127.5070  123.2110   60.5380 C   0  0  0  0  0  0  0  0  0  0  0  0
  128.1270  123.2680   61.8330 C   0  0  0  0  0  0  0  0  0  0  0  0
  127.5850  123.9660   62.8810 N   0  0  0  0  0  0  0  0  0  0  0  0
  1  2  1  0
  2  3  1  0
  3  4  2  0
  3  5  1  0
  5  6  1  0
  6  7  1  0
  7  8  2  0
  8  9  1  0
  9 10  1  0
  9 11  2  0
 11 12  1  0
 12 13  1  0
 12 14  2  0
 14 15  1  0
 15 16  1  0
 15  5  2  0
 14  7  1  0
M  END
>  <Binding energies>  (48) 
[-4.75]

>  <Ligand effiencies>  (48) 
[-0.2638888888888889]

>  <Interactions>  (48) 
["V-B:TYR:539:CD2:9845, V-B:GLU:543:CD:9879, V-B:PRO:540:CA:9854, V-B:PRO:540:N:9855, V-B:GLU:543:CG:9878, V-B:TYR:539:CE2:9847, V-B:TYR:539:C:9838, V-B:ALA:541:CB:9863, H-B:GLU:543:OE2:9881, V-B:PRO:540:CB:9856, V-B:PRO:540:CD:9858, V-B:TYR:539:CD1:9844, V-B:TYR:539:CE1:9846"]

$$$$
4bc_Grossjean_2025
     RDKit          3D

 26 28  0  0  0  0  0  0  0  0999 V2000
  129.3080  129.7310   74.3130 C   0  0  0  0  0  0  0  0  0  0  0  0
  130.2280  128.7400   73.8650 O   0  0  0  0  0  0  0  0  0  0  0  0
  130.2180  128.3630   72.5360 C   0  0  0  0  0  0  0  0  0  0  0  0
  131.2840  128.8070   71.7550 C   0  0  0  0  0  0  0  0  0  0  0  0
  131.3600  128.4780   70.4040 C   0  0  0  0  0  0  0  0  0  0  0  0
  130.3690  127.6890   69.8170 C   0  0  0  0  0  0  0  0  0  0  0  0
  130.5210  127.4200   68.4440 N   0  0  0  0  0  0  0  0  0  0  0  0
  129.9030  126.4880   67.6790 C   0  0  0  0  0  0  0  0  0  0  0  0
  129.0930  125.6690   68.1150 O   0  0  0  0  0  0  0  0  0  0  0  0
  130.2640  126.4980   66.2590 C   0  0  0  0  0  0  0  0  0  0  0  0
  129.2380  127.3230   65.0880 S   0  0  0  0  0  0  0  0  0  0  0  0
  130.3020  126.8800   63.7740 C   0  0  0  0  0  0  0  0  0  0  0  0
  130.0450  127.2450   62.5180 N   0  0  0  0  0  0  0  0  0  0  0  0
  130.9400  126.8410   61.5870 C   0  0  0  0  0  0  0  0  0  0  0  0
  130.6330  127.2730   60.1650 C   0  0  0  0  0  0  0  0  0  0  0  0
  132.0740  126.0860   61.8790 C   0  0  0  0  0  0  0  0  0  0  0  0
  132.3480  125.6980   63.2000 C   0  0  0  0  0  0  0  0  0  0  0  0
  133.6070  124.8660   63.4710 C   0  0  0  0  0  0  0  0  0  0  0  0
  134.3600  124.6900   62.3830 F   0  0  0  0  0  0  0  0  0  0  0  0
  134.3610  125.4750   64.3850 F   0  0  0  0  0  0  0  0  0  0  0  0
  133.2620  123.6580   63.9170 F   0  0  0  0  0  0  0  0  0  0  0  0
  131.4250  126.1100   64.2070 C   0  0  0  0  0  0  0  0  0  0  0  0
  131.3760  125.9110   65.6350 C   0  0  0  0  0  0  0  0  0  0  0  0
  132.3370  125.2080   66.3170 N   0  0  0  0  0  0  0  0  0  0  0  0
  129.2860  127.2490   70.5930 C   0  0  0  0  0  0  0  0  0  0  0  0
  129.2130  127.5810   71.9420 C   0  0  0  0  0  0  0  0  0  0  0  0
  1  2  1  0
  2  3  1  0
  3  4  2  0
  4  5  1  0
  5  6  2  0
  6  7  1  0
  7  8  1  0
  8  9  2  0
  8 10  1  0
 10 11  1  0
 11 12  1  0
 12 13  2  0
 13 14  1  0
 14 15  1  0
 14 16  2  0
 16 17  1  0
 17 18  1  0
 18 19  1  0
 18 20  1  0
 18 21  1  0
 17 22  2  0
 22 23  1  0
 23 24  1  0
  6 25  1  0
 25 26  2  0
 26  3  1  0
 23 10  2  0
 22 12  1  0
M  END
>  <Binding energies>  (49) 
[-6.18]

>  <Ligand effiencies>  (49) 
[-0.21310344827586206]

>  <Interactions>  (49) 
["V-A:ARG:545:CD:4923, V-B:GLU:543:CD:9879, H-A:TYR:484:OH:4347, V-A:HIS:456:CE1:4069, V-A:ILE:369:CD1:3238, V-A:ARG:545:CZ:4926, V-A:GLU:543:CB:4906, V-B:HIS:456:CE1:9041, V-A:GLU:543:CD:4908, V-A:GLY:454:CA:4048, V-A:ASP:366:CG:3212, V-A:TYR:484:CZ:4346, H-A:GLU:543:OE2:4910, V-A:GLY:544:C:4912, V-A:ARG:545:CA:4919, V-A:GLY:453:CA:4043, H-A:LYS:547:NZ:4951, V-B:HIS:456:CD2:9039, V-A:GLY:453:C:4041, H-A:HIS:456:NE2:4070, V-A:LYS:547:CE:4950"]

$$$$
4bf_Grossjean_2025
     RDKit          3D

 24 26  0  0  0  0  0  0  0  0999 V2000
  131.2380  120.9340   61.6920 C   0  0  0  0  0  0  0  0  0  0  0  0
  131.3940  122.0960   62.6570 C   0  0  0  0  0  0  0  0  0  0  0  0
  132.4170  123.0270   62.4970 C   0  0  0  0  0  0  0  0  0  0  0  0
  132.5520  124.0950   63.3980 C   0  0  0  0  0  0  0  0  0  0  0  0
  133.6950  125.0940   63.1840 C   0  0  0  0  0  0  0  0  0  0  0  0
  134.3270  125.4140   64.3160 F   0  0  0  0  0  0  0  0  0  0  0  0
  134.5990  124.5750   62.3540 F   0  0  0  0  0  0  0  0  0  0  0  0
  133.2150  126.2240   62.6630 F   0  0  0  0  0  0  0  0  0  0  0  0
  131.6070  124.1740   64.4640 C   0  0  0  0  0  0  0  0  0  0  0  0
  131.4320  125.1010   65.5550 C   0  0  0  0  0  0  0  0  0  0  0  0
  132.2550  126.1830   65.7450 N   0  0  0  0  0  0  0  0  0  0  0  0
  130.3490  124.8020   66.3960 C   0  0  0  0  0  0  0  0  0  0  0  0
  129.9070  125.5070   67.6040 C   0  0  0  0  0  0  0  0  0  0  0  0
  129.1440  124.9630   68.4030 O   0  0  0  0  0  0  0  0  0  0  0  0
  130.4080  126.7560   67.7620 N   0  0  0  0  0  0  0  0  0  0  0  0
  130.1490  127.7040   68.7700 C   0  0  0  0  0  0  0  0  0  0  0  0
  130.8270  127.7920   69.9990 C   0  0  0  0  0  0  0  0  0  0  0  0
  130.4610  128.7740   70.9220 C   0  0  0  0  0  0  0  0  0  0  0  0
  129.4190  129.6430   70.5950 C   0  0  0  0  0  0  0  0  0  0  0  0
  128.7450  129.5750   69.4200 N   0  0  0  0  0  0  0  0  0  0  0  0
  129.1130  128.6150   68.5330 C   0  0  0  0  0  0  0  0  0  0  0  0
  129.5090  123.3480   65.8600 S   0  0  0  0  0  0  0  0  0  0  0  0
  130.6070  123.1540   64.5130 C   0  0  0  0  0  0  0  0  0  0  0  0
  130.4820  122.1430   63.6550 N   0  0  0  0  0  0  0  0  0  0  0  0
  1  2  1  0
  2  3  2  0
  3  4  1  0
  4  5  1  0
  5  6  1  0
  5  7  1  0
  5  8  1  0
  4  9  2  0
  9 10  1  0
 10 11  1  0
 10 12  2  0
 12 13  1  0
 13 14  2  0
 13 15  1  0
 15 16  1  0
 16 17  2  0
 17 18  1  0
 18 19  2  0
 19 20  1  0
 20 21  2  0
 12 22  1  0
 22 23  1  0
 23 24  2  0
 24  2  1  0
 23  9  1  0
 21 16  1  0
M  END
>  <Binding energies>  (50) 
[-5.77]

>  <Ligand effiencies>  (50) 
[-0.2137037037037037]

>  <Interactions>  (50) 
["V-A:ARG:545:CD:4923, V-B:GLU:543:CD:9879, H-A:TYR:484:OH:4347, V-B:GLU:543:CG:9878, V-A:HIS:456:CE1:4069, V-B:GLU:543:CB:9877, V-A:ILE:369:CD1:3238, V-A:ARG:545:CZ:4926, V-B:ALA:541:CB:9863, V-A:GLU:543:CB:4906, V-A:TYR:484:CE1:4344, V-B:HIS:456:CE1:9041, V-A:GLU:543:CD:4908, V-A:GLU:543:CG:4907, V-A:ASP:366:CG:3212, V-A:LEU:475:CD2:4258, V-A:TYR:484:CZ:4346, H-A:GLU:543:OE2:4910, H-A:GLU:543:OE1:4909, V-B:GLU:543:CA:9875, V-A:GLU:543:C:4902, V-A:GLY:453:CA:4043, H-B:HIS:456:ND1:9038, V-A:GLY:453:C:4041"]

$$$$
4bh_Grossjean_2025
     RDKit          3D

 31 33  0  0  0  0  0  0  0  0999 V2000
  128.6790  123.9360   72.8500 C   0  0  0  0  0  0  0  0  0  0  0  0
  128.6820  125.3400   73.0780 O   0  0  0  0  0  0  0  0  0  0  0  0
  128.9830  126.1970   72.0350 C   0  0  0  0  0  0  0  0  0  0  0  0
  128.3790  126.1350   70.7700 C   0  0  0  0  0  0  0  0  0  0  0  0
  128.7340  127.0320   69.7620 C   0  0  0  0  0  0  0  0  0  0  0  0
  128.0340  126.9790   68.4090 C   0  0  0  0  0  0  0  0  0  0  0  0
  128.7770  126.2300   67.3960 N   0  0  0  0  0  0  0  0  0  0  0  0
  129.2640  124.9800   67.5470 C   0  0  0  0  0  0  0  0  0  0  0  0
  129.1570  124.3510   68.6020 O   0  0  0  0  0  0  0  0  0  0  0  0
  129.9730  124.4230   66.3950 C   0  0  0  0  0  0  0  0  0  0  0  0
  129.5070  122.8530   65.7480 S   0  0  0  0  0  0  0  0  0  0  0  0
  130.7720  122.9260   64.5440 C   0  0  0  0  0  0  0  0  0  0  0  0
  130.9510  121.9420   63.6630 N   0  0  0  0  0  0  0  0  0  0  0  0
  131.9600  122.1130   62.7790 C   0  0  0  0  0  0  0  0  0  0  0  0
  132.1470  120.9800   61.7860 C   0  0  0  0  0  0  0  0  0  0  0  0
  132.7860  123.2340   62.7520 C   0  0  0  0  0  0  0  0  0  0  0  0
  132.6030  124.2730   63.6790 C   0  0  0  0  0  0  0  0  0  0  0  0
  133.5350  125.4870   63.6090 C   0  0  0  0  0  0  0  0  0  0  0  0
  134.6260  125.2690   62.8720 F   0  0  0  0  0  0  0  0  0  0  0  0
  132.8900  126.5200   63.0690 F   0  0  0  0  0  0  0  0  0  0  0  0
  133.9400  125.8150   64.8360 F   0  0  0  0  0  0  0  0  0  0  0  0
  131.5490  124.1230   64.6270 C   0  0  0  0  0  0  0  0  0  0  0  0
  131.0750  124.9530   65.7070 C   0  0  0  0  0  0  0  0  0  0  0  0
  131.6480  126.1580   66.0240 N   0  0  0  0  0  0  0  0  0  0  0  0
  129.6830  128.0220   70.0250 C   0  0  0  0  0  0  0  0  0  0  0  0
  130.3090  128.1030   71.2780 C   0  0  0  0  0  0  0  0  0  0  0  0
  131.2670  129.0470   71.6040 O   0  0  0  0  0  0  0  0  0  0  0  0
  130.9850  130.0050   72.6180 C   0  0  0  0  0  0  0  0  0  0  0  0
  129.9550  127.1800   72.2730 C   0  0  0  0  0  0  0  0  0  0  0  0
  130.5480  127.2600   73.5120 O   0  0  0  0  0  0  0  0  0  0  0  0
  131.4850  126.2240   73.7700 C   0  0  0  0  0  0  0  0  0  0  0  0
  1  2  1  0
  2  3  1  0
  3  4  2  0
  4  5  1  0
  5  6  1  0
  6  7  1  0
  7  8  1  0
  8  9  2  0
  8 10  1  0
 10 11  1  0
 11 12  1  0
 12 13  2  0
 13 14  1  0
 14 15  1  0
 14 16  2  0
 16 17  1  0
 17 18  1  0
 18 19  1  0
 18 20  1  0
 18 21  1  0
 17 22  2  0
 22 23  1  0
 23 24  1  0
  5 25  2  0
 25 26  1  0
 26 27  1  0
 27 28  1  0
 26 29  2  0
 29 30  1  0
 30 31  1  0
 29  3  1  0
 23 10  2  0
 22 12  1  0
M  END
>  <Binding energies>  (51) 
[-6.09]

>  <Ligand effiencies>  (51) 
[-0.17911764705882352]

>  <Interactions>  (51) 
["V-A:ARG:545:CD:4923, V-B:GLU:543:CD:9879, H-A:TYR:484:OH:4347, V-B:GLU:543:CG:9878, V-A:HIS:456:CE1:4069, V-B:GLU:543:CB:9877, V-A:ILE:369:CD1:3238, V-A:ARG:545:CZ:4926, V-B:ALA:541:CB:9863, V-A:GLU:543:CB:4906, V-A:TYR:484:CE1:4344, V-B:HIS:456:CE1:9041, V-A:GLU:543:CD:4908, V-A:ASP:366:CG:3212, V-A:LEU:475:CD2:4258, V-A:TYR:484:CZ:4346, H-A:GLU:543:OE2:4910, H-A:GLU:543:OE1:4909, V-B:GLU:543:CA:9875, V-A:HIS:456:CG:4065, V-A:GLU:543:C:4902, V-A:HIS:456:CB:4064, V-A:ILE:369:CG2:3236, V-A:GLY:544:C:4912, V-A:HIS:456:CD2:4067, V-A:GLY:453:CA:4043, H-B:GLU:543:OE2:9881, H-B:LYS:547:NZ:9922, H-A:LYS:547:NZ:4951, V-B:LYS:547:CE:9921, V-A:GLY:453:C:4041, H-B:GLU:543:OE1:9880, V-A:LYS:547:CE:4950, V-A:GLY:544:CA:4914"]

$$$$
4bi_Grossjean_2025
     RDKit          3D

 23 25  0  0  0  0  0  0  0  0999 V2000
  134.7870  125.4590   63.1920 C   0  0  0  0  0  0  0  0  0  0  0  0
  133.3010  125.1580   63.1170 C   0  0  0  0  0  0  0  0  0  0  0  0
  132.4640  125.4020   64.2020 C   0  0  0  0  0  0  0  0  0  0  0  0
  131.0900  125.1230   64.1160 C   0  0  0  0  0  0  0  0  0  0  0  0
  130.2070  125.4160   65.3340 C   0  0  0  0  0  0  0  0  0  0  0  0
  130.9100  125.6920   66.4340 F   0  0  0  0  0  0  0  0  0  0  0  0
  129.4280  126.4680   65.0840 F   0  0  0  0  0  0  0  0  0  0  0  0
  129.4420  124.3570   65.6030 F   0  0  0  0  0  0  0  0  0  0  0  0
  130.6090  124.5830   62.8860 C   0  0  0  0  0  0  0  0  0  0  0  0
  129.3000  124.1780   62.4380 C   0  0  0  0  0  0  0  0  0  0  0  0
  128.1860  124.2560   63.2340 N   0  0  0  0  0  0  0  0  0  0  0  0
  129.2660  123.7040   61.1160 C   0  0  0  0  0  0  0  0  0  0  0  0
  128.1190  123.2030   60.3530 C   0  0  0  0  0  0  0  0  0  0  0  0
  127.0870  122.8510   60.9270 O   0  0  0  0  0  0  0  0  0  0  0  0
  128.2800  123.1810   59.0060 N   0  0  0  0  0  0  0  0  0  0  0  0
  127.3600  122.7700   58.0510 C   0  0  0  0  0  0  0  0  0  0  0  0
  126.1080  123.3640   57.8950 C   0  0  0  0  0  0  0  0  0  0  0  0
  125.5120  122.6780   56.8610 C   0  0  0  0  0  0  0  0  0  0  0  0
  126.3620  121.7200   56.4180 O   0  0  0  0  0  0  0  0  0  0  0  0
  127.5300  121.7890   57.1810 N   0  0  0  0  0  0  0  0  0  0  0  0
  130.8730  123.7230   60.3910 S   0  0  0  0  0  0  0  0  0  0  0  0
  131.5730  124.3810   61.8510 C   0  0  0  0  0  0  0  0  0  0  0  0
  132.8760  124.6490   61.9370 N   0  0  0  0  0  0  0  0  0  0  0  0
  1  2  1  0
  2  3  2  0
  3  4  1  0
  4  5  1  0
  5  6  1  0
  5  7  1  0
  5  8  1  0
  4  9  2  0
  9 10  1  0
 10 11  1  0
 10 12  2  0
 12 13  1  0
 13 14  2  0
 13 15  1  0
 15 16  1  0
 16 17  1  0
 17 18  2  0
 18 19  1  0
 19 20  1  0
 12 21  1  0
 21 22  1  0
 22 23  2  0
 23  2  1  0
 22  9  1  0
 20 16  2  0
M  END
>  <Binding energies>  (52) 
[-5.58]

>  <Ligand effiencies>  (52) 
[-0.21461538461538462]

>  <Interactions>  (52) 
["V-B:TYR:539:CD2:9845, V-B:GLU:543:CD:9879, V-B:PRO:540:CA:9854, V-B:PRO:540:N:9855, V-B:GLU:543:CG:9878, V-A:HIS:456:CE1:4069, V-B:TYR:539:CE2:9847, V-B:GLU:543:CB:9877, V-A:ILE:369:CD1:3238, V-B:TYR:539:C:9838, V-A:ARG:545:CZ:4926, V-B:ALA:541:CB:9863, V-A:ASP:366:CG:3212, H-B:ALA:541:N:9862, V-A:GLY:453:CA:4043, H-B:GLU:543:OE2:9881, V-B:PRO:540:CB:9856, H-B:TYR:539:OH:9849, V-B:PRO:540:CD:9858, V-A:GLY:453:C:4041, H-B:GLU:543:OE1:9880, H-B:TYR:539:N:9841, V-B:LEU:363:CD1:8160"]

$$$$
4bj_Grossjean_2025
     RDKit          3D

 23 25  0  0  0  0  0  0  0  0999 V2000
  131.1450  120.9560   61.8000 C   0  0  0  0  0  0  0  0  0  0  0  0
  131.3310  122.1270   62.7480 C   0  0  0  0  0  0  0  0  0  0  0  0
  132.3670  123.0390   62.5660 C   0  0  0  0  0  0  0  0  0  0  0  0
  132.5310  124.1140   63.4540 C   0  0  0  0  0  0  0  0  0  0  0  0
  133.6880  125.0920   63.2140 C   0  0  0  0  0  0  0  0  0  0  0  0
  134.3480  125.4020   64.3310 F   0  0  0  0  0  0  0  0  0  0  0  0
  134.5640  124.5530   62.3670 F   0  0  0  0  0  0  0  0  0  0  0  0
  133.2170  126.2270   62.7000 F   0  0  0  0  0  0  0  0  0  0  0  0
  131.5990  124.2210   64.5290 C   0  0  0  0  0  0  0  0  0  0  0  0
  131.4550  125.1610   65.6140 C   0  0  0  0  0  0  0  0  0  0  0  0
  132.3050  126.2220   65.7920 N   0  0  0  0  0  0  0  0  0  0  0  0
  130.3670  124.8970   66.4600 C   0  0  0  0  0  0  0  0  0  0  0  0
  129.9370  125.6340   67.6510 C   0  0  0  0  0  0  0  0  0  0  0  0
  129.1110  125.1500   68.4290 O   0  0  0  0  0  0  0  0  0  0  0  0
  130.5170  126.8460   67.8270 N   0  0  0  0  0  0  0  0  0  0  0  0
  130.2960  127.7330   68.8720 C   0  0  0  0  0  0  0  0  0  0  0  0
  129.1730  128.3370   69.1950 N   0  0  0  0  0  0  0  0  0  0  0  0
  129.3240  129.1090   70.2520 C   0  0  0  0  0  0  0  0  0  0  0  0
  130.5980  129.1450   70.8120 C   0  0  0  0  0  0  0  0  0  0  0  0
  131.6480  128.1070   69.8930 S   0  0  0  0  0  0  0  0  0  0  0  0
  129.4960  123.4530   65.9500 S   0  0  0  0  0  0  0  0  0  0  0  0
  130.5810  123.2210   64.5990 C   0  0  0  0  0  0  0  0  0  0  0  0
  130.4300  122.2010   63.7550 N   0  0  0  0  0  0  0  0  0  0  0  0
  1  2  1  0
  2  3  2  0
  3  4  1  0
  4  5  1  0
  5  6  1  0
  5  7  1  0
  5  8  1  0
  4  9  2  0
  9 10  1  0
 10 11  1  0
 10 12  2  0
 12 13  1  0
 13 14  2  0
 13 15  1  0
 15 16  1  0
 16 17  2  0
 17 18  1  0
 18 19  2  0
 19 20  1  0
 12 21  1  0
 21 22  1  0
 22 23  2  0
 23  2  1  0
 22  9  1  0
 20 16  1  0
M  END
>  <Binding energies>  (53) 
[-5.61]

>  <Ligand effiencies>  (53) 
[-0.21576923076923077]

>  <Interactions>  (53) 
["V-A:ARG:545:CD:4923, V-B:GLU:543:CD:9879, H-A:TYR:484:OH:4347, V-B:GLU:543:CG:9878, V-A:HIS:456:CE1:4069, V-B:GLU:543:CB:9877, V-A:ILE:369:CD1:3238, V-A:ARG:545:CZ:4926, V-A:ARG:545:CG:4922, V-A:GLU:543:CB:4906, V-A:TYR:484:CE1:4344, V-B:HIS:456:CE1:9041, V-A:GLU:543:CD:4908, V-A:GLU:543:CG:4907, V-A:ASP:366:CG:3212, V-A:LEU:475:CD2:4258, V-A:TYR:484:CZ:4346, H-A:GLU:543:OE2:4910, H-A:GLU:543:OE1:4909, V-B:GLU:543:CA:9875, V-A:GLU:543:C:4902, V-A:ARG:545:CA:4919, V-A:GLY:453:CA:4043, V-A:GLY:453:C:4041"]

$$$$
4bk_Grossjean_2025
     RDKit          3D

 28 29  0  0  0  0  0  0  0  0999 V2000
  128.7550  124.4390   72.5900 C   0  0  0  0  0  0  0  0  0  0  0  0
  128.6850  125.7230   73.1910 O   0  0  0  0  0  0  0  0  0  0  0  0
  128.8980  126.7890   72.2740 C   0  0  0  0  0  0  0  0  0  0  0  0
  129.2210  128.0730   73.0480 C   0  0  0  0  0  0  0  0  0  0  0  0
  130.5890  128.0600   73.4330 O   0  0  0  0  0  0  0  0  0  0  0  0
  131.4710  127.6300   72.4050 C   0  0  0  0  0  0  0  0  0  0  0  0
  131.6880  128.7750   71.4070 C   0  0  0  0  0  0  0  0  0  0  0  0
  130.6950  128.7080   70.3930 O   0  0  0  0  0  0  0  0  0  0  0  0
  131.1300  128.0590   69.2040 C   0  0  0  0  0  0  0  0  0  0  0  0
  129.9110  127.4790   68.4650 C   0  0  0  0  0  0  0  0  0  0  0  0
  130.2640  126.5880   67.3590 N   0  0  0  0  0  0  0  0  0  0  0  0
  130.0180  125.2620   67.3180 C   0  0  0  0  0  0  0  0  0  0  0  0
  129.4390  124.6690   68.2290 O   0  0  0  0  0  0  0  0  0  0  0  0
  130.4730  124.5590   66.1170 C   0  0  0  0  0  0  0  0  0  0  0  0
  129.6930  123.0590   65.6210 S   0  0  0  0  0  0  0  0  0  0  0  0
  130.7300  122.9310   64.2210 C   0  0  0  0  0  0  0  0  0  0  0  0
  130.6240  121.9130   63.3680 N   0  0  0  0  0  0  0  0  0  0  0  0
  131.4800  121.9240   62.3200 C   0  0  0  0  0  0  0  0  0  0  0  0
  131.3400  120.7560   61.3600 C   0  0  0  0  0  0  0  0  0  0  0  0
  132.4310  122.9180   62.1080 C   0  0  0  0  0  0  0  0  0  0  0  0
  132.5490  123.9930   63.0030 C   0  0  0  0  0  0  0  0  0  0  0  0
  133.6130  125.0610   62.7300 C   0  0  0  0  0  0  0  0  0  0  0  0
  133.0920  126.2570   62.4490 F   0  0  0  0  0  0  0  0  0  0  0  0
  134.3930  125.2060   63.8010 F   0  0  0  0  0  0  0  0  0  0  0  0
  134.3600  124.6970   61.6880 F   0  0  0  0  0  0  0  0  0  0  0  0
  131.6600  124.0130   64.1190 C   0  0  0  0  0  0  0  0  0  0  0  0
  131.4840  124.9300   65.2170 C   0  0  0  0  0  0  0  0  0  0  0  0
  132.2420  126.0620   65.3670 N   0  0  0  0  0  0  0  0  0  0  0  0
  1  2  1  0
  2  3  1  0
  3  4  1  0
  4  5  1  0
  5  6  1  0
  6  7  1  0
  7  8  1  0
  8  9  1  0
  9 10  1  0
 10 11  1  0
 11 12  1  0
 12 13  2  0
 12 14  1  0
 14 15  1  0
 15 16  1  0
 16 17  2  0
 17 18  1  0
 18 19  1  0
 18 20  2  0
 20 21  1  0
 21 22  1  0
 22 23  1  0
 22 24  1  0
 22 25  1  0
 21 26  2  0
 26 27  1  0
 27 28  1  0
 27 14  2  0
 26 16  1  0
M  END
>  <Binding energies>  (54) 
[-5.64]

>  <Ligand effiencies>  (54) 
[-0.18193548387096772]

>  <Interactions>  (54) 
["H-A:TYR:484:OH:4347, V-B:GLU:543:CG:9878, V-A:HIS:456:CE1:4069, V-B:GLU:543:CB:9877, V-A:ILE:369:CD1:3238, V-A:ARG:545:CZ:4926, V-A:ARG:545:CG:4922, V-B:ALA:541:CB:9863, V-A:GLU:543:CB:4906, V-A:TYR:484:CE1:4344, V-B:HIS:456:CE1:9041, V-A:GLU:543:CD:4908, V-A:GLU:543:CG:4907, V-A:ASP:366:CG:3212, V-A:LEU:475:CD2:4258, V-A:TYR:484:CZ:4346, H-A:GLU:543:OE2:4910, H-A:GLU:543:OE1:4909, V-A:HIS:456:CG:4065, V-A:GLU:543:C:4902, V-A:GLY:544:C:4912, V-A:ARG:545:CA:4919, V-A:HIS:456:CD2:4067, V-A:GLY:453:CA:4043, H-B:LYS:547:NZ:9922, H-A:LYS:547:NZ:4951, V-B:HIS:456:CD2:9039, V-A:GLY:453:C:4041"]

$$$$
4cd_Grossjean_2025
     RDKit          3D

 29 32  0  0  0  0  0  0  0  0999 V2000
  128.0490  127.7340   63.5930 N   0  0  0  0  0  0  0  0  0  0  0  0
  128.7860  127.0190   64.5020 C   0  0  0  0  0  0  0  0  0  0  0  0
  129.4830  125.8440   64.1730 C   0  0  0  0  0  0  0  0  0  0  0  0
  129.5560  125.1570   62.8800 C   0  0  0  0  0  0  0  0  0  0  0  0
  130.6230  125.0800   62.2700 O   0  0  0  0  0  0  0  0  0  0  0  0
  128.3900  124.6270   62.4380 N   0  0  0  0  0  0  0  0  0  0  0  0
  128.1100  123.9590   61.2310 C   0  0  0  0  0  0  0  0  0  0  0  0
  128.8960  122.8370   60.9550 C   0  0  0  0  0  0  0  0  0  0  0  0
  128.6870  122.1010   59.7920 C   0  0  0  0  0  0  0  0  0  0  0  0
  127.6840  122.4830   58.9060 C   0  0  0  0  0  0  0  0  0  0  0  0
  126.8840  123.5900   59.1750 C   0  0  0  0  0  0  0  0  0  0  0  0
  127.0900  124.3290   60.3370 C   0  0  0  0  0  0  0  0  0  0  0  0
  130.3300  125.1940   65.5760 S   0  0  0  0  0  0  0  0  0  0  0  0
  129.7400  126.4890   66.5890 C   0  0  0  0  0  0  0  0  0  0  0  0
  130.0580  126.5610   67.8800 N   0  0  0  0  0  0  0  0  0  0  0  0
  129.5400  127.5980   68.5900 C   0  0  0  0  0  0  0  0  0  0  0  0
  129.9130  127.6510   70.0430 C   0  0  0  0  0  0  0  0  0  0  0  0
  131.0080  128.4170   70.4760 C   0  0  0  0  0  0  0  0  0  0  0  0
  131.3600  128.4720   71.8220 C   0  0  0  0  0  0  0  0  0  0  0  0
  130.6190  127.7580   72.7580 C   0  0  0  0  0  0  0  0  0  0  0  0
  129.5280  126.9940   72.3570 C   0  0  0  0  0  0  0  0  0  0  0  0
  129.1790  126.9440   71.0110 C   0  0  0  0  0  0  0  0  0  0  0  0
  128.7230  128.5650   67.9980 C   0  0  0  0  0  0  0  0  0  0  0  0
  128.3850  128.5000   66.6360 C   0  0  0  0  0  0  0  0  0  0  0  0
  127.4820  129.5930   66.0510 C   0  0  0  0  0  0  0  0  0  0  0  0
  127.9600  130.1200   64.9220 F   0  0  0  0  0  0  0  0  0  0  0  0
  126.2800  129.0860   65.7770 F   0  0  0  0  0  0  0  0  0  0  0  0
  127.3510  130.5870   66.9300 F   0  0  0  0  0  0  0  0  0  0  0  0
  128.9120  127.4120   65.8840 C   0  0  0  0  0  0  0  0  0  0  0  0
  1  2  1  0
  2  3  2  0
  3  4  1  0
  4  5  2  0
  4  6  1  0
  6  7  1  0
  7  8  2  0
  8  9  1  0
  9 10  2  0
 10 11  1  0
 11 12  2  0
  3 13  1  0
 13 14  1  0
 14 15  2  0
 15 16  1  0
 16 17  1  0
 17 18  2  0
 18 19  1  0
 19 20  2  0
 20 21  1  0
 21 22  2  0
 16 23  2  0
 23 24  1  0
 24 25  1  0
 25 26  1  0
 25 27  1  0
 25 28  1  0
 24 29  2  0
 29  2  1  0
 12  7  1  0
 29 14  1  0
 22 17  1  0
M  END
>  <Binding energies>  (55) 
[-6.64]

>  <Ligand effiencies>  (55) 
[-0.2075]

>  <Interactions>  (55) 
["V-B:TYR:539:CD2:9845, V-B:GLU:543:CD:9879, V-B:PRO:540:CA:9854, V-B:PRO:540:N:9855, V-B:GLU:543:CG:9878, V-A:HIS:456:CE1:4069, V-B:TYR:539:CE2:9847, V-B:TYR:539:C:9838, V-A:GLU:543:CB:4906, V-B:HIS:456:CE1:9041, V-A:GLU:543:CD:4908, V-A:GLU:543:CG:4907, V-A:GLY:544:C:4912, H-B:GLU:543:OE2:9881, V-B:TYR:484:CE1:9316, H-B:GLU:543:OE1:9880, V-B:TYR:484:CZ:9318"]

$$$$
4cg_Grossjean_2025
     RDKit          3D

 30 33  0  0  0  0  0  0  0  0999 V2000
  132.2450  126.5570   66.2020 N   0  0  0  0  0  0  0  0  0  0  0  0
  131.4260  125.4740   66.0070 C   0  0  0  0  0  0  0  0  0  0  0  0
  130.3370  125.1750   66.8370 C   0  0  0  0  0  0  0  0  0  0  0  0
  129.8340  125.9260   67.9870 C   0  0  0  0  0  0  0  0  0  0  0  0
  129.1360  125.3880   68.8500 O   0  0  0  0  0  0  0  0  0  0  0  0
  130.1470  127.2380   68.0210 N   0  0  0  0  0  0  0  0  0  0  0  0
  129.7720  128.1720   69.0810 C   0  0  0  0  0  0  0  0  0  0  0  0
  130.3270  127.7910   70.4490 C   0  0  0  0  0  0  0  0  0  0  0  0
  129.5370  127.0580   71.3390 C   0  0  0  0  0  0  0  0  0  0  0  0
  130.0520  126.6810   72.5770 C   0  0  0  0  0  0  0  0  0  0  0  0
  131.3570  127.0300   72.9160 C   0  0  0  0  0  0  0  0  0  0  0  0
  132.1550  127.7460   72.0270 C   0  0  0  0  0  0  0  0  0  0  0  0
  131.6420  128.1220   70.7880 C   0  0  0  0  0  0  0  0  0  0  0  0
  129.4900  123.7310   66.2910 S   0  0  0  0  0  0  0  0  0  0  0  0
  130.6130  123.5240   64.9670 C   0  0  0  0  0  0  0  0  0  0  0  0
  130.4970  122.5130   64.1100 N   0  0  0  0  0  0  0  0  0  0  0  0
  131.4130  122.4350   63.1100 C   0  0  0  0  0  0  0  0  0  0  0  0
  131.2560  121.2820   62.1610 C   0  0  0  0  0  0  0  0  0  0  0  0
  132.2940  120.9200   61.2870 C   0  0  0  0  0  0  0  0  0  0  0  0
  132.1530  119.8530   60.4050 C   0  0  0  0  0  0  0  0  0  0  0  0
  130.9650  119.1280   60.3820 C   0  0  0  0  0  0  0  0  0  0  0  0
  129.9200  119.4660   61.2350 C   0  0  0  0  0  0  0  0  0  0  0  0
  130.0650  120.5340   62.1150 C   0  0  0  0  0  0  0  0  0  0  0  0
  132.4520  123.3650   62.9880 C   0  0  0  0  0  0  0  0  0  0  0  0
  132.5840  124.4350   63.8860 C   0  0  0  0  0  0  0  0  0  0  0  0
  133.7460  125.4160   63.6940 C   0  0  0  0  0  0  0  0  0  0  0  0
  134.7780  124.8840   63.0370 F   0  0  0  0  0  0  0  0  0  0  0  0
  133.3320  126.4750   62.9970 F   0  0  0  0  0  0  0  0  0  0  0  0
  134.1960  125.8200   64.8810 F   0  0  0  0  0  0  0  0  0  0  0  0
  131.6190  124.5340   64.9300 C   0  0  0  0  0  0  0  0  0  0  0  0
  1  2  1  0
  2  3  2  0
  3  4  1  0
  4  5  2  0
  4  6  1  0
  6  7  1  0
  7  8  1  0
  8  9  2  0
  9 10  1  0
 10 11  2  0
 11 12  1  0
 12 13  2  0
  3 14  1  0
 14 15  1  0
 15 16  2  0
 16 17  1  0
 17 18  1  0
 18 19  2  0
 19 20  1  0
 20 21  2  0
 21 22  1  0
 22 23  2  0
 17 24  2  0
 24 25  1  0
 25 26  1  0
 26 27  1  0
 26 28  1  0
 26 29  1  0
 25 30  2  0
 30  2  1  0
 13  8  1  0
 30 15  1  0
 23 18  1  0
M  END
>  <Binding energies>  (56) 
[-7.09]

>  <Ligand effiencies>  (56) 
[-0.21484848484848484]

>  <Interactions>  (56) 
["V-B:TYR:539:CD2:9845, V-A:ARG:545:CD:4923, V-B:GLU:543:CD:9879, V-B:GLU:543:CG:9878, V-A:HIS:456:CE1:4069, V-B:TYR:539:CE2:9847, V-B:GLU:543:CB:9877, V-A:ILE:369:CD1:3238, V-A:ARG:545:CZ:4926, V-A:ARG:545:CG:4922, V-B:ALA:541:CB:9863, V-A:GLU:543:CB:4906, V-A:TYR:484:CE1:4344, V-A:GLU:543:CD:4908, V-A:GLU:543:CG:4907, V-A:ASP:366:CG:3212, V-A:LEU:475:CD2:4258, V-A:TYR:484:CZ:4346, H-A:GLU:543:OE2:4910, H-A:GLU:543:OE1:4909, V-B:GLU:543:CA:9875, V-A:HIS:456:CG:4065, V-A:PRO:482:CB:4325, V-A:HIS:456:CB:4064, V-A:TRP:381:CH2:3371, V-B:ALA:541:CA:9861, V-A:ILE:369:CG2:3236, V-A:GLY:544:C:4912, V-A:PRO:482:CG:4326, V-A:ARG:545:CA:4919, V-A:TRP:381:CZ2:3369, V-A:HIS:456:CD2:4067, V-A:GLY:453:CA:4043, V-A:GLY:453:C:4041, V-A:TRP:381:CZ3:3370"]

$$$$
4ch_Grossjean_2025
     RDKit          3D

 36 39  0  0  0  0  0  0  0  0999 V2000
  132.0730  128.8500   70.2510 C   0  0  0  0  0  0  0  0  0  0  0  0
  131.4030  128.5770   71.4770 O   0  0  0  0  0  0  0  0  0  0  0  0
  130.3600  127.6690   71.4930 C   0  0  0  0  0  0  0  0  0  0  0  0
  129.5310  127.4080   70.3890 C   0  0  0  0  0  0  0  0  0  0  0  0
  128.4970  126.4740   70.4760 C   0  0  0  0  0  0  0  0  0  0  0  0
  127.5910  126.2240   69.2760 C   0  0  0  0  0  0  0  0  0  0  0  0
  128.2320  126.4520   67.9810 N   0  0  0  0  0  0  0  0  0  0  0  0
  129.2480  125.7250   67.4700 C   0  0  0  0  0  0  0  0  0  0  0  0
  129.7270  124.7520   68.0560 O   0  0  0  0  0  0  0  0  0  0  0  0
  129.7310  126.1360   66.1510 C   0  0  0  0  0  0  0  0  0  0  0  0
  129.0650  127.5690   65.3750 S   0  0  0  0  0  0  0  0  0  0  0  0
  130.1170  127.3650   63.9960 C   0  0  0  0  0  0  0  0  0  0  0  0
  130.0850  128.2060   62.9660 N   0  0  0  0  0  0  0  0  0  0  0  0
  130.9450  127.9700   61.9410 C   0  0  0  0  0  0  0  0  0  0  0  0
  130.8780  128.9340   60.7910 C   0  0  0  0  0  0  0  0  0  0  0  0
  130.9340  130.3200   61.0110 C   0  0  0  0  0  0  0  0  0  0  0  0
  130.8720  131.2200   59.9500 C   0  0  0  0  0  0  0  0  0  0  0  0
  130.7510  130.7440   58.6490 C   0  0  0  0  0  0  0  0  0  0  0  0
  130.6890  129.3770   58.4030 C   0  0  0  0  0  0  0  0  0  0  0  0
  130.7500  128.4810   59.4670 C   0  0  0  0  0  0  0  0  0  0  0  0
  131.8200  126.8800   61.9480 C   0  0  0  0  0  0  0  0  0  0  0  0
  131.8630  125.9840   63.0290 C   0  0  0  0  0  0  0  0  0  0  0  0
  132.8470  124.8100   62.9720 C   0  0  0  0  0  0  0  0  0  0  0  0
  133.5100  124.7380   61.8160 F   0  0  0  0  0  0  0  0  0  0  0  0
  133.7500  124.9320   63.9440 F   0  0  0  0  0  0  0  0  0  0  0  0
  132.1880  123.6620   63.1260 F   0  0  0  0  0  0  0  0  0  0  0  0
  130.9740  126.2310   64.1150 C   0  0  0  0  0  0  0  0  0  0  0  0
  130.7380  125.5530   65.3660 C   0  0  0  0  0  0  0  0  0  0  0  0
  131.4300  124.4320   65.7470 N   0  0  0  0  0  0  0  0  0  0  0  0
  128.2740  125.8040   71.6790 C   0  0  0  0  0  0  0  0  0  0  0  0
  129.0860  126.0470   72.7990 C   0  0  0  0  0  0  0  0  0  0  0  0
  128.9230  125.4190   74.0210 O   0  0  0  0  0  0  0  0  0  0  0  0
  129.2870  124.0500   74.1570 C   0  0  0  0  0  0  0  0  0  0  0  0
  130.1300  126.9770   72.6900 C   0  0  0  0  0  0  0  0  0  0  0  0
  130.9220  127.2350   73.7820 O   0  0  0  0  0  0  0  0  0  0  0  0
  131.8440  126.1960   74.0870 C   0  0  0  0  0  0  0  0  0  0  0  0
  1  2  1  0
  2  3  1  0
  3  4  2  0
  4  5  1  0
  5  6  1  0
  6  7  1  0
  7  8  1  0
  8  9  2  0
  8 10  1  0
 10 11  1  0
 11 12  1  0
 12 13  2  0
 13 14  1  0
 14 15  1  0
 15 16  2  0
 16 17  1  0
 17 18  2  0
 18 19  1  0
 19 20  2  0
 14 21  2  0
 21 22  1  0
 22 23  1  0
 23 24  1  0
 23 25  1  0
 23 26  1  0
 22 27  2  0
 27 28  1  0
 28 29  1  0
  5 30  2  0
 30 31  1  0
 31 32  1  0
 32 33  1  0
 31 34  2  0
 34 35  1  0
 35 36  1  0
 34  3  1  0
 28 10  2  0
 27 12  1  0
 20 15  1  0
M  END
>  <Binding energies>  (57) 
[-6.6]

>  <Ligand effiencies>  (57) 
[-0.1692307692307692]

>  <Interactions>  (57) 
["V-B:GLU:543:CD:9879, H-A:TYR:484:OH:4347, V-B:GLU:543:CG:9878, V-A:HIS:456:CE1:4069, V-B:GLU:543:CB:9877, V-A:ILE:369:CD1:3238, V-A:ARG:545:CZ:4926, V-A:ARG:545:CG:4922, V-A:GLU:543:CB:4906, V-B:HIS:456:CE1:9041, V-A:GLU:543:CD:4908, V-A:GLY:454:CA:4048, V-A:ASP:366:CG:3212, V-A:TYR:484:CZ:4346, V-B:GLU:543:C:9873, V-A:HIS:456:CG:4065, V-A:GLU:543:C:4902, V-A:HIS:456:CB:4064, V-A:GLY:544:C:4912, V-A:ARG:545:CA:4919, V-A:HIS:456:CD2:4067, V-A:GLY:453:CA:4043, H-B:LYS:547:NZ:9922, H-A:LYS:547:NZ:4951, V-B:LYS:547:CE:9921, V-B:HIS:456:CD2:9039, H-B:GLU:543:OE1:9880, V-A:ARG:545:CB:4921"]

$$$$
4cj_Grossjean_2025
     RDKit          3D

 28 31  0  0  0  0  0  0  0  0999 V2000
  132.3920  126.3410   66.1810 N   0  0  0  0  0  0  0  0  0  0  0  0
  131.5220  125.3070   65.9450 C   0  0  0  0  0  0  0  0  0  0  0  0
  130.3880  125.0610   66.7350 C   0  0  0  0  0  0  0  0  0  0  0  0
  129.9080  125.8060   67.9010 C   0  0  0  0  0  0  0  0  0  0  0  0
  129.0740  125.3140   68.6650 O   0  0  0  0  0  0  0  0  0  0  0  0
  130.4340  127.0460   68.0570 N   0  0  0  0  0  0  0  0  0  0  0  0
  130.1500  127.9510   69.0720 C   0  0  0  0  0  0  0  0  0  0  0  0
  129.0950  128.7300   69.1860 N   0  0  0  0  0  0  0  0  0  0  0  0
  129.1510  129.4620   70.2810 C   0  0  0  0  0  0  0  0  0  0  0  0
  130.2720  129.2830   71.0850 C   0  0  0  0  0  0  0  0  0  0  0  0
  131.3040  128.0870   70.3590 S   0  0  0  0  0  0  0  0  0  0  0  0
  129.4890  123.6660   66.1420 S   0  0  0  0  0  0  0  0  0  0  0  0
  130.6370  123.4220   64.8470 C   0  0  0  0  0  0  0  0  0  0  0  0
  130.4930  122.4330   63.9690 N   0  0  0  0  0  0  0  0  0  0  0  0
  131.4300  122.3260   62.9930 C   0  0  0  0  0  0  0  0  0  0  0  0
  131.2300  121.2070   62.0110 C   0  0  0  0  0  0  0  0  0  0  0  0
  130.0510  120.4440   62.0210 C   0  0  0  0  0  0  0  0  0  0  0  0
  129.8620  119.4020   61.1170 C   0  0  0  0  0  0  0  0  0  0  0  0
  130.8540  119.1050   60.1880 C   0  0  0  0  0  0  0  0  0  0  0  0
  132.0320  119.8430   60.1580 C   0  0  0  0  0  0  0  0  0  0  0  0
  132.2160  120.8850   61.0620 C   0  0  0  0  0  0  0  0  0  0  0  0
  132.5210  123.1970   62.9180 C   0  0  0  0  0  0  0  0  0  0  0  0
  132.6850  124.2430   63.8400 C   0  0  0  0  0  0  0  0  0  0  0  0
  133.9030  125.1640   63.6980 C   0  0  0  0  0  0  0  0  0  0  0  0
  134.9040  124.6070   63.0140 F   0  0  0  0  0  0  0  0  0  0  0  0
  133.5510  126.2770   63.0550 F   0  0  0  0  0  0  0  0  0  0  0  0
  134.3710  125.4820   64.9050 F   0  0  0  0  0  0  0  0  0  0  0  0
  131.6970  124.3760   64.8570 C   0  0  0  0  0  0  0  0  0  0  0  0
  1  2  1  0
  2  3  2  0
  3  4  1  0
  4  5  2  0
  4  6  1  0
  6  7  1  0
  7  8  2  0
  8  9  1  0
  9 10  2  0
 10 11  1  0
  3 12  1  0
 12 13  1  0
 13 14  2  0
 14 15  1  0
 15 16  1  0
 16 17  2  0
 17 18  1  0
 18 19  2  0
 19 20  1  0
 20 21  2  0
 15 22  2  0
 22 23  1  0
 23 24  1  0
 24 25  1  0
 24 26  1  0
 24 27  1  0
 23 28  2  0
 28  2  1  0
 11  7  1  0
 28 13  1  0
 21 16  1  0
M  END
>  <Binding energies>  (58) 
[-6.48]

>  <Ligand effiencies>  (58) 
[-0.20903225806451614]

>  <Interactions>  (58) 
["V-B:TYR:539:CD2:9845, V-A:ARG:545:CD:4923, V-B:GLU:543:CD:9879, H-A:TYR:484:OH:4347, V-B:GLU:543:CG:9878, V-A:HIS:456:CE1:4069, V-B:TYR:539:CE2:9847, V-B:GLU:543:CB:9877, V-A:ILE:369:CD1:3238, V-B:TYR:539:C:9838, V-A:ARG:545:CZ:4926, V-A:ARG:545:CG:4922, V-B:ALA:541:CB:9863, V-A:GLU:543:CB:4906, V-A:TYR:484:CE1:4344, V-B:HIS:456:CE1:9041, V-A:GLU:543:CD:4908, V-A:GLY:454:CA:4048, V-A:GLU:543:CG:4907, V-A:ASP:366:CG:3212, V-A:LEU:475:CD2:4258, V-A:TYR:484:CZ:4346, H-A:GLU:543:OE2:4910, H-A:GLU:543:OE1:4909, V-B:GLU:543:CA:9875, V-A:GLU:543:C:4902, V-A:PRO:482:CB:4325, V-A:TRP:381:CH2:3371, V-B:ALA:541:CA:9861, V-A:ILE:369:CG2:3236, V-A:PRO:482:CG:4326, V-A:TRP:381:CZ2:3369, V-A:GLY:453:CA:4043, V-A:GLY:453:C:4041, V-B:TYR:539:CG:9843, V-A:TRP:381:CZ3:3370"]

$$$$
4ck_Grossjean_2025
     RDKit          3D

 33 35  0  0  0  0  0  0  0  0999 V2000
  132.8010  131.8360   62.3400 C   0  0  0  0  0  0  0  0  0  0  0  0
  131.4760  132.2830   62.0970 O   0  0  0  0  0  0  0  0  0  0  0  0
  130.8960  131.7230   60.9280 C   0  0  0  0  0  0  0  0  0  0  0  0
  129.6700  132.5540   60.5290 C   0  0  0  0  0  0  0  0  0  0  0  0
  129.2500  133.3270   61.6450 O   0  0  0  0  0  0  0  0  0  0  0  0
  127.9440  133.0010   62.1010 C   0  0  0  0  0  0  0  0  0  0  0  0
  126.9370  133.2710   60.9750 C   0  0  0  0  0  0  0  0  0  0  0  0
  125.9200  132.2800   61.0250 O   0  0  0  0  0  0  0  0  0  0  0  0
  126.4150  130.9470   61.0320 C   0  0  0  0  0  0  0  0  0  0  0  0
  125.5200  130.0700   61.9210 C   0  0  0  0  0  0  0  0  0  0  0  0
  126.2380  129.5560   63.0880 N   0  0  0  0  0  0  0  0  0  0  0  0
  126.5760  130.2670   64.1830 C   0  0  0  0  0  0  0  0  0  0  0  0
  126.2780  131.4550   64.3240 O   0  0  0  0  0  0  0  0  0  0  0  0
  127.3170  129.5390   65.2150 C   0  0  0  0  0  0  0  0  0  0  0  0
  127.2120  130.0430   66.9000 S   0  0  0  0  0  0  0  0  0  0  0  0
  128.2440  128.7260   67.4020 C   0  0  0  0  0  0  0  0  0  0  0  0
  128.5700  128.5460   68.6800 N   0  0  0  0  0  0  0  0  0  0  0  0
  129.3790  127.4950   68.9750 C   0  0  0  0  0  0  0  0  0  0  0  0
  129.7130  127.3100   70.4270 C   0  0  0  0  0  0  0  0  0  0  0  0
  129.0040  126.3900   71.2160 C   0  0  0  0  0  0  0  0  0  0  0  0
  129.3070  126.2160   72.5650 C   0  0  0  0  0  0  0  0  0  0  0  0
  130.3280  126.9610   73.1440 C   0  0  0  0  0  0  0  0  0  0  0  0
  131.0490  127.8760   72.3840 C   0  0  0  0  0  0  0  0  0  0  0  0
  130.7440  128.0460   71.0360 C   0  0  0  0  0  0  0  0  0  0  0  0
  129.8490  126.6240   67.9860 C   0  0  0  0  0  0  0  0  0  0  0  0
  129.5120  126.8050   66.6350 C   0  0  0  0  0  0  0  0  0  0  0  0
  130.0660  125.8150   65.6030 C   0  0  0  0  0  0  0  0  0  0  0  0
  129.1200  125.2830   64.8280 F   0  0  0  0  0  0  0  0  0  0  0  0
  130.9350  126.4350   64.8050 F   0  0  0  0  0  0  0  0  0  0  0  0
  130.6820  124.8110   66.2280 F   0  0  0  0  0  0  0  0  0  0  0  0
  128.6670  127.9050   66.3150 C   0  0  0  0  0  0  0  0  0  0  0  0
  128.1130  128.3920   65.0740 C   0  0  0  0  0  0  0  0  0  0  0  0
  128.3490  127.7870   63.8670 N   0  0  0  0  0  0  0  0  0  0  0  0
  1  2  1  0
  2  3  1  0
  3  4  1  0
  4  5  1  0
  5  6  1  0
  6  7  1  0
  7  8  1  0
  8  9  1  0
  9 10  1  0
 10 11  1  0
 11 12  1  0
 12 13  2  0
 12 14  1  0
 14 15  1  0
 15 16  1  0
 16 17  2  0
 17 18  1  0
 18 19  1  0
 19 20  2  0
 20 21  1  0
 21 22  2  0
 22 23  1  0
 23 24  2  0
 18 25  2  0
 25 26  1  0
 26 27  1  0
 27 28  1  0
 27 29  1  0
 27 30  1  0
 26 31  2  0
 31 32  1  0
 32 33  1  0
 32 14  2  0
 31 16  1  0
 24 19  1  0
M  END
>  <Binding energies>  (59) 
[-5.31]

>  <Ligand effiencies>  (59) 
[-0.1475]

>  <Interactions>  (59) 
["V-B:GLU:543:CD:9879, V-B:GLU:543:CG:9878, V-A:HIS:456:CE1:4069, V-A:GLU:543:CB:4906, V-A:TYR:484:CE1:4344, V-B:HIS:456:CE1:9041, V-A:GLU:543:CD:4908, V-A:GLU:543:CG:4907, V-A:TYR:484:CZ:4346, H-A:GLU:543:OE1:4909, V-A:HIS:456:CD2:4067, H-B:GLU:543:OE2:9881, V-B:TYR:484:CE1:9316, V-A:ALA:541:CB:4892, H-B:GLU:543:OE1:9880, H-A:ALA:541:N:4891, V-B:TYR:484:CZ:9318, V-A:PRO:540:CA:4883, V-A:TYR:539:CE2:4876, V-A:TYR:539:CD2:4874, V-A:ASN:362:CB:3175, V-B:ASP:366:CG:8184"]

$$$$
4dd_Grossjean_2025
     RDKit          3D

 26 29  0  0  0  0  0  0  0  0999 V2000
  133.9650  125.4860   64.0180 C   0  0  0  0  0  0  0  0  0  0  0  0
  132.7760  124.5380   64.0780 C   0  0  0  0  0  0  0  0  0  0  0  0
  132.6960  123.5170   63.1240 C   0  0  0  0  0  0  0  0  0  0  0  0
  131.6280  122.6120   63.1260 C   0  0  0  0  0  0  0  0  0  0  0  0
  131.5140  121.5120   62.1120 C   0  0  0  0  0  0  0  0  0  0  0  0
  130.2780  120.8980   61.8530 C   0  0  0  0  0  0  0  0  0  0  0  0
  130.1640  119.8780   60.9110 C   0  0  0  0  0  0  0  0  0  0  0  0
  131.2900  119.4560   60.2140 C   0  0  0  0  0  0  0  0  0  0  0  0
  132.5260  120.0470   60.4490 C   0  0  0  0  0  0  0  0  0  0  0  0
  132.6350  121.0680   61.3900 C   0  0  0  0  0  0  0  0  0  0  0  0
  130.6220  122.6900   64.0390 N   0  0  0  0  0  0  0  0  0  0  0  0
  130.7000  123.6570   64.9520 C   0  0  0  0  0  0  0  0  0  0  0  0
  129.4860  123.8610   66.1950 S   0  0  0  0  0  0  0  0  0  0  0  0
  130.3450  125.2460   66.8730 C   0  0  0  0  0  0  0  0  0  0  0  0
  129.8210  125.9380   68.0520 C   0  0  0  0  0  0  0  0  0  0  0  0
  129.0050  125.3860   68.7930 O   0  0  0  0  0  0  0  0  0  0  0  0
  130.3020  127.1890   68.2530 N   0  0  0  0  0  0  0  0  0  0  0  0
  129.9690  128.1290   69.2450 C   0  0  0  0  0  0  0  0  0  0  0  0
  130.7040  128.0510   70.4310 C   0  0  0  0  0  0  0  0  0  0  0  0
  130.4600  128.9470   71.4690 C   0  0  0  0  0  0  0  0  0  0  0  0
  129.4840  129.9280   71.3170 C   0  0  0  0  0  0  0  0  0  0  0  0
  128.7540  130.0260   70.1360 C   0  0  0  0  0  0  0  0  0  0  0  0
  128.9950  129.1310   69.0970 C   0  0  0  0  0  0  0  0  0  0  0  0
  131.5140  125.5200   66.1470 C   0  0  0  0  0  0  0  0  0  0  0  0
  132.3760  126.5450   66.4470 N   0  0  0  0  0  0  0  0  0  0  0  0
  131.7410  124.6230   65.0450 C   0  0  0  0  0  0  0  0  0  0  0  0
  1  2  1  0
  2  3  2  0
  3  4  1  0
  4  5  1  0
  5  6  2  0
  6  7  1  0
  7  8  2  0
  8  9  1  0
  9 10  2  0
  4 11  2  0
 11 12  1  0
 12 13  1  0
 13 14  1  0
 14 15  1  0
 15 16  2  0
 15 17  1  0
 17 18  1  0
 18 19  2  0
 19 20  1  0
 20 21  2  0
 21 22  1  0
 22 23  2  0
 14 24  2  0
 24 25  1  0
 24 26  1  0
 26  2  1  0
 10  5  1  0
 26 12  2  0
 23 18  1  0
M  END
>  <Binding energies>  (60) 
[-7.52]

>  <Ligand effiencies>  (60) 
[-0.2593103448275862]

>  <Interactions>  (60) 
["V-B:TYR:539:CD2:9845, V-A:ARG:545:CD:4923, V-B:GLU:543:CD:9879, V-B:GLU:543:CG:9878, V-A:HIS:456:CE1:4069, V-B:TYR:539:CE2:9847, V-B:GLU:543:CB:9877, V-A:ARG:545:CZ:4926, V-A:ARG:545:CG:4922, V-B:ALA:541:CB:9863, V-A:GLU:543:CB:4906, V-A:TYR:484:CE1:4344, V-B:HIS:456:CE1:9041, V-A:GLU:543:CD:4908, V-A:GLU:543:CG:4907, V-A:LEU:475:CD2:4258, V-A:TYR:484:CZ:4346, H-A:GLU:543:OE2:4910, H-A:GLU:543:OE1:4909, V-B:GLU:543:CA:9875, V-A:GLU:543:C:4902, V-A:TRP:381:CH2:3371, V-A:ILE:369:CG2:3236, V-A:TRP:381:CZ2:3369, V-A:GLY:453:CA:4043, V-B:TYR:484:CE1:9316, V-A:GLU:543:CA:4904, V-A:TRP:381:CZ3:3370"]

$$$$
4dg_Grossjean_2025
     RDKit          3D

 27 30  0  0  0  0  0  0  0  0999 V2000
  133.9560  125.4800   64.0230 C   0  0  0  0  0  0  0  0  0  0  0  0
  132.7590  124.5430   64.0870 C   0  0  0  0  0  0  0  0  0  0  0  0
  132.6690  123.5200   63.1360 C   0  0  0  0  0  0  0  0  0  0  0  0
  131.5920  122.6250   63.1410 C   0  0  0  0  0  0  0  0  0  0  0  0
  131.4690  121.5160   62.1340 C   0  0  0  0  0  0  0  0  0  0  0  0
  132.5740  121.1170   61.3630 C   0  0  0  0  0  0  0  0  0  0  0  0
  132.4640  120.0930   60.4250 C   0  0  0  0  0  0  0  0  0  0  0  0
  131.2450  119.4500   60.2450 C   0  0  0  0  0  0  0  0  0  0  0  0
  130.1330  119.8280   60.9920 C   0  0  0  0  0  0  0  0  0  0  0  0
  130.2470  120.8530   61.9270 C   0  0  0  0  0  0  0  0  0  0  0  0
  130.6030  122.6970   64.0730 N   0  0  0  0  0  0  0  0  0  0  0  0
  130.6870  123.6710   64.9790 C   0  0  0  0  0  0  0  0  0  0  0  0
  129.4810  123.8800   66.2270 S   0  0  0  0  0  0  0  0  0  0  0  0
  130.3430  125.2680   66.8880 C   0  0  0  0  0  0  0  0  0  0  0  0
  129.7930  126.0000   68.0280 C   0  0  0  0  0  0  0  0  0  0  0  0
  129.0390  125.4560   68.8370 O   0  0  0  0  0  0  0  0  0  0  0  0
  130.1310  127.3040   68.1090 N   0  0  0  0  0  0  0  0  0  0  0  0
  129.7180  128.2210   69.1710 C   0  0  0  0  0  0  0  0  0  0  0  0
  130.2530  127.8370   70.5460 C   0  0  0  0  0  0  0  0  0  0  0  0
  129.4360  127.1380   71.4390 C   0  0  0  0  0  0  0  0  0  0  0  0
  129.9320  126.7580   72.6830 C   0  0  0  0  0  0  0  0  0  0  0  0
  131.2460  127.0680   73.0250 C   0  0  0  0  0  0  0  0  0  0  0  0
  132.0720  127.7490   72.1340 C   0  0  0  0  0  0  0  0  0  0  0  0
  131.5760  128.1290   70.8890 C   0  0  0  0  0  0  0  0  0  0  0  0
  131.5020  125.5480   66.1490 C   0  0  0  0  0  0  0  0  0  0  0  0
  132.3560  126.5840   66.4310 N   0  0  0  0  0  0  0  0  0  0  0  0
  131.7270  124.6390   65.0570 C   0  0  0  0  0  0  0  0  0  0  0  0
  1  2  1  0
  2  3  2  0
  3  4  1  0
  4  5  1  0
  5  6  2  0
  6  7  1  0
  7  8  2  0
  8  9  1  0
  9 10  2  0
  4 11  2  0
 11 12  1  0
 12 13  1  0
 13 14  1  0
 14 15  1  0
 15 16  2  0
 15 17  1  0
 17 18  1  0
 18 19  1  0
 19 20  2  0
 20 21  1  0
 21 22  2  0
 22 23  1  0
 23 24  2  0
 14 25  2  0
 25 26  1  0
 25 27  1  0
 27  2  1  0
 10  5  1  0
 27 12  2  0
 24 19  1  0
M  END
>  <Binding energies>  (61) 
[-7.8]

>  <Ligand effiencies>  (61) 
[-0.26]

>  <Interactions>  (61) 
["V-B:TYR:539:CD2:9845, V-A:ARG:545:CD:4923, V-B:GLU:543:CD:9879, V-B:GLU:543:CG:9878, V-A:HIS:456:CE1:4069, V-B:TYR:539:CE2:9847, V-B:GLU:543:CB:9877, V-A:ARG:545:CZ:4926, V-A:ARG:545:CG:4922, V-B:ALA:541:CB:9863, V-A:GLU:543:CB:4906, V-A:TYR:484:CE1:4344, V-B:HIS:456:CE1:9041, V-A:GLU:543:CD:4908, V-A:GLU:543:CG:4907, V-A:LEU:475:CD2:4258, V-A:TYR:484:CZ:4346, H-A:GLU:543:OE2:4910, H-A:GLU:543:OE1:4909, V-B:GLU:543:CA:9875, V-A:HIS:456:CG:4065, V-A:PRO:482:CB:4325, V-A:TRP:381:CH2:3371, V-A:ILE:369:CG2:3236, V-A:GLY:544:C:4912, V-A:ARG:545:CA:4919, V-A:TRP:381:CZ2:3369, V-A:HIS:456:CD2:4067, V-A:GLY:453:CA:4043, V-A:TRP:381:CZ3:3370"]

$$$$
4dj_Grossjean_2025
     RDKit          3D

 25 28  0  0  0  0  0  0  0  0999 V2000
  133.9730  125.4770   63.9900 C   0  0  0  0  0  0  0  0  0  0  0  0
  132.7670  124.5540   64.0620 C   0  0  0  0  0  0  0  0  0  0  0  0
  132.6630  123.5290   63.1140 C   0  0  0  0  0  0  0  0  0  0  0  0
  131.5760  122.6460   63.1250 C   0  0  0  0  0  0  0  0  0  0  0  0
  131.4410  121.5340   62.1240 C   0  0  0  0  0  0  0  0  0  0  0  0
  130.2260  120.8450   61.9730 C   0  0  0  0  0  0  0  0  0  0  0  0
  130.0940  119.8130   61.0470 C   0  0  0  0  0  0  0  0  0  0  0  0
  131.1820  119.4500   60.2590 C   0  0  0  0  0  0  0  0  0  0  0  0
  132.3970  120.1130   60.3900 C   0  0  0  0  0  0  0  0  0  0  0  0
  132.5240  121.1440   61.3160 C   0  0  0  0  0  0  0  0  0  0  0  0
  130.5890  122.7320   64.0580 N   0  0  0  0  0  0  0  0  0  0  0  0
  130.6860  123.7080   64.9600 C   0  0  0  0  0  0  0  0  0  0  0  0
  129.4850  123.9390   66.2110 S   0  0  0  0  0  0  0  0  0  0  0  0
  130.3640  125.3210   66.8660 C   0  0  0  0  0  0  0  0  0  0  0  0
  129.8440  126.0470   68.0260 C   0  0  0  0  0  0  0  0  0  0  0  0
  128.9170  125.5830   68.6960 O   0  0  0  0  0  0  0  0  0  0  0  0
  130.4400  127.2370   68.2850 N   0  0  0  0  0  0  0  0  0  0  0  0
  130.1360  128.1150   69.3150 C   0  0  0  0  0  0  0  0  0  0  0  0
  129.1000  128.9220   69.4100 N   0  0  0  0  0  0  0  0  0  0  0  0
  129.1280  129.6180   70.5300 C   0  0  0  0  0  0  0  0  0  0  0  0
  130.2070  129.3800   71.3760 C   0  0  0  0  0  0  0  0  0  0  0  0
  131.2360  128.1770   70.6550 S   0  0  0  0  0  0  0  0  0  0  0  0
  131.5310  125.5740   66.1290 C   0  0  0  0  0  0  0  0  0  0  0  0
  132.4070  126.5920   66.4110 N   0  0  0  0  0  0  0  0  0  0  0  0
  131.7400  124.6640   65.0350 C   0  0  0  0  0  0  0  0  0  0  0  0
  1  2  1  0
  2  3  2  0
  3  4  1  0
  4  5  1  0
  5  6  2  0
  6  7  1  0
  7  8  2  0
  8  9  1  0
  9 10  2  0
  4 11  2  0
 11 12  1  0
 12 13  1  0
 13 14  1  0
 14 15  1  0
 15 16  2  0
 15 17  1  0
 17 18  1  0
 18 19  2  0
 19 20  1  0
 20 21  2  0
 21 22  1  0
 14 23  2  0
 23 24  1  0
 23 25  1  0
 25  2  1  0
 10  5  1  0
 25 12  2  0
 22 18  1  0
M  END
>  <Binding energies>  (62) 
[-7.2]

>  <Ligand effiencies>  (62) 
[-0.2571428571428572]

>  <Interactions>  (62) 
["V-B:TYR:539:CD2:9845, V-A:ARG:545:CD:4923, V-B:GLU:543:CD:9879, V-B:GLU:543:CG:9878, V-A:HIS:456:CE1:4069, V-B:TYR:539:CE2:9847, V-B:GLU:543:CB:9877, V-A:ARG:545:CZ:4926, V-A:ARG:545:CG:4922, V-B:ALA:541:CB:9863, V-A:GLU:543:CB:4906, V-A:TYR:484:CE1:4344, V-B:HIS:456:CE1:9041, V-A:GLU:543:CD:4908, V-A:GLU:543:CG:4907, V-A:LEU:475:CD2:4258, V-A:TYR:484:CZ:4346, H-A:GLU:543:OE2:4910, H-A:GLU:543:OE1:4909, V-B:GLU:543:CA:9875, V-A:GLU:543:C:4902, V-A:PRO:482:CB:4325, V-A:TRP:381:CH2:3371, V-A:ILE:369:CG2:3236, V-A:PRO:482:CG:4326, V-A:TRP:381:CZ2:3369, V-A:GLY:453:CA:4043, V-A:TRP:381:CZ3:3370"]

$$$$
4ea_Grossjean_2025
     RDKit          3D

 31 34  0  0  0  0  0  0  0  0999 V2000
  128.7980  130.3910   72.4770 C   0  0  0  0  0  0  0  0  0  0  0  0
  129.6280  129.8780   73.6570 C   0  0  0  0  0  0  0  0  0  0  0  0
  130.1380  128.5870   73.3510 O   0  0  0  0  0  0  0  0  0  0  0  0
  129.3180  127.5930   72.9220 C   0  0  0  0  0  0  0  0  0  0  0  0
  128.5110  127.0140   73.6560 O   0  0  0  0  0  0  0  0  0  0  0  0
  129.4920  127.2670   71.4670 C   0  0  0  0  0  0  0  0  0  0  0  0
  130.4190  127.9950   70.7100 C   0  0  0  0  0  0  0  0  0  0  0  0
  130.6030  127.7180   69.3580 C   0  0  0  0  0  0  0  0  0  0  0  0
  129.8670  126.7090   68.7360 C   0  0  0  0  0  0  0  0  0  0  0  0
  130.1370  126.5180   67.3670 N   0  0  0  0  0  0  0  0  0  0  0  0
  130.1570  125.3820   66.6260 C   0  0  0  0  0  0  0  0  0  0  0  0
  129.9240  124.2590   67.0720 O   0  0  0  0  0  0  0  0  0  0  0  0
  130.4840  125.5680   65.2090 C   0  0  0  0  0  0  0  0  0  0  0  0
  130.1360  127.1010   64.4050 S   0  0  0  0  0  0  0  0  0  0  0  0
  130.7800  126.5080   62.8920 C   0  0  0  0  0  0  0  0  0  0  0  0
  130.8050  127.2640   61.7920 N   0  0  0  0  0  0  0  0  0  0  0  0
  131.3300  126.6860   60.6840 C   0  0  0  0  0  0  0  0  0  0  0  0
  131.3480  127.5630   59.4460 C   0  0  0  0  0  0  0  0  0  0  0  0
  131.8250  125.3850   60.6490 C   0  0  0  0  0  0  0  0  0  0  0  0
  131.7970  124.5960   61.8040 C   0  0  0  0  0  0  0  0  0  0  0  0
  132.3260  123.2150   61.7510 C   0  0  0  0  0  0  0  0  0  0  0  0
  131.6350  122.2230   61.0470 C   0  0  0  0  0  0  0  0  0  0  0  0
  132.1340  120.9240   60.9950 C   0  0  0  0  0  0  0  0  0  0  0  0
  133.3240  120.6160   61.6500 C   0  0  0  0  0  0  0  0  0  0  0  0
  134.0180  121.5950   62.3580 C   0  0  0  0  0  0  0  0  0  0  0  0
  133.5180  122.8930   62.4090 C   0  0  0  0  0  0  0  0  0  0  0  0
  131.2540  125.1650   62.9890 C   0  0  0  0  0  0  0  0  0  0  0  0
  131.0720  124.6530   64.3220 C   0  0  0  0  0  0  0  0  0  0  0  0
  131.4480  123.3820   64.6750 N   0  0  0  0  0  0  0  0  0  0  0  0
  128.9350  125.9750   69.4870 C   0  0  0  0  0  0  0  0  0  0  0  0
  128.7520  126.2540   70.8380 C   0  0  0  0  0  0  0  0  0  0  0  0
  1  2  1  0
  2  3  1  0
  3  4  1  0
  4  5  2  0
  4  6  1  0
  6  7  2  0
  7  8  1  0
  8  9  2  0
  9 10  1  0
 10 11  1  0
 11 12  2  0
 11 13  1  0
 13 14  1  0
 14 15  1  0
 15 16  2  0
 16 17  1  0
 17 18  1  0
 17 19  2  0
 19 20  1  0
 20 21  1  0
 21 22  2  0
 22 23  1  0
 23 24  2  0
 24 25  1  0
 25 26  2  0
 20 27  2  0
 27 28  1  0
 28 29  1  0
  9 30  1  0
 30 31  2  0
 31  6  1  0
 28 13  2  0
 27 15  1  0
 26 21  1  0
M  END
>  <Binding energies>  (63) 
[-7.49]

>  <Ligand effiencies>  (63) 
[-0.22029411764705883]

>  <Interactions>  (63) 
["V-B:TYR:539:CD2:9845, H-A:TYR:484:OH:4347, V-B:GLU:543:CG:9878, V-A:HIS:456:CE1:4069, V-B:TYR:539:CE2:9847, V-B:GLU:543:CB:9877, V-A:ILE:369:CD1:3238, V-A:GLU:543:CB:4906, V-B:HIS:456:CE1:9041, V-A:GLU:543:CD:4908, V-A:GLY:454:CA:4048, V-A:ASP:366:CG:3212, V-A:LEU:475:CD2:4258, V-A:TYR:484:CZ:4346, H-A:GLU:543:OE2:4910, V-A:ILE:369:CG2:3236, V-A:ASP:366:CB:3211, H-B:LYS:547:NZ:9922, H-A:LYS:547:NZ:4951, V-B:HIS:456:CG:9037, V-B:HIS:456:CD2:9039, V-A:LYS:547:CE:4950"]

$$$$
4eb_Grossjean_2025
     RDKit          3D

 30 33  0  0  0  0  0  0  0  0999 V2000
  129.7150  129.9570   73.5480 C   0  0  0  0  0  0  0  0  0  0  0  0
  130.2010  128.6250   73.6310 O   0  0  0  0  0  0  0  0  0  0  0  0
  129.4400  127.5760   73.2240 C   0  0  0  0  0  0  0  0  0  0  0  0
  128.7180  126.9250   73.9840 O   0  0  0  0  0  0  0  0  0  0  0  0
  129.5630  127.2890   71.7550 C   0  0  0  0  0  0  0  0  0  0  0  0
  130.4700  128.0320   70.9870 C   0  0  0  0  0  0  0  0  0  0  0  0
  130.6080  127.7900   69.6240 C   0  0  0  0  0  0  0  0  0  0  0  0
  129.8440  126.8030   68.9990 C   0  0  0  0  0  0  0  0  0  0  0  0
  130.0680  126.6460   67.6170 N   0  0  0  0  0  0  0  0  0  0  0  0
  130.0470  125.5320   66.8460 C   0  0  0  0  0  0  0  0  0  0  0  0
  129.8130  124.3990   67.2680 O   0  0  0  0  0  0  0  0  0  0  0  0
  130.3310  125.7500   65.4250 C   0  0  0  0  0  0  0  0  0  0  0  0
  129.9010  127.2790   64.6540 S   0  0  0  0  0  0  0  0  0  0  0  0
  130.5300  126.7350   63.1150 C   0  0  0  0  0  0  0  0  0  0  0  0
  130.4970  127.5080   62.0280 N   0  0  0  0  0  0  0  0  0  0  0  0
  131.0160  126.9690   60.8990 C   0  0  0  0  0  0  0  0  0  0  0  0
  130.9680  127.8650   59.6740 C   0  0  0  0  0  0  0  0  0  0  0  0
  131.5630  125.6900   60.8300 C   0  0  0  0  0  0  0  0  0  0  0  0
  131.5960  124.8830   61.9740 C   0  0  0  0  0  0  0  0  0  0  0  0
  132.1810  123.5250   61.8860 C   0  0  0  0  0  0  0  0  0  0  0  0
  131.4910  122.5050   61.2230 C   0  0  0  0  0  0  0  0  0  0  0  0
  132.0410  121.2280   61.1380 C   0  0  0  0  0  0  0  0  0  0  0  0
  133.2800  120.9710   61.7200 C   0  0  0  0  0  0  0  0  0  0  0  0
  133.9740  121.9810   62.3850 C   0  0  0  0  0  0  0  0  0  0  0  0
  133.4230  123.2560   62.4690 C   0  0  0  0  0  0  0  0  0  0  0  0
  131.0600  125.4120   63.1800 C   0  0  0  0  0  0  0  0  0  0  0  0
  130.9340  124.8740   64.5090 C   0  0  0  0  0  0  0  0  0  0  0  0
  131.3690  123.6140   64.8330 N   0  0  0  0  0  0  0  0  0  0  0  0
  128.9330  126.0540   69.7600 C   0  0  0  0  0  0  0  0  0  0  0  0
  128.7970  126.2970   71.1240 C   0  0  0  0  0  0  0  0  0  0  0  0
  1  2  1  0
  2  3  1  0
  3  4  2  0
  3  5  1  0
  5  6  2  0
  6  7  1  0
  7  8  2  0
  8  9  1  0
  9 10  1  0
 10 11  2  0
 10 12  1  0
 12 13  1  0
 13 14  1  0
 14 15  2  0
 15 16  1  0
 16 17  1  0
 16 18  2  0
 18 19  1  0
 19 20  1  0
 20 21  2  0
 21 22  1  0
 22 23  2  0
 23 24  1  0
 24 25  2  0
 19 26  2  0
 26 27  1  0
 27 28  1  0
  8 29  1  0
 29 30  2  0
 30  5  1  0
 27 12  2  0
 26 14  1  0
 25 20  1  0
M  END
>  <Binding energies>  (64) 
[-7.4]

>  <Ligand effiencies>  (64) 
[-0.22424242424242424]

>  <Interactions>  (64) 
["V-B:GLU:543:CD:9879, H-A:TYR:484:OH:4347, V-B:GLU:543:CG:9878, V-A:HIS:456:CE1:4069, V-B:TYR:539:CE2:9847, V-B:GLU:543:CB:9877, V-A:ILE:369:CD1:3238, V-A:GLU:543:CB:4906, V-B:HIS:456:CE1:9041, V-A:GLU:543:CD:4908, V-A:GLY:454:CA:4048, V-A:ASP:366:CG:3212, V-A:LEU:475:CD2:4258, V-A:TYR:484:CZ:4346, H-A:GLU:543:OE2:4910, V-A:ILE:369:CG2:3236, H-B:LYS:547:NZ:9922, H-A:LYS:547:NZ:4951, V-A:LYS:547:CE:4950"]

$$$$
8b_Ghoteimi_2023
     RDKit          3D

 34 38  0  0  0  0  0  0  0  0999 V2000
  129.8710  125.7400   75.1060 C   0  0  0  0  0  0  0  0  0  0  0  0
  128.7360  126.2200   74.3930 O   0  0  0  0  0  0  0  0  0  0  0  0
  128.7920  126.3020   73.0150 C   0  0  0  0  0  0  0  0  0  0  0  0
  129.4470  127.4110   72.4820 C   0  0  0  0  0  0  0  0  0  0  0  0
  129.5510  127.5770   71.1050 C   0  0  0  0  0  0  0  0  0  0  0  0
  129.0010  126.6370   70.2220 C   0  0  0  0  0  0  0  0  0  0  0  0
  129.1080  126.8120   68.7400 C   0  0  0  0  0  0  0  0  0  0  0  0
  129.7300  125.8570   67.9290 C   0  0  0  0  0  0  0  0  0  0  0  0
  129.8160  126.0440   66.5460 C   0  0  0  0  0  0  0  0  0  0  0  0
  130.4890  125.0180   65.7160 C   0  0  0  0  0  0  0  0  0  0  0  0
  131.7640  125.2570   65.2000 C   0  0  0  0  0  0  0  0  0  0  0  0
  132.3990  124.2870   64.4280 C   0  0  0  0  0  0  0  0  0  0  0  0
  131.7710  123.0700   64.1600 C   0  0  0  0  0  0  0  0  0  0  0  0
  132.4770  122.1680   63.3870 O   0  0  0  0  0  0  0  0  0  0  0  0
  133.5540  122.6360   62.5830 C   0  0  0  0  0  0  0  0  0  0  0  0
  130.4880  122.8350   64.6770 C   0  0  0  0  0  0  0  0  0  0  0  0
  129.8540  123.8040   65.4490 C   0  0  0  0  0  0  0  0  0  0  0  0
  129.2500  127.2240   65.9940 C   0  0  0  0  0  0  0  0  0  0  0  0
  129.1550  127.7240   64.6470 C   0  0  0  0  0  0  0  0  0  0  0  0
  129.6640  127.0400   63.5730 N   0  0  0  0  0  0  0  0  0  0  0  0
  128.4980  128.9600   64.5450 C   0  0  0  0  0  0  0  0  0  0  0  0
  128.2220  129.7490   63.3420 C   0  0  0  0  0  0  0  0  0  0  0  0
  127.2410  129.5000   62.6380 O   0  0  0  0  0  0  0  0  0  0  0  0
  129.1120  130.7400   63.0800 N   0  0  0  0  0  0  0  0  0  0  0  0
  129.0920  131.6340   62.0180 C   0  0  0  0  0  0  0  0  0  0  0  0
  128.1540  131.5730   60.9890 C   0  0  0  0  0  0  0  0  0  0  0  0
  128.4750  132.6150   60.1490 C   0  0  0  0  0  0  0  0  0  0  0  0
  129.5490  133.2710   60.6480 O   0  0  0  0  0  0  0  0  0  0  0  0
  129.9300  132.6420   61.8350 N   0  0  0  0  0  0  0  0  0  0  0  0
  127.9750  129.5370   66.1280 S   0  0  0  0  0  0  0  0  0  0  0  0
  128.6390  128.1230   66.9140 C   0  0  0  0  0  0  0  0  0  0  0  0
  128.5580  127.9470   68.2330 N   0  0  0  0  0  0  0  0  0  0  0  0
  128.3460  125.5230   70.7640 C   0  0  0  0  0  0  0  0  0  0  0  0
  128.2390  125.3540   72.1420 C   0  0  0  0  0  0  0  0  0  0  0  0
  1  2  1  0
  2  3  1  0
  3  4  2  0
  4  5  1  0
  5  6  2  0
  6  7  1  0
  7  8  2  0
  8  9  1  0
  9 10  1  0
 10 11  2  0
 11 12  1  0
 12 13  2  0
 13 14  1  0
 14 15  1  0
 13 16  1  0
 16 17  2  0
  9 18  2  0
 18 19  1  0
 19 20  1  0
 19 21  2  0
 21 22  1  0
 22 23  2  0
 22 24  1  0
 24 25  1  0
 25 26  1  0
 26 27  2  0
 27 28  1  0
 28 29  1  0
 21 30  1  0
 30 31  1  0
 31 32  2  0
  6 33  1  0
 33 34  2  0
 34  3  1  0
 32  7  1  0
 17 10  1  0
 31 18  1  0
 29 25  2  0
M  END
>  <Binding energies>  (65) 
[-8.24]

>  <Ligand effiencies>  (65) 
[-0.2227027027027027]

>  <Interactions>  (65) 
["V-B:GLU:543:CD:9879, V-B:GLU:543:CG:9878, V-A:HIS:456:CE1:4069, V-B:GLU:543:CB:9877, V-A:ILE:369:CD1:3238, V-B:ALA:541:CB:9863, V-A:TYR:484:CE1:4344, V-B:HIS:456:CE1:9041, V-A:GLU:543:CD:4908, V-A:GLY:454:CA:4048, V-A:GLU:543:CG:4907, V-B:GLU:543:C:9873, H-A:GLU:543:OE1:4909, V-A:ILE:369:CG2:3236, H-B:GLU:543:OE2:9881, H-B:LYS:547:NZ:9922, V-B:LYS:547:CE:9921, H-A:ALA:541:N:4891"]

$$$$
9d_Ghoteimi_2023
     RDKit          3D

 38 43  0  0  0  0  0  0  0  0999 V2000
  128.3890  133.3290   66.1350 C   0  0  0  0  0  0  0  0  0  0  0  0
  127.7180  132.6330   65.0940 O   0  0  0  0  0  0  0  0  0  0  0  0
  126.8310  131.6430   65.3770 C   0  0  0  0  0  0  0  0  0  0  0  0
  125.6310  131.8340   65.5930 O   0  0  0  0  0  0  0  0  0  0  0  0
  127.4540  130.3020   65.4070 C   0  0  0  0  0  0  0  0  0  0  0  0
  127.6580  129.3950   63.9090 S   0  0  0  0  0  0  0  0  0  0  0  0
  128.4230  128.0770   64.7650 C   0  0  0  0  0  0  0  0  0  0  0  0
  128.8780  127.0000   64.1250 N   0  0  0  0  0  0  0  0  0  0  0  0
  129.4720  126.0390   64.8800 C   0  0  0  0  0  0  0  0  0  0  0  0
  129.9990  124.8530   64.1370 C   0  0  0  0  0  0  0  0  0  0  0  0
  131.1470  124.1900   64.5810 C   0  0  0  0  0  0  0  0  0  0  0  0
  131.6470  123.0860   63.8960 C   0  0  0  0  0  0  0  0  0  0  0  0
  131.0070  122.5950   62.7460 C   0  0  0  0  0  0  0  0  0  0  0  0
  131.5060  121.4980   62.0370 N   0  0  0  0  0  0  0  0  0  0  0  0
  130.6970  120.8160   61.0070 C   0  0  0  0  0  0  0  0  0  0  0  0
  131.2550  119.4410   60.5840 C   0  0  0  0  0  0  0  0  0  0  0  0
  132.6040  119.5720   60.1670 O   0  0  0  0  0  0  0  0  0  0  0  0
  133.4250  120.0680   61.2110 C   0  0  0  0  0  0  0  0  0  0  0  0
  132.9340  121.4620   61.6570 C   0  0  0  0  0  0  0  0  0  0  0  0
  129.8640  123.2730   62.2970 C   0  0  0  0  0  0  0  0  0  0  0  0
  129.3670  124.3800   62.9810 C   0  0  0  0  0  0  0  0  0  0  0  0
  129.5790  126.1410   66.2690 C   0  0  0  0  0  0  0  0  0  0  0  0
  129.0850  127.2610   66.9480 C   0  0  0  0  0  0  0  0  0  0  0  0
  129.2000  127.3060   68.4290 C   0  0  0  0  0  0  0  0  0  0  0  0
  128.4510  126.4410   69.2290 C   0  0  0  0  0  0  0  0  0  0  0  0
  128.5760  126.4750   70.6160 C   0  0  0  0  0  0  0  0  0  0  0  0
  129.4660  127.3640   71.2380 C   0  0  0  0  0  0  0  0  0  0  0  0
  129.6030  127.4240   72.6260 N   0  0  0  0  0  0  0  0  0  0  0  0
  129.4170  128.7180   73.3110 C   0  0  0  0  0  0  0  0  0  0  0  0
  129.2080  128.5770   74.8340 C   0  0  0  0  0  0  0  0  0  0  0  0
  130.2840  127.8500   75.4080 O   0  0  0  0  0  0  0  0  0  0  0  0
  130.3900  126.5460   74.8550 C   0  0  0  0  0  0  0  0  0  0  0  0
  130.6330  126.6390   73.3330 C   0  0  0  0  0  0  0  0  0  0  0  0
  130.2120  128.2290   70.4240 C   0  0  0  0  0  0  0  0  0  0  0  0
  130.0860  128.1960   69.0390 C   0  0  0  0  0  0  0  0  0  0  0  0
  128.4960  128.2990   66.1720 C   0  0  0  0  0  0  0  0  0  0  0  0
  127.9510  129.5890   66.5060 C   0  0  0  0  0  0  0  0  0  0  0  0
  127.9410  130.0860   67.7840 N   0  0  0  0  0  0  0  0  0  0  0  0
  1  2  1  0
  2  3  1  0
  3  4  2  0
  3  5  1  0
  5  6  1  0
  6  7  1  0
  7  8  2  0
  8  9  1  0
  9 10  1  0
 10 11  2  0
 11 12  1  0
 12 13  2  0
 13 14  1  0
 14 15  1  0
 15 16  1  0
 16 17  1  0
 17 18  1  0
 18 19  1  0
 13 20  1  0
 20 21  2  0
  9 22  2  0
 22 23  1  0
 23 24  1  0
 24 25  2  0
 25 26  1  0
 26 27  2  0
 27 28  1  0
 28 29  1  0
 29 30  1  0
 30 31  1  0
 31 32  1  0
 32 33  1  0
 27 34  1  0
 34 35  2  0
 23 36  2  0
 36 37  1  0
 37 38  1  0
 37  5  2  0
 36  7  1  0
 21 10  1  0
 35 24  1  0
 19 14  1  0
 33 28  1  0
M  END
>  <Binding energies>  (66) 
[-7.76]

>  <Ligand effiencies>  (66) 
[-0.194]

>  <Interactions>  (66) 
["V-B:TYR:539:CD2:9845, V-B:GLU:543:CD:9879, V-B:GLU:543:CG:9878, V-A:HIS:456:CE1:4069, V-B:TYR:539:CE2:9847, V-B:GLU:543:CB:9877, V-B:ALA:541:CB:9863, V-A:GLU:543:CB:4906, V-B:HIS:456:CE1:9041, V-A:GLU:543:CD:4908, V-A:GLU:543:CG:4907, V-A:LEU:475:CD2:4258, V-A:HIS:456:CG:4065, V-A:TRP:381:CH2:3371, V-A:ILE:369:CG2:3236, V-A:TRP:381:CZ2:3369, V-A:HIS:456:CD2:4067, H-A:LYS:547:NZ:4951, V-B:TYR:484:CE1:9316, V-A:ALA:541:CB:4892, V-B:TYR:484:CZ:9318, V-A:GLU:543:CA:4904, V-A:LYS:547:CE:4950, H-B:TYR:484:OH:9319, V-A:TRP:381:CZ3:3370, V-B:LEU:475:CD1:9229, V-B:LEU:475:CD2:9230, V-B:LEU:475:CG:9228"]

$$$$
RR10_Rahimova_2017
     RDKit          3D

 34 38  0  0  0  0  0  0  0  0999 V2000
  134.3490  132.2060   60.8460 C   0  0  0  0  0  0  0  0  0  0  0  0
  132.8470  131.8750   60.7780 C   0  0  1  0  0  0  0  0  0  0  0  0
  132.4920  131.0680   59.5080 C   0  0  0  0  0  0  0  0  0  0  0  0
  130.9750  130.7780   59.4430 C   0  0  0  0  0  0  0  0  0  0  0  0
  130.4740  130.0070   60.6910 C   0  0  1  0  0  0  0  0  0  0  0  0
  131.0170  128.6420   60.7130 N   0  0  0  0  0  0  0  0  0  0  0  0
  130.2880  127.5120   60.6580 C   0  0  0  0  0  0  0  0  0  0  0  0
  129.0590  127.5090   60.5600 O   0  0  0  0  0  0  0  0  0  0  0  0
  131.0650  126.1810   60.7400 C   0  0  1  0  0  0  0  0  0  0  0  0
  132.0360  126.0780   59.5350 C   0  0  0  0  0  0  0  0  0  0  0  0
  132.8830  124.7890   59.6620 C   0  0  0  0  0  0  0  0  0  0  0  0
  133.5750  124.6680   61.0400 C   0  0  0  0  0  0  0  0  0  0  0  0
  132.5880  124.8420   62.1400 N   0  0  0  0  0  0  0  0  0  0  0  0
  133.2040  124.4300   63.7490 S   0  0  0  0  0  0  0  0  0  0  0  0
  134.4070  125.2340   63.9970 O   0  0  0  0  0  0  0  0  0  0  0  0
  133.2590  122.9660   63.8500 O   0  0  0  0  0  0  0  0  0  0  0  0
  131.9500  125.0130   64.8910 C   0  0  0  0  0  0  0  0  0  0  0  0
  130.6080  124.6970   64.6540 C   0  0  0  0  0  0  0  0  0  0  0  0
  129.5830  125.1230   65.5040 C   0  0  0  0  0  0  0  0  0  0  0  0
  129.9670  125.8830   66.6120 C   0  0  0  0  0  0  0  0  0  0  0  0
  129.2790  126.4740   67.6450 N   0  0  0  0  0  0  0  0  0  0  0  0
  130.1960  127.1080   68.4580 C   0  0  0  0  0  0  0  0  0  0  0  0
  129.8210  127.8770   69.6920 C   0  0  0  0  0  0  0  0  0  0  0  0
  129.4460  129.2240   69.6020 C   0  0  0  0  0  0  0  0  0  0  0  0
  129.0950  129.9370   70.7450 C   0  0  0  0  0  0  0  0  0  0  0  0
  129.1170  129.3060   71.9860 C   0  0  0  0  0  0  0  0  0  0  0  0
  129.4860  127.9680   72.0930 C   0  0  0  0  0  0  0  0  0  0  0  0
  129.8380  127.2560   70.9490 C   0  0  0  0  0  0  0  0  0  0  0  0
  131.4270  126.9590   68.0210 N   0  0  0  0  0  0  0  0  0  0  0  0
  131.3180  126.2090   66.8790 C   0  0  0  0  0  0  0  0  0  0  0  0
  132.3250  125.7660   66.0100 C   0  0  0  0  0  0  0  0  0  0  0  0
  131.8490  126.1280   62.0740 C   0  0  0  0  0  0  0  0  0  0  0  0
  130.8530  130.8190   61.9590 C   0  0  0  0  0  0  0  0  0  0  0  0
  132.3700  131.1050   62.0320 C   0  0  0  0  0  0  0  0  0  0  0  0
  2  1  1  1
  2  3  1  0
  3  4  1  0
  4  5  1  0
  5  6  1  1
  6  7  1  0
  7  8  2  0
  9  7  1  6
  9 10  1  0
 10 11  1  0
 11 12  1  0
 12 13  1  0
 13 14  1  0
 14 15  2  0
 14 16  2  0
 14 17  1  0
 17 18  2  0
 18 19  1  0
 19 20  2  0
 20 21  1  0
 21 22  1  0
 22 23  1  0
 23 24  2  0
 24 25  1  0
 25 26  2  0
 26 27  1  0
 27 28  2  0
 22 29  2  0
 29 30  1  0
 30 31  2  0
 13 32  1  0
  5 33  1  0
 33 34  1  0
 34  2  1  0
 32  9  1  0
 31 17  1  0
 30 20  1  0
 28 23  1  0
M  END
>  <Binding energies>  (67) 
[-8.76]

>  <Ligand effiencies>  (67) 
[-0.24333333333333332]

>  <Interactions>  (67) 
["H-A:HIS:456:ND1:4066, V-B:GLU:543:CD:9879, H-A:TYR:484:OH:4347, H-A:GLY:454:N:4049, V-B:GLU:543:CG:9878, V-A:HIS:456:CE1:4069, H-A:ARG:545:NH1:4927, V-B:GLU:543:CB:9877, V-A:ILE:369:CD1:3238, V-A:ARG:545:CZ:4926, V-A:GLU:543:CB:4906, V-B:HIS:456:CE1:9041, V-A:GLU:543:CD:4908, H-A:ARG:545:NH2:4928, V-A:GLY:454:CA:4048, V-A:GLU:543:CG:4907, V-A:ASP:366:CG:3212, V-A:GLU:543:C:4902, V-A:ILE:369:CG2:3236, H-A:ASP:366:OD1:3213, V-A:ASP:366:CB:3211, V-A:ASP:366:CA:3209, H-A:ASP:366:OD2:3214, V-B:TYR:484:CE1:9316, V-B:HIS:456:CD2:9039, H-B:GLU:543:OE1:9880, V-A:PRO:540:CA:4883, V-A:GLU:543:CA:4904, V-A:PRO:540:CB:4885, V-A:ASN:362:C:3171, V-A:ASN:362:CB:3175, V-A:LEU:363:CB:3186, V-A:LEU:363:CA:3184, V-A:ASN:362:CA:3173"]

$$$$
RR12_Rahimova_2017
     RDKit          3D

 26 28  0  0  0  0  0  0  0  0999 V2000
  130.3110  119.0930   60.9700 C   0  0  0  0  0  0  0  0  0  0  0  0
  130.2550  120.4930   61.5940 C   0  0  0  0  0  0  0  0  0  0  0  0
  130.3640  121.6140   60.5440 C   0  0  0  0  0  0  0  0  0  0  0  0
  129.2300  122.5300   60.6440 N   0  0  0  0  0  0  0  0  0  0  0  0
  128.9630  123.4340   61.6600 C   0  0  0  0  0  0  0  0  0  0  0  0
  129.8200  123.5870   62.9050 C   0  0  0  0  0  0  0  0  0  0  0  0
  129.0520  123.2380   64.1930 C   0  0  0  0  0  0  0  0  0  0  0  0
  129.9870  122.9080   65.3720 C   0  0  0  0  0  0  0  0  0  0  0  0
  131.2180  123.6960   65.3880 N   0  0  0  0  0  0  0  0  0  0  0  0
  131.2740  125.0400   65.4270 C   0  0  0  0  0  0  0  0  0  0  0  0
  130.2720  125.7570   65.4510 O   0  0  0  0  0  0  0  0  0  0  0  0
  132.6840  125.6450   65.4470 C   0  0  0  0  0  0  0  0  0  0  0  0
  133.6000  124.7380   64.8320 O   0  0  0  0  0  0  0  0  0  0  0  0
  133.3930  124.3520   63.5210 C   0  0  0  0  0  0  0  0  0  0  0  0
  133.1190  125.3740   62.6090 C   0  0  0  0  0  0  0  0  0  0  0  0
  132.9000  125.0830   61.2650 C   0  0  0  0  0  0  0  0  0  0  0  0
  132.9560  123.7630   60.8280 C   0  0  0  0  0  0  0  0  0  0  0  0
  133.2260  122.7310   61.7240 C   0  0  0  0  0  0  0  0  0  0  0  0
  133.4440  123.0230   63.0690 C   0  0  0  0  0  0  0  0  0  0  0  0
  127.8790  124.1410   61.4550 N   0  0  0  0  0  0  0  0  0  0  0  0
  127.4090  123.7180   60.2420 C   0  0  0  0  0  0  0  0  0  0  0  0
  126.2780  124.1530   59.5340 C   0  0  0  0  0  0  0  0  0  0  0  0
  126.0110  123.5630   58.2980 C   0  0  0  0  0  0  0  0  0  0  0  0
  126.8400  122.5710   57.7740 C   0  0  0  0  0  0  0  0  0  0  0  0
  127.9710  122.1160   58.4550 C   0  0  0  0  0  0  0  0  0  0  0  0
  128.2380  122.7070   59.6960 C   0  0  0  0  0  0  0  0  0  0  0  0
  1  2  1  0
  2  3  1  0
  3  4  1  0
  4  5  1  0
  5  6  1  0
  6  7  1  0
  7  8  1  0
  8  9  1  0
  9 10  1  0
 10 11  2  0
 10 12  1  0
 12 13  1  0
 13 14  1  0
 14 15  2  0
 15 16  1  0
 16 17  2  0
 17 18  1  0
 18 19  2  0
  5 20  2  0
 20 21  1  0
 21 22  2  0
 22 23  1  0
 23 24  2  0
 24 25  1  0
 25 26  2  0
 26  4  1  0
 19 14  1  0
 26 21  1  0
M  END
>  <Binding energies>  (68) 
[-6.06]

>  <Ligand effiencies>  (68) 
[-0.22444444444444442]

>  <Interactions>  (68) 
["V-B:TYR:539:CD2:9845, V-B:GLU:543:CD:9879, V-B:PRO:540:CA:9854, H-A:TYR:484:OH:4347, V-B:PRO:540:N:9855, H-A:GLY:454:N:4049, V-B:GLU:543:CG:9878, V-B:TYR:539:CE2:9847, V-A:ILE:369:CD1:3238, V-B:TYR:539:C:9838, V-A:ARG:545:CZ:4926, V-B:ALA:541:CB:9863, V-A:TYR:484:CE1:4344, V-A:GLY:454:CA:4048, V-A:ASP:366:CG:3212, V-A:LEU:475:CD2:4258, V-A:TYR:484:CZ:4346, V-A:PRO:482:CB:4325, V-A:TRP:381:CH2:3371, V-A:ILE:369:CG2:3236, V-A:PRO:482:CG:4326, V-A:TRP:381:CZ2:3369, V-B:PRO:540:CB:9856, V-B:TYR:539:CZ:9848, V-B:PRO:540:CD:9858, V-B:TYR:539:CD1:9844, V-B:TYR:539:CG:9843, V-A:TRP:381:CZ3:3370"]

$$$$
RR13_Rahimova_2017
     RDKit          3D

 48 54  0  0  0  0  0  0  0  0999 V2000
  128.6960  131.0690   63.8250 Cl  0  0  0  0  0  0  0  0  0  0  0  0
  128.0470  131.8080   62.4010 C   0  0  0  0  0  0  0  0  0  0  0  0
  126.9230  132.6240   62.5460 C   0  0  0  0  0  0  0  0  0  0  0  0
  126.3410  133.2300   61.4360 C   0  0  0  0  0  0  0  0  0  0  0  0
  126.8800  133.0210   60.1690 C   0  0  0  0  0  0  0  0  0  0  0  0
  128.0020  132.2080   60.0160 C   0  0  0  0  0  0  0  0  0  0  0  0
  128.6100  131.5980   61.1250 C   0  0  0  0  0  0  0  0  0  0  0  0
  129.8370  130.6820   60.9260 C   0  0  1  0  0  0  0  0  0  0  0  0
  131.1370  131.4130   61.2950 C   0  0  0  0  0  0  0  0  0  0  0  0
  131.3540  132.1330   62.3730 N   0  0  0  0  0  0  0  0  0  0  0  0
  132.6550  132.6120   62.2560 N   0  0  0  0  0  0  0  0  0  0  0  0
  133.2150  132.1790   61.0700 N   0  0  0  0  0  0  0  0  0  0  0  0
  132.2500  131.4620   60.4830 N   0  0  0  0  0  0  0  0  0  0  0  0
  132.4940  130.8030   59.2060 C   0  0  0  0  0  0  0  0  0  0  0  0
  132.3180  131.8030   58.0470 C   0  0  0  0  0  0  0  0  0  0  0  0
  130.8930  131.8250   57.5180 C   0  0  0  0  0  0  0  0  0  0  0  0
  130.1220  130.6590   57.5410 C   0  0  0  0  0  0  0  0  0  0  0  0
  128.8200  130.6780   57.0500 C   0  0  0  0  0  0  0  0  0  0  0  0
  128.2920  131.8620   56.5380 C   0  0  0  0  0  0  0  0  0  0  0  0
  129.0550  133.0260   56.5110 C   0  0  0  0  0  0  0  0  0  0  0  0
  130.3590  133.0090   57.0020 C   0  0  0  0  0  0  0  0  0  0  0  0
  129.7130  129.3720   61.6080 N   0  0  0  0  0  0  0  0  0  0  0  0
  130.9580  128.5950   61.4680 C   0  0  0  0  0  0  0  0  0  0  0  0
  130.8840  127.2860   62.2880 C   0  0  0  0  0  0  0  0  0  0  0  0
  129.7820  126.4350   61.8100 N   0  0  0  0  0  0  0  0  0  0  0  0
  129.7250  125.1330   62.5140 C   0  0  1  0  0  0  0  0  0  0  0  0
  129.7840  125.2060   64.0550 C   0  0  0  0  0  0  0  0  0  0  0  0
  129.4490  126.4290   64.6520 C   0  0  0  0  0  0  0  0  0  0  0  0
  129.4590  126.5820   66.0380 C   0  0  0  0  0  0  0  0  0  0  0  0
  129.8120  125.5100   66.8510 C   0  0  0  0  0  0  0  0  0  0  0  0
  130.1640  124.2910   66.2790 C   0  0  0  0  0  0  0  0  0  0  0  0
  130.1610  124.1280   64.8910 C   0  0  0  0  0  0  0  0  0  0  0  0
  130.6810  122.5960   64.2740 Cl  0  0  0  0  0  0  0  0  0  0  0  0
  128.5450  124.2630   62.0740 C   0  0  0  0  0  0  0  0  0  0  0  0
  127.4860  123.9920   62.8010 N   0  0  0  0  0  0  0  0  0  0  0  0
  126.6720  123.1910   62.0070 N   0  0  0  0  0  0  0  0  0  0  0  0
  127.2580  122.9960   60.7730 N   0  0  0  0  0  0  0  0  0  0  0  0
  128.4040  123.6850   60.8300 N   0  0  0  0  0  0  0  0  0  0  0  0
  129.3110  123.6890   59.6870 C   0  0  0  0  0  0  0  0  0  0  0  0
  130.7400  123.3280   60.1340 C   0  0  0  0  0  0  0  0  0  0  0  0
  130.8640  121.8650   60.5310 C   0  0  0  0  0  0  0  0  0  0  0  0
  129.7300  121.1490   60.9220 C   0  0  0  0  0  0  0  0  0  0  0  0
  129.8430  119.8080   61.2790 C   0  0  0  0  0  0  0  0  0  0  0  0
  131.0910  119.1870   61.2430 C   0  0  0  0  0  0  0  0  0  0  0  0
  132.2260  119.8960   60.8530 C   0  0  0  0  0  0  0  0  0  0  0  0
  132.1130  121.2370   60.4950 C   0  0  0  0  0  0  0  0  0  0  0  0
  128.5380  127.2130   61.9570 C   0  0  0  0  0  0  0  0  0  0  0  0
  128.6140  128.5160   61.1270 C   0  0  0  0  0  0  0  0  0  0  0  0
  1  2  1  0
  2  3  2  0
  3  4  1  0
  4  5  2  0
  5  6  1  0
  6  7  2  0
  7  8  1  0
  8  9  1  0
  9 10  2  0
 10 11  1  0
 11 12  2  0
 12 13  1  0
 13 14  1  0
 14 15  1  0
 15 16  1  0
 16 17  2  0
 17 18  1  0
 18 19  2  0
 19 20  1  0
 20 21  2  0
  8 22  1  1
 22 23  1  0
 23 24  1  0
 24 25  1  0
 26 25  1  6
 26 27  1  0
 27 28  2  0
 28 29  1  0
 29 30  2  0
 30 31  1  0
 31 32  2  0
 32 33  1  0
 26 34  1  0
 34 35  2  0
 35 36  1  0
 36 37  2  0
 37 38  1  0
 38 39  1  0
 39 40  1  0
 40 41  1  0
 41 42  2  0
 42 43  1  0
 43 44  2  0
 44 45  1  0
 45 46  2  0
 25 47  1  0
 47 48  1  0
  7  2  1  0
 13  9  1  0
 21 16  1  0
 48 22  1  0
 32 27  1  0
 38 34  1  0
 46 41  1  0
M  END
>  <Binding energies>  (69) 
[-11.41]

>  <Ligand effiencies>  (69) 
[-0.23770833333333333]

>  <Interactions>  (69) 
["V-B:TYR:539:CD2:9845, V-B:GLU:543:CD:9879, V-B:GLU:543:CG:9878, V-A:HIS:456:CE1:4069, V-B:TYR:539:CE2:9847, V-B:GLU:543:CB:9877, V-B:ALA:541:CB:9863, V-A:TYR:484:CE1:4344, V-A:GLU:543:CD:4908, V-A:GLU:543:CG:4907, V-A:ASP:366:CG:3212, V-A:LEU:475:CD2:4258, V-A:TYR:484:CZ:4346, V-A:PRO:482:CB:4325, V-A:TRP:381:CH2:3371, V-A:ILE:369:CG2:3236, V-A:PRO:482:CG:4326, V-A:TRP:381:CZ2:3369, H-B:ALA:541:N:9862, V-A:ASP:366:CB:3211, H-A:ALA:541:N:4891, V-A:TYR:539:C:4867, V-A:PRO:540:CA:4883, V-A:TYR:539:CE2:4876, V-A:TYR:539:CD2:4874, V-A:PRO:540:N:4884, V-A:PRO:540:CB:4885, V-A:LEU:363:CD1:3188, V-A:MET:535:CE:4835, V-A:TYR:539:CZ:4877, V-A:TYR:539:CG:4872, V-A:TYR:539:CA:4869, V-A:TYR:539:CD1:4873, V-A:TYR:539:CE1:4875"]

$$$$
RR14_Rahimova_2017
     RDKit          3D

 39 43  0  0  0  0  0  0  0  0999 V2000
  129.5040  123.9750   74.3550 C   0  0  0  0  0  0  0  0  0  0  0  0
  128.7370  125.1210   74.0030 O   0  0  0  0  0  0  0  0  0  0  0  0
  129.0950  125.8530   72.8870 C   0  0  0  0  0  0  0  0  0  0  0  0
  130.2230  126.6660   73.0110 C   0  0  0  0  0  0  0  0  0  0  0  0
  130.6450  127.4580   71.9480 C   0  0  0  0  0  0  0  0  0  0  0  0
  129.9350  127.4480   70.7450 C   0  0  0  0  0  0  0  0  0  0  0  0
  130.3550  128.3630   69.6010 C   0  0  0  0  0  0  0  0  0  0  0  0
  129.4200  128.3520   68.4770 N   0  0  0  0  0  0  0  0  0  0  0  0
  128.5380  129.3450   68.3210 N   0  0  0  0  0  0  0  0  0  0  0  0
  127.8110  128.9980   67.1990 N   0  0  0  0  0  0  0  0  0  0  0  0
  128.2650  127.7840   66.6930 N   0  0  0  0  0  0  0  0  0  0  0  0
  129.2370  127.4070   67.4900 C   0  0  0  0  0  0  0  0  0  0  0  0
  130.0330  126.1160   67.3530 C   0  0  0  0  0  0  0  0  0  0  0  0
  130.0110  125.5850   65.9800 N   0  0  0  0  0  0  0  0  0  0  0  0
  131.2170  125.9570   65.2280 C   0  0  0  0  0  0  0  0  0  0  0  0
  132.4620  125.1320   65.6190 C   0  0  0  0  0  0  0  0  0  0  0  0
  133.7160  125.4700   64.7860 C   0  0  0  0  0  0  0  0  0  0  0  0
  133.8070  124.7060   63.5370 N   0  0  0  0  0  0  0  0  0  0  0  0
  133.1880  125.4540   62.4350 C   0  0  0  0  0  0  0  0  0  0  0  0
  133.2200  124.6550   61.1150 C   0  0  0  0  0  0  0  0  0  0  0  0
  132.6230  123.3760   61.3030 O   0  0  0  0  0  0  0  0  0  0  0  0
  133.2950  122.6070   62.2940 C   0  0  0  0  0  0  0  0  0  0  0  0
  133.2630  123.3440   63.6500 C   0  0  0  0  0  0  0  0  0  0  0  0
  129.8520  124.1240   66.0060 C   0  0  0  0  0  0  0  0  0  0  0  0
  129.8260  123.4280   64.6470 C   0  0  0  0  0  0  0  0  0  0  0  0
  129.0570  123.8990   63.6340 C   0  0  0  0  0  0  0  0  0  0  0  0
  128.9840  123.2220   62.3230 C   0  0  0  0  0  0  0  0  0  0  0  0
  128.2140  123.6930   61.2460 C   0  0  0  0  0  0  0  0  0  0  0  0
  127.3820  124.9640   61.3550 C   0  0  0  0  0  0  0  0  0  0  0  0
  128.2150  122.9780   60.0460 C   0  0  0  0  0  0  0  0  0  0  0  0
  128.9680  121.8120   59.9120 C   0  0  0  0  0  0  0  0  0  0  0  0
  129.7390  121.3370   60.9770 C   0  0  0  0  0  0  0  0  0  0  0  0
  130.5530  120.0620   60.7990 C   0  0  0  0  0  0  0  0  0  0  0  0
  129.7450  122.0470   62.1880 C   0  0  0  0  0  0  0  0  0  0  0  0
  130.5050  121.6040   63.2900 N   0  0  0  0  0  0  0  0  0  0  0  0
  130.6030  122.1910   64.5090 C   0  0  0  0  0  0  0  0  0  0  0  0
  131.2950  121.6850   65.3920 O   0  0  0  0  0  0  0  0  0  0  0  0
  128.8230  126.6160   70.6010 C   0  0  0  0  0  0  0  0  0  0  0  0
  128.4010  125.8260   71.6660 C   0  0  0  0  0  0  0  0  0  0  0  0
  1  2  1  0
  2  3  1  0
  3  4  2  0
  4  5  1  0
  5  6  2  0
  6  7  1  0
  7  8  1  0
  8  9  1  0
  9 10  2  0
 10 11  1  0
 11 12  2  0
 12 13  1  0
 13 14  1  0
 14 15  1  0
 15 16  1  0
 16 17  1  0
 17 18  1  0
 18 19  1  0
 19 20  1  0
 20 21  1  0
 21 22  1  0
 22 23  1  0
 14 24  1  0
 24 25  1  0
 25 26  2  0
 26 27  1  0
 27 28  2  0
 28 29  1  0
 28 30  1  0
 30 31  2  0
 31 32  1  0
 32 33  1  0
 32 34  2  0
 34 35  1  0
 35 36  1  0
 36 37  2  0
  6 38  1  0
 38 39  2  0
 39  3  1  0
 12  8  1  0
 23 18  1  0
 36 25  1  0
 34 27  1  0
M  END
>  <Binding energies>  (70) 
[-9.18]

>  <Ligand effiencies>  (70) 
[-0.22949999999999998]

>  <Interactions>  (70) 
["V-B:TYR:539:CD2:9845, V-A:ARG:545:CD:4923, V-B:GLU:543:CD:9879, V-B:PRO:540:CA:9854, H-A:TYR:484:OH:4347, H-A:GLY:454:N:4049, V-B:GLU:543:CG:9878, V-A:HIS:456:CE1:4069, V-B:TYR:539:CE2:9847, V-B:GLU:543:CB:9877, V-A:ILE:369:CD1:3238, V-B:TYR:539:C:9838, V-A:ARG:545:CZ:4926, V-B:ALA:541:CB:9863, V-A:GLU:543:CB:4906, V-A:TYR:484:CE1:4344, V-B:HIS:456:CE1:9041, V-A:GLU:543:CD:4908, V-A:GLY:454:CA:4048, V-A:GLU:543:CG:4907, V-A:ASP:366:CG:3212, V-A:LEU:475:CD2:4258, V-A:TYR:484:CZ:4346, V-A:TRP:381:CH2:3371, V-A:ILE:369:CG2:3236, V-A:HIS:456:CD2:4067, V-A:GLY:453:CA:4043, H-B:LYS:547:NZ:9922, V-B:LYS:547:CE:9921, V-A:LEU:475:CD1:4257"]

$$$$
RR15_Rahimova_2017
     RDKit          3D

 45 49  0  0  0  0  0  0  0  0999 V2000
  129.2200  128.8940   74.2260 C   0  0  0  0  0  0  0  0  0  0  0  0
  130.2240  128.1090   73.5910 O   0  0  0  0  0  0  0  0  0  0  0  0
  130.1020  127.8040   72.2470 C   0  0  0  0  0  0  0  0  0  0  0  0
  130.7160  128.5410   71.2220 C   0  0  0  0  0  0  0  0  0  0  0  0
  130.5500  128.1800   69.8870 C   0  0  0  0  0  0  0  0  0  0  0  0
  129.7660  127.0770   69.5370 C   0  0  0  0  0  0  0  0  0  0  0  0
  129.5810  126.6910   68.0950 C   0  0  0  0  0  0  0  0  0  0  0  0
  129.7070  125.4450   67.6600 N   0  0  0  0  0  0  0  0  0  0  0  0
  129.4770  125.4890   66.3010 N   0  0  0  0  0  0  0  0  0  0  0  0
  129.1940  126.7720   66.0720 N   0  0  0  0  0  0  0  0  0  0  0  0
  129.0410  127.3020   64.7180 C   0  0  0  0  0  0  0  0  0  0  0  0
  129.6200  126.4010   63.5990 C   0  0  0  0  0  0  0  0  0  0  0  0
  130.8210  126.1220   63.6390 O   0  0  0  0  0  0  0  0  0  0  0  0
  128.7930  125.9160   62.6230 N   0  0  0  0  0  0  0  0  0  0  0  0
  127.7930  126.7810   61.9660 C   0  0  0  0  0  0  0  0  0  0  0  0
  128.4150  127.8860   61.0850 C   0  0  0  0  0  0  0  0  0  0  0  0
  128.1800  129.3290   61.5920 C   0  0  0  0  0  0  0  0  0  0  0  0
  129.1420  130.3020   61.0670 N   0  0  0  0  0  0  0  0  0  0  0  0
  128.5530  131.6200   60.7880 C   0  0  0  0  0  0  0  0  0  0  0  0
  129.6220  132.6300   60.3210 C   0  0  0  0  0  0  0  0  0  0  0  0
  130.6780  132.7030   61.2740 O   0  0  0  0  0  0  0  0  0  0  0  0
  131.3200  131.4480   61.4690 C   0  0  0  0  0  0  0  0  0  0  0  0
  130.2970  130.4060   61.9710 C   0  0  0  0  0  0  0  0  0  0  0  0
  128.9500  124.5620   62.0090 C   0  0  2  0  0  0  0  0  0  0  0  0
  127.6110  123.9200   61.5300 C   0  0  0  0  0  0  0  0  0  0  0  0
  127.0170  123.0950   62.2240 O   0  0  0  0  0  0  0  0  0  0  0  0
  127.1460  124.3590   60.3470 N   0  0  0  0  0  0  0  0  0  0  0  0
  125.8700  123.9820   59.7490 C   0  0  0  0  0  0  0  0  0  0  0  0
  125.8810  124.2070   58.2260 C   0  0  2  0  0  0  0  0  0  0  0  0
  125.3970  123.0160   57.3790 C   0  0  0  0  0  0  0  0  0  0  0  0
  126.6650  122.3770   56.8660 C   0  0  0  0  0  0  0  0  0  0  0  0
  127.5650  123.5890   56.6990 C   0  0  0  0  0  0  0  0  0  0  0  0
  127.2580  124.3610   57.8550 O   0  0  0  0  0  0  0  0  0  0  0  0
  129.8830  123.6960   62.8480 C   0  0  0  0  0  0  0  0  0  0  0  0
  129.4310  123.2610   64.1000 C   0  0  0  0  0  0  0  0  0  0  0  0
  130.2390  122.4690   64.9090 C   0  0  0  0  0  0  0  0  0  0  0  0
  131.5090  122.1030   64.4710 C   0  0  0  0  0  0  0  0  0  0  0  0
  132.2940  121.3320   65.2570 F   0  0  0  0  0  0  0  0  0  0  0  0
  131.9750  122.5240   63.2290 C   0  0  0  0  0  0  0  0  0  0  0  0
  131.1660  123.3180   62.4200 C   0  0  0  0  0  0  0  0  0  0  0  0
  129.2860  127.5620   67.1480 N   0  0  0  0  0  0  0  0  0  0  0  0
  129.1560  126.3410   70.5610 C   0  0  0  0  0  0  0  0  0  0  0  0
  129.3170  126.6900   71.9130 C   0  0  0  0  0  0  0  0  0  0  0  0
  128.7380  125.9940   72.9590 O   0  0  0  0  0  0  0  0  0  0  0  0
  129.3240  124.7740   73.4020 C   0  0  0  0  0  0  0  0  0  0  0  0
  1  2  1  0
  2  3  1  0
  3  4  2  0
  4  5  1  0
  5  6  2  0
  6  7  1  0
  7  8  1  0
  8  9  2  0
  9 10  1  0
 10 11  1  0
 11 12  1  0
 12 13  2  0
 12 14  1  0
 14 15  1  0
 15 16  1  0
 16 17  1  0
 17 18  1  0
 18 19  1  0
 19 20  1  0
 20 21  1  0
 21 22  1  0
 22 23  1  0
 24 14  1  1
 24 25  1  0
 25 26  2  0
 25 27  1  0
 27 28  1  0
 29 28  1  1
 29 30  1  0
 30 31  1  0
 31 32  1  0
 32 33  1  0
 24 34  1  0
 34 35  2  0
 35 36  1  0
 36 37  2  0
 37 38  1  0
 37 39  1  0
 39 40  2  0
 10 41  1  0
  6 42  1  0
 42 43  2  0
 43 44  1  0
 44 45  1  0
 43  3  1  0
 41  7  2  0
 23 18  1  0
 33 29  1  0
 40 34  1  0
M  END
>  <Binding energies>  (71) 
[-8.54]

>  <Ligand effiencies>  (71) 
[-0.18565217391304345]

>  <Interactions>  (71) 
["V-B:GLU:543:CD:9879, V-B:PRO:540:CA:9854, V-B:PRO:540:N:9855, V-B:GLU:543:CG:9878, V-A:HIS:456:CE1:4069, V-B:TYR:539:C:9838, V-B:ALA:541:CB:9863, V-A:GLU:543:CB:4906, V-A:TYR:484:CE1:4344, V-A:GLU:543:CD:4908, V-A:GLY:454:CA:4048, V-A:LEU:475:CD2:4258, V-A:TYR:484:CZ:4346, V-A:HIS:456:CD2:4067, H-B:ALA:541:N:9862, V-B:PRO:540:CB:9856, V-B:TYR:539:CZ:9848, H-B:LYS:547:NZ:9922, H-A:LYS:547:NZ:4951, V-B:LYS:547:CE:9921, V-B:PRO:540:CD:9858, V-A:LEU:475:CD1:4257, H-A:ALA:541:N:4891, V-A:TYR:539:C:4867, V-A:PRO:540:CA:4883, V-A:LYS:547:CE:4950, V-B:TYR:539:CD1:9844, V-B:TYR:539:CE1:9846, V-A:LEU:475:CG:4256, V-B:LEU:363:CD1:8160, V-A:LEU:475:CB:4255, V-A:TYR:484:CE2:4345"]

$$$$
RR17_Rahimova_2017
     RDKit          3D

 38 41  0  0  0  0  0  0  0  0999 V2000
  130.9360  125.4530   74.5250 C   0  0  0  0  0  0  0  0  0  0  0  0
  129.5480  124.8790   74.2240 C   0  0  0  0  0  0  0  0  0  0  0  0
  128.7410  125.9080   73.6570 O   0  0  0  0  0  0  0  0  0  0  0  0
  128.7910  126.1350   72.2940 C   0  0  0  0  0  0  0  0  0  0  0  0
  129.6920  127.1050   71.8570 C   0  0  0  0  0  0  0  0  0  0  0  0
  129.8110  127.4040   70.5040 C   0  0  0  0  0  0  0  0  0  0  0  0
  129.0260  126.7350   69.5540 C   0  0  0  0  0  0  0  0  0  0  0  0
  129.1770  127.0780   68.1000 C   0  0  0  0  0  0  0  0  0  0  0  0
  128.3310  127.7310   67.4830 O   0  0  0  0  0  0  0  0  0  0  0  0
  130.4460  126.5610   67.3860 C   0  0  0  0  0  0  0  0  0  0  0  0
  130.0820  125.1710   66.2540 S   0  0  0  0  0  0  0  0  0  0  0  0
  131.6520  125.0120   65.4520 C   0  0  0  0  0  0  0  0  0  0  0  0
  132.8010  125.4140   65.9440 N   0  0  0  0  0  0  0  0  0  0  0  0
  133.7910  125.1040   65.0200 N   0  0  0  0  0  0  0  0  0  0  0  0
  133.2030  124.5210   64.0060 C   0  0  0  0  0  0  0  0  0  0  0  0
  133.9250  124.0050   62.7690 C   0  0  0  0  0  0  0  0  0  0  0  0
  133.9970  124.9750   61.6800 N   0  0  0  0  0  0  0  0  0  0  0  0
  132.9950  125.1310   60.7050 C   0  0  0  0  0  0  0  0  0  0  0  0
  132.0510  126.1380   60.9100 C   0  0  0  0  0  0  0  0  0  0  0  0
  131.0290  126.3430   59.9870 C   0  0  0  0  0  0  0  0  0  0  0  0
  130.9420  125.5440   58.8440 C   0  0  0  0  0  0  0  0  0  0  0  0
  129.8100  125.7780   57.8440 C   0  0  0  0  0  0  0  0  0  0  0  0
  130.2500  125.8240   56.5840 F   0  0  0  0  0  0  0  0  0  0  0  0
  128.9050  124.8010   57.9270 F   0  0  0  0  0  0  0  0  0  0  0  0
  129.2140  126.9370   58.1220 F   0  0  0  0  0  0  0  0  0  0  0  0
  131.8920  124.5390   58.6330 C   0  0  0  0  0  0  0  0  0  0  0  0
  132.9140  124.3350   59.5550 C   0  0  0  0  0  0  0  0  0  0  0  0
  131.8410  124.4420   64.2100 N   0  0  0  0  0  0  0  0  0  0  0  0
  130.8760  123.8790   63.3620 C   0  0  0  0  0  0  0  0  0  0  0  0
  131.0490  122.5780   62.8900 C   0  0  0  0  0  0  0  0  0  0  0  0
  130.0930  122.0210   62.0450 C   0  0  0  0  0  0  0  0  0  0  0  0
  128.9610  122.7640   61.6710 C   0  0  0  0  0  0  0  0  0  0  0  0
  127.9630  122.2940   60.8390 O   0  0  0  0  0  0  0  0  0  0  0  0
  128.0860  122.4770   59.4330 C   0  0  0  0  0  0  0  0  0  0  0  0
  128.8050  124.0660   62.1510 C   0  0  0  0  0  0  0  0  0  0  0  0
  129.7570  124.6280   62.9970 C   0  0  0  0  0  0  0  0  0  0  0  0
  128.1200  125.7590   69.9940 C   0  0  0  0  0  0  0  0  0  0  0  0
  128.0030  125.4610   71.3500 C   0  0  0  0  0  0  0  0  0  0  0  0
  1  2  1  0
  2  3  1  0
  3  4  1  0
  4  5  2  0
  5  6  1  0
  6  7  2  0
  7  8  1  0
  8  9  2  0
  8 10  1  0
 10 11  1  0
 11 12  1  0
 12 13  2  0
 13 14  1  0
 14 15  2  0
 15 16  1  0
 16 17  1  0
 17 18  1  0
 18 19  2  0
 19 20  1  0
 20 21  2  0
 21 22  1  0
 22 23  1  0
 22 24  1  0
 22 25  1  0
 21 26  1  0
 26 27  2  0
 15 28  1  0
 28 29  1  0
 29 30  2  0
 30 31  1  0
 31 32  2  0
 32 33  1  0
 33 34  1  0
 32 35  1  0
 35 36  2  0
  7 37  1  0
 37 38  2  0
 38  4  1  0
 28 12  1  0
 36 29  1  0
 27 18  1  0
M  END
>  <Binding energies>  (72) 
[-7.77]

>  <Ligand effiencies>  (72) 
[-0.1992307692307692]

>  <Interactions>  (72) 
["V-B:TYR:539:CD2:9845, V-B:PRO:540:CA:9854, H-A:TYR:484:OH:4347, V-B:PRO:540:N:9855, H-A:GLY:454:N:4049, V-A:HIS:456:CE1:4069, V-B:TYR:539:CE2:9847, V-B:GLU:543:CB:9877, V-A:ILE:369:CD1:3238, V-B:TYR:539:C:9838, H-A:ARG:545:NE:4924, V-B:ALA:541:CB:9863, V-B:HIS:456:CE1:9041, V-A:GLU:543:CD:4908, V-A:GLY:454:CA:4048, V-A:ASP:366:CG:3212, V-B:GLU:543:C:9873, V-A:HIS:456:CG:4065, V-A:ILE:369:CG2:3236, V-A:HIS:456:CD2:4067, H-B:ALA:541:N:9862, H-A:ASP:366:OD1:3213, V-A:ILE:369:CB:3235, V-A:ASP:366:CB:3211, V-A:ASP:366:CA:3209, V-B:TYR:539:CZ:9848, H-B:LYS:547:NZ:9922, V-B:LYS:547:CE:9921, V-B:GLY:544:C:9883, V-A:TYR:531:CZ:4794"]

$$$$
RR19_Rahimova_2017
     RDKit          3D

 46 51  0  0  0  0  0  0  0  0999 V2000
  132.7340  124.7240   59.3460 O   0  0  0  0  0  0  0  0  0  0  0  0
  132.4650  125.2440   60.4330 C   0  0  0  0  0  0  0  0  0  0  0  0
  131.5920  126.2640   60.6330 N   0  0  0  0  0  0  0  0  0  0  0  0
  130.6410  126.8530   59.8360 C   0  0  0  0  0  0  0  0  0  0  0  0
  130.1030  126.2620   58.3440 S   0  0  0  0  0  0  0  0  0  0  0  0
  130.2000  127.9980   60.4510 N   0  0  0  0  0  0  0  0  0  0  0  0
  129.1920  128.8640   60.1790 C   0  0  0  0  0  0  0  0  0  0  0  0
  128.2860  128.6970   59.3590 O   0  0  0  0  0  0  0  0  0  0  0  0
  129.2550  130.1800   60.9950 C   0  0  2  0  0  0  0  0  0  0  0  0
  130.6460  130.8770   61.0030 C   0  0  0  0  0  0  0  0  0  0  0  0
  131.1010  131.4310   59.6630 C   0  0  0  0  0  0  0  0  0  0  0  0
  130.2740  132.3030   58.9220 C   0  0  0  0  0  0  0  0  0  0  0  0
  130.7380  132.8610   57.7380 C   0  0  0  0  0  0  0  0  0  0  0  0
  132.0220  132.5790   57.2860 C   0  0  0  0  0  0  0  0  0  0  0  0
  132.8570  131.7470   58.0200 C   0  0  0  0  0  0  0  0  0  0  0  0
  132.4130  131.1800   59.2070 C   0  0  0  0  0  0  0  0  0  0  0  0
  128.7330  129.9840   62.3760 N   0  0  0  0  0  0  0  0  0  0  0  0
  127.7490  130.7820   62.8810 C   0  0  0  0  0  0  0  0  0  0  0  0
  127.2020  131.7360   62.3250 O   0  0  0  0  0  0  0  0  0  0  0  0
  127.4730  130.2560   64.2410 C   0  0  0  0  0  0  0  0  0  0  0  0
  126.5710  130.6780   65.2190 C   0  0  0  0  0  0  0  0  0  0  0  0
  126.5180  129.9780   66.4290 C   0  0  0  0  0  0  0  0  0  0  0  0
  127.3570  128.8750   66.6430 C   0  0  0  0  0  0  0  0  0  0  0  0
  128.2530  128.4670   65.6490 C   0  0  0  0  0  0  0  0  0  0  0  0
  128.2910  129.1800   64.4510 C   0  0  0  0  0  0  0  0  0  0  0  0
  129.1130  128.9870   63.2300 C   0  0  0  0  0  0  0  0  0  0  0  0
  129.9510  128.1070   63.0300 O   0  0  0  0  0  0  0  0  0  0  0  0
  133.1660  124.7350   61.7200 C   0  0  2  0  0  0  0  0  0  0  0  0
  133.6190  123.2480   61.6460 C   0  0  0  0  0  0  0  0  0  0  0  0
  132.4750  122.2520   61.6950 C   0  0  0  0  0  0  0  0  0  0  0  0
  131.7250  122.0940   62.8810 C   0  0  0  0  0  0  0  0  0  0  0  0
  130.6160  121.2570   62.8940 C   0  0  0  0  0  0  0  0  0  0  0  0
  130.2230  120.5970   61.7380 C   0  0  0  0  0  0  0  0  0  0  0  0
  130.9270  120.7750   60.5530 C   0  0  0  0  0  0  0  0  0  0  0  0
  132.0400  121.6050   60.5190 C   0  0  0  0  0  0  0  0  0  0  0  0
  132.3900  125.0080   62.9630 N   0  0  0  0  0  0  0  0  0  0  0  0
  133.0060  125.2980   64.1440 C   0  0  0  0  0  0  0  0  0  0  0  0
  134.2180  125.3570   64.3590 O   0  0  0  0  0  0  0  0  0  0  0  0
  131.9080  125.5270   65.1150 C   0  0  0  0  0  0  0  0  0  0  0  0
  131.9400  125.8500   66.4730 C   0  0  0  0  0  0  0  0  0  0  0  0
  130.7270  126.0120   67.1510 C   0  0  0  0  0  0  0  0  0  0  0  0
  129.5110  125.8550   66.4730 C   0  0  0  0  0  0  0  0  0  0  0  0
  129.5000  125.5330   65.1110 C   0  0  0  0  0  0  0  0  0  0  0  0
  130.7210  125.3730   64.4520 C   0  0  0  0  0  0  0  0  0  0  0  0
  131.0270  125.0420   63.0400 C   0  0  0  0  0  0  0  0  0  0  0  0
  130.2220  124.8410   62.1290 O   0  0  0  0  0  0  0  0  0  0  0  0
  1  2  2  0
  2  3  1  0
  3  4  1  0
  4  5  2  0
  4  6  1  0
  6  7  1  0
  7  8  2  0
  7  9  1  0
  9 10  1  1
 10 11  1  0
 11 12  2  0
 12 13  1  0
 13 14  2  0
 14 15  1  0
 15 16  2  0
  9 17  1  0
 17 18  1  0
 18 19  2  0
 18 20  1  0
 20 21  2  0
 21 22  1  0
 22 23  2  0
 23 24  1  0
 24 25  2  0
 25 26  1  0
 26 27  2  0
  2 28  1  0
 28 29  1  6
 29 30  1  0
 30 31  2  0
 31 32  1  0
 32 33  2  0
 33 34  1  0
 34 35  2  0
 28 36  1  0
 36 37  1  0
 37 38  2  0
 37 39  1  0
 39 40  2  0
 40 41  1  0
 41 42  2  0
 42 43  1  0
 43 44  2  0
 44 45  1  0
 45 46  2  0
 16 11  1  0
 26 17  1  0
 35 30  1  0
 45 36  1  0
 25 20  1  0
 44 39  1  0
M  END
>  <Binding energies>  (73) 
[-9.65]

>  <Ligand effiencies>  (73) 
[-0.20104166666666667]

>  <Interactions>  (73) 
["V-B:TYR:539:CD2:9845, V-B:GLU:543:CD:9879, H-A:GLY:454:N:4049, V-B:GLU:543:CG:9878, V-A:HIS:456:CE1:4069, H-A:ARG:545:NH1:4927, V-B:TYR:539:CE2:9847, V-B:GLU:543:CB:9877, V-A:ILE:369:CD1:3238, V-A:ARG:545:CZ:4926, H-A:ARG:545:NE:4924, V-B:ALA:541:CB:9863, V-A:GLU:543:CD:4908, H-A:ARG:545:NH2:4928, V-A:GLU:543:CG:4907, V-A:ASP:366:CG:3212, V-A:LEU:475:CD2:4258, V-A:ILE:369:CG2:3236, H-A:ASP:366:OD1:3213, V-A:ILE:369:CB:3235, V-A:ASP:366:CB:3211, H-A:ASP:366:OD2:3214, V-A:TYR:539:C:4867, V-A:PRO:540:CA:4883, V-A:PRO:540:N:4884, V-A:PRO:540:CB:4885, V-A:LEU:363:CD1:3188, V-A:PRO:540:CD:4887"]

$$$$
RR1_Rahimova_2017
     RDKit          3D

 41 44  0  0  0  0  0  0  0  0999 V2000
  130.1990  125.6490   56.7890 C   0  0  0  0  0  0  0  0  0  0  0  0
  131.5620  125.5320   57.1790 O   0  0  0  0  0  0  0  0  0  0  0  0
  131.8860  125.5710   58.5210 C   0  0  0  0  0  0  0  0  0  0  0  0
  132.7730  124.6810   59.1470 C   0  0  0  0  0  0  0  0  0  0  0  0
  133.0330  124.7920   60.5100 C   0  0  0  0  0  0  0  0  0  0  0  0
  132.4200  125.7910   61.2670 C   0  0  0  0  0  0  0  0  0  0  0  0
  132.7110  125.7920   62.6450 N   0  0  0  0  0  0  0  0  0  0  0  0
  133.7070  125.1680   63.3090 C   0  0  0  0  0  0  0  0  0  0  0  0
  134.5220  124.4030   62.7940 O   0  0  0  0  0  0  0  0  0  0  0  0
  133.7640  125.4770   64.8140 C   0  0  0  0  0  0  0  0  0  0  0  0
  132.2380  125.1060   65.7480 S   0  0  0  0  0  0  0  0  0  0  0  0
  131.3940  124.2130   64.4860 C   0  0  0  0  0  0  0  0  0  0  0  0
  131.8860  123.1680   63.8700 N   0  0  0  0  0  0  0  0  0  0  0  0
  130.9230  122.8150   63.0240 C   0  0  0  0  0  0  0  0  0  0  0  0
  131.0520  121.6330   62.1060 C   0  0  0  0  0  0  0  0  0  0  0  0
  129.9410  120.8480   61.7580 C   0  0  0  0  0  0  0  0  0  0  0  0
  130.0930  119.7530   60.9050 C   0  0  0  0  0  0  0  0  0  0  0  0
  131.3650  119.4650   60.4140 C   0  0  0  0  0  0  0  0  0  0  0  0
  132.4600  120.2020   60.7290 N   0  0  0  0  0  0  0  0  0  0  0  0
  132.2910  121.2630   61.5590 C   0  0  0  0  0  0  0  0  0  0  0  0
  129.8430  123.5730   63.0480 N   0  0  0  0  0  0  0  0  0  0  0  0
  130.1440  124.4750   63.9880 N   0  0  0  0  0  0  0  0  0  0  0  0
  129.1830  125.5150   64.3560 C   0  0  0  0  0  0  0  0  0  0  0  0
  129.5570  126.3330   65.6030 C   0  0  0  0  0  0  0  0  0  0  0  0
  129.7450  127.5530   65.5270 O   0  0  0  0  0  0  0  0  0  0  0  0
  129.6590  125.6200   66.7410 N   0  0  0  0  0  0  0  0  0  0  0  0
  129.8480  126.3100   67.9310 N   0  0  0  0  0  0  0  0  0  0  0  0
  129.2860  125.8030   69.0500 C   0  0  0  0  0  0  0  0  0  0  0  0
  128.7040  124.7140   69.1000 O   0  0  0  0  0  0  0  0  0  0  0  0
  129.4300  126.6500   70.2980 C   0  0  0  0  0  0  0  0  0  0  0  0
  129.9630  127.9410   70.2080 C   0  0  0  0  0  0  0  0  0  0  0  0
  130.1160  128.7310   71.3420 C   0  0  0  0  0  0  0  0  0  0  0  0
  129.7450  128.2500   72.6080 C   0  0  0  0  0  0  0  0  0  0  0  0
  129.8830  128.9780   73.7760 O   0  0  0  0  0  0  0  0  0  0  0  0
  129.1580  130.1920   73.9350 C   0  0  0  0  0  0  0  0  0  0  0  0
  129.2160  126.9570   72.7200 C   0  0  0  0  0  0  0  0  0  0  0  0
  128.8850  126.5220   73.9930 O   0  0  0  0  0  0  0  0  0  0  0  0
  129.8930  125.9700   74.8320 C   0  0  0  0  0  0  0  0  0  0  0  0
  129.0600  126.1710   71.5650 C   0  0  0  0  0  0  0  0  0  0  0  0
  131.5330  126.6830   60.6450 C   0  0  0  0  0  0  0  0  0  0  0  0
  131.2760  126.5690   59.2820 C   0  0  0  0  0  0  0  0  0  0  0  0
  1  2  1  0
  2  3  1  0
  3  4  2  0
  4  5  1  0
  5  6  2  0
  6  7  1  0
  7  8  1  0
  8  9  2  0
  8 10  1  0
 10 11  1  0
 11 12  1  0
 12 13  2  0
 13 14  1  0
 14 15  1  0
 15 16  2  0
 16 17  1  0
 17 18  2  0
 18 19  1  0
 19 20  2  0
 14 21  2  0
 21 22  1  0
 22 23  1  0
 23 24  1  0
 24 25  2  0
 24 26  1  0
 26 27  1  0
 27 28  1  0
 28 29  2  0
 28 30  1  0
 30 31  2  0
 31 32  1  0
 32 33  2  0
 33 34  1  0
 34 35  1  0
 33 36  1  0
 36 37  1  0
 37 38  1  0
 36 39  2  0
  6 40  1  0
 40 41  2  0
 41  3  1  0
 22 12  1  0
 39 30  1  0
 20 15  1  0
M  END
>  <Binding energies>  (74) 
[-7.38]

>  <Ligand effiencies>  (74) 
[-0.16772727272727272]

>  <Interactions>  (74) 
["V-B:TYR:539:CD2:9845, V-A:ARG:545:CD:4923, V-B:GLU:543:CD:9879, H-A:TYR:484:OH:4347, H-A:GLY:454:N:4049, V-B:GLU:543:CG:9878, V-A:HIS:456:CE1:4069, V-B:TYR:539:CE2:9847, V-B:GLU:543:CB:9877, V-A:ARG:545:CZ:4926, V-B:ALA:541:CB:9863, V-A:ASP:366:CG:3212, V-A:LEU:475:CD2:4258, H-A:GLU:543:OE2:4910, V-A:PRO:482:CB:4325, V-A:TRP:381:CH2:3371, V-A:ILE:369:CG2:3236, V-A:PRO:482:CG:4326, V-A:TRP:381:CZ2:3369, V-A:HIS:456:CD2:4067, V-A:ASP:366:CB:3211, V-A:ASP:366:CA:3209, V-A:GLY:453:CA:4043, V-B:TYR:539:CZ:9848, H-B:TYR:539:OH:9849, H-B:LYS:547:NZ:9922, H-A:LYS:547:NZ:4951, H-A:TYR:531:OH:4795, V-A:TRP:381:CZ3:3370"]

$$$$
RR22_Rahimova_2017
     RDKit          3D

 31 36  0  0  0  0  0  0  0  0999 V2000
  134.3510  125.3980   64.4890 O   0  0  0  0  0  0  0  0  0  0  0  0
  133.1520  125.5010   64.2370 C   0  0  0  0  0  0  0  0  0  0  0  0
  132.2430  126.3750   64.8070 N   0  0  0  0  0  0  0  0  0  0  0  0
  130.8850  126.4100   64.3550 C   0  0  1  0  0  0  0  0  0  0  0  0
  130.0950  126.1900   65.5270 O   0  0  0  0  0  0  0  0  0  0  0  0
  129.1810  127.1750   65.9040 C   0  0  0  0  0  0  0  0  0  0  0  0
  128.7050  127.1130   67.2140 C   0  0  0  0  0  0  0  0  0  0  0  0
  127.7580  128.0390   67.6520 C   0  0  0  0  0  0  0  0  0  0  0  0
  127.2830  129.0180   66.7800 C   0  0  0  0  0  0  0  0  0  0  0  0
  127.7590  129.0800   65.4690 C   0  0  0  0  0  0  0  0  0  0  0  0
  128.7260  128.1740   65.0230 C   0  0  0  0  0  0  0  0  0  0  0  0
  129.2720  128.1290   63.6140 C   0  0  1  0  0  0  0  0  0  0  0  0
  129.4250  129.3720   62.7600 C   0  0  0  0  0  0  0  0  0  0  0  0
  130.6260  128.9560   61.9050 C   0  0  0  0  0  0  0  0  0  0  0  0
  130.9740  129.6270   60.6370 C   0  0  0  0  0  0  0  0  0  0  0  0
  131.3550  130.9770   60.6250 C   0  0  0  0  0  0  0  0  0  0  0  0
  131.6830  131.6050   59.4270 C   0  0  0  0  0  0  0  0  0  0  0  0
  131.6320  130.8890   58.2340 C   0  0  0  0  0  0  0  0  0  0  0  0
  131.2560  129.5480   58.2290 C   0  0  0  0  0  0  0  0  0  0  0  0
  130.9290  128.9180   59.4270 C   0  0  0  0  0  0  0  0  0  0  0  0
  131.2700  127.9940   62.4510 N   0  0  0  0  0  0  0  0  0  0  0  0
  130.6320  127.6830   63.6630 N   0  0  0  0  0  0  0  0  0  0  0  0
  130.6950  125.1990   63.4540 C   0  0  0  0  0  0  0  0  0  0  0  0
  129.4770  124.7120   63.1210 C   0  0  0  0  0  0  0  0  0  0  0  0
  129.1510  123.5680   62.2480 C   0  0  0  0  0  0  0  0  0  0  0  0
  130.0310  122.5000   62.0230 C   0  0  0  0  0  0  0  0  0  0  0  0
  129.6540  121.4500   61.1840 C   0  0  0  0  0  0  0  0  0  0  0  0
  128.3970  121.5000   60.5800 C   0  0  0  0  0  0  0  0  0  0  0  0
  127.5290  122.5240   60.7720 N   0  0  0  0  0  0  0  0  0  0  0  0
  127.9140  123.5350   61.5940 C   0  0  0  0  0  0  0  0  0  0  0  0
  132.2580  124.4940   63.0150 S   0  0  0  0  0  0  0  0  0  0  0  0
  1  2  2  0
  2  3  1  0
  4  3  1  1
  4  5  1  0
  5  6  1  0
  6  7  2  0
  7  8  1  0
  8  9  2  0
  9 10  1  0
 10 11  2  0
 11 12  1  0
 12 13  1  1
 13 14  1  0
 14 15  1  0
 15 16  2  0
 16 17  1  0
 17 18  2  0
 18 19  1  0
 19 20  2  0
 14 21  2  0
 21 22  1  0
  4 23  1  0
 23 24  2  0
 24 25  1  0
 25 26  2  0
 26 27  1  0
 27 28  2  0
 28 29  1  0
 29 30  2  0
 23 31  1  0
 31  2  1  0
 22  4  1  0
 30 25  1  0
 11  6  1  0
 22 12  1  0
 20 15  1  0
M  END
>  <Binding energies>  (75) 
[-8.22]

>  <Ligand effiencies>  (75) 
[-0.256875]

>  <Interactions>  (75) 
["V-B:TYR:539:CD2:9845, V-B:GLU:543:CD:9879, V-B:PRO:540:CA:9854, V-B:PRO:540:N:9855, H-A:GLY:454:N:4049, V-B:GLU:543:CG:9878, H-A:ARG:545:NH1:4927, V-B:GLU:543:CB:9877, V-B:TYR:539:C:9838, V-A:ARG:545:CZ:4926, H-A:ARG:545:NE:4924, V-B:PRO:540:C:9852, V-B:ALA:541:CB:9863, V-B:HIS:456:CE1:9041, V-A:GLU:543:CD:4908, H-A:ARG:545:NH2:4928, V-A:GLU:543:CG:4907, V-A:ASP:366:CG:3212, H-A:GLU:543:OE2:4910, H-A:GLU:543:OE1:4909, V-B:ALA:541:CA:9861, H-B:ALA:541:N:9862, V-A:PRO:540:CA:4883, V-A:PRO:540:CB:4885"]

$$$$
RR24_Rahimova_2017
     RDKit          3D

 43 49  0  0  0  0  0  0  0  0999 V2000
  131.4130  128.4680   70.1600 C   0  0  0  0  0  0  0  0  0  0  0  0
  130.2920  127.9530   71.0740 C   0  0  2  0  0  0  0  0  0  0  0  0
  129.2460  127.0740   70.3270 C   0  0  0  0  0  0  0  0  0  0  0  0
  129.1170  125.8680   70.5590 O   0  0  0  0  0  0  0  0  0  0  0  0
  128.5370  127.7810   69.3980 O   0  0  0  0  0  0  0  0  0  0  0  0
  128.7890  127.5860   68.0590 C   0  0  0  0  0  0  0  0  0  0  0  0
  128.0080  128.2520   67.1120 C   0  0  0  0  0  0  0  0  0  0  0  0
  128.2590  128.0710   65.7550 C   0  0  0  0  0  0  0  0  0  0  0  0
  129.2960  127.2310   65.3390 C   0  0  0  0  0  0  0  0  0  0  0  0
  129.5560  127.0200   63.8430 C   0  0  1  0  0  0  0  0  0  0  0  0
  129.6580  128.3610   63.0790 C   0  0  0  0  0  0  0  0  0  0  0  0
  130.6840  128.6570   62.2600 C   0  0  0  0  0  0  0  0  0  0  0  0
  131.7220  127.7850   62.0430 N   0  0  0  0  0  0  0  0  0  0  0  0
  131.7640  126.5560   62.6590 C   0  0  0  0  0  0  0  0  0  0  0  0
  132.8500  125.8110   62.3310 N   0  0  0  0  0  0  0  0  0  0  0  0
  133.1020  124.6010   62.9010 C   0  0  0  0  0  0  0  0  0  0  0  0
  134.2340  124.1200   62.8180 O   0  0  0  0  0  0  0  0  0  0  0  0
  132.0610  124.1130   63.6750 N   0  0  0  0  0  0  0  0  0  0  0  0
  132.2460  122.7620   64.2440 C   0  0  0  0  0  0  0  0  0  0  0  0
  130.9160  124.7840   64.0710 C   0  0  0  0  0  0  0  0  0  0  0  0
  130.0500  124.3020   64.8080 O   0  0  0  0  0  0  0  0  0  0  0  0
  130.7960  126.1350   63.5140 C   0  0  0  0  0  0  0  0  0  0  0  0
  130.5190  129.9790   61.6810 C   0  0  0  0  0  0  0  0  0  0  0  0
  131.2900  130.7330   60.7950 C   0  0  0  0  0  0  0  0  0  0  0  0
  130.8490  132.0050   60.4190 C   0  0  0  0  0  0  0  0  0  0  0  0
  129.6490  132.5120   60.9250 C   0  0  0  0  0  0  0  0  0  0  0  0
  128.8800  131.7520   61.8120 C   0  0  0  0  0  0  0  0  0  0  0  0
  129.3270  130.4830   62.1850 C   0  0  0  0  0  0  0  0  0  0  0  0
  128.7230  129.4810   63.0880 C   0  0  0  0  0  0  0  0  0  0  0  0
  127.6730  129.5290   63.7270 O   0  0  0  0  0  0  0  0  0  0  0  0
  130.0890  126.5800   66.2910 C   0  0  0  0  0  0  0  0  0  0  0  0
  129.8390  126.7620   67.6480 C   0  0  0  0  0  0  0  0  0  0  0  0
  129.6550  129.0550   71.8550 N   0  0  0  0  0  0  0  0  0  0  0  0
  129.6960  129.0790   73.2170 C   0  0  0  0  0  0  0  0  0  0  0  0
  130.2200  128.2510   73.9640 O   0  0  0  0  0  0  0  0  0  0  0  0
  128.9750  130.3150   73.6110 C   0  0  0  0  0  0  0  0  0  0  0  0
  128.7040  130.8520   74.8710 C   0  0  0  0  0  0  0  0  0  0  0  0
  127.9940  132.0550   74.9460 C   0  0  0  0  0  0  0  0  0  0  0  0
  127.5700  132.7000   73.7770 C   0  0  0  0  0  0  0  0  0  0  0  0
  127.8520  132.1460   72.5240 C   0  0  0  0  0  0  0  0  0  0  0  0
  128.5600  130.9450   72.4690 C   0  0  0  0  0  0  0  0  0  0  0  0
  129.0040  130.1290   71.3120 C   0  0  0  0  0  0  0  0  0  0  0  0
  128.8280  130.3710   70.1170 O   0  0  0  0  0  0  0  0  0  0  0  0
  2  1  1  6
  2  3  1  0
  3  4  2  0
  3  5  1  0
  5  6  1  0
  6  7  2  0
  7  8  1  0
  8  9  2  0
 10  9  1  1
 10 11  1  0
 11 12  2  0
 12 13  1  0
 13 14  1  0
 14 15  1  0
 15 16  1  0
 16 17  2  0
 16 18  1  0
 18 19  1  0
 18 20  1  0
 20 21  2  0
 20 22  1  0
 12 23  1  0
 23 24  2  0
 24 25  1  0
 25 26  2  0
 26 27  1  0
 27 28  2  0
 28 29  1  0
 29 30  2  0
  9 31  1  0
 31 32  2  0
  2 33  1  0
 33 34  1  0
 34 35  2  0
 34 36  1  0
 36 37  2  0
 37 38  1  0
 38 39  2  0
 39 40  1  0
 40 41  2  0
 41 42  1  0
 42 43  2  0
 32  6  1  0
 42 33  1  0
 22 10  1  0
 28 23  1  0
 41 36  1  0
 29 11  1  0
 22 14  2  0
M  END
>  <Binding energies>  (76) 
[-10.01]

>  <Ligand effiencies>  (76) 
[-0.22244444444444444]

>  <Interactions>  (76) 
["V-B:GLU:543:CD:9879, H-A:GLY:454:N:4049, V-A:HIS:456:CE1:4069, V-A:ARG:545:CZ:4926, V-A:ARG:545:CG:4922, V-A:GLU:543:CB:4906, V-B:HIS:456:CE1:9041, V-A:GLU:543:CD:4908, V-A:GLY:454:CA:4048, V-A:GLU:543:CG:4907, V-A:ASP:366:CG:3212, V-A:LEU:475:CD2:4258, V-A:GLU:543:C:4902, V-A:ARG:545:CA:4919, H-A:ASP:366:OD1:3213, H-A:ASP:366:OD2:3214, H-A:LYS:547:NZ:4951, V-B:TYR:484:CD1:9314, V-B:HIS:456:CG:9037, V-B:TYR:484:CE1:9316, V-B:TYR:484:CG:9313, V-B:HIS:456:CB:9036, H-B:HIS:456:ND1:9038, V-B:HIS:456:CD2:9039, V-B:TYR:484:CZ:9318, V-A:PRO:540:CA:4883, V-B:TYR:484:CB:9312, V-B:TYR:484:CD2:9315, V-B:ASP:473:CB:9210, V-B:ASP:473:CG:9211"]

$$$$
RR25_Rahimova_2017
     RDKit          3D

 39 44  0  0  0  0  0  0  0  0999 V2000
  127.3710  125.4570   71.9890 O   0  0  0  0  0  0  0  0  0  0  0  0
  128.5020  125.7870   72.3460 C   0  0  0  0  0  0  0  0  0  0  0  0
  128.8410  125.4840   73.6420 O   0  0  0  0  0  0  0  0  0  0  0  0
  130.1480  125.5720   74.0850 C   0  0  0  0  0  0  0  0  0  0  0  0
  130.5010  124.7610   75.1630 C   0  0  0  0  0  0  0  0  0  0  0  0
  131.8000  124.8060   75.6660 C   0  0  0  0  0  0  0  0  0  0  0  0
  132.7590  125.6610   75.1060 C   0  0  0  0  0  0  0  0  0  0  0  0
  134.1430  125.7010   75.6390 N   0  0  0  0  0  0  0  0  0  0  0  0
  134.7070  124.6390   75.8910 O   0  0  0  0  0  0  0  0  0  0  0  0
  134.6760  126.7940   75.8090 O   0  0  0  0  0  0  0  0  0  0  0  0
  132.3800  126.4790   74.0290 C   0  0  0  0  0  0  0  0  0  0  0  0
  131.0800  126.4530   73.5170 C   0  0  0  0  0  0  0  0  0  0  0  0
  130.6240  127.3080   72.3490 C   0  0  0  0  0  0  0  0  0  0  0  0
  129.5820  126.5260   71.5020 C   0  0  2  0  0  0  0  0  0  0  0  0
  129.0180  127.4090   70.3510 C   0  0  0  0  0  0  0  0  0  0  0  0
  128.7350  128.5720   70.6490 O   0  0  0  0  0  0  0  0  0  0  0  0
  128.9570  126.9670   69.0580 N   0  0  0  0  0  0  0  0  0  0  0  0
  128.9800  125.5340   68.6990 C   0  0  0  0  0  0  0  0  0  0  0  0
  129.7790  125.3560   67.3920 C   0  0  0  0  0  0  0  0  0  0  0  0
  129.2470  126.2020   66.3200 N   0  0  0  0  0  0  0  0  0  0  0  0
  129.9190  125.9380   65.0410 C   0  0  0  0  0  0  0  0  0  0  0  0
  131.1540  125.0080   65.1900 C   0  0  0  0  0  0  0  0  0  0  0  0
  131.3110  123.9530   64.1470 N   0  0  0  0  0  0  0  0  0  0  0  0
  132.5900  123.4610   63.9940 C   0  0  0  0  0  0  0  0  0  0  0  0
  133.5570  123.8780   64.6420 O   0  0  0  0  0  0  0  0  0  0  0  0
  132.7190  122.3440   62.9770 C   0  0  0  0  0  0  0  0  0  0  0  0
  133.9710  121.7530   62.7610 C   0  0  0  0  0  0  0  0  0  0  0  0
  134.1250  120.7190   61.8390 C   0  0  0  0  0  0  0  0  0  0  0  0
  133.0380  120.2410   61.1090 C   0  0  0  0  0  0  0  0  0  0  0  0
  131.7540  120.8090   61.2940 C   0  0  0  0  0  0  0  0  0  0  0  0
  130.6080  120.3720   60.5880 C   0  0  0  0  0  0  0  0  0  0  0  0
  129.3720  120.9720   60.8210 C   0  0  0  0  0  0  0  0  0  0  0  0
  129.2410  122.0070   61.7450 C   0  0  0  0  0  0  0  0  0  0  0  0
  130.3480  122.4720   62.4670 C   0  0  0  0  0  0  0  0  0  0  0  0
  131.6090  121.8650   62.2360 C   0  0  0  0  0  0  0  0  0  0  0  0
  130.1630  123.5940   63.4700 C   0  0  0  0  0  0  0  0  0  0  0  0
  129.0640  124.1230   63.6670 O   0  0  0  0  0  0  0  0  0  0  0  0
  129.3470  127.6120   66.7020 C   0  0  0  0  0  0  0  0  0  0  0  0
  128.5480  127.9120   67.9930 C   0  0  0  0  0  0  0  0  0  0  0  0
  1  2  2  0
  2  3  1  0
  3  4  1  0
  4  5  2  0
  5  6  1  0
  6  7  2  0
  7  8  1  0
  8  9  2  0
  8 10  1  0
  7 11  1  0
 11 12  2  0
 12 13  1  0
 13 14  1  0
 14 15  1  6
 15 16  2  0
 15 17  1  0
 17 18  1  0
 18 19  1  0
 19 20  1  0
 20 21  1  0
 21 22  1  0
 22 23  1  0
 23 24  1  0
 24 25  2  0
 24 26  1  0
 26 27  2  0
 27 28  1  0
 28 29  2  0
 29 30  1  0
 30 31  2  0
 31 32  1  0
 32 33  2  0
 33 34  1  0
 34 35  2  0
 34 36  1  0
 36 37  2  0
 20 38  1  0
 38 39  1  0
 14  2  1  0
 39 17  1  0
 12  4  1  0
 36 23  1  0
 35 26  1  0
 35 30  1  0
M  CHG  2   8   1  10  -1
M  END
>  <Binding energies>  (77) 
[-10.19]

>  <Ligand effiencies>  (77) 
[-0.2612820512820513]

>  <Interactions>  (77) 
["V-B:TYR:539:CD2:9845, V-B:GLU:543:CD:9879, H-A:TYR:484:OH:4347, H-A:GLY:454:N:4049, V-B:GLU:543:CG:9878, V-A:HIS:456:CE1:4069, V-B:TYR:539:CE2:9847, V-B:GLU:543:CB:9877, V-A:ILE:369:CD1:3238, V-B:TYR:539:C:9838, V-B:PRO:540:C:9852, V-B:ALA:541:CB:9863, V-B:HIS:456:CE1:9041, V-A:GLU:543:CD:4908, V-A:GLY:454:CA:4048, V-A:GLU:543:CG:4907, V-A:LEU:475:CD2:4258, V-B:GLU:543:CA:9875, V-A:HIS:456:CG:4065, V-A:HIS:456:CB:4064, V-A:TRP:381:CH2:3371, V-B:ALA:541:CA:9861, V-A:ILE:369:CG2:3236, V-A:HIS:456:CD2:4067, H-B:LYS:547:NZ:9922, H-A:LYS:547:NZ:4951, H-B:HIS:456:ND1:9038, V-A:ILE:369:CG1:3237, V-A:HIS:456:C:4060, V-A:VAL:458:CG2:4086, H-A:VAL:457:N:4075"]

$$$$
RR27_Rahimova_2017
     RDKit          3D

 39 44  0  0  0  0  0  0  0  0999 V2000
  133.4370  124.6740   62.3800 O   0  0  0  0  0  0  0  0  0  0  0  0
  132.4230  124.0220   62.6460 C   0  0  0  0  0  0  0  0  0  0  0  0
  131.4700  123.6310   61.4790 C   0  0  0  0  0  0  0  0  0  0  0  0
  131.3080  122.1080   61.3150 C   0  0  0  0  0  0  0  0  0  0  0  0
  132.4060  121.2680   61.0710 C   0  0  0  0  0  0  0  0  0  0  0  0
  132.2230  119.8960   60.9310 C   0  0  0  0  0  0  0  0  0  0  0  0
  130.9440  119.3560   61.0330 C   0  0  0  0  0  0  0  0  0  0  0  0
  129.8460  120.1760   61.2720 C   0  0  0  0  0  0  0  0  0  0  0  0
  130.0280  121.5490   61.4120 C   0  0  0  0  0  0  0  0  0  0  0  0
  131.8120  124.3900   60.1830 C   0  0  0  0  0  0  0  0  0  0  0  0
  132.8950  124.0180   59.3740 C   0  0  0  0  0  0  0  0  0  0  0  0
  133.1830  124.7340   58.2140 C   0  0  0  0  0  0  0  0  0  0  0  0
  132.3950  125.8260   57.8630 C   0  0  0  0  0  0  0  0  0  0  0  0
  131.3230  126.2130   58.6620 C   0  0  0  0  0  0  0  0  0  0  0  0
  131.0360  125.4990   59.8210 C   0  0  0  0  0  0  0  0  0  0  0  0
  132.2030  123.5180   63.8940 N   0  0  0  0  0  0  0  0  0  0  0  0
  130.9130  122.9620   64.3280 C   0  0  0  0  0  0  0  0  0  0  0  0
  130.0740  124.1430   64.8640 C   0  0  0  0  0  0  0  0  0  0  0  0
  130.8080  124.9440   65.9860 C   0  0  0  0  0  0  0  0  0  0  0  0
  130.0620  126.1990   66.4760 C   0  0  0  0  0  0  0  0  0  0  0  0
  129.1170  126.7120   65.6350 N   0  0  0  0  0  0  0  0  0  0  0  0
  128.4100  127.8060   66.0320 C   0  0  0  0  0  0  0  0  0  0  0  0
  127.4360  128.4060   65.2800 O   0  0  0  0  0  0  0  0  0  0  0  0
  128.6840  128.3650   67.2950 C   0  0  0  0  0  0  0  0  0  0  0  0
  128.1740  129.4250   67.9850 N   0  0  0  0  0  0  0  0  0  0  0  0
  128.8510  129.4960   69.1890 N   0  0  0  0  0  0  0  0  0  0  0  0
  129.7530  128.4930   69.2410 N   0  0  0  0  0  0  0  0  0  0  0  0
  130.6300  128.3450   70.4000 C   0  0  0  0  0  0  0  0  0  0  0  0
  129.9360  128.6050   71.7300 C   0  0  0  0  0  0  0  0  0  0  0  0
  129.8030  127.5760   72.6680 C   0  0  0  0  0  0  0  0  0  0  0  0
  129.1760  127.8180   73.8920 C   0  0  0  0  0  0  0  0  0  0  0  0
  128.6840  129.0890   74.1850 C   0  0  0  0  0  0  0  0  0  0  0  0
  128.8220  130.1230   73.2570 C   0  0  0  0  0  0  0  0  0  0  0  0
  128.2370  131.7040   73.6300 Cl  0  0  0  0  0  0  0  0  0  0  0  0
  129.4410  129.8790   72.0310 C   0  0  0  0  0  0  0  0  0  0  0  0
  129.6930  127.7540   68.0710 C   0  0  0  0  0  0  0  0  0  0  0  0
  130.4060  126.6870   67.7030 N   0  0  0  0  0  0  0  0  0  0  0  0
  132.3020  125.2130   65.6270 C   0  0  0  0  0  0  0  0  0  0  0  0
  133.0180  123.9750   65.0300 C   0  0  0  0  0  0  0  0  0  0  0  0
  1  2  2  0
  2  3  1  0
  3  4  1  0
  4  5  2  0
  5  6  1  0
  6  7  2  0
  7  8  1  0
  8  9  2  0
  3 10  1  0
 10 11  2  0
 11 12  1  0
 12 13  2  0
 13 14  1  0
 14 15  2  0
  2 16  1  0
 16 17  1  0
 17 18  1  0
 18 19  1  0
 19 20  1  0
 20 21  2  0
 21 22  1  0
 22 23  1  0
 22 24  2  0
 24 25  1  0
 25 26  2  0
 26 27  1  0
 27 28  1  0
 28 29  1  0
 29 30  2  0
 30 31  1  0
 31 32  2  0
 32 33  1  0
 33 34  1  0
 33 35  2  0
 27 36  1  0
 36 37  2  0
 19 38  1  0
 38 39  1  0
  9  4  1  0
 15 10  1  0
 39 16  1  0
 37 20  1  0
 36 24  1  0
 35 29  1  0
M  END
>  <Binding energies>  (78) 
[-9.89]

>  <Ligand effiencies>  (78) 
[-0.24725000000000003]

>  <Interactions>  (78) 
["V-B:TYR:539:CD2:9845, V-B:GLU:543:CD:9879, V-B:GLU:543:CG:9878, V-A:HIS:456:CE1:4069, V-B:TYR:539:CE2:9847, V-B:ALA:541:CB:9863, V-A:GLU:543:CB:4906, V-B:HIS:456:CE1:9041, V-A:GLU:543:CD:4908, V-A:GLY:454:CA:4048, V-A:GLU:543:CG:4907, V-A:LEU:475:CD2:4258, V-A:TYR:484:CZ:4346, V-A:PRO:482:CB:4325, V-A:TRP:381:CH2:3371, V-A:ILE:369:CG2:3236, V-A:TRP:381:CZ2:3369, V-A:ILE:369:CB:3235, V-A:ASP:366:CB:3211, V-A:ASP:366:C:3207, V-A:ASP:366:CA:3209, H-B:GLU:543:OE2:9881, V-B:HIS:456:CG:9037, V-B:HIS:456:CD2:9039, H-B:GLU:543:OE1:9880, V-A:TYR:531:CZ:4794"]

$$$$
RR28_Rahimova_2017
     RDKit          3D

 46 49  0  0  0  0  0  0  0  0999 V2000
  127.5850  125.1200   56.8960 C   0  0  0  0  0  0  0  0  0  0  0  0
  129.0280  125.5500   57.1370 C   0  0  0  0  0  0  0  0  0  0  0  0
  129.9190  125.1250   56.4040 O   0  0  0  0  0  0  0  0  0  0  0  0
  129.2350  126.3920   58.1700 N   0  0  0  0  0  0  0  0  0  0  0  0
  130.5170  126.9650   58.6410 C   0  0  0  0  0  0  0  0  0  0  0  0
  130.4660  128.5060   58.4350 C   0  0  0  0  0  0  0  0  0  0  0  0
  129.2280  129.1300   58.2150 C   0  0  0  0  0  0  0  0  0  0  0  0
  129.1450  130.5060   58.0220 C   0  0  0  0  0  0  0  0  0  0  0  0
  130.3000  131.2900   58.0440 C   0  0  0  0  0  0  0  0  0  0  0  0
  130.1890  132.7990   57.8260 C   0  0  0  0  0  0  0  0  0  0  0  0
  131.3660  133.3550   57.5300 F   0  0  0  0  0  0  0  0  0  0  0  0
  129.3470  133.0620   56.8270 F   0  0  0  0  0  0  0  0  0  0  0  0
  129.7270  133.3700   58.9390 F   0  0  0  0  0  0  0  0  0  0  0  0
  131.5380  130.6810   58.2610 C   0  0  0  0  0  0  0  0  0  0  0  0
  131.6200  129.3040   58.4530 C   0  0  0  0  0  0  0  0  0  0  0  0
  131.7280  126.2710   57.9210 C   0  0  0  0  0  0  0  0  0  0  0  0
  131.8800  124.7720   58.2840 C   0  0  0  0  0  0  0  0  0  0  0  0
  132.0520  124.7120   59.7450 N   0  0  0  0  0  0  0  0  0  0  0  0
  133.2980  124.6960   60.2900 C   0  0  0  0  0  0  0  0  0  0  0  0
  134.3120  124.5610   59.6010 O   0  0  0  0  0  0  0  0  0  0  0  0
  133.4400  124.6820   61.8320 C   0  0  0  0  0  0  0  0  0  0  0  0
  133.4310  123.2800   62.5010 C   0  0  0  0  0  0  0  0  0  0  0  0
  132.1540  122.9480   63.3090 C   0  0  0  0  0  0  0  0  0  0  0  0
  131.4960  121.9600   62.9690 O   0  0  0  0  0  0  0  0  0  0  0  0
  131.8660  123.6530   64.4390 N   0  0  0  0  0  0  0  0  0  0  0  0
  132.4030  124.9910   64.7140 C   0  0  0  0  0  0  0  0  0  0  0  0
  131.4610  125.9970   64.0150 C   0  0  0  0  0  0  0  0  0  0  0  0
  129.9560  125.8920   64.4440 C   0  0  0  0  0  0  0  0  0  0  0  0
  129.1180  126.5950   63.4490 N   0  0  0  0  0  0  0  0  0  0  0  0
  129.4000  127.7290   62.7770 C   0  0  0  0  0  0  0  0  0  0  0  0
  128.3250  128.2320   61.8180 C   0  0  0  0  0  0  0  0  0  0  0  0
  130.4500  128.3590   62.8980 O   0  0  0  0  0  0  0  0  0  0  0  0
  129.8030  126.6470   65.8050 C   0  0  0  0  0  0  0  0  0  0  0  0
  128.8490  127.6560   66.0130 C   0  0  0  0  0  0  0  0  0  0  0  0
  128.7450  128.3030   67.2410 C   0  0  0  0  0  0  0  0  0  0  0  0
  129.5960  127.9590   68.2940 C   0  0  0  0  0  0  0  0  0  0  0  0
  129.4920  128.6570   69.6490 C   0  0  0  0  0  0  0  0  0  0  0  0
  130.7050  128.9600   70.1160 F   0  0  0  0  0  0  0  0  0  0  0  0
  128.7960  129.7850   69.5080 F   0  0  0  0  0  0  0  0  0  0  0  0
  128.8790  127.8980   70.5600 F   0  0  0  0  0  0  0  0  0  0  0  0
  130.5550  126.9640   68.1000 C   0  0  0  0  0  0  0  0  0  0  0  0
  130.6560  126.3190   66.8710 C   0  0  0  0  0  0  0  0  0  0  0  0
  129.5500  124.3700   64.5290 C   0  0  0  0  0  0  0  0  0  0  0  0
  130.6050  123.4170   65.1530 C   0  0  0  0  0  0  0  0  0  0  0  0
  130.8660  125.1600   60.4900 C   0  0  0  0  0  0  0  0  0  0  0  0
  130.6700  126.6650   60.1680 C   0  0  0  0  0  0  0  0  0  0  0  0
  1  2  1  0
  2  3  2  0
  2  4  1  0
  4  5  1  0
  5  6  1  0
  6  7  2  0
  7  8  1  0
  8  9  2  0
  9 10  1  0
 10 11  1  0
 10 12  1  0
 10 13  1  0
  9 14  1  0
 14 15  2  0
  5 16  1  0
 16 17  1  0
 17 18  1  0
 18 19  1  0
 19 20  2  0
 19 21  1  0
 21 22  1  0
 22 23  1  0
 23 24  2  0
 23 25  1  0
 25 26  1  0
 26 27  1  0
 27 28  1  0
 28 29  1  0
 29 30  1  0
 30 31  1  0
 30 32  2  0
 28 33  1  0
 33 34  2  0
 34 35  1  0
 35 36  2  0
 36 37  1  0
 37 38  1  0
 37 39  1  0
 37 40  1  0
 36 41  1  0
 41 42  2  0
 28 43  1  0
 43 44  1  0
 18 45  1  0
 45 46  1  0
 46  5  1  0
 15  6  1  0
 44 25  1  0
 42 33  1  0
M  END
>  <Binding energies>  (79) 
[-7.11]

>  <Ligand effiencies>  (79) 
[-0.148125]

>  <Interactions>  (79) 
["V-B:GLU:543:CD:9879, V-B:GLU:543:CG:9878, V-A:HIS:456:CE1:4069, V-B:TYR:539:CE2:9847, V-A:ILE:369:CD1:3238, V-A:GLU:543:CB:4906, V-A:TYR:484:CE1:4344, V-B:HIS:456:CE1:9041, V-A:GLU:543:CD:4908, H-A:ARG:545:NH2:4928, V-A:GLY:454:CA:4048, V-A:GLU:543:CG:4907, V-A:ASP:366:CG:3212, V-A:TYR:484:CZ:4346, V-A:GLU:543:C:4902, V-A:ILE:369:CG2:3236, V-A:ASP:366:CB:3211, V-A:ASP:366:CA:3209, H-B:GLU:543:OE2:9881, V-B:TYR:539:CZ:9848, H-B:TYR:539:OH:9849, V-B:TYR:484:CE1:9316, V-B:HIS:456:CD2:9039, H-A:TYR:531:OH:4795, V-A:TYR:539:C:4867, V-A:PRO:540:CA:4883, V-A:GLU:543:CA:4904, V-A:TYR:539:CE2:4876, V-A:TYR:539:CD2:4874, V-A:PRO:540:N:4884, V-A:PRO:540:CB:4885, V-A:TYR:531:CZ:4794, V-A:PRO:540:CD:4887, V-A:TYR:539:CZ:4877, V-A:TYR:539:CG:4872, V-A:TYR:539:CA:4869, V-A:TYR:539:CD1:4873, V-A:TYR:539:CE1:4875"]

$$$$
RR29_Rahimova_2017
     RDKit          3D

 18 19  0  0  0  0  0  0  0  0999 V2000
  129.7090  124.3760   67.6340 C   0  0  0  0  0  0  0  0  0  0  0  0
  129.9160  125.6600   66.8440 C   0  0  0  0  0  0  0  0  0  0  0  0
  129.3620  126.9080   67.5660 C   0  0  0  0  0  0  0  0  0  0  0  0
  128.4420  126.5250   68.7440 C   0  0  0  0  0  0  0  0  0  0  0  0
  129.0490  126.8860   70.0910 C   0  0  0  0  0  0  0  0  0  0  0  0
  130.0530  127.8730   70.1690 C   0  0  0  0  0  0  0  0  0  0  0  0
  130.6250  128.2220   71.4000 C   0  0  0  0  0  0  0  0  0  0  0  0
  130.1740  127.5510   72.5310 C   0  0  0  0  0  0  0  0  0  0  0  0
  129.2030  126.5920   72.4610 C   0  0  0  0  0  0  0  0  0  0  0  0
  128.6100  126.2330   71.2560 C   0  0  0  0  0  0  0  0  0  0  0  0
  128.9350  126.1320   73.7120 O   0  0  0  0  0  0  0  0  0  0  0  0
  129.9240  126.6850   74.5390 C   0  0  0  0  0  0  0  0  0  0  0  0
  130.5440  127.7230   73.8280 O   0  0  0  0  0  0  0  0  0  0  0  0
  130.4950  125.5920   65.7020 N   0  0  0  0  0  0  0  0  0  0  0  0
  130.6070  126.7390   64.9480 N   0  0  0  0  0  0  0  0  0  0  0  0
  129.7780  127.0600   63.9410 C   0  0  0  0  0  0  0  0  0  0  0  0
  128.7320  126.3290   63.5520 N   0  0  0  0  0  0  0  0  0  0  0  0
  130.0120  128.1870   63.2850 N   0  0  0  0  0  0  0  0  0  0  0  0
  1  2  1  0
  2  3  1  0
  3  4  1  0
  4  5  1  0
  5  6  2  0
  6  7  1  0
  7  8  2  0
  8  9  1  0
  9 10  2  0
  9 11  1  0
 11 12  1  0
 12 13  1  0
  2 14  2  0
 14 15  1  0
 15 16  1  0
 16 17  1  0
 16 18  2  0
 10  5  1  0
 13  8  1  0
M  CHG  1  18   1
M  END
>  <Binding energies>  (80) 
[-7.35]

>  <Ligand effiencies>  (80) 
[-0.31956521739130433]

>  <Interactions>  (80) 
["V-B:GLU:543:CD:9879, V-B:GLU:543:CG:9878, V-A:HIS:456:CE1:4069, V-B:GLU:543:CB:9877, V-A:TYR:484:CE1:4344, V-B:HIS:456:CE1:9041, V-A:GLU:543:CD:4908, V-A:TYR:484:CZ:4346, H-A:GLU:543:OE2:4910, H-A:GLU:543:OE1:4909, V-B:GLU:543:CA:9875, H-B:GLU:543:OE2:9881, H-B:LYS:547:NZ:9922, H-A:LYS:547:NZ:4951"]

$$$$
RR30_Rahimova_2017
     RDKit          3D

 18 19  0  0  0  0  0  0  0  0999 V2000
  132.6310  123.6150   60.5270 C   0  0  0  0  0  0  0  0  0  0  0  0
  133.5720  124.6840   61.1030 C   0  0  0  0  0  0  0  0  0  0  0  0
  133.3870  124.8670   62.5930 C   0  0  0  0  0  0  0  0  0  0  0  0
  134.2830  124.7450   63.5420 N   0  0  0  0  0  0  0  0  0  0  0  0
  133.6140  125.0040   64.7350 N   0  0  0  0  0  0  0  0  0  0  0  0
  132.3710  125.2500   64.4070 C   0  0  0  0  0  0  0  0  0  0  0  0
  131.0350  125.6610   65.4830 S   0  0  0  0  0  0  0  0  0  0  0  0
  130.2970  124.0120   65.7080 C   0  0  0  0  0  0  0  0  0  0  0  0
  129.8900  123.3730   64.3780 C   0  0  0  0  0  0  0  0  0  0  0  0
  130.5640  122.4460   63.9230 O   0  0  0  0  0  0  0  0  0  0  0  0
  128.8100  123.9130   63.7690 N   0  0  0  0  0  0  0  0  0  0  0  0
  128.2570  123.5100   62.5620 C   0  0  0  0  0  0  0  0  0  0  0  0
  127.0020  123.2270   62.2970 N   0  0  0  0  0  0  0  0  0  0  0  0
  126.8130  122.8550   60.9720 N   0  0  0  0  0  0  0  0  0  0  0  0
  127.9200  122.8640   60.2660 C   0  0  0  0  0  0  0  0  0  0  0  0
  127.9710  122.4940   58.8010 C   0  0  0  0  0  0  0  0  0  0  0  0
  129.3140  123.3450   61.1950 S   0  0  0  0  0  0  0  0  0  0  0  0
  132.1570  125.1850   63.0680 O   0  0  0  0  0  0  0  0  0  0  0  0
  1  2  1  0
  2  3  1  0
  3  4  2  0
  4  5  1  0
  5  6  2  0
  6  7  1  0
  7  8  1  0
  8  9  1  0
  9 10  2  0
  9 11  1  0
 11 12  1  0
 12 13  2  0
 13 14  1  0
 14 15  2  0
 15 16  1  0
 15 17  1  0
  6 18  1  0
 18  3  1  0
 17 12  1  0
M  END
>  <Binding energies>  (81) 
[-6.19]

>  <Ligand effiencies>  (81) 
[-0.3257894736842106]

>  <Interactions>  (81) 
["V-B:TYR:539:CD2:9845, V-B:GLU:543:CD:9879, V-B:PRO:540:CA:9854, H-A:TYR:484:OH:4347, V-B:PRO:540:N:9855, H-A:GLY:454:N:4049, V-B:GLU:543:CG:9878, V-B:TYR:539:CE2:9847, V-A:ILE:369:CD1:3238, V-B:TYR:539:C:9838, V-A:ARG:545:CZ:4926, V-B:ALA:541:CB:9863, V-A:TYR:484:CE1:4344, V-A:ASP:366:CG:3212, V-A:TYR:484:CZ:4346, V-A:ILE:369:CG2:3236, H-B:ALA:541:N:9862, H-B:GLU:543:OE2:9881, V-B:TYR:539:CZ:9848, H-B:GLU:543:OE1:9880"]

$$$$
RR31_Rahimova_2017
     RDKit          3D

 18 19  0  0  0  0  0  0  0  0999 V2000
  130.0770  126.3820   72.7050 C   0  0  0  0  0  0  0  0  0  0  0  0
  129.6670  126.8870   71.3290 C   0  0  0  0  0  0  0  0  0  0  0  0
  128.7150  126.1760   70.5980 C   0  0  0  0  0  0  0  0  0  0  0  0
  128.3160  126.6140   69.3370 C   0  0  0  0  0  0  0  0  0  0  0  0
  128.8520  127.7830   68.7720 C   0  0  0  0  0  0  0  0  0  0  0  0
  128.4700  128.2290   67.5050 N   0  0  0  0  0  0  0  0  0  0  0  0
  128.7840  127.4690   66.2800 C   0  0  0  0  0  0  0  0  0  0  0  0
  128.6590  128.2930   64.9760 C   0  0  0  0  0  0  0  0  0  0  0  0
  127.3230  128.8830   64.8570 N   0  0  0  0  0  0  0  0  0  0  0  0
  127.1620  129.6410   63.6120 C   0  0  0  0  0  0  0  0  0  0  0  0
  128.1990  129.2620   62.5370 C   0  0  0  0  0  0  0  0  0  0  0  0
  127.7230  128.1000   61.6510 C   0  0  0  0  0  0  0  0  0  0  0  0
  126.5890  127.3400   62.3490 N   0  0  0  0  0  0  0  0  0  0  0  0
  127.1330  129.7710   66.0030 C   0  0  0  0  0  0  0  0  0  0  0  0
  127.2100  128.9800   67.3290 C   0  0  0  0  0  0  0  0  0  0  0  0
  129.8150  128.4830   69.5130 C   0  0  0  0  0  0  0  0  0  0  0  0
  130.2250  128.0530   70.7800 C   0  0  0  0  0  0  0  0  0  0  0  0
  131.2770  128.8570   71.5330 C   0  0  0  0  0  0  0  0  0  0  0  0
  1  2  1  0
  2  3  2  0
  3  4  1  0
  4  5  2  0
  5  6  1  0
  6  7  1  0
  7  8  1  0
  8  9  1  0
  9 10  1  0
 10 11  1  0
 11 12  1  0
 12 13  1  0
  9 14  1  0
 14 15  1  0
  5 16  1  0
 16 17  2  0
 17 18  1  0
 17  2  1  0
 15  6  1  0
M  CHG  1  13   1
M  END
>  <Binding energies>  (82) 
[-5.85]

>  <Ligand effiencies>  (82) 
[-0.2785714285714286]

>  <Interactions>  (82) 
["V-B:GLU:543:CD:9879, V-A:HIS:456:CE1:4069, V-B:GLU:543:CB:9877, V-A:GLU:543:CB:4906, V-B:HIS:456:CE1:9041, V-A:GLU:543:CD:4908, V-A:GLU:543:CG:4907, V-A:HIS:456:CG:4065, V-A:GLU:543:C:4902, V-A:GLY:544:C:4912, V-A:HIS:456:CD2:4067, H-B:GLU:543:OE2:9881, H-B:ASP:366:OD2:8186, H-B:GLU:543:OE1:9880, H-B:ASP:366:OD1:8185"]

$$$$
RR32_Rahimova_2017
     RDKit          3D

 18 20  0  0  0  0  0  0  0  0999 V2000
  125.8290  124.0300   61.9440 C   0  0  0  0  0  0  0  0  0  0  0  0
  126.8720  123.4210   61.0120 C   0  0  0  0  0  0  0  0  0  0  0  0
  128.0730  122.9770   61.5660 C   0  0  0  0  0  0  0  0  0  0  0  0
  129.0470  122.4130   60.7480 C   0  0  0  0  0  0  0  0  0  0  0  0
  130.2370  121.9740   61.3010 N   0  0  0  0  0  0  0  0  0  0  0  0
  131.0680  121.0690   60.4870 C   0  0  0  0  0  0  0  0  0  0  0  0
  132.2790  120.4930   61.2580 C   0  0  0  0  0  0  0  0  0  0  0  0
  133.1230  121.5780   61.7570 N   0  0  0  0  0  0  0  0  0  0  0  0
  134.2820  121.0350   62.4560 C   0  0  0  0  0  0  0  0  0  0  0  0
  132.3190  122.3930   62.6660 C   0  0  0  0  0  0  0  0  0  0  0  0
  131.1070  122.9950   61.9180 C   0  0  0  0  0  0  0  0  0  0  0  0
  128.8840  122.2720   59.4070 N   0  0  0  0  0  0  0  0  0  0  0  0
  127.7240  122.6980   58.8360 C   0  0  0  0  0  0  0  0  0  0  0  0
  127.5830  122.5410   57.4350 C   0  0  0  0  0  0  0  0  0  0  0  0
  126.4200  122.9580   56.7980 C   0  0  0  0  0  0  0  0  0  0  0  0
  125.3840  123.5320   57.5260 C   0  0  0  0  0  0  0  0  0  0  0  0
  125.4910  123.7010   58.9030 C   0  0  0  0  0  0  0  0  0  0  0  0
  126.6650  123.2890   59.5990 C   0  0  0  0  0  0  0  0  0  0  0  0
  1  2  1  0
  2  3  2  0
  3  4  1  0
  4  5  1  0
  5  6  1  0
  6  7  1  0
  7  8  1  0
  8  9  1  0
  8 10  1  0
 10 11  1  0
  4 12  2  0
 12 13  1  0
 13 14  2  0
 14 15  1  0
 15 16  2  0
 16 17  1  0
 17 18  2  0
 18  2  1  0
 11  5  1  0
 18 13  1  0
M  END
>  <Binding energies>  (83) 
[-5.9]

>  <Ligand effiencies>  (83) 
[-0.3277777777777778]

>  <Interactions>  (83) 
["V-B:TYR:539:CD2:9845, V-B:GLU:543:CD:9879, V-B:PRO:540:CA:9854, V-B:PRO:540:N:9855, V-B:TYR:539:CE2:9847, V-A:ILE:369:CD1:3238, V-B:TYR:539:C:9838, V-B:ALA:541:CB:9863, V-A:GLY:454:CA:4048, V-A:LEU:475:CD2:4258, V-A:ILE:369:CG2:3236, V-B:PRO:540:CB:9856, V-B:TYR:539:CZ:9848, V-B:TYR:539:CD1:9844, V-B:TYR:539:CE1:9846, V-B:TYR:539:CG:9843, V-B:LEU:363:CD1:8160"]

$$$$
RR5_Rahimova_2017
     RDKit          3D

 45 50  0  0  0  0  0  0  0  0999 V2000
  131.7770  122.7070   63.1410 O   0  0  0  0  0  0  0  0  0  0  0  0
  131.1120  123.7410   63.0870 C   0  0  0  0  0  0  0  0  0  0  0  0
  131.1600  124.7410   64.2580 C   0  0  0  0  0  0  0  0  0  0  0  0
  132.2360  125.8720   64.0890 C   0  0  2  0  0  0  0  0  0  0  0  0
  132.2120  126.5630   62.7840 N   0  0  0  0  0  0  0  0  0  0  0  0
  131.0320  127.0520   62.2400 C   0  0  0  0  0  0  0  0  0  0  0  0
  129.9140  127.0210   62.7610 O   0  0  0  0  0  0  0  0  0  0  0  0
  131.3030  127.5600   61.0260 O   0  0  0  0  0  0  0  0  0  0  0  0
  130.2780  127.7510   60.0550 C   0  0  0  0  0  0  0  0  0  0  0  0
  130.0880  129.2520   59.7450 C   0  0  0  0  0  0  0  0  0  0  0  0
  129.7570  130.0890   60.9670 C   0  0  0  0  0  0  0  0  0  0  0  0
  128.6930  129.9680   61.8670 C   0  0  0  0  0  0  0  0  0  0  0  0
  128.5950  130.8450   62.9480 C   0  0  0  0  0  0  0  0  0  0  0  0
  129.5540  131.8410   63.1330 C   0  0  0  0  0  0  0  0  0  0  0  0
  130.6160  131.9660   62.2350 C   0  0  0  0  0  0  0  0  0  0  0  0
  130.7130  131.0880   61.1540 C   0  0  0  0  0  0  0  0  0  0  0  0
  131.7010  130.9950   60.0680 C   0  0  0  0  0  0  0  0  0  0  0  0
  132.8350  131.7620   59.7890 C   0  0  0  0  0  0  0  0  0  0  0  0
  133.6040  131.4710   58.6610 C   0  0  0  0  0  0  0  0  0  0  0  0
  133.2420  130.4180   57.8180 C   0  0  0  0  0  0  0  0  0  0  0  0
  132.1110  129.6530   58.1030 C   0  0  0  0  0  0  0  0  0  0  0  0
  131.3400  129.9380   59.2320 C   0  0  0  0  0  0  0  0  0  0  0  0
  133.6580  125.3230   64.3620 C   0  0  0  0  0  0  0  0  0  0  0  0
  134.1070  125.0830   65.4650 O   0  0  0  0  0  0  0  0  0  0  0  0
  134.3140  125.1360   63.1790 O   0  0  0  0  0  0  0  0  0  0  0  0
  130.3370  124.1060   62.0420 N   0  0  0  0  0  0  0  0  0  0  0  0
  130.0080  123.4650   60.7330 C   0  0  0  0  0  0  0  0  0  0  0  0
  130.9220  124.2590   59.7410 C   0  0  0  0  0  0  0  0  0  0  0  0
  132.2920  124.4440   59.9950 C   0  0  0  0  0  0  0  0  0  0  0  0
  133.0960  125.1500   59.1040 C   0  0  0  0  0  0  0  0  0  0  0  0
  132.5420  125.6930   57.9500 C   0  0  0  0  0  0  0  0  0  0  0  0
  131.1900  125.5250   57.6730 C   0  0  0  0  0  0  0  0  0  0  0  0
  130.3890  124.8090   58.5580 C   0  0  0  0  0  0  0  0  0  0  0  0
  130.4050  121.9540   60.8400 C   0  0  0  0  0  0  0  0  0  0  0  0
  129.4830  120.9760   61.2460 C   0  0  0  0  0  0  0  0  0  0  0  0
  129.8640  119.6400   61.3530 C   0  0  0  0  0  0  0  0  0  0  0  0
  131.1710  119.2670   61.0580 C   0  0  0  0  0  0  0  0  0  0  0  0
  132.1010  120.2170   60.6510 C   0  0  0  0  0  0  0  0  0  0  0  0
  131.7170  121.5490   60.5360 C   0  0  0  0  0  0  0  0  0  0  0  0
  128.4820  123.7230   60.4940 C   0  0  0  0  0  0  0  0  0  0  0  0
  127.8310  123.2150   59.3550 C   0  0  0  0  0  0  0  0  0  0  0  0
  126.4770  123.4480   59.1320 C   0  0  0  0  0  0  0  0  0  0  0  0
  125.7450  124.1910   60.0520 C   0  0  0  0  0  0  0  0  0  0  0  0
  126.3560  124.6940   61.1940 C   0  0  0  0  0  0  0  0  0  0  0  0
  127.7110  124.4590   61.4120 C   0  0  0  0  0  0  0  0  0  0  0  0
  1  2  2  0
  2  3  1  0
  4  3  1  6
  4  5  1  0
  5  6  1  0
  6  7  2  0
  6  8  1  0
  8  9  1  0
  9 10  1  0
 10 11  1  0
 11 12  2  0
 12 13  1  0
 13 14  2  0
 14 15  1  0
 15 16  2  0
 16 17  1  0
 17 18  2  0
 18 19  1  0
 19 20  2  0
 20 21  1  0
 21 22  2  0
  4 23  1  0
 23 24  2  0
 23 25  1  0
  2 26  1  0
 26 27  1  0
 27 28  1  0
 28 29  2  0
 29 30  1  0
 30 31  2  0
 31 32  1  0
 32 33  2  0
 27 34  1  0
 34 35  2  0
 35 36  1  0
 36 37  2  0
 37 38  1  0
 38 39  2  0
 27 40  1  0
 40 41  2  0
 41 42  1  0
 42 43  2  0
 43 44  1  0
 44 45  2  0
 22 10  1  0
 33 28  1  0
 39 34  1  0
 45 40  1  0
 16 11  1  0
 22 17  1  0
M  END
>  <Binding energies>  (84) 
[-9.78]

>  <Ligand effiencies>  (84) 
[-0.20375]

>  <Interactions>  (84) 
["V-B:TYR:539:CD2:9845, V-B:PRO:540:CA:9854, H-A:TYR:484:OH:4347, H-A:GLY:454:N:4049, H-A:ARG:545:NH1:4927, V-B:TYR:539:CE2:9847, V-A:ARG:545:CZ:4926, H-A:ARG:545:NE:4924, V-B:ALA:541:CB:9863, V-A:GLU:543:CD:4908, H-A:ARG:545:NH2:4928, V-A:GLU:543:CG:4907, V-A:ASP:366:CG:3212, V-A:LEU:475:CD2:4258, V-A:PRO:482:CB:4325, V-A:TRP:381:CH2:3371, V-B:ALA:541:CA:9861, V-A:ILE:369:CG2:3236, V-A:PRO:482:CG:4326, V-A:TRP:381:CZ2:3369, H-A:ASP:366:OD1:3213, V-A:ASP:366:CB:3211, V-A:ASP:366:C:3207, V-A:ASP:366:CA:3209, V-B:PRO:540:CB:9856, V-B:TYR:539:CZ:9848, H-A:ASP:366:OD2:3214, V-A:ALA:541:CB:4892, V-A:PRO:540:CA:4883, V-A:PRO:540:CB:4885, V-A:TRP:381:CZ3:3370, V-A:TYR:531:CE2:4793, V-A:LEU:363:CD1:3188, V-A:TYR:531:CZ:4794, V-A:LEU:363:CB:3186, V-A:LEU:363:CA:3184"]

$$$$
