1a_Ghoteimi_2023
     RDKit          3D

 40 43  0  0  0  0  0  0  0  0999 V2000
  133.2920  130.7470   57.9000 C   0  0  0  0  0  0  0  0  0  0  0  0
  132.4990  131.7590   57.0670 C   0  0  0  0  0  0  0  0  0  0  0  0
  131.1110  131.6080   57.3390 O   0  0  0  0  0  0  0  0  0  0  0  0
  130.4170  132.5700   57.9990 C   0  0  0  0  0  0  0  0  0  0  0  0
  130.0390  133.6200   57.4700 O   0  0  0  0  0  0  0  0  0  0  0  0
  130.1500  132.2280   59.4360 C   0  0  0  0  0  0  0  0  0  0  0  0
  131.1130  131.6020   60.2410 C   0  0  0  0  0  0  0  0  0  0  0  0
  130.8360  131.2940   61.5710 C   0  0  0  0  0  0  0  0  0  0  0  0
  129.5850  131.6120   62.1220 C   0  0  0  0  0  0  0  0  0  0  0  0
  129.1960  131.3430   63.4480 N   0  0  0  0  0  0  0  0  0  0  0  0
  127.9900  130.9890   63.9410 C   0  0  0  0  0  0  0  0  0  0  0  0
  126.9680  130.8160   63.2770 O   0  0  0  0  0  0  0  0  0  0  0  0
  127.9320  130.7890   65.4550 C   0  0  0  0  0  0  0  0  0  0  0  0
  126.9980  129.2960   65.9020 S   0  0  0  0  0  0  0  0  0  0  0  0
  128.2010  128.1030   66.4410 C   0  0  0  0  0  0  0  0  0  0  0  0
  128.1840  127.8700   67.7750 N   0  0  0  0  0  0  0  0  0  0  0  0
  129.0510  126.9740   68.3160 C   0  0  0  0  0  0  0  0  0  0  0  0
  128.9560  126.7570   69.7980 C   0  0  0  0  0  0  0  0  0  0  0  0
  129.6110  127.6080   70.7040 C   0  0  0  0  0  0  0  0  0  0  0  0
  129.5200  127.4040   72.0780 C   0  0  0  0  0  0  0  0  0  0  0  0
  128.7760  126.3440   72.5900 C   0  0  0  0  0  0  0  0  0  0  0  0
  128.7400  126.2200   73.9660 O   0  0  0  0  0  0  0  0  0  0  0  0
  129.8900  125.7340   74.6490 C   0  0  0  0  0  0  0  0  0  0  0  0
  128.1210  125.4830   71.6990 C   0  0  0  0  0  0  0  0  0  0  0  0
  128.2130  125.6900   70.3260 C   0  0  0  0  0  0  0  0  0  0  0  0
  129.9650  126.2900   67.5050 C   0  0  0  0  0  0  0  0  0  0  0  0
  130.0180  126.5320   66.1260 C   0  0  0  0  0  0  0  0  0  0  0  0
  131.0400  125.7880   65.3280 C   0  0  0  0  0  0  0  0  0  0  0  0
  132.4060  125.9700   65.5660 C   0  0  0  0  0  0  0  0  0  0  0  0
  133.3510  125.2630   64.8280 C   0  0  0  0  0  0  0  0  0  0  0  0
  132.9520  124.3550   63.8470 C   0  0  0  0  0  0  0  0  0  0  0  0
  133.9590  123.6990   63.1680 O   0  0  0  0  0  0  0  0  0  0  0  0
  133.6400  122.5430   62.4000 C   0  0  0  0  0  0  0  0  0  0  0  0
  131.5810  124.1640   63.6130 C   0  0  0  0  0  0  0  0  0  0  0  0
  130.6380  124.8730   64.3500 C   0  0  0  0  0  0  0  0  0  0  0  0
  129.1080  127.4630   65.5700 C   0  0  0  0  0  0  0  0  0  0  0  0
  129.1050  127.7460   64.1310 C   0  0  0  0  0  0  0  0  0  0  0  0
  129.1040  127.9700   62.9950 N   0  0  0  0  0  0  0  0  0  0  0  0
  128.6240  132.2310   61.3220 C   0  0  0  0  0  0  0  0  0  0  0  0
  128.9030  132.5390   59.9930 C   0  0  0  0  0  0  0  0  0  0  0  0
  1  2  1  0
  2  3  1  0
  3  4  1  0
  4  5  2  0
  4  6  1  0
  6  7  2  0
  7  8  1  0
  8  9  2  0
  9 10  1  0
 10 11  1  0
 11 12  2  0
 11 13  1  0
 13 14  1  0
 14 15  1  0
 15 16  2  0
 16 17  1  0
 17 18  1  0
 18 19  2  0
 19 20  1  0
 20 21  2  0
 21 22  1  0
 22 23  1  0
 21 24  1  0
 24 25  2  0
 17 26  2  0
 26 27  1  0
 27 28  1  0
 28 29  2  0
 29 30  1  0
 30 31  2  0
 31 32  1  0
 32 33  1  0
 31 34  1  0
 34 35  2  0
 27 36  2  0
 36 37  1  0
 37 38  3  0
  9 39  1  0
 39 40  2  0
 40  6  1  0
 36 15  1  0
 25 18  1  0
 35 28  1  0
M  END
>  <Binding energies>  (1) 
[-9.55]

>  <Ligand effiencies>  (1) 
[-0.2329268292682927]

>  <Interactions>  (1) 
["V-B:GLU:543:CD:9879, H-A:GLY:454:N:4049, V-A:HIS:456:CE1:4069, V-B:GLU:543:CB:9877, V-A:ILE:369:CD1:3238, V-A:ARG:545:CZ:4926, V-B:HIS:456:CE1:9041, V-A:GLU:543:CD:4908, V-A:GLY:454:CA:4048, V-A:GLU:543:CG:4907, V-A:ASP:366:CG:3212, V-B:GLU:543:C:9873, H-A:GLU:543:OE1:4909, V-A:ILE:369:CG2:3236, V-A:ASP:366:CB:3211, H-B:LYS:547:NZ:9922, V-B:HIS:456:CD2:9039, V-A:ALA:541:CB:4892, V-B:GLY:544:C:9883, V-A:TYR:539:C:4867, V-A:PRO:540:CA:4883, V-A:PRO:540:N:4884, H-A:TYR:539:N:4870, V-A:TYR:531:CE2:4793, V-A:LEU:363:CD1:3188, V-A:LEU:363:CA:3184"]

$$$$
1b_Ghoteimi_2023
     RDKit          3D

 34 37  0  0  0  0  0  0  0  0999 V2000
  129.8530  125.6940   74.7330 C   0  0  0  0  0  0  0  0  0  0  0  0
  128.7330  126.2030   74.0190 O   0  0  0  0  0  0  0  0  0  0  0  0
  128.8590  126.4650   72.6680 C   0  0  0  0  0  0  0  0  0  0  0  0
  128.2620  125.5570   71.7960 C   0  0  0  0  0  0  0  0  0  0  0  0
  128.3380  125.7390   70.4190 C   0  0  0  0  0  0  0  0  0  0  0  0
  129.0120  126.8400   69.8700 C   0  0  0  0  0  0  0  0  0  0  0  0
  129.0940  127.0320   68.3810 C   0  0  0  0  0  0  0  0  0  0  0  0
  130.0430  126.3880   67.5810 C   0  0  0  0  0  0  0  0  0  0  0  0
  130.0750  126.5980   66.1970 C   0  0  0  0  0  0  0  0  0  0  0  0
  131.1190  125.8810   65.4070 C   0  0  0  0  0  0  0  0  0  0  0  0
  130.7500  124.9830   64.4010 C   0  0  0  0  0  0  0  0  0  0  0  0
  131.7200  124.3050   63.6670 C   0  0  0  0  0  0  0  0  0  0  0  0
  133.0760  124.5080   63.9270 C   0  0  0  0  0  0  0  0  0  0  0  0
  133.9660  123.7920   63.1500 O   0  0  0  0  0  0  0  0  0  0  0  0
  133.5410  122.5720   62.5520 C   0  0  0  0  0  0  0  0  0  0  0  0
  133.4510  125.4020   64.9400 C   0  0  0  0  0  0  0  0  0  0  0  0
  132.4780  126.0780   65.6720 C   0  0  0  0  0  0  0  0  0  0  0  0
  129.1150  127.4700   65.6260 C   0  0  0  0  0  0  0  0  0  0  0  0
  129.0440  127.6490   64.1720 C   0  0  0  0  0  0  0  0  0  0  0  0
  128.9890  127.7900   63.0250 N   0  0  0  0  0  0  0  0  0  0  0  0
  128.1970  128.1050   66.4920 C   0  0  0  0  0  0  0  0  0  0  0  0
  126.9300  129.2350   65.9540 S   0  0  0  0  0  0  0  0  0  0  0  0
  127.6030  130.9270   66.0660 C   0  0  0  0  0  0  0  0  0  0  0  0
  127.6760  131.6860   64.7330 C   0  0  0  0  0  0  0  0  0  0  0  0
  126.7530  132.4200   64.3750 O   0  0  0  0  0  0  0  0  0  0  0  0
  128.8080  131.4730   64.0250 N   0  0  0  0  0  0  0  0  0  0  0  0
  129.1470  132.0240   62.7950 C   0  0  0  0  0  0  0  0  0  0  0  0
  128.2580  132.0970   61.7230 C   0  0  0  0  0  0  0  0  0  0  0  0
  128.9680  132.6990   60.7100 C   0  0  0  0  0  0  0  0  0  0  0  0
  130.2190  132.9770   61.1500 O   0  0  0  0  0  0  0  0  0  0  0  0
  130.3200  132.5440   62.4730 N   0  0  0  0  0  0  0  0  0  0  0  0
  128.1810  127.8720   67.8270 N   0  0  0  0  0  0  0  0  0  0  0  0
  129.6120  127.7480   70.7560 C   0  0  0  0  0  0  0  0  0  0  0  0
  129.5390  127.5690   72.1340 C   0  0  0  0  0  0  0  0  0  0  0  0
  1  2  1  0
  2  3  1  0
  3  4  2  0
  4  5  1  0
  5  6  2  0
  6  7  1  0
  7  8  2  0
  8  9  1  0
  9 10  1  0
 10 11  2  0
 11 12  1  0
 12 13  2  0
 13 14  1  0
 14 15  1  0
 13 16  1  0
 16 17  2  0
  9 18  2  0
 18 19  1  0
 19 20  3  0
 18 21  1  0
 21 22  1  0
 22 23  1  0
 23 24  1  0
 24 25  2  0
 24 26  1  0
 26 27  1  0
 27 28  1  0
 28 29  2  0
 29 30  1  0
 30 31  1  0
 21 32  2  0
  6 33  1  0
 33 34  2  0
 34  3  1  0
 32  7  1  0
 17 10  1  0
 31 27  2  0
M  END
>  <Binding energies>  (2) 
[-9.03]

>  <Ligand effiencies>  (2) 
[-0.258]

>  <Interactions>  (2) 
["V-A:ARG:545:CD:4923, V-B:GLU:543:CD:9879, H-A:GLY:454:N:4049, V-A:HIS:456:CE1:4069, V-B:GLU:543:CB:9877, V-A:ILE:369:CD1:3238, V-A:ARG:545:CZ:4926, V-B:HIS:456:CE1:9041, V-A:GLU:543:CD:4908, V-A:GLY:454:CA:4048, V-A:GLU:543:CG:4907, H-A:GLU:543:OE2:4910, V-B:GLU:543:C:9873, H-A:GLU:543:OE1:4909, V-A:ILE:369:CG2:3236, H-B:LYS:547:NZ:9922, V-B:TYR:484:CE1:9316, V-B:HIS:456:CD2:9039, V-A:ALA:541:CB:4892, H-A:ALA:541:N:4891"]

$$$$
1c_Ghoteimi_2023
     RDKit          3D

 34 37  0  0  0  0  0  0  0  0999 V2000
  129.0840  127.3810   74.8550 C   0  0  0  0  0  0  0  0  0  0  0  0
  128.7480  126.2240   74.0980 O   0  0  0  0  0  0  0  0  0  0  0  0
  128.7550  126.2940   72.7180 C   0  0  0  0  0  0  0  0  0  0  0  0
  129.4670  127.3470   72.1490 C   0  0  0  0  0  0  0  0  0  0  0  0
  129.5250  127.4960   70.7660 C   0  0  0  0  0  0  0  0  0  0  0  0
  128.8710  126.5970   69.9100 C   0  0  0  0  0  0  0  0  0  0  0  0
  128.9270  126.7580   68.4180 C   0  0  0  0  0  0  0  0  0  0  0  0
  128.2540  127.7800   67.7420 C   0  0  0  0  0  0  0  0  0  0  0  0
  128.3580  127.9060   66.3510 C   0  0  0  0  0  0  0  0  0  0  0  0
  127.6670  129.0600   65.7030 C   0  0  0  0  0  0  0  0  0  0  0  0
  126.3300  129.3440   65.9950 C   0  0  0  0  0  0  0  0  0  0  0  0
  125.6810  130.4070   65.3740 C   0  0  0  0  0  0  0  0  0  0  0  0
  126.3540  131.2030   64.4470 C   0  0  0  0  0  0  0  0  0  0  0  0
  125.6320  132.2360   63.8810 O   0  0  0  0  0  0  0  0  0  0  0  0
  126.2050  132.9780   62.8100 C   0  0  0  0  0  0  0  0  0  0  0  0
  127.6950  130.9170   64.1470 C   0  0  0  0  0  0  0  0  0  0  0  0
  128.3420  129.8530   64.7690 C   0  0  0  0  0  0  0  0  0  0  0  0
  129.1350  126.9580   65.6460 C   0  0  0  0  0  0  0  0  0  0  0  0
  129.2570  127.0150   64.1850 C   0  0  0  0  0  0  0  0  0  0  0  0
  129.3530  127.0610   63.0320 N   0  0  0  0  0  0  0  0  0  0  0  0
  129.8020  125.9630   66.3910 C   0  0  0  0  0  0  0  0  0  0  0  0
  130.9440  124.8140   65.6570 S   0  0  0  0  0  0  0  0  0  0  0  0
  132.4700  125.7750   65.3960 C   0  0  0  0  0  0  0  0  0  0  0  0
  133.0750  125.5350   64.0090 C   0  0  0  0  0  0  0  0  0  0  0  0
  134.2250  125.1040   63.9130 O   0  0  0  0  0  0  0  0  0  0  0  0
  132.2490  125.7860   62.9690 N   0  0  0  0  0  0  0  0  0  0  0  0
  132.4910  125.5090   61.6330 C   0  0  0  0  0  0  0  0  0  0  0  0
  133.3810  124.6810   61.1280 N   0  0  0  0  0  0  0  0  0  0  0  0
  133.3050  124.6350   59.8120 C   0  0  0  0  0  0  0  0  0  0  0  0
  132.3340  125.4380   59.2230 C   0  0  0  0  0  0  0  0  0  0  0  0
  131.4790  126.2990   60.4680 S   0  0  0  0  0  0  0  0  0  0  0  0
  129.7050  125.8740   67.7400 N   0  0  0  0  0  0  0  0  0  0  0  0
  128.1620  125.5370   70.4940 C   0  0  0  0  0  0  0  0  0  0  0  0
  128.1000  125.3840   71.8760 C   0  0  0  0  0  0  0  0  0  0  0  0
  1  2  1  0
  2  3  1  0
  3  4  2  0
  4  5  1  0
  5  6  2  0
  6  7  1  0
  7  8  2  0
  8  9  1  0
  9 10  1  0
 10 11  2  0
 11 12  1  0
 12 13  2  0
 13 14  1  0
 14 15  1  0
 13 16  1  0
 16 17  2  0
  9 18  2  0
 18 19  1  0
 19 20  3  0
 18 21  1  0
 21 22  1  0
 22 23  1  0
 23 24  1  0
 24 25  2  0
 24 26  1  0
 26 27  1  0
 27 28  2  0
 28 29  1  0
 29 30  2  0
 30 31  1  0
 21 32  2  0
  6 33  1  0
 33 34  2  0
 34  3  1  0
 32  7  1  0
 17 10  1  0
 31 27  1  0
M  END
>  <Binding energies>  (3) 
[-7.92]

>  <Ligand effiencies>  (3) 
[-0.22628571428571428]

>  <Interactions>  (3) 
["V-B:GLU:543:CD:9879, H-A:TYR:484:OH:4347, H-A:GLY:454:N:4049, V-B:GLU:543:CG:9878, V-A:HIS:456:CE1:4069, H-A:ARG:545:NH1:4927, V-B:GLU:543:CB:9877, V-A:ARG:545:CZ:4926, V-B:HIS:456:CE1:9041, V-A:GLU:543:CD:4908, H-A:ARG:545:NH2:4928, V-A:GLU:543:CG:4907, V-A:ASP:366:CG:3212, V-B:GLU:543:C:9873, V-A:ILE:369:CG2:3236, V-A:ILE:369:CB:3235, V-A:ASP:366:CB:3211, V-A:ASP:366:CA:3209, H-B:LYS:547:NZ:9922, V-B:HIS:456:CD2:9039, V-B:GLY:544:C:9883, V-B:LEU:475:CD1:9229"]

$$$$
1d_Ghoteimi_2023
     RDKit          3D

 30 32  0  0  0  0  0  0  0  0999 V2000
  133.6090  125.2240   62.6260 C   0  0  0  0  0  0  0  0  0  0  0  0
  134.2210  124.9790   63.8830 O   0  0  0  0  0  0  0  0  0  0  0  0
  133.5380  125.1830   65.0290 C   0  0  0  0  0  0  0  0  0  0  0  0
  133.8950  124.8480   66.1590 O   0  0  0  0  0  0  0  0  0  0  0  0
  132.2110  125.9000   64.7940 C   0  0  0  0  0  0  0  0  0  0  0  0
  130.9210  124.9650   65.6690 S   0  0  0  0  0  0  0  0  0  0  0  0
  129.8690  126.1550   66.4710 C   0  0  0  0  0  0  0  0  0  0  0  0
  129.8090  126.0120   67.8160 N   0  0  0  0  0  0  0  0  0  0  0  0
  129.0390  126.8520   68.5530 C   0  0  0  0  0  0  0  0  0  0  0  0
  129.0330  126.6290   70.0380 C   0  0  0  0  0  0  0  0  0  0  0  0
  129.6390  127.5430   70.9150 C   0  0  0  0  0  0  0  0  0  0  0  0
  129.6370  127.3310   72.2900 C   0  0  0  0  0  0  0  0  0  0  0  0
  129.0320  126.2000   72.8330 C   0  0  0  0  0  0  0  0  0  0  0  0
  129.0830  126.0710   74.2080 O   0  0  0  0  0  0  0  0  0  0  0  0
  129.9050  125.0590   74.7790 C   0  0  0  0  0  0  0  0  0  0  0  0
  128.4230  125.2780   71.9710 C   0  0  0  0  0  0  0  0  0  0  0  0
  128.4260  125.4940   70.5950 C   0  0  0  0  0  0  0  0  0  0  0  0
  128.3100  127.8760   67.9370 C   0  0  0  0  0  0  0  0  0  0  0  0
  128.3420  128.0380   66.5460 C   0  0  0  0  0  0  0  0  0  0  0  0
  127.5340  129.1480   65.9540 C   0  0  0  0  0  0  0  0  0  0  0  0
  128.1250  130.0490   65.0630 C   0  0  0  0  0  0  0  0  0  0  0  0
  127.3780  131.0850   64.5060 C   0  0  0  0  0  0  0  0  0  0  0  0
  126.0290  131.2370   64.8250 C   0  0  0  0  0  0  0  0  0  0  0  0
  125.3700  132.2970   64.2310 O   0  0  0  0  0  0  0  0  0  0  0  0
  125.6860  132.6480   62.8890 C   0  0  0  0  0  0  0  0  0  0  0  0
  125.4290  130.3270   65.7090 C   0  0  0  0  0  0  0  0  0  0  0  0
  126.1770  129.2920   66.2620 C   0  0  0  0  0  0  0  0  0  0  0  0
  129.1270  127.1410   65.7810 C   0  0  0  0  0  0  0  0  0  0  0  0
  129.1150  127.1980   64.3160 C   0  0  0  0  0  0  0  0  0  0  0  0
  129.1040  127.2440   63.1600 N   0  0  0  0  0  0  0  0  0  0  0  0
  1  2  1  0
  2  3  1  0
  3  4  2  0
  3  5  1  0
  5  6  1  0
  6  7  1  0
  7  8  2  0
  8  9  1  0
  9 10  1  0
 10 11  2  0
 11 12  1  0
 12 13  2  0
 13 14  1  0
 14 15  1  0
 13 16  1  0
 16 17  2  0
  9 18  2  0
 18 19  1  0
 19 20  1  0
 20 21  2  0
 21 22  1  0
 22 23  2  0
 23 24  1  0
 24 25  1  0
 23 26  1  0
 26 27  2  0
 19 28  2  0
 28 29  1  0
 29 30  3  0
 28  7  1  0
 17 10  1  0
 27 20  1  0
M  END
>  <Binding energies>  (4) 
[-7.6]

>  <Ligand effiencies>  (4) 
[-0.2533333333333333]

>  <Interactions>  (4) 
["V-B:GLU:543:CD:9879, H-A:TYR:484:OH:4347, H-A:GLY:454:N:4049, V-B:GLU:543:CG:9878, V-A:HIS:456:CE1:4069, H-A:ARG:545:NH1:4927, V-B:GLU:543:CB:9877, V-A:ARG:545:CZ:4926, V-B:HIS:456:CE1:9041, V-A:GLU:543:CD:4908, V-A:GLU:543:CG:4907, V-A:ASP:366:CG:3212, V-B:GLU:543:C:9873, V-A:HIS:456:CD2:4067, H-B:LYS:547:NZ:9922, V-B:LYS:547:CE:9921, V-B:LEU:475:CD1:9229"]

$$$$
1j_Grossjean_2025
     RDKit          3D

 20 21  0  0  0  0  0  0  0  0999 V2000
  132.6960  125.0890   58.0760 C   0  0  0  0  0  0  0  0  0  0  0  0
  132.7440  124.4580   59.4550 C   0  0  0  0  0  0  0  0  0  0  0  0
  133.5170  125.0010   60.4790 C   0  0  0  0  0  0  0  0  0  0  0  0
  133.5120  124.3850   61.7340 C   0  0  0  0  0  0  0  0  0  0  0  0
  134.3540  125.0090   62.8460 C   0  0  0  0  0  0  0  0  0  0  0  0
  132.7310  123.2240   61.9300 C   0  0  0  0  0  0  0  0  0  0  0  0
  132.6690  122.5920   63.2510 C   0  0  0  0  0  0  0  0  0  0  0  0
  132.6220  122.0960   64.2960 N   0  0  0  0  0  0  0  0  0  0  0  0
  131.9970  122.7270   60.8270 C   0  0  0  0  0  0  0  0  0  0  0  0
  130.9660  121.2780   60.8940 S   0  0  0  0  0  0  0  0  0  0  0  0
  129.3740  121.7670   61.6210 C   0  0  0  0  0  0  0  0  0  0  0  0
  128.4350  122.3870   60.5850 C   0  0  0  0  0  0  0  0  0  0  0  0
  127.2400  122.5170   60.8530 O   0  0  0  0  0  0  0  0  0  0  0  0
  129.0140  122.7550   59.4210 N   0  0  0  0  0  0  0  0  0  0  0  0
  128.3820  123.3300   58.3270 C   0  0  0  0  0  0  0  0  0  0  0  0
  128.6530  124.4820   57.7520 N   0  0  0  0  0  0  0  0  0  0  0  0
  127.8500  124.7140   56.7320 C   0  0  0  0  0  0  0  0  0  0  0  0
  126.9000  123.7350   56.4610 C   0  0  0  0  0  0  0  0  0  0  0  0
  127.0770  122.4420   57.6100 S   0  0  0  0  0  0  0  0  0  0  0  0
  131.9920  123.3450   59.6190 N   0  0  0  0  0  0  0  0  0  0  0  0
  1  2  1  0
  2  3  2  0
  3  4  1  0
  4  5  1  0
  4  6  2  0
  6  7  1  0
  7  8  3  0
  6  9  1  0
  9 10  1  0
 10 11  1  0
 11 12  1  0
 12 13  2  0
 12 14  1  0
 14 15  1  0
 15 16  2  0
 16 17  1  0
 17 18  2  0
 18 19  1  0
  9 20  2  0
 20  2  1  0
 19 15  1  0
M  END
>  <Binding energies>  (5) 
[-5.66]

>  <Ligand effiencies>  (5) 
[-0.26952380952380955]

>  <Interactions>  (5) 
["V-B:TYR:539:CD2:9845, V-B:PRO:540:CA:9854, H-A:TYR:484:OH:4347, V-B:PRO:540:N:9855, H-A:GLY:454:N:4049, V-B:TYR:539:CE2:9847, V-A:ILE:369:CD1:3238, V-B:TYR:539:C:9838, V-A:ARG:545:CZ:4926, V-B:ALA:541:CB:9863, V-A:GLY:454:CA:4048, V-A:ASP:366:CG:3212, V-A:LEU:475:CD2:4258, V-B:ALA:541:CA:9861, V-A:ILE:369:CG2:3236, H-B:ALA:541:N:9862, V-A:ASP:366:CB:3211, V-A:ASP:366:C:3207, V-A:ASP:366:CA:3209, V-A:GLY:453:CA:4043, V-B:TYR:539:CZ:9848, H-B:TYR:539:OH:9849, V-B:PRO:540:CD:9858, V-A:GLY:453:C:4041, V-B:TYR:539:CD1:9844, V-B:TYR:539:CG:9843"]

$$$$
1o_Grossjean_2025
     RDKit          3D

 26 27  0  0  0  0  0  0  0  0999 V2000
  129.5170  129.6000   74.0240 C   0  0  0  0  0  0  0  0  0  0  0  0
  130.2010  128.3550   73.9860 O   0  0  0  0  0  0  0  0  0  0  0  0
  129.6340  127.2630   73.4110 C   0  0  0  0  0  0  0  0  0  0  0  0
  129.1070  126.3510   74.0570 O   0  0  0  0  0  0  0  0  0  0  0  0
  129.7060  127.2750   71.9120 C   0  0  0  0  0  0  0  0  0  0  0  0
  128.8380  126.5100   71.1200 C   0  0  0  0  0  0  0  0  0  0  0  0
  128.9300  126.5460   69.7310 C   0  0  0  0  0  0  0  0  0  0  0  0
  129.8920  127.3400   69.1060 C   0  0  0  0  0  0  0  0  0  0  0  0
  129.8920  127.3080   67.6980 N   0  0  0  0  0  0  0  0  0  0  0  0
  129.7320  126.2640   66.8550 C   0  0  0  0  0  0  0  0  0  0  0  0
  129.5040  125.1040   67.1990 O   0  0  0  0  0  0  0  0  0  0  0  0
  129.8200  126.6010   65.3600 C   0  0  0  0  0  0  0  0  0  0  0  0
  130.9310  125.8260   64.6230 C   0  0  0  0  0  0  0  0  0  0  0  0
  130.5840  125.5340   62.8630 S   0  0  0  0  0  0  0  0  0  0  0  0
  131.1950  123.9180   62.4280 C   0  0  0  0  0  0  0  0  0  0  0  0
  130.2470  123.1080   61.8940 N   0  0  0  0  0  0  0  0  0  0  0  0
  130.5970  121.8560   61.5160 C   0  0  0  0  0  0  0  0  0  0  0  0
  129.4870  121.0140   60.9140 C   0  0  0  0  0  0  0  0  0  0  0  0
  131.8900  121.3600   61.6650 C   0  0  0  0  0  0  0  0  0  0  0  0
  132.8690  122.1780   62.2380 C   0  0  0  0  0  0  0  0  0  0  0  0
  134.2760  121.6060   62.4040 C   0  0  0  0  0  0  0  0  0  0  0  0
  132.5270  123.4880   62.6440 C   0  0  0  0  0  0  0  0  0  0  0  0
  133.5240  124.3370   63.3000 C   0  0  0  0  0  0  0  0  0  0  0  0
  134.3130  125.0060   63.8170 N   0  0  0  0  0  0  0  0  0  0  0  0
  130.7610  128.1130   69.8920 C   0  0  0  0  0  0  0  0  0  0  0  0
  130.6660  128.0760   71.2800 C   0  0  0  0  0  0  0  0  0  0  0  0
  1  2  1  0
  2  3  1  0
  3  4  2  0
  3  5  1  0
  5  6  2  0
  6  7  1  0
  7  8  2  0
  8  9  1  0
  9 10  1  0
 10 11  2  0
 10 12  1  0
 12 13  1  0
 13 14  1  0
 14 15  1  0
 15 16  2  0
 16 17  1  0
 17 18  1  0
 17 19  2  0
 19 20  1  0
 20 21  1  0
 20 22  2  0
 22 23  1  0
 23 24  3  0
  8 25  1  0
 25 26  2  0
 26  5  1  0
 22 15  1  0
M  END
>  <Binding energies>  (6) 
[-7.52]

>  <Ligand effiencies>  (6) 
[-0.2785185185185185]

>  <Interactions>  (6) 
["V-B:TYR:539:CD2:9845, V-B:GLU:543:CD:9879, H-A:GLY:454:N:4049, V-B:GLU:543:CG:9878, V-A:HIS:456:CE1:4069, H-A:ARG:545:NH1:4927, V-B:TYR:539:CE2:9847, V-A:ILE:369:CD1:3238, V-B:ALA:541:CB:9863, V-A:GLU:543:CB:4906, V-B:HIS:456:CE1:9041, V-A:GLU:543:CD:4908, V-A:GLY:454:CA:4048, V-A:GLU:543:CG:4907, V-A:LEU:475:CD2:4258, H-A:GLU:543:OE2:4910, H-A:GLU:543:OE1:4909, V-A:ILE:369:CG2:3236, H-B:LYS:547:NZ:9922, H-A:LYS:547:NZ:4951, V-A:LYS:547:CE:4950, V-A:ILE:369:CG1:3237"]

$$$$
1p_Grossjean_2025
     RDKit          3D

 21 22  0  0  0  0  0  0  0  0999 V2000
  129.0980  128.0840   75.6210 C   0  0  0  0  0  0  0  0  0  0  0  0
  129.1270  127.7740   74.1360 C   0  0  0  0  0  0  0  0  0  0  0  0
  129.3310  128.7750   73.1870 C   0  0  0  0  0  0  0  0  0  0  0  0
  129.3350  128.4340   71.8300 C   0  0  0  0  0  0  0  0  0  0  0  0
  129.5460  129.5480   70.8070 C   0  0  0  0  0  0  0  0  0  0  0  0
  129.1390  127.0850   71.4560 C   0  0  0  0  0  0  0  0  0  0  0  0
  129.0910  126.7110   70.0420 C   0  0  0  0  0  0  0  0  0  0  0  0
  129.0530  126.4160   68.9230 N   0  0  0  0  0  0  0  0  0  0  0  0
  128.9620  126.1330   72.4880 C   0  0  0  0  0  0  0  0  0  0  0  0
  128.7150  124.3970   72.1930 S   0  0  0  0  0  0  0  0  0  0  0  0
  128.9990  123.5490   73.7740 C   0  0  0  0  0  0  0  0  0  0  0  0
  129.9360  122.3310   73.6670 C   0  0  0  0  0  0  0  0  0  0  0  0
  129.2050  121.0210   73.3350 C   0  0  0  0  0  0  0  0  0  0  0  0
  129.3980  120.0240   74.0340 O   0  0  0  0  0  0  0  0  0  0  0  0
  128.3680  121.0710   72.2750 N   0  0  0  0  0  0  0  0  0  0  0  0
  127.5920  120.0380   71.7670 C   0  0  0  0  0  0  0  0  0  0  0  0
  126.3260  119.7220   72.2620 C   0  0  0  0  0  0  0  0  0  0  0  0
  125.9000  118.6570   71.5020 C   0  0  0  0  0  0  0  0  0  0  0  0
  126.8590  118.3460   70.5980 O   0  0  0  0  0  0  0  0  0  0  0  0
  127.9270  119.2280   70.7770 N   0  0  0  0  0  0  0  0  0  0  0  0
  128.9390  126.4770   73.8010 N   0  0  0  0  0  0  0  0  0  0  0  0
  1  2  1  0
  2  3  2  0
  3  4  1  0
  4  5  1  0
  4  6  2  0
  6  7  1  0
  7  8  3  0
  6  9  1  0
  9 10  1  0
 10 11  1  0
 11 12  1  0
 12 13  1  0
 13 14  2  0
 13 15  1  0
 15 16  1  0
 16 17  1  0
 17 18  2  0
 18 19  1  0
 19 20  1  0
  9 21  2  0
 21  2  1  0
 20 16  2  0
M  END
>  <Binding energies>  (7) 
[-6.47]

>  <Ligand effiencies>  (7) 
[-0.29409090909090907]

>  <Interactions>  (7) 
["V-A:HIS:456:CE1:4069, V-A:GLU:543:CB:4906, V-B:HIS:456:CE1:9041, V-B:GLU:543:C:9873, V-A:GLU:543:C:4902, V-A:HIS:456:CD2:4067, H-B:LYS:547:NZ:9922, V-B:LYS:547:CE:9921, V-B:HIS:456:CD2:9039, H-B:GLU:543:O:9874, V-A:LYS:547:CE:4950, V-B:GLY:544:CA:9885, V-A:TYR:484:CB:4340, V-A:TYR:484:CD1:4342, V-A:TYR:484:CG:4341, H-A:TYR:484:N:4339, V-B:VAL:542:CG1:9870"]

$$$$
2a_Ghoteimi_2023
     RDKit          3D

 48 53  0  0  0  0  0  0  0  0999 V2000
  128.1290  122.0470   60.4640 C   0  0  0  0  0  0  0  0  0  0  0  0
  128.5750  122.4930   59.0690 C   0  0  0  0  0  0  0  0  0  0  0  0
  127.4510  122.5180   58.1990 O   0  0  0  0  0  0  0  0  0  0  0  0
  126.8010  123.6780   57.9250 C   0  0  0  0  0  0  0  0  0  0  0  0
  126.2440  123.9070   56.8460 O   0  0  0  0  0  0  0  0  0  0  0  0
  126.8190  124.6520   59.0680 C   0  0  0  0  0  0  0  0  0  0  0  0
  126.0640  124.4460   60.2320 C   0  0  0  0  0  0  0  0  0  0  0  0
  126.1050  125.3680   61.2730 C   0  0  0  0  0  0  0  0  0  0  0  0
  126.9030  126.5100   61.1780 C   0  0  0  0  0  0  0  0  0  0  0  0
  126.8650  127.3760   62.2870 N   0  0  0  0  0  0  0  0  0  0  0  0
  126.3140  128.6030   62.4090 C   0  0  0  0  0  0  0  0  0  0  0  0
  125.7600  129.2240   61.5010 O   0  0  0  0  0  0  0  0  0  0  0  0
  126.4510  129.2450   63.7950 C   0  0  0  0  0  0  0  0  0  0  0  0
  128.1680  129.5750   64.3070 S   0  0  0  0  0  0  0  0  0  0  0  0
  128.6540  128.1760   65.2890 C   0  0  0  0  0  0  0  0  0  0  0  0
  129.0080  127.0910   64.5610 N   0  0  0  0  0  0  0  0  0  0  0  0
  129.3890  125.9560   65.1980 C   0  0  0  0  0  0  0  0  0  0  0  0
  129.7560  124.7950   64.3290 C   0  0  0  0  0  0  0  0  0  0  0  0
  130.0460  123.5410   64.8790 C   0  0  0  0  0  0  0  0  0  0  0  0
  130.3990  122.4670   64.0670 C   0  0  0  0  0  0  0  0  0  0  0  0
  130.4670  122.6040   62.6730 C   0  0  0  0  0  0  0  0  0  0  0  0
  130.8520  121.5240   61.8720 N   0  0  0  0  0  0  0  0  0  0  0  0
  130.2330  120.1920   62.0250 C   0  0  0  0  0  0  0  0  0  0  0  0
  130.5080  119.2380   60.8440 C   0  0  0  0  0  0  0  0  0  0  0  0
  131.9040  119.1260   60.6230 O   0  0  0  0  0  0  0  0  0  0  0  0
  132.4800  120.3830   60.3070 C   0  0  0  0  0  0  0  0  0  0  0  0
  132.2670  121.3740   61.4700 C   0  0  0  0  0  0  0  0  0  0  0  0
  130.1880  123.8680   62.1280 C   0  0  0  0  0  0  0  0  0  0  0  0
  129.8330  124.9400   62.9400 C   0  0  0  0  0  0  0  0  0  0  0  0
  129.4370  125.8910   66.5930 C   0  0  0  0  0  0  0  0  0  0  0  0
  129.0760  127.0010   67.3680 C   0  0  0  0  0  0  0  0  0  0  0  0
  129.1440  126.8610   68.8540 C   0  0  0  0  0  0  0  0  0  0  0  0
  130.0980  127.5740   69.5840 C   0  0  0  0  0  0  0  0  0  0  0  0
  130.1830  127.4350   70.9660 C   0  0  0  0  0  0  0  0  0  0  0  0
  129.3130  126.5810   71.6610 C   0  0  0  0  0  0  0  0  0  0  0  0
  129.3930  126.4130   73.0460 N   0  0  0  0  0  0  0  0  0  0  0  0
  129.4030  125.0480   73.6100 C   0  0  0  0  0  0  0  0  0  0  0  0
  129.8820  124.9980   75.0770 C   0  0  0  0  0  0  0  0  0  0  0  0
  129.0940  125.8670   75.8750 O   0  0  0  0  0  0  0  0  0  0  0  0
  129.1830  127.2120   75.4320 C   0  0  0  0  0  0  0  0  0  0  0  0
  128.6900  127.3210   73.9740 C   0  0  0  0  0  0  0  0  0  0  0  0
  128.3650  125.8600   70.9190 C   0  0  0  0  0  0  0  0  0  0  0  0
  128.2820  125.9980   69.5370 C   0  0  0  0  0  0  0  0  0  0  0  0
  128.6760  128.1850   66.7020 C   0  0  0  0  0  0  0  0  0  0  0  0
  128.3410  129.3970   67.4570 C   0  0  0  0  0  0  0  0  0  0  0  0
  128.0750  130.3510   68.0560 N   0  0  0  0  0  0  0  0  0  0  0  0
  127.6550  126.7270   60.0140 C   0  0  0  0  0  0  0  0  0  0  0  0
  127.6140  125.8030   58.9730 C   0  0  0  0  0  0  0  0  0  0  0  0
  1  2  1  0
  2  3  1  0
  3  4  1  0
  4  5  2  0
  4  6  1  0
  6  7  2  0
  7  8  1  0
  8  9  2  0
  9 10  1  0
 10 11  1  0
 11 12  2  0
 11 13  1  0
 13 14  1  0
 14 15  1  0
 15 16  2  0
 16 17  1  0
 17 18  1  0
 18 19  2  0
 19 20  1  0
 20 21  2  0
 21 22  1  0
 22 23  1  0
 23 24  1  0
 24 25  1  0
 25 26  1  0
 26 27  1  0
 21 28  1  0
 28 29  2  0
 17 30  2  0
 30 31  1  0
 31 32  1  0
 32 33  2  0
 33 34  1  0
 34 35  2  0
 35 36  1  0
 36 37  1  0
 37 38  1  0
 38 39  1  0
 39 40  1  0
 40 41  1  0
 35 42  1  0
 42 43  2  0
 31 44  2  0
 44 45  1  0
 45 46  3  0
  9 47  1  0
 47 48  2  0
 48  6  1  0
 44 15  1  0
 29 18  1  0
 43 32  1  0
 27 22  1  0
 41 36  1  0
M  END
>  <Binding energies>  (8) 
[-8.49]

>  <Ligand effiencies>  (8) 
[-0.17326530612244898]

>  <Interactions>  (8) 
["V-B:TYR:539:CD2:9845, V-B:GLU:543:CD:9879, V-B:PRO:540:CA:9854, V-B:PRO:540:N:9855, V-B:GLU:543:CG:9878, V-A:HIS:456:CE1:4069, V-B:TYR:539:CE2:9847, V-B:GLU:543:CB:9877, V-B:TYR:539:C:9838, V-B:PRO:540:C:9852, V-B:ALA:541:CB:9863, V-A:GLU:543:CB:4906, V-B:HIS:456:CE1:9041, V-A:GLU:543:CD:4908, V-A:GLU:543:CG:4907, V-A:LEU:475:CD2:4258, V-B:GLU:543:C:9873, V-A:PRO:482:CB:4325, V-A:TRP:381:CH2:3371, V-A:ILE:369:CG2:3236, V-A:PRO:482:CG:4326, V-A:TRP:381:CZ2:3369, V-A:HIS:456:CD2:4067, H-B:GLU:543:OE2:9881, V-B:TYR:539:CZ:9848, H-B:ARG:545:NH2:9899, H-B:LYS:547:NZ:9922, V-B:LYS:547:CE:9921, V-B:HIS:456:CD2:9039, H-B:GLU:543:OE1:9880, H-B:TYR:484:OH:9319, V-A:TRP:381:CZ3:3370, V-B:ASP:366:CG:8184"]

$$$$
2aa_Ghoteimi_2023
     RDKit          3D

 48 53  0  0  0  0  0  0  0  0999 V2000
  130.4650  132.7540   56.5330 C   0  0  0  0  0  0  0  0  0  0  0  0
  131.8710  132.9120   57.1190 C   0  0  0  0  0  0  0  0  0  0  0  0
  132.5490  131.6640   57.0610 O   0  0  0  0  0  0  0  0  0  0  0  0
  133.0810  131.1000   58.1770 C   0  0  0  0  0  0  0  0  0  0  0  0
  134.2670  130.7690   58.2720 O   0  0  0  0  0  0  0  0  0  0  0  0
  132.0850  130.9340   59.2890 C   0  0  0  0  0  0  0  0  0  0  0  0
  130.9090  130.1880   59.1250 C   0  0  0  0  0  0  0  0  0  0  0  0
  130.0080  130.0480   60.1770 C   0  0  0  0  0  0  0  0  0  0  0  0
  130.2580  130.6570   61.4080 C   0  0  0  0  0  0  0  0  0  0  0  0
  129.2820  130.4490   62.4020 N   0  0  0  0  0  0  0  0  0  0  0  0
  128.9060  131.2460   63.4260 C   0  0  0  0  0  0  0  0  0  0  0  0
  129.3640  132.3670   63.6560 O   0  0  0  0  0  0  0  0  0  0  0  0
  127.8050  130.6600   64.3190 C   0  0  0  0  0  0  0  0  0  0  0  0
  127.5840  129.2880   63.9740 O   0  0  0  0  0  0  0  0  0  0  0  0
  128.2570  128.2820   64.6530 C   0  0  0  0  0  0  0  0  0  0  0  0
  128.3420  128.3700   66.0100 N   0  0  0  0  0  0  0  0  0  0  0  0
  128.9900  127.4020   66.7050 C   0  0  0  0  0  0  0  0  0  0  0  0
  129.0470  127.5680   68.1900 C   0  0  0  0  0  0  0  0  0  0  0  0
  129.0480  126.4530   69.0350 C   0  0  0  0  0  0  0  0  0  0  0  0
  129.1070  126.6020   70.4180 C   0  0  0  0  0  0  0  0  0  0  0  0
  129.1830  127.8740   71.0080 C   0  0  0  0  0  0  0  0  0  0  0  0
  129.2300  128.0420   72.3970 N   0  0  0  0  0  0  0  0  0  0  0  0
  129.8010  127.0030   73.2790 C   0  0  0  0  0  0  0  0  0  0  0  0
  129.4530  127.1930   74.7700 C   0  0  0  0  0  0  0  0  0  0  0  0
  129.8380  128.4890   75.1980 O   0  0  0  0  0  0  0  0  0  0  0  0
  129.1640  129.5000   74.4640 C   0  0  0  0  0  0  0  0  0  0  0  0
  129.5040  129.3790   72.9630 C   0  0  0  0  0  0  0  0  0  0  0  0
  129.1600  128.9890   70.1580 C   0  0  0  0  0  0  0  0  0  0  0  0
  129.0970  128.8390   68.7760 C   0  0  0  0  0  0  0  0  0  0  0  0
  129.5880  126.3200   66.0500 C   0  0  0  0  0  0  0  0  0  0  0  0
  129.5250  126.2110   64.6560 C   0  0  0  0  0  0  0  0  0  0  0  0
  130.2050  125.0460   64.0110 C   0  0  0  0  0  0  0  0  0  0  0  0
  131.2820  125.2490   63.1460 C   0  0  0  0  0  0  0  0  0  0  0  0
  131.9070  124.1700   62.5260 C   0  0  0  0  0  0  0  0  0  0  0  0
  131.4630  122.8570   62.7440 C   0  0  0  0  0  0  0  0  0  0  0  0
  132.0770  121.7580   62.1360 N   0  0  0  0  0  0  0  0  0  0  0  0
  133.5460  121.6480   62.0530 C   0  0  0  0  0  0  0  0  0  0  0  0
  134.0350  120.2320   61.6800 C   0  0  0  0  0  0  0  0  0  0  0  0
  133.4270  119.8130   60.4670 O   0  0  0  0  0  0  0  0  0  0  0  0
  132.0130  119.7740   60.5790 C   0  0  0  0  0  0  0  0  0  0  0  0
  131.4700  121.1760   60.9220 C   0  0  0  0  0  0  0  0  0  0  0  0
  130.3850  122.6630   63.6190 C   0  0  0  0  0  0  0  0  0  0  0  0
  129.7610  123.7410   64.2390 C   0  0  0  0  0  0  0  0  0  0  0  0
  128.8280  127.2120   63.9400 C   0  0  0  0  0  0  0  0  0  0  0  0
  128.6680  127.1540   62.4850 C   0  0  0  0  0  0  0  0  0  0  0  0
  128.5420  127.1070   61.3350 N   0  0  0  0  0  0  0  0  0  0  0  0
  131.4350  131.4000   61.5820 C   0  0  0  0  0  0  0  0  0  0  0  0
  132.3360  131.5340   60.5290 C   0  0  0  0  0  0  0  0  0  0  0  0
  1  2  1  0
  2  3  1  0
  3  4  1  0
  4  5  2  0
  4  6  1  0
  6  7  2  0
  7  8  1  0
  8  9  2  0
  9 10  1  0
 10 11  1  0
 11 12  2  0
 11 13  1  0
 13 14  1  0
 14 15  1  0
 15 16  2  0
 16 17  1  0
 17 18  1  0
 18 19  2  0
 19 20  1  0
 20 21  2  0
 21 22  1  0
 22 23  1  0
 23 24  1  0
 24 25  1  0
 25 26  1  0
 26 27  1  0
 21 28  1  0
 28 29  2  0
 17 30  2  0
 30 31  1  0
 31 32  1  0
 32 33  2  0
 33 34  1  0
 34 35  2  0
 35 36  1  0
 36 37  1  0
 37 38  1  0
 38 39  1  0
 39 40  1  0
 40 41  1  0
 35 42  1  0
 42 43  2  0
 31 44  2  0
 44 45  1  0
 45 46  3  0
  9 47  1  0
 47 48  2  0
 48  6  1  0
 44 15  1  0
 29 18  1  0
 43 32  1  0
 27 22  1  0
 41 36  1  0
M  END
>  <Binding energies>  (9) 
[-8.58]

>  <Ligand effiencies>  (9) 
[-0.17510204081632652]

>  <Interactions>  (9) 
["V-B:TYR:539:CD2:9845, V-B:GLU:543:CD:9879, V-B:GLU:543:CG:9878, V-A:HIS:456:CE1:4069, V-B:TYR:539:CE2:9847, V-B:GLU:543:CB:9877, V-A:ILE:369:CD1:3238, V-B:ALA:541:CB:9863, V-A:GLU:543:CB:4906, V-B:HIS:456:CE1:9041, V-A:GLU:543:CD:4908, V-A:GLY:454:CA:4048, V-A:GLU:543:CG:4907, V-A:ASP:366:CG:3212, V-A:LEU:475:CD2:4258, H-A:GLU:543:OE1:4909, V-A:TRP:381:CH2:3371, V-A:ILE:369:CG2:3236, V-A:TRP:381:CZ2:3369, V-A:ASP:366:CB:3211, H-A:LYS:547:NZ:4951, V-B:HIS:456:CD2:9039, V-A:TYR:539:C:4867, V-A:PRO:540:CA:4883, V-A:LYS:547:CE:4950, V-A:PRO:540:N:4884, V-A:PRO:540:CB:4885, V-A:LEU:363:CD1:3188, V-A:PRO:540:CD:4887, V-A:SER:385:C:3404, H-A:LEU:363:N:3185, V-A:LEU:363:CA:3184"]

$$$$
2b_Ghoteimi_2023
     RDKit          3D

 42 47  0  0  0  0  0  0  0  0999 V2000
  129.9290  124.6560   58.5100 N   0  0  0  0  0  0  0  0  0  0  0  0
  129.8760  124.8980   59.6410 C   0  0  0  0  0  0  0  0  0  0  0  0
  129.8100  125.2120   61.0710 C   0  0  0  0  0  0  0  0  0  0  0  0
  129.9340  126.5500   61.5220 C   0  0  0  0  0  0  0  0  0  0  0  0
  130.1340  127.7170   60.6120 C   0  0  0  0  0  0  0  0  0  0  0  0
  131.1620  127.7050   59.6680 C   0  0  0  0  0  0  0  0  0  0  0  0
  131.3540  128.7910   58.8180 C   0  0  0  0  0  0  0  0  0  0  0  0
  130.5330  129.9270   58.9020 C   0  0  0  0  0  0  0  0  0  0  0  0
  130.6980  131.0220   58.0530 N   0  0  0  0  0  0  0  0  0  0  0  0
  129.5890  131.9850   57.8980 C   0  0  0  0  0  0  0  0  0  0  0  0
  129.7490  132.9100   56.6730 C   0  0  0  0  0  0  0  0  0  0  0  0
  131.0010  133.5770   56.7240 O   0  0  0  0  0  0  0  0  0  0  0  0
  132.0840  132.6590   56.7260 C   0  0  0  0  0  0  0  0  0  0  0  0
  131.9870  131.7360   57.9580 C   0  0  0  0  0  0  0  0  0  0  0  0
  129.5060  129.9300   59.8550 C   0  0  0  0  0  0  0  0  0  0  0  0
  129.3110  128.8430   60.7020 C   0  0  0  0  0  0  0  0  0  0  0  0
  129.8580  126.8000   62.8970 C   0  0  0  0  0  0  0  0  0  0  0  0
  129.6340  125.7540   63.7960 C   0  0  0  0  0  0  0  0  0  0  0  0
  129.5160  125.9720   65.2710 C   0  0  0  0  0  0  0  0  0  0  0  0
  129.1650  127.2260   65.7810 C   0  0  0  0  0  0  0  0  0  0  0  0
  129.0370  127.4330   67.1520 C   0  0  0  0  0  0  0  0  0  0  0  0
  129.2680  126.3930   68.0670 C   0  0  0  0  0  0  0  0  0  0  0  0
  129.1140  126.5770   69.4450 N   0  0  0  0  0  0  0  0  0  0  0  0
  128.7330  125.4360   70.3020 C   0  0  0  0  0  0  0  0  0  0  0  0
  128.2250  125.8540   71.6990 C   0  0  0  0  0  0  0  0  0  0  0  0
  129.1890  126.6730   72.3420 O   0  0  0  0  0  0  0  0  0  0  0  0
  129.4410  127.8570   71.6020 C   0  0  0  0  0  0  0  0  0  0  0  0
  129.9830  127.5000   70.2010 C   0  0  0  0  0  0  0  0  0  0  0  0
  129.6130  125.1360   67.5510 C   0  0  0  0  0  0  0  0  0  0  0  0
  129.7370  124.9300   66.1800 C   0  0  0  0  0  0  0  0  0  0  0  0
  129.5140  124.4730   63.3620 N   0  0  0  0  0  0  0  0  0  0  0  0
  129.6170  124.2010   62.0400 C   0  0  0  0  0  0  0  0  0  0  0  0
  129.4410  122.4740   61.6510 S   0  0  0  0  0  0  0  0  0  0  0  0
  131.0390  121.6720   61.9780 C   0  0  0  0  0  0  0  0  0  0  0  0
  131.7740  122.3140   63.1560 C   0  0  0  0  0  0  0  0  0  0  0  0
  131.7750  121.7450   64.2500 O   0  0  0  0  0  0  0  0  0  0  0  0
  132.3770  123.4940   62.8920 N   0  0  0  0  0  0  0  0  0  0  0  0
  133.1140  124.2770   63.7680 C   0  0  0  0  0  0  0  0  0  0  0  0
  132.6550  124.6410   65.0330 C   0  0  0  0  0  0  0  0  0  0  0  0
  133.6630  125.4040   65.5740 C   0  0  0  0  0  0  0  0  0  0  0  0
  134.6770  125.4940   64.6820 O   0  0  0  0  0  0  0  0  0  0  0  0
  134.3180  124.7740   63.5400 N   0  0  0  0  0  0  0  0  0  0  0  0
  1  2  3  0
  2  3  1  0
  3  4  2  0
  4  5  1  0
  5  6  2  0
  6  7  1  0
  7  8  2  0
  8  9  1  0
  9 10  1  0
 10 11  1  0
 11 12  1  0
 12 13  1  0
 13 14  1  0
  8 15  1  0
 15 16  2  0
  4 17  1  0
 17 18  2  0
 18 19  1  0
 19 20  2  0
 20 21  1  0
 21 22  2  0
 22 23  1  0
 23 24  1  0
 24 25  1  0
 25 26  1  0
 26 27  1  0
 27 28  1  0
 22 29  1  0
 29 30  2  0
 18 31  1  0
 31 32  2  0
 32 33  1  0
 33 34  1  0
 34 35  1  0
 35 36  2  0
 35 37  1  0
 37 38  1  0
 38 39  1  0
 39 40  2  0
 40 41  1  0
 41 42  1  0
 32  3  1  0
 42 38  2  0
 16  5  1  0
 30 19  1  0
 14  9  1  0
 28 23  1  0
M  END
>  <Binding energies>  (10) 
[-9.35]

>  <Ligand effiencies>  (10) 
[-0.21744186046511627]

>  <Interactions>  (10) 
["V-A:ARG:545:CD:4923, V-B:GLU:543:CD:9879, H-A:TYR:484:OH:4347, H-A:GLY:454:N:4049, V-B:GLU:543:CG:9878, V-A:HIS:456:CE1:4069, H-A:ARG:545:NH1:4927, V-B:GLU:543:CB:9877, V-A:ARG:545:CZ:4926, H-A:ARG:545:NE:4924, V-A:TYR:484:CE1:4344, V-B:HIS:456:CE1:9041, V-A:GLU:543:CD:4908, H-A:ARG:545:NH2:4928, V-A:GLY:454:CA:4048, V-A:GLU:543:CG:4907, V-A:ASP:366:CG:3212, V-A:LEU:475:CD2:4258, V-B:GLU:543:C:9873, V-A:HIS:456:CD2:4067, V-A:ASP:366:CB:3211, H-B:TYR:539:OH:9849, V-B:HIS:456:CD2:9039, V-A:TYR:539:C:4867, V-A:PRO:540:CA:4883, V-A:PRO:540:N:4884, V-A:PRO:540:CB:4885, H-A:TYR:539:N:4870, V-A:LEU:363:CD1:3188, V-A:PRO:540:CD:4887"]

$$$$
2c_Ghoteimi_2023
     RDKit          3D

 42 47  0  0  0  0  0  0  0  0999 V2000
  127.6070  130.5920   67.3520 N   0  0  0  0  0  0  0  0  0  0  0  0
  128.0010  129.6400   66.8270 C   0  0  0  0  0  0  0  0  0  0  0  0
  128.5000  128.4290   66.1670 C   0  0  0  0  0  0  0  0  0  0  0  0
  129.0660  127.3750   66.9260 C   0  0  0  0  0  0  0  0  0  0  0  0
  129.2040  127.4010   68.4140 C   0  0  0  0  0  0  0  0  0  0  0  0
  129.9650  128.3950   69.0310 C   0  0  0  0  0  0  0  0  0  0  0  0
  130.0940  128.4290   70.4170 C   0  0  0  0  0  0  0  0  0  0  0  0
  129.4760  127.4610   71.2240 C   0  0  0  0  0  0  0  0  0  0  0  0
  129.5760  127.4880   72.6170 N   0  0  0  0  0  0  0  0  0  0  0  0
  130.6450  126.7150   73.2800 C   0  0  0  0  0  0  0  0  0  0  0  0
  130.4070  126.5190   74.7930 C   0  0  0  0  0  0  0  0  0  0  0  0
  130.2270  127.7780   75.4240 O   0  0  0  0  0  0  0  0  0  0  0  0
  129.1110  128.4760   74.8930 C   0  0  0  0  0  0  0  0  0  0  0  0
  129.3140  128.7220   73.3830 C   0  0  0  0  0  0  0  0  0  0  0  0
  128.7170  126.4650   70.5940 C   0  0  0  0  0  0  0  0  0  0  0  0
  128.5860  126.4330   69.2090 C   0  0  0  0  0  0  0  0  0  0  0  0
  129.5260  126.2380   66.2490 C   0  0  0  0  0  0  0  0  0  0  0  0
  129.4010  126.1420   64.8600 C   0  0  0  0  0  0  0  0  0  0  0  0
  129.8600  124.9440   64.0930 C   0  0  0  0  0  0  0  0  0  0  0  0
  130.5300  123.8980   64.7360 C   0  0  0  0  0  0  0  0  0  0  0  0
  130.9550  122.7760   64.0280 C   0  0  0  0  0  0  0  0  0  0  0  0
  130.7360  122.6650   62.6460 C   0  0  0  0  0  0  0  0  0  0  0  0
  131.1340  121.5340   61.9250 N   0  0  0  0  0  0  0  0  0  0  0  0
  130.1640  120.8370   61.0560 C   0  0  0  0  0  0  0  0  0  0  0  0
  130.6130  119.4200   60.6390 C   0  0  0  0  0  0  0  0  0  0  0  0
  131.8900  119.4770   60.0250 O   0  0  0  0  0  0  0  0  0  0  0  0
  132.8690  119.9970   60.9090 C   0  0  0  0  0  0  0  0  0  0  0  0
  132.4870  121.4290   61.3400 C   0  0  0  0  0  0  0  0  0  0  0  0
  130.0520  123.7100   62.0080 C   0  0  0  0  0  0  0  0  0  0  0  0
  129.6260  124.8300   62.7170 C   0  0  0  0  0  0  0  0  0  0  0  0
  128.8560  127.1530   64.1350 N   0  0  0  0  0  0  0  0  0  0  0  0
  128.4330  128.2750   64.7640 C   0  0  0  0  0  0  0  0  0  0  0  0
  127.7590  129.4970   63.6620 S   0  0  0  0  0  0  0  0  0  0  0  0
  128.5600  131.0830   64.0490 C   0  0  0  0  0  0  0  0  0  0  0  0
  129.3310  131.6440   62.8530 C   0  0  0  0  0  0  0  0  0  0  0  0
  128.9900  132.7230   62.3660 O   0  0  0  0  0  0  0  0  0  0  0  0
  130.3550  130.8820   62.4110 N   0  0  0  0  0  0  0  0  0  0  0  0
  131.2120  131.1740   61.3610 C   0  0  0  0  0  0  0  0  0  0  0  0
  132.4520  131.6090   61.4270 N   0  0  0  0  0  0  0  0  0  0  0  0
  132.9720  131.7740   60.2270 C   0  0  0  0  0  0  0  0  0  0  0  0
  132.1450  131.4700   59.1500 C   0  0  0  0  0  0  0  0  0  0  0  0
  130.6040  130.9380   59.7540 S   0  0  0  0  0  0  0  0  0  0  0  0
  1  2  3  0
  2  3  1  0
  3  4  2  0
  4  5  1  0
  5  6  2  0
  6  7  1  0
  7  8  2  0
  8  9  1  0
  9 10  1  0
 10 11  1  0
 11 12  1  0
 12 13  1  0
 13 14  1  0
  8 15  1  0
 15 16  2  0
  4 17  1  0
 17 18  2  0
 18 19  1  0
 19 20  2  0
 20 21  1  0
 21 22  2  0
 22 23  1  0
 23 24  1  0
 24 25  1  0
 25 26  1  0
 26 27  1  0
 27 28  1  0
 22 29  1  0
 29 30  2  0
 18 31  1  0
 31 32  2  0
 32 33  1  0
 33 34  1  0
 34 35  1  0
 35 36  2  0
 35 37  1  0
 37 38  1  0
 38 39  2  0
 39 40  1  0
 40 41  2  0
 41 42  1  0
 32  3  1  0
 42 38  1  0
 16  5  1  0
 30 19  1  0
 14  9  1  0
 28 23  1  0
M  END
>  <Binding energies>  (11) 
[-9.09]

>  <Ligand effiencies>  (11) 
[-0.2113953488372093]

>  <Interactions>  (11) 
["V-B:TYR:539:CD2:9845, V-B:GLU:543:CD:9879, V-B:GLU:543:CG:9878, V-A:HIS:456:CE1:4069, V-B:TYR:539:CE2:9847, V-B:GLU:543:CB:9877, V-B:ALA:541:CB:9863, V-A:GLU:543:CB:4906, V-B:HIS:456:CE1:9041, V-A:GLU:543:CD:4908, V-A:GLU:543:CG:4907, V-A:LEU:475:CD2:4258, H-A:GLU:543:OE1:4909, V-A:HIS:456:CG:4065, V-A:TRP:381:CH2:3371, V-A:ILE:369:CG2:3236, V-A:PRO:482:CG:4326, V-A:TRP:381:CZ2:3369, V-A:HIS:456:CD2:4067, H-A:LYS:547:NZ:4951, V-B:HIS:456:CD2:9039, V-A:ALA:541:CB:4892, H-A:ALA:541:N:4891, V-A:PRO:540:CA:4883, V-A:LYS:547:CE:4950, H-B:TYR:484:OH:9319, V-A:PRO:540:CB:4885, V-A:TRP:381:CZ3:3370"]

$$$$
2j_Grossjean_2025
     RDKit          3D

 23 24  0  0  0  0  0  0  0  0999 V2000
  128.7300  126.5720   67.7350 C   0  0  0  0  0  0  0  0  0  0  0  0
  129.1950  126.7210   69.1720 C   0  0  0  0  0  0  0  0  0  0  0  0
  130.2080  127.6090   69.5220 C   0  0  0  0  0  0  0  0  0  0  0  0
  130.6010  127.7130   70.8650 C   0  0  0  0  0  0  0  0  0  0  0  0
  131.7230  128.7020   71.2350 C   0  0  0  0  0  0  0  0  0  0  0  0
  132.7010  128.0620   71.8780 F   0  0  0  0  0  0  0  0  0  0  0  0
  132.2240  129.2590   70.1310 F   0  0  0  0  0  0  0  0  0  0  0  0
  131.3000  129.6890   72.0270 F   0  0  0  0  0  0  0  0  0  0  0  0
  129.9480  126.9010   71.8260 C   0  0  0  0  0  0  0  0  0  0  0  0
  130.3190  126.9680   73.2430 C   0  0  0  0  0  0  0  0  0  0  0  0
  130.6110  127.0220   74.3610 N   0  0  0  0  0  0  0  0  0  0  0  0
  128.9290  126.0250   71.3810 C   0  0  0  0  0  0  0  0  0  0  0  0
  128.0380  124.9580   72.5030 S   0  0  0  0  0  0  0  0  0  0  0  0
  129.1030  123.5320   72.9090 C   0  0  0  0  0  0  0  0  0  0  0  0
  128.3540  122.2100   73.1320 C   0  0  0  0  0  0  0  0  0  0  0  0
  127.7110  122.0180   74.1670 O   0  0  0  0  0  0  0  0  0  0  0  0
  128.4760  121.3130   72.1290 N   0  0  0  0  0  0  0  0  0  0  0  0
  127.9050  120.0490   72.0720 C   0  0  0  0  0  0  0  0  0  0  0  0
  127.4100  119.4340   71.0200 N   0  0  0  0  0  0  0  0  0  0  0  0
  126.9500  118.2370   71.3290 C   0  0  0  0  0  0  0  0  0  0  0  0
  127.0670  117.8580   72.6630 C   0  0  0  0  0  0  0  0  0  0  0  0
  127.8240  119.1470   73.5510 S   0  0  0  0  0  0  0  0  0  0  0  0
  128.5620  125.9410   70.0770 N   0  0  0  0  0  0  0  0  0  0  0  0
  1  2  1  0
  2  3  2  0
  3  4  1  0
  4  5  1  0
  5  6  1  0
  5  7  1  0
  5  8  1  0
  4  9  2  0
  9 10  1  0
 10 11  3  0
  9 12  1  0
 12 13  1  0
 13 14  1  0
 14 15  1  0
 15 16  2  0
 15 17  1  0
 17 18  1  0
 18 19  2  0
 19 20  1  0
 20 21  2  0
 21 22  1  0
 12 23  2  0
 23  2  1  0
 22 18  1  0
M  END
>  <Binding energies>  (12) 
[-6.01]

>  <Ligand effiencies>  (12) 
[-0.2504166666666667]

>  <Interactions>  (12) 
["V-B:GLU:543:CD:9879, V-B:GLU:543:CG:9878, V-A:HIS:456:CE1:4069, V-B:GLU:543:CB:9877, V-A:ARG:545:CG:4922, V-A:GLU:543:CB:4906, V-B:GLU:543:C:9873, V-A:HIS:456:CG:4065, V-A:GLU:543:C:4902, V-A:GLY:544:C:4912, V-A:ARG:545:CA:4919, V-A:HIS:456:CD2:4067, H-B:LYS:547:NZ:9922, H-A:LYS:547:NZ:4951, V-B:LYS:547:CE:9921, H-A:HIS:456:NE2:4070, H-B:GLU:543:O:9874, V-A:ARG:545:C:4917, V-A:GLU:543:CA:4904, V-A:ARG:545:CB:4921, V-A:TYR:484:CB:4340, V-A:GLY:544:CA:4914, V-A:TYR:484:CD1:4342, V-A:TYR:484:CG:4341, H-A:TYR:484:N:4339, V-A:SER:483:CB:4332"]

$$$$
3ab_Grossjean_2025
     RDKit          3D

 33 35  0  0  0  0  0  0  0  0999 V2000
  129.5200  124.9980   74.3350 C   0  0  0  0  0  0  0  0  0  0  0  0
  128.8020  126.1840   74.0240 O   0  0  0  0  0  0  0  0  0  0  0  0
  129.4150  127.2320   73.4170 C   0  0  0  0  0  0  0  0  0  0  0  0
  129.8650  128.2050   74.0300 O   0  0  0  0  0  0  0  0  0  0  0  0
  129.4930  127.0910   71.9240 C   0  0  0  0  0  0  0  0  0  0  0  0
  130.3300  127.9040   71.1440 C   0  0  0  0  0  0  0  0  0  0  0  0
  130.3830  127.7500   69.7610 C   0  0  0  0  0  0  0  0  0  0  0  0
  129.5950  126.7740   69.1310 C   0  0  0  0  0  0  0  0  0  0  0  0
  129.5730  126.5270   67.7450 N   0  0  0  0  0  0  0  0  0  0  0  0
  129.0820  127.2800   66.7390 C   0  0  0  0  0  0  0  0  0  0  0  0
  128.5230  128.3690   66.8670 O   0  0  0  0  0  0  0  0  0  0  0  0
  129.2510  126.6910   65.3360 C   0  0  0  0  0  0  0  0  0  0  0  0
  129.8060  124.9600   65.3830 S   0  0  0  0  0  0  0  0  0  0  0  0
  130.3720  124.5360   63.7500 C   0  0  0  0  0  0  0  0  0  0  0  0
  129.3680  124.2940   62.8740 N   0  0  0  0  0  0  0  0  0  0  0  0
  129.6560  123.9640   61.5890 C   0  0  0  0  0  0  0  0  0  0  0  0
  128.4870  123.7140   60.6830 C   0  0  0  0  0  0  0  0  0  0  0  0
  128.6690  123.1270   59.4200 C   0  0  0  0  0  0  0  0  0  0  0  0
  127.5880  122.8910   58.5750 C   0  0  0  0  0  0  0  0  0  0  0  0
  126.3050  123.2420   58.9820 C   0  0  0  0  0  0  0  0  0  0  0  0
  126.0970  123.8290   60.2260 C   0  0  0  0  0  0  0  0  0  0  0  0
  127.1810  124.0620   61.0670 C   0  0  0  0  0  0  0  0  0  0  0  0
  130.9830  123.8490   61.1590 C   0  0  0  0  0  0  0  0  0  0  0  0
  132.0400  124.0770   62.0520 C   0  0  0  0  0  0  0  0  0  0  0  0
  133.4870  123.9350   61.5400 C   0  0  0  0  0  0  0  0  0  0  0  0
  134.3060  124.8620   62.0420 F   0  0  0  0  0  0  0  0  0  0  0  0
  133.9800  122.7430   61.8780 F   0  0  0  0  0  0  0  0  0  0  0  0
  133.5130  124.0530   60.2110 F   0  0  0  0  0  0  0  0  0  0  0  0
  131.7340  124.4230   63.3910 C   0  0  0  0  0  0  0  0  0  0  0  0
  132.8000  124.6160   64.3780 C   0  0  0  0  0  0  0  0  0  0  0  0
  133.6440  124.7670   65.1550 N   0  0  0  0  0  0  0  0  0  0  0  0
  128.7660  125.9600   69.9050 C   0  0  0  0  0  0  0  0  0  0  0  0
  128.7140  126.1170   71.2870 C   0  0  0  0  0  0  0  0  0  0  0  0
  1  2  1  0
  2  3  1  0
  3  4  2  0
  3  5  1  0
  5  6  2  0
  6  7  1  0
  7  8  2  0
  8  9  1  0
  9 10  1  0
 10 11  2  0
 10 12  1  0
 12 13  1  0
 13 14  1  0
 14 15  2  0
 15 16  1  0
 16 17  1  0
 17 18  2  0
 18 19  1  0
 19 20  2  0
 20 21  1  0
 21 22  2  0
 16 23  2  0
 23 24  1  0
 24 25  1  0
 25 26  1  0
 25 27  1  0
 25 28  1  0
 24 29  2  0
 29 30  1  0
 30 31  3  0
  8 32  1  0
 32 33  2  0
 33  5  1  0
 29 14  1  0
 22 17  1  0
M  END
>  <Binding energies>  (13) 
[-7.35]

>  <Ligand effiencies>  (13) 
[-0.21617647058823528]

>  <Interactions>  (13) 
["V-B:TYR:539:CD2:9845, V-B:GLU:543:CD:9879, V-B:PRO:540:CA:9854, H-A:TYR:484:OH:4347, V-B:PRO:540:N:9855, H-A:GLY:454:N:4049, V-B:GLU:543:CG:9878, V-A:HIS:456:CE1:4069, V-B:TYR:539:CE2:9847, V-B:GLU:543:CB:9877, V-A:ILE:369:CD1:3238, V-B:TYR:539:C:9838, V-A:GLU:543:CB:4906, V-B:HIS:456:CE1:9041, V-A:GLU:543:CD:4908, V-A:ASP:366:CG:3212, V-A:ILE:369:CG2:3236, V-A:HIS:456:CD2:4067, V-A:ILE:369:CB:3235, V-B:PRO:540:CB:9856, H-B:LYS:547:NZ:9922, H-A:LYS:547:NZ:4951, V-B:LYS:547:CE:9921, V-A:ILE:369:CG1:3237"]

$$$$
3ac_Grossjean_2025
     RDKit          3D

 31 33  0  0  0  0  0  0  0  0999 V2000
  129.8870  131.0040   73.8210 C   0  0  0  0  0  0  0  0  0  0  0  0
  130.5270  129.7450   73.6360 O   0  0  0  0  0  0  0  0  0  0  0  0
  130.5810  129.1950   72.3690 C   0  0  0  0  0  0  0  0  0  0  0  0
  129.4050  129.2380   71.6210 C   0  0  0  0  0  0  0  0  0  0  0  0
  129.3660  128.7130   70.3330 C   0  0  0  0  0  0  0  0  0  0  0  0
  130.5030  128.1270   69.7760 C   0  0  0  0  0  0  0  0  0  0  0  0
  130.3720  127.6420   68.4610 N   0  0  0  0  0  0  0  0  0  0  0  0
  129.4640  126.7780   67.9600 C   0  0  0  0  0  0  0  0  0  0  0  0
  128.5310  126.2790   68.5910 O   0  0  0  0  0  0  0  0  0  0  0  0
  129.6420  126.4180   66.4840 C   0  0  0  0  0  0  0  0  0  0  0  0
  130.1070  124.6740   66.2530 S   0  0  0  0  0  0  0  0  0  0  0  0
  130.6200  124.4400   64.5620 C   0  0  0  0  0  0  0  0  0  0  0  0
  129.5870  124.1950   63.7200 N   0  0  0  0  0  0  0  0  0  0  0  0
  129.8240  124.0010   62.3970 C   0  0  0  0  0  0  0  0  0  0  0  0
  128.6270  123.7290   61.5350 C   0  0  0  0  0  0  0  0  0  0  0  0
  127.3280  123.9810   62.0090 C   0  0  0  0  0  0  0  0  0  0  0  0
  126.2140  123.7360   61.2120 C   0  0  0  0  0  0  0  0  0  0  0  0
  126.3820  123.2310   59.9270 C   0  0  0  0  0  0  0  0  0  0  0  0
  127.6560  122.9670   59.4350 C   0  0  0  0  0  0  0  0  0  0  0  0
  128.7680  123.2140   60.2350 C   0  0  0  0  0  0  0  0  0  0  0  0
  131.1260  124.0330   61.8900 C   0  0  0  0  0  0  0  0  0  0  0  0
  132.2150  124.2630   62.7430 C   0  0  0  0  0  0  0  0  0  0  0  0
  133.6350  124.2840   62.1430 C   0  0  0  0  0  0  0  0  0  0  0  0
  134.3240  123.1700   62.4010 F   0  0  0  0  0  0  0  0  0  0  0  0
  133.5740  124.4130   60.8160 F   0  0  0  0  0  0  0  0  0  0  0  0
  134.3230  125.3100   62.6450 F   0  0  0  0  0  0  0  0  0  0  0  0
  131.9650  124.4580   64.1240 C   0  0  0  0  0  0  0  0  0  0  0  0
  133.0750  124.6240   65.0650 C   0  0  0  0  0  0  0  0  0  0  0  0
  133.9530  124.7540   65.8080 N   0  0  0  0  0  0  0  0  0  0  0  0
  131.6930  128.0860   70.5200 C   0  0  0  0  0  0  0  0  0  0  0  0
  131.7290  128.6130   71.8080 C   0  0  0  0  0  0  0  0  0  0  0  0
  1  2  1  0
  2  3  1  0
  3  4  2  0
  4  5  1  0
  5  6  2  0
  6  7  1  0
  7  8  1  0
  8  9  2  0
  8 10  1  0
 10 11  1  0
 11 12  1  0
 12 13  2  0
 13 14  1  0
 14 15  1  0
 15 16  2  0
 16 17  1  0
 17 18  2  0
 18 19  1  0
 19 20  2  0
 14 21  2  0
 21 22  1  0
 22 23  1  0
 23 24  1  0
 23 25  1  0
 23 26  1  0
 22 27  2  0
 27 28  1  0
 28 29  3  0
  6 30  1  0
 30 31  2  0
 31  3  1  0
 27 12  1  0
 20 15  1  0
M  END
>  <Binding energies>  (14) 
[-7.61]

>  <Ligand effiencies>  (14) 
[-0.2378125]

>  <Interactions>  (14) 
["V-B:GLU:543:CD:9879, V-B:PRO:540:CA:9854, H-A:TYR:484:OH:4347, V-B:PRO:540:N:9855, H-A:GLY:454:N:4049, V-B:GLU:543:CG:9878, V-A:HIS:456:CE1:4069, V-A:ILE:369:CD1:3238, V-A:ARG:545:CZ:4926, V-A:ARG:545:CG:4922, V-B:PRO:540:C:9852, V-A:GLU:543:CB:4906, V-B:HIS:456:CE1:9041, V-A:GLU:543:CD:4908, V-A:GLY:454:CA:4048, V-A:GLU:543:CG:4907, V-A:ASP:366:CG:3212, H-A:GLU:543:OE2:4910, V-A:ILE:369:CG2:3236, V-A:GLY:544:C:4912, V-A:ARG:545:CA:4919, V-A:ILE:369:CB:3235, V-A:GLY:453:CA:4043, V-B:PRO:540:CB:9856, H-A:LYS:547:NZ:4951, V-A:GLY:453:C:4041, V-A:LYS:547:CE:4950, V-A:ILE:369:CG1:3237"]

$$$$
3af_Grossjean_2025
     RDKit          3D

 29 31  0  0  0  0  0  0  0  0999 V2000
  129.5750  127.3950   63.1390 N   0  0  0  0  0  0  0  0  0  0  0  0
  129.4300  127.3010   64.2830 C   0  0  0  0  0  0  0  0  0  0  0  0
  129.2460  127.1830   65.7320 C   0  0  0  0  0  0  0  0  0  0  0  0
  128.4020  128.0820   66.4280 C   0  0  0  0  0  0  0  0  0  0  0  0
  127.5980  129.1890   65.7180 C   0  0  0  0  0  0  0  0  0  0  0  0
  128.3720  130.0270   65.0250 F   0  0  0  0  0  0  0  0  0  0  0  0
  126.7300  128.6450   64.8650 F   0  0  0  0  0  0  0  0  0  0  0  0
  126.9290  129.9160   66.6140 F   0  0  0  0  0  0  0  0  0  0  0  0
  128.3000  127.9630   67.8230 C   0  0  0  0  0  0  0  0  0  0  0  0
  129.0220  126.9760   68.5030 C   0  0  0  0  0  0  0  0  0  0  0  0
  128.9650  126.8170   69.9920 C   0  0  0  0  0  0  0  0  0  0  0  0
  128.3530  125.6930   70.5710 C   0  0  0  0  0  0  0  0  0  0  0  0
  128.2990  125.5390   71.9540 C   0  0  0  0  0  0  0  0  0  0  0  0
  128.8590  126.5080   72.7790 C   0  0  0  0  0  0  0  0  0  0  0  0
  129.4750  127.6290   72.2310 C   0  0  0  0  0  0  0  0  0  0  0  0
  129.5270  127.7800   70.8480 C   0  0  0  0  0  0  0  0  0  0  0  0
  129.8330  126.1190   67.8320 N   0  0  0  0  0  0  0  0  0  0  0  0
  129.9300  126.1990   66.4820 C   0  0  0  0  0  0  0  0  0  0  0  0
  131.0270  124.9840   65.7800 S   0  0  0  0  0  0  0  0  0  0  0  0
  132.6060  125.8030   65.4050 C   0  0  0  0  0  0  0  0  0  0  0  0
  133.1020  125.4660   63.9990 C   0  0  0  0  0  0  0  0  0  0  0  0
  134.2220  124.9750   63.8600 O   0  0  0  0  0  0  0  0  0  0  0  0
  132.2410  125.7520   62.9980 N   0  0  0  0  0  0  0  0  0  0  0  0
  132.3890  125.5760   61.6090 C   0  0  0  0  0  0  0  0  0  0  0  0
  131.6590  126.2510   60.6130 C   0  0  0  0  0  0  0  0  0  0  0  0
  131.9080  125.9750   59.2670 C   0  0  0  0  0  0  0  0  0  0  0  0
  132.8830  125.0290   58.9480 C   0  0  0  0  0  0  0  0  0  0  0  0
  133.6000  124.3650   59.8880 N   0  0  0  0  0  0  0  0  0  0  0  0
  133.3460  124.6440   61.1920 C   0  0  0  0  0  0  0  0  0  0  0  0
  1  2  3  0
  2  3  1  0
  3  4  2  0
  4  5  1  0
  5  6  1  0
  5  7  1  0
  5  8  1  0
  4  9  1  0
  9 10  2  0
 10 11  1  0
 11 12  2  0
 12 13  1  0
 13 14  2  0
 14 15  1  0
 15 16  2  0
 10 17  1  0
 17 18  2  0
 18 19  1  0
 19 20  1  0
 20 21  1  0
 21 22  2  0
 21 23  1  0
 23 24  1  0
 24 25  2  0
 25 26  1  0
 26 27  2  0
 27 28  1  0
 28 29  2  0
 18  3  1  0
 29 24  1  0
 16 11  1  0
M  END
>  <Binding energies>  (15) 
[-6.68]

>  <Ligand effiencies>  (15) 
[-0.22266666666666665]

>  <Interactions>  (15) 
["V-B:GLU:543:CD:9879, H-A:TYR:484:OH:4347, H-A:GLY:454:N:4049, V-A:HIS:456:CE1:4069, H-A:ARG:545:NH1:4927, V-A:ILE:369:CD1:3238, V-A:ARG:545:CZ:4926, V-B:HIS:456:CE1:9041, V-A:GLU:543:CD:4908, V-A:GLU:543:CG:4907, V-A:ASP:366:CG:3212, V-B:GLU:543:C:9873, V-A:ILE:369:CG2:3236, V-A:ASP:366:CB:3211, V-A:ASP:366:C:3207, V-A:ASP:366:CA:3209, V-B:HIS:456:CD2:9039"]

$$$$
3ag_Grossjean_2025
     RDKit          3D

 30 32  0  0  0  0  0  0  0  0999 V2000
  134.0200  125.0090   65.9050 N   0  0  0  0  0  0  0  0  0  0  0  0
  133.1350  124.7580   65.2020 C   0  0  0  0  0  0  0  0  0  0  0  0
  132.0170  124.4400   64.3090 C   0  0  0  0  0  0  0  0  0  0  0  0
  132.2440  124.1450   62.9420 C   0  0  0  0  0  0  0  0  0  0  0  0
  133.6560  124.0810   62.3280 C   0  0  0  0  0  0  0  0  0  0  0  0
  134.4300  125.1010   62.7030 F   0  0  0  0  0  0  0  0  0  0  0  0
  134.2630  122.9550   62.7040 F   0  0  0  0  0  0  0  0  0  0  0  0
  133.5790  124.1070   60.9960 F   0  0  0  0  0  0  0  0  0  0  0  0
  131.1360  123.9000   62.1160 C   0  0  0  0  0  0  0  0  0  0  0  0
  129.8390  123.9600   62.6370 C   0  0  0  0  0  0  0  0  0  0  0  0
  128.6210  123.7100   61.8010 C   0  0  0  0  0  0  0  0  0  0  0  0
  128.7410  123.3070   60.4610 C   0  0  0  0  0  0  0  0  0  0  0  0
  127.6140  123.0720   59.6780 C   0  0  0  0  0  0  0  0  0  0  0  0
  126.3460  123.2390   60.2270 C   0  0  0  0  0  0  0  0  0  0  0  0
  126.1990  123.6400   61.5510 C   0  0  0  0  0  0  0  0  0  0  0  0
  127.3290  123.8740   62.3290 C   0  0  0  0  0  0  0  0  0  0  0  0
  129.6260  124.2310   63.9510 N   0  0  0  0  0  0  0  0  0  0  0  0
  130.6820  124.4510   64.7710 C   0  0  0  0  0  0  0  0  0  0  0  0
  130.2160  124.7870   66.4550 S   0  0  0  0  0  0  0  0  0  0  0  0
  129.7330  126.5370   66.5450 C   0  0  0  0  0  0  0  0  0  0  0  0
  129.3220  126.9510   67.9580 C   0  0  0  0  0  0  0  0  0  0  0  0
  128.6710  126.1750   68.6610 O   0  0  0  0  0  0  0  0  0  0  0  0
  129.7140  128.1720   68.3610 N   0  0  0  0  0  0  0  0  0  0  0  0
  129.4620  128.7530   69.6800 C   0  0  0  0  0  0  0  0  0  0  0  0
  130.2590  128.1050   70.8070 C   0  0  0  0  0  0  0  0  0  0  0  0
  131.6320  128.3430   70.9120 C   0  0  0  0  0  0  0  0  0  0  0  0
  132.3580  127.7770   71.9580 C   0  0  0  0  0  0  0  0  0  0  0  0
  131.7060  126.9840   72.9000 C   0  0  0  0  0  0  0  0  0  0  0  0
  130.3350  126.7550   72.8090 C   0  0  0  0  0  0  0  0  0  0  0  0
  129.6080  127.3210   71.7650 C   0  0  0  0  0  0  0  0  0  0  0  0
  1  2  3  0
  2  3  1  0
  3  4  2  0
  4  5  1  0
  5  6  1  0
  5  7  1  0
  5  8  1  0
  4  9  1  0
  9 10  2  0
 10 11  1  0
 11 12  2  0
 12 13  1  0
 13 14  2  0
 14 15  1  0
 15 16  2  0
 10 17  1  0
 17 18  2  0
 18 19  1  0
 19 20  1  0
 20 21  1  0
 21 22  2  0
 21 23  1  0
 23 24  1  0
 24 25  1  0
 25 26  2  0
 26 27  1  0
 27 28  2  0
 28 29  1  0
 29 30  2  0
 18  3  1  0
 30 25  1  0
 16 11  1  0
M  END
>  <Binding energies>  (16) 
[-7.1]

>  <Ligand effiencies>  (16) 
[-0.22903225806451613]

>  <Interactions>  (16) 
["V-B:GLU:543:CD:9879, V-B:PRO:540:CA:9854, H-A:TYR:484:OH:4347, H-A:GLY:454:N:4049, V-B:GLU:543:CG:9878, V-A:HIS:456:CE1:4069, V-A:ILE:369:CD1:3238, V-A:ARG:545:CZ:4926, H-A:ARG:545:NE:4924, V-B:PRO:540:C:9852, V-B:ALA:541:CB:9863, V-A:GLU:543:CB:4906, V-B:HIS:456:CE1:9041, V-A:GLU:543:CD:4908, V-A:GLY:454:CA:4048, V-A:GLU:543:CG:4907, V-A:ASP:366:CG:3212, H-A:GLU:543:OE2:4910, H-A:GLU:543:OE1:4909, V-A:HIS:456:CG:4065, V-A:HIS:456:CB:4064, V-A:ILE:369:CG2:3236, V-A:GLY:544:C:4912, V-A:ARG:545:CA:4919, V-A:HIS:456:CD2:4067, V-A:ILE:369:CB:3235, V-A:GLY:453:CA:4043, V-B:PRO:540:CB:9856, V-A:GLY:453:C:4041"]

$$$$
3bc_Grossjean_2025
     RDKit          3D

 28 30  0  0  0  0  0  0  0  0999 V2000
  129.5340  130.2840   73.8960 C   0  0  0  0  0  0  0  0  0  0  0  0
  130.4210  129.2090   73.6080 O   0  0  0  0  0  0  0  0  0  0  0  0
  130.5340  128.7600   72.3050 C   0  0  0  0  0  0  0  0  0  0  0  0
  129.3680  128.2820   71.7080 C   0  0  0  0  0  0  0  0  0  0  0  0
  129.3830  127.8090   70.3990 C   0  0  0  0  0  0  0  0  0  0  0  0
  130.5730  127.8000   69.6690 C   0  0  0  0  0  0  0  0  0  0  0  0
  130.4880  127.3150   68.3500 N   0  0  0  0  0  0  0  0  0  0  0  0
  129.7850  126.2670   67.8720 C   0  0  0  0  0  0  0  0  0  0  0  0
  129.0380  125.5560   68.5470 O   0  0  0  0  0  0  0  0  0  0  0  0
  129.9430  126.0230   66.3640 C   0  0  0  0  0  0  0  0  0  0  0  0
  130.2330  124.2860   65.8850 S   0  0  0  0  0  0  0  0  0  0  0  0
  130.8030  124.2750   64.2000 C   0  0  0  0  0  0  0  0  0  0  0  0
  129.8220  124.0420   63.2940 N   0  0  0  0  0  0  0  0  0  0  0  0
  130.1190  124.0080   61.9690 C   0  0  0  0  0  0  0  0  0  0  0  0
  128.9810  123.7240   61.0340 C   0  0  0  0  0  0  0  0  0  0  0  0
  129.2170  123.1800   59.7620 C   0  0  0  0  0  0  0  0  0  0  0  0
  128.1650  122.9130   58.8890 C   0  0  0  0  0  0  0  0  0  0  0  0
  126.8590  123.1900   59.2780 C   0  0  0  0  0  0  0  0  0  0  0  0
  126.5980  123.7330   60.5320 C   0  0  0  0  0  0  0  0  0  0  0  0
  127.6530  123.9990   61.4010 C   0  0  0  0  0  0  0  0  0  0  0  0
  131.4280  124.2110   61.5200 C   0  0  0  0  0  0  0  0  0  0  0  0
  132.4480  124.4750   62.4410 C   0  0  0  0  0  0  0  0  0  0  0  0
  133.8600  124.7070   61.9050 C   0  0  0  0  0  0  0  0  0  0  0  0
  132.1410  124.5210   63.8180 C   0  0  0  0  0  0  0  0  0  0  0  0
  133.1830  124.8450   64.7950 C   0  0  0  0  0  0  0  0  0  0  0  0
  134.0080  125.1000   65.5650 N   0  0  0  0  0  0  0  0  0  0  0  0
  131.7480  128.2920   70.2570 C   0  0  0  0  0  0  0  0  0  0  0  0
  131.7280  128.7640   71.5670 C   0  0  0  0  0  0  0  0  0  0  0  0
  1  2  1  0
  2  3  1  0
  3  4  2  0
  4  5  1  0
  5  6  2  0
  6  7  1  0
  7  8  1  0
  8  9  2  0
  8 10  1  0
 10 11  1  0
 11 12  1  0
 12 13  2  0
 13 14  1  0
 14 15  1  0
 15 16  2  0
 16 17  1  0
 17 18  2  0
 18 19  1  0
 19 20  2  0
 14 21  2  0
 21 22  1  0
 22 23  1  0
 22 24  2  0
 24 25  1  0
 25 26  3  0
  6 27  1  0
 27 28  2  0
 28  3  1  0
 24 12  1  0
 20 15  1  0
M  END
>  <Binding energies>  (17) 
[-8.01]

>  <Ligand effiencies>  (17) 
[-0.27620689655172415]

>  <Interactions>  (17) 
["V-B:TYR:539:CD2:9845, V-B:GLU:543:CD:9879, V-B:PRO:540:CA:9854, H-A:TYR:484:OH:4347, V-B:PRO:540:N:9855, H-A:GLY:454:N:4049, V-B:GLU:543:CG:9878, V-A:HIS:456:CE1:4069, V-B:TYR:539:CE2:9847, V-A:ILE:369:CD1:3238, V-A:ARG:545:CZ:4926, V-A:ARG:545:CG:4922, H-A:ARG:545:NE:4924, V-A:GLU:543:CB:4906, V-B:HIS:456:CE1:9041, V-A:GLU:543:CD:4908, V-A:ASP:366:CG:3212, H-A:GLU:543:OE2:4910, V-A:GLY:544:C:4912, V-A:ARG:545:CA:4919, V-B:PRO:540:CB:9856, V-B:TYR:539:CZ:9848, H-A:LYS:547:NZ:4951, V-A:LYS:547:CE:4950"]

$$$$
3bd_Grossjean_2025
     RDKit          3D

 26 28  0  0  0  0  0  0  0  0999 V2000
  127.7680  129.1250   65.7220 C   0  0  0  0  0  0  0  0  0  0  0  0
  128.5230  128.0080   66.4390 C   0  0  0  0  0  0  0  0  0  0  0  0
  128.3970  127.9100   67.8290 C   0  0  0  0  0  0  0  0  0  0  0  0
  129.0760  126.9020   68.5230 C   0  0  0  0  0  0  0  0  0  0  0  0
  128.9810  126.7380   70.0110 C   0  0  0  0  0  0  0  0  0  0  0  0
  128.3270  125.6290   70.5710 C   0  0  0  0  0  0  0  0  0  0  0  0
  128.2330  125.4720   71.9510 C   0  0  0  0  0  0  0  0  0  0  0  0
  128.7950  126.4250   72.7940 C   0  0  0  0  0  0  0  0  0  0  0  0
  129.4470  127.5340   72.2660 C   0  0  0  0  0  0  0  0  0  0  0  0
  129.5370  127.6880   70.8850 C   0  0  0  0  0  0  0  0  0  0  0  0
  129.8500  126.0030   67.8620 N   0  0  0  0  0  0  0  0  0  0  0  0
  129.9850  126.0830   66.5140 C   0  0  0  0  0  0  0  0  0  0  0  0
  131.0380  124.8500   65.7670 S   0  0  0  0  0  0  0  0  0  0  0  0
  132.6780  125.5910   65.5110 C   0  0  0  0  0  0  0  0  0  0  0  0
  133.1780  125.3960   64.0790 C   0  0  0  0  0  0  0  0  0  0  0  0
  134.3560  125.0860   63.8930 O   0  0  0  0  0  0  0  0  0  0  0  0
  132.2630  125.6000   63.1060 N   0  0  0  0  0  0  0  0  0  0  0  0
  132.4100  125.4730   61.7120 C   0  0  0  0  0  0  0  0  0  0  0  0
  133.3650  124.5510   61.2760 C   0  0  0  0  0  0  0  0  0  0  0  0
  133.5870  124.3630   59.9140 C   0  0  0  0  0  0  0  0  0  0  0  0
  132.8600  125.1050   58.9870 C   0  0  0  0  0  0  0  0  0  0  0  0
  131.9150  126.0370   59.4100 C   0  0  0  0  0  0  0  0  0  0  0  0
  131.6900  126.2260   60.7710 C   0  0  0  0  0  0  0  0  0  0  0  0
  129.3350  127.0790   65.7530 C   0  0  0  0  0  0  0  0  0  0  0  0
  129.4870  127.1540   64.2970 C   0  0  0  0  0  0  0  0  0  0  0  0
  129.6050  127.2130   63.1470 N   0  0  0  0  0  0  0  0  0  0  0  0
  1  2  1  0
  2  3  2  0
  3  4  1  0
  4  5  1  0
  5  6  2  0
  6  7  1  0
  7  8  2  0
  8  9  1  0
  9 10  2  0
  4 11  2  0
 11 12  1  0
 12 13  1  0
 13 14  1  0
 14 15  1  0
 15 16  2  0
 15 17  1  0
 17 18  1  0
 18 19  2  0
 19 20  1  0
 20 21  2  0
 21 22  1  0
 22 23  2  0
 12 24  2  0
 24 25  1  0
 25 26  3  0
 24  2  1  0
 10  5  1  0
 23 18  1  0
M  END
>  <Binding energies>  (18) 
[-7.15]

>  <Ligand effiencies>  (18) 
[-0.26481481481481484]

>  <Interactions>  (18) 
["V-B:GLU:543:CD:9879, H-A:TYR:484:OH:4347, H-A:GLY:454:N:4049, V-A:HIS:456:CE1:4069, H-A:ARG:545:NH1:4927, V-B:GLU:543:CB:9877, V-A:ILE:369:CD1:3238, V-A:ARG:545:CZ:4926, V-B:HIS:456:CE1:9041, V-A:GLU:543:CD:4908, H-A:ARG:545:NH2:4928, V-A:GLU:543:CG:4907, V-A:ASP:366:CG:3212, V-B:GLU:543:C:9873, V-A:ILE:369:CG2:3236, V-A:ILE:369:CB:3235, V-A:ASP:366:CB:3211, V-A:ASP:366:C:3207, V-A:ASP:366:CA:3209, V-B:HIS:456:CD2:9039"]

$$$$
3be_Grossjean_2025
     RDKit          3D

 27 29  0  0  0  0  0  0  0  0999 V2000
  131.1010  127.2430   58.6440 C   0  0  0  0  0  0  0  0  0  0  0  0
  131.8620  126.2420   59.4910 C   0  0  0  0  0  0  0  0  0  0  0  0
  132.6790  125.2670   58.9140 C   0  0  0  0  0  0  0  0  0  0  0  0
  133.3470  124.3770   59.7550 C   0  0  0  0  0  0  0  0  0  0  0  0
  133.1860  124.4830   61.1390 C   0  0  0  0  0  0  0  0  0  0  0  0
  132.3550  125.4860   61.6520 C   0  0  0  0  0  0  0  0  0  0  0  0
  132.2250  125.5330   63.0530 N   0  0  0  0  0  0  0  0  0  0  0  0
  133.1720  125.3420   63.9970 C   0  0  0  0  0  0  0  0  0  0  0  0
  134.3530  125.0760   63.7600 O   0  0  0  0  0  0  0  0  0  0  0  0
  132.6750  125.4810   65.4440 C   0  0  0  0  0  0  0  0  0  0  0  0
  131.0380  124.7440   65.7760 S   0  0  0  0  0  0  0  0  0  0  0  0
  129.9880  126.0120   66.4510 C   0  0  0  0  0  0  0  0  0  0  0  0
  129.8590  125.9490   67.8000 N   0  0  0  0  0  0  0  0  0  0  0  0
  129.0880  126.8610   68.4500 C   0  0  0  0  0  0  0  0  0  0  0  0
  128.9860  126.7130   69.9390 C   0  0  0  0  0  0  0  0  0  0  0  0
  129.5460  127.6740   70.7960 C   0  0  0  0  0  0  0  0  0  0  0  0
  129.4580  127.5410   72.1780 C   0  0  0  0  0  0  0  0  0  0  0  0
  128.8060  126.4410   72.7260 C   0  0  0  0  0  0  0  0  0  0  0  0
  128.2450  125.4730   71.9000 C   0  0  0  0  0  0  0  0  0  0  0  0
  128.3360  125.6090   70.5170 C   0  0  0  0  0  0  0  0  0  0  0  0
  128.4180  127.8670   67.7450 C   0  0  0  0  0  0  0  0  0  0  0  0
  128.5610  127.9610   66.3570 C   0  0  0  0  0  0  0  0  0  0  0  0
  127.8250  129.0860   65.6310 C   0  0  0  0  0  0  0  0  0  0  0  0
  129.3720  127.0240   65.6810 C   0  0  0  0  0  0  0  0  0  0  0  0
  129.5780  127.1370   64.2350 C   0  0  0  0  0  0  0  0  0  0  0  0
  129.7400  127.2280   63.0930 N   0  0  0  0  0  0  0  0  0  0  0  0
  131.6960  126.3570   60.8340 N   0  0  0  0  0  0  0  0  0  0  0  0
  1  2  1  0
  2  3  2  0
  3  4  1  0
  4  5  2  0
  5  6  1  0
  6  7  1  0
  7  8  1  0
  8  9  2  0
  8 10  1  0
 10 11  1  0
 11 12  1  0
 12 13  2  0
 13 14  1  0
 14 15  1  0
 15 16  2  0
 16 17  1  0
 17 18  2  0
 18 19  1  0
 19 20  2  0
 14 21  2  0
 21 22  1  0
 22 23  1  0
 22 24  2  0
 24 25  1  0
 25 26  3  0
  6 27  2  0
 27  2  1  0
 24 12  1  0
 20 15  1  0
M  END
>  <Binding energies>  (19) 
[-7.08]

>  <Ligand effiencies>  (19) 
[-0.25285714285714284]

>  <Interactions>  (19) 
["V-B:GLU:543:CD:9879, H-A:TYR:484:OH:4347, H-A:GLY:454:N:4049, V-B:GLU:543:CG:9878, V-A:HIS:456:CE1:4069, H-A:ARG:545:NH1:4927, V-B:GLU:543:CB:9877, V-A:ILE:369:CD1:3238, V-A:ARG:545:CZ:4926, V-B:HIS:456:CE1:9041, V-A:GLU:543:CD:4908, H-A:ARG:545:NH2:4928, V-A:GLU:543:CG:4907, V-A:ASP:366:CG:3212, V-B:GLU:543:C:9873, V-A:ILE:369:CG2:3236, V-A:ILE:369:CB:3235, V-A:ASP:366:CB:3211, V-A:ASP:366:CA:3209, V-B:HIS:456:CD2:9039"]

$$$$
3bf_Grossjean_2025
     RDKit          3D

 26 28  0  0  0  0  0  0  0  0999 V2000
  134.3540  125.1960   63.2530 C   0  0  0  0  0  0  0  0  0  0  0  0
  132.9220  124.7730   63.5720 C   0  0  0  0  0  0  0  0  0  0  0  0
  132.1470  124.2360   62.5400 C   0  0  0  0  0  0  0  0  0  0  0  0
  130.8350  123.8210   62.7930 C   0  0  0  0  0  0  0  0  0  0  0  0
  129.9600  123.2170   61.7360 C   0  0  0  0  0  0  0  0  0  0  0  0
  129.1420  124.0280   60.9330 C   0  0  0  0  0  0  0  0  0  0  0  0
  128.3270  123.4750   59.9500 C   0  0  0  0  0  0  0  0  0  0  0  0
  128.3190  122.0970   59.7560 C   0  0  0  0  0  0  0  0  0  0  0  0
  129.1190  121.2720   60.5380 C   0  0  0  0  0  0  0  0  0  0  0  0
  129.9320  121.8290   61.5220 C   0  0  0  0  0  0  0  0  0  0  0  0
  130.2960  123.9340   64.0360 N   0  0  0  0  0  0  0  0  0  0  0  0
  131.0260  124.4760   65.0420 C   0  0  0  0  0  0  0  0  0  0  0  0
  130.1570  124.5490   66.5940 S   0  0  0  0  0  0  0  0  0  0  0  0
  129.5970  126.2670   66.8490 C   0  0  0  0  0  0  0  0  0  0  0  0
  129.4650  126.6990   68.3170 C   0  0  0  0  0  0  0  0  0  0  0  0
  128.6220  126.1800   69.0510 O   0  0  0  0  0  0  0  0  0  0  0  0
  130.3490  127.6420   68.7080 N   0  0  0  0  0  0  0  0  0  0  0  0
  130.4870  128.2550   69.9670 C   0  0  0  0  0  0  0  0  0  0  0  0
  129.4150  129.0320   70.4200 C   0  0  0  0  0  0  0  0  0  0  0  0
  129.4850  129.6550   71.6680 C   0  0  0  0  0  0  0  0  0  0  0  0
  130.6350  129.4770   72.4370 C   0  0  0  0  0  0  0  0  0  0  0  0
  131.6850  128.7210   72.0290 N   0  0  0  0  0  0  0  0  0  0  0  0
  131.6020  128.1210   70.8130 C   0  0  0  0  0  0  0  0  0  0  0  0
  132.3620  124.8970   64.8620 C   0  0  0  0  0  0  0  0  0  0  0  0
  133.1720  125.4110   65.9700 C   0  0  0  0  0  0  0  0  0  0  0  0
  133.8130  125.8190   66.8430 N   0  0  0  0  0  0  0  0  0  0  0  0
  1  2  1  0
  2  3  2  0
  3  4  1  0
  4  5  1  0
  5  6  2  0
  6  7  1  0
  7  8  2  0
  8  9  1  0
  9 10  2  0
  4 11  2  0
 11 12  1  0
 12 13  1  0
 13 14  1  0
 14 15  1  0
 15 16  2  0
 15 17  1  0
 17 18  1  0
 18 19  2  0
 19 20  1  0
 20 21  2  0
 21 22  1  0
 22 23  2  0
 12 24  2  0
 24 25  1  0
 25 26  3  0
 24  2  1  0
 10  5  1  0
 23 18  1  0
M  END
>  <Binding energies>  (20) 
[-7.37]

>  <Ligand effiencies>  (20) 
[-0.27296296296296296]

>  <Interactions>  (20) 
["V-B:TYR:539:CD2:9845, V-A:ARG:545:CD:4923, V-B:GLU:543:CD:9879, V-B:PRO:540:CA:9854, H-A:TYR:484:OH:4347, V-B:PRO:540:N:9855, V-B:GLU:543:CG:9878, V-A:HIS:456:CE1:4069, V-B:TYR:539:CE2:9847, V-A:ILE:369:CD1:3238, V-B:TYR:539:C:9838, V-A:ARG:545:CZ:4926, H-A:ARG:545:NE:4924, V-B:PRO:540:C:9852, V-B:ALA:541:CB:9863, V-A:GLU:543:CB:4906, V-B:HIS:456:CE1:9041, V-A:GLU:543:CD:4908, V-A:GLU:543:CG:4907, H-A:GLU:543:OE2:4910, V-A:GLY:544:C:4912, V-A:ARG:545:CA:4919, V-A:GLY:453:CA:4043, H-A:LYS:547:NZ:4951, V-A:GLY:453:C:4041"]

$$$$
3bg_Grossjean_2025
     RDKit          3D

 27 29  0  0  0  0  0  0  0  0999 V2000
  128.1150  128.9670   62.7180 C   0  0  0  0  0  0  0  0  0  0  0  0
  129.1590  127.8920   63.0100 C   0  0  0  0  0  0  0  0  0  0  0  0
  129.8840  127.3660   61.9360 C   0  0  0  0  0  0  0  0  0  0  0  0
  130.8580  126.3830   62.1600 C   0  0  0  0  0  0  0  0  0  0  0  0
  131.6800  125.7840   61.0530 C   0  0  0  0  0  0  0  0  0  0  0  0
  131.3010  125.9320   59.7080 C   0  0  0  0  0  0  0  0  0  0  0  0
  132.0690  125.3950   58.6790 C   0  0  0  0  0  0  0  0  0  0  0  0
  133.2330  124.6960   58.9790 C   0  0  0  0  0  0  0  0  0  0  0  0
  133.6270  124.5230   60.3010 C   0  0  0  0  0  0  0  0  0  0  0  0
  132.8550  125.0610   61.3270 C   0  0  0  0  0  0  0  0  0  0  0  0
  131.1190  125.9440   63.4210 N   0  0  0  0  0  0  0  0  0  0  0  0
  130.4260  126.4470   64.4750 C   0  0  0  0  0  0  0  0  0  0  0  0
  130.8890  125.8120   66.0790 S   0  0  0  0  0  0  0  0  0  0  0  0
  132.7040  125.6490   66.1260 C   0  0  0  0  0  0  0  0  0  0  0  0
  133.2220  124.7230   65.0210 C   0  0  0  0  0  0  0  0  0  0  0  0
  134.1210  125.1050   64.2720 O   0  0  0  0  0  0  0  0  0  0  0  0
  132.6280  123.5210   64.9200 N   0  0  0  0  0  0  0  0  0  0  0  0
  132.8340  122.5600   63.8360 C   0  0  0  0  0  0  0  0  0  0  0  0
  131.6080  122.4480   62.9380 C   0  0  0  0  0  0  0  0  0  0  0  0
  131.6890  121.7540   61.7260 C   0  0  0  0  0  0  0  0  0  0  0  0
  130.5730  121.6600   60.9010 C   0  0  0  0  0  0  0  0  0  0  0  0
  129.3730  122.2500   61.2950 C   0  0  0  0  0  0  0  0  0  0  0  0
  129.2780  122.9250   62.5090 C   0  0  0  0  0  0  0  0  0  0  0  0
  130.3970  123.0200   63.3350 C   0  0  0  0  0  0  0  0  0  0  0  0
  129.4220  127.4240   64.3150 C   0  0  0  0  0  0  0  0  0  0  0  0
  128.6840  127.9620   65.4610 C   0  0  0  0  0  0  0  0  0  0  0  0
  128.1000  128.3870   66.3650 N   0  0  0  0  0  0  0  0  0  0  0  0
  1  2  1  0
  2  3  2  0
  3  4  1  0
  4  5  1  0
  5  6  2  0
  6  7  1  0
  7  8  2  0
  8  9  1  0
  9 10  2  0
  4 11  2  0
 11 12  1  0
 12 13  1  0
 13 14  1  0
 14 15  1  0
 15 16  2  0
 15 17  1  0
 17 18  1  0
 18 19  1  0
 19 20  2  0
 20 21  1  0
 21 22  2  0
 22 23  1  0
 23 24  2  0
 12 25  2  0
 25 26  1  0
 26 27  3  0
 25  2  1  0
 10  5  1  0
 24 19  1  0
M  END
>  <Binding energies>  (21) 
[-6.66]

>  <Ligand effiencies>  (21) 
[-0.23785714285714285]

>  <Interactions>  (21) 
["V-B:TYR:539:CD2:9845, V-A:ARG:545:CD:4923, V-B:GLU:543:CD:9879, H-A:TYR:484:OH:4347, H-A:GLY:454:N:4049, V-A:HIS:456:CE1:4069, H-A:ARG:545:NH1:4927, V-B:TYR:539:CE2:9847, V-A:ILE:369:CD1:3238, V-A:ARG:545:CZ:4926, V-B:ALA:541:CB:9863, V-A:GLU:543:CD:4908, H-A:ARG:545:NH2:4928, V-A:GLY:454:CA:4048, V-A:GLU:543:CG:4907, V-A:ASP:366:CG:3212, V-A:LEU:475:CD2:4258, V-A:TYR:484:CZ:4346, V-A:ILE:369:CG2:3236, V-A:ILE:369:CB:3235, V-A:ASP:366:CB:3211, V-A:ASP:366:C:3207, V-A:ASP:366:CA:3209"]

$$$$
3ca_Grossjean_2025
     RDKit          3D

 31 33  0  0  0  0  0  0  0  0999 V2000
  128.7440  123.7430   73.1930 C   0  0  0  0  0  0  0  0  0  0  0  0
  129.4820  124.8300   73.9790 C   0  0  0  0  0  0  0  0  0  0  0  0
  128.8040  126.0710   73.8230 O   0  0  0  0  0  0  0  0  0  0  0  0
  129.4270  127.1480   73.2830 C   0  0  0  0  0  0  0  0  0  0  0  0
  129.8690  128.0870   73.9540 O   0  0  0  0  0  0  0  0  0  0  0  0
  129.5340  127.0840   71.7860 C   0  0  0  0  0  0  0  0  0  0  0  0
  130.4750  127.8890   71.1320 C   0  0  0  0  0  0  0  0  0  0  0  0
  130.5970  127.8520   69.7460 C   0  0  0  0  0  0  0  0  0  0  0  0
  129.7770  127.0170   68.9850 C   0  0  0  0  0  0  0  0  0  0  0  0
  129.9850  127.0560   67.5930 N   0  0  0  0  0  0  0  0  0  0  0  0
  129.9000  126.0630   66.6810 C   0  0  0  0  0  0  0  0  0  0  0  0
  129.5910  124.8970   66.9240 O   0  0  0  0  0  0  0  0  0  0  0  0
  130.1990  126.4760   65.2360 C   0  0  0  0  0  0  0  0  0  0  0  0
  131.8420  125.9310   64.6600 S   0  0  0  0  0  0  0  0  0  0  0  0
  131.6960  125.1550   63.0560 C   0  0  0  0  0  0  0  0  0  0  0  0
  131.8470  125.9790   61.9890 N   0  0  0  0  0  0  0  0  0  0  0  0
  131.7700  125.4570   60.7450 C   0  0  0  0  0  0  0  0  0  0  0  0
  131.9660  126.4370   59.6060 C   0  0  0  0  0  0  0  0  0  0  0  0
  131.5260  124.1050   60.5140 C   0  0  0  0  0  0  0  0  0  0  0  0
  131.3500  123.2370   61.5990 C   0  0  0  0  0  0  0  0  0  0  0  0
  131.0780  121.7980   61.3020 C   0  0  0  0  0  0  0  0  0  0  0  0
  129.8050  121.2620   61.5320 C   0  0  0  0  0  0  0  0  0  0  0  0
  129.5440  119.9200   61.2670 C   0  0  0  0  0  0  0  0  0  0  0  0
  130.5600  119.1050   60.7750 C   0  0  0  0  0  0  0  0  0  0  0  0
  131.8340  119.6210   60.5470 C   0  0  0  0  0  0  0  0  0  0  0  0
  132.0910  120.9640   60.8140 C   0  0  0  0  0  0  0  0  0  0  0  0
  131.4450  123.7700   62.9100 C   0  0  0  0  0  0  0  0  0  0  0  0
  131.3200  122.9010   64.0850 C   0  0  0  0  0  0  0  0  0  0  0  0
  131.2220  122.2140   65.0120 N   0  0  0  0  0  0  0  0  0  0  0  0
  128.8370  126.2010   69.6330 C   0  0  0  0  0  0  0  0  0  0  0  0
  128.7180  126.2380   71.0200 C   0  0  0  0  0  0  0  0  0  0  0  0
  1  2  1  0
  2  3  1  0
  3  4  1  0
  4  5  2  0
  4  6  1  0
  6  7  2  0
  7  8  1  0
  8  9  2  0
  9 10  1  0
 10 11  1  0
 11 12  2  0
 11 13  1  0
 13 14  1  0
 14 15  1  0
 15 16  2  0
 16 17  1  0
 17 18  1  0
 17 19  2  0
 19 20  1  0
 20 21  1  0
 21 22  2  0
 22 23  1  0
 23 24  2  0
 24 25  1  0
 25 26  2  0
 20 27  2  0
 27 28  1  0
 28 29  3  0
  9 30  1  0
 30 31  2  0
 31  6  1  0
 27 15  1  0
 26 21  1  0
M  END
>  <Binding energies>  (22) 
[-8.26]

>  <Ligand effiencies>  (22) 
[-0.258125]

>  <Interactions>  (22) 
["V-B:TYR:539:CD2:9845, V-B:GLU:543:CD:9879, H-A:TYR:484:OH:4347, V-B:GLU:543:CG:9878, V-A:HIS:456:CE1:4069, V-B:TYR:539:CE2:9847, V-B:GLU:543:CB:9877, V-B:TYR:539:C:9838, V-B:PRO:540:C:9852, V-B:ALA:541:CB:9863, V-A:GLU:543:CB:4906, V-B:HIS:456:CE1:9041, V-A:GLU:543:CD:4908, H-A:ARG:545:NH2:4928, V-A:ASP:366:CG:3212, V-A:LEU:475:CD2:4258, H-A:GLU:543:OE2:4910, H-A:GLU:543:OE1:4909, V-A:PRO:482:CB:4325, V-A:TRP:381:CH2:3371, V-B:ALA:541:CA:9861, V-A:ILE:369:CG2:3236, V-A:PRO:482:CG:4326, V-A:TRP:381:CZ2:3369, V-A:HIS:456:CD2:4067, V-A:ASP:366:CB:3211, H-B:LYS:547:NZ:9922, H-A:LYS:547:NZ:4951, V-B:LYS:547:CE:9921, V-A:TRP:381:CZ3:3370"]

$$$$
3ce_Grossjean_2025
     RDKit          3D

 27 29  0  0  0  0  0  0  0  0999 V2000
  129.1380  125.8800   56.5860 C   0  0  0  0  0  0  0  0  0  0  0  0
  128.1870  124.8260   57.1200 C   0  0  0  0  0  0  0  0  0  0  0  0
  126.8300  124.8280   56.7840 C   0  0  0  0  0  0  0  0  0  0  0  0
  126.0160  123.8230   57.3040 C   0  0  0  0  0  0  0  0  0  0  0  0
  126.5700  122.8490   58.1390 C   0  0  0  0  0  0  0  0  0  0  0  0
  127.9340  122.9110   58.4430 C   0  0  0  0  0  0  0  0  0  0  0  0
  128.4400  121.8950   59.2710 N   0  0  0  0  0  0  0  0  0  0  0  0
  128.4710  121.8550   60.6220 C   0  0  0  0  0  0  0  0  0  0  0  0
  128.0360  122.7360   61.3650 O   0  0  0  0  0  0  0  0  0  0  0  0
  129.0910  120.5990   61.2340 C   0  0  0  0  0  0  0  0  0  0  0  0
  130.8820  120.5120   60.9350 S   0  0  0  0  0  0  0  0  0  0  0  0
  131.5130  122.1320   61.3080 C   0  0  0  0  0  0  0  0  0  0  0  0
  131.9920  122.7980   60.2290 N   0  0  0  0  0  0  0  0  0  0  0  0
  132.4800  124.0480   60.4050 C   0  0  0  0  0  0  0  0  0  0  0  0
  132.9870  124.7400   59.1550 C   0  0  0  0  0  0  0  0  0  0  0  0
  132.5220  124.6680   61.6510 C   0  0  0  0  0  0  0  0  0  0  0  0
  132.0550  123.9860   62.7820 C   0  0  0  0  0  0  0  0  0  0  0  0
  132.1440  124.6830   64.1000 C   0  0  0  0  0  0  0  0  0  0  0  0
  130.9940  125.2240   64.6880 C   0  0  0  0  0  0  0  0  0  0  0  0
  131.0700  125.8810   65.9140 C   0  0  0  0  0  0  0  0  0  0  0  0
  132.2990  126.0050   66.5550 C   0  0  0  0  0  0  0  0  0  0  0  0
  133.4540  125.4810   65.9790 C   0  0  0  0  0  0  0  0  0  0  0  0
  133.3750  124.8240   64.7540 C   0  0  0  0  0  0  0  0  0  0  0  0
  131.5300  122.6800   62.6130 C   0  0  0  0  0  0  0  0  0  0  0  0
  131.0130  121.9230   63.7570 C   0  0  0  0  0  0  0  0  0  0  0  0
  130.6060  121.3260   64.6610 N   0  0  0  0  0  0  0  0  0  0  0  0
  128.7390  123.8890   57.9310 N   0  0  0  0  0  0  0  0  0  0  0  0
  1  2  1  0
  2  3  2  0
  3  4  1  0
  4  5  2  0
  5  6  1  0
  6  7  1  0
  7  8  1  0
  8  9  2  0
  8 10  1  0
 10 11  1  0
 11 12  1  0
 12 13  2  0
 13 14  1  0
 14 15  1  0
 14 16  2  0
 16 17  1  0
 17 18  1  0
 18 19  2  0
 19 20  1  0
 20 21  2  0
 21 22  1  0
 22 23  2  0
 17 24  2  0
 24 25  1  0
 25 26  3  0
  6 27  2  0
 27  2  1  0
 24 12  1  0
 23 18  1  0
M  END
>  <Binding energies>  (23) 
[-7.3]

>  <Ligand effiencies>  (23) 
[-0.26071428571428573]

>  <Interactions>  (23) 
["V-B:TYR:539:CD2:9845, V-A:ARG:545:CD:4923, V-B:PRO:540:CA:9854, H-A:TYR:484:OH:4347, V-B:PRO:540:N:9855, V-A:HIS:456:CE1:4069, V-B:TYR:539:CE2:9847, V-B:TYR:539:C:9838, V-A:ARG:545:CZ:4926, V-A:ARG:545:CG:4922, V-B:PRO:540:C:9852, V-B:ALA:541:CB:9863, V-A:GLY:454:CA:4048, V-A:ASP:366:CG:3212, V-A:LEU:475:CD2:4258, V-B:ALA:541:CA:9861, V-A:ILE:369:CG2:3236, H-B:ALA:541:N:9862, V-A:ASP:366:CB:3211, V-A:ASP:366:CA:3209, V-B:PRO:540:CB:9856, V-B:TYR:539:CZ:9848, H-B:TYR:539:OH:9849, V-A:LEU:475:CD1:4257, H-B:TYR:539:O:9839, V-B:TYR:539:CG:9843"]

$$$$
3cj_Grossjean_2025
     RDKit          3D

 25 27  0  0  0  0  0  0  0  0999 V2000
  130.2440  120.1560   61.6760 C   0  0  0  0  0  0  0  0  0  0  0  0
  130.1920  121.4180   60.8380 C   0  0  0  0  0  0  0  0  0  0  0  0
  129.0720  121.7400   60.0740 C   0  0  0  0  0  0  0  0  0  0  0  0
  129.0590  122.9290   59.3320 C   0  0  0  0  0  0  0  0  0  0  0  0
  127.8150  123.2660   58.5810 C   0  0  0  0  0  0  0  0  0  0  0  0
  127.1520  124.4780   58.8100 C   0  0  0  0  0  0  0  0  0  0  0  0
  125.9830  124.7850   58.1180 C   0  0  0  0  0  0  0  0  0  0  0  0
  125.4690  123.8770   57.1980 C   0  0  0  0  0  0  0  0  0  0  0  0
  126.1110  122.6630   56.9670 C   0  0  0  0  0  0  0  0  0  0  0  0
  127.2800  122.3580   57.6590 C   0  0  0  0  0  0  0  0  0  0  0  0
  130.2120  123.7530   59.3580 C   0  0  0  0  0  0  0  0  0  0  0  0
  130.2700  124.9940   58.5790 C   0  0  0  0  0  0  0  0  0  0  0  0
  130.3140  125.9750   57.9660 N   0  0  0  0  0  0  0  0  0  0  0  0
  131.3010  123.3500   60.1630 C   0  0  0  0  0  0  0  0  0  0  0  0
  132.7520  124.3560   60.3910 S   0  0  0  0  0  0  0  0  0  0  0  0
  133.6210  123.6090   61.8060 C   0  0  0  0  0  0  0  0  0  0  0  0
  133.0850  124.1280   63.1440 C   0  0  0  0  0  0  0  0  0  0  0  0
  133.8580  124.6630   63.9420 O   0  0  0  0  0  0  0  0  0  0  0  0
  131.7550  123.9850   63.3300 N   0  0  0  0  0  0  0  0  0  0  0  0
  131.0080  124.4860   64.3830 C   0  0  0  0  0  0  0  0  0  0  0  0
  130.5440  123.8340   65.4270 N   0  0  0  0  0  0  0  0  0  0  0  0
  129.8990  124.6360   66.2500 C   0  0  0  0  0  0  0  0  0  0  0  0
  129.8300  125.9750   65.8780 C   0  0  0  0  0  0  0  0  0  0  0  0
  130.6560  126.1850   64.3630 S   0  0  0  0  0  0  0  0  0  0  0  0
  131.2860  122.2090   60.8970 N   0  0  0  0  0  0  0  0  0  0  0  0
  1  2  1  0
  2  3  2  0
  3  4  1  0
  4  5  1  0
  5  6  2  0
  6  7  1  0
  7  8  2  0
  8  9  1  0
  9 10  2  0
  4 11  2  0
 11 12  1  0
 12 13  3  0
 11 14  1  0
 14 15  1  0
 15 16  1  0
 16 17  1  0
 17 18  2  0
 17 19  1  0
 19 20  1  0
 20 21  2  0
 21 22  1  0
 22 23  2  0
 23 24  1  0
 14 25  2  0
 25  2  1  0
 10  5  1  0
 24 20  1  0
M  END
>  <Binding energies>  (24) 
[-6.59]

>  <Ligand effiencies>  (24) 
[-0.25346153846153846]

>  <Interactions>  (24) 
["V-B:TYR:539:CD2:9845, V-B:GLU:543:CD:9879, V-B:PRO:540:CA:9854, H-A:TYR:484:OH:4347, V-B:PRO:540:N:9855, H-A:GLY:454:N:4049, V-B:GLU:543:CG:9878, V-B:TYR:539:CE2:9847, V-B:GLU:543:CB:9877, V-A:ILE:369:CD1:3238, V-B:TYR:539:C:9838, V-B:ALA:541:CB:9863, V-A:TYR:484:CE1:4344, V-A:LEU:475:CD2:4258, V-A:PRO:482:CB:4325, V-A:ILE:369:CG2:3236, V-B:PRO:540:CB:9856, V-B:TYR:539:CZ:9848, H-B:TYR:539:OH:9849, V-B:PRO:540:CD:9858, H-A:TYR:531:OH:4795, V-B:TYR:539:CD1:9844, V-B:TYR:539:CE1:9846, V-B:TYR:539:CG:9843, V-B:LEU:363:CD1:8160"]

$$$$
4ba_Grossjean_2025
     RDKit          3D

 28 30  0  0  0  0  0  0  0  0999 V2000
  128.7470  131.9060   73.1980 C   0  0  0  0  0  0  0  0  0  0  0  0
  128.7240  130.8010   72.1250 C   0  0  0  0  0  0  0  0  0  0  0  0
  129.8930  129.7960   72.1950 C   0  0  0  0  0  0  0  0  0  0  0  0
  130.5640  129.7160   73.2270 O   0  0  0  0  0  0  0  0  0  0  0  0
  130.1570  128.9480   70.9850 C   0  0  0  0  0  0  0  0  0  0  0  0
  129.1130  128.1960   70.4310 C   0  0  0  0  0  0  0  0  0  0  0  0
  129.3310  127.3990   69.3110 C   0  0  0  0  0  0  0  0  0  0  0  0
  130.5930  127.3410   68.7180 C   0  0  0  0  0  0  0  0  0  0  0  0
  130.7030  126.4980   67.5960 N   0  0  0  0  0  0  0  0  0  0  0  0
  130.1590  125.2780   67.3650 C   0  0  0  0  0  0  0  0  0  0  0  0
  129.4690  124.6630   68.1790 O   0  0  0  0  0  0  0  0  0  0  0  0
  130.4640  124.6950   66.0560 C   0  0  0  0  0  0  0  0  0  0  0  0
  129.5780  123.2830   65.4860 S   0  0  0  0  0  0  0  0  0  0  0  0
  130.5230  123.2240   64.0180 C   0  0  0  0  0  0  0  0  0  0  0  0
  130.3110  122.2890   63.0930 N   0  0  0  0  0  0  0  0  0  0  0  0
  131.1050  122.3450   61.9990 C   0  0  0  0  0  0  0  0  0  0  0  0
  130.8540  121.2640   60.9630 C   0  0  0  0  0  0  0  0  0  0  0  0
  132.0930  123.3070   61.8080 C   0  0  0  0  0  0  0  0  0  0  0  0
  132.3210  124.2960   62.7780 C   0  0  0  0  0  0  0  0  0  0  0  0
  133.4170  125.3350   62.5220 C   0  0  0  0  0  0  0  0  0  0  0  0
  134.3030  125.4150   63.5170 F   0  0  0  0  0  0  0  0  0  0  0  0
  134.0880  125.0210   61.4140 F   0  0  0  0  0  0  0  0  0  0  0  0
  132.8690  126.5420   62.3780 F   0  0  0  0  0  0  0  0  0  0  0  0
  131.5030  124.2610   63.9480 C   0  0  0  0  0  0  0  0  0  0  0  0
  131.4510  125.0810   65.1340 C   0  0  0  0  0  0  0  0  0  0  0  0
  132.2940  126.1440   65.3360 N   0  0  0  0  0  0  0  0  0  0  0  0
  131.6450  128.0860   69.2710 C   0  0  0  0  0  0  0  0  0  0  0  0
  131.4260  128.8820   70.3920 C   0  0  0  0  0  0  0  0  0  0  0  0
  1  2  1  0
  2  3  1  0
  3  4  2  0
  3  5  1  0
  5  6  2  0
  6  7  1  0
  7  8  2  0
  8  9  1  0
  9 10  1  0
 10 11  2  0
 10 12  1  0
 12 13  1  0
 13 14  1  0
 14 15  2  0
 15 16  1  0
 16 17  1  0
 16 18  2  0
 18 19  1  0
 19 20  1  0
 20 21  1  0
 20 22  1  0
 20 23  1  0
 19 24  2  0
 24 25  1  0
 25 26  1  0
  8 27  1  0
 27 28  2  0
 28  5  1  0
 25 12  2  0
 24 14  1  0
M  END
>  <Binding energies>  (25) 
[-6.89]

>  <Ligand effiencies>  (25) 
[-0.22225806451612903]

>  <Interactions>  (25) 
["V-B:TYR:539:CD2:9845, V-B:GLU:543:CD:9879, H-A:TYR:484:OH:4347, V-B:GLU:543:CG:9878, V-A:HIS:456:CE1:4069, V-B:TYR:539:CE2:9847, V-B:GLU:543:CB:9877, V-A:ILE:369:CD1:3238, V-A:ARG:545:CZ:4926, V-A:ARG:545:CG:4922, V-B:ALA:541:CB:9863, V-A:GLU:543:CB:4906, V-A:TYR:484:CE1:4344, V-B:HIS:456:CE1:9041, V-A:GLU:543:CD:4908, V-A:ASP:366:CG:3212, V-A:TYR:484:CZ:4346, H-A:GLU:543:OE2:4910, H-A:GLU:543:OE1:4909, V-A:GLU:543:C:4902, V-A:GLY:544:C:4912, V-A:ARG:545:CA:4919, V-A:ASP:366:CB:3211, V-A:ASP:366:CA:3209, V-A:GLY:453:CA:4043, H-A:LYS:547:NZ:4951, V-B:TYR:484:CD1:9314, V-B:HIS:456:CG:9037, V-B:TYR:484:CE1:9316, V-A:GLY:453:C:4041"]

$$$$
4bb_Grossjean_2025
     RDKit          3D

 27 29  0  0  0  0  0  0  0  0999 V2000
  128.7600  130.7900   72.1970 C   0  0  0  0  0  0  0  0  0  0  0  0
  129.8990  129.7700   72.2480 C   0  0  0  0  0  0  0  0  0  0  0  0
  130.5630  129.6930   73.2830 O   0  0  0  0  0  0  0  0  0  0  0  0
  130.1540  128.9270   71.0340 C   0  0  0  0  0  0  0  0  0  0  0  0
  129.1070  128.1720   70.4900 C   0  0  0  0  0  0  0  0  0  0  0  0
  129.3170  127.3800   69.3650 C   0  0  0  0  0  0  0  0  0  0  0  0
  130.5730  127.3350   68.7560 C   0  0  0  0  0  0  0  0  0  0  0  0
  130.6750  126.5000   67.6260 N   0  0  0  0  0  0  0  0  0  0  0  0
  130.1370  125.2780   67.3940 C   0  0  0  0  0  0  0  0  0  0  0  0
  129.4530  124.6580   68.2070 O   0  0  0  0  0  0  0  0  0  0  0  0
  130.4500  124.6960   66.0860 C   0  0  0  0  0  0  0  0  0  0  0  0
  129.5730  123.2790   65.5130 S   0  0  0  0  0  0  0  0  0  0  0  0
  130.5170  123.2320   64.0420 C   0  0  0  0  0  0  0  0  0  0  0  0
  130.3080  122.3030   63.1110 N   0  0  0  0  0  0  0  0  0  0  0  0
  131.1020  122.3680   62.0170 C   0  0  0  0  0  0  0  0  0  0  0  0
  130.8450  121.3020   60.9680 C   0  0  0  0  0  0  0  0  0  0  0  0
  132.0910  123.3310   61.8340 C   0  0  0  0  0  0  0  0  0  0  0  0
  132.3160  124.3120   62.8120 C   0  0  0  0  0  0  0  0  0  0  0  0
  133.4160  125.3510   62.5660 C   0  0  0  0  0  0  0  0  0  0  0  0
  134.3080  125.4110   63.5580 F   0  0  0  0  0  0  0  0  0  0  0  0
  134.0790  125.0500   61.4490 F   0  0  0  0  0  0  0  0  0  0  0  0
  132.8740  126.5630   62.4440 F   0  0  0  0  0  0  0  0  0  0  0  0
  131.4950  124.2720   63.9790 C   0  0  0  0  0  0  0  0  0  0  0  0
  131.4350  125.0900   65.1650 C   0  0  0  0  0  0  0  0  0  0  0  0
  132.2660  126.1620   65.3680 N   0  0  0  0  0  0  0  0  0  0  0  0
  131.6280  128.0840   69.3000 C   0  0  0  0  0  0  0  0  0  0  0  0
  131.4160  128.8730   70.4270 C   0  0  0  0  0  0  0  0  0  0  0  0
  1  2  1  0
  2  3  2  0
  2  4  1  0
  4  5  2  0
  5  6  1  0
  6  7  2  0
  7  8  1  0
  8  9  1  0
  9 10  2  0
  9 11  1  0
 11 12  1  0
 12 13  1  0
 13 14  2  0
 14 15  1  0
 15 16  1  0
 15 17  2  0
 17 18  1  0
 18 19  1  0
 19 20  1  0
 19 21  1  0
 19 22  1  0
 18 23  2  0
 23 24  1  0
 24 25  1  0
  7 26  1  0
 26 27  2  0
 27  4  1  0
 24 11  2  0
 23 13  1  0
M  END
>  <Binding energies>  (26) 
[-6.75]

>  <Ligand effiencies>  (26) 
[-0.225]

>  <Interactions>  (26) 
["V-B:TYR:539:CD2:9845, V-B:GLU:543:CD:9879, H-A:TYR:484:OH:4347, V-B:GLU:543:CG:9878, V-A:HIS:456:CE1:4069, V-B:TYR:539:CE2:9847, V-B:GLU:543:CB:9877, V-A:ILE:369:CD1:3238, V-A:ARG:545:CZ:4926, V-A:ARG:545:CG:4922, V-B:ALA:541:CB:9863, V-A:GLU:543:CB:4906, V-A:TYR:484:CE1:4344, V-B:HIS:456:CE1:9041, V-A:GLU:543:CD:4908, V-A:ASP:366:CG:3212, V-A:TYR:484:CZ:4346, H-A:GLU:543:OE2:4910, H-A:GLU:543:OE1:4909, V-A:GLU:543:C:4902, V-A:GLY:544:C:4912, V-A:ARG:545:CA:4919, V-A:ASP:366:CB:3211, V-A:ASP:366:CA:3209, V-A:GLY:453:CA:4043, H-A:LYS:547:NZ:4951, V-B:HIS:456:CG:9037, V-A:GLY:453:C:4041"]

$$$$
4bd_Grossjean_2025
     RDKit          3D

 24 26  0  0  0  0  0  0  0  0999 V2000
  134.8470  125.4140   66.4270 C   0  0  0  0  0  0  0  0  0  0  0  0
  133.5030  125.1730   65.7650 C   0  0  0  0  0  0  0  0  0  0  0  0
  132.3330  125.7040   66.3010 C   0  0  0  0  0  0  0  0  0  0  0  0
  131.0960  125.4720   65.6790 C   0  0  0  0  0  0  0  0  0  0  0  0
  129.8350  126.0740   66.3080 C   0  0  0  0  0  0  0  0  0  0  0  0
  130.1040  126.9690   67.2620 F   0  0  0  0  0  0  0  0  0  0  0  0
  129.1150  126.6930   65.3730 F   0  0  0  0  0  0  0  0  0  0  0  0
  129.1020  125.1090   66.8630 F   0  0  0  0  0  0  0  0  0  0  0  0
  131.1000  124.6800   64.4930 C   0  0  0  0  0  0  0  0  0  0  0  0
  130.0540  124.2410   63.6010 C   0  0  0  0  0  0  0  0  0  0  0  0
  128.7370  124.5690   63.7890 N   0  0  0  0  0  0  0  0  0  0  0  0
  130.5060  123.4510   62.5310 C   0  0  0  0  0  0  0  0  0  0  0  0
  129.7220  122.8300   61.4590 C   0  0  0  0  0  0  0  0  0  0  0  0
  129.9190  121.6580   61.1350 O   0  0  0  0  0  0  0  0  0  0  0  0
  128.7860  123.6270   60.8870 N   0  0  0  0  0  0  0  0  0  0  0  0
  127.9090  123.3540   59.8210 C   0  0  0  0  0  0  0  0  0  0  0  0
  126.6010  123.8250   59.9690 C   0  0  0  0  0  0  0  0  0  0  0  0
  125.6610  123.6130   58.9640 C   0  0  0  0  0  0  0  0  0  0  0  0
  126.0300  122.9380   57.8040 C   0  0  0  0  0  0  0  0  0  0  0  0
  127.3330  122.4750   57.6390 C   0  0  0  0  0  0  0  0  0  0  0  0
  128.2760  122.6840   58.6420 C   0  0  0  0  0  0  0  0  0  0  0  0
  132.2540  123.2330   62.5930 S   0  0  0  0  0  0  0  0  0  0  0  0
  132.3690  124.1940   64.0480 C   0  0  0  0  0  0  0  0  0  0  0  0
  133.5400  124.4190   64.6420 N   0  0  0  0  0  0  0  0  0  0  0  0
  1  2  1  0
  2  3  2  0
  3  4  1  0
  4  5  1  0
  5  6  1  0
  5  7  1  0
  5  8  1  0
  4  9  2  0
  9 10  1  0
 10 11  1  0
 10 12  2  0
 12 13  1  0
 13 14  2  0
 13 15  1  0
 15 16  1  0
 16 17  2  0
 17 18  1  0
 18 19  2  0
 19 20  1  0
 20 21  2  0
 12 22  1  0
 22 23  1  0
 23 24  2  0
 24  2  1  0
 23  9  1  0
 21 16  1  0
M  END
>  <Binding energies>  (27) 
[-6.03]

>  <Ligand effiencies>  (27) 
[-0.22333333333333336]

>  <Interactions>  (27) 
["V-B:TYR:539:CD2:9845, V-A:ARG:545:CD:4923, V-B:GLU:543:CD:9879, V-B:PRO:540:CA:9854, H-A:TYR:484:OH:4347, V-B:PRO:540:N:9855, H-A:GLY:454:N:4049, V-B:GLU:543:CG:9878, V-A:HIS:456:CE1:4069, V-B:TYR:539:CE2:9847, V-B:GLU:543:CB:9877, V-B:TYR:539:C:9838, V-A:ARG:545:CZ:4926, V-A:ARG:545:CG:4922, V-B:ALA:541:CB:9863, V-A:GLU:543:CD:4908, V-A:GLY:454:CA:4048, V-B:GLU:543:CA:9875, V-A:GLY:453:CA:4043, H-B:GLU:543:OE2:9881, V-B:PRO:540:CB:9856, V-B:TYR:539:CZ:9848, V-B:PRO:540:CD:9858, V-A:GLY:453:C:4041, V-B:TYR:539:CD1:9844, V-B:TYR:539:CE1:9846, V-B:TYR:539:CG:9843"]

$$$$
4be_Grossjean_2025
     RDKit          3D

 25 27  0  0  0  0  0  0  0  0999 V2000
  131.3750  128.5870   72.0560 C   0  0  0  0  0  0  0  0  0  0  0  0
  130.5160  128.6360   70.8070 C   0  0  0  0  0  0  0  0  0  0  0  0
  129.4830  129.5660   70.6660 C   0  0  0  0  0  0  0  0  0  0  0  0
  128.7320  129.5520   69.4900 C   0  0  0  0  0  0  0  0  0  0  0  0
  129.0280  128.6180   68.4940 C   0  0  0  0  0  0  0  0  0  0  0  0
  130.0810  127.7180   68.6970 C   0  0  0  0  0  0  0  0  0  0  0  0
  130.3230  126.8000   67.6600 N   0  0  0  0  0  0  0  0  0  0  0  0
  129.8580  125.5330   67.5170 C   0  0  0  0  0  0  0  0  0  0  0  0
  129.1090  124.9830   68.3260 O   0  0  0  0  0  0  0  0  0  0  0  0
  130.3260  124.8220   66.3250 C   0  0  0  0  0  0  0  0  0  0  0  0
  129.5060  123.3550   65.7910 S   0  0  0  0  0  0  0  0  0  0  0  0
  130.6230  123.1620   64.4600 C   0  0  0  0  0  0  0  0  0  0  0  0
  130.5170  122.1440   63.6070 N   0  0  0  0  0  0  0  0  0  0  0  0
  131.4380  122.1020   62.6160 C   0  0  0  0  0  0  0  0  0  0  0  0
  131.3020  120.9330   61.6570 C   0  0  0  0  0  0  0  0  0  0  0  0
  132.4500  123.0450   62.4590 C   0  0  0  0  0  0  0  0  0  0  0  0
  132.5660  124.1200   63.3540 C   0  0  0  0  0  0  0  0  0  0  0  0
  133.6940  125.1350   63.1390 C   0  0  0  0  0  0  0  0  0  0  0  0
  134.3410  125.4420   64.2650 F   0  0  0  0  0  0  0  0  0  0  0  0
  134.5910  124.6380   62.2870 F   0  0  0  0  0  0  0  0  0  0  0  0
  133.1940  126.2660   62.6430 F   0  0  0  0  0  0  0  0  0  0  0  0
  131.6130  124.1920   64.4140 C   0  0  0  0  0  0  0  0  0  0  0  0
  131.4220  125.1210   65.5010 C   0  0  0  0  0  0  0  0  0  0  0  0
  132.2390  126.2030   65.7020 N   0  0  0  0  0  0  0  0  0  0  0  0
  130.8160  127.7230   69.8470 N   0  0  0  0  0  0  0  0  0  0  0  0
  1  2  1  0
  2  3  2  0
  3  4  1  0
  4  5  2  0
  5  6  1  0
  6  7  1  0
  7  8  1  0
  8  9  2  0
  8 10  1  0
 10 11  1  0
 11 12  1  0
 12 13  2  0
 13 14  1  0
 14 15  1  0
 14 16  2  0
 16 17  1  0
 17 18  1  0
 18 19  1  0
 18 20  1  0
 18 21  1  0
 17 22  2  0
 22 23  1  0
 23 24  1  0
  6 25  2  0
 25  2  1  0
 23 10  2  0
 22 12  1  0
M  END
>  <Binding energies>  (28) 
[-6.21]

>  <Ligand effiencies>  (28) 
[-0.22178571428571428]

>  <Interactions>  (28) 
["H-A:HIS:456:ND1:4066, V-B:GLU:543:CD:9879, H-A:TYR:484:OH:4347, V-B:GLU:543:CG:9878, V-A:HIS:456:CE1:4069, V-B:GLU:543:CB:9877, V-A:ILE:369:CD1:3238, V-A:ARG:545:CZ:4926, V-B:ALA:541:CB:9863, V-A:GLU:543:CB:4906, V-A:TYR:484:CE1:4344, V-B:HIS:456:CE1:9041, V-A:GLU:543:CD:4908, V-A:GLU:543:CG:4907, V-A:ASP:366:CG:3212, V-A:LEU:475:CD2:4258, V-A:TYR:484:CZ:4346, H-A:GLU:543:OE2:4910, H-A:GLU:543:OE1:4909, V-B:GLU:543:CA:9875, V-A:GLU:543:C:4902, V-A:GLY:544:C:4912, V-A:GLY:453:CA:4043, V-B:TYR:484:CE1:9316, V-A:GLY:453:C:4041"]

$$$$
4bg_Grossjean_2025
     RDKit          3D

 25 27  0  0  0  0  0  0  0  0999 V2000
  131.7630  120.8600   61.5380 C   0  0  0  0  0  0  0  0  0  0  0  0
  131.7470  122.0090   62.5300 C   0  0  0  0  0  0  0  0  0  0  0  0
  132.6960  123.0260   62.4650 C   0  0  0  0  0  0  0  0  0  0  0  0
  132.6730  124.0800   63.3930 C   0  0  0  0  0  0  0  0  0  0  0  0
  133.7380  125.1760   63.2820 C   0  0  0  0  0  0  0  0  0  0  0  0
  134.7640  124.8300   62.5020 F   0  0  0  0  0  0  0  0  0  0  0  0
  133.1980  126.2790   62.7640 F   0  0  0  0  0  0  0  0  0  0  0  0
  134.2310  125.4510   64.4890 F   0  0  0  0  0  0  0  0  0  0  0  0
  131.6470  124.0550   64.3830 C   0  0  0  0  0  0  0  0  0  0  0  0
  131.3160  124.9350   65.4770 C   0  0  0  0  0  0  0  0  0  0  0  0
  132.0400  126.0640   65.7670 N   0  0  0  0  0  0  0  0  0  0  0  0
  130.1860  124.5390   66.2080 C   0  0  0  0  0  0  0  0  0  0  0  0
  129.5930  125.1740   67.3850 C   0  0  0  0  0  0  0  0  0  0  0  0
  129.2450  124.5130   68.3650 O   0  0  0  0  0  0  0  0  0  0  0  0
  129.4910  126.5190   67.3420 N   0  0  0  0  0  0  0  0  0  0  0  0
  128.9190  127.3600   68.3930 C   0  0  0  0  0  0  0  0  0  0  0  0
  129.9100  127.7210   69.4920 C   0  0  0  0  0  0  0  0  0  0  0  0
  131.2190  128.0870   69.1650 C   0  0  0  0  0  0  0  0  0  0  0  0
  132.1110  128.4530   70.1690 C   0  0  0  0  0  0  0  0  0  0  0  0
  131.6890  128.4660   71.4970 C   0  0  0  0  0  0  0  0  0  0  0  0
  130.3810  128.1190   71.8290 C   0  0  0  0  0  0  0  0  0  0  0  0
  129.4890  127.7510   70.8250 C   0  0  0  0  0  0  0  0  0  0  0  0
  129.5150  123.0340   65.5870 S   0  0  0  0  0  0  0  0  0  0  0  0
  130.7310  122.9580   64.3350 C   0  0  0  0  0  0  0  0  0  0  0  0
  130.7590  121.9590   63.4530 N   0  0  0  0  0  0  0  0  0  0  0  0
  1  2  1  0
  2  3  2  0
  3  4  1  0
  4  5  1  0
  5  6  1  0
  5  7  1  0
  5  8  1  0
  4  9  2  0
  9 10  1  0
 10 11  1  0
 10 12  2  0
 12 13  1  0
 13 14  2  0
 13 15  1  0
 15 16  1  0
 16 17  1  0
 17 18  2  0
 18 19  1  0
 19 20  2  0
 20 21  1  0
 21 22  2  0
 12 23  1  0
 23 24  1  0
 24 25  2  0
 25  2  1  0
 24  9  1  0
 22 17  1  0
M  END
>  <Binding energies>  (29) 
[-6.13]

>  <Ligand effiencies>  (29) 
[-0.21892857142857142]

>  <Interactions>  (29) 
["V-A:ARG:545:CD:4923, V-B:GLU:543:CD:9879, H-A:TYR:484:OH:4347, V-B:GLU:543:CG:9878, V-A:HIS:456:CE1:4069, V-B:GLU:543:CB:9877, V-A:ILE:369:CD1:3238, V-A:ARG:545:CZ:4926, V-A:ARG:545:CG:4922, V-B:ALA:541:CB:9863, V-A:GLU:543:CB:4906, V-A:TYR:484:CE1:4344, V-B:HIS:456:CE1:9041, V-A:GLU:543:CD:4908, V-A:GLU:543:CG:4907, V-A:ASP:366:CG:3212, V-A:LEU:475:CD2:4258, V-A:TYR:484:CZ:4346, H-A:GLU:543:OE2:4910, H-A:GLU:543:OE1:4909, V-B:GLU:543:CA:9875, V-A:GLY:544:C:4912, V-A:ARG:545:CA:4919, V-A:GLY:453:CA:4043, V-A:GLY:453:C:4041, V-A:ARG:545:CB:4921"]

$$$$
4ca_Grossjean_2025
     RDKit          3D

 34 37  0  0  0  0  0  0  0  0999 V2000
  129.0060  130.6280   72.9950 C   0  0  0  0  0  0  0  0  0  0  0  0
  129.0690  129.7890   74.2750 C   0  0  0  0  0  0  0  0  0  0  0  0
  129.8820  128.6450   74.0510 O   0  0  0  0  0  0  0  0  0  0  0  0
  129.3770  127.5300   73.4610 C   0  0  0  0  0  0  0  0  0  0  0  0
  128.7430  126.6650   74.0730 O   0  0  0  0  0  0  0  0  0  0  0  0
  129.6650  127.4570   71.9900 C   0  0  0  0  0  0  0  0  0  0  0  0
  128.8710  126.6370   71.1770 C   0  0  0  0  0  0  0  0  0  0  0  0
  129.1100  126.5520   69.8080 C   0  0  0  0  0  0  0  0  0  0  0  0
  130.1490  127.2770   69.2250 C   0  0  0  0  0  0  0  0  0  0  0  0
  130.2960  127.1240   67.8330 N   0  0  0  0  0  0  0  0  0  0  0  0
  130.1030  126.0350   67.0490 C   0  0  0  0  0  0  0  0  0  0  0  0
  129.6950  124.9490   67.4630 O   0  0  0  0  0  0  0  0  0  0  0  0
  130.3970  126.2270   65.6270 C   0  0  0  0  0  0  0  0  0  0  0  0
  129.4340  127.3480   64.6670 S   0  0  0  0  0  0  0  0  0  0  0  0
  130.3990  127.0290   63.2460 C   0  0  0  0  0  0  0  0  0  0  0  0
  130.1480  127.6340   62.0870 N   0  0  0  0  0  0  0  0  0  0  0  0
  130.9610  127.3350   61.0410 C   0  0  0  0  0  0  0  0  0  0  0  0
  130.6580  128.0400   59.7510 C   0  0  0  0  0  0  0  0  0  0  0  0
  130.9630  129.4010   59.5870 C   0  0  0  0  0  0  0  0  0  0  0  0
  130.6800  130.0620   58.3950 C   0  0  0  0  0  0  0  0  0  0  0  0
  130.0840  129.3700   57.3450 C   0  0  0  0  0  0  0  0  0  0  0  0
  129.7700  128.0220   57.4820 C   0  0  0  0  0  0  0  0  0  0  0  0
  130.0540  127.3640   58.6750 C   0  0  0  0  0  0  0  0  0  0  0  0
  132.0070  126.4130   61.1580 C   0  0  0  0  0  0  0  0  0  0  0  0
  132.2770  125.7660   62.3740 C   0  0  0  0  0  0  0  0  0  0  0  0
  133.4400  124.7700   62.4320 C   0  0  0  0  0  0  0  0  0  0  0  0
  133.0660  123.5510   62.8240 F   0  0  0  0  0  0  0  0  0  0  0  0
  133.9920  124.6490   61.2250 F   0  0  0  0  0  0  0  0  0  0  0  0
  134.3600  125.2010   63.2960 F   0  0  0  0  0  0  0  0  0  0  0  0
  131.4410  126.0860   63.4820 C   0  0  0  0  0  0  0  0  0  0  0  0
  131.4170  125.6450   64.8560 C   0  0  0  0  0  0  0  0  0  0  0  0
  132.3130  124.7360   65.3580 N   0  0  0  0  0  0  0  0  0  0  0  0
  130.9460  128.1050   70.0290 C   0  0  0  0  0  0  0  0  0  0  0  0
  130.7040  128.1910   71.3980 C   0  0  0  0  0  0  0  0  0  0  0  0
  1  2  1  0
  2  3  1  0
  3  4  1  0
  4  5  2  0
  4  6  1  0
  6  7  2  0
  7  8  1  0
  8  9  2  0
  9 10  1  0
 10 11  1  0
 11 12  2  0
 11 13  1  0
 13 14  1  0
 14 15  1  0
 15 16  2  0
 16 17  1  0
 17 18  1  0
 18 19  2  0
 19 20  1  0
 20 21  2  0
 21 22  1  0
 22 23  2  0
 17 24  2  0
 24 25  1  0
 25 26  1  0
 26 27  1  0
 26 28  1  0
 26 29  1  0
 25 30  2  0
 30 31  1  0
 31 32  1  0
  9 33  1  0
 33 34  2  0
 34  6  1  0
 31 13  2  0
 30 15  1  0
 23 18  1  0
M  END
>  <Binding energies>  (30) 
[-7.04]

>  <Ligand effiencies>  (30) 
[-0.19027027027027027]

>  <Interactions>  (30) 
["V-B:GLU:543:CD:9879, H-A:TYR:484:OH:4347, V-A:HIS:456:CE1:4069, V-A:ILE:369:CD1:3238, V-A:ARG:545:CZ:4926, V-A:GLU:543:CB:4906, V-B:HIS:456:CE1:9041, V-A:GLU:543:CD:4908, V-A:ASP:366:CG:3212, H-A:GLU:543:OE2:4910, H-A:GLU:543:OE1:4909, V-A:ILE:369:CG2:3236, V-A:ILE:369:CB:3235, V-A:ASP:366:CB:3211, V-A:ASP:366:CA:3209, V-A:GLY:453:CA:4043, H-B:LYS:547:NZ:9922, H-A:LYS:547:NZ:4951, V-A:GLY:453:C:4041, V-A:LYS:547:CE:4950"]

$$$$
4cb_Grossjean_2025
     RDKit          3D

 33 36  0  0  0  0  0  0  0  0999 V2000
  132.1030  132.3920   56.5650 C   0  0  0  0  0  0  0  0  0  0  0  0
  131.2680  133.3890   57.1380 O   0  0  0  0  0  0  0  0  0  0  0  0
  129.9620  133.1360   57.4070 C   0  0  0  0  0  0  0  0  0  0  0  0
  129.0350  133.4790   56.6670 O   0  0  0  0  0  0  0  0  0  0  0  0
  129.7550  132.3940   58.6970 C   0  0  0  0  0  0  0  0  0  0  0  0
  130.3030  131.1130   58.8450 C   0  0  0  0  0  0  0  0  0  0  0  0
  130.1350  130.4040   60.0310 C   0  0  0  0  0  0  0  0  0  0  0  0
  129.4120  130.9560   61.0890 C   0  0  0  0  0  0  0  0  0  0  0  0
  129.3180  130.1580   62.2460 N   0  0  0  0  0  0  0  0  0  0  0  0
  128.2270  129.6440   62.8650 C   0  0  0  0  0  0  0  0  0  0  0  0
  127.0730  129.7690   62.4500 O   0  0  0  0  0  0  0  0  0  0  0  0
  128.5010  128.8860   64.0880 C   0  0  0  0  0  0  0  0  0  0  0  0
  127.9810  129.5090   65.6530 S   0  0  0  0  0  0  0  0  0  0  0  0
  128.6060  128.0980   66.4740 C   0  0  0  0  0  0  0  0  0  0  0  0
  128.5070  127.9610   67.7940 N   0  0  0  0  0  0  0  0  0  0  0  0
  129.0130  126.8250   68.3410 C   0  0  0  0  0  0  0  0  0  0  0  0
  128.8810  126.6960   69.8310 C   0  0  0  0  0  0  0  0  0  0  0  0
  128.1790  125.6210   70.3990 C   0  0  0  0  0  0  0  0  0  0  0  0
  128.0500  125.4970   71.7800 C   0  0  0  0  0  0  0  0  0  0  0  0
  128.6220  126.4520   72.6150 C   0  0  0  0  0  0  0  0  0  0  0  0
  129.3200  127.5290   72.0780 C   0  0  0  0  0  0  0  0  0  0  0  0
  129.4450  127.6490   70.6970 C   0  0  0  0  0  0  0  0  0  0  0  0
  129.6350  125.8430   67.5610 C   0  0  0  0  0  0  0  0  0  0  0  0
  129.7480  125.9800   66.1700 C   0  0  0  0  0  0  0  0  0  0  0  0
  130.4400  124.8650   65.3760 C   0  0  0  0  0  0  0  0  0  0  0  0
  131.6640  125.2000   64.9620 F   0  0  0  0  0  0  0  0  0  0  0  0
  130.5600  123.7780   66.1380 F   0  0  0  0  0  0  0  0  0  0  0  0
  129.7210  124.5670   64.2940 F   0  0  0  0  0  0  0  0  0  0  0  0
  129.2060  127.1600   65.5840 C   0  0  0  0  0  0  0  0  0  0  0  0
  129.1260  127.6350   64.2230 C   0  0  0  0  0  0  0  0  0  0  0  0
  129.6210  126.9240   63.1600 N   0  0  0  0  0  0  0  0  0  0  0  0
  128.8630  132.2390   60.9510 C   0  0  0  0  0  0  0  0  0  0  0  0
  129.0330  132.9470   59.7650 C   0  0  0  0  0  0  0  0  0  0  0  0
  1  2  1  0
  2  3  1  0
  3  4  2  0
  3  5  1  0
  5  6  2  0
  6  7  1  0
  7  8  2  0
  8  9  1  0
  9 10  1  0
 10 11  2  0
 10 12  1  0
 12 13  1  0
 13 14  1  0
 14 15  2  0
 15 16  1  0
 16 17  1  0
 17 18  2  0
 18 19  1  0
 19 20  2  0
 20 21  1  0
 21 22  2  0
 16 23  2  0
 23 24  1  0
 24 25  1  0
 25 26  1  0
 25 27  1  0
 25 28  1  0
 24 29  2  0
 29 30  1  0
 30 31  1  0
  8 32  1  0
 32 33  2  0
 33  5  1  0
 30 12  2  0
 29 14  1  0
 22 17  1  0
M  END
>  <Binding energies>  (31) 
[-6.96]

>  <Ligand effiencies>  (31) 
[-0.19333333333333333]

>  <Interactions>  (31) 
["V-B:GLU:543:CD:9879, V-B:GLU:543:CG:9878, V-A:HIS:456:CE1:4069, V-B:GLU:543:CB:9877, V-A:TYR:484:CE1:4344, V-B:HIS:456:CE1:9041, V-A:GLU:543:CD:4908, V-A:GLU:543:CG:4907, V-A:TYR:484:CZ:4346, V-B:GLU:543:C:9873, H-A:GLU:543:OE1:4909, H-B:GLU:543:OE2:9881, V-B:HIS:456:CD2:9039, V-B:GLY:544:C:9883, V-A:TYR:539:C:4867, V-A:PRO:540:CA:4883, V-A:TYR:539:CD2:4874, V-A:PRO:540:N:4884, H-A:TYR:539:N:4870, V-A:LEU:363:CD1:3188, V-A:TYR:539:CA:4869"]

$$$$
4cc_Grossjean_2025
     RDKit          3D

 31 34  0  0  0  0  0  0  0  0999 V2000
  129.1240  129.2170   74.5690 C   0  0  0  0  0  0  0  0  0  0  0  0
  130.2280  128.4610   74.0820 O   0  0  0  0  0  0  0  0  0  0  0  0
  130.3620  128.2630   72.7220 C   0  0  0  0  0  0  0  0  0  0  0  0
  129.2180  127.8590   72.0360 C   0  0  0  0  0  0  0  0  0  0  0  0
  129.2550  127.6360   70.6620 C   0  0  0  0  0  0  0  0  0  0  0  0
  130.4480  127.8060   69.9550 C   0  0  0  0  0  0  0  0  0  0  0  0
  130.3860  127.5730   68.5680 N   0  0  0  0  0  0  0  0  0  0  0  0
  129.6260  126.6860   67.8810 C   0  0  0  0  0  0  0  0  0  0  0  0
  128.8010  125.9360   68.4050 O   0  0  0  0  0  0  0  0  0  0  0  0
  129.8410  126.6640   66.4310 C   0  0  0  0  0  0  0  0  0  0  0  0
  131.1350  125.6870   65.7390 S   0  0  0  0  0  0  0  0  0  0  0  0
  130.7100  126.1900   64.1200 C   0  0  0  0  0  0  0  0  0  0  0  0
  131.3810  125.7510   63.0580 N   0  0  0  0  0  0  0  0  0  0  0  0
  130.9710  126.1900   61.8400 C   0  0  0  0  0  0  0  0  0  0  0  0
  131.7480  125.6800   60.6610 C   0  0  0  0  0  0  0  0  0  0  0  0
  132.8750  124.8630   60.8430 C   0  0  0  0  0  0  0  0  0  0  0  0
  133.6020  124.3880   59.7540 C   0  0  0  0  0  0  0  0  0  0  0  0
  133.2110  124.7250   58.4630 C   0  0  0  0  0  0  0  0  0  0  0  0
  132.1000  125.5370   58.2540 C   0  0  0  0  0  0  0  0  0  0  0  0
  131.3770  126.0100   59.3460 C   0  0  0  0  0  0  0  0  0  0  0  0
  129.9010  127.0790   61.6950 C   0  0  0  0  0  0  0  0  0  0  0  0
  129.1880  127.5500   62.8100 C   0  0  0  0  0  0  0  0  0  0  0  0
  128.0230  128.5180   62.5780 C   0  0  0  0  0  0  0  0  0  0  0  0
  126.8780  128.1020   63.1260 F   0  0  0  0  0  0  0  0  0  0  0  0
  128.3100  129.7050   63.1100 F   0  0  0  0  0  0  0  0  0  0  0  0
  127.8100  128.6620   61.2700 F   0  0  0  0  0  0  0  0  0  0  0  0
  129.6030  127.0890   64.0920 C   0  0  0  0  0  0  0  0  0  0  0  0
  129.1300  127.3450   65.4300 C   0  0  0  0  0  0  0  0  0  0  0  0
  128.0740  128.1800   65.6950 N   0  0  0  0  0  0  0  0  0  0  0  0
  131.6010  128.2240   70.6360 C   0  0  0  0  0  0  0  0  0  0  0  0
  131.5570  128.4460   72.0090 C   0  0  0  0  0  0  0  0  0  0  0  0
  1  2  1  0
  2  3  1  0
  3  4  2  0
  4  5  1  0
  5  6  2  0
  6  7  1  0
  7  8  1  0
  8  9  2  0
  8 10  1  0
 10 11  1  0
 11 12  1  0
 12 13  2  0
 13 14  1  0
 14 15  1  0
 15 16  2  0
 16 17  1  0
 17 18  2  0
 18 19  1  0
 19 20  2  0
 14 21  2  0
 21 22  1  0
 22 23  1  0
 23 24  1  0
 23 25  1  0
 23 26  1  0
 22 27  2  0
 27 28  1  0
 28 29  1  0
  6 30  1  0
 30 31  2  0
 31  3  1  0
 28 10  2  0
 27 12  1  0
 20 15  1  0
M  END
>  <Binding energies>  (32) 
[-7.01]

>  <Ligand effiencies>  (32) 
[-0.2061764705882353]

>  <Interactions>  (32) 
["V-B:GLU:543:CD:9879, V-A:HIS:456:CE1:4069, V-A:ILE:369:CD1:3238, V-A:GLU:543:CB:4906, V-B:HIS:456:CE1:9041, V-A:GLU:543:CD:4908, V-A:GLU:543:CG:4907, V-A:ASP:366:CG:3212, H-A:GLU:543:OE2:4910, H-A:GLU:543:OE1:4909, V-A:ILE:369:CG2:3236, V-A:GLY:544:C:4912, V-A:ARG:545:CA:4919, V-A:ILE:369:CB:3235, V-A:ASP:366:CB:3211, V-A:ASP:366:C:3207, V-A:ASP:366:CA:3209, H-B:GLU:543:OE2:9881, H-A:LYS:547:NZ:4951, V-B:HIS:456:CD2:9039, H-B:GLU:543:OE1:9880, V-A:LYS:547:CE:4950"]

$$$$
4ce_Grossjean_2025
     RDKit          3D

 30 33  0  0  0  0  0  0  0  0999 V2000
  130.3360  120.2340   61.2680 C   0  0  0  0  0  0  0  0  0  0  0  0
  129.4970  121.4980   61.2280 C   0  0  0  0  0  0  0  0  0  0  0  0
  128.6520  121.7790   60.1520 C   0  0  0  0  0  0  0  0  0  0  0  0
  127.9030  122.9560   60.1870 C   0  0  0  0  0  0  0  0  0  0  0  0
  128.0150  123.8130   61.2830 C   0  0  0  0  0  0  0  0  0  0  0  0
  128.8850  123.4730   62.3260 C   0  0  0  0  0  0  0  0  0  0  0  0
  128.9360  124.3630   63.4130 N   0  0  0  0  0  0  0  0  0  0  0  0
  130.0240  124.8780   64.0390 C   0  0  0  0  0  0  0  0  0  0  0  0
  131.1840  124.6330   63.7060 O   0  0  0  0  0  0  0  0  0  0  0  0
  129.7390  125.7710   65.1640 C   0  0  0  0  0  0  0  0  0  0  0  0
  130.3760  125.4090   66.7660 S   0  0  0  0  0  0  0  0  0  0  0  0
  129.6680  126.8640   67.4260 C   0  0  0  0  0  0  0  0  0  0  0  0
  129.8130  127.1860   68.7090 N   0  0  0  0  0  0  0  0  0  0  0  0
  129.2390  128.3450   69.1270 C   0  0  0  0  0  0  0  0  0  0  0  0
  129.4260  128.6830   70.5760 C   0  0  0  0  0  0  0  0  0  0  0  0
  129.9370  127.7310   71.4730 C   0  0  0  0  0  0  0  0  0  0  0  0
  130.1070  128.0350   72.8220 C   0  0  0  0  0  0  0  0  0  0  0  0
  129.7680  129.2990   73.2920 C   0  0  0  0  0  0  0  0  0  0  0  0
  129.2590  130.2590   72.4250 C   0  0  0  0  0  0  0  0  0  0  0  0
  129.0890  129.9510   71.0780 C   0  0  0  0  0  0  0  0  0  0  0  0
  128.5050  129.1620   68.2600 C   0  0  0  0  0  0  0  0  0  0  0  0
  128.3410  128.8280   66.9060 C   0  0  0  0  0  0  0  0  0  0  0  0
  127.5270  129.7680   66.0120 C   0  0  0  0  0  0  0  0  0  0  0  0
  128.1030  129.9980   64.8300 F   0  0  0  0  0  0  0  0  0  0  0  0
  126.3270  129.2380   65.7740 F   0  0  0  0  0  0  0  0  0  0  0  0
  127.3740  130.9460   66.6170 F   0  0  0  0  0  0  0  0  0  0  0  0
  128.9520  127.6230   66.4540 C   0  0  0  0  0  0  0  0  0  0  0  0
  129.0090  126.9720   65.1680 C   0  0  0  0  0  0  0  0  0  0  0  0
  128.4030  127.4840   64.0500 N   0  0  0  0  0  0  0  0  0  0  0  0
  129.6170  122.3210   62.3010 N   0  0  0  0  0  0  0  0  0  0  0  0
  1  2  1  0
  2  3  2  0
  3  4  1  0
  4  5  2  0
  5  6  1  0
  6  7  1  0
  7  8  1  0
  8  9  2  0
  8 10  1  0
 10 11  1  0
 11 12  1  0
 12 13  2  0
 13 14  1  0
 14 15  1  0
 15 16  2  0
 16 17  1  0
 17 18  2  0
 18 19  1  0
 19 20  2  0
 14 21  2  0
 21 22  1  0
 22 23  1  0
 23 24  1  0
 23 25  1  0
 23 26  1  0
 22 27  2  0
 27 28  1  0
 28 29  1  0
  6 30  2  0
 30  2  1  0
 28 10  2  0
 27 12  1  0
 20 15  1  0
M  END
>  <Binding energies>  (33) 
[-6.93]

>  <Ligand effiencies>  (33) 
[-0.21]

>  <Interactions>  (33) 
["V-B:TYR:539:CD2:9845, V-B:GLU:543:CD:9879, V-B:PRO:540:CA:9854, V-B:PRO:540:N:9855, V-B:GLU:543:CG:9878, V-A:HIS:456:CE1:4069, V-B:TYR:539:CE2:9847, V-B:TYR:539:C:9838, V-B:PRO:540:C:9852, V-B:ALA:541:CB:9863, V-A:GLU:543:CB:4906, V-B:HIS:456:CE1:9041, V-A:GLU:543:CD:4908, V-A:GLU:543:CG:4907, V-A:LEU:475:CD2:4258, H-A:GLU:543:OE1:4909, V-A:GLU:543:C:4902, H-B:GLU:543:OE2:9881, V-B:TYR:484:CE1:9316, H-B:GLU:543:OE1:9880, V-B:TYR:484:CZ:9318"]

$$$$
4cf_Grossjean_2025
     RDKit          3D

 29 32  0  0  0  0  0  0  0  0999 V2000
  128.4120  127.5450   64.1730 N   0  0  0  0  0  0  0  0  0  0  0  0
  129.0400  127.0300   65.2780 C   0  0  0  0  0  0  0  0  0  0  0  0
  129.7840  125.8390   65.2550 C   0  0  0  0  0  0  0  0  0  0  0  0
  130.0080  124.9230   64.1320 C   0  0  0  0  0  0  0  0  0  0  0  0
  131.1520  124.6220   63.7890 O   0  0  0  0  0  0  0  0  0  0  0  0
  128.8870  124.4470   63.5380 N   0  0  0  0  0  0  0  0  0  0  0  0
  128.7530  123.6020   62.4200 C   0  0  0  0  0  0  0  0  0  0  0  0
  129.7700  122.7880   61.8850 C   0  0  0  0  0  0  0  0  0  0  0  0
  129.5060  122.0050   60.7590 C   0  0  0  0  0  0  0  0  0  0  0  0
  128.2330  122.0560   60.1920 C   0  0  0  0  0  0  0  0  0  0  0  0
  127.2380  122.8370   60.6840 N   0  0  0  0  0  0  0  0  0  0  0  0
  127.5100  123.5940   61.7780 C   0  0  0  0  0  0  0  0  0  0  0  0
  130.4550  125.4770   66.8430 S   0  0  0  0  0  0  0  0  0  0  0  0
  129.7310  126.9140   67.5260 C   0  0  0  0  0  0  0  0  0  0  0  0
  129.8810  127.2240   68.8120 N   0  0  0  0  0  0  0  0  0  0  0  0
  129.2660  128.3530   69.2540 C   0  0  0  0  0  0  0  0  0  0  0  0
  129.4470  128.6730   70.7090 C   0  0  0  0  0  0  0  0  0  0  0  0
  129.1060  129.9380   71.2140 C   0  0  0  0  0  0  0  0  0  0  0  0
  129.2700  130.2430   72.5620 C   0  0  0  0  0  0  0  0  0  0  0  0
  129.7770  129.2810   73.4290 C   0  0  0  0  0  0  0  0  0  0  0  0
  130.1200  128.0180   72.9580 C   0  0  0  0  0  0  0  0  0  0  0  0
  129.9540  127.7180   71.6090 C   0  0  0  0  0  0  0  0  0  0  0  0
  128.5260  129.1750   68.4000 C   0  0  0  0  0  0  0  0  0  0  0  0
  128.3660  128.8600   67.0410 C   0  0  0  0  0  0  0  0  0  0  0  0
  127.5370  129.8030   66.1620 C   0  0  0  0  0  0  0  0  0  0  0  0
  128.0790  130.0100   64.9600 F   0  0  0  0  0  0  0  0  0  0  0  0
  126.3230  129.2880   65.9680 F   0  0  0  0  0  0  0  0  0  0  0  0
  127.4210  130.9900   66.7560 F   0  0  0  0  0  0  0  0  0  0  0  0
  128.9900  127.6690   66.5700 C   0  0  0  0  0  0  0  0  0  0  0  0
  1  2  1  0
  2  3  2  0
  3  4  1  0
  4  5  2  0
  4  6  1  0
  6  7  1  0
  7  8  2  0
  8  9  1  0
  9 10  2  0
 10 11  1  0
 11 12  2  0
  3 13  1  0
 13 14  1  0
 14 15  2  0
 15 16  1  0
 16 17  1  0
 17 18  2  0
 18 19  1  0
 19 20  2  0
 20 21  1  0
 21 22  2  0
 16 23  2  0
 23 24  1  0
 24 25  1  0
 25 26  1  0
 25 27  1  0
 25 28  1  0
 24 29  2  0
 29  2  1  0
 12  7  1  0
 29 14  1  0
 22 17  1  0
M  END
>  <Binding energies>  (34) 
[-6.67]

>  <Ligand effiencies>  (34) 
[-0.2084375]

>  <Interactions>  (34) 
["V-B:TYR:539:CD2:9845, V-B:GLU:543:CD:9879, V-B:PRO:540:CA:9854, V-B:PRO:540:N:9855, V-B:GLU:543:CG:9878, V-A:HIS:456:CE1:4069, V-B:TYR:539:CE2:9847, V-B:TYR:539:C:9838, V-B:PRO:540:C:9852, V-B:ALA:541:CB:9863, V-A:GLU:543:CB:4906, V-B:HIS:456:CE1:9041, V-A:GLU:543:CD:4908, V-A:GLU:543:CG:4907, H-A:GLU:543:OE1:4909, V-A:GLU:543:C:4902, H-B:ALA:541:N:9862, H-B:GLU:543:OE2:9881, V-B:TYR:484:CE1:9316, H-B:GLU:543:OE1:9880, V-B:TYR:484:CZ:9318, V-A:LYS:547:CE:4950"]

$$$$
4ci_Grossjean_2025
     RDKit          3D

 28 31  0  0  0  0  0  0  0  0999 V2000
  128.2860  127.6700   63.9500 N   0  0  0  0  0  0  0  0  0  0  0  0
  128.8550  127.0560   65.0350 C   0  0  0  0  0  0  0  0  0  0  0  0
  129.4770  125.7990   64.9700 C   0  0  0  0  0  0  0  0  0  0  0  0
  129.6560  124.9280   63.8040 C   0  0  0  0  0  0  0  0  0  0  0  0
  130.7820  124.7090   63.3500 O   0  0  0  0  0  0  0  0  0  0  0  0
  128.5160  124.4140   63.2790 N   0  0  0  0  0  0  0  0  0  0  0  0
  128.3960  123.5700   62.1820 C   0  0  0  0  0  0  0  0  0  0  0  0
  129.4920  123.0310   61.5100 C   0  0  0  0  0  0  0  0  0  0  0  0
  128.9550  122.2660   60.5020 C   0  0  0  0  0  0  0  0  0  0  0  0
  127.6030  122.3390   60.5630 O   0  0  0  0  0  0  0  0  0  0  0  0
  127.2620  123.1700   61.6320 N   0  0  0  0  0  0  0  0  0  0  0  0
  130.1060  125.3160   66.5430 S   0  0  0  0  0  0  0  0  0  0  0  0
  129.5250  126.7920   67.2780 C   0  0  0  0  0  0  0  0  0  0  0  0
  129.7090  127.0440   68.5720 N   0  0  0  0  0  0  0  0  0  0  0  0
  129.2260  128.2190   69.0530 C   0  0  0  0  0  0  0  0  0  0  0  0
  129.4440  128.4720   70.5170 C   0  0  0  0  0  0  0  0  0  0  0  0
  129.1880  129.7350   71.0760 C   0  0  0  0  0  0  0  0  0  0  0  0
  129.3870  129.9760   72.4330 C   0  0  0  0  0  0  0  0  0  0  0  0
  129.8500  128.9530   73.2530 C   0  0  0  0  0  0  0  0  0  0  0  0
  130.1170  127.6940   72.7260 C   0  0  0  0  0  0  0  0  0  0  0  0
  129.9170  127.4580   71.3690 C   0  0  0  0  0  0  0  0  0  0  0  0
  128.5460  129.1270   68.2340 C   0  0  0  0  0  0  0  0  0  0  0  0
  128.3460  128.8720   66.8680 C   0  0  0  0  0  0  0  0  0  0  0  0
  127.5920  129.9100   66.0300 C   0  0  0  0  0  0  0  0  0  0  0  0
  128.1520  130.1290   64.8380 F   0  0  0  0  0  0  0  0  0  0  0  0
  126.3450  129.4930   65.8130 F   0  0  0  0  0  0  0  0  0  0  0  0
  127.5600  131.0760   66.6770 F   0  0  0  0  0  0  0  0  0  0  0  0
  128.8600  127.6480   66.3510 C   0  0  0  0  0  0  0  0  0  0  0  0
  1  2  1  0
  2  3  2  0
  3  4  1  0
  4  5  2  0
  4  6  1  0
  6  7  1  0
  7  8  1  0
  8  9  2  0
  9 10  1  0
 10 11  1  0
  3 12  1  0
 12 13  1  0
 13 14  2  0
 14 15  1  0
 15 16  1  0
 16 17  2  0
 17 18  1  0
 18 19  2  0
 19 20  1  0
 20 21  2  0
 15 22  2  0
 22 23  1  0
 23 24  1  0
 24 25  1  0
 24 26  1  0
 24 27  1  0
 23 28  2  0
 28  2  1  0
 11  7  2  0
 28 13  1  0
 21 16  1  0
M  END
>  <Binding energies>  (35) 
[-6.62]

>  <Ligand effiencies>  (35) 
[-0.2135483870967742]

>  <Interactions>  (35) 
["V-B:TYR:539:CD2:9845, V-B:GLU:543:CD:9879, V-B:GLU:543:CG:9878, V-A:HIS:456:CE1:4069, V-B:TYR:539:CE2:9847, V-B:ALA:541:CB:9863, V-A:GLU:543:CB:4906, V-B:HIS:456:CE1:9041, V-A:GLU:543:CD:4908, V-A:GLU:543:CG:4907, H-A:GLU:543:OE1:4909, V-A:GLU:543:C:4902, H-B:ALA:541:N:9862, H-B:GLU:543:OE2:9881, V-B:TYR:484:CE1:9316, H-B:GLU:543:OE1:9880, V-B:TYR:484:CZ:9318"]

$$$$
8a_Ghoteimi_2023
     RDKit          3D

 40 44  0  0  0  0  0  0  0  0999 V2000
  132.4940  133.1610   57.2900 C   0  0  0  0  0  0  0  0  0  0  0  0
  131.2330  132.8730   56.4700 C   0  0  0  0  0  0  0  0  0  0  0  0
  130.1070  133.4530   57.1160 O   0  0  0  0  0  0  0  0  0  0  0  0
  128.9530  132.7530   57.2770 C   0  0  0  0  0  0  0  0  0  0  0  0
  128.0910  132.6520   56.3990 O   0  0  0  0  0  0  0  0  0  0  0  0
  128.8300  132.1180   58.6320 C   0  0  0  0  0  0  0  0  0  0  0  0
  129.8430  131.2620   59.0810 C   0  0  0  0  0  0  0  0  0  0  0  0
  129.7570  130.6570   60.3320 C   0  0  0  0  0  0  0  0  0  0  0  0
  128.6580  130.8930   61.1590 C   0  0  0  0  0  0  0  0  0  0  0  0
  128.6760  130.2230   62.3990 N   0  0  0  0  0  0  0  0  0  0  0  0
  127.8530  130.3400   63.4700 C   0  0  0  0  0  0  0  0  0  0  0  0
  126.8930  131.1080   63.5280 O   0  0  0  0  0  0  0  0  0  0  0  0
  128.1730  129.4640   64.6010 C   0  0  0  0  0  0  0  0  0  0  0  0
  127.6090  129.8610   66.2240 S   0  0  0  0  0  0  0  0  0  0  0  0
  128.3760  128.4380   66.8900 C   0  0  0  0  0  0  0  0  0  0  0  0
  128.3270  128.1610   68.1930 N   0  0  0  0  0  0  0  0  0  0  0  0
  128.9610  127.0320   68.6070 C   0  0  0  0  0  0  0  0  0  0  0  0
  128.9110  126.7520   70.0750 C   0  0  0  0  0  0  0  0  0  0  0  0
  129.1130  127.7740   71.0140 C   0  0  0  0  0  0  0  0  0  0  0  0
  129.0760  127.5050   72.3790 C   0  0  0  0  0  0  0  0  0  0  0  0
  128.8360  126.2120   72.8400 C   0  0  0  0  0  0  0  0  0  0  0  0
  128.8200  126.0380   74.2110 O   0  0  0  0  0  0  0  0  0  0  0  0
  129.8660  125.2940   74.8280 C   0  0  0  0  0  0  0  0  0  0  0  0
  128.6280  125.1840   71.9100 C   0  0  0  0  0  0  0  0  0  0  0  0
  128.6670  125.4560   70.5440 C   0  0  0  0  0  0  0  0  0  0  0  0
  129.6310  126.1850   67.7220 C   0  0  0  0  0  0  0  0  0  0  0  0
  129.6710  126.4630   66.3520 C   0  0  0  0  0  0  0  0  0  0  0  0
  130.3700  125.5110   65.4500 C   0  0  0  0  0  0  0  0  0  0  0  0
  129.9330  124.1890   65.3500 C   0  0  0  0  0  0  0  0  0  0  0  0
  130.5720  123.2990   64.4910 C   0  0  0  0  0  0  0  0  0  0  0  0
  131.6540  123.7160   63.7150 C   0  0  0  0  0  0  0  0  0  0  0  0
  132.2260  122.7650   62.8910 O   0  0  0  0  0  0  0  0  0  0  0  0
  133.5970  122.8910   62.5330 C   0  0  0  0  0  0  0  0  0  0  0  0
  132.0900  125.0470   63.8090 C   0  0  0  0  0  0  0  0  0  0  0  0
  131.4470  125.9360   64.6680 C   0  0  0  0  0  0  0  0  0  0  0  0
  129.0320  127.6520   65.8980 C   0  0  0  0  0  0  0  0  0  0  0  0
  128.9160  128.2720   64.6010 C   0  0  0  0  0  0  0  0  0  0  0  0
  129.4980  127.7440   63.4760 N   0  0  0  0  0  0  0  0  0  0  0  0
  127.6400  131.7520   60.7190 C   0  0  0  0  0  0  0  0  0  0  0  0
  127.7270  132.3570   59.4680 C   0  0  0  0  0  0  0  0  0  0  0  0
  1  2  1  0
  2  3  1  0
  3  4  1  0
  4  5  2  0
  4  6  1  0
  6  7  2  0
  7  8  1  0
  8  9  2  0
  9 10  1  0
 10 11  1  0
 11 12  2  0
 11 13  1  0
 13 14  1  0
 14 15  1  0
 15 16  2  0
 16 17  1  0
 17 18  1  0
 18 19  2  0
 19 20  1  0
 20 21  2  0
 21 22  1  0
 22 23  1  0
 21 24  1  0
 24 25  2  0
 17 26  2  0
 26 27  1  0
 27 28  1  0
 28 29  2  0
 29 30  1  0
 30 31  2  0
 31 32  1  0
 32 33  1  0
 31 34  1  0
 34 35  2  0
 27 36  2  0
 36 37  1  0
 37 38  1  0
  9 39  1  0
 39 40  2  0
 40  6  1  0
 37 13  2  0
 36 15  1  0
 25 18  1  0
 35 28  1  0
M  END
>  <Binding energies>  (36) 
[-8.1]

>  <Ligand effiencies>  (36) 
[-0.1883720930232558]

>  <Interactions>  (36) 
["V-B:GLU:543:CD:9879, V-B:GLU:543:CG:9878, V-A:HIS:456:CE1:4069, V-B:GLU:543:CB:9877, V-A:ILE:369:CD1:3238, V-B:HIS:456:CE1:9041, V-A:GLU:543:CD:4908, V-A:GLY:454:CA:4048, V-A:GLU:543:CG:4907, H-A:GLU:543:OE2:4910, V-B:GLU:543:C:9873, H-A:GLU:543:OE1:4909, V-A:ILE:369:CG2:3236, V-A:HIS:456:CD2:4067, H-B:GLU:543:OE2:9881, H-B:LYS:547:NZ:9922, V-B:LYS:547:CE:9921, V-B:HIS:456:CD2:9039, V-A:TYR:539:C:4867, V-A:PRO:540:CA:4883, V-A:TYR:539:CE2:4876, V-A:TYR:539:CD2:4874, H-A:TYR:539:OH:4878, V-A:PRO:540:N:4884, V-A:PRO:540:CB:4885, H-A:TYR:539:N:4870, V-A:LEU:363:CD1:3188, V-A:ILE:538:CB:4862, V-A:PRO:540:CD:4887, V-A:TYR:539:CZ:4877, V-A:TYR:539:CG:4872, V-A:PRO:540:CG:4886"]

$$$$
8c_Ghoteimi_2023
     RDKit          3D

 34 38  0  0  0  0  0  0  0  0999 V2000
  129.8640  125.7390   75.0200 C   0  0  0  0  0  0  0  0  0  0  0  0
  128.7350  126.2170   74.2990 O   0  0  0  0  0  0  0  0  0  0  0  0
  128.7970  126.2890   72.9200 C   0  0  0  0  0  0  0  0  0  0  0  0
  129.4860  127.3750   72.3830 C   0  0  0  0  0  0  0  0  0  0  0  0
  129.5970  127.5300   71.0050 C   0  0  0  0  0  0  0  0  0  0  0  0
  129.0210  126.6020   70.1260 C   0  0  0  0  0  0  0  0  0  0  0  0
  129.1340  126.7660   68.6430 C   0  0  0  0  0  0  0  0  0  0  0  0
  129.7710  125.8130   67.8420 C   0  0  0  0  0  0  0  0  0  0  0  0
  129.8600  125.9890   66.4570 C   0  0  0  0  0  0  0  0  0  0  0  0
  130.5490  124.9650   65.6390 C   0  0  0  0  0  0  0  0  0  0  0  0
  131.8730  125.1580   65.2380 C   0  0  0  0  0  0  0  0  0  0  0  0
  132.5220  124.1910   64.4770 C   0  0  0  0  0  0  0  0  0  0  0  0
  131.8600  123.0200   64.1040 C   0  0  0  0  0  0  0  0  0  0  0  0
  132.5830  122.1150   63.3510 O   0  0  0  0  0  0  0  0  0  0  0  0
  133.5570  122.5960   62.4330 C   0  0  0  0  0  0  0  0  0  0  0  0
  130.5280  122.8290   64.5040 C   0  0  0  0  0  0  0  0  0  0  0  0
  129.8800  123.7970   65.2660 C   0  0  0  0  0  0  0  0  0  0  0  0
  129.2820  127.1570   65.8940 C   0  0  0  0  0  0  0  0  0  0  0  0
  129.1890  127.6450   64.5430 C   0  0  0  0  0  0  0  0  0  0  0  0
  129.7130  126.9600   63.4760 N   0  0  0  0  0  0  0  0  0  0  0  0
  128.5180  128.8730   64.4270 C   0  0  0  0  0  0  0  0  0  0  0  0
  128.2400  129.6500   63.2170 C   0  0  0  0  0  0  0  0  0  0  0  0
  127.1520  129.5570   62.6450 O   0  0  0  0  0  0  0  0  0  0  0  0
  129.2500  130.4500   62.7950 N   0  0  0  0  0  0  0  0  0  0  0  0
  129.2450  131.2840   61.6860 C   0  0  0  0  0  0  0  0  0  0  0  0
  129.8070  132.4680   61.5630 N   0  0  0  0  0  0  0  0  0  0  0  0
  129.6040  132.9780   60.3650 C   0  0  0  0  0  0  0  0  0  0  0  0
  128.8600  132.2020   59.4830 C   0  0  0  0  0  0  0  0  0  0  0  0
  128.4050  130.7240   60.2770 S   0  0  0  0  0  0  0  0  0  0  0  0
  127.9780  129.4560   66.0030 S   0  0  0  0  0  0  0  0  0  0  0  0
  128.6550  128.0570   66.8040 C   0  0  0  0  0  0  0  0  0  0  0  0
  128.5700  127.8910   68.1240 N   0  0  0  0  0  0  0  0  0  0  0  0
  128.3320  125.5120   70.6730 C   0  0  0  0  0  0  0  0  0  0  0  0
  128.2180  125.3540   72.0510 C   0  0  0  0  0  0  0  0  0  0  0  0
  1  2  1  0
  2  3  1  0
  3  4  2  0
  4  5  1  0
  5  6  2  0
  6  7  1  0
  7  8  2  0
  8  9  1  0
  9 10  1  0
 10 11  2  0
 11 12  1  0
 12 13  2  0
 13 14  1  0
 14 15  1  0
 13 16  1  0
 16 17  2  0
  9 18  2  0
 18 19  1  0
 19 20  1  0
 19 21  2  0
 21 22  1  0
 22 23  2  0
 22 24  1  0
 24 25  1  0
 25 26  2  0
 26 27  1  0
 27 28  2  0
 28 29  1  0
 21 30  1  0
 30 31  1  0
 31 32  2  0
  6 33  1  0
 33 34  2  0
 34  3  1  0
 32  7  1  0
 17 10  1  0
 31 18  1  0
 29 25  1  0
M  END
>  <Binding energies>  (37) 
[-7.85]

>  <Ligand effiencies>  (37) 
[-0.21216216216216216]

>  <Interactions>  (37) 
["V-B:GLU:543:CD:9879, V-B:GLU:543:CG:9878, V-A:HIS:456:CE1:4069, V-B:GLU:543:CB:9877, V-A:ILE:369:CD1:3238, V-B:ALA:541:CB:9863, V-A:TYR:484:CE1:4344, V-B:HIS:456:CE1:9041, V-A:GLU:543:CD:4908, V-A:GLY:454:CA:4048, V-A:GLU:543:CG:4907, V-B:GLU:543:C:9873, H-A:GLU:543:OE1:4909, V-A:ILE:369:CG2:3236, H-B:GLU:543:OE2:9881, H-B:LYS:547:NZ:9922, V-B:LYS:547:CE:9921, H-A:ALA:541:N:4891, V-A:TYR:539:C:4867, V-A:PRO:540:CA:4883, V-A:PRO:540:N:4884, V-A:PRO:540:C:4881"]

$$$$
8d_Ghoteimi_2023
     RDKit          3D

 30 33  0  0  0  0  0  0  0  0999 V2000
  126.8500  127.7010   61.7340 C   0  0  0  0  0  0  0  0  0  0  0  0
  127.7120  128.7560   62.1370 O   0  0  0  0  0  0  0  0  0  0  0  0
  127.4610  129.4680   63.2660 C   0  0  0  0  0  0  0  0  0  0  0  0
  126.9020  130.5670   63.2790 O   0  0  0  0  0  0  0  0  0  0  0  0
  127.9290  128.7860   64.4920 C   0  0  0  0  0  0  0  0  0  0  0  0
  127.2440  129.2220   66.0590 S   0  0  0  0  0  0  0  0  0  0  0  0
  128.2600  128.0550   66.8720 C   0  0  0  0  0  0  0  0  0  0  0  0
  128.2150  127.8830   68.1940 N   0  0  0  0  0  0  0  0  0  0  0  0
  129.0470  126.9470   68.7250 C   0  0  0  0  0  0  0  0  0  0  0  0
  128.9790  126.7770   70.2100 C   0  0  0  0  0  0  0  0  0  0  0  0
  128.3540  125.6610   70.7830 C   0  0  0  0  0  0  0  0  0  0  0  0
  128.2940  125.5080   72.1650 C   0  0  0  0  0  0  0  0  0  0  0  0
  128.8540  126.4650   73.0100 C   0  0  0  0  0  0  0  0  0  0  0  0
  128.7480  126.2300   74.3670 O   0  0  0  0  0  0  0  0  0  0  0  0
  129.8660  125.6980   75.0700 C   0  0  0  0  0  0  0  0  0  0  0  0
  129.4840  127.5840   72.4470 C   0  0  0  0  0  0  0  0  0  0  0  0
  129.5430  127.7330   71.0640 C   0  0  0  0  0  0  0  0  0  0  0  0
  129.9240  126.1950   67.9380 C   0  0  0  0  0  0  0  0  0  0  0  0
  129.9690  126.3740   66.5510 C   0  0  0  0  0  0  0  0  0  0  0  0
  130.9030  125.5560   65.7430 C   0  0  0  0  0  0  0  0  0  0  0  0
  132.2690  125.8450   65.7420 C   0  0  0  0  0  0  0  0  0  0  0  0
  133.1450  125.0820   64.9750 C   0  0  0  0  0  0  0  0  0  0  0  0
  132.6720  124.0190   64.2050 C   0  0  0  0  0  0  0  0  0  0  0  0
  133.6130  123.3190   63.4770 O   0  0  0  0  0  0  0  0  0  0  0  0
  133.2190  122.1410   62.7820 C   0  0  0  0  0  0  0  0  0  0  0  0
  131.2980  123.7270   64.2120 C   0  0  0  0  0  0  0  0  0  0  0  0
  130.4230  124.4920   64.9780 C   0  0  0  0  0  0  0  0  0  0  0  0
  129.1070  127.3440   65.9750 C   0  0  0  0  0  0  0  0  0  0  0  0
  128.8960  127.7820   64.6230 C   0  0  0  0  0  0  0  0  0  0  0  0
  129.5910  127.2610   63.5610 N   0  0  0  0  0  0  0  0  0  0  0  0
  1  2  1  0
  2  3  1  0
  3  4  2  0
  3  5  1  0
  5  6  1  0
  6  7  1  0
  7  8  2  0
  8  9  1  0
  9 10  1  0
 10 11  2  0
 11 12  1  0
 12 13  2  0
 13 14  1  0
 14 15  1  0
 13 16  1  0
 16 17  2  0
  9 18  2  0
 18 19  1  0
 19 20  1  0
 20 21  2  0
 21 22  1  0
 22 23  2  0
 23 24  1  0
 24 25  1  0
 23 26  1  0
 26 27  2  0
 19 28  2  0
 28 29  1  0
 29 30  1  0
 29  5  2  0
 28  7  1  0
 17 10  1  0
 27 20  1  0
M  END
>  <Binding energies>  (38) 
[-6.46]

>  <Ligand effiencies>  (38) 
[-0.201875]

>  <Interactions>  (38) 
["V-B:GLU:543:CD:9879, H-A:GLY:454:N:4049, V-A:HIS:456:CE1:4069, V-A:ARG:545:CZ:4926, V-B:HIS:456:CE1:9041, V-A:GLU:543:CD:4908, V-A:GLY:454:CA:4048, V-A:GLU:543:CG:4907, V-A:LEU:475:CD2:4258, H-A:GLU:543:OE2:4910, V-B:GLU:543:C:9873, H-A:GLU:543:OE1:4909, H-B:GLU:543:OE2:9881, H-B:LYS:547:NZ:9922, V-B:LYS:547:CE:9921, V-B:HIS:456:CD2:9039"]

$$$$
9a_Ghoteimi_2023
     RDKit          3D

 48 54  0  0  0  0  0  0  0  0999 V2000
  136.6410  118.6360   58.1370 C   0  0  0  0  0  0  0  0  0  0  0  0
  136.9460  118.9790   59.5990 C   0  0  0  0  0  0  0  0  0  0  0  0
  135.9120  119.8080   60.1170 O   0  0  0  0  0  0  0  0  0  0  0  0
  134.7090  119.2890   60.4700 C   0  0  0  0  0  0  0  0  0  0  0  0
  134.3430  118.1490   60.1640 O   0  0  0  0  0  0  0  0  0  0  0  0
  133.8610  120.2410   61.2630 C   0  0  0  0  0  0  0  0  0  0  0  0
  134.3930  121.4810   61.6400 C   0  0  0  0  0  0  0  0  0  0  0  0
  133.6340  122.3850   62.3770 C   0  0  0  0  0  0  0  0  0  0  0  0
  132.3280  122.0700   62.7520 C   0  0  0  0  0  0  0  0  0  0  0  0
  131.6550  123.0590   63.4960 N   0  0  0  0  0  0  0  0  0  0  0  0
  130.3600  123.1290   63.8960 C   0  0  0  0  0  0  0  0  0  0  0  0
  129.5130  122.2690   63.6520 O   0  0  0  0  0  0  0  0  0  0  0  0
  130.0090  124.3220   64.6720 C   0  0  0  0  0  0  0  0  0  0  0  0
  130.1660  124.3200   66.4290 S   0  0  0  0  0  0  0  0  0  0  0  0
  129.6070  125.9730   66.5260 C   0  0  0  0  0  0  0  0  0  0  0  0
  129.5140  126.6120   67.6920 N   0  0  0  0  0  0  0  0  0  0  0  0
  129.0790  127.9000   67.6560 C   0  0  0  0  0  0  0  0  0  0  0  0
  128.9940  128.6000   68.9740 C   0  0  0  0  0  0  0  0  0  0  0  0
  129.2760  127.9170   70.1620 C   0  0  0  0  0  0  0  0  0  0  0  0
  129.2000  128.5620   71.3930 C   0  0  0  0  0  0  0  0  0  0  0  0
  128.8520  129.9190   71.4820 C   0  0  0  0  0  0  0  0  0  0  0  0
  128.7520  130.5760   72.7130 N   0  0  0  0  0  0  0  0  0  0  0  0
  127.5350  131.3200   73.0950 C   0  0  0  0  0  0  0  0  0  0  0  0
  127.7350  132.2640   74.2990 C   0  0  0  0  0  0  0  0  0  0  0  0
  128.2580  131.5430   75.4020 O   0  0  0  0  0  0  0  0  0  0  0  0
  129.5140  130.9590   75.0930 C   0  0  0  0  0  0  0  0  0  0  0  0
  129.3610  129.9730   73.9170 C   0  0  0  0  0  0  0  0  0  0  0  0
  128.5550  130.5950   70.2890 C   0  0  0  0  0  0  0  0  0  0  0  0
  128.6290  129.9490   69.0590 C   0  0  0  0  0  0  0  0  0  0  0  0
  128.7140  128.5310   66.4650 C   0  0  0  0  0  0  0  0  0  0  0  0
  128.7900  127.8570   65.2420 C   0  0  0  0  0  0  0  0  0  0  0  0
  128.3550  128.5630   64.0090 C   0  0  0  0  0  0  0  0  0  0  0  0
  127.0640  129.0880   63.9090 C   0  0  0  0  0  0  0  0  0  0  0  0
  126.6620  129.7610   62.7590 C   0  0  0  0  0  0  0  0  0  0  0  0
  127.5470  129.9440   61.6850 C   0  0  0  0  0  0  0  0  0  0  0  0
  127.1630  130.6070   60.5160 N   0  0  0  0  0  0  0  0  0  0  0  0
  128.2010  131.2170   59.6610 C   0  0  0  0  0  0  0  0  0  0  0  0
  127.6960  131.5710   58.2460 C   0  0  0  0  0  0  0  0  0  0  0  0
  126.5540  132.4080   58.3330 O   0  0  0  0  0  0  0  0  0  0  0  0
  125.4920  131.7770   59.0300 C   0  0  0  0  0  0  0  0  0  0  0  0
  125.9380  131.4290   60.4660 C   0  0  0  0  0  0  0  0  0  0  0  0
  128.8420  129.4160   61.7980 C   0  0  0  0  0  0  0  0  0  0  0  0
  129.2420  128.7390   62.9460 C   0  0  0  0  0  0  0  0  0  0  0  0
  129.2780  126.5190   65.2510 C   0  0  0  0  0  0  0  0  0  0  0  0
  129.5400  125.5600   64.2060 C   0  0  0  0  0  0  0  0  0  0  0  0
  129.3590  125.8480   62.8780 N   0  0  0  0  0  0  0  0  0  0  0  0
  131.7840  120.8320   62.3770 C   0  0  0  0  0  0  0  0  0  0  0  0
  132.5460  119.9290   61.6400 C   0  0  0  0  0  0  0  0  0  0  0  0
  1  2  1  0
  2  3  1  0
  3  4  1  0
  4  5  2  0
  4  6  1  0
  6  7  2  0
  7  8  1  0
  8  9  2  0
  9 10  1  0
 10 11  1  0
 11 12  2  0
 11 13  1  0
 13 14  1  0
 14 15  1  0
 15 16  2  0
 16 17  1  0
 17 18  1  0
 18 19  2  0
 19 20  1  0
 20 21  2  0
 21 22  1  0
 22 23  1  0
 23 24  1  0
 24 25  1  0
 25 26  1  0
 26 27  1  0
 21 28  1  0
 28 29  2  0
 17 30  2  0
 30 31  1  0
 31 32  1  0
 32 33  2  0
 33 34  1  0
 34 35  2  0
 35 36  1  0
 36 37  1  0
 37 38  1  0
 38 39  1  0
 39 40  1  0
 40 41  1  0
 35 42  1  0
 42 43  2  0
 31 44  2  0
 44 45  1  0
 45 46  1  0
  9 47  1  0
 47 48  2  0
 48  6  1  0
 45 13  2  0
 44 15  1  0
 29 18  1  0
 43 32  1  0
 27 22  1  0
 41 36  1  0
M  END
>  <Binding energies>  (39) 
[1.68]

>  <Ligand effiencies>  (39) 
[0.03294117647058823]

>  <Interactions>  (39) 
["V-B:GLU:543:CD:9879, V-B:GLU:543:CG:9878, V-A:HIS:456:CE1:4069, V-B:GLU:543:CB:9877, V-A:ILE:369:CD1:3238, V-B:ALA:541:CB:9863, V-A:GLU:543:CB:4906, V-A:TYR:484:CE1:4344, V-B:HIS:456:CE1:9041, V-A:GLU:543:CD:4908, V-A:GLY:454:CA:4048, V-A:GLU:543:CG:4907, V-A:LEU:475:CD2:4258, V-A:TYR:484:CZ:4346, V-A:GLU:543:C:4902, V-A:TRP:381:CH2:3371, V-A:ILE:369:CG2:3236, V-A:TRP:381:CZ2:3369, V-A:ILE:369:CB:3235, H-B:GLU:543:OE2:9881, V-B:TYR:484:CD1:9314, V-B:HIS:456:CG:9037, V-B:TYR:484:CE1:9316, V-B:HIS:456:CB:9036, V-B:HIS:456:CD2:9039, V-B:TYR:484:CZ:9318, V-A:GLU:543:CA:4904, V-A:TYR:539:CE2:4876, H-A:TYR:539:OH:4878, V-A:LYS:547:CE:4950, V-A:ILE:369:CG1:3237, V-A:LEU:475:CG:4256, V-A:TYR:539:CZ:4877, V-A:SER:385:C:3404, V-A:SER:385:CA:3406, V-B:ASP:473:CG:9211, V-A:SER:385:CB:3408, V-A:ILE:369:C:3231, V-A:ILE:369:CA:3233, V-A:VAL:384:CG1:3401, V-A:VAL:384:C:3396, V-A:ILE:496:CD1:4466"]

$$$$
9b_Ghoteimi_2023
     RDKit          3D

 42 48  0  0  0  0  0  0  0  0999 V2000
  129.3570  126.9970   62.1340 N   0  0  0  0  0  0  0  0  0  0  0  0
  129.0200  127.7740   63.2140 C   0  0  0  0  0  0  0  0  0  0  0  0
  128.5770  129.1010   63.1030 C   0  0  0  0  0  0  0  0  0  0  0  0
  128.3630  129.8950   61.8900 C   0  0  0  0  0  0  0  0  0  0  0  0
  127.3600  129.7230   61.1940 O   0  0  0  0  0  0  0  0  0  0  0  0
  129.3340  130.7990   61.6070 N   0  0  0  0  0  0  0  0  0  0  0  0
  129.3930  131.6680   60.5240 C   0  0  0  0  0  0  0  0  0  0  0  0
  128.2590  132.1450   59.8690 C   0  0  0  0  0  0  0  0  0  0  0  0
  128.7390  132.9650   58.8740 C   0  0  0  0  0  0  0  0  0  0  0  0
  130.0920  132.9800   58.9280 O   0  0  0  0  0  0  0  0  0  0  0  0
  130.4950  132.1540   59.9780 N   0  0  0  0  0  0  0  0  0  0  0  0
  128.2660  129.8040   64.6900 S   0  0  0  0  0  0  0  0  0  0  0  0
  128.7480  128.3260   65.4890 C   0  0  0  0  0  0  0  0  0  0  0  0
  128.7590  128.2220   66.8170 N   0  0  0  0  0  0  0  0  0  0  0  0
  129.1670  127.0360   67.3390 C   0  0  0  0  0  0  0  0  0  0  0  0
  129.1900  126.9530   68.8310 C   0  0  0  0  0  0  0  0  0  0  0  0
  129.9050  127.8810   69.5970 C   0  0  0  0  0  0  0  0  0  0  0  0
  129.9350  127.7900   70.9850 C   0  0  0  0  0  0  0  0  0  0  0  0
  129.2620  126.7590   71.6580 C   0  0  0  0  0  0  0  0  0  0  0  0
  129.2800  126.6560   73.0540 N   0  0  0  0  0  0  0  0  0  0  0  0
  129.4930  125.3590   73.7270 C   0  0  0  0  0  0  0  0  0  0  0  0
  129.8260  125.4830   75.2280 C   0  0  0  0  0  0  0  0  0  0  0  0
  128.8230  126.2380   75.8870 O   0  0  0  0  0  0  0  0  0  0  0  0
  128.7270  127.5500   75.3570 C   0  0  0  0  0  0  0  0  0  0  0  0
  128.3630  127.4920   73.8580 C   0  0  0  0  0  0  0  0  0  0  0  0
  128.5310  125.8440   70.8870 C   0  0  0  0  0  0  0  0  0  0  0  0
  128.4970  125.9370   69.4990 C   0  0  0  0  0  0  0  0  0  0  0  0
  129.5350  125.9540   66.5360 C   0  0  0  0  0  0  0  0  0  0  0  0
  129.5060  126.0530   65.1400 C   0  0  0  0  0  0  0  0  0  0  0  0
  129.8780  124.8640   64.3310 C   0  0  0  0  0  0  0  0  0  0  0  0
  131.1320  124.2720   64.4840 C   0  0  0  0  0  0  0  0  0  0  0  0
  131.4770  123.1470   63.7420 C   0  0  0  0  0  0  0  0  0  0  0  0
  130.5770  122.5830   62.8240 C   0  0  0  0  0  0  0  0  0  0  0  0
  130.8960  121.4450   62.0790 N   0  0  0  0  0  0  0  0  0  0  0  0
  129.8200  120.7060   61.3920 C   0  0  0  0  0  0  0  0  0  0  0  0
  130.2390  119.2850   60.9570 C   0  0  0  0  0  0  0  0  0  0  0  0
  131.4020  119.3490   60.1460 O   0  0  0  0  0  0  0  0  0  0  0  0
  132.4940  119.9380   60.8370 C   0  0  0  0  0  0  0  0  0  0  0  0
  132.1310  121.3730   61.2730 C   0  0  0  0  0  0  0  0  0  0  0  0
  129.3120  123.1760   62.6920 C   0  0  0  0  0  0  0  0  0  0  0  0
  128.9670  124.3020   63.4350 C   0  0  0  0  0  0  0  0  0  0  0  0
  129.1140  127.2970   64.5710 C   0  0  0  0  0  0  0  0  0  0  0  0
  1  2  1  0
  2  3  2  0
  3  4  1  0
  4  5  2  0
  4  6  1  0
  6  7  1  0
  7  8  1  0
  8  9  2  0
  9 10  1  0
 10 11  1  0
  3 12  1  0
 12 13  1  0
 13 14  2  0
 14 15  1  0
 15 16  1  0
 16 17  2  0
 17 18  1  0
 18 19  2  0
 19 20  1  0
 20 21  1  0
 21 22  1  0
 22 23  1  0
 23 24  1  0
 24 25  1  0
 19 26  1  0
 26 27  2  0
 15 28  2  0
 28 29  1  0
 29 30  1  0
 30 31  2  0
 31 32  1  0
 32 33  2  0
 33 34  1  0
 34 35  1  0
 35 36  1  0
 36 37  1  0
 37 38  1  0
 38 39  1  0
 33 40  1  0
 40 41  2  0
 29 42  2  0
 42  2  1  0
 11  7  2  0
 42 13  1  0
 27 16  1  0
 41 30  1  0
 25 20  1  0
 39 34  1  0
M  END
>  <Binding energies>  (40) 
[-7.68]

>  <Ligand effiencies>  (40) 
[-0.17066666666666666]

>  <Interactions>  (40) 
["V-B:TYR:539:CD2:9845, V-B:GLU:543:CD:9879, V-B:GLU:543:CG:9878, V-A:HIS:456:CE1:4069, V-B:GLU:543:CB:9877, V-B:ALA:541:CB:9863, V-A:GLU:543:CB:4906, V-B:HIS:456:CE1:9041, V-A:GLU:543:CD:4908, V-A:GLU:543:CG:4907, V-A:LEU:475:CD2:4258, H-A:GLU:543:OE1:4909, V-A:PRO:482:CB:4325, V-A:TRP:381:CH2:3371, V-A:ILE:369:CG2:3236, V-A:PRO:482:CG:4326, V-A:TRP:381:CZ2:3369, V-A:HIS:456:CD2:4067, H-B:GLU:543:OE2:9881, H-B:LYS:547:NZ:9922, V-B:LYS:547:CE:9921, V-B:HIS:456:CD2:9039, V-A:TYR:539:C:4867, V-A:TYR:539:CE2:4876, V-A:TYR:539:CD2:4874"]

$$$$
9c_Ghoteimi_2023
     RDKit          3D

 42 48  0  0  0  0  0  0  0  0999 V2000
  129.3600  127.0550   62.1060 N   0  0  0  0  0  0  0  0  0  0  0  0
  129.0040  127.8320   63.1790 C   0  0  0  0  0  0  0  0  0  0  0  0
  128.5270  129.1460   63.0580 C   0  0  0  0  0  0  0  0  0  0  0  0
  128.2970  129.9250   61.8380 C   0  0  0  0  0  0  0  0  0  0  0  0
  127.1920  129.9340   61.2940 O   0  0  0  0  0  0  0  0  0  0  0  0
  129.3730  130.6080   61.3730 N   0  0  0  0  0  0  0  0  0  0  0  0
  129.4280  131.4040   60.2370 C   0  0  0  0  0  0  0  0  0  0  0  0
  128.4340  132.0090   59.6250 N   0  0  0  0  0  0  0  0  0  0  0  0
  128.8520  132.6800   58.5690 C   0  0  0  0  0  0  0  0  0  0  0  0
  130.2170  132.6250   58.3050 C   0  0  0  0  0  0  0  0  0  0  0  0
  130.9870  131.6400   59.5120 S   0  0  0  0  0  0  0  0  0  0  0  0
  128.1970  129.8530   64.6390 S   0  0  0  0  0  0  0  0  0  0  0  0
  128.7160  128.3950   65.4500 C   0  0  0  0  0  0  0  0  0  0  0  0
  128.7270  128.3010   66.7790 N   0  0  0  0  0  0  0  0  0  0  0  0
  129.1650  127.1300   67.3110 C   0  0  0  0  0  0  0  0  0  0  0  0
  129.1870  127.0600   68.8030 C   0  0  0  0  0  0  0  0  0  0  0  0
  129.6590  128.1300   69.5720 C   0  0  0  0  0  0  0  0  0  0  0  0
  129.6870  128.0560   70.9610 C   0  0  0  0  0  0  0  0  0  0  0  0
  129.2540  126.9020   71.6340 C   0  0  0  0  0  0  0  0  0  0  0  0
  129.2690  126.8140   73.0310 N   0  0  0  0  0  0  0  0  0  0  0  0
  129.4640  125.5210   73.7180 C   0  0  0  0  0  0  0  0  0  0  0  0
  129.8010  125.6570   75.2180 C   0  0  0  0  0  0  0  0  0  0  0  0
  128.8060  126.4330   75.8690 O   0  0  0  0  0  0  0  0  0  0  0  0
  128.7290  127.7400   75.3240 C   0  0  0  0  0  0  0  0  0  0  0  0
  128.3640  127.6700   73.8250 C   0  0  0  0  0  0  0  0  0  0  0  0
  128.7650  125.8400   70.8600 C   0  0  0  0  0  0  0  0  0  0  0  0
  128.7340  125.9170   69.4700 C   0  0  0  0  0  0  0  0  0  0  0  0
  129.5610  126.0510   66.5170 C   0  0  0  0  0  0  0  0  0  0  0  0
  129.5300  126.1380   65.1200 C   0  0  0  0  0  0  0  0  0  0  0  0
  129.9310  124.9540   64.3200 C   0  0  0  0  0  0  0  0  0  0  0  0
  131.2190  124.4280   64.4370 C   0  0  0  0  0  0  0  0  0  0  0  0
  131.5940  123.3070   63.7010 C   0  0  0  0  0  0  0  0  0  0  0  0
  130.6900  122.6830   62.8270 C   0  0  0  0  0  0  0  0  0  0  0  0
  131.0410  121.5500   62.0870 N   0  0  0  0  0  0  0  0  0  0  0  0
  129.9910  120.8160   61.3530 C   0  0  0  0  0  0  0  0  0  0  0  0
  130.4290  119.4010   60.9160 C   0  0  0  0  0  0  0  0  0  0  0  0
  131.6200  119.4780   60.1470 O   0  0  0  0  0  0  0  0  0  0  0  0
  132.6840  120.0590   60.8830 C   0  0  0  0  0  0  0  0  0  0  0  0
  132.3030  121.4900   61.3250 C   0  0  0  0  0  0  0  0  0  0  0  0
  129.3930  123.2080   62.7330 C   0  0  0  0  0  0  0  0  0  0  0  0
  129.0180  124.3290   63.4690 C   0  0  0  0  0  0  0  0  0  0  0  0
  129.1090  127.3690   64.5410 C   0  0  0  0  0  0  0  0  0  0  0  0
  1  2  1  0
  2  3  2  0
  3  4  1  0
  4  5  2  0
  4  6  1  0
  6  7  1  0
  7  8  2  0
  8  9  1  0
  9 10  2  0
 10 11  1  0
  3 12  1  0
 12 13  1  0
 13 14  2  0
 14 15  1  0
 15 16  1  0
 16 17  2  0
 17 18  1  0
 18 19  2  0
 19 20  1  0
 20 21  1  0
 21 22  1  0
 22 23  1  0
 23 24  1  0
 24 25  1  0
 19 26  1  0
 26 27  2  0
 15 28  2  0
 28 29  1  0
 29 30  1  0
 30 31  2  0
 31 32  1  0
 32 33  2  0
 33 34  1  0
 34 35  1  0
 35 36  1  0
 36 37  1  0
 37 38  1  0
 38 39  1  0
 33 40  1  0
 40 41  2  0
 29 42  2  0
 42  2  1  0
 11  7  1  0
 42 13  1  0
 27 16  1  0
 41 30  1  0
 25 20  1  0
 39 34  1  0
M  END
>  <Binding energies>  (41) 
[-7.83]

>  <Ligand effiencies>  (41) 
[-0.174]

>  <Interactions>  (41) 
["V-B:TYR:539:CD2:9845, V-B:GLU:543:CD:9879, V-B:GLU:543:CG:9878, V-A:HIS:456:CE1:4069, V-B:GLU:543:CB:9877, V-B:ALA:541:CB:9863, V-A:GLU:543:CB:4906, V-B:HIS:456:CE1:9041, V-A:GLU:543:CD:4908, V-A:GLU:543:CG:4907, V-A:LEU:475:CD2:4258, H-A:GLU:543:OE1:4909, V-A:PRO:482:CB:4325, V-A:TRP:381:CH2:3371, V-A:ILE:369:CG2:3236, V-A:PRO:482:CG:4326, V-A:TRP:381:CZ2:3369, V-A:HIS:456:CD2:4067, H-B:GLU:543:OE2:9881, H-B:LYS:547:NZ:9922, V-B:LYS:547:CE:9921, V-B:HIS:456:CD2:9039, V-A:TYR:539:C:4867, V-A:PRO:540:CA:4883, V-A:TYR:539:CE2:4876, V-A:TYR:539:CD2:4874, V-A:PRO:540:N:4884"]

$$$$
RR11_Rahimova_2017
     RDKit          3D

 33 38  0  0  0  0  0  0  0  0999 V2000
  129.3350  133.4310   57.4740 N   0  0  0  0  0  0  0  0  0  0  0  0
  129.7590  132.1770   57.9100 C   0  0  0  0  0  0  0  0  0  0  0  0
  128.8190  131.2140   58.2730 C   0  0  0  0  0  0  0  0  0  0  0  0
  129.2440  129.9620   58.7050 C   0  0  0  0  0  0  0  0  0  0  0  0
  130.6100  129.6590   58.7790 C   0  0  0  0  0  0  0  0  0  0  0  0
  131.0670  128.3070   59.2400 C   0  0  0  0  0  0  0  0  0  0  0  0
  130.7800  127.7860   60.4130 N   0  0  0  0  0  0  0  0  0  0  0  0
  131.3750  126.5510   60.4160 C   0  0  0  0  0  0  0  0  0  0  0  0
  131.3780  125.5720   61.4190 C   0  0  0  0  0  0  0  0  0  0  0  0
  132.0510  124.3690   61.1720 C   0  0  0  0  0  0  0  0  0  0  0  0
  132.0770  123.2890   62.2460 C   0  0  0  0  0  0  0  0  0  0  0  0
  131.4300  123.7330   63.5500 C   0  0  0  0  0  0  0  0  0  0  0  0
  130.3620  122.9970   64.0750 C   0  0  0  0  0  0  0  0  0  0  0  0
  129.7420  123.3580   65.2730 C   0  0  0  0  0  0  0  0  0  0  0  0
  130.2230  124.4860   65.9510 C   0  0  0  0  0  0  0  0  0  0  0  0
  129.7880  125.0450   67.1240 N   0  0  0  0  0  0  0  0  0  0  0  0
  130.5670  126.0870   67.3230 C   0  0  0  0  0  0  0  0  0  0  0  0
  130.4510  127.0230   68.4910 C   0  0  0  0  0  0  0  0  0  0  0  0
  131.5720  127.7260   68.9520 C   0  0  0  0  0  0  0  0  0  0  0  0
  131.4670  128.5860   70.0420 C   0  0  0  0  0  0  0  0  0  0  0  0
  130.2390  128.7500   70.6790 C   0  0  0  0  0  0  0  0  0  0  0  0
  130.1340  129.6070   71.7740 N   0  0  0  0  0  0  0  0  0  0  0  0
  129.1160  128.0610   70.2290 C   0  0  0  0  0  0  0  0  0  0  0  0
  129.2220  127.2010   69.1390 C   0  0  0  0  0  0  0  0  0  0  0  0
  131.5050  126.2280   66.3220 N   0  0  0  0  0  0  0  0  0  0  0  0
  131.3120  125.2140   65.4150 C   0  0  0  0  0  0  0  0  0  0  0  0
  131.9400  124.8540   64.2190 C   0  0  0  0  0  0  0  0  0  0  0  0
  132.7240  124.1630   59.9630 C   0  0  0  0  0  0  0  0  0  0  0  0
  132.7430  125.1210   58.9460 C   0  0  0  0  0  0  0  0  0  0  0  0
  132.0540  126.3100   59.1990 C   0  0  0  0  0  0  0  0  0  0  0  0
  131.8370  127.4580   58.4730 N   0  0  0  0  0  0  0  0  0  0  0  0
  131.5450  130.6380   58.4120 C   0  0  0  0  0  0  0  0  0  0  0  0
  131.1220  131.8920   57.9790 C   0  0  0  0  0  0  0  0  0  0  0  0
  1  2  1  0
  2  3  2  0
  3  4  1  0
  4  5  2  0
  5  6  1  0
  6  7  2  0
  7  8  1  0
  8  9  2  0
  9 10  1  0
 10 11  1  0
 11 12  1  0
 12 13  2  0
 13 14  1  0
 14 15  2  0
 15 16  1  0
 16 17  2  0
 17 18  1  0
 18 19  2  0
 19 20  1  0
 20 21  2  0
 21 22  1  0
 21 23  1  0
 23 24  2  0
 17 25  1  0
 25 26  1  0
 26 27  2  0
 10 28  2  0
 28 29  1  0
 29 30  2  0
 30 31  1  0
  5 32  1  0
 32 33  2  0
 33  2  1  0
 31  6  1  0
 30  8  1  0
 27 12  1  0
 26 15  1  0
 24 18  1  0
M  END
>  <Binding energies>  (42) 
[-7.54]

>  <Ligand effiencies>  (42) 
[-0.19333333333333333]

>  <Interactions>  (42) 
["H-A:TYR:484:OH:4347, V-B:GLU:543:CG:9878, V-A:HIS:456:CE1:4069, V-A:ARG:545:CG:4922, V-B:ALA:541:CB:9863, V-A:GLU:543:CB:4906, V-A:TYR:484:CE1:4344, V-B:HIS:456:CE1:9041, V-A:GLU:543:CD:4908, V-A:ASP:366:CG:3212, V-A:TYR:484:CZ:4346, H-A:GLU:543:OE2:4910, H-A:GLU:543:OE1:4909, V-A:GLU:543:C:4902, V-A:ILE:369:CG2:3236, V-A:GLY:544:C:4912, V-A:ARG:545:CA:4919, V-A:ASP:366:CB:3211, V-A:ASP:366:CA:3209, H-A:TYR:531:OH:4795, V-A:TYR:539:C:4867, V-A:PRO:540:CA:4883, V-A:TYR:539:CE2:4876, V-A:TYR:539:CD2:4874, H-A:GLU:543:O:4903, V-A:PRO:540:N:4884, H-A:TYR:539:O:4868, V-A:TYR:539:CZ:4877, V-A:TYR:539:CG:4872, V-A:TYR:539:CA:4869, V-A:TYR:539:CD1:4873"]

$$$$
RR16_Rahimova_2017
     RDKit          3D

 44 49  0  0  0  0  0  0  0  0999 V2000
  131.4130  119.6860   60.0960 O   0  0  0  0  0  0  0  0  0  0  0  0
  130.5100  120.1270   61.1650 S   0  0  0  0  0  0  0  0  0  0  0  0
  129.9200  119.1600   62.0990 O   0  0  0  0  0  0  0  0  0  0  0  0
  129.1970  121.0340   60.4130 N   0  0  0  0  0  0  0  0  0  0  0  0
  129.1330  122.5110   60.5190 C   0  0  0  0  0  0  0  0  0  0  0  0
  128.5880  123.0940   59.1890 C   0  0  0  0  0  0  0  0  0  0  0  0
  128.5020  124.6280   59.0730 C   0  0  0  0  0  0  0  0  0  0  0  0
  129.3000  125.3820   60.1500 C   0  0  0  0  0  0  0  0  0  0  0  0
  128.6410  125.4680   61.5380 C   0  0  0  0  0  0  0  0  0  0  0  0
  128.7230  124.2190   62.4370 C   0  0  0  0  0  0  0  0  0  0  0  0
  128.3310  122.8760   61.7900 C   0  0  0  0  0  0  0  0  0  0  0  0
  131.4010  121.3460   62.1250 C   0  0  0  0  0  0  0  0  0  0  0  0
  130.9790  121.6730   63.4150 C   0  0  0  0  0  0  0  0  0  0  0  0
  131.6050  122.7090   64.1030 C   0  0  0  0  0  0  0  0  0  0  0  0
  132.6500  123.4110   63.4990 C   0  0  0  0  0  0  0  0  0  0  0  0
  133.3620  124.8330   64.3230 S   0  0  0  0  0  0  0  0  0  0  0  0
  134.4740  125.3120   63.4910 O   0  0  0  0  0  0  0  0  0  0  0  0
  133.5930  124.4590   65.7240 O   0  0  0  0  0  0  0  0  0  0  0  0
  132.0720  126.0500   64.2820 N   0  0  0  0  0  0  0  0  0  0  0  0
  131.6800  126.4870   62.9170 C   0  0  0  0  0  0  0  0  0  0  0  0
  130.7950  127.7480   62.9860 C   0  0  0  0  0  0  0  0  0  0  0  0
  129.5820  127.5480   63.9280 C   0  0  0  0  0  0  0  0  0  0  0  0
  128.7160  128.8050   64.0470 C   0  0  0  0  0  0  0  0  0  0  0  0
  127.9200  128.9960   65.1850 C   0  0  0  0  0  0  0  0  0  0  0  0
  127.1210  130.1300   65.3380 C   0  0  0  0  0  0  0  0  0  0  0  0
  126.3520  130.3020   66.4600 O   0  0  0  0  0  0  0  0  0  0  0  0
  127.1330  131.0910   64.3160 C   0  0  0  0  0  0  0  0  0  0  0  0
  126.4810  132.2850   64.2010 N   0  0  0  0  0  0  0  0  0  0  0  0
  126.8690  132.8560   63.0080 N   0  0  0  0  0  0  0  0  0  0  0  0
  127.7080  132.0070   62.3830 N   0  0  0  0  0  0  0  0  0  0  0  0
  128.3430  132.3940   61.1300 C   0  0  0  0  0  0  0  0  0  0  0  0
  129.8500  132.1780   61.1450 C   0  0  0  0  0  0  0  0  0  0  0  0
  130.5520  132.2110   62.3540 C   0  0  0  0  0  0  0  0  0  0  0  0
  131.9300  131.9910   62.3730 C   0  0  0  0  0  0  0  0  0  0  0  0
  132.6120  131.7350   61.1830 C   0  0  0  0  0  0  0  0  0  0  0  0
  131.9180  131.6980   59.9740 C   0  0  0  0  0  0  0  0  0  0  0  0
  132.7570  131.3710   58.5020 Cl  0  0  0  0  0  0  0  0  0  0  0  0
  130.5390  131.9220   59.9540 C   0  0  0  0  0  0  0  0  0  0  0  0
  127.9330  130.8870   63.1670 C   0  0  0  0  0  0  0  0  0  0  0  0
  128.7310  129.7490   63.0100 C   0  0  0  0  0  0  0  0  0  0  0  0
  129.9970  126.9720   65.3070 C   0  0  0  0  0  0  0  0  0  0  0  0
  130.9160  125.7420   65.1640 C   0  0  0  0  0  0  0  0  0  0  0  0
  133.0980  123.0550   62.2250 C   0  0  0  0  0  0  0  0  0  0  0  0
  132.4700  122.0230   61.5360 C   0  0  0  0  0  0  0  0  0  0  0  0
  1  2  2  0
  2  3  2  0
  2  4  1  0
  4  5  1  0
  5  6  1  0
  6  7  1  0
  7  8  1  0
  8  9  1  0
  9 10  1  0
 10 11  1  0
  2 12  1  0
 12 13  2  0
 13 14  1  0
 14 15  2  0
 15 16  1  0
 16 17  2  0
 16 18  2  0
 16 19  1  0
 19 20  1  0
 20 21  1  0
 21 22  1  0
 22 23  1  0
 23 24  2  0
 24 25  1  0
 25 26  1  0
 25 27  2  0
 27 28  1  0
 28 29  2  0
 29 30  1  0
 30 31  1  0
 31 32  1  0
 32 33  2  0
 33 34  1  0
 34 35  2  0
 35 36  1  0
 36 37  1  0
 36 38  2  0
 30 39  1  0
 39 40  2  0
 22 41  1  0
 41 42  1  0
 15 43  1  0
 43 44  2  0
 11  5  1  0
 44 12  1  0
 42 19  1  0
 40 23  1  0
 39 27  1  0
 38 32  1  0
M  END
>  <Binding energies>  (43) 
[-9.08]

>  <Ligand effiencies>  (43) 
[-0.18916666666666668]

>  <Interactions>  (43) 
["V-B:TYR:539:CD2:9845, V-B:GLU:543:CD:9879, H-A:TYR:484:OH:4347, H-A:GLY:454:N:4049, H-A:ARG:545:NH1:4927, V-B:TYR:539:CE2:9847, V-A:ILE:369:CD1:3238, V-A:ARG:545:CZ:4926, V-B:ALA:541:CB:9863, V-A:GLU:543:CD:4908, H-A:ARG:545:NH2:4928, V-A:GLY:454:CA:4048, V-A:GLU:543:CG:4907, V-A:LEU:475:CD2:4258, V-B:ALA:541:CA:9861, V-A:ILE:369:CG2:3236, H-B:ALA:541:N:9862, V-B:TYR:539:CZ:9848, V-A:LEU:475:CD1:4257, H-B:TYR:539:O:9839, V-A:ALA:541:CB:4892, V-A:PRO:540:CA:4883, H-B:TYR:484:OH:9319, V-A:PRO:540:CB:4885, V-A:LEU:363:CD1:3188, V-A:ALA:541:CA:4890"]

$$$$
RR18_Rahimova_2017
     RDKit          3D

 36 41  0  0  0  0  0  0  0  0999 V2000
  133.9950  125.1430   65.6210 C   0  0  0  0  0  0  0  0  0  0  0  0
  132.8580  125.1340   64.6300 C   0  0  0  0  0  0  0  0  0  0  0  0
  132.7490  124.8090   63.2880 C   0  0  0  0  0  0  0  0  0  0  0  0
  131.4150  125.0090   62.9320 C   0  0  0  0  0  0  0  0  0  0  0  0
  130.7570  125.4480   64.0690 C   0  0  0  0  0  0  0  0  0  0  0  0
  129.3120  125.8360   64.3720 C   0  0  1  0  0  0  0  0  0  0  0  0
  129.2300  126.8660   65.5370 C   0  0  0  0  0  0  0  0  0  0  0  0
  129.6480  126.4930   66.8850 C   0  0  0  0  0  0  0  0  0  0  0  0
  129.8010  125.3150   67.2150 O   0  0  0  0  0  0  0  0  0  0  0  0
  129.8620  127.5440   67.7100 N   0  0  0  0  0  0  0  0  0  0  0  0
  130.2480  127.5740   69.0670 C   0  0  0  0  0  0  0  0  0  0  0  0
  131.4440  128.1610   69.5190 C   0  0  0  0  0  0  0  0  0  0  0  0
  131.7710  128.1520   70.8740 C   0  0  0  0  0  0  0  0  0  0  0  0
  130.9160  127.5540   71.7950 C   0  0  0  0  0  0  0  0  0  0  0  0
  129.7340  126.9580   71.3600 C   0  0  0  0  0  0  0  0  0  0  0  0
  129.3920  126.9610   70.0040 C   0  0  0  0  0  0  0  0  0  0  0  0
  128.0880  126.2910   69.5800 C   0  0  0  0  0  0  0  0  0  0  0  0
  128.8590  128.1410   65.2480 C   0  0  0  0  0  0  0  0  0  0  0  0
  128.4360  128.5700   64.0270 N   0  0  0  0  0  0  0  0  0  0  0  0
  128.2880  127.7210   63.0770 C   0  0  0  0  0  0  0  0  0  0  0  0
  127.6140  128.0940   61.5090 S   0  0  0  0  0  0  0  0  0  0  0  0
  127.7830  126.3930   60.9730 C   0  0  0  0  0  0  0  0  0  0  0  0
  127.4310  125.8670   59.7480 C   0  0  0  0  0  0  0  0  0  0  0  0
  126.7690  126.7090   58.7410 C   0  0  0  0  0  0  0  0  0  0  0  0
  126.4660  127.9010   58.7810 O   0  0  0  0  0  0  0  0  0  0  0  0
  126.4990  125.9320   57.6870 N   0  0  0  0  0  0  0  0  0  0  0  0
  126.9350  124.6520   57.8460 C   0  0  0  0  0  0  0  0  0  0  0  0
  126.8300  123.5950   56.9420 C   0  0  0  0  0  0  0  0  0  0  0  0
  127.3730  122.3600   57.2850 C   0  0  0  0  0  0  0  0  0  0  0  0
  128.0160  122.2070   58.5120 C   0  0  0  0  0  0  0  0  0  0  0  0
  128.1080  123.2810   59.4010 C   0  0  0  0  0  0  0  0  0  0  0  0
  127.5440  124.5310   59.0830 C   0  0  0  0  0  0  0  0  0  0  0  0
  128.3580  125.6260   62.0780 C   0  0  0  0  0  0  0  0  0  0  0  0
  128.5690  124.4180   62.0960 O   0  0  0  0  0  0  0  0  0  0  0  0
  128.6330  126.4100   63.1560 N   0  0  0  0  0  0  0  0  0  0  0  0
  131.6430  125.5230   65.0980 O   0  0  0  0  0  0  0  0  0  0  0  0
  1  2  1  0
  2  3  2  0
  3  4  1  0
  4  5  2  0
  6  5  1  6
  6  7  1  0
  7  8  1  0
  8  9  2  0
  8 10  1  0
 10 11  1  0
 11 12  2  0
 12 13  1  0
 13 14  2  0
 14 15  1  0
 15 16  2  0
 16 17  1  0
  7 18  2  0
 18 19  1  0
 19 20  2  0
 20 21  1  0
 21 22  1  0
 22 23  2  0
 23 24  1  0
 24 25  2  0
 24 26  1  0
 26 27  1  0
 27 28  2  0
 28 29  1  0
 29 30  2  0
 30 31  1  0
 31 32  2  0
 22 33  1  0
 33 34  2  0
 33 35  1  0
  5 36  1  0
 36  2  1  0
 35  6  1  0
 16 11  1  0
 35 20  1  0
 32 23  1  0
 32 27  1  0
M  END
>  <Binding energies>  (44) 
[-8.2]

>  <Ligand effiencies>  (44) 
[-0.2157894736842105]

>  <Interactions>  (44) 
["V-B:TYR:539:CD2:9845, V-A:ARG:545:CD:4923, V-B:GLU:543:CD:9879, V-B:PRO:540:CA:9854, H-A:TYR:484:OH:4347, V-B:PRO:540:N:9855, V-B:GLU:543:CG:9878, V-A:HIS:456:CE1:4069, V-B:TYR:539:CE2:9847, V-B:GLU:543:CB:9877, V-B:TYR:539:C:9838, V-A:ARG:545:CZ:4926, V-A:ARG:545:CG:4922, V-A:GLU:543:CB:4906, V-B:HIS:456:CE1:9041, V-A:GLU:543:CD:4908, V-A:GLY:454:CA:4048, V-A:GLU:543:CG:4907, H-A:GLU:543:OE2:4910, H-A:GLU:543:OE1:4909, V-A:HIS:456:CG:4065, V-A:GLY:544:C:4912, V-A:ARG:545:CA:4919, V-A:HIS:456:CD2:4067, V-A:GLY:453:CA:4043, V-B:TYR:539:CZ:9848, V-A:GLY:453:C:4041, H-B:TYR:531:OH:9766, V-B:TYR:539:CD1:9844, V-B:TYR:539:CE1:9846, V-B:TYR:539:CG:9843, H-B:MET:535:SD:9805"]

$$$$
RR20_Rahimova_2017
     RDKit          3D

 38 43  0  0  0  0  0  0  0  0999 V2000
  126.9200  132.9830   73.3090 C   0  0  0  0  0  0  0  0  0  0  0  0
  127.6410  131.6480   73.2930 C   0  0  0  0  0  0  0  0  0  0  0  0
  128.3580  131.2590   72.1610 C   0  0  0  0  0  0  0  0  0  0  0  0
  129.0280  130.0390   72.1470 C   0  0  0  0  0  0  0  0  0  0  0  0
  128.9750  129.1910   73.2600 C   0  0  0  0  0  0  0  0  0  0  0  0
  129.7270  127.8780   73.2330 C   0  0  0  0  0  0  0  0  0  0  0  0
  130.6040  127.7050   74.0820 O   0  0  0  0  0  0  0  0  0  0  0  0
  129.4030  126.9420   72.2930 N   0  0  0  0  0  0  0  0  0  0  0  0
  128.3540  125.9370   72.5340 C   0  0  0  0  0  0  0  0  0  0  0  0
  128.1760  125.1830   71.2280 C   0  0  0  0  0  0  0  0  0  0  0  0
  128.8700  126.0650   70.2350 C   0  0  0  0  0  0  0  0  0  0  0  0
  128.9590  125.9290   68.8500 C   0  0  0  0  0  0  0  0  0  0  0  0
  129.7950  126.7690   68.1030 C   0  0  0  0  0  0  0  0  0  0  0  0
  129.8850  126.6280   66.6090 C   0  0  0  0  0  0  0  0  0  0  0  0
  130.6560  125.6740   66.1120 N   0  0  0  0  0  0  0  0  0  0  0  0
  130.6440  125.6310   64.8040 C   0  0  0  0  0  0  0  0  0  0  0  0
  131.3280  124.7590   63.9720 N   0  0  0  0  0  0  0  0  0  0  0  0
  132.6650  124.5350   63.9480 C   0  0  0  0  0  0  0  0  0  0  0  0
  133.4690  125.0830   64.7060 O   0  0  0  0  0  0  0  0  0  0  0  0
  133.2130  123.5110   62.9260 C   0  0  0  0  0  0  0  0  0  0  0  0
  132.1610  122.9350   62.0680 N   0  0  0  0  0  0  0  0  0  0  0  0
  131.1740  122.1590   62.8330 C   0  0  0  0  0  0  0  0  0  0  0  0
  130.2600  121.3640   61.8730 C   0  0  0  0  0  0  0  0  0  0  0  0
  129.7520  122.2050   60.7000 C   0  0  0  0  0  0  0  0  0  0  0  0
  128.7130  121.7480   59.8830 C   0  0  0  0  0  0  0  0  0  0  0  0
  128.2760  122.4950   58.7920 C   0  0  0  0  0  0  0  0  0  0  0  0
  128.8770  123.7170   58.5060 C   0  0  0  0  0  0  0  0  0  0  0  0
  129.9070  124.1880   59.3170 C   0  0  0  0  0  0  0  0  0  0  0  0
  130.3560  123.4460   60.4150 C   0  0  0  0  0  0  0  0  0  0  0  0
  131.4470  123.9900   61.3390 C   0  0  0  0  0  0  0  0  0  0  0  0
  129.6470  126.8210   64.0630 S   0  0  0  0  0  0  0  0  0  0  0  0
  129.2250  127.4240   65.6480 C   0  0  0  0  0  0  0  0  0  0  0  0
  128.3160  128.6250   65.7940 C   0  0  0  0  0  0  0  0  0  0  0  0
  130.5800  127.7110   68.7850 C   0  0  0  0  0  0  0  0  0  0  0  0
  130.5070  127.8360   70.1720 C   0  0  0  0  0  0  0  0  0  0  0  0
  129.6040  127.0480   70.8980 C   0  0  0  0  0  0  0  0  0  0  0  0
  128.2770  129.6000   74.4030 C   0  0  0  0  0  0  0  0  0  0  0  0
  127.6080  130.8220   74.4180 C   0  0  0  0  0  0  0  0  0  0  0  0
  1  2  1  0
  2  3  2  0
  3  4  1  0
  4  5  2  0
  5  6  1  0
  6  7  2  0
  6  8  1  0
  8  9  1  0
  9 10  1  0
 10 11  1  0
 11 12  2  0
 12 13  1  0
 13 14  1  0
 14 15  1  0
 15 16  2  0
 16 17  1  0
 17 18  1  0
 18 19  2  0
 18 20  1  0
 20 21  1  0
 21 22  1  0
 22 23  1  0
 23 24  1  0
 24 25  2  0
 25 26  1  0
 26 27  2  0
 27 28  1  0
 28 29  2  0
 29 30  1  0
 16 31  1  0
 31 32  1  0
 32 33  1  0
 13 34  2  0
 34 35  1  0
 35 36  2  0
  5 37  1  0
 37 38  2  0
 38  2  1  0
 36  8  1  0
 36 11  1  0
 32 14  2  0
 30 21  1  0
 29 24  1  0
M  END
>  <Binding energies>  (45) 
[-9.88]

>  <Ligand effiencies>  (45) 
[-0.25333333333333335]

>  <Interactions>  (45) 
["V-B:TYR:539:CD2:9845, V-B:GLU:543:CD:9879, V-B:PRO:540:CA:9854, H-A:TYR:484:OH:4347, V-B:PRO:540:N:9855, H-A:GLY:454:N:4049, V-A:HIS:456:CE1:4069, V-B:TYR:539:CE2:9847, V-B:GLU:543:CB:9877, V-A:ILE:369:CD1:3238, V-B:TYR:539:C:9838, V-B:PRO:540:C:9852, V-B:ALA:541:CB:9863, V-A:GLU:543:CB:4906, V-B:HIS:456:CE1:9041, V-A:GLU:543:CD:4908, V-A:GLY:454:CA:4048, V-A:GLU:543:CG:4907, V-A:LEU:475:CD2:4258, V-B:GLU:543:C:9873, V-B:TYR:539:CZ:9848, H-A:LYS:547:NZ:4951, V-B:TYR:484:CD1:9314, V-B:HIS:456:CG:9037, V-B:TYR:484:CE1:9316, V-B:TYR:484:CG:9313, V-B:HIS:456:CB:9036, V-B:HIS:456:CD2:9039, V-B:GLY:544:C:9883, V-B:TYR:484:CB:9312, V-B:TYR:484:CD2:9315, V-B:TYR:539:CG:9843, V-B:ASP:473:CB:9210, V-B:ASP:473:CG:9211, V-B:TYR:484:CE2:9317"]

$$$$
RR21_Rahimova_2017
     RDKit          3D

 40 45  0  0  0  0  0  0  0  0999 V2000
  133.6060  123.1960   62.7160 C   0  0  0  0  0  0  0  0  0  0  0  0
  133.8560  124.3500   63.5120 O   0  0  0  0  0  0  0  0  0  0  0  0
  132.7910  125.1300   63.9230 C   0  0  0  0  0  0  0  0  0  0  0  0
  132.3850  125.2700   65.2610 C   0  0  0  0  0  0  0  0  0  0  0  0
  131.3000  126.0810   65.5930 C   0  0  0  0  0  0  0  0  0  0  0  0
  130.5970  126.7740   64.6010 C   0  0  0  0  0  0  0  0  0  0  0  0
  129.4350  127.6480   64.9600 C   0  0  0  0  0  0  0  0  0  0  0  0
  129.0320  128.5810   64.1200 N   0  0  0  0  0  0  0  0  0  0  0  0
  127.9890  129.1960   64.6980 N   0  0  0  0  0  0  0  0  0  0  0  0
  127.2960  130.2490   64.0480 C   0  0  0  0  0  0  0  0  0  0  0  0
  127.7690  131.5690   64.1140 C   0  0  0  0  0  0  0  0  0  0  0  0
  127.0830  132.5930   63.4670 C   0  0  0  0  0  0  0  0  0  0  0  0
  125.9220  132.3030   62.7530 C   0  0  0  0  0  0  0  0  0  0  0  0
  125.4400  130.9980   62.6830 C   0  0  0  0  0  0  0  0  0  0  0  0
  126.1240  129.9720   63.3290 C   0  0  0  0  0  0  0  0  0  0  0  0
  127.7230  128.6290   65.9190 C   0  0  0  0  0  0  0  0  0  0  0  0
  128.6520  127.6230   66.1370 C   0  0  0  0  0  0  0  0  0  0  0  0
  128.7440  126.7140   67.2690 C   0  0  0  0  0  0  0  0  0  0  0  0
  129.0490  127.0040   68.5550 C   0  0  0  0  0  0  0  0  0  0  0  0
  129.4430  128.5920   69.2510 S   0  0  0  0  0  0  0  0  0  0  0  0
  129.6090  127.8410   70.8320 C   0  0  0  0  0  0  0  0  0  0  0  0
  129.8940  128.4160   71.9590 N   0  0  0  0  0  0  0  0  0  0  0  0
  129.9870  127.6890   73.1780 C   0  0  0  0  0  0  0  0  0  0  0  0
  130.2310  128.1610   74.2880 O   0  0  0  0  0  0  0  0  0  0  0  0
  129.7450  126.2120   73.0250 C   0  0  0  0  0  0  0  0  0  0  0  0
  129.8390  125.3220   74.2710 C   0  0  0  0  0  0  0  0  0  0  0  0
  129.4950  123.8540   74.0220 C   0  0  0  0  0  0  0  0  0  0  0  0
  128.3120  123.5150   73.3610 C   0  0  0  0  0  0  0  0  0  0  0  0
  128.0070  122.1780   73.1200 C   0  0  0  0  0  0  0  0  0  0  0  0
  128.8860  121.1760   73.5380 C   0  0  0  0  0  0  0  0  0  0  0  0
  128.5550  119.7210   73.2620 C   0  0  0  0  0  0  0  0  0  0  0  0
  130.0750  121.5140   74.1890 C   0  0  0  0  0  0  0  0  0  0  0  0
  130.3790  122.8500   74.4300 C   0  0  0  0  0  0  0  0  0  0  0  0
  129.4680  125.6530   71.8930 N   0  0  0  0  0  0  0  0  0  0  0  0
  129.3960  126.4890   70.7720 N   0  0  0  0  0  0  0  0  0  0  0  0
  129.0900  125.9560   69.5640 C   0  0  0  0  0  0  0  0  0  0  0  0
  128.8730  124.7560   69.3580 O   0  0  0  0  0  0  0  0  0  0  0  0
  130.9970  126.6300   63.2690 C   0  0  0  0  0  0  0  0  0  0  0  0
  132.0820  125.8190   62.9340 C   0  0  0  0  0  0  0  0  0  0  0  0
  132.4440  125.7020   61.6350 F   0  0  0  0  0  0  0  0  0  0  0  0
  1  2  1  0
  2  3  1  0
  3  4  2  0
  4  5  1  0
  5  6  2  0
  6  7  1  0
  7  8  2  0
  8  9  1  0
  9 10  1  0
 10 11  2  0
 11 12  1  0
 12 13  2  0
 13 14  1  0
 14 15  2  0
  9 16  1  0
 16 17  2  0
 17 18  1  0
 18 19  2  0
 19 20  1  0
 20 21  1  0
 21 22  2  0
 22 23  1  0
 23 24  2  0
 23 25  1  0
 25 26  1  0
 26 27  1  0
 27 28  2  0
 28 29  1  0
 29 30  2  0
 30 31  1  0
 30 32  1  0
 32 33  2  0
 25 34  2  0
 34 35  1  0
 35 36  1  0
 36 37  2  0
  6 38  1  0
 38 39  2  0
 39 40  1  0
 39  3  1  0
 17  7  1  0
 36 19  1  0
 15 10  1  0
 35 21  1  0
 33 27  1  0
M  END
>  <Binding energies>  (46) 
[-8.46]

>  <Ligand effiencies>  (46) 
[-0.21150000000000002]

>  <Interactions>  (46) 
["V-B:GLU:543:CD:9879, H-A:GLY:454:N:4049, V-B:GLU:543:CG:9878, V-A:HIS:456:CE1:4069, V-B:GLU:543:CB:9877, V-A:ILE:369:CD1:3238, V-A:ARG:545:CZ:4926, V-A:GLU:543:CB:4906, V-B:HIS:456:CE1:9041, V-A:GLU:543:CD:4908, V-A:GLY:454:CA:4048, V-A:GLU:543:CG:4907, V-A:ASP:366:CG:3212, V-B:GLU:543:C:9873, V-A:HIS:456:CD2:4067, H-A:LYS:547:NZ:4951, V-B:LYS:547:CE:9921, V-A:ALA:541:CB:4892, V-B:LEU:475:CD1:9229, V-B:GLY:544:CA:9885, V-A:TYR:484:CB:4340"]

$$$$
RR23_Rahimova_2017
     RDKit          3D

 39 44  0  0  0  0  0  0  0  0999 V2000
  127.7370  132.9850   74.0370 C   0  0  0  0  0  0  0  0  0  0  0  0
  128.3100  131.5800   74.0610 C   0  0  0  0  0  0  0  0  0  0  0  0
  129.5820  131.3360   73.5420 C   0  0  0  0  0  0  0  0  0  0  0  0
  130.1110  130.0470   73.5730 C   0  0  0  0  0  0  0  0  0  0  0  0
  129.3670  128.9920   74.1130 C   0  0  0  0  0  0  0  0  0  0  0  0
  129.9670  127.6050   74.1560 C   0  0  0  0  0  0  0  0  0  0  0  0
  130.7360  127.3430   75.0840 O   0  0  0  0  0  0  0  0  0  0  0  0
  129.6320  126.6990   73.1890 N   0  0  0  0  0  0  0  0  0  0  0  0
  129.1120  125.3650   73.5310 C   0  0  0  0  0  0  0  0  0  0  0  0
  128.7180  124.7100   72.2180 C   0  0  0  0  0  0  0  0  0  0  0  0
  128.6940  125.8650   71.2630 C   0  0  0  0  0  0  0  0  0  0  0  0
  128.3130  125.8870   69.9210 C   0  0  0  0  0  0  0  0  0  0  0  0
  128.5140  127.0400   69.1460 C   0  0  0  0  0  0  0  0  0  0  0  0
  128.1090  127.1080   67.6660 C   0  0  2  0  0  0  0  0  0  0  0  0
  129.1600  126.6380   66.7900 N   0  0  0  0  0  0  0  0  0  0  0  0
  129.1530  127.2450   65.6720 C   0  0  0  0  0  0  0  0  0  0  0  0
  130.0050  127.0840   64.6240 N   0  0  0  0  0  0  0  0  0  0  0  0
  131.1410  126.3470   64.5680 C   0  0  0  0  0  0  0  0  0  0  0  0
  131.5840  125.6430   65.4790 O   0  0  0  0  0  0  0  0  0  0  0  0
  131.9170  126.4250   63.2430 C   0  0  0  0  0  0  0  0  0  0  0  0
  132.0370  125.0650   62.6710 N   0  0  0  0  0  0  0  0  0  0  0  0
  131.0450  124.7100   61.7650 N   0  0  0  0  0  0  0  0  0  0  0  0
  131.0360  123.5470   61.1950 N   0  0  0  0  0  0  0  0  0  0  0  0
  132.0410  122.6220   61.4870 C   0  0  0  0  0  0  0  0  0  0  0  0
  132.0000  121.3760   60.8560 C   0  0  0  0  0  0  0  0  0  0  0  0
  132.9900  120.4310   61.1280 C   0  0  0  0  0  0  0  0  0  0  0  0
  134.0160  120.7270   62.0280 C   0  0  0  0  0  0  0  0  0  0  0  0
  134.0580  121.9710   62.6600 C   0  0  0  0  0  0  0  0  0  0  0  0
  133.0670  122.9200   62.3860 C   0  0  0  0  0  0  0  0  0  0  0  0
  133.0920  124.2710   63.0620 C   0  0  0  0  0  0  0  0  0  0  0  0
  133.9520  124.6140   63.8780 O   0  0  0  0  0  0  0  0  0  0  0  0
  127.8840  128.4810   65.4300 S   0  0  0  0  0  0  0  0  0  0  0  0
  127.5980  128.4940   67.2080 C   0  0  2  0  0  0  0  0  0  0  0  0
  128.2970  129.7260   67.8210 C   0  0  0  0  0  0  0  0  0  0  0  0
  129.1460  128.1440   69.7300 C   0  0  0  0  0  0  0  0  0  0  0  0
  129.5460  128.1140   71.0660 C   0  0  0  0  0  0  0  0  0  0  0  0
  129.2690  126.9900   71.8550 C   0  0  0  0  0  0  0  0  0  0  0  0
  128.1020  129.2500   74.6570 C   0  0  0  0  0  0  0  0  0  0  0  0
  127.5750  130.5380   74.6270 C   0  0  0  0  0  0  0  0  0  0  0  0
  1  2  1  0
  2  3  2  0
  3  4  1  0
  4  5  2  0
  5  6  1  0
  6  7  2  0
  6  8  1  0
  8  9  1  0
  9 10  1  0
 10 11  1  0
 11 12  2  0
 12 13  1  0
 14 13  1  1
 14 15  1  0
 15 16  2  0
 16 17  1  0
 17 18  1  0
 18 19  2  0
 18 20  1  0
 20 21  1  0
 21 22  1  0
 22 23  2  0
 23 24  1  0
 24 25  2  0
 25 26  1  0
 26 27  2  0
 27 28  1  0
 28 29  2  0
 29 30  1  0
 30 31  2  0
 16 32  1  0
 32 33  1  0
 33 34  1  1
 13 35  2  0
 35 36  1  0
 36 37  2  0
  5 38  1  0
 38 39  2  0
 39  2  1  0
 37  8  1  0
 37 11  1  0
 33 14  1  0
 30 21  1  0
 29 24  1  0
M  END
>  <Binding energies>  (47) 
[-9.12]

>  <Ligand effiencies>  (47) 
[-0.22799999999999998]

>  <Interactions>  (47) 
["V-B:TYR:539:CD2:9845, V-B:GLU:543:CD:9879, H-A:TYR:484:OH:4347, H-A:GLY:454:N:4049, V-B:GLU:543:CG:9878, V-A:HIS:456:CE1:4069, V-B:TYR:539:CE2:9847, V-B:GLU:543:CB:9877, V-A:ILE:369:CD1:3238, V-A:ARG:545:CZ:4926, V-A:GLU:543:CB:4906, V-B:HIS:456:CE1:9041, V-A:GLU:543:CD:4908, V-A:GLY:454:CA:4048, V-A:GLU:543:CG:4907, V-A:LEU:475:CD2:4258, H-A:GLU:543:OE2:4910, V-B:GLU:543:C:9873, H-A:GLU:543:OE1:4909, V-A:TRP:381:CH2:3371, V-A:ILE:369:CG2:3236, V-A:HIS:456:CD2:4067, H-A:LYS:547:NZ:4951, V-B:HIS:456:CG:9037, V-B:TYR:484:CE1:9316, V-B:TYR:484:CG:9313, V-B:LYS:547:CE:9921, V-B:HIS:456:CB:9036, V-B:HIS:456:CD2:9039, V-A:LYS:547:CE:4950, V-B:TYR:484:CB:9312, V-B:ASP:473:CB:9210, V-B:ASP:473:CG:9211"]

$$$$
RR26_Rahimova_2017
     RDKit          3D

 38 44  0  0  0  0  0  0  0  0999 V2000
  130.1190  121.0960   61.3000 C   0  0  0  0  0  0  0  0  0  0  0  0
  131.6110  120.9390   61.5700 C   0  0  0  0  0  0  0  0  0  0  0  0
  132.3120  119.9560   60.8640 C   0  0  0  0  0  0  0  0  0  0  0  0
  133.6840  119.7950   61.0410 C   0  0  0  0  0  0  0  0  0  0  0  0
  134.3710  120.6230   61.9240 C   0  0  0  0  0  0  0  0  0  0  0  0
  133.6840  121.6070   62.6330 C   0  0  0  0  0  0  0  0  0  0  0  0
  132.3000  121.7780   62.4740 C   0  0  0  0  0  0  0  0  0  0  0  0
  131.6340  122.8500   63.2870 C   0  0  0  0  0  0  0  0  0  0  0  0
  131.4260  124.0760   62.8130 N   0  0  0  0  0  0  0  0  0  0  0  0
  130.8280  124.6560   63.8180 C   0  0  0  0  0  0  0  0  0  0  0  0
  130.1930  126.2270   64.1400 S   0  0  0  0  0  0  0  0  0  0  0  0
  129.6970  125.6650   65.7800 C   0  0  0  0  0  0  0  0  0  0  0  0
  129.0770  126.3780   66.7470 C   0  0  0  0  0  0  0  0  0  0  0  0
  128.6530  127.7680   66.7030 C   0  0  0  0  0  0  0  0  0  0  0  0
  128.1170  128.4670   65.6330 C   0  0  0  0  0  0  0  0  0  0  0  0
  127.8260  129.7370   66.0610 N   0  0  0  0  0  0  0  0  0  0  0  0
  127.2570  130.8050   65.3190 C   0  0  0  0  0  0  0  0  0  0  0  0
  125.9660  130.6980   64.7820 C   0  0  0  0  0  0  0  0  0  0  0  0
  125.4210  131.7520   64.0530 C   0  0  0  0  0  0  0  0  0  0  0  0
  126.1620  132.9150   63.8610 C   0  0  0  0  0  0  0  0  0  0  0  0
  127.4450  133.0350   64.3920 C   0  0  0  0  0  0  0  0  0  0  0  0
  127.9930  131.9820   65.1190 C   0  0  0  0  0  0  0  0  0  0  0  0
  128.1260  129.8700   67.3620 N   0  0  0  0  0  0  0  0  0  0  0  0
  128.6220  128.7130   67.7540 C   0  0  0  0  0  0  0  0  0  0  0  0
  129.0700  128.5360   69.1720 C   0  0  0  0  0  0  0  0  0  0  0  0
  129.5240  129.6360   69.9160 C   0  0  0  0  0  0  0  0  0  0  0  0
  129.9470  129.4800   71.2370 C   0  0  0  0  0  0  0  0  0  0  0  0
  129.9190  128.2180   71.8260 C   0  0  0  0  0  0  0  0  0  0  0  0
  129.4490  127.1140   71.1000 C   0  0  0  0  0  0  0  0  0  0  0  0
  129.0330  127.2710   69.7780 C   0  0  0  0  0  0  0  0  0  0  0  0
  129.4440  125.8380   71.6280 O   0  0  0  0  0  0  0  0  0  0  0  0
  129.5230  125.7960   73.0560 C   0  0  0  0  0  0  0  0  0  0  0  0
  130.6000  126.7820   73.5710 C   0  0  0  0  0  0  0  0  0  0  0  0
  130.3000  128.1170   73.1500 O   0  0  0  0  0  0  0  0  0  0  0  0
  130.0520  124.2690   66.0200 C   0  0  0  0  0  0  0  0  0  0  0  0
  129.8660  123.5810   67.0250 O   0  0  0  0  0  0  0  0  0  0  0  0
  130.6790  123.8080   64.8520 N   0  0  0  0  0  0  0  0  0  0  0  0
  131.1970  122.6240   64.5160 N   0  0  0  0  0  0  0  0  0  0  0  0
  1  2  1  0
  2  3  2  0
  3  4  1  0
  4  5  2  0
  5  6  1  0
  6  7  2  0
  7  8  1  0
  8  9  1  0
  9 10  2  0
 10 11  1  0
 11 12  1  0
 12 13  2  0
 13 14  1  0
 14 15  2  0
 15 16  1  0
 16 17  1  0
 17 18  2  0
 18 19  1  0
 19 20  2  0
 20 21  1  0
 21 22  2  0
 16 23  1  0
 23 24  2  0
 24 25  1  0
 25 26  2  0
 26 27  1  0
 27 28  2  0
 28 29  1  0
 29 30  2  0
 29 31  1  0
 31 32  1  0
 32 33  1  0
 33 34  1  0
 12 35  1  0
 35 36  2  0
 35 37  1  0
 37 38  1  0
  7  2  1  0
 38  8  2  0
 37 10  1  0
 24 14  1  0
 30 25  1  0
 22 17  1  0
 34 28  1  0
M  END
>  <Binding energies>  (48) 
[-8.56]

>  <Ligand effiencies>  (48) 
[-0.22526315789473686]

>  <Interactions>  (48) 
["V-B:TYR:539:CD2:9845, V-B:GLU:543:CD:9879, H-A:TYR:484:OH:4347, V-B:GLU:543:CG:9878, V-A:HIS:456:CE1:4069, V-B:GLU:543:CB:9877, V-A:ILE:369:CD1:3238, V-B:ALA:541:CB:9863, V-A:GLU:543:CB:4906, V-A:TYR:484:CE1:4344, V-B:HIS:456:CE1:9041, V-A:GLU:543:CD:4908, V-A:GLY:454:CA:4048, V-A:GLU:543:CG:4907, V-A:LEU:475:CD2:4258, V-A:TYR:484:CZ:4346, V-A:GLU:543:C:4902, V-A:TRP:381:CH2:3371, V-A:ILE:369:CG2:3236, V-A:TRP:381:CZ2:3369, V-A:HIS:456:CD2:4067, H-A:LYS:547:NZ:4951, V-A:ALA:541:CB:4892, V-A:GLU:543:CA:4904, V-A:ILE:369:CG1:3237, H-B:TYR:484:OH:9319, V-B:LEU:475:CD1:9229, V-A:SER:385:C:3404"]

$$$$
RR2_Rahimova_2017
     RDKit          3D

 46 50  0  0  0  0  0  0  0  0999 V2000
  128.0310  134.0870   61.2460 C   0  0  0  0  0  0  0  0  0  0  0  0
  129.3910  133.6960   61.3930 O   0  0  0  0  0  0  0  0  0  0  0  0
  129.6960  132.3530   61.5180 C   0  0  0  0  0  0  0  0  0  0  0  0
  129.1190  131.4950   62.4630 C   0  0  0  0  0  0  0  0  0  0  0  0
  129.4920  130.1550   62.5170 C   0  0  0  0  0  0  0  0  0  0  0  0
  130.4510  129.6420   61.6310 C   0  0  0  0  0  0  0  0  0  0  0  0
  130.8450  128.1810   61.7150 C   0  0  0  0  0  0  0  0  0  0  0  0
  130.5120  127.5000   62.6910 O   0  0  0  0  0  0  0  0  0  0  0  0
  131.5750  127.7060   60.6790 N   0  0  0  0  0  0  0  0  0  0  0  0
  132.0410  126.3980   60.7490 N   0  0  0  0  0  0  0  0  0  0  0  0
  131.5080  125.4850   59.9120 C   0  0  0  0  0  0  0  0  0  0  0  0
  130.5120  125.6710   59.2070 O   0  0  0  0  0  0  0  0  0  0  0  0
  132.2420  124.1380   59.8480 C   0  0  0  0  0  0  0  0  0  0  0  0
  133.9130  124.1310   60.5940 S   0  0  0  0  0  0  0  0  0  0  0  0
  133.5270  124.5520   62.2660 C   0  0  0  0  0  0  0  0  0  0  0  0
  134.4020  125.0650   63.0930 N   0  0  0  0  0  0  0  0  0  0  0  0
  133.7810  125.1990   64.3270 N   0  0  0  0  0  0  0  0  0  0  0  0
  132.5420  124.7890   64.1910 C   0  0  0  0  0  0  0  0  0  0  0  0
  131.5470  124.7970   65.3060 C   0  0  0  0  0  0  0  0  0  0  0  0
  130.6100  123.7660   65.4080 C   0  0  0  0  0  0  0  0  0  0  0  0
  129.6750  123.7680   66.4390 C   0  0  0  0  0  0  0  0  0  0  0  0
  129.6780  124.7960   67.3880 C   0  0  0  0  0  0  0  0  0  0  0  0
  128.7530  124.8560   68.4420 N   0  0  0  0  0  0  0  0  0  0  0  0
  128.1690  126.3580   69.1920 S   0  0  0  0  0  0  0  0  0  0  0  0
  126.7310  126.1650   69.4150 O   0  0  0  0  0  0  0  0  0  0  0  0
  128.6620  127.4870   68.3940 O   0  0  0  0  0  0  0  0  0  0  0  0
  128.9410  126.4050   70.8080 C   0  0  0  0  0  0  0  0  0  0  0  0
  128.6330  125.4420   71.7710 C   0  0  0  0  0  0  0  0  0  0  0  0
  129.2320  125.5060   73.0270 C   0  0  0  0  0  0  0  0  0  0  0  0
  130.1410  126.5270   73.3160 C   0  0  0  0  0  0  0  0  0  0  0  0
  130.7810  126.6040   74.6900 C   0  0  0  0  0  0  0  0  0  0  0  0
  130.4430  127.4910   72.3510 C   0  0  0  0  0  0  0  0  0  0  0  0
  129.8440  127.4290   71.0960 C   0  0  0  0  0  0  0  0  0  0  0  0
  130.6160  125.8240   67.2870 C   0  0  0  0  0  0  0  0  0  0  0  0
  131.5480  125.8250   66.2530 C   0  0  0  0  0  0  0  0  0  0  0  0
  132.3110  124.3560   62.8960 N   0  0  0  0  0  0  0  0  0  0  0  0
  131.1330  123.8030   62.3530 C   0  0  0  0  0  0  0  0  0  0  0  0
  129.9880  124.5900   62.2260 C   0  0  0  0  0  0  0  0  0  0  0  0
  128.8300  124.0390   61.6850 C   0  0  0  0  0  0  0  0  0  0  0  0
  128.8040  122.7060   61.2700 C   0  0  0  0  0  0  0  0  0  0  0  0
  127.6090  122.2490   60.7470 O   0  0  0  0  0  0  0  0  0  0  0  0
  127.0290  122.9310   59.6400 C   0  0  0  0  0  0  0  0  0  0  0  0
  129.9610  121.9220   61.4010 C   0  0  0  0  0  0  0  0  0  0  0  0
  131.1220  122.4680   61.9400 C   0  0  0  0  0  0  0  0  0  0  0  0
  131.0200  130.5070   60.6830 C   0  0  0  0  0  0  0  0  0  0  0  0
  130.6440  131.8460   60.6310 C   0  0  0  0  0  0  0  0  0  0  0  0
  1  2  1  0
  2  3  1  0
  3  4  2  0
  4  5  1  0
  5  6  2  0
  6  7  1  0
  7  8  2  0
  7  9  1  0
  9 10  1  0
 10 11  1  0
 11 12  2  0
 11 13  1  0
 13 14  1  0
 14 15  1  0
 15 16  2  0
 16 17  1  0
 17 18  2  0
 18 19  1  0
 19 20  2  0
 20 21  1  0
 21 22  2  0
 22 23  1  0
 23 24  1  0
 24 25  2  0
 24 26  2  0
 24 27  1  0
 27 28  2  0
 28 29  1  0
 29 30  2  0
 30 31  1  0
 30 32  1  0
 32 33  2  0
 22 34  1  0
 34 35  2  0
 18 36  1  0
 36 37  1  0
 37 38  2  0
 38 39  1  0
 39 40  2  0
 40 41  1  0
 41 42  1  0
 40 43  1  0
 43 44  2  0
  6 45  1  0
 45 46  2  0
 46  3  1  0
 36 15  1  0
 44 37  1  0
 35 19  1  0
 33 27  1  0
M  END
>  <Binding energies>  (49) 
[-9.1]

>  <Ligand effiencies>  (49) 
[-0.18571428571428572]

>  <Interactions>  (49) 
["V-B:GLU:543:CD:9879, V-B:PRO:540:CA:9854, V-B:PRO:540:N:9855, H-A:GLY:454:N:4049, V-B:GLU:543:CG:9878, V-A:HIS:456:CE1:4069, H-A:ARG:545:NH1:4927, V-B:TYR:539:CE2:9847, V-B:GLU:543:CB:9877, V-A:ILE:369:CD1:3238, V-B:PRO:540:C:9852, V-B:ALA:541:CB:9863, V-A:TYR:484:CE1:4344, V-B:HIS:456:CE1:9041, V-A:GLU:543:CD:4908, H-A:ARG:545:NH2:4928, V-A:ASP:366:CG:3212, V-A:TYR:484:CZ:4346, V-B:GLU:543:C:9873, V-B:GLU:543:CA:9875, V-A:ILE:369:CG2:3236, V-A:HIS:456:CD2:4067, H-B:ALA:541:N:9862, H-A:ASP:366:OD1:3213, V-A:ASP:366:CB:3211, V-B:PRO:540:CB:9856, H-A:ASP:366:OD2:3214, V-A:ALA:541:CB:4892, H-A:ALA:541:N:4891, H-A:HIS:456:NE2:4070, H-B:GLU:543:O:9874, V-A:PRO:540:CA:4883, V-A:TYR:539:CD2:4874, V-A:LYS:547:CE:4950, H-B:ARG:545:N:9891"]

$$$$
RR33_Rahimova_2017
     RDKit          3D

 18 19  0  0  0  0  0  0  0  0999 V2000
  129.4640  123.5480   73.9330 C   0  0  0  0  0  0  0  0  0  0  0  0
  129.7890  125.0190   74.2080 C   0  0  0  0  0  0  0  0  0  0  0  0
  128.7570  125.8280   73.6510 O   0  0  0  0  0  0  0  0  0  0  0  0
  128.8220  126.1860   72.3180 C   0  0  0  0  0  0  0  0  0  0  0  0
  127.9830  125.4930   71.4470 C   0  0  0  0  0  0  0  0  0  0  0  0
  127.9800  125.7830   70.0850 C   0  0  0  0  0  0  0  0  0  0  0  0
  128.8220  126.7750   69.5730 C   0  0  0  0  0  0  0  0  0  0  0  0
  128.8190  127.0850   68.1110 C   0  0  0  0  0  0  0  0  0  0  0  0
  128.0110  127.8940   67.4630 N   0  0  0  0  0  0  0  0  0  0  0  0
  128.4000  127.8380   66.1980 C   0  0  0  0  0  0  0  0  0  0  0  0
  127.7030  128.6580   65.1340 C   0  0  0  0  0  0  0  0  0  0  0  0
  126.3390  128.9700   65.5360 N   0  0  0  0  0  0  0  0  0  0  0  0
  126.1880  130.3960   65.7720 C   0  0  0  0  0  0  0  0  0  0  0  0
  129.4760  126.9680   66.0790 C   0  0  0  0  0  0  0  0  0  0  0  0
  130.3490  126.4900   64.9450 C   0  0  0  0  0  0  0  0  0  0  0  0
  129.7420  126.4850   67.3140 O   0  0  0  0  0  0  0  0  0  0  0  0
  129.6620  127.4760   70.4440 C   0  0  0  0  0  0  0  0  0  0  0  0
  129.6650  127.1850   71.8070 C   0  0  0  0  0  0  0  0  0  0  0  0
  1  2  1  0
  2  3  1  0
  3  4  1  0
  4  5  2  0
  5  6  1  0
  6  7  2  0
  7  8  1  0
  8  9  2  0
  9 10  1  0
 10 11  1  0
 11 12  1  0
 12 13  1  0
 10 14  2  0
 14 15  1  0
 14 16  1  0
  7 17  1  0
 17 18  2  0
 18  4  1  0
 16  8  1  0
M  END
>  <Binding energies>  (50) 
[-4.64]

>  <Ligand effiencies>  (50) 
[-0.24421052631578946]

>  <Interactions>  (50) 
["V-B:GLU:543:CD:9879, V-A:HIS:456:CE1:4069, V-B:GLU:543:CB:9877, V-B:HIS:456:CE1:9041, V-A:GLU:543:CD:4908, V-A:GLU:543:CG:4907, V-B:GLU:543:C:9873, V-A:HIS:456:CD2:4067, H-B:GLU:543:OE2:9881, H-B:LYS:547:NZ:9922, V-B:LYS:547:CE:9921, H-B:GLU:543:OE1:9880, V-B:GLY:544:C:9883"]

$$$$
RR3_Rahimova_2017
     RDKit          3D

 38 44  0  0  0  0  0  0  0  0999 V2000
  130.9660  119.0980   60.8960 C   0  0  0  0  0  0  0  0  0  0  0  0
  132.0310  119.9640   60.6740 C   0  0  0  0  0  0  0  0  0  0  0  0
  131.8540  121.3340   60.8450 C   0  0  0  0  0  0  0  0  0  0  0  0
  130.6130  121.8560   61.2390 C   0  0  0  0  0  0  0  0  0  0  0  0
  130.4230  123.3290   61.4230 C   0  0  0  0  0  0  0  0  0  0  0  0
  129.3060  123.8330   62.1030 C   0  0  0  0  0  0  0  0  0  0  0  0
  129.1290  125.2030   62.2710 C   0  0  0  0  0  0  0  0  0  0  0  0
  130.0640  126.1040   61.7550 C   0  0  0  0  0  0  0  0  0  0  0  0
  129.8770  127.5790   61.9270 C   0  0  0  0  0  0  0  0  0  0  0  0
  129.9820  128.3890   60.8790 N   0  0  0  0  0  0  0  0  0  0  0  0
  129.7280  129.6000   61.3150 C   0  0  0  0  0  0  0  0  0  0  0  0
  129.7330  130.8080   60.4940 C   0  0  0  0  0  0  0  0  0  0  0  0
  128.9960  131.9540   60.7350 C   0  0  0  0  0  0  0  0  0  0  0  0
  129.2510  132.8930   59.7690 N   0  0  0  0  0  0  0  0  0  0  0  0
  130.1590  132.3960   58.8610 C   0  0  0  0  0  0  0  0  0  0  0  0
  130.7180  132.9760   57.7170 C   0  0  0  0  0  0  0  0  0  0  0  0
  131.6250  132.2030   56.9930 C   0  0  0  0  0  0  0  0  0  0  0  0
  131.9630  130.9110   57.3840 C   0  0  0  0  0  0  0  0  0  0  0  0
  131.4070  130.3330   58.5230 C   0  0  0  0  0  0  0  0  0  0  0  0
  130.4870  131.0710   59.2900 C   0  0  0  0  0  0  0  0  0  0  0  0
  129.4610  129.5910   62.6560 N   0  0  0  0  0  0  0  0  0  0  0  0
  129.5710  128.2970   63.0960 C   0  0  0  0  0  0  0  0  0  0  0  0
  129.4040  127.9110   64.5290 C   0  0  0  0  0  0  0  0  0  0  0  0
  128.5070  128.6050   65.3410 C   0  0  0  0  0  0  0  0  0  0  0  0
  128.3590  128.2570   66.6800 C   0  0  0  0  0  0  0  0  0  0  0  0
  129.0990  127.2040   67.2370 C   0  0  0  0  0  0  0  0  0  0  0  0
  128.9520  126.8450   68.6820 C   0  0  0  0  0  0  0  0  0  0  0  0
  129.7450  127.4620   69.6620 C   0  0  0  0  0  0  0  0  0  0  0  0
  129.6040  127.1300   71.0070 C   0  0  0  0  0  0  0  0  0  0  0  0
  128.6650  126.1760   71.3880 C   0  0  0  0  0  0  0  0  0  0  0  0
  127.8680  125.5530   70.4340 C   0  0  0  0  0  0  0  0  0  0  0  0
  128.0120  125.8860   69.0900 C   0  0  0  0  0  0  0  0  0  0  0  0
  129.9840  126.5030   66.4060 C   0  0  0  0  0  0  0  0  0  0  0  0
  130.1350  126.8490   65.0660 C   0  0  0  0  0  0  0  0  0  0  0  0
  131.1870  125.6120   61.0870 C   0  0  0  0  0  0  0  0  0  0  0  0
  131.3620  124.2410   60.9200 C   0  0  0  0  0  0  0  0  0  0  0  0
  129.5520  120.9640   61.4560 C   0  0  0  0  0  0  0  0  0  0  0  0
  129.7260  119.5930   61.2870 C   0  0  0  0  0  0  0  0  0  0  0  0
  1  2  2  0
  2  3  1  0
  3  4  2  0
  4  5  1  0
  5  6  2  0
  6  7  1  0
  7  8  2  0
  8  9  1  0
  9 10  1  0
 10 11  2  0
 11 12  1  0
 12 13  2  0
 13 14  1  0
 14 15  1  0
 15 16  2  0
 16 17  1  0
 17 18  2  0
 18 19  1  0
 19 20  2  0
 11 21  1  0
 21 22  1  0
 22 23  1  0
 23 24  2  0
 24 25  1  0
 25 26  2  0
 26 27  1  0
 27 28  2  0
 28 29  1  0
 29 30  2  0
 30 31  1  0
 31 32  2  0
 26 33  1  0
 33 34  2  0
  8 35  1  0
 35 36  2  0
  4 37  1  0
 37 38  2  0
 38  1  1  0
 36  5  1  0
 22  9  2  0
 34 23  1  0
 20 12  1  0
 32 27  1  0
 20 15  1  0
M  END
>  <Binding energies>  (51) 
[-9.05]

>  <Ligand effiencies>  (51) 
[-0.22625]

>  <Interactions>  (51) 
["V-B:TYR:539:CD2:9845, V-B:GLU:543:CD:9879, V-B:GLU:543:CG:9878, V-A:HIS:456:CE1:4069, V-B:TYR:539:CE2:9847, V-B:GLU:543:CB:9877, V-B:ALA:541:CB:9863, V-B:HIS:456:CE1:9041, V-A:GLU:543:CD:4908, V-A:GLU:543:CG:4907, V-A:LEU:475:CD2:4258, V-B:GLU:543:C:9873, H-A:GLU:543:OE1:4909, V-B:GLU:543:CA:9875, V-A:PRO:482:CB:4325, V-A:TRP:381:CH2:3371, V-B:ALA:541:CA:9861, V-A:ILE:369:CG2:3236, V-A:PRO:482:CG:4326, V-A:TRP:381:CZ2:3369, V-B:GLY:544:C:9883, V-A:TYR:539:C:4867, V-A:PRO:540:CA:4883, V-A:PRO:540:N:4884, V-A:TRP:381:CZ3:3370, V-A:TYR:531:CE2:4793, V-A:LEU:363:CD1:3188, V-A:PRO:540:CD:4887, H-A:TYR:539:O:4868"]

$$$$
RR4_Rahimova_2017
     RDKit          3D

 40 44  0  0  0  0  0  0  0  0999 V2000
  129.2470  128.6090   74.4000 C   0  0  0  0  0  0  0  0  0  0  0  0
  130.3260  128.1010   73.6240 O   0  0  0  0  0  0  0  0  0  0  0  0
  130.1310  127.8510   72.2800 C   0  0  0  0  0  0  0  0  0  0  0  0
  130.8850  128.6080   71.3870 C   0  0  0  0  0  0  0  0  0  0  0  0
  130.7560  128.4250   70.0140 C   0  0  0  0  0  0  0  0  0  0  0  0
  129.8620  127.4780   69.4910 C   0  0  0  0  0  0  0  0  0  0  0  0
  129.7240  127.2830   68.0080 C   0  0  0  0  0  0  0  0  0  0  0  0
  130.4860  126.3540   67.2920 C   0  0  0  0  0  0  0  0  0  0  0  0
  130.3170  126.2070   65.9090 C   0  0  0  0  0  0  0  0  0  0  0  0
  131.1450  125.1750   65.2160 C   0  0  0  0  0  0  0  0  0  0  0  0
  132.4420  125.4840   64.7930 C   0  0  0  0  0  0  0  0  0  0  0  0
  133.2250  124.5250   64.1560 C   0  0  0  0  0  0  0  0  0  0  0  0
  132.7320  123.2390   63.9360 C   0  0  0  0  0  0  0  0  0  0  0  0
  133.5810  122.3550   63.2990 O   0  0  0  0  0  0  0  0  0  0  0  0
  133.2040  121.8200   62.0330 C   0  0  0  0  0  0  0  0  0  0  0  0
  131.4340  122.9230   64.3640 C   0  0  0  0  0  0  0  0  0  0  0  0
  130.6520  123.8840   65.0000 C   0  0  0  0  0  0  0  0  0  0  0  0
  129.3780  127.0390   65.2510 C   0  0  0  0  0  0  0  0  0  0  0  0
  129.1610  126.9250   63.8060 C   0  0  0  0  0  0  0  0  0  0  0  0
  128.9890  126.8360   62.6650 N   0  0  0  0  0  0  0  0  0  0  0  0
  128.6630  127.9760   66.0320 C   0  0  0  0  0  0  0  0  0  0  0  0
  127.4570  129.1080   65.3740 S   0  0  0  0  0  0  0  0  0  0  0  0
  128.3440  130.5950   64.8000 C   0  0  0  0  0  0  0  0  0  0  0  0
  128.3500  130.7840   63.2770 C   0  0  0  0  0  0  0  0  0  0  0  0
  127.3590  130.4880   62.6050 O   0  0  0  0  0  0  0  0  0  0  0  0
  129.5060  131.2730   62.7720 N   0  0  0  0  0  0  0  0  0  0  0  0
  129.8210  131.5570   61.4400 C   0  0  0  0  0  0  0  0  0  0  0  0
  128.6100  131.8190   60.2140 S   0  0  0  0  0  0  0  0  0  0  0  0
  129.8200  132.0700   58.9930 C   0  0  0  0  0  0  0  0  0  0  0  0
  131.1160  131.9500   59.5190 C   0  0  0  0  0  0  0  0  0  0  0  0
  131.1140  131.6750   60.9080 C   0  0  0  0  0  0  0  0  0  0  0  0
  132.3320  131.5230   61.6990 C   0  0  0  0  0  0  0  0  0  0  0  0
  133.2980  131.4020   62.3250 N   0  0  0  0  0  0  0  0  0  0  0  0
  132.3580  132.1670   58.6470 C   0  0  0  0  0  0  0  0  0  0  0  0
  131.9840  132.8900   57.3340 C   0  0  0  0  0  0  0  0  0  0  0  0
  130.7330  132.2840   56.6740 C   0  0  0  0  0  0  0  0  0  0  0  0
  129.4780  132.4430   57.5570 C   0  0  0  0  0  0  0  0  0  0  0  0
  128.8240  128.0760   67.3730 N   0  0  0  0  0  0  0  0  0  0  0  0
  129.1090  126.7170   70.3990 C   0  0  0  0  0  0  0  0  0  0  0  0
  129.2360  126.8980   71.7730 C   0  0  0  0  0  0  0  0  0  0  0  0
  1  2  1  0
  2  3  1  0
  3  4  2  0
  4  5  1  0
  5  6  2  0
  6  7  1  0
  7  8  2  0
  8  9  1  0
  9 10  1  0
 10 11  2  0
 11 12  1  0
 12 13  2  0
 13 14  1  0
 14 15  1  0
 13 16  1  0
 16 17  2  0
  9 18  2  0
 18 19  1  0
 19 20  3  0
 18 21  1  0
 21 22  1  0
 22 23  1  0
 23 24  1  0
 24 25  2  0
 24 26  1  0
 26 27  1  0
 27 28  1  0
 28 29  1  0
 29 30  2  0
 30 31  1  0
 31 32  1  0
 32 33  3  0
 30 34  1  0
 34 35  1  0
 35 36  1  0
 36 37  1  0
 21 38  2  0
  6 39  1  0
 39 40  2  0
 40  3  1  0
 38  7  1  0
 17 10  1  0
 31 27  2  0
 37 29  1  0
M  END
>  <Binding energies>  (52) 
[-10.45]

>  <Ligand effiencies>  (52) 
[-0.2548780487804878]

>  <Interactions>  (52) 
["V-B:GLU:543:CD:9879, H-A:GLY:454:N:4049, V-A:HIS:456:CE1:4069, V-A:ILE:369:CD1:3238, V-A:ARG:545:CZ:4926, V-A:GLU:543:CB:4906, V-B:HIS:456:CE1:9041, V-A:GLU:543:CD:4908, H-A:ARG:545:NH2:4928, V-A:GLY:454:CA:4048, V-A:GLU:543:CG:4907, V-A:LEU:475:CD2:4258, H-A:GLU:543:OE1:4909, V-A:ILE:369:CG2:3236, H-A:LYS:547:NZ:4951, V-A:TYR:539:C:4867, V-A:PRO:540:CA:4883, V-A:LYS:547:CE:4950, V-A:PRO:540:N:4884, V-A:PRO:540:CB:4885, V-A:LEU:363:CD1:3188, V-A:PRO:540:CD:4887"]

$$$$
RR6_Rahimova_2017
     RDKit          3D

 38 41  0  0  0  0  0  0  0  0999 V2000
  132.7810  119.8830   60.4540 C   0  0  0  0  0  0  0  0  0  0  0  0
  131.8360  120.9410   60.3690 O   0  0  0  0  0  0  0  0  0  0  0  0
  130.5290  120.7360   60.6730 C   0  0  0  0  0  0  0  0  0  0  0  0
  129.9800  119.6310   60.6070 O   0  0  0  0  0  0  0  0  0  0  0  0
  129.8150  121.9870   61.1000 C   0  0  0  0  0  0  0  0  0  0  0  0
  128.4220  122.0330   61.2510 C   0  0  0  0  0  0  0  0  0  0  0  0
  127.7880  123.2110   61.6410 C   0  0  0  0  0  0  0  0  0  0  0  0
  128.5430  124.3680   61.8820 C   0  0  0  0  0  0  0  0  0  0  0  0
  128.0040  125.6150   62.2510 N   0  0  0  0  0  0  0  0  0  0  0  0
  128.5710  126.8400   62.2040 C   0  0  0  0  0  0  0  0  0  0  0  0
  129.7080  127.0860   61.8000 O   0  0  0  0  0  0  0  0  0  0  0  0
  127.7210  127.9850   62.7650 C   0  0  0  0  0  0  0  0  0  0  0  0
  128.5120  128.8790   64.1450 S   0  0  0  0  0  0  0  0  0  0  0  0
  129.0890  127.6450   65.2920 C   0  0  0  0  0  0  0  0  0  0  0  0
  129.8400  126.6680   64.7290 N   0  0  0  0  0  0  0  0  0  0  0  0
  130.3610  125.6870   65.5080 C   0  0  0  0  0  0  0  0  0  0  0  0
  131.2310  124.6780   64.8170 C   0  0  0  0  0  0  0  0  0  0  0  0
  130.9360  123.3070   64.8770 C   0  0  0  0  0  0  0  0  0  0  0  0
  131.7510  122.3710   64.2470 C   0  0  0  0  0  0  0  0  0  0  0  0
  132.8770  122.7890   63.5390 C   0  0  0  0  0  0  0  0  0  0  0  0
  133.7670  121.7640   62.8620 C   0  0  0  0  0  0  0  0  0  0  0  0
  133.1860  124.1450   63.4660 C   0  0  0  0  0  0  0  0  0  0  0  0
  132.3680  125.0770   64.0960 C   0  0  0  0  0  0  0  0  0  0  0  0
  130.1210  125.6640   66.8860 C   0  0  0  0  0  0  0  0  0  0  0  0
  129.3430  126.6610   67.4910 C   0  0  0  0  0  0  0  0  0  0  0  0
  129.1430  126.5870   68.9690 C   0  0  0  0  0  0  0  0  0  0  0  0
  128.3570  125.5700   69.5210 C   0  0  0  0  0  0  0  0  0  0  0  0
  128.1780  125.4830   70.8990 C   0  0  0  0  0  0  0  0  0  0  0  0
  128.7840  126.4050   71.7510 C   0  0  0  0  0  0  0  0  0  0  0  0
  128.5520  126.2400   73.1030 O   0  0  0  0  0  0  0  0  0  0  0  0
  129.5870  125.7090   73.9240 C   0  0  0  0  0  0  0  0  0  0  0  0
  129.5770  127.4240   71.2030 C   0  0  0  0  0  0  0  0  0  0  0  0
  129.7550  127.5080   69.8240 C   0  0  0  0  0  0  0  0  0  0  0  0
  128.8030  127.6830   66.6720 C   0  0  0  0  0  0  0  0  0  0  0  0
  127.9570  128.7400   67.2350 C   0  0  0  0  0  0  0  0  0  0  0  0
  127.2910  129.5750   67.6810 N   0  0  0  0  0  0  0  0  0  0  0  0
  129.9310  124.3220   61.7490 C   0  0  0  0  0  0  0  0  0  0  0  0
  130.5620  123.1440   61.3570 C   0  0  0  0  0  0  0  0  0  0  0  0
  1  2  1  0
  2  3  1  0
  3  4  2  0
  3  5  1  0
  5  6  2  0
  6  7  1  0
  7  8  2  0
  8  9  1  0
  9 10  1  0
 10 11  2  0
 10 12  1  0
 12 13  1  0
 13 14  1  0
 14 15  2  0
 15 16  1  0
 16 17  1  0
 17 18  2  0
 18 19  1  0
 19 20  2  0
 20 21  1  0
 20 22  1  0
 22 23  2  0
 16 24  2  0
 24 25  1  0
 25 26  1  0
 26 27  2  0
 27 28  1  0
 28 29  2  0
 29 30  1  0
 30 31  1  0
 29 32  1  0
 32 33  2  0
 25 34  2  0
 34 35  1  0
 35 36  3  0
  8 37  1  0
 37 38  2  0
 38  5  1  0
 34 14  1  0
 23 17  1  0
 33 26  1  0
M  END
>  <Binding energies>  (53) 
[-8.48]

>  <Ligand effiencies>  (53) 
[-0.21743589743589745]

>  <Interactions>  (53) 
["V-B:TYR:539:CD2:9845, V-B:GLU:543:CD:9879, V-B:PRO:540:CA:9854, V-B:GLU:543:CG:9878, V-A:HIS:456:CE1:4069, V-B:TYR:539:CE2:9847, V-B:GLU:543:CB:9877, V-A:ILE:369:CD1:3238, V-B:PRO:540:C:9852, V-B:ALA:541:CB:9863, V-A:TYR:484:CE1:4344, V-B:HIS:456:CE1:9041, V-A:GLU:543:CD:4908, V-A:GLY:454:CA:4048, V-A:GLU:543:CG:4907, V-A:LEU:475:CD2:4258, V-A:TYR:484:CZ:4346, V-B:GLU:543:C:9873, V-B:GLU:543:CA:9875, V-A:TRP:381:CH2:3371, V-B:ALA:541:CA:9861, V-A:ILE:369:CG2:3236, V-A:TRP:381:CZ2:3369, V-A:HIS:456:CD2:4067, H-B:GLU:543:OE2:9881, H-B:LYS:547:NZ:9922, V-B:HIS:456:CD2:9039, H-B:TYR:484:OH:9319"]

$$$$
RR7_Rahimova_2017
     RDKit          3D

 47 53  0  0  0  0  0  0  0  0999 V2000
  133.9240  119.9270   61.3690 C   0  0  0  0  0  0  0  0  0  0  0  0
  132.7630  119.5470   60.6380 O   0  0  0  0  0  0  0  0  0  0  0  0
  131.6570  120.3740   60.6540 C   0  0  0  0  0  0  0  0  0  0  0  0
  131.8670  121.7020   60.2840 C   0  0  0  0  0  0  0  0  0  0  0  0
  130.8120  122.6080   60.2650 C   0  0  0  0  0  0  0  0  0  0  0  0
  129.5170  122.2090   60.6280 C   0  0  0  0  0  0  0  0  0  0  0  0
  128.3090  123.1960   60.5840 C   0  0  0  0  0  0  0  0  0  0  0  0
  127.4800  122.8760   61.7250 O   0  0  0  0  0  0  0  0  0  0  0  0
  127.9120  123.2230   63.0440 C   0  0  0  0  0  0  0  0  0  0  0  0
  129.4460  123.3290   63.0580 C   0  0  1  0  0  0  0  0  0  0  0  0
  129.7700  124.5300   63.7520 O   0  0  0  0  0  0  0  0  0  0  0  0
  130.5730  124.2870   64.8710 C   0  0  1  0  0  0  0  0  0  0  0  0
  130.2690  125.2410   65.9210 N   0  0  0  0  0  0  0  0  0  0  0  0
  130.5010  125.1170   67.2790 C   0  0  0  0  0  0  0  0  0  0  0  0
  130.0820  126.1170   68.0140 N   0  0  0  0  0  0  0  0  0  0  0  0
  129.4860  126.9570   67.1130 C   0  0  0  0  0  0  0  0  0  0  0  0
  128.8300  128.1940   67.2680 C   0  0  0  0  0  0  0  0  0  0  0  0
  128.7360  128.7520   68.5570 N   0  0  0  0  0  0  0  0  0  0  0  0
  129.6600  128.7710   69.5470 C   0  0  0  0  0  0  0  0  0  0  0  0
  130.7770  128.2560   69.4640 O   0  0  0  0  0  0  0  0  0  0  0  0
  129.2320  129.4530   70.8290 C   0  0  0  0  0  0  0  0  0  0  0  0
  128.5800  130.6950   70.7700 C   0  0  0  0  0  0  0  0  0  0  0  0
  128.1730  131.3370   71.9350 C   0  0  0  0  0  0  0  0  0  0  0  0
  128.4100  130.7420   73.1700 C   0  0  0  0  0  0  0  0  0  0  0  0
  129.0520  129.5080   73.2500 C   0  0  0  0  0  0  0  0  0  0  0  0
  129.4600  128.8650   72.0840 C   0  0  0  0  0  0  0  0  0  0  0  0
  128.3040  128.8130   66.1680 N   0  0  0  0  0  0  0  0  0  0  0  0
  128.4410  128.1940   64.9660 C   0  0  0  0  0  0  0  0  0  0  0  0
  129.0540  127.0090   64.7040 N   0  0  0  0  0  0  0  0  0  0  0  0
  129.5650  126.4290   65.7990 C   0  0  0  0  0  0  0  0  0  0  0  0
  130.3230  122.8280   65.2350 C   0  0  0  0  0  0  0  0  0  0  0  0
  130.1650  122.2270   63.8490 C   0  0  2  0  0  0  0  0  0  0  0  0
  131.4140  121.8770   63.2770 O   0  0  0  0  0  0  0  0  0  0  0  0
  128.7490  124.6760   60.7450 C   0  0  0  0  0  0  0  0  0  0  0  0
  129.9450  125.1260   60.1650 C   0  0  0  0  0  0  0  0  0  0  0  0
  130.3560  126.4460   60.3140 C   0  0  0  0  0  0  0  0  0  0  0  0
  129.5740  127.3330   61.0490 C   0  0  0  0  0  0  0  0  0  0  0  0
  128.3850  126.9080   61.6340 C   0  0  0  0  0  0  0  0  0  0  0  0
  127.9750  125.5860   61.4840 C   0  0  0  0  0  0  0  0  0  0  0  0
  127.4480  123.1550   59.2900 C   0  0  0  0  0  0  0  0  0  0  0  0
  127.9380  122.5340   58.1300 C   0  0  0  0  0  0  0  0  0  0  0  0
  127.1800  122.5000   56.9640 C   0  0  0  0  0  0  0  0  0  0  0  0
  125.9230  123.0970   56.9430 C   0  0  0  0  0  0  0  0  0  0  0  0
  125.4220  123.7300   58.0760 C   0  0  0  0  0  0  0  0  0  0  0  0
  126.1820  123.7630   59.2410 C   0  0  0  0  0  0  0  0  0  0  0  0
  129.3080  120.8690   60.9850 C   0  0  0  0  0  0  0  0  0  0  0  0
  130.3630  119.9620   61.0040 C   0  0  0  0  0  0  0  0  0  0  0  0
  1  2  1  0
  2  3  1  0
  3  4  2  0
  4  5  1  0
  5  6  2  0
  6  7  1  0
  7  8  1  0
  8  9  1  0
 10  9  1  1
 10 11  1  0
 11 12  1  0
 12 13  1  1
 13 14  1  0
 14 15  2  0
 15 16  1  0
 16 17  2  0
 17 18  1  0
 18 19  1  0
 19 20  2  0
 19 21  1  0
 21 22  2  0
 22 23  1  0
 23 24  2  0
 24 25  1  0
 25 26  2  0
 17 27  1  0
 27 28  2  0
 28 29  1  0
 29 30  2  0
 12 31  1  0
 31 32  1  0
 32 33  1  6
  7 34  1  0
 34 35  2  0
 35 36  1  0
 36 37  2  0
 37 38  1  0
 38 39  2  0
  7 40  1  0
 40 41  2  0
 41 42  1  0
 42 43  2  0
 43 44  1  0
 44 45  2  0
  6 46  1  0
 46 47  2  0
 47  3  1  0
 32 10  1  0
 39 34  1  0
 45 40  1  0
 30 13  1  0
 30 16  1  0
 26 21  1  0
M  END
>  <Binding energies>  (54) 
[-8.79]

>  <Ligand effiencies>  (54) 
[-0.1793877551020408]

>  <Interactions>  (54) 
["V-B:TYR:539:CD2:9845, V-B:GLU:543:CD:9879, V-B:PRO:540:CA:9854, V-B:PRO:540:N:9855, V-B:GLU:543:CG:9878, V-A:HIS:456:CE1:4069, V-B:TYR:539:CE2:9847, V-B:TYR:539:C:9838, V-B:PRO:540:C:9852, V-B:ALA:541:CB:9863, V-A:GLU:543:CB:4906, V-A:TYR:484:CE1:4344, V-B:HIS:456:CE1:9041, V-A:GLU:543:CD:4908, V-A:GLU:543:CG:4907, V-A:LEU:475:CD2:4258, V-A:TYR:484:CZ:4346, V-A:GLU:543:C:4902, V-A:TRP:381:CH2:3371, V-B:ALA:541:CA:9861, V-A:ILE:369:CG2:3236, H-B:ALA:541:N:9862, V-B:PRO:540:CB:9856, V-B:TYR:539:CZ:9848, V-B:TYR:484:CD1:9314, V-B:HIS:456:CG:9037, V-B:TYR:484:CE1:9316, V-B:TYR:484:CG:9313, V-B:HIS:456:CD2:9039, V-B:TYR:484:CZ:9318, V-A:GLU:543:CA:4904, V-B:TYR:539:CD1:9844, V-B:TYR:539:CE1:9846, V-B:TYR:539:CG:9843, H-B:HIS:456:NE2:9042, V-A:SER:385:C:3404, V-A:SER:385:CA:3406"]

$$$$
RR8_A_Rahimova_2017
     RDKit          3D

 42 46  0  0  0  0  0  0  0  0999 V2000
  127.9530  128.2820   66.9860 O   0  0  0  0  0  0  0  0  0  0  0  0
  128.5910  127.3520   67.4910 C   0  0  0  0  0  0  0  0  0  0  0  0
  129.1200  126.3040   66.7850 O   0  0  0  0  0  0  0  0  0  0  0  0
  129.9640  126.6080   65.7090 C   0  0  1  0  0  0  0  0  0  0  0  0
  131.0910  125.7810   65.6880 O   0  0  0  0  0  0  0  0  0  0  0  0
  131.4570  125.4180   64.3600 C   0  0  2  0  0  0  0  0  0  0  0  0
  132.9230  125.8230   64.1280 C   0  0  0  0  0  0  0  0  0  0  0  0
  133.7480  124.6780   64.3020 O   0  0  0  0  0  0  0  0  0  0  0  0
  133.2360  123.5000   63.6940 C   0  0  0  0  0  0  0  0  0  0  0  0
  133.0610  123.7250   62.1990 C   0  0  0  0  0  0  0  0  0  0  0  0
  131.9980  123.1200   61.5240 C   0  0  0  0  0  0  0  0  0  0  0  0
  131.8320  123.3290   60.1560 C   0  0  0  0  0  0  0  0  0  0  0  0
  132.7280  124.1460   59.4690 C   0  0  0  0  0  0  0  0  0  0  0  0
  133.7870  124.7580   60.1360 C   0  0  0  0  0  0  0  0  0  0  0  0
  133.9520  124.5500   61.5030 C   0  0  0  0  0  0  0  0  0  0  0  0
  130.4260  126.1440   63.4850 C   0  0  1  0  0  0  0  0  0  0  0  0
  129.9970  125.3720   62.3660 O   0  0  0  0  0  0  0  0  0  0  0  0
  128.7940  124.6350   62.5500 C   0  0  0  0  0  0  0  0  0  0  0  0
  128.4780  123.8340   61.2940 C   0  0  0  0  0  0  0  0  0  0  0  0
  128.7780  122.4690   61.2480 C   0  0  0  0  0  0  0  0  0  0  0  0
  128.5010  121.7330   60.1000 C   0  0  0  0  0  0  0  0  0  0  0  0
  127.9270  122.3640   58.9970 C   0  0  0  0  0  0  0  0  0  0  0  0
  127.6320  123.7240   59.0310 C   0  0  0  0  0  0  0  0  0  0  0  0
  127.9110  124.4620   60.1790 C   0  0  0  0  0  0  0  0  0  0  0  0
  129.2330  126.3010   64.4100 C   0  0  2  0  0  0  0  0  0  0  0  0
  128.3880  127.3590   63.9640 O   0  0  0  0  0  0  0  0  0  0  0  0
  128.9210  128.6710   64.0960 C   0  0  0  0  0  0  0  0  0  0  0  0
  127.8080  129.6520   64.4300 C   0  0  0  0  0  0  0  0  0  0  0  0
  126.4840  129.2090   64.5250 C   0  0  0  0  0  0  0  0  0  0  0  0
  125.4700  130.1090   64.8400 C   0  0  0  0  0  0  0  0  0  0  0  0
  125.7800  131.4490   65.0640 C   0  0  0  0  0  0  0  0  0  0  0  0
  127.0960  131.8970   64.9770 C   0  0  0  0  0  0  0  0  0  0  0  0
  128.1120  130.9970   64.6610 C   0  0  0  0  0  0  0  0  0  0  0  0
  128.8790  127.2630   68.9620 C   0  0  0  0  0  0  0  0  0  0  0  0
  129.5650  128.2780   69.6460 C   0  0  0  0  0  0  0  0  0  0  0  0
  129.8180  128.1650   71.0110 C   0  0  0  0  0  0  0  0  0  0  0  0
  129.3940  127.0370   71.7250 C   0  0  0  0  0  0  0  0  0  0  0  0
  129.6630  126.9190   73.1790 N   0  0  0  0  0  0  0  0  0  0  0  0
  130.4200  127.7290   73.7050 O   0  0  0  0  0  0  0  0  0  0  0  0
  129.1170  126.0150   73.8060 O   0  0  0  0  0  0  0  0  0  0  0  0
  128.7120  126.0230   71.0400 C   0  0  0  0  0  0  0  0  0  0  0  0
  128.4590  126.1340   69.6760 C   0  0  0  0  0  0  0  0  0  0  0  0
  1  2  2  0
  2  3  1  0
  4  3  1  1
  4  5  1  0
  5  6  1  0
  6  7  1  6
  7  8  1  0
  8  9  1  0
  9 10  1  0
 10 11  2  0
 11 12  1  0
 12 13  2  0
 13 14  1  0
 14 15  2  0
  6 16  1  0
 16 17  1  6
 17 18  1  0
 18 19  1  0
 19 20  2  0
 20 21  1  0
 21 22  2  0
 22 23  1  0
 23 24  2  0
 16 25  1  0
 25 26  1  6
 26 27  1  0
 27 28  1  0
 28 29  2  0
 29 30  1  0
 30 31  2  0
 31 32  1  0
 32 33  2  0
  2 34  1  0
 34 35  2  0
 35 36  1  0
 36 37  2  0
 37 38  1  0
 38 39  2  0
 38 40  1  0
 37 41  1  0
 41 42  2  0
 25  4  1  0
 33 28  1  0
 42 34  1  0
 15 10  1  0
 24 19  1  0
M  CHG  2  38   1  40  -1
M  END
>  <Binding energies>  (55) 
[-8.65]

>  <Ligand effiencies>  (55) 
[-0.20595238095238097]

>  <Interactions>  (55) 
["V-B:TYR:539:CD2:9845, V-B:GLU:543:CD:9879, V-B:PRO:540:CA:9854, H-A:TYR:484:OH:4347, V-B:PRO:540:N:9855, H-A:GLY:454:N:4049, V-B:GLU:543:CG:9878, V-A:HIS:456:CE1:4069, V-B:TYR:539:CE2:9847, V-B:GLU:543:CB:9877, V-A:ILE:369:CD1:3238, V-B:TYR:539:C:9838, V-A:ARG:545:CZ:4926, V-B:PRO:540:C:9852, V-B:ALA:541:CB:9863, V-A:GLU:543:CB:4906, V-B:HIS:456:CE1:9041, V-A:GLU:543:CD:4908, V-A:GLY:454:CA:4048, V-A:GLU:543:CG:4907, V-A:ASP:366:CG:3212, V-A:ILE:369:CG2:3236, V-A:ILE:369:CB:3235, V-A:ASP:366:CB:3211, V-A:ASP:366:CA:3209, H-B:LYS:547:NZ:9922, H-A:LYS:547:NZ:4951, V-B:LEU:475:CD1:9229"]

$$$$
RR8_B_Rahimova_2017
     RDKit          3D

 42 46  0  0  0  0  0  0  0  0999 V2000
  128.0640  128.4410   67.1470 O   0  0  0  0  0  0  0  0  0  0  0  0
  128.9780  127.7810   67.6520 C   0  0  0  0  0  0  0  0  0  0  0  0
  129.9210  127.0950   66.9380 O   0  0  0  0  0  0  0  0  0  0  0  0
  129.4880  126.0730   66.0740 C   0  0  2  0  0  0  0  0  0  0  0  0
  130.3980  125.0110   66.0230 O   0  0  0  0  0  0  0  0  0  0  0  0
  131.3450  125.1850   64.9710 C   0  0  2  0  0  0  0  0  0  0  0  0
  132.7690  125.1900   65.5560 C   0  0  0  0  0  0  0  0  0  0  0  0
  133.6160  124.4000   64.7320 O   0  0  0  0  0  0  0  0  0  0  0  0
  132.9810  123.2970   64.1030 C   0  0  0  0  0  0  0  0  0  0  0  0
  132.9510  123.5260   62.6000 C   0  0  0  0  0  0  0  0  0  0  0  0
  133.6090  124.6320   62.0530 C   0  0  0  0  0  0  0  0  0  0  0  0
  133.5650  124.8610   60.6800 C   0  0  0  0  0  0  0  0  0  0  0  0
  132.8630  123.9820   59.8570 C   0  0  0  0  0  0  0  0  0  0  0  0
  132.2100  122.8740   60.3940 C   0  0  0  0  0  0  0  0  0  0  0  0
  132.2520  122.6470   61.7680 C   0  0  0  0  0  0  0  0  0  0  0  0
  130.9120  126.4840   64.2810 C   0  0  1  0  0  0  0  0  0  0  0  0
  131.1450  126.3880   62.8730 O   0  0  0  0  0  0  0  0  0  0  0  0
  130.0060  126.5000   62.0160 C   0  0  0  0  0  0  0  0  0  0  0  0
  129.5120  125.1410   61.5300 C   0  0  0  0  0  0  0  0  0  0  0  0
  129.3800  124.8920   60.1610 C   0  0  0  0  0  0  0  0  0  0  0  0
  128.9600  123.6400   59.7200 C   0  0  0  0  0  0  0  0  0  0  0  0
  128.6680  122.6430   60.6500 C   0  0  0  0  0  0  0  0  0  0  0  0
  128.7930  122.8860   62.0160 C   0  0  0  0  0  0  0  0  0  0  0  0
  129.2170  124.1380   62.4570 C   0  0  0  0  0  0  0  0  0  0  0  0
  129.4360  126.6050   64.6430 C   0  0  2  0  0  0  0  0  0  0  0  0
  129.0110  127.9630   64.5490 O   0  0  0  0  0  0  0  0  0  0  0  0
  127.7150  128.1640   64.0060 C   0  0  0  0  0  0  0  0  0  0  0  0
  127.2050  129.5140   64.4800 C   0  0  0  0  0  0  0  0  0  0  0  0
  128.0520  130.6260   64.4850 C   0  0  0  0  0  0  0  0  0  0  0  0
  127.5790  131.8540   64.9410 C   0  0  0  0  0  0  0  0  0  0  0  0
  126.2650  131.9660   65.3890 C   0  0  0  0  0  0  0  0  0  0  0  0
  125.4150  130.8610   65.3850 C   0  0  0  0  0  0  0  0  0  0  0  0
  125.8860  129.6340   64.9300 C   0  0  0  0  0  0  0  0  0  0  0  0
  129.1490  127.6160   69.1350 C   0  0  0  0  0  0  0  0  0  0  0  0
  129.7450  128.6100   69.9250 C   0  0  0  0  0  0  0  0  0  0  0  0
  129.8980  128.4270   71.2950 C   0  0  0  0  0  0  0  0  0  0  0  0
  129.4700  127.2430   71.9080 C   0  0  0  0  0  0  0  0  0  0  0  0
  129.6590  127.0380   73.3660 N   0  0  0  0  0  0  0  0  0  0  0  0
  129.0340  126.1380   73.9190 O   0  0  0  0  0  0  0  0  0  0  0  0
  130.4380  127.7740   73.9670 O   0  0  0  0  0  0  0  0  0  0  0  0
  128.8700  126.2530   71.1200 C   0  0  0  0  0  0  0  0  0  0  0  0
  128.7090  126.4380   69.7500 C   0  0  0  0  0  0  0  0  0  0  0  0
  1  2  2  0
  2  3  1  0
  4  3  1  1
  4  5  1  0
  5  6  1  0
  6  7  1  1
  7  8  1  0
  8  9  1  0
  9 10  1  0
 10 11  2  0
 11 12  1  0
 12 13  2  0
 13 14  1  0
 14 15  2  0
  6 16  1  0
 16 17  1  6
 17 18  1  0
 18 19  1  0
 19 20  2  0
 20 21  1  0
 21 22  2  0
 22 23  1  0
 23 24  2  0
 16 25  1  0
 25 26  1  1
 26 27  1  0
 27 28  1  0
 28 29  2  0
 29 30  1  0
 30 31  2  0
 31 32  1  0
 32 33  2  0
  2 34  1  0
 34 35  2  0
 35 36  1  0
 36 37  2  0
 37 38  1  0
 38 39  2  0
 38 40  1  0
 37 41  1  0
 41 42  2  0
 25  4  1  0
 33 28  1  0
 42 34  1  0
 15 10  1  0
 24 19  1  0
M  CHG  2  38   1  40  -1
M  END
>  <Binding energies>  (56) 
[-8.23]

>  <Ligand effiencies>  (56) 
[-0.19595238095238096]

>  <Interactions>  (56) 
["V-B:GLU:543:CD:9879, H-A:TYR:484:OH:4347, H-A:GLY:454:N:4049, V-B:GLU:543:CG:9878, V-A:HIS:456:CE1:4069, V-B:TYR:539:CE2:9847, V-A:ILE:369:CD1:3238, V-A:ARG:545:CZ:4926, V-B:ALA:541:CB:9863, V-A:GLU:543:CB:4906, V-B:HIS:456:CE1:9041, V-A:GLU:543:CD:4908, H-A:ARG:545:NH2:4928, V-A:GLY:454:CA:4048, V-A:GLU:543:CG:4907, V-A:ASP:366:CG:3212, V-A:ILE:369:CG2:3236, V-A:ILE:369:CB:3235, V-A:ASP:366:CB:3211, V-A:ASP:366:CA:3209, H-B:LYS:547:NZ:9922, H-A:LYS:547:NZ:4951, V-B:TYR:484:CZ:9318, V-B:LEU:475:CD1:9229"]

$$$$
RR9_Rahimova_2017
     RDKit          3D

 36 40  0  0  0  0  0  0  0  0999 V2000
  129.0170  130.4600   72.7140 C   0  0  0  0  0  0  0  0  0  0  0  0
  129.2000  129.2930   73.6900 C   0  0  0  0  0  0  0  0  0  0  0  0
  130.2150  128.4300   73.1860 O   0  0  0  0  0  0  0  0  0  0  0  0
  130.1770  128.0390   71.8610 C   0  0  0  0  0  0  0  0  0  0  0  0
  131.2180  128.4860   71.0500 C   0  0  0  0  0  0  0  0  0  0  0  0
  131.2620  128.1450   69.7020 C   0  0  0  0  0  0  0  0  0  0  0  0
  130.2630  127.3460   69.1260 C   0  0  0  0  0  0  0  0  0  0  0  0
  130.3030  126.9790   67.6720 C   0  0  0  0  0  0  0  0  0  0  0  0
  131.3320  126.1860   67.1400 C   0  0  0  0  0  0  0  0  0  0  0  0
  131.3580  125.8340   65.7790 C   0  0  0  0  0  0  0  0  0  0  0  0
  132.4310  124.8990   65.2920 C   0  0  0  0  0  0  0  0  0  0  0  0
  133.5930  125.2900   65.1800 O   0  0  0  0  0  0  0  0  0  0  0  0
  132.0230  123.6540   64.9770 N   0  0  0  0  0  0  0  0  0  0  0  0
  132.8490  122.6090   64.3620 C   0  0  0  0  0  0  0  0  0  0  0  0
  132.9110  122.7150   62.8200 C   0  0  0  0  0  0  0  0  0  0  0  0
  132.0790  121.6770   62.0760 C   0  0  0  0  0  0  0  0  0  0  0  0
  132.6980  120.7750   61.2050 C   0  0  0  0  0  0  0  0  0  0  0  0
  131.9400  119.8060   60.5530 C   0  0  0  0  0  0  0  0  0  0  0  0
  130.5660  119.7440   60.7710 C   0  0  0  0  0  0  0  0  0  0  0  0
  129.9410  120.6420   61.6340 C   0  0  0  0  0  0  0  0  0  0  0  0
  130.7000  121.6110   62.2870 C   0  0  0  0  0  0  0  0  0  0  0  0
  130.3110  126.3520   64.9770 C   0  0  0  0  0  0  0  0  0  0  0  0
  129.8930  126.3410   63.5950 C   0  0  0  0  0  0  0  0  0  0  0  0
  130.5730  125.7520   62.4040 C   0  0  0  0  0  0  0  0  0  0  0  0
  129.8660  124.9210   61.5290 C   0  0  0  0  0  0  0  0  0  0  0  0
  130.5060  124.3610   60.4270 C   0  0  0  0  0  0  0  0  0  0  0  0
  131.8550  124.6320   60.1930 C   0  0  0  0  0  0  0  0  0  0  0  0
  132.5580  124.0060   59.0020 C   0  0  0  0  0  0  0  0  0  0  0  0
  132.5650  125.4590   61.0640 C   0  0  0  0  0  0  0  0  0  0  0  0
  131.9230  126.0210   62.1640 C   0  0  0  0  0  0  0  0  0  0  0  0
  128.7530  126.9800   63.4530 N   0  0  0  0  0  0  0  0  0  0  0  0
  128.4040  127.4750   64.6510 N   0  0  0  0  0  0  0  0  0  0  0  0
  129.3210  127.1350   65.6180 C   0  0  0  0  0  0  0  0  0  0  0  0
  129.2830  127.4640   66.9090 N   0  0  0  0  0  0  0  0  0  0  0  0
  129.2180  126.9020   69.9480 C   0  0  0  0  0  0  0  0  0  0  0  0
  129.1720  127.2410   71.2990 C   0  0  0  0  0  0  0  0  0  0  0  0
  1  2  1  0
  2  3  1  0
  3  4  1  0
  4  5  2  0
  5  6  1  0
  6  7  2  0
  7  8  1  0
  8  9  2  0
  9 10  1  0
 10 11  1  0
 11 12  2  0
 11 13  1  0
 13 14  1  0
 14 15  1  0
 15 16  1  0
 16 17  2  0
 17 18  1  0
 18 19  2  0
 19 20  1  0
 20 21  2  0
 10 22  2  0
 22 23  1  0
 23 24  1  0
 24 25  2  0
 25 26  1  0
 26 27  2  0
 27 28  1  0
 27 29  1  0
 29 30  2  0
 23 31  2  0
 31 32  1  0
 32 33  1  0
 33 34  2  0
  7 35  1  0
 35 36  2  0
 36  4  1  0
 34  8  1  0
 21 16  1  0
 33 22  1  0
 30 24  1  0
M  END
>  <Binding energies>  (57) 
[-8.3]

>  <Ligand effiencies>  (57) 
[-0.21842105263157896]

>  <Interactions>  (57) 
["V-B:TYR:539:CD2:9845, V-B:GLU:543:CD:9879, H-A:TYR:484:OH:4347, H-A:GLY:454:N:4049, V-A:HIS:456:CE1:4069, V-B:TYR:539:CE2:9847, V-A:ARG:545:CG:4922, H-A:ARG:545:NE:4924, V-B:ALA:541:CB:9863, V-A:GLU:543:CB:4906, V-B:HIS:456:CE1:9041, V-A:GLU:543:CD:4908, V-A:GLY:454:CA:4048, V-A:ASP:366:CG:3212, V-A:LEU:475:CD2:4258, V-A:TYR:484:CZ:4346, V-A:TRP:381:CH2:3371, V-A:ILE:369:CG2:3236, V-A:GLY:544:C:4912, V-A:TRP:381:CZ2:3369, H-B:GLU:543:OE2:9881, V-B:TYR:539:CZ:9848, H-A:LYS:547:NZ:4951, H-B:GLU:543:OE1:9880"]

$$$$
