1a_Ghoteimi_2023
     RDKit          3D

 40 43  0  0  0  0  0  0  0  0999 V2000
  123.7410  124.6660   57.6430 C   0  0  0  0  0  0  0  0  0  0  0  0
  124.4910  124.0160   56.4760 C   0  0  0  0  0  0  0  0  0  0  0  0
  124.9300  122.7190   56.8620 O   0  0  0  0  0  0  0  0  0  0  0  0
  126.2520  122.4280   56.9630 C   0  0  0  0  0  0  0  0  0  0  0  0
  126.8790  121.8020   56.1020 O   0  0  0  0  0  0  0  0  0  0  0  0
  126.8790  122.9480   58.2250 C   0  0  0  0  0  0  0  0  0  0  0  0
  126.1120  123.5010   59.2610 C   0  0  0  0  0  0  0  0  0  0  0  0
  126.7220  123.9780   60.4180 C   0  0  0  0  0  0  0  0  0  0  0  0
  128.1160  123.9050   60.5620 C   0  0  0  0  0  0  0  0  0  0  0  0
  128.8350  124.3600   61.6840 N   0  0  0  0  0  0  0  0  0  0  0  0
  129.7440  123.7150   62.4480 C   0  0  0  0  0  0  0  0  0  0  0  0
  130.1330  122.5600   62.2780 O   0  0  0  0  0  0  0  0  0  0  0  0
  130.3200  124.5270   63.6080 C   0  0  0  0  0  0  0  0  0  0  0  0
  130.2270  126.3140   63.2910 S   0  0  0  0  0  0  0  0  0  0  0  0
  129.3230  127.0130   64.6530 C   0  0  0  0  0  0  0  0  0  0  0  0
  128.1820  127.6430   64.2890 N   0  0  0  0  0  0  0  0  0  0  0  0
  127.3950  128.2170   65.2380 C   0  0  0  0  0  0  0  0  0  0  0  0
  126.1360  128.8780   64.7570 C   0  0  0  0  0  0  0  0  0  0  0  0
  125.7870  128.8820   63.3960 C   0  0  0  0  0  0  0  0  0  0  0  0
  124.6190  129.4960   62.9530 C   0  0  0  0  0  0  0  0  0  0  0  0
  123.7630  130.1250   63.8540 C   0  0  0  0  0  0  0  0  0  0  0  0
  122.6260  130.7050   63.3260 O   0  0  0  0  0  0  0  0  0  0  0  0
  122.4660  130.7590   61.9130 C   0  0  0  0  0  0  0  0  0  0  0  0
  124.0990  130.1330   65.2150 C   0  0  0  0  0  0  0  0  0  0  0  0
  125.2680  129.5190   65.6540 C   0  0  0  0  0  0  0  0  0  0  0  0
  127.7550  128.1630   66.5900 C   0  0  0  0  0  0  0  0  0  0  0  0
  128.9440  127.5380   66.9880 C   0  0  0  0  0  0  0  0  0  0  0  0
  129.2800  127.5470   68.4440 C   0  0  0  0  0  0  0  0  0  0  0  0
  130.1720  128.4890   68.9680 C   0  0  0  0  0  0  0  0  0  0  0  0
  130.4690  128.5000   70.3280 C   0  0  0  0  0  0  0  0  0  0  0  0
  129.8760  127.5780   71.1910 C   0  0  0  0  0  0  0  0  0  0  0  0
  130.2300  127.6660   72.5230 O   0  0  0  0  0  0  0  0  0  0  0  0
  130.8920  126.5670   73.1390 C   0  0  0  0  0  0  0  0  0  0  0  0
  128.9750  126.6370   70.6700 C   0  0  0  0  0  0  0  0  0  0  0  0
  128.6800  126.6270   69.3090 C   0  0  0  0  0  0  0  0  0  0  0  0
  129.7560  126.9390   65.9950 C   0  0  0  0  0  0  0  0  0  0  0  0
  131.0040  126.2570   66.3520 C   0  0  0  0  0  0  0  0  0  0  0  0
  131.9890  125.7190   66.6350 N   0  0  0  0  0  0  0  0  0  0  0  0
  128.8810  123.3590   59.5320 C   0  0  0  0  0  0  0  0  0  0  0  0
  128.2700  122.8820   58.3750 C   0  0  0  0  0  0  0  0  0  0  0  0
  1  2  1  0
  2  3  1  0
  3  4  1  0
  4  5  2  0
  4  6  1  0
  6  7  2  0
  7  8  1  0
  8  9  2  0
  9 10  1  0
 10 11  1  0
 11 12  2  0
 11 13  1  0
 13 14  1  0
 14 15  1  0
 15 16  2  0
 16 17  1  0
 17 18  1  0
 18 19  2  0
 19 20  1  0
 20 21  2  0
 21 22  1  0
 22 23  1  0
 21 24  1  0
 24 25  2  0
 17 26  2  0
 26 27  1  0
 27 28  1  0
 28 29  2  0
 29 30  1  0
 30 31  2  0
 31 32  1  0
 32 33  1  0
 31 34  1  0
 34 35  2  0
 27 36  2  0
 36 37  1  0
 37 38  3  0
  9 39  1  0
 39 40  2  0
 40  6  1  0
 36 15  1  0
 25 18  1  0
 35 28  1  0
M  END
>  <Binding energies>  (1) 
[-9.57]

>  <Ligand effiencies>  (1) 
[-0.23341463414634148]

>  <Interactions>  (1) 
["V-B:LEU:363:CD1:8156, V-B:TYR:531:CE2:9761, V-A:GLU:543:CD:4903, H-A:TYR:484:OH:4343, V-B:PRO:540:CA:9851, H-B:GLU:543:OE2:9878, V-B:MET:535:CE:9803, H-B:TYR:539:N:9838, V-B:GLU:543:CD:9876, V-B:PRO:540:N:9852, V-B:PRO:540:CB:9853, V-B:TYR:539:C:9835, H-B:GLY:454:N:9017, V-B:ILE:369:CD1:8206, V-B:ASP:366:CB:8179, V-B:TYR:531:CZ:9762, V-B:HIS:456:CE1:9037, H-B:ARG:545:NH1:9895, V-B:ASP:366:CG:8180, V-A:HIS:456:CE1:4064, V-B:GLU:543:C:9870, V-A:GLY:544:C:4907, H-A:HIS:456:NE2:4065, V-A:GLU:543:C:4897, V-A:LYS:547:CE:4945, V-A:GLU:543:CB:4901, V-B:PRO:540:CD:9855, V-B:ARG:545:CZ:9894, V-B:LEU:363:CA:8152, V-B:LEU:363:CB:8154, V-B:GLY:453:CA:9011"]

$$$$
1b_Ghoteimi_2023
     RDKit          3D

 34 37  0  0  0  0  0  0  0  0999 V2000
  124.6480  122.5150   56.4640 C   0  0  0  0  0  0  0  0  0  0  0  0
  126.0050  122.1250   56.2910 O   0  0  0  0  0  0  0  0  0  0  0  0
  126.9400  122.5020   57.2350 C   0  0  0  0  0  0  0  0  0  0  0  0
  128.2660  122.1650   56.9710 C   0  0  0  0  0  0  0  0  0  0  0  0
  129.2760  122.5040   57.8660 C   0  0  0  0  0  0  0  0  0  0  0  0
  128.9920  123.1930   59.0540 C   0  0  0  0  0  0  0  0  0  0  0  0
  130.0860  123.5550   60.0190 C   0  0  0  0  0  0  0  0  0  0  0  0
  129.8390  123.9160   61.3480 C   0  0  0  0  0  0  0  0  0  0  0  0
  130.8960  124.2410   62.2090 C   0  0  0  0  0  0  0  0  0  0  0  0
  130.5580  124.6220   63.6130 C   0  0  0  0  0  0  0  0  0  0  0  0
  130.4630  123.6440   64.6060 C   0  0  0  0  0  0  0  0  0  0  0  0
  130.1400  123.9930   65.9140 C   0  0  0  0  0  0  0  0  0  0  0  0
  129.9020  125.3250   66.2540 C   0  0  0  0  0  0  0  0  0  0  0  0
  129.5880  125.5780   67.5760 O   0  0  0  0  0  0  0  0  0  0  0  0
  129.4660  126.9270   68.0140 C   0  0  0  0  0  0  0  0  0  0  0  0
  129.9880  126.3100   65.2580 C   0  0  0  0  0  0  0  0  0  0  0  0
  130.3100  125.9570   63.9510 C   0  0  0  0  0  0  0  0  0  0  0  0
  132.2180  124.1820   61.7050 C   0  0  0  0  0  0  0  0  0  0  0  0
  133.3630  124.4190   62.5900 C   0  0  0  0  0  0  0  0  0  0  0  0
  134.2660  124.6060   63.2890 N   0  0  0  0  0  0  0  0  0  0  0  0
  132.3960  123.8300   60.3480 C   0  0  0  0  0  0  0  0  0  0  0  0
  133.9810  123.7140   59.5440 S   0  0  0  0  0  0  0  0  0  0  0  0
  133.7230  122.9650   57.9000 C   0  0  0  0  0  0  0  0  0  0  0  0
  133.1110  123.9010   56.8480 C   0  0  0  0  0  0  0  0  0  0  0  0
  133.8310  124.5330   56.0720 O   0  0  0  0  0  0  0  0  0  0  0  0
  131.7600  123.9590   56.8640 N   0  0  0  0  0  0  0  0  0  0  0  0
  130.9410  124.7140   56.0320 C   0  0  0  0  0  0  0  0  0  0  0  0
  130.0950  125.7170   56.5030 C   0  0  0  0  0  0  0  0  0  0  0  0
  129.4700  126.2140   55.3830 C   0  0  0  0  0  0  0  0  0  0  0  0
  129.9180  125.5460   54.2930 O   0  0  0  0  0  0  0  0  0  0  0  0
  130.8500  124.5980   54.7170 N   0  0  0  0  0  0  0  0  0  0  0  0
  131.3560  123.5070   59.5410 N   0  0  0  0  0  0  0  0  0  0  0  0
  127.6520  123.5260   59.3110 C   0  0  0  0  0  0  0  0  0  0  0  0
  126.6390  123.1880   58.4190 C   0  0  0  0  0  0  0  0  0  0  0  0
  1  2  1  0
  2  3  1  0
  3  4  2  0
  4  5  1  0
  5  6  2  0
  6  7  1  0
  7  8  2  0
  8  9  1  0
  9 10  1  0
 10 11  2  0
 11 12  1  0
 12 13  2  0
 13 14  1  0
 14 15  1  0
 13 16  1  0
 16 17  2  0
  9 18  2  0
 18 19  1  0
 19 20  3  0
 18 21  1  0
 21 22  1  0
 22 23  1  0
 23 24  1  0
 24 25  2  0
 24 26  1  0
 26 27  1  0
 27 28  1  0
 28 29  2  0
 29 30  1  0
 30 31  1  0
 21 32  2  0
  6 33  1  0
 33 34  2  0
 34  3  1  0
 32  7  1  0
 17 10  1  0
 31 27  2  0
M  END
>  <Binding energies>  (2) 
[-8.98]

>  <Ligand effiencies>  (2) 
[-0.25657142857142856]

>  <Interactions>  (2) 
["V-A:ASP:366:CG:3208, H-A:TYR:531:OH:4790, V-B:LEU:363:CD1:8156, V-A:ILE:369:CD1:3234, H-A:GLY:454:N:4045, H-A:LYS:534:NZ:4818, V-A:ILE:369:CB:3231, V-B:PRO:540:CA:9851, H-B:TYR:539:OH:9846, V-B:MET:535:CE:9803, V-A:TYR:531:CZ:4789, H-B:TYR:539:N:9838, V-B:GLU:543:CD:9876, V-B:PRO:540:N:9852, V-B:TYR:539:CE2:9844, V-A:ILE:369:CG2:3232, V-B:TYR:539:CD2:9842, V-B:PRO:540:CB:9853, V-B:TYR:539:CZ:9845, V-A:TYR:531:CE1:4787, V-B:TYR:539:C:9835, V-B:GLU:543:CB:9874, V-B:GLU:543:CG:9875, V-B:TYR:539:CE1:9843, V-A:HIS:456:CE1:4064, H-A:HIS:456:NE2:4065, V-A:TYR:484:CZ:4342, V-A:TYR:484:CE1:4340, V-B:PRO:540:CD:9855, V-B:PRO:540:CG:9854, H-A:ARG:545:NH1:4922, V-B:ILE:538:CG2:9831, V-B:TYR:539:CG:9840, V-B:TYR:539:CA:9837, V-B:TYR:539:CD1:9841"]

$$$$
1c_Ghoteimi_2023
     RDKit          3D

 34 37  0  0  0  0  0  0  0  0999 V2000
  125.2810  132.9400   61.6160 C   0  0  0  0  0  0  0  0  0  0  0  0
  124.9520  132.5940   62.9570 O   0  0  0  0  0  0  0  0  0  0  0  0
  125.6840  131.6150   63.6010 C   0  0  0  0  0  0  0  0  0  0  0  0
  124.9640  130.6730   64.3300 C   0  0  0  0  0  0  0  0  0  0  0  0
  125.6200  129.6530   65.0130 C   0  0  0  0  0  0  0  0  0  0  0  0
  127.0190  129.5450   64.9880 C   0  0  0  0  0  0  0  0  0  0  0  0
  127.7320  128.4500   65.7270 C   0  0  0  0  0  0  0  0  0  0  0  0
  128.8380  127.7760   65.1980 C   0  0  0  0  0  0  0  0  0  0  0  0
  129.4870  126.7790   65.9370 C   0  0  0  0  0  0  0  0  0  0  0  0
  130.7010  126.1500   65.3390 C   0  0  0  0  0  0  0  0  0  0  0  0
  131.8770  126.0230   66.0840 C   0  0  0  0  0  0  0  0  0  0  0  0
  133.0140  125.4550   65.5190 C   0  0  0  0  0  0  0  0  0  0  0  0
  133.0010  125.0090   64.1970 C   0  0  0  0  0  0  0  0  0  0  0  0
  134.1750  124.4590   63.7190 O   0  0  0  0  0  0  0  0  0  0  0  0
  134.2260  123.9890   62.3760 C   0  0  0  0  0  0  0  0  0  0  0  0
  131.8240  125.1410   63.4430 C   0  0  0  0  0  0  0  0  0  0  0  0
  130.6880  125.7090   64.0120 C   0  0  0  0  0  0  0  0  0  0  0  0
  128.9780  126.4500   67.2150 C   0  0  0  0  0  0  0  0  0  0  0  0
  129.5920  125.3910   68.0240 C   0  0  0  0  0  0  0  0  0  0  0  0
  130.0780  124.5560   68.6620 N   0  0  0  0  0  0  0  0  0  0  0  0
  127.8710  127.1800   67.6940 C   0  0  0  0  0  0  0  0  0  0  0  0
  127.2350  126.9900   69.3450 S   0  0  0  0  0  0  0  0  0  0  0  0
  128.3790  127.9390   70.3980 C   0  0  0  0  0  0  0  0  0  0  0  0
  128.9770  127.0840   71.5200 C   0  0  0  0  0  0  0  0  0  0  0  0
  129.1860  127.5890   72.6240 O   0  0  0  0  0  0  0  0  0  0  0  0
  129.1920  125.7880   71.2040 N   0  0  0  0  0  0  0  0  0  0  0  0
  129.5750  124.7760   72.0710 C   0  0  0  0  0  0  0  0  0  0  0  0
  129.3830  124.7110   73.3710 N   0  0  0  0  0  0  0  0  0  0  0  0
  129.8450  123.5810   73.8710 C   0  0  0  0  0  0  0  0  0  0  0  0
  130.4250  122.6980   72.9650 C   0  0  0  0  0  0  0  0  0  0  0  0
  130.3610  123.3960   71.3750 S   0  0  0  0  0  0  0  0  0  0  0  0
  127.2720  128.1570   66.9720 N   0  0  0  0  0  0  0  0  0  0  0  0
  127.7350  130.4960   64.2450 C   0  0  0  0  0  0  0  0  0  0  0  0
  127.0820  131.5190   63.5620 C   0  0  0  0  0  0  0  0  0  0  0  0
  1  2  1  0
  2  3  1  0
  3  4  2  0
  4  5  1  0
  5  6  2  0
  6  7  1  0
  7  8  2  0
  8  9  1  0
  9 10  1  0
 10 11  2  0
 11 12  1  0
 12 13  2  0
 13 14  1  0
 14 15  1  0
 13 16  1  0
 16 17  2  0
  9 18  2  0
 18 19  1  0
 19 20  3  0
 18 21  1  0
 21 22  1  0
 22 23  1  0
 23 24  1  0
 24 25  2  0
 24 26  1  0
 26 27  1  0
 27 28  2  0
 28 29  1  0
 29 30  2  0
 30 31  1  0
 21 32  2  0
  6 33  1  0
 33 34  2  0
 34  3  1  0
 32  7  1  0
 17 10  1  0
 31 27  1  0
M  END
>  <Binding energies>  (3) 
[-8.4]

>  <Ligand effiencies>  (3) 
[-0.24000000000000002]

>  <Interactions>  (3) 
["V-A:ASP:366:CG:3208, V-A:ILE:369:CD1:3234, V-B:LEU:475:CD2:9226, V-A:ARG:545:CZ:4921, H-A:GLY:454:N:4045, V-A:GLU:543:CD:4903, H-A:TYR:484:OH:4343, V-B:GLU:543:CD:9876, V-B:GLU:543:CB:9874, V-B:HIS:456:CE1:9037, V-B:GLU:543:CG:9875, V-B:HIS:456:CD2:9035, H-B:LYS:547:NZ:9919, V-A:HIS:456:CE1:4064, V-B:GLU:543:C:9870, H-A:HIS:456:NE2:4065, V-B:GLU:543:CA:9872, V-B:LYS:547:CE:9918, V-A:HIS:456:CG:4061, H-B:TYR:484:OH:9315, V-A:HIS:456:CD2:4063, H-B:GLU:543:O:9871"]

$$$$
1d_Ghoteimi_2023
     RDKit          3D

 30 32  0  0  0  0  0  0  0  0999 V2000
  123.9880  130.0150   63.4360 C   0  0  0  0  0  0  0  0  0  0  0  0
  123.3510  130.0180   64.7050 O   0  0  0  0  0  0  0  0  0  0  0  0
  124.0830  130.0190   65.8390 C   0  0  0  0  0  0  0  0  0  0  0  0
  123.9810  130.8180   66.7710 O   0  0  0  0  0  0  0  0  0  0  0  0
  125.1080  128.8880   65.8690 C   0  0  0  0  0  0  0  0  0  0  0  0
  126.7020  129.5790   65.3340 S   0  0  0  0  0  0  0  0  0  0  0  0
  127.9770  128.6020   66.0990 C   0  0  0  0  0  0  0  0  0  0  0  0
  128.0270  128.7310   67.4470 N   0  0  0  0  0  0  0  0  0  0  0  0
  128.9570  128.0430   68.1580 C   0  0  0  0  0  0  0  0  0  0  0  0
  128.9420  128.2370   69.6470 C   0  0  0  0  0  0  0  0  0  0  0  0
  129.9990  128.8800   70.3090 C   0  0  0  0  0  0  0  0  0  0  0  0
  129.9860  129.0530   71.6890 C   0  0  0  0  0  0  0  0  0  0  0  0
  128.9190  128.5880   72.4530 C   0  0  0  0  0  0  0  0  0  0  0  0
  128.9920  128.8000   73.8160 O   0  0  0  0  0  0  0  0  0  0  0  0
  128.2470  129.8670   74.3930 C   0  0  0  0  0  0  0  0  0  0  0  0
  127.8550  127.9430   71.8070 C   0  0  0  0  0  0  0  0  0  0  0  0
  127.8710  127.7720   70.4250 C   0  0  0  0  0  0  0  0  0  0  0  0
  129.8600  127.1910   67.5140 C   0  0  0  0  0  0  0  0  0  0  0  0
  129.8400  127.0500   66.1200 C   0  0  0  0  0  0  0  0  0  0  0  0
  130.8390  126.1290   65.4970 C   0  0  0  0  0  0  0  0  0  0  0  0
  130.4440  125.2380   64.4950 C   0  0  0  0  0  0  0  0  0  0  0  0
  131.3690  124.3770   63.9090 C   0  0  0  0  0  0  0  0  0  0  0  0
  132.7040  124.3930   64.3080 C   0  0  0  0  0  0  0  0  0  0  0  0
  133.5490  123.5000   63.6780 O   0  0  0  0  0  0  0  0  0  0  0  0
  133.9040  123.7210   62.3170 C   0  0  0  0  0  0  0  0  0  0  0  0
  133.1080  125.2950   65.3050 C   0  0  0  0  0  0  0  0  0  0  0  0
  132.1820  126.1560   65.8880 C   0  0  0  0  0  0  0  0  0  0  0  0
  128.8850  127.7920   65.3820 C   0  0  0  0  0  0  0  0  0  0  0  0
  128.8870  127.7630   63.9160 C   0  0  0  0  0  0  0  0  0  0  0  0
  128.8890  127.7400   62.7590 N   0  0  0  0  0  0  0  0  0  0  0  0
  1  2  1  0
  2  3  1  0
  3  4  2  0
  3  5  1  0
  5  6  1  0
  6  7  1  0
  7  8  2  0
  8  9  1  0
  9 10  1  0
 10 11  2  0
 11 12  1  0
 12 13  2  0
 13 14  1  0
 14 15  1  0
 13 16  1  0
 16 17  2  0
  9 18  2  0
 18 19  1  0
 19 20  1  0
 20 21  2  0
 21 22  1  0
 22 23  2  0
 23 24  1  0
 24 25  1  0
 23 26  1  0
 26 27  2  0
 19 28  2  0
 28 29  1  0
 29 30  3  0
 28  7  1  0
 17 10  1  0
 27 20  1  0
M  END
>  <Binding energies>  (4) 
[-7.5]

>  <Ligand effiencies>  (4) 
[-0.25]

>  <Interactions>  (4) 
["V-A:ASP:366:CG:3208, V-A:ILE:369:CD1:3234, V-A:ARG:545:CZ:4921, H-A:GLY:454:N:4045, V-A:GLU:543:CD:4903, H-A:TYR:484:OH:4343, H-B:GLY:454:N:9017, V-B:HIS:456:CE1:9037, H-B:ARG:545:NH1:9895, V-B:HIS:456:CD2:9035, H-B:LYS:547:NZ:9919, V-A:HIS:456:CE1:4064, V-A:GLU:543:C:4897, H-A:LYS:547:NZ:4946, H-B:TYR:484:OH:9315, V-B:ARG:545:CZ:9894, V-B:ARG:545:CD:9891, V-B:ARG:545:CG:9890, H-B:HIS:456:ND1:9034, H-B:ARG:545:NE:9892, H-B:ILE:455:N:9022"]

$$$$
1j_Grossjean_2025
     RDKit          3D

 20 21  0  0  0  0  0  0  0  0999 V2000
  126.0580  129.6310   55.1000 C   0  0  0  0  0  0  0  0  0  0  0  0
  127.2930  130.4910   55.2960 C   0  0  0  0  0  0  0  0  0  0  0  0
  127.5880  131.0750   56.5260 C   0  0  0  0  0  0  0  0  0  0  0  0
  128.7470  131.8460   56.6510 C   0  0  0  0  0  0  0  0  0  0  0  0
  129.0580  132.4620   58.0150 C   0  0  0  0  0  0  0  0  0  0  0  0
  129.5860  132.0210   55.5270 C   0  0  0  0  0  0  0  0  0  0  0  0
  130.8320  132.7810   55.6500 C   0  0  0  0  0  0  0  0  0  0  0  0
  131.8170  133.3810   55.7500 N   0  0  0  0  0  0  0  0  0  0  0  0
  129.1950  131.4130   54.3110 C   0  0  0  0  0  0  0  0  0  0  0  0
  130.1280  131.5310   52.8000 S   0  0  0  0  0  0  0  0  0  0  0  0
  131.4820  130.3220   52.8910 C   0  0  0  0  0  0  0  0  0  0  0  0
  130.9660  128.8940   53.0720 C   0  0  0  0  0  0  0  0  0  0  0  0
  131.2680  128.0320   52.2460 O   0  0  0  0  0  0  0  0  0  0  0  0
  130.1950  128.6870   54.1630 N   0  0  0  0  0  0  0  0  0  0  0  0
  129.6040  127.4910   54.5450 C   0  0  0  0  0  0  0  0  0  0  0  0
  129.7480  126.3060   53.9890 N   0  0  0  0  0  0  0  0  0  0  0  0
  129.0360  125.3900   54.6150 C   0  0  0  0  0  0  0  0  0  0  0  0
  128.2930  125.8260   55.7080 C   0  0  0  0  0  0  0  0  0  0  0  0
  128.5480  127.5330   55.9200 S   0  0  0  0  0  0  0  0  0  0  0  0
  128.0800  130.6480   54.2050 N   0  0  0  0  0  0  0  0  0  0  0  0
  1  2  1  0
  2  3  2  0
  3  4  1  0
  4  5  1  0
  4  6  2  0
  6  7  1  0
  7  8  3  0
  6  9  1  0
  9 10  1  0
 10 11  1  0
 11 12  1  0
 12 13  2  0
 12 14  1  0
 14 15  1  0
 15 16  2  0
 16 17  1  0
 17 18  2  0
 18 19  1  0
  9 20  2  0
 20  2  1  0
 19 15  1  0
M  END
>  <Binding energies>  (5) 
[-6.55]

>  <Ligand effiencies>  (5) 
[-0.3119047619047619]

>  <Interactions>  (5) 
["V-A:PRO:540:CA:4878, V-A:MET:535:CG:4828, V-A:TYR:539:CE1:4870, V-A:TYR:539:CZ:4872, V-A:ILE:538:CA:4855, V-A:ILE:538:CD1:4860, H-A:LYS:534:NZ:4818, V-B:MET:535:CE:9803, V-A:PRO:540:N:4879, V-A:TYR:531:CZ:4789, V-A:TYR:539:C:4862, V-A:PRO:540:CD:4882, V-A:TYR:531:CE1:4787, V-B:TYR:531:CZ:9762, V-A:MET:535:CB:4827, H-A:TYR:539:N:4865, V-A:TYR:539:CD1:4868, V-A:TYR:531:CD1:4785, V-B:TYR:531:CE1:9760"]

$$$$
1o_Grossjean_2025
     RDKit          3D

 26 27  0  0  0  0  0  0  0  0999 V2000
  127.8380  134.9390   61.6880 C   0  0  0  0  0  0  0  0  0  0  0  0
  127.8690  133.5560   61.3650 O   0  0  0  0  0  0  0  0  0  0  0  0
  129.0470  132.8890   61.2560 C   0  0  0  0  0  0  0  0  0  0  0  0
  129.7710  132.6260   62.2210 O   0  0  0  0  0  0  0  0  0  0  0  0
  129.3820  132.5010   59.8450 C   0  0  0  0  0  0  0  0  0  0  0  0
  128.7000  133.0400   58.7440 C   0  0  0  0  0  0  0  0  0  0  0  0
  129.0370  132.6600   57.4480 C   0  0  0  0  0  0  0  0  0  0  0  0
  130.0540  131.7320   57.2240 C   0  0  0  0  0  0  0  0  0  0  0  0
  130.3190  131.4260   55.8750 N   0  0  0  0  0  0  0  0  0  0  0  0
  130.8450  132.1990   54.8990 C   0  0  0  0  0  0  0  0  0  0  0  0
  131.2450  133.3540   55.0470 O   0  0  0  0  0  0  0  0  0  0  0  0
  130.9620  131.5340   53.5190 C   0  0  0  0  0  0  0  0  0  0  0  0
  131.7070  130.1850   53.5530 C   0  0  0  0  0  0  0  0  0  0  0  0
  130.7050  128.7740   52.9990 S   0  0  0  0  0  0  0  0  0  0  0  0
  129.3110  128.6060   54.0960 C   0  0  0  0  0  0  0  0  0  0  0  0
  128.5970  129.7520   54.2410 N   0  0  0  0  0  0  0  0  0  0  0  0
  127.5090  129.7430   55.0460 C   0  0  0  0  0  0  0  0  0  0  0  0
  126.7530  131.0550   55.1470 C   0  0  0  0  0  0  0  0  0  0  0  0
  127.0970  128.6080   55.7410 C   0  0  0  0  0  0  0  0  0  0  0  0
  127.8400  127.4300   55.6190 C   0  0  0  0  0  0  0  0  0  0  0  0
  127.3770  126.2030   56.4030 C   0  0  0  0  0  0  0  0  0  0  0  0
  128.9840  127.4150   54.7880 C   0  0  0  0  0  0  0  0  0  0  0  0
  129.8070  126.2080   54.6940 C   0  0  0  0  0  0  0  0  0  0  0  0
  130.4560  125.2520   54.6210 N   0  0  0  0  0  0  0  0  0  0  0  0
  130.7440  131.1920   58.3200 C   0  0  0  0  0  0  0  0  0  0  0  0
  130.4070  131.5740   59.6150 C   0  0  0  0  0  0  0  0  0  0  0  0
  1  2  1  0
  2  3  1  0
  3  4  2  0
  3  5  1  0
  5  6  2  0
  6  7  1  0
  7  8  2  0
  8  9  1  0
  9 10  1  0
 10 11  2  0
 10 12  1  0
 12 13  1  0
 13 14  1  0
 14 15  1  0
 15 16  2  0
 16 17  1  0
 17 18  1  0
 17 19  2  0
 19 20  1  0
 20 21  1  0
 20 22  2  0
 22 23  1  0
 23 24  3  0
  8 25  1  0
 25 26  2  0
 26  5  1  0
 22 15  1  0
M  END
>  <Binding energies>  (6) 
[-7.77]

>  <Ligand effiencies>  (6) 
[-0.28777777777777774]

>  <Interactions>  (6) 
["V-A:TYR:539:CE2:4871, V-A:PRO:540:CA:4878, V-A:MET:535:CG:4828, H-A:TYR:531:OH:4790, V-A:TYR:539:CE1:4870, V-A:TYR:539:CZ:4872, V-B:LEU:475:CD2:9226, V-A:PRO:540:CB:4880, H-A:ALA:541:N:4886, V-A:ALA:541:CB:4887, V-A:ILE:538:CD1:4860, V-A:TYR:539:CD2:4869, H-A:LYS:534:NZ:4818, H-B:TYR:539:OH:9846, V-B:MET:535:CE:9803, V-A:PRO:540:N:4879, V-A:TYR:531:CZ:4789, V-A:TYR:539:C:4862, V-A:TYR:531:CE1:4787, V-A:TYR:531:CE2:4788, V-A:TYR:539:CG:4867, H-A:TYR:539:N:4865, V-A:TYR:539:CD1:4868, V-A:PRO:540:C:4876, V-A:TYR:531:CD1:4785"]

$$$$
1p_Grossjean_2025
     RDKit          3D

 21 22  0  0  0  0  0  0  0  0999 V2000
  127.5520  123.1030   60.4480 C   0  0  0  0  0  0  0  0  0  0  0  0
  128.8570  122.3300   60.4150 C   0  0  0  0  0  0  0  0  0  0  0  0
  128.9690  121.0660   60.9920 C   0  0  0  0  0  0  0  0  0  0  0  0
  130.2010  120.4040   60.9440 C   0  0  0  0  0  0  0  0  0  0  0  0
  130.3040  119.0260   61.5950 C   0  0  0  0  0  0  0  0  0  0  0  0
  131.2960  121.0280   60.3070 C   0  0  0  0  0  0  0  0  0  0  0  0
  132.6070  120.3770   60.2860 C   0  0  0  0  0  0  0  0  0  0  0  0
  133.6440  119.8610   60.2690 N   0  0  0  0  0  0  0  0  0  0  0  0
  131.0850  122.3030   59.7290 C   0  0  0  0  0  0  0  0  0  0  0  0
  132.3510  123.2210   58.8820 S   0  0  0  0  0  0  0  0  0  0  0  0
  131.5220  124.5880   58.0200 C   0  0  0  0  0  0  0  0  0  0  0  0
  131.3780  124.3690   56.5010 C   0  0  0  0  0  0  0  0  0  0  0  0
  129.9390  124.0690   56.0580 C   0  0  0  0  0  0  0  0  0  0  0  0
  129.5240  124.5270   54.9920 O   0  0  0  0  0  0  0  0  0  0  0  0
  129.2200  123.2870   56.8950 N   0  0  0  0  0  0  0  0  0  0  0  0
  127.9060  122.8670   56.7320 C   0  0  0  0  0  0  0  0  0  0  0  0
  126.8150  123.5620   57.2530 C   0  0  0  0  0  0  0  0  0  0  0  0
  125.7120  122.8300   56.8770 C   0  0  0  0  0  0  0  0  0  0  0  0
  126.1170  121.7500   56.1690 O   0  0  0  0  0  0  0  0  0  0  0  0
  127.5110  121.7840   56.0840 N   0  0  0  0  0  0  0  0  0  0  0  0
  129.8920  122.9460   59.7990 N   0  0  0  0  0  0  0  0  0  0  0  0
  1  2  1  0
  2  3  2  0
  3  4  1  0
  4  5  1  0
  4  6  2  0
  6  7  1  0
  7  8  3  0
  6  9  1  0
  9 10  1  0
 10 11  1  0
 11 12  1  0
 12 13  1  0
 13 14  2  0
 13 15  1  0
 15 16  1  0
 16 17  1  0
 17 18  2  0
 18 19  1  0
 19 20  1  0
  9 21  2  0
 21  2  1  0
 20 16  2  0
M  END
>  <Binding energies>  (7) 
[-7.54]

>  <Ligand effiencies>  (7) 
[-0.3427272727272727]

>  <Interactions>  (7) 
["H-A:LYS:534:NZ:4818, V-B:PRO:540:CA:9851, H-B:TYR:539:OH:9846, V-B:MET:535:CE:9803, V-A:TYR:531:CZ:4789, H-B:TYR:539:N:9838, V-B:PRO:540:N:9852, V-A:LEU:475:CD2:4254, V-B:TYR:539:CE2:9844, V-A:ILE:369:CG2:3232, V-B:TYR:539:CD2:9842, V-B:PRO:540:CB:9853, V-B:TYR:539:CZ:9845, V-A:TYR:531:CE1:4787, V-A:TRP:381:CZ2:3365, V-B:TYR:539:C:9835, V-A:TRP:381:CH2:3367, V-B:TYR:539:CE1:9843, V-B:PRO:540:C:9849, V-B:ALA:541:CB:9860, V-B:PRO:540:CD:9855, V-B:ALA:541:CA:9858, V-A:PRO:482:CB:4321, V-A:LEU:475:CD1:4253"]

$$$$
2a_Ghoteimi_2023
     RDKit          3D

 48 53  0  0  0  0  0  0  0  0999 V2000
  132.9320  130.6670   58.0370 C   0  0  0  0  0  0  0  0  0  0  0  0
  131.4030  130.6120   57.9690 C   0  0  0  0  0  0  0  0  0  0  0  0
  130.9650  131.1780   56.7410 O   0  0  0  0  0  0  0  0  0  0  0  0
  130.2420  132.3270   56.7170 C   0  0  0  0  0  0  0  0  0  0  0  0
  130.4990  133.2770   55.9700 O   0  0  0  0  0  0  0  0  0  0  0  0
  129.0930  132.3250   57.6840 C   0  0  0  0  0  0  0  0  0  0  0  0
  129.0420  133.2020   58.7780 C   0  0  0  0  0  0  0  0  0  0  0  0
  127.9620  133.1750   59.6550 C   0  0  0  0  0  0  0  0  0  0  0  0
  126.9100  132.2780   59.4580 C   0  0  0  0  0  0  0  0  0  0  0  0
  125.8720  132.3340   60.4070 N   0  0  0  0  0  0  0  0  0  0  0  0
  124.5340  132.3530   60.2260 C   0  0  0  0  0  0  0  0  0  0  0  0
  123.9670  132.3720   59.1330 O   0  0  0  0  0  0  0  0  0  0  0  0
  123.7020  132.3940   61.5150 C   0  0  0  0  0  0  0  0  0  0  0  0
  123.1430  130.7620   62.1030 S   0  0  0  0  0  0  0  0  0  0  0  0
  124.6230  129.8680   62.5160 C   0  0  0  0  0  0  0  0  0  0  0  0
  125.2800  129.3700   61.4420 N   0  0  0  0  0  0  0  0  0  0  0  0
  126.4210  128.6590   61.6290 C   0  0  0  0  0  0  0  0  0  0  0  0
  127.0860  128.1320   60.3990 C   0  0  0  0  0  0  0  0  0  0  0  0
  128.4690  128.2500   60.2150 C   0  0  0  0  0  0  0  0  0  0  0  0
  129.0820  127.7670   59.0620 C   0  0  0  0  0  0  0  0  0  0  0  0
  128.3370  127.1410   58.0530 C   0  0  0  0  0  0  0  0  0  0  0  0
  128.9620  126.6880   56.8860 N   0  0  0  0  0  0  0  0  0  0  0  0
  128.6140  127.2400   55.5610 C   0  0  0  0  0  0  0  0  0  0  0  0
  129.6350  126.8980   54.4560 C   0  0  0  0  0  0  0  0  0  0  0  0
  129.8250  125.4940   54.3870 O   0  0  0  0  0  0  0  0  0  0  0  0
  130.3230  124.9780   55.6110 C   0  0  0  0  0  0  0  0  0  0  0  0
  129.3250  125.2620   56.7530 C   0  0  0  0  0  0  0  0  0  0  0  0
  126.9490  127.0370   58.2360 C   0  0  0  0  0  0  0  0  0  0  0  0
  126.3370  127.5170   59.3900 C   0  0  0  0  0  0  0  0  0  0  0  0
  126.9370  128.4440   62.9090 C   0  0  0  0  0  0  0  0  0  0  0  0
  126.2740  128.9510   64.0360 C   0  0  0  0  0  0  0  0  0  0  0  0
  126.8780  128.6790   65.3760 C   0  0  0  0  0  0  0  0  0  0  0  0
  127.9610  129.4390   65.8260 C   0  0  0  0  0  0  0  0  0  0  0  0
  128.5420  129.1810   67.0640 C   0  0  0  0  0  0  0  0  0  0  0  0
  128.0570  128.1560   67.8900 C   0  0  0  0  0  0  0  0  0  0  0  0
  128.6390  127.8680   69.1280 N   0  0  0  0  0  0  0  0  0  0  0  0
  127.8990  127.0360   70.0990 C   0  0  0  0  0  0  0  0  0  0  0  0
  128.7910  126.4800   71.2290 C   0  0  0  0  0  0  0  0  0  0  0  0
  129.4630  127.5440   71.8860 O   0  0  0  0  0  0  0  0  0  0  0  0
  130.2910  128.2720   70.9930 C   0  0  0  0  0  0  0  0  0  0  0  0
  129.4410  128.8720   69.8540 C   0  0  0  0  0  0  0  0  0  0  0  0
  126.9780  127.3900   67.4250 C   0  0  0  0  0  0  0  0  0  0  0  0
  126.3970  127.6470   66.1870 C   0  0  0  0  0  0  0  0  0  0  0  0
  125.0830  129.6920   63.8400 C   0  0  0  0  0  0  0  0  0  0  0  0
  124.3760  130.2940   64.9750 C   0  0  0  0  0  0  0  0  0  0  0  0
  123.8190  130.7670   65.8720 N   0  0  0  0  0  0  0  0  0  0  0  0
  126.9580  131.3930   58.3710 C   0  0  0  0  0  0  0  0  0  0  0  0
  128.0390  131.4220   57.4930 C   0  0  0  0  0  0  0  0  0  0  0  0
  1  2  1  0
  2  3  1  0
  3  4  1  0
  4  5  2  0
  4  6  1  0
  6  7  2  0
  7  8  1  0
  8  9  2  0
  9 10  1  0
 10 11  1  0
 11 12  2  0
 11 13  1  0
 13 14  1  0
 14 15  1  0
 15 16  2  0
 16 17  1  0
 17 18  1  0
 18 19  2  0
 19 20  1  0
 20 21  2  0
 21 22  1  0
 22 23  1  0
 23 24  1  0
 24 25  1  0
 25 26  1  0
 26 27  1  0
 21 28  1  0
 28 29  2  0
 17 30  2  0
 30 31  1  0
 31 32  1  0
 32 33  2  0
 33 34  1  0
 34 35  2  0
 35 36  1  0
 36 37  1  0
 37 38  1  0
 38 39  1  0
 39 40  1  0
 40 41  1  0
 35 42  1  0
 42 43  2  0
 31 44  2  0
 44 45  1  0
 45 46  3  0
  9 47  1  0
 47 48  2  0
 48  6  1  0
 44 15  1  0
 29 18  1  0
 43 32  1  0
 27 22  1  0
 41 36  1  0
M  END
>  <Binding energies>  (8) 
[-11.06]

>  <Ligand effiencies>  (8) 
[-0.22571428571428573]

>  <Interactions>  (8) 
["V-A:TYR:539:CE2:4871, V-A:PRO:540:CA:4878, V-A:TYR:539:CE1:4870, V-A:TYR:539:CZ:4872, V-A:PRO:540:CB:4880, V-A:LEU:363:CD1:3184, V-A:TYR:539:CD2:4869, H-A:TYR:539:OH:4873, H-A:LYS:534:NZ:4818, V-A:PRO:540:N:4879, V-A:TYR:531:CZ:4789, V-B:GLU:543:CD:9876, V-A:TYR:539:C:4862, V-A:TYR:531:CE1:4787, V-A:TYR:531:CE2:4788, V-A:GLU:543:CG:4902, H-B:GLY:454:N:9017, V-A:TYR:539:CG:4867, V-B:ILE:369:CD1:8206, V-B:GLU:543:CB:9874, V-B:HIS:456:CE1:9037, V-B:ASP:366:CG:8180, H-A:TYR:539:N:4865, V-A:TYR:539:CD1:4868, H-B:LYS:547:NZ:9919, V-A:HIS:456:CE1:4064, V-B:GLU:543:C:9870, V-A:GLU:543:CB:4901, H-B:TYR:484:OH:9315, V-B:ARG:545:CZ:9894, V-B:ARG:545:CG:9890"]

$$$$
2aa_Ghoteimi_2023
     RDKit          3D

 48 53  0  0  0  0  0  0  0  0999 V2000
  131.4950  132.2760   54.5450 C   0  0  0  0  0  0  0  0  0  0  0  0
  130.1230  132.8950   54.8310 C   0  0  0  0  0  0  0  0  0  0  0  0
  130.1180  133.4420   56.1430 O   0  0  0  0  0  0  0  0  0  0  0  0
  130.2660  132.6480   57.2360 C   0  0  0  0  0  0  0  0  0  0  0  0
  131.3650  132.2830   57.6680 O   0  0  0  0  0  0  0  0  0  0  0  0
  128.9610  132.2710   57.8760 C   0  0  0  0  0  0  0  0  0  0  0  0
  128.1540  131.2450   57.3640 C   0  0  0  0  0  0  0  0  0  0  0  0
  126.9520  130.9150   57.9820 C   0  0  0  0  0  0  0  0  0  0  0  0
  126.5270  131.6080   59.1170 C   0  0  0  0  0  0  0  0  0  0  0  0
  125.2970  131.1910   59.6630 N   0  0  0  0  0  0  0  0  0  0  0  0
  124.2820  131.9250   60.1690 C   0  0  0  0  0  0  0  0  0  0  0  0
  124.2520  133.1560   60.2140 O   0  0  0  0  0  0  0  0  0  0  0  0
  123.0980  131.1010   60.6910 C   0  0  0  0  0  0  0  0  0  0  0  0
  123.3800  130.6380   62.0160 O   0  0  0  0  0  0  0  0  0  0  0  0
  124.5260  129.8940   62.2650 C   0  0  0  0  0  0  0  0  0  0  0  0
  125.1490  129.3040   61.2070 N   0  0  0  0  0  0  0  0  0  0  0  0
  126.2730  128.5740   61.4140 C   0  0  0  0  0  0  0  0  0  0  0  0
  126.8990  127.9510   60.2070 C   0  0  0  0  0  0  0  0  0  0  0  0
  128.2840  127.7700   60.1340 C   0  0  0  0  0  0  0  0  0  0  0  0
  128.8720  127.1850   59.0150 C   0  0  0  0  0  0  0  0  0  0  0  0
  128.0940  126.7470   57.9320 C   0  0  0  0  0  0  0  0  0  0  0  0
  128.6690  126.1690   56.7940 N   0  0  0  0  0  0  0  0  0  0  0  0
  128.5520  124.7220   56.5230 C   0  0  0  0  0  0  0  0  0  0  0  0
  129.5280  124.2100   55.4430 C   0  0  0  0  0  0  0  0  0  0  0  0
  129.3730  124.9630   54.2510 O   0  0  0  0  0  0  0  0  0  0  0  0
  129.6480  126.3390   54.4670 C   0  0  0  0  0  0  0  0  0  0  0  0
  128.6750  126.9140   55.5180 C   0  0  0  0  0  0  0  0  0  0  0  0
  126.7080  126.9510   58.0010 C   0  0  0  0  0  0  0  0  0  0  0  0
  126.1220  127.5380   59.1180 C   0  0  0  0  0  0  0  0  0  0  0  0
  126.7960  128.4020   62.7000 C   0  0  0  0  0  0  0  0  0  0  0  0
  126.1680  128.9880   63.8060 C   0  0  0  0  0  0  0  0  0  0  0  0
  126.7590  128.7480   65.1580 C   0  0  0  0  0  0  0  0  0  0  0  0
  127.8250  129.5300   65.6110 C   0  0  0  0  0  0  0  0  0  0  0  0
  128.3930  129.2980   66.8610 C   0  0  0  0  0  0  0  0  0  0  0  0
  127.9200  128.2670   67.6880 C   0  0  0  0  0  0  0  0  0  0  0  0
  128.4730  128.0190   68.9480 N   0  0  0  0  0  0  0  0  0  0  0  0
  127.6980  127.3470   70.0080 C   0  0  0  0  0  0  0  0  0  0  0  0
  128.5670  126.8470   71.1820 C   0  0  0  0  0  0  0  0  0  0  0  0
  129.3270  127.9210   71.7140 O   0  0  0  0  0  0  0  0  0  0  0  0
  130.1890  128.4850   70.7380 C   0  0  0  0  0  0  0  0  0  0  0  0
  129.3630  129.0290   69.5540 C   0  0  0  0  0  0  0  0  0  0  0  0
  126.8470  127.4930   67.2280 C   0  0  0  0  0  0  0  0  0  0  0  0
  126.2780  127.7250   65.9790 C   0  0  0  0  0  0  0  0  0  0  0  0
  125.0100  129.7680   63.5790 C   0  0  0  0  0  0  0  0  0  0  0  0
  124.3170  130.4590   64.6690 C   0  0  0  0  0  0  0  0  0  0  0  0
  123.7710  131.0050   65.5300 N   0  0  0  0  0  0  0  0  0  0  0  0
  127.3310  132.6310   59.6390 C   0  0  0  0  0  0  0  0  0  0  0  0
  128.5360  132.9560   59.0210 C   0  0  0  0  0  0  0  0  0  0  0  0
  1  2  1  0
  2  3  1  0
  3  4  1  0
  4  5  2  0
  4  6  1  0
  6  7  2  0
  7  8  1  0
  8  9  2  0
  9 10  1  0
 10 11  1  0
 11 12  2  0
 11 13  1  0
 13 14  1  0
 14 15  1  0
 15 16  2  0
 16 17  1  0
 17 18  1  0
 18 19  2  0
 19 20  1  0
 20 21  2  0
 21 22  1  0
 22 23  1  0
 23 24  1  0
 24 25  1  0
 25 26  1  0
 26 27  1  0
 21 28  1  0
 28 29  2  0
 17 30  2  0
 30 31  1  0
 31 32  1  0
 32 33  2  0
 33 34  1  0
 34 35  2  0
 35 36  1  0
 36 37  1  0
 37 38  1  0
 38 39  1  0
 39 40  1  0
 40 41  1  0
 35 42  1  0
 42 43  2  0
 31 44  2  0
 44 45  1  0
 45 46  3  0
  9 47  1  0
 47 48  2  0
 48  6  1  0
 44 15  1  0
 29 18  1  0
 43 32  1  0
 27 22  1  0
 41 36  1  0
M  END
>  <Binding energies>  (9) 
[-10.72]

>  <Ligand effiencies>  (9) 
[-0.21877551020408165]

>  <Interactions>  (9) 
["V-A:TYR:539:CE2:4871, V-A:PRO:540:CA:4878, V-A:ILE:538:CG2:4858, V-A:TYR:539:CE1:4870, V-A:TYR:539:CZ:4872, V-A:ILE:538:CA:4855, V-A:PRO:540:CB:4880, V-A:ILE:538:CD1:4860, V-A:TYR:539:CD2:4869, H-A:LYS:534:NZ:4818, V-B:MET:535:CE:9803, V-A:PRO:540:N:4879, V-B:GLU:543:CD:9876, V-A:TYR:539:C:4862, V-A:PRO:540:CD:4882, V-B:TYR:539:CZ:9845, V-A:TYR:531:CE1:4787, V-A:GLU:543:CG:4902, H-B:GLY:454:N:9017, V-A:TYR:539:CG:4867, V-B:ILE:369:CD1:8206, V-B:ASP:366:CB:8179, V-B:GLU:543:CB:9874, V-B:HIS:456:CE1:9037, V-B:ASP:366:CG:8180, V-B:ASP:366:CA:8177, H-A:TYR:539:N:4865, V-A:TYR:539:CD1:4868, V-B:TYR:539:CE1:9843, V-A:LYS:534:CD:4816, V-B:HIS:456:CD2:9035, V-A:HIS:456:CE1:4064, V-A:GLU:543:C:4897, V-A:GLU:543:CB:4901, H-B:ASP:366:OD1:8181, H-B:TYR:484:OH:9315, V-B:ARG:545:CZ:9894, V-B:ARG:545:CG:9890"]

$$$$
2b_Ghoteimi_2023
     RDKit          3D

 42 47  0  0  0  0  0  0  0  0999 V2000
  130.8740  122.6980   64.3710 N   0  0  0  0  0  0  0  0  0  0  0  0
  130.8500  123.6070   63.6550 C   0  0  0  0  0  0  0  0  0  0  0  0
  130.8200  124.7620   62.7520 C   0  0  0  0  0  0  0  0  0  0  0  0
  130.4690  126.0460   63.2380 C   0  0  0  0  0  0  0  0  0  0  0  0
  130.1150  126.3280   64.6610 C   0  0  0  0  0  0  0  0  0  0  0  0
  130.9340  125.8680   65.6950 C   0  0  0  0  0  0  0  0  0  0  0  0
  130.6080  126.1270   67.0230 C   0  0  0  0  0  0  0  0  0  0  0  0
  129.4430  126.8370   67.3550 C   0  0  0  0  0  0  0  0  0  0  0  0
  129.1020  127.1200   68.6780 N   0  0  0  0  0  0  0  0  0  0  0  0
  129.7880  128.2260   69.3770 C   0  0  0  0  0  0  0  0  0  0  0  0
  129.6030  128.1890   70.9090 C   0  0  0  0  0  0  0  0  0  0  0  0
  128.2210  128.1570   71.2340 O   0  0  0  0  0  0  0  0  0  0  0  0
  127.5800  127.0160   70.6860 C   0  0  0  0  0  0  0  0  0  0  0  0
  127.7060  127.0300   69.1490 C   0  0  0  0  0  0  0  0  0  0  0  0
  128.6260  127.2910   66.3100 C   0  0  0  0  0  0  0  0  0  0  0  0
  128.9540  127.0360   64.9820 C   0  0  0  0  0  0  0  0  0  0  0  0
  130.4590  127.1200   62.3390 C   0  0  0  0  0  0  0  0  0  0  0  0
  130.8180  126.9260   61.0020 C   0  0  0  0  0  0  0  0  0  0  0  0
  130.8520  128.0440   60.0090 C   0  0  0  0  0  0  0  0  0  0  0  0
  131.6040  129.1980   60.2580 C   0  0  0  0  0  0  0  0  0  0  0  0
  131.6540  130.2350   59.3310 C   0  0  0  0  0  0  0  0  0  0  0  0
  130.9410  130.1640   58.1240 C   0  0  0  0  0  0  0  0  0  0  0  0
  131.0050  131.1860   57.1690 N   0  0  0  0  0  0  0  0  0  0  0  0
  129.9150  132.1790   57.0800 C   0  0  0  0  0  0  0  0  0  0  0  0
  129.9200  132.9860   55.7630 C   0  0  0  0  0  0  0  0  0  0  0  0
  131.1860  133.6000   55.5760 O   0  0  0  0  0  0  0  0  0  0  0  0
  132.2240  132.6380   55.4960 C   0  0  0  0  0  0  0  0  0  0  0  0
  132.2870  131.8180   56.8020 C   0  0  0  0  0  0  0  0  0  0  0  0
  130.1940  129.0040   57.8750 C   0  0  0  0  0  0  0  0  0  0  0  0
  130.1480  127.9660   58.8010 C   0  0  0  0  0  0  0  0  0  0  0  0
  131.1540  125.6960   60.5390 N   0  0  0  0  0  0  0  0  0  0  0  0
  131.1400  124.6360   61.3820 C   0  0  0  0  0  0  0  0  0  0  0  0
  131.6010  123.1020   60.6060 S   0  0  0  0  0  0  0  0  0  0  0  0
  131.0530  123.1760   58.8740 C   0  0  0  0  0  0  0  0  0  0  0  0
  129.5900  122.7590   58.7160 C   0  0  0  0  0  0  0  0  0  0  0  0
  128.9760  122.3270   59.6940 O   0  0  0  0  0  0  0  0  0  0  0  0
  129.0770  122.8980   57.4740 N   0  0  0  0  0  0  0  0  0  0  0  0
  127.7850  122.6070   57.0600 C   0  0  0  0  0  0  0  0  0  0  0  0
  126.6540  123.1920   57.6280 C   0  0  0  0  0  0  0  0  0  0  0  0
  125.5900  122.6480   56.9490 C   0  0  0  0  0  0  0  0  0  0  0  0
  126.0550  121.7800   56.0200 O   0  0  0  0  0  0  0  0  0  0  0  0
  127.4490  121.7630   56.0980 N   0  0  0  0  0  0  0  0  0  0  0  0
  1  2  3  0
  2  3  1  0
  3  4  2  0
  4  5  1  0
  5  6  2  0
  6  7  1  0
  7  8  2  0
  8  9  1  0
  9 10  1  0
 10 11  1  0
 11 12  1  0
 12 13  1  0
 13 14  1  0
  8 15  1  0
 15 16  2  0
  4 17  1  0
 17 18  2  0
 18 19  1  0
 19 20  2  0
 20 21  1  0
 21 22  2  0
 22 23  1  0
 23 24  1  0
 24 25  1  0
 25 26  1  0
 26 27  1  0
 27 28  1  0
 22 29  1  0
 29 30  2  0
 18 31  1  0
 31 32  2  0
 32 33  1  0
 33 34  1  0
 34 35  1  0
 35 36  2  0
 35 37  1  0
 37 38  1  0
 38 39  1  0
 39 40  2  0
 40 41  1  0
 41 42  1  0
 32  3  1  0
 42 38  2  0
 16  5  1  0
 30 19  1  0
 14  9  1  0
 28 23  1  0
M  END
>  <Binding energies>  (10) 
[-11.21]

>  <Ligand effiencies>  (10) 
[-0.2606976744186047]

>  <Interactions>  (10) 
["V-A:ILE:538:CG2:4858, V-A:TYR:539:CE1:4870, V-A:ILE:538:CA:4855, V-A:PRO:540:CB:4880, V-A:LEU:363:CD1:3184, H-A:TYR:484:OH:4343, V-B:PRO:540:CA:9851, H-B:TYR:539:OH:9846, V-B:MET:535:CE:9803, H-B:TYR:539:N:9838, V-B:GLU:543:CD:9876, V-B:PRO:540:N:9852, V-B:TYR:539:CE2:9844, V-B:TYR:539:CD2:9842, V-A:PRO:540:CD:4882, V-B:PRO:540:CB:9853, V-B:TYR:539:CZ:9845, V-B:TYR:539:C:9835, V-B:GLU:543:CB:9874, V-B:HIS:456:CE1:9037, H-A:TYR:539:N:4865, V-A:TYR:539:CD1:4868, H-B:LYS:547:NZ:9919, V-A:HIS:456:CE1:4064, V-B:GLY:544:C:9880, V-B:GLU:543:C:9870, V-B:PRO:540:CD:9855"]

$$$$
2c_Ghoteimi_2023
     RDKit          3D

 42 47  0  0  0  0  0  0  0  0999 V2000
  130.7260  122.6720   64.7260 N   0  0  0  0  0  0  0  0  0  0  0  0
  130.7190  123.5620   63.9890 C   0  0  0  0  0  0  0  0  0  0  0  0
  130.7110  124.6960   63.0580 C   0  0  0  0  0  0  0  0  0  0  0  0
  130.3750  125.9970   63.5090 C   0  0  0  0  0  0  0  0  0  0  0  0
  130.0090  126.3200   64.9200 C   0  0  0  0  0  0  0  0  0  0  0  0
  130.8190  125.8860   65.9720 C   0  0  0  0  0  0  0  0  0  0  0  0
  130.4870  126.1870   67.2910 C   0  0  0  0  0  0  0  0  0  0  0  0
  129.3280  126.9180   67.5950 C   0  0  0  0  0  0  0  0  0  0  0  0
  128.9880  127.2480   68.9090 N   0  0  0  0  0  0  0  0  0  0  0  0
  129.7880  128.2570   69.6320 C   0  0  0  0  0  0  0  0  0  0  0  0
  129.5560  128.2400   71.1580 C   0  0  0  0  0  0  0  0  0  0  0  0
  128.1740  128.3920   71.4410 O   0  0  0  0  0  0  0  0  0  0  0  0
  127.4030  127.3470   70.8710 C   0  0  0  0  0  0  0  0  0  0  0  0
  127.5780  127.3390   69.3380 C   0  0  0  0  0  0  0  0  0  0  0  0
  128.5200  127.3460   66.5320 C   0  0  0  0  0  0  0  0  0  0  0  0
  128.8530  127.0460   65.2140 C   0  0  0  0  0  0  0  0  0  0  0  0
  130.3850  127.0460   62.5810 C   0  0  0  0  0  0  0  0  0  0  0  0
  130.7450  126.8130   61.2500 C   0  0  0  0  0  0  0  0  0  0  0  0
  130.7870  127.9020   60.2270 C   0  0  0  0  0  0  0  0  0  0  0  0
  130.1140  127.7640   59.0090 C   0  0  0  0  0  0  0  0  0  0  0  0
  130.1460  128.7770   58.0540 C   0  0  0  0  0  0  0  0  0  0  0  0
  130.8630  129.9630   58.2780 C   0  0  0  0  0  0  0  0  0  0  0  0
  130.8840  131.0010   57.3400 N   0  0  0  0  0  0  0  0  0  0  0  0
  129.8760  132.0780   57.4120 C   0  0  0  0  0  0  0  0  0  0  0  0
  129.7760  132.9200   56.1220 C   0  0  0  0  0  0  0  0  0  0  0  0
  131.0490  133.4430   55.7840 O   0  0  0  0  0  0  0  0  0  0  0  0
  131.9910  132.4080   55.5520 C   0  0  0  0  0  0  0  0  0  0  0  0
  132.1550  131.5460   56.8220 C   0  0  0  0  0  0  0  0  0  0  0  0
  131.5250  130.1020   59.5060 C   0  0  0  0  0  0  0  0  0  0  0  0
  131.4920  129.0890   60.4610 C   0  0  0  0  0  0  0  0  0  0  0  0
  131.0680  125.5660   60.8220 N   0  0  0  0  0  0  0  0  0  0  0  0
  131.0350  124.5290   61.6930 C   0  0  0  0  0  0  0  0  0  0  0  0
  131.4760  122.9700   60.9590 S   0  0  0  0  0  0  0  0  0  0  0  0
  130.8510  122.9740   59.2520 C   0  0  0  0  0  0  0  0  0  0  0  0
  129.3260  122.8750   59.1980 C   0  0  0  0  0  0  0  0  0  0  0  0
  128.7950  122.2020   58.3130 O   0  0  0  0  0  0  0  0  0  0  0  0
  128.6640  123.5590   60.1560 N   0  0  0  0  0  0  0  0  0  0  0  0
  127.2890  123.6160   60.3340 C   0  0  0  0  0  0  0  0  0  0  0  0
  126.5960  123.2540   61.3920 N   0  0  0  0  0  0  0  0  0  0  0  0
  125.3050  123.4530   61.2170 C   0  0  0  0  0  0  0  0  0  0  0  0
  124.9260  123.9890   59.9900 C   0  0  0  0  0  0  0  0  0  0  0  0
  126.3460  124.2430   59.0210 S   0  0  0  0  0  0  0  0  0  0  0  0
  1  2  3  0
  2  3  1  0
  3  4  2  0
  4  5  1  0
  5  6  2  0
  6  7  1  0
  7  8  2  0
  8  9  1  0
  9 10  1  0
 10 11  1  0
 11 12  1  0
 12 13  1  0
 13 14  1  0
  8 15  1  0
 15 16  2  0
  4 17  1  0
 17 18  2  0
 18 19  1  0
 19 20  2  0
 20 21  1  0
 21 22  2  0
 22 23  1  0
 23 24  1  0
 24 25  1  0
 25 26  1  0
 26 27  1  0
 27 28  1  0
 22 29  1  0
 29 30  2  0
 18 31  1  0
 31 32  2  0
 32 33  1  0
 33 34  1  0
 34 35  1  0
 35 36  2  0
 35 37  1  0
 37 38  1  0
 38 39  2  0
 39 40  1  0
 40 41  2  0
 41 42  1  0
 32  3  1  0
 42 38  1  0
 16  5  1  0
 30 19  1  0
 14  9  1  0
 28 23  1  0
M  END
>  <Binding energies>  (11) 
[-10.27]

>  <Ligand effiencies>  (11) 
[-0.23883720930232558]

>  <Interactions>  (11) 
["V-A:ILE:538:CG2:4858, V-A:TYR:539:CE1:4870, V-A:PRO:540:CB:4880, V-A:LEU:363:CD1:3184, H-A:TYR:484:OH:4343, V-B:PRO:540:CA:9851, H-B:GLU:543:OE2:9878, V-A:PRO:540:N:4879, H-B:ALA:541:N:9859, V-B:GLU:543:CD:9876, V-B:TYR:539:CE2:9844, V-A:PRO:540:CD:4882, V-B:PRO:540:CB:9853, V-A:TYR:539:CG:4867, V-B:GLU:543:CB:9874, V-B:HIS:456:CE1:9037, V-B:GLU:543:CG:9875, H-A:TYR:539:N:4865, V-A:TYR:539:CD1:4868, V-B:HIS:456:CD2:9035, H-B:LYS:547:NZ:9919, V-A:HIS:456:CE1:4064, V-B:GLY:544:C:9880, V-B:PRO:540:C:9849"]

$$$$
2j_Grossjean_2025
     RDKit          3D

 23 24  0  0  0  0  0  0  0  0999 V2000
  125.9980  129.6480   54.9340 C   0  0  0  0  0  0  0  0  0  0  0  0
  127.2260  130.5060   55.1730 C   0  0  0  0  0  0  0  0  0  0  0  0
  127.5070  131.0440   56.4270 C   0  0  0  0  0  0  0  0  0  0  0  0
  128.6570  131.8290   56.5990 C   0  0  0  0  0  0  0  0  0  0  0  0
  128.9530  132.4160   57.9920 C   0  0  0  0  0  0  0  0  0  0  0  0
  128.9490  133.7480   57.9360 F   0  0  0  0  0  0  0  0  0  0  0  0
  128.0250  132.0170   58.8630 F   0  0  0  0  0  0  0  0  0  0  0  0
  130.1410  132.0370   58.4700 F   0  0  0  0  0  0  0  0  0  0  0  0
  129.5000  132.0490   55.4810 C   0  0  0  0  0  0  0  0  0  0  0  0
  130.7150  132.8610   55.6030 C   0  0  0  0  0  0  0  0  0  0  0  0
  131.6740  133.5010   55.7000 N   0  0  0  0  0  0  0  0  0  0  0  0
  129.1370  131.4640   54.2440 C   0  0  0  0  0  0  0  0  0  0  0  0
  130.1250  131.6730   52.7690 S   0  0  0  0  0  0  0  0  0  0  0  0
  131.4140  130.3800   52.7530 C   0  0  0  0  0  0  0  0  0  0  0  0
  130.8960  128.9490   52.9560 C   0  0  0  0  0  0  0  0  0  0  0  0
  131.1220  128.0730   52.1190 O   0  0  0  0  0  0  0  0  0  0  0  0
  130.1870  128.7590   54.0910 N   0  0  0  0  0  0  0  0  0  0  0  0
  129.6090  127.5720   54.5200 C   0  0  0  0  0  0  0  0  0  0  0  0
  129.7420  126.3740   53.9930 N   0  0  0  0  0  0  0  0  0  0  0  0
  129.0500  125.4700   54.6610 C   0  0  0  0  0  0  0  0  0  0  0  0
  128.3330  125.9330   55.7600 C   0  0  0  0  0  0  0  0  0  0  0  0
  128.5860  127.6460   55.9180 S   0  0  0  0  0  0  0  0  0  0  0  0
  128.0210  130.7060   54.0980 N   0  0  0  0  0  0  0  0  0  0  0  0
  1  2  1  0
  2  3  2  0
  3  4  1  0
  4  5  1  0
  5  6  1  0
  5  7  1  0
  5  8  1  0
  4  9  2  0
  9 10  1  0
 10 11  3  0
  9 12  1  0
 12 13  1  0
 13 14  1  0
 14 15  1  0
 15 16  2  0
 15 17  1  0
 17 18  1  0
 18 19  2  0
 19 20  1  0
 20 21  2  0
 21 22  1  0
 12 23  2  0
 23  2  1  0
 22 18  1  0
M  END
>  <Binding energies>  (12) 
[-6.51]

>  <Ligand effiencies>  (12) 
[-0.27125]

>  <Interactions>  (12) 
["V-A:TYR:539:CE2:4871, V-A:PRO:540:CA:4878, V-A:MET:535:CG:4828, V-A:TYR:539:CE1:4870, V-A:TYR:539:CZ:4872, V-A:ILE:538:CA:4855, V-A:PRO:540:CB:4880, V-A:ILE:538:CD1:4860, V-A:TYR:539:CD2:4869, H-A:LYS:534:NZ:4818, V-B:MET:535:CE:9803, V-A:PRO:540:N:4879, V-A:TYR:531:CZ:4789, V-A:TYR:539:C:4862, V-A:PRO:540:CD:4882, V-A:TYR:531:CE1:4787, V-A:TYR:539:CG:4867, V-B:TYR:531:CZ:9762, V-A:MET:535:CB:4827, H-A:TYR:539:N:4865, V-A:TYR:539:CA:4864, V-A:TYR:539:CD1:4868, V-A:TYR:531:CD1:4785, V-B:TYR:531:CE1:9760, V-A:TYR:539:CB:4866"]

$$$$
3ab_Grossjean_2025
     RDKit          3D

 33 35  0  0  0  0  0  0  0  0999 V2000
  130.4590  127.9650   52.7860 C   0  0  0  0  0  0  0  0  0  0  0  0
  130.1900  126.6090   53.1140 O   0  0  0  0  0  0  0  0  0  0  0  0
  129.4570  126.2880   54.2110 C   0  0  0  0  0  0  0  0  0  0  0  0
  129.1970  125.1270   54.5400 O   0  0  0  0  0  0  0  0  0  0  0  0
  128.9970  127.4870   54.9890 C   0  0  0  0  0  0  0  0  0  0  0  0
  127.8900  128.2510   54.5900 C   0  0  0  0  0  0  0  0  0  0  0  0
  127.4850  129.3580   55.3310 C   0  0  0  0  0  0  0  0  0  0  0  0
  128.1870  129.7220   56.4910 C   0  0  0  0  0  0  0  0  0  0  0  0
  127.8640  130.8150   57.3180 N   0  0  0  0  0  0  0  0  0  0  0  0
  127.4610  130.8370   58.6060 C   0  0  0  0  0  0  0  0  0  0  0  0
  127.2820  129.8480   59.3170 O   0  0  0  0  0  0  0  0  0  0  0  0
  127.2130  132.2290   59.1920 C   0  0  0  0  0  0  0  0  0  0  0  0
  128.5490  133.3920   58.7830 S   0  0  0  0  0  0  0  0  0  0  0  0
  129.9680  132.4280   58.3050 C   0  0  0  0  0  0  0  0  0  0  0  0
  130.0760  132.2510   56.9670 N   0  0  0  0  0  0  0  0  0  0  0  0
  131.1160  131.5390   56.4610 C   0  0  0  0  0  0  0  0  0  0  0  0
  131.1650  131.3920   54.9690 C   0  0  0  0  0  0  0  0  0  0  0  0
  130.0740  131.7770   54.1730 C   0  0  0  0  0  0  0  0  0  0  0  0
  130.1140  131.6430   52.7870 C   0  0  0  0  0  0  0  0  0  0  0  0
  131.2490  131.1190   52.1770 C   0  0  0  0  0  0  0  0  0  0  0  0
  132.3420  130.7260   52.9420 C   0  0  0  0  0  0  0  0  0  0  0  0
  132.2970  130.8610   54.3270 C   0  0  0  0  0  0  0  0  0  0  0  0
  132.0700  130.9650   57.3080 C   0  0  0  0  0  0  0  0  0  0  0  0
  131.9700  131.1170   58.6980 C   0  0  0  0  0  0  0  0  0  0  0  0
  133.0380  130.4650   59.5970 C   0  0  0  0  0  0  0  0  0  0  0  0
  133.7480  131.3580   60.2890 F   0  0  0  0  0  0  0  0  0  0  0  0
  132.4610  129.6450   60.4770 F   0  0  0  0  0  0  0  0  0  0  0  0
  133.8930  129.7630   58.8500 F   0  0  0  0  0  0  0  0  0  0  0  0
  130.8840  131.8630   59.2210 C   0  0  0  0  0  0  0  0  0  0  0  0
  130.7000  132.0060   60.6680 C   0  0  0  0  0  0  0  0  0  0  0  0
  130.5570  132.1160   61.8110 N   0  0  0  0  0  0  0  0  0  0  0  0
  129.2850  128.9610   56.8930 C   0  0  0  0  0  0  0  0  0  0  0  0
  129.6880  127.8560   56.1500 C   0  0  0  0  0  0  0  0  0  0  0  0
  1  2  1  0
  2  3  1  0
  3  4  2  0
  3  5  1  0
  5  6  2  0
  6  7  1  0
  7  8  2  0
  8  9  1  0
  9 10  1  0
 10 11  2  0
 10 12  1  0
 12 13  1  0
 13 14  1  0
 14 15  2  0
 15 16  1  0
 16 17  1  0
 17 18  2  0
 18 19  1  0
 19 20  2  0
 20 21  1  0
 21 22  2  0
 16 23  2  0
 23 24  1  0
 24 25  1  0
 25 26  1  0
 25 27  1  0
 25 28  1  0
 24 29  2  0
 29 30  1  0
 30 31  3  0
  8 32  1  0
 32 33  2  0
 33  5  1  0
 29 14  1  0
 22 17  1  0
M  END
>  <Binding energies>  (13) 
[-8.37]

>  <Ligand effiencies>  (13) 
[-0.24617647058823527]

>  <Interactions>  (13) 
["V-A:TYR:539:CE2:4871, V-A:PRO:540:CA:4878, V-A:MET:535:CG:4828, V-A:ASP:366:CG:3208, V-A:TYR:539:CZ:4872, V-A:PRO:540:CB:4880, H-A:ALA:541:N:4886, V-A:ILE:538:CD1:4860, V-A:LEU:363:CD1:3184, V-A:TYR:539:CD2:4869, H-A:TYR:539:OH:4873, H-A:LYS:534:NZ:4818, V-A:PRO:540:N:4879, V-A:TYR:531:CZ:4789, V-A:TYR:539:C:4862, V-A:ASP:366:CB:3207, V-A:TYR:531:CE1:4787, V-A:TYR:531:CE2:4788, V-A:MET:535:CB:4827, V-A:LEU:363:CA:3180, V-A:TYR:531:CD2:4786, V-A:TYR:531:C:4779, V-A:LYS:534:CD:4816, V-A:ASN:362:C:3167, V-A:ASN:362:CB:3171, V-A:PRO:540:C:4876, V-A:TYR:531:CD1:4785, V-A:LYS:534:CE:4817, V-A:LYS:534:CB:4814"]

$$$$
3ac_Grossjean_2025
     RDKit          3D

 31 33  0  0  0  0  0  0  0  0999 V2000
  130.5590  132.6600   54.2020 C   0  0  0  0  0  0  0  0  0  0  0  0
  130.8960  133.3870   55.3800 O   0  0  0  0  0  0  0  0  0  0  0  0
  130.6130  132.8380   56.6160 C   0  0  0  0  0  0  0  0  0  0  0  0
  129.4040  133.2130   57.2000 C   0  0  0  0  0  0  0  0  0  0  0  0
  129.0310  132.7080   58.4430 C   0  0  0  0  0  0  0  0  0  0  0  0
  129.8700  131.8260   59.1240 C   0  0  0  0  0  0  0  0  0  0  0  0
  129.3990  131.3530   60.3640 N   0  0  0  0  0  0  0  0  0  0  0  0
  129.7640  131.7220   61.6100 C   0  0  0  0  0  0  0  0  0  0  0  0
  130.5790  132.6050   61.8810 O   0  0  0  0  0  0  0  0  0  0  0  0
  129.0850  130.9600   62.7490 C   0  0  0  0  0  0  0  0  0  0  0  0
  127.2840  130.8470   62.5230 S   0  0  0  0  0  0  0  0  0  0  0  0
  126.5690  130.1150   63.9830 C   0  0  0  0  0  0  0  0  0  0  0  0
  127.3840  129.2130   64.5800 N   0  0  0  0  0  0  0  0  0  0  0  0
  126.9780  128.5770   65.7090 C   0  0  0  0  0  0  0  0  0  0  0  0
  127.9370  127.5890   66.3040 C   0  0  0  0  0  0  0  0  0  0  0  0
  127.8620  127.2440   67.6640 C   0  0  0  0  0  0  0  0  0  0  0  0
  128.7450  126.3240   68.2200 C   0  0  0  0  0  0  0  0  0  0  0  0
  129.7210  125.7350   67.4230 C   0  0  0  0  0  0  0  0  0  0  0  0
  129.8210  126.0620   66.0750 C   0  0  0  0  0  0  0  0  0  0  0  0
  128.9350  126.9840   65.5220 C   0  0  0  0  0  0  0  0  0  0  0  0
  125.7160  128.8270   66.2570 C   0  0  0  0  0  0  0  0  0  0  0  0
  124.8430  129.7390   65.6450 C   0  0  0  0  0  0  0  0  0  0  0  0
  123.4590  129.9790   66.2790 C   0  0  0  0  0  0  0  0  0  0  0  0
  122.4530  129.6420   65.4700 F   0  0  0  0  0  0  0  0  0  0  0  0
  123.3300  129.2580   67.3940 F   0  0  0  0  0  0  0  0  0  0  0  0
  123.3180  131.2710   66.5820 F   0  0  0  0  0  0  0  0  0  0  0  0
  125.2690  130.3960   64.4640 C   0  0  0  0  0  0  0  0  0  0  0  0
  124.3650  131.2980   63.7480 C   0  0  0  0  0  0  0  0  0  0  0  0
  123.6500  132.0100   63.1810 N   0  0  0  0  0  0  0  0  0  0  0  0
  131.0860  131.4380   58.5390 C   0  0  0  0  0  0  0  0  0  0  0  0
  131.4550  131.9440   57.2960 C   0  0  0  0  0  0  0  0  0  0  0  0
  1  2  1  0
  2  3  1  0
  3  4  2  0
  4  5  1  0
  5  6  2  0
  6  7  1  0
  7  8  1  0
  8  9  2  0
  8 10  1  0
 10 11  1  0
 11 12  1  0
 12 13  2  0
 13 14  1  0
 14 15  1  0
 15 16  2  0
 16 17  1  0
 17 18  2  0
 18 19  1  0
 19 20  2  0
 14 21  2  0
 21 22  1  0
 22 23  1  0
 23 24  1  0
 23 25  1  0
 23 26  1  0
 22 27  2  0
 27 28  1  0
 28 29  3  0
  6 30  1  0
 30 31  2  0
 31  3  1  0
 27 12  1  0
 20 15  1  0
M  END
>  <Binding energies>  (14) 
[-8.22]

>  <Ligand effiencies>  (14) 
[-0.256875]

>  <Interactions>  (14) 
["V-A:PRO:540:CA:4878, V-A:TYR:539:CE1:4870, V-A:TYR:539:CZ:4872, V-A:ILE:538:CA:4855, V-A:PRO:540:CB:4880, H-A:ALA:541:N:4886, V-A:ILE:538:CD1:4860, V-A:TYR:539:CD2:4869, V-A:GLU:543:CD:4903, V-A:PRO:540:N:4879, V-B:GLU:543:CD:9876, V-A:TYR:539:C:4862, V-A:PRO:540:CD:4882, V-A:GLU:543:CG:4902, H-B:GLY:454:N:9017, V-A:TYR:539:CG:4867, V-B:GLU:543:CB:9874, V-B:HIS:456:CE1:9037, V-B:GLU:543:CG:9875, H-A:TYR:539:N:4865, V-A:TYR:539:CA:4864, V-A:TYR:539:CD1:4868, V-A:HIS:456:CE1:4064, V-B:GLU:543:C:9870, V-B:TYR:484:CZ:9314, V-B:ARG:545:CZ:9894, V-B:ARG:545:CD:9891, V-B:ARG:545:CG:9890, V-B:ARG:545:CA:9887, V-B:GLY:454:CA:9016, V-B:GLY:453:CA:9011, V-B:ARG:545:CB:9889, V-B:ILE:455:C:9019, V-B:GLY:453:C:9009, V-B:TYR:484:CE2:9313, V-B:GLY:454:C:9014"]

$$$$
3af_Grossjean_2025
     RDKit          3D

 29 31  0  0  0  0  0  0  0  0999 V2000
  130.5360  132.4840   63.2390 N   0  0  0  0  0  0  0  0  0  0  0  0
  130.0530  132.2540   62.2120 C   0  0  0  0  0  0  0  0  0  0  0  0
  129.4420  131.9640   60.9120 C   0  0  0  0  0  0  0  0  0  0  0  0
  128.3760  132.7570   60.4220 C   0  0  0  0  0  0  0  0  0  0  0  0
  127.8310  133.9820   61.1840 C   0  0  0  0  0  0  0  0  0  0  0  0
  128.7610  134.9170   61.3940 F   0  0  0  0  0  0  0  0  0  0  0  0
  126.8430  134.5460   60.4890 F   0  0  0  0  0  0  0  0  0  0  0  0
  127.3660  133.6100   62.3770 F   0  0  0  0  0  0  0  0  0  0  0  0
  127.7870  132.4070   59.1980 C   0  0  0  0  0  0  0  0  0  0  0  0
  128.2480  131.2960   58.4840 C   0  0  0  0  0  0  0  0  0  0  0  0
  127.6430  130.8660   57.1800 C   0  0  0  0  0  0  0  0  0  0  0  0
  126.3220  130.3950   57.1230 C   0  0  0  0  0  0  0  0  0  0  0  0
  125.7540  129.9970   55.9160 C   0  0  0  0  0  0  0  0  0  0  0  0
  126.5020  130.0660   54.7460 C   0  0  0  0  0  0  0  0  0  0  0  0
  127.8120  130.5320   54.7740 C   0  0  0  0  0  0  0  0  0  0  0  0
  128.3760  130.9300   55.9840 C   0  0  0  0  0  0  0  0  0  0  0  0
  129.2680  130.5370   58.9580 N   0  0  0  0  0  0  0  0  0  0  0  0
  129.8680  130.8680   60.1270 C   0  0  0  0  0  0  0  0  0  0  0  0
  131.1930  129.7660   60.5780 S   0  0  0  0  0  0  0  0  0  0  0  0
  132.7610  130.5380   60.0790 C   0  0  0  0  0  0  0  0  0  0  0  0
  132.8410  130.7370   58.5660 C   0  0  0  0  0  0  0  0  0  0  0  0
  133.8180  130.3020   57.9560 O   0  0  0  0  0  0  0  0  0  0  0  0
  131.8030  131.4000   58.0130 N   0  0  0  0  0  0  0  0  0  0  0  0
  131.5740  131.7520   56.6690 C   0  0  0  0  0  0  0  0  0  0  0  0
  132.0450  131.0490   55.5450 C   0  0  0  0  0  0  0  0  0  0  0  0
  131.7440  131.5140   54.2630 C   0  0  0  0  0  0  0  0  0  0  0  0
  130.9780  132.6730   54.1350 C   0  0  0  0  0  0  0  0  0  0  0  0
  130.5110  133.3680   55.2020 N   0  0  0  0  0  0  0  0  0  0  0  0
  130.8130  132.9030   56.4410 C   0  0  0  0  0  0  0  0  0  0  0  0
  1  2  3  0
  2  3  1  0
  3  4  2  0
  4  5  1  0
  5  6  1  0
  5  7  1  0
  5  8  1  0
  4  9  1  0
  9 10  2  0
 10 11  1  0
 11 12  2  0
 12 13  1  0
 13 14  2  0
 14 15  1  0
 15 16  2  0
 10 17  1  0
 17 18  2  0
 18 19  1  0
 19 20  1  0
 20 21  1  0
 21 22  2  0
 21 23  1  0
 23 24  1  0
 24 25  2  0
 25 26  1  0
 26 27  2  0
 27 28  1  0
 28 29  2  0
 18  3  1  0
 29 24  1  0
 16 11  1  0
M  END
>  <Binding energies>  (15) 
[-7.62]

>  <Ligand effiencies>  (15) 
[-0.254]

>  <Interactions>  (15) 
["V-A:TYR:539:CE2:4871, V-A:PRO:540:CA:4878, V-A:ILE:538:CG2:4858, V-A:MET:535:CG:4828, H-A:TYR:531:OH:4790, V-A:TYR:539:CE1:4870, V-A:TYR:539:CZ:4872, V-B:LEU:475:CD2:9226, V-A:ILE:538:CA:4855, V-A:PRO:540:CB:4880, H-A:ALA:541:N:4886, V-A:ALA:541:CB:4887, V-A:ILE:538:CD1:4860, V-A:LEU:363:CD1:3184, V-A:TYR:539:CD2:4869, V-A:ILE:538:CB:4857, V-A:PRO:540:N:4879, V-A:TYR:531:CZ:4789, V-A:TYR:539:C:4862, V-A:PRO:540:CD:4882, V-A:TYR:531:CE2:4788, V-A:GLU:543:CG:4902, V-B:TYR:531:CZ:9762, H-A:TYR:539:N:4865, V-A:ALA:541:CA:4885, V-A:PRO:540:C:4876, V-B:TYR:531:CE1:9760"]

$$$$
3ag_Grossjean_2025
     RDKit          3D

 30 32  0  0  0  0  0  0  0  0999 V2000
  124.1180  132.8280   61.1730 N   0  0  0  0  0  0  0  0  0  0  0  0
  125.1280  132.7330   60.6150 C   0  0  0  0  0  0  0  0  0  0  0  0
  126.4080  132.6160   59.9110 C   0  0  0  0  0  0  0  0  0  0  0  0
  127.4970  133.4580   60.2450 C   0  0  0  0  0  0  0  0  0  0  0  0
  127.4300  134.4920   61.3860 C   0  0  0  0  0  0  0  0  0  0  0  0
  127.0390  133.9590   62.5450 F   0  0  0  0  0  0  0  0  0  0  0  0
  128.6340  135.0330   61.5780 F   0  0  0  0  0  0  0  0  0  0  0  0
  126.5650  135.4590   61.0800 F   0  0  0  0  0  0  0  0  0  0  0  0
  128.6850  133.3440   59.5060 C   0  0  0  0  0  0  0  0  0  0  0  0
  128.7780  132.4240   58.4560 C   0  0  0  0  0  0  0  0  0  0  0  0
  130.0200  132.2620   57.6330 C   0  0  0  0  0  0  0  0  0  0  0  0
  131.0010  131.3240   57.9920 C   0  0  0  0  0  0  0  0  0  0  0  0
  132.1570  131.1680   57.2320 C   0  0  0  0  0  0  0  0  0  0  0  0
  132.3480  131.9510   56.0980 C   0  0  0  0  0  0  0  0  0  0  0  0
  131.3920  132.8890   55.7220 C   0  0  0  0  0  0  0  0  0  0  0  0
  130.2390  133.0430   56.4840 C   0  0  0  0  0  0  0  0  0  0  0  0
  127.7360  131.6090   58.1470 N   0  0  0  0  0  0  0  0  0  0  0  0
  126.5870  131.6890   58.8610 C   0  0  0  0  0  0  0  0  0  0  0  0
  125.3340  130.5470   58.3190 S   0  0  0  0  0  0  0  0  0  0  0  0
  126.0910  129.4640   57.0710 C   0  0  0  0  0  0  0  0  0  0  0  0
  126.3860  130.2050   55.7660 C   0  0  0  0  0  0  0  0  0  0  0  0
  125.5060  130.3170   54.9100 O   0  0  0  0  0  0  0  0  0  0  0  0
  127.6250  130.7100   55.6320 N   0  0  0  0  0  0  0  0  0  0  0  0
  128.1080  131.4810   54.4870 C   0  0  0  0  0  0  0  0  0  0  0  0
  129.3270  130.8760   53.7990 C   0  0  0  0  0  0  0  0  0  0  0  0
  130.0930  131.6570   52.9300 C   0  0  0  0  0  0  0  0  0  0  0  0
  131.2240  131.1180   52.3240 C   0  0  0  0  0  0  0  0  0  0  0  0
  131.5910  129.8010   52.5950 C   0  0  0  0  0  0  0  0  0  0  0  0
  130.8400  129.0210   53.4720 C   0  0  0  0  0  0  0  0  0  0  0  0
  129.7100  129.5600   54.0800 C   0  0  0  0  0  0  0  0  0  0  0  0
  1  2  3  0
  2  3  1  0
  3  4  2  0
  4  5  1  0
  5  6  1  0
  5  7  1  0
  5  8  1  0
  4  9  1  0
  9 10  2  0
 10 11  1  0
 11 12  2  0
 12 13  1  0
 13 14  2  0
 14 15  1  0
 15 16  2  0
 10 17  1  0
 17 18  2  0
 18 19  1  0
 19 20  1  0
 20 21  1  0
 21 22  2  0
 21 23  1  0
 23 24  1  0
 24 25  1  0
 25 26  2  0
 26 27  1  0
 27 28  2  0
 28 29  1  0
 29 30  2  0
 18  3  1  0
 30 25  1  0
 16 11  1  0
M  END
>  <Binding energies>  (16) 
[-8.02]

>  <Ligand effiencies>  (16) 
[-0.2587096774193548]

>  <Interactions>  (16) 
["V-A:TYR:539:CE2:4871, V-A:PRO:540:CA:4878, V-A:ILE:538:CG2:4858, V-A:MET:535:CG:4828, V-A:TYR:539:CE1:4870, V-A:TYR:539:CZ:4872, V-B:LEU:475:CD2:9226, V-A:ILE:538:CA:4855, V-A:PRO:540:CB:4880, H-B:TYR:531:OH:9763, V-A:ALA:541:CB:4887, V-A:ILE:538:CD1:4860, V-A:LEU:363:CD1:3184, V-B:LEU:475:CD1:9225, V-A:TYR:539:CD2:4869, H-A:TYR:539:OH:4873, V-A:PRO:540:N:4879, V-A:TYR:531:CZ:4789, V-A:TYR:539:C:4862, V-A:PRO:540:CD:4882, V-A:TYR:531:CE1:4787, V-A:TYR:531:CE2:4788, V-B:TRP:381:CH2:8339, V-A:MET:535:CB:4827, V-A:ALA:541:CA:4885, V-A:TYR:539:CA:4864, V-A:TYR:531:C:4779, V-A:TYR:539:CD1:4868, V-A:PRO:540:C:4876, V-B:TRP:381:CZ2:8337, V-A:TYR:531:CD1:4785"]

$$$$
3bc_Grossjean_2025
     RDKit          3D

 28 30  0  0  0  0  0  0  0  0999 V2000
  130.4720  124.7830   55.1110 C   0  0  0  0  0  0  0  0  0  0  0  0
  129.8010  125.7390   54.2980 O   0  0  0  0  0  0  0  0  0  0  0  0
  129.3000  126.8870   54.8820 C   0  0  0  0  0  0  0  0  0  0  0  0
  129.7520  127.1780   56.1690 C   0  0  0  0  0  0  0  0  0  0  0  0
  129.3020  128.3120   56.8400 C   0  0  0  0  0  0  0  0  0  0  0  0
  128.3840  129.1700   56.2310 C   0  0  0  0  0  0  0  0  0  0  0  0
  127.9980  130.2980   56.9800 N   0  0  0  0  0  0  0  0  0  0  0  0
  127.4930  130.3570   58.2310 C   0  0  0  0  0  0  0  0  0  0  0  0
  127.3180  129.3820   58.9640 O   0  0  0  0  0  0  0  0  0  0  0  0
  127.1720  131.7740   58.7270 C   0  0  0  0  0  0  0  0  0  0  0  0
  128.4750  133.0160   58.4240 S   0  0  0  0  0  0  0  0  0  0  0  0
  129.9880  132.1440   58.0810 C   0  0  0  0  0  0  0  0  0  0  0  0
  130.2170  131.9500   56.7590 N   0  0  0  0  0  0  0  0  0  0  0  0
  131.3390  131.2990   56.3550 C   0  0  0  0  0  0  0  0  0  0  0  0
  131.5080  131.1060   54.8770 C   0  0  0  0  0  0  0  0  0  0  0  0
  130.3940  131.0920   54.0250 C   0  0  0  0  0  0  0  0  0  0  0  0
  130.5430  130.9140   52.6510 C   0  0  0  0  0  0  0  0  0  0  0  0
  131.8140  130.7450   52.1120 C   0  0  0  0  0  0  0  0  0  0  0  0
  132.9350  130.7520   52.9360 C   0  0  0  0  0  0  0  0  0  0  0  0
  132.7810  130.9300   54.3080 C   0  0  0  0  0  0  0  0  0  0  0  0
  132.2670  130.8220   57.2870 C   0  0  0  0  0  0  0  0  0  0  0  0
  132.0570  131.0340   58.6540 C   0  0  0  0  0  0  0  0  0  0  0  0
  133.1060  130.5110   59.6340 C   0  0  0  0  0  0  0  0  0  0  0  0
  130.8970  131.7200   59.0760 C   0  0  0  0  0  0  0  0  0  0  0  0
  130.6810  131.9970   60.4970 C   0  0  0  0  0  0  0  0  0  0  0  0
  130.5120  132.2140   61.6210 N   0  0  0  0  0  0  0  0  0  0  0  0
  127.9350  128.8930   54.9320 C   0  0  0  0  0  0  0  0  0  0  0  0
  128.3870  127.7570   54.2650 C   0  0  0  0  0  0  0  0  0  0  0  0
  1  2  1  0
  2  3  1  0
  3  4  2  0
  4  5  1  0
  5  6  2  0
  6  7  1  0
  7  8  1  0
  8  9  2  0
  8 10  1  0
 10 11  1  0
 11 12  1  0
 12 13  2  0
 13 14  1  0
 14 15  1  0
 15 16  2  0
 16 17  1  0
 17 18  2  0
 18 19  1  0
 19 20  2  0
 14 21  2  0
 21 22  1  0
 22 23  1  0
 22 24  2  0
 24 25  1  0
 25 26  3  0
  6 27  1  0
 27 28  2  0
 28  3  1  0
 24 12  1  0
 20 15  1  0
M  END
>  <Binding energies>  (17) 
[-7.97]

>  <Ligand effiencies>  (17) 
[-0.27482758620689657]

>  <Interactions>  (17) 
["V-A:TYR:539:CE2:4871, V-A:PRO:540:CA:4878, V-A:MET:535:CG:4828, V-A:TYR:539:CZ:4872, V-A:PRO:540:CB:4880, H-A:ALA:541:N:4886, V-A:ILE:538:CD1:4860, V-A:LEU:363:CD1:3184, H-A:LYS:534:NZ:4818, V-A:PRO:540:N:4879, V-A:TYR:531:CZ:4789, V-B:TYR:539:CZ:9845, V-A:TYR:531:CE1:4787, V-A:TYR:531:CE2:4788, V-A:MET:535:CB:4827, V-A:TYR:531:CD2:4786, V-A:ILE:532:CA:4795, V-A:TYR:531:CG:4784, V-A:TYR:531:C:4779, V-A:PRO:540:C:4876, V-A:TYR:531:CD1:4785"]

$$$$
3bd_Grossjean_2025
     RDKit          3D

 26 28  0  0  0  0  0  0  0  0999 V2000
  125.3940  129.9690   57.5920 C   0  0  0  0  0  0  0  0  0  0  0  0
  126.5110  130.9520   57.9370 C   0  0  0  0  0  0  0  0  0  0  0  0
  127.5610  131.1080   57.0240 C   0  0  0  0  0  0  0  0  0  0  0  0
  128.6050  131.9960   57.3060 C   0  0  0  0  0  0  0  0  0  0  0  0
  129.7570  132.2140   56.3700 C   0  0  0  0  0  0  0  0  0  0  0  0
  130.9650  132.7600   56.8340 C   0  0  0  0  0  0  0  0  0  0  0  0
  132.0380  132.9660   55.9710 C   0  0  0  0  0  0  0  0  0  0  0  0
  131.9170  132.6290   54.6260 C   0  0  0  0  0  0  0  0  0  0  0  0
  130.7300  132.0900   54.1410 C   0  0  0  0  0  0  0  0  0  0  0  0
  129.6600  131.8850   55.0070 C   0  0  0  0  0  0  0  0  0  0  0  0
  128.6090  132.7240   58.4520 N   0  0  0  0  0  0  0  0  0  0  0  0
  127.5990  132.5850   59.3490 C   0  0  0  0  0  0  0  0  0  0  0  0
  127.7270  133.5890   60.8200 S   0  0  0  0  0  0  0  0  0  0  0  0
  128.3950  132.5500   62.1540 C   0  0  0  0  0  0  0  0  0  0  0  0
  129.8790  132.2430   61.9540 C   0  0  0  0  0  0  0  0  0  0  0  0
  130.6760  132.5280   62.8480 O   0  0  0  0  0  0  0  0  0  0  0  0
  130.2050  131.6790   60.7700 N   0  0  0  0  0  0  0  0  0  0  0  0
  131.4670  131.2600   60.3070 C   0  0  0  0  0  0  0  0  0  0  0  0
  131.4770  130.5680   59.0930 C   0  0  0  0  0  0  0  0  0  0  0  0
  132.6780  130.1070   58.5590 C   0  0  0  0  0  0  0  0  0  0  0  0
  133.8690  130.3300   59.2440 C   0  0  0  0  0  0  0  0  0  0  0  0
  133.8700  131.0070   60.4620 C   0  0  0  0  0  0  0  0  0  0  0  0
  132.6710  131.4700   60.9970 C   0  0  0  0  0  0  0  0  0  0  0  0
  126.5200  131.7020   59.1320 C   0  0  0  0  0  0  0  0  0  0  0  0
  125.4350  131.5620   60.1080 C   0  0  0  0  0  0  0  0  0  0  0  0
  124.5770  131.4520   60.8760 N   0  0  0  0  0  0  0  0  0  0  0  0
  1  2  1  0
  2  3  2  0
  3  4  1  0
  4  5  1  0
  5  6  2  0
  6  7  1  0
  7  8  2  0
  8  9  1  0
  9 10  2  0
  4 11  2  0
 11 12  1  0
 12 13  1  0
 13 14  1  0
 14 15  1  0
 15 16  2  0
 15 17  1  0
 17 18  1  0
 18 19  2  0
 19 20  1  0
 20 21  2  0
 21 22  1  0
 22 23  2  0
 12 24  2  0
 24 25  1  0
 25 26  3  0
 24  2  1  0
 10  5  1  0
 23 18  1  0
M  END
>  <Binding energies>  (18) 
[-8.22]

>  <Ligand effiencies>  (18) 
[-0.30444444444444446]

>  <Interactions>  (18) 
["V-A:TYR:539:CE2:4871, V-A:PRO:540:CA:4878, V-A:ILE:538:CG2:4858, V-A:ASP:366:CG:3208, V-A:TYR:539:CE1:4870, V-A:TYR:539:CZ:4872, V-A:ILE:538:CA:4855, V-A:PRO:540:CB:4880, H-A:ALA:541:N:4886, V-A:ALA:541:CB:4887, V-A:ILE:538:CD1:4860, V-A:LEU:363:CD1:3184, V-A:TYR:539:CD2:4869, V-A:ILE:538:CB:4857, V-A:PRO:540:CG:4881, V-A:PRO:540:N:4879, V-A:TYR:539:C:4862, V-A:PRO:540:CD:4882, V-A:TYR:531:CE2:4788, V-A:LEU:363:CA:3180, V-A:TYR:539:CD1:4868, V-A:ASN:362:C:3167, V-A:ASN:362:CB:3171"]

$$$$
3be_Grossjean_2025
     RDKit          3D

 27 29  0  0  0  0  0  0  0  0999 V2000
  132.9920  130.0120   57.9170 C   0  0  0  0  0  0  0  0  0  0  0  0
  132.7570  130.6720   59.2620 C   0  0  0  0  0  0  0  0  0  0  0  0
  133.7920  130.8410   60.1850 C   0  0  0  0  0  0  0  0  0  0  0  0
  133.5020  131.4540   61.4040 C   0  0  0  0  0  0  0  0  0  0  0  0
  132.1980  131.8810   61.6680 C   0  0  0  0  0  0  0  0  0  0  0  0
  131.2090  131.6850   60.6980 C   0  0  0  0  0  0  0  0  0  0  0  0
  129.9140  132.1270   61.0280 N   0  0  0  0  0  0  0  0  0  0  0  0
  129.4450  132.5530   62.2210 C   0  0  0  0  0  0  0  0  0  0  0  0
  130.1130  132.6150   63.2540 O   0  0  0  0  0  0  0  0  0  0  0  0
  127.9670  132.9740   62.2170 C   0  0  0  0  0  0  0  0  0  0  0  0
  127.4150  133.8540   60.7160 S   0  0  0  0  0  0  0  0  0  0  0  0
  127.3520  132.6800   59.3790 C   0  0  0  0  0  0  0  0  0  0  0  0
  128.3630  132.8180   58.4870 N   0  0  0  0  0  0  0  0  0  0  0  0
  128.4410  131.9830   57.4170 C   0  0  0  0  0  0  0  0  0  0  0  0
  129.5820  132.2110   56.4700 C   0  0  0  0  0  0  0  0  0  0  0  0
  129.4170  132.0240   55.0880 C   0  0  0  0  0  0  0  0  0  0  0  0
  130.4720  132.2310   54.2050 C   0  0  0  0  0  0  0  0  0  0  0  0
  131.7120  132.6290   54.6930 C   0  0  0  0  0  0  0  0  0  0  0  0
  131.9040  132.8190   56.0570 C   0  0  0  0  0  0  0  0  0  0  0  0
  130.8450  132.6100   56.9370 C   0  0  0  0  0  0  0  0  0  0  0  0
  127.4850  130.9810   57.2180 C   0  0  0  0  0  0  0  0  0  0  0  0
  126.4490  130.8110   58.1420 C   0  0  0  0  0  0  0  0  0  0  0  0
  125.4380  129.6920   57.8930 C   0  0  0  0  0  0  0  0  0  0  0  0
  126.3740  131.6670   59.2620 C   0  0  0  0  0  0  0  0  0  0  0  0
  125.3290  131.4710   60.2690 C   0  0  0  0  0  0  0  0  0  0  0  0
  124.5030  131.3140   61.0650 N   0  0  0  0  0  0  0  0  0  0  0  0
  131.4860  131.0820   59.5050 N   0  0  0  0  0  0  0  0  0  0  0  0
  1  2  1  0
  2  3  2  0
  3  4  1  0
  4  5  2  0
  5  6  1  0
  6  7  1  0
  7  8  1  0
  8  9  2  0
  8 10  1  0
 10 11  1  0
 11 12  1  0
 12 13  2  0
 13 14  1  0
 14 15  1  0
 15 16  2  0
 16 17  1  0
 17 18  2  0
 18 19  1  0
 19 20  2  0
 14 21  2  0
 21 22  1  0
 22 23  1  0
 22 24  2  0
 24 25  1  0
 25 26  3  0
  6 27  2  0
 27  2  1  0
 24 12  1  0
 20 15  1  0
M  END
>  <Binding energies>  (19) 
[-8.14]

>  <Ligand effiencies>  (19) 
[-0.29071428571428576]

>  <Interactions>  (19) 
["V-A:TYR:539:CE2:4871, V-A:PRO:540:CA:4878, V-A:ILE:538:CG2:4858, V-A:TYR:539:CE1:4870, V-A:TYR:539:CZ:4872, V-A:ILE:538:CA:4855, V-A:PRO:540:CB:4880, H-A:ALA:541:N:4886, V-A:ALA:541:CB:4887, V-A:ILE:538:CD1:4860, V-A:LEU:363:CD1:3184, V-A:TYR:539:CD2:4869, V-A:ILE:538:CB:4857, V-A:GLU:543:CD:4903, V-A:PRO:540:CG:4881, V-A:PRO:540:N:4879, V-A:TYR:531:CZ:4789, V-A:TYR:539:C:4862, V-A:PRO:540:CD:4882, V-A:TYR:531:CE2:4788, V-B:ASP:366:CB:8179, V-A:LEU:363:CA:3180, V-A:ALA:541:CA:4885, V-A:TYR:539:CD1:4868, V-A:ASN:362:C:3167, V-A:ASN:362:CB:3171, V-A:PRO:540:C:4876"]

$$$$
3bf_Grossjean_2025
     RDKit          3D

 26 28  0  0  0  0  0  0  0  0999 V2000
  125.4570  130.0010   57.6730 C   0  0  0  0  0  0  0  0  0  0  0  0
  126.5740  130.9840   58.0140 C   0  0  0  0  0  0  0  0  0  0  0  0
  127.6330  131.1180   57.1100 C   0  0  0  0  0  0  0  0  0  0  0  0
  128.6710  132.0180   57.3760 C   0  0  0  0  0  0  0  0  0  0  0  0
  129.8220  132.2240   56.4380 C   0  0  0  0  0  0  0  0  0  0  0  0
  129.6660  132.0220   55.0580 C   0  0  0  0  0  0  0  0  0  0  0  0
  130.7310  132.2100   54.1810 C   0  0  0  0  0  0  0  0  0  0  0  0
  131.9700  132.6060   54.6750 C   0  0  0  0  0  0  0  0  0  0  0  0
  132.1510  132.8120   56.0380 C   0  0  0  0  0  0  0  0  0  0  0  0
  131.0840  132.6200   56.9120 C   0  0  0  0  0  0  0  0  0  0  0  0
  128.6670  132.7710   58.5080 N   0  0  0  0  0  0  0  0  0  0  0  0
  127.6600  132.6350   59.4060 C   0  0  0  0  0  0  0  0  0  0  0  0
  127.8240  133.6940   60.8280 S   0  0  0  0  0  0  0  0  0  0  0  0
  128.5240  132.7050   62.1920 C   0  0  0  0  0  0  0  0  0  0  0  0
  129.9760  132.2450   61.9870 C   0  0  0  0  0  0  0  0  0  0  0  0
  130.8070  132.3650   62.8890 O   0  0  0  0  0  0  0  0  0  0  0  0
  130.2260  131.6920   60.7800 N   0  0  0  0  0  0  0  0  0  0  0  0
  131.4380  131.1860   60.2750 C   0  0  0  0  0  0  0  0  0  0  0  0
  132.6020  131.4820   60.9930 C   0  0  0  0  0  0  0  0  0  0  0  0
  133.8340  130.9970   60.5500 C   0  0  0  0  0  0  0  0  0  0  0  0
  133.8670  130.2180   59.3930 C   0  0  0  0  0  0  0  0  0  0  0  0
  132.7540  129.9070   58.6830 N   0  0  0  0  0  0  0  0  0  0  0  0
  131.5620  130.3860   59.1260 C   0  0  0  0  0  0  0  0  0  0  0  0
  126.5720  131.7600   59.1930 C   0  0  0  0  0  0  0  0  0  0  0  0
  125.4470  131.6720   60.1290 C   0  0  0  0  0  0  0  0  0  0  0  0
  124.5590  131.6010   60.8680 N   0  0  0  0  0  0  0  0  0  0  0  0
  1  2  1  0
  2  3  2  0
  3  4  1  0
  4  5  1  0
  5  6  2  0
  6  7  1  0
  7  8  2  0
  8  9  1  0
  9 10  2  0
  4 11  2  0
 11 12  1  0
 12 13  1  0
 13 14  1  0
 14 15  1  0
 15 16  2  0
 15 17  1  0
 17 18  1  0
 18 19  2  0
 19 20  1  0
 20 21  2  0
 21 22  1  0
 22 23  2  0
 12 24  2  0
 24 25  1  0
 25 26  3  0
 24  2  1  0
 10  5  1  0
 23 18  1  0
M  END
>  <Binding energies>  (20) 
[-7.89]

>  <Ligand effiencies>  (20) 
[-0.2922222222222222]

>  <Interactions>  (20) 
["V-A:TYR:539:CE2:4871, V-A:PRO:540:CA:4878, V-A:ILE:538:CG2:4858, V-A:ASP:366:CG:3208, H-A:TYR:531:OH:4790, V-A:TYR:539:CE1:4870, V-A:TYR:539:CZ:4872, V-A:ILE:538:CA:4855, V-A:PRO:540:CB:4880, H-A:ALA:541:N:4886, V-A:ALA:541:CB:4887, V-A:ILE:538:CD1:4860, V-A:LEU:363:CD1:3184, V-A:TYR:539:CD2:4869, V-A:ILE:538:CB:4857, V-A:PRO:540:CG:4881, V-A:PRO:540:N:4879, V-A:ASP:366:CB:3207, V-A:PRO:540:CD:4882, V-A:LEU:363:CA:3180, V-A:TYR:539:CD1:4868, V-A:ASN:362:C:3167, V-A:ASN:362:CB:3171"]

$$$$
3bg_Grossjean_2025
     RDKit          3D

 27 29  0  0  0  0  0  0  0  0999 V2000
  129.2370  126.4780   54.4780 C   0  0  0  0  0  0  0  0  0  0  0  0
  128.8460  127.9420   54.6680 C   0  0  0  0  0  0  0  0  0  0  0  0
  127.8820  128.2490   55.6340 C   0  0  0  0  0  0  0  0  0  0  0  0
  127.5000  129.5800   55.8470 C   0  0  0  0  0  0  0  0  0  0  0  0
  126.4790  129.9790   56.8770 C   0  0  0  0  0  0  0  0  0  0  0  0
  126.8710  130.4550   58.1390 C   0  0  0  0  0  0  0  0  0  0  0  0
  125.9300  130.8420   59.0890 C   0  0  0  0  0  0  0  0  0  0  0  0
  124.5740  130.7550   58.7920 C   0  0  0  0  0  0  0  0  0  0  0  0
  124.1560  130.2770   57.5560 C   0  0  0  0  0  0  0  0  0  0  0  0
  125.1010  129.8890   56.6100 C   0  0  0  0  0  0  0  0  0  0  0  0
  128.0720  130.5850   55.1330 N   0  0  0  0  0  0  0  0  0  0  0  0
  129.0110  130.3050   54.1930 C   0  0  0  0  0  0  0  0  0  0  0  0
  129.7080  131.7180   53.3500 S   0  0  0  0  0  0  0  0  0  0  0  0
  131.2100  132.2330   54.2440 C   0  0  0  0  0  0  0  0  0  0  0  0
  130.9050  132.6250   55.6930 C   0  0  0  0  0  0  0  0  0  0  0  0
  131.2420  133.7330   56.1130 O   0  0  0  0  0  0  0  0  0  0  0  0
  130.2900  131.6980   56.4470 N   0  0  0  0  0  0  0  0  0  0  0  0
  130.0690  131.7870   57.8910 C   0  0  0  0  0  0  0  0  0  0  0  0
  131.3030  131.3660   58.6800 C   0  0  0  0  0  0  0  0  0  0  0  0
  131.3170  131.4830   60.0740 C   0  0  0  0  0  0  0  0  0  0  0  0
  132.4470  131.1080   60.7940 C   0  0  0  0  0  0  0  0  0  0  0  0
  133.5580  130.6050   60.1190 C   0  0  0  0  0  0  0  0  0  0  0  0
  133.5450  130.4660   58.7330 C   0  0  0  0  0  0  0  0  0  0  0  0
  132.4140  130.8430   58.0130 C   0  0  0  0  0  0  0  0  0  0  0  0
  129.4270  128.9860   53.9180 C   0  0  0  0  0  0  0  0  0  0  0  0
  130.4450  128.6970   52.9050 C   0  0  0  0  0  0  0  0  0  0  0  0
  131.2480  128.4670   52.1050 N   0  0  0  0  0  0  0  0  0  0  0  0
  1  2  1  0
  2  3  2  0
  3  4  1  0
  4  5  1  0
  5  6  2  0
  6  7  1  0
  7  8  2  0
  8  9  1  0
  9 10  2  0
  4 11  2  0
 11 12  1  0
 12 13  1  0
 13 14  1  0
 14 15  1  0
 15 16  2  0
 15 17  1  0
 17 18  1  0
 18 19  1  0
 19 20  2  0
 20 21  1  0
 21 22  2  0
 22 23  1  0
 23 24  2  0
 12 25  2  0
 25 26  1  0
 26 27  3  0
 25  2  1  0
 10  5  1  0
 24 19  1  0
M  END
>  <Binding energies>  (21) 
[-8.18]

>  <Ligand effiencies>  (21) 
[-0.29214285714285715]

>  <Interactions>  (21) 
["V-A:PRO:540:CA:4878, V-A:MET:535:CG:4828, V-A:TYR:539:CZ:4872, V-A:ILE:538:CA:4855, V-A:PRO:540:CB:4880, V-A:ILE:538:CD1:4860, V-A:LEU:363:CD1:3184, V-A:PRO:540:CD:4882, V-A:TYR:531:CE1:4787, V-A:TYR:531:CE2:4788, V-B:ASP:366:CB:8179, V-B:TYR:531:CZ:9762, V-B:ASP:366:CA:8177, V-A:MET:535:CB:4827, V-A:LEU:363:CA:3180, H-A:TYR:539:N:4865, V-A:ASN:362:C:3167, V-A:ASN:362:CB:3171, V-A:TYR:531:CD1:4785, V-B:TYR:531:CE1:9760, V-B:ASP:366:C:8175, V-A:LYS:534:CB:4814"]

$$$$
3ca_Grossjean_2025
     RDKit          3D

 31 33  0  0  0  0  0  0  0  0999 V2000
  129.5520  132.1120   53.9330 C   0  0  0  0  0  0  0  0  0  0  0  0
  130.4890  132.9550   54.8020 C   0  0  0  0  0  0  0  0  0  0  0  0
  129.7990  133.3770   55.9720 O   0  0  0  0  0  0  0  0  0  0  0  0
  130.0270  132.7870   57.1720 C   0  0  0  0  0  0  0  0  0  0  0  0
  131.1580  132.5840   57.6270 O   0  0  0  0  0  0  0  0  0  0  0  0
  128.7680  132.4100   57.8980 C   0  0  0  0  0  0  0  0  0  0  0  0
  127.9200  131.4440   57.3410 C   0  0  0  0  0  0  0  0  0  0  0  0
  126.7450  131.0740   57.9900 C   0  0  0  0  0  0  0  0  0  0  0  0
  126.3900  131.6660   59.2030 C   0  0  0  0  0  0  0  0  0  0  0  0
  125.1840  131.2180   59.7740 N   0  0  0  0  0  0  0  0  0  0  0  0
  123.9240  131.6690   59.5910 C   0  0  0  0  0  0  0  0  0  0  0  0
  123.5980  132.5860   58.8370 O   0  0  0  0  0  0  0  0  0  0  0  0
  122.8430  130.9350   60.3910 C   0  0  0  0  0  0  0  0  0  0  0  0
  123.1520  130.9390   62.1880 S   0  0  0  0  0  0  0  0  0  0  0  0
  124.5030  129.8340   62.5740 C   0  0  0  0  0  0  0  0  0  0  0  0
  125.0840  129.2220   61.5120 N   0  0  0  0  0  0  0  0  0  0  0  0
  126.1250  128.3890   61.7270 C   0  0  0  0  0  0  0  0  0  0  0  0
  126.7310  127.7570   60.4890 C   0  0  0  0  0  0  0  0  0  0  0  0
  126.6190  128.1200   63.0020 C   0  0  0  0  0  0  0  0  0  0  0  0
  126.0250  128.7260   64.1170 C   0  0  0  0  0  0  0  0  0  0  0  0
  126.5790  128.3980   65.4650 C   0  0  0  0  0  0  0  0  0  0  0  0
  125.8800  127.5410   66.3230 C   0  0  0  0  0  0  0  0  0  0  0  0
  126.3830  127.2370   67.5840 C   0  0  0  0  0  0  0  0  0  0  0  0
  127.5910  127.7940   67.9960 C   0  0  0  0  0  0  0  0  0  0  0  0
  128.2970  128.6540   67.1580 C   0  0  0  0  0  0  0  0  0  0  0  0
  127.7890  128.9570   65.8970 C   0  0  0  0  0  0  0  0  0  0  0  0
  124.9420  129.6170   63.9020 C   0  0  0  0  0  0  0  0  0  0  0  0
  124.3140  130.3200   65.0260 C   0  0  0  0  0  0  0  0  0  0  0  0
  123.8190  130.8740   65.9130 N   0  0  0  0  0  0  0  0  0  0  0  0
  127.2370  132.6290   59.7720 C   0  0  0  0  0  0  0  0  0  0  0  0
  128.4130  132.9960   59.1230 C   0  0  0  0  0  0  0  0  0  0  0  0
  1  2  1  0
  2  3  1  0
  3  4  1  0
  4  5  2  0
  4  6  1  0
  6  7  2  0
  7  8  1  0
  8  9  2  0
  9 10  1  0
 10 11  1  0
 11 12  2  0
 11 13  1  0
 13 14  1  0
 14 15  1  0
 15 16  2  0
 16 17  1  0
 17 18  1  0
 17 19  2  0
 19 20  1  0
 20 21  1  0
 21 22  2  0
 22 23  1  0
 23 24  2  0
 24 25  1  0
 25 26  2  0
 20 27  2  0
 27 28  1  0
 28 29  3  0
  9 30  1  0
 30 31  2  0
 31  6  1  0
 27 15  1  0
 26 21  1  0
M  END
>  <Binding energies>  (22) 
[-8.67]

>  <Ligand effiencies>  (22) 
[-0.2709375]

>  <Interactions>  (22) 
["V-A:TYR:539:CE2:4871, V-A:PRO:540:CA:4878, V-A:ILE:538:C:4853, V-A:TYR:539:CE1:4870, V-A:TYR:539:CZ:4872, V-A:ILE:538:CA:4855, V-A:ILE:538:CD1:4860, V-A:TYR:539:CD2:4869, H-A:TYR:539:OH:4873, V-A:PRO:540:N:4879, V-B:GLU:543:CD:9876, V-A:TYR:539:C:4862, V-A:PRO:540:CD:4882, V-B:ILE:369:CG2:8204, H-B:GLY:454:N:9017, V-A:TYR:539:CG:4867, V-B:ILE:369:CD1:8206, V-B:ASP:366:CB:8179, V-B:GLU:543:CB:9874, V-B:HIS:456:CE1:9037, V-B:ASP:366:CG:8180, V-B:ASP:366:CA:8177, V-A:MET:535:CB:4827, H-A:TYR:539:N:4865, V-A:TYR:539:CD1:4868, V-B:ILE:369:CG1:8205, V-B:ILE:369:CB:8203, H-B:TYR:484:OH:9315, V-B:ARG:545:CZ:9894, V-B:ARG:545:CD:9891, V-B:ARG:545:CG:9890, H-B:ARG:545:NH2:9896"]

$$$$
3ce_Grossjean_2025
     RDKit          3D

 27 29  0  0  0  0  0  0  0  0999 V2000
  122.8940  130.3320   66.6830 C   0  0  0  0  0  0  0  0  0  0  0  0
  123.9340  130.0190   65.6250 C   0  0  0  0  0  0  0  0  0  0  0  0
  125.0090  129.1650   65.8870 C   0  0  0  0  0  0  0  0  0  0  0  0
  125.9220  128.9140   64.8630 C   0  0  0  0  0  0  0  0  0  0  0  0
  125.7430  129.5170   63.6150 C   0  0  0  0  0  0  0  0  0  0  0  0
  124.6510  130.3700   63.4230 C   0  0  0  0  0  0  0  0  0  0  0  0
  124.5100  130.9320   62.1430 N   0  0  0  0  0  0  0  0  0  0  0  0
  123.3800  131.0850   61.4180 C   0  0  0  0  0  0  0  0  0  0  0  0
  122.2530  130.7470   61.7840 O   0  0  0  0  0  0  0  0  0  0  0  0
  123.5560  131.7390   60.0480 C   0  0  0  0  0  0  0  0  0  0  0  0
  124.7580  130.8460   59.0180 S   0  0  0  0  0  0  0  0  0  0  0  0
  126.2870  131.7380   59.1760 C   0  0  0  0  0  0  0  0  0  0  0  0
  126.3440  132.5460   60.2640 N   0  0  0  0  0  0  0  0  0  0  0  0
  127.4740  133.2560   60.4830 C   0  0  0  0  0  0  0  0  0  0  0  0
  127.4750  134.1290   61.7240 C   0  0  0  0  0  0  0  0  0  0  0  0
  128.5730  133.2000   59.6300 C   0  0  0  0  0  0  0  0  0  0  0  0
  128.5240  132.3900   58.4870 C   0  0  0  0  0  0  0  0  0  0  0  0
  129.7170  132.3820   57.5890 C   0  0  0  0  0  0  0  0  0  0  0  0
  130.9060  131.7720   58.0050 C   0  0  0  0  0  0  0  0  0  0  0  0
  132.0250  131.7660   57.1760 C   0  0  0  0  0  0  0  0  0  0  0  0
  131.9610  132.3780   55.9270 C   0  0  0  0  0  0  0  0  0  0  0  0
  130.7890  132.9980   55.5020 C   0  0  0  0  0  0  0  0  0  0  0  0
  129.6720  133.0010   56.3330 C   0  0  0  0  0  0  0  0  0  0  0  0
  127.3510  131.6310   58.2490 C   0  0  0  0  0  0  0  0  0  0  0  0
  127.2470  130.7550   57.0780 C   0  0  0  0  0  0  0  0  0  0  0  0
  127.1660  130.0640   56.1530 N   0  0  0  0  0  0  0  0  0  0  0  0
  123.7480  130.6140   64.4190 N   0  0  0  0  0  0  0  0  0  0  0  0
  1  2  1  0
  2  3  2  0
  3  4  1  0
  4  5  2  0
  5  6  1  0
  6  7  1  0
  7  8  1  0
  8  9  2  0
  8 10  1  0
 10 11  1  0
 11 12  1  0
 12 13  2  0
 13 14  1  0
 14 15  1  0
 14 16  2  0
 16 17  1  0
 17 18  1  0
 18 19  2  0
 19 20  1  0
 20 21  2  0
 21 22  1  0
 22 23  2  0
 17 24  2  0
 24 25  1  0
 25 26  3  0
  6 27  2  0
 27  2  1  0
 24 12  1  0
 23 18  1  0
M  END
>  <Binding energies>  (23) 
[-8.61]

>  <Ligand effiencies>  (23) 
[-0.3075]

>  <Interactions>  (23) 
["V-A:TYR:539:CE2:4871, V-A:PRO:540:CA:4878, V-A:ILE:538:CG2:4858, V-A:ILE:538:C:4853, V-A:TYR:539:CE1:4870, V-A:TYR:539:CZ:4872, V-B:LEU:475:CD2:9226, V-A:ILE:538:CA:4855, V-A:PRO:540:CB:4880, V-A:ALA:541:CB:4887, V-A:LEU:363:CD1:3184, V-A:TYR:539:CD2:4869, H-A:TYR:539:OH:4873, V-A:PRO:540:N:4879, V-A:TYR:539:C:4862, V-A:PRO:540:CD:4882, V-B:ILE:369:CG2:8204, H-B:GLY:454:N:9017, V-A:TYR:539:CG:4867, V-B:ILE:369:CD1:8206, V-B:HIS:456:CE1:9037, V-A:TYR:539:CA:4864, V-A:TYR:539:CD1:4868, V-B:ILE:369:CB:8203, V-B:ARG:545:CZ:9894, V-B:ARG:545:CD:9891, V-B:ARG:545:CG:9890, V-B:GLY:454:CA:9016, V-B:GLY:453:CA:9011, V-B:ILE:455:C:9019, V-B:GLY:453:C:9009, V-B:GLY:454:C:9014"]

$$$$
3cj_Grossjean_2025
     RDKit          3D

 25 27  0  0  0  0  0  0  0  0999 V2000
  125.5200  129.4430   57.2070 C   0  0  0  0  0  0  0  0  0  0  0  0
  126.7670  130.2760   56.9800 C   0  0  0  0  0  0  0  0  0  0  0  0
  127.5940  130.0640   55.8790 C   0  0  0  0  0  0  0  0  0  0  0  0
  128.7240  130.8730   55.6960 C   0  0  0  0  0  0  0  0  0  0  0  0
  129.5450  130.6530   54.4700 C   0  0  0  0  0  0  0  0  0  0  0  0
  130.1440  129.4110   54.2290 C   0  0  0  0  0  0  0  0  0  0  0  0
  130.9210  129.2100   53.0910 C   0  0  0  0  0  0  0  0  0  0  0  0
  131.1070  130.2560   52.1910 C   0  0  0  0  0  0  0  0  0  0  0  0
  130.5250  131.4990   52.4220 C   0  0  0  0  0  0  0  0  0  0  0  0
  129.7480  131.6980   53.5600 C   0  0  0  0  0  0  0  0  0  0  0  0
  129.0060  131.8670   56.6650 C   0  0  0  0  0  0  0  0  0  0  0  0
  130.1890  132.7250   56.5450 C   0  0  0  0  0  0  0  0  0  0  0  0
  131.1220  133.4040   56.4480 N   0  0  0  0  0  0  0  0  0  0  0  0
  128.1090  132.0150   57.7480 C   0  0  0  0  0  0  0  0  0  0  0  0
  128.2710  133.3090   58.9600 S   0  0  0  0  0  0  0  0  0  0  0  0
  128.6200  132.4430   60.5240 C   0  0  0  0  0  0  0  0  0  0  0  0
  130.1090  132.1180   60.6770 C   0  0  0  0  0  0  0  0  0  0  0  0
  130.6780  132.3640   61.7420 O   0  0  0  0  0  0  0  0  0  0  0  0
  130.6870  131.5340   59.6050 N   0  0  0  0  0  0  0  0  0  0  0  0
  131.9730  131.0240   59.5340 C   0  0  0  0  0  0  0  0  0  0  0  0
  132.8490  130.9030   60.5070 N   0  0  0  0  0  0  0  0  0  0  0  0
  133.9660  130.3450   60.0850 C   0  0  0  0  0  0  0  0  0  0  0  0
  134.0130  130.0010   58.7370 C   0  0  0  0  0  0  0  0  0  0  0  0
  132.5050  130.4370   57.9900 S   0  0  0  0  0  0  0  0  0  0  0  0
  127.0050  131.2410   57.8960 N   0  0  0  0  0  0  0  0  0  0  0  0
  1  2  1  0
  2  3  2  0
  3  4  1  0
  4  5  1  0
  5  6  2  0
  6  7  1  0
  7  8  2  0
  8  9  1  0
  9 10  2  0
  4 11  2  0
 11 12  1  0
 12 13  3  0
 11 14  1  0
 14 15  1  0
 15 16  1  0
 16 17  1  0
 17 18  2  0
 17 19  1  0
 19 20  1  0
 20 21  2  0
 21 22  1  0
 22 23  2  0
 23 24  1  0
 14 25  2  0
 25  2  1  0
 10  5  1  0
 24 20  1  0
M  END
>  <Binding energies>  (24) 
[-8.33]

>  <Ligand effiencies>  (24) 
[-0.3203846153846154]

>  <Interactions>  (24) 
["V-A:TYR:539:CE2:4871, V-A:PRO:540:CA:4878, V-A:MET:535:CG:4828, V-A:ASP:366:CG:3208, V-A:TYR:539:CE1:4870, V-A:TYR:539:CZ:4872, V-A:PRO:540:CB:4880, H-A:ALA:541:N:4886, V-A:ILE:538:CD1:4860, V-A:LEU:363:CD1:3184, H-A:TYR:539:OH:4873, V-A:PRO:540:N:4879, V-A:TYR:531:CZ:4789, V-A:TYR:539:C:4862, V-A:ASP:366:CB:3207, V-A:PRO:540:CD:4882, V-A:TYR:531:CE1:4787, V-A:TYR:531:CE2:4788, V-B:ASP:366:CB:8179, V-A:MET:535:CB:4827, V-A:LEU:363:CA:3180, H-A:TYR:539:N:4865, V-A:LEU:363:CB:3182, V-A:TYR:539:CD1:4868, V-A:ASN:362:C:3167, V-A:ASN:362:CB:3171, V-A:TYR:531:CD1:4785"]

$$$$
4ba_Grossjean_2025
     RDKit          3D

 28 30  0  0  0  0  0  0  0  0999 V2000
  123.7530  123.9650   57.9010 C   0  0  0  0  0  0  0  0  0  0  0  0
  124.5700  123.6640   56.6310 C   0  0  0  0  0  0  0  0  0  0  0  0
  125.8010  122.7580   56.8450 C   0  0  0  0  0  0  0  0  0  0  0  0
  125.9550  121.7650   56.1300 O   0  0  0  0  0  0  0  0  0  0  0  0
  126.7680  123.1390   57.9270 C   0  0  0  0  0  0  0  0  0  0  0  0
  128.0070  122.4910   58.0020 C   0  0  0  0  0  0  0  0  0  0  0  0
  128.9230  122.8240   58.9960 C   0  0  0  0  0  0  0  0  0  0  0  0
  128.6210  123.8130   59.9340 C   0  0  0  0  0  0  0  0  0  0  0  0
  129.6140  124.0630   60.9000 N   0  0  0  0  0  0  0  0  0  0  0  0
  130.9560  124.1940   60.7580 C   0  0  0  0  0  0  0  0  0  0  0  0
  131.5540  124.0620   59.6890 O   0  0  0  0  0  0  0  0  0  0  0  0
  131.6900  124.4860   61.9910 C   0  0  0  0  0  0  0  0  0  0  0  0
  133.4320  124.2350   62.0660 S   0  0  0  0  0  0  0  0  0  0  0  0
  133.4780  124.7270   63.7420 C   0  0  0  0  0  0  0  0  0  0  0  0
  134.6190  124.7490   64.4290 N   0  0  0  0  0  0  0  0  0  0  0  0
  134.5290  125.1470   65.7180 C   0  0  0  0  0  0  0  0  0  0  0  0
  135.8400  125.1560   66.4840 C   0  0  0  0  0  0  0  0  0  0  0  0
  133.3370  125.5250   66.3310 C   0  0  0  0  0  0  0  0  0  0  0  0
  132.1310  125.5040   65.6130 C   0  0  0  0  0  0  0  0  0  0  0  0
  130.8450  125.9300   66.3290 C   0  0  0  0  0  0  0  0  0  0  0  0
  130.0580  126.7000   65.5740 F   0  0  0  0  0  0  0  0  0  0  0  0
  130.1390  124.8520   66.6720 F   0  0  0  0  0  0  0  0  0  0  0  0
  131.1490  126.6250   67.4260 F   0  0  0  0  0  0  0  0  0  0  0  0
  132.1910  125.0830   64.2500 C   0  0  0  0  0  0  0  0  0  0  0  0
  131.1860  124.9250   63.2270 C   0  0  0  0  0  0  0  0  0  0  0  0
  129.8580  125.1860   63.4470 N   0  0  0  0  0  0  0  0  0  0  0  0
  127.3790  124.4620   59.8700 C   0  0  0  0  0  0  0  0  0  0  0  0
  126.4640  124.1280   58.8750 C   0  0  0  0  0  0  0  0  0  0  0  0
  1  2  1  0
  2  3  1  0
  3  4  2  0
  3  5  1  0
  5  6  2  0
  6  7  1  0
  7  8  2  0
  8  9  1  0
  9 10  1  0
 10 11  2  0
 10 12  1  0
 12 13  1  0
 13 14  1  0
 14 15  2  0
 15 16  1  0
 16 17  1  0
 16 18  2  0
 18 19  1  0
 19 20  1  0
 20 21  1  0
 20 22  1  0
 20 23  1  0
 19 24  2  0
 24 25  1  0
 25 26  1  0
  8 27  1  0
 27 28  2  0
 28  5  1  0
 25 12  2  0
 24 14  1  0
M  END
>  <Binding energies>  (25) 
[-7.7]

>  <Ligand effiencies>  (25) 
[-0.24838709677419354]

>  <Interactions>  (25) 
["V-A:ASP:366:CG:3208, V-B:LEU:363:CD1:8156, V-A:ARG:545:CZ:4921, V-B:TYR:531:CE2:9761, H-A:GLY:454:N:4045, V-A:GLU:543:CD:4903, H-A:TYR:484:OH:4343, V-B:PRO:540:CA:9851, H-B:GLU:543:OE2:9878, V-B:MET:535:CE:9803, H-B:TYR:539:N:9838, V-B:GLU:543:CD:9876, V-B:PRO:540:N:9852, V-B:PRO:540:CB:9853, V-B:TYR:539:C:9835, V-B:GLU:543:CB:9874, V-B:GLU:543:CG:9875, V-A:HIS:456:CE1:4064, V-A:TYR:484:CZ:4342, V-A:TYR:484:CE1:4340, V-B:PRO:540:CD:9855, V-A:ARG:545:CD:4918, V-A:ARG:545:CG:4917, H-A:ARG:545:NH1:4922, V-A:GLY:453:C:4037, V-A:GLY:453:CA:4039, V-B:LEU:363:CA:8152, V-B:LEU:363:CB:8154, V-A:ARG:545:CB:4916, V-A:ILE:455:C:4047, V-A:HIS:456:CD2:4063, V-B:LEU:363:CG:8155, V-A:VAL:452:C:4029"]

$$$$
4bb_Grossjean_2025
     RDKit          3D

 27 29  0  0  0  0  0  0  0  0999 V2000
  124.4610  123.6310   56.7540 C   0  0  0  0  0  0  0  0  0  0  0  0
  125.6770  122.7020   56.7720 C   0  0  0  0  0  0  0  0  0  0  0  0
  125.6970  121.7570   55.9810 O   0  0  0  0  0  0  0  0  0  0  0  0
  126.7730  122.9840   57.7560 C   0  0  0  0  0  0  0  0  0  0  0  0
  126.4660  123.6340   58.9580 C   0  0  0  0  0  0  0  0  0  0  0  0
  127.4650  123.9080   59.8880 C   0  0  0  0  0  0  0  0  0  0  0  0
  128.7860  123.5320   59.6380 C   0  0  0  0  0  0  0  0  0  0  0  0
  129.7160  123.8610   60.6450 N   0  0  0  0  0  0  0  0  0  0  0  0
  130.9980  124.2880   60.5400 C   0  0  0  0  0  0  0  0  0  0  0  0
  131.5920  124.4380   59.4730 O   0  0  0  0  0  0  0  0  0  0  0  0
  131.6760  124.5450   61.8140 C   0  0  0  0  0  0  0  0  0  0  0  0
  133.4150  124.2990   61.9580 S   0  0  0  0  0  0  0  0  0  0  0  0
  133.3860  124.7470   63.6480 C   0  0  0  0  0  0  0  0  0  0  0  0
  134.4960  124.7630   64.3820 N   0  0  0  0  0  0  0  0  0  0  0  0
  134.3470  125.1270   65.6770 C   0  0  0  0  0  0  0  0  0  0  0  0
  135.6260  125.1400   66.4950 C   0  0  0  0  0  0  0  0  0  0  0  0
  133.1260  125.4700   66.2490 C   0  0  0  0  0  0  0  0  0  0  0  0
  131.9520  125.4550   65.4810 C   0  0  0  0  0  0  0  0  0  0  0  0
  130.6310  125.8410   66.1550 C   0  0  0  0  0  0  0  0  0  0  0  0
  129.8090  124.8020   66.3250 F   0  0  0  0  0  0  0  0  0  0  0  0
  130.8730  126.3600   67.3580 F   0  0  0  0  0  0  0  0  0  0  0  0
  129.9880  126.7390   65.4090 F   0  0  0  0  0  0  0  0  0  0  0  0
  132.0730  125.0760   64.1100 C   0  0  0  0  0  0  0  0  0  0  0  0
  131.1170  124.9460   63.0390 C   0  0  0  0  0  0  0  0  0  0  0  0
  129.7800  125.2000   63.2060 N   0  0  0  0  0  0  0  0  0  0  0  0
  129.1010  122.8870   58.4330 C   0  0  0  0  0  0  0  0  0  0  0  0
  128.1010  122.6150   57.5030 C   0  0  0  0  0  0  0  0  0  0  0  0
  1  2  1  0
  2  3  2  0
  2  4  1  0
  4  5  2  0
  5  6  1  0
  6  7  2  0
  7  8  1  0
  8  9  1  0
  9 10  2  0
  9 11  1  0
 11 12  1  0
 12 13  1  0
 13 14  2  0
 14 15  1  0
 15 16  1  0
 15 17  2  0
 17 18  1  0
 18 19  1  0
 19 20  1  0
 19 21  1  0
 19 22  1  0
 18 23  2  0
 23 24  1  0
 24 25  1  0
  7 26  1  0
 26 27  2  0
 27  4  1  0
 24 11  2  0
 23 13  1  0
M  END
>  <Binding energies>  (26) 
[-7.78]

>  <Ligand effiencies>  (26) 
[-0.25933333333333336]

>  <Interactions>  (26) 
["V-A:ASP:366:CG:3208, V-B:LEU:363:CD1:8156, V-A:ARG:545:CZ:4921, V-B:TYR:531:CE2:9761, H-A:GLY:454:N:4045, V-A:GLU:543:CD:4903, H-A:TYR:484:OH:4343, V-B:PRO:540:CA:9851, H-B:GLU:543:OE2:9878, V-B:MET:535:CE:9803, H-B:TYR:539:N:9838, V-B:GLU:543:CD:9876, V-B:PRO:540:N:9852, V-B:TYR:539:CE2:9844, V-B:TYR:539:CD2:9842, V-B:PRO:540:CB:9853, V-B:TYR:539:C:9835, V-B:GLU:543:CB:9874, V-B:GLU:543:CG:9875, V-A:HIS:456:CE1:4064, V-B:PRO:540:CD:9855, V-A:ARG:545:CD:4918, V-A:ARG:545:CG:4917, H-A:ARG:545:NH1:4922, V-A:GLY:453:C:4037, V-A:GLY:453:CA:4039, V-A:ARG:545:CB:4916, V-A:ILE:455:C:4047, V-A:HIS:456:CD2:4063"]

$$$$
4bd_Grossjean_2025
     RDKit          3D

 24 26  0  0  0  0  0  0  0  0999 V2000
  128.8040  121.4450   61.0050 C   0  0  0  0  0  0  0  0  0  0  0  0
  129.5040  122.2080   59.8950 C   0  0  0  0  0  0  0  0  0  0  0  0
  130.8900  122.1780   59.7660 C   0  0  0  0  0  0  0  0  0  0  0  0
  131.5240  122.8900   58.7370 C   0  0  0  0  0  0  0  0  0  0  0  0
  133.0520  122.8300   58.6370 C   0  0  0  0  0  0  0  0  0  0  0  0
  133.6410  123.9870   58.9470 F   0  0  0  0  0  0  0  0  0  0  0  0
  133.5230  121.9050   59.4730 F   0  0  0  0  0  0  0  0  0  0  0  0
  133.4110  122.5220   57.3910 F   0  0  0  0  0  0  0  0  0  0  0  0
  130.6910  123.6300   57.8460 C   0  0  0  0  0  0  0  0  0  0  0  0
  130.9720  124.4600   56.6990 C   0  0  0  0  0  0  0  0  0  0  0  0
  132.2450  124.6790   56.2400 N   0  0  0  0  0  0  0  0  0  0  0  0
  129.8300  125.0190   56.1010 C   0  0  0  0  0  0  0  0  0  0  0  0
  129.7520  125.9140   54.9430 C   0  0  0  0  0  0  0  0  0  0  0  0
  129.2890  125.5170   53.8730 O   0  0  0  0  0  0  0  0  0  0  0  0
  130.2040  127.1760   55.1510 N   0  0  0  0  0  0  0  0  0  0  0  0
  130.3050  128.2510   54.2490 C   0  0  0  0  0  0  0  0  0  0  0  0
  130.2340  129.5290   54.8100 C   0  0  0  0  0  0  0  0  0  0  0  0
  130.3340  130.6580   54.0010 C   0  0  0  0  0  0  0  0  0  0  0  0
  130.5130  130.5090   52.6280 C   0  0  0  0  0  0  0  0  0  0  0  0
  130.5990  129.2410   52.0590 C   0  0  0  0  0  0  0  0  0  0  0  0
  130.4990  128.1100   52.8650 C   0  0  0  0  0  0  0  0  0  0  0  0
  128.3630  124.5250   56.9430 S   0  0  0  0  0  0  0  0  0  0  0  0
  129.2840  123.5780   58.0880 C   0  0  0  0  0  0  0  0  0  0  0  0
  128.6870  122.9000   59.0670 N   0  0  0  0  0  0  0  0  0  0  0  0
  1  2  1  0
  2  3  2  0
  3  4  1  0
  4  5  1  0
  5  6  1  0
  5  7  1  0
  5  8  1  0
  4  9  2  0
  9 10  1  0
 10 11  1  0
 10 12  2  0
 12 13  1  0
 13 14  2  0
 13 15  1  0
 15 16  1  0
 16 17  2  0
 17 18  1  0
 18 19  2  0
 19 20  1  0
 20 21  2  0
 12 22  1  0
 22 23  1  0
 23 24  2  0
 24  2  1  0
 23  9  1  0
 21 16  1  0
M  END
>  <Binding energies>  (27) 
[-7.38]

>  <Ligand effiencies>  (27) 
[-0.2733333333333333]

>  <Interactions>  (27) 
["V-A:MET:535:CG:4828, V-A:ASP:366:CG:3208, H-A:TYR:531:OH:4790, V-A:ILE:369:CD1:3234, H-A:LYS:534:NZ:4818, V-A:ILE:369:CB:3231, V-B:PRO:540:CA:9851, H-B:TYR:539:OH:9846, V-B:MET:535:CE:9803, V-A:TYR:531:CZ:4789, V-A:ASP:366:CB:3207, V-B:TYR:539:CE2:9844, V-A:ILE:369:CG2:3232, V-B:TYR:539:CD2:9842, V-B:TYR:539:CZ:9845, V-A:TYR:531:CE1:4787, V-A:MET:535:CB:4827, V-A:ILE:369:CG1:3233, V-A:LYS:534:CD:4816, V-A:ASP:366:CA:3205, V-B:PRO:540:C:9849, V-B:ALA:541:CB:9860, V-B:ALA:541:CA:9858, V-A:TYR:531:CD1:4785, V-A:LYS:534:CE:4817, V-A:LYS:534:CB:4814"]

$$$$
4be_Grossjean_2025
     RDKit          3D

 25 27  0  0  0  0  0  0  0  0999 V2000
  129.7890  131.9390   54.3420 C   0  0  0  0  0  0  0  0  0  0  0  0
  130.0860  130.5470   53.8170 C   0  0  0  0  0  0  0  0  0  0  0  0
  130.3990  130.3250   52.4730 C   0  0  0  0  0  0  0  0  0  0  0  0
  130.6580  129.0180   52.0590 C   0  0  0  0  0  0  0  0  0  0  0  0
  130.5990  127.9760   52.9880 C   0  0  0  0  0  0  0  0  0  0  0  0
  130.2860  128.2690   54.3200 C   0  0  0  0  0  0  0  0  0  0  0  0
  130.2350  127.1750   55.2020 N   0  0  0  0  0  0  0  0  0  0  0  0
  129.7830  125.9170   54.9740 C   0  0  0  0  0  0  0  0  0  0  0  0
  129.3320  125.5350   53.8920 O   0  0  0  0  0  0  0  0  0  0  0  0
  129.8400  125.0100   56.1240 C   0  0  0  0  0  0  0  0  0  0  0  0
  128.3580  124.5420   56.9560 S   0  0  0  0  0  0  0  0  0  0  0  0
  129.2540  123.5760   58.1050 C   0  0  0  0  0  0  0  0  0  0  0  0
  128.6390  122.9050   59.0770 N   0  0  0  0  0  0  0  0  0  0  0  0
  129.4380  122.1910   59.9030 C   0  0  0  0  0  0  0  0  0  0  0  0
  128.7190  121.4350   61.0050 C   0  0  0  0  0  0  0  0  0  0  0  0
  130.8240  122.1330   59.7800 C   0  0  0  0  0  0  0  0  0  0  0  0
  131.4780  122.8380   58.7570 C   0  0  0  0  0  0  0  0  0  0  0  0
  133.0040  122.7400   58.6600 C   0  0  0  0  0  0  0  0  0  0  0  0
  133.4310  122.4690   57.4240 F   0  0  0  0  0  0  0  0  0  0  0  0
  133.5540  123.8970   59.0250 F   0  0  0  0  0  0  0  0  0  0  0  0
  133.4460  121.7700   59.4590 F   0  0  0  0  0  0  0  0  0  0  0  0
  130.6640  123.6040   57.8710 C   0  0  0  0  0  0  0  0  0  0  0  0
  130.9680  124.4420   56.7370 C   0  0  0  0  0  0  0  0  0  0  0  0
  132.2490  124.6560   56.2950 N   0  0  0  0  0  0  0  0  0  0  0  0
  130.0260  129.5450   54.7310 N   0  0  0  0  0  0  0  0  0  0  0  0
  1  2  1  0
  2  3  2  0
  3  4  1  0
  4  5  2  0
  5  6  1  0
  6  7  1  0
  7  8  1  0
  8  9  2  0
  8 10  1  0
 10 11  1  0
 11 12  1  0
 12 13  2  0
 13 14  1  0
 14 15  1  0
 14 16  2  0
 16 17  1  0
 17 18  1  0
 18 19  1  0
 18 20  1  0
 18 21  1  0
 17 22  2  0
 22 23  1  0
 23 24  1  0
  6 25  2  0
 25  2  1  0
 23 10  2  0
 22 12  1  0
M  END
>  <Binding energies>  (28) 
[-7.37]

>  <Ligand effiencies>  (28) 
[-0.26321428571428573]

>  <Interactions>  (28) 
["V-A:MET:535:CG:4828, V-A:ASP:366:CG:3208, H-A:TYR:531:OH:4790, V-A:ILE:369:CD1:3234, H-A:LYS:534:NZ:4818, V-A:ILE:369:CB:3231, V-B:PRO:540:CA:9851, H-B:TYR:539:OH:9846, V-B:MET:535:CE:9803, V-A:TYR:531:CZ:4789, V-A:ASP:366:CB:3207, V-B:TYR:539:CE2:9844, V-A:ILE:369:CG2:3232, V-B:TYR:539:CD2:9842, V-B:TYR:539:CZ:9845, V-A:TYR:531:CE1:4787, V-A:MET:535:CB:4827, V-A:ILE:369:CG1:3233, V-A:LYS:534:CD:4816, V-A:ASP:366:CA:3205, V-B:PRO:540:C:9849, V-B:ALA:541:CB:9860, V-B:ALA:541:CA:9858, V-A:TYR:531:CD1:4785, V-A:LYS:534:CE:4817, V-A:LYS:534:CB:4814, V-A:MET:535:CA:4825"]

$$$$
4bg_Grossjean_2025
     RDKit          3D

 25 27  0  0  0  0  0  0  0  0999 V2000
  128.9890  121.7080   61.2060 C   0  0  0  0  0  0  0  0  0  0  0  0
  129.6570  122.3990   60.0320 C   0  0  0  0  0  0  0  0  0  0  0  0
  131.0290  122.2930   59.8230 C   0  0  0  0  0  0  0  0  0  0  0  0
  131.6360  122.9420   58.7350 C   0  0  0  0  0  0  0  0  0  0  0  0
  133.1490  122.7970   58.5450 C   0  0  0  0  0  0  0  0  0  0  0  0
  133.4910  122.4970   57.2910 F   0  0  0  0  0  0  0  0  0  0  0  0
  133.7550  123.9410   58.8620 F   0  0  0  0  0  0  0  0  0  0  0  0
  133.6110  121.8220   59.3290 F   0  0  0  0  0  0  0  0  0  0  0  0
  130.7870  123.7000   57.8730 C   0  0  0  0  0  0  0  0  0  0  0  0
  131.0400  124.4880   56.6920 C   0  0  0  0  0  0  0  0  0  0  0  0
  132.2960  124.6530   56.1640 N   0  0  0  0  0  0  0  0  0  0  0  0
  129.8890  125.0600   56.1290 C   0  0  0  0  0  0  0  0  0  0  0  0
  129.7830  125.9330   54.9600 C   0  0  0  0  0  0  0  0  0  0  0  0
  129.3770  125.5100   53.8760 O   0  0  0  0  0  0  0  0  0  0  0  0
  130.1180  127.2250   55.1560 N   0  0  0  0  0  0  0  0  0  0  0  0
  130.1040  128.2700   54.1320 C   0  0  0  0  0  0  0  0  0  0  0  0
  130.8120  129.5500   54.5570 C   0  0  0  0  0  0  0  0  0  0  0  0
  131.6500  130.2190   53.6610 C   0  0  0  0  0  0  0  0  0  0  0  0
  132.2650  131.4090   54.0390 C   0  0  0  0  0  0  0  0  0  0  0  0
  132.0290  131.9350   55.3080 C   0  0  0  0  0  0  0  0  0  0  0  0
  131.1820  131.2830   56.2000 C   0  0  0  0  0  0  0  0  0  0  0  0
  130.5680  130.0920   55.8230 C   0  0  0  0  0  0  0  0  0  0  0  0
  128.4530  124.6710   57.0710 S   0  0  0  0  0  0  0  0  0  0  0  0
  129.3950  123.7220   58.1960 C   0  0  0  0  0  0  0  0  0  0  0  0
  128.8260  123.1050   59.2310 N   0  0  0  0  0  0  0  0  0  0  0  0
  1  2  1  0
  2  3  2  0
  3  4  1  0
  4  5  1  0
  5  6  1  0
  5  7  1  0
  5  8  1  0
  4  9  2  0
  9 10  1  0
 10 11  1  0
 10 12  2  0
 12 13  1  0
 13 14  2  0
 13 15  1  0
 15 16  1  0
 16 17  1  0
 17 18  2  0
 18 19  1  0
 19 20  2  0
 20 21  1  0
 21 22  2  0
 12 23  1  0
 23 24  1  0
 24 25  2  0
 25  2  1  0
 24  9  1  0
 22 17  1  0
M  END
>  <Binding energies>  (29) 
[-7.49]

>  <Ligand effiencies>  (29) 
[-0.2675]

>  <Interactions>  (29) 
["V-A:MET:535:CG:4828, V-A:ASP:366:CG:3208, H-A:TYR:531:OH:4790, V-A:ILE:369:CD1:3234, V-A:ILE:538:CD1:4860, V-A:LEU:363:CD1:3184, H-A:LYS:534:NZ:4818, V-A:ILE:369:CB:3231, H-B:TYR:539:OH:9846, V-A:TYR:531:CZ:4789, V-A:ASP:366:CB:3207, V-B:TYR:539:CE2:9844, V-A:ILE:369:CG2:3232, V-B:TYR:539:CZ:9845, V-A:TYR:531:CE1:4787, V-A:TYR:531:CE2:4788, V-A:ILE:369:CG1:3233, V-A:ASP:366:CA:3205, V-A:ASP:366:C:3203, V-B:PRO:540:C:9849, V-B:ALA:541:CB:9860, V-B:ALA:541:CA:9858, H-A:ASP:366:O:3204"]

$$$$
4ca_Grossjean_2025
     RDKit          3D

 34 37  0  0  0  0  0  0  0  0999 V2000
  130.4450  131.9410   53.5740 C   0  0  0  0  0  0  0  0  0  0  0  0
  129.6120  132.6620   54.6380 C   0  0  0  0  0  0  0  0  0  0  0  0
  130.4780  133.3750   55.5120 O   0  0  0  0  0  0  0  0  0  0  0  0
  131.6400  132.8250   55.9510 C   0  0  0  0  0  0  0  0  0  0  0  0
  132.7230  132.9770   55.3770 O   0  0  0  0  0  0  0  0  0  0  0  0
  131.4760  132.0180   57.2060 C   0  0  0  0  0  0  0  0  0  0  0  0
  130.2400  132.0220   57.8660 C   0  0  0  0  0  0  0  0  0  0  0  0
  130.0570  131.2790   59.0290 C   0  0  0  0  0  0  0  0  0  0  0  0
  131.1030  130.5260   59.5600 C   0  0  0  0  0  0  0  0  0  0  0  0
  130.8050  129.8060   60.7340 N   0  0  0  0  0  0  0  0  0  0  0  0
  129.8800  128.8400   60.9540 C   0  0  0  0  0  0  0  0  0  0  0  0
  129.1400  128.3810   60.0840 O   0  0  0  0  0  0  0  0  0  0  0  0
  129.8170  128.3370   62.3280 C   0  0  0  0  0  0  0  0  0  0  0  0
  128.6030  128.9590   63.4440 S   0  0  0  0  0  0  0  0  0  0  0  0
  129.1550  127.8890   64.7110 C   0  0  0  0  0  0  0  0  0  0  0  0
  128.5790  127.8800   65.9110 N   0  0  0  0  0  0  0  0  0  0  0  0
  129.0660  127.0040   66.8270 C   0  0  0  0  0  0  0  0  0  0  0  0
  128.3900  127.0110   68.1680 C   0  0  0  0  0  0  0  0  0  0  0  0
  129.1430  127.0200   69.3530 C   0  0  0  0  0  0  0  0  0  0  0  0
  128.5210  127.0210   70.5990 C   0  0  0  0  0  0  0  0  0  0  0  0
  127.1320  127.0120   70.6780 C   0  0  0  0  0  0  0  0  0  0  0  0
  126.3630  127.0010   69.5200 C   0  0  0  0  0  0  0  0  0  0  0  0
  126.9880  126.9990   68.2760 C   0  0  0  0  0  0  0  0  0  0  0  0
  130.1440  126.1580   66.5410 C   0  0  0  0  0  0  0  0  0  0  0  0
  130.7600  126.1630   65.2810 C   0  0  0  0  0  0  0  0  0  0  0  0
  131.9340  125.2080   65.0340 C   0  0  0  0  0  0  0  0  0  0  0  0
  132.5150  124.7920   66.1610 F   0  0  0  0  0  0  0  0  0  0  0  0
  131.5060  124.1260   64.3840 F   0  0  0  0  0  0  0  0  0  0  0  0
  132.8680  125.8190   64.3070 F   0  0  0  0  0  0  0  0  0  0  0  0
  130.2460  127.0660   64.3060 C   0  0  0  0  0  0  0  0  0  0  0  0
  130.6020  127.3420   62.9360 C   0  0  0  0  0  0  0  0  0  0  0  0
  131.6200  126.6900   62.2890 N   0  0  0  0  0  0  0  0  0  0  0  0
  132.3430  130.5110   58.9040 C   0  0  0  0  0  0  0  0  0  0  0  0
  132.5240  131.2520   57.7390 C   0  0  0  0  0  0  0  0  0  0  0  0
  1  2  1  0
  2  3  1  0
  3  4  1  0
  4  5  2  0
  4  6  1  0
  6  7  2  0
  7  8  1  0
  8  9  2  0
  9 10  1  0
 10 11  1  0
 11 12  2  0
 11 13  1  0
 13 14  1  0
 14 15  1  0
 15 16  2  0
 16 17  1  0
 17 18  1  0
 18 19  2  0
 19 20  1  0
 20 21  2  0
 21 22  1  0
 22 23  2  0
 17 24  2  0
 24 25  1  0
 25 26  1  0
 26 27  1  0
 26 28  1  0
 26 29  1  0
 25 30  2  0
 30 31  1  0
 31 32  1  0
  9 33  1  0
 33 34  2  0
 34  6  1  0
 31 13  2  0
 30 15  1  0
 23 18  1  0
M  END
>  <Binding energies>  (30) 
[-7.91]

>  <Ligand effiencies>  (30) 
[-0.2137837837837838]

>  <Interactions>  (30) 
["V-A:PRO:540:CA:4878, V-A:ILE:538:CG2:4858, V-A:ASP:366:CG:3208, H-A:GLU:543:OE2:4905, V-A:TYR:539:CE1:4870, V-A:ILE:538:CA:4855, V-A:PRO:540:CB:4880, V-A:ARG:545:CZ:4921, V-A:ILE:538:CD1:4860, V-A:LEU:363:CD1:3184, V-A:GLU:543:CD:4903, V-A:PRO:540:N:4879, V-A:PRO:540:CD:4882, V-B:GLU:543:CB:9874, V-B:HIS:456:CE1:9037, H-A:TYR:539:N:4865, V-A:TYR:539:CD1:4868, H-A:ASP:366:OD1:3209, V-A:HIS:456:CE1:4064, V-B:GLY:544:C:9880, V-B:GLU:543:C:9870, H-A:ASP:366:OD2:3210, V-A:TYR:484:CZ:4342, V-B:ARG:545:CG:9890, V-B:ARG:545:CA:9887, V-A:HIS:456:CD2:4063"]

$$$$
4cb_Grossjean_2025
     RDKit          3D

 33 36  0  0  0  0  0  0  0  0999 V2000
  129.6060  132.6510   54.6070 C   0  0  0  0  0  0  0  0  0  0  0  0
  130.4590  133.3630   55.4930 O   0  0  0  0  0  0  0  0  0  0  0  0
  131.6300  132.8250   55.9190 C   0  0  0  0  0  0  0  0  0  0  0  0
  132.7080  132.9930   55.3410 O   0  0  0  0  0  0  0  0  0  0  0  0
  131.4850  132.0020   57.1680 C   0  0  0  0  0  0  0  0  0  0  0  0
  130.3010  132.0920   57.9120 C   0  0  0  0  0  0  0  0  0  0  0  0
  130.1330  131.3360   59.0690 C   0  0  0  0  0  0  0  0  0  0  0  0
  131.1450  130.4830   59.5100 C   0  0  0  0  0  0  0  0  0  0  0  0
  130.8640  129.7560   60.6830 N   0  0  0  0  0  0  0  0  0  0  0  0
  130.0810  128.6650   60.8670 C   0  0  0  0  0  0  0  0  0  0  0  0
  129.4920  128.0750   59.9600 O   0  0  0  0  0  0  0  0  0  0  0  0
  129.9820  128.1920   62.2500 C   0  0  0  0  0  0  0  0  0  0  0  0
  128.7380  128.8350   63.3200 S   0  0  0  0  0  0  0  0  0  0  0  0
  129.2590  127.7950   64.6250 C   0  0  0  0  0  0  0  0  0  0  0  0
  128.6540  127.8110   65.8100 N   0  0  0  0  0  0  0  0  0  0  0  0
  129.1230  126.9600   66.7600 C   0  0  0  0  0  0  0  0  0  0  0  0
  128.4170  126.9980   68.0840 C   0  0  0  0  0  0  0  0  0  0  0  0
  129.1440  127.0500   69.2840 C   0  0  0  0  0  0  0  0  0  0  0  0
  128.4960  127.0810   70.5160 C   0  0  0  0  0  0  0  0  0  0  0  0
  127.1060  127.0600   70.5650 C   0  0  0  0  0  0  0  0  0  0  0  0
  126.3610  127.0060   69.3910 C   0  0  0  0  0  0  0  0  0  0  0  0
  127.0130  126.9730   68.1630 C   0  0  0  0  0  0  0  0  0  0  0  0
  130.2100  126.1130   66.5200 C   0  0  0  0  0  0  0  0  0  0  0  0
  130.8570  126.0910   65.2750 C   0  0  0  0  0  0  0  0  0  0  0  0
  132.0410  125.1360   65.0800 C   0  0  0  0  0  0  0  0  0  0  0  0
  131.7130  124.0250   64.4170 F   0  0  0  0  0  0  0  0  0  0  0  0
  133.0010  125.7460   64.3840 F   0  0  0  0  0  0  0  0  0  0  0  0
  132.5240  124.7660   66.2650 F   0  0  0  0  0  0  0  0  0  0  0  0
  130.3630  126.9680   64.2670 C   0  0  0  0  0  0  0  0  0  0  0  0
  130.7520  127.2130   62.8990 C   0  0  0  0  0  0  0  0  0  0  0  0
  131.7860  126.5460   62.2930 N   0  0  0  0  0  0  0  0  0  0  0  0
  132.3330  130.3840   58.7690 C   0  0  0  0  0  0  0  0  0  0  0  0
  132.4980  131.1390   57.6120 C   0  0  0  0  0  0  0  0  0  0  0  0
  1  2  1  0
  2  3  1  0
  3  4  2  0
  3  5  1  0
  5  6  2  0
  6  7  1  0
  7  8  2  0
  8  9  1  0
  9 10  1  0
 10 11  2  0
 10 12  1  0
 12 13  1  0
 13 14  1  0
 14 15  2  0
 15 16  1  0
 16 17  1  0
 17 18  2  0
 18 19  1  0
 19 20  2  0
 20 21  1  0
 21 22  2  0
 16 23  2  0
 23 24  1  0
 24 25  1  0
 25 26  1  0
 25 27  1  0
 25 28  1  0
 24 29  2  0
 29 30  1  0
 30 31  1  0
  8 32  1  0
 32 33  2  0
 33  5  1  0
 30 12  2  0
 29 14  1  0
 22 17  1  0
M  END
>  <Binding energies>  (31) 
[-7.62]

>  <Ligand effiencies>  (31) 
[-0.21166666666666667]

>  <Interactions>  (31) 
["V-A:PRO:540:CA:4878, V-A:ILE:538:CG2:4858, V-A:ASP:366:CG:3208, H-A:GLU:543:OE2:4905, V-A:TYR:539:CE1:4870, V-A:ILE:538:CA:4855, V-A:PRO:540:CB:4880, V-A:ARG:545:CZ:4921, V-A:LEU:363:CD1:3184, V-A:GLU:543:CD:4903, V-A:PRO:540:N:4879, V-A:PRO:540:CD:4882, V-A:TYR:531:CE2:4788, V-B:GLU:543:CB:9874, V-B:HIS:456:CE1:9037, H-A:TYR:539:N:4865, V-A:TYR:539:CD1:4868, H-A:ASP:366:OD1:3209, V-A:HIS:456:CE1:4064, V-B:GLY:544:C:9880, V-B:GLU:543:C:9870, H-A:ASP:366:OD2:3210, V-A:TYR:484:CZ:4342, V-B:ARG:545:CG:9890, V-B:ARG:545:CA:9887, V-A:HIS:456:CD2:4063"]

$$$$
4cc_Grossjean_2025
     RDKit          3D

 31 34  0  0  0  0  0  0  0  0999 V2000
  123.4710  129.8440   66.5370 C   0  0  0  0  0  0  0  0  0  0  0  0
  123.5140  131.0770   65.8270 O   0  0  0  0  0  0  0  0  0  0  0  0
  124.4380  131.2400   64.8130 C   0  0  0  0  0  0  0  0  0  0  0  0
  125.3280  130.1860   64.6070 C   0  0  0  0  0  0  0  0  0  0  0  0
  126.2940  130.2580   63.6070 C   0  0  0  0  0  0  0  0  0  0  0  0
  126.3890  131.3950   62.8030 C   0  0  0  0  0  0  0  0  0  0  0  0
  127.3850  131.3710   61.8090 N   0  0  0  0  0  0  0  0  0  0  0  0
  128.3800  132.2600   61.5710 C   0  0  0  0  0  0  0  0  0  0  0  0
  128.5900  133.2590   62.2600 O   0  0  0  0  0  0  0  0  0  0  0  0
  129.2270  131.9610   60.4120 C   0  0  0  0  0  0  0  0  0  0  0  0
  128.6080  132.1880   58.7770 S   0  0  0  0  0  0  0  0  0  0  0  0
  130.1220  131.6580   58.0830 C   0  0  0  0  0  0  0  0  0  0  0  0
  130.3000  131.6050   56.7650 N   0  0  0  0  0  0  0  0  0  0  0  0
  131.5140  131.1900   56.3180 C   0  0  0  0  0  0  0  0  0  0  0  0
  131.6840  131.1370   54.8280 C   0  0  0  0  0  0  0  0  0  0  0  0
  130.5670  131.1200   53.9770 C   0  0  0  0  0  0  0  0  0  0  0  0
  130.7170  131.0690   52.5940 C   0  0  0  0  0  0  0  0  0  0  0  0
  131.9920  131.0320   52.0390 C   0  0  0  0  0  0  0  0  0  0  0  0
  133.1160  131.0440   52.8590 C   0  0  0  0  0  0  0  0  0  0  0  0
  132.9610  131.0940   54.2420 C   0  0  0  0  0  0  0  0  0  0  0  0
  132.5360  130.8160   57.1960 C   0  0  0  0  0  0  0  0  0  0  0  0
  132.3580  130.8670   58.5880 C   0  0  0  0  0  0  0  0  0  0  0  0
  133.5230  130.4480   59.4920 C   0  0  0  0  0  0  0  0  0  0  0  0
  133.1320  129.7520   60.5620 F   0  0  0  0  0  0  0  0  0  0  0  0
  134.3730  129.6840   58.8070 F   0  0  0  0  0  0  0  0  0  0  0  0
  134.1630  131.5310   59.9330 F   0  0  0  0  0  0  0  0  0  0  0  0
  131.0920  131.3090   59.0680 C   0  0  0  0  0  0  0  0  0  0  0  0
  130.5490  131.4890   60.3920 C   0  0  0  0  0  0  0  0  0  0  0  0
  131.2690  131.2220   61.5300 N   0  0  0  0  0  0  0  0  0  0  0  0
  125.4900  132.4540   62.9960 C   0  0  0  0  0  0  0  0  0  0  0  0
  124.5250  132.3770   63.9960 C   0  0  0  0  0  0  0  0  0  0  0  0
  1  2  1  0
  2  3  1  0
  3  4  2  0
  4  5  1  0
  5  6  2  0
  6  7  1  0
  7  8  1  0
  8  9  2  0
  8 10  1  0
 10 11  1  0
 11 12  1  0
 12 13  2  0
 13 14  1  0
 14 15  1  0
 15 16  2  0
 16 17  1  0
 17 18  2  0
 18 19  1  0
 19 20  2  0
 14 21  2  0
 21 22  1  0
 22 23  1  0
 23 24  1  0
 23 25  1  0
 23 26  1  0
 22 27  2  0
 27 28  1  0
 28 29  1  0
  6 30  1  0
 30 31  2  0
 31  3  1  0
 28 10  2  0
 27 12  1  0
 20 15  1  0
M  END
>  <Binding energies>  (32) 
[-8.01]

>  <Ligand effiencies>  (32) 
[-0.23558823529411765]

>  <Interactions>  (32) 
["V-A:PRO:540:CA:4878, V-A:MET:535:CG:4828, V-A:ASP:366:CG:3208, H-A:GLU:543:OE2:4905, V-B:LEU:475:CD2:9226, V-A:PRO:540:CB:4880, H-A:ALA:541:N:4886, V-A:ILE:538:CD1:4860, V-A:LEU:363:CD1:3184, V-A:GLU:543:CD:4903, V-A:PRO:540:CG:4881, V-A:TYR:531:CZ:4789, V-A:ASP:366:CB:3207, V-A:TYR:531:CE2:4788, H-B:GLY:454:N:9017, V-B:HIS:456:CE1:9037, V-A:MET:535:CB:4827, V-A:LEU:363:CA:3180, V-A:TYR:531:CD2:4786, V-A:LEU:363:CB:3182, V-A:ILE:532:CA:4795, V-A:TYR:531:CG:4784, V-A:TYR:531:C:4779, V-B:TYR:484:CZ:9314, V-A:ASN:362:C:3167, V-A:ASN:362:CB:3171, H-B:TYR:484:OH:9315, V-B:ARG:545:CD:9891, V-B:ARG:545:CG:9890, H-A:ALA:541:O:4884, V-B:GLY:454:CA:9016, H-B:ILE:455:N:9022, V-A:LEU:363:C:3178"]

$$$$
4ce_Grossjean_2025
     RDKit          3D

 30 33  0  0  0  0  0  0  0  0999 V2000
  124.9040  129.2240   65.5540 C   0  0  0  0  0  0  0  0  0  0  0  0
  125.0730  130.4110   64.6250 C   0  0  0  0  0  0  0  0  0  0  0  0
  124.2890  131.5600   64.7590 C   0  0  0  0  0  0  0  0  0  0  0  0
  124.5040  132.6180   63.8740 C   0  0  0  0  0  0  0  0  0  0  0  0
  125.4870  132.5030   62.8890 C   0  0  0  0  0  0  0  0  0  0  0  0
  126.2340  131.3220   62.8070 C   0  0  0  0  0  0  0  0  0  0  0  0
  127.2250  131.2760   61.8110 N   0  0  0  0  0  0  0  0  0  0  0  0
  128.4040  131.9450   61.7550 C   0  0  0  0  0  0  0  0  0  0  0  0
  128.7960  132.7160   62.6330 O   0  0  0  0  0  0  0  0  0  0  0  0
  129.2150  131.6940   60.5620 C   0  0  0  0  0  0  0  0  0  0  0  0
  128.5120  131.8830   58.9570 S   0  0  0  0  0  0  0  0  0  0  0  0
  130.0300  131.4740   58.1950 C   0  0  0  0  0  0  0  0  0  0  0  0
  130.1570  131.4460   56.8710 N   0  0  0  0  0  0  0  0  0  0  0  0
  131.3810  131.1320   56.3700 C   0  0  0  0  0  0  0  0  0  0  0  0
  131.4910  131.1140   54.8740 C   0  0  0  0  0  0  0  0  0  0  0  0
  132.7000  130.7680   54.2490 C   0  0  0  0  0  0  0  0  0  0  0  0
  132.8120  130.7560   52.8610 C   0  0  0  0  0  0  0  0  0  0  0  0
  131.7120  131.0890   52.0770 C   0  0  0  0  0  0  0  0  0  0  0  0
  130.5040  131.4360   52.6710 C   0  0  0  0  0  0  0  0  0  0  0  0
  130.3960  131.4490   54.0600 C   0  0  0  0  0  0  0  0  0  0  0  0
  132.4640  130.8270   57.2010 C   0  0  0  0  0  0  0  0  0  0  0  0
  132.3400  130.8490   58.5990 C   0  0  0  0  0  0  0  0  0  0  0  0
  133.5680  130.5080   59.4500 C   0  0  0  0  0  0  0  0  0  0  0  0
  134.1100  131.5750   60.0390 F   0  0  0  0  0  0  0  0  0  0  0  0
  133.2250  129.6510   60.4130 F   0  0  0  0  0  0  0  0  0  0  0  0
  134.5070  129.9540   58.6840 F   0  0  0  0  0  0  0  0  0  0  0  0
  131.0650  131.1930   59.1350 C   0  0  0  0  0  0  0  0  0  0  0  0
  130.5680  131.3250   60.4830 C   0  0  0  0  0  0  0  0  0  0  0  0
  131.3520  131.1090   61.5870 N   0  0  0  0  0  0  0  0  0  0  0  0
  126.0320  130.2850   63.6720 N   0  0  0  0  0  0  0  0  0  0  0  0
  1  2  1  0
  2  3  2  0
  3  4  1  0
  4  5  2  0
  5  6  1  0
  6  7  1  0
  7  8  1  0
  8  9  2  0
  8 10  1  0
 10 11  1  0
 11 12  1  0
 12 13  2  0
 13 14  1  0
 14 15  1  0
 15 16  2  0
 16 17  1  0
 17 18  2  0
 18 19  1  0
 19 20  2  0
 14 21  2  0
 21 22  1  0
 22 23  1  0
 23 24  1  0
 23 25  1  0
 23 26  1  0
 22 27  2  0
 27 28  1  0
 28 29  1  0
  6 30  2  0
 30  2  1  0
 28 10  2  0
 27 12  1  0
 20 15  1  0
M  END
>  <Binding energies>  (33) 
[-7.58]

>  <Ligand effiencies>  (33) 
[-0.2296969696969697]

>  <Interactions>  (33) 
["V-A:PRO:540:CA:4878, V-A:MET:535:CG:4828, V-A:ASP:366:CG:3208, H-A:GLU:543:OE2:4905, V-B:LEU:475:CD2:9226, V-A:PRO:540:CB:4880, H-A:ALA:541:N:4886, V-A:ILE:538:CD1:4860, V-A:LEU:363:CD1:3184, V-A:GLU:543:CD:4903, V-A:PRO:540:CG:4881, V-A:TYR:531:CZ:4789, V-A:ASP:366:CB:3207, V-A:TYR:531:CE1:4787, V-A:TYR:531:CE2:4788, V-B:HIS:456:CE1:9037, V-A:MET:535:CB:4827, V-A:LEU:363:CA:3180, V-A:TYR:531:CD2:4786, V-A:LEU:363:CB:3182, V-A:ILE:532:CA:4795, V-A:TYR:531:CG:4784, V-A:TYR:531:C:4779, V-B:TYR:484:CZ:9314, V-A:ASN:362:C:3167, V-A:ASN:362:CB:3171, H-B:TYR:484:OH:9315, V-B:ARG:545:CZ:9894, V-B:ARG:545:CD:9891, V-B:ARG:545:CG:9890, V-B:GLY:454:CA:9016, V-A:LEU:363:C:3178"]

$$$$
4cf_Grossjean_2025
     RDKit          3D

 29 32  0  0  0  0  0  0  0  0999 V2000
  131.1000  131.2110   61.7520 N   0  0  0  0  0  0  0  0  0  0  0  0
  130.2990  131.4310   60.6610 C   0  0  0  0  0  0  0  0  0  0  0  0
  128.9460  131.7930   60.7600 C   0  0  0  0  0  0  0  0  0  0  0  0
  128.1320  131.9670   61.9660 C   0  0  0  0  0  0  0  0  0  0  0  0
  128.3280  132.9210   62.7220 O   0  0  0  0  0  0  0  0  0  0  0  0
  127.1750  131.0290   62.1620 N   0  0  0  0  0  0  0  0  0  0  0  0
  126.2710  130.8770   63.2310 C   0  0  0  0  0  0  0  0  0  0  0  0
  126.4490  130.0250   64.3370 C   0  0  0  0  0  0  0  0  0  0  0  0
  125.4630  129.9590   65.3240 C   0  0  0  0  0  0  0  0  0  0  0  0
  124.3200  130.7460   65.1800 C   0  0  0  0  0  0  0  0  0  0  0  0
  124.1200  131.5700   64.1210 N   0  0  0  0  0  0  0  0  0  0  0  0
  125.0880  131.6220   63.1690 C   0  0  0  0  0  0  0  0  0  0  0  0
  128.2250  132.0000   59.1650 S   0  0  0  0  0  0  0  0  0  0  0  0
  129.7330  131.5940   58.3810 C   0  0  0  0  0  0  0  0  0  0  0  0
  129.8400  131.5650   57.0540 N   0  0  0  0  0  0  0  0  0  0  0  0
  131.0500  131.2220   56.5370 C   0  0  0  0  0  0  0  0  0  0  0  0
  131.1390  131.1910   55.0390 C   0  0  0  0  0  0  0  0  0  0  0  0
  130.0640  131.6220   54.2470 C   0  0  0  0  0  0  0  0  0  0  0  0
  130.1380  131.5970   52.8570 C   0  0  0  0  0  0  0  0  0  0  0  0
  131.2970  131.1410   52.2370 C   0  0  0  0  0  0  0  0  0  0  0  0
  132.3800  130.7100   52.9980 C   0  0  0  0  0  0  0  0  0  0  0  0
  132.3000  130.7380   54.3870 C   0  0  0  0  0  0  0  0  0  0  0  0
  132.1480  130.9350   57.3520 C   0  0  0  0  0  0  0  0  0  0  0  0
  132.0460  130.9670   58.7520 C   0  0  0  0  0  0  0  0  0  0  0  0
  133.2890  130.6350   59.5860 C   0  0  0  0  0  0  0  0  0  0  0  0
  133.7500  131.6800   60.2780 F   0  0  0  0  0  0  0  0  0  0  0  0
  133.0010  129.6730   60.4620 F   0  0  0  0  0  0  0  0  0  0  0  0
  134.2730  130.2220   58.7860 F   0  0  0  0  0  0  0  0  0  0  0  0
  130.7790  131.3070   59.3060 C   0  0  0  0  0  0  0  0  0  0  0  0
  1  2  1  0
  2  3  2  0
  3  4  1  0
  4  5  2  0
  4  6  1  0
  6  7  1  0
  7  8  2  0
  8  9  1  0
  9 10  2  0
 10 11  1  0
 11 12  2  0
  3 13  1  0
 13 14  1  0
 14 15  2  0
 15 16  1  0
 16 17  1  0
 17 18  2  0
 18 19  1  0
 19 20  2  0
 20 21  1  0
 21 22  2  0
 16 23  2  0
 23 24  1  0
 24 25  1  0
 25 26  1  0
 25 27  1  0
 25 28  1  0
 24 29  2  0
 29  2  1  0
 12  7  1  0
 29 14  1  0
 22 17  1  0
M  END
>  <Binding energies>  (34) 
[-7.69]

>  <Ligand effiencies>  (34) 
[-0.2403125]

>  <Interactions>  (34) 
["V-A:PRO:540:CA:4878, V-A:MET:535:CG:4828, V-A:ASP:366:CG:3208, H-A:GLU:543:OE2:4905, V-A:PRO:540:CB:4880, V-A:ILE:538:CD1:4860, V-A:LEU:363:CD1:3184, V-A:GLU:543:CD:4903, V-A:PRO:540:CG:4881, V-A:TYR:531:CZ:4789, V-A:ASP:366:CB:3207, V-A:TYR:531:CE1:4787, V-A:TYR:531:CE2:4788, V-A:GLU:543:CG:4902, H-B:GLY:454:N:9017, V-B:HIS:456:CE1:9037, V-A:MET:535:CB:4827, V-A:LEU:363:CA:3180, V-A:TYR:531:CD2:4786, V-A:LEU:363:CB:3182, V-A:TYR:531:C:4779, V-A:ASN:362:C:3167, V-A:ASN:362:CB:3171, H-B:TYR:484:OH:9315, V-B:GLY:454:CA:9016, V-A:LEU:363:C:3178"]

$$$$
4ci_Grossjean_2025
     RDKit          3D

 28 31  0  0  0  0  0  0  0  0999 V2000
  130.1200  131.4610   62.7940 N   0  0  0  0  0  0  0  0  0  0  0  0
  129.3580  131.6220   61.6660 C   0  0  0  0  0  0  0  0  0  0  0  0
  127.9660  131.8050   61.6980 C   0  0  0  0  0  0  0  0  0  0  0  0
  127.0800  131.8740   62.8640 C   0  0  0  0  0  0  0  0  0  0  0  0
  127.1770  132.7990   63.6740 O   0  0  0  0  0  0  0  0  0  0  0  0
  126.1850  130.8610   62.9780 N   0  0  0  0  0  0  0  0  0  0  0  0
  125.2390  130.6770   63.9770 C   0  0  0  0  0  0  0  0  0  0  0  0
  125.4940  129.9630   65.1480 C   0  0  0  0  0  0  0  0  0  0  0  0
  124.3190  130.0120   65.8610 C   0  0  0  0  0  0  0  0  0  0  0  0
  123.4030  130.7200   65.1570 O   0  0  0  0  0  0  0  0  0  0  0  0
  123.9980  131.1350   63.9650 N   0  0  0  0  0  0  0  0  0  0  0  0
  127.3100  131.9880   60.0730 S   0  0  0  0  0  0  0  0  0  0  0  0
  128.8980  131.8090   59.3640 C   0  0  0  0  0  0  0  0  0  0  0  0
  129.0810  131.8590   58.0460 N   0  0  0  0  0  0  0  0  0  0  0  0
  130.3510  131.7130   57.5880 C   0  0  0  0  0  0  0  0  0  0  0  0
  130.5240  131.7690   56.0970 C   0  0  0  0  0  0  0  0  0  0  0  0
  129.4720  132.1830   55.2640 C   0  0  0  0  0  0  0  0  0  0  0  0
  129.6260  132.2370   53.8810 C   0  0  0  0  0  0  0  0  0  0  0  0
  130.8410  131.8750   53.3090 C   0  0  0  0  0  0  0  0  0  0  0  0
  131.8990  131.4570   54.1080 C   0  0  0  0  0  0  0  0  0  0  0  0
  131.7390  131.4030   55.4910 C   0  0  0  0  0  0  0  0  0  0  0  0
  131.4280  131.5010   58.4550 C   0  0  0  0  0  0  0  0  0  0  0  0
  131.2470  131.4480   59.8460 C   0  0  0  0  0  0  0  0  0  0  0  0
  132.4720  131.2130   60.7370 C   0  0  0  0  0  0  0  0  0  0  0  0
  132.4730  130.0130   61.3210 F   0  0  0  0  0  0  0  0  0  0  0  0
  133.5830  131.3000   60.0050 F   0  0  0  0  0  0  0  0  0  0  0  0
  132.5090  132.1290   61.7050 F   0  0  0  0  0  0  0  0  0  0  0  0
  129.9200  131.6120   60.3370 C   0  0  0  0  0  0  0  0  0  0  0  0
  1  2  1  0
  2  3  2  0
  3  4  1  0
  4  5  2  0
  4  6  1  0
  6  7  1  0
  7  8  1  0
  8  9  2  0
  9 10  1  0
 10 11  1  0
  3 12  1  0
 12 13  1  0
 13 14  2  0
 14 15  1  0
 15 16  1  0
 16 17  2  0
 17 18  1  0
 18 19  2  0
 19 20  1  0
 20 21  2  0
 15 22  2  0
 22 23  1  0
 23 24  1  0
 24 25  1  0
 24 26  1  0
 24 27  1  0
 23 28  2  0
 28  2  1  0
 11  7  2  0
 28 13  1  0
 21 16  1  0
M  END
>  <Binding energies>  (35) 
[-7.37]

>  <Ligand effiencies>  (35) 
[-0.23774193548387096]

>  <Interactions>  (35) 
["V-A:TYR:539:CE2:4871, V-A:PRO:540:CA:4878, H-A:GLU:543:OE2:4905, V-A:TYR:539:CE1:4870, V-A:PRO:540:CB:4880, V-A:ILE:538:CD1:4860, V-A:LEU:363:CD1:3184, V-A:GLU:543:CD:4903, V-A:GLU:543:CG:4902, H-B:GLY:454:N:9017, V-B:HIS:456:CE1:9037, V-A:MET:535:CB:4827, V-A:LEU:363:CA:3180, V-A:TYR:539:CD1:4868, V-A:ASN:362:C:3167, V-A:ASN:362:CB:3171, V-A:PRO:540:C:4876, H-B:TYR:484:OH:9315, V-B:ARG:545:CD:9891"]

$$$$
8a_Ghoteimi_2023
     RDKit          3D

 40 44  0  0  0  0  0  0  0  0999 V2000
  129.7280  124.4350   71.8760 C   0  0  0  0  0  0  0  0  0  0  0  0
  130.3890  125.5680   72.6660 C   0  0  0  0  0  0  0  0  0  0  0  0
  129.3920  126.4770   73.1140 O   0  0  0  0  0  0  0  0  0  0  0  0
  129.3600  127.7600   72.6650 C   0  0  0  0  0  0  0  0  0  0  0  0
  129.3520  128.7420   73.4130 O   0  0  0  0  0  0  0  0  0  0  0  0
  129.3300  127.8640   71.1670 C   0  0  0  0  0  0  0  0  0  0  0  0
  130.3820  128.5100   70.5050 C   0  0  0  0  0  0  0  0  0  0  0  0
  130.3820  128.6230   69.1180 C   0  0  0  0  0  0  0  0  0  0  0  0
  129.3330  128.0960   68.3630 C   0  0  0  0  0  0  0  0  0  0  0  0
  129.4380  128.2740   66.9690 N   0  0  0  0  0  0  0  0  0  0  0  0
  128.5040  128.1410   65.9960 C   0  0  0  0  0  0  0  0  0  0  0  0
  127.3340  127.8170   66.1970 O   0  0  0  0  0  0  0  0  0  0  0  0
  128.9750  128.4210   64.6360 C   0  0  0  0  0  0  0  0  0  0  0  0
  128.7080  130.0040   63.9080 S   0  0  0  0  0  0  0  0  0  0  0  0
  129.4940  129.5080   62.4270 C   0  0  0  0  0  0  0  0  0  0  0  0
  129.6020  130.3290   61.3830 N   0  0  0  0  0  0  0  0  0  0  0  0
  130.2270  129.8420   60.2780 C   0  0  0  0  0  0  0  0  0  0  0  0
  130.3190  130.7730   59.1110 C   0  0  0  0  0  0  0  0  0  0  0  0
  131.3920  130.7030   58.2120 C   0  0  0  0  0  0  0  0  0  0  0  0
  131.4780  131.5800   57.1350 C   0  0  0  0  0  0  0  0  0  0  0  0
  130.4960  132.5450   56.9270 C   0  0  0  0  0  0  0  0  0  0  0  0
  130.6650  133.3740   55.8340 O   0  0  0  0  0  0  0  0  0  0  0  0
  130.1340  132.9760   54.5740 C   0  0  0  0  0  0  0  0  0  0  0  0
  129.4150  132.6200   57.8170 C   0  0  0  0  0  0  0  0  0  0  0  0
  129.3320  131.7440   58.8960 C   0  0  0  0  0  0  0  0  0  0  0  0
  130.7450  128.5470   60.2240 C   0  0  0  0  0  0  0  0  0  0  0  0
  130.6480  127.6870   61.3230 C   0  0  0  0  0  0  0  0  0  0  0  0
  131.2450  126.3310   61.2230 C   0  0  0  0  0  0  0  0  0  0  0  0
  130.9000  125.4870   60.1650 C   0  0  0  0  0  0  0  0  0  0  0  0
  131.4720  124.2230   60.0560 C   0  0  0  0  0  0  0  0  0  0  0  0
  132.4010  123.7820   60.9980 C   0  0  0  0  0  0  0  0  0  0  0  0
  132.9170  122.5140   60.8090 O   0  0  0  0  0  0  0  0  0  0  0  0
  132.8870  121.9390   59.5080 C   0  0  0  0  0  0  0  0  0  0  0  0
  132.7560  124.6310   62.0580 C   0  0  0  0  0  0  0  0  0  0  0  0
  132.1830  125.8960   62.1640 C   0  0  0  0  0  0  0  0  0  0  0  0
  129.9790  128.1680   62.4840 C   0  0  0  0  0  0  0  0  0  0  0  0
  129.6510  127.5650   63.7520 C   0  0  0  0  0  0  0  0  0  0  0  0
  129.9630  126.2620   64.0500 N   0  0  0  0  0  0  0  0  0  0  0  0
  128.2780  127.4430   69.0170 C   0  0  0  0  0  0  0  0  0  0  0  0
  128.2790  127.3300   70.4060 C   0  0  0  0  0  0  0  0  0  0  0  0
  1  2  1  0
  2  3  1  0
  3  4  1  0
  4  5  2  0
  4  6  1  0
  6  7  2  0
  7  8  1  0
  8  9  2  0
  9 10  1  0
 10 11  1  0
 11 12  2  0
 11 13  1  0
 13 14  1  0
 14 15  1  0
 15 16  2  0
 16 17  1  0
 17 18  1  0
 18 19  2  0
 19 20  1  0
 20 21  2  0
 21 22  1  0
 22 23  1  0
 21 24  1  0
 24 25  2  0
 17 26  2  0
 26 27  1  0
 27 28  1  0
 28 29  2  0
 29 30  1  0
 30 31  2  0
 31 32  1  0
 32 33  1  0
 31 34  1  0
 34 35  2  0
 27 36  2  0
 36 37  1  0
 37 38  1  0
  9 39  1  0
 39 40  2  0
 40  6  1  0
 37 13  2  0
 36 15  1  0
 25 18  1  0
 35 28  1  0
M  END
>  <Binding energies>  (36) 
[-9.0]

>  <Ligand effiencies>  (36) 
[-0.20930232558139536]

>  <Interactions>  (36) 
["V-A:PRO:540:CA:4878, V-A:ASP:366:CG:3208, V-A:ILE:538:C:4853, H-A:GLU:543:OE1:4904, V-A:TYR:539:CE1:4870, V-A:ILE:369:CD1:3234, V-A:ILE:538:CA:4855, V-A:PRO:540:CB:4880, V-A:ILE:538:CD1:4860, V-A:GLU:543:CD:4903, H-B:GLU:543:OE2:9878, V-A:PRO:540:N:4879, V-B:GLU:543:CD:9876, V-A:TYR:539:C:4862, V-B:TYR:539:CE2:9844, V-A:ILE:369:CG2:3232, V-A:PRO:540:CD:4882, V-A:GLU:543:CG:4902, V-B:HIS:456:CE1:9037, H-A:TYR:539:N:4865, V-A:TYR:539:CD1:4868, H-B:LYS:547:NZ:9919, V-A:HIS:456:CE1:4064, V-A:GLU:543:C:4897, V-A:GLU:543:CB:4901, H-A:LYS:547:NZ:4946, V-A:VAL:537:C:4845"]

$$$$
8c_Ghoteimi_2023
     RDKit          3D

 34 38  0  0  0  0  0  0  0  0999 V2000
  128.0360  130.5020   74.5480 C   0  0  0  0  0  0  0  0  0  0  0  0
  128.9240  129.4470   74.1950 O   0  0  0  0  0  0  0  0  0  0  0  0
  129.0420  129.0810   72.8670 C   0  0  0  0  0  0  0  0  0  0  0  0
  127.9170  128.5110   72.2760 C   0  0  0  0  0  0  0  0  0  0  0  0
  127.9450  128.1090   70.9440 C   0  0  0  0  0  0  0  0  0  0  0  0
  129.1020  128.2690   70.1670 C   0  0  0  0  0  0  0  0  0  0  0  0
  129.1400  127.8360   68.7350 C   0  0  0  0  0  0  0  0  0  0  0  0
  128.5680  128.6050   67.7170 C   0  0  0  0  0  0  0  0  0  0  0  0
  128.6200  128.1790   66.3860 C   0  0  0  0  0  0  0  0  0  0  0  0
  127.9970  129.0120   65.3330 C   0  0  0  0  0  0  0  0  0  0  0  0
  126.8170  128.5960   64.7110 C   0  0  0  0  0  0  0  0  0  0  0  0
  126.2280  129.3860   63.7290 C   0  0  0  0  0  0  0  0  0  0  0  0
  126.8080  130.5970   63.3490 C   0  0  0  0  0  0  0  0  0  0  0  0
  126.1520  131.3150   62.3680 O   0  0  0  0  0  0  0  0  0  0  0  0
  124.7970  131.0030   62.0670 C   0  0  0  0  0  0  0  0  0  0  0  0
  127.9960  131.0120   63.9720 C   0  0  0  0  0  0  0  0  0  0  0  0
  128.5840  130.2220   64.9560 C   0  0  0  0  0  0  0  0  0  0  0  0
  129.2730  126.9500   66.1030 C   0  0  0  0  0  0  0  0  0  0  0  0
  129.5090  126.2290   64.8800 C   0  0  0  0  0  0  0  0  0  0  0  0
  129.0810  126.6910   63.6600 N   0  0  0  0  0  0  0  0  0  0  0  0
  130.2110  125.0260   65.0540 C   0  0  0  0  0  0  0  0  0  0  0  0
  130.6220  124.0540   64.0390 C   0  0  0  0  0  0  0  0  0  0  0  0
  131.7960  123.6840   63.9590 O   0  0  0  0  0  0  0  0  0  0  0  0
  129.6340  123.6140   63.2210 N   0  0  0  0  0  0  0  0  0  0  0  0
  129.7540  122.6980   62.1860 C   0  0  0  0  0  0  0  0  0  0  0  0
  129.3060  122.8080   60.9540 N   0  0  0  0  0  0  0  0  0  0  0  0
  129.6020  121.7450   60.2330 C   0  0  0  0  0  0  0  0  0  0  0  0
  130.3070  120.7370   60.8840 C   0  0  0  0  0  0  0  0  0  0  0  0
  130.5910  121.2190   62.5300 S   0  0  0  0  0  0  0  0  0  0  0  0
  130.6020  124.7570   66.7540 S   0  0  0  0  0  0  0  0  0  0  0  0
  129.8230  126.2530   67.2180 C   0  0  0  0  0  0  0  0  0  0  0  0
  129.7730  126.6570   68.4870 N   0  0  0  0  0  0  0  0  0  0  0  0
  130.2290  128.8460   70.7680 C   0  0  0  0  0  0  0  0  0  0  0  0
  130.2040  129.2470   72.1010 C   0  0  0  0  0  0  0  0  0  0  0  0
  1  2  1  0
  2  3  1  0
  3  4  2  0
  4  5  1  0
  5  6  2  0
  6  7  1  0
  7  8  2  0
  8  9  1  0
  9 10  1  0
 10 11  2  0
 11 12  1  0
 12 13  2  0
 13 14  1  0
 14 15  1  0
 13 16  1  0
 16 17  2  0
  9 18  2  0
 18 19  1  0
 19 20  1  0
 19 21  2  0
 21 22  1  0
 22 23  2  0
 22 24  1  0
 24 25  1  0
 25 26  2  0
 26 27  1  0
 27 28  2  0
 28 29  1  0
 21 30  1  0
 30 31  1  0
 31 32  2  0
  6 33  1  0
 33 34  2  0
 34  3  1  0
 32  7  1  0
 17 10  1  0
 31 18  1  0
 29 25  1  0
M  END
>  <Binding energies>  (37) 
[-8.01]

>  <Ligand effiencies>  (37) 
[-0.21648648648648647]

>  <Interactions>  (37) 
["H-A:GLU:543:OE1:4904, H-A:GLU:543:OE2:4905, V-A:GLU:543:CD:4903, H-A:TYR:484:OH:4343, H-B:GLU:543:OE2:9878, V-B:GLU:543:CD:9876, V-A:LEU:475:CD2:4254, V-A:GLU:543:CG:4902, V-B:GLU:543:CB:9874, V-B:HIS:456:CE1:9037, V-B:GLU:543:CG:9875, V-B:HIS:456:CD2:9035, V-A:HIS:456:CE1:4064, V-A:GLY:544:C:4907, H-A:HIS:456:NE2:4065, V-A:GLU:543:C:4897, V-A:LYS:547:CE:4945, V-A:TYR:484:CZ:4342, H-A:LYS:547:NZ:4946, V-A:TYR:484:CE1:4340, V-B:ALA:541:CB:9860, H-B:GLU:543:OE1:9877, V-B:HIS:456:CG:9033, V-A:LEU:475:CD1:4253"]

$$$$
8d_Ghoteimi_2023
     RDKit          3D

 30 33  0  0  0  0  0  0  0  0999 V2000
  131.0370  125.1870   66.1780 C   0  0  0  0  0  0  0  0  0  0  0  0
  132.4520  125.1300   66.0700 O   0  0  0  0  0  0  0  0  0  0  0  0
  133.0480  124.8250   64.8880 C   0  0  0  0  0  0  0  0  0  0  0  0
  134.2370  124.5160   64.7740 O   0  0  0  0  0  0  0  0  0  0  0  0
  132.1200  124.9020   63.7380 C   0  0  0  0  0  0  0  0  0  0  0  0
  131.5380  123.4210   62.9760 S   0  0  0  0  0  0  0  0  0  0  0  0
  130.5940  124.3380   61.8250 C   0  0  0  0  0  0  0  0  0  0  0  0
  129.8550  123.7430   60.8890 N   0  0  0  0  0  0  0  0  0  0  0  0
  129.1580  124.5500   60.0450 C   0  0  0  0  0  0  0  0  0  0  0  0
  128.3400  123.8570   59.0010 C   0  0  0  0  0  0  0  0  0  0  0  0
  126.9390  123.8990   59.0330 C   0  0  0  0  0  0  0  0  0  0  0  0
  126.1830  123.2520   58.0600 C   0  0  0  0  0  0  0  0  0  0  0  0
  126.8050  122.5470   57.0310 C   0  0  0  0  0  0  0  0  0  0  0  0
  125.9760  121.9370   56.1100 O   0  0  0  0  0  0  0  0  0  0  0  0
  124.5730  122.1700   56.1770 C   0  0  0  0  0  0  0  0  0  0  0  0
  128.2060  122.5000   56.9890 C   0  0  0  0  0  0  0  0  0  0  0  0
  128.9590  123.1490   57.9640 C   0  0  0  0  0  0  0  0  0  0  0  0
  129.2080  125.9440   60.1340 C   0  0  0  0  0  0  0  0  0  0  0  0
  129.9820  126.5680   61.1180 C   0  0  0  0  0  0  0  0  0  0  0  0
  130.0080  128.0480   61.1920 C   0  0  0  0  0  0  0  0  0  0  0  0
  131.0110  128.7660   60.5390 C   0  0  0  0  0  0  0  0  0  0  0  0
  131.0410  130.1560   60.6160 C   0  0  0  0  0  0  0  0  0  0  0  0
  130.0690  130.8470   61.3410 C   0  0  0  0  0  0  0  0  0  0  0  0
  130.1790  132.2230   61.3630 O   0  0  0  0  0  0  0  0  0  0  0  0
  129.0100  133.0160   61.1860 C   0  0  0  0  0  0  0  0  0  0  0  0
  129.0580  130.1220   61.9930 C   0  0  0  0  0  0  0  0  0  0  0  0
  129.0310  128.7320   61.9160 C   0  0  0  0  0  0  0  0  0  0  0  0
  130.7150  125.7450   62.0120 C   0  0  0  0  0  0  0  0  0  0  0  0
  131.5930  126.0380   63.1110 C   0  0  0  0  0  0  0  0  0  0  0  0
  131.8870  127.3200   63.5010 N   0  0  0  0  0  0  0  0  0  0  0  0
  1  2  1  0
  2  3  1  0
  3  4  2  0
  3  5  1  0
  5  6  1  0
  6  7  1  0
  7  8  2  0
  8  9  1  0
  9 10  1  0
 10 11  2  0
 11 12  1  0
 12 13  2  0
 13 14  1  0
 14 15  1  0
 13 16  1  0
 16 17  2  0
  9 18  2  0
 18 19  1  0
 19 20  1  0
 20 21  2  0
 21 22  1  0
 22 23  2  0
 23 24  1  0
 24 25  1  0
 23 26  1  0
 26 27  2  0
 19 28  2  0
 28 29  1  0
 29 30  1  0
 29  5  2  0
 28  7  1  0
 17 10  1  0
 27 20  1  0
M  END
>  <Binding energies>  (38) 
[-6.98]

>  <Ligand effiencies>  (38) 
[-0.218125]

>  <Interactions>  (38) 
["V-A:PRO:540:CA:4878, H-A:GLU:543:OE1:4904, H-A:GLU:543:OE2:4905, V-B:LEU:363:CD1:8156, H-A:ALA:541:N:4886, V-A:ARG:545:CZ:4921, H-A:GLY:454:N:4045, V-A:GLU:543:CD:4903, H-A:TYR:484:OH:4343, V-B:PRO:540:CA:9851, V-B:MET:535:CE:9803, H-B:TYR:539:N:9838, V-B:PRO:540:N:9852, V-B:TYR:539:CE2:9844, V-B:TYR:539:CD2:9842, V-B:PRO:540:CB:9853, V-B:TYR:539:CZ:9845, V-B:TYR:539:C:9835, V-B:TYR:539:CE1:9843, H-A:ASP:366:OD2:3210, H-A:HIS:456:NE2:4065, V-A:TYR:484:CZ:4342, V-B:PRO:540:CD:9855, V-B:PRO:540:CG:9854, V-A:PRO:540:C:4876, V-B:ILE:538:CG2:9831, V-B:TYR:539:CG:9840, V-B:TYR:539:CD1:9841"]

$$$$
9a_Ghoteimi_2023
     RDKit          3D

 48 54  0  0  0  0  0  0  0  0999 V2000
  128.9410  133.0560   58.0720 C   0  0  0  0  0  0  0  0  0  0  0  0
  128.6100  132.8530   59.5550 C   0  0  0  0  0  0  0  0  0  0  0  0
  127.6130  133.7870   59.9500 O   0  0  0  0  0  0  0  0  0  0  0  0
  127.4260  134.1030   61.2570 C   0  0  0  0  0  0  0  0  0  0  0  0
  127.1310  135.2370   61.6470 O   0  0  0  0  0  0  0  0  0  0  0  0
  127.6220  132.9380   62.1830 C   0  0  0  0  0  0  0  0  0  0  0  0
  128.8690  132.7510   62.7950 C   0  0  0  0  0  0  0  0  0  0  0  0
  129.0820  131.6800   63.6570 C   0  0  0  0  0  0  0  0  0  0  0  0
  128.0560  130.7750   63.9290 C   0  0  0  0  0  0  0  0  0  0  0  0
  128.3860  129.7310   64.8150 N   0  0  0  0  0  0  0  0  0  0  0  0
  128.5570  129.7420   66.1600 C   0  0  0  0  0  0  0  0  0  0  0  0
  128.4380  130.7440   66.8650 O   0  0  0  0  0  0  0  0  0  0  0  0
  128.8950  128.4470   66.7580 C   0  0  0  0  0  0  0  0  0  0  0  0
  128.7600  128.2080   68.5010 S   0  0  0  0  0  0  0  0  0  0  0  0
  129.2890  126.5480   68.3600 C   0  0  0  0  0  0  0  0  0  0  0  0
  129.3840  125.7530   69.4250 N   0  0  0  0  0  0  0  0  0  0  0  0
  129.7940  124.4750   69.2060 C   0  0  0  0  0  0  0  0  0  0  0  0
  129.8830  123.5980   70.4130 C   0  0  0  0  0  0  0  0  0  0  0  0
  129.3740  122.2950   70.3840 C   0  0  0  0  0  0  0  0  0  0  0  0
  129.4530  121.4700   71.5030 C   0  0  0  0  0  0  0  0  0  0  0  0
  130.0570  121.9140   72.6900 C   0  0  0  0  0  0  0  0  0  0  0  0
  130.1270  121.1050   73.8280 N   0  0  0  0  0  0  0  0  0  0  0  0
  130.8430  119.8130   73.8140 C   0  0  0  0  0  0  0  0  0  0  0  0
  130.5140  118.9050   75.0170 C   0  0  0  0  0  0  0  0  0  0  0  0
  130.7450  119.6010   76.2300 O   0  0  0  0  0  0  0  0  0  0  0  0
  129.9350  120.7620   76.3250 C   0  0  0  0  0  0  0  0  0  0  0  0
  130.2540  121.7250   75.1630 C   0  0  0  0  0  0  0  0  0  0  0  0
  130.5520  123.2260   72.7180 C   0  0  0  0  0  0  0  0  0  0  0  0
  130.4700  124.0510   71.6000 C   0  0  0  0  0  0  0  0  0  0  0  0
  130.1320  124.0080   67.9340 C   0  0  0  0  0  0  0  0  0  0  0  0
  130.0530  124.8460   66.8160 C   0  0  0  0  0  0  0  0  0  0  0  0
  130.4600  124.3100   65.4920 C   0  0  0  0  0  0  0  0  0  0  0  0
  131.4890  124.9130   64.7650 C   0  0  0  0  0  0  0  0  0  0  0  0
  131.8780  124.4010   63.5310 C   0  0  0  0  0  0  0  0  0  0  0  0
  131.2590  123.2590   62.9980 C   0  0  0  0  0  0  0  0  0  0  0  0
  131.6250  122.7330   61.7560 N   0  0  0  0  0  0  0  0  0  0  0  0
  131.1920  121.3680   61.3970 C   0  0  0  0  0  0  0  0  0  0  0  0
  131.3260  121.0610   59.8910 C   0  0  0  0  0  0  0  0  0  0  0  0
  132.6590  121.2980   59.4640 O   0  0  0  0  0  0  0  0  0  0  0  0
  133.0430  122.6480   59.6700 C   0  0  0  0  0  0  0  0  0  0  0  0
  132.9540  122.9980   61.1710 C   0  0  0  0  0  0  0  0  0  0  0  0
  130.2290  122.6600   63.7370 C   0  0  0  0  0  0  0  0  0  0  0  0
  129.8380  123.1750   64.9690 C   0  0  0  0  0  0  0  0  0  0  0  0
  129.5910  126.1790   67.0170 C   0  0  0  0  0  0  0  0  0  0  0  0
  129.3340  127.2770   66.1190 C   0  0  0  0  0  0  0  0  0  0  0  0
  129.4930  127.1720   64.7610 N   0  0  0  0  0  0  0  0  0  0  0  0
  126.8020  130.9550   63.3230 C   0  0  0  0  0  0  0  0  0  0  0  0
  126.5910  132.0270   62.4600 C   0  0  0  0  0  0  0  0  0  0  0  0
  1  2  1  0
  2  3  1  0
  3  4  1  0
  4  5  2  0
  4  6  1  0
  6  7  2  0
  7  8  1  0
  8  9  2  0
  9 10  1  0
 10 11  1  0
 11 12  2  0
 11 13  1  0
 13 14  1  0
 14 15  1  0
 15 16  2  0
 16 17  1  0
 17 18  1  0
 18 19  2  0
 19 20  1  0
 20 21  2  0
 21 22  1  0
 22 23  1  0
 23 24  1  0
 24 25  1  0
 25 26  1  0
 26 27  1  0
 21 28  1  0
 28 29  2  0
 17 30  2  0
 30 31  1  0
 31 32  1  0
 32 33  2  0
 33 34  1  0
 34 35  2  0
 35 36  1  0
 36 37  1  0
 37 38  1  0
 38 39  1  0
 39 40  1  0
 40 41  1  0
 35 42  1  0
 42 43  2  0
 31 44  2  0
 44 45  1  0
 45 46  1  0
  9 47  1  0
 47 48  2  0
 48  6  1  0
 45 13  2  0
 44 15  1  0
 29 18  1  0
 43 32  1  0
 27 22  1  0
 41 36  1  0
M  END
>  <Binding energies>  (39) 
[-9.53]

>  <Ligand effiencies>  (39) 
[-0.1868627450980392]

>  <Interactions>  (39) 
["V-A:TYR:539:CE2:4871, V-A:PRO:540:CA:4878, H-A:GLU:543:OE1:4904, H-A:GLU:543:OE2:4905, V-A:TYR:539:CE1:4870, V-A:ILE:369:CD1:3234, V-A:TYR:539:CZ:4872, V-A:ALA:541:CB:4887, V-A:TYR:539:CD2:4869, V-A:GLU:543:CD:4903, H-B:GLU:543:OE2:9878, V-A:PRO:540:N:4879, V-B:GLU:543:CD:9876, V-A:TYR:539:C:4862, V-A:LEU:475:CD2:4254, V-B:TYR:539:CE2:9844, V-B:TYR:539:CD2:9842, V-A:GLU:543:CG:4902, V-A:TYR:539:CG:4867, V-B:GLU:543:CB:9874, V-B:HIS:456:CE1:9037, V-B:GLU:543:CG:9875, V-A:TYR:539:CD1:4868, V-A:HIS:456:CE1:4064, V-B:GLU:543:C:9870, H-A:HIS:456:NE2:4065, V-A:TYR:484:CZ:4342, V-A:GLU:543:CB:4901, V-A:TYR:484:CE1:4340, V-B:ALA:541:CB:9860, V-B:GLU:543:CA:9872, V-A:TYR:484:CD1:4338, V-A:TYR:484:CB:4336, V-A:HIS:456:CG:4061, V-A:ASP:473:CB:4234, V-A:TYR:484:CG:4337, H-B:TYR:484:OH:9315, V-A:ASP:473:CG:4235, H-A:LYS:471:NZ:4216, V-A:HIS:456:CD2:4063"]

$$$$
9b_Ghoteimi_2023
     RDKit          3D

 42 48  0  0  0  0  0  0  0  0999 V2000
  128.6280  129.3030   58.8860 N   0  0  0  0  0  0  0  0  0  0  0  0
  128.8540  129.9700   60.0630 C   0  0  0  0  0  0  0  0  0  0  0  0
  129.2910  131.3030   60.1250 C   0  0  0  0  0  0  0  0  0  0  0  0
  129.5600  132.2290   59.0220 C   0  0  0  0  0  0  0  0  0  0  0  0
  129.0740  133.3620   59.0200 O   0  0  0  0  0  0  0  0  0  0  0  0
  130.3570  131.7450   58.0360 N   0  0  0  0  0  0  0  0  0  0  0  0
  130.7610  132.3970   56.8780 C   0  0  0  0  0  0  0  0  0  0  0  0
  131.9590  132.1120   56.2240 C   0  0  0  0  0  0  0  0  0  0  0  0
  131.9830  132.9570   55.1380 C   0  0  0  0  0  0  0  0  0  0  0  0
  130.8570  133.7120   55.1400 O   0  0  0  0  0  0  0  0  0  0  0  0
  130.0920  133.3470   56.2470 N   0  0  0  0  0  0  0  0  0  0  0  0
  129.5090  131.8250   61.7960 S   0  0  0  0  0  0  0  0  0  0  0  0
  129.0330  130.2540   62.3960 C   0  0  0  0  0  0  0  0  0  0  0  0
  129.0180  129.9810   63.6990 N   0  0  0  0  0  0  0  0  0  0  0  0
  128.6500  128.7240   64.0610 C   0  0  0  0  0  0  0  0  0  0  0  0
  128.6620  128.4370   65.5280 C   0  0  0  0  0  0  0  0  0  0  0  0
  128.6700  129.4740   66.4690 C   0  0  0  0  0  0  0  0  0  0  0  0
  128.6960  129.2010   67.8330 C   0  0  0  0  0  0  0  0  0  0  0  0
  128.7290  127.8800   68.3070 C   0  0  0  0  0  0  0  0  0  0  0  0
  128.7520  127.5900   69.6760 N   0  0  0  0  0  0  0  0  0  0  0  0
  128.9580  128.6490   70.6840 C   0  0  0  0  0  0  0  0  0  0  0  0
  128.6120  128.2170   72.1230 C   0  0  0  0  0  0  0  0  0  0  0  0
  129.3330  127.0450   72.4640 O   0  0  0  0  0  0  0  0  0  0  0  0
  129.0120  125.9660   71.6010 C   0  0  0  0  0  0  0  0  0  0  0  0
  129.3670  126.3290   70.1430 C   0  0  0  0  0  0  0  0  0  0  0  0
  128.7000  126.8460   67.3610 C   0  0  0  0  0  0  0  0  0  0  0  0
  128.6700  127.1190   65.9960 C   0  0  0  0  0  0  0  0  0  0  0  0
  128.2740  127.7570   63.1250 C   0  0  0  0  0  0  0  0  0  0  0  0
  128.2680  128.0470   61.7560 C   0  0  0  0  0  0  0  0  0  0  0  0
  127.8310  126.9940   60.8040 C   0  0  0  0  0  0  0  0  0  0  0  0
  126.4890  126.6190   60.7360 C   0  0  0  0  0  0  0  0  0  0  0  0
  126.0730  125.6470   59.8310 C   0  0  0  0  0  0  0  0  0  0  0  0
  126.9890  125.0230   58.9700 C   0  0  0  0  0  0  0  0  0  0  0  0
  126.5910  124.0560   58.0430 N   0  0  0  0  0  0  0  0  0  0  0  0
  127.4660  122.8950   57.7890 C   0  0  0  0  0  0  0  0  0  0  0  0
  127.1130  122.1400   56.4900 C   0  0  0  0  0  0  0  0  0  0  0  0
  125.7500  121.7450   56.5140 O   0  0  0  0  0  0  0  0  0  0  0  0
  124.8800  122.8620   56.6230 C   0  0  0  0  0  0  0  0  0  0  0  0
  125.1790  123.6390   57.9230 C   0  0  0  0  0  0  0  0  0  0  0  0
  128.3320  125.4210   59.0350 C   0  0  0  0  0  0  0  0  0  0  0  0
  128.7480  126.3940   59.9400 C   0  0  0  0  0  0  0  0  0  0  0  0
  128.6840  129.3470   61.3520 C   0  0  0  0  0  0  0  0  0  0  0  0
  1  2  1  0
  2  3  2  0
  3  4  1  0
  4  5  2  0
  4  6  1  0
  6  7  1  0
  7  8  1  0
  8  9  2  0
  9 10  1  0
 10 11  1  0
  3 12  1  0
 12 13  1  0
 13 14  2  0
 14 15  1  0
 15 16  1  0
 16 17  2  0
 17 18  1  0
 18 19  2  0
 19 20  1  0
 20 21  1  0
 21 22  1  0
 22 23  1  0
 23 24  1  0
 24 25  1  0
 19 26  1  0
 26 27  2  0
 15 28  2  0
 28 29  1  0
 29 30  1  0
 30 31  2  0
 31 32  1  0
 32 33  2  0
 33 34  1  0
 34 35  1  0
 35 36  1  0
 36 37  1  0
 37 38  1  0
 38 39  1  0
 33 40  1  0
 40 41  2  0
 29 42  2  0
 42  2  1  0
 11  7  2  0
 42 13  1  0
 27 16  1  0
 41 30  1  0
 25 20  1  0
 39 34  1  0
M  END
>  <Binding energies>  (40) 
[-9.65]

>  <Ligand effiencies>  (40) 
[-0.21444444444444447]

>  <Interactions>  (40) 
["V-A:PRO:540:CA:4878, V-A:ILE:538:CG2:4858, V-B:LEU:363:CD1:8156, V-A:ILE:538:CA:4855, V-A:PRO:540:CB:4880, V-A:ILE:538:CD1:4860, V-A:LEU:363:CD1:3184, V-A:ILE:538:CB:4857, V-A:GLU:543:CD:4903, V-B:PRO:540:CA:9851, V-B:MET:535:CE:9803, V-A:PRO:540:N:4879, H-B:TYR:539:N:9838, V-B:GLU:543:CD:9876, V-B:PRO:540:N:9852, V-A:PRO:540:CD:4882, V-B:PRO:540:CB:9853, V-B:TYR:539:C:9835, V-A:GLU:543:CG:4902, V-B:GLU:543:CB:9874, V-B:HIS:456:CE1:9037, V-B:GLU:543:CG:9875, V-B:ASP:366:CG:8180, H-A:TYR:539:N:4865, V-B:HIS:456:CD2:9035, H-B:LYS:547:NZ:9919, V-A:HIS:456:CE1:4064, V-A:GLU:543:CB:4901, V-B:PRO:540:CD:9855, V-B:TYR:539:CG:9840, V-B:TYR:539:CA:9837, V-B:TYR:539:CD1:9841"]

$$$$
9c_Ghoteimi_2023
     RDKit          3D

 42 48  0  0  0  0  0  0  0  0999 V2000
  129.7430  127.3190   65.0670 N   0  0  0  0  0  0  0  0  0  0  0  0
  129.4400  127.3280   66.4050 C   0  0  0  0  0  0  0  0  0  0  0  0
  128.9300  128.4520   67.0740 C   0  0  0  0  0  0  0  0  0  0  0  0
  128.6100  129.7730   66.5270 C   0  0  0  0  0  0  0  0  0  0  0  0
  128.4630  130.7460   67.2700 O   0  0  0  0  0  0  0  0  0  0  0  0
  128.4870  129.8300   65.1770 N   0  0  0  0  0  0  0  0  0  0  0  0
  128.1770  130.9470   64.4140 C   0  0  0  0  0  0  0  0  0  0  0  0
  128.6590  132.1650   64.5300 N   0  0  0  0  0  0  0  0  0  0  0  0
  128.1350  132.9810   63.6360 C   0  0  0  0  0  0  0  0  0  0  0  0
  127.2000  132.4240   62.7670 C   0  0  0  0  0  0  0  0  0  0  0  0
  127.0070  130.7400   63.1500 S   0  0  0  0  0  0  0  0  0  0  0  0
  128.6850  128.1170   68.7870 S   0  0  0  0  0  0  0  0  0  0  0  0
  129.2810  126.4850   68.6010 C   0  0  0  0  0  0  0  0  0  0  0  0
  129.3770  125.6530   69.6370 N   0  0  0  0  0  0  0  0  0  0  0  0
  129.8700  124.4120   69.3880 C   0  0  0  0  0  0  0  0  0  0  0  0
  129.9860  123.5070   70.5710 C   0  0  0  0  0  0  0  0  0  0  0  0
  129.4210  122.2270   70.5630 C   0  0  0  0  0  0  0  0  0  0  0  0
  129.5240  121.3910   71.6710 C   0  0  0  0  0  0  0  0  0  0  0  0
  130.1860  121.8120   72.8360 C   0  0  0  0  0  0  0  0  0  0  0  0
  130.3050  120.9810   73.9560 N   0  0  0  0  0  0  0  0  0  0  0  0
  130.4770  121.5400   75.3130 C   0  0  0  0  0  0  0  0  0  0  0  0
  130.2390  120.5170   76.4430 C   0  0  0  0  0  0  0  0  0  0  0  0
  131.0700  119.3830   76.2520 O   0  0  0  0  0  0  0  0  0  0  0  0
  130.7920  118.7370   75.0210 C   0  0  0  0  0  0  0  0  0  0  0  0
  131.0420  119.7060   73.8440 C   0  0  0  0  0  0  0  0  0  0  0  0
  130.7670  123.0880   72.8320 C   0  0  0  0  0  0  0  0  0  0  0  0
  130.6670  123.9220   71.7210 C   0  0  0  0  0  0  0  0  0  0  0  0
  130.2370  123.9980   68.1050 C   0  0  0  0  0  0  0  0  0  0  0  0
  130.1180  124.8610   67.0100 C   0  0  0  0  0  0  0  0  0  0  0  0
  130.4920  124.3640   65.6630 C   0  0  0  0  0  0  0  0  0  0  0  0
  131.5080  124.9900   64.9380 C   0  0  0  0  0  0  0  0  0  0  0  0
  131.8740  124.5160   63.6810 C   0  0  0  0  0  0  0  0  0  0  0  0
  131.2300  123.4050   63.1140 C   0  0  0  0  0  0  0  0  0  0  0  0
  131.5880  122.9050   61.8580 N   0  0  0  0  0  0  0  0  0  0  0  0
  132.9590  123.1310   61.3570 C   0  0  0  0  0  0  0  0  0  0  0  0
  133.1010  122.8850   59.8400 C   0  0  0  0  0  0  0  0  0  0  0  0
  132.6580  121.5750   59.5170 O   0  0  0  0  0  0  0  0  0  0  0  0
  131.2970  121.3800   59.8690 C   0  0  0  0  0  0  0  0  0  0  0  0
  131.1060  121.5930   61.3860 C   0  0  0  0  0  0  0  0  0  0  0  0
  130.2250  122.7720   63.8600 C   0  0  0  0  0  0  0  0  0  0  0  0
  129.8600  123.2460   65.1170 C   0  0  0  0  0  0  0  0  0  0  0  0
  129.6370  126.1800   67.2530 C   0  0  0  0  0  0  0  0  0  0  0  0
  1  2  1  0
  2  3  2  0
  3  4  1  0
  4  5  2  0
  4  6  1  0
  6  7  1  0
  7  8  2  0
  8  9  1  0
  9 10  2  0
 10 11  1  0
  3 12  1  0
 12 13  1  0
 13 14  2  0
 14 15  1  0
 15 16  1  0
 16 17  2  0
 17 18  1  0
 18 19  2  0
 19 20  1  0
 20 21  1  0
 21 22  1  0
 22 23  1  0
 23 24  1  0
 24 25  1  0
 19 26  1  0
 26 27  2  0
 15 28  2  0
 28 29  1  0
 29 30  1  0
 30 31  2  0
 31 32  1  0
 32 33  2  0
 33 34  1  0
 34 35  1  0
 35 36  1  0
 36 37  1  0
 37 38  1  0
 38 39  1  0
 33 40  1  0
 40 41  2  0
 29 42  2  0
 42  2  1  0
 11  7  1  0
 42 13  1  0
 27 16  1  0
 41 30  1  0
 25 20  1  0
 39 34  1  0
M  END
>  <Binding energies>  (41) 
[-8.81]

>  <Ligand effiencies>  (41) 
[-0.1957777777777778]

>  <Interactions>  (41) 
["H-A:GLU:543:OE1:4904, H-A:GLU:543:OE2:4905, V-A:ILE:369:CD1:3234, V-A:ALA:541:CB:4887, V-A:GLU:543:CD:4903, H-B:GLU:543:OE2:9878, V-B:GLU:543:CD:9876, V-A:LEU:475:CD2:4254, V-B:TYR:539:CE2:9844, V-B:TYR:539:CD2:9842, V-A:GLU:543:CG:4902, V-B:GLU:543:CB:9874, V-B:HIS:456:CE1:9037, V-B:GLU:543:CG:9875, V-A:HIS:456:CE1:4064, V-B:GLU:543:C:9870, H-A:HIS:456:NE2:4065, V-A:TYR:484:CZ:4342, V-A:GLU:543:CB:4901, V-A:TYR:484:CE1:4340, V-B:ALA:541:CB:9860, V-B:GLU:543:CA:9872, V-A:TYR:484:CD1:4338, V-A:TYR:484:CB:4336, V-A:HIS:456:CG:4061, V-A:ASP:473:CB:4234, V-A:TYR:484:CG:4337, H-B:TYR:484:OH:9315, V-A:ASP:473:CG:4235, H-A:LYS:471:NZ:4216, V-A:HIS:456:CD2:4063"]

$$$$
RR11_Rahimova_2017
     RDKit          3D

 33 38  0  0  0  0  0  0  0  0999 V2000
  129.7430  125.1980   68.7710 N   0  0  0  0  0  0  0  0  0  0  0  0
  129.0180  126.0650   67.9550 C   0  0  0  0  0  0  0  0  0  0  0  0
  127.8940  126.7150   68.4610 C   0  0  0  0  0  0  0  0  0  0  0  0
  127.1720  127.5830   67.6460 C   0  0  0  0  0  0  0  0  0  0  0  0
  127.5660  127.8090   66.3210 C   0  0  0  0  0  0  0  0  0  0  0  0
  126.7900  128.7490   65.4470 C   0  0  0  0  0  0  0  0  0  0  0  0
  127.3350  129.6280   64.6340 N   0  0  0  0  0  0  0  0  0  0  0  0
  126.2820  130.2600   64.0260 C   0  0  0  0  0  0  0  0  0  0  0  0
  126.2960  131.2790   63.0630 C   0  0  0  0  0  0  0  0  0  0  0  0
  125.0720  131.7520   62.5770 C   0  0  0  0  0  0  0  0  0  0  0  0
  125.0550  132.8630   61.5350 C   0  0  0  0  0  0  0  0  0  0  0  0
  126.3370  132.9260   60.7150 C   0  0  0  0  0  0  0  0  0  0  0  0
  127.4320  133.6460   61.2040 C   0  0  0  0  0  0  0  0  0  0  0  0
  128.6310  133.7260   60.4940 C   0  0  0  0  0  0  0  0  0  0  0  0
  128.7180  133.0560   59.2670 C   0  0  0  0  0  0  0  0  0  0  0  0
  129.7670  132.9860   58.3870 N   0  0  0  0  0  0  0  0  0  0  0  0
  129.3370  132.2400   57.3920 C   0  0  0  0  0  0  0  0  0  0  0  0
  130.1480  131.8990   56.1750 C   0  0  0  0  0  0  0  0  0  0  0  0
  129.5950  132.0260   54.8940 C   0  0  0  0  0  0  0  0  0  0  0  0
  130.3430  131.7000   53.7660 C   0  0  0  0  0  0  0  0  0  0  0  0
  131.6510  131.2440   53.9110 C   0  0  0  0  0  0  0  0  0  0  0  0
  132.4000  130.9120   52.7820 N   0  0  0  0  0  0  0  0  0  0  0  0
  132.2160  131.1170   55.1780 C   0  0  0  0  0  0  0  0  0  0  0  0
  131.4670  131.4430   56.3050 C   0  0  0  0  0  0  0  0  0  0  0  0
  128.0420  131.8110   57.5910 N   0  0  0  0  0  0  0  0  0  0  0  0
  127.6060  132.3200   58.7910 C   0  0  0  0  0  0  0  0  0  0  0  0
  126.4060  132.2320   59.5000 C   0  0  0  0  0  0  0  0  0  0  0  0
  123.8640  131.2370   63.0620 C   0  0  0  0  0  0  0  0  0  0  0  0
  123.8170  130.2260   64.0250 C   0  0  0  0  0  0  0  0  0  0  0  0
  125.0460  129.7510   64.4890 C   0  0  0  0  0  0  0  0  0  0  0  0
  125.4120  128.7870   65.4000 N   0  0  0  0  0  0  0  0  0  0  0  0
  128.6980  127.1470   65.8250 C   0  0  0  0  0  0  0  0  0  0  0  0
  129.4220  126.2790   66.6380 C   0  0  0  0  0  0  0  0  0  0  0  0
  1  2  1  0
  2  3  2  0
  3  4  1  0
  4  5  2  0
  5  6  1  0
  6  7  2  0
  7  8  1  0
  8  9  2  0
  9 10  1  0
 10 11  1  0
 11 12  1  0
 12 13  2  0
 13 14  1  0
 14 15  2  0
 15 16  1  0
 16 17  2  0
 17 18  1  0
 18 19  2  0
 19 20  1  0
 20 21  2  0
 21 22  1  0
 21 23  1  0
 23 24  2  0
 17 25  1  0
 25 26  1  0
 26 27  2  0
 10 28  2  0
 28 29  1  0
 29 30  2  0
 30 31  1  0
  5 32  1  0
 32 33  2  0
 33  2  1  0
 31  6  1  0
 30  8  1  0
 27 12  1  0
 26 15  1  0
 24 18  1  0
M  END
>  <Binding energies>  (42) 
[-8.49]

>  <Ligand effiencies>  (42) 
[-0.21769230769230768]

>  <Interactions>  (42) 
["V-A:TYR:539:CE2:4871, V-A:PRO:540:CA:4878, V-A:TYR:539:CE1:4870, V-A:TYR:539:CZ:4872, V-B:LEU:475:CD2:9226, V-A:ILE:538:CD1:4860, V-A:LEU:363:CD1:3184, V-A:TYR:539:CD2:4869, H-A:TYR:539:OH:4873, V-A:PRO:540:N:4879, V-A:TYR:531:CZ:4789, V-B:GLU:543:CD:9876, V-A:TYR:539:C:4862, V-A:TYR:531:CE2:4788, V-B:GLU:543:CB:9874, V-B:HIS:456:CE1:9037, V-B:GLU:543:CG:9875, V-A:TYR:531:C:4779, V-A:TYR:539:CD1:4868, V-A:HIS:456:CE1:4064, V-B:GLU:543:C:9870, H-B:GLU:543:OE1:9877, V-A:PRO:540:C:4876, V-B:GLU:543:CA:9872, H-B:TYR:484:OH:9315, V-B:ARG:545:CZ:9894, V-B:ARG:545:CD:9891, V-B:ARG:545:CG:9890, H-A:TYR:531:O:4780, H-A:HIS:456:ND1:4062, H-B:GLU:543:O:9871"]

$$$$
RR16_Rahimova_2017
     RDKit          3D

 44 49  0  0  0  0  0  0  0  0999 V2000
  130.2210  121.8290   63.4190 O   0  0  0  0  0  0  0  0  0  0  0  0
  130.7440  122.9560   62.6380 S   0  0  0  0  0  0  0  0  0  0  0  0
  132.1790  123.0700   62.3500 O   0  0  0  0  0  0  0  0  0  0  0  0
  130.2250  124.4420   63.4350 N   0  0  0  0  0  0  0  0  0  0  0  0
  130.7730  125.7570   63.0260 C   0  0  0  0  0  0  0  0  0  0  0  0
  129.9790  126.8830   63.7370 C   0  0  0  0  0  0  0  0  0  0  0  0
  129.4800  126.6020   65.1680 C   0  0  0  0  0  0  0  0  0  0  0  0
  130.6040  126.2890   66.1710 C   0  0  0  0  0  0  0  0  0  0  0  0
  131.5960  125.1920   65.7420 C   0  0  0  0  0  0  0  0  0  0  0  0
  132.7090  125.5980   64.7560 C   0  0  0  0  0  0  0  0  0  0  0  0
  132.2990  125.7510   63.2780 C   0  0  0  0  0  0  0  0  0  0  0  0
  129.8680  122.9570   61.0780 C   0  0  0  0  0  0  0  0  0  0  0  0
  130.4750  122.4460   59.9280 C   0  0  0  0  0  0  0  0  0  0  0  0
  129.8320  122.5650   58.6990 C   0  0  0  0  0  0  0  0  0  0  0  0
  128.5870  123.1920   58.6260 C   0  0  0  0  0  0  0  0  0  0  0  0
  127.8230  123.4720   57.0300 S   0  0  0  0  0  0  0  0  0  0  0  0
  126.3730  123.5650   57.2470 O   0  0  0  0  0  0  0  0  0  0  0  0
  128.3700  122.4760   56.0990 O   0  0  0  0  0  0  0  0  0  0  0  0
  128.4150  125.0710   56.5390 N   0  0  0  0  0  0  0  0  0  0  0  0
  128.9990  125.1180   55.1730 C   0  0  0  0  0  0  0  0  0  0  0  0
  129.7590  126.4420   54.9570 C   0  0  0  0  0  0  0  0  0  0  0  0
  128.8740  127.6720   55.2800 C   0  0  0  0  0  0  0  0  0  0  0  0
  129.6250  128.9960   55.1150 C   0  0  0  0  0  0  0  0  0  0  0  0
  130.6350  129.1080   54.1490 C   0  0  0  0  0  0  0  0  0  0  0  0
  131.3390  130.2980   53.9600 C   0  0  0  0  0  0  0  0  0  0  0  0
  132.3210  130.3900   53.0070 O   0  0  0  0  0  0  0  0  0  0  0  0
  131.0110  131.3980   54.7670 C   0  0  0  0  0  0  0  0  0  0  0  0
  131.5070  132.6690   54.7960 N   0  0  0  0  0  0  0  0  0  0  0  0
  130.8120  133.3640   55.7610 N   0  0  0  0  0  0  0  0  0  0  0  0
  129.9360  132.5220   56.3440 N   0  0  0  0  0  0  0  0  0  0  0  0
  129.0030  133.0150   57.3490 C   0  0  0  0  0  0  0  0  0  0  0  0
  129.4140  132.6410   58.7660 C   0  0  0  0  0  0  0  0  0  0  0  0
  130.5400  131.8380   58.9810 C   0  0  0  0  0  0  0  0  0  0  0  0
  130.9320  131.5120   60.2800 C   0  0  0  0  0  0  0  0  0  0  0  0
  130.2020  131.9870   61.3700 C   0  0  0  0  0  0  0  0  0  0  0  0
  129.0800  132.7890   61.1620 C   0  0  0  0  0  0  0  0  0  0  0  0
  128.1810  133.3870   62.5080 Cl  0  0  0  0  0  0  0  0  0  0  0  0
  128.6850  133.1130   59.8620 C   0  0  0  0  0  0  0  0  0  0  0  0
  129.9960  131.2740   55.7460 C   0  0  0  0  0  0  0  0  0  0  0  0
  129.2920  130.0810   55.9390 C   0  0  0  0  0  0  0  0  0  0  0  0
  128.1720  127.5460   56.6570 C   0  0  0  0  0  0  0  0  0  0  0  0
  127.4720  126.1830   56.8240 C   0  0  0  0  0  0  0  0  0  0  0  0
  127.9630  123.6650   59.7820 C   0  0  0  0  0  0  0  0  0  0  0  0
  128.6070  123.5500   61.0100 C   0  0  0  0  0  0  0  0  0  0  0  0
  1  2  2  0
  2  3  2  0
  2  4  1  0
  4  5  1  0
  5  6  1  0
  6  7  1  0
  7  8  1  0
  8  9  1  0
  9 10  1  0
 10 11  1  0
  2 12  1  0
 12 13  2  0
 13 14  1  0
 14 15  2  0
 15 16  1  0
 16 17  2  0
 16 18  2  0
 16 19  1  0
 19 20  1  0
 20 21  1  0
 21 22  1  0
 22 23  1  0
 23 24  2  0
 24 25  1  0
 25 26  1  0
 25 27  2  0
 27 28  1  0
 28 29  2  0
 29 30  1  0
 30 31  1  0
 31 32  1  0
 32 33  2  0
 33 34  1  0
 34 35  2  0
 35 36  1  0
 36 37  1  0
 36 38  2  0
 30 39  1  0
 39 40  2  0
 22 41  1  0
 41 42  1  0
 15 43  1  0
 43 44  2  0
 11  5  1  0
 44 12  1  0
 42 19  1  0
 40 23  1  0
 39 27  1  0
 38 32  1  0
M  END
>  <Binding energies>  (43) 
[-9.99]

>  <Ligand effiencies>  (43) 
[-0.208125]

>  <Interactions>  (43) 
["V-A:TYR:539:CE2:4871, V-A:PRO:540:CA:4878, V-A:TYR:539:CE1:4870, V-A:TYR:539:CZ:4872, V-A:PRO:540:CB:4880, V-A:ARG:545:CZ:4921, V-A:ALA:541:CB:4887, V-A:TYR:539:CD2:4869, V-A:GLU:543:CD:4903, H-B:GLU:543:OE2:9878, V-B:MET:535:CE:9803, V-A:PRO:540:N:4879, V-A:TYR:531:CZ:4789, V-B:GLU:543:CD:9876, V-A:TYR:539:C:4862, V-B:TYR:539:CE2:9844, V-B:TYR:539:CD2:9842, V-A:TYR:531:CE1:4787, V-A:TYR:539:CG:4867, V-B:GLU:543:CG:9875, H-A:TYR:539:N:4865, V-A:TYR:539:CD1:4868, H-A:TYR:531:O:4780"]

$$$$
RR18_Rahimova_2017
     RDKit          3D

 36 41  0  0  0  0  0  0  0  0999 V2000
  126.5260  129.6250   55.3930 C   0  0  0  0  0  0  0  0  0  0  0  0
  127.5090  129.3270   56.4980 C   0  0  0  0  0  0  0  0  0  0  0  0
  127.9360  128.1680   57.1240 C   0  0  0  0  0  0  0  0  0  0  0  0
  128.8730  128.5490   58.0830 C   0  0  0  0  0  0  0  0  0  0  0  0
  128.9850  129.9280   58.0090 C   0  0  0  0  0  0  0  0  0  0  0  0
  129.8220  130.9640   58.7560 C   0  0  1  0  0  0  0  0  0  0  0  0
  129.7690  132.3540   58.0550 C   0  0  0  0  0  0  0  0  0  0  0  0
  130.3340  132.5310   56.7210 C   0  0  0  0  0  0  0  0  0  0  0  0
  130.6570  133.6410   56.2940 O   0  0  0  0  0  0  0  0  0  0  0  0
  130.4810  131.3800   56.0240 N   0  0  0  0  0  0  0  0  0  0  0  0
  130.9660  131.1600   54.7170 C   0  0  0  0  0  0  0  0  0  0  0  0
  132.2790  130.7420   54.4370 C   0  0  0  0  0  0  0  0  0  0  0  0
  132.6980  130.5490   53.1220 C   0  0  0  0  0  0  0  0  0  0  0  0
  131.8170  130.7770   52.0690 C   0  0  0  0  0  0  0  0  0  0  0  0
  130.5170  131.2030   52.3300 C   0  0  0  0  0  0  0  0  0  0  0  0
  130.0830  131.4000   53.6440 C   0  0  0  0  0  0  0  0  0  0  0  0
  128.6500  131.8710   53.8760 C   0  0  0  0  0  0  0  0  0  0  0  0
  129.0980  133.3630   58.6700 C   0  0  0  0  0  0  0  0  0  0  0  0
  128.5590  133.2910   59.9190 N   0  0  0  0  0  0  0  0  0  0  0  0
  128.7470  132.2390   60.6260 C   0  0  0  0  0  0  0  0  0  0  0  0
  128.2490  132.0620   62.2920 S   0  0  0  0  0  0  0  0  0  0  0  0
  128.9390  130.4110   62.3780 C   0  0  0  0  0  0  0  0  0  0  0  0
  128.9380  129.5630   63.4650 C   0  0  0  0  0  0  0  0  0  0  0  0
  128.3970  130.0120   64.7560 C   0  0  0  0  0  0  0  0  0  0  0  0
  127.8810  131.0850   65.0680 O   0  0  0  0  0  0  0  0  0  0  0  0
  128.5730  129.0170   65.6300 N   0  0  0  0  0  0  0  0  0  0  0  0
  129.1470  127.9140   65.0720 C   0  0  0  0  0  0  0  0  0  0  0  0
  129.4550  126.7040   65.6920 C   0  0  0  0  0  0  0  0  0  0  0  0
  130.0140  125.6820   64.9310 C   0  0  0  0  0  0  0  0  0  0  0  0
  130.2450  125.8820   63.5710 C   0  0  0  0  0  0  0  0  0  0  0  0
  129.9280  127.1040   62.9720 C   0  0  0  0  0  0  0  0  0  0  0  0
  129.3840  128.1580   63.7300 C   0  0  0  0  0  0  0  0  0  0  0  0
  129.5350  130.1020   61.0780 C   0  0  0  0  0  0  0  0  0  0  0  0
  130.1470  129.0810   60.7790 O   0  0  0  0  0  0  0  0  0  0  0  0
  129.3630  131.1130   60.1830 N   0  0  0  0  0  0  0  0  0  0  0  0
  128.1500  130.3940   57.0410 O   0  0  0  0  0  0  0  0  0  0  0  0
  1  2  1  0
  2  3  2  0
  3  4  1  0
  4  5  2  0
  6  5  1  6
  6  7  1  0
  7  8  1  0
  8  9  2  0
  8 10  1  0
 10 11  1  0
 11 12  2  0
 12 13  1  0
 13 14  2  0
 14 15  1  0
 15 16  2  0
 16 17  1  0
  7 18  2  0
 18 19  1  0
 19 20  2  0
 20 21  1  0
 21 22  1  0
 22 23  2  0
 23 24  1  0
 24 25  2  0
 24 26  1  0
 26 27  1  0
 27 28  2  0
 28 29  1  0
 29 30  2  0
 30 31  1  0
 31 32  2  0
 22 33  1  0
 33 34  2  0
 33 35  1  0
  5 36  1  0
 36  2  1  0
 35  6  1  0
 16 11  1  0
 35 20  1  0
 32 23  1  0
 32 27  1  0
M  END
>  <Binding energies>  (44) 
[-8.75]

>  <Ligand effiencies>  (44) 
[-0.23026315789473684]

>  <Interactions>  (44) 
["V-A:TYR:539:CE2:4871, V-A:PRO:540:CA:4878, V-A:MET:535:CG:4828, V-A:TYR:539:CE1:4870, V-A:PRO:540:CB:4880, V-A:ILE:538:CD1:4860, V-A:LEU:363:CD1:3184, V-A:TYR:539:CD2:4869, V-A:GLU:543:CD:4903, V-A:PRO:540:N:4879, V-A:TYR:531:CZ:4789, V-B:GLU:543:CD:9876, V-A:TYR:539:C:4862, V-A:PRO:540:CD:4882, V-A:TYR:531:CE1:4787, V-A:TYR:531:CE2:4788, V-A:GLU:543:CG:4902, V-A:TYR:539:CG:4867, V-B:GLU:543:CG:9875, V-A:MET:535:CB:4827, V-A:TYR:531:CD2:4786, H-A:TYR:539:N:4865, V-A:TYR:539:CA:4864, V-A:ILE:532:CA:4795, V-A:TYR:531:CG:4784, V-A:TYR:531:C:4779, V-A:TYR:539:CD1:4868, H-B:TYR:484:OH:9315, V-A:TYR:531:CD1:4785, V-A:MET:535:CA:4825"]

$$$$
RR20_Rahimova_2017
     RDKit          3D

 38 43  0  0  0  0  0  0  0  0999 V2000
  128.7590  126.5550   67.4080 C   0  0  0  0  0  0  0  0  0  0  0  0
  129.9720  126.0910   66.6230 C   0  0  0  0  0  0  0  0  0  0  0  0
  131.2420  126.5530   66.9700 C   0  0  0  0  0  0  0  0  0  0  0  0
  132.3570  126.1220   66.2570 C   0  0  0  0  0  0  0  0  0  0  0  0
  132.2110  125.2360   65.1820 C   0  0  0  0  0  0  0  0  0  0  0  0
  133.4380  124.7640   64.4340 C   0  0  0  0  0  0  0  0  0  0  0  0
  134.5400  125.0420   64.9120 O   0  0  0  0  0  0  0  0  0  0  0  0
  133.2840  124.0470   63.2830 N   0  0  0  0  0  0  0  0  0  0  0  0
  133.4940  122.5900   63.2470 C   0  0  0  0  0  0  0  0  0  0  0  0
  133.0860  122.1330   61.8570 C   0  0  0  0  0  0  0  0  0  0  0  0
  132.3190  123.3070   61.3300 C   0  0  0  0  0  0  0  0  0  0  0  0
  131.6260  123.4370   60.1260 C   0  0  0  0  0  0  0  0  0  0  0  0
  131.1050  124.6760   59.7330 C   0  0  0  0  0  0  0  0  0  0  0  0
  130.3500  124.8140   58.4400 C   0  0  0  0  0  0  0  0  0  0  0  0
  130.6850  125.7970   57.6190 N   0  0  0  0  0  0  0  0  0  0  0  0
  129.9780  125.8100   56.5170 C   0  0  0  0  0  0  0  0  0  0  0  0
  130.0720  126.6930   55.4520 N   0  0  0  0  0  0  0  0  0  0  0  0
  129.6060  126.5030   54.1940 C   0  0  0  0  0  0  0  0  0  0  0  0
  129.0000  125.4950   53.8280 O   0  0  0  0  0  0  0  0  0  0  0  0
  129.8270  127.6330   53.1600 C   0  0  0  0  0  0  0  0  0  0  0  0
  130.5620  128.7850   53.7130 N   0  0  0  0  0  0  0  0  0  0  0  0
  131.4110  129.4440   52.7090 C   0  0  0  0  0  0  0  0  0  0  0  0
  132.3520  130.4620   53.3930 C   0  0  0  0  0  0  0  0  0  0  0  0
  131.6350  131.3470   54.4120 C   0  0  0  0  0  0  0  0  0  0  0  0
  132.2500  132.4920   54.9310 C   0  0  0  0  0  0  0  0  0  0  0  0
  131.6120  133.2770   55.8890 C   0  0  0  0  0  0  0  0  0  0  0  0
  130.3440  132.9250   56.3390 C   0  0  0  0  0  0  0  0  0  0  0  0
  129.7160  131.7920   55.8240 C   0  0  0  0  0  0  0  0  0  0  0  0
  130.3460  130.9940   54.8630 C   0  0  0  0  0  0  0  0  0  0  0  0
  129.6350  129.7850   54.2550 C   0  0  0  0  0  0  0  0  0  0  0  0
  128.7930  124.5660   56.4180 S   0  0  0  0  0  0  0  0  0  0  0  0
  129.2930  123.9940   57.9920 C   0  0  0  0  0  0  0  0  0  0  0  0
  128.5880  122.8230   58.6400 C   0  0  0  0  0  0  0  0  0  0  0  0
  131.3440  125.7920   60.5490 C   0  0  0  0  0  0  0  0  0  0  0  0
  132.0530  125.6700   61.7440 C   0  0  0  0  0  0  0  0  0  0  0  0
  132.4950  124.4090   62.1670 C   0  0  0  0  0  0  0  0  0  0  0  0
  130.9360  124.7540   64.8580 C   0  0  0  0  0  0  0  0  0  0  0  0
  129.8200  125.1840   65.5720 C   0  0  0  0  0  0  0  0  0  0  0  0
  1  2  1  0
  2  3  2  0
  3  4  1  0
  4  5  2  0
  5  6  1  0
  6  7  2  0
  6  8  1  0
  8  9  1  0
  9 10  1  0
 10 11  1  0
 11 12  2  0
 12 13  1  0
 13 14  1  0
 14 15  1  0
 15 16  2  0
 16 17  1  0
 17 18  1  0
 18 19  2  0
 18 20  1  0
 20 21  1  0
 21 22  1  0
 22 23  1  0
 23 24  1  0
 24 25  2  0
 25 26  1  0
 26 27  2  0
 27 28  1  0
 28 29  2  0
 29 30  1  0
 16 31  1  0
 31 32  1  0
 32 33  1  0
 13 34  2  0
 34 35  1  0
 35 36  2  0
  5 37  1  0
 37 38  2  0
 38  2  1  0
 36  8  1  0
 36 11  1  0
 32 14  2  0
 30 21  1  0
 29 24  1  0
M  END
>  <Binding energies>  (45) 
[-11.19]

>  <Ligand effiencies>  (45) 
[-0.2869230769230769]

>  <Interactions>  (45) 
["V-A:ILE:538:CG2:4858, V-A:MET:535:CG:4828, V-A:ASP:366:CG:3208, V-A:ILE:538:C:4853, H-A:TYR:531:OH:4790, V-A:ILE:369:CD1:3234, V-A:ILE:538:CA:4855, V-A:GLY:454:CA:4044, V-A:PRO:540:CB:4880, V-A:ARG:545:CZ:4921, V-A:ILE:538:CD1:4860, V-A:LEU:363:CD1:3184, H-A:GLY:454:N:4045, V-A:GLU:543:CD:4903, H-A:TYR:484:OH:4343, H-A:LYS:534:NZ:4818, V-A:PRO:540:CG:4881, V-B:MET:535:CE:9803, V-A:PRO:540:N:4879, V-A:TYR:531:CZ:4789, V-B:GLU:543:CD:9876, V-A:TYR:539:C:4862, V-A:LEU:475:CD2:4254, V-A:PRO:540:CD:4882, V-A:TYR:531:CE1:4787, V-B:TYR:539:C:9835, V-A:TYR:531:CE2:4788, V-B:GLU:543:CB:9874, V-B:GLU:543:CG:9875, V-A:TYR:531:CD2:4786, V-A:TYR:531:CG:4784, V-A:TYR:539:CD1:4868, V-A:LYS:534:CD:4816, V-A:HIS:456:CE1:4064, V-A:ARG:545:CG:4917, H-A:ARG:545:NE:4919, H-A:ARG:545:NH1:4922, V-A:TYR:531:CD1:4785, V-A:LYS:534:CE:4817"]

$$$$
RR21_Rahimova_2017
     RDKit          3D

 40 45  0  0  0  0  0  0  0  0999 V2000
  134.2070  123.8180   61.9860 C   0  0  0  0  0  0  0  0  0  0  0  0
  133.8740  123.4960   63.3330 O   0  0  0  0  0  0  0  0  0  0  0  0
  132.9840  124.3000   64.0190 C   0  0  0  0  0  0  0  0  0  0  0  0
  133.3410  125.1440   65.0850 C   0  0  0  0  0  0  0  0  0  0  0  0
  132.3800  125.9270   65.7240 C   0  0  0  0  0  0  0  0  0  0  0  0
  131.0420  125.8910   65.3130 C   0  0  0  0  0  0  0  0  0  0  0  0
  130.0120  126.7370   65.9980 C   0  0  0  0  0  0  0  0  0  0  0  0
  129.8330  126.6270   67.2990 N   0  0  0  0  0  0  0  0  0  0  0  0
  128.8640  127.4940   67.6300 N   0  0  0  0  0  0  0  0  0  0  0  0
  128.4330  127.6470   68.9730 C   0  0  0  0  0  0  0  0  0  0  0  0
  127.1950  127.1350   69.3920 C   0  0  0  0  0  0  0  0  0  0  0  0
  126.7850  127.2880   70.7140 C   0  0  0  0  0  0  0  0  0  0  0  0
  127.6090  127.9520   71.6200 C   0  0  0  0  0  0  0  0  0  0  0  0
  128.8380  128.4660   71.2160 C   0  0  0  0  0  0  0  0  0  0  0  0
  129.2500  128.3160   69.8950 C   0  0  0  0  0  0  0  0  0  0  0  0
  128.4370  128.1740   66.5170 C   0  0  0  0  0  0  0  0  0  0  0  0
  129.1510  127.7010   65.4260 C   0  0  0  0  0  0  0  0  0  0  0  0
  129.0810  128.1490   64.0430 C   0  0  0  0  0  0  0  0  0  0  0  0
  128.8690  129.4020   63.5790 C   0  0  0  0  0  0  0  0  0  0  0  0
  128.6010  130.8850   64.5220 S   0  0  0  0  0  0  0  0  0  0  0  0
  128.4910  131.8000   63.0250 C   0  0  0  0  0  0  0  0  0  0  0  0
  128.3050  133.0760   62.8840 N   0  0  0  0  0  0  0  0  0  0  0  0
  128.2480  133.6980   61.6070 C   0  0  0  0  0  0  0  0  0  0  0  0
  128.0960  134.9000   61.3890 O   0  0  0  0  0  0  0  0  0  0  0  0
  128.4040  132.7400   60.4570 C   0  0  0  0  0  0  0  0  0  0  0  0
  128.3390  133.2930   59.0280 C   0  0  0  0  0  0  0  0  0  0  0  0
  129.4160  132.7490   58.0930 C   0  0  0  0  0  0  0  0  0  0  0  0
  130.4760  131.9970   58.6080 C   0  0  0  0  0  0  0  0  0  0  0  0
  131.4490  131.4870   57.7530 C   0  0  0  0  0  0  0  0  0  0  0  0
  131.3640  131.7240   56.3800 C   0  0  0  0  0  0  0  0  0  0  0  0
  132.4210  131.1550   55.4510 C   0  0  0  0  0  0  0  0  0  0  0  0
  130.2990  132.4650   55.8610 C   0  0  0  0  0  0  0  0  0  0  0  0
  129.3270  132.9750   56.7160 C   0  0  0  0  0  0  0  0  0  0  0  0
  128.5820  131.4690   60.6130 N   0  0  0  0  0  0  0  0  0  0  0  0
  128.6300  130.9910   61.9290 N   0  0  0  0  0  0  0  0  0  0  0  0
  128.8340  129.6690   62.1470 C   0  0  0  0  0  0  0  0  0  0  0  0
  128.9760  128.8210   61.2590 O   0  0  0  0  0  0  0  0  0  0  0  0
  130.6850  125.0480   64.2570 C   0  0  0  0  0  0  0  0  0  0  0  0
  131.6440  124.2630   63.6170 C   0  0  0  0  0  0  0  0  0  0  0  0
  131.2660  123.4570   62.5970 F   0  0  0  0  0  0  0  0  0  0  0  0
  1  2  1  0
  2  3  1  0
  3  4  2  0
  4  5  1  0
  5  6  2  0
  6  7  1  0
  7  8  2  0
  8  9  1  0
  9 10  1  0
 10 11  2  0
 11 12  1  0
 12 13  2  0
 13 14  1  0
 14 15  2  0
  9 16  1  0
 16 17  2  0
 17 18  1  0
 18 19  2  0
 19 20  1  0
 20 21  1  0
 21 22  2  0
 22 23  1  0
 23 24  2  0
 23 25  1  0
 25 26  1  0
 26 27  1  0
 27 28  2  0
 28 29  1  0
 29 30  2  0
 30 31  1  0
 30 32  1  0
 32 33  2  0
 25 34  2  0
 34 35  1  0
 35 36  1  0
 36 37  2  0
  6 38  1  0
 38 39  2  0
 39 40  1  0
 39  3  1  0
 17  7  1  0
 36 19  1  0
 15 10  1  0
 35 21  1  0
 33 27  1  0
M  END
>  <Binding energies>  (46) 
[-9.67]

>  <Ligand effiencies>  (46) 
[-0.24175]

>  <Interactions>  (46) 
["V-A:TYR:539:CE2:4871, V-A:PRO:540:CA:4878, V-A:ASP:366:CG:3208, V-A:TYR:539:CE1:4870, V-A:ILE:369:CD1:3234, V-A:TYR:539:CZ:4872, V-A:PRO:540:CB:4880, H-A:ALA:541:N:4886, V-A:ARG:545:CZ:4921, V-A:ALA:541:CB:4887, V-A:LEU:363:CD1:3184, V-A:TYR:539:CD2:4869, H-A:GLY:454:N:4045, V-A:GLU:543:CD:4903, H-A:TYR:484:OH:4343, V-A:PRO:540:N:4879, V-A:TYR:531:CZ:4789, V-A:TYR:539:C:4862, V-A:TYR:531:CE2:4788, V-A:GLU:543:CG:4902, V-A:TYR:539:CG:4867, V-B:GLU:543:CB:9874, V-B:HIS:456:CE1:9037, V-A:TYR:539:CA:4864, V-A:TYR:539:CD1:4868, V-B:HIS:456:CD2:9035, V-A:HIS:456:CE1:4064, V-B:GLY:544:C:9880, V-B:GLU:543:C:9870, V-B:HIS:456:CG:9033"]

$$$$
RR23_Rahimova_2017
     RDKit          3D

 39 44  0  0  0  0  0  0  0  0999 V2000
  134.2280  131.1350   53.1270 C   0  0  0  0  0  0  0  0  0  0  0  0
  132.7510  131.3390   53.4090 C   0  0  0  0  0  0  0  0  0  0  0  0
  132.3480  132.1570   54.4650 C   0  0  0  0  0  0  0  0  0  0  0  0
  130.9910  132.3510   54.7170 C   0  0  0  0  0  0  0  0  0  0  0  0
  130.0290  131.7200   53.9210 C   0  0  0  0  0  0  0  0  0  0  0  0
  128.5610  131.9600   54.1970 C   0  0  0  0  0  0  0  0  0  0  0  0
  127.9220  132.6090   53.3660 O   0  0  0  0  0  0  0  0  0  0  0  0
  128.0000  131.4450   55.3320 N   0  0  0  0  0  0  0  0  0  0  0  0
  127.3160  130.1420   55.3300 C   0  0  0  0  0  0  0  0  0  0  0  0
  126.9610  129.8430   56.7770 C   0  0  0  0  0  0  0  0  0  0  0  0
  127.8030  130.8230   57.5360 C   0  0  0  0  0  0  0  0  0  0  0  0
  127.9640  130.9610   58.9150 C   0  0  0  0  0  0  0  0  0  0  0  0
  128.6760  132.0490   59.4420 C   0  0  0  0  0  0  0  0  0  0  0  0
  128.8760  132.2380   60.9530 C   0  0  2  0  0  0  0  0  0  0  0  0
  128.2370  131.1930   61.7240 N   0  0  0  0  0  0  0  0  0  0  0  0
  127.8240  131.6190   62.8490 C   0  0  0  0  0  0  0  0  0  0  0  0
  127.1590  130.9290   63.8140 N   0  0  0  0  0  0  0  0  0  0  0  0
  126.6550  129.6730   63.7560 C   0  0  0  0  0  0  0  0  0  0  0  0
  126.7560  128.9050   62.7970 O   0  0  0  0  0  0  0  0  0  0  0  0
  125.8970  129.2040   65.0090 C   0  0  0  0  0  0  0  0  0  0  0  0
  126.8510  129.0770   66.1340 N   0  0  0  0  0  0  0  0  0  0  0  0
  127.7180  130.1500   66.3040 N   0  0  0  0  0  0  0  0  0  0  0  0
  128.6010  130.1610   67.2500 N   0  0  0  0  0  0  0  0  0  0  0  0
  128.6930  129.0790   68.1280 C   0  0  0  0  0  0  0  0  0  0  0  0
  129.6580  129.1220   69.1370 C   0  0  0  0  0  0  0  0  0  0  0  0
  129.7750  128.0550   70.0290 C   0  0  0  0  0  0  0  0  0  0  0  0
  128.9320  126.9470   69.9140 C   0  0  0  0  0  0  0  0  0  0  0  0
  127.9670  126.9020   68.9050 C   0  0  0  0  0  0  0  0  0  0  0  0
  127.8490  127.9730   68.0120 C   0  0  0  0  0  0  0  0  0  0  0  0
  126.8140  127.9410   66.9110 C   0  0  0  0  0  0  0  0  0  0  0  0
  126.0360  127.0000   66.7270 O   0  0  0  0  0  0  0  0  0  0  0  0
  128.1310  133.3390   63.2260 S   0  0  0  0  0  0  0  0  0  0  0  0
  128.4650  133.6320   61.4810 C   0  0  2  0  0  0  0  0  0  0  0  0
  127.2230  134.2790   60.8330 C   0  0  0  0  0  0  0  0  0  0  0  0
  129.1780  133.0160   58.5630 C   0  0  0  0  0  0  0  0  0  0  0  0
  128.9990  132.8900   57.1850 C   0  0  0  0  0  0  0  0  0  0  0  0
  128.3570  131.7600   56.6620 C   0  0  0  0  0  0  0  0  0  0  0  0
  130.4410  130.9230   52.8450 C   0  0  0  0  0  0  0  0  0  0  0  0
  131.7960  130.7300   52.5930 C   0  0  0  0  0  0  0  0  0  0  0  0
  1  2  1  0
  2  3  2  0
  3  4  1  0
  4  5  2  0
  5  6  1  0
  6  7  2  0
  6  8  1  0
  8  9  1  0
  9 10  1  0
 10 11  1  0
 11 12  2  0
 12 13  1  0
 14 13  1  6
 14 15  1  0
 15 16  2  0
 16 17  1  0
 17 18  1  0
 18 19  2  0
 18 20  1  0
 20 21  1  0
 21 22  1  0
 22 23  2  0
 23 24  1  0
 24 25  2  0
 25 26  1  0
 26 27  2  0
 27 28  1  0
 28 29  2  0
 29 30  1  0
 30 31  2  0
 16 32  1  0
 32 33  1  0
 33 34  1  6
 13 35  2  0
 35 36  1  0
 36 37  2  0
  5 38  1  0
 38 39  2  0
 39  2  1  0
 37  8  1  0
 37 11  1  0
 33 14  1  0
 30 21  1  0
 29 24  1  0
M  END
>  <Binding energies>  (47) 
[-10.73]

>  <Ligand effiencies>  (47) 
[-0.26825]

>  <Interactions>  (47) 
["V-A:TYR:539:CE2:4871, V-A:PRO:540:CA:4878, V-A:ILE:538:CG2:4858, V-A:MET:535:CG:4828, V-A:TYR:539:CE1:4870, V-A:TYR:539:CZ:4872, V-A:ILE:538:CA:4855, V-A:ALA:541:CB:4887, V-A:ILE:538:CD1:4860, V-A:LEU:363:CD1:3184, V-A:TYR:539:CD2:4869, V-A:PRO:540:N:4879, V-A:TYR:539:C:4862, V-A:TYR:531:CE2:4788, V-A:TYR:539:CG:4867, V-B:GLU:543:CB:9874, V-B:HIS:456:CE1:9037, V-A:MET:535:CB:4827, V-A:TYR:531:CD2:4786, V-A:ILE:532:CA:4795, V-A:TYR:531:CG:4784, V-A:TYR:531:C:4779, V-A:TYR:539:CD1:4868, V-A:HIS:456:CE1:4064, V-B:GLU:543:C:9870, V-A:GLU:543:C:4897, V-A:GLU:543:CB:4901, V-A:PRO:540:C:4876, H-B:TYR:484:OH:9315, H-B:ARG:545:NE:9892, V-A:ILE:532:CD1:4800, V-A:TYR:531:CB:4783"]

$$$$
RR26_Rahimova_2017
     RDKit          3D

 38 44  0  0  0  0  0  0  0  0999 V2000
  126.2300  127.4210   67.1710 C   0  0  0  0  0  0  0  0  0  0  0  0
  127.4340  127.6570   68.0740 C   0  0  0  0  0  0  0  0  0  0  0  0
  127.4820  126.9890   69.3020 C   0  0  0  0  0  0  0  0  0  0  0  0
  128.5780  127.1360   70.1500 C   0  0  0  0  0  0  0  0  0  0  0  0
  129.6420  127.9490   69.7720 C   0  0  0  0  0  0  0  0  0  0  0  0
  129.6060  128.6190   68.5510 C   0  0  0  0  0  0  0  0  0  0  0  0
  128.5070  128.4900   67.6880 C   0  0  0  0  0  0  0  0  0  0  0  0
  128.5420  129.2590   66.3990 C   0  0  0  0  0  0  0  0  0  0  0  0
  128.5170  128.6580   65.2120 N   0  0  0  0  0  0  0  0  0  0  0  0
  128.5490  129.6740   64.3940 C   0  0  0  0  0  0  0  0  0  0  0  0
  128.5580  129.8850   62.6820 S   0  0  0  0  0  0  0  0  0  0  0  0
  128.6070  131.6710   62.9250 C   0  0  0  0  0  0  0  0  0  0  0  0
  128.6420  132.6340   61.9770 C   0  0  0  0  0  0  0  0  0  0  0  0
  128.6420  132.4710   60.5320 C   0  0  0  0  0  0  0  0  0  0  0  0
  129.7010  132.6300   59.6520 C   0  0  0  0  0  0  0  0  0  0  0  0
  129.2510  132.3330   58.3910 N   0  0  0  0  0  0  0  0  0  0  0  0
  129.9770  132.3490   57.1720 C   0  0  0  0  0  0  0  0  0  0  0  0
  129.4290  132.9240   56.0170 C   0  0  0  0  0  0  0  0  0  0  0  0
  130.1510  132.9300   54.8260 C   0  0  0  0  0  0  0  0  0  0  0  0
  131.4240  132.3670   54.7880 C   0  0  0  0  0  0  0  0  0  0  0  0
  131.9820  131.7960   55.9300 C   0  0  0  0  0  0  0  0  0  0  0  0
  131.2610  131.7850   57.1210 C   0  0  0  0  0  0  0  0  0  0  0  0
  127.9610  131.9640   58.4330 N   0  0  0  0  0  0  0  0  0  0  0  0
  127.5860  132.0470   59.6940 C   0  0  0  0  0  0  0  0  0  0  0  0
  126.1790  131.7070   60.0770 C   0  0  0  0  0  0  0  0  0  0  0  0
  125.1580  131.7190   59.1150 C   0  0  0  0  0  0  0  0  0  0  0  0
  123.8420  131.4070   59.4630 C   0  0  0  0  0  0  0  0  0  0  0  0
  123.5380  131.0800   60.7830 C   0  0  0  0  0  0  0  0  0  0  0  0
  124.5530  131.0460   61.7500 C   0  0  0  0  0  0  0  0  0  0  0  0
  125.8640  131.3640   61.4010 C   0  0  0  0  0  0  0  0  0  0  0  0
  124.2900  130.7700   63.0780 O   0  0  0  0  0  0  0  0  0  0  0  0
  123.0410  130.1080   63.3020 C   0  0  0  0  0  0  0  0  0  0  0  0
  121.9170  130.7720   62.4700 C   0  0  0  0  0  0  0  0  0  0  0  0
  122.2340  130.7310   61.0740 O   0  0  0  0  0  0  0  0  0  0  0  0
  128.6220  132.0390   64.3370 C   0  0  0  0  0  0  0  0  0  0  0  0
  128.6580  133.1600   64.8480 O   0  0  0  0  0  0  0  0  0  0  0  0
  128.5850  130.8400   65.0650 N   0  0  0  0  0  0  0  0  0  0  0  0
  128.5760  130.5820   66.3760 N   0  0  0  0  0  0  0  0  0  0  0  0
  1  2  1  0
  2  3  2  0
  3  4  1  0
  4  5  2  0
  5  6  1  0
  6  7  2  0
  7  8  1  0
  8  9  1  0
  9 10  2  0
 10 11  1  0
 11 12  1  0
 12 13  2  0
 13 14  1  0
 14 15  2  0
 15 16  1  0
 16 17  1  0
 17 18  2  0
 18 19  1  0
 19 20  2  0
 20 21  1  0
 21 22  2  0
 16 23  1  0
 23 24  2  0
 24 25  1  0
 25 26  2  0
 26 27  1  0
 27 28  2  0
 28 29  1  0
 29 30  2  0
 29 31  1  0
 31 32  1  0
 32 33  1  0
 33 34  1  0
 12 35  1  0
 35 36  2  0
 35 37  1  0
 37 38  1  0
  7  2  1  0
 38  8  2  0
 37 10  1  0
 24 14  1  0
 30 25  1  0
 22 17  1  0
 34 28  1  0
M  END
>  <Binding energies>  (48) 
[-9.75]

>  <Ligand effiencies>  (48) 
[-0.2565789473684211]

>  <Interactions>  (48) 
["V-A:TYR:539:CE2:4871, V-A:PRO:540:CA:4878, V-A:ILE:538:CG2:4858, V-A:TYR:539:CE1:4870, V-A:TYR:539:CZ:4872, V-A:ILE:538:CA:4855, V-A:PRO:540:CB:4880, V-A:ALA:541:CB:4887, V-A:ILE:538:CD1:4860, V-A:LEU:363:CD1:3184, V-A:GLU:543:CD:4903, V-A:PRO:540:N:4879, V-B:GLU:543:CD:9876, V-A:TYR:539:C:4862, V-A:GLU:543:CG:4902, V-A:TYR:539:CG:4867, V-B:ILE:369:CD1:8206, V-B:GLU:543:CB:9874, V-B:HIS:456:CE1:9037, V-B:ASP:366:CG:8180, V-B:ASP:366:CA:8177, V-A:TYR:539:CD1:4868, V-A:HIS:456:CE1:4064, V-B:GLU:543:C:9870, V-B:TYR:484:CZ:9314, V-A:GLU:543:CB:4901, H-B:TYR:484:OH:9315, V-B:ARG:545:CZ:9894, V-B:ARG:545:CG:9890, V-B:TYR:484:CE1:9312, V-B:GLY:453:CA:9011, V-B:GLY:453:C:9009"]

$$$$
RR2_Rahimova_2017
     RDKit          3D

 46 50  0  0  0  0  0  0  0  0999 V2000
  130.4400  121.5430   59.9440 C   0  0  0  0  0  0  0  0  0  0  0  0
  131.4830  122.1940   59.2250 O   0  0  0  0  0  0  0  0  0  0  0  0
  131.1550  123.1100   58.2430 C   0  0  0  0  0  0  0  0  0  0  0  0
  132.0910  123.8250   57.4840 C   0  0  0  0  0  0  0  0  0  0  0  0
  131.6670  124.7320   56.5170 C   0  0  0  0  0  0  0  0  0  0  0  0
  130.3010  124.9480   56.2880 C   0  0  0  0  0  0  0  0  0  0  0  0
  129.8650  125.9460   55.2330 C   0  0  0  0  0  0  0  0  0  0  0  0
  129.3730  125.5540   54.1700 O   0  0  0  0  0  0  0  0  0  0  0  0
  130.0650  127.2500   55.5360 N   0  0  0  0  0  0  0  0  0  0  0  0
  129.7680  128.2020   54.5670 N   0  0  0  0  0  0  0  0  0  0  0  0
  130.5130  129.3260   54.5280 C   0  0  0  0  0  0  0  0  0  0  0  0
  131.3250  129.6640   55.3940 O   0  0  0  0  0  0  0  0  0  0  0  0
  130.3190  130.2050   53.2850 C   0  0  0  0  0  0  0  0  0  0  0  0
  129.1620  131.6060   53.5010 S   0  0  0  0  0  0  0  0  0  0  0  0
  129.6670  132.2040   55.0860 C   0  0  0  0  0  0  0  0  0  0  0  0
  130.4550  133.2380   55.2410 N   0  0  0  0  0  0  0  0  0  0  0  0
  130.6980  133.3770   56.6000 N   0  0  0  0  0  0  0  0  0  0  0  0
  130.0220  132.4390   57.2200 C   0  0  0  0  0  0  0  0  0  0  0  0
  130.0180  132.2740   58.7050 C   0  0  0  0  0  0  0  0  0  0  0  0
  129.1380  133.0290   59.4850 C   0  0  0  0  0  0  0  0  0  0  0  0
  129.1320  132.8880   60.8690 C   0  0  0  0  0  0  0  0  0  0  0  0
  129.9960  131.9760   61.4870 C   0  0  0  0  0  0  0  0  0  0  0  0
  130.0400  131.8000   62.8780 N   0  0  0  0  0  0  0  0  0  0  0  0
  128.6120  131.6940   63.9310 S   0  0  0  0  0  0  0  0  0  0  0  0
  128.6020  132.9290   64.7230 O   0  0  0  0  0  0  0  0  0  0  0  0
  128.6260  130.3800   64.5850 O   0  0  0  0  0  0  0  0  0  0  0  0
  127.2060  131.7790   62.8240 C   0  0  0  0  0  0  0  0  0  0  0  0
  126.4300  132.9380   62.7480 C   0  0  0  0  0  0  0  0  0  0  0  0
  125.3320  132.9780   61.8930 C   0  0  0  0  0  0  0  0  0  0  0  0
  125.0140  131.8650   61.1110 C   0  0  0  0  0  0  0  0  0  0  0  0
  123.8080  131.9060   60.1910 C   0  0  0  0  0  0  0  0  0  0  0  0
  125.7900  130.7060   61.1930 C   0  0  0  0  0  0  0  0  0  0  0  0
  126.8870  130.6640   62.0490 C   0  0  0  0  0  0  0  0  0  0  0  0
  130.8720  131.2210   60.7070 C   0  0  0  0  0  0  0  0  0  0  0  0
  130.8830  131.3660   59.3220 C   0  0  0  0  0  0  0  0  0  0  0  0
  129.3410  131.6470   56.3090 N   0  0  0  0  0  0  0  0  0  0  0  0
  128.5410  130.5130   56.5600 C   0  0  0  0  0  0  0  0  0  0  0  0
  128.9710  129.5430   57.4660 C   0  0  0  0  0  0  0  0  0  0  0  0
  128.1740  128.4290   57.7120 C   0  0  0  0  0  0  0  0  0  0  0  0
  126.9500  128.2730   57.0600 C   0  0  0  0  0  0  0  0  0  0  0  0
  126.2310  127.1340   57.3680 O   0  0  0  0  0  0  0  0  0  0  0  0
  126.0160  126.7960   58.7350 C   0  0  0  0  0  0  0  0  0  0  0  0
  126.5260  129.2540   56.1490 C   0  0  0  0  0  0  0  0  0  0  0  0
  127.3170  130.3710   55.9010 C   0  0  0  0  0  0  0  0  0  0  0  0
  129.3690  124.2240   57.0480 C   0  0  0  0  0  0  0  0  0  0  0  0
  129.7960  123.3170   58.0140 C   0  0  0  0  0  0  0  0  0  0  0  0
  1  2  1  0
  2  3  1  0
  3  4  2  0
  4  5  1  0
  5  6  2  0
  6  7  1  0
  7  8  2  0
  7  9  1  0
  9 10  1  0
 10 11  1  0
 11 12  2  0
 11 13  1  0
 13 14  1  0
 14 15  1  0
 15 16  2  0
 16 17  1  0
 17 18  2  0
 18 19  1  0
 19 20  2  0
 20 21  1  0
 21 22  2  0
 22 23  1  0
 23 24  1  0
 24 25  2  0
 24 26  2  0
 24 27  1  0
 27 28  2  0
 28 29  1  0
 29 30  2  0
 30 31  1  0
 30 32  1  0
 32 33  2  0
 22 34  1  0
 34 35  2  0
 18 36  1  0
 36 37  1  0
 37 38  2  0
 38 39  1  0
 39 40  2  0
 40 41  1  0
 41 42  1  0
 40 43  1  0
 43 44  2  0
  6 45  1  0
 45 46  2  0
 46  3  1  0
 36 15  1  0
 44 37  1  0
 35 19  1  0
 33 27  1  0
M  END
>  <Binding energies>  (49) 
[-11.43]

>  <Ligand effiencies>  (49) 
[-0.23326530612244897]

>  <Interactions>  (49) 
["V-A:PRO:540:CA:4878, V-A:MET:535:CG:4828, H-A:GLU:543:OE2:4905, H-A:TYR:531:OH:4790, V-A:TYR:539:CE1:4870, V-A:TYR:539:CZ:4872, V-B:LEU:475:CD2:9226, V-A:PRO:540:CB:4880, H-B:TYR:531:OH:9763, V-A:ALA:541:CB:4887, V-A:GLU:543:CD:4903, H-A:LYS:534:NZ:4818, V-A:PRO:540:N:4879, V-A:TYR:531:CZ:4789, V-A:TYR:539:C:4862, V-B:TYR:539:CE2:9844, V-B:TYR:539:CD2:9842, V-B:TYR:539:CZ:9845, V-A:TYR:531:CE1:4787, V-B:ILE:369:CG2:8204, V-A:GLU:543:CG:4902, V-B:ILE:369:CD1:8206, V-B:ASP:366:CB:8179, V-B:ASP:366:CG:8180, V-A:MET:535:CB:4827, H-A:TYR:539:N:4865, V-A:TYR:539:CD1:4868, V-A:PRO:540:C:4876, V-B:ILE:369:CB:8203, H-B:TYR:484:OH:9315, H-A:ALA:541:O:4884"]

$$$$
RR33_Rahimova_2017
     RDKit          3D

 18 19  0  0  0  0  0  0  0  0999 V2000
  131.8050  130.7340   52.6230 C   0  0  0  0  0  0  0  0  0  0  0  0
  132.9860  130.9510   53.5740 C   0  0  0  0  0  0  0  0  0  0  0  0
  132.8060  132.1920   54.2520 O   0  0  0  0  0  0  0  0  0  0  0  0
  131.9180  132.2640   55.3070 C   0  0  0  0  0  0  0  0  0  0  0  0
  130.6880  132.8650   55.0440 C   0  0  0  0  0  0  0  0  0  0  0  0
  129.7300  132.9870   56.0470 C   0  0  0  0  0  0  0  0  0  0  0  0
  129.9900  132.5070   57.3340 C   0  0  0  0  0  0  0  0  0  0  0  0
  128.9610  132.6390   58.4110 C   0  0  0  0  0  0  0  0  0  0  0  0
  129.0000  133.4220   59.4660 N   0  0  0  0  0  0  0  0  0  0  0  0
  127.8710  133.1870   60.1170 C   0  0  0  0  0  0  0  0  0  0  0  0
  127.5450  133.9230   61.3990 C   0  0  0  0  0  0  0  0  0  0  0  0
  128.3410  135.1360   61.5110 N   0  0  0  0  0  0  0  0  0  0  0  0
  127.4850  136.3110   61.5210 C   0  0  0  0  0  0  0  0  0  0  0  0
  127.1280  132.2320   59.4340 C   0  0  0  0  0  0  0  0  0  0  0  0
  125.7940  131.5580   59.6430 C   0  0  0  0  0  0  0  0  0  0  0  0
  127.8360  131.8810   58.3350 O   0  0  0  0  0  0  0  0  0  0  0  0
  131.2210  131.9000   57.6010 C   0  0  0  0  0  0  0  0  0  0  0  0
  132.1800  131.7790   56.5980 C   0  0  0  0  0  0  0  0  0  0  0  0
  1  2  1  0
  2  3  1  0
  3  4  1  0
  4  5  2  0
  5  6  1  0
  6  7  2  0
  7  8  1  0
  8  9  2  0
  9 10  1  0
 10 11  1  0
 11 12  1  0
 12 13  1  0
 10 14  2  0
 14 15  1  0
 14 16  1  0
  7 17  1  0
 17 18  2  0
 18  4  1  0
 16  8  1  0
M  END
>  <Binding energies>  (50) 
[-5.96]

>  <Ligand effiencies>  (50) 
[-0.3136842105263158]

>  <Interactions>  (50) 
["V-B:PRO:482:CG:9294, V-A:TYR:539:CE2:4871, V-A:PRO:540:CA:4878, V-A:ILE:538:CG2:4858, V-A:TYR:539:CE1:4870, V-B:PRO:482:CB:9293, V-A:TYR:539:CZ:4872, V-B:LEU:475:CD2:9226, V-A:ILE:538:CA:4855, V-A:PRO:540:CB:4880, H-A:ALA:541:N:4886, V-A:ILE:538:CD1:4860, V-A:LEU:363:CD1:3184, V-B:LEU:475:CD1:9225, V-A:TYR:539:CD2:4869, V-A:PRO:540:N:4879, V-A:TYR:531:CZ:4789, V-A:TYR:539:C:4862, V-A:PRO:540:CD:4882, V-A:TYR:531:CE2:4788, V-A:TYR:539:CG:4867, V-B:TRP:381:CH2:8339, V-A:TYR:531:CD2:4786, V-A:TYR:531:CG:4784, H-A:TYR:539:O:4863, V-A:TYR:539:CD1:4868, V-B:TRP:381:CZ2:8337"]

$$$$
RR3_Rahimova_2017
     RDKit          3D

 38 44  0  0  0  0  0  0  0  0999 V2000
  128.8810  135.5370   74.5300 C   0  0  0  0  0  0  0  0  0  0  0  0
  129.6050  135.2240   73.3850 C   0  0  0  0  0  0  0  0  0  0  0  0
  129.7070  133.8980   72.9750 C   0  0  0  0  0  0  0  0  0  0  0  0
  129.0870  132.8700   73.7010 C   0  0  0  0  0  0  0  0  0  0  0  0
  129.1970  131.4440   73.2580 C   0  0  0  0  0  0  0  0  0  0  0  0
  130.3690  130.9640   72.6600 C   0  0  0  0  0  0  0  0  0  0  0  0
  130.4690  129.6390   72.2440 C   0  0  0  0  0  0  0  0  0  0  0  0
  129.3930  128.7640   72.4120 C   0  0  0  0  0  0  0  0  0  0  0  0
  129.4920  127.3390   71.9630 C   0  0  0  0  0  0  0  0  0  0  0  0
  129.9760  126.4150   72.7850 N   0  0  0  0  0  0  0  0  0  0  0  0
  129.9020  125.2710   72.1490 C   0  0  0  0  0  0  0  0  0  0  0  0
  130.3290  123.9810   72.6850 C   0  0  0  0  0  0  0  0  0  0  0  0
  131.4510  123.7590   73.4650 C   0  0  0  0  0  0  0  0  0  0  0  0
  131.5410  122.4330   73.7980 N   0  0  0  0  0  0  0  0  0  0  0  0
  130.4860  121.7390   73.2470 C   0  0  0  0  0  0  0  0  0  0  0  0
  130.1550  120.3810   73.3080 C   0  0  0  0  0  0  0  0  0  0  0  0
  129.0030  119.9790   72.6320 C   0  0  0  0  0  0  0  0  0  0  0  0
  128.2140  120.8820   71.9260 C   0  0  0  0  0  0  0  0  0  0  0  0
  128.5440  122.2340   71.8660 C   0  0  0  0  0  0  0  0  0  0  0  0
  129.6960  122.6920   72.5300 C   0  0  0  0  0  0  0  0  0  0  0  0
  129.3740  125.4400   70.8990 N   0  0  0  0  0  0  0  0  0  0  0  0
  129.1150  126.7760   70.7320 C   0  0  0  0  0  0  0  0  0  0  0  0
  128.5840  127.3460   69.4570 C   0  0  0  0  0  0  0  0  0  0  0  0
  129.2610  128.3870   68.8200 C   0  0  0  0  0  0  0  0  0  0  0  0
  128.7620  128.9290   67.6400 C   0  0  0  0  0  0  0  0  0  0  0  0
  127.5800  128.4400   67.0650 C   0  0  0  0  0  0  0  0  0  0  0  0
  127.0360  129.0380   65.8060 C   0  0  0  0  0  0  0  0  0  0  0  0
  125.7260  128.7630   65.3860 C   0  0  0  0  0  0  0  0  0  0  0  0
  125.2190  129.3240   64.2160 C   0  0  0  0  0  0  0  0  0  0  0  0
  126.0190  130.1680   63.4520 C   0  0  0  0  0  0  0  0  0  0  0  0
  127.3200  130.4550   63.8510 C   0  0  0  0  0  0  0  0  0  0  0  0
  127.8250  129.8920   65.0200 C   0  0  0  0  0  0  0  0  0  0  0  0
  126.9190  127.3830   67.7060 C   0  0  0  0  0  0  0  0  0  0  0  0
  127.4150  126.8380   68.8870 C   0  0  0  0  0  0  0  0  0  0  0  0
  128.2250  129.2290   73.0190 C   0  0  0  0  0  0  0  0  0  0  0  0
  128.1280  130.5550   73.4330 C   0  0  0  0  0  0  0  0  0  0  0  0
  128.3630  133.2100   74.8530 C   0  0  0  0  0  0  0  0  0  0  0  0
  128.2580  134.5350   75.2670 C   0  0  0  0  0  0  0  0  0  0  0  0
  1  2  2  0
  2  3  1  0
  3  4  2  0
  4  5  1  0
  5  6  2  0
  6  7  1  0
  7  8  2  0
  8  9  1  0
  9 10  1  0
 10 11  2  0
 11 12  1  0
 12 13  2  0
 13 14  1  0
 14 15  1  0
 15 16  2  0
 16 17  1  0
 17 18  2  0
 18 19  1  0
 19 20  2  0
 11 21  1  0
 21 22  1  0
 22 23  1  0
 23 24  2  0
 24 25  1  0
 25 26  2  0
 26 27  1  0
 27 28  2  0
 28 29  1  0
 29 30  2  0
 30 31  1  0
 31 32  2  0
 26 33  1  0
 33 34  2  0
  8 35  1  0
 35 36  2  0
  4 37  1  0
 37 38  2  0
 38  1  1  0
 36  5  1  0
 22  9  2  0
 34 23  1  0
 20 12  1  0
 32 27  1  0
 20 15  1  0
M  END
>  <Binding energies>  (51) 
[-10.06]

>  <Ligand effiencies>  (51) 
[-0.2515]

>  <Interactions>  (51) 
["V-A:GLU:543:CG:4902, V-B:GLU:543:CB:9874, V-B:HIS:456:CE1:9037, V-B:HIS:456:CD2:9035, H-B:LYS:547:NZ:9919, V-A:HIS:456:CE1:4064, V-B:GLU:543:C:9870, V-A:GLY:544:C:4907, V-A:GLU:543:C:4897, V-A:LYS:547:CE:4945, V-A:GLU:543:CB:4901, V-B:GLY:544:CA:9882, V-A:TYR:484:CB:4336, V-A:HIS:456:CG:4061, V-A:ASP:473:CB:4234, V-B:ASP:473:CG:9207, V-B:TYR:484:CB:9308, V-B:ASP:473:CB:9206, V-B:ARG:545:CZ:9894, V-B:ARG:545:CG:9890, V-A:ASP:473:CG:4235, V-A:HIS:456:CB:4060, H-A:ASP:473:OD2:4237, H-A:ASP:473:OD1:4236, V-A:GLY:544:CA:4909, H-B:GLU:543:O:9871, V-B:TYR:484:C:9304"]

$$$$
RR4_Rahimova_2017
     RDKit          3D

 40 44  0  0  0  0  0  0  0  0999 V2000
  133.5140  130.3910   59.3180 C   0  0  0  0  0  0  0  0  0  0  0  0
  132.2990  131.0770   59.0340 O   0  0  0  0  0  0  0  0  0  0  0  0
  131.2670  131.0280   59.9510 C   0  0  0  0  0  0  0  0  0  0  0  0
  130.2750  130.0760   59.7270 C   0  0  0  0  0  0  0  0  0  0  0  0
  129.1980  129.9530   60.5990 C   0  0  0  0  0  0  0  0  0  0  0  0
  129.0790  130.7830   61.7240 C   0  0  0  0  0  0  0  0  0  0  0  0
  127.9150  130.6490   62.6630 C   0  0  0  0  0  0  0  0  0  0  0  0
  127.9580  129.8580   63.8150 C   0  0  0  0  0  0  0  0  0  0  0  0
  126.8460  129.7690   64.6620 C   0  0  0  0  0  0  0  0  0  0  0  0
  126.9760  128.9280   65.8900 C   0  0  0  0  0  0  0  0  0  0  0  0
  128.0700  129.0970   66.7440 C   0  0  0  0  0  0  0  0  0  0  0  0
  128.1930  128.3250   67.8970 C   0  0  0  0  0  0  0  0  0  0  0  0
  127.2240  127.3760   68.2210 C   0  0  0  0  0  0  0  0  0  0  0  0
  127.4290  126.6570   69.3830 O   0  0  0  0  0  0  0  0  0  0  0  0
  128.4540  127.0680   70.2820 C   0  0  0  0  0  0  0  0  0  0  0  0
  126.1220  127.2060   67.3690 C   0  0  0  0  0  0  0  0  0  0  0  0
  126.0010  127.9800   66.2170 C   0  0  0  0  0  0  0  0  0  0  0  0
  125.6700  130.4750   64.3080 C   0  0  0  0  0  0  0  0  0  0  0  0
  124.4780  130.4170   65.1600 C   0  0  0  0  0  0  0  0  0  0  0  0
  123.5370  130.3710   65.8320 N   0  0  0  0  0  0  0  0  0  0  0  0
  125.6860  131.2310   63.1140 C   0  0  0  0  0  0  0  0  0  0  0  0
  124.2990  132.1680   62.5090 S   0  0  0  0  0  0  0  0  0  0  0  0
  123.6540  131.3160   61.0310 C   0  0  0  0  0  0  0  0  0  0  0  0
  124.4260  131.6110   59.7380 C   0  0  0  0  0  0  0  0  0  0  0  0
  123.8550  132.1210   58.7700 O   0  0  0  0  0  0  0  0  0  0  0  0
  125.7320  131.2570   59.7640 N   0  0  0  0  0  0  0  0  0  0  0  0
  126.6900  131.3960   58.7570 C   0  0  0  0  0  0  0  0  0  0  0  0
  126.7020  130.4140   57.3170 S   0  0  0  0  0  0  0  0  0  0  0  0
  128.1190  131.2180   56.7130 C   0  0  0  0  0  0  0  0  0  0  0  0
  128.5670  132.2090   57.6000 C   0  0  0  0  0  0  0  0  0  0  0  0
  127.7470  132.3190   58.7490 C   0  0  0  0  0  0  0  0  0  0  0  0
  127.9850  133.2870   59.8160 C   0  0  0  0  0  0  0  0  0  0  0  0
  128.1740  134.0540   60.6620 N   0  0  0  0  0  0  0  0  0  0  0  0
  129.7810  133.0870   57.2740 C   0  0  0  0  0  0  0  0  0  0  0  0
  130.1290  133.0010   55.7710 C   0  0  0  0  0  0  0  0  0  0  0  0
  130.1260  131.5510   55.2560 C   0  0  0  0  0  0  0  0  0  0  0  0
  128.7270  130.9060   55.3520 C   0  0  0  0  0  0  0  0  0  0  0  0
  126.7860  131.3260   62.3300 N   0  0  0  0  0  0  0  0  0  0  0  0
  130.0860  131.7370   61.9440 C   0  0  0  0  0  0  0  0  0  0  0  0
  131.1640  131.8620   61.0730 C   0  0  0  0  0  0  0  0  0  0  0  0
  1  2  1  0
  2  3  1  0
  3  4  2  0
  4  5  1  0
  5  6  2  0
  6  7  1  0
  7  8  2  0
  8  9  1  0
  9 10  1  0
 10 11  2  0
 11 12  1  0
 12 13  2  0
 13 14  1  0
 14 15  1  0
 13 16  1  0
 16 17  2  0
  9 18  2  0
 18 19  1  0
 19 20  3  0
 18 21  1  0
 21 22  1  0
 22 23  1  0
 23 24  1  0
 24 25  2  0
 24 26  1  0
 26 27  1  0
 27 28  1  0
 28 29  1  0
 29 30  2  0
 30 31  1  0
 31 32  1  0
 32 33  3  0
 30 34  1  0
 34 35  1  0
 35 36  1  0
 36 37  1  0
 21 38  2  0
  6 39  1  0
 39 40  2  0
 40  3  1  0
 38  7  1  0
 17 10  1  0
 31 27  2  0
 37 29  1  0
M  END
>  <Binding energies>  (52) 
[-9.66]

>  <Ligand effiencies>  (52) 
[-0.235609756097561]

>  <Interactions>  (52) 
["V-A:TYR:539:CE2:4871, V-A:PRO:540:CA:4878, V-A:ASP:366:CG:3208, V-A:TYR:539:CE1:4870, V-A:TYR:539:CZ:4872, V-A:ILE:538:CA:4855, V-A:PRO:540:CB:4880, V-A:TYR:539:CD2:4869, V-A:GLU:543:CD:4903, H-A:TYR:539:OH:4873, V-A:PRO:540:N:4879, V-B:GLU:543:CD:9876, V-A:TYR:539:C:4862, V-A:PRO:540:CD:4882, H-B:GLY:454:N:9017, V-A:TYR:539:CG:4867, V-B:ILE:369:CD1:8206, V-B:GLU:543:CB:9874, V-B:HIS:456:CE1:9037, V-A:LEU:363:CA:3180, V-A:TYR:539:CA:4864, V-A:TYR:539:CD1:4868, V-A:ASN:362:C:3167, V-A:PRO:540:C:4876, H-B:TYR:484:OH:9315, V-B:ARG:545:CD:9891, V-B:ARG:545:CG:9890"]

$$$$
RR6_Rahimova_2017
     RDKit          3D

 38 41  0  0  0  0  0  0  0  0999 V2000
  130.2320  132.6310   53.8950 C   0  0  0  0  0  0  0  0  0  0  0  0
  130.5890  133.3350   55.0770 O   0  0  0  0  0  0  0  0  0  0  0  0
  130.8760  132.6720   56.2260 C   0  0  0  0  0  0  0  0  0  0  0  0
  132.0220  132.3460   56.5550 O   0  0  0  0  0  0  0  0  0  0  0  0
  129.6630  132.3730   57.0590 C   0  0  0  0  0  0  0  0  0  0  0  0
  128.6740  131.4720   56.6360 C   0  0  0  0  0  0  0  0  0  0  0  0
  127.5560  131.2220   57.4280 C   0  0  0  0  0  0  0  0  0  0  0  0
  127.4070  131.8760   58.6610 C   0  0  0  0  0  0  0  0  0  0  0  0
  126.3060  131.7190   59.5240 N   0  0  0  0  0  0  0  0  0  0  0  0
  125.1400  131.0690   59.3150 C   0  0  0  0  0  0  0  0  0  0  0  0
  124.8330  130.4660   58.2860 O   0  0  0  0  0  0  0  0  0  0  0  0
  124.1170  131.1650   60.4510 C   0  0  0  0  0  0  0  0  0  0  0  0
  124.7230  132.0770   61.9090 S   0  0  0  0  0  0  0  0  0  0  0  0
  126.0330  131.1010   62.6180 C   0  0  0  0  0  0  0  0  0  0  0  0
  127.1820  131.1050   61.9000 N   0  0  0  0  0  0  0  0  0  0  0  0
  128.2620  130.4210   62.3540 C   0  0  0  0  0  0  0  0  0  0  0  0
  129.5130  130.5270   61.5330 C   0  0  0  0  0  0  0  0  0  0  0  0
  129.7930  129.5980   60.5190 C   0  0  0  0  0  0  0  0  0  0  0  0
  130.9600  129.6880   59.7650 C   0  0  0  0  0  0  0  0  0  0  0  0
  131.8700  130.7160   60.0090 C   0  0  0  0  0  0  0  0  0  0  0  0
  133.1450  130.8060   59.1920 C   0  0  0  0  0  0  0  0  0  0  0  0
  131.6100  131.6500   61.0100 C   0  0  0  0  0  0  0  0  0  0  0  0
  130.4420  131.5550   61.7590 C   0  0  0  0  0  0  0  0  0  0  0  0
  128.2000  129.6990   63.5510 C   0  0  0  0  0  0  0  0  0  0  0  0
  127.0210  129.6750   64.3090 C   0  0  0  0  0  0  0  0  0  0  0  0
  127.0290  128.9000   65.5850 C   0  0  0  0  0  0  0  0  0  0  0  0
  126.0110  127.9800   65.8550 C   0  0  0  0  0  0  0  0  0  0  0  0
  126.0200  127.2410   67.0360 C   0  0  0  0  0  0  0  0  0  0  0  0
  127.0470  127.4020   67.9640 C   0  0  0  0  0  0  0  0  0  0  0  0
  126.9740  126.6260   69.1040 O   0  0  0  0  0  0  0  0  0  0  0  0
  127.1310  127.2450   70.3760 C   0  0  0  0  0  0  0  0  0  0  0  0
  128.0740  128.3200   67.6950 C   0  0  0  0  0  0  0  0  0  0  0  0
  128.0620  129.0570   66.5140 C   0  0  0  0  0  0  0  0  0  0  0  0
  125.8970  130.3930   63.8290 C   0  0  0  0  0  0  0  0  0  0  0  0
  124.6250  130.3870   64.5570 C   0  0  0  0  0  0  0  0  0  0  0  0
  123.6210  130.3840   65.1340 N   0  0  0  0  0  0  0  0  0  0  0  0
  128.3960  132.7590   59.0920 C   0  0  0  0  0  0  0  0  0  0  0  0
  129.5120  133.0100   58.2970 C   0  0  0  0  0  0  0  0  0  0  0  0
  1  2  1  0
  2  3  1  0
  3  4  2  0
  3  5  1  0
  5  6  2  0
  6  7  1  0
  7  8  2  0
  8  9  1  0
  9 10  1  0
 10 11  2  0
 10 12  1  0
 12 13  1  0
 13 14  1  0
 14 15  2  0
 15 16  1  0
 16 17  1  0
 17 18  2  0
 18 19  1  0
 19 20  2  0
 20 21  1  0
 20 22  1  0
 22 23  2  0
 16 24  2  0
 24 25  1  0
 25 26  1  0
 26 27  2  0
 27 28  1  0
 28 29  2  0
 29 30  1  0
 30 31  1  0
 29 32  1  0
 32 33  2  0
 25 34  2  0
 34 35  1  0
 35 36  3  0
  8 37  1  0
 37 38  2  0
 38  5  1  0
 34 14  1  0
 23 17  1  0
 33 26  1  0
M  END
>  <Binding energies>  (53) 
[-8.8]

>  <Ligand effiencies>  (53) 
[-0.22564102564102567]

>  <Interactions>  (53) 
["V-A:TYR:539:CE2:4871, V-A:PRO:540:CA:4878, V-A:TYR:539:CE1:4870, V-A:TYR:539:CZ:4872, V-A:ILE:538:CA:4855, V-A:PRO:540:CB:4880, V-A:ILE:538:CD1:4860, V-A:TYR:539:CD2:4869, V-A:GLU:543:CD:4903, H-A:TYR:539:OH:4873, V-A:PRO:540:N:4879, V-B:GLU:543:CD:9876, V-A:TYR:539:C:4862, V-A:PRO:540:CD:4882, H-B:GLY:454:N:9017, V-A:TYR:539:CG:4867, V-B:GLU:543:CB:9874, V-B:HIS:456:CE1:9037, V-B:GLU:543:CG:9875, V-A:LEU:363:CA:3180, H-A:TYR:539:N:4865, V-A:TYR:539:CD1:4868, V-B:HIS:456:CD2:9035, V-B:GLY:544:C:9880, V-B:GLU:543:C:9870, H-B:TYR:484:OH:9315, V-B:ARG:545:CZ:9894, V-B:ARG:545:CD:9891, V-B:ARG:545:CG:9890, V-A:VAL:537:C:4845"]

$$$$
RR7_Rahimova_2017
     RDKit          3D

 47 53  0  0  0  0  0  0  0  0999 V2000
  126.3990  134.8880   60.9950 C   0  0  0  0  0  0  0  0  0  0  0  0
  126.0650  133.5850   60.5260 O   0  0  0  0  0  0  0  0  0  0  0  0
  127.0350  132.8250   59.9020 C   0  0  0  0  0  0  0  0  0  0  0  0
  128.3310  133.3380   59.9120 C   0  0  0  0  0  0  0  0  0  0  0  0
  129.3750  132.6410   59.3140 C   0  0  0  0  0  0  0  0  0  0  0  0
  129.1450  131.4120   58.6770 C   0  0  0  0  0  0  0  0  0  0  0  0
  130.3020  130.5930   58.0270 C   0  0  0  0  0  0  0  0  0  0  0  0
  129.7890  129.2570   57.8210 O   0  0  0  0  0  0  0  0  0  0  0  0
  129.5890  128.3860   58.9390 C   0  0  0  0  0  0  0  0  0  0  0  0
  130.8760  127.5810   59.1830 C   0  0  1  0  0  0  0  0  0  0  0  0
  131.1490  127.6540   60.5800 O   0  0  0  0  0  0  0  0  0  0  0  0
  131.1930  126.3870   61.1710 C   0  0  1  0  0  0  0  0  0  0  0  0
  130.7030  126.4550   62.5350 N   0  0  0  0  0  0  0  0  0  0  0  0
  129.5380  127.0440   62.9930 C   0  0  0  0  0  0  0  0  0  0  0  0
  129.3600  127.0000   64.2910 N   0  0  0  0  0  0  0  0  0  0  0  0
  130.4910  126.3850   64.7550 C   0  0  0  0  0  0  0  0  0  0  0  0
  130.9180  126.0530   66.0550 C   0  0  0  0  0  0  0  0  0  0  0  0
  130.0790  126.3650   67.1410 N   0  0  0  0  0  0  0  0  0  0  0  0
  130.2230  127.3290   68.0800 C   0  0  0  0  0  0  0  0  0  0  0  0
  131.1770  128.1100   68.1340 O   0  0  0  0  0  0  0  0  0  0  0  0
  129.1320  127.3920   69.1280 C   0  0  0  0  0  0  0  0  0  0  0  0
  127.8370  126.9560   68.8080 C   0  0  0  0  0  0  0  0  0  0  0  0
  126.8200  127.0000   69.7580 C   0  0  0  0  0  0  0  0  0  0  0  0
  127.0900  127.4760   71.0370 C   0  0  0  0  0  0  0  0  0  0  0  0
  128.3690  127.9080   71.3760 C   0  0  0  0  0  0  0  0  0  0  0  0
  129.3870  127.8660   70.4260 C   0  0  0  0  0  0  0  0  0  0  0  0
  132.1300  125.4440   66.2250 N   0  0  0  0  0  0  0  0  0  0  0  0
  132.8720  125.1880   65.1160 C   0  0  0  0  0  0  0  0  0  0  0  0
  132.5570  125.4610   63.8220 N   0  0  0  0  0  0  0  0  0  0  0  0
  131.3620  126.0500   63.6860 C   0  0  0  0  0  0  0  0  0  0  0  0
  130.3900  125.4830   60.2430 C   0  0  0  0  0  0  0  0  0  0  0  0
  130.7660  126.0770   58.8960 C   0  0  2  0  0  0  0  0  0  0  0  0
  131.9740  125.5320   58.3930 O   0  0  0  0  0  0  0  0  0  0  0  0
  130.7050  131.1430   56.6330 C   0  0  0  0  0  0  0  0  0  0  0  0
  130.8320  130.2730   55.5370 C   0  0  0  0  0  0  0  0  0  0  0  0
  131.2060  130.7540   54.2870 C   0  0  0  0  0  0  0  0  0  0  0  0
  131.4580  132.1110   54.1170 C   0  0  0  0  0  0  0  0  0  0  0  0
  131.3380  132.9920   55.1880 C   0  0  0  0  0  0  0  0  0  0  0  0
  130.9650  132.5100   56.4400 C   0  0  0  0  0  0  0  0  0  0  0  0
  131.6230  130.5200   58.8440 C   0  0  0  0  0  0  0  0  0  0  0  0
  131.6240  130.8020   60.2200 C   0  0  0  0  0  0  0  0  0  0  0  0
  132.8020  130.7500   60.9580 C   0  0  0  0  0  0  0  0  0  0  0  0
  133.9980  130.4230   60.3250 C   0  0  0  0  0  0  0  0  0  0  0  0
  134.0230  130.1530   58.9600 C   0  0  0  0  0  0  0  0  0  0  0  0
  132.8430  130.2060   58.2240 C   0  0  0  0  0  0  0  0  0  0  0  0
  127.8420  130.8930   58.6830 C   0  0  0  0  0  0  0  0  0  0  0  0
  126.7970  131.5900   59.2820 C   0  0  0  0  0  0  0  0  0  0  0  0
  1  2  1  0
  2  3  1  0
  3  4  2  0
  4  5  1  0
  5  6  2  0
  6  7  1  0
  7  8  1  0
  8  9  1  0
 10  9  1  1
 10 11  1  0
 11 12  1  0
 12 13  1  1
 13 14  1  0
 14 15  2  0
 15 16  1  0
 16 17  2  0
 17 18  1  0
 18 19  1  0
 19 20  2  0
 19 21  1  0
 21 22  2  0
 22 23  1  0
 23 24  2  0
 24 25  1  0
 25 26  2  0
 17 27  1  0
 27 28  2  0
 28 29  1  0
 29 30  2  0
 12 31  1  0
 31 32  1  0
 32 33  1  1
  7 34  1  0
 34 35  2  0
 35 36  1  0
 36 37  2  0
 37 38  1  0
 38 39  2  0
  7 40  1  0
 40 41  2  0
 41 42  1  0
 42 43  2  0
 43 44  1  0
 44 45  2  0
  6 46  1  0
 46 47  2  0
 47  3  1  0
 32 10  1  0
 39 34  1  0
 45 40  1  0
 30 13  1  0
 30 16  1  0
 26 21  1  0
M  END
>  <Binding energies>  (54) 
[-10.21]

>  <Ligand effiencies>  (54) 
[-0.20836734693877554]

>  <Interactions>  (54) 
["V-A:TYR:539:CE2:4871, V-A:PRO:540:CA:4878, V-A:ILE:538:CG2:4858, V-A:ASP:366:CG:3208, V-A:ILE:538:C:4853, H-A:TYR:531:OH:4790, V-A:TYR:539:CZ:4872, V-B:LEU:475:CD2:9226, V-A:ILE:538:CA:4855, V-A:PRO:540:CB:4880, V-A:ARG:545:CZ:4921, V-A:ILE:538:CD1:4860, V-A:TYR:539:CD2:4869, V-A:ILE:538:CB:4857, V-A:GLU:543:CD:4903, H-A:TYR:484:OH:4343, V-A:PRO:540:N:4879, V-A:TYR:531:CZ:4789, V-A:TYR:539:C:4862, V-A:ASP:366:CB:3207, V-A:PRO:540:CD:4882, V-A:TYR:531:CE2:4788, V-B:GLU:543:CB:9874, V-B:HIS:456:CE1:9037, V-B:TRP:381:CH2:8339, V-A:LEU:363:CA:3180, V-A:LEU:363:CB:3182, V-B:HIS:456:CD2:9035, V-A:HIS:456:CE1:4064, V-B:GLY:544:C:9880, V-B:GLU:543:C:9870, H-A:ARG:545:NH2:4923, V-A:ASN:362:C:3167, V-A:ASN:362:CB:3171, H-A:HIS:456:NE2:4065, V-B:HIS:456:CG:9033"]

$$$$
RR8_A_Rahimova_2017
     RDKit          3D

 42 46  0  0  0  0  0  0  0  0999 V2000
  124.9830  130.2870   57.1270 O   0  0  0  0  0  0  0  0  0  0  0  0
  125.5490  129.8790   58.1470 C   0  0  0  0  0  0  0  0  0  0  0  0
  126.7250  129.1770   58.1500 O   0  0  0  0  0  0  0  0  0  0  0  0
  127.8950  129.8720   57.8180 C   0  0  1  0  0  0  0  0  0  0  0  0
  127.6120  131.0910   57.1950 O   0  0  0  0  0  0  0  0  0  0  0  0
  128.5110  132.1170   57.6060 C   0  0  2  0  0  0  0  0  0  0  0  0
  129.1770  132.7170   56.3560 C   0  0  0  0  0  0  0  0  0  0  0  0
  130.3940  133.3420   56.7390 O   0  0  0  0  0  0  0  0  0  0  0  0
  131.5590  132.6380   56.3280 C   0  0  0  0  0  0  0  0  0  0  0  0
  131.2270  131.7320   55.1520 C   0  0  0  0  0  0  0  0  0  0  0  0
  130.9650  132.2880   53.8970 C   0  0  0  0  0  0  0  0  0  0  0  0
  130.6670  131.4600   52.8170 C   0  0  0  0  0  0  0  0  0  0  0  0
  130.6350  130.0790   52.9940 C   0  0  0  0  0  0  0  0  0  0  0  0
  130.9000  129.5160   54.2410 C   0  0  0  0  0  0  0  0  0  0  0  0
  131.1990  130.3430   55.3200 C   0  0  0  0  0  0  0  0  0  0  0  0
  129.4580  131.4040   58.5810 C   0  0  1  0  0  0  0  0  0  0  0  0
  129.8180  132.2080   59.7030 O   0  0  0  0  0  0  0  0  0  0  0  0
  129.0160  132.0380   60.8650 C   0  0  0  0  0  0  0  0  0  0  0  0
  127.9540  133.1280   60.9280 C   0  0  0  0  0  0  0  0  0  0  0  0
  126.6310  132.8270   60.5890 C   0  0  0  0  0  0  0  0  0  0  0  0
  125.6580  133.8200   60.6350 C   0  0  0  0  0  0  0  0  0  0  0  0
  126.0080  135.1150   61.0160 C   0  0  0  0  0  0  0  0  0  0  0  0
  127.3250  135.4240   61.3480 C   0  0  0  0  0  0  0  0  0  0  0  0
  128.3000  134.4310   61.3010 C   0  0  0  0  0  0  0  0  0  0  0  0
  128.6200  130.2510   59.1020 C   0  0  2  0  0  0  0  0  0  0  0  0
  129.4550  129.2160   59.6160 O   0  0  0  0  0  0  0  0  0  0  0  0
  130.5770  128.8720   58.8100 C   0  0  0  0  0  0  0  0  0  0  0  0
  131.7960  129.6680   59.2520 C   0  0  0  0  0  0  0  0  0  0  0  0
  131.9880  129.9670   60.6050 C   0  0  0  0  0  0  0  0  0  0  0  0
  133.1110  130.6870   61.0050 C   0  0  0  0  0  0  0  0  0  0  0  0
  134.0390  131.1040   60.0540 C   0  0  0  0  0  0  0  0  0  0  0  0
  133.8570  130.8060   58.7060 C   0  0  0  0  0  0  0  0  0  0  0  0
  132.7350  130.0850   58.3040 C   0  0  0  0  0  0  0  0  0  0  0  0
  125.0130  130.1170   59.5290 C   0  0  0  0  0  0  0  0  0  0  0  0
  123.9010  130.9410   59.7620 C   0  0  0  0  0  0  0  0  0  0  0  0
  123.4290  131.1430   61.0560 C   0  0  0  0  0  0  0  0  0  0  0  0
  124.0550  130.5290   62.1490 C   0  0  0  0  0  0  0  0  0  0  0  0
  123.5500  130.7440   63.5260 N   0  0  0  0  0  0  0  0  0  0  0  0
  122.6910  129.9840   63.9630 O   0  0  0  0  0  0  0  0  0  0  0  0
  124.0090  131.6740   64.1830 O   0  0  0  0  0  0  0  0  0  0  0  0
  125.1660  129.7090   61.9150 C   0  0  0  0  0  0  0  0  0  0  0  0
  125.6400  129.5060   60.6230 C   0  0  0  0  0  0  0  0  0  0  0  0
  1  2  2  0
  2  3  1  0
  4  3  1  1
  4  5  1  0
  5  6  1  0
  6  7  1  6
  7  8  1  0
  8  9  1  0
  9 10  1  0
 10 11  2  0
 11 12  1  0
 12 13  2  0
 13 14  1  0
 14 15  2  0
  6 16  1  0
 16 17  1  1
 17 18  1  0
 18 19  1  0
 19 20  2  0
 20 21  1  0
 21 22  2  0
 22 23  1  0
 23 24  2  0
 16 25  1  0
 25 26  1  6
 26 27  1  0
 27 28  1  0
 28 29  2  0
 29 30  1  0
 30 31  2  0
 31 32  1  0
 32 33  2  0
  2 34  1  0
 34 35  2  0
 35 36  1  0
 36 37  2  0
 37 38  1  0
 38 39  2  0
 38 40  1  0
 37 41  1  0
 41 42  2  0
 25  4  1  0
 33 28  1  0
 42 34  1  0
 15 10  1  0
 24 19  1  0
M  CHG  2  38   1  40  -1
M  END
>  <Binding energies>  (55) 
[-10.45]

>  <Ligand effiencies>  (55) 
[-0.24880952380952379]

>  <Interactions>  (55) 
["V-A:TYR:539:CE2:4871, V-A:PRO:540:CA:4878, V-A:MET:535:CG:4828, V-A:TYR:539:CE1:4870, V-A:TYR:539:CZ:4872, V-B:LEU:475:CD2:9226, V-A:ILE:538:CA:4855, V-A:PRO:540:CB:4880, H-B:TYR:531:OH:9763, V-A:ALA:541:CB:4887, V-A:ILE:538:CD1:4860, V-A:LEU:363:CD1:3184, V-A:TYR:539:CD2:4869, H-A:TYR:539:OH:4873, V-A:PRO:540:CG:4881, V-A:PRO:540:N:4879, V-A:TYR:531:CZ:4789, V-A:TYR:539:C:4862, V-A:PRO:540:CD:4882, V-A:TYR:531:CE1:4787, V-A:TYR:531:CE2:4788, H-B:GLY:454:N:9017, V-A:TYR:539:CG:4867, V-B:ILE:369:CD1:8206, V-B:ASP:366:CB:8179, H-B:ARG:545:NH1:9895, V-B:TRP:381:CH2:8339, V-B:ASP:366:CG:8180, V-B:ASP:366:CA:8177, V-A:MET:535:CB:4827, V-A:LEU:363:CA:3180, H-A:TYR:539:N:4865, V-A:LEU:363:CB:3182, V-A:TYR:539:CD1:4868, V-A:ASN:362:C:3167, V-A:ASN:362:CB:3171, V-A:PRO:540:C:4876, H-B:TYR:484:OH:9315, V-B:GLY:453:CA:9011"]

$$$$
RR8_B_Rahimova_2017
     RDKit          3D

 42 46  0  0  0  0  0  0  0  0999 V2000
  126.9240  135.3310   61.2600 O   0  0  0  0  0  0  0  0  0  0  0  0
  126.8040  134.1120   61.0980 C   0  0  0  0  0  0  0  0  0  0  0  0
  127.3620  133.4120   60.0640 O   0  0  0  0  0  0  0  0  0  0  0  0
  128.6760  132.9340   60.2180 C   0  0  2  0  0  0  0  0  0  0  0  0
  129.5020  133.3310   59.1600 O   0  0  0  0  0  0  0  0  0  0  0  0
  129.5150  132.3600   58.1150 C   0  0  2  0  0  0  0  0  0  0  0  0
  129.0470  133.0120   56.8020 C   0  0  0  0  0  0  0  0  0  0  0  0
  130.1830  133.3350   56.0090 O   0  0  0  0  0  0  0  0  0  0  0  0
  129.9930  133.1990   54.6090 C   0  0  0  0  0  0  0  0  0  0  0  0
  130.9250  132.1210   54.0790 C   0  0  0  0  0  0  0  0  0  0  0  0
  132.2650  132.1040   54.4780 C   0  0  0  0  0  0  0  0  0  0  0  0
  133.1300  131.1340   53.9780 C   0  0  0  0  0  0  0  0  0  0  0  0
  132.6510  130.1820   53.0800 C   0  0  0  0  0  0  0  0  0  0  0  0
  131.3160  130.1880   52.6830 C   0  0  0  0  0  0  0  0  0  0  0  0
  130.4510  131.1600   53.1800 C   0  0  0  0  0  0  0  0  0  0  0  0
  128.6290  131.2250   58.6400 C   0  0  1  0  0  0  0  0  0  0  0  0
  129.1460  129.9640   58.2050 O   0  0  0  0  0  0  0  0  0  0  0  0
  130.3540  129.9850   57.4420 C   0  0  0  0  0  0  0  0  0  0  0  0
  131.5800  130.2590   58.3070 C   0  0  0  0  0  0  0  0  0  0  0  0
  131.5640  129.9350   59.6670 C   0  0  0  0  0  0  0  0  0  0  0  0
  132.6960  130.1560   60.4480 C   0  0  0  0  0  0  0  0  0  0  0  0
  133.8380  130.7030   59.8670 C   0  0  0  0  0  0  0  0  0  0  0  0
  133.8600  131.0330   58.5130 C   0  0  0  0  0  0  0  0  0  0  0  0
  132.7280  130.8080   57.7310 C   0  0  0  0  0  0  0  0  0  0  0  0
  128.6740  131.4080   60.1530 C   0  0  2  0  0  0  0  0  0  0  0  0
  127.5320  130.8080   60.7600 O   0  0  0  0  0  0  0  0  0  0  0  0
  127.0360  129.6430   60.1190 C   0  0  0  0  0  0  0  0  0  0  0  0
  125.7630  130.0130   59.3790 C   0  0  0  0  0  0  0  0  0  0  0  0
  125.5790  129.6240   58.0500 C   0  0  0  0  0  0  0  0  0  0  0  0
  124.4160  129.9860   57.3760 C   0  0  0  0  0  0  0  0  0  0  0  0
  123.4410  130.7340   58.0320 C   0  0  0  0  0  0  0  0  0  0  0  0
  123.6170  131.1240   59.3580 C   0  0  0  0  0  0  0  0  0  0  0  0
  124.7790  130.7630   60.0330 C   0  0  0  0  0  0  0  0  0  0  0  0
  125.9900  133.2390   62.0090 C   0  0  0  0  0  0  0  0  0  0  0  0
  126.5900  132.3240   62.8870 C   0  0  0  0  0  0  0  0  0  0  0  0
  125.8100  131.5220   63.7120 C   0  0  0  0  0  0  0  0  0  0  0  0
  124.4130  131.6050   63.6760 C   0  0  0  0  0  0  0  0  0  0  0  0
  123.5820  130.7290   64.5390 N   0  0  0  0  0  0  0  0  0  0  0  0
  123.7710  130.7500   65.7520 O   0  0  0  0  0  0  0  0  0  0  0  0
  122.7320  130.0180   64.0100 O   0  0  0  0  0  0  0  0  0  0  0  0
  123.8140  132.5240   62.8030 C   0  0  0  0  0  0  0  0  0  0  0  0
  124.5930  133.3320   61.9820 C   0  0  0  0  0  0  0  0  0  0  0  0
  1  2  2  0
  2  3  1  0
  4  3  1  6
  4  5  1  0
  5  6  1  0
  6  7  1  6
  7  8  1  0
  8  9  1  0
  9 10  1  0
 10 11  2  0
 11 12  1  0
 12 13  2  0
 13 14  1  0
 14 15  2  0
  6 16  1  0
 16 17  1  1
 17 18  1  0
 18 19  1  0
 19 20  2  0
 20 21  1  0
 21 22  2  0
 22 23  1  0
 23 24  2  0
 16 25  1  0
 25 26  1  1
 26 27  1  0
 27 28  1  0
 28 29  2  0
 29 30  1  0
 30 31  2  0
 31 32  1  0
 32 33  2  0
  2 34  1  0
 34 35  2  0
 35 36  1  0
 36 37  2  0
 37 38  1  0
 38 39  2  0
 38 40  1  0
 37 41  1  0
 41 42  2  0
 25  4  1  0
 33 28  1  0
 42 34  1  0
 15 10  1  0
 24 19  1  0
M  CHG  2  38   1  40  -1
M  END
>  <Binding energies>  (56) 
[-10.53]

>  <Ligand effiencies>  (56) 
[-0.2507142857142857]

>  <Interactions>  (56) 
["V-A:TYR:539:CE2:4871, V-A:PRO:540:CA:4878, V-A:ILE:538:CG2:4858, V-A:MET:535:CG:4828, V-A:ILE:538:C:4853, V-A:TYR:539:CE1:4870, V-A:TYR:539:CZ:4872, V-B:LEU:475:CD2:9226, V-A:ILE:538:CA:4855, V-A:PRO:540:CB:4880, V-A:ILE:538:CD1:4860, V-A:LEU:363:CD1:3184, V-A:TYR:539:CD2:4869, V-A:PRO:540:N:4879, V-A:TYR:531:CZ:4789, V-A:TYR:539:C:4862, V-A:TYR:531:CE1:4787, V-A:TYR:531:CE2:4788, H-B:GLY:454:N:9017, V-A:TYR:539:CG:4867, V-B:ILE:369:CD1:8206, V-B:ASP:366:CB:8179, H-B:ARG:545:NH1:9895, V-B:ASP:366:CG:8180, V-B:ASP:366:CA:8177, V-A:MET:535:CB:4827, V-A:LEU:363:CA:3180, V-A:TYR:531:CD2:4786, H-A:TYR:539:N:4865, V-A:LEU:363:CB:3182, V-A:TYR:539:CA:4864, V-A:TYR:531:CG:4784, V-A:TYR:531:C:4779, V-A:TYR:539:CD1:4868, V-A:ASN:362:C:3167, V-A:ASN:362:CB:3171, V-B:ILE:369:CB:8203, H-B:TYR:484:OH:9315, V-A:TYR:531:CD1:4785, V-B:TYR:531:CE1:9760, V-B:ASP:366:C:8175, V-A:VAL:537:C:4845, V-B:GLY:454:CA:9016, V-B:GLY:453:CA:9011, V-B:GLY:453:C:9009"]

$$$$
RR9_Rahimova_2017
     RDKit          3D

 36 40  0  0  0  0  0  0  0  0999 V2000
  123.7050  130.8910   66.6020 C   0  0  0  0  0  0  0  0  0  0  0  0
  123.6560  129.7120   65.6260 C   0  0  0  0  0  0  0  0  0  0  0  0
  123.0040  130.1330   64.4310 O   0  0  0  0  0  0  0  0  0  0  0  0
  123.7570  130.3990   63.3050 C   0  0  0  0  0  0  0  0  0  0  0  0
  125.0490  129.8770   63.2810 C   0  0  0  0  0  0  0  0  0  0  0  0
  125.8820  130.0950   62.1880 C   0  0  0  0  0  0  0  0  0  0  0  0
  125.4460  130.8430   61.0850 C   0  0  0  0  0  0  0  0  0  0  0  0
  126.3410  131.0860   59.9060 C   0  0  0  0  0  0  0  0  0  0  0  0
  126.3870  130.1960   58.8220 C   0  0  0  0  0  0  0  0  0  0  0  0
  127.2190  130.4340   57.7130 C   0  0  0  0  0  0  0  0  0  0  0  0
  127.1480  129.4970   56.5380 C   0  0  0  0  0  0  0  0  0  0  0  0
  126.6350  129.8620   55.4800 O   0  0  0  0  0  0  0  0  0  0  0  0
  127.6510  128.2630   56.7420 N   0  0  0  0  0  0  0  0  0  0  0  0
  127.5810  127.1400   55.8020 C   0  0  0  0  0  0  0  0  0  0  0  0
  128.2830  125.8660   56.3270 C   0  0  0  0  0  0  0  0  0  0  0  0
  127.3520  124.6860   56.5830 C   0  0  0  0  0  0  0  0  0  0  0  0
  127.8380  123.3770   56.4970 C   0  0  0  0  0  0  0  0  0  0  0  0
  126.9940  122.3030   56.7660 C   0  0  0  0  0  0  0  0  0  0  0  0
  125.6660  122.5400   57.1150 C   0  0  0  0  0  0  0  0  0  0  0  0
  125.1740  123.8410   57.1980 C   0  0  0  0  0  0  0  0  0  0  0  0
  126.0180  124.9160   56.9300 C   0  0  0  0  0  0  0  0  0  0  0  0
  128.0250  131.5980   57.7720 C   0  0  0  0  0  0  0  0  0  0  0  0
  129.0270  132.2670   56.9770 C   0  0  0  0  0  0  0  0  0  0  0  0
  129.6650  131.8380   55.6970 C   0  0  0  0  0  0  0  0  0  0  0  0
  130.4930  130.7110   55.6660 C   0  0  0  0  0  0  0  0  0  0  0  0
  131.0990  130.3220   54.4750 C   0  0  0  0  0  0  0  0  0  0  0  0
  130.8770  131.0560   53.3080 C   0  0  0  0  0  0  0  0  0  0  0  0
  131.5520  130.6430   52.0130 C   0  0  0  0  0  0  0  0  0  0  0  0
  130.0530  132.1820   53.3350 C   0  0  0  0  0  0  0  0  0  0  0  0
  129.4450  132.5680   54.5270 C   0  0  0  0  0  0  0  0  0  0  0  0
  129.3900  133.3950   57.5460 N   0  0  0  0  0  0  0  0  0  0  0  0
  128.7310  133.5010   58.7110 N   0  0  0  0  0  0  0  0  0  0  0  0
  127.8930  132.4290   58.9100 C   0  0  0  0  0  0  0  0  0  0  0  0
  127.1000  132.2160   59.9600 N   0  0  0  0  0  0  0  0  0  0  0  0
  124.1450  131.3670   61.1170 C   0  0  0  0  0  0  0  0  0  0  0  0
  123.3090  131.1490   62.2090 C   0  0  0  0  0  0  0  0  0  0  0  0
  1  2  1  0
  2  3  1  0
  3  4  1  0
  4  5  2  0
  5  6  1  0
  6  7  2  0
  7  8  1  0
  8  9  2  0
  9 10  1  0
 10 11  1  0
 11 12  2  0
 11 13  1  0
 13 14  1  0
 14 15  1  0
 15 16  1  0
 16 17  2  0
 17 18  1  0
 18 19  2  0
 19 20  1  0
 20 21  2  0
 10 22  2  0
 22 23  1  0
 23 24  1  0
 24 25  2  0
 25 26  1  0
 26 27  2  0
 27 28  1  0
 27 29  1  0
 29 30  2  0
 23 31  2  0
 31 32  1  0
 32 33  1  0
 33 34  2  0
  7 35  1  0
 35 36  2  0
 36  4  1  0
 34  8  1  0
 21 16  1  0
 33 22  1  0
 30 24  1  0
M  END
>  <Binding energies>  (57) 
[-9.92]

>  <Ligand effiencies>  (57) 
[-0.26105263157894737]

>  <Interactions>  (57) 
["V-A:TYR:539:CE2:4871, V-A:PRO:540:CA:4878, V-A:TYR:539:CE1:4870, V-B:LEU:363:CD1:8156, V-A:TYR:539:CZ:4872, V-A:ILE:538:CA:4855, H-B:TYR:531:OH:9763, V-A:ILE:538:CD1:4860, V-A:TYR:539:CD2:4869, H-A:TYR:539:OH:4873, V-B:PRO:540:CA:9851, V-B:MET:535:CE:9803, V-A:PRO:540:N:4879, V-A:TYR:531:CZ:4789, V-A:TYR:539:C:4862, V-B:PRO:540:N:9852, V-B:PRO:540:CB:9853, V-B:TYR:539:C:9835, H-B:GLY:454:N:9017, V-A:TYR:539:CG:4867, V-B:ILE:369:CD1:8206, V-B:HIS:456:CE1:9037, H-B:ARG:545:NH1:9895, V-A:MET:535:CB:4827, H-A:TYR:539:N:4865, V-A:TYR:539:CA:4864, H-A:TYR:539:O:4863, V-A:TYR:531:C:4779, V-A:TYR:539:CD1:4868, V-B:TYR:484:CZ:9314, V-B:PRO:540:CD:9855, V-B:ARG:545:CZ:9894, V-B:ARG:545:CD:9891, V-B:ARG:545:CG:9890, V-A:VAL:537:C:4845, V-B:GLY:454:CA:9016, V-B:TYR:539:CA:9837, V-B:TYR:484:CE2:9313, V-B:GLY:454:C:9014"]

$$$$
