1a_Grossjean_2025
     RDKit          3D

 26 27  0  0  0  0  0  0  0  0999 V2000
  125.5390  123.9980   59.9080 C   0  0  0  0  0  0  0  0  0  0  0  0
  125.5960  123.6580   58.4160 C   0  0  0  0  0  0  0  0  0  0  0  0
  126.8640  123.0940   58.1070 O   0  0  0  0  0  0  0  0  0  0  0  0
  127.2730  122.9540   56.8190 C   0  0  0  0  0  0  0  0  0  0  0  0
  127.0240  121.9590   56.1310 O   0  0  0  0  0  0  0  0  0  0  0  0
  128.0730  124.1230   56.3200 C   0  0  0  0  0  0  0  0  0  0  0  0
  127.4440  125.3650   56.1650 C   0  0  0  0  0  0  0  0  0  0  0  0
  128.1570  126.4670   55.7010 C   0  0  0  0  0  0  0  0  0  0  0  0
  129.5100  126.3500   55.3800 C   0  0  0  0  0  0  0  0  0  0  0  0
  130.1310  127.5270   54.9170 N   0  0  0  0  0  0  0  0  0  0  0  0
  130.0630  128.1270   53.7100 C   0  0  0  0  0  0  0  0  0  0  0  0
  129.4060  127.7280   52.7480 O   0  0  0  0  0  0  0  0  0  0  0  0
  130.8870  129.4090   53.5680 C   0  0  0  0  0  0  0  0  0  0  0  0
  129.8370  130.8850   53.4180 S   0  0  0  0  0  0  0  0  0  0  0  0
  128.9930  131.1010   54.9690 C   0  0  0  0  0  0  0  0  0  0  0  0
  127.8900  130.3230   55.1050 N   0  0  0  0  0  0  0  0  0  0  0  0
  127.1680  130.4110   56.2470 C   0  0  0  0  0  0  0  0  0  0  0  0
  125.9410  129.5220   56.3220 C   0  0  0  0  0  0  0  0  0  0  0  0
  127.5180  131.2610   57.2940 C   0  0  0  0  0  0  0  0  0  0  0  0
  128.6650  132.0520   57.1720 C   0  0  0  0  0  0  0  0  0  0  0  0
  129.0380  132.9650   58.3390 C   0  0  0  0  0  0  0  0  0  0  0  0
  129.4370  131.9750   55.9900 C   0  0  0  0  0  0  0  0  0  0  0  0
  130.6690  132.7570   55.8600 C   0  0  0  0  0  0  0  0  0  0  0  0
  131.6420  133.3760   55.7610 N   0  0  0  0  0  0  0  0  0  0  0  0
  130.1500  125.1120   55.5390 C   0  0  0  0  0  0  0  0  0  0  0  0
  129.4360  124.0110   56.0030 C   0  0  0  0  0  0  0  0  0  0  0  0
  1  2  1  0
  2  3  1  0
  3  4  1  0
  4  5  2  0
  4  6  1  0
  6  7  2  0
  7  8  1  0
  8  9  2  0
  9 10  1  0
 10 11  1  0
 11 12  2  0
 11 13  1  0
 13 14  1  0
 14 15  1  0
 15 16  2  0
 16 17  1  0
 17 18  1  0
 17 19  2  0
 19 20  1  0
 20 21  1  0
 20 22  2  0
 22 23  1  0
 23 24  3  0
  9 25  1  0
 25 26  2  0
 26  6  1  0
 22 15  1  0
M  END
>  <Binding energies>  (1) 
[-7.9]

>  <Ligand effiencies>  (1) 
[-0.2925925925925926]

>  <Interactions>  (1) 
["V-A:TYR:539:CE2:4871, V-A:PRO:540:CA:4878, V-A:MET:535:CG:4828, H-A:TYR:531:OH:4790, V-A:TYR:539:CE1:4870, V-A:TYR:539:CZ:4872, V-A:TYR:539:CD2:4869, V-B:PRO:540:CA:9851, V-B:MET:535:CE:9803, V-A:PRO:540:N:4879, V-A:TYR:531:CZ:4789, H-B:TYR:539:N:9838, V-A:TYR:539:C:4862, V-B:PRO:540:N:9852, V-A:PRO:540:CD:4882, V-B:PRO:540:CB:9853, V-B:TYR:539:CZ:9845, V-A:TYR:531:CE1:4787, V-B:TYR:539:C:9835, V-A:TYR:539:CG:4867, V-B:TYR:531:CZ:9762, H-A:TYR:539:N:4865, V-A:TYR:539:CD1:4868, V-B:TYR:539:CE1:9843, V-A:TYR:531:CD1:4785, V-B:TYR:531:CE1:9760"]

$$$$
1aa_Ghoteimi_2023
     RDKit          3D

 40 43  0  0  0  0  0  0  0  0999 V2000
  133.4840  124.0970   56.9650 C   0  0  0  0  0  0  0  0  0  0  0  0
  132.7140  123.4300   58.1090 C   0  0  0  0  0  0  0  0  0  0  0  0
  133.3590  122.2140   58.4680 O   0  0  0  0  0  0  0  0  0  0  0  0
  132.9170  121.4690   59.5130 C   0  0  0  0  0  0  0  0  0  0  0  0
  132.7470  120.2470   59.4540 O   0  0  0  0  0  0  0  0  0  0  0  0
  132.6540  122.2780   60.7510 C   0  0  0  0  0  0  0  0  0  0  0  0
  131.3600  122.4400   61.2700 C   0  0  0  0  0  0  0  0  0  0  0  0
  131.1470  123.1960   62.4210 C   0  0  0  0  0  0  0  0  0  0  0  0
  132.2290  123.8030   63.0750 C   0  0  0  0  0  0  0  0  0  0  0  0
  132.1340  124.5880   64.2390 N   0  0  0  0  0  0  0  0  0  0  0  0
  133.1020  125.1480   65.0000 C   0  0  0  0  0  0  0  0  0  0  0  0
  134.3100  125.0610   64.7780 O   0  0  0  0  0  0  0  0  0  0  0  0
  132.6540  125.9530   66.2300 C   0  0  0  0  0  0  0  0  0  0  0  0
  131.3360  125.5600   66.6340 O   0  0  0  0  0  0  0  0  0  0  0  0
  130.3770  126.5180   66.9300 C   0  0  0  0  0  0  0  0  0  0  0  0
  130.2260  126.8940   68.2300 N   0  0  0  0  0  0  0  0  0  0  0  0
  129.2880  127.8190   68.5620 C   0  0  0  0  0  0  0  0  0  0  0  0
  129.1860  128.1800   70.0160 C   0  0  0  0  0  0  0  0  0  0  0  0
  130.2660  128.7690   70.6910 C   0  0  0  0  0  0  0  0  0  0  0  0
  130.1740  129.1030   72.0400 C   0  0  0  0  0  0  0  0  0  0  0  0
  129.0030  128.8610   72.7540 C   0  0  0  0  0  0  0  0  0  0  0  0
  129.0040  129.2240   74.0870 O   0  0  0  0  0  0  0  0  0  0  0  0
  128.1860  130.3080   74.5120 C   0  0  0  0  0  0  0  0  0  0  0  0
  127.9140  128.2780   72.0920 C   0  0  0  0  0  0  0  0  0  0  0  0
  128.0080  127.9460   70.7440 C   0  0  0  0  0  0  0  0  0  0  0  0
  128.4860  128.4070   67.5760 C   0  0  0  0  0  0  0  0  0  0  0  0
  128.6290  128.0470   66.2290 C   0  0  0  0  0  0  0  0  0  0  0  0
  127.7510  128.7180   65.2250 C   0  0  0  0  0  0  0  0  0  0  0  0
  126.4330  128.2860   65.0430 C   0  0  0  0  0  0  0  0  0  0  0  0
  125.6050  128.9130   64.1160 C   0  0  0  0  0  0  0  0  0  0  0  0
  126.0730  129.9850   63.3570 C   0  0  0  0  0  0  0  0  0  0  0  0
  125.1820  130.5440   62.4620 O   0  0  0  0  0  0  0  0  0  0  0  0
  123.7850  130.4160   62.7010 C   0  0  0  0  0  0  0  0  0  0  0  0
  127.3920  130.4260   63.5420 C   0  0  0  0  0  0  0  0  0  0  0  0
  128.2190  129.7980   64.4690 C   0  0  0  0  0  0  0  0  0  0  0  0
  129.5960  127.0680   65.9000 C   0  0  0  0  0  0  0  0  0  0  0  0
  129.7860  126.5970   64.5270 C   0  0  0  0  0  0  0  0  0  0  0  0
  129.9380  126.2230   63.4430 N   0  0  0  0  0  0  0  0  0  0  0  0
  133.5160  123.6450   62.5590 C   0  0  0  0  0  0  0  0  0  0  0  0
  133.7280  122.8900   61.4100 C   0  0  0  0  0  0  0  0  0  0  0  0
  1  2  1  0
  2  3  1  0
  3  4  1  0
  4  5  2  0
  4  6  1  0
  6  7  2  0
  7  8  1  0
  8  9  2  0
  9 10  1  0
 10 11  1  0
 11 12  2  0
 11 13  1  0
 13 14  1  0
 14 15  1  0
 15 16  2  0
 16 17  1  0
 17 18  1  0
 18 19  2  0
 19 20  1  0
 20 21  2  0
 21 22  1  0
 22 23  1  0
 21 24  1  0
 24 25  2  0
 17 26  2  0
 26 27  1  0
 27 28  1  0
 28 29  2  0
 29 30  1  0
 30 31  2  0
 31 32  1  0
 32 33  1  0
 31 34  1  0
 34 35  2  0
 27 36  2  0
 36 37  1  0
 37 38  3  0
  9 39  1  0
 39 40  2  0
 40  6  1  0
 36 15  1  0
 25 18  1  0
 35 28  1  0
M  END
>  <Binding energies>  (2) 
[-8.7]

>  <Ligand effiencies>  (2) 
[-0.2121951219512195]

>  <Interactions>  (2) 
["V-A:ILE:369:CD1:3234, V-A:ARG:545:CZ:4921, H-A:GLY:454:N:4045, V-A:GLU:543:CD:4903, H-A:TYR:484:OH:4343, V-A:TYR:531:CZ:4789, V-B:GLU:543:CD:9876, V-A:ASP:366:CB:3207, V-B:TYR:539:CE2:9844, V-A:ILE:369:CG2:3232, V-B:TYR:539:CD2:9842, V-B:TYR:539:CZ:9845, V-A:TYR:531:CE1:4787, V-A:GLU:543:CG:4902, V-B:HIS:456:CE1:9037, V-B:HIS:456:CD2:9035, H-B:LYS:547:NZ:9919, V-A:HIS:456:CE1:4064, V-A:GLY:544:C:4907, V-A:ASP:366:CA:3205, V-A:ASP:366:C:3203, H-A:HIS:456:NE2:4065, V-A:GLU:543:C:4897, V-A:LYS:547:CE:4945, H-A:LYS:547:NZ:4946, V-A:ARG:545:CD:4918, V-A:ARG:545:CG:4917, H-A:ARG:545:NE:4919, H-A:ARG:545:NH1:4922, V-B:ARG:545:CZ:9894"]

$$$$
1b_Grossjean_2025
     RDKit          3D

 25 26  0  0  0  0  0  0  0  0999 V2000
  127.0990  123.4650   59.1770 C   0  0  0  0  0  0  0  0  0  0  0  0
  127.6450  122.5800   58.2080 O   0  0  0  0  0  0  0  0  0  0  0  0
  127.4680  122.8040   56.8810 C   0  0  0  0  0  0  0  0  0  0  0  0
  126.7900  122.0730   56.1520 O   0  0  0  0  0  0  0  0  0  0  0  0
  128.1730  124.0350   56.3870 C   0  0  0  0  0  0  0  0  0  0  0  0
  127.5750  125.3030   56.4380 C   0  0  0  0  0  0  0  0  0  0  0  0
  128.2550  126.4240   55.9710 C   0  0  0  0  0  0  0  0  0  0  0  0
  129.5410  126.3040   55.4450 C   0  0  0  0  0  0  0  0  0  0  0  0
  130.1310  127.5030   55.0020 N   0  0  0  0  0  0  0  0  0  0  0  0
  130.1170  128.0810   53.7810 C   0  0  0  0  0  0  0  0  0  0  0  0
  129.5460  127.6360   52.7850 O   0  0  0  0  0  0  0  0  0  0  0  0
  130.8770  129.4030   53.6730 C   0  0  0  0  0  0  0  0  0  0  0  0
  129.7580  130.8260   53.4990 S   0  0  0  0  0  0  0  0  0  0  0  0
  128.9570  131.0660   55.0710 C   0  0  0  0  0  0  0  0  0  0  0  0
  127.8090  130.3570   55.2130 N   0  0  0  0  0  0  0  0  0  0  0  0
  127.1180  130.4650   56.3720 C   0  0  0  0  0  0  0  0  0  0  0  0
  125.8530  129.6330   56.4650 C   0  0  0  0  0  0  0  0  0  0  0  0
  127.5330  131.2820   57.4210 C   0  0  0  0  0  0  0  0  0  0  0  0
  128.7040  132.0330   57.2750 C   0  0  0  0  0  0  0  0  0  0  0  0
  129.1300  132.9350   58.4330 C   0  0  0  0  0  0  0  0  0  0  0  0
  129.4420  131.9380   56.0740 C   0  0  0  0  0  0  0  0  0  0  0  0
  130.6470  132.7480   55.8820 C   0  0  0  0  0  0  0  0  0  0  0  0
  131.5980  133.3890   55.7330 N   0  0  0  0  0  0  0  0  0  0  0  0
  130.1460  125.0390   55.3900 C   0  0  0  0  0  0  0  0  0  0  0  0
  129.4650  123.9190   55.8590 C   0  0  0  0  0  0  0  0  0  0  0  0
  1  2  1  0
  2  3  1  0
  3  4  2  0
  3  5  1  0
  5  6  2  0
  6  7  1  0
  7  8  2  0
  8  9  1  0
  9 10  1  0
 10 11  2  0
 10 12  1  0
 12 13  1  0
 13 14  1  0
 14 15  2  0
 15 16  1  0
 16 17  1  0
 16 18  2  0
 18 19  1  0
 19 20  1  0
 19 21  2  0
 21 22  1  0
 22 23  3  0
  8 24  1  0
 24 25  2  0
 25  5  1  0
 21 14  1  0
M  END
>  <Binding energies>  (3) 
[-7.79]

>  <Ligand effiencies>  (3) 
[-0.2996153846153846]

>  <Interactions>  (3) 
["V-A:TYR:539:CE2:4871, V-A:PRO:540:CA:4878, V-A:MET:535:CG:4828, H-A:TYR:531:OH:4790, V-A:TYR:539:CE1:4870, V-A:TYR:539:CZ:4872, V-A:TYR:539:CD2:4869, V-B:PRO:540:CA:9851, V-B:MET:535:CE:9803, V-A:PRO:540:N:4879, V-A:TYR:531:CZ:4789, H-B:TYR:539:N:9838, V-A:TYR:539:C:4862, V-B:PRO:540:N:9852, V-A:PRO:540:CD:4882, V-B:TYR:539:CZ:9845, V-A:TYR:531:CE1:4787, V-B:TYR:539:C:9835, V-A:TYR:539:CG:4867, V-B:TYR:531:CZ:9762, H-A:TYR:539:N:4865, V-A:TYR:539:CD1:4868, V-B:TYR:539:CE1:9843, V-B:TYR:531:CE1:9760"]

$$$$
1c_Grossjean_2025
     RDKit          3D

 23 24  0  0  0  0  0  0  0  0999 V2000
  130.0270  132.6580   54.4390 C   0  0  0  0  0  0  0  0  0  0  0  0
  130.5770  133.3580   55.5500 O   0  0  0  0  0  0  0  0  0  0  0  0
  130.2860  132.9250   56.8300 C   0  0  0  0  0  0  0  0  0  0  0  0
  129.0800  133.3650   57.3760 C   0  0  0  0  0  0  0  0  0  0  0  0
  128.6980  132.9820   58.6590 C   0  0  0  0  0  0  0  0  0  0  0  0
  129.5260  132.1380   59.4140 C   0  0  0  0  0  0  0  0  0  0  0  0
  129.2420  131.6990   60.7220 N   0  0  0  0  0  0  0  0  0  0  0  0
  129.9950  131.7880   61.8390 C   0  0  0  0  0  0  0  0  0  0  0  0
  131.1070  132.3110   61.9100 O   0  0  0  0  0  0  0  0  0  0  0  0
  129.3740  131.1830   63.0990 C   0  0  0  0  0  0  0  0  0  0  0  0
  128.3250  132.3790   63.9780 S   0  0  0  0  0  0  0  0  0  0  0  0
  127.3510  133.2620   62.7770 C   0  0  0  0  0  0  0  0  0  0  0  0
  127.7960  134.5230   62.5440 N   0  0  0  0  0  0  0  0  0  0  0  0
  127.1340  135.2930   61.6490 C   0  0  0  0  0  0  0  0  0  0  0  0
  127.6950  136.6860   61.4340 C   0  0  0  0  0  0  0  0  0  0  0  0
  126.0060  134.8470   60.9630 C   0  0  0  0  0  0  0  0  0  0  0  0
  125.5250  133.5580   61.2140 C   0  0  0  0  0  0  0  0  0  0  0  0
  124.2770  133.0980   60.4620 C   0  0  0  0  0  0  0  0  0  0  0  0
  126.1990  132.7370   62.1470 C   0  0  0  0  0  0  0  0  0  0  0  0
  125.6780  131.4040   62.4620 C   0  0  0  0  0  0  0  0  0  0  0  0
  125.2660  130.3520   62.7100 N   0  0  0  0  0  0  0  0  0  0  0  0
  130.7380  131.7040   58.8750 C   0  0  0  0  0  0  0  0  0  0  0  0
  131.1170  132.0900   57.5920 C   0  0  0  0  0  0  0  0  0  0  0  0
  1  2  1  0
  2  3  1  0
  3  4  2  0
  4  5  1  0
  5  6  2  0
  6  7  1  0
  7  8  1  0
  8  9  2  0
  8 10  1  0
 10 11  1  0
 11 12  1  0
 12 13  2  0
 13 14  1  0
 14 15  1  0
 14 16  2  0
 16 17  1  0
 17 18  1  0
 17 19  2  0
 19 20  1  0
 20 21  3  0
  6 22  1  0
 22 23  2  0
 23  3  1  0
 19 12  1  0
M  END
>  <Binding energies>  (4) 
[-7.05]

>  <Ligand effiencies>  (4) 
[-0.29375]

>  <Interactions>  (4) 
["V-B:PRO:482:CG:9294, V-A:TYR:539:CE2:4871, V-A:PRO:540:CA:4878, V-A:TYR:539:CE1:4870, V-B:PRO:482:CB:9293, V-A:TYR:539:CZ:4872, V-B:LEU:475:CD2:9226, V-A:ILE:538:CA:4855, V-A:PRO:540:CB:4880, H-A:ALA:541:N:4886, V-A:ALA:541:CB:4887, V-A:ILE:538:CD1:4860, V-B:LEU:475:CD1:9225, V-A:TYR:539:CD2:4869, V-A:GLU:543:CD:4903, V-A:PRO:540:N:4879, V-A:TYR:539:C:4862, V-A:PRO:540:CD:4882, V-B:ILE:369:CG2:8204, V-A:GLU:543:CG:4902, V-A:TYR:539:CG:4867, V-B:ILE:369:CD1:8206, V-B:TRP:381:CH2:8339, H-A:TYR:539:N:4865, V-A:TYR:539:CA:4864, V-A:TYR:539:CD1:4868, V-B:TRP:381:CZ2:8337, H-B:TYR:484:OH:9315, V-A:TYR:539:CB:4866"]

$$$$
1d_Grossjean_2025
     RDKit          3D

 21 22  0  0  0  0  0  0  0  0999 V2000
  127.2140  127.7650   54.6370 C   0  0  0  0  0  0  0  0  0  0  0  0
  127.8050  129.0860   55.0890 C   0  0  0  0  0  0  0  0  0  0  0  0
  127.4280  129.6820   56.2900 C   0  0  0  0  0  0  0  0  0  0  0  0
  128.0140  130.8970   56.6610 C   0  0  0  0  0  0  0  0  0  0  0  0
  127.5960  131.5220   57.9910 C   0  0  0  0  0  0  0  0  0  0  0  0
  128.9670  131.4940   55.8050 C   0  0  0  0  0  0  0  0  0  0  0  0
  129.6290  132.7410   56.1950 C   0  0  0  0  0  0  0  0  0  0  0  0
  130.1500  133.7260   56.5070 N   0  0  0  0  0  0  0  0  0  0  0  0
  129.2720  130.8310   54.5930 C   0  0  0  0  0  0  0  0  0  0  0  0
  130.4430  131.4390   53.4000 S   0  0  0  0  0  0  0  0  0  0  0  0
  132.1020  130.9770   53.9840 C   0  0  0  0  0  0  0  0  0  0  0  0
  132.3780  131.4880   55.3990 C   0  0  0  0  0  0  0  0  0  0  0  0
  132.6100  132.6850   55.5710 O   0  0  0  0  0  0  0  0  0  0  0  0
  132.3180  130.5540   56.3730 N   0  0  0  0  0  0  0  0  0  0  0  0
  132.5330  130.6800   57.7580 C   0  0  0  0  0  0  0  0  0  0  0  0
  131.4040  130.9870   58.5210 C   0  0  0  0  0  0  0  0  0  0  0  0
  131.5050  131.1290   59.9020 C   0  0  0  0  0  0  0  0  0  0  0  0
  132.7390  130.9550   60.5250 C   0  0  0  0  0  0  0  0  0  0  0  0
  133.8710  130.6400   59.7770 C   0  0  0  0  0  0  0  0  0  0  0  0
  133.7730  130.4990   58.3960 C   0  0  0  0  0  0  0  0  0  0  0  0
  128.7130  129.6420   54.2520 N   0  0  0  0  0  0  0  0  0  0  0  0
  1  2  1  0
  2  3  2  0
  3  4  1  0
  4  5  1  0
  4  6  2  0
  6  7  1  0
  7  8  3  0
  6  9  1  0
  9 10  1  0
 10 11  1  0
 11 12  1  0
 12 13  2  0
 12 14  1  0
 14 15  1  0
 15 16  2  0
 16 17  1  0
 17 18  2  0
 18 19  1  0
 19 20  2  0
  9 21  2  0
 21  2  1  0
 20 15  1  0
M  END
>  <Binding energies>  (5) 
[-7.21]

>  <Ligand effiencies>  (5) 
[-0.3277272727272727]

>  <Interactions>  (5) 
["V-A:TYR:539:CE2:4871, V-A:PRO:540:CA:4878, V-A:MET:535:CG:4828, H-A:TYR:531:OH:4790, V-A:TYR:539:CE1:4870, V-A:TYR:539:CZ:4872, V-A:PRO:540:CB:4880, V-A:ILE:538:CD1:4860, V-A:LEU:363:CD1:3184, V-A:TYR:531:CZ:4789, V-A:TYR:531:CE2:4788, V-A:TYR:539:CG:4867, V-B:TYR:531:CZ:9762, V-A:LEU:363:CA:3180, H-A:TYR:539:N:4865, V-A:LEU:363:CB:3182, V-A:TYR:539:CD1:4868, V-A:ASN:362:C:3167"]

$$$$
1e_Grossjean_2025
     RDKit          3D

 22 23  0  0  0  0  0  0  0  0999 V2000
  129.3530  123.6070   54.9990 C   0  0  0  0  0  0  0  0  0  0  0  0
  129.0770  125.0590   55.3420 C   0  0  0  0  0  0  0  0  0  0  0  0
  128.1000  125.4170   56.2750 C   0  0  0  0  0  0  0  0  0  0  0  0
  127.9000  126.7730   56.5380 C   0  0  0  0  0  0  0  0  0  0  0  0
  128.6700  127.7270   55.8700 C   0  0  0  0  0  0  0  0  0  0  0  0
  129.6360  127.3000   54.9510 C   0  0  0  0  0  0  0  0  0  0  0  0
  130.3720  128.3060   54.3020 N   0  0  0  0  0  0  0  0  0  0  0  0
  130.4220  128.5930   52.9830 C   0  0  0  0  0  0  0  0  0  0  0  0
  129.8100  127.9840   52.1030 O   0  0  0  0  0  0  0  0  0  0  0  0
  131.3390  129.7520   52.5870 C   0  0  0  0  0  0  0  0  0  0  0  0
  130.4990  131.3590   52.7140 S   0  0  0  0  0  0  0  0  0  0  0  0
  129.3990  131.3190   54.1150 C   0  0  0  0  0  0  0  0  0  0  0  0
  128.2480  130.6380   53.8780 N   0  0  0  0  0  0  0  0  0  0  0  0
  127.3310  130.5410   54.8690 C   0  0  0  0  0  0  0  0  0  0  0  0
  126.0760  129.7600   54.5330 C   0  0  0  0  0  0  0  0  0  0  0  0
  127.5140  131.1230   56.1210 C   0  0  0  0  0  0  0  0  0  0  0  0
  128.6850  131.8470   56.3690 C   0  0  0  0  0  0  0  0  0  0  0  0
  128.8530  132.4910   57.7450 C   0  0  0  0  0  0  0  0  0  0  0  0
  129.6550  131.9650   55.3480 C   0  0  0  0  0  0  0  0  0  0  0  0
  130.8590  132.7690   55.5720 C   0  0  0  0  0  0  0  0  0  0  0  0
  131.8100  133.4050   55.7520 N   0  0  0  0  0  0  0  0  0  0  0  0
  129.8340  125.9750   54.6860 N   0  0  0  0  0  0  0  0  0  0  0  0
  1  2  1  0
  2  3  2  0
  3  4  1  0
  4  5  2  0
  5  6  1  0
  6  7  1  0
  7  8  1  0
  8  9  2  0
  8 10  1  0
 10 11  1  0
 11 12  1  0
 12 13  2  0
 13 14  1  0
 14 15  1  0
 14 16  2  0
 16 17  1  0
 17 18  1  0
 17 19  2  0
 19 20  1  0
 20 21  3  0
  6 22  2  0
 22  2  1  0
 19 12  1  0
M  END
>  <Binding energies>  (6) 
[-7.1]

>  <Ligand effiencies>  (6) 
[-0.30869565217391304]

>  <Interactions>  (6) 
["V-A:TYR:539:CE2:4871, V-A:MET:535:CG:4828, H-A:TYR:531:OH:4790, V-A:TYR:539:CE1:4870, V-A:TYR:539:CZ:4872, V-A:ILE:538:CA:4855, V-A:TYR:539:CD2:4869, H-A:LYS:534:NZ:4818, V-B:MET:535:CE:9803, V-A:TYR:531:CZ:4789, V-A:PRO:540:CD:4882, V-B:TYR:539:CZ:9845, V-A:TYR:531:CE1:4787, V-A:TYR:539:CG:4867, V-B:TYR:531:CZ:9762, V-A:MET:535:CE:4830, V-A:MET:535:CB:4827, H-A:TYR:539:N:4865, V-A:TYR:539:CD1:4868, V-B:TYR:539:CE1:9843, V-A:TYR:531:CD1:4785, V-B:TYR:531:CE1:9760, H-A:MET:535:N:4826"]

$$$$
1f_Grossjean_2025
     RDKit          3D

 21 22  0  0  0  0  0  0  0  0999 V2000
  128.2680  132.6050   57.8700 C   0  0  0  0  0  0  0  0  0  0  0  0
  128.3620  132.5780   59.3840 C   0  0  0  0  0  0  0  0  0  0  0  0
  127.2510  132.8180   60.1880 C   0  0  0  0  0  0  0  0  0  0  0  0
  127.4000  132.7910   61.5790 C   0  0  0  0  0  0  0  0  0  0  0  0
  126.1710  133.0760   62.4400 C   0  0  0  0  0  0  0  0  0  0  0  0
  128.6710  132.5130   62.1330 C   0  0  0  0  0  0  0  0  0  0  0  0
  128.8590  132.5350   63.5860 C   0  0  0  0  0  0  0  0  0  0  0  0
  129.0060  132.5530   64.7330 N   0  0  0  0  0  0  0  0  0  0  0  0
  129.7370  132.2530   61.2410 C   0  0  0  0  0  0  0  0  0  0  0  0
  131.4040  131.8840   61.7520 S   0  0  0  0  0  0  0  0  0  0  0  0
  132.0270  130.5030   60.7340 C   0  0  0  0  0  0  0  0  0  0  0  0
  132.5100  130.9010   59.3320 C   0  0  0  0  0  0  0  0  0  0  0  0
  133.7140  130.9690   59.0820 O   0  0  0  0  0  0  0  0  0  0  0  0
  131.5220  131.1790   58.4560 N   0  0  0  0  0  0  0  0  0  0  0  0
  131.6010  131.5640   57.1030 C   0  0  0  0  0  0  0  0  0  0  0  0
  132.0680  130.7580   56.0480 C   0  0  0  0  0  0  0  0  0  0  0  0
  132.0890  131.2670   54.7470 C   0  0  0  0  0  0  0  0  0  0  0  0
  131.6390  132.5690   54.5310 C   0  0  0  0  0  0  0  0  0  0  0  0
  131.1790  133.3650   55.5300 N   0  0  0  0  0  0  0  0  0  0  0  0
  131.1650  132.8560   56.7890 C   0  0  0  0  0  0  0  0  0  0  0  0
  129.5870  132.3050   59.8930 N   0  0  0  0  0  0  0  0  0  0  0  0
  1  2  1  0
  2  3  2  0
  3  4  1  0
  4  5  1  0
  4  6  2  0
  6  7  1  0
  7  8  3  0
  6  9  1  0
  9 10  1  0
 10 11  1  0
 11 12  1  0
 12 13  2  0
 12 14  1  0
 14 15  1  0
 15 16  2  0
 16 17  1  0
 17 18  2  0
 18 19  1  0
 19 20  2  0
  9 21  2  0
 21  2  1  0
 20 15  1  0
M  END
>  <Binding energies>  (7) 
[-6.97]

>  <Ligand effiencies>  (7) 
[-0.31681818181818183]

>  <Interactions>  (7) 
["V-A:TYR:539:CE2:4871, V-A:PRO:540:CA:4878, V-A:ILE:538:CG2:4858, V-A:TYR:539:CE1:4870, V-A:TYR:539:CZ:4872, V-B:LEU:475:CD2:9226, V-A:ILE:538:CA:4855, V-A:PRO:540:CB:4880, H-A:ALA:541:N:4886, V-A:ALA:541:CB:4887, V-A:ILE:538:CD1:4860, V-A:LEU:363:CD1:3184, V-A:TYR:539:CD2:4869, V-A:ILE:538:CB:4857, V-A:PRO:540:CG:4881, V-A:PRO:540:N:4879, V-A:TYR:531:CZ:4789, V-A:TYR:539:C:4862, V-A:PRO:540:CD:4882, V-A:TYR:531:CE2:4788, V-A:GLU:543:CG:4902, V-A:TYR:539:CG:4867, H-A:TYR:539:N:4865, V-A:TYR:539:CD1:4868, H-B:TYR:484:OH:9315, H-A:LEU:363:N:3181"]

$$$$
1g_Grossjean_2025
     RDKit          3D

 22 23  0  0  0  0  0  0  0  0999 V2000
  129.0350  133.0260   57.3710 C   0  0  0  0  0  0  0  0  0  0  0  0
  128.9490  132.8910   58.8800 C   0  0  0  0  0  0  0  0  0  0  0  0
  128.0720  133.6680   59.6330 C   0  0  0  0  0  0  0  0  0  0  0  0
  128.0480  133.5120   61.0230 C   0  0  0  0  0  0  0  0  0  0  0  0
  127.0890  134.3860   61.8300 C   0  0  0  0  0  0  0  0  0  0  0  0
  128.9050  132.5640   61.6270 C   0  0  0  0  0  0  0  0  0  0  0  0
  128.9350  132.4200   63.0850 C   0  0  0  0  0  0  0  0  0  0  0  0
  128.9570  132.3090   64.2370 N   0  0  0  0  0  0  0  0  0  0  0  0
  129.7440  131.8000   60.7820 C   0  0  0  0  0  0  0  0  0  0  0  0
  130.8750  130.5610   61.3720 S   0  0  0  0  0  0  0  0  0  0  0  0
  132.5580  131.1950   61.1060 C   0  0  0  0  0  0  0  0  0  0  0  0
  133.1450  130.7220   59.7750 C   0  0  0  0  0  0  0  0  0  0  0  0
  134.2430  130.1640   59.7490 O   0  0  0  0  0  0  0  0  0  0  0  0
  132.4020  130.9570   58.6800 N   0  0  0  0  0  0  0  0  0  0  0  0
  132.7410  130.5400   57.3190 C   0  0  0  0  0  0  0  0  0  0  0  0
  131.9340  131.2390   56.2290 C   0  0  0  0  0  0  0  0  0  0  0  0
  132.0410  132.6230   56.0600 C   0  0  0  0  0  0  0  0  0  0  0  0
  131.3060  133.2610   55.0650 C   0  0  0  0  0  0  0  0  0  0  0  0
  130.4690  132.5130   54.2390 C   0  0  0  0  0  0  0  0  0  0  0  0
  130.3610  131.1330   54.4000 C   0  0  0  0  0  0  0  0  0  0  0  0
  131.0950  130.4950   55.3950 C   0  0  0  0  0  0  0  0  0  0  0  0
  129.7770  131.9760   59.4370 N   0  0  0  0  0  0  0  0  0  0  0  0
  1  2  1  0
  2  3  2  0
  3  4  1  0
  4  5  1  0
  4  6  2  0
  6  7  1  0
  7  8  3  0
  6  9  1  0
  9 10  1  0
 10 11  1  0
 11 12  1  0
 12 13  2  0
 12 14  1  0
 14 15  1  0
 15 16  1  0
 16 17  2  0
 17 18  1  0
 18 19  2  0
 19 20  1  0
 20 21  2  0
  9 22  2  0
 22  2  1  0
 21 16  1  0
M  END
>  <Binding energies>  (8) 
[-6.75]

>  <Ligand effiencies>  (8) 
[-0.29347826086956524]

>  <Interactions>  (8) 
["V-A:TYR:539:CE2:4871, V-A:PRO:540:CA:4878, V-A:ILE:538:CG2:4858, V-A:ILE:538:C:4853, V-A:TYR:539:CE1:4870, V-A:TYR:539:CZ:4872, V-B:LEU:475:CD2:9226, V-A:ILE:538:CA:4855, V-A:PRO:540:CB:4880, V-A:ALA:541:CB:4887, V-A:ILE:538:CD1:4860, V-A:LEU:363:CD1:3184, V-A:TYR:539:CD2:4869, V-A:ILE:538:CB:4857, V-A:PRO:540:CG:4881, V-A:PRO:540:N:4879, V-A:TYR:531:CZ:4789, V-A:TYR:539:C:4862, V-A:PRO:540:CD:4882, V-A:TYR:531:CE2:4788, V-A:GLU:543:CG:4902, V-A:TYR:539:CG:4867, V-A:TYR:539:CA:4864, V-A:TYR:539:CD1:4868, H-B:TYR:484:OH:9315, H-A:LEU:363:N:3181"]

$$$$
1h_Grossjean_2025
     RDKit          3D

 28 29  0  0  0  0  0  0  0  0999 V2000
  132.1250  132.9730   55.7570 C   0  0  0  0  0  0  0  0  0  0  0  0
  130.7030  133.0230   55.7880 O   0  0  0  0  0  0  0  0  0  0  0  0
  129.9840  131.8430   55.8570 C   0  0  0  0  0  0  0  0  0  0  0  0
  130.3120  130.6820   55.1400 C   0  0  0  0  0  0  0  0  0  0  0  0
  129.5320  129.5300   55.2490 C   0  0  0  0  0  0  0  0  0  0  0  0
  129.9120  128.2680   54.4810 C   0  0  0  0  0  0  0  0  0  0  0  0
  130.1230  127.0960   55.3310 N   0  0  0  0  0  0  0  0  0  0  0  0
  129.8180  125.8290   54.9970 C   0  0  0  0  0  0  0  0  0  0  0  0
  129.3430  125.5050   53.9080 O   0  0  0  0  0  0  0  0  0  0  0  0
  130.0850  124.7610   56.0580 C   0  0  0  0  0  0  0  0  0  0  0  0
  128.7940  123.4810   56.0760 S   0  0  0  0  0  0  0  0  0  0  0  0
  128.2370  123.2800   57.7600 C   0  0  0  0  0  0  0  0  0  0  0  0
  129.1330  122.7220   58.6150 N   0  0  0  0  0  0  0  0  0  0  0  0
  128.7770  122.5440   59.9090 C   0  0  0  0  0  0  0  0  0  0  0  0
  129.8320  121.9190   60.8020 C   0  0  0  0  0  0  0  0  0  0  0  0
  127.5260  122.9100   60.4020 C   0  0  0  0  0  0  0  0  0  0  0  0
  126.5940  123.4840   59.5310 C   0  0  0  0  0  0  0  0  0  0  0  0
  125.2290  123.8790   60.0920 C   0  0  0  0  0  0  0  0  0  0  0  0
  126.9450  123.6790   58.1760 C   0  0  0  0  0  0  0  0  0  0  0  0
  125.9880  124.2750   57.2400 C   0  0  0  0  0  0  0  0  0  0  0  0
  125.2310  124.7470   56.5020 N   0  0  0  0  0  0  0  0  0  0  0  0
  128.4330  129.5220   56.1090 C   0  0  0  0  0  0  0  0  0  0  0  0
  128.0850  130.6670   56.8430 C   0  0  0  0  0  0  0  0  0  0  0  0
  127.0100  130.7310   57.7110 O   0  0  0  0  0  0  0  0  0  0  0  0
  125.8330  129.9820   57.4230 C   0  0  0  0  0  0  0  0  0  0  0  0
  128.8630  131.8250   56.7000 C   0  0  0  0  0  0  0  0  0  0  0  0
  128.5380  132.9510   57.4160 O   0  0  0  0  0  0  0  0  0  0  0  0
  128.9510  132.9120   58.7750 C   0  0  0  0  0  0  0  0  0  0  0  0
  1  2  1  0
  2  3  1  0
  3  4  2  0
  4  5  1  0
  5  6  1  0
  6  7  1  0
  7  8  1  0
  8  9  2  0
  8 10  1  0
 10 11  1  0
 11 12  1  0
 12 13  2  0
 13 14  1  0
 14 15  1  0
 14 16  2  0
 16 17  1  0
 17 18  1  0
 17 19  2  0
 19 20  1  0
 20 21  3  0
  5 22  2  0
 22 23  1  0
 23 24  1  0
 24 25  1  0
 23 26  2  0
 26 27  1  0
 27 28  1  0
 26  3  1  0
 19 12  1  0
M  END
>  <Binding energies>  (9) 
[-7.93]

>  <Ligand effiencies>  (9) 
[-0.27344827586206893]

>  <Interactions>  (9) 
["V-A:TYR:539:CE2:4871, V-A:PRO:540:CA:4878, V-A:ILE:538:CG2:4858, H-A:TYR:531:OH:4790, V-A:TYR:539:CE1:4870, V-A:TYR:539:CZ:4872, V-A:ILE:538:CA:4855, V-A:PRO:540:CB:4880, H-B:TYR:531:OH:9763, V-A:LEU:363:CD1:3184, V-A:TYR:539:CD2:4869, H-A:TYR:539:OH:4873, H-A:LYS:534:NZ:4818, V-B:PRO:540:CA:9851, V-A:PRO:540:CG:4881, V-B:MET:535:CE:9803, V-A:PRO:540:N:4879, V-A:TYR:531:CZ:4789, V-A:TYR:539:C:4862, V-A:PRO:540:CD:4882, V-B:PRO:540:CB:9853, V-B:TYR:539:CZ:9845, V-A:TYR:531:CE1:4787, H-A:TYR:539:N:4865, V-A:TYR:539:CD1:4868, V-B:PRO:540:C:9849"]

$$$$
1i_Grossjean_2025
     RDKit          3D

 20 21  0  0  0  0  0  0  0  0999 V2000
  126.2270  129.5830   55.6920 C   0  0  0  0  0  0  0  0  0  0  0  0
  127.4280  130.5070   55.7510 C   0  0  0  0  0  0  0  0  0  0  0  0
  127.8300  131.1060   56.9430 C   0  0  0  0  0  0  0  0  0  0  0  0
  128.9520  131.9420   56.9390 C   0  0  0  0  0  0  0  0  0  0  0  0
  129.3830  132.5740   58.2620 C   0  0  0  0  0  0  0  0  0  0  0  0
  129.6460  132.1630   55.7270 C   0  0  0  0  0  0  0  0  0  0  0  0
  130.8520  132.9940   55.7110 C   0  0  0  0  0  0  0  0  0  0  0  0
  131.8060  133.6500   55.7010 N   0  0  0  0  0  0  0  0  0  0  0  0
  129.1520  131.5330   54.5600 C   0  0  0  0  0  0  0  0  0  0  0  0
  129.8980  131.7010   52.9540 S   0  0  0  0  0  0  0  0  0  0  0  0
  131.3550  130.6140   52.9080 C   0  0  0  0  0  0  0  0  0  0  0  0
  130.9700  129.1340   52.9500 C   0  0  0  0  0  0  0  0  0  0  0  0
  131.3480  128.3860   52.0470 O   0  0  0  0  0  0  0  0  0  0  0  0
  130.2240  128.7560   54.0110 N   0  0  0  0  0  0  0  0  0  0  0  0
  129.7390  127.4860   54.2890 C   0  0  0  0  0  0  0  0  0  0  0  0
  128.7490  127.2400   55.2380 C   0  0  0  0  0  0  0  0  0  0  0  0
  128.5550  125.8790   55.2100 C   0  0  0  0  0  0  0  0  0  0  0  0
  129.3880  125.3320   54.2930 O   0  0  0  0  0  0  0  0  0  0  0  0
  130.1340  126.3610   53.7160 N   0  0  0  0  0  0  0  0  0  0  0  0
  128.0750  130.7080   54.5780 N   0  0  0  0  0  0  0  0  0  0  0  0
  1  2  1  0
  2  3  2  0
  3  4  1  0
  4  5  1  0
  4  6  2  0
  6  7  1  0
  7  8  3  0
  6  9  1  0
  9 10  1  0
 10 11  1  0
 11 12  1  0
 12 13  2  0
 12 14  1  0
 14 15  1  0
 15 16  1  0
 16 17  2  0
 17 18  1  0
 18 19  1  0
  9 20  2  0
 20  2  1  0
 19 15  2  0
M  END
>  <Binding energies>  (10) 
[-7.35]

>  <Ligand effiencies>  (10) 
[-0.35]

>  <Interactions>  (10) 
["V-A:PRO:540:CA:4878, V-A:ILE:538:CG2:4858, V-A:MET:535:CG:4828, V-A:TYR:539:CE1:4870, V-A:TYR:539:CZ:4872, V-A:ILE:538:CA:4855, V-A:ILE:538:CD1:4860, H-A:LYS:534:NZ:4818, V-B:MET:535:CE:9803, V-A:PRO:540:N:4879, V-A:TYR:531:CZ:4789, V-A:TYR:539:C:4862, V-A:PRO:540:CD:4882, V-A:TYR:531:CE1:4787, V-B:TYR:531:CZ:9762, H-A:TYR:539:N:4865, V-A:TYR:539:CD1:4868, V-A:TYR:531:CD1:4785, V-B:TYR:531:CE1:9760"]

$$$$
1k_Grossjean_2025
     RDKit          3D

 25 25  0  0  0  0  0  0  0  0999 V2000
  131.2510  132.4400   56.6630 C   0  0  0  0  0  0  0  0  0  0  0  0
  130.4590  133.3360   55.9010 O   0  0  0  0  0  0  0  0  0  0  0  0
  130.0650  132.8110   54.6400 C   0  0  0  0  0  0  0  0  0  0  0  0
  131.1240  131.8190   54.1440 C   0  0  0  0  0  0  0  0  0  0  0  0
  130.8340  131.4490   52.8020 O   0  0  0  0  0  0  0  0  0  0  0  0
  131.5770  130.3260   52.3460 C   0  0  0  0  0  0  0  0  0  0  0  0
  131.1280  129.0740   53.1090 C   0  0  0  0  0  0  0  0  0  0  0  0
  130.0190  128.4830   52.4420 O   0  0  0  0  0  0  0  0  0  0  0  0
  129.4200  127.4160   53.1640 C   0  0  0  0  0  0  0  0  0  0  0  0
  129.4570  127.7270   54.6720 C   0  0  0  0  0  0  0  0  0  0  0  0
  130.0870  126.6830   55.4810 N   0  0  0  0  0  0  0  0  0  0  0  0
  129.9980  125.3620   55.2470 C   0  0  0  0  0  0  0  0  0  0  0  0
  129.3670  124.8870   54.3020 O   0  0  0  0  0  0  0  0  0  0  0  0
  130.7390  124.4610   56.2480 C   0  0  0  0  0  0  0  0  0  0  0  0
  129.6960  123.2780   57.1690 S   0  0  0  0  0  0  0  0  0  0  0  0
  128.0240  123.9060   57.2460 C   0  0  0  0  0  0  0  0  0  0  0  0
  127.0450  123.0270   56.9070 N   0  0  0  0  0  0  0  0  0  0  0  0
  125.7570  123.4410   56.9350 C   0  0  0  0  0  0  0  0  0  0  0  0
  124.7230  122.4060   56.5360 C   0  0  0  0  0  0  0  0  0  0  0  0
  125.3910  124.7330   57.3050 C   0  0  0  0  0  0  0  0  0  0  0  0
  126.3890  125.6450   57.6630 C   0  0  0  0  0  0  0  0  0  0  0  0
  125.9670  127.0570   58.0650 C   0  0  0  0  0  0  0  0  0  0  0  0
  127.7410  125.2340   57.6370 C   0  0  0  0  0  0  0  0  0  0  0  0
  128.8080  126.1700   58.0030 C   0  0  0  0  0  0  0  0  0  0  0  0
  129.6500  126.9100   58.2920 N   0  0  0  0  0  0  0  0  0  0  0  0
  1  2  1  0
  2  3  1  0
  3  4  1  0
  4  5  1  0
  5  6  1  0
  6  7  1  0
  7  8  1  0
  8  9  1  0
  9 10  1  0
 10 11  1  0
 11 12  1  0
 12 13  2  0
 12 14  1  0
 14 15  1  0
 15 16  1  0
 16 17  2  0
 17 18  1  0
 18 19  1  0
 18 20  2  0
 20 21  1  0
 21 22  1  0
 21 23  2  0
 23 24  1  0
 24 25  3  0
 23 16  1  0
M  END
>  <Binding energies>  (11) 
[-6.17]

>  <Ligand effiencies>  (11) 
[-0.2373076923076923]

>  <Interactions>  (11) 
["V-A:PRO:540:CA:4878, V-A:MET:535:CG:4828, H-A:TYR:531:OH:4790, V-A:TYR:539:CE1:4870, V-B:LEU:363:CD1:8156, V-A:ILE:538:CA:4855, V-A:PRO:540:CB:4880, V-A:ILE:538:CD1:4860, H-A:LYS:534:NZ:4818, V-B:PRO:540:CA:9851, H-B:TYR:539:OH:9846, V-B:MET:535:CE:9803, V-A:PRO:540:N:4879, V-A:TYR:531:CZ:4789, V-B:PRO:540:N:9852, V-A:PRO:540:CD:4882, V-B:PRO:540:CB:9853, V-B:TYR:539:CZ:9845, V-A:TYR:531:CE1:4787, V-B:ASP:366:CB:8179, V-B:ASP:366:CG:8180, H-A:TYR:539:N:4865, V-A:TYR:531:C:4779, V-A:TYR:539:CD1:4868, V-A:LYS:534:CD:4816, V-B:PRO:540:CD:9855, V-B:PRO:540:CG:9854, V-A:TYR:531:CD1:4785, V-A:LYS:534:CE:4817, V-B:ILE:538:CG2:9831"]

$$$$
1l_Grossjean_2025
     RDKit          3D

 17 17  0  0  0  0  0  0  0  0999 V2000
  129.8940  131.9190   62.5760 C   0  0  0  0  0  0  0  0  0  0  0  0
  130.9730  132.3440   61.7550 O   0  0  0  0  0  0  0  0  0  0  0  0
  131.3830  131.2970   60.9300 N   0  0  0  0  0  0  0  0  0  0  0  0
  132.6990  131.1200   60.7050 C   0  0  0  0  0  0  0  0  0  0  0  0
  133.5860  131.6800   61.3550 O   0  0  0  0  0  0  0  0  0  0  0  0
  133.0400  130.1440   59.5700 C   0  0  0  0  0  0  0  0  0  0  0  0
  133.3170  130.9210   57.9410 S   0  0  0  0  0  0  0  0  0  0  0  0
  131.7770  131.6460   57.4030 C   0  0  0  0  0  0  0  0  0  0  0  0
  130.9290  132.0310   58.3910 N   0  0  0  0  0  0  0  0  0  0  0  0
  129.7410  132.5870   58.0530 C   0  0  0  0  0  0  0  0  0  0  0  0
  128.8490  132.9910   59.2120 C   0  0  0  0  0  0  0  0  0  0  0  0
  129.3530  132.7850   56.7300 C   0  0  0  0  0  0  0  0  0  0  0  0
  130.2190  132.3950   55.7030 C   0  0  0  0  0  0  0  0  0  0  0  0
  129.7730  132.6210   54.2600 C   0  0  0  0  0  0  0  0  0  0  0  0
  131.4620  131.8100   56.0340 C   0  0  0  0  0  0  0  0  0  0  0  0
  132.3900  131.3920   54.9780 C   0  0  0  0  0  0  0  0  0  0  0  0
  133.1200  131.0620   54.1430 N   0  0  0  0  0  0  0  0  0  0  0  0
  1  2  1  0
  2  3  1  0
  3  4  1  0
  4  5  2  0
  4  6  1  0
  6  7  1  0
  7  8  1  0
  8  9  2  0
  9 10  1  0
 10 11  1  0
 10 12  2  0
 12 13  1  0
 13 14  1  0
 13 15  2  0
 15 16  1  0
 16 17  3  0
 15  8  1  0
M  END
>  <Binding energies>  (12) 
[-6.14]

>  <Ligand effiencies>  (12) 
[-0.3411111111111111]

>  <Interactions>  (12) 
["V-A:TYR:539:CE2:4871, V-A:PRO:540:CA:4878, V-A:ASP:366:CG:3208, V-A:TYR:539:CE1:4870, V-A:TYR:539:CZ:4872, V-A:ILE:538:CA:4855, V-A:PRO:540:CB:4880, H-A:ALA:541:N:4886, V-A:ALA:541:CB:4887, V-A:ILE:538:CD1:4860, V-A:LEU:363:CD1:3184, V-A:TYR:539:CD2:4869, V-A:GLU:543:CD:4903, V-A:PRO:540:N:4879, V-A:TYR:531:CZ:4789, V-A:TYR:539:C:4862, V-A:TYR:531:CE2:4788, V-A:GLU:543:CG:4902, V-A:TYR:539:CG:4867, V-A:TYR:539:CD1:4868, V-A:VAL:537:C:4845"]

$$$$
1m_Grossjean_2025
     RDKit          3D

 20 20  0  0  0  0  0  0  0  0999 V2000
  129.4510  124.0510   55.1110 C   0  0  0  0  0  0  0  0  0  0  0  0
  129.7570  125.1620   54.2790 O   0  0  0  0  0  0  0  0  0  0  0  0
  129.5050  126.4200   54.6960 C   0  0  0  0  0  0  0  0  0  0  0  0
  129.5840  126.8190   55.8610 O   0  0  0  0  0  0  0  0  0  0  0  0
  129.1060  127.3360   53.5200 C   0  0  0  0  0  0  0  0  0  0  0  0
  129.8280  128.6170   53.5260 N   0  0  0  0  0  0  0  0  0  0  0  0
  130.9120  128.9120   52.7830 C   0  0  0  0  0  0  0  0  0  0  0  0
  131.4350  128.1070   52.0090 O   0  0  0  0  0  0  0  0  0  0  0  0
  131.4720  130.3290   52.9630 C   0  0  0  0  0  0  0  0  0  0  0  0
  130.2220  131.6570   52.9030 S   0  0  0  0  0  0  0  0  0  0  0  0
  129.1850  131.5020   54.3420 C   0  0  0  0  0  0  0  0  0  0  0  0
  128.0200  130.8470   54.1030 N   0  0  0  0  0  0  0  0  0  0  0  0
  127.1540  130.6640   55.1270 C   0  0  0  0  0  0  0  0  0  0  0  0
  125.8840  129.9060   54.7890 C   0  0  0  0  0  0  0  0  0  0  0  0
  127.4030  131.1320   56.4160 C   0  0  0  0  0  0  0  0  0  0  0  0
  128.5880  131.8320   56.6670 C   0  0  0  0  0  0  0  0  0  0  0  0
  128.8330  132.3490   58.0830 C   0  0  0  0  0  0  0  0  0  0  0  0
  129.5080  132.0360   55.6130 C   0  0  0  0  0  0  0  0  0  0  0  0
  130.7310  132.8090   55.8430 C   0  0  0  0  0  0  0  0  0  0  0  0
  131.6970  133.4180   56.0240 N   0  0  0  0  0  0  0  0  0  0  0  0
  1  2  1  0
  2  3  1  0
  3  4  2  0
  3  5  1  0
  5  6  1  0
  6  7  1  0
  7  8  2  0
  7  9  1  0
  9 10  1  0
 10 11  1  0
 11 12  2  0
 12 13  1  0
 13 14  1  0
 13 15  2  0
 15 16  1  0
 16 17  1  0
 16 18  2  0
 18 19  1  0
 19 20  3  0
 18 11  1  0
M  END
>  <Binding energies>  (13) 
[-6.26]

>  <Ligand effiencies>  (13) 
[-0.2980952380952381]

>  <Interactions>  (13) 
["V-A:TYR:539:CE2:4871, V-A:MET:535:CG:4828, H-A:TYR:531:OH:4790, V-A:TYR:539:CE1:4870, V-A:TYR:539:CZ:4872, V-A:ILE:538:CD1:4860, H-A:LYS:534:NZ:4818, V-B:MET:535:CE:9803, V-A:PRO:540:N:4879, V-A:TYR:531:CZ:4789, V-A:PRO:540:CD:4882, V-B:TYR:539:CZ:9845, V-A:TYR:531:CE1:4787, V-B:TYR:531:CZ:9762, V-A:MET:535:CE:4830, V-A:MET:535:CB:4827, H-A:TYR:539:N:4865, V-A:TYR:539:CD1:4868, V-B:TYR:539:CE1:9843, V-A:LYS:534:CD:4816, V-A:TYR:531:CD1:4785, V-B:TYR:531:CE1:9760, V-A:LYS:534:CE:4817, V-A:LYS:534:CB:4814"]

$$$$
1n_Grossjean_2025
     RDKit          3D

 27 28  0  0  0  0  0  0  0  0999 V2000
  124.7180  123.5740   57.1790 C   0  0  0  0  0  0  0  0  0  0  0  0
  125.5990  123.6280   58.4320 C   0  0  0  0  0  0  0  0  0  0  0  0
  126.9230  123.2320   58.0950 O   0  0  0  0  0  0  0  0  0  0  0  0
  127.3030  123.0860   56.8000 C   0  0  0  0  0  0  0  0  0  0  0  0
  127.0450  122.0870   56.1230 O   0  0  0  0  0  0  0  0  0  0  0  0
  128.0600  124.2700   56.2680 C   0  0  0  0  0  0  0  0  0  0  0  0
  129.3940  124.1690   55.8450 C   0  0  0  0  0  0  0  0  0  0  0  0
  130.0680  125.2860   55.3590 C   0  0  0  0  0  0  0  0  0  0  0  0
  129.4290  126.5250   55.2940 C   0  0  0  0  0  0  0  0  0  0  0  0
  130.2040  127.5880   54.7920 N   0  0  0  0  0  0  0  0  0  0  0  0
  130.2250  128.1340   53.5570 C   0  0  0  0  0  0  0  0  0  0  0  0
  129.5240  127.7810   52.6090 O   0  0  0  0  0  0  0  0  0  0  0  0
  131.2130  129.2910   53.3600 C   0  0  0  0  0  0  0  0  0  0  0  0
  130.8490  130.2030   52.1690 C   0  0  0  0  0  0  0  0  0  0  0  0
  130.1240  131.8020   52.6380 S   0  0  0  0  0  0  0  0  0  0  0  0
  129.1620  131.5460   54.1140 C   0  0  0  0  0  0  0  0  0  0  0  0
  128.0360  130.8170   53.9090 N   0  0  0  0  0  0  0  0  0  0  0  0
  127.2350  130.5450   54.9650 C   0  0  0  0  0  0  0  0  0  0  0  0
  126.0020  129.7170   54.6620 C   0  0  0  0  0  0  0  0  0  0  0  0
  127.5150  130.9900   56.2550 C   0  0  0  0  0  0  0  0  0  0  0  0
  128.6630  131.7610   56.4740 C   0  0  0  0  0  0  0  0  0  0  0  0
  128.9430  132.2490   57.8940 C   0  0  0  0  0  0  0  0  0  0  0  0
  129.5120  132.0610   55.3840 C   0  0  0  0  0  0  0  0  0  0  0  0
  130.6890  132.9090   55.5800 C   0  0  0  0  0  0  0  0  0  0  0  0
  131.6190  133.5790   55.7370 N   0  0  0  0  0  0  0  0  0  0  0  0
  128.0920  126.6310   55.7050 C   0  0  0  0  0  0  0  0  0  0  0  0
  127.4190  125.5120   56.1870 C   0  0  0  0  0  0  0  0  0  0  0  0
  1  2  1  0
  2  3  1  0
  3  4  1  0
  4  5  2  0
  4  6  1  0
  6  7  2  0
  7  8  1  0
  8  9  2  0
  9 10  1  0
 10 11  1  0
 11 12  2  0
 11 13  1  0
 13 14  1  0
 14 15  1  0
 15 16  1  0
 16 17  2  0
 17 18  1  0
 18 19  1  0
 18 20  2  0
 20 21  1  0
 21 22  1  0
 21 23  2  0
 23 24  1  0
 24 25  3  0
  9 26  1  0
 26 27  2  0
 27  6  1  0
 23 16  1  0
M  END
>  <Binding energies>  (14) 
[-8.57]

>  <Ligand effiencies>  (14) 
[-0.3060714285714286]

>  <Interactions>  (14) 
["V-A:MET:535:CG:4828, H-A:TYR:531:OH:4790, V-A:TYR:539:CE1:4870, V-B:LEU:363:CD1:8156, V-A:TYR:539:CZ:4872, V-A:ILE:538:CA:4855, V-B:PRO:540:CA:9851, V-B:MET:535:CE:9803, V-A:TYR:531:CZ:4789, H-B:TYR:539:N:9838, V-B:PRO:540:N:9852, V-A:PRO:540:CD:4882, V-B:PRO:540:CB:9853, V-B:TYR:539:CZ:9845, V-A:TYR:531:CE1:4787, V-B:TYR:539:C:9835, V-B:TYR:531:CZ:9762, V-A:MET:535:CE:4830, V-A:MET:535:CB:4827, H-A:TYR:539:N:4865, V-A:TYR:539:CD1:4868, V-A:TYR:531:CD1:4785, V-B:TYR:531:CE1:9760"]

$$$$
1q_Grossjean_2025
     RDKit          3D

 21 21  0  0  0  0  0  0  0  0999 V2000
  130.5460  124.6040   55.4130 C   0  0  0  0  0  0  0  0  0  0  0  0
  129.5720  125.2720   54.6240 O   0  0  0  0  0  0  0  0  0  0  0  0
  128.8330  126.2800   55.1510 C   0  0  0  0  0  0  0  0  0  0  0  0
  127.6190  126.2440   55.3570 O   0  0  0  0  0  0  0  0  0  0  0  0
  129.6420  127.5560   55.4650 C   0  0  0  0  0  0  0  0  0  0  0  0
  129.8770  128.3940   54.2790 N   0  0  0  0  0  0  0  0  0  0  0  0
  130.4330  127.9870   53.1230 C   0  0  0  0  0  0  0  0  0  0  0  0
  130.8150  126.8310   52.9290 O   0  0  0  0  0  0  0  0  0  0  0  0
  130.5570  129.0530   52.0240 C   0  0  0  0  0  0  0  0  0  0  0  0
  131.4170  130.2700   52.4170 C   0  0  0  0  0  0  0  0  0  0  0  0
  130.4580  131.7990   52.6360 S   0  0  0  0  0  0  0  0  0  0  0  0
  129.4350  131.6240   54.0840 C   0  0  0  0  0  0  0  0  0  0  0  0
  128.3510  130.8330   53.8850 N   0  0  0  0  0  0  0  0  0  0  0  0
  127.4960  130.6270   54.9140 C   0  0  0  0  0  0  0  0  0  0  0  0
  126.2990  129.7450   54.6110 C   0  0  0  0  0  0  0  0  0  0  0  0
  127.6890  131.1860   56.1750 C   0  0  0  0  0  0  0  0  0  0  0  0
  128.8170  131.9830   56.3990 C   0  0  0  0  0  0  0  0  0  0  0  0
  129.0160  132.5700   57.7960 C   0  0  0  0  0  0  0  0  0  0  0  0
  129.7250  132.2100   55.3400 C   0  0  0  0  0  0  0  0  0  0  0  0
  130.9400  132.9950   55.5720 C   0  0  0  0  0  0  0  0  0  0  0  0
  131.8990  133.6150   55.7590 N   0  0  0  0  0  0  0  0  0  0  0  0
  1  2  1  0
  2  3  1  0
  3  4  2  0
  3  5  1  0
  5  6  1  0
  6  7  1  0
  7  8  2  0
  7  9  1  0
  9 10  1  0
 10 11  1  0
 11 12  1  0
 12 13  2  0
 13 14  1  0
 14 15  1  0
 14 16  2  0
 16 17  1  0
 17 18  1  0
 17 19  2  0
 19 20  1  0
 20 21  3  0
 19 12  1  0
M  END
>  <Binding energies>  (15) 
[-6.07]

>  <Ligand effiencies>  (15) 
[-0.27590909090909094]

>  <Interactions>  (15) 
["V-A:ILE:538:CG2:4858, V-A:MET:535:CG:4828, V-A:TYR:539:CE1:4870, V-A:TYR:539:CZ:4872, V-A:ILE:538:CA:4855, H-B:TYR:531:OH:9763, V-A:ILE:538:CD1:4860, H-A:LYS:534:NZ:4818, V-B:MET:535:CE:9803, V-A:PRO:540:N:4879, V-A:TYR:531:CZ:4789, V-A:TYR:539:C:4862, V-A:PRO:540:CD:4882, V-B:TYR:539:CZ:9845, V-A:TYR:531:CE1:4787, V-A:TYR:539:CG:4867, V-B:TYR:531:CZ:9762, V-A:MET:535:CE:4830, V-A:MET:535:CB:4827, H-A:TYR:539:N:4865, V-A:TYR:539:CD1:4868, V-A:LYS:534:CD:4816, V-A:TYR:531:CD1:4785, V-B:TYR:531:CE1:9760, V-A:LYS:534:CE:4817, V-A:LYS:534:CB:4814"]

$$$$
2a_Grossjean_2025
     RDKit          3D

 29 30  0  0  0  0  0  0  0  0999 V2000
  124.8510  123.2650   57.0070 C   0  0  0  0  0  0  0  0  0  0  0  0
  125.7270  123.7250   58.1760 C   0  0  0  0  0  0  0  0  0  0  0  0
  127.0740  123.3360   57.9360 O   0  0  0  0  0  0  0  0  0  0  0  0
  127.5330  123.1430   56.6730 C   0  0  0  0  0  0  0  0  0  0  0  0
  127.3590  122.0990   56.0370 O   0  0  0  0  0  0  0  0  0  0  0  0
  128.2560  124.3380   56.1170 C   0  0  0  0  0  0  0  0  0  0  0  0
  129.5380  124.2350   55.5600 C   0  0  0  0  0  0  0  0  0  0  0  0
  130.1810  125.3610   55.0550 C   0  0  0  0  0  0  0  0  0  0  0  0
  129.5620  126.6110   55.1030 C   0  0  0  0  0  0  0  0  0  0  0  0
  130.3100  127.6810   54.5780 N   0  0  0  0  0  0  0  0  0  0  0  0
  130.3390  128.1870   53.3260 C   0  0  0  0  0  0  0  0  0  0  0  0
  129.6990  127.7580   52.3660 O   0  0  0  0  0  0  0  0  0  0  0  0
  131.2630  129.3930   53.1230 C   0  0  0  0  0  0  0  0  0  0  0  0
  130.3860  130.9910   53.1820 S   0  0  0  0  0  0  0  0  0  0  0  0
  129.2510  131.0070   54.5650 C   0  0  0  0  0  0  0  0  0  0  0  0
  128.1590  130.2110   54.4400 N   0  0  0  0  0  0  0  0  0  0  0  0
  127.2520  130.1820   55.4420 C   0  0  0  0  0  0  0  0  0  0  0  0
  126.0460  129.2900   55.2170 C   0  0  0  0  0  0  0  0  0  0  0  0
  127.3960  130.9320   56.6060 C   0  0  0  0  0  0  0  0  0  0  0  0
  128.5220  131.7550   56.7620 C   0  0  0  0  0  0  0  0  0  0  0  0
  128.6660  132.5770   58.0560 C   0  0  0  0  0  0  0  0  0  0  0  0
  127.5240  132.5560   58.7430 F   0  0  0  0  0  0  0  0  0  0  0  0
  129.6370  132.0660   58.8150 F   0  0  0  0  0  0  0  0  0  0  0  0
  128.9710  133.8560   57.8230 F   0  0  0  0  0  0  0  0  0  0  0  0
  129.4790  131.7970   55.7160 C   0  0  0  0  0  0  0  0  0  0  0  0
  130.6720  132.6430   55.8240 C   0  0  0  0  0  0  0  0  0  0  0  0
  131.6140  133.3100   55.9100 N   0  0  0  0  0  0  0  0  0  0  0  0
  128.2760  126.7200   55.6520 C   0  0  0  0  0  0  0  0  0  0  0  0
  127.6330  125.5920   56.1520 C   0  0  0  0  0  0  0  0  0  0  0  0
  1  2  1  0
  2  3  1  0
  3  4  1  0
  4  5  2  0
  4  6  1  0
  6  7  2  0
  7  8  1  0
  8  9  2  0
  9 10  1  0
 10 11  1  0
 11 12  2  0
 11 13  1  0
 13 14  1  0
 14 15  1  0
 15 16  2  0
 16 17  1  0
 17 18  1  0
 17 19  2  0
 19 20  1  0
 20 21  1  0
 21 22  1  0
 21 23  1  0
 21 24  1  0
 20 25  2  0
 25 26  1  0
 26 27  3  0
  9 28  1  0
 28 29  2  0
 29  6  1  0
 25 15  1  0
M  END
>  <Binding energies>  (16) 
[-7.53]

>  <Ligand effiencies>  (16) 
[-0.251]

>  <Interactions>  (16) 
["V-A:TYR:539:CE2:4871, V-A:PRO:540:CA:4878, V-A:MET:535:CG:4828, H-A:TYR:531:OH:4790, V-A:TYR:539:CE1:4870, V-B:LEU:363:CD1:8156, V-A:TYR:539:CZ:4872, V-A:TYR:539:CD2:4869, V-B:PRO:540:CA:9851, V-B:MET:535:CE:9803, V-A:PRO:540:N:4879, V-A:TYR:531:CZ:4789, H-B:TYR:539:N:9838, V-A:TYR:539:C:4862, V-B:PRO:540:N:9852, V-A:PRO:540:CD:4882, V-B:PRO:540:CB:9853, V-B:TYR:539:CZ:9845, V-A:TYR:531:CE1:4787, V-A:TYR:539:CG:4867, V-B:TYR:531:CZ:9762, H-A:TYR:539:N:4865, V-A:TYR:539:CA:4864, V-A:TYR:539:CD1:4868, V-B:TYR:539:CE1:9843, V-A:LYS:534:CD:4816, V-A:TYR:531:CD1:4785, V-B:TYR:531:CE1:9760, V-A:TYR:539:CB:4866"]

$$$$
2b_Grossjean_2025
     RDKit          3D

 28 29  0  0  0  0  0  0  0  0999 V2000
  128.0450  122.8770   59.0680 C   0  0  0  0  0  0  0  0  0  0  0  0
  127.2020  123.3030   58.0070 O   0  0  0  0  0  0  0  0  0  0  0  0
  127.5740  123.1470   56.7110 C   0  0  0  0  0  0  0  0  0  0  0  0
  127.3500  122.1230   56.0580 O   0  0  0  0  0  0  0  0  0  0  0  0
  128.2900  124.3420   56.1510 C   0  0  0  0  0  0  0  0  0  0  0  0
  129.5890  124.2520   55.6300 C   0  0  0  0  0  0  0  0  0  0  0  0
  130.2260  125.3800   55.1200 C   0  0  0  0  0  0  0  0  0  0  0  0
  129.5790  126.6150   55.1140 C   0  0  0  0  0  0  0  0  0  0  0  0
  130.3150  127.6900   54.5800 N   0  0  0  0  0  0  0  0  0  0  0  0
  130.3430  128.1760   53.3210 C   0  0  0  0  0  0  0  0  0  0  0  0
  129.7130  127.7180   52.3660 O   0  0  0  0  0  0  0  0  0  0  0  0
  131.2620  129.3830   53.1070 C   0  0  0  0  0  0  0  0  0  0  0  0
  130.3750  130.9750   53.1490 S   0  0  0  0  0  0  0  0  0  0  0  0
  129.2410  131.0050   54.5310 C   0  0  0  0  0  0  0  0  0  0  0  0
  128.1440  130.2150   54.4110 N   0  0  0  0  0  0  0  0  0  0  0  0
  127.2410  130.1930   55.4160 C   0  0  0  0  0  0  0  0  0  0  0  0
  126.0380  129.2950   55.1990 C   0  0  0  0  0  0  0  0  0  0  0  0
  127.3930  130.9420   56.5790 C   0  0  0  0  0  0  0  0  0  0  0  0
  128.5230  131.7600   56.7290 C   0  0  0  0  0  0  0  0  0  0  0  0
  128.6790  132.5800   58.0240 C   0  0  0  0  0  0  0  0  0  0  0  0
  128.9830  133.8450   57.7300 F   0  0  0  0  0  0  0  0  0  0  0  0
  127.5410  132.5600   58.7190 F   0  0  0  0  0  0  0  0  0  0  0  0
  129.6420  132.1100   58.8200 F   0  0  0  0  0  0  0  0  0  0  0  0
  129.4760  131.7990   55.6790 C   0  0  0  0  0  0  0  0  0  0  0  0
  130.6720  132.6410   55.7790 C   0  0  0  0  0  0  0  0  0  0  0  0
  131.6160  133.3050   55.8590 N   0  0  0  0  0  0  0  0  0  0  0  0
  128.2830  126.7160   55.6400 C   0  0  0  0  0  0  0  0  0  0  0  0
  127.6480  125.5870   56.1510 C   0  0  0  0  0  0  0  0  0  0  0  0
  1  2  1  0
  2  3  1  0
  3  4  2  0
  3  5  1  0
  5  6  2  0
  6  7  1  0
  7  8  2  0
  8  9  1  0
  9 10  1  0
 10 11  2  0
 10 12  1  0
 12 13  1  0
 13 14  1  0
 14 15  2  0
 15 16  1  0
 16 17  1  0
 16 18  2  0
 18 19  1  0
 19 20  1  0
 20 21  1  0
 20 22  1  0
 20 23  1  0
 19 24  2  0
 24 25  1  0
 25 26  3  0
  8 27  1  0
 27 28  2  0
 28  5  1  0
 24 14  1  0
M  END
>  <Binding energies>  (17) 
[-7.22]

>  <Ligand effiencies>  (17) 
[-0.2489655172413793]

>  <Interactions>  (17) 
["V-A:TYR:539:CE2:4871, V-A:PRO:540:CA:4878, V-A:MET:535:CG:4828, H-A:TYR:531:OH:4790, V-A:TYR:539:CE1:4870, V-A:TYR:539:CZ:4872, V-A:TYR:539:CD2:4869, V-B:PRO:540:CA:9851, V-B:MET:535:CE:9803, V-A:PRO:540:N:4879, V-A:TYR:531:CZ:4789, H-B:TYR:539:N:9838, V-A:TYR:539:C:4862, V-B:PRO:540:N:9852, V-A:PRO:540:CD:4882, V-B:TYR:539:CZ:9845, V-A:TYR:531:CE1:4787, V-B:TYR:539:C:9835, V-A:TYR:539:CG:4867, V-B:TYR:531:CZ:9762, H-A:TYR:539:N:4865, V-A:TYR:539:CA:4864, V-A:TYR:539:CD1:4868, V-B:TYR:539:CE1:9843, V-A:LYS:534:CD:4816, V-A:TYR:531:CD1:4785, V-B:TYR:531:CE1:9760, V-A:TYR:539:CB:4866"]

$$$$
2c_Grossjean_2025
     RDKit          3D

 26 27  0  0  0  0  0  0  0  0999 V2000
  128.9920  132.3390   63.0420 C   0  0  0  0  0  0  0  0  0  0  0  0
  130.1140  132.2150   62.1740 O   0  0  0  0  0  0  0  0  0  0  0  0
  129.9270  132.3340   60.8100 C   0  0  0  0  0  0  0  0  0  0  0  0
  130.8510  131.6810   59.9960 C   0  0  0  0  0  0  0  0  0  0  0  0
  130.7460  131.7440   58.6090 C   0  0  0  0  0  0  0  0  0  0  0  0
  129.7080  132.4800   58.0180 C   0  0  0  0  0  0  0  0  0  0  0  0
  129.5110  132.5860   56.6290 N   0  0  0  0  0  0  0  0  0  0  0  0
  130.3850  132.9890   55.6820 C   0  0  0  0  0  0  0  0  0  0  0  0
  131.5270  133.3940   55.9090 O   0  0  0  0  0  0  0  0  0  0  0  0
  129.8440  132.9510   54.2440 C   0  0  0  0  0  0  0  0  0  0  0  0
  130.0040  131.3460   53.3870 S   0  0  0  0  0  0  0  0  0  0  0  0
  129.2120  130.0710   54.3590 C   0  0  0  0  0  0  0  0  0  0  0  0
  128.3290  130.5080   55.2940 N   0  0  0  0  0  0  0  0  0  0  0  0
  127.7000  129.6000   56.0720 C   0  0  0  0  0  0  0  0  0  0  0  0
  126.7430  130.1680   57.1020 C   0  0  0  0  0  0  0  0  0  0  0  0
  127.9130  128.2290   55.9500 C   0  0  0  0  0  0  0  0  0  0  0  0
  128.8140  127.7550   54.9860 C   0  0  0  0  0  0  0  0  0  0  0  0
  129.0370  126.2350   54.8620 C   0  0  0  0  0  0  0  0  0  0  0  0
  128.0500  125.5770   55.4720 F   0  0  0  0  0  0  0  0  0  0  0  0
  129.0650  125.8800   53.5770 F   0  0  0  0  0  0  0  0  0  0  0  0
  130.1860  125.8360   55.4140 F   0  0  0  0  0  0  0  0  0  0  0  0
  129.4860  128.6960   54.1660 C   0  0  0  0  0  0  0  0  0  0  0  0
  130.4410  128.2560   53.1430 C   0  0  0  0  0  0  0  0  0  0  0  0
  131.1950  127.9090   52.3360 N   0  0  0  0  0  0  0  0  0  0  0  0
  128.7710  133.1220   58.8290 C   0  0  0  0  0  0  0  0  0  0  0  0
  128.8790  133.0560   60.2150 C   0  0  0  0  0  0  0  0  0  0  0  0
  1  2  1  0
  2  3  1  0
  3  4  2  0
  4  5  1  0
  5  6  2  0
  6  7  1  0
  7  8  1  0
  8  9  2  0
  8 10  1  0
 10 11  1  0
 11 12  1  0
 12 13  2  0
 13 14  1  0
 14 15  1  0
 14 16  2  0
 16 17  1  0
 17 18  1  0
 18 19  1  0
 18 20  1  0
 18 21  1  0
 17 22  2  0
 22 23  1  0
 23 24  3  0
  6 25  1  0
 25 26  2  0
 26  3  1  0
 22 12  1  0
M  END
>  <Binding energies>  (18) 
[-6.59]

>  <Ligand effiencies>  (18) 
[-0.24407407407407408]

>  <Interactions>  (18) 
["V-A:TYR:539:CE2:4871, V-A:PRO:540:CA:4878, V-A:MET:535:CG:4828, V-A:TYR:539:CE1:4870, V-A:TYR:539:CZ:4872, V-A:ILE:538:CA:4855, V-A:PRO:540:CB:4880, H-A:ALA:541:N:4886, V-A:ALA:541:CB:4887, V-A:ILE:538:CD1:4860, V-A:TYR:539:CD2:4869, V-B:MET:535:CE:9803, V-A:PRO:540:N:4879, V-A:TYR:531:CZ:4789, V-A:TYR:539:C:4862, V-A:PRO:540:CD:4882, V-A:TYR:531:CE1:4787, V-A:GLU:543:CG:4902, V-A:TYR:539:CG:4867, V-A:MET:535:CB:4827, H-A:TYR:539:N:4865, V-A:TYR:539:CD1:4868, V-A:LYS:534:CD:4816, V-A:PRO:540:C:4876, V-A:TYR:531:CD1:4785, V-A:LYS:534:CE:4817, V-A:VAL:537:C:4845"]

$$$$
2d_Ghoteimi_2023
     RDKit          3D

 38 42  0  0  0  0  0  0  0  0999 V2000
  126.3930  123.7120   61.0130 C   0  0  0  0  0  0  0  0  0  0  0  0
  127.4670  122.8490   61.3510 O   0  0  0  0  0  0  0  0  0  0  0  0
  128.4270  122.5620   60.4480 C   0  0  0  0  0  0  0  0  0  0  0  0
  128.3640  122.7940   59.2370 O   0  0  0  0  0  0  0  0  0  0  0  0
  129.6430  121.9020   61.1160 C   0  0  0  0  0  0  0  0  0  0  0  0
  131.1320  122.9450   60.9550 S   0  0  0  0  0  0  0  0  0  0  0  0
  130.8000  124.5180   61.7220 C   0  0  0  0  0  0  0  0  0  0  0  0
  130.8220  125.5540   60.8490 N   0  0  0  0  0  0  0  0  0  0  0  0
  130.5920  126.8140   61.2980 C   0  0  0  0  0  0  0  0  0  0  0  0
  130.6500  127.9080   60.2810 C   0  0  0  0  0  0  0  0  0  0  0  0
  131.3250  129.1020   60.5560 C   0  0  0  0  0  0  0  0  0  0  0  0
  131.3830  130.1250   59.6130 C   0  0  0  0  0  0  0  0  0  0  0  0
  130.7770  129.9860   58.3550 C   0  0  0  0  0  0  0  0  0  0  0  0
  130.8100  131.0110   57.4030 N   0  0  0  0  0  0  0  0  0  0  0  0
  129.8420  132.1240   57.4330 C   0  0  0  0  0  0  0  0  0  0  0  0
  129.7910  132.9350   56.1220 C   0  0  0  0  0  0  0  0  0  0  0  0
  131.0890  133.4040   55.7920 O   0  0  0  0  0  0  0  0  0  0  0  0
  131.9980  132.3320   55.6050 C   0  0  0  0  0  0  0  0  0  0  0  0
  132.1100  131.4980   56.8990 C   0  0  0  0  0  0  0  0  0  0  0  0
  130.0900  128.7930   58.0890 C   0  0  0  0  0  0  0  0  0  0  0  0
  130.0300  127.7710   59.0320 C   0  0  0  0  0  0  0  0  0  0  0  0
  130.3290  127.0620   62.6480 C   0  0  0  0  0  0  0  0  0  0  0  0
  130.2670  126.0050   63.5640 C   0  0  0  0  0  0  0  0  0  0  0  0
  129.9520  126.3410   64.9850 C   0  0  0  0  0  0  0  0  0  0  0  0
  130.7870  125.8990   66.0130 C   0  0  0  0  0  0  0  0  0  0  0  0
  130.5100  126.2170   67.3390 C   0  0  0  0  0  0  0  0  0  0  0  0
  129.3840  126.9870   67.6760 C   0  0  0  0  0  0  0  0  0  0  0  0
  129.0940  127.3290   69.0000 N   0  0  0  0  0  0  0  0  0  0  0  0
  127.7050  127.3580   69.5000 C   0  0  0  0  0  0  0  0  0  0  0  0
  127.6070  127.4000   71.0400 C   0  0  0  0  0  0  0  0  0  0  0  0
  128.3510  128.4980   71.5440 O   0  0  0  0  0  0  0  0  0  0  0  0
  129.7230  128.4080   71.1920 C   0  0  0  0  0  0  0  0  0  0  0  0
  129.8750  128.3960   69.6560 C   0  0  0  0  0  0  0  0  0  0  0  0
  128.5620  127.4410   66.6360 C   0  0  0  0  0  0  0  0  0  0  0  0
  128.8400  127.1240   65.3100 C   0  0  0  0  0  0  0  0  0  0  0  0
  130.5040  124.6890   63.0940 C   0  0  0  0  0  0  0  0  0  0  0  0
  130.4310  123.5480   64.0110 C   0  0  0  0  0  0  0  0  0  0  0  0
  130.3730  122.6490   64.7390 N   0  0  0  0  0  0  0  0  0  0  0  0
  1  2  1  0
  2  3  1  0
  3  4  2  0
  3  5  1  0
  5  6  1  0
  6  7  1  0
  7  8  2  0
  8  9  1  0
  9 10  1  0
 10 11  2  0
 11 12  1  0
 12 13  2  0
 13 14  1  0
 14 15  1  0
 15 16  1  0
 16 17  1  0
 17 18  1  0
 18 19  1  0
 13 20  1  0
 20 21  2  0
  9 22  2  0
 22 23  1  0
 23 24  1  0
 24 25  2  0
 25 26  1  0
 26 27  2  0
 27 28  1  0
 28 29  1  0
 29 30  1  0
 30 31  1  0
 31 32  1  0
 32 33  1  0
 27 34  1  0
 34 35  2  0
 23 36  2  0
 36 37  1  0
 37 38  3  0
 36  7  1  0
 21 10  1  0
 35 24  1  0
 19 14  1  0
 33 28  1  0
M  END
>  <Binding energies>  (19) 
[-9.04]

>  <Ligand effiencies>  (19) 
[-0.23789473684210524]

>  <Interactions>  (19) 
["V-A:ILE:538:CG2:4858, V-A:TYR:539:CE1:4870, V-A:PRO:540:CB:4880, V-A:LEU:363:CD1:3184, V-A:GLU:543:CD:4903, H-A:TYR:484:OH:4343, V-B:PRO:540:CA:9851, V-A:PRO:540:N:4879, H-B:ALA:541:N:9859, V-B:GLU:543:CD:9876, V-A:PRO:540:CD:4882, V-A:TYR:539:CG:4867, V-B:GLU:543:CB:9874, V-B:HIS:456:CE1:9037, V-B:GLU:543:CG:9875, H-A:TYR:539:N:4865, V-A:TYR:539:CD1:4868, V-B:HIS:456:CD2:9035, H-B:LYS:547:NZ:9919, V-A:HIS:456:CE1:4064, V-B:GLY:544:C:9880, V-B:ALA:541:CB:9860"]

$$$$
2d_Grossjean_2025
     RDKit          3D

 24 25  0  0  0  0  0  0  0  0999 V2000
  127.8210  131.1080   56.4450 C   0  0  0  0  0  0  0  0  0  0  0  0
  128.5190  131.4220   57.7550 C   0  0  0  0  0  0  0  0  0  0  0  0
  128.0110  132.3660   58.6440 C   0  0  0  0  0  0  0  0  0  0  0  0
  128.6900  132.6180   59.8450 C   0  0  0  0  0  0  0  0  0  0  0  0
  128.1080  133.6590   60.8210 C   0  0  0  0  0  0  0  0  0  0  0  0
  127.0920  134.3040   60.2470 F   0  0  0  0  0  0  0  0  0  0  0  0
  127.6670  133.0540   61.9250 F   0  0  0  0  0  0  0  0  0  0  0  0
  129.0040  134.5740   61.1960 F   0  0  0  0  0  0  0  0  0  0  0  0
  129.8850  131.9010   60.1120 C   0  0  0  0  0  0  0  0  0  0  0  0
  130.6060  132.0940   61.3730 C   0  0  0  0  0  0  0  0  0  0  0  0
  131.1740  132.2450   62.3690 N   0  0  0  0  0  0  0  0  0  0  0  0
  130.3390  130.9790   59.1390 C   0  0  0  0  0  0  0  0  0  0  0  0
  131.8320  130.0190   59.2980 S   0  0  0  0  0  0  0  0  0  0  0  0
  133.1550  130.8320   58.3420 C   0  0  0  0  0  0  0  0  0  0  0  0
  132.6530  131.4550   57.0360 C   0  0  0  0  0  0  0  0  0  0  0  0
  132.7590  132.6720   56.8740 O   0  0  0  0  0  0  0  0  0  0  0  0
  132.0930  130.5980   56.1570 N   0  0  0  0  0  0  0  0  0  0  0  0
  131.5490  130.8580   54.8850 C   0  0  0  0  0  0  0  0  0  0  0  0
  132.0430  130.0790   53.8360 C   0  0  0  0  0  0  0  0  0  0  0  0
  131.5710  130.2670   52.5400 C   0  0  0  0  0  0  0  0  0  0  0  0
  130.6090  131.2430   52.2910 C   0  0  0  0  0  0  0  0  0  0  0  0
  130.1190  132.0350   53.3260 C   0  0  0  0  0  0  0  0  0  0  0  0
  130.5870  131.8490   54.6230 C   0  0  0  0  0  0  0  0  0  0  0  0
  129.6580  130.7330   57.9930 N   0  0  0  0  0  0  0  0  0  0  0  0
  1  2  1  0
  2  3  2  0
  3  4  1  0
  4  5  1  0
  5  6  1  0
  5  7  1  0
  5  8  1  0
  4  9  2  0
  9 10  1  0
 10 11  3  0
  9 12  1  0
 12 13  1  0
 13 14  1  0
 14 15  1  0
 15 16  2  0
 15 17  1  0
 17 18  1  0
 18 19  2  0
 19 20  1  0
 20 21  2  0
 21 22  1  0
 22 23  2  0
 12 24  2  0
 24  2  1  0
 23 18  1  0
M  END
>  <Binding energies>  (20) 
[-6.91]

>  <Ligand effiencies>  (20) 
[-0.2764]

>  <Interactions>  (20) 
["V-A:TYR:539:CE2:4871, V-A:PRO:540:CA:4878, V-A:MET:535:CG:4828, H-A:TYR:531:OH:4790, V-A:TYR:539:CE1:4870, V-A:TYR:539:CZ:4872, V-A:PRO:540:CB:4880, H-A:ALA:541:N:4886, V-A:ALA:541:CB:4887, V-A:ILE:538:CD1:4860, V-A:LEU:363:CD1:3184, V-A:TYR:539:CD2:4869, V-A:PRO:540:N:4879, V-A:TYR:531:CZ:4789, V-A:TYR:539:C:4862, V-A:TYR:531:CE1:4787, V-A:TYR:531:CE2:4788, V-A:TYR:539:CG:4867, V-A:MET:535:CB:4827, V-A:LEU:363:CA:3180, V-A:TYR:531:CD2:4786, V-A:ALA:541:CA:4885, V-A:TYR:531:CG:4784, V-A:PRO:540:C:4876, V-A:TYR:531:CD1:4785, V-A:MET:535:CA:4825"]

$$$$
2e_Grossjean_2025
     RDKit          3D

 25 26  0  0  0  0  0  0  0  0999 V2000
  130.4770  124.3790   55.5620 C   0  0  0  0  0  0  0  0  0  0  0  0
  129.5420  125.5490   55.3240 C   0  0  0  0  0  0  0  0  0  0  0  0
  128.1780  125.4670   55.6180 C   0  0  0  0  0  0  0  0  0  0  0  0
  127.3800  126.5880   55.3830 C   0  0  0  0  0  0  0  0  0  0  0  0
  127.9570  127.7500   54.8660 C   0  0  0  0  0  0  0  0  0  0  0  0
  129.3290  127.7600   54.5850 C   0  0  0  0  0  0  0  0  0  0  0  0
  129.8650  128.9680   54.1070 N   0  0  0  0  0  0  0  0  0  0  0  0
  130.5130  129.1900   52.9420 C   0  0  0  0  0  0  0  0  0  0  0  0
  130.6760  128.3510   52.0540 O   0  0  0  0  0  0  0  0  0  0  0  0
  131.1130  130.5880   52.7680 C   0  0  0  0  0  0  0  0  0  0  0  0
  129.8420  131.8910   52.8320 S   0  0  0  0  0  0  0  0  0  0  0  0
  128.9720  131.6320   54.3620 C   0  0  0  0  0  0  0  0  0  0  0  0
  127.7940  130.9730   54.2390 N   0  0  0  0  0  0  0  0  0  0  0  0
  127.0460  130.7730   55.3480 C   0  0  0  0  0  0  0  0  0  0  0  0
  125.7420  130.0290   55.1380 C   0  0  0  0  0  0  0  0  0  0  0  0
  127.4350  131.2230   56.6080 C   0  0  0  0  0  0  0  0  0  0  0  0
  128.6470  131.9150   56.7520 C   0  0  0  0  0  0  0  0  0  0  0  0
  129.0530  132.4250   58.1470 C   0  0  0  0  0  0  0  0  0  0  0  0
  128.3220  131.8210   59.0850 F   0  0  0  0  0  0  0  0  0  0  0  0
  130.3420  132.1660   58.3700 F   0  0  0  0  0  0  0  0  0  0  0  0
  128.8770  133.7400   58.2870 F   0  0  0  0  0  0  0  0  0  0  0  0
  129.4440  132.1280   55.5990 C   0  0  0  0  0  0  0  0  0  0  0  0
  130.7070  132.8690   55.6780 C   0  0  0  0  0  0  0  0  0  0  0  0
  131.7030  133.4560   55.7400 N   0  0  0  0  0  0  0  0  0  0  0  0
  130.1170  126.6710   54.8190 N   0  0  0  0  0  0  0  0  0  0  0  0
  1  2  1  0
  2  3  2  0
  3  4  1  0
  4  5  2  0
  5  6  1  0
  6  7  1  0
  7  8  1  0
  8  9  2  0
  8 10  1  0
 10 11  1  0
 11 12  1  0
 12 13  2  0
 13 14  1  0
 14 15  1  0
 14 16  2  0
 16 17  1  0
 17 18  1  0
 18 19  1  0
 18 20  1  0
 18 21  1  0
 17 22  2  0
 22 23  1  0
 23 24  3  0
  6 25  2  0
 25  2  1  0
 22 12  1  0
M  END
>  <Binding energies>  (21) 
[-6.67]

>  <Ligand effiencies>  (21) 
[-0.25653846153846155]

>  <Interactions>  (21) 
["V-A:TYR:539:CE2:4871, V-A:PRO:540:CA:4878, V-A:MET:535:CG:4828, H-A:TYR:531:OH:4790, V-A:TYR:539:CE1:4870, V-A:TYR:539:CZ:4872, V-A:ILE:538:CA:4855, V-A:PRO:540:CB:4880, V-A:ILE:538:CD1:4860, V-A:TYR:539:CD2:4869, V-B:MET:535:CE:9803, V-A:PRO:540:N:4879, V-A:TYR:539:C:4862, V-A:PRO:540:CD:4882, V-B:TYR:539:CZ:9845, V-A:TYR:531:CE1:4787, V-A:TYR:539:CG:4867, V-B:TYR:531:CZ:9762, V-A:MET:535:CB:4827, H-A:TYR:539:N:4865, V-A:TYR:539:CA:4864, V-A:TYR:539:CD1:4868, V-B:TYR:531:CE1:9760, H-A:MET:535:N:4826, V-A:TYR:539:CB:4866"]

$$$$
2f_Grossjean_2025
     RDKit          3D

 24 25  0  0  0  0  0  0  0  0999 V2000
  126.0210  129.8670   54.7400 C   0  0  0  0  0  0  0  0  0  0  0  0
  127.2680  130.6790   55.0370 C   0  0  0  0  0  0  0  0  0  0  0  0
  127.5630  131.1200   56.3250 C   0  0  0  0  0  0  0  0  0  0  0  0
  128.7250  131.8760   56.5470 C   0  0  0  0  0  0  0  0  0  0  0  0
  129.0270  132.3630   57.9760 C   0  0  0  0  0  0  0  0  0  0  0  0
  129.0110  133.6970   58.0190 F   0  0  0  0  0  0  0  0  0  0  0  0
  128.1090  131.8930   58.8210 F   0  0  0  0  0  0  0  0  0  0  0  0
  130.2220  131.9640   58.4180 F   0  0  0  0  0  0  0  0  0  0  0  0
  129.5690  132.1610   55.4430 C   0  0  0  0  0  0  0  0  0  0  0  0
  130.7620  132.9940   55.6130 C   0  0  0  0  0  0  0  0  0  0  0  0
  131.7050  133.6510   55.7490 N   0  0  0  0  0  0  0  0  0  0  0  0
  129.2020  131.6500   54.1750 C   0  0  0  0  0  0  0  0  0  0  0  0
  130.1480  131.9010   52.6860 S   0  0  0  0  0  0  0  0  0  0  0  0
  131.4620  130.6350   52.6300 C   0  0  0  0  0  0  0  0  0  0  0  0
  130.9940  129.1980   52.9010 C   0  0  0  0  0  0  0  0  0  0  0  0
  131.2470  128.2940   52.1040 O   0  0  0  0  0  0  0  0  0  0  0  0
  130.2920  129.0440   54.0450 N   0  0  0  0  0  0  0  0  0  0  0  0
  129.7290  127.8790   54.5990 C   0  0  0  0  0  0  0  0  0  0  0  0
  129.0050  127.8160   55.8040 C   0  0  0  0  0  0  0  0  0  0  0  0
  128.4940  126.5920   56.2400 C   0  0  0  0  0  0  0  0  0  0  0  0
  128.7170  125.4590   55.4570 C   0  0  0  0  0  0  0  0  0  0  0  0
  129.4050  125.4940   54.2880 N   0  0  0  0  0  0  0  0  0  0  0  0
  129.8940  126.6920   53.8770 C   0  0  0  0  0  0  0  0  0  0  0  0
  128.0650  130.9410   53.9760 N   0  0  0  0  0  0  0  0  0  0  0  0
  1  2  1  0
  2  3  2  0
  3  4  1  0
  4  5  1  0
  5  6  1  0
  5  7  1  0
  5  8  1  0
  4  9  2  0
  9 10  1  0
 10 11  3  0
  9 12  1  0
 12 13  1  0
 13 14  1  0
 14 15  1  0
 15 16  2  0
 15 17  1  0
 17 18  1  0
 18 19  2  0
 19 20  1  0
 20 21  2  0
 21 22  1  0
 22 23  2  0
 12 24  2  0
 24  2  1  0
 23 18  1  0
M  END
>  <Binding energies>  (22) 
[-7.1]

>  <Ligand effiencies>  (22) 
[-0.284]

>  <Interactions>  (22) 
["V-A:TYR:539:CE2:4871, V-A:PRO:540:CA:4878, V-A:ILE:538:CG2:4858, V-A:MET:535:CG:4828, V-A:TYR:539:CE1:4870, V-A:TYR:539:CZ:4872, V-A:ILE:538:CA:4855, V-A:PRO:540:CB:4880, V-A:ILE:538:CD1:4860, V-A:TYR:539:CD2:4869, H-A:LYS:534:NZ:4818, V-B:MET:535:CE:9803, V-A:PRO:540:N:4879, V-A:TYR:531:CZ:4789, V-A:TYR:539:C:4862, V-A:PRO:540:CD:4882, V-A:TYR:531:CE1:4787, V-A:TYR:539:CG:4867, V-B:TYR:531:CZ:9762, V-A:MET:535:CE:4830, V-A:MET:535:CB:4827, H-A:TYR:539:N:4865, V-A:TYR:539:CA:4864, V-A:TYR:539:CD1:4868, V-A:LYS:534:CD:4816, V-A:TYR:531:CD1:4785, V-B:TYR:531:CE1:9760, V-A:LYS:534:CE:4817, V-A:TYR:539:CB:4866"]

$$$$
2g_Grossjean_2025
     RDKit          3D

 25 26  0  0  0  0  0  0  0  0999 V2000
  124.9240  129.8860   57.7500 C   0  0  0  0  0  0  0  0  0  0  0  0
  125.6870  130.8820   58.6020 C   0  0  0  0  0  0  0  0  0  0  0  0
  125.0330  131.7360   59.4870 C   0  0  0  0  0  0  0  0  0  0  0  0
  125.7830  132.6460   60.2480 C   0  0  0  0  0  0  0  0  0  0  0  0
  125.0420  133.5900   61.2150 C   0  0  0  0  0  0  0  0  0  0  0  0
  123.7270  133.3700   61.1580 F   0  0  0  0  0  0  0  0  0  0  0  0
  125.4620  133.3780   62.4630 F   0  0  0  0  0  0  0  0  0  0  0  0
  125.2430  134.8790   60.9340 F   0  0  0  0  0  0  0  0  0  0  0  0
  127.1930  132.6580   60.0950 C   0  0  0  0  0  0  0  0  0  0  0  0
  128.0180  133.6260   60.8240 C   0  0  0  0  0  0  0  0  0  0  0  0
  128.6680  134.3910   61.3990 N   0  0  0  0  0  0  0  0  0  0  0  0
  127.7730  131.7320   59.1940 C   0  0  0  0  0  0  0  0  0  0  0  0
  129.5230  131.5950   58.9010 S   0  0  0  0  0  0  0  0  0  0  0  0
  130.0120  132.9950   57.8360 C   0  0  0  0  0  0  0  0  0  0  0  0
  129.7630  132.7790   56.3370 C   0  0  0  0  0  0  0  0  0  0  0  0
  130.4390  133.3580   55.4840 O   0  0  0  0  0  0  0  0  0  0  0  0
  128.7650  131.9290   56.0330 N   0  0  0  0  0  0  0  0  0  0  0  0
  128.3480  131.5580   54.6800 C   0  0  0  0  0  0  0  0  0  0  0  0
  129.4100  130.8180   53.8750 C   0  0  0  0  0  0  0  0  0  0  0  0
  129.5690  129.4380   54.0350 C   0  0  0  0  0  0  0  0  0  0  0  0
  130.5130  128.7540   53.2730 C   0  0  0  0  0  0  0  0  0  0  0  0
  131.2880  129.4490   52.3480 C   0  0  0  0  0  0  0  0  0  0  0  0
  131.1250  130.8230   52.1740 C   0  0  0  0  0  0  0  0  0  0  0  0
  130.1810  131.5070   52.9350 C   0  0  0  0  0  0  0  0  0  0  0  0
  127.0310  130.8760   58.4500 N   0  0  0  0  0  0  0  0  0  0  0  0
  1  2  1  0
  2  3  2  0
  3  4  1  0
  4  5  1  0
  5  6  1  0
  5  7  1  0
  5  8  1  0
  4  9  2  0
  9 10  1  0
 10 11  3  0
  9 12  1  0
 12 13  1  0
 13 14  1  0
 14 15  1  0
 15 16  2  0
 15 17  1  0
 17 18  1  0
 18 19  1  0
 19 20  2  0
 20 21  1  0
 21 22  2  0
 22 23  1  0
 23 24  2  0
 12 25  2  0
 25  2  1  0
 24 19  1  0
M  END
>  <Binding energies>  (23) 
[-6.68]

>  <Ligand effiencies>  (23) 
[-0.2569230769230769]

>  <Interactions>  (23) 
["V-A:TYR:539:CE2:4871, V-A:PRO:540:CA:4878, V-A:MET:535:CG:4828, V-A:TYR:539:CE1:4870, V-A:TYR:539:CZ:4872, V-B:LEU:475:CD2:9226, V-A:PRO:540:CB:4880, H-A:ALA:541:N:4886, V-A:ILE:538:CD1:4860, V-A:TYR:539:CD2:4869, H-A:TYR:539:OH:4873, V-A:PRO:540:N:4879, V-A:TYR:531:CZ:4789, V-A:TYR:539:C:4862, V-A:PRO:540:CD:4882, V-A:TYR:531:CE1:4787, V-B:ILE:369:CG2:8204, V-B:ILE:369:CD1:8206, V-B:ASP:366:CB:8179, V-B:TRP:381:CH2:8339, V-A:MET:535:CB:4827, H-A:TYR:539:N:4865, V-A:TYR:539:CD1:4868, V-B:ILE:369:CG1:8205, V-B:ILE:369:CB:8203, V-A:TYR:531:CD1:4785, V-A:LYS:534:CB:4814"]

$$$$
2h_Grossjean_2025
     RDKit          3D

 31 32  0  0  0  0  0  0  0  0999 V2000
  130.8050  131.7660   61.4280 C   0  0  0  0  0  0  0  0  0  0  0  0
  130.0030  131.3870   60.3140 O   0  0  0  0  0  0  0  0  0  0  0  0
  130.5750  131.3240   59.0560 C   0  0  0  0  0  0  0  0  0  0  0  0
  131.4510  130.3080   58.6430 C   0  0  0  0  0  0  0  0  0  0  0  0
  131.9820  130.3080   57.3560 C   0  0  0  0  0  0  0  0  0  0  0  0
  131.6510  131.3190   56.4530 C   0  0  0  0  0  0  0  0  0  0  0  0
  132.2290  131.2860   55.0390 C   0  0  0  0  0  0  0  0  0  0  0  0
  131.4330  130.4990   54.0970 N   0  0  0  0  0  0  0  0  0  0  0  0
  131.7050  130.3590   52.7880 C   0  0  0  0  0  0  0  0  0  0  0  0
  132.6210  130.9560   52.2210 O   0  0  0  0  0  0  0  0  0  0  0  0
  130.7950  129.3870   52.0230 C   0  0  0  0  0  0  0  0  0  0  0  0
  130.5230  127.7800   52.8420 S   0  0  0  0  0  0  0  0  0  0  0  0
  129.2200  128.0220   54.0300 C   0  0  0  0  0  0  0  0  0  0  0  0
  128.7330  129.2870   54.0540 N   0  0  0  0  0  0  0  0  0  0  0  0
  127.7520  129.5870   54.9340 C   0  0  0  0  0  0  0  0  0  0  0  0
  127.2600  131.0220   54.9100 C   0  0  0  0  0  0  0  0  0  0  0  0
  127.2170  128.6470   55.8140 C   0  0  0  0  0  0  0  0  0  0  0  0
  127.6950  127.3280   55.7890 C   0  0  0  0  0  0  0  0  0  0  0  0
  127.0850  126.3010   56.7630 C   0  0  0  0  0  0  0  0  0  0  0  0
  126.2400  126.9100   57.5950 F   0  0  0  0  0  0  0  0  0  0  0  0
  126.4070  125.3360   56.1380 F   0  0  0  0  0  0  0  0  0  0  0  0
  128.0490  125.7170   57.4760 F   0  0  0  0  0  0  0  0  0  0  0  0
  128.7190  126.9960   54.8660 C   0  0  0  0  0  0  0  0  0  0  0  0
  129.2110  125.6200   54.7600 C   0  0  0  0  0  0  0  0  0  0  0  0
  129.5950  124.5320   54.6760 N   0  0  0  0  0  0  0  0  0  0  0  0
  130.7950  132.3540   56.8590 C   0  0  0  0  0  0  0  0  0  0  0  0
  130.4670  133.3560   55.9760 O   0  0  0  0  0  0  0  0  0  0  0  0
  129.6790  132.9300   54.8720 C   0  0  0  0  0  0  0  0  0  0  0  0
  130.2460  132.3430   58.1520 C   0  0  0  0  0  0  0  0  0  0  0  0
  129.3920  133.3450   58.5470 O   0  0  0  0  0  0  0  0  0  0  0  0
  128.0860  132.8970   58.8840 C   0  0  0  0  0  0  0  0  0  0  0  0
  1  2  1  0
  2  3  1  0
  3  4  2  0
  4  5  1  0
  5  6  2  0
  6  7  1  0
  7  8  1  0
  8  9  1  0
  9 10  2  0
  9 11  1  0
 11 12  1  0
 12 13  1  0
 13 14  2  0
 14 15  1  0
 15 16  1  0
 15 17  2  0
 17 18  1  0
 18 19  1  0
 19 20  1  0
 19 21  1  0
 19 22  1  0
 18 23  2  0
 23 24  1  0
 24 25  3  0
  6 26  1  0
 26 27  1  0
 27 28  1  0
 26 29  2  0
 29 30  1  0
 30 31  1  0
 29  3  1  0
 23 13  1  0
M  END
>  <Binding energies>  (24) 
[-6.73]

>  <Ligand effiencies>  (24) 
[-0.2103125]

>  <Interactions>  (24) 
["V-A:TYR:539:CE2:4871, V-A:PRO:540:CA:4878, V-A:MET:535:CG:4828, V-A:TYR:539:CE1:4870, V-A:TYR:539:CZ:4872, V-A:ILE:538:CA:4855, V-A:PRO:540:CB:4880, V-A:ILE:538:CD1:4860, V-A:LEU:363:CD1:3184, V-A:TYR:539:CD2:4869, H-A:LYS:534:NZ:4818, H-B:TYR:539:OH:9846, V-B:MET:535:CE:9803, V-A:PRO:540:N:4879, V-A:TYR:531:CZ:4789, V-A:TYR:539:C:4862, V-A:PRO:540:CD:4882, V-A:TYR:531:CE2:4788, V-A:TYR:539:CG:4867, V-B:TYR:531:CZ:9762, V-A:MET:535:CB:4827, H-A:TYR:539:N:4865, V-A:TYR:539:CD1:4868, V-A:LYS:534:CB:4814, H-A:ILE:532:N:4796"]

$$$$
2i_Grossjean_2025
     RDKit          3D

 23 24  0  0  0  0  0  0  0  0999 V2000
  126.0320  129.6480   54.9590 C   0  0  0  0  0  0  0  0  0  0  0  0
  127.2450  130.5280   55.2000 C   0  0  0  0  0  0  0  0  0  0  0  0
  127.5330  131.0440   56.4610 C   0  0  0  0  0  0  0  0  0  0  0  0
  128.6680  131.8500   56.6330 C   0  0  0  0  0  0  0  0  0  0  0  0
  128.9720  132.4130   58.0340 C   0  0  0  0  0  0  0  0  0  0  0  0
  128.9560  133.7470   58.0030 F   0  0  0  0  0  0  0  0  0  0  0  0
  128.0560  131.9900   58.9060 F   0  0  0  0  0  0  0  0  0  0  0  0
  130.1670  132.0360   58.4940 F   0  0  0  0  0  0  0  0  0  0  0  0
  129.4880  132.1140   55.5070 C   0  0  0  0  0  0  0  0  0  0  0  0
  130.6870  132.9490   55.6300 C   0  0  0  0  0  0  0  0  0  0  0  0
  131.6340  133.6080   55.7260 N   0  0  0  0  0  0  0  0  0  0  0  0
  129.1200  131.5510   54.2630 C   0  0  0  0  0  0  0  0  0  0  0  0
  130.0710  131.8210   52.7760 S   0  0  0  0  0  0  0  0  0  0  0  0
  131.4930  130.6880   52.8020 C   0  0  0  0  0  0  0  0  0  0  0  0
  131.0650  129.2230   52.9080 C   0  0  0  0  0  0  0  0  0  0  0  0
  131.4680  128.4190   52.0650 O   0  0  0  0  0  0  0  0  0  0  0  0
  130.2360  128.9250   53.9310 N   0  0  0  0  0  0  0  0  0  0  0  0
  129.6990  127.6830   54.2260 C   0  0  0  0  0  0  0  0  0  0  0  0
  128.8090  127.3020   55.2400 C   0  0  0  0  0  0  0  0  0  0  0  0
  128.6220  125.9520   55.0520 C   0  0  0  0  0  0  0  0  0  0  0  0
  129.3500  125.5480   53.9840 O   0  0  0  0  0  0  0  0  0  0  0  0
  130.0230  126.6580   53.4680 N   0  0  0  0  0  0  0  0  0  0  0  0
  128.0180  130.7720   54.1180 N   0  0  0  0  0  0  0  0  0  0  0  0
  1  2  1  0
  2  3  2  0
  3  4  1  0
  4  5  1  0
  5  6  1  0
  5  7  1  0
  5  8  1  0
  4  9  2  0
  9 10  1  0
 10 11  3  0
  9 12  1  0
 12 13  1  0
 13 14  1  0
 14 15  1  0
 15 16  2  0
 15 17  1  0
 17 18  1  0
 18 19  1  0
 19 20  2  0
 20 21  1  0
 21 22  1  0
 12 23  2  0
 23  2  1  0
 22 18  2  0
M  END
>  <Binding energies>  (25) 
[-7.36]

>  <Ligand effiencies>  (25) 
[-0.3066666666666667]

>  <Interactions>  (25) 
["V-A:TYR:539:CE2:4871, V-A:PRO:540:CA:4878, V-A:MET:535:CG:4828, V-A:TYR:539:CE1:4870, V-A:TYR:539:CZ:4872, V-A:ILE:538:CA:4855, V-A:PRO:540:CB:4880, V-A:ILE:538:CD1:4860, V-A:TYR:539:CD2:4869, H-A:LYS:534:NZ:4818, V-B:MET:535:CE:9803, V-A:PRO:540:N:4879, V-A:TYR:531:CZ:4789, V-A:TYR:539:C:4862, V-A:PRO:540:CD:4882, V-A:TYR:531:CE1:4787, V-A:TYR:539:CG:4867, V-B:TYR:531:CZ:9762, V-A:MET:535:CB:4827, H-A:TYR:539:N:4865, V-A:TYR:539:CA:4864, V-A:TYR:539:CD1:4868, V-A:TYR:531:CD1:4785, V-B:TYR:531:CE1:9760, V-A:TYR:539:CB:4866"]

$$$$
2k_Grossjean_2025
     RDKit          3D

 28 28  0  0  0  0  0  0  0  0999 V2000
  129.8390  124.6450   68.2490 C   0  0  0  0  0  0  0  0  0  0  0  0
  130.5740  125.3530   67.2630 O   0  0  0  0  0  0  0  0  0  0  0  0
  130.2740  124.9480   65.9330 C   0  0  0  0  0  0  0  0  0  0  0  0
  130.7300  126.0310   64.9470 C   0  0  0  0  0  0  0  0  0  0  0  0
  132.1400  126.1770   65.0390 O   0  0  0  0  0  0  0  0  0  0  0  0
  132.7930  125.1160   65.7250 C   0  0  0  0  0  0  0  0  0  0  0  0
  134.2820  125.1450   65.3560 C   0  0  0  0  0  0  0  0  0  0  0  0
  134.3980  124.7780   63.9900 O   0  0  0  0  0  0  0  0  0  0  0  0
  133.4550  123.8170   63.5410 C   0  0  0  0  0  0  0  0  0  0  0  0
  132.7350  124.3680   62.2960 C   0  0  0  0  0  0  0  0  0  0  0  0
  131.4140  123.7700   62.0880 N   0  0  0  0  0  0  0  0  0  0  0  0
  130.7320  123.0420   62.9930 C   0  0  0  0  0  0  0  0  0  0  0  0
  131.1440  122.8200   64.1330 O   0  0  0  0  0  0  0  0  0  0  0  0
  129.3890  122.4710   62.5140 C   0  0  0  0  0  0  0  0  0  0  0  0
  129.2050  122.3210   60.7030 S   0  0  0  0  0  0  0  0  0  0  0  0
  127.5810  122.8950   60.2210 C   0  0  0  0  0  0  0  0  0  0  0  0
  126.6970  123.0780   61.2350 N   0  0  0  0  0  0  0  0  0  0  0  0
  125.4490  123.5060   60.9430 C   0  0  0  0  0  0  0  0  0  0  0  0
  124.5180  123.6740   62.1280 C   0  0  0  0  0  0  0  0  0  0  0  0
  125.0340  123.7810   59.6440 C   0  0  0  0  0  0  0  0  0  0  0  0
  125.9330  123.6080   58.5810 C   0  0  0  0  0  0  0  0  0  0  0  0
  125.4590  123.9220   57.1490 C   0  0  0  0  0  0  0  0  0  0  0  0
  126.2590  124.7820   56.5170 F   0  0  0  0  0  0  0  0  0  0  0  0
  125.4210  122.8020   56.4240 F   0  0  0  0  0  0  0  0  0  0  0  0
  124.2380  124.4570   57.1800 F   0  0  0  0  0  0  0  0  0  0  0  0
  127.2440  123.1510   58.8710 C   0  0  0  0  0  0  0  0  0  0  0  0
  128.2240  122.9480   57.7990 C   0  0  0  0  0  0  0  0  0  0  0  0
  128.9980  122.7890   56.9530 N   0  0  0  0  0  0  0  0  0  0  0  0
  1  2  1  0
  2  3  1  0
  3  4  1  0
  4  5  1  0
  5  6  1  0
  6  7  1  0
  7  8  1  0
  8  9  1  0
  9 10  1  0
 10 11  1  0
 11 12  1  0
 12 13  2  0
 12 14  1  0
 14 15  1  0
 15 16  1  0
 16 17  2  0
 17 18  1  0
 18 19  1  0
 18 20  2  0
 20 21  1  0
 21 22  1  0
 22 23  1  0
 22 24  1  0
 22 25  1  0
 21 26  2  0
 26 27  1  0
 27 28  3  0
 26 16  1  0
M  END
>  <Binding energies>  (26) 
[-5.71]

>  <Ligand effiencies>  (26) 
[-0.19689655172413792]

>  <Interactions>  (26) 
["V-A:ASP:366:CG:3208, V-B:LEU:363:CD1:8156, V-A:GLY:454:CA:4044, V-A:ARG:545:CZ:4921, V-B:TYR:531:CE2:9761, H-A:GLY:454:N:4045, H-A:TYR:484:OH:4343, V-B:PRO:540:CA:9851, V-B:MET:535:CE:9803, H-B:ALA:541:N:9859, V-B:GLU:543:CD:9876, V-B:PRO:540:N:9852, V-B:PRO:540:CB:9853, V-B:TYR:539:C:9835, V-B:TYR:531:CZ:9762, V-B:GLU:543:CB:9874, V-B:GLU:543:CG:9875, V-A:HIS:456:CE1:4064, V-B:GLU:543:C:9870, H-A:ARG:545:NH2:4923, H-A:HIS:456:NE2:4065, V-A:TYR:484:CZ:4342, V-A:TYR:484:CE1:4340, V-B:PRO:540:C:9849, V-B:ALA:541:CB:9860, V-B:PRO:540:CD:9855, V-A:ARG:545:CD:4918, H-A:ARG:545:NE:4919, H-A:ARG:545:NH1:4922, V-B:GLU:543:CA:9872, V-B:ASN:362:CB:8143, V-A:GLY:453:C:4037, V-A:GLY:453:CA:4039, V-B:ASN:362:CG:8144"]

$$$$
3aa_Grossjean_2025
     RDKit          3D

 34 36  0  0  0  0  0  0  0  0999 V2000
  123.3240  130.1170   66.2630 C   0  0  0  0  0  0  0  0  0  0  0  0
  124.1630  130.1010   64.9820 C   0  0  0  0  0  0  0  0  0  0  0  0
  123.4000  130.6380   63.9080 O   0  0  0  0  0  0  0  0  0  0  0  0
  123.8410  131.7130   63.2060 C   0  0  0  0  0  0  0  0  0  0  0  0
  123.8500  132.8630   63.6570 O   0  0  0  0  0  0  0  0  0  0  0  0
  124.3040  131.3670   61.8190 C   0  0  0  0  0  0  0  0  0  0  0  0
  125.2750  130.3830   61.5830 C   0  0  0  0  0  0  0  0  0  0  0  0
  125.6770  130.0840   60.2840 C   0  0  0  0  0  0  0  0  0  0  0  0
  125.1150  130.7560   59.1970 C   0  0  0  0  0  0  0  0  0  0  0  0
  125.5900  130.3750   57.9260 N   0  0  0  0  0  0  0  0  0  0  0  0
  125.9890  129.1620   57.4840 C   0  0  0  0  0  0  0  0  0  0  0  0
  126.0300  128.1330   58.1600 O   0  0  0  0  0  0  0  0  0  0  0  0
  126.4320  129.1070   56.0220 C   0  0  0  0  0  0  0  0  0  0  0  0
  126.7400  130.7660   55.3460 S   0  0  0  0  0  0  0  0  0  0  0  0
  128.1410  131.4320   56.2170 C   0  0  0  0  0  0  0  0  0  0  0  0
  127.8640  131.7980   57.4920 N   0  0  0  0  0  0  0  0  0  0  0  0
  128.8450  132.3240   58.2690 C   0  0  0  0  0  0  0  0  0  0  0  0
  128.4640  132.6910   59.6710 C   0  0  0  0  0  0  0  0  0  0  0  0
  129.3080  132.3750   60.7480 C   0  0  0  0  0  0  0  0  0  0  0  0
  128.9610  132.7140   62.0540 C   0  0  0  0  0  0  0  0  0  0  0  0
  127.7620  133.3740   62.3000 C   0  0  0  0  0  0  0  0  0  0  0  0
  126.9100  133.7010   61.2500 C   0  0  0  0  0  0  0  0  0  0  0  0
  127.2600  133.3630   59.9460 C   0  0  0  0  0  0  0  0  0  0  0  0
  130.1440  132.4860   57.7760 C   0  0  0  0  0  0  0  0  0  0  0  0
  130.4500  132.1300   56.4530 C   0  0  0  0  0  0  0  0  0  0  0  0
  131.8890  132.3350   55.9430 C   0  0  0  0  0  0  0  0  0  0  0  0
  132.3640  131.2710   55.2920 F   0  0  0  0  0  0  0  0  0  0  0  0
  131.9370  133.3690   55.1030 F   0  0  0  0  0  0  0  0  0  0  0  0
  132.7050  132.5750   56.9700 F   0  0  0  0  0  0  0  0  0  0  0  0
  129.4190  131.5980   55.6410 C   0  0  0  0  0  0  0  0  0  0  0  0
  129.6680  131.2620   54.2360 C   0  0  0  0  0  0  0  0  0  0  0  0
  129.8630  130.9980   53.1260 N   0  0  0  0  0  0  0  0  0  0  0  0
  124.1530  131.7510   59.4270 C   0  0  0  0  0  0  0  0  0  0  0  0
  123.7540  132.0490   60.7260 C   0  0  0  0  0  0  0  0  0  0  0  0
  1  2  1  0
  2  3  1  0
  3  4  1  0
  4  5  2  0
  4  6  1  0
  6  7  2  0
  7  8  1  0
  8  9  2  0
  9 10  1  0
 10 11  1  0
 11 12  2  0
 11 13  1  0
 13 14  1  0
 14 15  1  0
 15 16  2  0
 16 17  1  0
 17 18  1  0
 18 19  2  0
 19 20  1  0
 20 21  2  0
 21 22  1  0
 22 23  2  0
 17 24  2  0
 24 25  1  0
 25 26  1  0
 26 27  1  0
 26 28  1  0
 26 29  1  0
 25 30  2  0
 30 31  1  0
 31 32  3  0
  9 33  1  0
 33 34  2  0
 34  6  1  0
 30 15  1  0
 23 18  1  0
M  END
>  <Binding energies>  (27) 
[-8.32]

>  <Ligand effiencies>  (27) 
[-0.2377142857142857]

>  <Interactions>  (27) 
["V-A:TYR:539:CE2:4871, V-A:PRO:540:CA:4878, V-A:ILE:538:CG2:4858, V-A:MET:535:CG:4828, V-A:ILE:538:C:4853, V-A:TYR:539:CE1:4870, V-A:TYR:539:CZ:4872, V-B:LEU:475:CD2:9226, V-A:ILE:538:CA:4855, V-A:PRO:540:CB:4880, H-B:TYR:531:OH:9763, V-A:ALA:541:CB:4887, V-A:ILE:538:CD1:4860, V-A:LEU:363:CD1:3184, V-A:TYR:539:CD2:4869, V-A:ILE:538:CB:4857, H-A:TYR:539:OH:4873, V-A:PRO:540:CG:4881, V-A:PRO:540:N:4879, V-A:TYR:531:CZ:4789, V-A:TYR:539:C:4862, V-A:PRO:540:CD:4882, V-A:TYR:531:CE2:4788, V-B:ILE:369:CG2:8204, H-B:GLY:454:N:9017, V-B:ILE:369:CD1:8206, V-B:TYR:531:CZ:9762, V-B:HIS:456:CE1:9037, V-A:MET:535:CB:4827, V-A:TYR:539:CD1:4868, H-B:TYR:484:OH:9315, V-B:ARG:545:CZ:9894, V-B:ARG:545:CD:9891, V-B:ARG:545:CG:9890, V-B:GLY:454:CA:9016, V-B:GLY:453:CA:9011, V-B:GLY:453:C:9009"]

$$$$
3ad_Grossjean_2025
     RDKit          3D

 29 31  0  0  0  0  0  0  0  0999 V2000
  131.2230  132.2410   62.2890 N   0  0  0  0  0  0  0  0  0  0  0  0
  130.5950  132.0760   61.3310 C   0  0  0  0  0  0  0  0  0  0  0  0
  129.7970  131.8690   60.1180 C   0  0  0  0  0  0  0  0  0  0  0  0
  128.6020  132.5970   59.9050 C   0  0  0  0  0  0  0  0  0  0  0  0
  128.0910  133.6660   60.8910 C   0  0  0  0  0  0  0  0  0  0  0  0
  129.0260  134.5620   61.2130 F   0  0  0  0  0  0  0  0  0  0  0  0
  127.0660  134.3290   60.3520 F   0  0  0  0  0  0  0  0  0  0  0  0
  127.6850  133.0890   62.0230 F   0  0  0  0  0  0  0  0  0  0  0  0
  127.8500  132.3290   58.7510 C   0  0  0  0  0  0  0  0  0  0  0  0
  128.2790  131.3600   57.8370 C   0  0  0  0  0  0  0  0  0  0  0  0
  127.5070  131.0230   56.5960 C   0  0  0  0  0  0  0  0  0  0  0  0
  126.2950  130.3190   56.6740 C   0  0  0  0  0  0  0  0  0  0  0  0
  125.5730  130.0030   55.5260 C   0  0  0  0  0  0  0  0  0  0  0  0
  126.0560  130.3910   54.2800 C   0  0  0  0  0  0  0  0  0  0  0  0
  127.2520  131.0920   54.1760 C   0  0  0  0  0  0  0  0  0  0  0  0
  127.9710  131.4060   55.3270 C   0  0  0  0  0  0  0  0  0  0  0  0
  129.4220  130.6610   58.0490 N   0  0  0  0  0  0  0  0  0  0  0  0
  130.1750  130.9170   59.1450 C   0  0  0  0  0  0  0  0  0  0  0  0
  131.6420  129.9170   59.2530 S   0  0  0  0  0  0  0  0  0  0  0  0
  132.9670  130.8080   58.3850 C   0  0  0  0  0  0  0  0  0  0  0  0
  132.4760  131.4520   57.0860 C   0  0  0  0  0  0  0  0  0  0  0  0
  132.5520  132.6740   56.9580 O   0  0  0  0  0  0  0  0  0  0  0  0
  131.9870  130.5950   56.1640 N   0  0  0  0  0  0  0  0  0  0  0  0
  131.4750  130.8510   54.8780 C   0  0  0  0  0  0  0  0  0  0  0  0
  131.5630  129.7930   53.9690 C   0  0  0  0  0  0  0  0  0  0  0  0
  131.0900  129.9410   52.6690 C   0  0  0  0  0  0  0  0  0  0  0  0
  130.5300  131.1530   52.2720 C   0  0  0  0  0  0  0  0  0  0  0  0
  130.4420  132.2170   53.1650 C   0  0  0  0  0  0  0  0  0  0  0  0
  130.9150  132.0730   54.4670 C   0  0  0  0  0  0  0  0  0  0  0  0
  1  2  3  0
  2  3  1  0
  3  4  2  0
  4  5  1  0
  5  6  1  0
  5  7  1  0
  5  8  1  0
  4  9  1  0
  9 10  2  0
 10 11  1  0
 11 12  2  0
 12 13  1  0
 13 14  2  0
 14 15  1  0
 15 16  2  0
 10 17  1  0
 17 18  2  0
 18 19  1  0
 19 20  1  0
 20 21  1  0
 21 22  2  0
 21 23  1  0
 23 24  1  0
 24 25  2  0
 25 26  1  0
 26 27  2  0
 27 28  1  0
 28 29  2  0
 18  3  1  0
 29 24  1  0
 16 11  1  0
M  END
>  <Binding energies>  (28) 
[-8.1]

>  <Ligand effiencies>  (28) 
[-0.26999999999999996]

>  <Interactions>  (28) 
["V-A:TYR:539:CE2:4871, V-A:PRO:540:CA:4878, V-A:MET:535:CG:4828, H-A:TYR:531:OH:4790, V-A:TYR:539:CE1:4870, V-A:TYR:539:CZ:4872, V-A:ILE:538:CA:4855, V-A:PRO:540:CB:4880, H-A:ALA:541:N:4886, V-A:ALA:541:CB:4887, V-A:ILE:538:CD1:4860, V-A:LEU:363:CD1:3184, V-A:TYR:539:CD2:4869, V-A:PRO:540:N:4879, V-A:TYR:531:CZ:4789, V-A:TYR:539:C:4862, V-A:TYR:531:CE1:4787, V-A:TYR:531:CE2:4788, V-B:TYR:531:CZ:9762, V-A:MET:535:CE:4830, V-A:MET:535:CB:4827, V-A:ALA:541:CA:4885, V-A:TYR:539:CD1:4868, V-A:PRO:540:C:4876, V-A:TYR:531:CD1:4785, V-B:TYR:531:CE1:9760, V-A:VAL:537:C:4845, V-A:MET:535:CA:4825"]

$$$$
3ai_Grossjean_2025
     RDKit          3D

 28 30  0  0  0  0  0  0  0  0999 V2000
  124.2380  132.2570   59.5250 N   0  0  0  0  0  0  0  0  0  0  0  0
  125.3830  132.0930   59.5430 C   0  0  0  0  0  0  0  0  0  0  0  0
  126.8350  131.8860   59.5670 C   0  0  0  0  0  0  0  0  0  0  0  0
  127.6770  132.7510   60.3090 C   0  0  0  0  0  0  0  0  0  0  0  0
  127.1320  133.9140   61.1590 C   0  0  0  0  0  0  0  0  0  0  0  0
  126.1950  134.6230   60.5260 F   0  0  0  0  0  0  0  0  0  0  0  0
  126.5900  133.4420   62.2820 F   0  0  0  0  0  0  0  0  0  0  0  0
  128.1200  134.7530   61.4750 F   0  0  0  0  0  0  0  0  0  0  0  0
  129.0630  132.5390   60.2610 C   0  0  0  0  0  0  0  0  0  0  0  0
  129.5940  131.4980   59.4940 C   0  0  0  0  0  0  0  0  0  0  0  0
  131.0670  131.2330   59.3980 C   0  0  0  0  0  0  0  0  0  0  0  0
  131.6920  131.1070   58.1470 C   0  0  0  0  0  0  0  0  0  0  0  0
  133.0590  130.8660   58.0500 C   0  0  0  0  0  0  0  0  0  0  0  0
  133.8230  130.7490   59.2060 C   0  0  0  0  0  0  0  0  0  0  0  0
  133.2280  130.8720   60.4580 C   0  0  0  0  0  0  0  0  0  0  0  0
  131.8610  131.1130   60.5510 C   0  0  0  0  0  0  0  0  0  0  0  0
  128.7840  130.6770   58.7780 N   0  0  0  0  0  0  0  0  0  0  0  0
  127.4400  130.8460   58.8270 C   0  0  0  0  0  0  0  0  0  0  0  0
  126.5410  129.6640   57.8450 S   0  0  0  0  0  0  0  0  0  0  0  0
  126.3140  130.3760   56.1800 C   0  0  0  0  0  0  0  0  0  0  0  0
  127.6060  130.8440   55.4930 C   0  0  0  0  0  0  0  0  0  0  0  0
  127.8980  130.4470   54.3620 O   0  0  0  0  0  0  0  0  0  0  0  0
  128.3580  131.6950   56.2260 N   0  0  0  0  0  0  0  0  0  0  0  0
  129.5640  132.2800   55.8610 C   0  0  0  0  0  0  0  0  0  0  0  0
  130.3870  131.7690   54.8590 C   0  0  0  0  0  0  0  0  0  0  0  0
  131.4650  132.6210   54.8090 C   0  0  0  0  0  0  0  0  0  0  0  0
  131.3000  133.5980   55.7330 O   0  0  0  0  0  0  0  0  0  0  0  0
  130.0910  133.3710   56.3930 N   0  0  0  0  0  0  0  0  0  0  0  0
  1  2  3  0
  2  3  1  0
  3  4  2  0
  4  5  1  0
  5  6  1  0
  5  7  1  0
  5  8  1  0
  4  9  1  0
  9 10  2  0
 10 11  1  0
 11 12  2  0
 12 13  1  0
 13 14  2  0
 14 15  1  0
 15 16  2  0
 10 17  1  0
 17 18  2  0
 18 19  1  0
 19 20  1  0
 20 21  1  0
 21 22  2  0
 21 23  1  0
 23 24  1  0
 24 25  1  0
 25 26  2  0
 26 27  1  0
 27 28  1  0
 18  3  1  0
 28 24  2  0
 16 11  1  0
M  END
>  <Binding energies>  (29) 
[-7.66]

>  <Ligand effiencies>  (29) 
[-0.26413793103448274]

>  <Interactions>  (29) 
["V-A:TYR:539:CE2:4871, V-A:PRO:540:CA:4878, V-A:ILE:538:CG2:4858, V-A:TYR:539:CE1:4870, V-A:TYR:539:CZ:4872, V-B:LEU:475:CD2:9226, V-A:ILE:538:CA:4855, V-A:PRO:540:CB:4880, V-A:ALA:541:CB:4887, V-A:ILE:538:CD1:4860, V-A:LEU:363:CD1:3184, V-A:TYR:539:CD2:4869, H-A:TYR:539:OH:4873, V-A:TYR:531:CE2:4788, V-B:TRP:381:CH2:8339, V-A:LEU:363:CA:3180, H-A:TYR:539:N:4865, V-A:LEU:363:CB:3182, V-A:TYR:539:CD1:4868, V-A:ASN:362:C:3167, V-A:ASN:362:CB:3171, V-A:PRO:540:C:4876"]

$$$$
3aj_Grossjean_2025
     RDKit          3D

 28 30  0  0  0  0  0  0  0  0999 V2000
  130.5110  132.4570   62.9570 N   0  0  0  0  0  0  0  0  0  0  0  0
  129.9720  132.2410   61.9560 C   0  0  0  0  0  0  0  0  0  0  0  0
  129.2870  131.9700   60.6890 C   0  0  0  0  0  0  0  0  0  0  0  0
  128.1460  132.7170   60.3090 C   0  0  0  0  0  0  0  0  0  0  0  0
  127.5840  133.8700   61.1630 C   0  0  0  0  0  0  0  0  0  0  0  0
  127.1800  133.4690   62.3710 F   0  0  0  0  0  0  0  0  0  0  0  0
  128.5180  134.8040   61.3390 F   0  0  0  0  0  0  0  0  0  0  0  0
  126.5320  134.4190   60.5530 F   0  0  0  0  0  0  0  0  0  0  0  0
  127.4980  132.3860   59.1080 C   0  0  0  0  0  0  0  0  0  0  0  0
  127.9740  131.3390   58.3120 C   0  0  0  0  0  0  0  0  0  0  0  0
  127.3160  130.9390   57.0280 C   0  0  0  0  0  0  0  0  0  0  0  0
  126.0330  130.3690   57.0270 C   0  0  0  0  0  0  0  0  0  0  0  0
  125.4130  129.9980   55.8360 C   0  0  0  0  0  0  0  0  0  0  0  0
  126.0720  130.1930   54.6260 C   0  0  0  0  0  0  0  0  0  0  0  0
  127.3430  130.7570   54.6000 C   0  0  0  0  0  0  0  0  0  0  0  0
  127.9580  131.1270   55.7920 C   0  0  0  0  0  0  0  0  0  0  0  0
  129.0650  130.6210   58.6850 N   0  0  0  0  0  0  0  0  0  0  0  0
  129.7210  130.9360   59.8270 C   0  0  0  0  0  0  0  0  0  0  0  0
  131.1370  129.9040   60.1400 S   0  0  0  0  0  0  0  0  0  0  0  0
  132.6070  130.7540   59.4710 C   0  0  0  0  0  0  0  0  0  0  0  0
  132.5790  131.0040   57.9560 C   0  0  0  0  0  0  0  0  0  0  0  0
  133.5250  130.6620   57.2430 O   0  0  0  0  0  0  0  0  0  0  0  0
  131.4590  131.6100   57.5050 N   0  0  0  0  0  0  0  0  0  0  0  0
  131.1710  131.9460   56.1890 C   0  0  0  0  0  0  0  0  0  0  0  0
  130.6290  133.0570   55.7380 N   0  0  0  0  0  0  0  0  0  0  0  0
  130.5040  133.0390   54.4260 C   0  0  0  0  0  0  0  0  0  0  0  0
  130.9510  131.8890   53.7810 C   0  0  0  0  0  0  0  0  0  0  0  0
  131.5650  130.7780   54.9680 S   0  0  0  0  0  0  0  0  0  0  0  0
  1  2  3  0
  2  3  1  0
  3  4  2  0
  4  5  1  0
  5  6  1  0
  5  7  1  0
  5  8  1  0
  4  9  1  0
  9 10  2  0
 10 11  1  0
 11 12  2  0
 12 13  1  0
 13 14  2  0
 14 15  1  0
 15 16  2  0
 10 17  1  0
 17 18  2  0
 18 19  1  0
 19 20  1  0
 20 21  1  0
 21 22  2  0
 21 23  1  0
 23 24  1  0
 24 25  2  0
 25 26  1  0
 26 27  2  0
 27 28  1  0
 18  3  1  0
 28 24  1  0
 16 11  1  0
M  END
>  <Binding energies>  (30) 
[-7.24]

>  <Ligand effiencies>  (30) 
[-0.24965517241379312]

>  <Interactions>  (30) 
["V-A:TYR:539:CE2:4871, V-A:PRO:540:CA:4878, V-A:ILE:538:CG2:4858, V-A:MET:535:CG:4828, V-A:ILE:538:C:4853, H-A:TYR:531:OH:4790, V-A:TYR:539:CE1:4870, V-A:TYR:539:CZ:4872, V-B:LEU:475:CD2:9226, V-A:ILE:538:CA:4855, V-A:PRO:540:CB:4880, H-A:ALA:541:N:4886, V-A:ALA:541:CB:4887, V-A:ILE:538:CD1:4860, V-A:LEU:363:CD1:3184, V-A:TYR:539:CD2:4869, V-A:ILE:538:CB:4857, V-A:TYR:531:CZ:4789, V-A:TYR:539:C:4862, V-A:TYR:531:CE2:4788, V-B:TYR:531:CZ:9762, V-A:MET:535:CE:4830, V-A:MET:535:CB:4827, H-A:TYR:539:N:4865, V-A:ALA:541:CA:4885, V-A:TYR:539:CD1:4868, V-A:PRO:540:C:4876, V-B:TYR:531:CE1:9760, V-A:VAL:537:C:4845"]

$$$$
3ak_Grossjean_2025
     RDKit          3D

 33 34  0  0  0  0  0  0  0  0999 V2000
  127.3230  122.5200   56.8220 C   0  0  0  0  0  0  0  0  0  0  0  0
  128.5760  122.7550   56.1990 O   0  0  0  0  0  0  0  0  0  0  0  0
  129.1070  124.0460   56.4680 C   0  0  0  0  0  0  0  0  0  0  0  0
  130.2050  124.3570   55.4440 C   0  0  0  0  0  0  0  0  0  0  0  0
  129.7790  125.4390   54.6220 O   0  0  0  0  0  0  0  0  0  0  0  0
  129.6940  126.7060   55.2690 C   0  0  0  0  0  0  0  0  0  0  0  0
  129.7530  127.9020   54.3010 C   0  0  0  0  0  0  0  0  0  0  0  0
  130.3380  129.0130   54.9660 O   0  0  0  0  0  0  0  0  0  0  0  0
  130.6340  130.1070   54.1080 C   0  0  0  0  0  0  0  0  0  0  0  0
  131.7330  130.9870   54.7310 C   0  0  0  0  0  0  0  0  0  0  0  0
  132.1280  130.5670   56.0770 N   0  0  0  0  0  0  0  0  0  0  0  0
  132.6230  131.3670   57.0400 C   0  0  0  0  0  0  0  0  0  0  0  0
  132.7830  132.5780   56.8850 O   0  0  0  0  0  0  0  0  0  0  0  0
  133.0070  130.7450   58.3940 C   0  0  0  0  0  0  0  0  0  0  0  0
  131.6680  129.9050   59.3170 S   0  0  0  0  0  0  0  0  0  0  0  0
  130.1740  130.8730   59.1680 C   0  0  0  0  0  0  0  0  0  0  0  0
  129.4330  130.6390   58.0570 N   0  0  0  0  0  0  0  0  0  0  0  0
  128.2830  131.3300   57.8510 C   0  0  0  0  0  0  0  0  0  0  0  0
  127.5260  131.0080   56.5970 C   0  0  0  0  0  0  0  0  0  0  0  0
  126.3200  130.2920   56.6510 C   0  0  0  0  0  0  0  0  0  0  0  0
  125.6110  129.9930   55.4900 C   0  0  0  0  0  0  0  0  0  0  0  0
  126.1000  130.4090   54.2570 C   0  0  0  0  0  0  0  0  0  0  0  0
  127.2900  131.1220   54.1750 C   0  0  0  0  0  0  0  0  0  0  0  0
  127.9970  131.4200   55.3380 C   0  0  0  0  0  0  0  0  0  0  0  0
  127.8380  132.2750   58.7820 C   0  0  0  0  0  0  0  0  0  0  0  0
  128.5850  132.5350   59.9400 C   0  0  0  0  0  0  0  0  0  0  0  0
  128.0640  133.5850   60.9410 C   0  0  0  0  0  0  0  0  0  0  0  0
  127.7370  132.9960   62.0910 F   0  0  0  0  0  0  0  0  0  0  0  0
  129.0060  134.5000   61.1750 F   0  0  0  0  0  0  0  0  0  0  0  0
  126.9820  134.2300   60.4980 F   0  0  0  0  0  0  0  0  0  0  0  0
  129.7890  131.8180   60.1430 C   0  0  0  0  0  0  0  0  0  0  0  0
  130.6100  132.0480   61.3360 C   0  0  0  0  0  0  0  0  0  0  0  0
  131.2600  132.2300   62.2770 N   0  0  0  0  0  0  0  0  0  0  0  0
  1  2  1  0
  2  3  1  0
  3  4  1  0
  4  5  1  0
  5  6  1  0
  6  7  1  0
  7  8  1  0
  8  9  1  0
  9 10  1  0
 10 11  1  0
 11 12  1  0
 12 13  2  0
 12 14  1  0
 14 15  1  0
 15 16  1  0
 16 17  2  0
 17 18  1  0
 18 19  1  0
 19 20  2  0
 20 21  1  0
 21 22  2  0
 22 23  1  0
 23 24  2  0
 18 25  2  0
 25 26  1  0
 26 27  1  0
 27 28  1  0
 27 29  1  0
 27 30  1  0
 26 31  2  0
 31 32  1  0
 32 33  3  0
 31 16  1  0
 24 19  1  0
M  END
>  <Binding energies>  (31) 
[-6.6]

>  <Ligand effiencies>  (31) 
[-0.1941176470588235]

>  <Interactions>  (31) 
["V-A:TYR:539:CE2:4871, V-A:PRO:540:CA:4878, V-A:MET:535:CG:4828, H-A:TYR:531:OH:4790, V-A:TYR:539:CE1:4870, V-A:TYR:539:CZ:4872, V-A:PRO:540:CB:4880, H-A:ALA:541:N:4886, V-A:ALA:541:CB:4887, V-A:LEU:363:CD1:3184, V-A:TYR:539:CD2:4869, H-A:LYS:534:NZ:4818, V-B:MET:535:CE:9803, V-A:PRO:540:N:4879, V-A:TYR:531:CZ:4789, V-A:TYR:539:C:4862, V-B:PRO:540:N:9852, V-B:TYR:539:CZ:9845, V-A:TYR:531:CE1:4787, V-B:TYR:539:C:9835, V-A:TYR:531:CE2:4788, V-B:TYR:531:CZ:9762, V-A:MET:535:CE:4830, V-A:MET:535:CB:4827, V-A:LEU:363:CA:3180, V-A:ALA:541:CA:4885, V-A:TYR:539:CD1:4868, V-B:TYR:539:CE1:9843, V-A:PRO:540:C:4876, V-B:TYR:531:CE1:9760"]

$$$$
3bk_Grossjean_2025
     RDKit          3D

 30 31  0  0  0  0  0  0  0  0999 V2000
  133.8380  130.1090   58.4070 C   0  0  0  0  0  0  0  0  0  0  0  0
  133.6510  131.0870   59.4190 O   0  0  0  0  0  0  0  0  0  0  0  0
  132.7640  130.6730   60.4490 C   0  0  0  0  0  0  0  0  0  0  0  0
  132.5080  131.8420   61.4100 C   0  0  0  0  0  0  0  0  0  0  0  0
  131.1520  132.2520   61.3010 O   0  0  0  0  0  0  0  0  0  0  0  0
  130.3460  131.8720   62.4090 C   0  0  0  0  0  0  0  0  0  0  0  0
  129.0270  132.6540   62.3670 C   0  0  0  0  0  0  0  0  0  0  0  0
  128.9860  133.4480   61.1890 O   0  0  0  0  0  0  0  0  0  0  0  0
  127.7420  133.3950   60.5030 C   0  0  0  0  0  0  0  0  0  0  0  0
  127.9760  132.9360   59.0560 C   0  0  0  0  0  0  0  0  0  0  0  0
  129.3870  132.6580   58.7810 N   0  0  0  0  0  0  0  0  0  0  0  0
  130.0140  132.8870   57.6150 C   0  0  0  0  0  0  0  0  0  0  0  0
  129.4660  133.3850   56.6290 O   0  0  0  0  0  0  0  0  0  0  0  0
  131.4990  132.5210   57.5560 C   0  0  0  0  0  0  0  0  0  0  0  0
  132.0690  132.2620   55.8460 S   0  0  0  0  0  0  0  0  0  0  0  0
  131.0490  131.0170   55.0750 C   0  0  0  0  0  0  0  0  0  0  0  0
  129.8620  130.7640   55.6820 N   0  0  0  0  0  0  0  0  0  0  0  0
  129.0200  129.8290   55.1670 C   0  0  0  0  0  0  0  0  0  0  0  0
  127.7210  129.6270   55.8880 C   0  0  0  0  0  0  0  0  0  0  0  0
  126.5290  130.1700   55.3840 C   0  0  0  0  0  0  0  0  0  0  0  0
  125.3200  129.9900   56.0520 C   0  0  0  0  0  0  0  0  0  0  0  0
  125.2870  129.2610   57.2360 C   0  0  0  0  0  0  0  0  0  0  0  0
  126.4540  128.7080   57.7540 C   0  0  0  0  0  0  0  0  0  0  0  0
  127.6600  128.8890   57.0830 C   0  0  0  0  0  0  0  0  0  0  0  0
  129.3570  129.1210   54.0080 C   0  0  0  0  0  0  0  0  0  0  0  0
  130.5770  129.3690   53.3690 C   0  0  0  0  0  0  0  0  0  0  0  0
  130.9060  128.5740   52.1070 C   0  0  0  0  0  0  0  0  0  0  0  0
  131.4520  130.3370   53.9060 C   0  0  0  0  0  0  0  0  0  0  0  0
  132.7360  130.6190   53.2570 C   0  0  0  0  0  0  0  0  0  0  0  0
  133.7500  130.8410   52.7450 N   0  0  0  0  0  0  0  0  0  0  0  0
  1  2  1  0
  2  3  1  0
  3  4  1  0
  4  5  1  0
  5  6  1  0
  6  7  1  0
  7  8  1  0
  8  9  1  0
  9 10  1  0
 10 11  1  0
 11 12  1  0
 12 13  2  0
 12 14  1  0
 14 15  1  0
 15 16  1  0
 16 17  2  0
 17 18  1  0
 18 19  1  0
 19 20  2  0
 20 21  1  0
 21 22  2  0
 22 23  1  0
 23 24  2  0
 18 25  2  0
 25 26  1  0
 26 27  1  0
 26 28  2  0
 28 29  1  0
 29 30  3  0
 28 16  1  0
 24 19  1  0
M  END
>  <Binding energies>  (32) 
[-7.05]

>  <Ligand effiencies>  (32) 
[-0.22741935483870968]

>  <Interactions>  (32) 
["V-A:TYR:539:CE2:4871, V-A:PRO:540:CA:4878, V-A:MET:535:CG:4828, V-A:ASP:366:CG:3208, V-A:TYR:539:CE1:4870, V-A:TYR:539:CZ:4872, V-A:PRO:540:CB:4880, H-A:ALA:541:N:4886, V-A:ALA:541:CB:4887, V-A:ILE:538:CD1:4860, V-A:LEU:363:CD1:3184, V-A:TYR:539:CD2:4869, V-A:GLU:543:CD:4903, V-A:PRO:540:CG:4881, V-A:PRO:540:N:4879, V-A:TYR:531:CZ:4789, V-A:TYR:539:C:4862, V-A:ASP:366:CB:3207, V-A:PRO:540:CD:4882, V-A:TYR:531:CE1:4787, V-A:TYR:531:CE2:4788, V-A:GLU:543:CG:4902, V-A:TYR:539:CG:4867, V-B:ASP:366:CB:8179, V-B:TYR:531:CZ:9762, V-A:LEU:363:CA:3180, V-A:TYR:531:CD2:4786, H-A:TYR:539:N:4865, V-A:LEU:363:CB:3182, V-A:TYR:531:CG:4784, V-A:TYR:531:C:4779, V-A:LYS:534:CD:4816, V-A:PRO:540:C:4876, V-A:TYR:531:CD1:4785, V-B:TYR:531:CE1:9760, V-A:LYS:534:CB:4814, V-A:LYS:534:CG:4815, H-A:LEU:363:N:3181, H-A:ILE:532:N:4796"]

$$$$
3cb_Grossjean_2025
     RDKit          3D

 30 32  0  0  0  0  0  0  0  0999 V2000
  125.5170  123.7570   58.3040 C   0  0  0  0  0  0  0  0  0  0  0  0
  126.8500  123.3350   58.0560 O   0  0  0  0  0  0  0  0  0  0  0  0
  127.2950  123.1310   56.7900 C   0  0  0  0  0  0  0  0  0  0  0  0
  127.0830  122.0960   56.1520 O   0  0  0  0  0  0  0  0  0  0  0  0
  128.0760  124.2920   56.2420 C   0  0  0  0  0  0  0  0  0  0  0  0
  127.5260  125.5790   56.1450 C   0  0  0  0  0  0  0  0  0  0  0  0
  128.2780  126.6330   55.6350 C   0  0  0  0  0  0  0  0  0  0  0  0
  129.5900  126.4260   55.2070 C   0  0  0  0  0  0  0  0  0  0  0  0
  130.2590  127.5630   54.7120 N   0  0  0  0  0  0  0  0  0  0  0  0
  130.1730  128.1630   53.5050 C   0  0  0  0  0  0  0  0  0  0  0  0
  129.4350  127.8010   52.5870 O   0  0  0  0  0  0  0  0  0  0  0  0
  131.0790  129.3930   53.3390 C   0  0  0  0  0  0  0  0  0  0  0  0
  130.2060  130.9960   53.3260 S   0  0  0  0  0  0  0  0  0  0  0  0
  129.1370  131.0450   54.7490 C   0  0  0  0  0  0  0  0  0  0  0  0
  127.8930  130.5660   54.5060 N   0  0  0  0  0  0  0  0  0  0  0  0
  126.9940  130.5540   55.5160 C   0  0  0  0  0  0  0  0  0  0  0  0
  125.6270  129.9920   55.1750 C   0  0  0  0  0  0  0  0  0  0  0  0
  127.2940  131.0200   56.7920 C   0  0  0  0  0  0  0  0  0  0  0  0
  128.5680  131.5350   57.0630 C   0  0  0  0  0  0  0  0  0  0  0  0
  128.8390  132.0280   58.4480 C   0  0  0  0  0  0  0  0  0  0  0  0
  128.0560  133.0510   58.9970 C   0  0  0  0  0  0  0  0  0  0  0  0
  128.2930  133.5100   60.2900 C   0  0  0  0  0  0  0  0  0  0  0  0
  129.3170  132.9420   61.0440 C   0  0  0  0  0  0  0  0  0  0  0  0
  130.1010  131.9200   60.5170 C   0  0  0  0  0  0  0  0  0  0  0  0
  129.8590  131.4620   59.2240 C   0  0  0  0  0  0  0  0  0  0  0  0
  129.5190  131.5670   56.0100 C   0  0  0  0  0  0  0  0  0  0  0  0
  130.8360  132.1800   56.2110 C   0  0  0  0  0  0  0  0  0  0  0  0
  131.8750  132.6630   56.3690 N   0  0  0  0  0  0  0  0  0  0  0  0
  130.1490  125.1430   55.3050 C   0  0  0  0  0  0  0  0  0  0  0  0
  129.3960  124.0890   55.8160 C   0  0  0  0  0  0  0  0  0  0  0  0
  1  2  1  0
  2  3  1  0
  3  4  2  0
  3  5  1  0
  5  6  2  0
  6  7  1  0
  7  8  2  0
  8  9  1  0
  9 10  1  0
 10 11  2  0
 10 12  1  0
 12 13  1  0
 13 14  1  0
 14 15  2  0
 15 16  1  0
 16 17  1  0
 16 18  2  0
 18 19  1  0
 19 20  1  0
 20 21  2  0
 21 22  1  0
 22 23  2  0
 23 24  1  0
 24 25  2  0
 19 26  2  0
 26 27  1  0
 27 28  3  0
  8 29  1  0
 29 30  2  0
 30  5  1  0
 26 14  1  0
 25 20  1  0
M  END
>  <Binding energies>  (33) 
[-8.5]

>  <Ligand effiencies>  (33) 
[-0.27419354838709675]

>  <Interactions>  (33) 
["V-A:TYR:539:CE2:4871, V-A:PRO:540:CA:4878, V-A:MET:535:CG:4828, H-A:TYR:531:OH:4790, V-A:TYR:539:CE1:4870, V-A:TYR:539:CZ:4872, V-A:PRO:540:CB:4880, V-A:TYR:539:CD2:4869, V-B:PRO:540:CA:9851, V-B:MET:535:CE:9803, V-A:TYR:531:CZ:4789, H-B:TYR:539:N:9838, V-A:TYR:539:C:4862, V-B:PRO:540:CB:9853, V-B:TYR:539:CZ:9845, V-A:TYR:531:CE1:4787, V-B:TYR:539:C:9835, V-A:TYR:539:CG:4867, V-B:TYR:531:CZ:9762, V-B:TYR:539:CE1:9843, V-A:PRO:540:C:4876, V-A:TYR:531:CD1:4785, V-B:TYR:531:CE1:9760"]

$$$$
3ch_Grossjean_2025
     RDKit          3D

 32 34  0  0  0  0  0  0  0  0999 V2000
  126.2440  128.1480   65.7000 C   0  0  0  0  0  0  0  0  0  0  0  0
  126.2420  129.5710   65.6870 O   0  0  0  0  0  0  0  0  0  0  0  0
  126.0250  130.2430   64.4970 C   0  0  0  0  0  0  0  0  0  0  0  0
  127.0350  130.5460   63.5710 C   0  0  0  0  0  0  0  0  0  0  0  0
  126.7390  131.2230   62.3780 C   0  0  0  0  0  0  0  0  0  0  0  0
  127.6810  131.5650   61.3900 N   0  0  0  0  0  0  0  0  0  0  0  0
  128.8510  132.2290   61.5060 C   0  0  0  0  0  0  0  0  0  0  0  0
  129.3260  132.6610   62.5570 O   0  0  0  0  0  0  0  0  0  0  0  0
  129.6430  132.4030   60.2100 C   0  0  0  0  0  0  0  0  0  0  0  0
  128.6930  133.2880   58.9390 S   0  0  0  0  0  0  0  0  0  0  0  0
  128.3040  132.0850   57.6860 C   0  0  0  0  0  0  0  0  0  0  0  0
  127.1630  131.3920   57.9240 N   0  0  0  0  0  0  0  0  0  0  0  0
  126.7830  130.4480   57.0340 C   0  0  0  0  0  0  0  0  0  0  0  0
  125.5010  129.7070   57.3640 C   0  0  0  0  0  0  0  0  0  0  0  0
  127.5170  130.1590   55.8870 C   0  0  0  0  0  0  0  0  0  0  0  0
  128.6960  130.8700   55.6190 C   0  0  0  0  0  0  0  0  0  0  0  0
  129.4560  130.5190   54.3810 C   0  0  0  0  0  0  0  0  0  0  0  0
  129.8600  129.1980   54.1550 C   0  0  0  0  0  0  0  0  0  0  0  0
  130.5760  128.8650   53.0070 C   0  0  0  0  0  0  0  0  0  0  0  0
  130.8940  129.8560   52.0820 C   0  0  0  0  0  0  0  0  0  0  0  0
  130.5050  131.1750   52.2950 C   0  0  0  0  0  0  0  0  0  0  0  0
  129.7900  131.5040   53.4440 C   0  0  0  0  0  0  0  0  0  0  0  0
  129.0970  131.8770   56.5330 C   0  0  0  0  0  0  0  0  0  0  0  0
  130.2680  132.7150   56.2560 C   0  0  0  0  0  0  0  0  0  0  0  0
  131.1930  133.3760   56.0390 N   0  0  0  0  0  0  0  0  0  0  0  0
  125.4220  131.6130   62.1280 C   0  0  0  0  0  0  0  0  0  0  0  0
  124.3950  131.3230   63.0400 C   0  0  0  0  0  0  0  0  0  0  0  0
  123.0700  131.6750   62.8480 O   0  0  0  0  0  0  0  0  0  0  0  0
  122.1840  130.7530   62.2230 C   0  0  0  0  0  0  0  0  0  0  0  0
  124.7100  130.6400   64.2210 C   0  0  0  0  0  0  0  0  0  0  0  0
  123.7100  130.3350   65.1140 O   0  0  0  0  0  0  0  0  0  0  0  0
  123.7970  131.0400   66.3450 C   0  0  0  0  0  0  0  0  0  0  0  0
  1  2  1  0
  2  3  1  0
  3  4  2  0
  4  5  1  0
  5  6  1  0
  6  7  1  0
  7  8  2  0
  7  9  1  0
  9 10  1  0
 10 11  1  0
 11 12  2  0
 12 13  1  0
 13 14  1  0
 13 15  2  0
 15 16  1  0
 16 17  1  0
 17 18  2  0
 18 19  1  0
 19 20  2  0
 20 21  1  0
 21 22  2  0
 16 23  2  0
 23 24  1  0
 24 25  3  0
  5 26  2  0
 26 27  1  0
 27 28  1  0
 28 29  1  0
 27 30  2  0
 30 31  1  0
 31 32  1  0
 30  3  1  0
 23 11  1  0
 22 17  1  0
M  END
>  <Binding energies>  (34) 
[-8.37]

>  <Ligand effiencies>  (34) 
[-0.2536363636363636]

>  <Interactions>  (34) 
["V-A:TYR:539:CE2:4871, V-A:PRO:540:CA:4878, V-A:MET:535:CG:4828, V-A:TYR:539:CE1:4870, V-A:TYR:539:CZ:4872, V-A:PRO:540:CB:4880, H-A:ALA:541:N:4886, V-A:ILE:538:CD1:4860, H-A:TYR:539:OH:4873, V-A:PRO:540:N:4879, V-A:TYR:531:CZ:4789, V-B:GLU:543:CD:9876, V-A:PRO:540:CD:4882, V-A:TYR:531:CE1:4787, H-B:GLY:454:N:9017, V-B:ILE:369:CD1:8206, V-B:HIS:456:CE1:9037, V-A:MET:535:CB:4827, H-A:TYR:539:N:4865, V-A:TYR:539:CD1:4868, V-B:TYR:484:CZ:9314, H-B:TYR:484:OH:9315, V-A:TYR:531:CD1:4785, V-A:LYS:534:CB:4814, V-B:GLY:454:CA:9016, V-B:GLY:453:CA:9011, V-B:GLY:453:C:9009, V-A:MET:535:CA:4825, V-B:TYR:484:CE2:9313, V-B:GLY:454:C:9014"]

$$$$
3ci_Grossjean_2025
     RDKit          3D

 25 27  0  0  0  0  0  0  0  0999 V2000
  125.8440  129.7800   55.0080 C   0  0  0  0  0  0  0  0  0  0  0  0
  127.1110  130.5680   55.2820 C   0  0  0  0  0  0  0  0  0  0  0  0
  127.4760  130.9400   56.5720 C   0  0  0  0  0  0  0  0  0  0  0  0
  128.6650  131.6540   56.7770 C   0  0  0  0  0  0  0  0  0  0  0  0
  129.0240  132.0190   58.1800 C   0  0  0  0  0  0  0  0  0  0  0  0
  130.0870  131.3850   58.8360 C   0  0  0  0  0  0  0  0  0  0  0  0
  130.4120  131.7230   60.1470 C   0  0  0  0  0  0  0  0  0  0  0  0
  129.6700  132.6940   60.8120 C   0  0  0  0  0  0  0  0  0  0  0  0
  128.6040  133.3280   60.1780 C   0  0  0  0  0  0  0  0  0  0  0  0
  128.2820  132.9880   58.8670 C   0  0  0  0  0  0  0  0  0  0  0  0
  129.4560  131.9840   55.6470 C   0  0  0  0  0  0  0  0  0  0  0  0
  130.6880  132.7660   55.7950 C   0  0  0  0  0  0  0  0  0  0  0  0
  131.6610  133.3830   55.9130 N   0  0  0  0  0  0  0  0  0  0  0  0
  129.0140  131.5610   54.3700 C   0  0  0  0  0  0  0  0  0  0  0  0
  129.9430  131.9030   52.8810 S   0  0  0  0  0  0  0  0  0  0  0  0
  131.4110  130.8250   52.8190 C   0  0  0  0  0  0  0  0  0  0  0  0
  131.0720  129.3310   52.8770 C   0  0  0  0  0  0  0  0  0  0  0  0
  131.5980  128.5630   52.0700 O   0  0  0  0  0  0  0  0  0  0  0  0
  130.1830  128.9680   53.8280 N   0  0  0  0  0  0  0  0  0  0  0  0
  129.7300  127.6860   54.1100 C   0  0  0  0  0  0  0  0  0  0  0  0
  128.7930  127.4130   55.1060 C   0  0  0  0  0  0  0  0  0  0  0  0
  128.6190  126.0480   55.0680 C   0  0  0  0  0  0  0  0  0  0  0  0
  129.4090  125.5280   54.0980 O   0  0  0  0  0  0  0  0  0  0  0  0
  130.1090  126.5760   53.4990 N   0  0  0  0  0  0  0  0  0  0  0  0
  127.8570  130.8720   54.1970 N   0  0  0  0  0  0  0  0  0  0  0  0
  1  2  1  0
  2  3  2  0
  3  4  1  0
  4  5  1  0
  5  6  2  0
  6  7  1  0
  7  8  2  0
  8  9  1  0
  9 10  2  0
  4 11  2  0
 11 12  1  0
 12 13  3  0
 11 14  1  0
 14 15  1  0
 15 16  1  0
 16 17  1  0
 17 18  2  0
 17 19  1  0
 19 20  1  0
 20 21  1  0
 21 22  2  0
 22 23  1  0
 23 24  1  0
 14 25  2  0
 25  2  1  0
 10  5  1  0
 24 20  2  0
M  END
>  <Binding energies>  (35) 
[-8.78]

>  <Ligand effiencies>  (35) 
[-0.3376923076923077]

>  <Interactions>  (35) 
["V-A:TYR:539:CE2:4871, V-A:PRO:540:CA:4878, V-A:MET:535:CG:4828, V-A:TYR:539:CE1:4870, V-A:TYR:539:CZ:4872, V-A:PRO:540:CB:4880, V-A:ILE:538:CD1:4860, V-A:TYR:539:CD2:4869, H-A:LYS:534:NZ:4818, V-B:MET:535:CE:9803, V-A:PRO:540:N:4879, V-A:TYR:531:CZ:4789, V-A:TYR:539:C:4862, V-A:PRO:540:CD:4882, V-A:TYR:531:CE1:4787, V-A:TYR:539:CG:4867, V-B:TYR:531:CZ:9762, V-A:MET:535:CB:4827, H-A:TYR:539:N:4865, V-A:TYR:539:CD1:4868, V-A:PRO:540:C:4876, V-A:TYR:531:CD1:4785, V-B:TYR:531:CE1:9760"]

$$$$
3ck_Grossjean_2025
     RDKit          3D

 30 31  0  0  0  0  0  0  0  0999 V2000
  133.8600  130.5700   59.8310 C   0  0  0  0  0  0  0  0  0  0  0  0
  134.2260  131.6050   60.7310 O   0  0  0  0  0  0  0  0  0  0  0  0
  133.2180  131.9060   61.6860 C   0  0  0  0  0  0  0  0  0  0  0  0
  131.8530  131.4500   61.1540 C   0  0  0  0  0  0  0  0  0  0  0  0
  130.8330  132.2700   61.7110 O   0  0  0  0  0  0  0  0  0  0  0  0
  129.7660  131.5410   62.3030 C   0  0  0  0  0  0  0  0  0  0  0  0
  129.3510  132.2320   63.6080 C   0  0  0  0  0  0  0  0  0  0  0  0
  127.9640  132.0080   63.8110 O   0  0  0  0  0  0  0  0  0  0  0  0
  127.6440  130.7610   64.4110 C   0  0  0  0  0  0  0  0  0  0  0  0
  126.1280  130.5110   64.3030 C   0  0  0  0  0  0  0  0  0  0  0  0
  125.4960  131.1970   63.1710 N   0  0  0  0  0  0  0  0  0  0  0  0
  124.1740  131.2510   62.9260 C   0  0  0  0  0  0  0  0  0  0  0  0
  123.3290  130.7370   63.6610 O   0  0  0  0  0  0  0  0  0  0  0  0
  123.7680  132.0120   61.6530 C   0  0  0  0  0  0  0  0  0  0  0  0
  124.6250  131.4950   60.1250 S   0  0  0  0  0  0  0  0  0  0  0  0
  126.2170  132.3000   60.0460 C   0  0  0  0  0  0  0  0  0  0  0  0
  126.4540  133.2260   61.0100 N   0  0  0  0  0  0  0  0  0  0  0  0
  127.6380  133.8780   61.0080 C   0  0  0  0  0  0  0  0  0  0  0  0
  127.8300  134.8980   62.1130 C   0  0  0  0  0  0  0  0  0  0  0  0
  128.6250  133.6380   60.0550 C   0  0  0  0  0  0  0  0  0  0  0  0
  128.4000  132.6920   59.0470 C   0  0  0  0  0  0  0  0  0  0  0  0
  129.4770  132.4850   58.0330 C   0  0  0  0  0  0  0  0  0  0  0  0
  129.3760  133.0780   56.7690 C   0  0  0  0  0  0  0  0  0  0  0  0
  130.3720  132.8810   55.8150 C   0  0  0  0  0  0  0  0  0  0  0  0
  131.4720  132.0840   56.1210 C   0  0  0  0  0  0  0  0  0  0  0  0
  131.5820  131.4810   57.3720 C   0  0  0  0  0  0  0  0  0  0  0  0
  130.5860  131.6790   58.3230 C   0  0  0  0  0  0  0  0  0  0  0  0
  127.1660  131.9910   59.0450 C   0  0  0  0  0  0  0  0  0  0  0  0
  126.8920  130.9590   58.0380 C   0  0  0  0  0  0  0  0  0  0  0  0
  126.6760  130.1450   57.2440 N   0  0  0  0  0  0  0  0  0  0  0  0
  1  2  1  0
  2  3  1  0
  3  4  1  0
  4  5  1  0
  5  6  1  0
  6  7  1  0
  7  8  1  0
  8  9  1  0
  9 10  1  0
 10 11  1  0
 11 12  1  0
 12 13  2  0
 12 14  1  0
 14 15  1  0
 15 16  1  0
 16 17  2  0
 17 18  1  0
 18 19  1  0
 18 20  2  0
 20 21  1  0
 21 22  1  0
 22 23  2  0
 23 24  1  0
 24 25  2  0
 25 26  1  0
 26 27  2  0
 21 28  2  0
 28 29  1  0
 29 30  3  0
 28 16  1  0
 27 22  1  0
M  END
>  <Binding energies>  (36) 
[-6.93]

>  <Ligand effiencies>  (36) 
[-0.2235483870967742]

>  <Interactions>  (36) 
["V-A:TYR:539:CE2:4871, V-A:PRO:540:CA:4878, V-A:ASP:366:CG:3208, V-A:TYR:539:CE1:4870, V-A:TYR:539:CZ:4872, V-B:LEU:475:CD2:9226, V-A:ILE:538:CA:4855, V-A:PRO:540:CB:4880, H-A:ALA:541:N:4886, V-A:ALA:541:CB:4887, V-A:LEU:363:CD1:3184, V-B:LEU:475:CD1:9225, V-A:TYR:539:CD2:4869, V-A:GLU:543:CD:4903, H-A:TYR:539:OH:4873, V-A:PRO:540:N:4879, V-A:TYR:539:C:4862, V-A:PRO:540:CD:4882, V-A:GLU:543:CG:4902, H-B:GLY:454:N:9017, V-A:TYR:539:CG:4867, V-B:ILE:369:CD1:8206, V-A:LEU:363:CA:3180, V-A:TYR:539:CA:4864, V-A:TYR:539:CD1:4868, V-A:ASN:362:C:3167, V-A:ASN:362:CB:3171, V-A:PRO:540:C:4876, H-B:TYR:484:OH:9315, H-A:LEU:363:N:3181"]

$$$$
4aa_Grossjean_2025
     RDKit          3D

 26 28  0  0  0  0  0  0  0  0999 V2000
  130.6180  131.6260   53.4980 C   0  0  0  0  0  0  0  0  0  0  0  0
  129.5960  132.4760   54.2590 C   0  0  0  0  0  0  0  0  0  0  0  0
  130.2790  133.4160   55.0780 O   0  0  0  0  0  0  0  0  0  0  0  0
  131.1410  133.0080   56.0450 C   0  0  0  0  0  0  0  0  0  0  0  0
  132.3690  133.0050   55.9050 O   0  0  0  0  0  0  0  0  0  0  0  0
  130.4540  132.5540   57.3000 C   0  0  0  0  0  0  0  0  0  0  0  0
  129.1230  132.9300   57.5250 C   0  0  0  0  0  0  0  0  0  0  0  0
  128.4600  132.5300   58.6810 C   0  0  0  0  0  0  0  0  0  0  0  0
  129.1080  131.7390   59.6310 C   0  0  0  0  0  0  0  0  0  0  0  0
  128.3470  131.3990   60.7660 N   0  0  0  0  0  0  0  0  0  0  0  0
  128.4220  131.8590   62.0380 C   0  0  0  0  0  0  0  0  0  0  0  0
  129.2580  132.6730   62.4310 O   0  0  0  0  0  0  0  0  0  0  0  0
  127.4370  131.2980   62.9650 C   0  0  0  0  0  0  0  0  0  0  0  0
  125.8470  132.0460   63.1340 S   0  0  0  0  0  0  0  0  0  0  0  0
  125.3790  130.8840   64.3540 C   0  0  0  0  0  0  0  0  0  0  0  0
  124.1770  130.9140   64.9330 N   0  0  0  0  0  0  0  0  0  0  0  0
  123.9430  129.9600   65.8670 C   0  0  0  0  0  0  0  0  0  0  0  0
  122.5720  130.0150   66.5170 C   0  0  0  0  0  0  0  0  0  0  0  0
  124.8700  128.9840   66.2280 C   0  0  0  0  0  0  0  0  0  0  0  0
  126.1280  128.9550   65.6170 C   0  0  0  0  0  0  0  0  0  0  0  0
  127.1070  127.8710   66.0450 C   0  0  0  0  0  0  0  0  0  0  0  0
  126.4130  129.9420   64.6360 C   0  0  0  0  0  0  0  0  0  0  0  0
  127.5780  130.2040   63.8330 C   0  0  0  0  0  0  0  0  0  0  0  0
  128.7130  129.4380   63.9200 N   0  0  0  0  0  0  0  0  0  0  0  0
  130.4420  131.3620   59.4170 C   0  0  0  0  0  0  0  0  0  0  0  0
  131.1050  131.7660   58.2610 C   0  0  0  0  0  0  0  0  0  0  0  0
  1  2  1  0
  2  3  1  0
  3  4  1  0
  4  5  2  0
  4  6  1  0
  6  7  2  0
  7  8  1  0
  8  9  2  0
  9 10  1  0
 10 11  1  0
 11 12  2  0
 11 13  1  0
 13 14  1  0
 14 15  1  0
 15 16  2  0
 16 17  1  0
 17 18  1  0
 17 19  2  0
 19 20  1  0
 20 21  1  0
 20 22  2  0
 22 23  1  0
 23 24  1  0
  9 25  1  0
 25 26  2  0
 26  6  1  0
 23 13  2  0
 22 15  1  0
M  END
>  <Binding energies>  (37) 
[-7.46]

>  <Ligand effiencies>  (37) 
[-0.25724137931034485]

>  <Interactions>  (37) 
["V-A:TYR:539:CE2:4871, V-A:PRO:540:CA:4878, V-A:ILE:538:CG2:4858, H-A:GLU:543:OE1:4904, H-A:GLU:543:OE2:4905, V-A:TYR:539:CE1:4870, V-A:TYR:539:CZ:4872, V-A:ILE:538:CA:4855, V-A:PRO:540:CB:4880, H-A:ALA:541:N:4886, V-A:ILE:538:CD1:4860, V-A:TYR:539:CD2:4869, V-A:GLU:543:CD:4903, V-A:PRO:540:N:4879, V-B:GLU:543:CD:9876, V-A:TYR:539:C:4862, V-A:PRO:540:CD:4882, V-A:GLU:543:CG:4902, H-B:GLY:454:N:9017, V-A:TYR:539:CG:4867, V-B:GLU:543:CB:9874, V-B:HIS:456:CE1:9037, H-A:TYR:539:N:4865, V-A:TYR:539:CD1:4868, H-B:TYR:484:OH:9315, V-B:ARG:545:CZ:9894, V-B:ARG:545:CD:9891, V-B:ARG:545:CG:9890, V-B:GLY:454:CA:9016, V-B:GLY:453:CA:9011, V-B:GLY:453:C:9009"]

$$$$
4ab_Grossjean_2025
     RDKit          3D

 25 27  0  0  0  0  0  0  0  0999 V2000
  123.8200  124.6770   57.4340 C   0  0  0  0  0  0  0  0  0  0  0  0
  124.7970  124.1760   56.5330 O   0  0  0  0  0  0  0  0  0  0  0  0
  125.4940  123.0460   56.8140 C   0  0  0  0  0  0  0  0  0  0  0  0
  125.2280  121.9430   56.3260 O   0  0  0  0  0  0  0  0  0  0  0  0
  126.6170  123.2680   57.7850 C   0  0  0  0  0  0  0  0  0  0  0  0
  126.3520  123.9150   59.0000 C   0  0  0  0  0  0  0  0  0  0  0  0
  127.3730  124.1370   59.9210 C   0  0  0  0  0  0  0  0  0  0  0  0
  128.6740  123.7130   59.6510 C   0  0  0  0  0  0  0  0  0  0  0  0
  129.6270  123.9960   60.6480 N   0  0  0  0  0  0  0  0  0  0  0  0
  130.9140  124.4050   60.5340 C   0  0  0  0  0  0  0  0  0  0  0  0
  131.4990  124.5650   59.4620 O   0  0  0  0  0  0  0  0  0  0  0  0
  131.6100  124.6350   61.8020 C   0  0  0  0  0  0  0  0  0  0  0  0
  133.3510  124.3700   61.9220 S   0  0  0  0  0  0  0  0  0  0  0  0
  133.3470  124.7910   63.6190 C   0  0  0  0  0  0  0  0  0  0  0  0
  134.4600  124.7830   64.3520 N   0  0  0  0  0  0  0  0  0  0  0  0
  134.3190  125.1270   65.6560 C   0  0  0  0  0  0  0  0  0  0  0  0
  135.5970  125.1060   66.4730 C   0  0  0  0  0  0  0  0  0  0  0  0
  133.1020  125.4780   66.2370 C   0  0  0  0  0  0  0  0  0  0  0  0
  131.9340  125.4850   65.4640 C   0  0  0  0  0  0  0  0  0  0  0  0
  130.6300  125.8740   66.1450 C   0  0  0  0  0  0  0  0  0  0  0  0
  132.0430  125.1260   64.0940 C   0  0  0  0  0  0  0  0  0  0  0  0
  131.0710  125.0230   63.0380 C   0  0  0  0  0  0  0  0  0  0  0  0
  129.7400  125.2880   63.2410 N   0  0  0  0  0  0  0  0  0  0  0  0
  128.9500  123.0700   58.4350 C   0  0  0  0  0  0  0  0  0  0  0  0
  127.9290  122.8500   57.5150 C   0  0  0  0  0  0  0  0  0  0  0  0
  1  2  1  0
  2  3  1  0
  3  4  2  0
  3  5  1  0
  5  6  2  0
  6  7  1  0
  7  8  2  0
  8  9  1  0
  9 10  1  0
 10 11  2  0
 10 12  1  0
 12 13  1  0
 13 14  1  0
 14 15  2  0
 15 16  1  0
 16 17  1  0
 16 18  2  0
 18 19  1  0
 19 20  1  0
 19 21  2  0
 21 22  1  0
 22 23  1  0
  8 24  1  0
 24 25  2  0
 25  5  1  0
 22 12  2  0
 21 14  1  0
M  END
>  <Binding energies>  (38) 
[-7.82]

>  <Ligand effiencies>  (38) 
[-0.2792857142857143]

>  <Interactions>  (38) 
["V-A:ASP:366:CG:3208, V-B:LEU:363:CD1:8156, V-A:GLY:454:CA:4044, V-A:ARG:545:CZ:4921, H-B:TYR:531:OH:9763, V-B:TYR:531:CE2:9761, H-A:GLY:454:N:4045, H-A:TYR:484:OH:4343, V-B:PRO:540:CA:9851, H-B:GLU:543:OE2:9878, V-B:MET:535:CE:9803, H-B:TYR:539:N:9838, V-B:GLU:543:CD:9876, V-B:PRO:540:N:9852, V-B:PRO:540:CB:9853, V-B:TYR:539:C:9835, V-B:ASP:366:CB:8179, V-B:TYR:531:CZ:9762, V-B:ASP:366:CG:8180, V-A:HIS:456:CE1:4064, V-B:PRO:540:CD:9855, V-A:ARG:545:CD:4918, V-A:ARG:545:CG:4917, H-A:ARG:545:NH1:4922, V-A:GLY:453:C:4037, V-A:GLY:453:CA:4039, V-B:LEU:363:CA:8152, V-A:ILE:455:C:4047, V-A:HIS:456:CD2:4063"]

$$$$
4ac_Grossjean_2025
     RDKit          3D

 23 25  0  0  0  0  0  0  0  0999 V2000
  124.8880  122.3680   56.4650 C   0  0  0  0  0  0  0  0  0  0  0  0
  126.2600  122.1440   56.1570 O   0  0  0  0  0  0  0  0  0  0  0  0
  127.2230  122.4620   57.0950 C   0  0  0  0  0  0  0  0  0  0  0  0
  126.7610  122.8840   58.3410 C   0  0  0  0  0  0  0  0  0  0  0  0
  127.6580  123.2250   59.3510 C   0  0  0  0  0  0  0  0  0  0  0  0
  129.0320  123.1390   59.1280 C   0  0  0  0  0  0  0  0  0  0  0  0
  129.8610  123.5160   60.2010 N   0  0  0  0  0  0  0  0  0  0  0  0
  131.0990  124.0660   60.1760 C   0  0  0  0  0  0  0  0  0  0  0  0
  131.7290  124.2970   59.1420 O   0  0  0  0  0  0  0  0  0  0  0  0
  131.6760  124.3750   61.4870 C   0  0  0  0  0  0  0  0  0  0  0  0
  133.3550  123.9680   61.8400 S   0  0  0  0  0  0  0  0  0  0  0  0
  133.2210  124.6160   63.4600 C   0  0  0  0  0  0  0  0  0  0  0  0
  134.2470  124.6060   64.3120 N   0  0  0  0  0  0  0  0  0  0  0  0
  134.0100  125.1380   65.5350 C   0  0  0  0  0  0  0  0  0  0  0  0
  135.1900  125.1170   66.4890 C   0  0  0  0  0  0  0  0  0  0  0  0
  132.7820  125.6720   65.9240 C   0  0  0  0  0  0  0  0  0  0  0  0
  131.7080  125.6800   65.0270 C   0  0  0  0  0  0  0  0  0  0  0  0
  130.3890  126.2740   65.4980 C   0  0  0  0  0  0  0  0  0  0  0  0
  131.9200  125.1330   63.7330 C   0  0  0  0  0  0  0  0  0  0  0  0
  131.0590  124.9840   62.5910 C   0  0  0  0  0  0  0  0  0  0  0  0
  129.7530  125.4060   62.5990 N   0  0  0  0  0  0  0  0  0  0  0  0
  129.5050  122.7270   57.8730 C   0  0  0  0  0  0  0  0  0  0  0  0
  128.6050  122.3870   56.8660 C   0  0  0  0  0  0  0  0  0  0  0  0
  1  2  1  0
  2  3  1  0
  3  4  2  0
  4  5  1  0
  5  6  2  0
  6  7  1  0
  7  8  1  0
  8  9  2  0
  8 10  1  0
 10 11  1  0
 11 12  1  0
 12 13  2  0
 13 14  1  0
 14 15  1  0
 14 16  2  0
 16 17  1  0
 17 18  1  0
 17 19  2  0
 19 20  1  0
 20 21  1  0
  6 22  1  0
 22 23  2  0
 23  3  1  0
 20 10  2  0
 19 12  1  0
M  END
>  <Binding energies>  (39) 
[-7.24]

>  <Ligand effiencies>  (39) 
[-0.2784615384615385]

>  <Interactions>  (39) 
["V-A:ASP:366:CG:3208, V-B:LEU:363:CD1:8156, V-A:ILE:369:CD1:3234, V-A:ARG:545:CZ:4921, H-A:GLY:454:N:4045, V-A:GLU:543:CD:4903, H-A:TYR:484:OH:4343, V-B:PRO:540:CA:9851, H-B:GLU:543:OE2:9878, V-B:MET:535:CE:9803, H-B:TYR:539:N:9838, V-B:GLU:543:CD:9876, V-B:PRO:540:N:9852, V-B:TYR:539:CE2:9844, V-B:TYR:539:CD2:9842, V-B:PRO:540:CB:9853, V-B:TYR:539:CZ:9845, V-B:TYR:539:C:9835, V-B:TYR:539:CE1:9843, V-B:PRO:540:CD:9855, V-B:PRO:540:CG:9854, V-A:ARG:545:CD:4918, V-A:ARG:545:CG:4917, V-A:GLY:453:C:4037, V-A:GLY:453:CA:4039, V-B:ILE:538:CG2:9831, V-B:TYR:539:CG:9840, V-B:TYR:539:CD1:9841, V-A:HIS:456:CD2:4063"]

$$$$
4ad_Grossjean_2025
     RDKit          3D

 21 23  0  0  0  0  0  0  0  0999 V2000
  128.8140  121.4210   61.0050 C   0  0  0  0  0  0  0  0  0  0  0  0
  129.4990  122.1870   59.8880 C   0  0  0  0  0  0  0  0  0  0  0  0
  130.8840  122.1620   59.7450 C   0  0  0  0  0  0  0  0  0  0  0  0
  131.4940  122.8790   58.7080 C   0  0  0  0  0  0  0  0  0  0  0  0
  133.0100  122.8240   58.5940 C   0  0  0  0  0  0  0  0  0  0  0  0
  130.6550  123.6150   57.8280 C   0  0  0  0  0  0  0  0  0  0  0  0
  130.9360  124.4410   56.6850 C   0  0  0  0  0  0  0  0  0  0  0  0
  132.2140  124.6510   56.2310 N   0  0  0  0  0  0  0  0  0  0  0  0
  129.7930  125.0010   56.0900 C   0  0  0  0  0  0  0  0  0  0  0  0
  129.7130  125.8940   54.9330 C   0  0  0  0  0  0  0  0  0  0  0  0
  129.2340  125.5000   53.8680 O   0  0  0  0  0  0  0  0  0  0  0  0
  130.1840  127.1490   55.1350 N   0  0  0  0  0  0  0  0  0  0  0  0
  130.2890  128.2230   54.2290 C   0  0  0  0  0  0  0  0  0  0  0  0
  130.2030  129.5020   54.7850 C   0  0  0  0  0  0  0  0  0  0  0  0
  130.3050  130.6290   53.9730 C   0  0  0  0  0  0  0  0  0  0  0  0
  130.5030  130.4760   52.6030 C   0  0  0  0  0  0  0  0  0  0  0  0
  130.6040  129.2070   52.0390 C   0  0  0  0  0  0  0  0  0  0  0  0
  130.5010  128.0790   52.8480 C   0  0  0  0  0  0  0  0  0  0  0  0
  128.3280  124.5070   56.9400 S   0  0  0  0  0  0  0  0  0  0  0  0
  129.2510  123.5590   58.0830 C   0  0  0  0  0  0  0  0  0  0  0  0
  128.6680  122.8770   59.0700 N   0  0  0  0  0  0  0  0  0  0  0  0
  1  2  1  0
  2  3  2  0
  3  4  1  0
  4  5  1  0
  4  6  2  0
  6  7  1  0
  7  8  1  0
  7  9  2  0
  9 10  1  0
 10 11  2  0
 10 12  1  0
 12 13  1  0
 13 14  2  0
 14 15  1  0
 15 16  2  0
 16 17  1  0
 17 18  2  0
  9 19  1  0
 19 20  1  0
 20 21  2  0
 21  2  1  0
 20  6  1  0
 18 13  1  0
M  END
>  <Binding energies>  (40) 
[-7.54]

>  <Ligand effiencies>  (40) 
[-0.31416666666666665]

>  <Interactions>  (40) 
["V-A:MET:535:CG:4828, H-A:TYR:531:OH:4790, V-A:ILE:369:CD1:3234, H-A:LYS:534:NZ:4818, V-B:PRO:540:CA:9851, H-B:TYR:539:OH:9846, V-B:MET:535:CE:9803, V-A:TYR:531:CZ:4789, V-B:TYR:539:CE2:9844, V-A:ILE:369:CG2:3232, V-B:TYR:539:CD2:9842, V-B:TYR:539:CZ:9845, V-A:TYR:531:CE1:4787, V-A:MET:535:CB:4827, V-A:LYS:534:CD:4816, V-B:PRO:540:C:9849, V-B:ALA:541:CB:9860, V-B:ALA:541:CA:9858, V-A:TYR:531:CD1:4785, V-A:LYS:534:CE:4817, V-A:LYS:534:CB:4814"]

$$$$
4ae_Grossjean_2025
     RDKit          3D

 22 24  0  0  0  0  0  0  0  0999 V2000
  129.9580  131.9500   54.3170 C   0  0  0  0  0  0  0  0  0  0  0  0
  130.1760  130.5480   53.7830 C   0  0  0  0  0  0  0  0  0  0  0  0
  130.4180  130.3110   52.4280 C   0  0  0  0  0  0  0  0  0  0  0  0
  130.6020  128.9940   52.0070 C   0  0  0  0  0  0  0  0  0  0  0  0
  130.5390  127.9560   52.9400 C   0  0  0  0  0  0  0  0  0  0  0  0
  130.3010  128.2640   54.2840 C   0  0  0  0  0  0  0  0  0  0  0  0
  130.2280  127.1770   55.1720 N   0  0  0  0  0  0  0  0  0  0  0  0
  129.7540  125.9260   54.9440 C   0  0  0  0  0  0  0  0  0  0  0  0
  129.2880  125.5550   53.8660 O   0  0  0  0  0  0  0  0  0  0  0  0
  129.8220  125.0130   56.0870 C   0  0  0  0  0  0  0  0  0  0  0  0
  128.3470  124.5090   56.9140 S   0  0  0  0  0  0  0  0  0  0  0  0
  129.2580  123.5560   58.0620 C   0  0  0  0  0  0  0  0  0  0  0  0
  128.6640  122.8690   59.0370 N   0  0  0  0  0  0  0  0  0  0  0  0
  129.4850  122.1760   59.8630 C   0  0  0  0  0  0  0  0  0  0  0  0
  128.7880  121.4070   60.9710 C   0  0  0  0  0  0  0  0  0  0  0  0
  130.8730  122.1520   59.7350 C   0  0  0  0  0  0  0  0  0  0  0  0
  131.4930  122.8740   58.7080 C   0  0  0  0  0  0  0  0  0  0  0  0
  133.0100  122.8190   58.6120 C   0  0  0  0  0  0  0  0  0  0  0  0
  130.6640  123.6150   57.8230 C   0  0  0  0  0  0  0  0  0  0  0  0
  130.9590  124.4510   56.6900 C   0  0  0  0  0  0  0  0  0  0  0  0
  132.2410  124.6690   56.2540 N   0  0  0  0  0  0  0  0  0  0  0  0
  130.1140  129.5510   54.7020 N   0  0  0  0  0  0  0  0  0  0  0  0
  1  2  1  0
  2  3  2  0
  3  4  1  0
  4  5  2  0
  5  6  1  0
  6  7  1  0
  7  8  1  0
  8  9  2  0
  8 10  1  0
 10 11  1  0
 11 12  1  0
 12 13  2  0
 13 14  1  0
 14 15  1  0
 14 16  2  0
 16 17  1  0
 17 18  1  0
 17 19  2  0
 19 20  1  0
 20 21  1  0
  6 22  2  0
 22  2  1  0
 20 10  2  0
 19 12  1  0
M  END
>  <Binding energies>  (41) 
[-7.58]

>  <Ligand effiencies>  (41) 
[-0.3032]

>  <Interactions>  (41) 
["V-A:MET:535:CG:4828, H-A:TYR:531:OH:4790, V-A:ILE:369:CD1:3234, H-A:LYS:534:NZ:4818, V-B:PRO:540:CA:9851, H-B:TYR:539:OH:9846, V-B:MET:535:CE:9803, V-A:TYR:531:CZ:4789, V-B:TYR:539:CE2:9844, V-A:ILE:369:CG2:3232, V-B:TYR:539:CD2:9842, V-B:TYR:539:CZ:9845, V-A:TYR:531:CE1:4787, V-A:MET:535:CB:4827, V-A:LYS:534:CD:4816, V-B:PRO:540:C:9849, V-B:ALA:541:CB:9860, V-B:ALA:541:CA:9858, V-A:TYR:531:CD1:4785, V-A:LYS:534:CE:4817, V-A:LYS:534:CB:4814, V-A:MET:535:CA:4825"]

$$$$
4af_Grossjean_2025
     RDKit          3D

 21 23  0  0  0  0  0  0  0  0999 V2000
  128.8600  121.4230   61.0260 C   0  0  0  0  0  0  0  0  0  0  0  0
  129.5450  122.1890   59.9090 C   0  0  0  0  0  0  0  0  0  0  0  0
  130.9310  122.1640   59.7670 C   0  0  0  0  0  0  0  0  0  0  0  0
  131.5420  122.8800   58.7310 C   0  0  0  0  0  0  0  0  0  0  0  0
  133.0570  122.8230   58.6180 C   0  0  0  0  0  0  0  0  0  0  0  0
  130.7040  123.6180   57.8510 C   0  0  0  0  0  0  0  0  0  0  0  0
  130.9870  124.4470   56.7100 C   0  0  0  0  0  0  0  0  0  0  0  0
  132.2660  124.6610   56.2610 N   0  0  0  0  0  0  0  0  0  0  0  0
  129.8460  125.0030   56.1120 C   0  0  0  0  0  0  0  0  0  0  0  0
  129.7680  125.9090   54.9640 C   0  0  0  0  0  0  0  0  0  0  0  0
  129.3130  125.5200   53.8880 O   0  0  0  0  0  0  0  0  0  0  0  0
  130.2110  127.1700   55.1900 N   0  0  0  0  0  0  0  0  0  0  0  0
  130.3160  128.2560   54.2990 C   0  0  0  0  0  0  0  0  0  0  0  0
  130.5540  128.1560   52.9170 C   0  0  0  0  0  0  0  0  0  0  0  0
  130.6540  129.3170   52.1470 C   0  0  0  0  0  0  0  0  0  0  0  0
  130.5170  130.5530   52.7810 C   0  0  0  0  0  0  0  0  0  0  0  0
  130.2940  130.6760   54.1130 N   0  0  0  0  0  0  0  0  0  0  0  0
  130.2000  129.5390   54.8480 C   0  0  0  0  0  0  0  0  0  0  0  0
  128.3780  124.5100   56.9600 S   0  0  0  0  0  0  0  0  0  0  0  0
  129.3010  123.5620   58.1030 C   0  0  0  0  0  0  0  0  0  0  0  0
  128.7150  122.8800   59.0890 N   0  0  0  0  0  0  0  0  0  0  0  0
  1  2  1  0
  2  3  2  0
  3  4  1  0
  4  5  1  0
  4  6  2  0
  6  7  1  0
  7  8  1  0
  7  9  2  0
  9 10  1  0
 10 11  2  0
 10 12  1  0
 12 13  1  0
 13 14  2  0
 14 15  1  0
 15 16  2  0
 16 17  1  0
 17 18  2  0
  9 19  1  0
 19 20  1  0
 20 21  2  0
 21  2  1  0
 20  6  1  0
 18 13  1  0
M  END
>  <Binding energies>  (42) 
[-7.12]

>  <Ligand effiencies>  (42) 
[-0.2966666666666667]

>  <Interactions>  (42) 
["V-A:MET:535:CG:4828, H-A:TYR:531:OH:4790, V-A:ILE:369:CD1:3234, H-A:LYS:534:NZ:4818, V-A:ILE:369:CB:3231, V-B:PRO:540:CA:9851, H-B:TYR:539:OH:9846, V-B:MET:535:CE:9803, V-A:TYR:531:CZ:4789, V-B:TYR:539:CE2:9844, V-A:ILE:369:CG2:3232, V-B:TYR:539:CD2:9842, V-B:TYR:539:CZ:9845, V-A:TYR:531:CE1:4787, V-A:MET:535:CB:4827, V-A:LYS:534:CD:4816, V-B:PRO:540:C:9849, V-B:ALA:541:CB:9860, V-B:ALA:541:CA:9858, V-A:TYR:531:CD1:4785, V-A:LYS:534:CE:4817, V-A:LYS:534:CB:4814"]

$$$$
4ag_Grossjean_2025
     RDKit          3D

 22 24  0  0  0  0  0  0  0  0999 V2000
  130.3100  121.3850   61.5810 C   0  0  0  0  0  0  0  0  0  0  0  0
  130.7010  122.1320   60.3200 C   0  0  0  0  0  0  0  0  0  0  0  0
  132.0350  122.2310   59.9290 C   0  0  0  0  0  0  0  0  0  0  0  0
  132.3730  122.9240   58.7610 C   0  0  0  0  0  0  0  0  0  0  0  0
  133.8430  123.0030   58.3760 C   0  0  0  0  0  0  0  0  0  0  0  0
  131.3200  123.5090   58.0090 C   0  0  0  0  0  0  0  0  0  0  0  0
  131.3070  124.2720   56.7900 C   0  0  0  0  0  0  0  0  0  0  0  0
  132.4560  124.5750   56.1020 N   0  0  0  0  0  0  0  0  0  0  0  0
  130.0260  124.6720   56.3830 C   0  0  0  0  0  0  0  0  0  0  0  0
  129.6490  125.4430   55.1980 C   0  0  0  0  0  0  0  0  0  0  0  0
  129.0620  124.9170   54.2500 O   0  0  0  0  0  0  0  0  0  0  0  0
  129.9960  126.7470   55.2020 N   0  0  0  0  0  0  0  0  0  0  0  0
  129.6990  127.7070   54.1400 C   0  0  0  0  0  0  0  0  0  0  0  0
  130.6360  128.9080   54.1100 C   0  0  0  0  0  0  0  0  0  0  0  0
  131.2560  129.2780   52.9130 C   0  0  0  0  0  0  0  0  0  0  0  0
  132.0940  130.3900   52.8780 C   0  0  0  0  0  0  0  0  0  0  0  0
  132.3000  131.1360   54.0370 C   0  0  0  0  0  0  0  0  0  0  0  0
  131.6730  130.7820   55.2290 C   0  0  0  0  0  0  0  0  0  0  0  0
  130.8350  129.6710   55.2650 C   0  0  0  0  0  0  0  0  0  0  0  0
  128.7900  124.1000   57.5030 S   0  0  0  0  0  0  0  0  0  0  0  0
  129.9960  123.3370   58.5150 C   0  0  0  0  0  0  0  0  0  0  0  0
  129.6710  122.6760   59.6270 N   0  0  0  0  0  0  0  0  0  0  0  0
  1  2  1  0
  2  3  2  0
  3  4  1  0
  4  5  1  0
  4  6  2  0
  6  7  1  0
  7  8  1  0
  7  9  2  0
  9 10  1  0
 10 11  2  0
 10 12  1  0
 12 13  1  0
 13 14  1  0
 14 15  2  0
 15 16  1  0
 16 17  2  0
 17 18  1  0
 18 19  2  0
  9 20  1  0
 20 21  1  0
 21 22  2  0
 22  2  1  0
 21  6  1  0
 19 14  1  0
M  END
>  <Binding energies>  (43) 
[-7.7]

>  <Ligand effiencies>  (43) 
[-0.308]

>  <Interactions>  (43) 
["V-A:MET:535:CG:4828, H-A:TYR:531:OH:4790, V-A:ILE:369:CD1:3234, V-A:ILE:538:CD1:4860, V-A:LEU:363:CD1:3184, H-A:LYS:534:NZ:4818, V-A:ILE:369:CB:3231, H-B:TYR:539:OH:9846, V-A:TYR:531:CZ:4789, V-A:ASP:366:CB:3207, V-B:TYR:539:CE2:9844, V-A:ILE:369:CG2:3232, V-B:TYR:539:CZ:9845, V-A:TYR:531:CE1:4787, V-A:TYR:531:CE2:4788, V-A:TYR:531:C:4779, V-A:ILE:369:CG1:3233, V-A:ASP:366:CA:3205, V-B:ALA:541:CB:9860, V-A:TYR:531:CD1:4785, H-A:ASN:370:OD1:3242, H-A:ASP:366:O:3204"]

$$$$
4ah_Grossjean_2025
     RDKit          3D

 28 30  0  0  0  0  0  0  0  0999 V2000
  132.7070  130.7320   53.1050 C   0  0  0  0  0  0  0  0  0  0  0  0
  131.6720  131.6210   53.5110 O   0  0  0  0  0  0  0  0  0  0  0  0
  130.5760  131.1210   54.1910 C   0  0  0  0  0  0  0  0  0  0  0  0
  129.9610  129.8950   53.8940 C   0  0  0  0  0  0  0  0  0  0  0  0
  128.8560  129.4540   54.6220 C   0  0  0  0  0  0  0  0  0  0  0  0
  128.2300  128.0980   54.3150 C   0  0  0  0  0  0  0  0  0  0  0  0
  128.5440  127.0710   55.3080 N   0  0  0  0  0  0  0  0  0  0  0  0
  129.1090  125.8740   55.0430 C   0  0  0  0  0  0  0  0  0  0  0  0
  129.3870  125.5090   53.8990 O   0  0  0  0  0  0  0  0  0  0  0  0
  129.3380  125.0040   56.1960 C   0  0  0  0  0  0  0  0  0  0  0  0
  127.9890  124.5270   57.2290 S   0  0  0  0  0  0  0  0  0  0  0  0
  129.0560  123.6230   58.2800 C   0  0  0  0  0  0  0  0  0  0  0  0
  128.6030  122.9630   59.3460 N   0  0  0  0  0  0  0  0  0  0  0  0
  129.5330  122.3010   60.0760 C   0  0  0  0  0  0  0  0  0  0  0  0
  128.9970  121.5590   61.2860 C   0  0  0  0  0  0  0  0  0  0  0  0
  130.8910  122.2830   59.7670 C   0  0  0  0  0  0  0  0  0  0  0  0
  131.3650  122.9790   58.6490 C   0  0  0  0  0  0  0  0  0  0  0  0
  132.8560  122.9300   58.3530 C   0  0  0  0  0  0  0  0  0  0  0  0
  130.4190  123.6870   57.8590 C   0  0  0  0  0  0  0  0  0  0  0  0
  130.5530  124.4920   56.6750 C   0  0  0  0  0  0  0  0  0  0  0  0
  131.7660  124.7190   56.0750 N   0  0  0  0  0  0  0  0  0  0  0  0
  128.3730  130.2300   55.6770 C   0  0  0  0  0  0  0  0  0  0  0  0
  128.9640  131.4630   55.9930 C   0  0  0  0  0  0  0  0  0  0  0  0
  128.5280  132.2890   57.0140 O   0  0  0  0  0  0  0  0  0  0  0  0
  129.2910  132.3780   58.2130 C   0  0  0  0  0  0  0  0  0  0  0  0
  130.0610  131.9000   55.2380 C   0  0  0  0  0  0  0  0  0  0  0  0
  130.6610  133.0970   55.5480 O   0  0  0  0  0  0  0  0  0  0  0  0
  131.9830  132.9670   56.0550 C   0  0  0  0  0  0  0  0  0  0  0  0
  1  2  1  0
  2  3  1  0
  3  4  2  0
  4  5  1  0
  5  6  1  0
  6  7  1  0
  7  8  1  0
  8  9  2  0
  8 10  1  0
 10 11  1  0
 11 12  1  0
 12 13  2  0
 13 14  1  0
 14 15  1  0
 14 16  2  0
 16 17  1  0
 17 18  1  0
 17 19  2  0
 19 20  1  0
 20 21  1  0
  5 22  2  0
 22 23  1  0
 23 24  1  0
 24 25  1  0
 23 26  2  0
 26 27  1  0
 27 28  1  0
 26  3  1  0
 20 10  2  0
 19 12  1  0
M  END
>  <Binding energies>  (44) 
[-7.52]

>  <Ligand effiencies>  (44) 
[-0.2425806451612903]

>  <Interactions>  (44) 
["V-A:PRO:540:CA:4878, V-A:ILE:538:CG2:4858, V-A:MET:535:CG:4828, H-A:TYR:531:OH:4790, V-A:TYR:539:CE1:4870, V-A:PRO:540:CB:4880, V-A:ILE:538:CD1:4860, V-A:LEU:363:CD1:3184, H-A:LYS:534:NZ:4818, V-A:PRO:540:CG:4881, H-B:TYR:539:OH:9846, V-B:MET:535:CE:9803, V-A:PRO:540:N:4879, V-A:TYR:531:CZ:4789, V-A:TYR:539:C:4862, V-B:TYR:539:CE2:9844, V-B:TYR:539:CD2:9842, V-A:PRO:540:CD:4882, V-B:TYR:539:CZ:9845, V-A:TYR:531:CE1:4787, V-A:TYR:531:CE2:4788, V-A:MET:535:CB:4827, V-A:TYR:531:CD2:4786, H-A:TYR:539:N:4865, V-A:TYR:531:CG:4784, V-A:TYR:531:C:4779, V-B:PRO:540:C:9849, V-B:ALA:541:CB:9860, V-B:ALA:541:CA:9858"]

$$$$
4ai_Grossjean_2025
     RDKit          3D

 20 22  0  0  0  0  0  0  0  0999 V2000
  129.4070  121.0370   61.2130 C   0  0  0  0  0  0  0  0  0  0  0  0
  129.9700  121.8770   60.0810 C   0  0  0  0  0  0  0  0  0  0  0  0
  131.3460  121.9830   59.8820 C   0  0  0  0  0  0  0  0  0  0  0  0
  131.8430  122.7590   58.8290 C   0  0  0  0  0  0  0  0  0  0  0  0
  133.3520  122.8400   58.6520 C   0  0  0  0  0  0  0  0  0  0  0  0
  130.9040  123.4190   57.9910 C   0  0  0  0  0  0  0  0  0  0  0  0
  131.0610  124.2740   56.8460 C   0  0  0  0  0  0  0  0  0  0  0  0
  132.2950  124.6150   56.3500 N   0  0  0  0  0  0  0  0  0  0  0  0
  129.8490  124.7130   56.2900 C   0  0  0  0  0  0  0  0  0  0  0  0
  129.6400  125.5930   55.1390 C   0  0  0  0  0  0  0  0  0  0  0  0
  129.0200  125.1980   54.1490 O   0  0  0  0  0  0  0  0  0  0  0  0
  130.1550  126.8420   55.2610 N   0  0  0  0  0  0  0  0  0  0  0  0
  130.0940  127.8750   54.3340 C   0  0  0  0  0  0  0  0  0  0  0  0
  129.7930  129.1920   54.6800 C   0  0  0  0  0  0  0  0  0  0  0  0
  129.8300  129.8910   53.4960 C   0  0  0  0  0  0  0  0  0  0  0  0
  130.1380  129.0400   52.4890 O   0  0  0  0  0  0  0  0  0  0  0  0
  130.3050  127.7650   53.0320 N   0  0  0  0  0  0  0  0  0  0  0  0
  128.4700  124.0900   57.2000 S   0  0  0  0  0  0  0  0  0  0  0  0
  129.5240  123.2310   58.3010 C   0  0  0  0  0  0  0  0  0  0  0  0
  129.0460  122.4930   59.3040 N   0  0  0  0  0  0  0  0  0  0  0  0
  1  2  1  0
  2  3  2  0
  3  4  1  0
  4  5  1  0
  4  6  2  0
  6  7  1  0
  7  8  1  0
  7  9  2  0
  9 10  1  0
 10 11  2  0
 10 12  1  0
 12 13  1  0
 13 14  1  0
 14 15  2  0
 15 16  1  0
 16 17  1  0
  9 18  1  0
 18 19  1  0
 19 20  2  0
 20  2  1  0
 19  6  1  0
 17 13  2  0
M  END
>  <Binding energies>  (45) 
[-6.7]

>  <Ligand effiencies>  (45) 
[-0.29130434782608694]

>  <Interactions>  (45) 
["V-A:MET:535:CG:4828, H-A:TYR:531:OH:4790, V-A:ILE:369:CD1:3234, H-A:LYS:534:NZ:4818, V-A:ILE:369:CB:3231, H-B:TYR:539:OH:9846, V-A:TYR:531:CZ:4789, V-B:TYR:539:CE2:9844, V-A:ILE:369:CG2:3232, V-B:TYR:539:CD2:9842, V-B:TYR:539:CZ:9845, V-A:TYR:531:CE1:4787, V-A:MET:535:CB:4827, V-B:PRO:540:C:9849, V-B:ALA:541:CB:9860, V-B:ALA:541:CA:9858, H-A:MET:535:N:4826, H-A:ASP:366:O:3204"]

$$$$
4aj_Grossjean_2025
     RDKit          3D

 20 22  0  0  0  0  0  0  0  0999 V2000
  128.6660  121.4680   61.0280 C   0  0  0  0  0  0  0  0  0  0  0  0
  129.3820  122.2200   59.9220 C   0  0  0  0  0  0  0  0  0  0  0  0
  130.7690  122.1670   59.7990 C   0  0  0  0  0  0  0  0  0  0  0  0
  131.4090  122.8740   58.7750 C   0  0  0  0  0  0  0  0  0  0  0  0
  132.9250  122.7840   58.6840 C   0  0  0  0  0  0  0  0  0  0  0  0
  130.6000  123.6290   57.8840 C   0  0  0  0  0  0  0  0  0  0  0  0
  130.9170  124.4540   56.7490 C   0  0  0  0  0  0  0  0  0  0  0  0
  132.2060  124.6480   56.3220 N   0  0  0  0  0  0  0  0  0  0  0  0
  129.7950  125.0250   56.1290 C   0  0  0  0  0  0  0  0  0  0  0  0
  129.7510  125.9160   54.9680 C   0  0  0  0  0  0  0  0  0  0  0  0
  129.3170  125.5190   53.8850 O   0  0  0  0  0  0  0  0  0  0  0  0
  130.2020  127.1770   55.1840 N   0  0  0  0  0  0  0  0  0  0  0  0
  130.2560  128.2130   54.2620 C   0  0  0  0  0  0  0  0  0  0  0  0
  130.5760  128.1430   52.9880 N   0  0  0  0  0  0  0  0  0  0  0  0
  130.5180  129.3260   52.4080 C   0  0  0  0  0  0  0  0  0  0  0  0
  130.1440  130.3930   53.2210 C   0  0  0  0  0  0  0  0  0  0  0  0
  129.8530  129.8010   54.8300 S   0  0  0  0  0  0  0  0  0  0  0  0
  128.3060  124.5630   56.9550 S   0  0  0  0  0  0  0  0  0  0  0  0
  129.1910  123.5990   58.1150 C   0  0  0  0  0  0  0  0  0  0  0  0
  128.5780  122.9280   59.0910 N   0  0  0  0  0  0  0  0  0  0  0  0
  1  2  1  0
  2  3  2  0
  3  4  1  0
  4  5  1  0
  4  6  2  0
  6  7  1  0
  7  8  1  0
  7  9  2  0
  9 10  1  0
 10 11  2  0
 10 12  1  0
 12 13  1  0
 13 14  2  0
 14 15  1  0
 15 16  2  0
 16 17  1  0
  9 18  1  0
 18 19  1  0
 19 20  2  0
 20  2  1  0
 19  6  1  0
 17 13  1  0
M  END
>  <Binding energies>  (46) 
[-6.75]

>  <Ligand effiencies>  (46) 
[-0.29347826086956524]

>  <Interactions>  (46) 
["V-A:MET:535:CG:4828, H-A:TYR:531:OH:4790, H-A:LYS:534:NZ:4818, V-B:PRO:540:CA:9851, H-B:TYR:539:OH:9846, V-B:MET:535:CE:9803, V-A:TYR:531:CZ:4789, V-B:TYR:539:CE2:9844, V-A:ILE:369:CG2:3232, V-B:TYR:539:CD2:9842, V-B:TYR:539:CZ:9845, V-A:TYR:531:CE1:4787, V-A:MET:535:CB:4827, V-B:PRO:540:C:9849, V-B:ALA:541:CB:9860, V-B:ALA:541:CA:9858, V-A:LYS:534:CB:4814"]

$$$$
4ak_Grossjean_2025
     RDKit          3D

 25 26  0  0  0  0  0  0  0  0999 V2000
  129.7500  132.8370   56.4850 C   0  0  0  0  0  0  0  0  0  0  0  0
  130.7860  133.3630   55.6700 O   0  0  0  0  0  0  0  0  0  0  0  0
  131.9390  132.5310   55.6130 C   0  0  0  0  0  0  0  0  0  0  0  0
  131.9830  131.8120   54.2590 C   0  0  0  0  0  0  0  0  0  0  0  0
  130.8030  131.0360   54.0980 O   0  0  0  0  0  0  0  0  0  0  0  0
  131.0420  129.7200   53.6170 C   0  0  0  0  0  0  0  0  0  0  0  0
  130.1260  128.7360   54.3540 C   0  0  0  0  0  0  0  0  0  0  0  0
  129.1500  129.4640   55.0880 O   0  0  0  0  0  0  0  0  0  0  0  0
  127.8700  128.8470   55.1110 C   0  0  0  0  0  0  0  0  0  0  0  0
  127.9840  127.4170   54.5530 C   0  0  0  0  0  0  0  0  0  0  0  0
  128.4650  126.4410   55.5310 N   0  0  0  0  0  0  0  0  0  0  0  0
  129.4660  125.5610   55.3290 C   0  0  0  0  0  0  0  0  0  0  0  0
  130.1000  125.5130   54.2730 O   0  0  0  0  0  0  0  0  0  0  0  0
  129.7680  124.6640   56.4430 C   0  0  0  0  0  0  0  0  0  0  0  0
  128.4630  123.9510   57.3910 S   0  0  0  0  0  0  0  0  0  0  0  0
  129.6040  123.0920   58.4000 C   0  0  0  0  0  0  0  0  0  0  0  0
  129.2080  122.3060   59.4030 N   0  0  0  0  0  0  0  0  0  0  0  0
  130.1930  121.7000   60.1090 C   0  0  0  0  0  0  0  0  0  0  0  0
  129.7220  120.8100   61.2440 C   0  0  0  0  0  0  0  0  0  0  0  0
  131.5510  121.8580   59.8380 C   0  0  0  0  0  0  0  0  0  0  0  0
  131.9640  122.6820   58.7850 C   0  0  0  0  0  0  0  0  0  0  0  0
  133.4560  122.8260   58.5310 C   0  0  0  0  0  0  0  0  0  0  0  0
  130.9590  123.3360   58.0220 C   0  0  0  0  0  0  0  0  0  0  0  0
  131.0230  124.2320   56.8990 C   0  0  0  0  0  0  0  0  0  0  0  0
  132.2140  124.6220   56.3390 N   0  0  0  0  0  0  0  0  0  0  0  0
  1  2  1  0
  2  3  1  0
  3  4  1  0
  4  5  1  0
  5  6  1  0
  6  7  1  0
  7  8  1  0
  8  9  1  0
  9 10  1  0
 10 11  1  0
 11 12  1  0
 12 13  2  0
 12 14  1  0
 14 15  1  0
 15 16  1  0
 16 17  2  0
 17 18  1  0
 18 19  1  0
 18 20  2  0
 20 21  1  0
 21 22  1  0
 21 23  2  0
 23 24  1  0
 24 25  1  0
 24 14  2  0
 23 16  1  0
M  END
>  <Binding energies>  (47) 
[-6.32]

>  <Ligand effiencies>  (47) 
[-0.22571428571428573]

>  <Interactions>  (47) 
["V-A:ILE:538:CG2:4858, V-A:MET:535:CG:4828, H-A:TYR:531:OH:4790, V-A:TYR:539:CE1:4870, V-A:ILE:369:CD1:3234, V-A:ILE:538:CD1:4860, V-A:LEU:363:CD1:3184, H-A:LYS:534:NZ:4818, V-A:ILE:369:CB:3231, H-B:TYR:539:OH:9846, V-A:PRO:540:N:4879, V-A:TYR:531:CZ:4789, V-A:TYR:539:C:4862, V-B:TYR:539:CE2:9844, V-A:ILE:369:CG2:3232, V-B:TYR:539:CD2:9842, V-A:PRO:540:CD:4882, V-B:TYR:539:CZ:9845, V-A:TYR:531:CE1:4787, V-A:TYR:539:CG:4867, H-A:TYR:539:N:4865, V-A:TYR:539:CD1:4868, V-B:ALA:541:CB:9860"]

$$$$
4al_Grossjean_2025
     RDKit          3D

 16 17  0  0  0  0  0  0  0  0999 V2000
  127.8110  134.5520   61.8120 C   0  0  0  0  0  0  0  0  0  0  0  0
  128.0090  133.1470   61.7580 O   0  0  0  0  0  0  0  0  0  0  0  0
  129.2610  132.6220   61.7080 C   0  0  0  0  0  0  0  0  0  0  0  0
  129.9150  132.3000   62.7030 O   0  0  0  0  0  0  0  0  0  0  0  0
  129.7660  132.4710   60.3260 C   0  0  0  0  0  0  0  0  0  0  0  0
  128.9280  133.2620   58.9890 S   0  0  0  0  0  0  0  0  0  0  0  0
  130.0770  132.6240   57.8360 C   0  0  0  0  0  0  0  0  0  0  0  0
  129.9850  132.8840   56.5310 N   0  0  0  0  0  0  0  0  0  0  0  0
  130.9390  132.3280   55.7440 C   0  0  0  0  0  0  0  0  0  0  0  0
  130.8160  132.6360   54.2630 C   0  0  0  0  0  0  0  0  0  0  0  0
  131.9720  131.5270   56.2270 C   0  0  0  0  0  0  0  0  0  0  0  0
  132.0660  131.2560   57.5970 C   0  0  0  0  0  0  0  0  0  0  0  0
  133.2100  130.3780   58.0760 C   0  0  0  0  0  0  0  0  0  0  0  0
  131.0830  131.8220   58.4530 C   0  0  0  0  0  0  0  0  0  0  0  0
  130.8800  131.7530   59.8730 C   0  0  0  0  0  0  0  0  0  0  0  0
  131.7090  131.0440   60.7040 N   0  0  0  0  0  0  0  0  0  0  0  0
  1  2  1  0
  2  3  1  0
  3  4  2  0
  3  5  1  0
  5  6  1  0
  6  7  1  0
  7  8  2  0
  8  9  1  0
  9 10  1  0
  9 11  2  0
 11 12  1  0
 12 13  1  0
 12 14  2  0
 14 15  1  0
 15 16  1  0
 15  5  2  0
 14  7  1  0
M  END
>  <Binding energies>  (48) 
[-5.41]

>  <Ligand effiencies>  (48) 
[-0.3005555555555556]

>  <Interactions>  (48) 
["V-A:TYR:539:CE2:4871, V-A:PRO:540:CA:4878, V-A:ILE:538:CG2:4858, H-A:GLU:543:OE2:4905, V-B:LEU:475:CD2:9226, V-A:ILE:538:CA:4855, V-A:PRO:540:CB:4880, H-A:ALA:541:N:4886, V-A:ALA:541:CB:4887, V-A:ILE:538:CD1:4860, V-A:LEU:363:CD1:3184, V-A:TYR:539:CD2:4869, V-A:PRO:540:N:4879, V-A:TYR:531:CZ:4789, V-A:TYR:539:C:4862, V-A:PRO:540:CD:4882, V-A:TYR:531:CE2:4788, V-A:TYR:539:CG:4867, V-A:LEU:363:CA:3180, H-A:TYR:539:N:4865, H-A:ASP:366:OD2:3210, V-A:PRO:540:C:4876"]

$$$$
4bc_Grossjean_2025
     RDKit          3D

 26 28  0  0  0  0  0  0  0  0999 V2000
  123.5480  130.4630   66.5850 C   0  0  0  0  0  0  0  0  0  0  0  0
  123.2400  130.3740   65.1980 O   0  0  0  0  0  0  0  0  0  0  0  0
  124.1880  130.7630   64.2710 C   0  0  0  0  0  0  0  0  0  0  0  0
  124.8270  129.7420   63.5690 C   0  0  0  0  0  0  0  0  0  0  0  0
  125.7970  130.0370   62.6150 C   0  0  0  0  0  0  0  0  0  0  0  0
  126.1350  131.3640   62.3440 C   0  0  0  0  0  0  0  0  0  0  0  0
  127.1370  131.5650   61.3760 N   0  0  0  0  0  0  0  0  0  0  0  0
  128.3690  132.1100   61.5180 C   0  0  0  0  0  0  0  0  0  0  0  0
  128.8000  132.5680   62.5770 O   0  0  0  0  0  0  0  0  0  0  0  0
  129.1900  132.1370   60.3030 C   0  0  0  0  0  0  0  0  0  0  0  0
  128.6270  132.9960   58.8710 S   0  0  0  0  0  0  0  0  0  0  0  0
  130.0680  132.5550   57.9850 C   0  0  0  0  0  0  0  0  0  0  0  0
  130.2540  132.9440   56.7230 N   0  0  0  0  0  0  0  0  0  0  0  0
  131.4070  132.5400   56.1420 C   0  0  0  0  0  0  0  0  0  0  0  0
  131.6020  132.9970   54.7080 C   0  0  0  0  0  0  0  0  0  0  0  0
  132.3680  131.7620   56.7840 C   0  0  0  0  0  0  0  0  0  0  0  0
  132.1760  131.3500   58.1120 C   0  0  0  0  0  0  0  0  0  0  0  0
  133.2610  130.4930   58.7750 C   0  0  0  0  0  0  0  0  0  0  0  0
  134.2680  130.1980   57.9510 F   0  0  0  0  0  0  0  0  0  0  0  0
  133.7750  131.1460   59.8170 F   0  0  0  0  0  0  0  0  0  0  0  0
  132.7350  129.3420   59.1920 F   0  0  0  0  0  0  0  0  0  0  0  0
  130.9710  131.7610   58.7560 C   0  0  0  0  0  0  0  0  0  0  0  0
  130.4410  131.5410   60.0800 C   0  0  0  0  0  0  0  0  0  0  0  0
  131.1080  130.8130   61.0320 N   0  0  0  0  0  0  0  0  0  0  0  0
  125.5060  132.3970   63.0560 C   0  0  0  0  0  0  0  0  0  0  0  0
  124.5370  132.0980   64.0090 C   0  0  0  0  0  0  0  0  0  0  0  0
  1  2  1  0
  2  3  1  0
  3  4  2  0
  4  5  1  0
  5  6  2  0
  6  7  1  0
  7  8  1  0
  8  9  2  0
  8 10  1  0
 10 11  1  0
 11 12  1  0
 12 13  2  0
 13 14  1  0
 14 15  1  0
 14 16  2  0
 16 17  1  0
 17 18  1  0
 18 19  1  0
 18 20  1  0
 18 21  1  0
 17 22  2  0
 22 23  1  0
 23 24  1  0
  6 25  1  0
 25 26  2  0
 26  3  1  0
 23 10  2  0
 22 12  1  0
M  END
>  <Binding energies>  (49) 
[-6.87]

>  <Ligand effiencies>  (49) 
[-0.23689655172413793]

>  <Interactions>  (49) 
["V-A:TYR:539:CE2:4871, V-A:PRO:540:CA:4878, V-A:ILE:538:CG2:4858, V-A:ASP:366:CG:3208, H-A:GLU:543:OE2:4905, V-A:TYR:539:CZ:4872, V-B:LEU:475:CD2:9226, V-A:ILE:538:CA:4855, V-A:PRO:540:CB:4880, V-A:ILE:538:CD1:4860, V-A:LEU:363:CD1:3184, V-A:TYR:539:CD2:4869, V-A:ILE:538:CB:4857, V-A:PRO:540:N:4879, V-A:TYR:531:CZ:4789, V-A:TYR:539:C:4862, V-A:ASP:366:CB:3207, V-A:PRO:540:CD:4882, V-A:TYR:531:CE2:4788, H-B:GLY:454:N:9017, V-A:TYR:539:CG:4867, V-B:HIS:456:CE1:9037, V-A:LEU:363:CA:3180, H-A:TYR:539:N:4865, V-A:LEU:363:CB:3182, H-A:ASP:366:OD2:3210, V-A:ASN:362:C:3167, V-A:ASN:362:CB:3171, V-B:ARG:545:CZ:9894, V-B:ARG:545:CD:9891, V-A:LEU:363:CG:3183, V-B:GLY:454:CA:9016, V-A:LEU:363:C:3178"]

$$$$
4bf_Grossjean_2025
     RDKit          3D

 24 26  0  0  0  0  0  0  0  0999 V2000
  128.9850  121.4150   61.0870 C   0  0  0  0  0  0  0  0  0  0  0  0
  129.6440  122.1790   59.9520 C   0  0  0  0  0  0  0  0  0  0  0  0
  131.0240  122.1530   59.7760 C   0  0  0  0  0  0  0  0  0  0  0  0
  131.6210  122.8670   58.7260 C   0  0  0  0  0  0  0  0  0  0  0  0
  133.1440  122.8100   58.5730 C   0  0  0  0  0  0  0  0  0  0  0  0
  133.5340  122.4960   57.3350 F   0  0  0  0  0  0  0  0  0  0  0  0
  133.6730  123.9970   58.8680 F   0  0  0  0  0  0  0  0  0  0  0  0
  133.6460  121.8870   59.3950 F   0  0  0  0  0  0  0  0  0  0  0  0
  130.7560  123.6070   57.8660 C   0  0  0  0  0  0  0  0  0  0  0  0
  130.9950  124.4400   56.7130 C   0  0  0  0  0  0  0  0  0  0  0  0
  132.2520  124.6650   56.2120 N   0  0  0  0  0  0  0  0  0  0  0  0
  129.8320  124.9920   56.1510 C   0  0  0  0  0  0  0  0  0  0  0  0
  129.7130  125.9000   55.0060 C   0  0  0  0  0  0  0  0  0  0  0  0
  129.2120  125.5140   53.9490 O   0  0  0  0  0  0  0  0  0  0  0  0
  130.1720  127.1590   55.2130 N   0  0  0  0  0  0  0  0  0  0  0  0
  130.2480  128.2440   54.3190 C   0  0  0  0  0  0  0  0  0  0  0  0
  130.0370  129.5920   54.6540 C   0  0  0  0  0  0  0  0  0  0  0  0
  130.1270  130.5730   53.6640 C   0  0  0  0  0  0  0  0  0  0  0  0
  130.4230  130.1790   52.3590 C   0  0  0  0  0  0  0  0  0  0  0  0
  130.6250  128.8840   52.0080 N   0  0  0  0  0  0  0  0  0  0  0  0
  130.5330  127.9420   52.9820 C   0  0  0  0  0  0  0  0  0  0  0  0
  128.3970  124.4960   57.0440 S   0  0  0  0  0  0  0  0  0  0  0  0
  129.3570  123.5500   58.1560 C   0  0  0  0  0  0  0  0  0  0  0  0
  128.7960  122.8690   59.1540 N   0  0  0  0  0  0  0  0  0  0  0  0
  1  2  1  0
  2  3  2  0
  3  4  1  0
  4  5  1  0
  5  6  1  0
  5  7  1  0
  5  8  1  0
  4  9  2  0
  9 10  1  0
 10 11  1  0
 10 12  2  0
 12 13  1  0
 13 14  2  0
 13 15  1  0
 15 16  1  0
 16 17  2  0
 17 18  1  0
 18 19  2  0
 19 20  1  0
 20 21  2  0
 12 22  1  0
 22 23  1  0
 23 24  2  0
 24  2  1  0
 23  9  1  0
 21 16  1  0
M  END
>  <Binding energies>  (50) 
[-6.98]

>  <Ligand effiencies>  (50) 
[-0.25851851851851854]

>  <Interactions>  (50) 
["V-A:MET:535:CG:4828, V-A:ASP:366:CG:3208, H-A:TYR:531:OH:4790, V-A:ILE:369:CD1:3234, H-A:LYS:534:NZ:4818, V-A:ILE:369:CB:3231, V-B:PRO:540:CA:9851, H-B:TYR:539:OH:9846, V-A:TYR:531:CZ:4789, V-A:ASP:366:CB:3207, V-B:TYR:539:CE2:9844, V-A:ILE:369:CG2:3232, V-B:TYR:539:CD2:9842, V-B:TYR:539:CZ:9845, V-A:TYR:531:CE1:4787, V-A:MET:535:CB:4827, V-A:ILE:369:CG1:3233, V-A:LYS:534:CD:4816, V-A:ASP:366:CA:3205, V-A:ASP:366:C:3203, V-B:PRO:540:C:9849, V-B:ALA:541:CB:9860, V-B:ALA:541:CA:9858, V-A:TYR:531:CD1:4785, V-A:LYS:534:CE:4817, V-A:LYS:534:CB:4814, H-A:MET:535:N:4826, V-A:MET:535:CA:4825"]

$$$$
4bh_Grossjean_2025
     RDKit          3D

 31 33  0  0  0  0  0  0  0  0999 V2000
  132.7120  130.6710   53.1270 C   0  0  0  0  0  0  0  0  0  0  0  0
  131.6490  131.5310   53.5230 O   0  0  0  0  0  0  0  0  0  0  0  0
  130.5540  131.0000   54.1790 C   0  0  0  0  0  0  0  0  0  0  0  0
  129.9900  129.7500   53.8780 C   0  0  0  0  0  0  0  0  0  0  0  0
  128.8810  129.2770   54.5810 C   0  0  0  0  0  0  0  0  0  0  0  0
  128.3100  127.8990   54.2710 C   0  0  0  0  0  0  0  0  0  0  0  0
  128.6310  126.8920   55.2840 N   0  0  0  0  0  0  0  0  0  0  0  0
  129.6060  125.9660   55.1840 C   0  0  0  0  0  0  0  0  0  0  0  0
  130.3140  125.8540   54.1810 O   0  0  0  0  0  0  0  0  0  0  0  0
  129.7520  125.0610   56.3250 C   0  0  0  0  0  0  0  0  0  0  0  0
  128.3470  124.6330   57.2950 S   0  0  0  0  0  0  0  0  0  0  0  0
  129.3290  123.6570   58.3630 C   0  0  0  0  0  0  0  0  0  0  0  0
  128.7950  123.0030   59.3950 N   0  0  0  0  0  0  0  0  0  0  0  0
  129.6550  122.2790   60.1480 C   0  0  0  0  0  0  0  0  0  0  0  0
  129.0270  121.5450   61.3190 C   0  0  0  0  0  0  0  0  0  0  0  0
  131.0210  122.1910   59.8960 C   0  0  0  0  0  0  0  0  0  0  0  0
  131.5900  122.8790   58.8120 C   0  0  0  0  0  0  0  0  0  0  0  0
  133.0980  122.7500   58.5720 C   0  0  0  0  0  0  0  0  0  0  0  0
  133.7760  123.8520   58.9010 F   0  0  0  0  0  0  0  0  0  0  0  0
  133.5870  121.7490   59.3030 F   0  0  0  0  0  0  0  0  0  0  0  0
  133.3300  122.5080   57.2820 F   0  0  0  0  0  0  0  0  0  0  0  0
  130.7110  123.6540   57.9990 C   0  0  0  0  0  0  0  0  0  0  0  0
  130.9230  124.4790   56.8350 C   0  0  0  0  0  0  0  0  0  0  0  0
  132.1600  124.6690   56.2740 N   0  0  0  0  0  0  0  0  0  0  0  0
  128.3440  130.0450   55.6160 C   0  0  0  0  0  0  0  0  0  0  0  0
  128.8830  131.3010   55.9340 C   0  0  0  0  0  0  0  0  0  0  0  0
  128.3940  132.1200   56.9360 O   0  0  0  0  0  0  0  0  0  0  0  0
  129.1360  132.2660   58.1420 C   0  0  0  0  0  0  0  0  0  0  0  0
  129.9850  131.7700   55.2030 C   0  0  0  0  0  0  0  0  0  0  0  0
  130.5340  132.9910   55.5170 O   0  0  0  0  0  0  0  0  0  0  0  0
  131.8380  132.9110   56.0750 C   0  0  0  0  0  0  0  0  0  0  0  0
  1  2  1  0
  2  3  1  0
  3  4  2  0
  4  5  1  0
  5  6  1  0
  6  7  1  0
  7  8  1  0
  8  9  2  0
  8 10  1  0
 10 11  1  0
 11 12  1  0
 12 13  2  0
 13 14  1  0
 14 15  1  0
 14 16  2  0
 16 17  1  0
 17 18  1  0
 18 19  1  0
 18 20  1  0
 18 21  1  0
 17 22  2  0
 22 23  1  0
 23 24  1  0
  5 25  2  0
 25 26  1  0
 26 27  1  0
 27 28  1  0
 26 29  2  0
 29 30  1  0
 30 31  1  0
 29  3  1  0
 23 10  2  0
 22 12  1  0
M  END
>  <Binding energies>  (51) 
[-7.06]

>  <Ligand effiencies>  (51) 
[-0.2076470588235294]

>  <Interactions>  (51) 
["V-A:ILE:538:CG2:4858, V-A:MET:535:CG:4828, V-A:ASP:366:CG:3208, H-A:TYR:531:OH:4790, V-A:TYR:539:CE1:4870, V-A:ILE:369:CD1:3234, V-A:PRO:540:CB:4880, V-A:ILE:538:CD1:4860, V-A:LEU:363:CD1:3184, H-A:LYS:534:NZ:4818, V-A:ILE:369:CB:3231, V-A:PRO:540:CG:4881, H-B:TYR:539:OH:9846, V-A:PRO:540:N:4879, V-A:TYR:531:CZ:4789, V-A:ASP:366:CB:3207, V-B:TYR:539:CE2:9844, V-A:ILE:369:CG2:3232, V-B:TYR:539:CD2:9842, V-A:PRO:540:CD:4882, V-B:TYR:539:CZ:9845, V-A:TYR:531:CE1:4787, V-A:TYR:531:CE2:4788, V-A:TYR:531:CD2:4786, H-A:TYR:539:N:4865, V-A:TYR:531:CG:4784, V-A:TYR:531:C:4779, V-A:ILE:369:CG1:3233, V-A:ASP:366:CA:3205, V-A:ASP:366:C:3203, V-B:PRO:540:C:9849, V-B:ALA:541:CB:9860, V-B:ALA:541:CA:9858, V-A:TYR:531:CD1:4785"]

$$$$
4bi_Grossjean_2025
     RDKit          3D

 23 25  0  0  0  0  0  0  0  0999 V2000
  128.6790  121.7490   61.1800 C   0  0  0  0  0  0  0  0  0  0  0  0
  129.3990  122.4420   60.0380 C   0  0  0  0  0  0  0  0  0  0  0  0
  130.7800  122.3410   59.8940 C   0  0  0  0  0  0  0  0  0  0  0  0
  131.4330  122.9840   58.8290 C   0  0  0  0  0  0  0  0  0  0  0  0
  132.9530  122.8380   58.7080 C   0  0  0  0  0  0  0  0  0  0  0  0
  133.4520  121.8920   59.5070 F   0  0  0  0  0  0  0  0  0  0  0  0
  133.2770  122.5130   57.4560 F   0  0  0  0  0  0  0  0  0  0  0  0
  133.5450  123.9880   59.0320 F   0  0  0  0  0  0  0  0  0  0  0  0
  130.6230  123.7330   57.9250 C   0  0  0  0  0  0  0  0  0  0  0  0
  130.9270  124.5110   56.7490 C   0  0  0  0  0  0  0  0  0  0  0  0
  132.2040  124.6670   56.2730 N   0  0  0  0  0  0  0  0  0  0  0  0
  129.8030  125.0850   56.1330 C   0  0  0  0  0  0  0  0  0  0  0  0
  129.7480  125.9360   54.9410 C   0  0  0  0  0  0  0  0  0  0  0  0
  129.3090  125.5000   53.8750 O   0  0  0  0  0  0  0  0  0  0  0  0
  130.1910  127.2070   55.1130 N   0  0  0  0  0  0  0  0  0  0  0  0
  130.2400  128.2200   54.1640 C   0  0  0  0  0  0  0  0  0  0  0  0
  130.0410  129.5640   54.4750 C   0  0  0  0  0  0  0  0  0  0  0  0
  130.1690  130.2320   53.2790 C   0  0  0  0  0  0  0  0  0  0  0  0
  130.4330  129.3360   52.2980 O   0  0  0  0  0  0  0  0  0  0  0  0
  130.4750  128.0640   52.8720 N   0  0  0  0  0  0  0  0  0  0  0  0
  128.3260  124.6970   57.0130 S   0  0  0  0  0  0  0  0  0  0  0  0
  129.2180  123.7560   58.1860 C   0  0  0  0  0  0  0  0  0  0  0  0
  128.6040  123.1420   59.1970 N   0  0  0  0  0  0  0  0  0  0  0  0
  1  2  1  0
  2  3  2  0
  3  4  1  0
  4  5  1  0
  5  6  1  0
  5  7  1  0
  5  8  1  0
  4  9  2  0
  9 10  1  0
 10 11  1  0
 10 12  2  0
 12 13  1  0
 13 14  2  0
 13 15  1  0
 15 16  1  0
 16 17  1  0
 17 18  2  0
 18 19  1  0
 19 20  1  0
 12 21  1  0
 21 22  1  0
 22 23  2  0
 23  2  1  0
 22  9  1  0
 20 16  2  0
M  END
>  <Binding energies>  (52) 
[-6.51]

>  <Ligand effiencies>  (52) 
[-0.25038461538461537]

>  <Interactions>  (52) 
["V-A:MET:535:CG:4828, V-A:ASP:366:CG:3208, H-A:TYR:531:OH:4790, V-A:ILE:369:CD1:3234, H-A:LYS:534:NZ:4818, V-A:ILE:369:CB:3231, V-B:PRO:540:CA:9851, H-B:TYR:539:OH:9846, V-A:TYR:531:CZ:4789, V-A:ASP:366:CB:3207, V-B:TYR:539:CE2:9844, V-A:ILE:369:CG2:3232, V-B:TYR:539:CZ:9845, V-A:TYR:531:CE1:4787, V-A:MET:535:CB:4827, V-A:ILE:369:CG1:3233, V-A:ASP:366:CA:3205, V-B:PRO:540:C:9849, V-B:ALA:541:CB:9860, V-B:ALA:541:CA:9858, H-A:MET:535:N:4826"]

$$$$
4bj_Grossjean_2025
     RDKit          3D

 23 25  0  0  0  0  0  0  0  0999 V2000
  128.7370  121.4310   61.0140 C   0  0  0  0  0  0  0  0  0  0  0  0
  129.4510  122.1890   59.9100 C   0  0  0  0  0  0  0  0  0  0  0  0
  130.8370  122.1450   59.7900 C   0  0  0  0  0  0  0  0  0  0  0  0
  131.4850  122.8560   58.7680 C   0  0  0  0  0  0  0  0  0  0  0  0
  133.0140  122.7790   58.6780 C   0  0  0  0  0  0  0  0  0  0  0  0
  133.6150  123.9200   59.0210 F   0  0  0  0  0  0  0  0  0  0  0  0
  133.4660  121.8270   59.4940 F   0  0  0  0  0  0  0  0  0  0  0  0
  133.3770  122.4970   57.4270 F   0  0  0  0  0  0  0  0  0  0  0  0
  130.6650  123.6080   57.8750 C   0  0  0  0  0  0  0  0  0  0  0  0
  130.9620  124.4450   56.7380 C   0  0  0  0  0  0  0  0  0  0  0  0
  132.2420  124.6690   56.2970 N   0  0  0  0  0  0  0  0  0  0  0  0
  129.8290  124.9990   56.1220 C   0  0  0  0  0  0  0  0  0  0  0  0
  129.7650  125.8930   54.9640 C   0  0  0  0  0  0  0  0  0  0  0  0
  129.3010  125.5030   53.8900 O   0  0  0  0  0  0  0  0  0  0  0  0
  130.2320  127.1490   55.1700 N   0  0  0  0  0  0  0  0  0  0  0  0
  130.2740  128.1860   54.2480 C   0  0  0  0  0  0  0  0  0  0  0  0
  130.5890  128.1210   52.9730 N   0  0  0  0  0  0  0  0  0  0  0  0
  130.5170  129.3030   52.3940 C   0  0  0  0  0  0  0  0  0  0  0  0
  130.1360  130.3640   53.2090 C   0  0  0  0  0  0  0  0  0  0  0  0
  129.8610  129.7710   54.8190 S   0  0  0  0  0  0  0  0  0  0  0  0
  128.3510  124.5180   56.9520 S   0  0  0  0  0  0  0  0  0  0  0  0
  129.2560  123.5650   58.1060 C   0  0  0  0  0  0  0  0  0  0  0  0
  128.6450  122.8910   59.0790 N   0  0  0  0  0  0  0  0  0  0  0  0
  1  2  1  0
  2  3  2  0
  3  4  1  0
  4  5  1  0
  5  6  1  0
  5  7  1  0
  5  8  1  0
  4  9  2  0
  9 10  1  0
 10 11  1  0
 10 12  2  0
 12 13  1  0
 13 14  2  0
 13 15  1  0
 15 16  1  0
 16 17  2  0
 17 18  1  0
 18 19  2  0
 19 20  1  0
 12 21  1  0
 21 22  1  0
 22 23  2  0
 23  2  1  0
 22  9  1  0
 20 16  1  0
M  END
>  <Binding energies>  (53) 
[-6.57]

>  <Ligand effiencies>  (53) 
[-0.2526923076923077]

>  <Interactions>  (53) 
["V-A:MET:535:CG:4828, V-A:ASP:366:CG:3208, H-A:TYR:531:OH:4790, V-A:ILE:369:CD1:3234, H-A:LYS:534:NZ:4818, V-A:ILE:369:CB:3231, V-B:PRO:540:CA:9851, H-B:TYR:539:OH:9846, V-B:MET:535:CE:9803, V-A:TYR:531:CZ:4789, V-A:ASP:366:CB:3207, V-B:TYR:539:CE2:9844, V-A:ILE:369:CG2:3232, V-B:TYR:539:CD2:9842, V-B:TYR:539:CZ:9845, V-A:TYR:531:CE1:4787, V-A:MET:535:CB:4827, V-A:ILE:369:CG1:3233, V-A:ASP:366:CA:3205, V-B:PRO:540:C:9849, V-B:ALA:541:CB:9860, V-B:ALA:541:CA:9858, V-A:LYS:534:CB:4814"]

$$$$
4bk_Grossjean_2025
     RDKit          3D

 28 29  0  0  0  0  0  0  0  0999 V2000
  130.3230  128.6660   59.1130 C   0  0  0  0  0  0  0  0  0  0  0  0
  129.9530  129.9300   59.6420 O   0  0  0  0  0  0  0  0  0  0  0  0
  129.7600  129.9200   61.0500 C   0  0  0  0  0  0  0  0  0  0  0  0
  130.4760  131.1240   61.6740 C   0  0  0  0  0  0  0  0  0  0  0  0
  131.4880  131.5830   60.7880 O   0  0  0  0  0  0  0  0  0  0  0  0
  132.8000  131.5120   61.3280 C   0  0  0  0  0  0  0  0  0  0  0  0
  133.7090  130.7400   60.3610 C   0  0  0  0  0  0  0  0  0  0  0  0
  132.9490  130.3210   59.2370 O   0  0  0  0  0  0  0  0  0  0  0  0
  133.4820  130.7510   57.9900 C   0  0  0  0  0  0  0  0  0  0  0  0
  132.5740  131.8410   57.3960 C   0  0  0  0  0  0  0  0  0  0  0  0
  131.2080  131.8190   57.9210 N   0  0  0  0  0  0  0  0  0  0  0  0
  130.1880  132.5820   57.4740 C   0  0  0  0  0  0  0  0  0  0  0  0
  130.3170  133.3750   56.5400 O   0  0  0  0  0  0  0  0  0  0  0  0
  128.9060  132.4070   58.1570 C   0  0  0  0  0  0  0  0  0  0  0  0
  127.6160  131.4820   57.3930 S   0  0  0  0  0  0  0  0  0  0  0  0
  126.5660  131.7250   58.7680 C   0  0  0  0  0  0  0  0  0  0  0  0
  125.3330  131.2230   58.7990 N   0  0  0  0  0  0  0  0  0  0  0  0
  124.6150  131.4760   59.9190 C   0  0  0  0  0  0  0  0  0  0  0  0
  123.2140  130.8930   59.9330 C   0  0  0  0  0  0  0  0  0  0  0  0
  125.0980  132.2130   60.9970 C   0  0  0  0  0  0  0  0  0  0  0  0
  126.3960  132.7460   60.9700 C   0  0  0  0  0  0  0  0  0  0  0  0
  126.8820  133.5530   62.1790 C   0  0  0  0  0  0  0  0  0  0  0  0
  128.1020  133.1990   62.5870 F   0  0  0  0  0  0  0  0  0  0  0  0
  126.9240  134.8490   61.8690 F   0  0  0  0  0  0  0  0  0  0  0  0
  126.0510  133.3740   63.2050 F   0  0  0  0  0  0  0  0  0  0  0  0
  127.1800  132.4960   59.8040 C   0  0  0  0  0  0  0  0  0  0  0  0
  128.5210  132.8670   59.4250 C   0  0  0  0  0  0  0  0  0  0  0  0
  129.3430  133.6080   60.2350 N   0  0  0  0  0  0  0  0  0  0  0  0
  1  2  1  0
  2  3  1  0
  3  4  1  0
  4  5  1  0
  5  6  1  0
  6  7  1  0
  7  8  1  0
  8  9  1  0
  9 10  1  0
 10 11  1  0
 11 12  1  0
 12 13  2  0
 12 14  1  0
 14 15  1  0
 15 16  1  0
 16 17  2  0
 17 18  1  0
 18 19  1  0
 18 20  2  0
 20 21  1  0
 21 22  1  0
 22 23  1  0
 22 24  1  0
 22 25  1  0
 21 26  2  0
 26 27  1  0
 27 28  1  0
 27 14  2  0
 26 16  1  0
M  END
>  <Binding energies>  (54) 
[-4.02]

>  <Ligand effiencies>  (54) 
[-0.1296774193548387]

>  <Interactions>  (54) 
["V-A:TYR:539:CE2:4871, V-A:PRO:540:CA:4878, V-A:TYR:539:CE1:4870, V-A:TYR:539:CZ:4872, V-B:LEU:475:CD2:9226, V-A:PRO:540:CB:4880, V-A:ALA:541:CB:4887, V-A:LEU:363:CD1:3184, V-B:LEU:475:CD1:9225, V-A:TYR:539:CD2:4869, V-A:GLU:543:CD:4903, H-A:TYR:539:OH:4873, V-A:PRO:540:CG:4881, V-A:PRO:540:N:4879, V-A:TYR:539:C:4862, V-A:PRO:540:CD:4882, V-A:TYR:531:CE2:4788, V-B:ILE:369:CD1:8206, V-B:ASP:366:CB:8179, V-B:ASP:366:CG:8180, V-B:ASP:366:CA:8177, V-A:LEU:363:CA:3180, H-A:TYR:539:N:4865, V-A:LEU:363:CB:3182, H-A:TYR:539:O:4863, V-A:ASN:362:C:3167, V-A:ASN:362:CB:3171, V-A:PRO:540:C:4876, V-B:ILE:369:CB:8203"]

$$$$
4cd_Grossjean_2025
     RDKit          3D

 29 32  0  0  0  0  0  0  0  0999 V2000
  131.4650  131.2200   61.5890 N   0  0  0  0  0  0  0  0  0  0  0  0
  130.7100  131.4390   60.4650 C   0  0  0  0  0  0  0  0  0  0  0  0
  129.3790  131.8850   60.5060 C   0  0  0  0  0  0  0  0  0  0  0  0
  128.5500  132.1770   61.6790 C   0  0  0  0  0  0  0  0  0  0  0  0
  128.9580  132.9280   62.5650 O   0  0  0  0  0  0  0  0  0  0  0  0
  127.3350  131.5760   61.6960 N   0  0  0  0  0  0  0  0  0  0  0  0
  126.3340  131.6050   62.6840 C   0  0  0  0  0  0  0  0  0  0  0  0
  126.1680  130.4300   63.4230 C   0  0  0  0  0  0  0  0  0  0  0  0
  125.2120  130.3640   64.4320 C   0  0  0  0  0  0  0  0  0  0  0  0
  124.4240  131.4780   64.7100 C   0  0  0  0  0  0  0  0  0  0  0  0
  124.5880  132.6590   63.9910 C   0  0  0  0  0  0  0  0  0  0  0  0
  125.5430  132.7290   62.9800 C   0  0  0  0  0  0  0  0  0  0  0  0
  128.7200  132.0680   58.8820 S   0  0  0  0  0  0  0  0  0  0  0  0
  130.2220  131.5400   58.1630 C   0  0  0  0  0  0  0  0  0  0  0  0
  130.3670  131.4530   56.8430 N   0  0  0  0  0  0  0  0  0  0  0  0
  131.5680  131.0190   56.3780 C   0  0  0  0  0  0  0  0  0  0  0  0
  131.7020  130.9290   54.8850 C   0  0  0  0  0  0  0  0  0  0  0  0
  130.5830  130.6660   54.0790 C   0  0  0  0  0  0  0  0  0  0  0  0
  130.6990  130.5820   52.6940 C   0  0  0  0  0  0  0  0  0  0  0  0
  131.9410  130.7600   52.0940 C   0  0  0  0  0  0  0  0  0  0  0  0
  133.0650  131.0250   52.8690 C   0  0  0  0  0  0  0  0  0  0  0  0
  132.9440  131.1100   54.2530 C   0  0  0  0  0  0  0  0  0  0  0  0
  132.6210  130.6940   57.2380 C   0  0  0  0  0  0  0  0  0  0  0  0
  132.4790  130.7860   58.6330 C   0  0  0  0  0  0  0  0  0  0  0  0
  133.6720  130.4100   59.5180 C   0  0  0  0  0  0  0  0  0  0  0  0
  133.3320  129.6500   60.5620 F   0  0  0  0  0  0  0  0  0  0  0  0
  134.5680  129.7280   58.8040 F   0  0  0  0  0  0  0  0  0  0  0  0
  134.2420  131.5150   59.9990 F   0  0  0  0  0  0  0  0  0  0  0  0
  131.2210  131.2280   59.1320 C   0  0  0  0  0  0  0  0  0  0  0  0
  1  2  1  0
  2  3  2  0
  3  4  1  0
  4  5  2  0
  4  6  1  0
  6  7  1  0
  7  8  2  0
  8  9  1  0
  9 10  2  0
 10 11  1  0
 11 12  2  0
  3 13  1  0
 13 14  1  0
 14 15  2  0
 15 16  1  0
 16 17  1  0
 17 18  2  0
 18 19  1  0
 19 20  2  0
 20 21  1  0
 21 22  2  0
 16 23  2  0
 23 24  1  0
 24 25  1  0
 25 26  1  0
 25 27  1  0
 25 28  1  0
 24 29  2  0
 29  2  1  0
 12  7  1  0
 29 14  1  0
 22 17  1  0
M  END
>  <Binding energies>  (55) 
[-7.72]

>  <Ligand effiencies>  (55) 
[-0.24125]

>  <Interactions>  (55) 
["V-A:PRO:540:CA:4878, V-A:MET:535:CG:4828, V-A:ASP:366:CG:3208, H-A:GLU:543:OE2:4905, V-B:LEU:475:CD2:9226, V-A:PRO:540:CB:4880, H-A:ALA:541:N:4886, V-A:ILE:538:CD1:4860, V-A:LEU:363:CD1:3184, V-A:GLU:543:CD:4903, V-A:PRO:540:CG:4881, V-A:TYR:531:CZ:4789, V-A:ASP:366:CB:3207, V-A:TYR:531:CE2:4788, V-A:MET:535:CB:4827, V-A:LEU:363:CA:3180, V-A:TYR:531:CD2:4786, V-A:LEU:363:CB:3182, V-A:ILE:532:CA:4795, V-A:TYR:531:CG:4784, V-A:TYR:531:C:4779, V-B:TYR:484:CZ:9314, V-A:ASN:362:C:3167, V-A:ASN:362:CB:3171, V-B:GLY:454:CA:9016, V-A:LEU:363:C:3178"]

$$$$
4cg_Grossjean_2025
     RDKit          3D

 30 33  0  0  0  0  0  0  0  0999 V2000
  131.5080  131.4480   61.6200 N   0  0  0  0  0  0  0  0  0  0  0  0
  130.7380  131.7320   60.5220 C   0  0  0  0  0  0  0  0  0  0  0  0
  129.4490  132.2760   60.6080 C   0  0  0  0  0  0  0  0  0  0  0  0
  128.7080  132.6820   61.8010 C   0  0  0  0  0  0  0  0  0  0  0  0
  129.2880  132.9790   62.8470 O   0  0  0  0  0  0  0  0  0  0  0  0
  127.3620  132.6700   61.6950 N   0  0  0  0  0  0  0  0  0  0  0  0
  126.4260  133.0580   62.7480 C   0  0  0  0  0  0  0  0  0  0  0  0
  125.2240  132.1270   62.8630 C   0  0  0  0  0  0  0  0  0  0  0  0
  124.2980  132.0560   61.8180 C   0  0  0  0  0  0  0  0  0  0  0  0
  123.2160  131.1830   61.9060 C   0  0  0  0  0  0  0  0  0  0  0  0
  123.0690  130.3790   63.0330 C   0  0  0  0  0  0  0  0  0  0  0  0
  123.9970  130.4340   64.0710 C   0  0  0  0  0  0  0  0  0  0  0  0
  125.0800  131.3040   63.9830 C   0  0  0  0  0  0  0  0  0  0  0  0
  128.7530  132.5330   59.0100 S   0  0  0  0  0  0  0  0  0  0  0  0
  130.1830  131.8890   58.2380 C   0  0  0  0  0  0  0  0  0  0  0  0
  130.2790  131.8060   56.9140 N   0  0  0  0  0  0  0  0  0  0  0  0
  131.4310  131.2970   56.4040 C   0  0  0  0  0  0  0  0  0  0  0  0
  131.5080  131.2150   54.9060 C   0  0  0  0  0  0  0  0  0  0  0  0
  130.3960  131.5320   54.1080 C   0  0  0  0  0  0  0  0  0  0  0  0
  130.4620  131.4570   52.7200 C   0  0  0  0  0  0  0  0  0  0  0  0
  131.6450  131.0600   52.1060 C   0  0  0  0  0  0  0  0  0  0  0  0
  132.7600  130.7370   52.8710 C   0  0  0  0  0  0  0  0  0  0  0  0
  132.6900  130.8140   54.2590 C   0  0  0  0  0  0  0  0  0  0  0  0
  132.4720  130.8550   57.2290 C   0  0  0  0  0  0  0  0  0  0  0  0
  132.3800  130.9370   58.6270 C   0  0  0  0  0  0  0  0  0  0  0  0
  133.5570  130.4340   59.4710 C   0  0  0  0  0  0  0  0  0  0  0  0
  134.2490  131.4210   60.0440 F   0  0  0  0  0  0  0  0  0  0  0  0
  133.1080  129.6430   60.4450 F   0  0  0  0  0  0  0  0  0  0  0  0
  134.4030  129.7490   58.7030 F   0  0  0  0  0  0  0  0  0  0  0  0
  131.1820  131.4840   59.1720 C   0  0  0  0  0  0  0  0  0  0  0  0
  1  2  1  0
  2  3  2  0
  3  4  1  0
  4  5  2  0
  4  6  1  0
  6  7  1  0
  7  8  1  0
  8  9  2  0
  9 10  1  0
 10 11  2  0
 11 12  1  0
 12 13  2  0
  3 14  1  0
 14 15  1  0
 15 16  2  0
 16 17  1  0
 17 18  1  0
 18 19  2  0
 19 20  1  0
 20 21  2  0
 21 22  1  0
 22 23  2  0
 17 24  2  0
 24 25  1  0
 25 26  1  0
 26 27  1  0
 26 28  1  0
 26 29  1  0
 25 30  2  0
 30  2  1  0
 13  8  1  0
 30 15  1  0
 23 18  1  0
M  END
>  <Binding energies>  (56) 
[-8.68]

>  <Ligand effiencies>  (56) 
[-0.263030303030303]

>  <Interactions>  (56) 
["V-A:PRO:540:CA:4878, V-A:MET:535:CG:4828, V-A:ASP:366:CG:3208, H-A:GLU:543:OE2:4905, V-B:LEU:475:CD2:9226, V-A:PRO:540:CB:4880, H-A:ALA:541:N:4886, V-A:ALA:541:CB:4887, V-A:ILE:538:CD1:4860, V-A:LEU:363:CD1:3184, V-A:GLU:543:CD:4903, V-A:PRO:540:N:4879, V-A:TYR:531:CZ:4789, V-A:ASP:366:CB:3207, V-A:TYR:531:CE1:4787, V-A:TYR:531:CE2:4788, V-B:ILE:369:CD1:8206, V-A:MET:535:CB:4827, V-A:LEU:363:CA:3180, V-A:TYR:531:CD2:4786, V-A:LEU:363:CB:3182, V-A:ILE:532:CA:4795, V-A:TYR:531:CG:4784, V-A:TYR:531:C:4779, V-A:ASN:362:C:3167, V-A:ASN:362:CB:3171, V-B:ARG:545:CZ:9894, H-A:ALA:541:O:4884, V-B:GLY:453:CA:9011, V-A:ASN:362:CA:3169, V-A:LEU:363:C:3178"]

$$$$
4ch_Grossjean_2025
     RDKit          3D

 36 39  0  0  0  0  0  0  0  0999 V2000
  124.6690  123.4980   61.7550 C   0  0  0  0  0  0  0  0  0  0  0  0
  125.1780  123.7460   60.4480 O   0  0  0  0  0  0  0  0  0  0  0  0
  126.4850  123.4060   60.1540 C   0  0  0  0  0  0  0  0  0  0  0  0
  127.4960  123.2660   61.1190 C   0  0  0  0  0  0  0  0  0  0  0  0
  128.7960  122.9190   60.7500 C   0  0  0  0  0  0  0  0  0  0  0  0
  129.8850  122.7990   61.8090 C   0  0  0  0  0  0  0  0  0  0  0  0
  129.7480  123.7390   62.9210 N   0  0  0  0  0  0  0  0  0  0  0  0
  130.4120  123.6700   64.0940 C   0  0  0  0  0  0  0  0  0  0  0  0
  131.2440  122.7920   64.3340 O   0  0  0  0  0  0  0  0  0  0  0  0
  130.1140  124.7250   65.0630 C   0  0  0  0  0  0  0  0  0  0  0  0
  130.3780  124.4460   66.7810 S   0  0  0  0  0  0  0  0  0  0  0  0
  129.8510  126.0650   67.1700 C   0  0  0  0  0  0  0  0  0  0  0  0
  129.8120  126.5000   68.4270 N   0  0  0  0  0  0  0  0  0  0  0  0
  129.3930  127.7760   68.6320 C   0  0  0  0  0  0  0  0  0  0  0  0
  129.3560  128.2340   70.0620 C   0  0  0  0  0  0  0  0  0  0  0  0
  130.4820  128.8260   70.6570 C   0  0  0  0  0  0  0  0  0  0  0  0
  130.4540  129.2510   71.9830 C   0  0  0  0  0  0  0  0  0  0  0  0
  129.2950  129.0900   72.7350 C   0  0  0  0  0  0  0  0  0  0  0  0
  128.1670  128.5040   72.1710 C   0  0  0  0  0  0  0  0  0  0  0  0
  128.2000  128.0780   70.8460 C   0  0  0  0  0  0  0  0  0  0  0  0
  128.9990  128.6020   67.5750 C   0  0  0  0  0  0  0  0  0  0  0  0
  129.0340  128.1540   66.2440 C   0  0  0  0  0  0  0  0  0  0  0  0
  128.5870  129.1110   65.1340 C   0  0  0  0  0  0  0  0  0  0  0  0
  129.3700  129.0610   64.0530 F   0  0  0  0  0  0  0  0  0  0  0  0
  127.3510  128.8060   64.7450 F   0  0  0  0  0  0  0  0  0  0  0  0
  128.6100  130.3650   65.5840 F   0  0  0  0  0  0  0  0  0  0  0  0
  129.4840  126.8210   66.0180 C   0  0  0  0  0  0  0  0  0  0  0  0
  129.6570  126.0300   64.8230 C   0  0  0  0  0  0  0  0  0  0  0  0
  129.3870  126.5120   63.5680 N   0  0  0  0  0  0  0  0  0  0  0  0
  129.0990  122.7250   59.4020 C   0  0  0  0  0  0  0  0  0  0  0  0
  128.1090  122.8590   58.4150 C   0  0  0  0  0  0  0  0  0  0  0  0
  128.3390  122.6800   57.0630 O   0  0  0  0  0  0  0  0  0  0  0  0
  129.2330  123.5550   56.3830 C   0  0  0  0  0  0  0  0  0  0  0  0
  126.8050  123.1940   58.8050 C   0  0  0  0  0  0  0  0  0  0  0  0
  125.8300  123.3440   57.8490 O   0  0  0  0  0  0  0  0  0  0  0  0
  125.3840  124.6830   57.6810 C   0  0  0  0  0  0  0  0  0  0  0  0
  1  2  1  0
  2  3  1  0
  3  4  2  0
  4  5  1  0
  5  6  1  0
  6  7  1  0
  7  8  1  0
  8  9  2  0
  8 10  1  0
 10 11  1  0
 11 12  1  0
 12 13  2  0
 13 14  1  0
 14 15  1  0
 15 16  2  0
 16 17  1  0
 17 18  2  0
 18 19  1  0
 19 20  2  0
 14 21  2  0
 21 22  1  0
 22 23  1  0
 23 24  1  0
 23 25  1  0
 23 26  1  0
 22 27  2  0
 27 28  1  0
 28 29  1  0
  5 30  2  0
 30 31  1  0
 31 32  1  0
 32 33  1  0
 31 34  2  0
 34 35  1  0
 35 36  1  0
 34  3  1  0
 28 10  2  0
 27 12  1  0
 20 15  1  0
M  END
>  <Binding energies>  (57) 
[-7.66]

>  <Ligand effiencies>  (57) 
[-0.19641025641025642]

>  <Interactions>  (57) 
["H-A:GLU:543:OE1:4904, H-A:GLU:543:OE2:4905, V-A:GLU:543:CD:4903, H-A:TYR:484:OH:4343, V-B:PRO:540:CA:9851, H-B:GLU:543:OE2:9878, V-B:MET:535:CE:9803, V-B:GLU:543:CD:9876, V-B:PRO:540:N:9852, V-B:TYR:539:CE2:9844, V-B:PRO:540:CB:9853, V-B:TYR:539:CZ:9845, V-B:TYR:539:C:9835, V-A:GLU:543:CG:4902, V-B:GLU:543:CB:9874, V-B:HIS:456:CE1:9037, V-B:GLU:543:CG:9875, V-B:TYR:539:CE1:9843, V-B:HIS:456:CD2:9035, V-A:HIS:456:CE1:4064, V-A:GLY:544:C:4907, H-A:HIS:456:NE2:4065, V-A:GLU:543:C:4897, V-A:LYS:547:CE:4945, V-A:TYR:484:CZ:4342, V-A:GLU:543:CB:4901, V-A:TYR:484:CE1:4340, V-B:PRO:540:C:9849, V-B:ASN:362:CB:8143, V-A:GLY:544:CA:4909"]

$$$$
4cj_Grossjean_2025
     RDKit          3D

 28 31  0  0  0  0  0  0  0  0999 V2000
  131.4250  131.2940   61.5900 N   0  0  0  0  0  0  0  0  0  0  0  0
  130.6760  131.4850   60.4570 C   0  0  0  0  0  0  0  0  0  0  0  0
  129.3450  131.9310   60.4810 C   0  0  0  0  0  0  0  0  0  0  0  0
  128.5170  132.2750   61.6400 C   0  0  0  0  0  0  0  0  0  0  0  0
  128.9840  132.9280   62.5770 O   0  0  0  0  0  0  0  0  0  0  0  0
  127.2400  131.8210   61.5990 N   0  0  0  0  0  0  0  0  0  0  0  0
  126.2580  132.0080   62.5630 C   0  0  0  0  0  0  0  0  0  0  0  0
  125.8390  133.1440   63.0780 N   0  0  0  0  0  0  0  0  0  0  0  0
  124.8870  132.9490   63.9690 C   0  0  0  0  0  0  0  0  0  0  0  0
  124.5130  131.6270   64.1930 C   0  0  0  0  0  0  0  0  0  0  0  0
  125.4670  130.5900   63.1740 S   0  0  0  0  0  0  0  0  0  0  0  0
  128.6930  132.0790   58.8510 S   0  0  0  0  0  0  0  0  0  0  0  0
  130.2020  131.5420   58.1520 C   0  0  0  0  0  0  0  0  0  0  0  0
  130.3590  131.4380   56.8340 N   0  0  0  0  0  0  0  0  0  0  0  0
  131.5690  131.0200   56.3820 C   0  0  0  0  0  0  0  0  0  0  0  0
  131.7160  130.9260   54.8910 C   0  0  0  0  0  0  0  0  0  0  0  0
  132.9630  131.1290   54.2780 C   0  0  0  0  0  0  0  0  0  0  0  0
  133.1050  131.0490   52.8940 C   0  0  0  0  0  0  0  0  0  0  0  0
  131.9970  130.7660   52.1020 C   0  0  0  0  0  0  0  0  0  0  0  0
  130.7510  130.5630   52.6840 C   0  0  0  0  0  0  0  0  0  0  0  0
  130.6140  130.6430   54.0670 C   0  0  0  0  0  0  0  0  0  0  0  0
  132.6080  130.6850   57.2570 C   0  0  0  0  0  0  0  0  0  0  0  0
  132.4540  130.7890   58.6480 C   0  0  0  0  0  0  0  0  0  0  0  0
  133.6350  130.4100   59.5490 C   0  0  0  0  0  0  0  0  0  0  0  0
  133.2790  129.6510   60.5870 F   0  0  0  0  0  0  0  0  0  0  0  0
  134.5360  129.7260   58.8440 F   0  0  0  0  0  0  0  0  0  0  0  0
  134.2030  131.5120   60.0370 F   0  0  0  0  0  0  0  0  0  0  0  0
  131.1940  131.2450   59.1320 C   0  0  0  0  0  0  0  0  0  0  0  0
  1  2  1  0
  2  3  2  0
  3  4  1  0
  4  5  2  0
  4  6  1  0
  6  7  1  0
  7  8  2  0
  8  9  1  0
  9 10  2  0
 10 11  1  0
  3 12  1  0
 12 13  1  0
 13 14  2  0
 14 15  1  0
 15 16  1  0
 16 17  2  0
 17 18  1  0
 18 19  2  0
 19 20  1  0
 20 21  2  0
 15 22  2  0
 22 23  1  0
 23 24  1  0
 24 25  1  0
 24 26  1  0
 24 27  1  0
 23 28  2  0
 28  2  1  0
 11  7  1  0
 28 13  1  0
 21 16  1  0
M  END
>  <Binding energies>  (58) 
[-7.15]

>  <Ligand effiencies>  (58) 
[-0.2306451612903226]

>  <Interactions>  (58) 
["V-A:PRO:540:CA:4878, V-A:MET:535:CG:4828, V-A:ASP:366:CG:3208, H-A:GLU:543:OE2:4905, V-B:LEU:475:CD2:9226, V-A:PRO:540:CB:4880, H-A:ALA:541:N:4886, V-A:ILE:538:CD1:4860, V-A:LEU:363:CD1:3184, V-A:GLU:543:CD:4903, V-A:PRO:540:CG:4881, V-A:TYR:531:CZ:4789, V-A:ASP:366:CB:3207, V-A:TYR:531:CE2:4788, V-A:MET:535:CB:4827, V-A:LEU:363:CA:3180, V-A:TYR:531:CD2:4786, V-A:LEU:363:CB:3182, V-A:ILE:532:CA:4795, V-A:TYR:531:CG:4784, V-A:TYR:531:C:4779, V-B:TYR:484:CZ:9314, V-A:ASN:362:C:3167, V-A:ASN:362:CB:3171, H-B:TYR:484:OH:9315, V-B:GLY:454:CA:9016, V-A:LEU:363:C:3178"]

$$$$
4ck_Grossjean_2025
     RDKit          3D

 33 35  0  0  0  0  0  0  0  0999 V2000
  122.7020  131.3970   59.6480 C   0  0  0  0  0  0  0  0  0  0  0  0
  123.8220  131.6020   58.8010 O   0  0  0  0  0  0  0  0  0  0  0  0
  124.3950  130.3940   58.3180 C   0  0  0  0  0  0  0  0  0  0  0  0
  125.9220  130.5300   58.3180 C   0  0  0  0  0  0  0  0  0  0  0  0
  126.3520  130.9360   59.6100 O   0  0  0  0  0  0  0  0  0  0  0  0
  126.1850  129.9340   60.6050 C   0  0  0  0  0  0  0  0  0  0  0  0
  125.2720  130.4740   61.7130 C   0  0  0  0  0  0  0  0  0  0  0  0
  125.0690  131.8650   61.5010 O   0  0  0  0  0  0  0  0  0  0  0  0
  125.1360  132.6440   62.6890 C   0  0  0  0  0  0  0  0  0  0  0  0
  126.4710  133.4020   62.7330 C   0  0  0  0  0  0  0  0  0  0  0  0
  127.4060  132.9300   61.7120 N   0  0  0  0  0  0  0  0  0  0  0  0
  128.7380  132.7770   61.8700 C   0  0  0  0  0  0  0  0  0  0  0  0
  129.3110  133.0030   62.9360 O   0  0  0  0  0  0  0  0  0  0  0  0
  129.4720  132.3110   60.6930 C   0  0  0  0  0  0  0  0  0  0  0  0
  128.7760  132.5000   59.0850 S   0  0  0  0  0  0  0  0  0  0  0  0
  130.1980  131.8070   58.3420 C   0  0  0  0  0  0  0  0  0  0  0  0
  130.2930  131.6640   57.0220 N   0  0  0  0  0  0  0  0  0  0  0  0
  131.4360  131.1140   56.5360 C   0  0  0  0  0  0  0  0  0  0  0  0
  131.5190  130.9840   55.0430 C   0  0  0  0  0  0  0  0  0  0  0  0
  130.3700  130.7290   54.2780 C   0  0  0  0  0  0  0  0  0  0  0  0
  130.4400  130.6050   52.8920 C   0  0  0  0  0  0  0  0  0  0  0  0
  131.6670  130.7360   52.2490 C   0  0  0  0  0  0  0  0  0  0  0  0
  132.8200  130.9950   52.9820 C   0  0  0  0  0  0  0  0  0  0  0  0
  132.7450  131.1190   54.3670 C   0  0  0  0  0  0  0  0  0  0  0  0
  132.4810  130.7170   57.3770 C   0  0  0  0  0  0  0  0  0  0  0  0
  132.3910  130.8610   58.7700 C   0  0  0  0  0  0  0  0  0  0  0  0
  133.5720  130.4020   59.6340 C   0  0  0  0  0  0  0  0  0  0  0  0
  133.1970  129.6870   60.6960 F   0  0  0  0  0  0  0  0  0  0  0  0
  134.3900  129.6400   58.9080 F   0  0  0  0  0  0  0  0  0  0  0  0
  134.2410  131.4640   60.0820 F   0  0  0  0  0  0  0  0  0  0  0  0
  131.1950  131.4350   59.2910 C   0  0  0  0  0  0  0  0  0  0  0  0
  130.7540  131.7440   60.6300 C   0  0  0  0  0  0  0  0  0  0  0  0
  131.5210  131.4990   61.7400 N   0  0  0  0  0  0  0  0  0  0  0  0
  1  2  1  0
  2  3  1  0
  3  4  1  0
  4  5  1  0
  5  6  1  0
  6  7  1  0
  7  8  1  0
  8  9  1  0
  9 10  1  0
 10 11  1  0
 11 12  1  0
 12 13  2  0
 12 14  1  0
 14 15  1  0
 15 16  1  0
 16 17  2  0
 17 18  1  0
 18 19  1  0
 19 20  2  0
 20 21  1  0
 21 22  2  0
 22 23  1  0
 23 24  2  0
 18 25  2  0
 25 26  1  0
 26 27  1  0
 27 28  1  0
 27 29  1  0
 27 30  1  0
 26 31  2  0
 31 32  1  0
 32 33  1  0
 32 14  2  0
 31 16  1  0
 24 19  1  0
M  END
>  <Binding energies>  (59) 
[-6.68]

>  <Ligand effiencies>  (59) 
[-0.18555555555555556]

>  <Interactions>  (59) 
["V-A:PRO:540:CA:4878, V-A:MET:535:CG:4828, V-A:ASP:366:CG:3208, H-A:GLU:543:OE2:4905, V-A:TYR:539:CZ:4872, V-B:LEU:475:CD2:9226, V-A:PRO:540:CB:4880, H-A:ALA:541:N:4886, V-A:ALA:541:CB:4887, V-A:ILE:538:CD1:4860, V-A:LEU:363:CD1:3184, V-A:GLU:543:CD:4903, H-A:TYR:539:OH:4873, V-A:TYR:531:CZ:4789, V-A:ASP:366:CB:3207, V-A:TYR:531:CE2:4788, V-B:ILE:369:CG2:8204, V-A:GLU:543:CG:4902, V-B:ILE:369:CD1:8206, V-B:ASP:366:CB:8179, V-B:ASP:366:CG:8180, V-B:ASP:366:CA:8177, V-A:MET:535:CB:4827, V-A:LEU:363:CA:3180, V-A:TYR:531:CD2:4786, V-A:LEU:363:CB:3182, V-A:ILE:532:CA:4795, V-A:TYR:531:CG:4784, V-A:TYR:531:C:4779, V-A:ASN:362:C:3167, V-A:ASN:362:CB:3171, V-B:ILE:369:CG1:8205, V-B:ILE:369:CB:8203, V-B:ASP:366:C:8175, H-A:ALA:541:O:4884, V-A:ASN:362:CA:3169, V-A:LEU:363:C:3178"]

$$$$
4dd_Grossjean_2025
     RDKit          3D

 26 29  0  0  0  0  0  0  0  0999 V2000
  133.7960  130.5580   59.4820 C   0  0  0  0  0  0  0  0  0  0  0  0
  132.5800  130.8550   58.6170 C   0  0  0  0  0  0  0  0  0  0  0  0
  132.7190  130.7560   57.2270 C   0  0  0  0  0  0  0  0  0  0  0  0
  131.6380  131.0160   56.3760 C   0  0  0  0  0  0  0  0  0  0  0  0
  131.7590  130.9230   54.8840 C   0  0  0  0  0  0  0  0  0  0  0  0
  132.9910  131.1430   54.2470 C   0  0  0  0  0  0  0  0  0  0  0  0
  133.1120  131.0560   52.8620 C   0  0  0  0  0  0  0  0  0  0  0  0
  131.9960  130.7480   52.0920 C   0  0  0  0  0  0  0  0  0  0  0  0
  130.7640  130.5240   52.6960 C   0  0  0  0  0  0  0  0  0  0  0  0
  130.6480  130.6100   54.0810 C   0  0  0  0  0  0  0  0  0  0  0  0
  130.4180  131.3840   56.8550 N   0  0  0  0  0  0  0  0  0  0  0  0
  130.2830  131.4720   58.1780 C   0  0  0  0  0  0  0  0  0  0  0  0
  128.7670  131.9170   58.9280 S   0  0  0  0  0  0  0  0  0  0  0  0
  129.4710  131.7800   60.5410 C   0  0  0  0  0  0  0  0  0  0  0  0
  128.6540  132.0300   61.7300 C   0  0  0  0  0  0  0  0  0  0  0  0
  129.1220  132.6320   62.6980 O   0  0  0  0  0  0  0  0  0  0  0  0
  127.3830  131.5660   61.6690 N   0  0  0  0  0  0  0  0  0  0  0  0
  126.3700  131.5930   62.6460 C   0  0  0  0  0  0  0  0  0  0  0  0
  126.2470  130.4420   63.4300 C   0  0  0  0  0  0  0  0  0  0  0  0
  125.2850  130.3770   64.4340 C   0  0  0  0  0  0  0  0  0  0  0  0
  124.4480  131.4660   64.6590 C   0  0  0  0  0  0  0  0  0  0  0  0
  124.5680  132.6230   63.8940 C   0  0  0  0  0  0  0  0  0  0  0  0
  125.5290  132.6920   62.8890 C   0  0  0  0  0  0  0  0  0  0  0  0
  130.8230  131.4100   60.4720 C   0  0  0  0  0  0  0  0  0  0  0  0
  131.6240  131.2340   61.5730 N   0  0  0  0  0  0  0  0  0  0  0  0
  131.3110  131.2250   59.1310 C   0  0  0  0  0  0  0  0  0  0  0  0
  1  2  1  0
  2  3  2  0
  3  4  1  0
  4  5  1  0
  5  6  2  0
  6  7  1  0
  7  8  2  0
  8  9  1  0
  9 10  2  0
  4 11  2  0
 11 12  1  0
 12 13  1  0
 13 14  1  0
 14 15  1  0
 15 16  2  0
 15 17  1  0
 17 18  1  0
 18 19  2  0
 19 20  1  0
 20 21  2  0
 21 22  1  0
 22 23  2  0
 14 24  2  0
 24 25  1  0
 24 26  1  0
 26  2  1  0
 10  5  1  0
 26 12  2  0
 23 18  1  0
M  END
>  <Binding energies>  (60) 
[-7.89]

>  <Ligand effiencies>  (60) 
[-0.27206896551724136]

>  <Interactions>  (60) 
["V-A:PRO:540:CA:4878, V-A:MET:535:CG:4828, H-A:GLU:543:OE2:4905, V-B:LEU:475:CD2:9226, V-A:PRO:540:CB:4880, H-A:ALA:541:N:4886, V-A:ILE:538:CD1:4860, V-A:LEU:363:CD1:3184, V-A:GLU:543:CD:4903, V-A:TYR:531:CZ:4789, V-A:TYR:531:CE2:4788, V-A:MET:535:CB:4827, V-A:LEU:363:CA:3180, V-A:TYR:531:CD2:4786, V-A:ILE:532:CA:4795, V-A:TYR:531:CG:4784, V-A:TYR:531:C:4779, V-B:TYR:484:CZ:9314, V-A:ASN:362:C:3167, V-B:GLY:454:CA:9016"]

$$$$
4dg_Grossjean_2025
     RDKit          3D

 27 30  0  0  0  0  0  0  0  0999 V2000
  133.6060  130.4560   59.4620 C   0  0  0  0  0  0  0  0  0  0  0  0
  132.4290  130.9500   58.6340 C   0  0  0  0  0  0  0  0  0  0  0  0
  132.5210  130.8650   57.2400 C   0  0  0  0  0  0  0  0  0  0  0  0
  131.4720  131.3030   56.4220 C   0  0  0  0  0  0  0  0  0  0  0  0
  131.5400  131.2220   54.9230 C   0  0  0  0  0  0  0  0  0  0  0  0
  130.4200  131.5270   54.1330 C   0  0  0  0  0  0  0  0  0  0  0  0
  130.4770  131.4500   52.7430 C   0  0  0  0  0  0  0  0  0  0  0  0
  131.6600  131.0660   52.1210 C   0  0  0  0  0  0  0  0  0  0  0  0
  132.7840  130.7540   52.8790 C   0  0  0  0  0  0  0  0  0  0  0  0
  132.7220  130.8320   54.2680 C   0  0  0  0  0  0  0  0  0  0  0  0
  130.3210  131.8090   56.9400 N   0  0  0  0  0  0  0  0  0  0  0  0
  130.2330  131.8920   58.2680 C   0  0  0  0  0  0  0  0  0  0  0  0
  128.8120  132.5300   59.0630 S   0  0  0  0  0  0  0  0  0  0  0  0
  129.5320  132.2680   60.6520 C   0  0  0  0  0  0  0  0  0  0  0  0
  128.8100  132.6660   61.8590 C   0  0  0  0  0  0  0  0  0  0  0  0
  129.4070  132.9950   62.8860 O   0  0  0  0  0  0  0  0  0  0  0  0
  127.4630  132.6100   61.7860 N   0  0  0  0  0  0  0  0  0  0  0  0
  126.5410  132.9800   62.8590 C   0  0  0  0  0  0  0  0  0  0  0  0
  125.3180  132.0740   62.9460 C   0  0  0  0  0  0  0  0  0  0  0  0
  124.4030  132.0390   61.8910 C   0  0  0  0  0  0  0  0  0  0  0  0
  123.3020  131.1900   61.9530 C   0  0  0  0  0  0  0  0  0  0  0  0
  123.1260  130.3690   63.0650 C   0  0  0  0  0  0  0  0  0  0  0  0
  124.0430  130.3860   64.1130 C   0  0  0  0  0  0  0  0  0  0  0  0
  125.1450  131.2340   64.0500 C   0  0  0  0  0  0  0  0  0  0  0  0
  130.8210  131.7260   60.5450 C   0  0  0  0  0  0  0  0  0  0  0  0
  131.6180  131.4340   61.6220 N   0  0  0  0  0  0  0  0  0  0  0  0
  131.2400  131.4900   59.1890 C   0  0  0  0  0  0  0  0  0  0  0  0
  1  2  1  0
  2  3  2  0
  3  4  1  0
  4  5  1  0
  5  6  2  0
  6  7  1  0
  7  8  2  0
  8  9  1  0
  9 10  2  0
  4 11  2  0
 11 12  1  0
 12 13  1  0
 13 14  1  0
 14 15  1  0
 15 16  2  0
 15 17  1  0
 17 18  1  0
 18 19  1  0
 19 20  2  0
 20 21  1  0
 21 22  2  0
 22 23  1  0
 23 24  2  0
 14 25  2  0
 25 26  1  0
 25 27  1  0
 27  2  1  0
 10  5  1  0
 27 12  2  0
 24 19  1  0
M  END
>  <Binding energies>  (61) 
[-8.9]

>  <Ligand effiencies>  (61) 
[-0.2966666666666667]

>  <Interactions>  (61) 
["V-A:PRO:540:CA:4878, V-A:MET:535:CG:4828, V-A:ASP:366:CG:3208, H-A:GLU:543:OE2:4905, V-B:LEU:475:CD2:9226, V-A:PRO:540:CB:4880, H-A:ALA:541:N:4886, V-A:ALA:541:CB:4887, V-A:ILE:538:CD1:4860, V-A:LEU:363:CD1:3184, V-A:GLU:543:CD:4903, V-A:PRO:540:N:4879, V-A:TYR:531:CZ:4789, V-A:TYR:531:CE1:4787, V-A:TYR:531:CE2:4788, V-B:ILE:369:CD1:8206, V-A:MET:535:CB:4827, V-A:LEU:363:CA:3180, V-A:TYR:531:CD2:4786, V-A:ILE:532:CA:4795, V-A:TYR:531:CG:4784, V-A:TYR:531:C:4779, V-A:ASN:362:C:3167, V-B:ARG:545:CZ:9894, H-A:ALA:541:O:4884, V-B:GLY:453:CA:9011"]

$$$$
4dj_Grossjean_2025
     RDKit          3D

 25 28  0  0  0  0  0  0  0  0999 V2000
  133.7230  130.5220   59.4960 C   0  0  0  0  0  0  0  0  0  0  0  0
  132.5250  130.8550   58.6200 C   0  0  0  0  0  0  0  0  0  0  0  0
  132.6780  130.7620   57.2310 C   0  0  0  0  0  0  0  0  0  0  0  0
  131.6140  131.0570   56.3690 C   0  0  0  0  0  0  0  0  0  0  0  0
  131.7470  130.9610   54.8760 C   0  0  0  0  0  0  0  0  0  0  0  0
  132.9960  131.1140   54.2520 C   0  0  0  0  0  0  0  0  0  0  0  0
  133.1270  131.0270   52.8690 C   0  0  0  0  0  0  0  0  0  0  0  0
  132.0030  130.7880   52.0850 C   0  0  0  0  0  0  0  0  0  0  0  0
  130.7530  130.6360   52.6750 C   0  0  0  0  0  0  0  0  0  0  0  0
  130.6280  130.7230   54.0580 C   0  0  0  0  0  0  0  0  0  0  0  0
  130.3910  131.4260   56.8370 N   0  0  0  0  0  0  0  0  0  0  0  0
  130.2450  131.5160   58.1590 C   0  0  0  0  0  0  0  0  0  0  0  0
  128.7290  131.9870   58.8950 S   0  0  0  0  0  0  0  0  0  0  0  0
  129.4160  131.8380   60.5140 C   0  0  0  0  0  0  0  0  0  0  0  0
  128.5990  132.1290   61.6930 C   0  0  0  0  0  0  0  0  0  0  0  0
  129.1140  132.5730   62.7230 O   0  0  0  0  0  0  0  0  0  0  0  0
  127.2750  131.8680   61.5650 N   0  0  0  0  0  0  0  0  0  0  0  0
  126.2910  132.0510   62.5260 C   0  0  0  0  0  0  0  0  0  0  0  0
  125.8600  133.1850   63.0350 N   0  0  0  0  0  0  0  0  0  0  0  0
  124.9110  132.9850   63.9300 C   0  0  0  0  0  0  0  0  0  0  0  0
  124.5520  131.6610   64.1610 C   0  0  0  0  0  0  0  0  0  0  0  0
  125.5160  130.6290   63.1470 S   0  0  0  0  0  0  0  0  0  0  0  0
  130.7610  131.4440   60.4580 C   0  0  0  0  0  0  0  0  0  0  0  0
  131.5470  131.2530   61.5670 N   0  0  0  0  0  0  0  0  0  0  0  0
  131.2580  131.2500   59.1230 C   0  0  0  0  0  0  0  0  0  0  0  0
  1  2  1  0
  2  3  2  0
  3  4  1  0
  4  5  1  0
  5  6  2  0
  6  7  1  0
  7  8  2  0
  8  9  1  0
  9 10  2  0
  4 11  2  0
 11 12  1  0
 12 13  1  0
 13 14  1  0
 14 15  1  0
 15 16  2  0
 15 17  1  0
 17 18  1  0
 18 19  2  0
 19 20  1  0
 20 21  2  0
 21 22  1  0
 14 23  2  0
 23 24  1  0
 23 25  1  0
 25  2  1  0
 10  5  1  0
 25 12  2  0
 22 18  1  0
M  END
>  <Binding energies>  (62) 
[-7.31]

>  <Ligand effiencies>  (62) 
[-0.26107142857142857]

>  <Interactions>  (62) 
["V-A:PRO:540:CA:4878, V-A:MET:535:CG:4828, V-A:ASP:366:CG:3208, H-A:GLU:543:OE2:4905, V-B:LEU:475:CD2:9226, V-A:PRO:540:CB:4880, H-A:ALA:541:N:4886, V-A:ILE:538:CD1:4860, V-A:LEU:363:CD1:3184, V-A:GLU:543:CD:4903, V-A:TYR:531:CZ:4789, V-A:TYR:531:CE2:4788, V-A:MET:535:CB:4827, V-A:LEU:363:CA:3180, V-A:TYR:531:CD2:4786, V-A:ILE:532:CA:4795, V-A:TYR:531:CG:4784, V-A:TYR:531:C:4779, V-B:TYR:484:CZ:9314, V-A:ASN:362:C:3167, H-B:TYR:484:OH:9315, V-B:GLY:454:CA:9016"]

$$$$
4ea_Grossjean_2025
     RDKit          3D

 31 34  0  0  0  0  0  0  0  0999 V2000
  123.5410  123.7580   58.4210 C   0  0  0  0  0  0  0  0  0  0  0  0
  123.8410  124.7730   57.3140 C   0  0  0  0  0  0  0  0  0  0  0  0
  124.9470  124.3190   56.5440 O   0  0  0  0  0  0  0  0  0  0  0  0
  125.5970  123.1690   56.8590 C   0  0  0  0  0  0  0  0  0  0  0  0
  125.2900  122.0670   56.3960 O   0  0  0  0  0  0  0  0  0  0  0  0
  126.7280  123.3730   57.8260 C   0  0  0  0  0  0  0  0  0  0  0  0
  126.4920  124.0790   59.0130 C   0  0  0  0  0  0  0  0  0  0  0  0
  127.5190  124.2850   59.9300 C   0  0  0  0  0  0  0  0  0  0  0  0
  128.8000  123.7910   59.6810 C   0  0  0  0  0  0  0  0  0  0  0  0
  129.7580  124.0600   60.6780 N   0  0  0  0  0  0  0  0  0  0  0  0
  131.0750  124.3650   60.5710 C   0  0  0  0  0  0  0  0  0  0  0  0
  131.6800  124.4610   59.5040 O   0  0  0  0  0  0  0  0  0  0  0  0
  131.7690  124.5830   61.8430 C   0  0  0  0  0  0  0  0  0  0  0  0
  133.5100  124.3130   61.9680 S   0  0  0  0  0  0  0  0  0  0  0  0
  133.5070  124.7650   63.6580 C   0  0  0  0  0  0  0  0  0  0  0  0
  134.6230  124.7660   64.3890 N   0  0  0  0  0  0  0  0  0  0  0  0
  134.4860  125.1360   65.6860 C   0  0  0  0  0  0  0  0  0  0  0  0
  135.7670  125.1300   66.4990 C   0  0  0  0  0  0  0  0  0  0  0  0
  133.2720  125.5010   66.2620 C   0  0  0  0  0  0  0  0  0  0  0  0
  132.1040  125.4990   65.4920 C   0  0  0  0  0  0  0  0  0  0  0  0
  130.8210  125.8900   66.1190 C   0  0  0  0  0  0  0  0  0  0  0  0
  130.3570  125.2140   67.2520 C   0  0  0  0  0  0  0  0  0  0  0  0
  129.1530  125.5820   67.8440 C   0  0  0  0  0  0  0  0  0  0  0  0
  128.4080  126.6260   67.3000 C   0  0  0  0  0  0  0  0  0  0  0  0
  128.8580  127.3040   66.1690 C   0  0  0  0  0  0  0  0  0  0  0  0
  130.0630  126.9340   65.5790 C   0  0  0  0  0  0  0  0  0  0  0  0
  132.2050  125.1170   64.1260 C   0  0  0  0  0  0  0  0  0  0  0  0
  131.2330  125.0040   63.0700 C   0  0  0  0  0  0  0  0  0  0  0  0
  129.9050  125.2880   63.2650 N   0  0  0  0  0  0  0  0  0  0  0  0
  129.0450  123.0830   58.4940 C   0  0  0  0  0  0  0  0  0  0  0  0
  128.0170  122.8780   57.5790 C   0  0  0  0  0  0  0  0  0  0  0  0
  1  2  1  0
  2  3  1  0
  3  4  1  0
  4  5  2  0
  4  6  1  0
  6  7  2  0
  7  8  1  0
  8  9  2  0
  9 10  1  0
 10 11  1  0
 11 12  2  0
 11 13  1  0
 13 14  1  0
 14 15  1  0
 15 16  2  0
 16 17  1  0
 17 18  1  0
 17 19  2  0
 19 20  1  0
 20 21  1  0
 21 22  2  0
 22 23  1  0
 23 24  2  0
 24 25  1  0
 25 26  2  0
 20 27  2  0
 27 28  1  0
 28 29  1  0
  9 30  1  0
 30 31  2  0
 31  6  1  0
 28 13  2  0
 27 15  1  0
 26 21  1  0
M  END
>  <Binding energies>  (63) 
[-8.79]

>  <Ligand effiencies>  (63) 
[-0.25852941176470584]

>  <Interactions>  (63) 
["V-A:ASP:366:CG:3208, V-B:LEU:363:CD1:8156, V-A:ILE:369:CD1:3234, V-A:ARG:545:CZ:4921, H-B:TYR:531:OH:9763, V-B:TYR:531:CE2:9761, H-A:GLY:454:N:4045, V-A:GLU:543:CD:4903, H-A:TYR:484:OH:4343, V-B:PRO:540:CA:9851, H-B:GLU:543:OE2:9878, V-B:MET:535:CE:9803, H-B:TYR:539:N:9838, V-B:GLU:543:CD:9876, V-B:PRO:540:N:9852, V-B:PRO:540:CB:9853, V-B:TYR:539:C:9835, V-B:ASP:366:CB:8179, V-B:TYR:531:CZ:9762, V-B:GLU:543:CB:9874, V-B:GLU:543:CG:9875, V-B:ASP:366:CG:8180, V-A:HIS:456:CE1:4064, V-B:GLU:543:C:9870, V-A:ARG:545:CD:4918, V-A:ARG:545:CG:4917, H-A:ARG:545:NH1:4922, V-B:GLU:543:CA:9872, V-A:GLY:453:C:4037, V-A:GLY:453:CA:4039, V-B:LEU:363:CA:8152, V-B:LEU:363:CB:8154, V-A:ARG:545:CB:4916, V-A:ILE:455:C:4047, V-A:HIS:456:CD2:4063, V-B:LEU:363:CG:8155"]

$$$$
4eb_Grossjean_2025
     RDKit          3D

 30 33  0  0  0  0  0  0  0  0999 V2000
  123.7720  124.7090   57.4770 C   0  0  0  0  0  0  0  0  0  0  0  0
  124.7610  124.2290   56.5780 O   0  0  0  0  0  0  0  0  0  0  0  0
  125.4590  123.0950   56.8480 C   0  0  0  0  0  0  0  0  0  0  0  0
  125.1940  121.9990   56.3470 O   0  0  0  0  0  0  0  0  0  0  0  0
  126.5850  123.3090   57.8180 C   0  0  0  0  0  0  0  0  0  0  0  0
  126.3600  124.0760   58.9690 C   0  0  0  0  0  0  0  0  0  0  0  0
  127.3830  124.2920   59.8870 C   0  0  0  0  0  0  0  0  0  0  0  0
  128.6500  123.7480   59.6760 C   0  0  0  0  0  0  0  0  0  0  0  0
  129.6070  124.0320   60.6700 N   0  0  0  0  0  0  0  0  0  0  0  0
  130.8900  124.4550   60.5580 C   0  0  0  0  0  0  0  0  0  0  0  0
  131.4590  124.6720   59.4880 O   0  0  0  0  0  0  0  0  0  0  0  0
  131.5960  124.6500   61.8270 C   0  0  0  0  0  0  0  0  0  0  0  0
  133.3340  124.3610   61.9340 S   0  0  0  0  0  0  0  0  0  0  0  0
  133.3500  124.7900   63.6300 C   0  0  0  0  0  0  0  0  0  0  0  0
  134.4720  124.7700   64.3520 N   0  0  0  0  0  0  0  0  0  0  0  0
  134.3490  125.1240   65.6540 C   0  0  0  0  0  0  0  0  0  0  0  0
  135.6370  125.0940   66.4560 C   0  0  0  0  0  0  0  0  0  0  0  0
  133.1430  125.4940   66.2460 C   0  0  0  0  0  0  0  0  0  0  0  0
  131.9690  125.5140   65.4850 C   0  0  0  0  0  0  0  0  0  0  0  0
  130.6950  125.9090   66.1280 C   0  0  0  0  0  0  0  0  0  0  0  0
  129.9260  126.9430   65.5860 C   0  0  0  0  0  0  0  0  0  0  0  0
  128.7260  127.3140   66.1900 C   0  0  0  0  0  0  0  0  0  0  0  0
  128.2990  126.6520   67.3380 C   0  0  0  0  0  0  0  0  0  0  0  0
  129.0600  125.6220   67.8880 C   0  0  0  0  0  0  0  0  0  0  0  0
  130.2580  125.2530   67.2830 C   0  0  0  0  0  0  0  0  0  0  0  0
  132.0560  125.1490   64.1140 C   0  0  0  0  0  0  0  0  0  0  0  0
  131.0750  125.0600   63.0640 C   0  0  0  0  0  0  0  0  0  0  0  0
  129.7510  125.3530   63.2730 N   0  0  0  0  0  0  0  0  0  0  0  0
  128.8860  122.9780   58.5260 C   0  0  0  0  0  0  0  0  0  0  0  0
  127.8610  122.7630   57.6090 C   0  0  0  0  0  0  0  0  0  0  0  0
  1  2  1  0
  2  3  1  0
  3  4  2  0
  3  5  1  0
  5  6  2  0
  6  7  1  0
  7  8  2  0
  8  9  1  0
  9 10  1  0
 10 11  2  0
 10 12  1  0
 12 13  1  0
 13 14  1  0
 14 15  2  0
 15 16  1  0
 16 17  1  0
 16 18  2  0
 18 19  1  0
 19 20  1  0
 20 21  2  0
 21 22  1  0
 22 23  2  0
 23 24  1  0
 24 25  2  0
 19 26  2  0
 26 27  1  0
 27 28  1  0
  8 29  1  0
 29 30  2  0
 30  5  1  0
 27 12  2  0
 26 14  1  0
 25 20  1  0
M  END
>  <Binding energies>  (64) 
[-8.8]

>  <Ligand effiencies>  (64) 
[-0.26666666666666666]

>  <Interactions>  (64) 
["V-A:ASP:366:CG:3208, V-B:LEU:363:CD1:8156, V-A:GLY:454:CA:4044, V-A:ARG:545:CZ:4921, H-B:TYR:531:OH:9763, V-B:TYR:531:CE2:9761, H-A:GLY:454:N:4045, V-A:GLU:543:CD:4903, H-A:TYR:484:OH:4343, V-B:PRO:540:CA:9851, H-B:GLU:543:OE2:9878, V-B:MET:535:CE:9803, H-B:TYR:539:N:9838, V-B:GLU:543:CD:9876, V-B:PRO:540:N:9852, V-B:PRO:540:CB:9853, V-B:TYR:539:C:9835, V-B:ASP:366:CB:8179, V-B:TYR:531:CZ:9762, V-B:GLU:543:CB:9874, V-B:GLU:543:CG:9875, V-B:ASP:366:CG:8180, V-A:HIS:456:CE1:4064, V-B:GLU:543:C:9870, V-B:PRO:540:CD:9855, V-A:ARG:545:CD:4918, V-A:ARG:545:CG:4917, H-A:ARG:545:NH1:4922, V-B:GLU:543:CA:9872, V-A:GLY:453:C:4037, V-A:GLY:453:CA:4039, V-B:LEU:363:CA:8152, V-B:LEU:363:CB:8154, V-A:ILE:455:C:4047, V-A:HIS:456:CD2:4063"]

$$$$
8b_Ghoteimi_2023
     RDKit          3D

 34 38  0  0  0  0  0  0  0  0999 V2000
  128.4840  130.7670   74.5460 C   0  0  0  0  0  0  0  0  0  0  0  0
  128.8970  129.4420   74.2280 O   0  0  0  0  0  0  0  0  0  0  0  0
  129.0170  129.0740   72.9020 C   0  0  0  0  0  0  0  0  0  0  0  0
  127.8920  128.5040   72.3090 C   0  0  0  0  0  0  0  0  0  0  0  0
  127.9200  128.1020   70.9780 C   0  0  0  0  0  0  0  0  0  0  0  0
  129.0780  128.2590   70.2020 C   0  0  0  0  0  0  0  0  0  0  0  0
  129.1140  127.8270   68.7710 C   0  0  0  0  0  0  0  0  0  0  0  0
  128.5670  128.6110   67.7500 C   0  0  0  0  0  0  0  0  0  0  0  0
  128.6150  128.1840   66.4190 C   0  0  0  0  0  0  0  0  0  0  0  0
  128.0160  129.0330   65.3630 C   0  0  0  0  0  0  0  0  0  0  0  0
  128.6180  130.2410   65.0080 C   0  0  0  0  0  0  0  0  0  0  0  0
  128.0600  131.0340   64.0090 C   0  0  0  0  0  0  0  0  0  0  0  0
  126.8950  130.6330   63.3530 C   0  0  0  0  0  0  0  0  0  0  0  0
  126.4140  131.4820   62.3740 O   0  0  0  0  0  0  0  0  0  0  0  0
  126.8750  132.8280   62.3340 C   0  0  0  0  0  0  0  0  0  0  0  0
  126.2890  129.4200   63.7160 C   0  0  0  0  0  0  0  0  0  0  0  0
  126.8490  128.6280   64.7150 C   0  0  0  0  0  0  0  0  0  0  0  0
  129.2410  126.9400   66.1380 C   0  0  0  0  0  0  0  0  0  0  0  0
  129.4680  126.2160   64.9150 C   0  0  0  0  0  0  0  0  0  0  0  0
  129.0590  126.6900   63.6950 N   0  0  0  0  0  0  0  0  0  0  0  0
  130.1420  124.9970   65.0930 C   0  0  0  0  0  0  0  0  0  0  0  0
  130.5380  124.0180   64.0780 C   0  0  0  0  0  0  0  0  0  0  0  0
  131.7050  123.6260   64.0040 O   0  0  0  0  0  0  0  0  0  0  0  0
  129.5430  123.5990   63.2550 N   0  0  0  0  0  0  0  0  0  0  0  0
  129.6360  122.6810   62.2180 C   0  0  0  0  0  0  0  0  0  0  0  0
  130.8510  122.1980   61.7340 C   0  0  0  0  0  0  0  0  0  0  0  0
  130.5140  121.3290   60.7210 C   0  0  0  0  0  0  0  0  0  0  0  0
  129.1660  121.2880   60.6030 O   0  0  0  0  0  0  0  0  0  0  0  0
  128.6190  122.1480   61.5580 N   0  0  0  0  0  0  0  0  0  0  0  0
  130.5140  124.7170   66.7950 S   0  0  0  0  0  0  0  0  0  0  0  0
  129.7680  126.2300   67.2550 C   0  0  0  0  0  0  0  0  0  0  0  0
  129.7200  126.6340   68.5240 N   0  0  0  0  0  0  0  0  0  0  0  0
  130.2050  128.8350   70.8030 C   0  0  0  0  0  0  0  0  0  0  0  0
  130.1800  129.2380   72.1360 C   0  0  0  0  0  0  0  0  0  0  0  0
  1  2  1  0
  2  3  1  0
  3  4  2  0
  4  5  1  0
  5  6  2  0
  6  7  1  0
  7  8  2  0
  8  9  1  0
  9 10  1  0
 10 11  2  0
 11 12  1  0
 12 13  2  0
 13 14  1  0
 14 15  1  0
 13 16  1  0
 16 17  2  0
  9 18  2  0
 18 19  1  0
 19 20  1  0
 19 21  2  0
 21 22  1  0
 22 23  2  0
 22 24  1  0
 24 25  1  0
 25 26  1  0
 26 27  2  0
 27 28  1  0
 28 29  1  0
 21 30  1  0
 30 31  1  0
 31 32  2  0
  6 33  1  0
 33 34  2  0
 34  3  1  0
 32  7  1  0
 17 10  1  0
 31 18  1  0
 29 25  2  0
M  END
>  <Binding energies>  (65) 
[-7.87]

>  <Ligand effiencies>  (65) 
[-0.2127027027027027]

>  <Interactions>  (65) 
["H-A:GLU:543:OE1:4904, V-A:GLU:543:CD:4903, H-A:TYR:484:OH:4343, H-B:GLU:543:OE2:9878, H-B:ALA:541:N:9859, V-B:GLU:543:CD:9876, V-A:GLU:543:CG:4902, V-B:GLU:543:CB:9874, V-B:HIS:456:CE1:9037, V-B:GLU:543:CG:9875, V-B:HIS:456:CD2:9035, V-A:HIS:456:CE1:4064, V-A:GLY:544:C:4907, H-A:HIS:456:NE2:4065, V-A:GLU:543:C:4897, V-A:LYS:547:CE:4945, V-A:TYR:484:CZ:4342, H-A:LYS:547:NZ:4946, V-A:TYR:484:CE1:4340, V-B:ALA:541:CB:9860, H-B:GLU:543:OE1:9877, V-B:HIS:456:CG:9033"]

$$$$
9d_Ghoteimi_2023
     RDKit          3D

 38 43  0  0  0  0  0  0  0  0999 V2000
  122.9720  130.0100   66.4830 C   0  0  0  0  0  0  0  0  0  0  0  0
  123.6420  130.8470   65.5510 O   0  0  0  0  0  0  0  0  0  0  0  0
  123.7950  130.4640   64.2570 C   0  0  0  0  0  0  0  0  0  0  0  0
  122.9850  130.7210   63.3620 O   0  0  0  0  0  0  0  0  0  0  0  0
  125.0380  129.6960   64.0250 C   0  0  0  0  0  0  0  0  0  0  0  0
  125.4080  129.0900   62.4110 S   0  0  0  0  0  0  0  0  0  0  0  0
  126.9140  128.4020   62.9720 C   0  0  0  0  0  0  0  0  0  0  0  0
  127.7460  127.7760   62.1410 N   0  0  0  0  0  0  0  0  0  0  0  0
  128.9000  127.2920   62.6720 C   0  0  0  0  0  0  0  0  0  0  0  0
  129.8310  126.6170   61.7170 C   0  0  0  0  0  0  0  0  0  0  0  0
  129.7070  126.8240   60.3390 C   0  0  0  0  0  0  0  0  0  0  0  0
  130.5670  126.1980   59.4410 C   0  0  0  0  0  0  0  0  0  0  0  0
  131.5920  125.3500   59.8900 C   0  0  0  0  0  0  0  0  0  0  0  0
  132.4530  124.7000   58.9990 N   0  0  0  0  0  0  0  0  0  0  0  0
  133.0840  123.4100   59.3430 C   0  0  0  0  0  0  0  0  0  0  0  0
  134.2510  123.0180   58.4130 C   0  0  0  0  0  0  0  0  0  0  0  0
  133.8210  123.0290   57.0630 O   0  0  0  0  0  0  0  0  0  0  0  0
  133.3720  124.3160   56.6720 C   0  0  0  0  0  0  0  0  0  0  0  0
  132.1770  124.7510   57.5480 C   0  0  0  0  0  0  0  0  0  0  0  0
  131.7020  125.1330   61.2720 C   0  0  0  0  0  0  0  0  0  0  0  0
  130.8390  125.7570   62.1690 C   0  0  0  0  0  0  0  0  0  0  0  0
  129.1990  127.4050   64.0320 C   0  0  0  0  0  0  0  0  0  0  0  0
  128.3180  128.0440   64.9120 C   0  0  0  0  0  0  0  0  0  0  0  0
  128.6730  128.1120   66.3540 C   0  0  0  0  0  0  0  0  0  0  0  0
  128.9650  129.3360   66.9600 C   0  0  0  0  0  0  0  0  0  0  0  0
  129.2780  129.3960   68.3160 C   0  0  0  0  0  0  0  0  0  0  0  0
  129.2920  128.2350   69.1050 C   0  0  0  0  0  0  0  0  0  0  0  0
  129.6120  128.2680   70.4640 N   0  0  0  0  0  0  0  0  0  0  0  0
  129.3770  127.0650   71.2860 C   0  0  0  0  0  0  0  0  0  0  0  0
  130.1190  127.0980   72.6390 C   0  0  0  0  0  0  0  0  0  0  0  0
  129.7760  128.2760   73.3540 O   0  0  0  0  0  0  0  0  0  0  0  0
  130.1250  129.4480   72.6320 C   0  0  0  0  0  0  0  0  0  0  0  0
  129.3790  129.4740   71.2810 C   0  0  0  0  0  0  0  0  0  0  0  0
  128.9990  127.0120   68.4850 C   0  0  0  0  0  0  0  0  0  0  0  0
  128.6870  126.9520   67.1300 C   0  0  0  0  0  0  0  0  0  0  0  0
  127.1240  128.5960   64.3690 C   0  0  0  0  0  0  0  0  0  0  0  0
  126.0430  129.3560   64.9390 C   0  0  0  0  0  0  0  0  0  0  0  0
  126.0120  129.7340   66.2570 N   0  0  0  0  0  0  0  0  0  0  0  0
  1  2  1  0
  2  3  1  0
  3  4  2  0
  3  5  1  0
  5  6  1  0
  6  7  1  0
  7  8  2  0
  8  9  1  0
  9 10  1  0
 10 11  2  0
 11 12  1  0
 12 13  2  0
 13 14  1  0
 14 15  1  0
 15 16  1  0
 16 17  1  0
 17 18  1  0
 18 19  1  0
 13 20  1  0
 20 21  2  0
  9 22  2  0
 22 23  1  0
 23 24  1  0
 24 25  2  0
 25 26  1  0
 26 27  2  0
 27 28  1  0
 28 29  1  0
 29 30  1  0
 30 31  1  0
 31 32  1  0
 32 33  1  0
 27 34  1  0
 34 35  2  0
 23 36  2  0
 36 37  1  0
 37 38  1  0
 37  5  2  0
 36  7  1  0
 21 10  1  0
 35 24  1  0
 19 14  1  0
 33 28  1  0
M  END
>  <Binding energies>  (66) 
[-8.56]

>  <Ligand effiencies>  (66) 
[-0.21400000000000002]

>  <Interactions>  (66) 
["V-A:ASP:366:CG:3208, V-A:ILE:369:CD1:3234, V-A:GLU:543:CD:4903, V-A:ILE:369:CB:3231, H-B:TYR:539:OH:9846, V-A:TYR:531:CZ:4789, V-B:GLU:543:CD:9876, V-A:ASP:366:CB:3207, V-A:ILE:369:CG2:3232, V-A:TYR:531:CE1:4787, V-A:GLU:543:CG:4902, H-B:GLY:454:N:9017, V-B:GLU:543:CB:9874, V-B:HIS:456:CE1:9037, H-B:ARG:545:NH1:9895, V-A:ILE:369:CG1:3233, V-B:HIS:456:CD2:9035, H-B:LYS:547:NZ:9919, V-A:HIS:456:CE1:4064, V-B:TYR:484:CZ:9314, V-A:ASP:366:CA:3205, V-A:ASP:366:C:3203, V-A:GLU:543:C:4897, V-A:GLU:543:CA:4899, V-A:LYS:547:CE:4945, V-A:GLU:543:CB:4901, H-A:LYS:547:NZ:4946, V-A:ASN:370:CB:3240, H-B:TYR:484:OH:9315, V-B:ARG:545:CZ:9894, V-B:ARG:545:CD:9891, V-B:ARG:545:CG:9890, V-B:GLY:453:CA:9011, V-B:GLY:453:C:9009, H-B:HIS:456:NE2:9038, H-A:ASN:370:N:3239"]

$$$$
RR10_Rahimova_2017
     RDKit          3D

 34 38  0  0  0  0  0  0  0  0999 V2000
  130.8720  128.9940   52.0500 C   0  0  0  0  0  0  0  0  0  0  0  0
  131.2630  130.3960   52.5480 C   0  0  1  0  0  0  0  0  0  0  0  0
  130.1270  131.0560   53.3630 C   0  0  0  0  0  0  0  0  0  0  0  0
  130.5280  132.4760   53.8230 C   0  0  0  0  0  0  0  0  0  0  0  0
  131.8260  132.4710   54.6720 C   0  0  1  0  0  0  0  0  0  0  0  0
  131.5990  131.8140   55.9660 N   0  0  0  0  0  0  0  0  0  0  0  0
  130.8090  132.2810   56.9500 C   0  0  0  0  0  0  0  0  0  0  0  0
  130.1610  133.3260   56.8520 O   0  0  0  0  0  0  0  0  0  0  0  0
  130.7500  131.4490   58.2480 C   0  0  1  0  0  0  0  0  0  0  0  0
  132.1920  131.1480   58.7320 C   0  0  0  0  0  0  0  0  0  0  0  0
  132.1380  130.3930   60.0820 C   0  0  0  0  0  0  0  0  0  0  0  0
  131.2610  131.1160   61.1300 C   0  0  0  0  0  0  0  0  0  0  0  0
  129.9180  131.4250   60.5680 N   0  0  0  0  0  0  0  0  0  0  0  0
  128.7330  131.9800   61.7620 S   0  0  0  0  0  0  0  0  0  0  0  0
  127.4210  132.0470   61.1060 O   0  0  0  0  0  0  0  0  0  0  0  0
  129.2860  133.1640   62.4300 O   0  0  0  0  0  0  0  0  0  0  0  0
  128.6370  130.6600   62.9710 C   0  0  0  0  0  0  0  0  0  0  0  0
  128.5400  129.3350   62.5320 C   0  0  0  0  0  0  0  0  0  0  0  0
  128.4600  128.2610   63.4240 C   0  0  0  0  0  0  0  0  0  0  0  0
  128.4840  128.5760   64.7840 C   0  0  0  0  0  0  0  0  0  0  0  0
  128.4220  127.8290   65.9360 N   0  0  0  0  0  0  0  0  0  0  0  0
  128.4870  128.6940   67.0090 C   0  0  0  0  0  0  0  0  0  0  0  0
  128.4400  128.2470   68.4410 C   0  0  0  0  0  0  0  0  0  0  0  0
  129.4240  128.6640   69.3480 C   0  0  0  0  0  0  0  0  0  0  0  0
  129.3790  128.2530   70.6780 C   0  0  0  0  0  0  0  0  0  0  0  0
  128.3490  127.4210   71.1080 C   0  0  0  0  0  0  0  0  0  0  0  0
  127.3640  126.9980   70.2210 C   0  0  0  0  0  0  0  0  0  0  0  0
  127.4100  127.4100   68.8910 C   0  0  0  0  0  0  0  0  0  0  0  0
  128.5930  129.9470   66.6240 N   0  0  0  0  0  0  0  0  0  0  0  0
  128.5900  129.9070   65.2550 C   0  0  0  0  0  0  0  0  0  0  0  0
  128.6720  130.9640   64.3370 C   0  0  0  0  0  0  0  0  0  0  0  0
  129.9690  132.2390   59.3270 C   0  0  0  0  0  0  0  0  0  0  0  0
  132.9520  131.7910   53.8480 C   0  0  0  0  0  0  0  0  0  0  0  0
  132.5580  130.3670   53.3930 C   0  0  0  0  0  0  0  0  0  0  0  0
  2  1  1  1
  2  3  1  0
  3  4  1  0
  4  5  1  0
  5  6  1  1
  6  7  1  0
  7  8  2  0
  9  7  1  6
  9 10  1  0
 10 11  1  0
 11 12  1  0
 12 13  1  0
 13 14  1  0
 14 15  2  0
 14 16  2  0
 14 17  1  0
 17 18  2  0
 18 19  1  0
 19 20  2  0
 20 21  1  0
 21 22  1  0
 22 23  1  0
 23 24  2  0
 24 25  1  0
 25 26  2  0
 26 27  1  0
 27 28  2  0
 22 29  2  0
 29 30  1  0
 30 31  2  0
 13 32  1  0
  5 33  1  0
 33 34  1  0
 34  2  1  0
 32  9  1  0
 31 17  1  0
 30 20  1  0
 28 23  1  0
M  END
>  <Binding energies>  (67) 
[-10.73]

>  <Ligand effiencies>  (67) 
[-0.2980555555555556]

>  <Interactions>  (67) 
["V-A:PRO:540:CA:4878, V-A:ILE:538:CG2:4858, V-A:MET:535:CG:4828, H-A:TYR:531:OH:4790, V-A:ILE:538:CA:4855, V-A:PRO:540:CB:4880, H-A:ALA:541:N:4886, V-A:ILE:538:CD1:4860, V-A:LEU:363:CD1:3184, V-A:GLU:543:CD:4903, H-B:GLU:543:OE2:9878, V-A:PRO:540:N:4879, V-A:TYR:531:CZ:4789, V-A:PRO:540:CD:4882, V-A:TYR:531:CE1:4787, V-A:TYR:531:CE2:4788, V-A:GLU:543:CG:4902, V-B:GLU:543:CB:9874, V-B:HIS:456:CE1:9037, V-A:MET:535:CB:4827, V-A:TYR:531:CD2:4786, H-A:TYR:539:N:4865, V-A:TYR:531:CG:4784, V-A:TYR:531:C:4779, V-A:HIS:456:CE1:4064, V-B:GLY:544:C:9880, V-B:GLU:543:C:9870, V-A:GLU:543:CB:4901, H-B:TYR:484:OH:9315, V-A:TYR:531:CD1:4785, V-A:LYS:534:CB:4814"]

$$$$
RR12_Rahimova_2017
     RDKit          3D

 26 28  0  0  0  0  0  0  0  0999 V2000
  127.1000  130.4850   57.7940 C   0  0  0  0  0  0  0  0  0  0  0  0
  126.2330  131.0610   58.9210 C   0  0  0  0  0  0  0  0  0  0  0  0
  126.7750  130.7150   60.3200 C   0  0  0  0  0  0  0  0  0  0  0  0
  127.5960  131.8040   60.8430 N   0  0  0  0  0  0  0  0  0  0  0  0
  128.9250  131.7470   61.2330 C   0  0  0  0  0  0  0  0  0  0  0  0
  129.7580  130.4770   61.2200 C   0  0  0  0  0  0  0  0  0  0  0  0
  130.4620  130.2500   59.8700 C   0  0  0  0  0  0  0  0  0  0  0  0
  131.2430  131.4890   59.3900 C   0  0  0  0  0  0  0  0  0  0  0  0
  130.8740  131.9340   58.0460 N   0  0  0  0  0  0  0  0  0  0  0  0
  129.7580  132.6200   57.7400 C   0  0  0  0  0  0  0  0  0  0  0  0
  128.9130  132.9460   58.5770 O   0  0  0  0  0  0  0  0  0  0  0  0
  129.5900  132.9880   56.2600 C   0  0  0  0  0  0  0  0  0  0  0  0
  130.8740  133.0530   55.6370 O   0  0  0  0  0  0  0  0  0  0  0  0
  131.1420  132.2370   54.5530 C   0  0  0  0  0  0  0  0  0  0  0  0
  132.4080  131.6480   54.5190 C   0  0  0  0  0  0  0  0  0  0  0  0
  132.7690  130.8080   53.4690 C   0  0  0  0  0  0  0  0  0  0  0  0
  131.8590  130.5540   52.4470 C   0  0  0  0  0  0  0  0  0  0  0  0
  130.5930  131.1340   52.4640 C   0  0  0  0  0  0  0  0  0  0  0  0
  130.2330  131.9750   53.5140 C   0  0  0  0  0  0  0  0  0  0  0  0
  129.3980  132.9010   61.6350 N   0  0  0  0  0  0  0  0  0  0  0  0
  128.3600  133.7770   61.4880 C   0  0  0  0  0  0  0  0  0  0  0  0
  128.3200  135.1530   61.7590 C   0  0  0  0  0  0  0  0  0  0  0  0
  127.1290  135.8370   61.5170 C   0  0  0  0  0  0  0  0  0  0  0  0
  126.0040  135.1790   61.0180 C   0  0  0  0  0  0  0  0  0  0  0  0
  126.0110  133.8100   60.7400 C   0  0  0  0  0  0  0  0  0  0  0  0
  127.2070  133.1240   60.9840 C   0  0  0  0  0  0  0  0  0  0  0  0
  1  2  1  0
  2  3  1  0
  3  4  1  0
  4  5  1  0
  5  6  1  0
  6  7  1  0
  7  8  1  0
  8  9  1  0
  9 10  1  0
 10 11  2  0
 10 12  1  0
 12 13  1  0
 13 14  1  0
 14 15  2  0
 15 16  1  0
 16 17  2  0
 17 18  1  0
 18 19  2  0
  5 20  2  0
 20 21  1  0
 21 22  2  0
 22 23  1  0
 23 24  2  0
 24 25  1  0
 25 26  2  0
 26  4  1  0
 19 14  1  0
 26 21  1  0
M  END
>  <Binding energies>  (68) 
[-6.9]

>  <Ligand effiencies>  (68) 
[-0.2555555555555556]

>  <Interactions>  (68) 
["V-A:TYR:539:CE2:4871, V-A:PRO:540:CA:4878, V-A:MET:535:CG:4828, V-A:TYR:539:CE1:4870, V-A:TYR:539:CZ:4872, V-B:LEU:475:CD2:9226, V-A:ILE:538:CA:4855, V-A:PRO:540:CB:4880, H-A:ALA:541:N:4886, V-A:ALA:541:CB:4887, V-A:ILE:538:CD1:4860, V-A:LEU:363:CD1:3184, V-B:LEU:475:CD1:9225, V-A:TYR:539:CD2:4869, V-A:PRO:540:N:4879, V-A:TYR:531:CZ:4789, V-A:TYR:539:C:4862, V-A:TYR:531:CE2:4788, V-A:TYR:539:CG:4867, V-B:TRP:381:CH2:8339, V-A:MET:535:CB:4827, V-A:TYR:531:CD2:4786, H-A:TYR:539:N:4865, V-A:ALA:541:CA:4885, V-A:TYR:531:CG:4784, V-A:TYR:531:C:4779, V-A:TYR:539:CD1:4868, V-A:PRO:540:C:4876, V-B:TRP:381:CZ2:8337, V-B:LEU:475:CG:9224"]

$$$$
RR13_Rahimova_2017
     RDKit          3D

 48 54  0  0  0  0  0  0  0  0999 V2000
  125.8170  130.3950   57.8070 Cl  0  0  0  0  0  0  0  0  0  0  0  0
  126.8320  131.5280   58.6330 C   0  0  0  0  0  0  0  0  0  0  0  0
  126.3350  132.1190   59.7970 C   0  0  0  0  0  0  0  0  0  0  0  0
  127.0940  133.0540   60.4950 C   0  0  0  0  0  0  0  0  0  0  0  0
  128.3580  133.4080   60.0300 C   0  0  0  0  0  0  0  0  0  0  0  0
  128.8600  132.8240   58.8700 C   0  0  0  0  0  0  0  0  0  0  0  0
  128.1150  131.8700   58.1580 C   0  0  0  0  0  0  0  0  0  0  0  0
  128.6840  131.2550   56.8610 C   0  0  1  0  0  0  0  0  0  0  0  0
  129.8370  132.1060   56.3060 C   0  0  0  0  0  0  0  0  0  0  0  0
  129.7600  133.3450   55.8720 N   0  0  0  0  0  0  0  0  0  0  0  0
  131.0420  133.6810   55.4480 N   0  0  0  0  0  0  0  0  0  0  0  0
  131.8940  132.6080   55.6200 N   0  0  0  0  0  0  0  0  0  0  0  0
  131.1220  131.6410   56.1270 N   0  0  0  0  0  0  0  0  0  0  0  0
  131.6950  130.3480   56.4810 C   0  0  0  0  0  0  0  0  0  0  0  0
  133.0100  130.5420   57.2600 C   0  0  0  0  0  0  0  0  0  0  0  0
  132.7660  130.8770   58.7230 C   0  0  0  0  0  0  0  0  0  0  0  0
  131.4600  131.0340   59.1950 C   0  0  0  0  0  0  0  0  0  0  0  0
  131.2380  131.3490   60.5330 C   0  0  0  0  0  0  0  0  0  0  0  0
  132.3220  131.5050   61.3940 C   0  0  0  0  0  0  0  0  0  0  0  0
  133.6260  131.3500   60.9300 C   0  0  0  0  0  0  0  0  0  0  0  0
  133.8490  131.0360   59.5920 C   0  0  0  0  0  0  0  0  0  0  0  0
  129.0530  129.8250   56.9970 N   0  0  0  0  0  0  0  0  0  0  0  0
  128.4020  129.0210   55.9460 C   0  0  0  0  0  0  0  0  0  0  0  0
  128.8850  127.5530   56.0000 C   0  0  0  0  0  0  0  0  0  0  0  0
  128.5440  126.9410   57.2950 N   0  0  0  0  0  0  0  0  0  0  0  0
  128.9160  125.5090   57.3600 C   0  0  1  0  0  0  0  0  0  0  0  0
  127.7460  124.5100   57.2190 C   0  0  0  0  0  0  0  0  0  0  0  0
  128.0350  123.2620   56.6500 C   0  0  0  0  0  0  0  0  0  0  0  0
  127.0450  122.2920   56.4990 C   0  0  0  0  0  0  0  0  0  0  0  0
  125.7430  122.5600   56.9120 C   0  0  0  0  0  0  0  0  0  0  0  0
  125.4310  123.7990   57.4650 C   0  0  0  0  0  0  0  0  0  0  0  0
  126.4160  124.7790   57.6170 C   0  0  0  0  0  0  0  0  0  0  0  0
  125.9140  126.3100   58.2510 Cl  0  0  0  0  0  0  0  0  0  0  0  0
  130.0440  125.1360   56.3960 C   0  0  0  0  0  0  0  0  0  0  0  0
  129.9460  125.0980   55.0870 N   0  0  0  0  0  0  0  0  0  0  0  0
  131.2050  124.7310   54.6200 N   0  0  0  0  0  0  0  0  0  0  0  0
  132.0720  124.5640   55.6800 N   0  0  0  0  0  0  0  0  0  0  0  0
  131.3390  124.8400   56.7650 N   0  0  0  0  0  0  0  0  0  0  0  0
  131.9360  124.7430   58.0930 C   0  0  0  0  0  0  0  0  0  0  0  0
  132.3590  123.2920   58.3870 C   0  0  0  0  0  0  0  0  0  0  0  0
  131.3290  122.5530   59.2280 C   0  0  0  0  0  0  0  0  0  0  0  0
  130.0530  123.0950   59.4040 C   0  0  0  0  0  0  0  0  0  0  0  0
  129.1080  122.4150   60.1680 C   0  0  0  0  0  0  0  0  0  0  0  0
  129.4430  121.1950   60.7550 C   0  0  0  0  0  0  0  0  0  0  0  0
  130.7140  120.6500   60.5820 C   0  0  0  0  0  0  0  0  0  0  0  0
  131.6590  121.3280   59.8170 C   0  0  0  0  0  0  0  0  0  0  0  0
  129.2010  127.7450   58.3410 C   0  0  0  0  0  0  0  0  0  0  0  0
  128.7060  129.2090   58.2890 C   0  0  0  0  0  0  0  0  0  0  0  0
  1  2  1  0
  2  3  2  0
  3  4  1  0
  4  5  2  0
  5  6  1  0
  6  7  2  0
  7  8  1  0
  8  9  1  0
  9 10  2  0
 10 11  1  0
 11 12  2  0
 12 13  1  0
 13 14  1  0
 14 15  1  0
 15 16  1  0
 16 17  2  0
 17 18  1  0
 18 19  2  0
 19 20  1  0
 20 21  2  0
  8 22  1  1
 22 23  1  0
 23 24  1  0
 24 25  1  0
 26 25  1  6
 26 27  1  0
 27 28  2  0
 28 29  1  0
 29 30  2  0
 30 31  1  0
 31 32  2  0
 32 33  1  0
 26 34  1  0
 34 35  2  0
 35 36  1  0
 36 37  2  0
 37 38  1  0
 38 39  1  0
 39 40  1  0
 40 41  1  0
 41 42  2  0
 42 43  1  0
 43 44  2  0
 44 45  1  0
 45 46  2  0
 25 47  1  0
 47 48  1  0
  7  2  1  0
 13  9  1  0
 21 16  1  0
 48 22  1  0
 32 27  1  0
 38 34  1  0
 46 41  1  0
M  END
>  <Binding energies>  (69) 
[-13.35]

>  <Ligand effiencies>  (69) 
[-0.278125]

>  <Interactions>  (69) 
["V-A:TYR:539:CE2:4871, V-A:PRO:540:CA:4878, H-A:TYR:531:OH:4790, V-A:TYR:539:CE1:4870, V-A:TYR:539:CZ:4872, V-A:PRO:540:CB:4880, V-A:LEU:363:CD1:3184, V-A:TYR:539:CD2:4869, V-A:GLU:543:CD:4903, H-A:LYS:534:NZ:4818, V-B:PRO:540:CA:9851, H-B:TYR:539:OH:9846, V-B:MET:535:CE:9803, V-A:PRO:540:N:4879, V-A:TYR:531:CZ:4789, V-A:TYR:539:C:4862, V-B:PRO:540:N:9852, V-B:TYR:539:CE2:9844, V-B:TYR:539:CD2:9842, V-B:PRO:540:CB:9853, V-B:TYR:539:CZ:9845, V-A:TYR:531:CE1:4787, V-B:TYR:539:C:9835, V-A:TYR:531:CE2:4788, V-B:ASP:366:CB:8179, V-B:ASP:366:CG:8180, V-A:LEU:363:CA:3180, H-A:TYR:539:N:4865, V-A:LEU:363:CB:3182, V-A:ASN:362:C:3167, V-A:ASN:362:CB:3171, V-B:ALA:541:CB:9860, V-B:PRO:540:CD:9855, V-B:TYR:539:CA:9837"]

$$$$
RR14_Rahimova_2017
     RDKit          3D

 39 43  0  0  0  0  0  0  0  0999 V2000
  129.7850  123.1840   63.3660 C   0  0  0  0  0  0  0  0  0  0  0  0
  129.7330  122.1070   62.4360 O   0  0  0  0  0  0  0  0  0  0  0  0
  129.2780  122.3480   61.1530 C   0  0  0  0  0  0  0  0  0  0  0  0
  130.1040  121.9260   60.1110 C   0  0  0  0  0  0  0  0  0  0  0  0
  129.7410  122.1470   58.7860 C   0  0  0  0  0  0  0  0  0  0  0  0
  128.5420  122.8020   58.4900 C   0  0  0  0  0  0  0  0  0  0  0  0
  128.1730  123.1040   57.0430 C   0  0  0  0  0  0  0  0  0  0  0  0
  126.7500  123.3880   56.8570 N   0  0  0  0  0  0  0  0  0  0  0  0
  125.8930  122.3980   56.5810 N   0  0  0  0  0  0  0  0  0  0  0  0
  124.6690  123.0220   56.4430 N   0  0  0  0  0  0  0  0  0  0  0  0
  124.8070  124.3940   56.6310 N   0  0  0  0  0  0  0  0  0  0  0  0
  126.0810  124.5930   56.8740 C   0  0  0  0  0  0  0  0  0  0  0  0
  126.7240  125.9500   57.1230 C   0  0  0  0  0  0  0  0  0  0  0  0
  127.7120  126.3030   56.0890 N   0  0  0  0  0  0  0  0  0  0  0  0
  127.1450  127.1950   55.0700 C   0  0  0  0  0  0  0  0  0  0  0  0
  128.1170  128.3070   54.6200 C   0  0  0  0  0  0  0  0  0  0  0  0
  127.6750  129.7250   55.0390 C   0  0  0  0  0  0  0  0  0  0  0  0
  128.7980  130.6430   55.2540 N   0  0  0  0  0  0  0  0  0  0  0  0
  128.6470  131.3410   56.5380 C   0  0  0  0  0  0  0  0  0  0  0  0
  129.7870  132.3550   56.7720 C   0  0  0  0  0  0  0  0  0  0  0  0
  129.8730  133.2570   55.6740 O   0  0  0  0  0  0  0  0  0  0  0  0
  130.1330  132.5870   54.4460 C   0  0  0  0  0  0  0  0  0  0  0  0
  129.0020  131.5810   54.1400 C   0  0  0  0  0  0  0  0  0  0  0  0
  128.8960  126.9150   56.7090 C   0  0  0  0  0  0  0  0  0  0  0  0
  130.0140  125.9560   57.1120 C   0  0  0  0  0  0  0  0  0  0  0  0
  130.4360  125.8750   58.3980 C   0  0  0  0  0  0  0  0  0  0  0  0
  131.5420  124.9850   58.8070 C   0  0  0  0  0  0  0  0  0  0  0  0
  131.9910  124.8620   60.1330 C   0  0  0  0  0  0  0  0  0  0  0  0
  131.3560  125.6540   61.2680 C   0  0  0  0  0  0  0  0  0  0  0  0
  133.0450  123.9880   60.4140 C   0  0  0  0  0  0  0  0  0  0  0  0
  133.6460  123.2460   59.3990 C   0  0  0  0  0  0  0  0  0  0  0  0
  133.2040  123.3610   58.0770 C   0  0  0  0  0  0  0  0  0  0  0  0
  133.8790  122.5350   56.9900 C   0  0  0  0  0  0  0  0  0  0  0  0
  132.1460  124.2350   57.7830 C   0  0  0  0  0  0  0  0  0  0  0  0
  131.6690  124.3860   56.4640 N   0  0  0  0  0  0  0  0  0  0  0  0
  130.6600  125.1880   56.0430 C   0  0  0  0  0  0  0  0  0  0  0  0
  130.3550  125.2340   54.8510 O   0  0  0  0  0  0  0  0  0  0  0  0
  127.6950  123.2010   59.5260 C   0  0  0  0  0  0  0  0  0  0  0  0
  128.0610  122.9800   60.8510 C   0  0  0  0  0  0  0  0  0  0  0  0
  1  2  1  0
  2  3  1  0
  3  4  2  0
  4  5  1  0
  5  6  2  0
  6  7  1  0
  7  8  1  0
  8  9  1  0
  9 10  2  0
 10 11  1  0
 11 12  2  0
 12 13  1  0
 13 14  1  0
 14 15  1  0
 15 16  1  0
 16 17  1  0
 17 18  1  0
 18 19  1  0
 19 20  1  0
 20 21  1  0
 21 22  1  0
 22 23  1  0
 14 24  1  0
 24 25  1  0
 25 26  2  0
 26 27  1  0
 27 28  2  0
 28 29  1  0
 28 30  1  0
 30 31  2  0
 31 32  1  0
 32 33  1  0
 32 34  2  0
 34 35  1  0
 35 36  1  0
 36 37  2  0
  6 38  1  0
 38 39  2  0
 39  3  1  0
 12  8  1  0
 23 18  1  0
 36 25  1  0
 34 27  1  0
M  END
>  <Binding energies>  (70) 
[-10.59]

>  <Ligand effiencies>  (70) 
[-0.26475]

>  <Interactions>  (70) 
["V-A:MET:535:CG:4828, V-A:ASP:366:CG:3208, H-A:TYR:531:OH:4790, V-A:TYR:539:CE1:4870, V-A:ILE:369:CD1:3234, V-A:TYR:539:CZ:4872, V-A:ILE:538:CA:4855, H-B:TYR:531:OH:9763, V-A:ILE:538:CD1:4860, H-A:LYS:534:NZ:4818, V-A:ILE:369:CB:3231, V-B:PRO:540:CA:9851, H-B:TYR:539:OH:9846, V-B:MET:535:CE:9803, V-A:TYR:531:CZ:4789, H-B:TYR:539:N:9838, V-B:GLU:543:CD:9876, V-A:ASP:366:CB:3207, V-B:TYR:539:CE2:9844, V-A:ILE:369:CG2:3232, V-B:TYR:539:CD2:9842, V-B:TYR:539:CZ:9845, V-A:TYR:531:CE1:4787, V-B:TYR:539:C:9835, V-B:TYR:531:CZ:9762, V-B:GLU:543:CG:9875, V-A:MET:535:CB:4827, H-A:TYR:539:N:4865, V-A:TYR:539:CD1:4868, V-A:ASN:370:CB:3240, V-B:ALA:541:CB:9860, V-A:ASN:370:CA:3238, V-A:ILE:369:C:3227"]

$$$$
RR15_Rahimova_2017
     RDKit          3D

 45 49  0  0  0  0  0  0  0  0999 V2000
  133.4240  122.7980   61.4560 C   0  0  0  0  0  0  0  0  0  0  0  0
  133.4250  122.2630   60.1360 O   0  0  0  0  0  0  0  0  0  0  0  0
  132.7550  122.9340   59.1280 C   0  0  0  0  0  0  0  0  0  0  0  0
  133.4010  123.6700   58.1220 C   0  0  0  0  0  0  0  0  0  0  0  0
  132.6660  124.3250   57.1370 C   0  0  0  0  0  0  0  0  0  0  0  0
  131.2680  124.2670   57.1290 C   0  0  0  0  0  0  0  0  0  0  0  0
  130.4750  124.9800   56.0690 C   0  0  0  0  0  0  0  0  0  0  0  0
  130.0090  124.3720   54.9860 N   0  0  0  0  0  0  0  0  0  0  0  0
  129.3500  125.3410   54.2580 N   0  0  0  0  0  0  0  0  0  0  0  0
  129.4610  126.4330   55.0160 N   0  0  0  0  0  0  0  0  0  0  0  0
  129.0370  127.7500   54.5430 C   0  0  0  0  0  0  0  0  0  0  0  0
  127.5400  128.0730   54.7760 C   0  0  0  0  0  0  0  0  0  0  0  0
  126.7270  127.7190   53.9180 O   0  0  0  0  0  0  0  0  0  0  0  0
  127.1540  128.7060   55.9260 N   0  0  0  0  0  0  0  0  0  0  0  0
  127.3880  128.1000   57.2520 C   0  0  0  0  0  0  0  0  0  0  0  0
  126.4010  126.9620   57.5930 C   0  0  0  0  0  0  0  0  0  0  0  0
  127.0670  125.6280   58.0080 C   0  0  0  0  0  0  0  0  0  0  0  0
  126.7450  124.5070   57.1200 N   0  0  0  0  0  0  0  0  0  0  0  0
  127.7260  123.4130   57.1770 C   0  0  0  0  0  0  0  0  0  0  0  0
  127.2970  122.2230   56.2910 C   0  0  0  0  0  0  0  0  0  0  0  0
  125.9880  121.7920   56.6470 O   0  0  0  0  0  0  0  0  0  0  0  0
  125.0170  122.8220   56.4940 C   0  0  0  0  0  0  0  0  0  0  0  0
  125.3830  124.0270   57.3880 C   0  0  0  0  0  0  0  0  0  0  0  0
  126.6560  130.1150   55.9610 C   0  0  2  0  0  0  0  0  0  0  0  0
  127.1280  130.9880   54.7570 C   0  0  0  0  0  0  0  0  0  0  0  0
  126.3530  131.2970   53.8520 O   0  0  0  0  0  0  0  0  0  0  0  0
  128.4070  131.4010   54.8050 N   0  0  0  0  0  0  0  0  0  0  0  0
  129.0380  132.3050   53.8500 C   0  0  0  0  0  0  0  0  0  0  0  0
  130.3260  132.9180   54.4300 C   0  0  2  0  0  0  0  0  0  0  0  0
  131.5890  132.0490   54.2970 C   0  0  0  0  0  0  0  0  0  0  0  0
  131.7720  131.4340   55.6630 C   0  0  0  0  0  0  0  0  0  0  0  0
  131.2550  132.5440   56.5620 C   0  0  0  0  0  0  0  0  0  0  0  0
  130.1190  133.0150   55.8460 O   0  0  0  0  0  0  0  0  0  0  0  0
  126.8080  130.7050   57.3580 C   0  0  0  0  0  0  0  0  0  0  0  0
  128.0320  131.2970   57.6950 C   0  0  0  0  0  0  0  0  0  0  0  0
  128.2290  131.8510   58.9560 C   0  0  0  0  0  0  0  0  0  0  0  0
  127.1990  131.8200   59.8930 C   0  0  0  0  0  0  0  0  0  0  0  0
  127.3900  132.3590   61.1180 F   0  0  0  0  0  0  0  0  0  0  0  0
  125.9750  131.2370   59.5760 C   0  0  0  0  0  0  0  0  0  0  0  0
  125.7800  130.6820   58.3140 C   0  0  0  0  0  0  0  0  0  0  0  0
  130.1840  126.2660   56.1290 N   0  0  0  0  0  0  0  0  0  0  0  0
  130.6270  123.5300   58.1330 C   0  0  0  0  0  0  0  0  0  0  0  0
  131.3550  122.8610   59.1320 C   0  0  0  0  0  0  0  0  0  0  0  0
  130.7670  122.1190   60.1420 O   0  0  0  0  0  0  0  0  0  0  0  0
  129.3480  122.0680   60.2430 C   0  0  0  0  0  0  0  0  0  0  0  0
  1  2  1  0
  2  3  1  0
  3  4  2  0
  4  5  1  0
  5  6  2  0
  6  7  1  0
  7  8  1  0
  8  9  2  0
  9 10  1  0
 10 11  1  0
 11 12  1  0
 12 13  2  0
 12 14  1  0
 14 15  1  0
 15 16  1  0
 16 17  1  0
 17 18  1  0
 18 19  1  0
 19 20  1  0
 20 21  1  0
 21 22  1  0
 22 23  1  0
 24 14  1  1
 24 25  1  0
 25 26  2  0
 25 27  1  0
 27 28  1  0
 29 28  1  6
 29 30  1  0
 30 31  1  0
 31 32  1  0
 32 33  1  0
 24 34  1  0
 34 35  2  0
 35 36  1  0
 36 37  2  0
 37 38  1  0
 37 39  1  0
 39 40  2  0
 10 41  1  0
  6 42  1  0
 42 43  2  0
 43 44  1  0
 44 45  1  0
 43  3  1  0
 41  7  2  0
 23 18  1  0
 33 29  1  0
 40 34  1  0
M  END
>  <Binding energies>  (71) 
[-9.96]

>  <Ligand effiencies>  (71) 
[-0.2165217391304348]

>  <Interactions>  (71) 
["V-A:TYR:539:CE2:4871, V-A:PRO:540:CA:4878, V-A:MET:535:CG:4828, H-A:TYR:531:OH:4790, V-A:TYR:539:CE1:4870, V-B:LEU:363:CD1:8156, V-A:ILE:369:CD1:3234, V-A:TYR:539:CZ:4872, V-A:ILE:538:CA:4855, V-A:PRO:540:CB:4880, H-B:TYR:531:OH:9763, V-A:ILE:538:CD1:4860, V-A:LEU:363:CD1:3184, H-A:TYR:539:OH:4873, H-A:LYS:534:NZ:4818, H-B:TYR:539:OH:9846, V-B:MET:535:CE:9803, V-A:PRO:540:N:4879, V-A:TYR:531:CZ:4789, H-B:TYR:539:N:9838, V-A:ASP:366:CB:3207, V-B:PRO:540:N:9852, V-B:TYR:539:CE2:9844, V-A:PRO:540:CD:4882, V-B:PRO:540:CB:9853, V-B:TYR:539:CZ:9845, V-A:TYR:531:CE1:4787, V-B:TYR:539:C:9835, V-A:MET:535:CB:4827, H-A:TYR:539:N:4865, V-A:TYR:539:CD1:4868, V-B:TYR:539:CE1:9843, V-A:ASP:366:CA:3205, V-B:PRO:540:CD:9855, V-A:VAL:537:C:4845, V-B:TYR:539:CG:9840, V-B:TYR:539:CA:9837, V-B:TYR:539:CD1:9841"]

$$$$
RR17_Rahimova_2017
     RDKit          3D

 38 41  0  0  0  0  0  0  0  0999 V2000
  130.2900  124.7090   55.3890 C   0  0  0  0  0  0  0  0  0  0  0  0
  129.0180  125.4820   55.0280 C   0  0  0  0  0  0  0  0  0  0  0  0
  129.2180  126.1330   53.7760 O   0  0  0  0  0  0  0  0  0  0  0  0
  129.9120  127.3280   53.7360 C   0  0  0  0  0  0  0  0  0  0  0  0
  130.0050  128.0340   54.9340 C   0  0  0  0  0  0  0  0  0  0  0  0
  130.6830  129.2470   54.9920 C   0  0  0  0  0  0  0  0  0  0  0  0
  131.2850  129.7830   53.8440 C   0  0  0  0  0  0  0  0  0  0  0  0
  132.0110  131.0930   53.9370 C   0  0  0  0  0  0  0  0  0  0  0  0
  132.7890  131.4820   53.0600 O   0  0  0  0  0  0  0  0  0  0  0  0
  131.7590  131.9480   55.1990 C   0  0  0  0  0  0  0  0  0  0  0  0
  130.3440  133.0880   54.9880 S   0  0  0  0  0  0  0  0  0  0  0  0
  129.0050  131.9360   55.1040 C   0  0  0  0  0  0  0  0  0  0  0  0
  128.3600  131.4140   54.0860 N   0  0  0  0  0  0  0  0  0  0  0  0
  127.3900  130.5570   54.5910 N   0  0  0  0  0  0  0  0  0  0  0  0
  127.4880  130.5890   55.8960 C   0  0  0  0  0  0  0  0  0  0  0  0
  126.6170  129.7830   56.8480 C   0  0  0  0  0  0  0  0  0  0  0  0
  125.3890  130.4660   57.2470 N   0  0  0  0  0  0  0  0  0  0  0  0
  124.9180  130.5150   58.5710 C   0  0  0  0  0  0  0  0  0  0  0  0
  123.6600  131.0790   58.7840 C   0  0  0  0  0  0  0  0  0  0  0  0
  123.1350  131.1640   60.0700 C   0  0  0  0  0  0  0  0  0  0  0  0
  123.8630  130.6810   61.1610 C   0  0  0  0  0  0  0  0  0  0  0  0
  123.2760  130.7880   62.5680 C   0  0  0  0  0  0  0  0  0  0  0  0
  121.9730  130.4960   62.5960 F   0  0  0  0  0  0  0  0  0  0  0  0
  123.9020  129.9520   63.3990 F   0  0  0  0  0  0  0  0  0  0  0  0
  123.4350  132.0340   63.0150 F   0  0  0  0  0  0  0  0  0  0  0  0
  125.1220  130.1080   60.9490 C   0  0  0  0  0  0  0  0  0  0  0  0
  125.6450  130.0220   59.6620 C   0  0  0  0  0  0  0  0  0  0  0  0
  128.4870  131.4550   56.2900 N   0  0  0  0  0  0  0  0  0  0  0  0
  128.9020  131.7530   57.5970 C   0  0  0  0  0  0  0  0  0  0  0  0
  128.0990  132.5530   58.4080 C   0  0  0  0  0  0  0  0  0  0  0  0
  128.5120  132.8510   59.7030 C   0  0  0  0  0  0  0  0  0  0  0  0
  129.7300  132.3490   60.1910 C   0  0  0  0  0  0  0  0  0  0  0  0
  130.2200  132.5920   61.4590 O   0  0  0  0  0  0  0  0  0  0  0  0
  129.7210  131.8300   62.5540 C   0  0  0  0  0  0  0  0  0  0  0  0
  130.5230  131.5510   59.3630 C   0  0  0  0  0  0  0  0  0  0  0  0
  130.1150  131.2490   58.0670 C   0  0  0  0  0  0  0  0  0  0  0  0
  131.1930  129.0710   52.6390 C   0  0  0  0  0  0  0  0  0  0  0  0
  130.5140  127.8560   52.5850 C   0  0  0  0  0  0  0  0  0  0  0  0
  1  2  1  0
  2  3  1  0
  3  4  1  0
  4  5  2  0
  5  6  1  0
  6  7  2  0
  7  8  1  0
  8  9  2  0
  8 10  1  0
 10 11  1  0
 11 12  1  0
 12 13  2  0
 13 14  1  0
 14 15  2  0
 15 16  1  0
 16 17  1  0
 17 18  1  0
 18 19  2  0
 19 20  1  0
 20 21  2  0
 21 22  1  0
 22 23  1  0
 22 24  1  0
 22 25  1  0
 21 26  1  0
 26 27  2  0
 15 28  1  0
 28 29  1  0
 29 30  2  0
 30 31  1  0
 31 32  2  0
 32 33  1  0
 33 34  1  0
 32 35  1  0
 35 36  2  0
  7 37  1  0
 37 38  2  0
 38  4  1  0
 28 12  1  0
 36 29  1  0
 27 18  1  0
M  END
>  <Binding energies>  (72) 
[-9.3]

>  <Ligand effiencies>  (72) 
[-0.23846153846153847]

>  <Interactions>  (72) 
["V-A:TYR:539:CE2:4871, V-A:PRO:540:CA:4878, V-A:MET:535:CG:4828, V-A:TYR:539:CE1:4870, V-A:TYR:539:CZ:4872, V-A:PRO:540:CB:4880, H-A:ALA:541:N:4886, H-B:TYR:531:OH:9763, V-A:ALA:541:CB:4887, V-A:ILE:538:CD1:4860, V-A:LEU:363:CD1:3184, V-A:TYR:539:CD2:4869, V-A:GLU:543:CD:4903, H-A:TYR:539:OH:4873, H-A:LYS:534:NZ:4818, V-B:MET:535:CE:9803, V-A:TYR:531:CZ:4789, V-B:TYR:539:CZ:9845, V-A:TYR:531:CE1:4787, V-A:TYR:531:CE2:4788, V-A:GLU:543:CG:4902, V-A:TYR:539:CG:4867, V-B:ILE:369:CD1:8206, V-B:ASP:366:CB:8179, V-B:ASP:366:CG:8180, V-B:ASP:366:CA:8177, H-A:TYR:539:N:4865, V-A:TYR:539:CD1:4868, V-A:LYS:534:CD:4816, V-B:ILE:369:CB:8203, V-B:ARG:545:CZ:9894, V-A:TYR:531:CD1:4785, V-B:ASP:366:C:8175, V-A:LYS:534:CE:4817, V-A:LYS:534:CB:4814, V-A:LYS:534:CG:4815, V-B:GLY:454:CA:9016, V-B:GLY:453:CA:9011, V-B:GLY:453:C:9009"]

$$$$
RR19_Rahimova_2017
     RDKit          3D

 46 51  0  0  0  0  0  0  0  0999 V2000
  129.3530  124.7810   54.2470 O   0  0  0  0  0  0  0  0  0  0  0  0
  129.1380  125.4710   55.2470 C   0  0  0  0  0  0  0  0  0  0  0  0
  129.4230  126.7910   55.3820 N   0  0  0  0  0  0  0  0  0  0  0  0
  129.7900  127.7650   54.4860 C   0  0  0  0  0  0  0  0  0  0  0  0
  129.7590  127.6150   52.8000 S   0  0  0  0  0  0  0  0  0  0  0  0
  130.1840  128.8790   55.1850 N   0  0  0  0  0  0  0  0  0  0  0  0
  130.5010  130.1430   54.8070 C   0  0  0  0  0  0  0  0  0  0  0  0
  130.3220  130.6400   53.6930 O   0  0  0  0  0  0  0  0  0  0  0  0
  131.1680  130.9840   55.9240 C   0  0  2  0  0  0  0  0  0  0  0  0
  132.5090  130.4080   56.4620 C   0  0  0  0  0  0  0  0  0  0  0  0
  132.6790  130.4640   57.9720 C   0  0  0  0  0  0  0  0  0  0  0  0
  131.9490  129.5980   58.8150 C   0  0  0  0  0  0  0  0  0  0  0  0
  132.1750  129.6090   60.1850 C   0  0  0  0  0  0  0  0  0  0  0  0
  133.1310  130.4560   60.7310 C   0  0  0  0  0  0  0  0  0  0  0  0
  133.8780  131.2920   59.9100 C   0  0  0  0  0  0  0  0  0  0  0  0
  133.6690  131.2950   58.5380 C   0  0  0  0  0  0  0  0  0  0  0  0
  130.2130  131.2700   57.0300 N   0  0  0  0  0  0  0  0  0  0  0  0
  129.9840  132.5440   57.4580 C   0  0  0  0  0  0  0  0  0  0  0  0
  130.5160  133.5770   57.0460 O   0  0  0  0  0  0  0  0  0  0  0  0
  128.9560  132.4260   58.5210 C   0  0  0  0  0  0  0  0  0  0  0  0
  128.3440  133.3980   59.3140 C   0  0  0  0  0  0  0  0  0  0  0  0
  127.3850  132.9940   60.2490 C   0  0  0  0  0  0  0  0  0  0  0  0
  127.0510  131.6390   60.3770 C   0  0  0  0  0  0  0  0  0  0  0  0
  127.6750  130.6800   59.5710 C   0  0  0  0  0  0  0  0  0  0  0  0
  128.6300  131.1030   58.6460 C   0  0  0  0  0  0  0  0  0  0  0  0
  129.4400  130.3390   57.6660 C   0  0  0  0  0  0  0  0  0  0  0  0
  129.4110  129.1240   57.4650 O   0  0  0  0  0  0  0  0  0  0  0  0
  128.4960  124.8210   56.5020 C   0  0  2  0  0  0  0  0  0  0  0  0
  127.3950  125.6930   57.1710 C   0  0  0  0  0  0  0  0  0  0  0  0
  126.4240  124.9060   58.0330 C   0  0  0  0  0  0  0  0  0  0  0  0
  126.7350  124.6380   59.3840 C   0  0  0  0  0  0  0  0  0  0  0  0
  125.8020  124.0070   60.1980 C   0  0  0  0  0  0  0  0  0  0  0  0
  124.5540  123.6630   59.6970 C   0  0  0  0  0  0  0  0  0  0  0  0
  124.2200  123.9560   58.3810 C   0  0  0  0  0  0  0  0  0  0  0  0
  125.1380  124.5850   57.5500 C   0  0  0  0  0  0  0  0  0  0  0  0
  129.4970  124.3460   57.5000 N   0  0  0  0  0  0  0  0  0  0  0  0
  130.3660  125.2030   58.1060 C   0  0  0  0  0  0  0  0  0  0  0  0
  130.4670  126.4170   57.9250 O   0  0  0  0  0  0  0  0  0  0  0  0
  131.1650  124.3620   59.0320 C   0  0  0  0  0  0  0  0  0  0  0  0
  132.2030  124.6950   59.9040 C   0  0  0  0  0  0  0  0  0  0  0  0
  132.7830  123.6800   60.6740 C   0  0  0  0  0  0  0  0  0  0  0  0
  132.3220  122.3610   60.5660 C   0  0  0  0  0  0  0  0  0  0  0  0
  131.2780  122.0480   59.6880 C   0  0  0  0  0  0  0  0  0  0  0  0
  130.7150  123.0750   58.9270 C   0  0  0  0  0  0  0  0  0  0  0  0
  129.6160  123.0560   57.9320 C   0  0  0  0  0  0  0  0  0  0  0  0
  128.9520  122.0830   57.5720 O   0  0  0  0  0  0  0  0  0  0  0  0
  1  2  2  0
  2  3  1  0
  3  4  1  0
  4  5  2  0
  4  6  1  0
  6  7  1  0
  7  8  2  0
  7  9  1  0
  9 10  1  1
 10 11  1  0
 11 12  2  0
 12 13  1  0
 13 14  2  0
 14 15  1  0
 15 16  2  0
  9 17  1  0
 17 18  1  0
 18 19  2  0
 18 20  1  0
 20 21  2  0
 21 22  1  0
 22 23  2  0
 23 24  1  0
 24 25  2  0
 25 26  1  0
 26 27  2  0
  2 28  1  0
 28 29  1  1
 29 30  1  0
 30 31  2  0
 31 32  1  0
 32 33  2  0
 33 34  1  0
 34 35  2  0
 28 36  1  0
 36 37  1  0
 37 38  2  0
 37 39  1  0
 39 40  2  0
 40 41  1  0
 41 42  2  0
 42 43  1  0
 43 44  2  0
 44 45  1  0
 45 46  2  0
 16 11  1  0
 26 17  1  0
 35 30  1  0
 45 36  1  0
 25 20  1  0
 44 39  1  0
M  END
>  <Binding energies>  (73) 
[-10.99]

>  <Ligand effiencies>  (73) 
[-0.22895833333333335]

>  <Interactions>  (73) 
["V-A:TYR:539:CE2:4871, V-A:PRO:540:CA:4878, V-A:MET:535:CG:4828, V-A:ASP:366:CG:3208, H-A:TYR:531:OH:4790, V-B:LEU:363:CD1:8156, V-A:TYR:539:CZ:4872, V-A:PRO:540:CB:4880, V-A:LEU:363:CD1:3184, V-A:TYR:539:CD2:4869, H-A:LYS:534:NZ:4818, V-B:PRO:540:CA:9851, V-A:PRO:540:CG:4881, V-B:MET:535:CE:9803, V-A:PRO:540:N:4879, V-A:TYR:531:CZ:4789, V-A:TYR:539:C:4862, V-A:ASP:366:CB:3207, V-B:TYR:539:CE2:9844, V-B:TYR:539:CD2:9842, V-B:PRO:540:CB:9853, V-B:TYR:539:CZ:9845, V-A:TYR:531:CE1:4787, V-A:TYR:531:CE2:4788, V-A:TYR:539:CG:4867, V-A:LEU:363:CA:3180, V-A:TYR:531:CD2:4786, H-A:TYR:539:N:4865, V-A:LEU:363:CB:3182, V-A:LYS:534:CD:4816, V-A:ASN:362:C:3167, V-A:ASN:362:CB:3171, V-A:LYS:534:CE:4817, V-A:LYS:534:CB:4814, V-A:LYS:534:CG:4815, V-B:LEU:363:CA:8152, V-B:LEU:363:CB:8154"]

$$$$
RR1_Rahimova_2017
     RDKit          3D

 41 44  0  0  0  0  0  0  0  0999 V2000
  123.5920  124.8710   57.6240 C   0  0  0  0  0  0  0  0  0  0  0  0
  124.8970  124.7750   57.0660 O   0  0  0  0  0  0  0  0  0  0  0  0
  125.8820  124.1050   57.7650 C   0  0  0  0  0  0  0  0  0  0  0  0
  126.9050  123.3530   57.1670 C   0  0  0  0  0  0  0  0  0  0  0  0
  127.8510  122.7040   57.9550 C   0  0  0  0  0  0  0  0  0  0  0  0
  127.7980  122.8000   59.3470 C   0  0  0  0  0  0  0  0  0  0  0  0
  128.7710  122.0720   60.0570 N   0  0  0  0  0  0  0  0  0  0  0  0
  129.3750  122.3670   61.2280 C   0  0  0  0  0  0  0  0  0  0  0  0
  129.2080  123.4100   61.8590 O   0  0  0  0  0  0  0  0  0  0  0  0
  130.3290  121.2800   61.7470 C   0  0  0  0  0  0  0  0  0  0  0  0
  131.7460  120.8960   60.6600 S   0  0  0  0  0  0  0  0  0  0  0  0
  131.7880  122.4170   59.7730 C   0  0  0  0  0  0  0  0  0  0  0  0
  130.9790  122.7190   58.7890 N   0  0  0  0  0  0  0  0  0  0  0  0
  131.3530  123.9430   58.4330 C   0  0  0  0  0  0  0  0  0  0  0  0
  130.6740  124.7020   57.3280 C   0  0  0  0  0  0  0  0  0  0  0  0
  129.8250  125.7870   57.5970 C   0  0  0  0  0  0  0  0  0  0  0  0
  129.2060  126.4710   56.5490 C   0  0  0  0  0  0  0  0  0  0  0  0
  129.4520  126.0510   55.2440 C   0  0  0  0  0  0  0  0  0  0  0  0
  130.2660  125.0060   54.9480 N   0  0  0  0  0  0  0  0  0  0  0  0
  130.8600  124.3550   55.9800 C   0  0  0  0  0  0  0  0  0  0  0  0
  132.3610  124.4490   59.1200 N   0  0  0  0  0  0  0  0  0  0  0  0
  132.6440  123.4680   59.9820 N   0  0  0  0  0  0  0  0  0  0  0  0
  133.7110  123.6310   60.9690 C   0  0  0  0  0  0  0  0  0  0  0  0
  133.2570  124.1840   62.3320 C   0  0  0  0  0  0  0  0  0  0  0  0
  134.0840  124.4840   63.2000 O   0  0  0  0  0  0  0  0  0  0  0  0
  131.9230  124.3010   62.4820 N   0  0  0  0  0  0  0  0  0  0  0  0
  131.4460  124.9280   63.6240 N   0  0  0  0  0  0  0  0  0  0  0  0
  130.7460  124.1830   64.5070 C   0  0  0  0  0  0  0  0  0  0  0  0
  130.5920  122.9600   64.4120 O   0  0  0  0  0  0  0  0  0  0  0  0
  130.1560  124.9380   65.6800 C   0  0  0  0  0  0  0  0  0  0  0  0
  130.2650  124.4150   66.9740 C   0  0  0  0  0  0  0  0  0  0  0  0
  129.7200  125.0860   68.0640 C   0  0  0  0  0  0  0  0  0  0  0  0
  129.0410  126.3030   67.8920 C   0  0  0  0  0  0  0  0  0  0  0  0
  128.4650  127.0130   68.9310 O   0  0  0  0  0  0  0  0  0  0  0  0
  127.0480  127.0640   69.0440 C   0  0  0  0  0  0  0  0  0  0  0  0
  128.9150  126.8400   66.6040 C   0  0  0  0  0  0  0  0  0  0  0  0
  128.2190  128.0310   66.4860 O   0  0  0  0  0  0  0  0  0  0  0  0
  127.2280  128.1700   65.4740 C   0  0  0  0  0  0  0  0  0  0  0  0
  129.4760  126.1550   65.5110 C   0  0  0  0  0  0  0  0  0  0  0  0
  126.7770  123.5520   59.9480 C   0  0  0  0  0  0  0  0  0  0  0  0
  125.8330  124.2000   59.1560 C   0  0  0  0  0  0  0  0  0  0  0  0
  1  2  1  0
  2  3  1  0
  3  4  2  0
  4  5  1  0
  5  6  2  0
  6  7  1  0
  7  8  1  0
  8  9  2  0
  8 10  1  0
 10 11  1  0
 11 12  1  0
 12 13  2  0
 13 14  1  0
 14 15  1  0
 15 16  2  0
 16 17  1  0
 17 18  2  0
 18 19  1  0
 19 20  2  0
 14 21  2  0
 21 22  1  0
 22 23  1  0
 23 24  1  0
 24 25  2  0
 24 26  1  0
 26 27  1  0
 27 28  1  0
 28 29  2  0
 28 30  1  0
 30 31  2  0
 31 32  1  0
 32 33  2  0
 33 34  1  0
 34 35  1  0
 33 36  1  0
 36 37  1  0
 37 38  1  0
 36 39  2  0
  6 40  1  0
 40 41  2  0
 41  3  1  0
 22 12  1  0
 39 30  1  0
 20 15  1  0
M  END
>  <Binding energies>  (74) 
[-8.91]

>  <Ligand effiencies>  (74) 
[-0.2025]

>  <Interactions>  (74) 
["V-A:ASP:366:CG:3208, H-A:GLU:543:OE1:4904, V-B:LEU:363:CD1:8156, V-A:ILE:369:CD1:3234, H-B:TYR:531:OH:9763, V-B:TYR:531:CE2:9761, H-A:GLY:454:N:4045, H-A:TYR:484:OH:4343, H-A:LYS:534:NZ:4818, V-B:PRO:540:CA:9851, H-B:TYR:539:OH:9846, V-B:MET:535:CE:9803, V-B:GLU:543:CD:9876, V-B:PRO:540:N:9852, V-A:LEU:475:CD2:4254, V-B:TYR:539:CE2:9844, V-B:PRO:540:CB:9853, V-B:TYR:539:CZ:9845, V-A:TYR:531:CE1:4787, V-B:TYR:539:C:9835, V-B:ASP:366:CB:8179, V-B:TYR:531:CZ:9762, V-B:GLU:543:CB:9874, V-B:HIS:456:CE1:9037, V-B:GLU:543:CG:9875, V-B:ASP:366:CG:8180, V-A:HIS:456:CE1:4064, V-B:GLU:543:C:9870, V-A:TYR:484:CZ:4342, V-A:TYR:484:CE1:4340, V-B:ALA:541:CB:9860, V-B:GLU:543:CA:9872, V-B:LEU:363:CA:8152, V-B:LEU:363:CB:8154, H-B:TYR:539:O:9836"]

$$$$
RR22_Rahimova_2017
     RDKit          3D

 31 36  0  0  0  0  0  0  0  0999 V2000
  125.2550  131.3720   54.0320 O   0  0  0  0  0  0  0  0  0  0  0  0
  126.2900  130.8180   54.3950 C   0  0  0  0  0  0  0  0  0  0  0  0
  127.5910  131.2410   54.1890 N   0  0  0  0  0  0  0  0  0  0  0  0
  128.6910  130.5060   54.7340 C   0  0  1  0  0  0  0  0  0  0  0  0
  129.5300  130.2030   53.6160 O   0  0  0  0  0  0  0  0  0  0  0  0
  130.8440  130.6740   53.6260 C   0  0  0  0  0  0  0  0  0  0  0  0
  131.5090  130.6890   52.4000 C   0  0  0  0  0  0  0  0  0  0  0  0
  132.8380  131.1080   52.3380 C   0  0  0  0  0  0  0  0  0  0  0  0
  133.5010  131.5030   53.5000 C   0  0  0  0  0  0  0  0  0  0  0  0
  132.8360  131.4870   54.7270 C   0  0  0  0  0  0  0  0  0  0  0  0
  131.4970  131.0930   54.8020 C   0  0  0  0  0  0  0  0  0  0  0  0
  130.7010  130.9990   56.0840 C   0  0  1  0  0  0  0  0  0  0  0  0
  130.9400  131.9260   57.2590 C   0  0  0  0  0  0  0  0  0  0  0  0
  129.5280  131.9660   57.8520 C   0  0  0  0  0  0  0  0  0  0  0  0
  129.2550  132.4110   59.2330 C   0  0  0  0  0  0  0  0  0  0  0  0
  128.2670  133.3730   59.4900 C   0  0  0  0  0  0  0  0  0  0  0  0
  128.0120  133.7880   60.7940 C   0  0  0  0  0  0  0  0  0  0  0  0
  128.7420  133.2460   61.8480 C   0  0  0  0  0  0  0  0  0  0  0  0
  129.7250  132.2890   61.6100 C   0  0  0  0  0  0  0  0  0  0  0  0
  129.9810  131.8720   60.3060 C   0  0  0  0  0  0  0  0  0  0  0  0
  128.6560  131.5930   56.9930 N   0  0  0  0  0  0  0  0  0  0  0  0
  129.3310  131.2970   55.7960 N   0  0  0  0  0  0  0  0  0  0  0  0
  128.1250  129.1870   55.2380 C   0  0  0  0  0  0  0  0  0  0  0  0
  128.8980  128.1070   55.5030 C   0  0  0  0  0  0  0  0  0  0  0  0
  128.4850  126.7840   56.0110 C   0  0  0  0  0  0  0  0  0  0  0  0
  127.4870  126.6110   56.9800 C   0  0  0  0  0  0  0  0  0  0  0  0
  127.1500  125.3280   57.4140 C   0  0  0  0  0  0  0  0  0  0  0  0
  127.8310  124.2410   56.8660 C   0  0  0  0  0  0  0  0  0  0  0  0
  128.8060  124.3780   55.9340 N   0  0  0  0  0  0  0  0  0  0  0  0
  129.1190  125.6340   55.5240 C   0  0  0  0  0  0  0  0  0  0  0  0
  126.3590  129.2540   55.3210 S   0  0  0  0  0  0  0  0  0  0  0  0
  1  2  2  0
  2  3  1  0
  4  3  1  6
  4  5  1  0
  5  6  1  0
  6  7  2  0
  7  8  1  0
  8  9  2  0
  9 10  1  0
 10 11  2  0
 11 12  1  0
 12 13  1  1
 13 14  1  0
 14 15  1  0
 15 16  2  0
 16 17  1  0
 17 18  2  0
 18 19  1  0
 19 20  2  0
 14 21  2  0
 21 22  1  0
  4 23  1  0
 23 24  2  0
 24 25  1  0
 25 26  2  0
 26 27  1  0
 27 28  2  0
 28 29  1  0
 29 30  2  0
 23 31  1  0
 31  2  1  0
 22  4  1  0
 30 25  1  0
 11  6  1  0
 22 12  1  0
 20 15  1  0
M  END
>  <Binding energies>  (75) 
[-8.69]

>  <Ligand effiencies>  (75) 
[-0.2715625]

>  <Interactions>  (75) 
["V-A:TYR:539:CE2:4871, V-A:PRO:540:CA:4878, V-A:MET:535:CG:4828, V-A:TYR:539:CE1:4870, V-A:TYR:539:CZ:4872, V-A:PRO:540:CB:4880, H-B:TYR:531:OH:9763, V-A:ALA:541:CB:4887, V-A:ILE:538:CD1:4860, V-A:LEU:363:CD1:3184, V-A:TYR:539:CD2:4869, H-A:TYR:539:OH:4873, V-B:MET:535:CE:9803, V-A:PRO:540:N:4879, V-A:TYR:539:C:4862, V-A:TYR:531:CE2:4788, V-A:TYR:539:CG:4867, V-A:MET:535:CE:4830, V-A:MET:535:CB:4827, V-A:TYR:531:CD2:4786, V-A:ILE:532:CA:4795, V-A:TYR:531:C:4779, H-A:VAL:537:O:4846, V-A:ILE:532:CD1:4800, V-A:ILE:532:C:4793"]

$$$$
RR24_Rahimova_2017
     RDKit          3D

 43 49  0  0  0  0  0  0  0  0999 V2000
  129.7080  133.0030   54.6580 C   0  0  0  0  0  0  0  0  0  0  0  0
  129.6830  131.5430   55.1320 C   0  0  2  0  0  0  0  0  0  0  0  0
  128.2420  130.9920   55.3460 C   0  0  0  0  0  0  0  0  0  0  0  0
  127.4830  131.4570   56.2020 O   0  0  0  0  0  0  0  0  0  0  0  0
  127.9520  129.9500   54.5130 O   0  0  0  0  0  0  0  0  0  0  0  0
  128.0540  128.6590   54.9790 C   0  0  0  0  0  0  0  0  0  0  0  0
  127.5800  128.3530   56.2570 C   0  0  0  0  0  0  0  0  0  0  0  0
  127.6700  127.0490   56.7350 C   0  0  0  0  0  0  0  0  0  0  0  0
  128.2240  126.0440   55.9360 C   0  0  0  0  0  0  0  0  0  0  0  0
  128.3370  124.6140   56.4760 C   0  0  1  0  0  0  0  0  0  0  0  0
  129.7780  124.2800   56.9310 C   0  0  0  0  0  0  0  0  0  0  0  0
  130.0570  123.7590   58.1390 C   0  0  0  0  0  0  0  0  0  0  0  0
  129.0790  123.4860   59.0630 N   0  0  0  0  0  0  0  0  0  0  0  0
  127.7540  123.7350   58.7950 C   0  0  0  0  0  0  0  0  0  0  0  0
  126.9130  123.4010   59.8080 N   0  0  0  0  0  0  0  0  0  0  0  0
  125.5760  123.6480   59.7550 C   0  0  0  0  0  0  0  0  0  0  0  0
  124.9180  123.6250   60.7970 O   0  0  0  0  0  0  0  0  0  0  0  0
  125.1270  124.0700   58.5140 N   0  0  0  0  0  0  0  0  0  0  0  0
  123.6690  124.2650   58.3760 C   0  0  0  0  0  0  0  0  0  0  0  0
  125.8920  124.4380   57.4200 C   0  0  0  0  0  0  0  0  0  0  0  0
  125.4240  124.8570   56.3570 O   0  0  0  0  0  0  0  0  0  0  0  0
  127.3350  124.2660   57.6170 C   0  0  0  0  0  0  0  0  0  0  0  0
  131.4870  123.5490   58.2940 C   0  0  0  0  0  0  0  0  0  0  0  0
  132.2680  123.0490   59.3370 C   0  0  0  0  0  0  0  0  0  0  0  0
  133.6540  122.9720   59.1740 C   0  0  0  0  0  0  0  0  0  0  0  0
  134.2470  123.3900   57.9790 C   0  0  0  0  0  0  0  0  0  0  0  0
  133.4590  123.8900   56.9380 C   0  0  0  0  0  0  0  0  0  0  0  0
  132.0760  123.9660   57.1070 C   0  0  0  0  0  0  0  0  0  0  0  0
  131.0220  124.4420   56.1860 C   0  0  0  0  0  0  0  0  0  0  0  0
  131.1170  124.8840   55.0430 O   0  0  0  0  0  0  0  0  0  0  0  0
  128.6810  126.3510   54.6500 C   0  0  0  0  0  0  0  0  0  0  0  0
  128.5900  127.6540   54.1700 C   0  0  0  0  0  0  0  0  0  0  0  0
  130.5580  131.3240   56.3210 N   0  0  0  0  0  0  0  0  0  0  0  0
  131.8160  130.8160   56.1970 C   0  0  0  0  0  0  0  0  0  0  0  0
  132.3850  130.4740   55.1580 O   0  0  0  0  0  0  0  0  0  0  0  0
  132.3580  130.7610   57.5770 C   0  0  0  0  0  0  0  0  0  0  0  0
  133.5950  130.3270   58.0560 C   0  0  0  0  0  0  0  0  0  0  0  0
  133.8390  130.3920   59.4330 C   0  0  0  0  0  0  0  0  0  0  0  0
  132.8580  130.8840   60.3020 C   0  0  0  0  0  0  0  0  0  0  0  0
  131.6240  131.3140   59.8020 C   0  0  0  0  0  0  0  0  0  0  0  0
  131.3980  131.2410   58.4270 C   0  0  0  0  0  0  0  0  0  0  0  0
  130.2160  131.6170   57.6130 C   0  0  0  0  0  0  0  0  0  0  0  0
  129.1550  132.0950   58.0160 O   0  0  0  0  0  0  0  0  0  0  0  0
  2  1  1  1
  2  3  1  0
  3  4  2  0
  3  5  1  0
  5  6  1  0
  6  7  2  0
  7  8  1  0
  8  9  2  0
 10  9  1  1
 10 11  1  0
 11 12  2  0
 12 13  1  0
 13 14  1  0
 14 15  1  0
 15 16  1  0
 16 17  2  0
 16 18  1  0
 18 19  1  0
 18 20  1  0
 20 21  2  0
 20 22  1  0
 12 23  1  0
 23 24  2  0
 24 25  1  0
 25 26  2  0
 26 27  1  0
 27 28  2  0
 28 29  1  0
 29 30  2  0
  9 31  1  0
 31 32  2  0
  2 33  1  0
 33 34  1  0
 34 35  2  0
 34 36  1  0
 36 37  2  0
 37 38  1  0
 38 39  2  0
 39 40  1  0
 40 41  2  0
 41 42  1  0
 42 43  2  0
 32  6  1  0
 42 33  1  0
 22 10  1  0
 28 23  1  0
 41 36  1  0
 29 11  1  0
 22 14  2  0
M  END
>  <Binding energies>  (76) 
[-11.55]

>  <Ligand effiencies>  (76) 
[-0.2566666666666667]

>  <Interactions>  (76) 
["V-A:PRO:540:CA:4878, V-A:MET:535:CG:4828, V-A:ASP:366:CG:3208, H-A:TYR:531:OH:4790, V-A:TYR:539:CE1:4870, V-B:LEU:363:CD1:8156, V-A:ILE:369:CD1:3234, V-A:ILE:538:CA:4855, V-A:PRO:540:CB:4880, H-B:TYR:531:OH:9763, V-A:LEU:363:CD1:3184, H-A:TYR:539:OH:4873, H-A:LYS:534:NZ:4818, V-A:ILE:369:CB:3231, V-B:PRO:540:CA:9851, H-B:GLU:543:OE2:9878, H-B:TYR:539:OH:9846, V-B:MET:535:CE:9803, V-A:TYR:531:CZ:4789, V-A:ASP:366:CB:3207, V-B:TYR:539:CE2:9844, V-A:ILE:369:CG2:3232, V-B:PRO:540:CB:9853, V-B:TYR:539:CZ:9845, V-A:TYR:531:CE1:4787, V-A:TYR:531:CE2:4788, V-B:ASP:366:CB:8179, V-B:ASP:366:CG:8180, V-A:LEU:363:CA:3180, V-A:TYR:539:CD1:4868, V-A:ILE:369:CG1:3233, V-A:ASN:362:C:3167, V-A:ASP:366:CA:3205, V-A:ASP:366:C:3203, V-A:ASN:370:CB:3240, V-A:VAL:537:C:4845, V-B:LEU:363:CA:8152, V-B:LEU:363:CB:8154"]

$$$$
RR25_Rahimova_2017
     RDKit          3D

 39 44  0  0  0  0  0  0  0  0999 V2000
  129.7420  126.2860   53.6800 O   0  0  0  0  0  0  0  0  0  0  0  0
  129.2030  125.9910   54.7470 C   0  0  0  0  0  0  0  0  0  0  0  0
  129.1850  124.6560   55.0700 O   0  0  0  0  0  0  0  0  0  0  0  0
  128.8380  124.2240   56.3370 C   0  0  0  0  0  0  0  0  0  0  0  0
  129.3570  122.9960   56.7440 C   0  0  0  0  0  0  0  0  0  0  0  0
  129.0410  122.4960   58.0060 C   0  0  0  0  0  0  0  0  0  0  0  0
  128.2040  123.2120   58.8740 C   0  0  0  0  0  0  0  0  0  0  0  0
  127.8760  122.6820   60.2210 N   0  0  0  0  0  0  0  0  0  0  0  0
  128.7350  122.0460   60.8270 O   0  0  0  0  0  0  0  0  0  0  0  0
  126.7590  122.8960   60.6810 O   0  0  0  0  0  0  0  0  0  0  0  0
  127.6820  124.4410   58.4400 C   0  0  0  0  0  0  0  0  0  0  0  0
  127.9820  124.9530   57.1740 C   0  0  0  0  0  0  0  0  0  0  0  0
  127.4530  126.2810   56.6630 C   0  0  0  0  0  0  0  0  0  0  0  0
  128.5220  126.9580   55.7590 C   0  0  2  0  0  0  0  0  0  0  0  0
  127.9770  128.2760   55.1370 C   0  0  0  0  0  0  0  0  0  0  0  0
  126.7530  128.4320   55.1840 O   0  0  0  0  0  0  0  0  0  0  0  0
  128.8060  129.2620   54.6790 N   0  0  0  0  0  0  0  0  0  0  0  0
  130.2170  129.0160   54.3140 C   0  0  0  0  0  0  0  0  0  0  0  0
  131.0620  130.2400   54.7240 C   0  0  0  0  0  0  0  0  0  0  0  0
  130.5310  131.4760   54.1420 N   0  0  0  0  0  0  0  0  0  0  0  0
  131.4070  132.6220   54.4210 C   0  0  0  0  0  0  0  0  0  0  0  0
  132.2820  132.4180   55.6870 C   0  0  0  0  0  0  0  0  0  0  0  0
  131.5510  132.0730   56.9410 N   0  0  0  0  0  0  0  0  0  0  0  0
  132.0830  131.0280   57.6650 C   0  0  0  0  0  0  0  0  0  0  0  0
  133.0750  130.3860   57.2970 O   0  0  0  0  0  0  0  0  0  0  0  0
  131.3670  130.7330   58.9680 C   0  0  0  0  0  0  0  0  0  0  0  0
  131.8410  129.7070   59.7960 C   0  0  0  0  0  0  0  0  0  0  0  0
  131.2120  129.4140   61.0050 C   0  0  0  0  0  0  0  0  0  0  0  0
  130.0970  130.1360   61.4260 C   0  0  0  0  0  0  0  0  0  0  0  0
  129.5820  131.1820   60.6230 C   0  0  0  0  0  0  0  0  0  0  0  0
  128.4560  131.9550   60.9900 C   0  0  0  0  0  0  0  0  0  0  0  0
  128.0030  132.9740   60.1530 C   0  0  0  0  0  0  0  0  0  0  0  0
  128.6450  133.2470   58.9470 C   0  0  0  0  0  0  0  0  0  0  0  0
  129.7640  132.5080   58.5420 C   0  0  0  0  0  0  0  0  0  0  0  0
  130.2320  131.4700   59.3900 C   0  0  0  0  0  0  0  0  0  0  0  0
  130.4410  132.8420   57.2270 C   0  0  0  0  0  0  0  0  0  0  0  0
  130.0300  133.7440   56.4890 O   0  0  0  0  0  0  0  0  0  0  0  0
  129.1680  131.7080   54.6250 C   0  0  0  0  0  0  0  0  0  0  0  0
  128.2200  130.5480   54.2370 C   0  0  0  0  0  0  0  0  0  0  0  0
  1  2  2  0
  2  3  1  0
  3  4  1  0
  4  5  2  0
  5  6  1  0
  6  7  2  0
  7  8  1  0
  8  9  2  0
  8 10  1  0
  7 11  1  0
 11 12  2  0
 12 13  1  0
 13 14  1  0
 14 15  1  6
 15 16  2  0
 15 17  1  0
 17 18  1  0
 18 19  1  0
 19 20  1  0
 20 21  1  0
 21 22  1  0
 22 23  1  0
 23 24  1  0
 24 25  2  0
 24 26  1  0
 26 27  2  0
 27 28  1  0
 28 29  2  0
 29 30  1  0
 30 31  2  0
 31 32  1  0
 32 33  2  0
 33 34  1  0
 34 35  2  0
 34 36  1  0
 36 37  2  0
 20 38  1  0
 38 39  1  0
 14  2  1  0
 39 17  1  0
 12  4  1  0
 36 23  1  0
 35 26  1  0
 35 30  1  0
M  CHG  2   8   1  10  -1
M  END
>  <Binding energies>  (77) 
[-11.19]

>  <Ligand effiencies>  (77) 
[-0.2869230769230769]

>  <Interactions>  (77) 
["V-A:TYR:539:CE2:4871, V-A:PRO:540:CA:4878, V-A:ILE:538:CG2:4858, V-A:MET:535:CG:4828, H-A:TYR:531:OH:4790, V-A:TYR:539:CE1:4870, V-A:TYR:539:CZ:4872, V-A:ILE:538:CA:4855, V-A:PRO:540:CB:4880, H-B:TYR:531:OH:9763, V-A:ILE:538:CD1:4860, V-A:LEU:363:CD1:3184, V-A:TYR:539:CD2:4869, V-A:ILE:538:CB:4857, V-A:GLU:543:CD:4903, H-A:LYS:534:NZ:4818, V-B:PRO:540:CA:9851, V-B:MET:535:CE:9803, V-A:PRO:540:N:4879, V-A:TYR:531:CZ:4789, H-B:ALA:541:N:9859, V-A:TYR:539:C:4862, V-B:TYR:539:CE2:9844, V-B:TYR:539:CD2:9842, V-A:PRO:540:CD:4882, V-B:TYR:539:CZ:9845, V-A:TYR:531:CE1:4787, V-B:TYR:539:C:9835, V-A:TYR:539:CG:4867, V-A:MET:535:CB:4827, H-A:TYR:539:N:4865, V-B:TYR:539:CE1:9843, V-B:PRO:540:C:9849, V-B:TYR:539:CG:9840, V-B:TYR:539:CD1:9841"]

$$$$
RR27_Rahimova_2017
     RDKit          3D

 39 44  0  0  0  0  0  0  0  0999 V2000
  130.0750  128.6640   56.8160 O   0  0  0  0  0  0  0  0  0  0  0  0
  129.8180  129.2070   57.8950 C   0  0  0  0  0  0  0  0  0  0  0  0
  130.3290  130.6580   58.1320 C   0  0  0  0  0  0  0  0  0  0  0  0
  130.4240  131.4850   56.8360 C   0  0  0  0  0  0  0  0  0  0  0  0
  131.5710  132.2250   56.5120 C   0  0  0  0  0  0  0  0  0  0  0  0
  131.6230  132.9600   55.3310 C   0  0  0  0  0  0  0  0  0  0  0  0
  130.5300  132.9590   54.4690 C   0  0  0  0  0  0  0  0  0  0  0  0
  129.3840  132.2320   54.7790 C   0  0  0  0  0  0  0  0  0  0  0  0
  129.3320  131.4970   55.9590 C   0  0  0  0  0  0  0  0  0  0  0  0
  131.5950  130.6810   59.0100 C   0  0  0  0  0  0  0  0  0  0  0  0
  131.6070  131.2980   60.2680 C   0  0  0  0  0  0  0  0  0  0  0  0
  132.7720  131.3110   61.0320 C   0  0  0  0  0  0  0  0  0  0  0  0
  133.9280  130.7140   60.5390 C   0  0  0  0  0  0  0  0  0  0  0  0
  133.9330  130.1070   59.2860 C   0  0  0  0  0  0  0  0  0  0  0  0
  132.7700  130.0950   58.5230 C   0  0  0  0  0  0  0  0  0  0  0  0
  128.9820  128.6290   58.8040 N   0  0  0  0  0  0  0  0  0  0  0  0
  128.8430  129.1000   60.1900 C   0  0  0  0  0  0  0  0  0  0  0  0
  129.9310  128.3820   61.0180 C   0  0  0  0  0  0  0  0  0  0  0  0
  129.8630  126.8270   60.8860 C   0  0  0  0  0  0  0  0  0  0  0  0
  130.9950  126.0680   61.6020 C   0  0  0  0  0  0  0  0  0  0  0  0
  131.3950  126.5690   62.8070 N   0  0  0  0  0  0  0  0  0  0  0  0
  132.3750  125.9190   63.4940 C   0  0  0  0  0  0  0  0  0  0  0  0
  132.8570  126.3210   64.7120 O   0  0  0  0  0  0  0  0  0  0  0  0
  132.9380  124.7570   62.9320 C   0  0  0  0  0  0  0  0  0  0  0  0
  133.9050  123.8870   63.3420 N   0  0  0  0  0  0  0  0  0  0  0  0
  134.0380  122.9270   62.3560 N   0  0  0  0  0  0  0  0  0  0  0  0
  133.1650  123.1980   61.3630 N   0  0  0  0  0  0  0  0  0  0  0  0
  133.1100  122.3520   60.1730 C   0  0  0  0  0  0  0  0  0  0  0  0
  132.7760  123.1120   58.8960 C   0  0  0  0  0  0  0  0  0  0  0  0
  133.7990  123.6650   58.1190 C   0  0  0  0  0  0  0  0  0  0  0  0
  133.4940  124.3520   56.9430 C   0  0  0  0  0  0  0  0  0  0  0  0
  132.1670  124.4850   56.5360 C   0  0  0  0  0  0  0  0  0  0  0  0
  131.1420  123.9280   57.3020 C   0  0  0  0  0  0  0  0  0  0  0  0
  129.5000  124.0690   56.7860 Cl  0  0  0  0  0  0  0  0  0  0  0  0
  131.4460  123.2480   58.4820 C   0  0  0  0  0  0  0  0  0  0  0  0
  132.4510  124.3430   61.6730 C   0  0  0  0  0  0  0  0  0  0  0  0
  131.4970  124.9650   60.9750 N   0  0  0  0  0  0  0  0  0  0  0  0
  129.6550  126.3780   59.4070 C   0  0  0  0  0  0  0  0  0  0  0  0
  128.5910  127.2190   58.6580 C   0  0  0  0  0  0  0  0  0  0  0  0
  1  2  2  0
  2  3  1  0
  3  4  1  0
  4  5  2  0
  5  6  1  0
  6  7  2  0
  7  8  1  0
  8  9  2  0
  3 10  1  0
 10 11  2  0
 11 12  1  0
 12 13  2  0
 13 14  1  0
 14 15  2  0
  2 16  1  0
 16 17  1  0
 17 18  1  0
 18 19  1  0
 19 20  1  0
 20 21  2  0
 21 22  1  0
 22 23  1  0
 22 24  2  0
 24 25  1  0
 25 26  2  0
 26 27  1  0
 27 28  1  0
 28 29  1  0
 29 30  2  0
 30 31  1  0
 31 32  2  0
 32 33  1  0
 33 34  1  0
 33 35  2  0
 27 36  1  0
 36 37  2  0
 19 38  1  0
 38 39  1  0
  9  4  1  0
 15 10  1  0
 39 16  1  0
 37 20  1  0
 36 24  1  0
 35 29  1  0
M  END
>  <Binding energies>  (78) 
[-10.24]

>  <Ligand effiencies>  (78) 
[-0.256]

>  <Interactions>  (78) 
["V-A:PRO:540:CA:4878, V-A:ILE:538:CG2:4858, V-A:ASP:366:CG:3208, V-A:ILE:538:C:4853, H-A:GLU:543:OE1:4904, H-A:GLU:543:OE2:4905, H-A:TYR:531:OH:4790, V-A:TYR:539:CE1:4870, V-A:ILE:369:CD1:3234, V-A:ILE:538:CA:4855, V-A:PRO:540:CB:4880, V-A:ARG:545:CZ:4921, V-A:ILE:538:CD1:4860, V-A:LEU:363:CD1:3184, H-A:GLY:454:N:4045, V-A:ILE:538:CB:4857, H-A:TYR:484:OH:4343, V-A:ILE:369:CB:3231, V-A:PRO:540:N:4879, V-A:TYR:531:CZ:4789, V-A:ASP:366:CB:3207, V-B:TYR:539:CE2:9844, V-A:PRO:540:CD:4882, V-B:TYR:539:CZ:9845, V-A:TYR:531:CE1:4787, V-A:TYR:531:CE2:4788, V-A:LEU:363:CA:3180, V-A:TYR:539:CD1:4868, H-A:ARG:545:NH2:4923, V-A:ASN:362:C:3167, V-A:ASN:362:CB:3171, V-A:ASP:366:CA:3205, V-A:ASP:366:C:3203, H-A:ARG:545:NE:4919, V-A:ASN:362:CA:3169"]

$$$$
RR28_Rahimova_2017
     RDKit          3D

 46 49  0  0  0  0  0  0  0  0999 V2000
  130.0260  119.0080   60.7320 C   0  0  0  0  0  0  0  0  0  0  0  0
  130.3890  120.4750   60.5290 C   0  0  0  0  0  0  0  0  0  0  0  0
  131.5670  120.8230   60.5940 O   0  0  0  0  0  0  0  0  0  0  0  0
  129.3640  121.3160   60.2850 N   0  0  0  0  0  0  0  0  0  0  0  0
  129.4130  122.7780   60.0580 C   0  0  0  0  0  0  0  0  0  0  0  0
  130.3050  123.4120   61.1640 C   0  0  0  0  0  0  0  0  0  0  0  0
  130.0060  123.1680   62.5130 C   0  0  0  0  0  0  0  0  0  0  0  0
  130.7790  123.7220   63.5290 C   0  0  0  0  0  0  0  0  0  0  0  0
  131.8700  124.5350   63.2180 C   0  0  0  0  0  0  0  0  0  0  0  0
  132.7050  125.1380   64.3470 C   0  0  0  0  0  0  0  0  0  0  0  0
  132.2210  124.8340   65.5540 F   0  0  0  0  0  0  0  0  0  0  0  0
  133.9600  124.6940   64.2830 F   0  0  0  0  0  0  0  0  0  0  0  0
  132.7130  126.4660   64.2250 F   0  0  0  0  0  0  0  0  0  0  0  0
  132.1780  124.7870   61.8790 C   0  0  0  0  0  0  0  0  0  0  0  0
  131.4030  124.2330   60.8630 C   0  0  0  0  0  0  0  0  0  0  0  0
  127.9620  123.3750   59.9970 C   0  0  0  0  0  0  0  0  0  0  0  0
  127.1440  122.8770   58.7790 C   0  0  0  0  0  0  0  0  0  0  0  0
  127.9050  123.2630   57.5800 N   0  0  0  0  0  0  0  0  0  0  0  0
  127.6360  124.4360   56.9430 C   0  0  0  0  0  0  0  0  0  0  0  0
  126.6560  125.1270   57.2310 O   0  0  0  0  0  0  0  0  0  0  0  0
  128.4900  124.8320   55.7140 C   0  0  0  0  0  0  0  0  0  0  0  0
  129.2770  126.1660   55.8360 C   0  0  0  0  0  0  0  0  0  0  0  0
  128.5160  127.4230   55.3560 C   0  0  0  0  0  0  0  0  0  0  0  0
  128.2770  127.5300   54.1490 O   0  0  0  0  0  0  0  0  0  0  0  0
  128.0130  128.3000   56.2710 N   0  0  0  0  0  0  0  0  0  0  0  0
  128.5140  128.4060   57.6460 C   0  0  0  0  0  0  0  0  0  0  0  0
  129.7250  129.3630   57.6030 C   0  0  0  0  0  0  0  0  0  0  0  0
  129.4190  130.7800   57.0020 C   0  0  0  0  0  0  0  0  0  0  0  0
  130.6930  131.4400   56.6460 N   0  0  0  0  0  0  0  0  0  0  0  0
  130.8710  132.6190   56.0160 C   0  0  0  0  0  0  0  0  0  0  0  0
  132.3160  133.0390   55.7650 C   0  0  0  0  0  0  0  0  0  0  0  0
  129.9520  133.3470   55.6440 O   0  0  0  0  0  0  0  0  0  0  0  0
  128.7460  131.6310   58.1280 C   0  0  0  0  0  0  0  0  0  0  0  0
  127.3910  131.5010   58.4730 C   0  0  0  0  0  0  0  0  0  0  0  0
  126.8300  132.2780   59.4830 C   0  0  0  0  0  0  0  0  0  0  0  0
  127.6100  133.2080   60.1730 C   0  0  0  0  0  0  0  0  0  0  0  0
  127.0110  134.0660   61.2860 C   0  0  0  0  0  0  0  0  0  0  0  0
  125.7480  134.3900   61.0020 F   0  0  0  0  0  0  0  0  0  0  0  0
  127.0270  133.3760   62.4260 F   0  0  0  0  0  0  0  0  0  0  0  0
  127.6930  135.1970   61.4730 F   0  0  0  0  0  0  0  0  0  0  0  0
  128.9570  133.3560   59.8350 C   0  0  0  0  0  0  0  0  0  0  0  0
  129.5140  132.5770   58.8260 C   0  0  0  0  0  0  0  0  0  0  0  0
  128.5100  130.6110   55.7240 C   0  0  0  0  0  0  0  0  0  0  0  0
  127.3820  129.5490   55.8250 C   0  0  0  0  0  0  0  0  0  0  0  0
  129.2010  122.5790   57.4670 C   0  0  0  0  0  0  0  0  0  0  0  0
  130.0690  123.0490   58.6640 C   0  0  0  0  0  0  0  0  0  0  0  0
  1  2  1  0
  2  3  2  0
  2  4  1  0
  4  5  1  0
  5  6  1  0
  6  7  2  0
  7  8  1  0
  8  9  2  0
  9 10  1  0
 10 11  1  0
 10 12  1  0
 10 13  1  0
  9 14  1  0
 14 15  2  0
  5 16  1  0
 16 17  1  0
 17 18  1  0
 18 19  1  0
 19 20  2  0
 19 21  1  0
 21 22  1  0
 22 23  1  0
 23 24  2  0
 23 25  1  0
 25 26  1  0
 26 27  1  0
 27 28  1  0
 28 29  1  0
 29 30  1  0
 30 31  1  0
 30 32  2  0
 28 33  1  0
 33 34  2  0
 34 35  1  0
 35 36  2  0
 36 37  1  0
 37 38  1  0
 37 39  1  0
 37 40  1  0
 36 41  1  0
 41 42  2  0
 28 43  1  0
 43 44  1  0
 18 45  1  0
 45 46  1  0
 46  5  1  0
 15  6  1  0
 44 25  1  0
 42 33  1  0
M  END
>  <Binding energies>  (79) 
[-9.55]

>  <Ligand effiencies>  (79) 
[-0.19895833333333335]

>  <Interactions>  (79) 
["V-A:TYR:539:CE2:4871, V-A:PRO:540:CA:4878, V-A:ILE:538:CG2:4858, V-A:ASP:366:CG:3208, H-A:TYR:531:OH:4790, V-A:TYR:539:CZ:4872, V-B:LEU:475:CD2:9226, V-A:ILE:538:CA:4855, V-A:GLY:454:CA:4044, V-A:PRO:540:CB:4880, V-A:ARG:545:CZ:4921, H-B:TYR:531:OH:9763, V-A:ALA:541:CB:4887, V-A:LEU:363:CD1:3184, V-A:TYR:539:CD2:4869, V-A:GLU:543:CD:4903, V-B:PRO:540:CA:9851, V-A:PRO:540:CG:4881, V-B:MET:535:CE:9803, V-A:PRO:540:N:4879, V-A:TYR:539:C:4862, V-B:PRO:540:N:9852, V-B:TYR:539:CE2:9844, V-B:TYR:539:CD2:9842, V-A:PRO:540:CD:4882, V-B:PRO:540:CB:9853, V-B:TYR:539:CZ:9845, V-A:TRP:381:CZ2:3365, V-B:TYR:539:C:9835, V-A:TRP:381:CH2:3367, H-A:TYR:539:N:4865, V-B:TYR:539:CE1:9843, V-A:TYR:484:CZ:4342, V-B:ALA:541:CB:9860, V-A:PRO:540:C:4876, V-A:GLY:453:C:4037, V-A:GLY:453:CA:4039, V-B:TYR:539:CG:9840, V-A:PRO:482:CB:4321, H-B:TYR:539:O:9836"]

$$$$
RR29_Rahimova_2017
     RDKit          3D

 18 19  0  0  0  0  0  0  0  0999 V2000
  129.0460  120.8190   61.0020 C   0  0  0  0  0  0  0  0  0  0  0  0
  128.6070  122.2050   61.4500 C   0  0  0  0  0  0  0  0  0  0  0  0
  129.4890  122.7810   62.5810 C   0  0  0  0  0  0  0  0  0  0  0  0
  130.1380  124.1200   62.1730 C   0  0  0  0  0  0  0  0  0  0  0  0
  131.4400  124.3800   62.9160 C   0  0  0  0  0  0  0  0  0  0  0  0
  132.6670  124.3270   62.2250 C   0  0  0  0  0  0  0  0  0  0  0  0
  133.8780  124.5650   62.8900 C   0  0  0  0  0  0  0  0  0  0  0  0
  133.8200  124.8410   64.2520 C   0  0  0  0  0  0  0  0  0  0  0  0
  132.6330  124.8910   64.9270 C   0  0  0  0  0  0  0  0  0  0  0  0
  131.4160  124.6700   64.2910 C   0  0  0  0  0  0  0  0  0  0  0  0
  132.8680  125.2120   66.2270 O   0  0  0  0  0  0  0  0  0  0  0  0
  134.2610  125.1490   66.3860 C   0  0  0  0  0  0  0  0  0  0  0  0
  134.8360  125.1290   65.1070 O   0  0  0  0  0  0  0  0  0  0  0  0
  127.5900  122.7400   60.8830 N   0  0  0  0  0  0  0  0  0  0  0  0
  127.1380  123.9570   61.3450 N   0  0  0  0  0  0  0  0  0  0  0  0
  126.1160  124.6360   60.8000 C   0  0  0  0  0  0  0  0  0  0  0  0
  125.3940  124.2200   59.7590 N   0  0  0  0  0  0  0  0  0  0  0  0
  125.7990  125.8060   61.3340 N   0  0  0  0  0  0  0  0  0  0  0  0
  1  2  1  0
  2  3  1  0
  3  4  1  0
  4  5  1  0
  5  6  2  0
  6  7  1  0
  7  8  2  0
  8  9  1  0
  9 10  2  0
  9 11  1  0
 11 12  1  0
 12 13  1  0
  2 14  2  0
 14 15  1  0
 15 16  1  0
 16 17  1  0
 16 18  2  0
 10  5  1  0
 13  8  1  0
M  CHG  1  18   1
M  END
>  <Binding energies>  (80) 
[-7.2]

>  <Ligand effiencies>  (80) 
[-0.3130434782608696]

>  <Interactions>  (80) 
["V-A:ASP:366:CG:3208, V-A:ARG:545:CZ:4921, H-A:GLY:454:N:4045, H-A:TYR:484:OH:4343, V-B:PRO:540:CA:9851, H-B:GLU:543:OE2:9878, H-B:ALA:541:N:9859, V-B:GLU:543:CD:9876, V-B:PRO:540:CB:9853, V-B:TYR:539:C:9835, V-B:ASP:366:CG:8180, H-A:HIS:456:NE2:4065, V-B:PRO:540:C:9849, V-B:ALA:541:CB:9860, H-B:GLU:543:OE1:9877, H-B:ASP:366:OD1:8181, V-B:ALA:541:CA:9858, H-B:ASP:366:OD2:8182, V-A:ARG:545:CD:4918, V-A:ARG:545:CG:4917, H-A:ARG:545:NE:4919, H-A:ARG:545:NH1:4922, V-A:HIS:456:CD2:4063"]

$$$$
RR30_Rahimova_2017
     RDKit          3D

 18 19  0  0  0  0  0  0  0  0999 V2000
  128.4790  133.0020   58.8880 C   0  0  0  0  0  0  0  0  0  0  0  0
  128.2430  132.8900   60.4020 C   0  0  0  0  0  0  0  0  0  0  0  0
  129.5140  132.5730   61.1580 C   0  0  0  0  0  0  0  0  0  0  0  0
  129.7260  132.6360   62.4490 N   0  0  0  0  0  0  0  0  0  0  0  0
  131.0520  132.2560   62.6380 N   0  0  0  0  0  0  0  0  0  0  0  0
  131.5300  132.0060   61.4460 C   0  0  0  0  0  0  0  0  0  0  0  0
  133.1580  131.4670   61.0310 S   0  0  0  0  0  0  0  0  0  0  0  0
  132.7550  130.1220   59.8710 C   0  0  0  0  0  0  0  0  0  0  0  0
  132.5940  130.6260   58.4340 C   0  0  0  0  0  0  0  0  0  0  0  0
  133.4730  130.3760   57.6070 O   0  0  0  0  0  0  0  0  0  0  0  0
  131.4850  131.3570   58.1850 N   0  0  0  0  0  0  0  0  0  0  0  0
  131.1240  131.9190   56.9700 C   0  0  0  0  0  0  0  0  0  0  0  0
  130.8830  133.1820   56.6970 N   0  0  0  0  0  0  0  0  0  0  0  0
  130.5460  133.3790   55.3640 N   0  0  0  0  0  0  0  0  0  0  0  0
  130.5400  132.2710   54.6590 C   0  0  0  0  0  0  0  0  0  0  0  0
  130.2010  132.2290   53.1870 C   0  0  0  0  0  0  0  0  0  0  0  0
  130.9600  130.8660   55.6000 S   0  0  0  0  0  0  0  0  0  0  0  0
  130.6110  132.1810   60.4620 O   0  0  0  0  0  0  0  0  0  0  0  0
  1  2  1  0
  2  3  1  0
  3  4  2  0
  4  5  1  0
  5  6  2  0
  6  7  1  0
  7  8  1  0
  8  9  1  0
  9 10  2  0
  9 11  1  0
 11 12  1  0
 12 13  2  0
 13 14  1  0
 14 15  2  0
 15 16  1  0
 15 17  1  0
  6 18  1  0
 18  3  1  0
 17 12  1  0
M  END
>  <Binding energies>  (81) 
[-7.14]

>  <Ligand effiencies>  (81) 
[-0.3757894736842105]

>  <Interactions>  (81) 
["V-A:TYR:539:CE2:4871, V-A:PRO:540:CA:4878, H-A:TYR:531:OH:4790, V-A:TYR:539:CZ:4872, V-A:ILE:538:CA:4855, V-A:PRO:540:CB:4880, H-A:ALA:541:N:4886, V-A:ILE:538:CD1:4860, V-A:TYR:539:CD2:4869, V-A:PRO:540:N:4879, V-A:TYR:539:C:4862, V-A:TYR:539:CG:4867, V-A:MET:535:CB:4827, H-A:TYR:539:N:4865, V-A:PRO:540:C:4876, V-A:VAL:537:C:4845"]

$$$$
RR31_Rahimova_2017
     RDKit          3D

 18 19  0  0  0  0  0  0  0  0999 V2000
  127.3860  133.5920   63.5100 C   0  0  0  0  0  0  0  0  0  0  0  0
  128.0660  133.3390   62.1710 C   0  0  0  0  0  0  0  0  0  0  0  0
  129.1590  132.4720   62.1150 C   0  0  0  0  0  0  0  0  0  0  0  0
  129.8000  132.2170   60.9050 C   0  0  0  0  0  0  0  0  0  0  0  0
  129.3630  132.8140   59.7120 C   0  0  0  0  0  0  0  0  0  0  0  0
  130.0020  132.5760   58.4930 N   0  0  0  0  0  0  0  0  0  0  0  0
  131.1360  131.6390   58.3740 C   0  0  0  0  0  0  0  0  0  0  0  0
  131.9630  131.8110   57.0780 C   0  0  0  0  0  0  0  0  0  0  0  0
  131.1090  131.6990   55.8930 N   0  0  0  0  0  0  0  0  0  0  0  0
  131.8710  131.8220   54.6460 C   0  0  0  0  0  0  0  0  0  0  0  0
  131.8830  130.5230   53.8170 C   0  0  0  0  0  0  0  0  0  0  0  0
  130.7700  129.5510   54.2400 C   0  0  0  0  0  0  0  0  0  0  0  0
  130.8750  129.2550   55.7400 N   0  0  0  0  0  0  0  0  0  0  0  0
  130.1130  132.7680   55.9690 C   0  0  0  0  0  0  0  0  0  0  0  0
  129.2350  132.6110   57.2310 C   0  0  0  0  0  0  0  0  0  0  0  0
  128.2700  133.6900   59.7830 C   0  0  0  0  0  0  0  0  0  0  0  0
  127.6170  133.9560   60.9930 C   0  0  0  0  0  0  0  0  0  0  0  0
  126.4370  134.9190   61.0040 C   0  0  0  0  0  0  0  0  0  0  0  0
  1  2  1  0
  2  3  2  0
  3  4  1  0
  4  5  2  0
  5  6  1  0
  6  7  1  0
  7  8  1  0
  8  9  1  0
  9 10  1  0
 10 11  1  0
 11 12  1  0
 12 13  1  0
  9 14  1  0
 14 15  1  0
  5 16  1  0
 16 17  2  0
 17 18  1  0
 17  2  1  0
 15  6  1  0
M  CHG  1  13   1
M  END
>  <Binding energies>  (82) 
[-5.85]

>  <Ligand effiencies>  (82) 
[-0.2785714285714286]

>  <Interactions>  (82) 
["V-A:TYR:539:CE2:4871, V-A:PRO:540:CA:4878, H-A:TYR:531:OH:4790, V-A:TYR:539:CE1:4870, V-A:TYR:539:CZ:4872, V-B:LEU:475:CD2:9226, V-A:PRO:540:CB:4880, V-A:ALA:541:CB:4887, V-A:ILE:538:CD1:4860, V-A:LEU:363:CD1:3184, V-B:LEU:475:CD1:9225, V-A:TYR:539:CD2:4869, V-A:PRO:540:N:4879, V-A:TYR:531:CZ:4789, V-A:TYR:539:C:4862, V-A:PRO:540:CD:4882, V-A:TYR:531:CE1:4787, V-A:TYR:531:CE2:4788, V-A:TYR:539:CG:4867, V-B:TRP:381:CH2:8339, V-A:TYR:539:CD1:4868"]

$$$$
RR32_Rahimova_2017
     RDKit          3D

 18 20  0  0  0  0  0  0  0  0999 V2000
  127.7690  131.8630   53.8730 C   0  0  0  0  0  0  0  0  0  0  0  0
  129.0580  131.8090   54.6880 C   0  0  0  0  0  0  0  0  0  0  0  0
  128.9900  132.1070   56.0490 C   0  0  0  0  0  0  0  0  0  0  0  0
  130.1450  132.0650   56.8250 C   0  0  0  0  0  0  0  0  0  0  0  0
  130.0740  132.3600   58.1750 N   0  0  0  0  0  0  0  0  0  0  0  0
  128.7740  132.8180   58.6990 C   0  0  0  0  0  0  0  0  0  0  0  0
  128.8420  133.2940   60.1700 C   0  0  0  0  0  0  0  0  0  0  0  0
  129.3380  132.2180   61.0270 N   0  0  0  0  0  0  0  0  0  0  0  0
  129.3720  132.6560   62.4180 C   0  0  0  0  0  0  0  0  0  0  0  0
  130.6820  131.8640   60.5750 C   0  0  0  0  0  0  0  0  0  0  0  0
  130.6430  131.3700   59.1090 C   0  0  0  0  0  0  0  0  0  0  0  0
  131.3610  131.7450   56.3110 N   0  0  0  0  0  0  0  0  0  0  0  0
  131.4600  131.4530   54.9850 C   0  0  0  0  0  0  0  0  0  0  0  0
  132.7400  131.1260   54.4760 C   0  0  0  0  0  0  0  0  0  0  0  0
  132.9010  130.8190   53.1300 C   0  0  0  0  0  0  0  0  0  0  0  0
  131.8090  130.8290   52.2700 C   0  0  0  0  0  0  0  0  0  0  0  0
  130.5380  131.1460   52.7380 C   0  0  0  0  0  0  0  0  0  0  0  0
  130.3250  131.4680   54.1100 C   0  0  0  0  0  0  0  0  0  0  0  0
  1  2  1  0
  2  3  2  0
  3  4  1  0
  4  5  1  0
  5  6  1  0
  6  7  1  0
  7  8  1  0
  8  9  1  0
  8 10  1  0
 10 11  1  0
  4 12  2  0
 12 13  1  0
 13 14  2  0
 14 15  1  0
 15 16  2  0
 16 17  1  0
 17 18  2  0
 18  2  1  0
 11  5  1  0
 18 13  1  0
M  END
>  <Binding energies>  (83) 
[-6.56]

>  <Ligand effiencies>  (83) 
[-0.3644444444444444]

>  <Interactions>  (83) 
["V-A:TYR:539:CE2:4871, V-A:PRO:540:CA:4878, V-A:MET:535:CG:4828, V-A:TYR:539:CE1:4870, V-A:TYR:539:CZ:4872, V-A:PRO:540:CB:4880, V-A:ALA:541:CB:4887, V-A:ILE:538:CD1:4860, V-A:LEU:363:CD1:3184, V-A:TYR:539:CD2:4869, V-A:PRO:540:N:4879, V-A:TYR:531:CZ:4789, V-A:TYR:539:C:4862, V-A:TYR:531:CE2:4788, V-A:TYR:539:CG:4867, V-A:MET:535:CB:4827, V-A:TYR:531:CD2:4786, V-A:ALA:541:CA:4885, V-A:TYR:531:CG:4784, V-A:TYR:531:C:4779, V-A:TYR:539:CD1:4868, V-A:PRO:540:C:4876"]

$$$$
RR5_Rahimova_2017
     RDKit          3D

 45 50  0  0  0  0  0  0  0  0999 V2000
  129.3990  124.8160   54.6400 O   0  0  0  0  0  0  0  0  0  0  0  0
  129.8150  125.9230   54.9800 C   0  0  0  0  0  0  0  0  0  0  0  0
  130.0730  127.0020   53.9120 C   0  0  0  0  0  0  0  0  0  0  0  0
  129.5230  128.4230   54.2930 C   0  0  2  0  0  0  0  0  0  0  0  0
  130.5100  129.3260   54.9190 N   0  0  0  0  0  0  0  0  0  0  0  0
  130.5790  130.6720   54.5840 C   0  0  0  0  0  0  0  0  0  0  0  0
  129.8400  131.2750   53.8020 O   0  0  0  0  0  0  0  0  0  0  0  0
  131.6090  131.2210   55.2510 O   0  0  0  0  0  0  0  0  0  0  0  0
  131.4020  132.0130   56.4170 C   0  0  0  0  0  0  0  0  0  0  0  0
  130.9670  131.1310   57.6090 C   0  0  0  0  0  0  0  0  0  0  0  0
  132.0930  130.8210   58.5790 C   0  0  0  0  0  0  0  0  0  0  0  0
  133.3200  130.1930   58.3450 C   0  0  0  0  0  0  0  0  0  0  0  0
  134.2270  130.0290   59.3940 C   0  0  0  0  0  0  0  0  0  0  0  0
  133.9110  130.4890   60.6730 C   0  0  0  0  0  0  0  0  0  0  0  0
  132.6850  131.1140   60.9090 C   0  0  0  0  0  0  0  0  0  0  0  0
  131.7790  131.2760   59.8600 C   0  0  0  0  0  0  0  0  0  0  0  0
  130.4370  131.8790   59.8240 C   0  0  0  0  0  0  0  0  0  0  0  0
  129.6640  132.4620   60.8300 C   0  0  0  0  0  0  0  0  0  0  0  0
  128.3910  132.9460   60.5290 C   0  0  0  0  0  0  0  0  0  0  0  0
  127.8940  132.8510   59.2270 C   0  0  0  0  0  0  0  0  0  0  0  0
  128.6710  132.2710   58.2240 C   0  0  0  0  0  0  0  0  0  0  0  0
  129.9480  131.7880   58.5200 C   0  0  0  0  0  0  0  0  0  0  0  0
  128.2750  128.3030   55.2030 C   0  0  0  0  0  0  0  0  0  0  0  0
  128.2880  128.4120   56.4130 O   0  0  0  0  0  0  0  0  0  0  0  0
  127.1680  128.0780   54.4360 O   0  0  0  0  0  0  0  0  0  0  0  0
  130.0460  126.3010   56.2570 N   0  0  0  0  0  0  0  0  0  0  0  0
  129.9300  125.6020   57.5730 C   0  0  0  0  0  0  0  0  0  0  0  0
  131.2620  124.7810   57.6250 C   0  0  0  0  0  0  0  0  0  0  0  0
  132.1460  124.7470   56.5330 C   0  0  0  0  0  0  0  0  0  0  0  0
  133.3280  124.0150   56.5920 C   0  0  0  0  0  0  0  0  0  0  0  0
  133.6420  123.2950   57.7400 C   0  0  0  0  0  0  0  0  0  0  0  0
  132.7870  123.3120   58.8360 C   0  0  0  0  0  0  0  0  0  0  0  0
  131.6110  124.0530   58.7800 C   0  0  0  0  0  0  0  0  0  0  0  0
  129.8580  126.7050   58.6820 C   0  0  0  0  0  0  0  0  0  0  0  0
  131.0110  127.1770   59.3290 C   0  0  0  0  0  0  0  0  0  0  0  0
  130.9220  128.1440   60.3270 C   0  0  0  0  0  0  0  0  0  0  0  0
  129.6790  128.6500   60.6930 C   0  0  0  0  0  0  0  0  0  0  0  0
  128.5220  128.2000   60.0640 C   0  0  0  0  0  0  0  0  0  0  0  0
  128.6140  127.2410   59.0610 C   0  0  0  0  0  0  0  0  0  0  0  0
  128.6590  124.6940   57.4720 C   0  0  0  0  0  0  0  0  0  0  0  0
  127.4020  125.2390   57.1520 C   0  0  0  0  0  0  0  0  0  0  0  0
  126.2670  124.4380   57.0690 C   0  0  0  0  0  0  0  0  0  0  0  0
  126.3690  123.0710   57.2990 C   0  0  0  0  0  0  0  0  0  0  0  0
  127.5990  122.5000   57.6030 C   0  0  0  0  0  0  0  0  0  0  0  0
  128.7320  123.3050   57.6850 C   0  0  0  0  0  0  0  0  0  0  0  0
  1  2  2  0
  2  3  1  0
  4  3  1  1
  4  5  1  0
  5  6  1  0
  6  7  2  0
  6  8  1  0
  8  9  1  0
  9 10  1  0
 10 11  1  0
 11 12  2  0
 12 13  1  0
 13 14  2  0
 14 15  1  0
 15 16  2  0
 16 17  1  0
 17 18  2  0
 18 19  1  0
 19 20  2  0
 20 21  1  0
 21 22  2  0
  4 23  1  0
 23 24  2  0
 23 25  1  0
  2 26  1  0
 26 27  1  0
 27 28  1  0
 28 29  2  0
 29 30  1  0
 30 31  2  0
 31 32  1  0
 32 33  2  0
 27 34  1  0
 34 35  2  0
 35 36  1  0
 36 37  2  0
 37 38  1  0
 38 39  2  0
 27 40  1  0
 40 41  2  0
 41 42  1  0
 42 43  2  0
 43 44  1  0
 44 45  2  0
 22 10  1  0
 33 28  1  0
 39 34  1  0
 45 40  1  0
 16 11  1  0
 22 17  1  0
M  END
>  <Binding energies>  (84) 
[-10.91]

>  <Ligand effiencies>  (84) 
[-0.22729166666666667]

>  <Interactions>  (84) 
["V-A:TYR:539:CE2:4871, V-A:PRO:540:CA:4878, V-A:MET:535:CG:4828, V-A:ASP:366:CG:3208, H-A:TYR:531:OH:4790, V-A:TYR:539:CE1:4870, V-A:TYR:539:CZ:4872, V-A:PRO:540:CB:4880, H-B:TYR:531:OH:9763, V-A:LEU:363:CD1:3184, V-A:TYR:539:CD2:4869, H-A:LYS:534:NZ:4818, V-A:ILE:369:CB:3231, V-B:PRO:540:CA:9851, V-B:MET:535:CE:9803, V-A:TYR:531:CZ:4789, V-A:ASP:366:CB:3207, V-B:PRO:540:N:9852, V-B:TYR:539:CE2:9844, V-A:ILE:369:CG2:3232, V-B:TYR:539:CZ:9845, V-A:TYR:531:CE1:4787, V-B:TYR:539:C:9835, V-A:TYR:531:CE2:4788, V-A:LEU:363:CA:3180, V-A:LYS:534:CD:4816, V-A:ASN:362:C:3167, V-A:ASN:362:CB:3171, V-A:ASP:366:C:3203, V-A:ASN:370:CB:3240, V-A:PRO:540:C:4876, V-A:TYR:531:CD1:4785, V-A:LYS:534:CE:4817, H-B:MET:535:SD:9802, V-A:ASN:362:CA:3169"]

$$$$
