1a_Grossjean_2025
     RDKit          3D

 26 27  0  0  0  0  0  0  0  0999 V2000
  129.4760  130.7840   72.7930 C   0  0  0  0  0  0  0  0  0  0  0  0
  128.7150  129.7110   73.5780 C   0  0  0  0  0  0  0  0  0  0  0  0
  129.1320  128.4220   73.1460 O   0  0  0  0  0  0  0  0  0  0  0  0
  128.2950  127.6160   72.4410 C   0  0  0  0  0  0  0  0  0  0  0  0
  127.2560  127.1400   72.9090 O   0  0  0  0  0  0  0  0  0  0  0  0
  128.7700  127.3460   71.0430 C   0  0  0  0  0  0  0  0  0  0  0  0
  129.9390  127.9680   70.5850 C   0  0  0  0  0  0  0  0  0  0  0  0
  130.4010  127.7420   69.2920 C   0  0  0  0  0  0  0  0  0  0  0  0
  129.7070  126.8920   68.4300 C   0  0  0  0  0  0  0  0  0  0  0  0
  130.2640  126.7380   67.1450 N   0  0  0  0  0  0  0  0  0  0  0  0
  130.2500  125.6740   66.3150 C   0  0  0  0  0  0  0  0  0  0  0  0
  129.7150  124.5900   66.5500 O   0  0  0  0  0  0  0  0  0  0  0  0
  130.9710  125.8740   64.9800 C   0  0  0  0  0  0  0  0  0  0  0  0
  132.6020  125.0720   64.9550 S   0  0  0  0  0  0  0  0  0  0  0  0
  132.6480  123.9990   63.5370 C   0  0  0  0  0  0  0  0  0  0  0  0
  133.7570  124.1510   62.7710 N   0  0  0  0  0  0  0  0  0  0  0  0
  133.8910  123.3870   61.6620 C   0  0  0  0  0  0  0  0  0  0  0  0
  135.1500  123.6220   60.8470 C   0  0  0  0  0  0  0  0  0  0  0  0
  132.9420  122.4410   61.2800 C   0  0  0  0  0  0  0  0  0  0  0  0
  131.8050  122.2610   62.0750 C   0  0  0  0  0  0  0  0  0  0  0  0
  130.7850  121.2080   61.6460 C   0  0  0  0  0  0  0  0  0  0  0  0
  131.6440  123.0460   63.2400 C   0  0  0  0  0  0  0  0  0  0  0  0
  130.4860  122.8410   64.1140 C   0  0  0  0  0  0  0  0  0  0  0  0
  129.5700  122.6770   64.8020 N   0  0  0  0  0  0  0  0  0  0  0  0
  128.5400  126.2580   68.8820 C   0  0  0  0  0  0  0  0  0  0  0  0
  128.0770  126.4860   70.1750 C   0  0  0  0  0  0  0  0  0  0  0  0
  1  2  1  0
  2  3  1  0
  3  4  1  0
  4  5  2  0
  4  6  1  0
  6  7  2  0
  7  8  1  0
  8  9  2  0
  9 10  1  0
 10 11  1  0
 11 12  2  0
 11 13  1  0
 13 14  1  0
 14 15  1  0
 15 16  2  0
 16 17  1  0
 17 18  1  0
 17 19  2  0
 19 20  1  0
 20 21  1  0
 20 22  2  0
 22 23  1  0
 23 24  3  0
  9 25  1  0
 25 26  2  0
 26  6  1  0
 22 15  1  0
M  END
>  <Binding energies>  (1) 
[-7.85]

>  <Ligand effiencies>  (1) 
[-0.29074074074074074]

>  <Interactions>  (1) 
["V-A:ILE:369:CG1:3234, V-A:GLU:543:C:4899, V-A:LEU:475:CD1:4254, V-B:TYR:539:CE2:9845, V-B:ALA:541:CB:9861, V-B:GLU:543:C:9871, V-B:TYR:539:CD2:9843, V-A:HIS:456:CE1:4066, V-B:HIS:456:CD2:9036, V-B:HIS:456:CE1:9038, V-A:ASP:366:CG:3209, V-A:ASP:366:CA:3206, V-A:ILE:369:CB:3232, V-B:GLU:543:CB:9875, H-A:TYR:484:OH:4344, V-A:GLY:453:C:4038, V-A:GLY:454:CA:4045, V-A:LYS:547:CE:4947, V-A:GLY:544:CA:4911, V-A:GLY:453:CA:4040, V-A:TYR:484:CE1:4341, H-A:LYS:547:NZ:4948, H-A:GLU:543:OE1:4906, H-A:GLY:454:N:4046"]

$$$$
1aa_Ghoteimi_2023
     RDKit          3D

 40 43  0  0  0  0  0  0  0  0999 V2000
  133.0010  131.0100   58.7720 C   0  0  0  0  0  0  0  0  0  0  0  0
  131.9380  130.9060   57.6740 C   0  0  0  0  0  0  0  0  0  0  0  0
  131.3660  132.1880   57.4460 O   0  0  0  0  0  0  0  0  0  0  0  0
  130.0280  132.3880   57.5580 C   0  0  0  0  0  0  0  0  0  0  0  0
  129.3520  132.9660   56.7010 O   0  0  0  0  0  0  0  0  0  0  0  0
  129.4480  131.8360   58.8290 C   0  0  0  0  0  0  0  0  0  0  0  0
  128.5300  130.7750   58.8260 C   0  0  0  0  0  0  0  0  0  0  0  0
  128.0090  130.2830   60.0210 C   0  0  0  0  0  0  0  0  0  0  0  0
  128.4030  130.8450   61.2440 C   0  0  0  0  0  0  0  0  0  0  0  0
  127.9450  130.4320   62.5090 N   0  0  0  0  0  0  0  0  0  0  0  0
  127.6830  131.1520   63.6240 C   0  0  0  0  0  0  0  0  0  0  0  0
  127.8050  132.3730   63.7180 O   0  0  0  0  0  0  0  0  0  0  0  0
  127.1930  130.3820   64.8610 C   0  0  0  0  0  0  0  0  0  0  0  0
  127.2280  128.9700   64.6190 O   0  0  0  0  0  0  0  0  0  0  0  0
  128.1970  128.1780   65.2190 C   0  0  0  0  0  0  0  0  0  0  0  0
  128.2250  128.1210   66.5800 N   0  0  0  0  0  0  0  0  0  0  0  0
  129.1680  127.3690   67.2050 C   0  0  0  0  0  0  0  0  0  0  0  0
  129.1300  127.3570   68.7060 C   0  0  0  0  0  0  0  0  0  0  0  0
  130.0790  128.0660   69.4580 C   0  0  0  0  0  0  0  0  0  0  0  0
  130.0470  128.0550   70.8500 C   0  0  0  0  0  0  0  0  0  0  0  0
  129.0670  127.3380   71.5330 C   0  0  0  0  0  0  0  0  0  0  0  0
  129.1140  127.3850   72.9130 O   0  0  0  0  0  0  0  0  0  0  0  0
  127.9360  127.7260   73.6360 C   0  0  0  0  0  0  0  0  0  0  0  0
  128.1080  126.6290   70.7950 C   0  0  0  0  0  0  0  0  0  0  0  0
  128.1420  126.6420   69.4040 C   0  0  0  0  0  0  0  0  0  0  0  0
  130.1010  126.6330   66.4640 C   0  0  0  0  0  0  0  0  0  0  0  0
  130.0870  126.6650   65.0630 C   0  0  0  0  0  0  0  0  0  0  0  0
  131.1020  125.8510   64.3300 C   0  0  0  0  0  0  0  0  0  0  0  0
  132.4390  125.8600   64.7400 C   0  0  0  0  0  0  0  0  0  0  0  0
  133.3890  125.0950   64.0680 C   0  0  0  0  0  0  0  0  0  0  0  0
  133.0230  124.3040   62.9800 C   0  0  0  0  0  0  0  0  0  0  0  0
  134.0320  123.5800   62.3750 O   0  0  0  0  0  0  0  0  0  0  0  0
  134.1460  123.5980   60.9570 C   0  0  0  0  0  0  0  0  0  0  0  0
  131.6810  124.2860   62.5710 C   0  0  0  0  0  0  0  0  0  0  0  0
  130.7320  125.0520   63.2430 C   0  0  0  0  0  0  0  0  0  0  0  0
  129.1130  127.4680   64.4250 C   0  0  0  0  0  0  0  0  0  0  0  0
  129.0480  127.5990   62.9680 C   0  0  0  0  0  0  0  0  0  0  0  0
  128.9960  127.7030   61.8170 N   0  0  0  0  0  0  0  0  0  0  0  0
  129.3150  131.9010   61.2500 C   0  0  0  0  0  0  0  0  0  0  0  0
  129.8330  132.3920   60.0550 C   0  0  0  0  0  0  0  0  0  0  0  0
  1  2  1  0
  2  3  1  0
  3  4  1  0
  4  5  2  0
  4  6  1  0
  6  7  2  0
  7  8  1  0
  8  9  2  0
  9 10  1  0
 10 11  1  0
 11 12  2  0
 11 13  1  0
 13 14  1  0
 14 15  1  0
 15 16  2  0
 16 17  1  0
 17 18  1  0
 18 19  2  0
 19 20  1  0
 20 21  2  0
 21 22  1  0
 22 23  1  0
 21 24  1  0
 24 25  2  0
 17 26  2  0
 26 27  1  0
 27 28  1  0
 28 29  2  0
 29 30  1  0
 30 31  2  0
 31 32  1  0
 32 33  1  0
 31 34  1  0
 34 35  2  0
 27 36  2  0
 36 37  1  0
 37 38  3  0
  9 39  1  0
 39 40  2  0
 40  6  1  0
 36 15  1  0
 25 18  1  0
 35 28  1  0
M  END
>  <Binding energies>  (2) 
[-8.85]

>  <Ligand effiencies>  (2) 
[-0.21585365853658536]

>  <Interactions>  (2) 
["V-A:GLU:543:C:4899, V-A:GLU:543:CD:4905, V-B:GLU:543:CD:9877, V-A:GLU:543:CB:4903, V-A:HIS:456:CE1:4066, V-B:HIS:456:CD2:9036, V-A:ARG:545:CZ:4923, V-B:HIS:456:CE1:9038, V-A:ASP:366:CG:3209, V-B:LYS:547:CE:9919, H-A:LYS:547:NZ:4948, H-A:GLU:543:OE2:4907, H-A:GLY:454:N:4046, V-A:PRO:540:CA:4880, V-A:PRO:540:CB:4882, V-A:LEU:363:CA:3181, V-A:GLU:543:CG:4904, V-A:ALA:541:CB:4889, V-A:TYR:539:C:4864, V-A:PRO:540:N:4881, V-A:PRO:540:C:4878, H-A:TYR:539:N:4867"]

$$$$
1b_Grossjean_2025
     RDKit          3D

 25 26  0  0  0  0  0  0  0  0999 V2000
  128.6890  129.6790   73.6230 C   0  0  0  0  0  0  0  0  0  0  0  0
  129.0990  128.3990   73.1630 O   0  0  0  0  0  0  0  0  0  0  0  0
  128.2680  127.6240   72.4210 C   0  0  0  0  0  0  0  0  0  0  0  0
  127.1900  127.1880   72.8380 O   0  0  0  0  0  0  0  0  0  0  0  0
  128.7840  127.3560   71.0360 C   0  0  0  0  0  0  0  0  0  0  0  0
  129.9470  127.9690   70.5450 C   0  0  0  0  0  0  0  0  0  0  0  0
  130.3980  127.6990   69.2570 C   0  0  0  0  0  0  0  0  0  0  0  0
  129.7020  126.8150   68.4330 C   0  0  0  0  0  0  0  0  0  0  0  0
  130.2480  126.6190   67.1500 N   0  0  0  0  0  0  0  0  0  0  0  0
  130.2260  125.5300   66.3510 C   0  0  0  0  0  0  0  0  0  0  0  0
  129.6860  124.4570   66.6200 O   0  0  0  0  0  0  0  0  0  0  0  0
  130.9320  125.6910   65.0050 C   0  0  0  0  0  0  0  0  0  0  0  0
  132.5690  124.8990   64.9900 S   0  0  0  0  0  0  0  0  0  0  0  0
  132.6320  123.8360   63.5640 C   0  0  0  0  0  0  0  0  0  0  0  0
  133.7080  124.0530   62.7670 N   0  0  0  0  0  0  0  0  0  0  0  0
  133.8550  123.2980   61.6540 C   0  0  0  0  0  0  0  0  0  0  0  0
  135.0900  123.5870   60.8190 C   0  0  0  0  0  0  0  0  0  0  0  0
  132.9400  122.3140   61.2860 C   0  0  0  0  0  0  0  0  0  0  0  0
  131.8160  122.0980   62.0890 C   0  0  0  0  0  0  0  0  0  0  0  0
  130.8190  121.0240   61.6580 C   0  0  0  0  0  0  0  0  0  0  0  0
  131.6410  122.8740   63.2570 C   0  0  0  0  0  0  0  0  0  0  0  0
  130.4490  122.6960   64.0900 C   0  0  0  0  0  0  0  0  0  0  0  0
  129.5060  122.5520   64.7450 N   0  0  0  0  0  0  0  0  0  0  0  0
  128.5380  126.1980   68.9160 C   0  0  0  0  0  0  0  0  0  0  0  0
  128.0880  126.4670   70.2050 C   0  0  0  0  0  0  0  0  0  0  0  0
  1  2  1  0
  2  3  1  0
  3  4  2  0
  3  5  1  0
  5  6  2  0
  6  7  1  0
  7  8  2  0
  8  9  1  0
  9 10  1  0
 10 11  2  0
 10 12  1  0
 12 13  1  0
 13 14  1  0
 14 15  2  0
 15 16  1  0
 16 17  1  0
 16 18  2  0
 18 19  1  0
 19 20  1  0
 19 21  2  0
 21 22  1  0
 22 23  3  0
  8 24  1  0
 24 25  2  0
 25  5  1  0
 21 14  1  0
M  END
>  <Binding energies>  (3) 
[-7.66]

>  <Ligand effiencies>  (3) 
[-0.2946153846153846]

>  <Interactions>  (3) 
["V-A:ILE:369:CG1:3234, V-A:GLU:543:C:4899, V-A:LEU:475:CD1:4254, V-B:TYR:539:CE2:9845, V-B:ALA:541:CB:9861, V-B:GLU:543:C:9871, V-B:TYR:539:CD2:9843, V-A:HIS:456:CE1:4066, V-B:HIS:456:CD2:9036, V-B:HIS:456:CE1:9038, V-A:ASP:366:CG:3209, V-A:ASP:366:CA:3206, V-A:ILE:369:CB:3232, V-B:GLU:543:CB:9875, H-A:TYR:484:OH:4344, V-A:GLY:453:C:4038, V-A:GLY:454:CA:4045, V-A:LYS:547:CE:4947, V-A:GLY:453:CA:4040, V-A:TYR:484:CE1:4341, H-A:LYS:547:NZ:4948, H-A:GLU:543:OE1:4906, H-A:GLY:454:N:4046"]

$$$$
1c_Grossjean_2025
     RDKit          3D

 23 24  0  0  0  0  0  0  0  0999 V2000
  128.0250  128.1050   73.5440 C   0  0  0  0  0  0  0  0  0  0  0  0
  129.2780  127.9160   72.8940 O   0  0  0  0  0  0  0  0  0  0  0  0
  129.2970  127.4970   71.5780 C   0  0  0  0  0  0  0  0  0  0  0  0
  130.2440  128.0970   70.7480 C   0  0  0  0  0  0  0  0  0  0  0  0
  130.3430  127.7410   69.4060 C   0  0  0  0  0  0  0  0  0  0  0  0
  129.4880  126.7620   68.8760 C   0  0  0  0  0  0  0  0  0  0  0  0
  129.4950  126.3350   67.5340 N   0  0  0  0  0  0  0  0  0  0  0  0
  130.3850  126.6000   66.5550 C   0  0  0  0  0  0  0  0  0  0  0  0
  131.4030  127.2810   66.6790 O   0  0  0  0  0  0  0  0  0  0  0  0
  130.0680  125.9770   65.1940 C   0  0  0  0  0  0  0  0  0  0  0  0
  130.2390  124.1670   65.2210 S   0  0  0  0  0  0  0  0  0  0  0  0
  130.8930  123.6400   63.6510 C   0  0  0  0  0  0  0  0  0  0  0  0
  130.0020  122.9410   62.9020 N   0  0  0  0  0  0  0  0  0  0  0  0
  130.3860  122.4870   61.6870 C   0  0  0  0  0  0  0  0  0  0  0  0
  129.3340  121.7240   60.9050 C   0  0  0  0  0  0  0  0  0  0  0  0
  131.6640  122.6990   61.1750 C   0  0  0  0  0  0  0  0  0  0  0  0
  132.5980  123.3970   61.9470 C   0  0  0  0  0  0  0  0  0  0  0  0
  133.9990  123.6020   61.3720 C   0  0  0  0  0  0  0  0  0  0  0  0
  132.2200  123.8790   63.2220 C   0  0  0  0  0  0  0  0  0  0  0  0
  133.2010  124.5640   64.0680 C   0  0  0  0  0  0  0  0  0  0  0  0
  133.9750  125.1050   64.7350 N   0  0  0  0  0  0  0  0  0  0  0  0
  128.5320  126.1670   69.7010 C   0  0  0  0  0  0  0  0  0  0  0  0
  128.4360  126.5270   71.0420 C   0  0  0  0  0  0  0  0  0  0  0  0
  1  2  1  0
  2  3  1  0
  3  4  2  0
  4  5  1  0
  5  6  2  0
  6  7  1  0
  7  8  1  0
  8  9  2  0
  8 10  1  0
 10 11  1  0
 11 12  1  0
 12 13  2  0
 13 14  1  0
 14 15  1  0
 14 16  2  0
 16 17  1  0
 17 18  1  0
 17 19  2  0
 19 20  1  0
 20 21  3  0
  6 22  1  0
 22 23  2  0
 23  3  1  0
 19 12  1  0
M  END
>  <Binding energies>  (4) 
[-7.05]

>  <Ligand effiencies>  (4) 
[-0.29375]

>  <Interactions>  (4) 
["V-A:GLU:543:C:4899, V-B:TYR:539:CE2:9845, V-B:ALA:541:CB:9861, V-B:GLU:543:C:9871, V-B:TYR:539:CD2:9843, V-A:HIS:456:CE1:4066, V-B:HIS:456:CD2:9036, V-A:ARG:545:CZ:4923, V-A:ASP:366:CG:3209, V-B:LYS:547:CE:9919, H-A:TYR:484:OH:4344, V-A:GLY:454:CA:4045, H-A:ARG:545:NH2:4925, H-A:ARG:545:NE:4921, V-A:GLY:544:C:4909, H-A:LYS:547:NZ:4948, H-B:GLU:543:OE1:9878, H-A:GLY:454:N:4046, H-A:ARG:545:NH1:4924, H-B:GLU:543:O:9872"]

$$$$
1d_Grossjean_2025
     RDKit          3D

 21 22  0  0  0  0  0  0  0  0999 V2000
  134.7420  123.1880   61.2930 C   0  0  0  0  0  0  0  0  0  0  0  0
  133.5490  123.2720   62.2260 C   0  0  0  0  0  0  0  0  0  0  0  0
  132.4600  122.4120   62.0960 C   0  0  0  0  0  0  0  0  0  0  0  0
  131.3910  122.5290   62.9920 C   0  0  0  0  0  0  0  0  0  0  0  0
  130.2160  121.5650   62.8400 C   0  0  0  0  0  0  0  0  0  0  0  0
  131.4380  123.5200   63.9990 C   0  0  0  0  0  0  0  0  0  0  0  0
  130.3530  123.6290   64.9760 C   0  0  0  0  0  0  0  0  0  0  0  0
  129.4940  123.7130   65.7480 N   0  0  0  0  0  0  0  0  0  0  0  0
  132.5720  124.3650   64.0400 C   0  0  0  0  0  0  0  0  0  0  0  0
  132.7960  125.6630   65.2360 S   0  0  0  0  0  0  0  0  0  0  0  0
  131.2430  126.6070   65.3110 C   0  0  0  0  0  0  0  0  0  0  0  0
  130.9010  127.0410   66.7370 C   0  0  0  0  0  0  0  0  0  0  0  0
  131.6160  127.8690   67.3000 O   0  0  0  0  0  0  0  0  0  0  0  0
  129.7930  126.4760   67.2630 N   0  0  0  0  0  0  0  0  0  0  0  0
  129.2140  126.6390   68.5350 C   0  0  0  0  0  0  0  0  0  0  0  0
  127.9200  126.1320   68.6820 C   0  0  0  0  0  0  0  0  0  0  0  0
  127.2580  126.2360   69.9020 C   0  0  0  0  0  0  0  0  0  0  0  0
  127.8940  126.8410   70.9830 C   0  0  0  0  0  0  0  0  0  0  0  0
  129.1870  127.3420   70.8530 C   0  0  0  0  0  0  0  0  0  0  0  0
  129.8510  127.2410   69.6330 C   0  0  0  0  0  0  0  0  0  0  0  0
  133.6130  124.2300   63.1800 N   0  0  0  0  0  0  0  0  0  0  0  0
  1  2  1  0
  2  3  2  0
  3  4  1  0
  4  5  1  0
  4  6  2  0
  6  7  1  0
  7  8  3  0
  6  9  1  0
  9 10  1  0
 10 11  1  0
 11 12  1  0
 12 13  2  0
 12 14  1  0
 14 15  1  0
 15 16  2  0
 16 17  1  0
 17 18  2  0
 18 19  1  0
 19 20  2  0
  9 21  2  0
 21  2  1  0
 20 15  1  0
M  END
>  <Binding energies>  (5) 
[-6.64]

>  <Ligand effiencies>  (5) 
[-0.3018181818181818]

>  <Interactions>  (5) 
["V-A:ILE:369:CG1:3234, V-A:LEU:475:CD1:4254, V-A:GLU:543:CD:4905, V-B:GLY:544:CA:9883, V-B:ALA:541:CB:9861, V-B:GLU:543:C:9871, V-A:GLU:543:CB:4903, V-A:HIS:456:CD2:4064, V-A:HIS:456:CE1:4066, V-B:HIS:456:CD2:9036, V-B:GLU:543:CG:9876, V-B:GLY:544:C:9881, V-B:HIS:456:CE1:9038, V-B:GLU:543:CB:9875, H-A:TYR:484:OH:4344, V-A:GLY:453:C:4038, V-A:GLY:454:CA:4045, H-A:ARG:545:NH2:4925, H-A:ARG:545:NE:4921, V-A:GLY:453:CA:4040, V-A:TYR:484:CE1:4341, V-A:TYR:484:CZ:4343, H-B:GLU:543:OE1:9878, H-A:GLY:454:N:4046"]

$$$$
1e_Grossjean_2025
     RDKit          3D

 22 23  0  0  0  0  0  0  0  0999 V2000
  127.1230  122.4700   56.7530 C   0  0  0  0  0  0  0  0  0  0  0  0
  127.5000  122.7320   58.1990 C   0  0  0  0  0  0  0  0  0  0  0  0
  126.5330  123.0290   59.1640 C   0  0  0  0  0  0  0  0  0  0  0  0
  126.9530  123.2610   60.4740 C   0  0  0  0  0  0  0  0  0  0  0  0
  128.3130  123.1930   60.7860 C   0  0  0  0  0  0  0  0  0  0  0  0
  129.2280  122.8860   59.7720 C   0  0  0  0  0  0  0  0  0  0  0  0
  130.5840  122.8430   60.1430 N   0  0  0  0  0  0  0  0  0  0  0  0
  131.1210  122.4560   61.3210 C   0  0  0  0  0  0  0  0  0  0  0  0
  130.4780  122.0730   62.2990 O   0  0  0  0  0  0  0  0  0  0  0  0
  132.6460  122.5410   61.4160 C   0  0  0  0  0  0  0  0  0  0  0  0
  133.2280  124.2620   61.4880 S   0  0  0  0  0  0  0  0  0  0  0  0
  132.9040  124.9070   63.1180 C   0  0  0  0  0  0  0  0  0  0  0  0
  133.9410  124.7430   63.9780 N   0  0  0  0  0  0  0  0  0  0  0  0
  133.8110  125.1910   65.2490 C   0  0  0  0  0  0  0  0  0  0  0  0
  135.0130  124.9810   66.1500 C   0  0  0  0  0  0  0  0  0  0  0  0
  132.6500  125.8040   65.7150 C   0  0  0  0  0  0  0  0  0  0  0  0
  131.5660  125.9560   64.8440 C   0  0  0  0  0  0  0  0  0  0  0  0
  130.2970  126.6140   65.3840 C   0  0  0  0  0  0  0  0  0  0  0  0
  131.6770  125.4920   63.5130 C   0  0  0  0  0  0  0  0  0  0  0  0
  130.5320  125.5900   62.6060 C   0  0  0  0  0  0  0  0  0  0  0  0
  129.6250  125.6690   61.8910 N   0  0  0  0  0  0  0  0  0  0  0  0
  128.8240  122.6620   58.4870 N   0  0  0  0  0  0  0  0  0  0  0  0
  1  2  1  0
  2  3  2  0
  3  4  1  0
  4  5  2  0
  5  6  1  0
  6  7  1  0
  7  8  1  0
  8  9  2  0
  8 10  1  0
 10 11  1  0
 11 12  1  0
 12 13  2  0
 13 14  1  0
 14 15  1  0
 14 16  2  0
 16 17  1  0
 17 18  1  0
 17 19  2  0
 19 20  1  0
 20 21  3  0
  6 22  2  0
 22  2  1  0
 19 12  1  0
M  END
>  <Binding energies>  (6) 
[-6.77]

>  <Ligand effiencies>  (6) 
[-0.2943478260869565]

>  <Interactions>  (6) 
["V-A:GLU:543:CD:4905, V-B:TYR:539:CE2:9845, V-B:ALA:541:CB:9861, V-B:PRO:540:CA:9852, V-B:TYR:539:CZ:9846, V-B:TYR:539:CD2:9843, V-A:HIS:456:CE1:4066, V-A:ARG:545:CZ:4923, V-A:GLY:453:C:4038, V-B:TYR:539:C:9836, H-B:TYR:539:OH:9847, V-A:GLY:454:CA:4045, V-A:GLY:454:C:4043, V-A:ARG:545:CG:4919, V-A:GLY:453:CA:4040, V-A:ARG:545:CD:4920, V-B:PRO:540:N:9853, H-A:GLY:454:N:4046, H-A:ARG:545:NH1:4924, V-B:PRO:540:CB:9854, V-A:ILE:455:C:4048"]

$$$$
1f_Grossjean_2025
     RDKit          3D

 21 22  0  0  0  0  0  0  0  0999 V2000
  135.1990  123.6190   60.8970 C   0  0  0  0  0  0  0  0  0  0  0  0
  133.9430  123.3320   61.7000 C   0  0  0  0  0  0  0  0  0  0  0  0
  133.0510  122.3320   61.3260 C   0  0  0  0  0  0  0  0  0  0  0  0
  131.9030  122.1220   62.0980 C   0  0  0  0  0  0  0  0  0  0  0  0
  130.9290  121.0310   61.6570 C   0  0  0  0  0  0  0  0  0  0  0  0
  131.6830  122.9230   63.2420 C   0  0  0  0  0  0  0  0  0  0  0  0
  130.4600  122.7550   64.0320 C   0  0  0  0  0  0  0  0  0  0  0  0
  129.4940  122.6220   64.6540 N   0  0  0  0  0  0  0  0  0  0  0  0
  132.6580  123.8970   63.5640 C   0  0  0  0  0  0  0  0  0  0  0  0
  132.5520  124.9950   64.9620 S   0  0  0  0  0  0  0  0  0  0  0  0
  130.8780  125.7220   64.9990 C   0  0  0  0  0  0  0  0  0  0  0  0
  130.1360  125.5700   66.3350 C   0  0  0  0  0  0  0  0  0  0  0  0
  129.5490  124.5210   66.6070 O   0  0  0  0  0  0  0  0  0  0  0  0
  130.1730  126.6630   67.1260 N   0  0  0  0  0  0  0  0  0  0  0  0
  129.6150  126.8690   68.4020 C   0  0  0  0  0  0  0  0  0  0  0  0
  128.4370  126.2700   68.8870 C   0  0  0  0  0  0  0  0  0  0  0  0
  127.9970  126.5610   70.1810 C   0  0  0  0  0  0  0  0  0  0  0  0
  128.7460  127.4430   70.9600 C   0  0  0  0  0  0  0  0  0  0  0  0
  129.8870  128.0290   70.5180 N   0  0  0  0  0  0  0  0  0  0  0  0
  130.3020  127.7360   69.2580 C   0  0  0  0  0  0  0  0  0  0  0  0
  133.7550  124.1080   62.7940 N   0  0  0  0  0  0  0  0  0  0  0  0
  1  2  1  0
  2  3  2  0
  3  4  1  0
  4  5  1  0
  4  6  2  0
  6  7  1  0
  7  8  3  0
  6  9  1  0
  9 10  1  0
 10 11  1  0
 11 12  1  0
 12 13  2  0
 12 14  1  0
 14 15  1  0
 15 16  2  0
 16 17  1  0
 17 18  2  0
 18 19  1  0
 19 20  2  0
  9 21  2  0
 21  2  1  0
 20 15  1  0
M  END
>  <Binding energies>  (7) 
[-6.58]

>  <Ligand effiencies>  (7) 
[-0.2990909090909091]

>  <Interactions>  (7) 
["V-A:ILE:369:CG1:3234, V-A:GLU:543:C:4899, V-A:LEU:475:CD1:4254, V-B:TYR:539:CE2:9845, V-B:ALA:541:CB:9861, V-B:GLU:543:C:9871, V-B:TYR:539:CD2:9843, V-A:HIS:456:CE1:4066, V-B:HIS:456:CD2:9036, V-B:GLY:544:C:9881, V-B:HIS:456:CE1:9038, V-A:ASP:366:CG:3209, V-A:ASP:366:CA:3206, V-A:ILE:369:CB:3232, V-B:GLU:543:CB:9875, H-A:TYR:484:OH:4344, V-A:GLY:453:C:4038, V-A:GLY:454:CA:4045, V-A:GLY:453:CA:4040, V-A:TYR:484:CE1:4341, H-A:GLU:543:OE1:4906, H-A:GLY:454:N:4046"]

$$$$
1g_Grossjean_2025
     RDKit          3D

 22 23  0  0  0  0  0  0  0  0999 V2000
  135.2710  123.6110   60.7650 C   0  0  0  0  0  0  0  0  0  0  0  0
  134.0550  123.3290   61.6270 C   0  0  0  0  0  0  0  0  0  0  0  0
  133.1250  122.3510   61.2800 C   0  0  0  0  0  0  0  0  0  0  0  0
  132.0140  122.1460   62.1050 C   0  0  0  0  0  0  0  0  0  0  0  0
  131.0000  121.0780   61.6960 C   0  0  0  0  0  0  0  0  0  0  0  0
  131.8660  122.9290   63.2720 C   0  0  0  0  0  0  0  0  0  0  0  0
  130.6840  122.7690   64.1230 C   0  0  0  0  0  0  0  0  0  0  0  0
  129.7480  122.6410   64.7920 N   0  0  0  0  0  0  0  0  0  0  0  0
  132.8710  123.8820   63.5590 C   0  0  0  0  0  0  0  0  0  0  0  0
  132.8480  124.9420   64.9870 S   0  0  0  0  0  0  0  0  0  0  0  0
  131.1690  125.6230   65.1270 C   0  0  0  0  0  0  0  0  0  0  0  0
  131.0750  126.6980   66.2120 C   0  0  0  0  0  0  0  0  0  0  0  0
  132.0890  127.2940   66.5790 O   0  0  0  0  0  0  0  0  0  0  0  0
  129.8510  126.9280   66.7170 N   0  0  0  0  0  0  0  0  0  0  0  0
  129.5230  127.9450   67.7160 C   0  0  0  0  0  0  0  0  0  0  0  0
  129.3030  127.3960   69.1230 C   0  0  0  0  0  0  0  0  0  0  0  0
  130.1990  127.7210   70.1470 C   0  0  0  0  0  0  0  0  0  0  0  0
  129.9980  127.2210   71.4300 C   0  0  0  0  0  0  0  0  0  0  0  0
  128.9000  126.4020   71.6880 C   0  0  0  0  0  0  0  0  0  0  0  0
  128.0020  126.0790   70.6730 C   0  0  0  0  0  0  0  0  0  0  0  0
  128.2020  126.5770   69.3890 C   0  0  0  0  0  0  0  0  0  0  0  0
  133.9340  124.0890   62.7410 N   0  0  0  0  0  0  0  0  0  0  0  0
  1  2  1  0
  2  3  2  0
  3  4  1  0
  4  5  1  0
  4  6  2  0
  6  7  1  0
  7  8  3  0
  6  9  1  0
  9 10  1  0
 10 11  1  0
 11 12  1  0
 12 13  2  0
 12 14  1  0
 14 15  1  0
 15 16  1  0
 16 17  2  0
 17 18  1  0
 18 19  2  0
 19 20  1  0
 20 21  2  0
  9 22  2  0
 22  2  1  0
 21 16  1  0
M  END
>  <Binding energies>  (8) 
[-7.09]

>  <Ligand effiencies>  (8) 
[-0.30826086956521737]

>  <Interactions>  (8) 
["V-A:ILE:369:CG1:3234, V-A:LEU:475:CD1:4254, V-A:GLU:543:CD:4905, V-B:TYR:539:CE2:9845, V-B:GLU:543:C:9871, V-A:GLU:543:CB:4903, V-A:HIS:456:CD2:4064, V-B:TYR:539:CD2:9843, V-A:HIS:456:CE1:4066, V-B:GLY:544:C:9881, V-B:HIS:456:CE1:9038, V-A:ASP:366:CG:3209, V-A:ASP:366:CA:3206, V-B:LYS:547:CE:9919, V-A:ILE:369:CB:3232, H-A:TYR:484:OH:4344, V-A:GLY:453:C:4038, V-A:GLY:454:CA:4045, H-A:ARG:545:NE:4921, V-A:GLY:453:CA:4040, V-A:TYR:484:CE1:4341, H-B:GLU:543:OE1:9878, H-A:GLY:454:N:4046"]

$$$$
1h_Grossjean_2025
     RDKit          3D

 28 29  0  0  0  0  0  0  0  0999 V2000
  129.4580  130.1460   72.4190 C   0  0  0  0  0  0  0  0  0  0  0  0
  129.7840  128.8290   72.8490 O   0  0  0  0  0  0  0  0  0  0  0  0
  129.4840  127.7550   72.0310 C   0  0  0  0  0  0  0  0  0  0  0  0
  129.1420  127.8740   70.6750 C   0  0  0  0  0  0  0  0  0  0  0  0
  128.8370  126.7450   69.9130 C   0  0  0  0  0  0  0  0  0  0  0  0
  128.4890  126.8870   68.4340 C   0  0  0  0  0  0  0  0  0  0  0  0
  129.4540  126.2570   67.5330 N   0  0  0  0  0  0  0  0  0  0  0  0
  129.8080  126.7260   66.3230 C   0  0  0  0  0  0  0  0  0  0  0  0
  129.3690  127.7700   65.8400 O   0  0  0  0  0  0  0  0  0  0  0  0
  130.8070  125.8830   65.5310 C   0  0  0  0  0  0  0  0  0  0  0  0
  130.2440  124.1650   65.3360 S   0  0  0  0  0  0  0  0  0  0  0  0
  130.8410  123.5610   63.7660 C   0  0  0  0  0  0  0  0  0  0  0  0
  129.9180  122.9450   62.9810 N   0  0  0  0  0  0  0  0  0  0  0  0
  130.3030  122.4670   61.7750 C   0  0  0  0  0  0  0  0  0  0  0  0
  129.2150  121.7970   60.9550 C   0  0  0  0  0  0  0  0  0  0  0  0
  131.6090  122.5780   61.3030 C   0  0  0  0  0  0  0  0  0  0  0  0
  132.5690  123.2070   62.1030 C   0  0  0  0  0  0  0  0  0  0  0  0
  133.9940  123.3200   61.5660 C   0  0  0  0  0  0  0  0  0  0  0  0
  132.1890  123.7150   63.3660 C   0  0  0  0  0  0  0  0  0  0  0  0
  133.1740  124.3770   64.2260 C   0  0  0  0  0  0  0  0  0  0  0  0
  133.9520  124.8990   64.9050 N   0  0  0  0  0  0  0  0  0  0  0  0
  128.9090  125.4800   70.4970 C   0  0  0  0  0  0  0  0  0  0  0  0
  129.2540  125.3310   71.8500 C   0  0  0  0  0  0  0  0  0  0  0  0
  129.3420  124.1100   72.4940 O   0  0  0  0  0  0  0  0  0  0  0  0
  129.8160  122.9740   71.7780 C   0  0  0  0  0  0  0  0  0  0  0  0
  129.5280  126.4770   72.6090 C   0  0  0  0  0  0  0  0  0  0  0  0
  129.8730  126.3470   73.9320 O   0  0  0  0  0  0  0  0  0  0  0  0
  131.0050  125.5170   74.1560 C   0  0  0  0  0  0  0  0  0  0  0  0
  1  2  1  0
  2  3  1  0
  3  4  2  0
  4  5  1  0
  5  6  1  0
  6  7  1  0
  7  8  1  0
  8  9  2  0
  8 10  1  0
 10 11  1  0
 11 12  1  0
 12 13  2  0
 13 14  1  0
 14 15  1  0
 14 16  2  0
 16 17  1  0
 17 18  1  0
 17 19  2  0
 19 20  1  0
 20 21  3  0
  5 22  2  0
 22 23  1  0
 23 24  1  0
 24 25  1  0
 23 26  2  0
 26 27  1  0
 27 28  1  0
 26  3  1  0
 19 12  1  0
M  END
>  <Binding energies>  (9) 
[-7.02]

>  <Ligand effiencies>  (9) 
[-0.24206896551724136]

>  <Interactions>  (9) 
["V-A:GLU:543:C:4899, V-B:TYR:539:CE2:9845, V-B:ALA:541:CB:9861, V-B:GLU:543:C:9871, V-A:HIS:456:CD2:4064, V-B:TYR:539:CD2:9843, V-A:HIS:456:CE1:4066, V-B:HIS:456:CD2:9036, V-B:HIS:456:CE1:9038, V-B:LYS:547:CE:9919, V-B:GLU:543:CB:9875, H-A:TYR:484:OH:4344, V-A:GLY:454:CA:4045, V-A:LYS:547:CE:4947, V-A:GLY:544:CA:4911, H-A:ARG:545:NE:4921, H-A:LYS:547:NZ:4948, H-A:GLY:454:N:4046, H-B:LYS:547:NZ:9920, V-A:TYR:484:CD1:4339, V-A:TYR:484:CG:4338, V-A:TYR:484:CD2:4340, H-A:HIS:456:NE2:4067, H-B:GLU:543:O:9872"]

$$$$
1i_Grossjean_2025
     RDKit          3D

 20 21  0  0  0  0  0  0  0  0999 V2000
  134.4500  125.1310   66.1420 C   0  0  0  0  0  0  0  0  0  0  0  0
  133.3020  125.2760   65.1610 C   0  0  0  0  0  0  0  0  0  0  0  0
  133.4340  124.9050   63.8250 C   0  0  0  0  0  0  0  0  0  0  0  0
  132.3370  125.0520   62.9670 C   0  0  0  0  0  0  0  0  0  0  0  0
  132.5010  124.6220   61.5100 C   0  0  0  0  0  0  0  0  0  0  0  0
  131.1270  125.5780   63.4760 C   0  0  0  0  0  0  0  0  0  0  0  0
  129.9530  125.6930   62.6080 C   0  0  0  0  0  0  0  0  0  0  0  0
  129.0260  125.7820   61.9210 N   0  0  0  0  0  0  0  0  0  0  0  0
  131.0930  125.9510   64.8400 C   0  0  0  0  0  0  0  0  0  0  0  0
  129.6570  126.6290   65.6430 S   0  0  0  0  0  0  0  0  0  0  0  0
  130.2350  127.6560   67.0280 C   0  0  0  0  0  0  0  0  0  0  0  0
  129.7740  127.1100   68.3810 C   0  0  0  0  0  0  0  0  0  0  0  0
  129.3560  125.9530   68.4540 O   0  0  0  0  0  0  0  0  0  0  0  0
  129.8710  127.9690   69.4190 N   0  0  0  0  0  0  0  0  0  0  0  0
  129.5210  127.7330   70.7410 C   0  0  0  0  0  0  0  0  0  0  0  0
  128.4130  126.9720   71.1110 C   0  0  0  0  0  0  0  0  0  0  0  0
  128.4160  126.9800   72.4860 C   0  0  0  0  0  0  0  0  0  0  0  0
  129.4700  127.7100   72.9230 O   0  0  0  0  0  0  0  0  0  0  0  0
  130.1630  128.1830   71.8070 N   0  0  0  0  0  0  0  0  0  0  0  0
  132.1550  125.7860   65.6680 N   0  0  0  0  0  0  0  0  0  0  0  0
  1  2  1  0
  2  3  2  0
  3  4  1  0
  4  5  1  0
  4  6  2  0
  6  7  1  0
  7  8  3  0
  6  9  1  0
  9 10  1  0
 10 11  1  0
 11 12  1  0
 12 13  2  0
 12 14  1  0
 14 15  1  0
 15 16  1  0
 16 17  2  0
 17 18  1  0
 18 19  1  0
  9 20  2  0
 20  2  1  0
 19 15  2  0
M  END
>  <Binding energies>  (10) 
[-6.44]

>  <Ligand effiencies>  (10) 
[-0.3066666666666667]

>  <Interactions>  (10) 
["V-A:GLU:543:C:4899, V-A:GLU:543:CD:4905, V-A:GLU:543:CB:4903, V-A:HIS:456:CE1:4066, V-B:HIS:456:CD2:9036, V-A:ARG:545:CZ:4923, V-A:ASP:366:CG:3209, V-B:LYS:547:CE:9919, H-A:TYR:484:OH:4344, V-A:GLY:453:C:4038, V-A:GLY:454:CA:4045, V-A:GLY:454:C:4043, H-A:ARG:545:NE:4921, V-A:ARG:545:CG:4919, V-A:ARG:545:CD:4920, H-A:LYS:547:NZ:4948, H-B:HIS:456:NE2:9039, H-A:GLU:543:O:4900"]

$$$$
1k_Grossjean_2025
     RDKit          3D

 25 25  0  0  0  0  0  0  0  0999 V2000
  130.6770  127.9730   71.1300 C   0  0  0  0  0  0  0  0  0  0  0  0
  129.8250  127.5280   72.1730 O   0  0  0  0  0  0  0  0  0  0  0  0
  128.7150  126.7690   71.7120 C   0  0  0  0  0  0  0  0  0  0  0  0
  129.0070  126.2370   70.3030 C   0  0  0  0  0  0  0  0  0  0  0  0
  127.8740  126.4530   69.4710 O   0  0  0  0  0  0  0  0  0  0  0  0
  128.1750  126.4470   68.0820 C   0  0  0  0  0  0  0  0  0  0  0  0
  129.2780  125.4170   67.8050 C   0  0  0  0  0  0  0  0  0  0  0  0
  129.7690  125.5930   66.4820 O   0  0  0  0  0  0  0  0  0  0  0  0
  130.6840  126.6740   66.3510 C   0  0  0  0  0  0  0  0  0  0  0  0
  131.9470  126.1940   65.6120 C   0  0  0  0  0  0  0  0  0  0  0  0
  131.9250  124.7750   65.2540 N   0  0  0  0  0  0  0  0  0  0  0  0
  132.7740  124.1780   64.4000 C   0  0  0  0  0  0  0  0  0  0  0  0
  133.6820  124.7790   63.8240 O   0  0  0  0  0  0  0  0  0  0  0  0
  132.5410  122.6750   64.1750 C   0  0  0  0  0  0  0  0  0  0  0  0
  130.8000  122.1270   64.2440 S   0  0  0  0  0  0  0  0  0  0  0  0
  129.8950  122.8770   62.8980 C   0  0  0  0  0  0  0  0  0  0  0  0
  129.5870  124.1910   63.0490 N   0  0  0  0  0  0  0  0  0  0  0  0
  128.8940  124.8170   62.0710 C   0  0  0  0  0  0  0  0  0  0  0  0
  128.5810  126.2800   62.3170 C   0  0  0  0  0  0  0  0  0  0  0  0
  128.4880  124.1700   60.9050 C   0  0  0  0  0  0  0  0  0  0  0  0
  128.8050  122.8190   60.7330 C   0  0  0  0  0  0  0  0  0  0  0  0
  128.3510  122.1290   59.4490 C   0  0  0  0  0  0  0  0  0  0  0  0
  129.5240  122.1450   61.7460 C   0  0  0  0  0  0  0  0  0  0  0  0
  129.8670  120.7280   61.5940 C   0  0  0  0  0  0  0  0  0  0  0  0
  130.1370  119.6090   61.4740 N   0  0  0  0  0  0  0  0  0  0  0  0
  1  2  1  0
  2  3  1  0
  3  4  1  0
  4  5  1  0
  5  6  1  0
  6  7  1  0
  7  8  1  0
  8  9  1  0
  9 10  1  0
 10 11  1  0
 11 12  1  0
 12 13  2  0
 12 14  1  0
 14 15  1  0
 15 16  1  0
 16 17  2  0
 17 18  1  0
 18 19  1  0
 18 20  2  0
 20 21  1  0
 21 22  1  0
 21 23  2  0
 23 24  1  0
 24 25  3  0
 23 16  1  0
M  END
>  <Binding energies>  (11) 
[-5.35]

>  <Ligand effiencies>  (11) 
[-0.20576923076923076]

>  <Interactions>  (11) 
["V-A:LEU:475:CD1:4254, V-B:TYR:539:CE2:9845, V-B:ALA:541:CB:9861, V-B:PRO:540:CA:9852, V-B:GLU:543:C:9871, V-B:GLU:543:CD:9877, V-B:TYR:539:CZ:9846, V-A:HIS:456:CD2:4064, V-B:TYR:539:CD2:9843, V-A:HIS:456:CE1:4066, V-A:ARG:545:CZ:4923, V-B:HIS:456:CE1:9038, V-B:GLU:543:CB:9875, H-A:TYR:484:OH:4344, V-B:TYR:539:C:9836, V-A:GLY:454:CA:4045, V-B:GLU:543:CA:9873, H-A:ARG:545:NH2:4925, V-A:TYR:484:CE1:4341, V-A:GLY:544:C:4909, V-A:TYR:484:CZ:4343, H-A:LYS:547:NZ:4948, V-B:PRO:540:N:9853, H-A:GLY:454:N:4046, H-A:ARG:545:NH1:4924"]

$$$$
1l_Grossjean_2025
     RDKit          3D

 17 17  0  0  0  0  0  0  0  0999 V2000
  129.5150  128.4480   68.3050 C   0  0  0  0  0  0  0  0  0  0  0  0
  130.8300  127.9200   68.2100 O   0  0  0  0  0  0  0  0  0  0  0  0
  131.1500  127.6800   66.8740 N   0  0  0  0  0  0  0  0  0  0  0  0
  130.9190  126.4590   66.3560 C   0  0  0  0  0  0  0  0  0  0  0  0
  130.2350  125.5970   66.9140 O   0  0  0  0  0  0  0  0  0  0  0  0
  131.5620  126.2000   64.9860 C   0  0  0  0  0  0  0  0  0  0  0  0
  132.9910  125.0640   65.0060 S   0  0  0  0  0  0  0  0  0  0  0  0
  132.9050  124.0380   63.5480 C   0  0  0  0  0  0  0  0  0  0  0  0
  133.9430  124.1600   62.6790 N   0  0  0  0  0  0  0  0  0  0  0  0
  133.9410  123.4120   61.5510 C   0  0  0  0  0  0  0  0  0  0  0  0
  135.1330  123.6030   60.6320 C   0  0  0  0  0  0  0  0  0  0  0  0
  132.9180  122.5180   61.2430 C   0  0  0  0  0  0  0  0  0  0  0  0
  131.8460  122.3830   62.1300 C   0  0  0  0  0  0  0  0  0  0  0  0
  130.7350  121.3970   61.7720 C   0  0  0  0  0  0  0  0  0  0  0  0
  131.8260  123.1550   63.3120 C   0  0  0  0  0  0  0  0  0  0  0  0
  130.7140  123.0340   64.2600 C   0  0  0  0  0  0  0  0  0  0  0  0
  129.8360  122.9370   65.0070 N   0  0  0  0  0  0  0  0  0  0  0  0
  1  2  1  0
  2  3  1  0
  3  4  1  0
  4  5  2  0
  4  6  1  0
  6  7  1  0
  7  8  1  0
  8  9  2  0
  9 10  1  0
 10 11  1  0
 10 12  2  0
 12 13  1  0
 13 14  1  0
 13 15  2  0
 15 16  1  0
 16 17  3  0
 15  8  1  0
M  END
>  <Binding energies>  (12) 
[-5.67]

>  <Ligand effiencies>  (12) 
[-0.315]

>  <Interactions>  (12) 
["V-A:ILE:369:CG1:3234, V-A:GLU:543:C:4899, V-A:LEU:475:CD1:4254, V-A:GLU:543:CD:4905, V-B:TYR:539:CE2:9845, V-B:ALA:541:CB:9861, V-A:GLU:543:CB:4903, V-B:TYR:539:CD2:9843, V-A:HIS:456:CE1:4066, V-A:ARG:545:CZ:4923, V-B:HIS:456:CE1:9038, V-A:ASP:366:CG:3209, V-A:ASP:366:CA:3206, V-A:ILE:369:CB:3232, H-A:TYR:484:OH:4344, V-A:GLY:454:CA:4045, V-A:ARG:545:CG:4919, V-A:GLY:453:CA:4040, V-A:TYR:484:CE1:4341, H-A:GLU:543:OE1:4906, H-A:GLY:454:N:4046, V-A:GLU:543:CG:4904"]

$$$$
1m_Grossjean_2025
     RDKit          3D

 20 20  0  0  0  0  0  0  0  0999 V2000
  125.4230  124.1930   57.7830 C   0  0  0  0  0  0  0  0  0  0  0  0
  125.8800  123.0610   57.0560 O   0  0  0  0  0  0  0  0  0  0  0  0
  127.0120  122.4240   57.4200 C   0  0  0  0  0  0  0  0  0  0  0  0
  127.6030  121.5720   56.7500 O   0  0  0  0  0  0  0  0  0  0  0  0
  127.5090  122.8980   58.8020 C   0  0  0  0  0  0  0  0  0  0  0  0
  128.0590  121.8030   59.6150 N   0  0  0  0  0  0  0  0  0  0  0  0
  129.1020  121.9010   60.4620 C   0  0  0  0  0  0  0  0  0  0  0  0
  129.7310  122.9470   60.6340 O   0  0  0  0  0  0  0  0  0  0  0  0
  129.4740  120.6120   61.2050 C   0  0  0  0  0  0  0  0  0  0  0  0
  131.2650  120.2630   61.2780 S   0  0  0  0  0  0  0  0  0  0  0  0
  132.1000  121.7670   61.7370 C   0  0  0  0  0  0  0  0  0  0  0  0
  133.1030  122.1110   60.8890 N   0  0  0  0  0  0  0  0  0  0  0  0
  133.8050  123.2410   61.1350 C   0  0  0  0  0  0  0  0  0  0  0  0
  134.8970  123.5700   60.1350 C   0  0  0  0  0  0  0  0  0  0  0  0
  133.5490  124.0620   62.2320 C   0  0  0  0  0  0  0  0  0  0  0  0
  132.5350  123.7030   63.1270 C   0  0  0  0  0  0  0  0  0  0  0  0
  132.2820  124.6090   64.3290 C   0  0  0  0  0  0  0  0  0  0  0  0
  131.7880  122.5260   62.8900 C   0  0  0  0  0  0  0  0  0  0  0  0
  130.7560  122.1060   63.8410 C   0  0  0  0  0  0  0  0  0  0  0  0
  129.9400  121.7750   64.5920 N   0  0  0  0  0  0  0  0  0  0  0  0
  1  2  1  0
  2  3  1  0
  3  4  2  0
  3  5  1  0
  5  6  1  0
  6  7  1  0
  7  8  2  0
  7  9  1  0
  9 10  1  0
 10 11  1  0
 11 12  2  0
 12 13  1  0
 13 14  1  0
 13 15  2  0
 15 16  1  0
 16 17  1  0
 16 18  2  0
 18 19  1  0
 19 20  3  0
 18 11  1  0
M  END
>  <Binding energies>  (13) 
[-5.42]

>  <Ligand effiencies>  (13) 
[-0.2580952380952381]

>  <Interactions>  (13) 
["V-A:ILE:369:CG1:3234, V-A:ILE:369:CG2:3233, V-A:LEU:475:CD1:4254, V-B:TYR:539:CE2:9845, V-B:ALA:541:CB:9861, V-B:PRO:540:CA:9852, H-B:TYR:539:N:9839, V-B:TYR:539:CD2:9843, V-A:ASP:366:CG:3209, V-A:ASP:366:CA:3206, V-A:ASP:366:CB:3208, V-A:ILE:369:CB:3232, H-A:TYR:484:OH:4344, V-B:TYR:539:C:9836, H-B:TYR:539:OH:9847, V-A:GLY:454:CA:4045, V-B:PRO:540:N:9853, H-B:TYR:539:O:9837, V-A:LEU:475:CD2:4255, V-A:LEU:475:CG:4253, V-B:PRO:540:C:9850, V-B:PRO:540:CD:9856"]

$$$$
1n_Grossjean_2025
     RDKit          3D

 27 28  0  0  0  0  0  0  0  0999 V2000
  125.4060  127.7000   74.5420 C   0  0  0  0  0  0  0  0  0  0  0  0
  126.5060  128.3620   73.7070 C   0  0  0  0  0  0  0  0  0  0  0  0
  127.0280  127.4180   72.7800 O   0  0  0  0  0  0  0  0  0  0  0  0
  128.3670  127.2820   72.5970 C   0  0  0  0  0  0  0  0  0  0  0  0
  129.1800  127.2500   73.5250 O   0  0  0  0  0  0  0  0  0  0  0  0
  128.7590  127.1610   71.1520 C   0  0  0  0  0  0  0  0  0  0  0  0
  128.0190  126.3860   70.2450 C   0  0  0  0  0  0  0  0  0  0  0  0
  128.4110  126.2920   68.9130 C   0  0  0  0  0  0  0  0  0  0  0  0
  129.5500  126.9610   68.4610 C   0  0  0  0  0  0  0  0  0  0  0  0
  129.8570  126.7930   67.0970 N   0  0  0  0  0  0  0  0  0  0  0  0
  129.7950  125.6840   66.3280 C   0  0  0  0  0  0  0  0  0  0  0  0
  129.4310  124.5710   66.7080 O   0  0  0  0  0  0  0  0  0  0  0  0
  130.2170  125.8690   64.8640 C   0  0  0  0  0  0  0  0  0  0  0  0
  131.7150  126.2040   64.7040 C   0  0  0  0  0  0  0  0  0  0  0  0
  132.8370  124.8060   65.0080 S   0  0  0  0  0  0  0  0  0  0  0  0
  132.8160  123.7720   63.5600 C   0  0  0  0  0  0  0  0  0  0  0  0
  133.8590  123.9920   62.7200 N   0  0  0  0  0  0  0  0  0  0  0  0
  133.9540  123.2490   61.5930 C   0  0  0  0  0  0  0  0  0  0  0  0
  135.1510  123.5420   60.7090 C   0  0  0  0  0  0  0  0  0  0  0  0
  133.0210  122.2720   61.2550 C   0  0  0  0  0  0  0  0  0  0  0  0
  131.9300  122.0520   62.1030 C   0  0  0  0  0  0  0  0  0  0  0  0
  130.9120  120.9850   61.7060 C   0  0  0  0  0  0  0  0  0  0  0  0
  131.8070  122.8190   63.2840 C   0  0  0  0  0  0  0  0  0  0  0  0
  130.6480  122.6420   64.1600 C   0  0  0  0  0  0  0  0  0  0  0  0
  129.7290  122.5010   64.8500 N   0  0  0  0  0  0  0  0  0  0  0  0
  130.2880  127.7450   69.3590 C   0  0  0  0  0  0  0  0  0  0  0  0
  129.8930  127.8400   70.6910 C   0  0  0  0  0  0  0  0  0  0  0  0
  1  2  1  0
  2  3  1  0
  3  4  1  0
  4  5  2  0
  4  6  1  0
  6  7  2  0
  7  8  1  0
  8  9  2  0
  9 10  1  0
 10 11  1  0
 11 12  2  0
 11 13  1  0
 13 14  1  0
 14 15  1  0
 15 16  1  0
 16 17  2  0
 17 18  1  0
 18 19  1  0
 18 20  2  0
 20 21  1  0
 21 22  1  0
 21 23  2  0
 23 24  1  0
 24 25  3  0
  9 26  1  0
 26 27  2  0
 27  6  1  0
 23 16  1  0
M  END
>  <Binding energies>  (14) 
[-8.05]

>  <Ligand effiencies>  (14) 
[-0.28750000000000003]

>  <Interactions>  (14) 
["V-A:ILE:369:CG1:3234, V-A:GLU:543:C:4899, V-A:LEU:475:CD1:4254, V-B:TYR:539:CE2:9845, V-B:GLU:543:C:9871, V-B:TYR:539:CD2:9843, V-A:HIS:456:CE1:4066, V-B:HIS:456:CD2:9036, V-A:ARG:545:CZ:4923, V-B:GLU:543:CG:9876, V-B:GLY:544:C:9881, V-B:HIS:456:CE1:9038, V-A:ASP:366:CG:3209, V-A:ASP:366:CA:3206, V-B:LYS:547:CE:9919, V-A:ILE:369:CB:3232, V-B:GLU:543:CB:9875, H-A:TYR:484:OH:4344, V-A:GLY:454:CA:4045, V-A:GLY:453:CA:4040, V-A:TYR:484:CE1:4341, H-A:LYS:547:NZ:4948, H-A:GLU:543:OE1:4906, H-A:GLY:454:N:4046, V-B:HIS:456:CG:9034, V-B:LYS:547:CD:9918, V-B:HIS:456:CB:9033, V-B:VAL:458:CG2:9055"]

$$$$
1q_Grossjean_2025
     RDKit          3D

 21 21  0  0  0  0  0  0  0  0999 V2000
  128.1210  127.3180   72.4540 C   0  0  0  0  0  0  0  0  0  0  0  0
  129.5080  127.6190   72.4930 O   0  0  0  0  0  0  0  0  0  0  0  0
  130.2520  127.5880   71.3600 C   0  0  0  0  0  0  0  0  0  0  0  0
  131.4740  127.7300   71.3010 O   0  0  0  0  0  0  0  0  0  0  0  0
  129.4260  127.3840   70.0720 C   0  0  0  0  0  0  0  0  0  0  0  0
  130.2550  127.3450   68.8580 N   0  0  0  0  0  0  0  0  0  0  0  0
  129.8320  127.0120   67.6230 C   0  0  0  0  0  0  0  0  0  0  0  0
  128.6670  126.6980   67.3730 O   0  0  0  0  0  0  0  0  0  0  0  0
  130.8920  127.0600   66.5130 C   0  0  0  0  0  0  0  0  0  0  0  0
  130.9280  125.8070   65.6170 C   0  0  0  0  0  0  0  0  0  0  0  0
  132.6030  125.1620   65.3340 S   0  0  0  0  0  0  0  0  0  0  0  0
  132.5640  124.0800   63.9190 C   0  0  0  0  0  0  0  0  0  0  0  0
  133.6610  124.1890   63.1270 N   0  0  0  0  0  0  0  0  0  0  0  0
  133.7440  123.4180   62.0190 C   0  0  0  0  0  0  0  0  0  0  0  0
  134.9910  123.6080   61.1750 C   0  0  0  0  0  0  0  0  0  0  0  0
  132.7530  122.5060   61.6610 C   0  0  0  0  0  0  0  0  0  0  0  0
  131.6310  122.3660   62.4830 C   0  0  0  0  0  0  0  0  0  0  0  0
  130.5670  121.3460   62.0790 C   0  0  0  0  0  0  0  0  0  0  0  0
  131.5230  123.1590   63.6480 C   0  0  0  0  0  0  0  0  0  0  0  0
  130.3820  122.9860   64.5500 C   0  0  0  0  0  0  0  0  0  0  0  0
  129.4790  122.8460   65.2600 N   0  0  0  0  0  0  0  0  0  0  0  0
  1  2  1  0
  2  3  1  0
  3  4  2  0
  3  5  1  0
  5  6  1  0
  6  7  1  0
  7  8  2  0
  7  9  1  0
  9 10  1  0
 10 11  1  0
 11 12  1  0
 12 13  2  0
 13 14  1  0
 14 15  1  0
 14 16  2  0
 16 17  1  0
 17 18  1  0
 17 19  2  0
 19 20  1  0
 20 21  3  0
 19 12  1  0
M  END
>  <Binding energies>  (15) 
[-5.91]

>  <Ligand effiencies>  (15) 
[-0.2686363636363636]

>  <Interactions>  (15) 
["V-A:ILE:369:CG1:3234, V-A:LEU:475:CD1:4254, V-A:GLU:543:CD:4905, V-B:TYR:539:CE2:9845, V-B:ALA:541:CB:9861, V-A:GLU:543:CB:4903, V-A:HIS:456:CD2:4064, V-A:HIS:456:CE1:4066, V-B:HIS:456:CD2:9036, V-B:GLU:543:CG:9876, V-A:ASP:366:CG:3209, V-A:ASP:366:CA:3206, V-B:LYS:547:CE:9919, H-A:TYR:484:OH:4344, V-A:GLY:453:C:4038, V-A:GLY:454:CA:4045, V-A:GLY:453:CA:4040, V-A:TYR:484:CE1:4341, V-A:TYR:484:CZ:4343, H-A:LYS:547:NZ:4948, H-A:GLY:454:N:4046, H-A:HIS:456:NE2:4067, H-A:GLU:543:O:4900"]

$$$$
2a_Grossjean_2025
     RDKit          3D

 29 30  0  0  0  0  0  0  0  0999 V2000
  128.6110  130.1880   73.6630 C   0  0  0  0  0  0  0  0  0  0  0  0
  129.4810  129.8010   72.4630 C   0  0  0  0  0  0  0  0  0  0  0  0
  129.7450  128.4040   72.5060 O   0  0  0  0  0  0  0  0  0  0  0  0
  128.7930  127.5000   72.1570 C   0  0  0  0  0  0  0  0  0  0  0  0
  127.9900  127.0130   72.9590 O   0  0  0  0  0  0  0  0  0  0  0  0
  128.8020  127.1680   70.6920 C   0  0  0  0  0  0  0  0  0  0  0  0
  129.8870  127.4910   69.8650 C   0  0  0  0  0  0  0  0  0  0  0  0
  129.8620  127.1710   68.5110 C   0  0  0  0  0  0  0  0  0  0  0  0
  128.7550  126.5300   67.9540 C   0  0  0  0  0  0  0  0  0  0  0  0
  128.8330  126.2680   66.5740 N   0  0  0  0  0  0  0  0  0  0  0  0
  129.8220  125.6970   65.8540 C   0  0  0  0  0  0  0  0  0  0  0  0
  130.9000  125.3070   66.3030 O   0  0  0  0  0  0  0  0  0  0  0  0
  129.5420  125.5430   64.3550 C   0  0  0  0  0  0  0  0  0  0  0  0
  130.6500  126.5430   63.3070 S   0  0  0  0  0  0  0  0  0  0  0  0
  131.3370  125.5230   62.0080 C   0  0  0  0  0  0  0  0  0  0  0  0
  130.6590  125.5320   60.8310 N   0  0  0  0  0  0  0  0  0  0  0  0
  131.1150  124.7740   59.8090 C   0  0  0  0  0  0  0  0  0  0  0  0
  130.2880  124.8150   58.5370 C   0  0  0  0  0  0  0  0  0  0  0  0
  132.2590  123.9880   59.9080 C   0  0  0  0  0  0  0  0  0  0  0  0
  132.9810  123.9700   61.1120 C   0  0  0  0  0  0  0  0  0  0  0  0
  134.2460  123.0960   61.2050 C   0  0  0  0  0  0  0  0  0  0  0  0
  135.2710  123.8200   61.6540 F   0  0  0  0  0  0  0  0  0  0  0  0
  134.0350  122.0780   62.0400 F   0  0  0  0  0  0  0  0  0  0  0  0
  134.6040  122.5800   60.0260 F   0  0  0  0  0  0  0  0  0  0  0  0
  132.5120  124.7580   62.1940 C   0  0  0  0  0  0  0  0  0  0  0  0
  133.2260  124.7740   63.4750 C   0  0  0  0  0  0  0  0  0  0  0  0
  133.7890  124.7870   64.4860 N   0  0  0  0  0  0  0  0  0  0  0  0
  127.6690  126.1960   68.7770 C   0  0  0  0  0  0  0  0  0  0  0  0
  127.6970  126.5130   70.1320 C   0  0  0  0  0  0  0  0  0  0  0  0
  1  2  1  0
  2  3  1  0
  3  4  1  0
  4  5  2  0
  4  6  1  0
  6  7  2  0
  7  8  1  0
  8  9  2  0
  9 10  1  0
 10 11  1  0
 11 12  2  0
 11 13  1  0
 13 14  1  0
 14 15  1  0
 15 16  2  0
 16 17  1  0
 17 18  1  0
 17 19  2  0
 19 20  1  0
 20 21  1  0
 21 22  1  0
 21 23  1  0
 21 24  1  0
 20 25  2  0
 25 26  1  0
 26 27  3  0
  9 28  1  0
 28 29  2  0
 29  6  1  0
 25 15  1  0
M  END
>  <Binding energies>  (16) 
[-6.92]

>  <Ligand effiencies>  (16) 
[-0.23066666666666666]

>  <Interactions>  (16) 
["V-A:ILE:369:CG1:3234, V-A:ILE:369:CG2:3233, V-A:LEU:475:CD1:4254, V-B:TYR:539:CE2:9845, V-B:GLU:543:C:9871, V-B:GLU:543:CD:9877, V-B:TYR:539:CZ:9846, V-A:HIS:456:CE1:4066, V-B:HIS:456:CD2:9036, V-A:ARG:545:CZ:4923, V-B:GLU:543:CG:9876, V-B:GLY:544:C:9881, V-B:HIS:456:CE1:9038, V-A:ASP:366:CG:3209, V-A:ILE:369:CB:3232, V-B:GLU:543:CB:9875, H-A:TYR:484:OH:4344, V-A:GLY:453:C:4038, V-A:GLY:454:CA:4045, V-A:LYS:547:CE:4947, H-A:ARG:545:NH2:4925, V-A:GLY:453:CA:4040, H-A:LYS:547:NZ:4948, H-B:GLU:543:OE1:9878, H-A:GLY:454:N:4046"]

$$$$
2b_Grossjean_2025
     RDKit          3D

 28 29  0  0  0  0  0  0  0  0999 V2000
  126.2370  127.7970   73.6260 C   0  0  0  0  0  0  0  0  0  0  0  0
  127.3000  127.0550   73.0450 O   0  0  0  0  0  0  0  0  0  0  0  0
  128.4230  127.6730   72.5990 C   0  0  0  0  0  0  0  0  0  0  0  0
  129.1000  128.4380   73.2940 O   0  0  0  0  0  0  0  0  0  0  0  0
  128.7600  127.3380   71.1750 C   0  0  0  0  0  0  0  0  0  0  0  0
  128.0380  126.3790   70.4480 C   0  0  0  0  0  0  0  0  0  0  0  0
  128.3770  126.0900   69.1290 C   0  0  0  0  0  0  0  0  0  0  0  0
  129.4350  126.7540   68.5090 C   0  0  0  0  0  0  0  0  0  0  0  0
  129.6960  126.3810   67.1760 N   0  0  0  0  0  0  0  0  0  0  0  0
  130.7580  126.6650   66.3930 C   0  0  0  0  0  0  0  0  0  0  0  0
  131.7220  127.3590   66.7230 O   0  0  0  0  0  0  0  0  0  0  0  0
  130.7080  126.0690   64.9830 C   0  0  0  0  0  0  0  0  0  0  0  0
  130.2790  124.2970   64.9690 S   0  0  0  0  0  0  0  0  0  0  0  0
  130.9490  123.5180   63.5050 C   0  0  0  0  0  0  0  0  0  0  0  0
  130.0680  122.7970   62.7660 N   0  0  0  0  0  0  0  0  0  0  0  0
  130.5070  122.1760   61.6490 C   0  0  0  0  0  0  0  0  0  0  0  0
  129.4640  121.3800   60.8870 C   0  0  0  0  0  0  0  0  0  0  0  0
  131.8280  122.2530   61.2160 C   0  0  0  0  0  0  0  0  0  0  0  0
  132.7540  123.0000   61.9600 C   0  0  0  0  0  0  0  0  0  0  0  0
  134.2110  123.0780   61.4650 C   0  0  0  0  0  0  0  0  0  0  0  0
  134.8840  121.9940   61.8540 F   0  0  0  0  0  0  0  0  0  0  0  0
  134.2400  123.1500   60.1330 F   0  0  0  0  0  0  0  0  0  0  0  0
  134.8600  124.1450   61.9380 F   0  0  0  0  0  0  0  0  0  0  0  0
  132.3090  123.6510   63.1390 C   0  0  0  0  0  0  0  0  0  0  0  0
  133.2350  124.4390   63.9580 C   0  0  0  0  0  0  0  0  0  0  0  0
  133.9660  125.0610   64.6040 N   0  0  0  0  0  0  0  0  0  0  0  0
  130.1670  127.7080   69.2300 C   0  0  0  0  0  0  0  0  0  0  0  0
  129.8280  127.9950   70.5490 C   0  0  0  0  0  0  0  0  0  0  0  0
  1  2  1  0
  2  3  1  0
  3  4  2  0
  3  5  1  0
  5  6  2  0
  6  7  1  0
  7  8  2  0
  8  9  1  0
  9 10  1  0
 10 11  2  0
 10 12  1  0
 12 13  1  0
 13 14  1  0
 14 15  2  0
 15 16  1  0
 16 17  1  0
 16 18  2  0
 18 19  1  0
 19 20  1  0
 20 21  1  0
 20 22  1  0
 20 23  1  0
 19 24  2  0
 24 25  1  0
 25 26  3  0
  8 27  1  0
 27 28  2  0
 28  5  1  0
 24 14  1  0
M  END
>  <Binding energies>  (17) 
[-7.08]

>  <Ligand effiencies>  (17) 
[-0.24413793103448275]

>  <Interactions>  (17) 
["V-A:ILE:369:CG1:3234, V-A:ILE:369:CG2:3233, V-B:TYR:539:CE2:9845, V-B:ALA:541:CB:9861, V-B:GLU:543:C:9871, V-B:TYR:539:CD2:9843, V-A:HIS:456:CE1:4066, V-B:HIS:456:CD2:9036, V-A:ARG:545:CZ:4923, V-B:GLY:544:C:9881, V-B:HIS:456:CE1:9038, V-A:ASP:366:CG:3209, V-A:ASP:366:CA:3206, V-B:LYS:547:CE:9919, V-A:ILE:369:CB:3232, V-B:GLU:543:CB:9875, H-A:TYR:484:OH:4344, V-A:GLY:453:C:4038, V-A:GLY:454:CA:4045, H-A:ARG:545:NH2:4925, H-A:ARG:545:NE:4921, V-A:GLY:453:CA:4040, H-A:LYS:547:NZ:4948, H-B:GLU:543:OE1:9878, H-A:GLY:454:N:4046, H-A:ARG:545:NH1:4924, V-B:HIS:456:CG:9034, V-B:LYS:547:CD:9918, V-B:HIS:456:CB:9033"]

$$$$
2c_Grossjean_2025
     RDKit          3D

 26 27  0  0  0  0  0  0  0  0999 V2000
  128.2170  128.1140   73.5270 C   0  0  0  0  0  0  0  0  0  0  0  0
  129.4420  127.8480   72.8520 O   0  0  0  0  0  0  0  0  0  0  0  0
  129.4100  127.4580   71.5270 C   0  0  0  0  0  0  0  0  0  0  0  0
  130.3410  128.0570   70.6800 C   0  0  0  0  0  0  0  0  0  0  0  0
  130.3860  127.7300   69.3270 C   0  0  0  0  0  0  0  0  0  0  0  0
  129.4810  126.7950   68.8030 C   0  0  0  0  0  0  0  0  0  0  0  0
  129.4610  126.3870   67.4570 N   0  0  0  0  0  0  0  0  0  0  0  0
  130.4130  126.5520   66.5130 C   0  0  0  0  0  0  0  0  0  0  0  0
  131.4710  127.1600   66.6830 O   0  0  0  0  0  0  0  0  0  0  0  0
  130.0750  125.9480   65.1410 C   0  0  0  0  0  0  0  0  0  0  0  0
  129.9000  124.1290   65.1060 S   0  0  0  0  0  0  0  0  0  0  0  0
  130.5460  123.5000   63.5610 C   0  0  0  0  0  0  0  0  0  0  0  0
  129.6340  122.9260   62.7340 N   0  0  0  0  0  0  0  0  0  0  0  0
  130.0520  122.4200   61.5530 C   0  0  0  0  0  0  0  0  0  0  0  0
  128.9780  121.7810   60.6940 C   0  0  0  0  0  0  0  0  0  0  0  0
  131.3820  122.4710   61.1420 C   0  0  0  0  0  0  0  0  0  0  0  0
  132.3390  123.0660   61.9760 C   0  0  0  0  0  0  0  0  0  0  0  0
  133.8060  123.1170   61.5070 C   0  0  0  0  0  0  0  0  0  0  0  0
  134.4640  122.0450   61.9500 F   0  0  0  0  0  0  0  0  0  0  0  0
  133.8610  123.1390   60.1750 F   0  0  0  0  0  0  0  0  0  0  0  0
  134.4530  124.1970   61.9530 F   0  0  0  0  0  0  0  0  0  0  0  0
  131.9160  123.5970   63.2210 C   0  0  0  0  0  0  0  0  0  0  0  0
  132.8740  124.2290   64.1350 C   0  0  0  0  0  0  0  0  0  0  0  0
  133.6300  124.7280   64.8550 N   0  0  0  0  0  0  0  0  0  0  0  0
  128.5580  126.1800   69.6500 C   0  0  0  0  0  0  0  0  0  0  0  0
  128.5170  126.5100   71.0020 C   0  0  0  0  0  0  0  0  0  0  0  0
  1  2  1  0
  2  3  1  0
  3  4  2  0
  4  5  1  0
  5  6  2  0
  6  7  1  0
  7  8  1  0
  8  9  2  0
  8 10  1  0
 10 11  1  0
 11 12  1  0
 12 13  2  0
 13 14  1  0
 14 15  1  0
 14 16  2  0
 16 17  1  0
 17 18  1  0
 18 19  1  0
 18 20  1  0
 18 21  1  0
 17 22  2  0
 22 23  1  0
 23 24  3  0
  6 25  1  0
 25 26  2  0
 26  3  1  0
 22 12  1  0
M  END
>  <Binding energies>  (18) 
[-6.84]

>  <Ligand effiencies>  (18) 
[-0.25333333333333335]

>  <Interactions>  (18) 
["V-A:ILE:369:CG1:3234, V-A:GLU:543:C:4899, V-A:ILE:369:CG2:3233, V-A:LEU:475:CD1:4254, V-B:TYR:539:CE2:9845, V-B:ALA:541:CB:9861, V-B:GLU:543:C:9871, V-B:TYR:539:CD2:9843, V-A:HIS:456:CE1:4066, V-B:HIS:456:CD2:9036, V-A:ASP:366:CG:3209, V-A:ILE:369:CB:3232, H-A:TYR:484:OH:4344, V-A:GLY:453:C:4038, V-A:GLY:454:CA:4045, V-A:GLY:453:CA:4040, V-A:GLY:544:C:4909, H-A:LYS:547:NZ:4948, H-B:GLU:543:OE1:9878, H-A:GLY:454:N:4046"]

$$$$
2d_Ghoteimi_2023
     RDKit          3D

 38 42  0  0  0  0  0  0  0  0999 V2000
  135.7210  123.7960   60.9080 C   0  0  0  0  0  0  0  0  0  0  0  0
  134.6200  122.9170   61.0830 O   0  0  0  0  0  0  0  0  0  0  0  0
  133.6250  123.2270   61.9390 C   0  0  0  0  0  0  0  0  0  0  0  0
  133.6960  124.0560   62.8510 O   0  0  0  0  0  0  0  0  0  0  0  0
  132.3560  122.4150   61.6380 C   0  0  0  0  0  0  0  0  0  0  0  0
  131.1200  122.6020   62.9680 S   0  0  0  0  0  0  0  0  0  0  0  0
  130.6870  124.3260   63.0910 C   0  0  0  0  0  0  0  0  0  0  0  0
  130.4610  124.7310   64.3640 N   0  0  0  0  0  0  0  0  0  0  0  0
  130.1140  126.0210   64.6060 C   0  0  0  0  0  0  0  0  0  0  0  0
  129.8640  126.3890   66.0330 C   0  0  0  0  0  0  0  0  0  0  0  0
  128.7780  125.8470   66.7290 C   0  0  0  0  0  0  0  0  0  0  0  0
  128.5390  126.1860   68.0580 C   0  0  0  0  0  0  0  0  0  0  0  0
  129.3840  127.0720   68.7430 C   0  0  0  0  0  0  0  0  0  0  0  0
  129.1470  127.4380   70.0730 N   0  0  0  0  0  0  0  0  0  0  0  0
  128.3630  126.5780   70.9820 C   0  0  0  0  0  0  0  0  0  0  0  0
  127.8950  127.2980   72.2640 C   0  0  0  0  0  0  0  0  0  0  0  0
  129.0100  127.8610   72.9370 O   0  0  0  0  0  0  0  0  0  0  0  0
  129.6830  128.8110   72.1270 C   0  0  0  0  0  0  0  0  0  0  0  0
  130.2000  128.1370   70.8380 C   0  0  0  0  0  0  0  0  0  0  0  0
  130.4630  127.6240   68.0380 C   0  0  0  0  0  0  0  0  0  0  0  0
  130.7000  127.2870   66.7080 C   0  0  0  0  0  0  0  0  0  0  0  0
  129.9910  126.9420   63.5630 C   0  0  0  0  0  0  0  0  0  0  0  0
  130.2520  126.5570   62.2420 C   0  0  0  0  0  0  0  0  0  0  0  0
  130.1270  127.6020   61.1820 C   0  0  0  0  0  0  0  0  0  0  0  0
  129.1410  127.4920   60.2000 C   0  0  0  0  0  0  0  0  0  0  0  0
  129.0080  128.4660   59.2150 C   0  0  0  0  0  0  0  0  0  0  0  0
  129.8630  129.5800   59.1820 C   0  0  0  0  0  0  0  0  0  0  0  0
  129.7400  130.5770   58.2100 N   0  0  0  0  0  0  0  0  0  0  0  0
  130.9070  131.3600   57.7590 C   0  0  0  0  0  0  0  0  0  0  0  0
  130.6540  132.1430   56.4530 C   0  0  0  0  0  0  0  0  0  0  0  0
  129.5120  132.9720   56.5970 O   0  0  0  0  0  0  0  0  0  0  0  0
  128.3480  132.2150   56.8890 C   0  0  0  0  0  0  0  0  0  0  0  0
  128.5400  131.4370   58.2090 C   0  0  0  0  0  0  0  0  0  0  0  0
  130.8390  129.6910   60.1820 C   0  0  0  0  0  0  0  0  0  0  0  0
  130.9700  128.7170   61.1680 C   0  0  0  0  0  0  0  0  0  0  0  0
  130.6160  125.2110   61.9900 C   0  0  0  0  0  0  0  0  0  0  0  0
  130.9180  124.7650   60.6270 C   0  0  0  0  0  0  0  0  0  0  0  0
  131.1550  124.4170   59.5480 N   0  0  0  0  0  0  0  0  0  0  0  0
  1  2  1  0
  2  3  1  0
  3  4  2  0
  3  5  1  0
  5  6  1  0
  6  7  1  0
  7  8  2  0
  8  9  1  0
  9 10  1  0
 10 11  2  0
 11 12  1  0
 12 13  2  0
 13 14  1  0
 14 15  1  0
 15 16  1  0
 16 17  1  0
 17 18  1  0
 18 19  1  0
 13 20  1  0
 20 21  2  0
  9 22  2  0
 22 23  1  0
 23 24  1  0
 24 25  2  0
 25 26  1  0
 26 27  2  0
 27 28  1  0
 28 29  1  0
 29 30  1  0
 30 31  1  0
 31 32  1  0
 32 33  1  0
 27 34  1  0
 34 35  2  0
 23 36  2  0
 36 37  1  0
 37 38  3  0
 36  7  1  0
 21 10  1  0
 35 24  1  0
 19 14  1  0
 33 28  1  0
M  END
>  <Binding energies>  (19) 
[-8.5]

>  <Ligand effiencies>  (19) 
[-0.2236842105263158]

>  <Interactions>  (19) 
["V-A:ILE:369:CG1:3234, V-A:GLU:543:C:4899, V-A:LEU:475:CD1:4254, V-A:GLU:543:CD:4905, V-B:TYR:539:CE2:9845, V-B:GLU:543:CD:9877, V-A:GLU:543:CB:4903, V-A:HIS:456:CE1:4066, V-B:HIS:456:CD2:9036, V-B:GLU:543:CG:9876, V-B:HIS:456:CE1:9038, V-A:ASP:366:CG:3209, V-A:ASP:366:CA:3206, V-B:LYS:547:CE:9919, V-A:ILE:369:CB:3232, V-B:GLU:543:CB:9875, V-A:GLY:453:C:4038, H-B:TYR:539:OH:9847, V-A:GLY:454:CA:4045, V-A:LYS:547:CE:4947, V-A:GLY:453:CA:4040, V-A:GLY:544:C:4909, H-A:LYS:547:NZ:4948, H-A:GLY:454:N:4046, V-A:PRO:540:CA:4880, V-A:CYS:365:C:3200, V-A:TYR:539:C:4864, V-A:PRO:540:N:4881, V-A:TYR:539:CD2:4871, V-A:TYR:539:CE2:4873, V-A:TYR:539:CZ:4874, H-A:TYR:539:N:4867"]

$$$$
2d_Grossjean_2025
     RDKit          3D

 24 25  0  0  0  0  0  0  0  0999 V2000
  135.0660  123.4110   61.2630 C   0  0  0  0  0  0  0  0  0  0  0  0
  133.8170  123.4360   62.1240 C   0  0  0  0  0  0  0  0  0  0  0  0
  132.7720  122.5390   61.9180 C   0  0  0  0  0  0  0  0  0  0  0  0
  131.6400  122.5980   62.7430 C   0  0  0  0  0  0  0  0  0  0  0  0
  130.4970  121.5910   62.5070 C   0  0  0  0  0  0  0  0  0  0  0  0
  130.1710  120.9940   63.6540 F   0  0  0  0  0  0  0  0  0  0  0  0
  129.4230  122.2220   62.0280 F   0  0  0  0  0  0  0  0  0  0  0  0
  130.8230  120.6360   61.6350 F   0  0  0  0  0  0  0  0  0  0  0  0
  131.5950  123.5830   63.7630 C   0  0  0  0  0  0  0  0  0  0  0  0
  130.4550  123.6570   64.6810 C   0  0  0  0  0  0  0  0  0  0  0  0
  129.5560  123.7130   65.4070 N   0  0  0  0  0  0  0  0  0  0  0  0
  132.6920  124.4680   63.8820 C   0  0  0  0  0  0  0  0  0  0  0  0
  132.7870  125.7810   65.0850 S   0  0  0  0  0  0  0  0  0  0  0  0
  131.1640  126.6050   65.1810 C   0  0  0  0  0  0  0  0  0  0  0  0
  130.7740  126.9940   66.6100 C   0  0  0  0  0  0  0  0  0  0  0  0
  131.4790  127.7940   67.2260 O   0  0  0  0  0  0  0  0  0  0  0  0
  129.6720  126.3880   67.1000 N   0  0  0  0  0  0  0  0  0  0  0  0
  129.0630  126.5350   68.3610 C   0  0  0  0  0  0  0  0  0  0  0  0
  129.8650  127.0750   69.3690 C   0  0  0  0  0  0  0  0  0  0  0  0
  129.3540  127.2540   70.6520 C   0  0  0  0  0  0  0  0  0  0  0  0
  128.0400  126.8830   70.9290 C   0  0  0  0  0  0  0  0  0  0  0  0
  127.2360  126.3310   69.9350 C   0  0  0  0  0  0  0  0  0  0  0  0
  127.7430  126.1520   68.6520 C   0  0  0  0  0  0  0  0  0  0  0  0
  133.7880  124.3830   63.0890 N   0  0  0  0  0  0  0  0  0  0  0  0
  1  2  1  0
  2  3  2  0
  3  4  1  0
  4  5  1  0
  5  6  1  0
  5  7  1  0
  5  8  1  0
  4  9  2  0
  9 10  1  0
 10 11  3  0
  9 12  1  0
 12 13  1  0
 13 14  1  0
 14 15  1  0
 15 16  2  0
 15 17  1  0
 17 18  1  0
 18 19  2  0
 19 20  1  0
 20 21  2  0
 21 22  1  0
 22 23  2  0
 12 24  2  0
 24  2  1  0
 23 18  1  0
M  END
>  <Binding energies>  (20) 
[-6.28]

>  <Ligand effiencies>  (20) 
[-0.25120000000000003]

>  <Interactions>  (20) 
["V-A:ILE:369:CG1:3234, V-A:LEU:475:CD1:4254, V-A:GLU:543:CD:4905, V-B:GLY:544:CA:9883, V-B:TYR:539:CE2:9845, V-B:ALA:541:CB:9861, V-B:GLU:543:C:9871, V-A:GLU:543:CB:4903, V-A:HIS:456:CD2:4064, V-B:TYR:539:CD2:9843, V-A:HIS:456:CE1:4066, V-B:HIS:456:CD2:9036, V-B:GLU:543:CG:9876, V-B:GLY:544:C:9881, V-B:HIS:456:CE1:9038, V-A:ILE:369:CB:3232, V-B:GLU:543:CB:9875, H-A:TYR:484:OH:4344, V-A:GLY:453:C:4038, V-A:GLY:454:CA:4045, V-B:GLU:543:CA:9873, H-A:ARG:545:NH2:4925, H-A:ARG:545:NE:4921, V-A:GLY:453:CA:4040, V-A:TYR:484:CE1:4341, V-A:TYR:484:CZ:4343, H-B:GLU:543:OE1:9878, H-A:GLY:454:N:4046, V-A:LEU:475:CD2:4255, V-A:LEU:475:CG:4253"]

$$$$
2e_Grossjean_2025
     RDKit          3D

 25 26  0  0  0  0  0  0  0  0999 V2000
  127.3930  122.5370   56.6790 C   0  0  0  0  0  0  0  0  0  0  0  0
  127.7270  122.7510   58.1430 C   0  0  0  0  0  0  0  0  0  0  0  0
  126.7280  122.9500   59.0990 C   0  0  0  0  0  0  0  0  0  0  0  0
  127.1090  123.1290   60.4300 C   0  0  0  0  0  0  0  0  0  0  0  0
  128.4650  123.1050   60.7690 C   0  0  0  0  0  0  0  0  0  0  0  0
  129.4140  122.9100   59.7590 C   0  0  0  0  0  0  0  0  0  0  0  0
  130.7590  122.8510   60.1610 N   0  0  0  0  0  0  0  0  0  0  0  0
  131.2640  122.3550   61.3130 C   0  0  0  0  0  0  0  0  0  0  0  0
  130.6050  121.7930   62.1890 O   0  0  0  0  0  0  0  0  0  0  0  0
  132.7660  122.5680   61.5280 C   0  0  0  0  0  0  0  0  0  0  0  0
  133.2220  124.3300   61.4740 S   0  0  0  0  0  0  0  0  0  0  0  0
  132.9230  124.9490   63.1150 C   0  0  0  0  0  0  0  0  0  0  0  0
  133.9730  124.8260   63.9650 N   0  0  0  0  0  0  0  0  0  0  0  0
  133.8170  125.2300   65.2460 C   0  0  0  0  0  0  0  0  0  0  0  0
  135.0290  125.0650   66.1410 C   0  0  0  0  0  0  0  0  0  0  0  0
  132.6210  125.7610   65.7270 C   0  0  0  0  0  0  0  0  0  0  0  0
  131.5230  125.8860   64.8630 C   0  0  0  0  0  0  0  0  0  0  0  0
  130.2020  126.4540   65.4150 C   0  0  0  0  0  0  0  0  0  0  0  0
  129.3180  125.4720   65.5900 F   0  0  0  0  0  0  0  0  0  0  0  0
  130.4190  127.0550   66.5860 F   0  0  0  0  0  0  0  0  0  0  0  0
  129.6470  127.3530   64.5990 F   0  0  0  0  0  0  0  0  0  0  0  0
  131.6720  125.4720   63.5160 C   0  0  0  0  0  0  0  0  0  0  0  0
  130.5540  125.5490   62.5710 C   0  0  0  0  0  0  0  0  0  0  0  0
  129.6700  125.6090   61.8260 N   0  0  0  0  0  0  0  0  0  0  0  0
  129.0480  122.7270   58.4570 N   0  0  0  0  0  0  0  0  0  0  0  0
  1  2  1  0
  2  3  2  0
  3  4  1  0
  4  5  2  0
  5  6  1  0
  6  7  1  0
  7  8  1  0
  8  9  2  0
  8 10  1  0
 10 11  1  0
 11 12  1  0
 12 13  2  0
 13 14  1  0
 14 15  1  0
 14 16  2  0
 16 17  1  0
 17 18  1  0
 18 19  1  0
 18 20  1  0
 18 21  1  0
 17 22  2  0
 22 23  1  0
 23 24  3  0
  6 25  2  0
 25  2  1  0
 22 12  1  0
M  END
>  <Binding energies>  (21) 
[-6.39]

>  <Ligand effiencies>  (21) 
[-0.24576923076923077]

>  <Interactions>  (21) 
["V-A:GLU:543:CD:4905, V-B:TYR:539:CE2:9845, V-B:ALA:541:CB:9861, V-B:PRO:540:CA:9852, V-B:GLU:543:CD:9877, V-A:GLU:543:CB:4903, V-B:TYR:539:CZ:9846, V-B:TYR:539:CD2:9843, V-B:TYR:539:CE1:9844, V-A:HIS:456:CE1:4066, V-A:ARG:545:CZ:4923, V-B:GLU:543:CG:9876, V-B:GLU:543:CB:9875, V-A:GLY:453:C:4038, V-B:TYR:539:C:9836, H-B:TYR:539:OH:9847, V-A:GLY:454:CA:4045, V-A:GLY:454:C:4043, H-A:ARG:545:NH2:4925, V-A:ARG:545:CG:4919, V-A:GLY:453:CA:4040, V-A:ARG:545:CD:4920, V-B:TYR:539:CD1:9842, V-B:PRO:540:N:9853, H-A:GLY:454:N:4046, H-A:ARG:545:NH1:4924, V-B:PRO:540:CB:9854, V-A:ILE:455:C:4048"]

$$$$
2f_Grossjean_2025
     RDKit          3D

 24 25  0  0  0  0  0  0  0  0999 V2000
  135.0660  123.4900   61.1300 C   0  0  0  0  0  0  0  0  0  0  0  0
  133.8460  123.4620   62.0320 C   0  0  0  0  0  0  0  0  0  0  0  0
  132.7860  122.5890   61.7990 C   0  0  0  0  0  0  0  0  0  0  0  0
  131.6760  122.6070   62.6580 C   0  0  0  0  0  0  0  0  0  0  0  0
  130.5080  121.6420   62.3770 C   0  0  0  0  0  0  0  0  0  0  0  0
  130.8550  120.7660   61.4310 F   0  0  0  0  0  0  0  0  0  0  0  0
  130.1920  120.9750   63.4870 F   0  0  0  0  0  0  0  0  0  0  0  0
  129.4080  122.2690   61.9560 F   0  0  0  0  0  0  0  0  0  0  0  0
  131.6750  123.5160   63.7470 C   0  0  0  0  0  0  0  0  0  0  0  0
  130.5160  123.6120   64.6370 C   0  0  0  0  0  0  0  0  0  0  0  0
  129.6000  123.6870   65.3410 N   0  0  0  0  0  0  0  0  0  0  0  0
  132.8080  124.3470   63.9210 C   0  0  0  0  0  0  0  0  0  0  0  0
  132.9820  125.5360   65.2360 S   0  0  0  0  0  0  0  0  0  0  0  0
  131.4910  126.5890   65.2490 C   0  0  0  0  0  0  0  0  0  0  0  0
  130.9990  127.0040   66.6430 C   0  0  0  0  0  0  0  0  0  0  0  0
  131.6090  127.8500   67.2980 O   0  0  0  0  0  0  0  0  0  0  0  0
  129.8890  126.3570   67.0600 N   0  0  0  0  0  0  0  0  0  0  0  0
  129.1720  126.4960   68.2640 C   0  0  0  0  0  0  0  0  0  0  0  0
  127.8270  126.1330   68.4590 C   0  0  0  0  0  0  0  0  0  0  0  0
  127.2350  126.3200   69.7090 C   0  0  0  0  0  0  0  0  0  0  0  0
  128.0060  126.8630   70.7380 C   0  0  0  0  0  0  0  0  0  0  0  0
  129.3070  127.2140   70.5780 N   0  0  0  0  0  0  0  0  0  0  0  0
  129.8680  127.0250   69.3570 C   0  0  0  0  0  0  0  0  0  0  0  0
  133.8610  124.3320   63.0680 N   0  0  0  0  0  0  0  0  0  0  0  0
  1  2  1  0
  2  3  2  0
  3  4  1  0
  4  5  1  0
  5  6  1  0
  5  7  1  0
  5  8  1  0
  4  9  2  0
  9 10  1  0
 10 11  3  0
  9 12  1  0
 12 13  1  0
 13 14  1  0
 14 15  1  0
 15 16  2  0
 15 17  1  0
 17 18  1  0
 18 19  2  0
 19 20  1  0
 20 21  2  0
 21 22  1  0
 22 23  2  0
 12 24  2  0
 24  2  1  0
 23 18  1  0
M  END
>  <Binding energies>  (22) 
[-6.04]

>  <Ligand effiencies>  (22) 
[-0.2416]

>  <Interactions>  (22) 
["V-A:ILE:369:CG1:3234, V-A:LEU:475:CD1:4254, V-A:GLU:543:CD:4905, V-B:GLY:544:CA:9883, V-B:TYR:539:CE2:9845, V-B:ALA:541:CB:9861, V-B:GLU:543:C:9871, V-A:GLU:543:CB:4903, V-A:HIS:456:CD2:4064, V-B:TYR:539:CD2:9843, V-A:HIS:456:CE1:4066, V-B:HIS:456:CD2:9036, V-A:ARG:545:CZ:4923, V-B:GLY:544:C:9881, V-B:HIS:456:CE1:9038, V-A:ASP:366:CG:3209, V-A:ASP:366:CA:3206, V-A:ILE:369:CB:3232, V-B:GLU:543:CB:9875, H-A:TYR:484:OH:4344, V-A:GLY:453:C:4038, V-A:GLY:454:CA:4045, V-B:GLU:543:CA:9873, H-A:ARG:545:NH2:4925, H-A:ARG:545:NE:4921, V-A:GLY:453:CA:4040, V-A:TYR:484:CE1:4341, V-A:TYR:484:CZ:4343, H-A:GLY:454:N:4046, V-A:LEU:475:CD2:4255, V-A:LEU:475:CG:4253"]

$$$$
2g_Grossjean_2025
     RDKit          3D

 25 26  0  0  0  0  0  0  0  0999 V2000
  135.0930  123.6030   60.8810 C   0  0  0  0  0  0  0  0  0  0  0  0
  133.8790  123.3760   61.7620 C   0  0  0  0  0  0  0  0  0  0  0  0
  132.9290  122.4050   61.4560 C   0  0  0  0  0  0  0  0  0  0  0  0
  131.8190  122.2380   62.2980 C   0  0  0  0  0  0  0  0  0  0  0  0
  130.7720  121.1650   61.9390 C   0  0  0  0  0  0  0  0  0  0  0  0
  129.8090  121.6930   61.1820 F   0  0  0  0  0  0  0  0  0  0  0  0
  131.3560  120.1720   61.2670 F   0  0  0  0  0  0  0  0  0  0  0  0
  130.1870  120.6340   63.0150 F   0  0  0  0  0  0  0  0  0  0  0  0
  131.7070  123.0640   63.4460 C   0  0  0  0  0  0  0  0  0  0  0  0
  130.5390  122.9690   64.3260 C   0  0  0  0  0  0  0  0  0  0  0  0
  129.6170  122.8940   65.0210 N   0  0  0  0  0  0  0  0  0  0  0  0
  132.7380  124.0030   63.6920 C   0  0  0  0  0  0  0  0  0  0  0  0
  132.7680  125.0980   65.0950 S   0  0  0  0  0  0  0  0  0  0  0  0
  131.1610  125.9620   65.1520 C   0  0  0  0  0  0  0  0  0  0  0  0
  131.0010  126.9430   66.3210 C   0  0  0  0  0  0  0  0  0  0  0  0
  131.9790  127.4540   66.8700 O   0  0  0  0  0  0  0  0  0  0  0  0
  129.7330  127.1900   66.6980 N   0  0  0  0  0  0  0  0  0  0  0  0
  129.3280  128.0930   67.7770 C   0  0  0  0  0  0  0  0  0  0  0  0
  129.2130  127.4260   69.1440 C   0  0  0  0  0  0  0  0  0  0  0  0
  130.1320  127.7390   70.1500 C   0  0  0  0  0  0  0  0  0  0  0  0
  130.0060  127.1600   71.4110 C   0  0  0  0  0  0  0  0  0  0  0  0
  128.9580  126.2790   71.6640 C   0  0  0  0  0  0  0  0  0  0  0  0
  128.0310  125.9730   70.6690 C   0  0  0  0  0  0  0  0  0  0  0  0
  128.1550  126.5520   69.4090 C   0  0  0  0  0  0  0  0  0  0  0  0
  133.7920  124.1660   62.8550 N   0  0  0  0  0  0  0  0  0  0  0  0
  1  2  1  0
  2  3  2  0
  3  4  1  0
  4  5  1  0
  5  6  1  0
  5  7  1  0
  5  8  1  0
  4  9  2  0
  9 10  1  0
 10 11  3  0
  9 12  1  0
 12 13  1  0
 13 14  1  0
 14 15  1  0
 15 16  2  0
 15 17  1  0
 17 18  1  0
 18 19  1  0
 19 20  2  0
 20 21  1  0
 21 22  2  0
 22 23  1  0
 23 24  2  0
 12 25  2  0
 25  2  1  0
 24 19  1  0
M  END
>  <Binding energies>  (23) 
[-6.8]

>  <Ligand effiencies>  (23) 
[-0.26153846153846155]

>  <Interactions>  (23) 
["V-A:ILE:369:CG1:3234, V-A:LEU:475:CD1:4254, V-A:GLU:543:CD:4905, V-B:GLY:544:CA:9883, V-B:TYR:539:CE2:9845, V-B:ALA:541:CB:9861, V-B:GLU:543:C:9871, V-A:GLU:543:CB:4903, V-A:HIS:456:CD2:4064, V-B:TYR:539:CD2:9843, V-A:HIS:456:CE1:4066, V-B:GLY:544:C:9881, V-B:HIS:456:CE1:9038, V-A:ASP:366:CG:3209, V-A:ASP:366:CA:3206, V-B:LYS:547:CE:9919, V-A:ILE:369:CB:3232, H-A:TYR:484:OH:4344, V-A:GLY:453:C:4038, V-A:GLY:454:CA:4045, H-A:ARG:545:NE:4921, V-A:GLY:453:CA:4040, V-A:TYR:484:CE1:4341, V-A:TYR:484:CZ:4343, H-B:GLU:543:OE1:9878, H-A:GLY:454:N:4046, V-A:LEU:475:CD2:4255, V-A:LEU:475:CG:4253"]

$$$$
2h_Grossjean_2025
     RDKit          3D

 31 32  0  0  0  0  0  0  0  0999 V2000
  130.1670  125.7170   73.7200 C   0  0  0  0  0  0  0  0  0  0  0  0
  129.4610  126.8130   73.1490 O   0  0  0  0  0  0  0  0  0  0  0  0
  129.0750  126.7540   71.8210 C   0  0  0  0  0  0  0  0  0  0  0  0
  128.0830  125.8900   71.3310 C   0  0  0  0  0  0  0  0  0  0  0  0
  127.7420  125.8940   69.9810 C   0  0  0  0  0  0  0  0  0  0  0  0
  128.3830  126.7570   69.0910 C   0  0  0  0  0  0  0  0  0  0  0  0
  127.9780  126.7570   67.6180 C   0  0  0  0  0  0  0  0  0  0  0  0
  129.1110  126.8530   66.6980 N   0  0  0  0  0  0  0  0  0  0  0  0
  129.9810  125.8600   66.4410 C   0  0  0  0  0  0  0  0  0  0  0  0
  129.9590  124.7750   67.0260 O   0  0  0  0  0  0  0  0  0  0  0  0
  131.0190  126.1540   65.3490 C   0  0  0  0  0  0  0  0  0  0  0  0
  132.5280  125.1330   65.4250 S   0  0  0  0  0  0  0  0  0  0  0  0
  132.5200  124.0950   63.9790 C   0  0  0  0  0  0  0  0  0  0  0  0
  133.6130  124.2480   63.1920 N   0  0  0  0  0  0  0  0  0  0  0  0
  133.7010  123.5200   62.0560 C   0  0  0  0  0  0  0  0  0  0  0  0
  134.9470  123.7480   61.2220 C   0  0  0  0  0  0  0  0  0  0  0  0
  132.7160  122.6150   61.6650 C   0  0  0  0  0  0  0  0  0  0  0  0
  131.5880  122.4280   62.4770 C   0  0  0  0  0  0  0  0  0  0  0  0
  130.5140  121.4160   62.0330 C   0  0  0  0  0  0  0  0  0  0  0  0
  131.0450  120.5300   61.1900 F   0  0  0  0  0  0  0  0  0  0  0  0
  129.9920  120.7340   63.0550 F   0  0  0  0  0  0  0  0  0  0  0  0
  129.5130  122.0500   61.4200 F   0  0  0  0  0  0  0  0  0  0  0  0
  131.4840  123.1790   63.6760 C   0  0  0  0  0  0  0  0  0  0  0  0
  130.3550  122.9780   64.5880 C   0  0  0  0  0  0  0  0  0  0  0  0
  129.4650  122.8150   65.3080 N   0  0  0  0  0  0  0  0  0  0  0  0
  129.3930  127.6090   69.5620 C   0  0  0  0  0  0  0  0  0  0  0  0
  130.0300  128.4610   68.6910 O   0  0  0  0  0  0  0  0  0  0  0  0
  131.3760  128.1040   68.4020 C   0  0  0  0  0  0  0  0  0  0  0  0
  129.7220  127.6180   70.9280 C   0  0  0  0  0  0  0  0  0  0  0  0
  130.6980  128.4650   71.3970 O   0  0  0  0  0  0  0  0  0  0  0  0
  130.2010  129.5730   72.1340 C   0  0  0  0  0  0  0  0  0  0  0  0
  1  2  1  0
  2  3  1  0
  3  4  2  0
  4  5  1  0
  5  6  2  0
  6  7  1  0
  7  8  1  0
  8  9  1  0
  9 10  2  0
  9 11  1  0
 11 12  1  0
 12 13  1  0
 13 14  2  0
 14 15  1  0
 15 16  1  0
 15 17  2  0
 17 18  1  0
 18 19  1  0
 19 20  1  0
 19 21  1  0
 19 22  1  0
 18 23  2  0
 23 24  1  0
 24 25  3  0
  6 26  1  0
 26 27  1  0
 27 28  1  0
 26 29  2  0
 29 30  1  0
 30 31  1  0
 29  3  1  0
 23 13  1  0
M  END
>  <Binding energies>  (24) 
[-6.32]

>  <Ligand effiencies>  (24) 
[-0.1975]

>  <Interactions>  (24) 
["V-A:ILE:369:CG1:3234, V-A:GLU:543:C:4899, V-A:LEU:475:CD1:4254, V-B:GLY:544:CA:9883, V-B:TYR:539:CE2:9845, V-B:ALA:541:CB:9861, V-B:GLU:543:C:9871, V-B:GLU:543:CD:9877, V-A:GLU:543:CB:4903, V-A:HIS:456:CD2:4064, V-B:TYR:539:CD2:9843, V-A:HIS:456:CE1:4066, V-B:HIS:456:CD2:9036, V-B:GLU:543:CG:9876, V-B:GLY:544:C:9881, V-B:HIS:456:CE1:9038, V-A:ASP:366:CG:3209, V-A:ASP:366:CA:3206, V-B:LYS:547:CE:9919, V-B:GLU:543:CB:9875, H-A:TYR:484:OH:4344, V-A:GLY:453:C:4038, V-A:GLY:454:CA:4045, V-A:LYS:547:CE:4947, V-A:GLY:544:CA:4911, V-A:ARG:545:CG:4919, V-A:GLY:453:CA:4040, V-A:TYR:484:CE1:4341, V-A:GLY:544:C:4909, V-A:TYR:484:CZ:4343, H-A:LYS:547:NZ:4948, H-A:GLU:543:OE1:4906, H-A:GLY:454:N:4046, V-A:LEU:475:CD2:4255, V-A:LEU:475:CG:4253"]

$$$$
2i_Grossjean_2025
     RDKit          3D

 23 24  0  0  0  0  0  0  0  0999 V2000
  134.4590  125.1050   66.1000 C   0  0  0  0  0  0  0  0  0  0  0  0
  133.2440  125.2230   65.1990 C   0  0  0  0  0  0  0  0  0  0  0  0
  133.2410  124.7060   63.9060 C   0  0  0  0  0  0  0  0  0  0  0  0
  132.0920  124.8380   63.1130 C   0  0  0  0  0  0  0  0  0  0  0  0
  132.1060  124.2610   61.6850 C   0  0  0  0  0  0  0  0  0  0  0  0
  133.3280  123.8190   61.3840 F   0  0  0  0  0  0  0  0  0  0  0  0
  131.2440  123.2480   61.5910 F   0  0  0  0  0  0  0  0  0  0  0  0
  131.7670  125.1630   60.7600 F   0  0  0  0  0  0  0  0  0  0  0  0
  130.9630  125.5000   63.6610 C   0  0  0  0  0  0  0  0  0  0  0  0
  129.7350  125.6650   62.8770 C   0  0  0  0  0  0  0  0  0  0  0  0
  128.7660  125.7950   62.2590 N   0  0  0  0  0  0  0  0  0  0  0  0
  131.0540  125.9960   64.9820 C   0  0  0  0  0  0  0  0  0  0  0  0
  129.7010  126.8520   65.7730 S   0  0  0  0  0  0  0  0  0  0  0  0
  130.3580  127.7280   67.2250 C   0  0  0  0  0  0  0  0  0  0  0  0
  129.8450  127.1380   68.5390 C   0  0  0  0  0  0  0  0  0  0  0  0
  129.4620  125.9670   68.5610 O   0  0  0  0  0  0  0  0  0  0  0  0
  129.8280  127.9800   69.5950 N   0  0  0  0  0  0  0  0  0  0  0  0
  129.3950  127.6890   70.8780 C   0  0  0  0  0  0  0  0  0  0  0  0
  128.2690  126.9740   71.3110 C   0  0  0  0  0  0  0  0  0  0  0  0
  128.3460  126.9990   72.6850 C   0  0  0  0  0  0  0  0  0  0  0  0
  129.4560  127.6810   73.0550 O   0  0  0  0  0  0  0  0  0  0  0  0
  130.1130  128.1070   71.8980 N   0  0  0  0  0  0  0  0  0  0  0  0
  132.1760  125.8560   65.7340 N   0  0  0  0  0  0  0  0  0  0  0  0
  1  2  1  0
  2  3  2  0
  3  4  1  0
  4  5  1  0
  5  6  1  0
  5  7  1  0
  5  8  1  0
  4  9  2  0
  9 10  1  0
 10 11  3  0
  9 12  1  0
 12 13  1  0
 13 14  1  0
 14 15  1  0
 15 16  2  0
 15 17  1  0
 17 18  1  0
 18 19  1  0
 19 20  2  0
 20 21  1  0
 21 22  1  0
 12 23  2  0
 23  2  1  0
 22 18  2  0
M  END
>  <Binding energies>  (25) 
[-6.09]

>  <Ligand effiencies>  (25) 
[-0.25375]

>  <Interactions>  (25) 
["V-A:GLU:543:C:4899, V-A:GLU:543:CD:4905, V-A:GLU:543:CB:4903, V-A:HIS:456:CE1:4066, V-B:HIS:456:CD2:9036, V-A:ARG:545:CZ:4923, V-A:ASP:366:CG:3209, V-B:LYS:547:CE:9919, H-A:TYR:484:OH:4344, V-A:GLY:453:C:4038, V-A:GLY:454:CA:4045, V-A:GLY:454:C:4043, H-A:ARG:545:NE:4921, V-A:ARG:545:CG:4919, V-A:ARG:545:CD:4920, H-A:LYS:547:NZ:4948, H-B:HIS:456:NE2:9039, H-A:GLU:543:O:4900"]

$$$$
2k_Grossjean_2025
     RDKit          3D

 28 28  0  0  0  0  0  0  0  0999 V2000
  134.0010  125.6450   74.4150 C   0  0  0  0  0  0  0  0  0  0  0  0
  132.5970  125.8460   74.4630 O   0  0  0  0  0  0  0  0  0  0  0  0
  131.8510  124.6350   74.4810 C   0  0  0  0  0  0  0  0  0  0  0  0
  130.5810  124.7960   73.6360 C   0  0  0  0  0  0  0  0  0  0  0  0
  130.4790  126.1460   73.2060 O   0  0  0  0  0  0  0  0  0  0  0  0
  129.2870  126.4420   72.4890 C   0  0  0  0  0  0  0  0  0  0  0  0
  129.6680  126.8390   71.0570 C   0  0  0  0  0  0  0  0  0  0  0  0
  129.1120  125.8740   70.1760 O   0  0  0  0  0  0  0  0  0  0  0  0
  128.9310  126.3110   68.8380 C   0  0  0  0  0  0  0  0  0  0  0  0
  129.1820  125.1260   67.8870 C   0  0  0  0  0  0  0  0  0  0  0  0
  130.2170  125.4040   66.8870 N   0  0  0  0  0  0  0  0  0  0  0  0
  130.1470  126.3490   65.9300 C   0  0  0  0  0  0  0  0  0  0  0  0
  129.1940  127.1210   65.8070 O   0  0  0  0  0  0  0  0  0  0  0  0
  131.3370  126.4050   64.9610 C   0  0  0  0  0  0  0  0  0  0  0  0
  132.6010  125.1070   65.1980 S   0  0  0  0  0  0  0  0  0  0  0  0
  132.6140  124.0240   63.7770 C   0  0  0  0  0  0  0  0  0  0  0  0
  133.6830  124.1490   62.9500 N   0  0  0  0  0  0  0  0  0  0  0  0
  133.7560  123.3640   61.8520 C   0  0  0  0  0  0  0  0  0  0  0  0
  134.9740  123.5730   60.9740 C   0  0  0  0  0  0  0  0  0  0  0  0
  132.7830  122.4190   61.5390 C   0  0  0  0  0  0  0  0  0  0  0  0
  131.6730  122.2660   62.3830 C   0  0  0  0  0  0  0  0  0  0  0  0
  130.6080  121.2120   62.0240 C   0  0  0  0  0  0  0  0  0  0  0  0
  130.0630  120.6410   63.0990 F   0  0  0  0  0  0  0  0  0  0  0  0
  129.6220  121.7780   61.3270 F   0  0  0  0  0  0  0  0  0  0  0  0
  131.1550  120.2430   61.2890 F   0  0  0  0  0  0  0  0  0  0  0  0
  131.5790  123.0890   63.5340 C   0  0  0  0  0  0  0  0  0  0  0  0
  130.4390  122.9740   64.4490 C   0  0  0  0  0  0  0  0  0  0  0  0
  129.5390  122.8820   65.1720 N   0  0  0  0  0  0  0  0  0  0  0  0
  1  2  1  0
  2  3  1  0
  3  4  1  0
  4  5  1  0
  5  6  1  0
  6  7  1  0
  7  8  1  0
  8  9  1  0
  9 10  1  0
 10 11  1  0
 11 12  1  0
 12 13  2  0
 12 14  1  0
 14 15  1  0
 15 16  1  0
 16 17  2  0
 17 18  1  0
 18 19  1  0
 18 20  2  0
 20 21  1  0
 21 22  1  0
 22 23  1  0
 22 24  1  0
 22 25  1  0
 21 26  2  0
 26 27  1  0
 27 28  3  0
 26 16  1  0
M  END
>  <Binding energies>  (26) 
[-5.54]

>  <Ligand effiencies>  (26) 
[-0.1910344827586207]

>  <Interactions>  (26) 
["V-A:ILE:369:CG1:3234, V-A:LEU:475:CD1:4254, V-A:GLU:543:CD:4905, V-B:TYR:539:CE2:9845, V-B:ALA:541:CB:9861, V-B:GLU:543:C:9871, V-A:HIS:456:CD2:4064, V-B:TYR:539:CD2:9843, V-A:HIS:456:CE1:4066, V-A:ARG:545:CZ:4923, V-B:GLU:543:CG:9876, V-A:ASP:366:CG:3209, V-A:ASP:366:CA:3206, V-B:LYS:547:CE:9919, V-A:ILE:369:CB:3232, V-B:GLU:543:CB:9875, H-A:TYR:484:OH:4344, V-A:GLY:453:C:4038, V-A:GLY:454:CA:4045, V-B:GLU:543:CA:9873, V-A:GLY:453:CA:4040, V-A:TYR:484:CE1:4341, V-A:TYR:484:CZ:4343, H-A:LYS:547:NZ:4948, H-A:GLY:454:N:4046, V-A:LEU:475:CD2:4255, V-A:LEU:475:CG:4253, V-A:HIS:456:CG:4062, V-A:VAL:458:CG2:4083, V-A:HIS:456:CB:4061, H-A:HIS:456:NE2:4067"]

$$$$
3aa_Grossjean_2025
     RDKit          3D

 34 36  0  0  0  0  0  0  0  0999 V2000
  126.7240  128.2820   74.6680 C   0  0  0  0  0  0  0  0  0  0  0  0
  126.4350  127.7100   73.2770 C   0  0  0  0  0  0  0  0  0  0  0  0
  127.5180  126.8830   72.8690 O   0  0  0  0  0  0  0  0  0  0  0  0
  128.6080  127.4120   72.2570 C   0  0  0  0  0  0  0  0  0  0  0  0
  129.4700  128.0680   72.8500 O   0  0  0  0  0  0  0  0  0  0  0  0
  128.6550  127.1330   70.7820 C   0  0  0  0  0  0  0  0  0  0  0  0
  127.6370  126.4250   70.1270 C   0  0  0  0  0  0  0  0  0  0  0  0
  127.7090  126.1880   68.7570 C   0  0  0  0  0  0  0  0  0  0  0  0
  128.7930  126.6580   68.0140 C   0  0  0  0  0  0  0  0  0  0  0  0
  128.7660  126.3680   66.6350 N   0  0  0  0  0  0  0  0  0  0  0  0
  129.7190  125.8130   65.8540 C   0  0  0  0  0  0  0  0  0  0  0  0
  130.8400  125.4690   66.2300 O   0  0  0  0  0  0  0  0  0  0  0  0
  129.3390  125.6240   64.3850 C   0  0  0  0  0  0  0  0  0  0  0  0
  130.5420  126.4090   63.2700 S   0  0  0  0  0  0  0  0  0  0  0  0
  131.1280  125.1460   62.1630 C   0  0  0  0  0  0  0  0  0  0  0  0
  130.2430  124.8240   61.1890 N   0  0  0  0  0  0  0  0  0  0  0  0
  130.5640  123.8710   60.2760 C   0  0  0  0  0  0  0  0  0  0  0  0
  129.5380  123.5810   59.2220 C   0  0  0  0  0  0  0  0  0  0  0  0
  128.5760  122.5780   59.4170 C   0  0  0  0  0  0  0  0  0  0  0  0
  127.6190  122.3040   58.4430 C   0  0  0  0  0  0  0  0  0  0  0  0
  127.6130  123.0320   57.2580 C   0  0  0  0  0  0  0  0  0  0  0  0
  128.5540  124.0330   57.0420 C   0  0  0  0  0  0  0  0  0  0  0  0
  129.5070  124.3060   58.0190 C   0  0  0  0  0  0  0  0  0  0  0  0
  131.8010  123.2200   60.3210 C   0  0  0  0  0  0  0  0  0  0  0  0
  132.7270  123.5240   61.3310 C   0  0  0  0  0  0  0  0  0  0  0  0
  134.0740  122.7770   61.3540 C   0  0  0  0  0  0  0  0  0  0  0  0
  134.3380  122.1500   60.2050 F   0  0  0  0  0  0  0  0  0  0  0  0
  135.0710  123.6330   61.5780 F   0  0  0  0  0  0  0  0  0  0  0  0
  134.0680  121.8590   62.3210 F   0  0  0  0  0  0  0  0  0  0  0  0
  132.3810  124.5070   62.2910 C   0  0  0  0  0  0  0  0  0  0  0  0
  133.2850  124.8230   63.4010 C   0  0  0  0  0  0  0  0  0  0  0  0
  133.9980  125.0730   64.2780 N   0  0  0  0  0  0  0  0  0  0  0  0
  129.8210  127.3560   68.6640 C   0  0  0  0  0  0  0  0  0  0  0  0
  129.7480  127.5890   70.0340 C   0  0  0  0  0  0  0  0  0  0  0  0
  1  2  1  0
  2  3  1  0
  3  4  1  0
  4  5  2  0
  4  6  1  0
  6  7  2  0
  7  8  1  0
  8  9  2  0
  9 10  1  0
 10 11  1  0
 11 12  2  0
 11 13  1  0
 13 14  1  0
 14 15  1  0
 15 16  2  0
 16 17  1  0
 17 18  1  0
 18 19  2  0
 19 20  1  0
 20 21  2  0
 21 22  1  0
 22 23  2  0
 17 24  2  0
 24 25  1  0
 25 26  1  0
 26 27  1  0
 26 28  1  0
 26 29  1  0
 25 30  2  0
 30 31  1  0
 31 32  3  0
  9 33  1  0
 33 34  2  0
 34  6  1  0
 30 15  1  0
 23 18  1  0
M  END
>  <Binding energies>  (27) 
[-8.58]

>  <Ligand effiencies>  (27) 
[-0.24514285714285713]

>  <Interactions>  (27) 
["V-A:ILE:369:CG1:3234, V-A:ILE:369:CG2:3233, V-A:LEU:475:CD1:4254, V-B:TYR:539:CE2:9845, V-B:PRO:540:CA:9852, V-B:GLU:543:C:9871, V-B:GLU:543:CD:9877, V-B:TYR:539:CZ:9846, V-B:TYR:539:CD2:9843, V-B:TYR:539:CE1:9844, V-A:HIS:456:CE1:4066, V-B:HIS:456:CD2:9036, V-A:ARG:545:CZ:4923, V-B:GLU:543:CG:9876, V-B:GLY:544:C:9881, V-B:HIS:456:CE1:9038, V-A:ASP:366:CG:3209, V-B:LYS:547:CE:9919, V-A:ILE:369:CB:3232, V-B:GLU:543:CB:9875, H-A:TYR:484:OH:4344, V-A:GLY:453:C:4038, V-B:TYR:539:C:9836, V-A:GLY:454:CA:4045, H-A:ARG:545:NH2:4925, H-A:ARG:545:NE:4921, V-A:GLY:453:CA:4040, H-A:LYS:547:NZ:4948, H-B:GLU:543:OE1:9878, V-B:PRO:540:N:9853, H-A:GLY:454:N:4046, H-A:ARG:545:NH1:4924, V-B:HIS:456:CG:9034, V-B:MET:535:CE:9804, V-B:LYS:547:CD:9918, V-B:HIS:456:CB:9033"]

$$$$
3ad_Grossjean_2025
     RDKit          3D

 29 31  0  0  0  0  0  0  0  0999 V2000
  133.6370  124.7180   64.6560 N   0  0  0  0  0  0  0  0  0  0  0  0
  132.9640  124.4510   63.7530 C   0  0  0  0  0  0  0  0  0  0  0  0
  132.1150  124.1110   62.6070 C   0  0  0  0  0  0  0  0  0  0  0  0
  132.6850  123.6520   61.3940 C   0  0  0  0  0  0  0  0  0  0  0  0
  134.2000  123.4400   61.2140 C   0  0  0  0  0  0  0  0  0  0  0  0
  134.9320  124.3110   61.9130 F   0  0  0  0  0  0  0  0  0  0  0  0
  134.5390  122.2140   61.6180 F   0  0  0  0  0  0  0  0  0  0  0  0
  134.5340  123.5800   59.9300 F   0  0  0  0  0  0  0  0  0  0  0  0
  131.8320  123.3850   60.3120 C   0  0  0  0  0  0  0  0  0  0  0  0
  130.4510  123.5730   60.4360 C   0  0  0  0  0  0  0  0  0  0  0  0
  129.4970  123.3180   59.3080 C   0  0  0  0  0  0  0  0  0  0  0  0
  129.5870  124.0490   58.1130 C   0  0  0  0  0  0  0  0  0  0  0  0
  128.7050  123.8160   57.0610 C   0  0  0  0  0  0  0  0  0  0  0  0
  127.7170  122.8450   57.1910 C   0  0  0  0  0  0  0  0  0  0  0  0
  127.6080  122.1050   58.3640 C   0  0  0  0  0  0  0  0  0  0  0  0
  128.4930  122.3410   59.4130 C   0  0  0  0  0  0  0  0  0  0  0  0
  129.9110  124.0190   61.5980 N   0  0  0  0  0  0  0  0  0  0  0  0
  130.7110  124.2630   62.6630 C   0  0  0  0  0  0  0  0  0  0  0  0
  129.8320  124.8270   64.1030 S   0  0  0  0  0  0  0  0  0  0  0  0
  130.4630  126.4830   64.5070 C   0  0  0  0  0  0  0  0  0  0  0  0
  130.5590  126.7130   66.0170 C   0  0  0  0  0  0  0  0  0  0  0  0
  131.6570  126.9650   66.5150 O   0  0  0  0  0  0  0  0  0  0  0  0
  129.3950  126.6140   66.6930 N   0  0  0  0  0  0  0  0  0  0  0  0
  129.1340  126.7790   68.0660 C   0  0  0  0  0  0  0  0  0  0  0  0
  130.0510  127.5690   68.7660 C   0  0  0  0  0  0  0  0  0  0  0  0
  129.8890  127.7920   70.1310 C   0  0  0  0  0  0  0  0  0  0  0  0
  128.8100  127.2210   70.8000 C   0  0  0  0  0  0  0  0  0  0  0  0
  127.8940  126.4260   70.1170 C   0  0  0  0  0  0  0  0  0  0  0  0
  128.0520  126.2000   68.7520 C   0  0  0  0  0  0  0  0  0  0  0  0
  1  2  3  0
  2  3  1  0
  3  4  2  0
  4  5  1  0
  5  6  1  0
  5  7  1  0
  5  8  1  0
  4  9  1  0
  9 10  2  0
 10 11  1  0
 11 12  2  0
 12 13  1  0
 13 14  2  0
 14 15  1  0
 15 16  2  0
 10 17  1  0
 17 18  2  0
 18 19  1  0
 19 20  1  0
 20 21  1  0
 21 22  2  0
 21 23  1  0
 23 24  1  0
 24 25  2  0
 25 26  1  0
 26 27  2  0
 27 28  1  0
 28 29  2  0
 18  3  1  0
 29 24  1  0
 16 11  1  0
M  END
>  <Binding energies>  (28) 
[-7.64]

>  <Ligand effiencies>  (28) 
[-0.25466666666666665]

>  <Interactions>  (28) 
["V-A:ILE:369:CG1:3234, V-A:ILE:369:CG2:3233, V-A:GLU:543:CD:4905, V-B:TYR:539:CE2:9845, V-B:PRO:540:CA:9852, V-B:GLU:543:C:9871, V-B:TYR:539:CZ:9846, V-B:TYR:539:CD2:9843, V-B:TYR:539:CE1:9844, V-A:HIS:456:CE1:4066, V-B:HIS:456:CD2:9036, V-B:GLY:544:C:9881, V-B:HIS:456:CE1:9038, V-A:ASP:366:CG:3209, V-A:ASP:366:CA:3206, V-A:ASP:366:CB:3208, V-A:ILE:369:CB:3232, V-B:GLU:543:CB:9875, H-A:TYR:484:OH:4344, V-A:GLY:453:C:4038, V-B:TYR:539:C:9836, V-A:GLY:454:CA:4045, H-A:ARG:545:NE:4921, V-A:GLY:453:CA:4040, H-B:GLU:543:OE1:9878, V-B:PRO:540:N:9853, H-A:GLY:454:N:4046"]

$$$$
3ai_Grossjean_2025
     RDKit          3D

 28 30  0  0  0  0  0  0  0  0999 V2000
  128.1510  128.7040   61.6650 N   0  0  0  0  0  0  0  0  0  0  0  0
  128.2980  128.4610   62.7860 C   0  0  0  0  0  0  0  0  0  0  0  0
  128.4870  128.1520   64.2070 C   0  0  0  0  0  0  0  0  0  0  0  0
  129.4500  127.2000   64.6200 C   0  0  0  0  0  0  0  0  0  0  0  0
  130.3780  126.4720   63.6280 C   0  0  0  0  0  0  0  0  0  0  0  0
  129.7290  125.5920   62.8630 F   0  0  0  0  0  0  0  0  0  0  0  0
  130.9610  127.3570   62.8180 F   0  0  0  0  0  0  0  0  0  0  0  0
  131.3230  125.8040   64.2900 F   0  0  0  0  0  0  0  0  0  0  0  0
  129.5580  126.9050   65.9880 C   0  0  0  0  0  0  0  0  0  0  0  0
  128.7270  127.5400   66.9160 C   0  0  0  0  0  0  0  0  0  0  0  0
  128.7920  127.2550   68.3870 C   0  0  0  0  0  0  0  0  0  0  0  0
  129.8450  127.7560   69.1680 C   0  0  0  0  0  0  0  0  0  0  0  0
  129.9090  127.5000   70.5340 C   0  0  0  0  0  0  0  0  0  0  0  0
  128.9160  126.7380   71.1410 C   0  0  0  0  0  0  0  0  0  0  0  0
  127.8610  126.2320   70.3900 C   0  0  0  0  0  0  0  0  0  0  0  0
  127.7990  126.4900   69.0240 C   0  0  0  0  0  0  0  0  0  0  0  0
  127.7990  128.4460   66.5150 N   0  0  0  0  0  0  0  0  0  0  0  0
  127.6920  128.7650   65.2030 C   0  0  0  0  0  0  0  0  0  0  0  0
  126.4390  129.9860   64.8700 S   0  0  0  0  0  0  0  0  0  0  0  0
  127.2060  131.6340   65.0350 C   0  0  0  0  0  0  0  0  0  0  0  0
  127.5360  132.3320   63.7070 C   0  0  0  0  0  0  0  0  0  0  0  0
  127.0810  133.4490   63.4520 O   0  0  0  0  0  0  0  0  0  0  0  0
  128.3410  131.6240   62.8840 N   0  0  0  0  0  0  0  0  0  0  0  0
  128.8070  132.0040   61.6320 C   0  0  0  0  0  0  0  0  0  0  0  0
  127.9710  132.1880   60.5310 C   0  0  0  0  0  0  0  0  0  0  0  0
  128.8070  132.5520   59.5020 C   0  0  0  0  0  0  0  0  0  0  0  0
  130.0820  132.5880   59.9580 O   0  0  0  0  0  0  0  0  0  0  0  0
  130.0690  132.2390   61.3100 N   0  0  0  0  0  0  0  0  0  0  0  0
  1  2  3  0
  2  3  1  0
  3  4  2  0
  4  5  1  0
  5  6  1  0
  5  7  1  0
  5  8  1  0
  4  9  1  0
  9 10  2  0
 10 11  1  0
 11 12  2  0
 12 13  1  0
 13 14  2  0
 14 15  1  0
 15 16  2  0
 10 17  1  0
 17 18  2  0
 18 19  1  0
 19 20  1  0
 20 21  1  0
 21 22  2  0
 21 23  1  0
 23 24  1  0
 24 25  1  0
 25 26  2  0
 26 27  1  0
 27 28  1  0
 18  3  1  0
 28 24  2  0
 16 11  1  0
M  END
>  <Binding energies>  (29) 
[-6.69]

>  <Ligand effiencies>  (29) 
[-0.2306896551724138]

>  <Interactions>  (29) 
["V-A:GLU:543:CD:4905, V-B:GLU:543:C:9871, V-B:GLU:543:CD:9877, V-A:HIS:456:CD2:4064, V-A:HIS:456:CE1:4066, V-A:ARG:545:CZ:4923, V-B:GLY:544:C:9881, V-B:HIS:456:CE1:9038, V-B:GLU:543:CB:9875, H-A:GLU:543:OE2:4907, V-A:PRO:540:CA:4880, H-A:ALA:541:N:4888, V-A:GLU:543:CG:4904, V-A:ALA:541:CB:4889, H-B:TYR:484:OH:9316, V-A:TYR:539:C:4864, V-B:TYR:484:CZ:9315, V-B:TYR:484:CE1:9313"]

$$$$
3aj_Grossjean_2025
     RDKit          3D

 28 30  0  0  0  0  0  0  0  0999 V2000
  134.0200  125.0950   63.9070 N   0  0  0  0  0  0  0  0  0  0  0  0
  133.1230  124.7770   63.2500 C   0  0  0  0  0  0  0  0  0  0  0  0
  131.9860  124.3710   62.4180 C   0  0  0  0  0  0  0  0  0  0  0  0
  132.0900  123.2620   61.5430 C   0  0  0  0  0  0  0  0  0  0  0  0
  133.3630  122.3990   61.4410 C   0  0  0  0  0  0  0  0  0  0  0  0
  133.2620  121.4370   60.5210 F   0  0  0  0  0  0  0  0  0  0  0  0
  134.4060  123.1620   61.1130 F   0  0  0  0  0  0  0  0  0  0  0  0
  133.6090  121.8090   62.6100 F   0  0  0  0  0  0  0  0  0  0  0  0
  130.9890  122.9440   60.7320 C   0  0  0  0  0  0  0  0  0  0  0  0
  129.8220  123.7110   60.7910 C   0  0  0  0  0  0  0  0  0  0  0  0
  128.6220  123.4210   59.9410 C   0  0  0  0  0  0  0  0  0  0  0  0
  127.3350  123.7690   60.3770 C   0  0  0  0  0  0  0  0  0  0  0  0
  126.2160  123.5060   59.5900 C   0  0  0  0  0  0  0  0  0  0  0  0
  126.3720  122.8880   58.3540 C   0  0  0  0  0  0  0  0  0  0  0  0
  127.6370  122.5340   57.8990 C   0  0  0  0  0  0  0  0  0  0  0  0
  128.7530  122.8000   58.6870 C   0  0  0  0  0  0  0  0  0  0  0  0
  129.7300  124.7770   61.6260 N   0  0  0  0  0  0  0  0  0  0  0  0
  130.7700  125.0910   62.4360 C   0  0  0  0  0  0  0  0  0  0  0  0
  130.4600  126.5020   63.4750 S   0  0  0  0  0  0  0  0  0  0  0  0
  129.1140  126.0630   64.6270 C   0  0  0  0  0  0  0  0  0  0  0  0
  129.4670  126.1890   66.1170 C   0  0  0  0  0  0  0  0  0  0  0  0
  130.6270  126.0350   66.5050 O   0  0  0  0  0  0  0  0  0  0  0  0
  128.4200  126.4740   66.9220 N   0  0  0  0  0  0  0  0  0  0  0  0
  128.4570  126.6480   68.3000 C   0  0  0  0  0  0  0  0  0  0  0  0
  127.6130  126.1840   69.1950 N   0  0  0  0  0  0  0  0  0  0  0  0
  127.9570  126.5400   70.4170 C   0  0  0  0  0  0  0  0  0  0  0  0
  129.1080  127.3150   70.5310 C   0  0  0  0  0  0  0  0  0  0  0  0
  129.7650  127.5860   68.9460 S   0  0  0  0  0  0  0  0  0  0  0  0
  1  2  3  0
  2  3  1  0
  3  4  2  0
  4  5  1  0
  5  6  1  0
  5  7  1  0
  5  8  1  0
  4  9  1  0
  9 10  2  0
 10 11  1  0
 11 12  2  0
 12 13  1  0
 13 14  2  0
 14 15  1  0
 15 16  2  0
 10 17  1  0
 17 18  2  0
 18 19  1  0
 19 20  1  0
 20 21  1  0
 21 22  2  0
 21 23  1  0
 23 24  1  0
 24 25  2  0
 25 26  1  0
 26 27  2  0
 27 28  1  0
 18  3  1  0
 28 24  1  0
 16 11  1  0
M  END
>  <Binding energies>  (30) 
[-6.94]

>  <Ligand effiencies>  (30) 
[-0.23931034482758623]

>  <Interactions>  (30) 
["V-A:ILE:369:CG1:3234, V-A:ILE:369:CG2:3233, V-A:LEU:475:CD1:4254, V-B:TYR:539:CE2:9845, V-B:PRO:540:CA:9852, V-B:GLU:543:CD:9877, V-B:TYR:539:CZ:9846, V-B:TYR:539:CD2:9843, V-B:TYR:539:CE1:9844, V-A:HIS:456:CE1:4066, V-B:HIS:456:CD2:9036, V-A:ARG:545:CZ:4923, V-B:GLU:543:CG:9876, V-B:GLY:544:C:9881, V-B:HIS:456:CE1:9038, V-A:ILE:369:CB:3232, V-B:GLU:543:CB:9875, V-B:TYR:539:C:9836, V-A:GLY:454:CA:4045, H-A:ARG:545:NH2:4925, H-A:ARG:545:NE:4921, H-B:GLU:543:OE1:9878, V-B:PRO:540:N:9853, H-A:GLY:454:N:4046, H-A:ARG:545:NH1:4924, V-B:PRO:540:CB:9854"]

$$$$
3ak_Grossjean_2025
     RDKit          3D

 33 34  0  0  0  0  0  0  0  0999 V2000
  129.8390  122.8130   71.7790 C   0  0  0  0  0  0  0  0  0  0  0  0
  129.4290  123.9670   72.4960 O   0  0  0  0  0  0  0  0  0  0  0  0
  129.1850  125.0920   71.6640 C   0  0  0  0  0  0  0  0  0  0  0  0
  128.7250  126.2680   72.5360 C   0  0  0  0  0  0  0  0  0  0  0  0
  129.7630  127.2420   72.5830 O   0  0  0  0  0  0  0  0  0  0  0  0
  130.6230  127.2790   71.4480 C   0  0  0  0  0  0  0  0  0  0  0  0
  129.9700  127.8910   70.1950 C   0  0  0  0  0  0  0  0  0  0  0  0
  129.3170  126.8660   69.4600 O   0  0  0  0  0  0  0  0  0  0  0  0
  128.6820  127.3220   68.2730 C   0  0  0  0  0  0  0  0  0  0  0  0
  128.8960  126.3090   67.1330 C   0  0  0  0  0  0  0  0  0  0  0  0
  128.9930  126.9280   65.8100 N   0  0  0  0  0  0  0  0  0  0  0  0
  129.3700  126.3100   64.6740 C   0  0  0  0  0  0  0  0  0  0  0  0
  129.6660  125.1160   64.6320 O   0  0  0  0  0  0  0  0  0  0  0  0
  129.4360  127.1280   63.3730 C   0  0  0  0  0  0  0  0  0  0  0  0
  130.9330  126.9040   62.3420 S   0  0  0  0  0  0  0  0  0  0  0  0
  130.9380  125.2410   61.6920 C   0  0  0  0  0  0  0  0  0  0  0  0
  129.8770  124.9110   60.9160 N   0  0  0  0  0  0  0  0  0  0  0  0
  129.7870  123.6670   60.3810 C   0  0  0  0  0  0  0  0  0  0  0  0
  128.5810  123.3890   59.5340 C   0  0  0  0  0  0  0  0  0  0  0  0
  128.7150  122.8190   58.2590 C   0  0  0  0  0  0  0  0  0  0  0  0
  127.5980  122.5560   57.4700 C   0  0  0  0  0  0  0  0  0  0  0  0
  126.3280  122.8590   57.9490 C   0  0  0  0  0  0  0  0  0  0  0  0
  126.1670  123.4210   59.2100 C   0  0  0  0  0  0  0  0  0  0  0  0
  127.2860  123.6830   59.9970 C   0  0  0  0  0  0  0  0  0  0  0  0
  130.7890  122.7160   60.6060 C   0  0  0  0  0  0  0  0  0  0  0  0
  131.8980  123.0310   61.4040 C   0  0  0  0  0  0  0  0  0  0  0  0
  132.9800  121.9570   61.6310 C   0  0  0  0  0  0  0  0  0  0  0  0
  134.0840  122.2700   60.9520 F   0  0  0  0  0  0  0  0  0  0  0  0
  133.2780  121.8760   62.9290 F   0  0  0  0  0  0  0  0  0  0  0  0
  132.5950  120.7420   61.2330 F   0  0  0  0  0  0  0  0  0  0  0  0
  131.9800  124.3280   61.9670 C   0  0  0  0  0  0  0  0  0  0  0  0
  133.1170  124.7130   62.8100 C   0  0  0  0  0  0  0  0  0  0  0  0
  134.0130  125.0170   63.4760 N   0  0  0  0  0  0  0  0  0  0  0  0
  1  2  1  0
  2  3  1  0
  3  4  1  0
  4  5  1  0
  5  6  1  0
  6  7  1  0
  7  8  1  0
  8  9  1  0
  9 10  1  0
 10 11  1  0
 11 12  1  0
 12 13  2  0
 12 14  1  0
 14 15  1  0
 15 16  1  0
 16 17  2  0
 17 18  1  0
 18 19  1  0
 19 20  2  0
 20 21  1  0
 21 22  2  0
 22 23  1  0
 23 24  2  0
 18 25  2  0
 25 26  1  0
 26 27  1  0
 27 28  1  0
 27 29  1  0
 27 30  1  0
 26 31  2  0
 31 32  1  0
 32 33  3  0
 31 16  1  0
 24 19  1  0
M  END
>  <Binding energies>  (31) 
[-6.16]

>  <Ligand effiencies>  (31) 
[-0.1811764705882353]

>  <Interactions>  (31) 
["V-A:ILE:369:CG1:3234, V-A:ILE:369:CG2:3233, V-A:LEU:475:CD1:4254, V-A:GLU:543:CD:4905, V-B:TYR:539:CE2:9845, V-B:PRO:540:CA:9852, V-B:GLU:543:CD:9877, V-B:TYR:539:CZ:9846, V-A:HIS:456:CD2:4064, V-B:TYR:539:CD2:9843, V-B:TYR:539:CE1:9844, V-A:HIS:456:CE1:4066, V-A:ARG:545:CZ:4923, V-B:GLU:543:CG:9876, V-B:HIS:456:CE1:9038, V-B:LYS:547:CE:9919, V-A:ILE:369:CB:3232, V-B:GLU:543:CB:9875, V-B:TYR:539:C:9836, V-A:GLY:454:CA:4045, H-A:ARG:545:NH2:4925, H-A:LYS:547:NZ:4948, H-A:GLU:543:OE1:4906, H-B:GLU:543:OE1:9878, V-B:TYR:539:CD1:9842, V-B:PRO:540:N:9853, H-A:GLY:454:N:4046, H-A:ARG:545:NH1:4924, V-B:PRO:540:CB:9854, V-A:LEU:475:CG:4253, H-B:LYS:547:NZ:9920, V-A:TYR:484:CD1:4339, V-A:TYR:484:CG:4338, V-A:TYR:484:CB:4337, V-A:TYR:484:CD2:4340"]

$$$$
3bk_Grossjean_2025
     RDKit          3D

 30 31  0  0  0  0  0  0  0  0999 V2000
  125.4870  127.7260   73.8860 C   0  0  0  0  0  0  0  0  0  0  0  0
  126.3350  128.5430   74.6800 O   0  0  0  0  0  0  0  0  0  0  0  0
  127.5490  128.8960   74.0310 C   0  0  0  0  0  0  0  0  0  0  0  0
  127.9920  127.7520   73.1080 C   0  0  0  0  0  0  0  0  0  0  0  0
  129.4090  127.7520   73.0050 O   0  0  0  0  0  0  0  0  0  0  0  0
  129.8880  127.6530   71.6710 C   0  0  0  0  0  0  0  0  0  0  0  0
  129.1870  126.4840   70.9670 C   0  0  0  0  0  0  0  0  0  0  0  0
  129.0000  126.8040   69.5950 O   0  0  0  0  0  0  0  0  0  0  0  0
  127.8100  126.2630   69.0350 C   0  0  0  0  0  0  0  0  0  0  0  0
  127.6360  126.7860   67.6020 C   0  0  0  0  0  0  0  0  0  0  0  0
  128.8920  126.7810   66.8500 N   0  0  0  0  0  0  0  0  0  0  0  0
  129.6910  125.7150   66.6720 C   0  0  0  0  0  0  0  0  0  0  0  0
  129.4430  124.5930   67.1170 O   0  0  0  0  0  0  0  0  0  0  0  0
  130.9570  125.9420   65.8430 C   0  0  0  0  0  0  0  0  0  0  0  0
  130.5730  126.4510   64.1380 S   0  0  0  0  0  0  0  0  0  0  0  0
  130.8840  125.0800   63.0380 C   0  0  0  0  0  0  0  0  0  0  0  0
  129.8640  124.7390   62.2110 N   0  0  0  0  0  0  0  0  0  0  0  0
  130.0100  123.7040   61.3420 C   0  0  0  0  0  0  0  0  0  0  0  0
  128.8420  123.4080   60.4500 C   0  0  0  0  0  0  0  0  0  0  0  0
  127.5270  123.6270   60.8920 C   0  0  0  0  0  0  0  0  0  0  0  0
  126.4380  123.3480   60.0700 C   0  0  0  0  0  0  0  0  0  0  0  0
  126.6500  122.8460   58.7900 C   0  0  0  0  0  0  0  0  0  0  0  0
  127.9420  122.6240   58.3260 C   0  0  0  0  0  0  0  0  0  0  0  0
  129.0280  122.9050   59.1510 C   0  0  0  0  0  0  0  0  0  0  0  0
  131.2070  122.9830   61.2800 C   0  0  0  0  0  0  0  0  0  0  0  0
  132.2700  123.3200   62.1260 C   0  0  0  0  0  0  0  0  0  0  0  0
  133.5590  122.5060   62.0260 C   0  0  0  0  0  0  0  0  0  0  0  0
  132.1170  124.3910   63.0310 C   0  0  0  0  0  0  0  0  0  0  0  0
  133.2130  124.7690   63.9280 C   0  0  0  0  0  0  0  0  0  0  0  0
  134.0790  125.0660   64.6360 N   0  0  0  0  0  0  0  0  0  0  0  0
  1  2  1  0
  2  3  1  0
  3  4  1  0
  4  5  1  0
  5  6  1  0
  6  7  1  0
  7  8  1  0
  8  9  1  0
  9 10  1  0
 10 11  1  0
 11 12  1  0
 12 13  2  0
 12 14  1  0
 14 15  1  0
 15 16  1  0
 16 17  2  0
 17 18  1  0
 18 19  1  0
 19 20  2  0
 20 21  1  0
 21 22  2  0
 22 23  1  0
 23 24  2  0
 18 25  2  0
 25 26  1  0
 26 27  1  0
 26 28  2  0
 28 29  1  0
 29 30  3  0
 28 16  1  0
 24 19  1  0
M  END
>  <Binding energies>  (32) 
[-6.12]

>  <Ligand effiencies>  (32) 
[-0.19741935483870968]

>  <Interactions>  (32) 
["V-A:LEU:475:CD1:4254, V-B:TYR:539:CE2:9845, V-B:ALA:541:CB:9861, V-B:PRO:540:CA:9852, V-B:GLU:543:C:9871, V-B:GLU:543:CD:9877, V-B:TYR:539:CZ:9846, V-A:HIS:456:CD2:4064, V-B:TYR:539:CD2:9843, V-A:HIS:456:CE1:4066, V-B:HIS:456:CD2:9036, V-A:ARG:545:CZ:4923, V-B:GLU:543:CG:9876, V-B:HIS:456:CE1:9038, V-B:LYS:547:CE:9919, V-B:GLU:543:CB:9875, H-A:TYR:484:OH:4344, V-B:TYR:539:C:9836, V-A:GLY:454:CA:4045, H-A:ARG:545:NH2:4925, H-A:ARG:545:NE:4921, H-A:LYS:547:NZ:4948, H-A:GLU:543:OE1:4906, V-B:PRO:540:N:9853, H-A:GLY:454:N:4046, H-A:ARG:545:NH1:4924, V-B:HIS:456:CG:9034, V-B:PRO:540:CB:9854, V-B:LYS:547:CD:9918, V-B:HIS:456:CB:9033"]

$$$$
3cb_Grossjean_2025
     RDKit          3D

 30 32  0  0  0  0  0  0  0  0999 V2000
  128.3360  128.4600   73.3430 C   0  0  0  0  0  0  0  0  0  0  0  0
  129.4560  127.6040   73.1750 O   0  0  0  0  0  0  0  0  0  0  0  0
  129.3650  126.4710   72.4310 C   0  0  0  0  0  0  0  0  0  0  0  0
  129.5640  125.3410   72.8870 O   0  0  0  0  0  0  0  0  0  0  0  0
  129.0010  126.7300   70.9970 C   0  0  0  0  0  0  0  0  0  0  0  0
  127.8280  126.2160   70.4230 C   0  0  0  0  0  0  0  0  0  0  0  0
  127.5190  126.4770   69.0920 C   0  0  0  0  0  0  0  0  0  0  0  0
  128.3730  127.2500   68.3040 C   0  0  0  0  0  0  0  0  0  0  0  0
  127.9600  127.4540   66.9720 N   0  0  0  0  0  0  0  0  0  0  0  0
  127.9900  128.5720   66.2160 C   0  0  0  0  0  0  0  0  0  0  0  0
  128.4290  129.6630   66.5860 O   0  0  0  0  0  0  0  0  0  0  0  0
  127.4370  128.3940   64.7930 C   0  0  0  0  0  0  0  0  0  0  0  0
  128.6990  128.0870   63.5100 S   0  0  0  0  0  0  0  0  0  0  0  0
  129.5770  126.6020   63.9530 C   0  0  0  0  0  0  0  0  0  0  0  0
  129.3670  126.2140   65.2340 N   0  0  0  0  0  0  0  0  0  0  0  0
  129.9820  125.0970   65.6820 C   0  0  0  0  0  0  0  0  0  0  0  0
  129.6920  124.7150   67.1210 C   0  0  0  0  0  0  0  0  0  0  0  0
  130.8280  124.3340   64.8810 C   0  0  0  0  0  0  0  0  0  0  0  0
  131.0730  124.7260   63.5580 C   0  0  0  0  0  0  0  0  0  0  0  0
  131.9920  123.8770   62.7410 C   0  0  0  0  0  0  0  0  0  0  0  0
  131.5810  122.6120   62.3040 C   0  0  0  0  0  0  0  0  0  0  0  0
  132.4260  121.8180   61.5330 C   0  0  0  0  0  0  0  0  0  0  0  0
  133.6900  122.2910   61.1910 C   0  0  0  0  0  0  0  0  0  0  0  0
  134.1130  123.5490   61.6090 C   0  0  0  0  0  0  0  0  0  0  0  0
  133.2650  124.3410   62.3790 C   0  0  0  0  0  0  0  0  0  0  0  0
  130.4440  125.9040   63.0770 C   0  0  0  0  0  0  0  0  0  0  0  0
  130.7370  126.4120   61.7330 C   0  0  0  0  0  0  0  0  0  0  0  0
  130.9670  126.8120   60.6720 N   0  0  0  0  0  0  0  0  0  0  0  0
  129.5450  127.7720   68.8720 C   0  0  0  0  0  0  0  0  0  0  0  0
  129.8530  127.5110   70.2040 C   0  0  0  0  0  0  0  0  0  0  0  0
  1  2  1  0
  2  3  1  0
  3  4  2  0
  3  5  1  0
  5  6  2  0
  6  7  1  0
  7  8  2  0
  8  9  1  0
  9 10  1  0
 10 11  2  0
 10 12  1  0
 12 13  1  0
 13 14  1  0
 14 15  2  0
 15 16  1  0
 16 17  1  0
 16 18  2  0
 18 19  1  0
 19 20  1  0
 20 21  2  0
 21 22  1  0
 22 23  2  0
 23 24  1  0
 24 25  2  0
 19 26  2  0
 26 27  1  0
 27 28  3  0
  8 29  1  0
 29 30  2  0
 30  5  1  0
 26 14  1  0
 25 20  1  0
M  END
>  <Binding energies>  (33) 
[-7.88]

>  <Ligand effiencies>  (33) 
[-0.2541935483870968]

>  <Interactions>  (33) 
["V-A:ILE:369:CG2:3233, V-A:LEU:475:CD1:4254, V-A:GLU:543:CD:4905, V-B:TYR:539:CE2:9845, V-B:GLU:543:C:9871, V-B:GLU:543:CD:9877, V-A:HIS:456:CD2:4064, V-A:HIS:456:CE1:4066, V-B:HIS:456:CD2:9036, V-B:GLU:543:CG:9876, V-B:GLY:544:C:9881, V-B:HIS:456:CE1:9038, V-A:ASP:366:CG:3209, V-B:LYS:547:CE:9919, V-B:GLU:543:CB:9875, V-B:GLU:543:CA:9873, V-A:LYS:547:CE:4947, V-A:TYR:484:CE1:4341, V-A:TYR:484:CZ:4343, H-A:LYS:547:NZ:4948, H-B:GLU:543:OE1:9878, H-B:LYS:547:NZ:9920"]

$$$$
3ch_Grossjean_2025
     RDKit          3D

 32 34  0  0  0  0  0  0  0  0999 V2000
  128.2970  128.9800   73.9270 C   0  0  0  0  0  0  0  0  0  0  0  0
  129.4600  128.4960   73.2620 O   0  0  0  0  0  0  0  0  0  0  0  0
  129.3400  127.4850   72.3250 C   0  0  0  0  0  0  0  0  0  0  0  0
  129.1940  127.7060   70.9460 C   0  0  0  0  0  0  0  0  0  0  0  0
  129.0880  126.6300   70.0530 C   0  0  0  0  0  0  0  0  0  0  0  0
  128.9450  126.7510   68.6580 N   0  0  0  0  0  0  0  0  0  0  0  0
  129.3080  125.8970   67.6760 C   0  0  0  0  0  0  0  0  0  0  0  0
  129.8440  124.8020   67.8440 O   0  0  0  0  0  0  0  0  0  0  0  0
  128.9720  126.3450   66.2540 C   0  0  0  0  0  0  0  0  0  0  0  0
  130.4470  126.8750   65.3340 S   0  0  0  0  0  0  0  0  0  0  0  0
  130.4670  125.9130   63.8370 C   0  0  0  0  0  0  0  0  0  0  0  0
  129.3740  126.0910   63.0540 N   0  0  0  0  0  0  0  0  0  0  0  0
  129.2880  125.3990   61.8960 C   0  0  0  0  0  0  0  0  0  0  0  0
  128.0380  125.6410   61.0730 C   0  0  0  0  0  0  0  0  0  0  0  0
  130.2760  124.5110   61.4780 C   0  0  0  0  0  0  0  0  0  0  0  0
  131.4170  124.3180   62.2690 C   0  0  0  0  0  0  0  0  0  0  0  0
  132.4460  123.3480   61.7850 C   0  0  0  0  0  0  0  0  0  0  0  0
  132.1410  121.9850   61.6960 C   0  0  0  0  0  0  0  0  0  0  0  0
  133.0970  121.0740   61.2540 C   0  0  0  0  0  0  0  0  0  0  0  0
  134.3670  121.5250   60.9020 C   0  0  0  0  0  0  0  0  0  0  0  0
  134.6890  122.8760   60.9910 C   0  0  0  0  0  0  0  0  0  0  0  0
  133.7300  123.7840   61.4350 C   0  0  0  0  0  0  0  0  0  0  0  0
  131.5300  125.0520   63.4780 C   0  0  0  0  0  0  0  0  0  0  0  0
  132.7430  124.9620   64.2970 C   0  0  0  0  0  0  0  0  0  0  0  0
  133.6990  124.8900   64.9440 N   0  0  0  0  0  0  0  0  0  0  0  0
  129.1080  125.3270   70.5540 C   0  0  0  0  0  0  0  0  0  0  0  0
  129.2500  125.0810   71.9280 C   0  0  0  0  0  0  0  0  0  0  0  0
  129.2850  123.8150   72.4870 O   0  0  0  0  0  0  0  0  0  0  0  0
  129.8760  122.7440   71.7590 C   0  0  0  0  0  0  0  0  0  0  0  0
  129.3630  126.1680   72.8030 C   0  0  0  0  0  0  0  0  0  0  0  0
  129.5200  125.9410   74.1500 O   0  0  0  0  0  0  0  0  0  0  0  0
  130.7790  125.3820   74.5000 C   0  0  0  0  0  0  0  0  0  0  0  0
  1  2  1  0
  2  3  1  0
  3  4  2  0
  4  5  1  0
  5  6  1  0
  6  7  1  0
  7  8  2  0
  7  9  1  0
  9 10  1  0
 10 11  1  0
 11 12  2  0
 12 13  1  0
 13 14  1  0
 13 15  2  0
 15 16  1  0
 16 17  1  0
 17 18  2  0
 18 19  1  0
 19 20  2  0
 20 21  1  0
 21 22  2  0
 16 23  2  0
 23 24  1  0
 24 25  3  0
  5 26  2  0
 26 27  1  0
 27 28  1  0
 28 29  1  0
 27 30  2  0
 30 31  1  0
 31 32  1  0
 30  3  1  0
 23 11  1  0
 22 17  1  0
M  END
>  <Binding energies>  (34) 
[-7.65]

>  <Ligand effiencies>  (34) 
[-0.23181818181818184]

>  <Interactions>  (34) 
["V-A:ILE:369:CG1:3234, V-A:ILE:369:CG2:3233, V-A:LEU:475:CD1:4254, V-B:TYR:539:CE2:9845, V-B:GLU:543:C:9871, V-B:GLU:543:CD:9877, V-A:HIS:456:CD2:4064, V-A:HIS:456:CE1:4066, V-B:HIS:456:CD2:9036, V-A:ARG:545:CZ:4923, V-B:GLU:543:CG:9876, V-B:HIS:456:CE1:9038, V-A:ASP:366:CG:3209, V-B:LYS:547:CE:9919, V-A:ILE:369:CB:3232, V-B:GLU:543:CB:9875, H-A:TYR:484:OH:4344, V-A:ILE:369:CD1:3235, V-A:LYS:547:CE:4947, H-A:ARG:545:NE:4921, H-A:LYS:547:NZ:4948, H-A:GLY:454:N:4046, H-B:LYS:547:NZ:9920, V-A:TYR:484:CD1:4339, V-A:TYR:484:CG:4338, V-A:TYR:484:CB:4337, V-A:TYR:484:CD2:4340, H-B:HIS:456:NE2:9039, V-A:TYR:484:CE2:4342"]

$$$$
3ci_Grossjean_2025
     RDKit          3D

 25 27  0  0  0  0  0  0  0  0999 V2000
  135.0360  125.3170   65.5620 C   0  0  0  0  0  0  0  0  0  0  0  0
  133.6170  125.0850   65.0780 C   0  0  0  0  0  0  0  0  0  0  0  0
  132.5230  125.6540   65.7220 C   0  0  0  0  0  0  0  0  0  0  0  0
  131.2310  125.4250   65.2280 C   0  0  0  0  0  0  0  0  0  0  0  0
  130.0880  126.0680   65.9420 C   0  0  0  0  0  0  0  0  0  0  0  0
  129.4440  127.1890   65.4010 C   0  0  0  0  0  0  0  0  0  0  0  0
  128.3850  127.7900   66.0760 C   0  0  0  0  0  0  0  0  0  0  0  0
  127.9690  127.2760   67.3010 C   0  0  0  0  0  0  0  0  0  0  0  0
  128.6040  126.1690   67.8570 C   0  0  0  0  0  0  0  0  0  0  0  0
  129.6620  125.5700   67.1800 C   0  0  0  0  0  0  0  0  0  0  0  0
  131.0850  124.6020   64.0810 C   0  0  0  0  0  0  0  0  0  0  0  0
  129.7560  124.2920   63.5440 C   0  0  0  0  0  0  0  0  0  0  0  0
  128.7060  124.0490   63.1210 N   0  0  0  0  0  0  0  0  0  0  0  0
  132.2520  124.0680   63.4840 C   0  0  0  0  0  0  0  0  0  0  0  0
  132.1860  123.0370   62.0240 S   0  0  0  0  0  0  0  0  0  0  0  0
  131.4280  123.9700   60.6550 C   0  0  0  0  0  0  0  0  0  0  0  0
  130.1650  123.3080   60.0930 C   0  0  0  0  0  0  0  0  0  0  0  0
  129.4260  122.6790   60.8530 O   0  0  0  0  0  0  0  0  0  0  0  0
  129.9640  123.4590   58.7650 N   0  0  0  0  0  0  0  0  0  0  0  0
  128.8930  122.9880   58.0180 C   0  0  0  0  0  0  0  0  0  0  0  0
  128.1920  123.7810   57.1100 C   0  0  0  0  0  0  0  0  0  0  0  0
  127.2220  122.9550   56.5880 C   0  0  0  0  0  0  0  0  0  0  0  0
  127.3350  121.7290   57.1530 O   0  0  0  0  0  0  0  0  0  0  0  0
  128.3970  121.7620   58.0580 N   0  0  0  0  0  0  0  0  0  0  0  0
  133.4920  124.3030   63.9830 N   0  0  0  0  0  0  0  0  0  0  0  0
  1  2  1  0
  2  3  2  0
  3  4  1  0
  4  5  1  0
  5  6  2  0
  6  7  1  0
  7  8  2  0
  8  9  1  0
  9 10  2  0
  4 11  2  0
 11 12  1  0
 12 13  3  0
 11 14  1  0
 14 15  1  0
 15 16  1  0
 16 17  1  0
 17 18  2  0
 17 19  1  0
 19 20  1  0
 20 21  1  0
 21 22  2  0
 22 23  1  0
 23 24  1  0
 14 25  2  0
 25  2  1  0
 10  5  1  0
 24 20  2  0
M  END
>  <Binding energies>  (35) 
[-7.62]

>  <Ligand effiencies>  (35) 
[-0.29307692307692307]

>  <Interactions>  (35) 
["V-A:GLU:543:CD:4905, V-B:TYR:539:CE2:9845, V-B:GLU:543:CD:9877, H-B:TYR:539:N:9839, V-B:TYR:539:CZ:9846, V-B:TYR:539:CD2:9843, V-B:TYR:539:CE1:9844, V-A:HIS:456:CE1:4066, V-A:ARG:545:CZ:4923, V-B:GLU:543:CG:9876, V-B:HIS:456:CE1:9038, V-B:GLU:543:CB:9875, H-A:TYR:484:OH:4344, V-A:GLY:453:C:4038, H-B:TYR:539:OH:9847, V-A:GLY:454:CA:4045, V-A:GLY:454:C:4043, V-A:ARG:545:CG:4919, V-A:GLY:453:CA:4040, V-A:ARG:545:CD:4920, V-B:TYR:539:CD1:9842, H-A:GLY:454:N:4046, V-B:MET:535:CE:9804"]

$$$$
3ck_Grossjean_2025
     RDKit          3D

 30 31  0  0  0  0  0  0  0  0999 V2000
  125.5470  119.9800   75.0190 C   0  0  0  0  0  0  0  0  0  0  0  0
  126.0670  120.9190   74.0910 O   0  0  0  0  0  0  0  0  0  0  0  0
  126.4900  120.3330   72.8680 C   0  0  0  0  0  0  0  0  0  0  0  0
  127.9940  120.5690   72.6780 C   0  0  0  0  0  0  0  0  0  0  0  0
  128.2020  121.8710   72.1480 O   0  0  0  0  0  0  0  0  0  0  0  0
  129.5650  122.1720   71.8770 C   0  0  0  0  0  0  0  0  0  0  0  0
  129.8180  123.6560   72.1710 C   0  0  0  0  0  0  0  0  0  0  0  0
  128.6180  124.3730   71.9230 O   0  0  0  0  0  0  0  0  0  0  0  0
  128.7010  125.7710   72.1520 C   0  0  0  0  0  0  0  0  0  0  0  0
  128.1920  126.5280   70.9100 C   0  0  0  0  0  0  0  0  0  0  0  0
  128.7060  125.9970   69.6440 N   0  0  0  0  0  0  0  0  0  0  0  0
  129.4170  126.6870   68.7350 C   0  0  0  0  0  0  0  0  0  0  0  0
  129.7430  127.8660   68.8860 O   0  0  0  0  0  0  0  0  0  0  0  0
  129.8140  125.9050   67.4720 C   0  0  0  0  0  0  0  0  0  0  0  0
  131.0000  126.7480   66.3690 S   0  0  0  0  0  0  0  0  0  0  0  0
  130.8990  126.0250   64.7390 C   0  0  0  0  0  0  0  0  0  0  0  0
  129.7990  126.3580   64.0170 N   0  0  0  0  0  0  0  0  0  0  0  0
  129.6560  125.8430   62.7750 C   0  0  0  0  0  0  0  0  0  0  0  0
  128.4020  126.2570   62.0310 C   0  0  0  0  0  0  0  0  0  0  0  0
  130.5920  124.9830   62.2070 C   0  0  0  0  0  0  0  0  0  0  0  0
  131.7320  124.6200   62.9360 C   0  0  0  0  0  0  0  0  0  0  0  0
  132.6970  123.6770   62.2960 C   0  0  0  0  0  0  0  0  0  0  0  0
  132.4090  122.3080   62.2380 C   0  0  0  0  0  0  0  0  0  0  0  0
  133.3090  121.4210   61.6510 C   0  0  0  0  0  0  0  0  0  0  0  0
  134.5040  121.9010   61.1240 C   0  0  0  0  0  0  0  0  0  0  0  0
  134.8090  123.2590   61.1820 C   0  0  0  0  0  0  0  0  0  0  0  0
  133.9080  124.1420   61.7690 C   0  0  0  0  0  0  0  0  0  0  0  0
  131.9010  125.1630   64.2360 C   0  0  0  0  0  0  0  0  0  0  0  0
  133.0960  124.8520   65.0290 C   0  0  0  0  0  0  0  0  0  0  0  0
  134.0390  124.6070   65.6540 N   0  0  0  0  0  0  0  0  0  0  0  0
  1  2  1  0
  2  3  1  0
  3  4  1  0
  4  5  1  0
  5  6  1  0
  6  7  1  0
  7  8  1  0
  8  9  1  0
  9 10  1  0
 10 11  1  0
 11 12  1  0
 12 13  2  0
 12 14  1  0
 14 15  1  0
 15 16  1  0
 16 17  2  0
 17 18  1  0
 18 19  1  0
 18 20  2  0
 20 21  1  0
 21 22  1  0
 22 23  2  0
 23 24  1  0
 24 25  2  0
 25 26  1  0
 26 27  2  0
 21 28  2  0
 28 29  1  0
 29 30  3  0
 28 16  1  0
 27 22  1  0
M  END
>  <Binding energies>  (36) 
[-6.67]

>  <Ligand effiencies>  (36) 
[-0.21516129032258063]

>  <Interactions>  (36) 
["V-A:ILE:369:CG1:3234, V-A:ILE:369:CG2:3233, V-A:LEU:475:CD1:4254, V-B:GLY:544:CA:9883, V-B:TYR:539:CE2:9845, V-B:GLU:543:C:9871, V-B:GLU:543:CD:9877, V-A:HIS:456:CD2:4064, V-A:HIS:456:CE1:4066, V-B:HIS:456:CD2:9036, V-A:ARG:545:CZ:4923, V-A:ASP:366:CG:3209, V-B:LYS:547:CE:9919, V-A:ILE:369:CB:3232, H-A:TYR:484:OH:4344, V-A:GLY:453:C:4038, V-A:ILE:369:CD1:3235, V-A:GLY:454:CA:4045, V-A:GLY:453:CA:4040, H-A:GLY:454:N:4046, H-B:LYS:547:NZ:9920, V-A:TYR:484:CD1:4339, V-A:TYR:484:CG:4338, V-A:TYR:484:CB:4337, V-A:TYR:484:CD2:4340, H-A:HIS:456:NE2:4067, H-B:GLU:543:O:9872, H-A:HIS:456:ND1:4063, H-B:GLY:544:N:9884, V-B:LYS:547:CG:9917"]

$$$$
4aa_Grossjean_2025
     RDKit          3D

 26 28  0  0  0  0  0  0  0  0999 V2000
  127.9600  130.1510   74.2130 C   0  0  0  0  0  0  0  0  0  0  0  0
  129.0590  129.7620   73.2190 C   0  0  0  0  0  0  0  0  0  0  0  0
  129.0770  128.3480   73.0640 O   0  0  0  0  0  0  0  0  0  0  0  0
  128.1390  127.7130   72.3160 C   0  0  0  0  0  0  0  0  0  0  0  0
  126.9840  127.5070   72.7030 O   0  0  0  0  0  0  0  0  0  0  0  0
  128.6470  127.2800   70.9710 C   0  0  0  0  0  0  0  0  0  0  0  0
  129.8480  127.8160   70.4890 C   0  0  0  0  0  0  0  0  0  0  0  0
  130.3430  127.4390   69.2430 C   0  0  0  0  0  0  0  0  0  0  0  0
  129.6530  126.5130   68.4590 C   0  0  0  0  0  0  0  0  0  0  0  0
  130.2380  126.2090   67.2150 N   0  0  0  0  0  0  0  0  0  0  0  0
  131.2160  126.8500   66.5300 C   0  0  0  0  0  0  0  0  0  0  0  0
  131.7500  127.8960   66.9010 O   0  0  0  0  0  0  0  0  0  0  0  0
  131.6040  126.2260   65.2630 C   0  0  0  0  0  0  0  0  0  0  0  0
  133.0020  125.1490   65.1930 S   0  0  0  0  0  0  0  0  0  0  0  0
  132.7930  124.9160   63.4720 C   0  0  0  0  0  0  0  0  0  0  0  0
  133.6090  124.1340   62.7620 N   0  0  0  0  0  0  0  0  0  0  0  0
  133.3400  124.0430   61.4370 C   0  0  0  0  0  0  0  0  0  0  0  0
  134.2820  123.1530   60.6470 C   0  0  0  0  0  0  0  0  0  0  0  0
  132.2840  124.7030   60.8120 C   0  0  0  0  0  0  0  0  0  0  0  0
  131.4300  125.5210   61.5600 C   0  0  0  0  0  0  0  0  0  0  0  0
  130.2920  126.2220   60.8340 C   0  0  0  0  0  0  0  0  0  0  0  0
  131.6820  125.6460   62.9530 C   0  0  0  0  0  0  0  0  0  0  0  0
  131.0240  126.3880   63.9950 C   0  0  0  0  0  0  0  0  0  0  0  0
  129.9270  127.1760   63.7510 N   0  0  0  0  0  0  0  0  0  0  0  0
  128.4470  125.9750   68.9310 C   0  0  0  0  0  0  0  0  0  0  0  0
  127.9520  126.3560   70.1760 C   0  0  0  0  0  0  0  0  0  0  0  0
  1  2  1  0
  2  3  1  0
  3  4  1  0
  4  5  2  0
  4  6  1  0
  6  7  2  0
  7  8  1  0
  8  9  2  0
  9 10  1  0
 10 11  1  0
 11 12  2  0
 11 13  1  0
 13 14  1  0
 14 15  1  0
 15 16  2  0
 16 17  1  0
 17 18  1  0
 17 19  2  0
 19 20  1  0
 20 21  1  0
 20 22  2  0
 22 23  1  0
 23 24  1  0
  9 25  1  0
 25 26  2  0
 26  6  1  0
 23 13  2  0
 22 15  1  0
M  END
>  <Binding energies>  (37) 
[-7.01]

>  <Ligand effiencies>  (37) 
[-0.24172413793103448]

>  <Interactions>  (37) 
["V-A:ILE:369:CG1:3234, V-A:ILE:369:CG2:3233, V-A:GLU:543:CD:4905, V-B:GLU:543:C:9871, V-A:HIS:456:CD2:4064, V-A:HIS:456:CE1:4066, V-B:HIS:456:CD2:9036, V-A:ARG:545:CZ:4923, V-B:GLY:544:C:9881, V-B:HIS:456:CE1:9038, V-A:ASP:366:CG:3209, V-A:ILE:369:CB:3232, V-B:GLU:543:CB:9875, H-A:TYR:484:OH:4344, V-A:LYS:547:CE:4947, H-A:ARG:545:NE:4921, H-B:GLU:543:OE2:9879, H-A:LYS:547:NZ:4948, H-A:GLU:543:OE1:4906, H-A:GLU:543:OE2:4907, H-B:GLU:543:OE1:9878, H-A:GLY:454:N:4046, V-B:HIS:456:CG:9034, H-A:HIS:456:NE2:4067"]

$$$$
4ab_Grossjean_2025
     RDKit          3D

 25 27  0  0  0  0  0  0  0  0999 V2000
  129.0190  129.7950   73.2480 C   0  0  0  0  0  0  0  0  0  0  0  0
  129.0690  128.3860   73.0750 O   0  0  0  0  0  0  0  0  0  0  0  0
  128.1320  127.7390   72.3360 C   0  0  0  0  0  0  0  0  0  0  0  0
  126.9820  127.5240   72.7310 O   0  0  0  0  0  0  0  0  0  0  0  0
  128.6360  127.3040   70.9900 C   0  0  0  0  0  0  0  0  0  0  0  0
  129.8580  127.8070   70.5230 C   0  0  0  0  0  0  0  0  0  0  0  0
  130.3520  127.4240   69.2780 C   0  0  0  0  0  0  0  0  0  0  0  0
  129.6410  126.5270   68.4810 C   0  0  0  0  0  0  0  0  0  0  0  0
  130.2290  126.2150   67.2400 N   0  0  0  0  0  0  0  0  0  0  0  0
  131.1960  126.8610   66.5450 C   0  0  0  0  0  0  0  0  0  0  0  0
  131.7180  127.9180   66.9030 O   0  0  0  0  0  0  0  0  0  0  0  0
  131.5890  126.2270   65.2860 C   0  0  0  0  0  0  0  0  0  0  0  0
  132.9820  125.1430   65.2310 S   0  0  0  0  0  0  0  0  0  0  0  0
  132.7840  124.8970   63.5110 C   0  0  0  0  0  0  0  0  0  0  0  0
  133.6000  124.1090   62.8110 N   0  0  0  0  0  0  0  0  0  0  0  0
  133.3380  124.0070   61.4850 C   0  0  0  0  0  0  0  0  0  0  0  0
  134.2820  123.1090   60.7070 C   0  0  0  0  0  0  0  0  0  0  0  0
  132.2880  124.6650   60.8500 C   0  0  0  0  0  0  0  0  0  0  0  0
  131.4330  125.4930   61.5870 C   0  0  0  0  0  0  0  0  0  0  0  0
  130.3020  126.1910   60.8480 C   0  0  0  0  0  0  0  0  0  0  0  0
  131.6780  125.6280   62.9800 C   0  0  0  0  0  0  0  0  0  0  0  0
  131.0190  126.3820   64.0130 C   0  0  0  0  0  0  0  0  0  0  0  0
  129.9280  127.1740   63.7560 N   0  0  0  0  0  0  0  0  0  0  0  0
  128.4140  126.0220   68.9380 C   0  0  0  0  0  0  0  0  0  0  0  0
  127.9210  126.4080   70.1810 C   0  0  0  0  0  0  0  0  0  0  0  0
  1  2  1  0
  2  3  1  0
  3  4  2  0
  3  5  1  0
  5  6  2  0
  6  7  1  0
  7  8  2  0
  8  9  1  0
  9 10  1  0
 10 11  2  0
 10 12  1  0
 12 13  1  0
 13 14  1  0
 14 15  2  0
 15 16  1  0
 16 17  1  0
 16 18  2  0
 18 19  1  0
 19 20  1  0
 19 21  2  0
 21 22  1  0
 22 23  1  0
  8 24  1  0
 24 25  2  0
 25  5  1  0
 22 12  2  0
 21 14  1  0
M  END
>  <Binding energies>  (38) 
[-6.94]

>  <Ligand effiencies>  (38) 
[-0.24785714285714286]

>  <Interactions>  (38) 
["V-A:ILE:369:CG1:3234, V-A:ILE:369:CG2:3233, V-A:GLU:543:CD:4905, V-B:GLU:543:C:9871, V-A:HIS:456:CD2:4064, V-A:HIS:456:CE1:4066, V-B:HIS:456:CD2:9036, V-A:ARG:545:CZ:4923, V-B:GLY:544:C:9881, V-B:HIS:456:CE1:9038, V-A:ASP:366:CG:3209, V-A:ILE:369:CB:3232, V-B:GLU:543:CB:9875, H-A:TYR:484:OH:4344, V-A:LYS:547:CE:4947, H-A:ARG:545:NE:4921, H-B:GLU:543:OE2:9879, H-A:LYS:547:NZ:4948, H-A:GLU:543:OE1:4906, H-A:GLU:543:OE2:4907, H-B:GLU:543:OE1:9878, H-A:GLY:454:N:4046, V-B:HIS:456:CG:9034, H-A:HIS:456:NE2:4067"]

$$$$
4ac_Grossjean_2025
     RDKit          3D

 23 25  0  0  0  0  0  0  0  0999 V2000
  128.0990  127.7610   73.1050 C   0  0  0  0  0  0  0  0  0  0  0  0
  127.4510  127.2850   71.9300 O   0  0  0  0  0  0  0  0  0  0  0  0
  128.1940  127.0870   70.7830 C   0  0  0  0  0  0  0  0  0  0  0  0
  127.6610  126.2080   69.8400 C   0  0  0  0  0  0  0  0  0  0  0  0
  128.3390  125.9470   68.6520 C   0  0  0  0  0  0  0  0  0  0  0  0
  129.5590  126.5710   68.3880 C   0  0  0  0  0  0  0  0  0  0  0  0
  130.1770  126.2350   67.1690 N   0  0  0  0  0  0  0  0  0  0  0  0
  131.2080  126.8440   66.5350 C   0  0  0  0  0  0  0  0  0  0  0  0
  131.7650  127.8640   66.9470 O   0  0  0  0  0  0  0  0  0  0  0  0
  131.6380  126.2120   65.2850 C   0  0  0  0  0  0  0  0  0  0  0  0
  133.0190  125.1130   65.2710 S   0  0  0  0  0  0  0  0  0  0  0  0
  132.8520  124.8510   63.5500 C   0  0  0  0  0  0  0  0  0  0  0  0
  133.6730  124.0440   62.8760 N   0  0  0  0  0  0  0  0  0  0  0  0
  133.4360  123.9280   61.5470 C   0  0  0  0  0  0  0  0  0  0  0  0
  134.3800  123.0060   60.7990 C   0  0  0  0  0  0  0  0  0  0  0  0
  132.4080  124.5960   60.8820 C   0  0  0  0  0  0  0  0  0  0  0  0
  131.5490  125.4420   61.5920 C   0  0  0  0  0  0  0  0  0  0  0  0
  130.4440  126.1480   60.8220 C   0  0  0  0  0  0  0  0  0  0  0  0
  131.7660  125.5860   62.9890 C   0  0  0  0  0  0  0  0  0  0  0  0
  131.0890  126.3520   64.0010 C   0  0  0  0  0  0  0  0  0  0  0  0
  130.0070  127.1460   63.7160 N   0  0  0  0  0  0  0  0  0  0  0  0
  130.1080  127.4460   69.3370 C   0  0  0  0  0  0  0  0  0  0  0  0
  129.4270  127.7040   70.5240 C   0  0  0  0  0  0  0  0  0  0  0  0
  1  2  1  0
  2  3  1  0
  3  4  2  0
  4  5  1  0
  5  6  2  0
  6  7  1  0
  7  8  1  0
  8  9  2  0
  8 10  1  0
 10 11  1  0
 11 12  1  0
 12 13  2  0
 13 14  1  0
 14 15  1  0
 14 16  2  0
 16 17  1  0
 17 18  1  0
 17 19  2  0
 19 20  1  0
 20 21  1  0
  6 22  1  0
 22 23  2  0
 23  3  1  0
 20 10  2  0
 19 12  1  0
M  END
>  <Binding energies>  (39) 
[-6.25]

>  <Ligand effiencies>  (39) 
[-0.2403846153846154]

>  <Interactions>  (39) 
["V-A:ILE:369:CG1:3234, V-A:ILE:369:CG2:3233, V-A:GLU:543:CD:4905, V-B:GLU:543:C:9871, V-A:HIS:456:CE1:4066, V-B:HIS:456:CD2:9036, V-A:ARG:545:CZ:4923, V-B:GLY:544:C:9881, V-B:HIS:456:CE1:9038, V-A:ASP:366:CG:3209, V-B:LYS:547:CE:9919, V-A:ILE:369:CB:3232, V-B:GLU:543:CB:9875, H-A:ARG:545:NE:4921, H-B:GLU:543:OE2:9879, H-A:GLU:543:OE1:4906, H-A:GLU:543:OE2:4907, H-B:GLU:543:OE1:9878, H-A:GLY:454:N:4046, H-A:HIS:456:NE2:4067"]

$$$$
4ad_Grossjean_2025
     RDKit          3D

 21 23  0  0  0  0  0  0  0  0999 V2000
  134.6530  125.0990   65.7970 C   0  0  0  0  0  0  0  0  0  0  0  0
  133.3420  124.9710   65.0440 C   0  0  0  0  0  0  0  0  0  0  0  0
  132.2590  125.7960   65.3420 C   0  0  0  0  0  0  0  0  0  0  0  0
  131.0580  125.6580   64.6350 C   0  0  0  0  0  0  0  0  0  0  0  0
  129.9030  126.5790   64.9990 C   0  0  0  0  0  0  0  0  0  0  0  0
  130.9950  124.6620   63.6230 C   0  0  0  0  0  0  0  0  0  0  0  0
  129.9480  124.2570   62.7250 C   0  0  0  0  0  0  0  0  0  0  0  0
  128.7140  124.8590   62.7220 N   0  0  0  0  0  0  0  0  0  0  0  0
  130.3060  123.2050   61.8670 C   0  0  0  0  0  0  0  0  0  0  0  0
  129.4900  122.5410   60.8490 C   0  0  0  0  0  0  0  0  0  0  0  0
  129.4630  121.3110   60.7700 O   0  0  0  0  0  0  0  0  0  0  0  0
  128.7830  123.3680   60.0400 N   0  0  0  0  0  0  0  0  0  0  0  0
  127.9470  123.0560   58.9500 C   0  0  0  0  0  0  0  0  0  0  0  0
  126.6210  123.4850   59.0550 C   0  0  0  0  0  0  0  0  0  0  0  0
  125.7190  123.2340   58.0250 C   0  0  0  0  0  0  0  0  0  0  0  0
  126.1450  122.5590   56.8840 C   0  0  0  0  0  0  0  0  0  0  0  0
  127.4670  122.1380   56.7610 C   0  0  0  0  0  0  0  0  0  0  0  0
  128.3710  122.3870   57.7900 C   0  0  0  0  0  0  0  0  0  0  0  0
  131.9690  122.6910   62.1520 S   0  0  0  0  0  0  0  0  0  0  0  0
  132.1730  123.8820   63.4160 C   0  0  0  0  0  0  0  0  0  0  0  0
  133.3180  124.0120   64.0870 N   0  0  0  0  0  0  0  0  0  0  0  0
  1  2  1  0
  2  3  2  0
  3  4  1  0
  4  5  1  0
  4  6  2  0
  6  7  1  0
  7  8  1  0
  7  9  2  0
  9 10  1  0
 10 11  2  0
 10 12  1  0
 12 13  1  0
 13 14  2  0
 14 15  1  0
 15 16  2  0
 16 17  1  0
 17 18  2  0
  9 19  1  0
 19 20  1  0
 20 21  2  0
 21  2  1  0
 20  6  1  0
 18 13  1  0
M  END
>  <Binding energies>  (40) 
[-6.91]

>  <Ligand effiencies>  (40) 
[-0.28791666666666665]

>  <Interactions>  (40) 
["V-A:LEU:475:CD1:4254, V-A:GLU:543:CD:4905, V-B:TYR:539:CE2:9845, V-B:ALA:541:CB:9861, V-B:PRO:540:CA:9852, V-B:GLU:543:CD:9877, V-B:TYR:539:CZ:9846, V-B:TYR:539:CD2:9843, V-B:TYR:539:CE1:9844, V-A:HIS:456:CE1:4066, V-A:ARG:545:CZ:4923, V-B:GLU:543:CG:9876, H-A:TYR:484:OH:4344, V-A:GLY:453:C:4038, V-B:TYR:539:C:9836, V-A:GLY:454:CA:4045, V-A:GLY:454:C:4043, V-A:ARG:545:CG:4919, V-A:GLY:453:CA:4040, V-A:ARG:545:CD:4920, H-B:GLU:543:OE2:9879, H-B:GLU:543:OE1:9878, V-B:TYR:539:CD1:9842, V-B:PRO:540:N:9853, V-B:TYR:539:CG:9841, H-A:GLY:454:N:4046, V-B:PRO:540:CB:9854, V-B:PRO:540:CD:9856, V-B:TYR:539:CA:9838"]

$$$$
4ae_Grossjean_2025
     RDKit          3D

 22 24  0  0  0  0  0  0  0  0999 V2000
  130.1330  128.2450   71.4190 C   0  0  0  0  0  0  0  0  0  0  0  0
  129.3870  127.4280   70.3820 C   0  0  0  0  0  0  0  0  0  0  0  0
  128.0850  126.9740   70.6070 C   0  0  0  0  0  0  0  0  0  0  0  0
  127.4640  126.2210   69.6100 C   0  0  0  0  0  0  0  0  0  0  0  0
  128.1520  125.9410   68.4270 C   0  0  0  0  0  0  0  0  0  0  0  0
  129.4510  126.4330   68.2640 C   0  0  0  0  0  0  0  0  0  0  0  0
  130.0990  126.1010   67.0610 N   0  0  0  0  0  0  0  0  0  0  0  0
  131.1450  126.7240   66.4620 C   0  0  0  0  0  0  0  0  0  0  0  0
  131.6970  127.7280   66.9150 O   0  0  0  0  0  0  0  0  0  0  0  0
  131.5960  126.1220   65.2050 C   0  0  0  0  0  0  0  0  0  0  0  0
  132.9930  125.0450   65.1840 S   0  0  0  0  0  0  0  0  0  0  0  0
  132.8700  124.8400   63.4520 C   0  0  0  0  0  0  0  0  0  0  0  0
  133.7210  124.0740   62.7700 N   0  0  0  0  0  0  0  0  0  0  0  0
  133.5190  124.0050   61.4320 C   0  0  0  0  0  0  0  0  0  0  0  0
  134.5030  123.1330   60.6740 C   0  0  0  0  0  0  0  0  0  0  0  0
  132.4930  124.6750   60.7670 C   0  0  0  0  0  0  0  0  0  0  0  0
  131.6010  125.4780   61.4870 C   0  0  0  0  0  0  0  0  0  0  0  0
  130.5010  126.1930   60.7160 C   0  0  0  0  0  0  0  0  0  0  0  0
  131.7830  125.5770   62.8930 C   0  0  0  0  0  0  0  0  0  0  0  0
  131.0710  126.2980   63.9140 C   0  0  0  0  0  0  0  0  0  0  0  0
  129.9820  127.0830   63.6340 N   0  0  0  0  0  0  0  0  0  0  0  0
  130.0680  127.1660   69.2380 N   0  0  0  0  0  0  0  0  0  0  0  0
  1  2  1  0
  2  3  2  0
  3  4  1  0
  4  5  2  0
  5  6  1  0
  6  7  1  0
  7  8  1  0
  8  9  2  0
  8 10  1  0
 10 11  1  0
 11 12  1  0
 12 13  2  0
 13 14  1  0
 14 15  1  0
 14 16  2  0
 16 17  1  0
 17 18  1  0
 17 19  2  0
 19 20  1  0
 20 21  1  0
  6 22  2  0
 22  2  1  0
 20 10  2  0
 19 12  1  0
M  END
>  <Binding energies>  (41) 
[-6.55]

>  <Ligand effiencies>  (41) 
[-0.262]

>  <Interactions>  (41) 
["V-A:ILE:369:CG1:3234, V-A:ILE:369:CG2:3233, V-A:GLU:543:CD:4905, V-B:GLU:543:C:9871, V-A:HIS:456:CE1:4066, V-B:HIS:456:CD2:9036, V-A:ARG:545:CZ:4923, V-B:GLY:544:C:9881, V-B:HIS:456:CE1:9038, V-A:ASP:366:CG:3209, V-A:ASP:366:CB:3208, V-A:ILE:369:CB:3232, V-B:GLU:543:CB:9875, H-A:TYR:484:OH:4344, V-B:GLU:543:CA:9873, H-A:ARG:545:NE:4921, H-B:GLU:543:OE2:9879, V-A:GLY:544:C:4909, H-A:GLU:543:OE1:4906, H-A:GLU:543:OE2:4907, H-B:GLU:543:OE1:9878, H-A:GLY:454:N:4046"]

$$$$
4af_Grossjean_2025
     RDKit          3D

 21 23  0  0  0  0  0  0  0  0999 V2000
  134.5290  125.1020   65.6640 C   0  0  0  0  0  0  0  0  0  0  0  0
  133.2070  124.9180   64.9400 C   0  0  0  0  0  0  0  0  0  0  0  0
  132.0710  125.6230   65.3310 C   0  0  0  0  0  0  0  0  0  0  0  0
  130.8620  125.4360   64.6500 C   0  0  0  0  0  0  0  0  0  0  0  0
  129.6490  126.2260   65.1140 C   0  0  0  0  0  0  0  0  0  0  0  0
  130.8470  124.5150   63.5670 C   0  0  0  0  0  0  0  0  0  0  0  0
  129.8040  124.0880   62.6720 C   0  0  0  0  0  0  0  0  0  0  0  0
  128.5240  124.5760   62.7540 N   0  0  0  0  0  0  0  0  0  0  0  0
  130.2200  123.1400   61.7240 C   0  0  0  0  0  0  0  0  0  0  0  0
  129.4230  122.4740   60.6920 C   0  0  0  0  0  0  0  0  0  0  0  0
  129.4690  121.2510   60.5560 O   0  0  0  0  0  0  0  0  0  0  0  0
  128.6480  123.2930   59.9390 N   0  0  0  0  0  0  0  0  0  0  0  0
  127.8120  122.9830   58.8500 C   0  0  0  0  0  0  0  0  0  0  0  0
  126.4970  123.4500   58.6720 C   0  0  0  0  0  0  0  0  0  0  0  0
  125.7680  123.0500   57.5500 C   0  0  0  0  0  0  0  0  0  0  0  0
  126.3700  122.1870   56.6340 C   0  0  0  0  0  0  0  0  0  0  0  0
  127.6330  121.7160   56.7870 N   0  0  0  0  0  0  0  0  0  0  0  0
  128.3290  122.1130   57.8820 C   0  0  0  0  0  0  0  0  0  0  0  0
  131.9300  122.7490   61.9210 S   0  0  0  0  0  0  0  0  0  0  0  0
  132.0770  123.8570   63.2660 C   0  0  0  0  0  0  0  0  0  0  0  0
  133.2300  124.0340   63.9120 N   0  0  0  0  0  0  0  0  0  0  0  0
  1  2  1  0
  2  3  2  0
  3  4  1  0
  4  5  1  0
  4  6  2  0
  6  7  1  0
  7  8  1  0
  7  9  2  0
  9 10  1  0
 10 11  2  0
 10 12  1  0
 12 13  1  0
 13 14  2  0
 14 15  1  0
 15 16  2  0
 16 17  1  0
 17 18  2  0
  9 19  1  0
 19 20  1  0
 20 21  2  0
 21  2  1  0
 20  6  1  0
 18 13  1  0
M  END
>  <Binding energies>  (42) 
[-7.13]

>  <Ligand effiencies>  (42) 
[-0.2970833333333333]

>  <Interactions>  (42) 
["V-B:TYR:539:CE2:9845, V-B:ALA:541:CB:9861, V-B:PRO:540:CA:9852, V-B:GLU:543:CD:9877, H-B:TYR:539:N:9839, V-B:TYR:539:CZ:9846, V-B:TYR:539:CD2:9843, V-B:TYR:539:CE1:9844, V-A:HIS:456:CE1:4066, V-A:ARG:545:CZ:4923, V-B:GLU:543:CG:9876, H-A:TYR:484:OH:4344, V-A:GLY:453:C:4038, V-B:TYR:539:C:9836, V-A:GLY:454:CA:4045, V-A:GLY:454:C:4043, V-A:ARG:545:CG:4919, V-A:GLY:453:CA:4040, V-A:ARG:545:CD:4920, H-B:GLU:543:OE2:9879, H-B:GLU:543:OE1:9878, V-B:TYR:539:CD1:9842, V-B:PRO:540:N:9853, V-B:TYR:539:CG:9841, H-A:GLY:454:N:4046, V-B:PRO:540:CB:9854, V-B:PRO:540:CD:9856, V-B:ILE:538:CB:9831"]

$$$$
4ag_Grossjean_2025
     RDKit          3D

 22 24  0  0  0  0  0  0  0  0999 V2000
  135.3730  123.5990   61.2300 C   0  0  0  0  0  0  0  0  0  0  0  0
  134.0600  123.5350   61.9880 C   0  0  0  0  0  0  0  0  0  0  0  0
  133.0900  122.5900   61.6620 C   0  0  0  0  0  0  0  0  0  0  0  0
  131.8860  122.5470   62.3740 C   0  0  0  0  0  0  0  0  0  0  0  0
  130.8580  121.4970   61.9820 C   0  0  0  0  0  0  0  0  0  0  0  0
  131.7020  123.4900   63.4210 C   0  0  0  0  0  0  0  0  0  0  0  0
  130.6160  123.7250   64.3340 C   0  0  0  0  0  0  0  0  0  0  0  0
  129.4660  122.9740   64.3150 N   0  0  0  0  0  0  0  0  0  0  0  0
  130.8420  124.7800   65.2280 C   0  0  0  0  0  0  0  0  0  0  0  0
  129.9640  125.2790   66.2870 C   0  0  0  0  0  0  0  0  0  0  0  0
  129.7540  124.6240   67.3090 O   0  0  0  0  0  0  0  0  0  0  0  0
  129.3910  126.4810   66.0660 N   0  0  0  0  0  0  0  0  0  0  0  0
  128.5030  127.1810   66.9940 C   0  0  0  0  0  0  0  0  0  0  0  0
  128.9600  127.1250   68.4470 C   0  0  0  0  0  0  0  0  0  0  0  0
  130.1490  127.7540   68.8270 C   0  0  0  0  0  0  0  0  0  0  0  0
  130.5560  127.7260   70.1590 C   0  0  0  0  0  0  0  0  0  0  0  0
  129.7660  127.0800   71.1080 C   0  0  0  0  0  0  0  0  0  0  0  0
  128.5720  126.4650   70.7390 C   0  0  0  0  0  0  0  0  0  0  0  0
  128.1650  126.4930   69.4080 C   0  0  0  0  0  0  0  0  0  0  0  0
  132.4260  125.5110   64.9680 S   0  0  0  0  0  0  0  0  0  0  0  0
  132.7710  124.4050   63.6570 C   0  0  0  0  0  0  0  0  0  0  0  0
  133.9200  124.4470   62.9800 N   0  0  0  0  0  0  0  0  0  0  0  0
  1  2  1  0
  2  3  2  0
  3  4  1  0
  4  5  1  0
  4  6  2  0
  6  7  1  0
  7  8  1  0
  7  9  2  0
  9 10  1  0
 10 11  2  0
 10 12  1  0
 12 13  1  0
 13 14  1  0
 14 15  2  0
 15 16  1  0
 16 17  2  0
 17 18  1  0
 18 19  2  0
  9 20  1  0
 20 21  1  0
 21 22  2  0
 22  2  1  0
 21  6  1  0
 19 14  1  0
M  END
>  <Binding energies>  (43) 
[-6.9]

>  <Ligand effiencies>  (43) 
[-0.276]

>  <Interactions>  (43) 
["V-A:ILE:369:CG1:3234, V-A:LEU:475:CD1:4254, V-B:TYR:539:CE2:9845, V-B:ALA:541:CB:9861, V-B:GLU:543:CD:9877, V-A:GLU:543:CB:4903, V-A:HIS:456:CD2:4064, V-A:HIS:456:CE1:4066, V-A:ARG:545:CZ:4923, V-B:GLU:543:CG:9876, V-B:HIS:456:CE1:9038, V-A:ASP:366:CG:3209, V-A:ASP:366:CA:3206, V-A:ILE:369:CB:3232, V-B:GLU:543:CB:9875, H-A:TYR:484:OH:4344, V-A:GLY:453:C:4038, V-A:GLY:454:CA:4045, V-A:GLY:453:CA:4040, V-A:TYR:484:CE1:4341, H-B:GLU:543:OE2:9879, V-A:GLY:544:C:4909, H-A:GLU:543:OE1:4906, H-A:GLY:454:N:4046"]

$$$$
4ah_Grossjean_2025
     RDKit          3D

 28 30  0  0  0  0  0  0  0  0999 V2000
  129.7670  123.0070   71.7310 C   0  0  0  0  0  0  0  0  0  0  0  0
  129.0880  124.1390   72.2620 O   0  0  0  0  0  0  0  0  0  0  0  0
  129.1440  125.3440   71.5830 C   0  0  0  0  0  0  0  0  0  0  0  0
  128.7400  125.5120   70.2500 C   0  0  0  0  0  0  0  0  0  0  0  0
  128.8260  126.7580   69.6280 C   0  0  0  0  0  0  0  0  0  0  0  0
  128.3390  126.9320   68.1940 C   0  0  0  0  0  0  0  0  0  0  0  0
  129.1650  126.2380   67.2070 N   0  0  0  0  0  0  0  0  0  0  0  0
  130.4430  126.5470   66.9010 C   0  0  0  0  0  0  0  0  0  0  0  0
  131.0380  127.4960   67.4140 O   0  0  0  0  0  0  0  0  0  0  0  0
  131.0790  125.7110   65.8840 C   0  0  0  0  0  0  0  0  0  0  0  0
  132.5820  126.2320   65.1200 S   0  0  0  0  0  0  0  0  0  0  0  0
  132.6090  124.8100   64.1020 C   0  0  0  0  0  0  0  0  0  0  0  0
  133.5870  124.5900   63.2220 N   0  0  0  0  0  0  0  0  0  0  0  0
  133.4900  123.4500   62.4970 C   0  0  0  0  0  0  0  0  0  0  0  0
  134.6110  123.2220   61.4990 C   0  0  0  0  0  0  0  0  0  0  0  0
  132.4510  122.5330   62.6300 C   0  0  0  0  0  0  0  0  0  0  0  0
  131.4250  122.7650   63.5530 C   0  0  0  0  0  0  0  0  0  0  0  0
  130.3110  121.7350   63.6620 C   0  0  0  0  0  0  0  0  0  0  0  0
  131.4900  123.9530   64.3320 C   0  0  0  0  0  0  0  0  0  0  0  0
  130.6270  124.4980   65.3440 C   0  0  0  0  0  0  0  0  0  0  0  0
  129.4740  123.8690   65.7420 N   0  0  0  0  0  0  0  0  0  0  0  0
  129.2940  127.8570   70.3510 C   0  0  0  0  0  0  0  0  0  0  0  0
  129.7110  127.7170   71.6840 C   0  0  0  0  0  0  0  0  0  0  0  0
  130.1990  128.7580   72.4530 O   0  0  0  0  0  0  0  0  0  0  0  0
  129.4660  129.9770   72.5230 C   0  0  0  0  0  0  0  0  0  0  0  0
  129.6360  126.4540   72.2870 C   0  0  0  0  0  0  0  0  0  0  0  0
  130.0240  126.3060   73.5970 O   0  0  0  0  0  0  0  0  0  0  0  0
  131.1420  125.4480   73.7770 C   0  0  0  0  0  0  0  0  0  0  0  0
  1  2  1  0
  2  3  1  0
  3  4  2  0
  4  5  1  0
  5  6  1  0
  6  7  1  0
  7  8  1  0
  8  9  2  0
  8 10  1  0
 10 11  1  0
 11 12  1  0
 12 13  2  0
 13 14  1  0
 14 15  1  0
 14 16  2  0
 16 17  1  0
 17 18  1  0
 17 19  2  0
 19 20  1  0
 20 21  1  0
  5 22  2  0
 22 23  1  0
 23 24  1  0
 24 25  1  0
 23 26  2  0
 26 27  1  0
 27 28  1  0
 26  3  1  0
 20 10  2  0
 19 12  1  0
M  END
>  <Binding energies>  (44) 
[-7.17]

>  <Ligand effiencies>  (44) 
[-0.23129032258064516]

>  <Interactions>  (44) 
["V-A:ILE:369:CG1:3234, V-A:LEU:475:CD1:4254, V-B:ALA:541:CB:9861, V-B:GLU:543:C:9871, V-B:GLU:543:CD:9877, V-A:HIS:456:CD2:4064, V-A:HIS:456:CE1:4066, V-B:HIS:456:CD2:9036, V-A:ARG:545:CZ:4923, V-B:GLU:543:CG:9876, V-B:HIS:456:CE1:9038, V-B:LYS:547:CE:9919, V-B:GLU:543:CB:9875, H-A:TYR:484:OH:4344, V-A:GLY:453:C:4038, V-A:GLY:454:CA:4045, V-B:GLU:543:CA:9873, V-A:LYS:547:CE:4947, H-A:ARG:545:NH2:4925, V-A:GLY:544:CA:4911, V-A:ARG:545:CG:4919, V-A:GLY:453:CA:4040, V-A:ARG:545:CD:4920, V-A:TYR:484:CE1:4341, H-B:GLU:543:OE2:9879, V-A:TYR:484:CZ:4343, H-A:LYS:547:NZ:4948, H-B:GLU:543:OE1:9878, H-A:GLY:454:N:4046, V-A:LEU:475:CD2:4255, V-A:LEU:475:CG:4253, H-B:LYS:547:NZ:9920, V-A:TYR:484:CD1:4339, V-A:TYR:484:CG:4338, V-A:TYR:484:CD2:4340, H-B:GLU:543:O:9872"]

$$$$
4ai_Grossjean_2025
     RDKit          3D

 20 22  0  0  0  0  0  0  0  0999 V2000
  129.8220  127.6790   61.7020 C   0  0  0  0  0  0  0  0  0  0  0  0
  129.7410  127.0040   63.0590 C   0  0  0  0  0  0  0  0  0  0  0  0
  130.2820  125.7360   63.2620 C   0  0  0  0  0  0  0  0  0  0  0  0
  130.2020  125.1350   64.5240 C   0  0  0  0  0  0  0  0  0  0  0  0
  130.8100  123.7510   64.6960 C   0  0  0  0  0  0  0  0  0  0  0  0
  129.5590  125.8590   65.5640 C   0  0  0  0  0  0  0  0  0  0  0  0
  129.3060  125.5510   66.9460 C   0  0  0  0  0  0  0  0  0  0  0  0
  129.6950  124.3640   67.5150 N   0  0  0  0  0  0  0  0  0  0  0  0
  128.6380  126.5690   67.6440 C   0  0  0  0  0  0  0  0  0  0  0  0
  128.2170  126.5880   69.0460 C   0  0  0  0  0  0  0  0  0  0  0  0
  127.1400  126.0950   69.3870 O   0  0  0  0  0  0  0  0  0  0  0  0
  129.0950  127.1590   69.9090 N   0  0  0  0  0  0  0  0  0  0  0  0
  128.9570  127.3010   71.2840 C   0  0  0  0  0  0  0  0  0  0  0  0
  127.7610  127.0570   71.9590 C   0  0  0  0  0  0  0  0  0  0  0  0
  128.0380  127.3120   73.2820 C   0  0  0  0  0  0  0  0  0  0  0  0
  129.3330  127.6880   73.3990 O   0  0  0  0  0  0  0  0  0  0  0  0
  129.9060  127.6760   72.1260 N   0  0  0  0  0  0  0  0  0  0  0  0
  128.2820  127.9380   66.5880 S   0  0  0  0  0  0  0  0  0  0  0  0
  129.0460  127.1480   65.2260 C   0  0  0  0  0  0  0  0  0  0  0  0
  129.1200  127.7230   64.0260 N   0  0  0  0  0  0  0  0  0  0  0  0
  1  2  1  0
  2  3  2  0
  3  4  1  0
  4  5  1  0
  4  6  2  0
  6  7  1  0
  7  8  1  0
  7  9  2  0
  9 10  1  0
 10 11  2  0
 10 12  1  0
 12 13  1  0
 13 14  1  0
 14 15  2  0
 15 16  1  0
 16 17  1  0
  9 18  1  0
 18 19  1  0
 19 20  2  0
 20  2  1  0
 19  6  1  0
 17 13  2  0
M  END
>  <Binding energies>  (45) 
[-6.5]

>  <Ligand effiencies>  (45) 
[-0.2826086956521739]

>  <Interactions>  (45) 
["V-A:GLU:543:CD:4905, V-B:GLU:543:C:9871, V-B:GLU:543:CD:9877, V-A:HIS:456:CE1:4066, V-B:HIS:456:CD2:9036, V-B:GLU:543:CG:9876, V-B:HIS:456:CE1:9038, V-B:LYS:547:CE:9919, V-B:GLU:543:CB:9875, H-A:TYR:484:OH:4344, V-B:GLU:543:CA:9873, H-B:ARG:545:N:9889, V-A:TYR:484:CE1:4341, V-A:TYR:484:CZ:4343, H-A:LYS:547:NZ:4948, V-A:TYR:484:CD1:4339, H-A:HIS:456:NE2:4067, H-B:HIS:456:NE2:9039, H-A:GLU:543:O:4900, H-B:GLU:543:O:9872"]

$$$$
4aj_Grossjean_2025
     RDKit          3D

 20 22  0  0  0  0  0  0  0  0999 V2000
  134.5020  125.0870   65.7670 C   0  0  0  0  0  0  0  0  0  0  0  0
  133.1940  124.8990   65.0210 C   0  0  0  0  0  0  0  0  0  0  0  0
  132.0470  125.5940   65.3980 C   0  0  0  0  0  0  0  0  0  0  0  0
  130.8500  125.4010   64.6990 C   0  0  0  0  0  0  0  0  0  0  0  0
  129.6260  126.1840   65.1490 C   0  0  0  0  0  0  0  0  0  0  0  0
  130.8560  124.4860   63.6130 C   0  0  0  0  0  0  0  0  0  0  0  0
  129.8290  124.0550   62.7020 C   0  0  0  0  0  0  0  0  0  0  0  0
  128.5440  124.5290   62.7700 N   0  0  0  0  0  0  0  0  0  0  0  0
  130.2680  123.1230   61.7490 C   0  0  0  0  0  0  0  0  0  0  0  0
  129.4950  122.4720   60.6880 C   0  0  0  0  0  0  0  0  0  0  0  0
  129.4330  121.2430   60.6180 O   0  0  0  0  0  0  0  0  0  0  0  0
  128.8660  123.3110   59.8290 N   0  0  0  0  0  0  0  0  0  0  0  0
  128.0670  122.9550   58.7510 C   0  0  0  0  0  0  0  0  0  0  0  0
  128.4080  122.2590   57.6880 N   0  0  0  0  0  0  0  0  0  0  0  0
  127.3900  122.1040   56.8630 C   0  0  0  0  0  0  0  0  0  0  0  0
  126.1870  122.6850   57.2540 C   0  0  0  0  0  0  0  0  0  0  0  0
  126.4120  123.4720   58.7880 S   0  0  0  0  0  0  0  0  0  0  0  0
  131.9760  122.7400   61.9710 S   0  0  0  0  0  0  0  0  0  0  0  0
  132.0960  123.8380   63.3270 C   0  0  0  0  0  0  0  0  0  0  0  0
  133.2380  124.0190   63.9900 N   0  0  0  0  0  0  0  0  0  0  0  0
  1  2  1  0
  2  3  2  0
  3  4  1  0
  4  5  1  0
  4  6  2  0
  6  7  1  0
  7  8  1  0
  7  9  2  0
  9 10  1  0
 10 11  2  0
 10 12  1  0
 12 13  1  0
 13 14  2  0
 14 15  1  0
 15 16  2  0
 16 17  1  0
  9 18  1  0
 18 19  1  0
 19 20  2  0
 20  2  1  0
 19  6  1  0
 17 13  1  0
M  END
>  <Binding energies>  (46) 
[-6.21]

>  <Ligand effiencies>  (46) 
[-0.27]

>  <Interactions>  (46) 
["V-A:LEU:475:CD1:4254, V-B:TYR:539:CE2:9845, V-B:ALA:541:CB:9861, V-B:PRO:540:CA:9852, V-B:GLU:543:CD:9877, V-B:TYR:539:CD2:9843, V-B:TYR:539:CE1:9844, V-A:HIS:456:CE1:4066, V-A:ARG:545:CZ:4923, V-B:GLU:543:CG:9876, H-A:TYR:484:OH:4344, V-A:GLY:453:C:4038, V-B:TYR:539:C:9836, V-A:GLY:454:CA:4045, V-A:GLY:454:C:4043, V-A:ARG:545:CG:4919, V-A:GLY:453:CA:4040, V-A:ARG:545:CD:4920, H-B:GLU:543:OE2:9879, H-B:GLU:543:OE1:9878, V-B:TYR:539:CD1:9842, V-B:PRO:540:N:9853, V-B:TYR:539:CG:9841, H-A:GLY:454:N:4046, V-B:PRO:540:CB:9854, V-B:PRO:540:CD:9856, V-B:TYR:539:CA:9838"]

$$$$
4ak_Grossjean_2025
     RDKit          3D

 25 26  0  0  0  0  0  0  0  0999 V2000
  129.8550  122.8340   71.7890 C   0  0  0  0  0  0  0  0  0  0  0  0
  129.3790  123.9720   72.4900 O   0  0  0  0  0  0  0  0  0  0  0  0
  129.1410  125.0950   71.6510 C   0  0  0  0  0  0  0  0  0  0  0  0
  128.7420  126.3010   72.5110 C   0  0  0  0  0  0  0  0  0  0  0  0
  129.8580  127.1690   72.6510 O   0  0  0  0  0  0  0  0  0  0  0  0
  129.8400  128.2770   71.7600 C   0  0  0  0  0  0  0  0  0  0  0  0
  130.1130  127.7840   70.3340 C   0  0  0  0  0  0  0  0  0  0  0  0
  128.8830  127.4360   69.7130 O   0  0  0  0  0  0  0  0  0  0  0  0
  129.0360  126.7410   68.4830 C   0  0  0  0  0  0  0  0  0  0  0  0
  129.8090  127.6290   67.4900 C   0  0  0  0  0  0  0  0  0  0  0  0
  130.5130  126.8740   66.4540 N   0  0  0  0  0  0  0  0  0  0  0  0
  130.2310  125.6090   66.0830 C   0  0  0  0  0  0  0  0  0  0  0  0
  129.3090  124.9630   66.5850 O   0  0  0  0  0  0  0  0  0  0  0  0
  131.0780  125.0410   65.0350 C   0  0  0  0  0  0  0  0  0  0  0  0
  132.6520  125.7540   64.6800 S   0  0  0  0  0  0  0  0  0  0  0  0
  132.9610  124.5650   63.4350 C   0  0  0  0  0  0  0  0  0  0  0  0
  134.0880  124.5660   62.7220 N   0  0  0  0  0  0  0  0  0  0  0  0
  134.2010  123.5920   61.7870 C   0  0  0  0  0  0  0  0  0  0  0  0
  135.4910  123.6100   60.9870 C   0  0  0  0  0  0  0  0  0  0  0  0
  133.2250  122.6260   61.5520 C   0  0  0  0  0  0  0  0  0  0  0  0
  132.0430  122.6270   62.3020 C   0  0  0  0  0  0  0  0  0  0  0  0
  131.0050  121.5550   62.0060 C   0  0  0  0  0  0  0  0  0  0  0  0
  131.8880  123.6340   63.2920 C   0  0  0  0  0  0  0  0  0  0  0  0
  130.8290  123.9260   64.2210 C   0  0  0  0  0  0  0  0  0  0  0  0
  129.6850  123.1720   64.2880 N   0  0  0  0  0  0  0  0  0  0  0  0
  1  2  1  0
  2  3  1  0
  3  4  1  0
  4  5  1  0
  5  6  1  0
  6  7  1  0
  7  8  1  0
  8  9  1  0
  9 10  1  0
 10 11  1  0
 11 12  1  0
 12 13  2  0
 12 14  1  0
 14 15  1  0
 15 16  1  0
 16 17  2  0
 17 18  1  0
 18 19  1  0
 18 20  2  0
 20 21  1  0
 21 22  1  0
 21 23  2  0
 23 24  1  0
 24 25  1  0
 24 14  2  0
 23 16  1  0
M  END
>  <Binding energies>  (47) 
[-6.17]

>  <Ligand effiencies>  (47) 
[-0.22035714285714286]

>  <Interactions>  (47) 
["V-A:ILE:369:CG1:3234, V-A:LEU:475:CD1:4254, V-A:GLU:543:CD:4905, V-B:TYR:539:CE2:9845, V-B:ALA:541:CB:9861, V-A:GLU:543:CB:4903, V-A:HIS:456:CD2:4064, V-A:HIS:456:CE1:4066, V-B:HIS:456:CD2:9036, V-A:ARG:545:CZ:4923, V-B:GLU:543:CG:9876, V-A:ASP:366:CG:3209, V-A:ASP:366:CA:3206, V-B:LYS:547:CE:9919, V-A:ILE:369:CB:3232, V-A:GLY:453:C:4038, V-A:GLY:454:CA:4045, V-A:GLY:453:CA:4040, V-A:TYR:484:CE1:4341, H-A:LYS:547:NZ:4948, H-A:GLU:543:OE1:4906, H-A:GLY:454:N:4046, H-A:ARG:545:NH1:4924, H-B:LYS:547:NZ:9920, V-A:TYR:484:CD1:4339, V-A:TYR:484:CG:4338, V-A:TYR:484:CB:4337, V-A:TYR:484:CD2:4340"]

$$$$
4al_Grossjean_2025
     RDKit          3D

 16 17  0  0  0  0  0  0  0  0999 V2000
  125.6760  131.3900   58.7590 C   0  0  0  0  0  0  0  0  0  0  0  0
  126.5800  132.4810   58.6870 O   0  0  0  0  0  0  0  0  0  0  0  0
  127.4770  132.7100   59.6810 C   0  0  0  0  0  0  0  0  0  0  0  0
  127.2030  133.2800   60.7400 O   0  0  0  0  0  0  0  0  0  0  0  0
  128.8300  132.2030   59.3640 C   0  0  0  0  0  0  0  0  0  0  0  0
  129.2480  131.7860   57.7000 S   0  0  0  0  0  0  0  0  0  0  0  0
  130.8650  131.3230   58.1780 C   0  0  0  0  0  0  0  0  0  0  0  0
  131.7600  130.8760   57.2970 N   0  0  0  0  0  0  0  0  0  0  0  0
  132.9780  130.5510   57.7970 C   0  0  0  0  0  0  0  0  0  0  0  0
  133.9810  130.0440   56.7770 C   0  0  0  0  0  0  0  0  0  0  0  0
  133.3170  130.6620   59.1440 C   0  0  0  0  0  0  0  0  0  0  0  0
  132.3750  131.1310   60.0670 C   0  0  0  0  0  0  0  0  0  0  0  0
  132.7920  131.2350   61.5250 C   0  0  0  0  0  0  0  0  0  0  0  0
  131.0880  131.4820   59.5780 C   0  0  0  0  0  0  0  0  0  0  0  0
  129.9090  131.9860   60.2280 C   0  0  0  0  0  0  0  0  0  0  0  0
  129.8570  132.2280   61.5770 N   0  0  0  0  0  0  0  0  0  0  0  0
  1  2  1  0
  2  3  1  0
  3  4  2  0
  3  5  1  0
  5  6  1  0
  6  7  1  0
  7  8  2  0
  8  9  1  0
  9 10  1  0
  9 11  2  0
 11 12  1  0
 12 13  1  0
 12 14  2  0
 14 15  1  0
 15 16  1  0
 15  5  2  0
 14  7  1  0
M  END
>  <Binding energies>  (48) 
[-4.8]

>  <Ligand effiencies>  (48) 
[-0.26666666666666666]

>  <Interactions>  (48) 
["V-A:GLU:543:CD:4905, V-A:ASP:366:CG:3209, V-A:ASP:366:CB:3208, H-A:GLU:543:OE2:4907, V-A:PRO:540:CA:4880, V-A:ASN:362:C:3168, H-A:TYR:531:OH:4792, V-A:PRO:540:CB:4882, V-A:LEU:363:CA:3181, V-A:ASN:362:CB:3172, V-A:ALA:541:CB:4889, V-A:PRO:540:C:4878, V-A:TYR:539:CD2:4871, V-A:TYR:539:CE2:4873, V-A:LEU:363:CD1:3185, V-A:ALA:541:CA:4887, V-A:LEU:363:CB:3183, V-A:TYR:531:CZ:4791, V-A:TYR:531:CE2:4790, V-A:LEU:363:C:3179"]

$$$$
4bc_Grossjean_2025
     RDKit          3D

 26 28  0  0  0  0  0  0  0  0999 V2000
  128.1170  127.5880   73.0520 C   0  0  0  0  0  0  0  0  0  0  0  0
  127.4490  127.2990   71.8290 O   0  0  0  0  0  0  0  0  0  0  0  0
  128.1960  127.1050   70.6830 C   0  0  0  0  0  0  0  0  0  0  0  0
  127.6610  126.2390   69.7300 C   0  0  0  0  0  0  0  0  0  0  0  0
  128.3420  125.9820   68.5430 C   0  0  0  0  0  0  0  0  0  0  0  0
  129.5690  126.5970   68.2900 C   0  0  0  0  0  0  0  0  0  0  0  0
  130.1910  126.2650   67.0720 N   0  0  0  0  0  0  0  0  0  0  0  0
  131.2630  126.8390   66.4720 C   0  0  0  0  0  0  0  0  0  0  0  0
  131.8610  127.8170   66.9230 O   0  0  0  0  0  0  0  0  0  0  0  0
  131.6860  126.2190   65.2130 C   0  0  0  0  0  0  0  0  0  0  0  0
  133.0510  125.1070   65.1860 S   0  0  0  0  0  0  0  0  0  0  0  0
  132.8830  124.8690   63.4620 C   0  0  0  0  0  0  0  0  0  0  0  0
  133.6990  124.0580   62.7890 N   0  0  0  0  0  0  0  0  0  0  0  0
  133.4710  123.9570   61.4590 C   0  0  0  0  0  0  0  0  0  0  0  0
  134.4070  123.0250   60.7120 C   0  0  0  0  0  0  0  0  0  0  0  0
  132.4570  124.6410   60.7930 C   0  0  0  0  0  0  0  0  0  0  0  0
  131.5950  125.4960   61.4970 C   0  0  0  0  0  0  0  0  0  0  0  0
  130.4960  126.2290   60.7190 C   0  0  0  0  0  0  0  0  0  0  0  0
  130.5640  126.0240   59.4020 F   0  0  0  0  0  0  0  0  0  0  0  0
  129.2990  125.8090   61.1280 F   0  0  0  0  0  0  0  0  0  0  0  0
  130.5960  127.5420   60.9240 F   0  0  0  0  0  0  0  0  0  0  0  0
  131.8070  125.6240   62.9020 C   0  0  0  0  0  0  0  0  0  0  0  0
  131.1390  126.3850   63.9300 C   0  0  0  0  0  0  0  0  0  0  0  0
  130.0650  127.1970   63.6700 N   0  0  0  0  0  0  0  0  0  0  0  0
  130.1210  127.4600   69.2490 C   0  0  0  0  0  0  0  0  0  0  0  0
  129.4370  127.7140   70.4340 C   0  0  0  0  0  0  0  0  0  0  0  0
  1  2  1  0
  2  3  1  0
  3  4  2  0
  4  5  1  0
  5  6  2  0
  6  7  1  0
  7  8  1  0
  8  9  2  0
  8 10  1  0
 10 11  1  0
 11 12  1  0
 12 13  2  0
 13 14  1  0
 14 15  1  0
 14 16  2  0
 16 17  1  0
 17 18  1  0
 18 19  1  0
 18 20  1  0
 18 21  1  0
 17 22  2  0
 22 23  1  0
 23 24  1  0
  6 25  1  0
 25 26  2  0
 26  3  1  0
 23 10  2  0
 22 12  1  0
M  END
>  <Binding energies>  (49) 
[-5.9]

>  <Ligand effiencies>  (49) 
[-0.20344827586206898]

>  <Interactions>  (49) 
["V-A:ILE:369:CG1:3234, V-A:ILE:369:CG2:3233, V-A:GLU:543:CD:4905, V-B:GLU:543:C:9871, V-A:HIS:456:CE1:4066, V-B:HIS:456:CD2:9036, V-A:ARG:545:CZ:4923, V-B:GLY:544:C:9881, V-B:HIS:456:CE1:9038, V-A:ASP:366:CG:3209, V-B:LYS:547:CE:9919, V-A:ILE:369:CB:3232, V-B:GLU:543:CB:9875, H-A:ARG:545:NE:4921, H-B:GLU:543:OE2:9879, H-A:GLU:543:OE1:4906, H-A:GLU:543:OE2:4907, H-B:GLU:543:OE1:9878, H-A:GLY:454:N:4046"]

$$$$
4bf_Grossjean_2025
     RDKit          3D

 24 26  0  0  0  0  0  0  0  0999 V2000
  134.7880  125.0970   65.7490 C   0  0  0  0  0  0  0  0  0  0  0  0
  133.5070  125.1360   64.9340 C   0  0  0  0  0  0  0  0  0  0  0  0
  132.3150  125.5880   65.4940 C   0  0  0  0  0  0  0  0  0  0  0  0
  131.1380  125.6150   64.7300 C   0  0  0  0  0  0  0  0  0  0  0  0
  129.8490  126.1180   65.3890 C   0  0  0  0  0  0  0  0  0  0  0  0
  130.0700  126.8010   66.5150 F   0  0  0  0  0  0  0  0  0  0  0  0
  129.2000  126.9270   64.5520 F   0  0  0  0  0  0  0  0  0  0  0  0
  129.0660  125.0830   65.6980 F   0  0  0  0  0  0  0  0  0  0  0  0
  131.2250  125.1630   63.3800 C   0  0  0  0  0  0  0  0  0  0  0  0
  130.2540  125.0460   62.3190 C   0  0  0  0  0  0  0  0  0  0  0  0
  128.9390  125.4020   62.4780 N   0  0  0  0  0  0  0  0  0  0  0  0
  130.7750  124.5420   61.1160 C   0  0  0  0  0  0  0  0  0  0  0  0
  130.0710  124.2670   59.8600 C   0  0  0  0  0  0  0  0  0  0  0  0
  130.5330  124.6530   58.7850 O   0  0  0  0  0  0  0  0  0  0  0  0
  128.9190  123.5640   59.9820 N   0  0  0  0  0  0  0  0  0  0  0  0
  127.9930  123.1820   58.9930 C   0  0  0  0  0  0  0  0  0  0  0  0
  126.6900  123.6930   58.8560 C   0  0  0  0  0  0  0  0  0  0  0  0
  125.8640  123.2150   57.8350 C   0  0  0  0  0  0  0  0  0  0  0  0
  126.3610  122.2320   56.9790 C   0  0  0  0  0  0  0  0  0  0  0  0
  127.6110  121.7190   57.0940 N   0  0  0  0  0  0  0  0  0  0  0  0
  128.4020  122.1930   58.0910 C   0  0  0  0  0  0  0  0  0  0  0  0
  132.4950  124.1910   61.2650 S   0  0  0  0  0  0  0  0  0  0  0  0
  132.5080  124.7250   62.9290 C   0  0  0  0  0  0  0  0  0  0  0  0
  133.6240  124.7030   63.6580 N   0  0  0  0  0  0  0  0  0  0  0  0
  1  2  1  0
  2  3  2  0
  3  4  1  0
  4  5  1  0
  5  6  1  0
  5  7  1  0
  5  8  1  0
  4  9  2  0
  9 10  1  0
 10 11  1  0
 10 12  2  0
 12 13  1  0
 13 14  2  0
 13 15  1  0
 15 16  1  0
 16 17  2  0
 17 18  1  0
 18 19  2  0
 19 20  1  0
 20 21  2  0
 12 22  1  0
 22 23  1  0
 23 24  2  0
 24  2  1  0
 23  9  1  0
 21 16  1  0
M  END
>  <Binding energies>  (50) 
[-6.2]

>  <Ligand effiencies>  (50) 
[-0.22962962962962963]

>  <Interactions>  (50) 
["V-A:GLU:543:CD:4905, V-B:TYR:539:CE2:9845, V-B:PRO:540:CA:9852, V-B:GLU:543:CD:9877, H-B:TYR:539:N:9839, V-B:TYR:539:CZ:9846, V-B:TYR:539:CD2:9843, V-B:TYR:539:CE1:9844, V-A:HIS:456:CE1:4066, V-A:ARG:545:CZ:4923, V-B:GLU:543:CG:9876, V-A:ASP:366:CG:3209, V-B:GLU:543:CB:9875, V-A:GLY:453:C:4038, V-B:TYR:539:C:9836, H-B:TYR:539:OH:9847, V-A:GLY:454:CA:4045, V-A:GLY:454:C:4043, H-A:ARG:545:NH2:4925, V-A:ARG:545:CG:4919, V-A:GLY:453:CA:4040, V-A:ARG:545:CD:4920, H-B:GLU:543:OE2:9879, V-B:TYR:539:CD1:9842, V-B:PRO:540:N:9853, V-B:TYR:539:CG:9841, H-A:GLY:454:N:4046, V-B:PRO:540:CB:9854, V-B:PRO:540:CD:9856"]

$$$$
4bh_Grossjean_2025
     RDKit          3D

 31 33  0  0  0  0  0  0  0  0999 V2000
  129.7430  123.0520   71.7820 C   0  0  0  0  0  0  0  0  0  0  0  0
  129.1050  124.2330   72.2540 O   0  0  0  0  0  0  0  0  0  0  0  0
  129.1760  125.3910   71.5010 C   0  0  0  0  0  0  0  0  0  0  0  0
  128.7300  125.4910   70.1740 C   0  0  0  0  0  0  0  0  0  0  0  0
  128.8350  126.6920   69.4720 C   0  0  0  0  0  0  0  0  0  0  0  0
  128.3040  126.7940   68.0470 C   0  0  0  0  0  0  0  0  0  0  0  0
  129.1710  126.1590   67.0540 N   0  0  0  0  0  0  0  0  0  0  0  0
  130.4700  126.4560   66.8460 C   0  0  0  0  0  0  0  0  0  0  0  0
  131.0540  127.3460   67.4670 O   0  0  0  0  0  0  0  0  0  0  0  0
  131.1460  125.6880   65.8000 C   0  0  0  0  0  0  0  0  0  0  0  0
  132.7150  126.2120   65.1950 S   0  0  0  0  0  0  0  0  0  0  0  0
  132.7630  124.8900   64.0520 C   0  0  0  0  0  0  0  0  0  0  0  0
  133.7970  124.7210   63.2290 N   0  0  0  0  0  0  0  0  0  0  0  0
  133.7210  123.6610   62.3910 C   0  0  0  0  0  0  0  0  0  0  0  0
  134.9090  123.4880   61.4600 C   0  0  0  0  0  0  0  0  0  0  0  0
  132.6490  122.7740   62.3580 C   0  0  0  0  0  0  0  0  0  0  0  0
  131.5560  122.9480   63.2220 C   0  0  0  0  0  0  0  0  0  0  0  0
  130.4000  121.9440   63.1520 C   0  0  0  0  0  0  0  0  0  0  0  0
  129.2430  122.5040   62.7940 F   0  0  0  0  0  0  0  0  0  0  0  0
  130.6790  120.9970   62.2560 F   0  0  0  0  0  0  0  0  0  0  0  0
  130.2200  121.3810   64.3460 F   0  0  0  0  0  0  0  0  0  0  0  0
  131.6030  124.0580   64.1170 C   0  0  0  0  0  0  0  0  0  0  0  0
  130.6890  124.5490   65.1190 C   0  0  0  0  0  0  0  0  0  0  0  0
  129.4850  123.9490   65.3840 N   0  0  0  0  0  0  0  0  0  0  0  0
  129.3630  127.8170   70.1080 C   0  0  0  0  0  0  0  0  0  0  0  0
  129.8240  127.7440   71.4320 C   0  0  0  0  0  0  0  0  0  0  0  0
  130.3710  128.8130   72.1190 O   0  0  0  0  0  0  0  0  0  0  0  0
  129.5260  129.8770   72.5420 C   0  0  0  0  0  0  0  0  0  0  0  0
  129.7300  126.5230   72.1150 C   0  0  0  0  0  0  0  0  0  0  0  0
  130.1600  126.4430   73.4190 O   0  0  0  0  0  0  0  0  0  0  0  0
  131.1650  125.4620   73.6360 C   0  0  0  0  0  0  0  0  0  0  0  0
  1  2  1  0
  2  3  1  0
  3  4  2  0
  4  5  1  0
  5  6  1  0
  6  7  1  0
  7  8  1  0
  8  9  2  0
  8 10  1  0
 10 11  1  0
 11 12  1  0
 12 13  2  0
 13 14  1  0
 14 15  1  0
 14 16  2  0
 16 17  1  0
 17 18  1  0
 18 19  1  0
 18 20  1  0
 18 21  1  0
 17 22  2  0
 22 23  1  0
 23 24  1  0
  5 25  2  0
 25 26  1  0
 26 27  1  0
 27 28  1  0
 26 29  2  0
 29 30  1  0
 30 31  1  0
 29  3  1  0
 23 10  2  0
 22 12  1  0
M  END
>  <Binding energies>  (51) 
[-6.8]

>  <Ligand effiencies>  (51) 
[-0.19999999999999998]

>  <Interactions>  (51) 
["V-A:ILE:369:CG1:3234, V-A:LEU:475:CD1:4254, V-B:TYR:539:CE2:9845, V-B:ALA:541:CB:9861, V-B:GLU:543:C:9871, V-B:GLU:543:CD:9877, V-A:HIS:456:CD2:4064, V-A:HIS:456:CE1:4066, V-B:HIS:456:CD2:9036, V-A:ARG:545:CZ:4923, V-B:GLU:543:CG:9876, V-B:HIS:456:CE1:9038, V-B:LYS:547:CE:9919, V-B:GLU:543:CB:9875, H-A:TYR:484:OH:4344, V-A:GLY:453:C:4038, V-A:GLY:454:CA:4045, V-B:GLU:543:CA:9873, V-A:LYS:547:CE:4947, H-A:ARG:545:NH2:4925, V-A:GLY:544:CA:4911, V-A:ARG:545:CG:4919, V-A:GLY:453:CA:4040, V-A:ARG:545:CD:4920, V-A:TYR:484:CE1:4341, H-B:GLU:543:OE2:9879, V-A:TYR:484:CZ:4343, H-A:LYS:547:NZ:4948, H-B:GLU:543:OE1:9878, H-A:GLY:454:N:4046, H-A:ARG:545:NH1:4924, V-A:LEU:475:CD2:4255, V-A:LEU:475:CG:4253, H-B:LYS:547:NZ:9920, V-A:TYR:484:CD1:4339, V-A:TYR:484:CG:4338, V-A:TYR:484:CD2:4340"]

$$$$
4bi_Grossjean_2025
     RDKit          3D

 23 25  0  0  0  0  0  0  0  0999 V2000
  134.4720  125.0950   65.4080 C   0  0  0  0  0  0  0  0  0  0  0  0
  133.1320  124.8490   64.7390 C   0  0  0  0  0  0  0  0  0  0  0  0
  131.9810  125.4980   65.1780 C   0  0  0  0  0  0  0  0  0  0  0  0
  130.7480  125.2640   64.5460 C   0  0  0  0  0  0  0  0  0  0  0  0
  129.5100  126.0060   65.0590 C   0  0  0  0  0  0  0  0  0  0  0  0
  129.8120  127.0590   65.8220 F   0  0  0  0  0  0  0  0  0  0  0  0
  128.7920  126.4540   64.0290 F   0  0  0  0  0  0  0  0  0  0  0  0
  128.7610  125.1830   65.7940 F   0  0  0  0  0  0  0  0  0  0  0  0
  130.7380  124.3430   63.4560 C   0  0  0  0  0  0  0  0  0  0  0  0
  129.6910  123.8590   62.5900 C   0  0  0  0  0  0  0  0  0  0  0  0
  128.3860  124.2620   62.7080 N   0  0  0  0  0  0  0  0  0  0  0  0
  130.1290  122.9490   61.6130 C   0  0  0  0  0  0  0  0  0  0  0  0
  129.3400  122.2580   60.5900 C   0  0  0  0  0  0  0  0  0  0  0  0
  129.1730  121.0380   60.6400 O   0  0  0  0  0  0  0  0  0  0  0  0
  128.8120  123.0540   59.6260 N   0  0  0  0  0  0  0  0  0  0  0  0
  128.0200  122.6690   58.5520 C   0  0  0  0  0  0  0  0  0  0  0  0
  126.7760  123.2370   58.2810 C   0  0  0  0  0  0  0  0  0  0  0  0
  126.3250  122.5910   57.1530 C   0  0  0  0  0  0  0  0  0  0  0  0
  127.2500  121.6810   56.7640 O   0  0  0  0  0  0  0  0  0  0  0  0
  128.3200  121.7400   57.6600 N   0  0  0  0  0  0  0  0  0  0  0  0
  131.8580  122.6430   61.7570 S   0  0  0  0  0  0  0  0  0  0  0  0
  131.9880  123.7460   63.1060 C   0  0  0  0  0  0  0  0  0  0  0  0
  133.1550  123.9730   63.7080 N   0  0  0  0  0  0  0  0  0  0  0  0
  1  2  1  0
  2  3  2  0
  3  4  1  0
  4  5  1  0
  5  6  1  0
  5  7  1  0
  5  8  1  0
  4  9  2  0
  9 10  1  0
 10 11  1  0
 10 12  2  0
 12 13  1  0
 13 14  2  0
 13 15  1  0
 15 16  1  0
 16 17  1  0
 17 18  2  0
 18 19  1  0
 19 20  1  0
 12 21  1  0
 21 22  1  0
 22 23  2  0
 23  2  1  0
 22  9  1  0
 20 16  2  0
M  END
>  <Binding energies>  (52) 
[-6.37]

>  <Ligand effiencies>  (52) 
[-0.245]

>  <Interactions>  (52) 
["V-A:GLU:543:CD:4905, V-B:TYR:539:CE2:9845, V-B:ALA:541:CB:9861, V-B:PRO:540:CA:9852, V-B:GLU:543:CD:9877, H-B:TYR:539:N:9839, V-B:TYR:539:CD2:9843, V-A:HIS:456:CE1:4066, V-A:ARG:545:CZ:4923, V-B:GLU:543:CG:9876, V-B:GLU:543:CB:9875, H-A:TYR:484:OH:4344, V-A:GLY:453:C:4038, V-B:TYR:539:C:9836, V-A:GLY:454:CA:4045, V-B:GLU:543:CA:9873, V-A:GLY:454:C:4043, V-A:ARG:545:CG:4919, V-A:GLY:453:CA:4040, V-A:ARG:545:CD:4920, H-B:GLU:543:OE2:9879, H-B:GLU:543:OE1:9878, V-B:PRO:540:N:9853, H-A:GLY:454:N:4046, V-B:PRO:540:CB:9854, V-B:PRO:540:CD:9856"]

$$$$
4bj_Grossjean_2025
     RDKit          3D

 23 25  0  0  0  0  0  0  0  0999 V2000
  134.7530  125.0930   65.7970 C   0  0  0  0  0  0  0  0  0  0  0  0
  133.4290  124.9220   65.0740 C   0  0  0  0  0  0  0  0  0  0  0  0
  132.3090  125.6620   65.4440 C   0  0  0  0  0  0  0  0  0  0  0  0
  131.0890  125.4890   64.7720 C   0  0  0  0  0  0  0  0  0  0  0  0
  129.8830  126.3250   65.2170 C   0  0  0  0  0  0  0  0  0  0  0  0
  129.2800  126.9500   64.2040 F   0  0  0  0  0  0  0  0  0  0  0  0
  128.9780  125.5370   65.7970 F   0  0  0  0  0  0  0  0  0  0  0  0
  130.2770  127.2570   66.0840 F   0  0  0  0  0  0  0  0  0  0  0  0
  131.0590  124.5370   63.7100 C   0  0  0  0  0  0  0  0  0  0  0  0
  130.0150  124.0950   62.8170 C   0  0  0  0  0  0  0  0  0  0  0  0
  128.7360  124.5880   62.8700 N   0  0  0  0  0  0  0  0  0  0  0  0
  130.4270  123.1260   61.8880 C   0  0  0  0  0  0  0  0  0  0  0  0
  129.6340  122.4580   60.8540 C   0  0  0  0  0  0  0  0  0  0  0  0
  129.4660  121.2370   60.8770 O   0  0  0  0  0  0  0  0  0  0  0  0
  129.1060  123.2730   59.9080 N   0  0  0  0  0  0  0  0  0  0  0  0
  128.3120  122.8970   58.8320 C   0  0  0  0  0  0  0  0  0  0  0  0
  128.6880  122.3120   57.7160 N   0  0  0  0  0  0  0  0  0  0  0  0
  127.6650  122.0950   56.9140 C   0  0  0  0  0  0  0  0  0  0  0  0
  126.4210  122.5110   57.3770 C   0  0  0  0  0  0  0  0  0  0  0  0
  126.6130  123.2260   58.9500 S   0  0  0  0  0  0  0  0  0  0  0  0
  132.1250  122.7120   62.1090 S   0  0  0  0  0  0  0  0  0  0  0  0
  132.2780  123.8480   63.4280 C   0  0  0  0  0  0  0  0  0  0  0  0
  133.4330  124.0130   64.0720 N   0  0  0  0  0  0  0  0  0  0  0  0
  1  2  1  0
  2  3  2  0
  3  4  1  0
  4  5  1  0
  5  6  1  0
  5  7  1  0
  5  8  1  0
  4  9  2  0
  9 10  1  0
 10 11  1  0
 10 12  2  0
 12 13  1  0
 13 14  2  0
 13 15  1  0
 15 16  1  0
 16 17  2  0
 17 18  1  0
 18 19  2  0
 19 20  1  0
 12 21  1  0
 21 22  1  0
 22 23  2  0
 23  2  1  0
 22  9  1  0
 20 16  1  0
M  END
>  <Binding energies>  (53) 
[-5.79]

>  <Ligand effiencies>  (53) 
[-0.2226923076923077]

>  <Interactions>  (53) 
["V-A:LEU:475:CD1:4254, V-A:GLU:543:CD:4905, V-B:TYR:539:CE2:9845, V-B:ALA:541:CB:9861, V-B:PRO:540:CA:9852, V-B:GLU:543:CD:9877, V-A:GLU:543:CB:4903, V-B:TYR:539:CZ:9846, V-B:TYR:539:CE1:9844, V-A:HIS:456:CE1:4066, V-A:ARG:545:CZ:4923, V-B:GLU:543:CG:9876, V-B:GLU:543:CB:9875, H-A:TYR:484:OH:4344, V-A:GLY:453:C:4038, V-B:TYR:539:C:9836, V-A:GLY:454:CA:4045, V-A:GLY:454:C:4043, V-A:ARG:545:CG:4919, V-A:GLY:453:CA:4040, V-A:ARG:545:CD:4920, H-B:GLU:543:OE2:9879, H-B:GLU:543:OE1:9878, V-B:TYR:539:CD1:9842, V-B:PRO:540:N:9853, V-B:TYR:539:CG:9841, H-A:GLY:454:N:4046, V-B:PRO:540:CB:9854, V-B:PRO:540:CD:9856, V-B:TYR:539:CA:9838"]

$$$$
4bk_Grossjean_2025
     RDKit          3D

 28 29  0  0  0  0  0  0  0  0999 V2000
  130.6990  123.2140   73.2480 C   0  0  0  0  0  0  0  0  0  0  0  0
  129.5210  123.4260   72.4870 O   0  0  0  0  0  0  0  0  0  0  0  0
  129.3690  124.7670   72.0400 C   0  0  0  0  0  0  0  0  0  0  0  0
  130.0630  125.7160   73.0260 C   0  0  0  0  0  0  0  0  0  0  0  0
  129.5030  127.0170   72.9020 O   0  0  0  0  0  0  0  0  0  0  0  0
  129.3990  127.4720   71.5600 C   0  0  0  0  0  0  0  0  0  0  0  0
  130.7420  128.0690   71.1190 C   0  0  0  0  0  0  0  0  0  0  0  0
  130.9980  127.7050   69.7690 O   0  0  0  0  0  0  0  0  0  0  0  0
  129.8270  127.3700   69.0330 C   0  0  0  0  0  0  0  0  0  0  0  0
  129.8880  128.0400   67.6490 C   0  0  0  0  0  0  0  0  0  0  0  0
  130.5290  127.2140   66.6240 N   0  0  0  0  0  0  0  0  0  0  0  0
  130.2040  125.9370   66.3370 C   0  0  0  0  0  0  0  0  0  0  0  0
  129.2960  125.3400   66.9170 O   0  0  0  0  0  0  0  0  0  0  0  0
  130.9890  125.2950   65.2810 C   0  0  0  0  0  0  0  0  0  0  0  0
  132.5920  125.9030   64.8780 S   0  0  0  0  0  0  0  0  0  0  0  0
  132.8050  124.6650   63.6640 C   0  0  0  0  0  0  0  0  0  0  0  0
  133.9200  124.5860   62.9380 N   0  0  0  0  0  0  0  0  0  0  0  0
  133.9690  123.5830   62.0310 C   0  0  0  0  0  0  0  0  0  0  0  0
  135.2490  123.5110   61.2180 C   0  0  0  0  0  0  0  0  0  0  0  0
  132.9400  122.6660   61.8340 C   0  0  0  0  0  0  0  0  0  0  0  0
  131.7620  122.7450   62.5930 C   0  0  0  0  0  0  0  0  0  0  0  0
  130.6550  121.7160   62.3370 C   0  0  0  0  0  0  0  0  0  0  0  0
  129.5690  122.2470   61.7720 F   0  0  0  0  0  0  0  0  0  0  0  0
  131.1050  120.7640   61.5210 F   0  0  0  0  0  0  0  0  0  0  0  0
  130.2770  121.1650   63.4890 F   0  0  0  0  0  0  0  0  0  0  0  0
  131.6780  123.7900   63.5610 C   0  0  0  0  0  0  0  0  0  0  0  0
  130.6570  124.1750   64.5030 C   0  0  0  0  0  0  0  0  0  0  0  0
  129.4670  123.5050   64.6230 N   0  0  0  0  0  0  0  0  0  0  0  0
  1  2  1  0
  2  3  1  0
  3  4  1  0
  4  5  1  0
  5  6  1  0
  6  7  1  0
  7  8  1  0
  8  9  1  0
  9 10  1  0
 10 11  1  0
 11 12  1  0
 12 13  2  0
 12 14  1  0
 14 15  1  0
 15 16  1  0
 16 17  2  0
 17 18  1  0
 18 19  1  0
 18 20  2  0
 20 21  1  0
 21 22  1  0
 22 23  1  0
 22 24  1  0
 22 25  1  0
 21 26  2  0
 26 27  1  0
 27 28  1  0
 27 14  2  0
 26 16  1  0
M  END
>  <Binding energies>  (54) 
[-5.8]

>  <Ligand effiencies>  (54) 
[-0.1870967741935484]

>  <Interactions>  (54) 
["V-A:ILE:369:CG1:3234, V-A:GLU:543:C:4899, V-A:LEU:475:CD1:4254, V-A:GLU:543:CD:4905, V-B:TYR:539:CE2:9845, V-B:ALA:541:CB:9861, V-B:GLU:543:CD:9877, V-A:GLU:543:CB:4903, V-A:HIS:456:CD2:4064, V-B:TYR:539:CD2:9843, V-A:HIS:456:CE1:4066, V-B:HIS:456:CD2:9036, V-A:ARG:545:CZ:4923, V-B:GLU:543:CG:9876, V-A:ASP:366:CG:3209, V-B:LYS:547:CE:9919, V-A:ILE:369:CB:3232, V-B:GLU:543:CB:9875, V-A:GLY:453:C:4038, V-A:GLY:454:CA:4045, H-A:ARG:545:NH2:4925, V-A:GLY:453:CA:4040, V-A:ARG:545:CD:4920, V-A:TYR:484:CE1:4341, V-A:GLY:544:C:4909, H-A:LYS:547:NZ:4948, H-A:GLU:543:OE1:4906, H-A:GLY:454:N:4046, H-A:ARG:545:NH1:4924, V-A:LEU:475:CD2:4255, V-A:LEU:475:CG:4253, H-B:LYS:547:NZ:9920"]

$$$$
4cd_Grossjean_2025
     RDKit          3D

 29 32  0  0  0  0  0  0  0  0999 V2000
  131.0320  122.7840   64.4110 N   0  0  0  0  0  0  0  0  0  0  0  0
  130.1790  123.6260   63.7430 C   0  0  0  0  0  0  0  0  0  0  0  0
  129.8440  124.9080   64.2070 C   0  0  0  0  0  0  0  0  0  0  0  0
  130.2860  125.5800   65.4330 C   0  0  0  0  0  0  0  0  0  0  0  0
  131.4810  125.7880   65.6390 O   0  0  0  0  0  0  0  0  0  0  0  0
  129.2960  125.9460   66.2830 N   0  0  0  0  0  0  0  0  0  0  0  0
  129.3810  126.5540   67.5500 C   0  0  0  0  0  0  0  0  0  0  0  0
  128.4660  126.1060   68.5070 C   0  0  0  0  0  0  0  0  0  0  0  0
  128.4800  126.6370   69.7930 C   0  0  0  0  0  0  0  0  0  0  0  0
  129.4140  127.6130   70.1270 C   0  0  0  0  0  0  0  0  0  0  0  0
  130.3400  128.0600   69.1880 C   0  0  0  0  0  0  0  0  0  0  0  0
  130.3290  127.5310   67.8990 C   0  0  0  0  0  0  0  0  0  0  0  0
  128.7350  125.7150   63.1000 S   0  0  0  0  0  0  0  0  0  0  0  0
  128.7200  124.3310   62.0340 C   0  0  0  0  0  0  0  0  0  0  0  0
  127.9970  124.3220   60.9170 N   0  0  0  0  0  0  0  0  0  0  0  0
  128.0390  123.1950   60.1580 C   0  0  0  0  0  0  0  0  0  0  0  0
  127.2110  123.2140   58.9060 C   0  0  0  0  0  0  0  0  0  0  0  0
  126.1380  124.1100   58.7670 C   0  0  0  0  0  0  0  0  0  0  0  0
  125.3670  124.1340   57.6090 C   0  0  0  0  0  0  0  0  0  0  0  0
  125.6580  123.2580   56.5680 C   0  0  0  0  0  0  0  0  0  0  0  0
  126.7160  122.3630   56.6780 C   0  0  0  0  0  0  0  0  0  0  0  0
  127.4870  122.3440   57.8370 C   0  0  0  0  0  0  0  0  0  0  0  0
  128.8210  122.0930   60.5150 C   0  0  0  0  0  0  0  0  0  0  0  0
  129.5910  122.0940   61.6900 C   0  0  0  0  0  0  0  0  0  0  0  0
  130.4220  120.8490   62.0220 C   0  0  0  0  0  0  0  0  0  0  0  0
  131.7380  121.0690   61.9690 F   0  0  0  0  0  0  0  0  0  0  0  0
  130.1370  120.4320   63.2560 F   0  0  0  0  0  0  0  0  0  0  0  0
  130.1460  119.8770   61.1530 F   0  0  0  0  0  0  0  0  0  0  0  0
  129.5450  123.2640   62.4990 C   0  0  0  0  0  0  0  0  0  0  0  0
  1  2  1  0
  2  3  2  0
  3  4  1  0
  4  5  2  0
  4  6  1  0
  6  7  1  0
  7  8  2  0
  8  9  1  0
  9 10  2  0
 10 11  1  0
 11 12  2  0
  3 13  1  0
 13 14  1  0
 14 15  2  0
 15 16  1  0
 16 17  1  0
 17 18  2  0
 18 19  1  0
 19 20  2  0
 20 21  1  0
 21 22  2  0
 16 23  2  0
 23 24  1  0
 24 25  1  0
 25 26  1  0
 25 27  1  0
 25 28  1  0
 24 29  2  0
 29  2  1  0
 12  7  1  0
 29 14  1  0
 22 17  1  0
M  END
>  <Binding energies>  (55) 
[-7.27]

>  <Ligand effiencies>  (55) 
[-0.2271875]

>  <Interactions>  (55) 
["V-A:GLU:543:C:4899, V-A:LEU:475:CD1:4254, V-B:TYR:539:CE2:9845, V-B:ALA:541:CB:9861, V-B:PRO:540:CA:9852, V-B:GLU:543:C:9871, V-B:GLU:543:CD:9877, V-A:GLU:543:CB:4903, V-B:TYR:539:CD2:9843, V-A:HIS:456:CE1:4066, V-B:HIS:456:CD2:9036, V-B:GLU:543:CG:9876, V-B:HIS:456:CE1:9038, V-B:GLU:543:CB:9875, H-A:TYR:484:OH:4344, V-B:TYR:539:C:9836, V-A:TYR:484:CE1:4341, H-B:GLU:543:OE2:9879, V-A:TYR:484:CZ:4343, H-B:GLU:543:OE1:9878, V-B:PRO:540:N:9853, V-A:LEU:475:CD2:4255, V-A:LEU:475:CG:4253, V-B:PRO:540:CD:9856, V-B:LEU:363:CD1:8157"]

$$$$
4cg_Grossjean_2025
     RDKit          3D

 30 33  0  0  0  0  0  0  0  0999 V2000
  131.2860  122.6770   64.1280 N   0  0  0  0  0  0  0  0  0  0  0  0
  130.4610  123.5720   63.4970 C   0  0  0  0  0  0  0  0  0  0  0  0
  130.2650  124.8850   63.9470 C   0  0  0  0  0  0  0  0  0  0  0  0
  130.8910  125.5630   65.0820 C   0  0  0  0  0  0  0  0  0  0  0  0
  131.9880  125.2080   65.5170 O   0  0  0  0  0  0  0  0  0  0  0  0
  130.1770  126.5640   65.6400 N   0  0  0  0  0  0  0  0  0  0  0  0
  130.6130  127.3910   66.7640 C   0  0  0  0  0  0  0  0  0  0  0  0
  129.7830  127.1850   68.0260 C   0  0  0  0  0  0  0  0  0  0  0  0
  130.1980  127.7590   69.2310 C   0  0  0  0  0  0  0  0  0  0  0  0
  129.4260  127.6000   70.3790 C   0  0  0  0  0  0  0  0  0  0  0  0
  128.2380  126.8760   70.3160 C   0  0  0  0  0  0  0  0  0  0  0  0
  127.8100  126.3150   69.1140 C   0  0  0  0  0  0  0  0  0  0  0  0
  128.5810  126.4760   67.9660 C   0  0  0  0  0  0  0  0  0  0  0  0
  129.1630  125.7680   62.8950 S   0  0  0  0  0  0  0  0  0  0  0  0
  128.9530  124.3660   61.8710 C   0  0  0  0  0  0  0  0  0  0  0  0
  128.1610  124.3990   60.8030 N   0  0  0  0  0  0  0  0  0  0  0  0
  128.0640  123.2630   60.0640 C   0  0  0  0  0  0  0  0  0  0  0  0
  127.1600  123.3320   58.8660 C   0  0  0  0  0  0  0  0  0  0  0  0
  126.2100  124.3580   58.7380 C   0  0  0  0  0  0  0  0  0  0  0  0
  125.3690  124.4260   57.6310 C   0  0  0  0  0  0  0  0  0  0  0  0
  125.4660  123.4630   56.6310 C   0  0  0  0  0  0  0  0  0  0  0  0
  126.3950  122.4340   56.7340 C   0  0  0  0  0  0  0  0  0  0  0  0
  127.2330  122.3700   57.8430 C   0  0  0  0  0  0  0  0  0  0  0  0
  128.7490  122.0940   60.4140 C   0  0  0  0  0  0  0  0  0  0  0  0
  129.5880  122.0480   61.5390 C   0  0  0  0  0  0  0  0  0  0  0  0
  130.3090  120.7350   61.8650 C   0  0  0  0  0  0  0  0  0  0  0  0
  129.8030  119.6850   61.2150 F   0  0  0  0  0  0  0  0  0  0  0  0
  131.5950  120.8320   61.5290 F   0  0  0  0  0  0  0  0  0  0  0  0
  130.2130  120.4800   63.1690 F   0  0  0  0  0  0  0  0  0  0  0  0
  129.7080  123.2400   62.3120 C   0  0  0  0  0  0  0  0  0  0  0  0
  1  2  1  0
  2  3  2  0
  3  4  1  0
  4  5  2  0
  4  6  1  0
  6  7  1  0
  7  8  1  0
  8  9  2  0
  9 10  1  0
 10 11  2  0
 11 12  1  0
 12 13  2  0
  3 14  1  0
 14 15  1  0
 15 16  2  0
 16 17  1  0
 17 18  1  0
 18 19  2  0
 19 20  1  0
 20 21  2  0
 21 22  1  0
 22 23  2  0
 17 24  2  0
 24 25  1  0
 25 26  1  0
 26 27  1  0
 26 28  1  0
 26 29  1  0
 25 30  2  0
 30  2  1  0
 13  8  1  0
 30 15  1  0
 23 18  1  0
M  END
>  <Binding energies>  (56) 
[-7.54]

>  <Ligand effiencies>  (56) 
[-0.22848484848484849]

>  <Interactions>  (56) 
["V-A:GLU:543:C:4899, V-A:LEU:475:CD1:4254, V-A:GLU:543:CD:4905, V-B:TYR:539:CE2:9845, V-B:ALA:541:CB:9861, V-B:PRO:540:CA:9852, V-B:GLU:543:C:9871, V-B:GLU:543:CD:9877, V-A:GLU:543:CB:4903, V-B:TYR:539:CD2:9843, V-A:HIS:456:CE1:4066, V-B:HIS:456:CD2:9036, V-B:HIS:456:CE1:9038, V-B:GLU:543:CB:9875, H-A:TYR:484:OH:4344, V-B:TYR:539:C:9836, V-A:TYR:484:CE1:4341, V-A:TYR:484:CZ:4343, H-A:GLU:543:OE1:4906, H-B:GLU:543:OE1:9878, V-B:PRO:540:N:9853, V-A:LEU:475:CD2:4255, V-B:PRO:540:CB:9854, V-A:LEU:475:CG:4253, V-B:PRO:540:CD:9856, V-B:LEU:363:CD1:8157, V-A:PRO:482:CB:4322, V-A:PRO:482:CG:4323"]

$$$$
4ch_Grossjean_2025
     RDKit          3D

 36 39  0  0  0  0  0  0  0  0999 V2000
  128.3730  129.4650   73.7350 C   0  0  0  0  0  0  0  0  0  0  0  0
  129.4140  128.5430   73.4270 O   0  0  0  0  0  0  0  0  0  0  0  0
  129.1300  127.4350   72.6490 C   0  0  0  0  0  0  0  0  0  0  0  0
  128.3710  127.4790   71.4680 C   0  0  0  0  0  0  0  0  0  0  0  0
  128.1250  126.3200   70.7320 C   0  0  0  0  0  0  0  0  0  0  0  0
  127.2760  126.3830   69.4670 C   0  0  0  0  0  0  0  0  0  0  0  0
  128.0140  126.1030   68.2350 N   0  0  0  0  0  0  0  0  0  0  0  0
  128.4600  127.0290   67.3600 C   0  0  0  0  0  0  0  0  0  0  0  0
  128.3060  128.2390   67.5390 O   0  0  0  0  0  0  0  0  0  0  0  0
  129.1780  126.5150   66.1930 C   0  0  0  0  0  0  0  0  0  0  0  0
  130.3850  125.2490   66.3860 S   0  0  0  0  0  0  0  0  0  0  0  0
  130.6900  125.2160   64.6660 C   0  0  0  0  0  0  0  0  0  0  0  0
  131.5900  124.3930   64.1350 N   0  0  0  0  0  0  0  0  0  0  0  0
  131.7540  124.4350   62.7870 C   0  0  0  0  0  0  0  0  0  0  0  0
  132.7820  123.4970   62.2210 C   0  0  0  0  0  0  0  0  0  0  0  0
  134.0440  123.9690   61.8250 C   0  0  0  0  0  0  0  0  0  0  0  0
  135.0020  123.1060   61.2980 C   0  0  0  0  0  0  0  0  0  0  0  0
  134.7090  121.7540   61.1590 C   0  0  0  0  0  0  0  0  0  0  0  0
  133.4660  121.2600   61.5390 C   0  0  0  0  0  0  0  0  0  0  0  0
  132.5110  122.1280   62.0640 C   0  0  0  0  0  0  0  0  0  0  0  0
  131.0250  125.3150   61.9820 C   0  0  0  0  0  0  0  0  0  0  0  0
  130.0730  126.1900   62.5310 C   0  0  0  0  0  0  0  0  0  0  0  0
  129.3100  127.1290   61.5910 C   0  0  0  0  0  0  0  0  0  0  0  0
  127.9970  127.1610   61.8340 F   0  0  0  0  0  0  0  0  0  0  0  0
  129.7700  128.3720   61.7220 F   0  0  0  0  0  0  0  0  0  0  0  0
  129.4710  126.7320   60.3290 F   0  0  0  0  0  0  0  0  0  0  0  0
  129.8850  126.1450   63.9420 C   0  0  0  0  0  0  0  0  0  0  0  0
  129.0190  126.8670   64.8430 C   0  0  0  0  0  0  0  0  0  0  0  0
  128.1290  127.8190   64.4160 N   0  0  0  0  0  0  0  0  0  0  0  0
  128.6240  125.0980   71.1850 C   0  0  0  0  0  0  0  0  0  0  0  0
  129.3840  125.0240   72.3630 C   0  0  0  0  0  0  0  0  0  0  0  0
  129.9110  123.8490   72.8690 O   0  0  0  0  0  0  0  0  0  0  0  0
  129.9140  122.6790   72.0590 C   0  0  0  0  0  0  0  0  0  0  0  0
  129.6350  126.2010   73.0830 C   0  0  0  0  0  0  0  0  0  0  0  0
  130.3640  126.1410   74.2450 O   0  0  0  0  0  0  0  0  0  0  0  0
  129.5730  126.1470   75.4260 C   0  0  0  0  0  0  0  0  0  0  0  0
  1  2  1  0
  2  3  1  0
  3  4  2  0
  4  5  1  0
  5  6  1  0
  6  7  1  0
  7  8  1  0
  8  9  2  0
  8 10  1  0
 10 11  1  0
 11 12  1  0
 12 13  2  0
 13 14  1  0
 14 15  1  0
 15 16  2  0
 16 17  1  0
 17 18  2  0
 18 19  1  0
 19 20  2  0
 14 21  2  0
 21 22  1  0
 22 23  1  0
 23 24  1  0
 23 25  1  0
 23 26  1  0
 22 27  2  0
 27 28  1  0
 28 29  1  0
  5 30  2  0
 30 31  1  0
 31 32  1  0
 32 33  1  0
 31 34  2  0
 34 35  1  0
 35 36  1  0
 34  3  1  0
 28 10  2  0
 27 12  1  0
 20 15  1  0
M  END
>  <Binding energies>  (57) 
[-7.18]

>  <Ligand effiencies>  (57) 
[-0.1841025641025641]

>  <Interactions>  (57) 
["V-A:ILE:369:CG1:3234, V-A:ILE:369:CG2:3233, V-A:LEU:475:CD1:4254, V-A:GLU:543:CD:4905, V-B:GLY:544:CA:9883, V-B:TYR:539:CE2:9845, V-B:GLU:543:C:9871, V-B:GLU:543:CD:9877, V-A:HIS:456:CD2:4064, V-A:HIS:456:CE1:4066, V-B:HIS:456:CD2:9036, V-B:GLU:543:CG:9876, V-B:GLY:544:C:9881, V-B:HIS:456:CE1:9038, V-A:ASP:366:CG:3209, V-B:LYS:547:CE:9919, V-A:ILE:369:CB:3232, V-B:GLU:543:CB:9875, H-A:TYR:484:OH:4344, V-A:GLY:453:C:4038, V-A:ILE:369:CD1:3235, V-A:GLY:454:CA:4045, V-B:GLU:543:CA:9873, V-A:LYS:547:CE:4947, V-A:GLY:453:CA:4040, V-A:TYR:484:CE1:4341, H-B:GLU:543:OE2:9879, V-A:TYR:484:CZ:4343, H-A:LYS:547:NZ:4948, H-A:GLU:543:OE1:4906, H-A:GLU:543:OE2:4907, H-B:GLU:543:OE1:9878, H-B:LYS:547:NZ:9920, V-A:TYR:484:CD1:4339, V-A:TYR:484:CG:4338, V-A:TYR:484:CB:4337, V-A:TYR:484:CD2:4340, H-B:GLU:543:O:9872"]

$$$$
4cj_Grossjean_2025
     RDKit          3D

 28 31  0  0  0  0  0  0  0  0999 V2000
  131.1330  122.5920   64.2190 N   0  0  0  0  0  0  0  0  0  0  0  0
  130.2690  123.4550   63.5940 C   0  0  0  0  0  0  0  0  0  0  0  0
  129.9640  124.7330   64.0900 C   0  0  0  0  0  0  0  0  0  0  0  0
  130.4720  125.3890   65.2970 C   0  0  0  0  0  0  0  0  0  0  0  0
  131.6680  125.3260   65.5940 O   0  0  0  0  0  0  0  0  0  0  0  0
  129.5440  126.0410   66.0400 N   0  0  0  0  0  0  0  0  0  0  0  0
  129.7610  126.7380   67.2210 C   0  0  0  0  0  0  0  0  0  0  0  0
  130.7400  127.5740   67.4960 N   0  0  0  0  0  0  0  0  0  0  0  0
  130.6330  128.0600   68.7170 C   0  0  0  0  0  0  0  0  0  0  0  0
  129.5440  127.6170   69.4630 C   0  0  0  0  0  0  0  0  0  0  0  0
  128.6150  126.5050   68.5020 S   0  0  0  0  0  0  0  0  0  0  0  0
  128.8320  125.5730   63.0330 S   0  0  0  0  0  0  0  0  0  0  0  0
  128.7730  124.2110   61.9400 C   0  0  0  0  0  0  0  0  0  0  0  0
  128.0250  124.2360   60.8400 N   0  0  0  0  0  0  0  0  0  0  0  0
  128.0480  123.1340   60.0460 C   0  0  0  0  0  0  0  0  0  0  0  0
  127.2040  123.2000   58.8060 C   0  0  0  0  0  0  0  0  0  0  0  0
  127.4400  122.3310   57.7290 C   0  0  0  0  0  0  0  0  0  0  0  0
  126.6640  122.3910   56.5740 C   0  0  0  0  0  0  0  0  0  0  0  0
  125.6380  123.3260   56.4790 C   0  0  0  0  0  0  0  0  0  0  0  0
  125.3840  124.1990   57.5310 C   0  0  0  0  0  0  0  0  0  0  0  0
  126.1620  124.1350   58.6840 C   0  0  0  0  0  0  0  0  0  0  0  0
  128.8040  122.0030   60.3750 C   0  0  0  0  0  0  0  0  0  0  0  0
  129.5950  121.9650   61.5340 C   0  0  0  0  0  0  0  0  0  0  0  0
  130.4000  120.6950   61.8320 C   0  0  0  0  0  0  0  0  0  0  0  0
  130.0400  119.6560   61.0770 F   0  0  0  0  0  0  0  0  0  0  0  0
  131.6950  120.9210   61.6090 F   0  0  0  0  0  0  0  0  0  0  0  0
  130.2290  120.3410   63.1060 F   0  0  0  0  0  0  0  0  0  0  0  0
  129.5920  123.1230   62.3630 C   0  0  0  0  0  0  0  0  0  0  0  0
  1  2  1  0
  2  3  2  0
  3  4  1  0
  4  5  2  0
  4  6  1  0
  6  7  1  0
  7  8  2  0
  8  9  1  0
  9 10  2  0
 10 11  1  0
  3 12  1  0
 12 13  1  0
 13 14  2  0
 14 15  1  0
 15 16  1  0
 16 17  2  0
 17 18  1  0
 18 19  2  0
 19 20  1  0
 20 21  2  0
 15 22  2  0
 22 23  1  0
 23 24  1  0
 24 25  1  0
 24 26  1  0
 24 27  1  0
 23 28  2  0
 28  2  1  0
 11  7  1  0
 28 13  1  0
 21 16  1  0
M  END
>  <Binding energies>  (58) 
[-6.65]

>  <Ligand effiencies>  (58) 
[-0.21451612903225808]

>  <Interactions>  (58) 
["V-A:GLU:543:C:4899, V-A:LEU:475:CD1:4254, V-B:TYR:539:CE2:9845, V-B:ALA:541:CB:9861, V-B:PRO:540:CA:9852, V-B:GLU:543:CD:9877, V-A:GLU:543:CB:4903, V-B:TYR:539:CD2:9843, V-A:HIS:456:CE1:4066, V-B:GLU:543:CG:9876, V-B:HIS:456:CE1:9038, V-B:GLU:543:CB:9875, H-A:TYR:484:OH:4344, V-B:TYR:539:C:9836, V-A:TYR:484:CE1:4341, H-B:GLU:543:OE2:9879, V-A:TYR:484:CZ:4343, H-B:GLU:543:OE1:9878, V-B:PRO:540:N:9853, V-B:TYR:539:CG:9841, V-A:LEU:475:CD2:4255, V-A:LEU:475:CG:4253, V-B:PRO:540:CD:9856, V-B:ILE:538:CB:9831, V-B:LEU:363:CD1:8157, V-A:PRO:482:CG:4323"]

$$$$
4ck_Grossjean_2025
     RDKit          3D

 33 35  0  0  0  0  0  0  0  0999 V2000
  133.5750  125.0900   74.7710 C   0  0  0  0  0  0  0  0  0  0  0  0
  132.3850  125.8070   74.4780 O   0  0  0  0  0  0  0  0  0  0  0  0
  131.3430  124.9870   73.9680 C   0  0  0  0  0  0  0  0  0  0  0  0
  130.2030  125.8810   73.4650 C   0  0  0  0  0  0  0  0  0  0  0  0
  129.7810  125.4200   72.1890 O   0  0  0  0  0  0  0  0  0  0  0  0
  129.0920  126.4050   71.4290 C   0  0  0  0  0  0  0  0  0  0  0  0
  128.8020  125.8480   70.0300 C   0  0  0  0  0  0  0  0  0  0  0  0
  128.5130  126.9320   69.1570 O   0  0  0  0  0  0  0  0  0  0  0  0
  129.6640  127.4940   68.5380 C   0  0  0  0  0  0  0  0  0  0  0  0
  129.2580  128.1890   67.2300 C   0  0  0  0  0  0  0  0  0  0  0  0
  129.1310  127.2430   66.1210 N   0  0  0  0  0  0  0  0  0  0  0  0
  130.1440  126.5710   65.5350 C   0  0  0  0  0  0  0  0  0  0  0  0
  131.3130  126.6720   65.9100 O   0  0  0  0  0  0  0  0  0  0  0  0
  129.7710  125.6960   64.4230 C   0  0  0  0  0  0  0  0  0  0  0  0
  128.7330  126.2980   63.1340 S   0  0  0  0  0  0  0  0  0  0  0  0
  128.8390  124.7760   62.2800 C   0  0  0  0  0  0  0  0  0  0  0  0
  128.2120  124.5830   61.1230 N   0  0  0  0  0  0  0  0  0  0  0  0
  128.3520  123.3670   60.5340 C   0  0  0  0  0  0  0  0  0  0  0  0
  127.6460  123.1880   59.2200 C   0  0  0  0  0  0  0  0  0  0  0  0
  126.3820  123.7570   59.0000 C   0  0  0  0  0  0  0  0  0  0  0  0
  125.7210  123.5930   57.7840 C   0  0  0  0  0  0  0  0  0  0  0  0
  126.3180  122.8550   56.7690 C   0  0  0  0  0  0  0  0  0  0  0  0
  127.5720  122.2840   56.9580 C   0  0  0  0  0  0  0  0  0  0  0  0
  128.2300  122.4520   58.1750 C   0  0  0  0  0  0  0  0  0  0  0  0
  129.1280  122.3540   61.1050 C   0  0  0  0  0  0  0  0  0  0  0  0
  129.7940  122.5460   62.3260 C   0  0  0  0  0  0  0  0  0  0  0  0
  130.6250  121.3920   62.8980 C   0  0  0  0  0  0  0  0  0  0  0  0
  130.5390  120.2750   62.1730 F   0  0  0  0  0  0  0  0  0  0  0  0
  131.9100  121.7410   62.9430 F   0  0  0  0  0  0  0  0  0  0  0  0
  130.2050  121.1020   64.1300 F   0  0  0  0  0  0  0  0  0  0  0  0
  129.6520  123.8170   62.9540 C   0  0  0  0  0  0  0  0  0  0  0  0
  130.1790  124.3760   64.1760 C   0  0  0  0  0  0  0  0  0  0  0  0
  131.0010  123.6740   65.0200 N   0  0  0  0  0  0  0  0  0  0  0  0
  1  2  1  0
  2  3  1  0
  3  4  1  0
  4  5  1  0
  5  6  1  0
  6  7  1  0
  7  8  1  0
  8  9  1  0
  9 10  1  0
 10 11  1  0
 11 12  1  0
 12 13  2  0
 12 14  1  0
 14 15  1  0
 15 16  1  0
 16 17  2  0
 17 18  1  0
 18 19  1  0
 19 20  2  0
 20 21  1  0
 21 22  2  0
 22 23  1  0
 23 24  2  0
 18 25  2  0
 25 26  1  0
 26 27  1  0
 27 28  1  0
 27 29  1  0
 27 30  1  0
 26 31  2  0
 31 32  1  0
 32 33  1  0
 32 14  2  0
 31 16  1  0
 24 19  1  0
M  END
>  <Binding energies>  (59) 
[-5.68]

>  <Ligand effiencies>  (59) 
[-0.15777777777777777]

>  <Interactions>  (59) 
["V-A:LEU:475:CD1:4254, V-A:GLU:543:CD:4905, V-B:TYR:539:CE2:9845, V-B:ALA:541:CB:9861, V-B:PRO:540:CA:9852, V-B:GLU:543:C:9871, V-B:GLU:543:CD:9877, V-A:GLU:543:CB:4903, V-B:TYR:539:CZ:9846, V-A:HIS:456:CD2:4064, V-B:TYR:539:CD2:9843, V-B:TYR:539:CE1:9844, V-A:HIS:456:CE1:4066, V-B:GLU:543:CG:9876, V-B:HIS:456:CE1:9038, V-B:LYS:547:CE:9919, H-A:TYR:484:OH:4344, V-B:TYR:539:C:9836, V-A:TYR:484:CE1:4341, V-A:TYR:484:CZ:4343, H-A:LYS:547:NZ:4948, H-B:GLU:543:OE1:9878, V-B:TYR:539:CD1:9842, V-B:PRO:540:N:9853, V-B:TYR:539:CG:9841, V-A:LEU:475:CD2:4255, V-B:PRO:540:CB:9854, V-A:LEU:475:CG:4253, V-A:VAL:458:CG2:4083, V-A:HIS:456:CB:4061, V-A:GLU:543:CG:4904"]

$$$$
4dd_Grossjean_2025
     RDKit          3D

 26 29  0  0  0  0  0  0  0  0999 V2000
  130.7530  120.7020   61.6430 C   0  0  0  0  0  0  0  0  0  0  0  0
  129.8380  121.8940   61.4030 C   0  0  0  0  0  0  0  0  0  0  0  0
  129.0460  121.8970   60.2490 C   0  0  0  0  0  0  0  0  0  0  0  0
  128.1830  122.9640   59.9710 C   0  0  0  0  0  0  0  0  0  0  0  0
  127.3280  122.9970   58.7400 C   0  0  0  0  0  0  0  0  0  0  0  0
  127.5490  122.0970   57.6850 C   0  0  0  0  0  0  0  0  0  0  0  0
  126.7570  122.1200   56.5400 C   0  0  0  0  0  0  0  0  0  0  0  0
  125.7280  123.0490   56.4330 C   0  0  0  0  0  0  0  0  0  0  0  0
  125.4840  123.9510   57.4630 C   0  0  0  0  0  0  0  0  0  0  0  0
  126.2780  123.9230   58.6070 C   0  0  0  0  0  0  0  0  0  0  0  0
  128.0850  124.0420   60.7970 N   0  0  0  0  0  0  0  0  0  0  0  0
  128.8330  124.0370   61.8990 C   0  0  0  0  0  0  0  0  0  0  0  0
  128.7920  125.3500   63.0550 S   0  0  0  0  0  0  0  0  0  0  0  0
  129.9820  124.5460   64.0810 C   0  0  0  0  0  0  0  0  0  0  0  0
  130.4170  125.1640   65.3350 C   0  0  0  0  0  0  0  0  0  0  0  0
  131.5940  125.0970   65.6920 O   0  0  0  0  0  0  0  0  0  0  0  0
  129.4470  125.7980   66.0370 N   0  0  0  0  0  0  0  0  0  0  0  0
  129.5180  126.4380   67.2870 C   0  0  0  0  0  0  0  0  0  0  0  0
  130.5410  127.3790   67.4350 C   0  0  0  0  0  0  0  0  0  0  0  0
  130.6860  128.0770   68.6310 C   0  0  0  0  0  0  0  0  0  0  0  0
  129.8010  127.8400   69.6800 C   0  0  0  0  0  0  0  0  0  0  0  0
  128.7700  126.9140   69.5420 C   0  0  0  0  0  0  0  0  0  0  0  0
  128.6230  126.2150   68.3470 C   0  0  0  0  0  0  0  0  0  0  0  0
  130.3810  123.3200   63.5260 C   0  0  0  0  0  0  0  0  0  0  0  0
  131.3010  122.4830   64.1070 N   0  0  0  0  0  0  0  0  0  0  0  0
  129.7360  123.0050   62.2790 C   0  0  0  0  0  0  0  0  0  0  0  0
  1  2  1  0
  2  3  2  0
  3  4  1  0
  4  5  1  0
  5  6  2  0
  6  7  1  0
  7  8  2  0
  8  9  1  0
  9 10  2  0
  4 11  2  0
 11 12  1  0
 12 13  1  0
 13 14  1  0
 14 15  1  0
 15 16  2  0
 15 17  1  0
 17 18  1  0
 18 19  2  0
 19 20  1  0
 20 21  2  0
 21 22  1  0
 22 23  2  0
 14 24  2  0
 24 25  1  0
 24 26  1  0
 26  2  1  0
 10  5  1  0
 26 12  2  0
 23 18  1  0
M  END
>  <Binding energies>  (60) 
[-7.76]

>  <Ligand effiencies>  (60) 
[-0.2675862068965517]

>  <Interactions>  (60) 
["V-A:GLU:543:C:4899, V-A:LEU:475:CD1:4254, V-B:TYR:539:CE2:9845, V-B:ALA:541:CB:9861, V-B:PRO:540:CA:9852, V-B:GLU:543:CD:9877, V-A:GLU:543:CB:4903, V-B:TYR:539:CZ:9846, V-B:TYR:539:CD2:9843, V-B:TYR:539:CE1:9844, V-A:HIS:456:CE1:4066, V-B:GLU:543:CG:9876, V-B:HIS:456:CE1:9038, V-B:GLU:543:CB:9875, H-A:TYR:484:OH:4344, V-B:TYR:539:C:9836, V-A:TYR:484:CE1:4341, H-B:GLU:543:OE2:9879, V-A:TYR:484:CZ:4343, H-B:GLU:543:OE1:9878, V-B:TYR:539:CD1:9842, V-B:PRO:540:N:9853, V-B:TYR:539:CG:9841, V-A:LEU:475:CD2:4255, V-B:PRO:540:CD:9856, V-B:ILE:538:CB:9831, V-B:LEU:363:CD1:8157, V-B:TYR:539:CA:9838"]

$$$$
4dg_Grossjean_2025
     RDKit          3D

 27 30  0  0  0  0  0  0  0  0999 V2000
  130.2610  120.9680   62.5020 C   0  0  0  0  0  0  0  0  0  0  0  0
  129.5960  122.1950   61.8980 C   0  0  0  0  0  0  0  0  0  0  0  0
  128.8910  122.0410   60.6990 C   0  0  0  0  0  0  0  0  0  0  0  0
  128.2560  123.1320   60.0920 C   0  0  0  0  0  0  0  0  0  0  0  0
  127.4910  122.9970   58.8050 C   0  0  0  0  0  0  0  0  0  0  0  0
  126.2110  123.5580   58.6650 C   0  0  0  0  0  0  0  0  0  0  0  0
  125.4960  123.4320   57.4760 C   0  0  0  0  0  0  0  0  0  0  0  0
  126.0530  122.7410   56.4060 C   0  0  0  0  0  0  0  0  0  0  0  0
  127.3180  122.1720   56.5170 C   0  0  0  0  0  0  0  0  0  0  0  0
  128.0280  122.2990   57.7080 C   0  0  0  0  0  0  0  0  0  0  0  0
  128.2790  124.3750   60.6440 N   0  0  0  0  0  0  0  0  0  0  0  0
  128.9500  124.5230   61.7860 C   0  0  0  0  0  0  0  0  0  0  0  0
  129.0650  126.0670   62.5980 S   0  0  0  0  0  0  0  0  0  0  0  0
  130.0380  125.3640   63.8900 C   0  0  0  0  0  0  0  0  0  0  0  0
  130.5450  126.2090   64.9700 C   0  0  0  0  0  0  0  0  0  0  0  0
  131.7510  126.4270   65.1010 O   0  0  0  0  0  0  0  0  0  0  0  0
  129.6200  126.6940   65.8240 N   0  0  0  0  0  0  0  0  0  0  0  0
  129.8940  127.5750   66.9590 C   0  0  0  0  0  0  0  0  0  0  0  0
  129.2130  127.1300   68.2480 C   0  0  0  0  0  0  0  0  0  0  0  0
  129.8370  127.3590   69.4780 C   0  0  0  0  0  0  0  0  0  0  0  0
  129.2040  126.9830   70.6590 C   0  0  0  0  0  0  0  0  0  0  0  0
  127.9440  126.3900   70.6080 C   0  0  0  0  0  0  0  0  0  0  0  0
  127.3090  126.1740   69.3880 C   0  0  0  0  0  0  0  0  0  0  0  0
  127.9410  126.5510   68.2060 C   0  0  0  0  0  0  0  0  0  0  0  0
  130.2640  123.9970   63.6720 C   0  0  0  0  0  0  0  0  0  0  0  0
  131.0010  123.2020   64.5120 N   0  0  0  0  0  0  0  0  0  0  0  0
  129.6410  123.4890   62.4790 C   0  0  0  0  0  0  0  0  0  0  0  0
  1  2  1  0
  2  3  2  0
  3  4  1  0
  4  5  1  0
  5  6  2  0
  6  7  1  0
  7  8  2  0
  8  9  1  0
  9 10  2  0
  4 11  2  0
 11 12  1  0
 12 13  1  0
 13 14  1  0
 14 15  1  0
 15 16  2  0
 15 17  1  0
 17 18  1  0
 18 19  1  0
 19 20  2  0
 20 21  1  0
 21 22  2  0
 22 23  1  0
 23 24  2  0
 14 25  2  0
 25 26  1  0
 25 27  1  0
 27  2  1  0
 10  5  1  0
 27 12  2  0
 24 19  1  0
M  END
>  <Binding energies>  (61) 
[-7.82]

>  <Ligand effiencies>  (61) 
[-0.26066666666666666]

>  <Interactions>  (61) 
["V-A:LEU:475:CD1:4254, V-A:GLU:543:CD:4905, V-B:TYR:539:CE2:9845, V-B:ALA:541:CB:9861, V-B:PRO:540:CA:9852, V-B:GLU:543:C:9871, V-B:GLU:543:CD:9877, V-A:GLU:543:CB:4903, V-B:TYR:539:CZ:9846, V-B:TYR:539:CD2:9843, V-B:TYR:539:CE1:9844, V-A:HIS:456:CE1:4066, V-B:HIS:456:CD2:9036, V-B:GLY:544:C:9881, V-B:HIS:456:CE1:9038, V-B:GLU:543:CB:9875, H-A:TYR:484:OH:4344, V-B:TYR:539:C:9836, H-A:ARG:545:NH2:4925, H-A:ARG:545:NE:4921, V-A:TYR:484:CE1:4341, V-A:TYR:484:CZ:4343, H-B:GLU:543:OE1:9878, V-B:TYR:539:CD1:9842, V-B:PRO:540:N:9853, V-B:TYR:539:CG:9841, V-A:LEU:475:CD2:4255, V-B:PRO:540:CB:9854, V-B:PRO:540:CD:9856, V-B:ILE:538:CB:9831, V-B:LEU:363:CD1:8157"]

$$$$
4dj_Grossjean_2025
     RDKit          3D

 25 28  0  0  0  0  0  0  0  0999 V2000
  127.7520  129.1150   65.1550 C   0  0  0  0  0  0  0  0  0  0  0  0
  128.5380  128.0940   65.9630 C   0  0  0  0  0  0  0  0  0  0  0  0
  128.3350  128.0500   67.3470 C   0  0  0  0  0  0  0  0  0  0  0  0
  129.0290  127.1350   68.1480 C   0  0  0  0  0  0  0  0  0  0  0  0
  128.8270  127.0610   69.6350 C   0  0  0  0  0  0  0  0  0  0  0  0
  129.6710  127.7630   70.5120 C   0  0  0  0  0  0  0  0  0  0  0  0
  129.4900  127.6990   71.8910 C   0  0  0  0  0  0  0  0  0  0  0  0
  128.4600  126.9250   72.4160 C   0  0  0  0  0  0  0  0  0  0  0  0
  127.6120  126.2170   71.5710 C   0  0  0  0  0  0  0  0  0  0  0  0
  127.7960  126.2850   70.1930 C   0  0  0  0  0  0  0  0  0  0  0  0
  129.9120  126.2440   67.6200 N   0  0  0  0  0  0  0  0  0  0  0  0
  130.1070  126.2850   66.3030 C   0  0  0  0  0  0  0  0  0  0  0  0
  131.2180  125.2020   65.4950 S   0  0  0  0  0  0  0  0  0  0  0  0
  130.8490  125.9190   63.9250 C   0  0  0  0  0  0  0  0  0  0  0  0
  131.5110  125.4300   62.7150 C   0  0  0  0  0  0  0  0  0  0  0  0
  130.9980  125.5960   61.6050 O   0  0  0  0  0  0  0  0  0  0  0  0
  132.6920  124.7940   62.9110 N   0  0  0  0  0  0  0  0  0  0  0  0
  133.5130  124.2380   61.9400 C   0  0  0  0  0  0  0  0  0  0  0  0
  134.8100  124.0250   62.0050 N   0  0  0  0  0  0  0  0  0  0  0  0
  135.2660  123.4780   60.8950 C   0  0  0  0  0  0  0  0  0  0  0  0
  134.3280  123.2350   59.8970 C   0  0  0  0  0  0  0  0  0  0  0  0
  132.7650  123.7550   60.4520 S   0  0  0  0  0  0  0  0  0  0  0  0
  129.9060  126.9510   64.0500 C   0  0  0  0  0  0  0  0  0  0  0  0
  129.4360  127.6870   62.9910 N   0  0  0  0  0  0  0  0  0  0  0  0
  129.4640  127.1780   65.3990 C   0  0  0  0  0  0  0  0  0  0  0  0
  1  2  1  0
  2  3  2  0
  3  4  1  0
  4  5  1  0
  5  6  2  0
  6  7  1  0
  7  8  2  0
  8  9  1  0
  9 10  2  0
  4 11  2  0
 11 12  1  0
 12 13  1  0
 13 14  1  0
 14 15  1  0
 15 16  2  0
 15 17  1  0
 17 18  1  0
 18 19  2  0
 19 20  1  0
 20 21  2  0
 21 22  1  0
 14 23  2  0
 23 24  1  0
 23 25  1  0
 25  2  1  0
 10  5  1  0
 25 12  2  0
 22 18  1  0
M  END
>  <Binding energies>  (62) 
[-6.91]

>  <Ligand effiencies>  (62) 
[-0.2467857142857143]

>  <Interactions>  (62) 
["V-A:ILE:369:CG1:3234, V-A:ILE:369:CG2:3233, V-A:GLU:543:CD:4905, V-B:GLY:544:CA:9883, V-B:TYR:539:CE2:9845, V-B:GLU:543:C:9871, V-A:HIS:456:CE1:4066, V-B:HIS:456:CD2:9036, V-A:ARG:545:CZ:4923, V-B:GLY:544:C:9881, V-B:HIS:456:CE1:9038, V-A:ASP:366:CG:3209, V-A:ASP:366:CA:3206, V-B:LYS:547:CE:9919, V-A:ASP:366:CB:3208, V-A:ILE:369:CB:3232, V-A:GLY:453:C:4038, V-A:GLY:453:CA:4040, H-A:GLU:543:OE1:4906, H-A:GLU:543:OE2:4907, H-A:GLY:454:N:4046, V-A:GLU:543:CG:4904"]

$$$$
4ea_Grossjean_2025
     RDKit          3D

 31 34  0  0  0  0  0  0  0  0999 V2000
  128.5630  130.3670   73.6580 C   0  0  0  0  0  0  0  0  0  0  0  0
  129.4510  129.8160   72.5390 C   0  0  0  0  0  0  0  0  0  0  0  0
  129.3860  128.3960   72.5400 O   0  0  0  0  0  0  0  0  0  0  0  0
  128.4210  127.7370   71.8500 C   0  0  0  0  0  0  0  0  0  0  0  0
  127.2620  127.6070   72.2580 O   0  0  0  0  0  0  0  0  0  0  0  0
  128.9020  127.1810   70.5410 C   0  0  0  0  0  0  0  0  0  0  0  0
  129.9140  127.8520   69.8450 C   0  0  0  0  0  0  0  0  0  0  0  0
  130.3830  127.3630   68.6280 C   0  0  0  0  0  0  0  0  0  0  0  0
  129.8500  126.1940   68.0840 C   0  0  0  0  0  0  0  0  0  0  0  0
  130.4000  125.7930   66.8510 N   0  0  0  0  0  0  0  0  0  0  0  0
  129.9370  125.9600   65.5870 C   0  0  0  0  0  0  0  0  0  0  0  0
  128.8830  126.5300   65.3040 O   0  0  0  0  0  0  0  0  0  0  0  0
  130.7890  125.4030   64.5330 C   0  0  0  0  0  0  0  0  0  0  0  0
  132.5470  125.4740   64.6740 S   0  0  0  0  0  0  0  0  0  0  0  0
  132.7520  124.6660   63.1370 C   0  0  0  0  0  0  0  0  0  0  0  0
  133.9600  124.4000   62.6360 N   0  0  0  0  0  0  0  0  0  0  0  0
  133.9810  123.7690   61.4360 C   0  0  0  0  0  0  0  0  0  0  0  0
  135.3640  123.4760   60.8850 C   0  0  0  0  0  0  0  0  0  0  0  0
  132.8360  123.4020   60.7340 C   0  0  0  0  0  0  0  0  0  0  0  0
  131.5720  123.6820   61.2630 C   0  0  0  0  0  0  0  0  0  0  0  0
  130.3640  123.2860   60.5040 C   0  0  0  0  0  0  0  0  0  0  0  0
  129.6450  122.1450   60.8740 C   0  0  0  0  0  0  0  0  0  0  0  0
  128.5080  121.7720   60.1620 C   0  0  0  0  0  0  0  0  0  0  0  0
  128.0920  122.5400   59.0770 C   0  0  0  0  0  0  0  0  0  0  0  0
  128.8030  123.6750   58.6970 C   0  0  0  0  0  0  0  0  0  0  0  0
  129.9400  124.0460   59.4090 C   0  0  0  0  0  0  0  0  0  0  0  0
  131.5060  124.3440   62.5200 C   0  0  0  0  0  0  0  0  0  0  0  0
  130.4020  124.7760   63.3380 C   0  0  0  0  0  0  0  0  0  0  0  0
  129.0960  124.5830   62.9650 N   0  0  0  0  0  0  0  0  0  0  0  0
  128.8350  125.5140   68.7750 C   0  0  0  0  0  0  0  0  0  0  0  0
  128.3680  126.0050   69.9910 C   0  0  0  0  0  0  0  0  0  0  0  0
  1  2  1  0
  2  3  1  0
  3  4  1  0
  4  5  2  0
  4  6  1  0
  6  7  2  0
  7  8  1  0
  8  9  2  0
  9 10  1  0
 10 11  1  0
 11 12  2  0
 11 13  1  0
 13 14  1  0
 14 15  1  0
 15 16  2  0
 16 17  1  0
 17 18  1  0
 17 19  2  0
 19 20  1  0
 20 21  1  0
 21 22  2  0
 22 23  1  0
 23 24  2  0
 24 25  1  0
 25 26  2  0
 20 27  2  0
 27 28  1  0
 28 29  1  0
  9 30  1  0
 30 31  2  0
 31  6  1  0
 28 13  2  0
 27 15  1  0
 26 21  1  0
M  END
>  <Binding energies>  (63) 
[-7.71]

>  <Ligand effiencies>  (63) 
[-0.22676470588235295]

>  <Interactions>  (63) 
["V-A:ILE:369:CG1:3234, V-B:TYR:539:CE2:9845, V-B:ALA:541:CB:9861, V-B:PRO:540:CA:9852, V-B:GLU:543:C:9871, V-B:GLU:543:CD:9877, V-B:TYR:539:CZ:9846, V-B:TYR:539:CD2:9843, V-A:HIS:456:CE1:4066, V-B:HIS:456:CD2:9036, V-A:ARG:545:CZ:4923, V-B:GLU:543:CG:9876, V-B:HIS:456:CE1:9038, V-A:ASP:366:CG:3209, V-A:ASP:366:CA:3206, V-A:ILE:369:CB:3232, V-B:GLU:543:CB:9875, H-A:TYR:484:OH:4344, V-A:GLY:453:C:4038, V-B:TYR:539:C:9836, V-B:GLU:543:CA:9873, V-A:LYS:547:CE:4947, V-A:GLY:453:CA:4040, H-B:GLU:543:OE2:9879, H-A:LYS:547:NZ:4948, H-B:GLU:543:OE1:9878, H-A:GLY:454:N:4046, H-A:HIS:456:NE2:4067"]

$$$$
4eb_Grossjean_2025
     RDKit          3D

 30 33  0  0  0  0  0  0  0  0999 V2000
  129.0920  129.5890   72.9690 C   0  0  0  0  0  0  0  0  0  0  0  0
  129.3160  128.1910   72.8590 O   0  0  0  0  0  0  0  0  0  0  0  0
  128.4640  127.4000   72.1550 C   0  0  0  0  0  0  0  0  0  0  0  0
  127.4620  126.8740   72.6470 O   0  0  0  0  0  0  0  0  0  0  0  0
  128.8640  127.2310   70.7180 C   0  0  0  0  0  0  0  0  0  0  0  0
  128.1040  126.3920   69.8920 C   0  0  0  0  0  0  0  0  0  0  0  0
  128.4480  126.2140   68.5550 C   0  0  0  0  0  0  0  0  0  0  0  0
  129.5570  126.8690   68.0160 C   0  0  0  0  0  0  0  0  0  0  0  0
  129.8100  126.6140   66.6540 N   0  0  0  0  0  0  0  0  0  0  0  0
  130.1120  125.4550   66.0190 C   0  0  0  0  0  0  0  0  0  0  0  0
  130.2190  124.3640   66.5800 O   0  0  0  0  0  0  0  0  0  0  0  0
  130.3120  125.5690   64.5720 C   0  0  0  0  0  0  0  0  0  0  0  0
  129.5000  126.8400   63.6560 S   0  0  0  0  0  0  0  0  0  0  0  0
  130.2270  126.2950   62.1620 C   0  0  0  0  0  0  0  0  0  0  0  0
  129.9850  126.9010   60.9980 N   0  0  0  0  0  0  0  0  0  0  0  0
  130.6100  126.3810   59.9150 C   0  0  0  0  0  0  0  0  0  0  0  0
  130.3210  127.0860   58.6010 C   0  0  0  0  0  0  0  0  0  0  0  0
  131.4620  125.2800   59.9650 C   0  0  0  0  0  0  0  0  0  0  0  0
  131.7130  124.6470   61.1880 C   0  0  0  0  0  0  0  0  0  0  0  0
  132.6210  123.4780   61.2260 C   0  0  0  0  0  0  0  0  0  0  0  0
  132.0970  122.1820   61.2440 C   0  0  0  0  0  0  0  0  0  0  0  0
  132.9510  121.0820   61.2780 C   0  0  0  0  0  0  0  0  0  0  0  0
  134.3300  121.2800   61.2980 C   0  0  0  0  0  0  0  0  0  0  0  0
  134.8610  122.5670   61.2830 C   0  0  0  0  0  0  0  0  0  0  0  0
  134.0060  123.6660   61.2490 C   0  0  0  0  0  0  0  0  0  0  0  0
  131.0760  125.1630   62.3500 C   0  0  0  0  0  0  0  0  0  0  0  0
  131.1060  124.7710   63.7340 C   0  0  0  0  0  0  0  0  0  0  0  0
  131.8510  123.7060   64.1770 N   0  0  0  0  0  0  0  0  0  0  0  0
  130.3240  127.7110   68.8360 C   0  0  0  0  0  0  0  0  0  0  0  0
  129.9780  127.8880   70.1730 C   0  0  0  0  0  0  0  0  0  0  0  0
  1  2  1  0
  2  3  1  0
  3  4  2  0
  3  5  1  0
  5  6  2  0
  6  7  1  0
  7  8  2  0
  8  9  1  0
  9 10  1  0
 10 11  2  0
 10 12  1  0
 12 13  1  0
 13 14  1  0
 14 15  2  0
 15 16  1  0
 16 17  1  0
 16 18  2  0
 18 19  1  0
 19 20  1  0
 20 21  2  0
 21 22  1  0
 22 23  2  0
 23 24  1  0
 24 25  2  0
 19 26  2  0
 26 27  1  0
 27 28  1  0
  8 29  1  0
 29 30  2  0
 30  5  1  0
 27 12  2  0
 26 14  1  0
 25 20  1  0
M  END
>  <Binding energies>  (64) 
[-7.56]

>  <Ligand effiencies>  (64) 
[-0.22909090909090907]

>  <Interactions>  (64) 
["V-A:ILE:369:CG1:3234, V-A:ILE:369:CG2:3233, V-A:LEU:475:CD1:4254, V-A:GLU:543:CD:4905, V-B:TYR:539:CE2:9845, V-B:GLU:543:C:9871, V-B:GLU:543:CD:9877, V-A:GLU:543:CB:4903, V-A:HIS:456:CE1:4066, V-B:HIS:456:CD2:9036, V-B:HIS:456:CE1:9038, V-A:ASP:366:CG:3209, V-A:ASP:366:CB:3208, V-A:ILE:369:CB:3232, V-B:GLU:543:CB:9875, H-A:TYR:484:OH:4344, V-A:GLY:453:C:4038, V-A:ILE:369:CD1:3235, V-A:GLY:454:CA:4045, V-A:LYS:547:CE:4947, H-A:LYS:547:NZ:4948, H-A:GLU:543:OE1:4906"]

$$$$
8b_Ghoteimi_2023
     RDKit          3D

 34 38  0  0  0  0  0  0  0  0999 V2000
  128.1970  127.6840   74.3770 C   0  0  0  0  0  0  0  0  0  0  0  0
  129.2150  127.0250   73.6310 O   0  0  0  0  0  0  0  0  0  0  0  0
  129.1520  127.0360   72.2510 C   0  0  0  0  0  0  0  0  0  0  0  0
  130.1970  127.6730   71.5850 C   0  0  0  0  0  0  0  0  0  0  0  0
  130.2180  127.7350   70.1950 C   0  0  0  0  0  0  0  0  0  0  0  0
  129.1910  127.1600   69.4330 C   0  0  0  0  0  0  0  0  0  0  0  0
  129.2070  127.2250   67.9390 C   0  0  0  0  0  0  0  0  0  0  0  0
  130.0480  126.4080   67.1750 C   0  0  0  0  0  0  0  0  0  0  0  0
  130.0430  126.4880   65.7790 C   0  0  0  0  0  0  0  0  0  0  0  0
  130.9520  125.6160   65.0000 C   0  0  0  0  0  0  0  0  0  0  0  0
  132.3130  125.9150   64.9170 C   0  0  0  0  0  0  0  0  0  0  0  0
  133.1680  125.0880   64.1930 C   0  0  0  0  0  0  0  0  0  0  0  0
  132.6770  123.9570   63.5400 C   0  0  0  0  0  0  0  0  0  0  0  0
  133.5990  123.1950   62.8470 O   0  0  0  0  0  0  0  0  0  0  0  0
  133.9670  123.5820   61.5270 C   0  0  0  0  0  0  0  0  0  0  0  0
  131.3080  123.6610   63.6210 C   0  0  0  0  0  0  0  0  0  0  0  0
  130.4540  124.4870   64.3470 C   0  0  0  0  0  0  0  0  0  0  0  0
  129.1570  127.4130   65.1650 C   0  0  0  0  0  0  0  0  0  0  0  0
  128.8920  127.7460   63.7890 C   0  0  0  0  0  0  0  0  0  0  0  0
  129.5430  127.1350   62.7480 N   0  0  0  0  0  0  0  0  0  0  0  0
  127.9160  128.7400   63.6230 C   0  0  0  0  0  0  0  0  0  0  0  0
  127.4010  129.3130   62.3770 C   0  0  0  0  0  0  0  0  0  0  0  0
  126.4850  128.7610   61.7620 O   0  0  0  0  0  0  0  0  0  0  0  0
  128.0010  130.4610   61.9730 N   0  0  0  0  0  0  0  0  0  0  0  0
  127.7120  131.2120   60.8420 C   0  0  0  0  0  0  0  0  0  0  0  0
  128.6480  132.0340   60.2150 C   0  0  0  0  0  0  0  0  0  0  0  0
  127.9760  132.5970   59.1540 C   0  0  0  0  0  0  0  0  0  0  0  0
  126.7030  132.1360   59.1400 O   0  0  0  0  0  0  0  0  0  0  0  0
  126.5480  131.2580   60.2150 N   0  0  0  0  0  0  0  0  0  0  0  0
  127.2950  129.2900   65.1810 S   0  0  0  0  0  0  0  0  0  0  0  0
  128.3450  128.1880   66.0410 C   0  0  0  0  0  0  0  0  0  0  0  0
  128.3500  128.1150   67.3720 N   0  0  0  0  0  0  0  0  0  0  0  0
  128.1440  126.5190   70.1090 C   0  0  0  0  0  0  0  0  0  0  0  0
  128.1200  126.4560   71.5000 C   0  0  0  0  0  0  0  0  0  0  0  0
  1  2  1  0
  2  3  1  0
  3  4  2  0
  4  5  1  0
  5  6  2  0
  6  7  1  0
  7  8  2  0
  8  9  1  0
  9 10  1  0
 10 11  2  0
 11 12  1  0
 12 13  2  0
 13 14  1  0
 14 15  1  0
 13 16  1  0
 16 17  2  0
  9 18  2  0
 18 19  1  0
 19 20  1  0
 19 21  2  0
 21 22  1  0
 22 23  2  0
 22 24  1  0
 24 25  1  0
 25 26  1  0
 26 27  2  0
 27 28  1  0
 28 29  1  0
 21 30  1  0
 30 31  1  0
 31 32  2  0
  6 33  1  0
 33 34  2  0
 34  3  1  0
 32  7  1  0
 17 10  1  0
 31 18  1  0
 29 25  2  0
M  END
>  <Binding energies>  (65) 
[-8.29]

>  <Ligand effiencies>  (65) 
[-0.22405405405405404]

>  <Interactions>  (65) 
["V-A:GLU:543:CD:4905, V-B:GLU:543:CD:9877, V-A:HIS:456:CD2:4064, V-A:HIS:456:CE1:4066, V-B:HIS:456:CD2:9036, V-A:ARG:545:CZ:4923, V-B:GLY:544:C:9881, V-B:HIS:456:CE1:9038, V-A:ASP:366:CG:3209, V-B:LYS:547:CE:9919, V-A:GLY:454:CA:4045, V-A:LYS:547:CE:4947, H-B:GLU:543:OE2:9879, H-B:ARG:545:NH2:9897, H-A:LYS:547:NZ:4948, H-A:GLU:543:OE1:4906, H-A:GLU:543:OE2:4907, H-A:GLY:454:N:4046, V-A:TYR:539:CD2:4871, V-A:TYR:539:CE2:4873"]

$$$$
9d_Ghoteimi_2023
     RDKit          3D

 38 43  0  0  0  0  0  0  0  0999 V2000
  133.9190  120.8660   61.2710 C   0  0  0  0  0  0  0  0  0  0  0  0
  134.4540  122.1800   61.1920 O   0  0  0  0  0  0  0  0  0  0  0  0
  133.7560  123.1820   60.5970 C   0  0  0  0  0  0  0  0  0  0  0  0
  133.8050  123.4340   59.3900 O   0  0  0  0  0  0  0  0  0  0  0  0
  132.9260  123.9510   61.5500 C   0  0  0  0  0  0  0  0  0  0  0  0
  133.0270  123.6080   63.2770 S   0  0  0  0  0  0  0  0  0  0  0  0
  131.8640  124.8640   63.6340 C   0  0  0  0  0  0  0  0  0  0  0  0
  131.5070  125.1480   64.8850 N   0  0  0  0  0  0  0  0  0  0  0  0
  130.6100  126.1540   65.0580 C   0  0  0  0  0  0  0  0  0  0  0  0
  130.2430  126.4730   66.4720 C   0  0  0  0  0  0  0  0  0  0  0  0
  130.7220  127.6350   67.0840 C   0  0  0  0  0  0  0  0  0  0  0  0
  130.3890  127.9400   68.4010 C   0  0  0  0  0  0  0  0  0  0  0  0
  129.5520  127.0980   69.1510 C   0  0  0  0  0  0  0  0  0  0  0  0
  129.2230  127.3820   70.4810 N   0  0  0  0  0  0  0  0  0  0  0  0
  128.8720  126.3080   71.4320 C   0  0  0  0  0  0  0  0  0  0  0  0
  128.2090  126.8150   72.7290 C   0  0  0  0  0  0  0  0  0  0  0  0
  129.0320  127.7910   73.3460 O   0  0  0  0  0  0  0  0  0  0  0  0
  129.2330  128.9100   72.4980 C   0  0  0  0  0  0  0  0  0  0  0  0
  129.9270  128.4690   71.1920 C   0  0  0  0  0  0  0  0  0  0  0  0
  129.0870  125.9260   68.5370 C   0  0  0  0  0  0  0  0  0  0  0  0
  129.4230  125.6200   67.2210 C   0  0  0  0  0  0  0  0  0  0  0  0
  130.0490  126.8450   63.9810 C   0  0  0  0  0  0  0  0  0  0  0  0
  130.4060  126.5370   62.6630 C   0  0  0  0  0  0  0  0  0  0  0  0
  129.7590  127.2850   61.5540 C   0  0  0  0  0  0  0  0  0  0  0  0
  128.4690  126.9570   61.1300 C   0  0  0  0  0  0  0  0  0  0  0  0
  127.8590  127.6730   60.1030 C   0  0  0  0  0  0  0  0  0  0  0  0
  128.5180  128.7470   59.4830 C   0  0  0  0  0  0  0  0  0  0  0  0
  127.9330  129.4750   58.4450 N   0  0  0  0  0  0  0  0  0  0  0  0
  128.4460  130.8230   58.1350 C   0  0  0  0  0  0  0  0  0  0  0  0
  127.9940  131.3440   56.7540 C   0  0  0  0  0  0  0  0  0  0  0  0
  126.5780  131.3070   56.6590 O   0  0  0  0  0  0  0  0  0  0  0  0
  126.0770  129.9870   56.8180 C   0  0  0  0  0  0  0  0  0  0  0  0
  126.4780  129.4360   58.2030 C   0  0  0  0  0  0  0  0  0  0  0  0
  129.8140  129.0660   59.9170 C   0  0  0  0  0  0  0  0  0  0  0  0
  130.4230  128.3490   60.9420 C   0  0  0  0  0  0  0  0  0  0  0  0
  131.3760  125.5160   62.4630 C   0  0  0  0  0  0  0  0  0  0  0  0
  132.0180  124.9840   61.2880 C   0  0  0  0  0  0  0  0  0  0  0  0
  131.7760  125.4630   60.0270 N   0  0  0  0  0  0  0  0  0  0  0  0
  1  2  1  0
  2  3  1  0
  3  4  2  0
  3  5  1  0
  5  6  1  0
  6  7  1  0
  7  8  2  0
  8  9  1  0
  9 10  1  0
 10 11  2  0
 11 12  1  0
 12 13  2  0
 13 14  1  0
 14 15  1  0
 15 16  1  0
 16 17  1  0
 17 18  1  0
 18 19  1  0
 13 20  1  0
 20 21  2  0
  9 22  2  0
 22 23  1  0
 23 24  1  0
 24 25  2  0
 25 26  1  0
 26 27  2  0
 27 28  1  0
 28 29  1  0
 29 30  1  0
 30 31  1  0
 31 32  1  0
 32 33  1  0
 27 34  1  0
 34 35  2  0
 23 36  2  0
 36 37  1  0
 37 38  1  0
 37  5  2  0
 36  7  1  0
 21 10  1  0
 35 24  1  0
 19 14  1  0
 33 28  1  0
M  END
>  <Binding energies>  (66) 
[-7.56]

>  <Ligand effiencies>  (66) 
[-0.189]

>  <Interactions>  (66) 
["V-A:ILE:369:CG1:3234, V-A:GLU:543:C:4899, V-A:ILE:369:CG2:3233, V-A:LEU:475:CD1:4254, V-A:GLU:543:CD:4905, V-B:TYR:539:CE2:9845, V-A:GLU:543:CB:4903, V-A:HIS:456:CE1:4066, V-B:HIS:456:CD2:9036, V-B:GLU:543:CG:9876, V-A:ASP:366:CG:3209, V-B:LYS:547:CE:9919, V-A:ASP:366:CB:3208, V-B:GLU:543:CB:9875, H-A:TYR:484:OH:4344, H-B:TYR:539:OH:9847, V-A:GLY:454:CA:4045, V-A:LYS:547:CE:4947, V-A:GLY:544:C:4909, H-A:LYS:547:NZ:4948, H-A:ASP:366:OD2:3211, H-A:GLY:454:N:4046, H-A:ASP:366:OD1:3210, V-A:TYR:539:CE2:4873, H-A:TYR:539:OH:4875"]

$$$$
RR10_Rahimova_2017
     RDKit          3D

 34 38  0  0  0  0  0  0  0  0999 V2000
  132.8630  131.7420   61.9650 C   0  0  0  0  0  0  0  0  0  0  0  0
  132.3120  131.6650   60.5310 C   0  0  1  0  0  0  0  0  0  0  0  0
  133.1500  130.7160   59.6420 C   0  0  0  0  0  0  0  0  0  0  0  0
  132.6000  130.6800   58.1980 C   0  0  0  0  0  0  0  0  0  0  0  0
  131.1130  130.2420   58.1490 C   0  0  1  0  0  0  0  0  0  0  0  0
  130.9730  128.8310   58.5340 N   0  0  0  0  0  0  0  0  0  0  0  0
  129.8650  128.2700   59.0510 C   0  0  0  0  0  0  0  0  0  0  0  0
  128.8200  128.8970   59.2390 O   0  0  0  0  0  0  0  0  0  0  0  0
  129.9540  126.7760   59.4250 C   0  0  1  0  0  0  0  0  0  0  0  0
  130.3770  125.9570   58.1770 C   0  0  0  0  0  0  0  0  0  0  0  0
  130.5570  124.4710   58.5700 C   0  0  0  0  0  0  0  0  0  0  0  0
  131.4920  124.2890   59.7880 C   0  0  0  0  0  0  0  0  0  0  0  0
  131.0570  125.1540   60.9180 N   0  0  0  0  0  0  0  0  0  0  0  0
  131.8660  124.8130   62.4570 S   0  0  0  0  0  0  0  0  0  0  0  0
  133.1740  125.4790   62.4430 O   0  0  0  0  0  0  0  0  0  0  0  0
  131.7750  123.3680   62.7030 O   0  0  0  0  0  0  0  0  0  0  0  0
  130.8770  125.6470   63.6980 C   0  0  0  0  0  0  0  0  0  0  0  0
  129.9250  126.5890   63.2960 C   0  0  0  0  0  0  0  0  0  0  0  0
  129.1240  127.2760   64.2130 C   0  0  0  0  0  0  0  0  0  0  0  0
  129.3200  126.9710   65.5620 C   0  0  0  0  0  0  0  0  0  0  0  0
  128.7530  127.4200   66.7320 N   0  0  0  0  0  0  0  0  0  0  0  0
  129.3540  126.7520   67.7790 C   0  0  0  0  0  0  0  0  0  0  0  0
  129.0040  126.9810   69.2210 C   0  0  0  0  0  0  0  0  0  0  0  0
  127.8080  126.4770   69.7500 C   0  0  0  0  0  0  0  0  0  0  0  0
  127.4840  126.6850   71.0870 C   0  0  0  0  0  0  0  0  0  0  0  0
  128.3550  127.4010   71.9050 C   0  0  0  0  0  0  0  0  0  0  0  0
  129.5470  127.9080   71.3950 C   0  0  0  0  0  0  0  0  0  0  0  0
  129.8700  127.6990   70.0570 C   0  0  0  0  0  0  0  0  0  0  0  0
  130.2650  125.9000   67.3610 N   0  0  0  0  0  0  0  0  0  0  0  0
  130.2690  126.0150   65.9960 C   0  0  0  0  0  0  0  0  0  0  0  0
  131.0560  125.3400   65.0520 C   0  0  0  0  0  0  0  0  0  0  0  0
  130.9840  126.5950   60.5670 C   0  0  0  0  0  0  0  0  0  0  0  0
  130.2880  131.1920   59.0590 C   0  0  0  0  0  0  0  0  0  0  0  0
  130.8300  131.2250   60.5060 C   0  0  0  0  0  0  0  0  0  0  0  0
  2  1  1  1
  2  3  1  0
  3  4  1  0
  4  5  1  0
  5  6  1  1
  6  7  1  0
  7  8  2  0
  9  7  1  6
  9 10  1  0
 10 11  1  0
 11 12  1  0
 12 13  1  0
 13 14  1  0
 14 15  2  0
 14 16  2  0
 14 17  1  0
 17 18  2  0
 18 19  1  0
 19 20  2  0
 20 21  1  0
 21 22  1  0
 22 23  1  0
 23 24  2  0
 24 25  1  0
 25 26  2  0
 26 27  1  0
 27 28  2  0
 22 29  2  0
 29 30  1  0
 30 31  2  0
 13 32  1  0
  5 33  1  0
 33 34  1  0
 34  2  1  0
 32  9  1  0
 31 17  1  0
 30 20  1  0
 28 23  1  0
M  END
>  <Binding energies>  (67) 
[-8.62]

>  <Ligand effiencies>  (67) 
[-0.23944444444444443]

>  <Interactions>  (67) 
["V-A:GLU:543:CD:4905, V-B:TYR:539:CE2:9845, V-B:GLU:543:C:9871, V-B:GLU:543:CD:9877, V-B:TYR:539:CZ:9846, V-A:HIS:456:CE1:4066, V-B:HIS:456:CD2:9036, V-B:GLY:544:C:9881, V-B:HIS:456:CE1:9038, V-A:ASP:366:CG:3209, H-A:ARG:545:NH2:4925, H-B:GLU:543:OE1:9878, H-A:ARG:545:NH1:4924, H-A:ASP:366:OD1:3210, V-A:PRO:540:CA:4880, V-A:ASN:362:C:3168, V-A:PRO:540:CB:4882, V-A:LEU:363:CA:3181, V-A:ASN:362:CB:3172, H-B:HIS:456:NE2:9039, V-A:PRO:540:C:4878, V-A:ALA:541:C:4885, V-A:ASN:362:CG:3173"]

$$$$
RR12_Rahimova_2017
     RDKit          3D

 26 28  0  0  0  0  0  0  0  0999 V2000
  129.3130  126.1160   59.6510 C   0  0  0  0  0  0  0  0  0  0  0  0
  130.6260  126.1430   60.4450 C   0  0  0  0  0  0  0  0  0  0  0  0
  131.1890  124.7340   60.7060 C   0  0  0  0  0  0  0  0  0  0  0  0
  132.0500  124.7310   61.8860 N   0  0  0  0  0  0  0  0  0  0  0  0
  133.3510  124.2610   61.9810 C   0  0  0  0  0  0  0  0  0  0  0  0
  134.1000  123.6050   60.8340 C   0  0  0  0  0  0  0  0  0  0  0  0
  133.7250  122.1220   60.6600 C   0  0  0  0  0  0  0  0  0  0  0  0
  132.6230  121.6670   61.6360 C   0  0  0  0  0  0  0  0  0  0  0  0
  131.2730  121.7490   61.0810 N   0  0  0  0  0  0  0  0  0  0  0  0
  130.1840  121.1600   61.6090 C   0  0  0  0  0  0  0  0  0  0  0  0
  130.2170  120.4740   62.6330 O   0  0  0  0  0  0  0  0  0  0  0  0
  128.8700  121.3960   60.8540 C   0  0  0  0  0  0  0  0  0  0  0  0
  129.1280  122.1570   59.6740 O   0  0  0  0  0  0  0  0  0  0  0  0
  128.0750  122.5030   58.8480 C   0  0  0  0  0  0  0  0  0  0  0  0
  128.1760  122.1020   57.5140 C   0  0  0  0  0  0  0  0  0  0  0  0
  127.1630  122.4020   56.6070 C   0  0  0  0  0  0  0  0  0  0  0  0
  126.0410  123.1070   57.0350 C   0  0  0  0  0  0  0  0  0  0  0  0
  125.9260  123.5170   58.3610 C   0  0  0  0  0  0  0  0  0  0  0  0
  126.9400  123.2170   59.2670 C   0  0  0  0  0  0  0  0  0  0  0  0
  133.8750  124.4190   63.1710 N   0  0  0  0  0  0  0  0  0  0  0  0
  132.9040  125.0440   63.9030 C   0  0  0  0  0  0  0  0  0  0  0  0
  132.9380  125.4620   65.2420 C   0  0  0  0  0  0  0  0  0  0  0  0
  131.8070  126.0900   65.7630 C   0  0  0  0  0  0  0  0  0  0  0  0
  130.6700  126.3010   64.9820 C   0  0  0  0  0  0  0  0  0  0  0  0
  130.6040  125.8950   63.6480 C   0  0  0  0  0  0  0  0  0  0  0  0
  131.7390  125.2630   63.1250 C   0  0  0  0  0  0  0  0  0  0  0  0
  1  2  1  0
  2  3  1  0
  3  4  1  0
  4  5  1  0
  5  6  1  0
  6  7  1  0
  7  8  1  0
  8  9  1  0
  9 10  1  0
 10 11  2  0
 10 12  1  0
 12 13  1  0
 13 14  1  0
 14 15  2  0
 15 16  1  0
 16 17  2  0
 17 18  1  0
 18 19  2  0
  5 20  2  0
 20 21  1  0
 21 22  2  0
 22 23  1  0
 23 24  2  0
 24 25  1  0
 25 26  2  0
 26  4  1  0
 19 14  1  0
 26 21  1  0
M  END
>  <Binding energies>  (68) 
[-5.97]

>  <Ligand effiencies>  (68) 
[-0.2211111111111111]

>  <Interactions>  (68) 
["V-A:ILE:369:CG1:3234, V-A:ILE:369:CG2:3233, V-A:LEU:475:CD1:4254, V-A:GLU:543:CD:4905, V-B:TYR:539:CE2:9845, V-B:ALA:541:CB:9861, V-B:PRO:540:CA:9852, V-B:TYR:539:CZ:9846, V-B:TYR:539:CD2:9843, V-B:TYR:539:CE1:9844, V-A:HIS:456:CE1:4066, V-A:ARG:545:CZ:4923, V-A:ASP:366:CG:3209, V-A:ILE:369:CB:3232, V-B:TYR:539:C:9836, H-B:TYR:539:OH:9847, V-A:ARG:545:CD:4920, V-B:TYR:539:CD1:9842, V-B:PRO:540:N:9853, V-B:TYR:539:CG:9841, H-A:GLY:454:N:4046, V-B:PRO:540:CB:9854, V-B:ALA:541:CA:9859, V-B:TYR:539:CA:9838"]

$$$$
RR13_Rahimova_2017
     RDKit          3D

 48 54  0  0  0  0  0  0  0  0999 V2000
  130.3190  121.9680   62.7460 Cl  0  0  0  0  0  0  0  0  0  0  0  0
  131.8660  122.3660   62.0790 C   0  0  0  0  0  0  0  0  0  0  0  0
  132.4920  121.4130   61.2730 C   0  0  0  0  0  0  0  0  0  0  0  0
  133.7470  121.6640   60.7250 C   0  0  0  0  0  0  0  0  0  0  0  0
  134.3870  122.8740   60.9820 C   0  0  0  0  0  0  0  0  0  0  0  0
  133.7690  123.8300   61.7860 C   0  0  0  0  0  0  0  0  0  0  0  0
  132.4980  123.6000   62.3380 C   0  0  0  0  0  0  0  0  0  0  0  0
  131.8460  124.6660   63.2450 C   0  0  1  0  0  0  0  0  0  0  0  0
  132.8060  125.1030   64.3620 C   0  0  0  0  0  0  0  0  0  0  0  0
  134.0550  124.7230   64.5160 N   0  0  0  0  0  0  0  0  0  0  0  0
  134.5050  125.3540   65.6720 N   0  0  0  0  0  0  0  0  0  0  0  0
  133.4910  126.1110   66.2240 N   0  0  0  0  0  0  0  0  0  0  0  0
  132.4460  125.9200   65.4120 N   0  0  0  0  0  0  0  0  0  0  0  0
  131.1830  126.6050   65.6610 C   0  0  0  0  0  0  0  0  0  0  0  0
  131.3050  127.5170   66.8960 C   0  0  0  0  0  0  0  0  0  0  0  0
  130.2010  127.2610   67.9100 C   0  0  0  0  0  0  0  0  0  0  0  0
  130.3120  127.7740   69.2060 C   0  0  0  0  0  0  0  0  0  0  0  0
  129.3040  127.5320   70.1360 C   0  0  0  0  0  0  0  0  0  0  0  0
  128.1900  126.7800   69.7680 C   0  0  0  0  0  0  0  0  0  0  0  0
  128.0750  126.2660   68.4790 C   0  0  0  0  0  0  0  0  0  0  0  0
  129.0820  126.5060   67.5470 C   0  0  0  0  0  0  0  0  0  0  0  0
  131.2880  125.8170   62.4960 N   0  0  0  0  0  0  0  0  0  0  0  0
  129.8970  126.0780   62.9090 C   0  0  0  0  0  0  0  0  0  0  0  0
  129.3540  127.3580   62.2310 C   0  0  0  0  0  0  0  0  0  0  0  0
  129.3560  127.2100   60.7660 N   0  0  0  0  0  0  0  0  0  0  0  0
  128.7670  128.3820   60.0770 C   0  0  1  0  0  0  0  0  0  0  0  0
  129.7730  129.3040   59.3530 C   0  0  0  0  0  0  0  0  0  0  0  0
  130.0590  130.5360   59.9560 C   0  0  0  0  0  0  0  0  0  0  0  0
  130.9680  131.4250   59.3820 C   0  0  0  0  0  0  0  0  0  0  0  0
  131.6020  131.0950   58.1880 C   0  0  0  0  0  0  0  0  0  0  0  0
  131.3190  129.8830   57.5640 C   0  0  0  0  0  0  0  0  0  0  0  0
  130.4070  128.9870   58.1290 C   0  0  0  0  0  0  0  0  0  0  0  0
  130.0710  127.5380   57.2420 Cl  0  0  0  0  0  0  0  0  0  0  0  0
  127.6210  128.0110   59.1340 C   0  0  0  0  0  0  0  0  0  0  0  0
  127.2410  128.7050   58.0860 N   0  0  0  0  0  0  0  0  0  0  0  0
  126.1870  127.9970   57.5180 N   0  0  0  0  0  0  0  0  0  0  0  0
  125.9480  126.8460   58.2410 N   0  0  0  0  0  0  0  0  0  0  0  0
  126.8590  126.8650   59.2210 N   0  0  0  0  0  0  0  0  0  0  0  0
  126.8900  125.7930   60.2100 C   0  0  0  0  0  0  0  0  0  0  0  0
  127.8810  124.6950   59.7820 C   0  0  0  0  0  0  0  0  0  0  0  0
  127.3670  123.8850   58.6020 C   0  0  0  0  0  0  0  0  0  0  0  0
  128.2680  123.2320   57.7570 C   0  0  0  0  0  0  0  0  0  0  0  0
  127.7960  122.4850   56.6810 C   0  0  0  0  0  0  0  0  0  0  0  0
  126.4240  122.3940   56.4530 C   0  0  0  0  0  0  0  0  0  0  0  0
  125.5200  123.0430   57.2930 C   0  0  0  0  0  0  0  0  0  0  0  0
  125.9910  123.7890   58.3690 C   0  0  0  0  0  0  0  0  0  0  0  0
  130.7490  126.9550   60.3570 C   0  0  0  0  0  0  0  0  0  0  0  0
  131.2830  125.6690   61.0310 C   0  0  0  0  0  0  0  0  0  0  0  0
  1  2  1  0
  2  3  2  0
  3  4  1  0
  4  5  2  0
  5  6  1  0
  6  7  2  0
  7  8  1  0
  8  9  1  0
  9 10  2  0
 10 11  1  0
 11 12  2  0
 12 13  1  0
 13 14  1  0
 14 15  1  0
 15 16  1  0
 16 17  2  0
 17 18  1  0
 18 19  2  0
 19 20  1  0
 20 21  2  0
  8 22  1  6
 22 23  1  0
 23 24  1  0
 24 25  1  0
 26 25  1  6
 26 27  1  0
 27 28  2  0
 28 29  1  0
 29 30  2  0
 30 31  1  0
 31 32  2  0
 32 33  1  0
 26 34  1  0
 34 35  2  0
 35 36  1  0
 36 37  2  0
 37 38  1  0
 38 39  1  0
 39 40  1  0
 40 41  1  0
 41 42  2  0
 42 43  1  0
 43 44  2  0
 44 45  1  0
 45 46  2  0
 25 47  1  0
 47 48  1  0
  7  2  1  0
 13  9  1  0
 21 16  1  0
 48 22  1  0
 32 27  1  0
 38 34  1  0
 46 41  1  0
M  END
>  <Binding energies>  (69) 
[-11.2]

>  <Ligand effiencies>  (69) 
[-0.2333333333333333]

>  <Interactions>  (69) 
["V-A:ILE:369:CG1:3234, V-A:GLU:543:C:4899, V-A:ILE:369:CG2:3233, V-A:LEU:475:CD1:4254, V-A:GLU:543:CD:4905, V-B:TYR:539:CE2:9845, V-B:ALA:541:CB:9861, V-B:PRO:540:CA:9852, V-B:GLU:543:C:9871, V-A:GLU:543:CB:4903, V-B:TYR:539:CZ:9846, V-B:TYR:539:CD2:9843, V-B:TYR:539:CE1:9844, V-A:HIS:456:CE1:4066, V-B:HIS:456:CD2:9036, V-A:ARG:545:CZ:4923, V-B:HIS:456:CE1:9038, V-A:ASP:366:CG:3209, V-A:ILE:369:CB:3232, V-B:GLU:543:CB:9875, H-A:TYR:484:OH:4344, H-A:ARG:545:NH2:4925, H-A:ARG:545:NE:4921, V-A:ARG:545:CG:4919, V-A:ARG:545:CD:4920, V-B:TYR:539:CD1:9842, V-B:PRO:540:N:9853, H-A:GLY:454:N:4046, H-A:ARG:545:NH1:4924, V-B:PRO:540:CB:9854, V-A:PRO:540:CA:4880, V-A:PRO:540:CB:4882, V-B:PRO:540:CD:9856, V-B:ILE:538:CB:9831, V-B:LEU:363:CD1:8157, H-A:HIS:456:ND1:4063, H-B:TYR:531:OH:9764"]

$$$$
RR14_Rahimova_2017
     RDKit          3D

 39 43  0  0  0  0  0  0  0  0999 V2000
  129.9000  119.1390   61.6570 C   0  0  0  0  0  0  0  0  0  0  0  0
  129.3290  120.3840   61.2680 O   0  0  0  0  0  0  0  0  0  0  0  0
  130.0050  121.5540   61.5550 C   0  0  0  0  0  0  0  0  0  0  0  0
  129.8990  122.5810   60.6170 C   0  0  0  0  0  0  0  0  0  0  0  0
  130.5650  123.7870   60.8090 C   0  0  0  0  0  0  0  0  0  0  0  0
  131.3540  123.9760   61.9470 C   0  0  0  0  0  0  0  0  0  0  0  0
  132.1370  125.2710   62.1280 C   0  0  0  0  0  0  0  0  0  0  0  0
  132.8130  125.3610   63.4220 N   0  0  0  0  0  0  0  0  0  0  0  0
  134.0410  124.8550   63.5800 N   0  0  0  0  0  0  0  0  0  0  0  0
  134.3490  125.0870   64.9070 N   0  0  0  0  0  0  0  0  0  0  0  0
  133.2880  125.7300   65.5380 N   0  0  0  0  0  0  0  0  0  0  0  0
  132.3640  125.8790   64.6180 C   0  0  0  0  0  0  0  0  0  0  0  0
  130.9990  126.5150   64.8420 C   0  0  0  0  0  0  0  0  0  0  0  0
  129.9060  125.5300   64.7950 N   0  0  0  0  0  0  0  0  0  0  0  0
  129.0610  125.5890   65.9960 C   0  0  0  0  0  0  0  0  0  0  0  0
  129.6540  126.4680   67.1190 C   0  0  0  0  0  0  0  0  0  0  0  0
  128.6660  126.7510   68.2700 C   0  0  0  0  0  0  0  0  0  0  0  0
  129.2800  126.6540   69.5990 N   0  0  0  0  0  0  0  0  0  0  0  0
  128.2440  126.5570   70.6340 C   0  0  0  0  0  0  0  0  0  0  0  0
  128.8560  126.5050   72.0500 C   0  0  0  0  0  0  0  0  0  0  0  0
  129.7180  127.6210   72.2510 O   0  0  0  0  0  0  0  0  0  0  0  0
  130.7890  127.6500   71.3150 C   0  0  0  0  0  0  0  0  0  0  0  0
  130.2350  127.7380   69.8770 C   0  0  0  0  0  0  0  0  0  0  0  0
  129.0950  125.7310   63.5850 C   0  0  0  0  0  0  0  0  0  0  0  0
  128.6350  127.1620   63.3160 C   0  0  0  0  0  0  0  0  0  0  0  0
  127.6840  127.7470   64.0850 C   0  0  0  0  0  0  0  0  0  0  0  0
  127.1930  129.1150   63.8210 C   0  0  0  0  0  0  0  0  0  0  0  0
  126.2240  129.7590   64.6090 C   0  0  0  0  0  0  0  0  0  0  0  0
  125.5960  129.0780   65.8180 C   0  0  0  0  0  0  0  0  0  0  0  0
  125.8300  131.0580   64.2740 C   0  0  0  0  0  0  0  0  0  0  0  0
  126.3870  131.7100   63.1760 C   0  0  0  0  0  0  0  0  0  0  0  0
  127.3540  131.0790   62.3880 C   0  0  0  0  0  0  0  0  0  0  0  0
  127.9460  131.8190   61.1960 C   0  0  0  0  0  0  0  0  0  0  0  0
  127.7570  129.7750   62.7150 C   0  0  0  0  0  0  0  0  0  0  0  0
  128.7270  129.0970   61.9470 N   0  0  0  0  0  0  0  0  0  0  0  0
  129.2060  127.8440   62.1510 C   0  0  0  0  0  0  0  0  0  0  0  0
  130.0470  127.3670   61.3890 O   0  0  0  0  0  0  0  0  0  0  0  0
  131.4430  122.9650   62.9060 C   0  0  0  0  0  0  0  0  0  0  0  0
  130.7770  121.7590   62.7110 C   0  0  0  0  0  0  0  0  0  0  0  0
  1  2  1  0
  2  3  1  0
  3  4  2  0
  4  5  1  0
  5  6  2  0
  6  7  1  0
  7  8  1  0
  8  9  1  0
  9 10  2  0
 10 11  1  0
 11 12  2  0
 12 13  1  0
 13 14  1  0
 14 15  1  0
 15 16  1  0
 16 17  1  0
 17 18  1  0
 18 19  1  0
 19 20  1  0
 20 21  1  0
 21 22  1  0
 22 23  1  0
 14 24  1  0
 24 25  1  0
 25 26  2  0
 26 27  1  0
 27 28  2  0
 28 29  1  0
 28 30  1  0
 30 31  2  0
 31 32  1  0
 32 33  1  0
 32 34  2  0
 34 35  1  0
 35 36  1  0
 36 37  2  0
  6 38  1  0
 38 39  2  0
 39  3  1  0
 12  8  1  0
 23 18  1  0
 36 25  1  0
 34 27  1  0
M  END
>  <Binding energies>  (70) 
[-8.73]

>  <Ligand effiencies>  (70) 
[-0.21825]

>  <Interactions>  (70) 
["V-A:LEU:475:CD1:4254, V-A:GLU:543:CD:4905, V-B:TYR:539:CE2:9845, V-B:ALA:541:CB:9861, V-B:GLU:543:CD:9877, V-B:TYR:539:CZ:9846, V-A:HIS:456:CD2:4064, V-B:TYR:539:CD2:9843, V-A:HIS:456:CE1:4066, V-B:HIS:456:CD2:9036, V-A:ARG:545:CZ:4923, V-B:GLU:543:CG:9876, V-B:HIS:456:CE1:9038, V-A:ASP:366:CG:3209, V-B:LYS:547:CE:9919, V-B:GLU:543:CB:9875, H-A:TYR:484:OH:4344, V-A:TRP:381:CZ2:3366, H-A:ARG:545:NH2:4925, H-A:ARG:545:NE:4921, V-A:GLY:544:C:4909, H-A:LYS:547:NZ:4948, H-A:GLU:543:OE2:4907, H-A:GLY:454:N:4046, H-A:ARG:545:NH1:4924, V-A:PRO:482:CB:4322, V-A:PRO:482:CG:4323"]

$$$$
RR15_Rahimova_2017
     RDKit          3D

 45 49  0  0  0  0  0  0  0  0999 V2000
  127.6290  128.1260   74.5740 C   0  0  0  0  0  0  0  0  0  0  0  0
  128.8380  127.7050   73.9520 O   0  0  0  0  0  0  0  0  0  0  0  0
  128.8250  127.3330   72.6190 C   0  0  0  0  0  0  0  0  0  0  0  0
  128.1190  126.2230   72.1280 C   0  0  0  0  0  0  0  0  0  0  0  0
  128.1490  125.9020   70.7740 C   0  0  0  0  0  0  0  0  0  0  0  0
  128.8860  126.6750   69.8710 C   0  0  0  0  0  0  0  0  0  0  0  0
  128.9240  126.3250   68.4090 C   0  0  0  0  0  0  0  0  0  0  0  0
  129.1850  125.1020   67.9680 N   0  0  0  0  0  0  0  0  0  0  0  0
  129.1400  125.1740   66.5910 N   0  0  0  0  0  0  0  0  0  0  0  0
  128.8130  126.4450   66.3540 N   0  0  0  0  0  0  0  0  0  0  0  0
  128.8140  127.0070   65.0050 C   0  0  0  0  0  0  0  0  0  0  0  0
  130.0370  126.6130   64.1390 C   0  0  0  0  0  0  0  0  0  0  0  0
  131.0980  126.3560   64.7120 O   0  0  0  0  0  0  0  0  0  0  0  0
  129.9060  126.5290   62.7790 N   0  0  0  0  0  0  0  0  0  0  0  0
  128.5920  126.2900   62.1480 C   0  0  0  0  0  0  0  0  0  0  0  0
  128.6140  125.1770   61.0780 C   0  0  0  0  0  0  0  0  0  0  0  0
  127.8550  123.8870   61.4690 C   0  0  0  0  0  0  0  0  0  0  0  0
  128.7190  122.8390   62.0230 N   0  0  0  0  0  0  0  0  0  0  0  0
  129.6160  122.2300   61.0290 C   0  0  0  0  0  0  0  0  0  0  0  0
  130.5610  121.1970   61.6800 C   0  0  0  0  0  0  0  0  0  0  0  0
  131.2760  121.7950   62.7560 O   0  0  0  0  0  0  0  0  0  0  0  0
  130.4110  122.2940   63.7710 C   0  0  0  0  0  0  0  0  0  0  0  0
  129.4640  123.3590   63.1780 C   0  0  0  0  0  0  0  0  0  0  0  0
  131.0090  126.8570   61.8250 C   0  0  2  0  0  0  0  0  0  0  0  0
  130.5620  127.7350   60.6140 C   0  0  0  0  0  0  0  0  0  0  0  0
  130.1490  127.2210   59.5740 O   0  0  0  0  0  0  0  0  0  0  0  0
  130.6240  129.0650   60.8050 N   0  0  0  0  0  0  0  0  0  0  0  0
  130.1650  130.0750   59.8590 C   0  0  0  0  0  0  0  0  0  0  0  0
  131.0920  131.3050   59.8650 C   0  0  2  0  0  0  0  0  0  0  0  0
  132.4500  131.1100   59.1670 C   0  0  0  0  0  0  0  0  0  0  0  0
  133.4290  130.8970   60.2960 C   0  0  0  0  0  0  0  0  0  0  0  0
  132.8320  131.7780   61.3800 C   0  0  0  0  0  0  0  0  0  0  0  0
  131.4360  131.5390   61.2370 O   0  0  0  0  0  0  0  0  0  0  0  0
  131.8460  125.6190   61.5230 C   0  0  0  0  0  0  0  0  0  0  0  0
  132.6880  125.1310   62.5300 C   0  0  0  0  0  0  0  0  0  0  0  0
  133.4750  124.0050   62.3110 C   0  0  0  0  0  0  0  0  0  0  0  0
  133.4260  123.3550   61.0810 C   0  0  0  0  0  0  0  0  0  0  0  0
  134.1900  122.2610   60.8690 F   0  0  0  0  0  0  0  0  0  0  0  0
  132.5930  123.8250   60.0690 C   0  0  0  0  0  0  0  0  0  0  0  0
  131.8070  124.9520   60.2880 C   0  0  0  0  0  0  0  0  0  0  0  0
  128.7080  127.2060   67.4500 N   0  0  0  0  0  0  0  0  0  0  0  0
  129.5880  127.7840   70.3630 C   0  0  0  0  0  0  0  0  0  0  0  0
  129.5640  128.1230   71.7260 C   0  0  0  0  0  0  0  0  0  0  0  0
  130.2380  129.2080   72.2590 O   0  0  0  0  0  0  0  0  0  0  0  0
  129.5190  130.3960   72.5750 C   0  0  0  0  0  0  0  0  0  0  0  0
  1  2  1  0
  2  3  1  0
  3  4  2  0
  4  5  1  0
  5  6  2  0
  6  7  1  0
  7  8  1  0
  8  9  2  0
  9 10  1  0
 10 11  1  0
 11 12  1  0
 12 13  2  0
 12 14  1  0
 14 15  1  0
 15 16  1  0
 16 17  1  0
 17 18  1  0
 18 19  1  0
 19 20  1  0
 20 21  1  0
 21 22  1  0
 22 23  1  0
 24 14  1  6
 24 25  1  0
 25 26  2  0
 25 27  1  0
 27 28  1  0
 29 28  1  1
 29 30  1  0
 30 31  1  0
 31 32  1  0
 32 33  1  0
 24 34  1  0
 34 35  2  0
 35 36  1  0
 36 37  2  0
 37 38  1  0
 37 39  1  0
 39 40  2  0
 10 41  1  0
  6 42  1  0
 42 43  2  0
 43 44  1  0
 44 45  1  0
 43  3  1  0
 41  7  2  0
 23 18  1  0
 33 29  1  0
 40 34  1  0
M  END
>  <Binding energies>  (71) 
[-9.14]

>  <Ligand effiencies>  (71) 
[-0.19869565217391305]

>  <Interactions>  (71) 
["V-A:ILE:369:CG1:3234, V-A:GLU:543:C:4899, V-A:ILE:369:CG2:3233, V-A:LEU:475:CD1:4254, V-A:GLU:543:CD:4905, V-B:GLY:544:CA:9883, V-B:TYR:539:CE2:9845, V-B:ALA:541:CB:9861, V-B:GLU:543:C:9871, V-B:GLU:543:CD:9877, V-B:TYR:539:CZ:9846, V-B:TYR:539:CD2:9843, V-A:HIS:456:CE1:4066, V-B:HIS:456:CD2:9036, V-A:ARG:545:CZ:4923, V-B:GLU:543:CG:9876, V-B:GLY:544:C:9881, V-A:ASP:366:CG:3209, V-B:LYS:547:CE:9919, V-A:ILE:369:CB:3232, V-B:GLU:543:CB:9875, V-A:LYS:547:CE:4947, H-A:ARG:545:NH2:4925, V-A:GLY:544:CA:4911, H-A:LYS:547:NZ:4948, H-A:GLU:543:OE1:4906, H-A:GLU:543:OE2:4907, V-A:LEU:475:CD2:4255, H-A:ASP:366:OD1:3210, V-A:PRO:540:CA:4880, H-A:ALA:541:N:4888, V-A:ASN:362:C:3168, V-A:PRO:540:CB:4882, V-A:LEU:363:CA:3181, V-A:ASN:362:CA:3170, V-A:ASN:362:CB:3172, V-A:PRO:540:C:4878"]

$$$$
RR17_Rahimova_2017
     RDKit          3D

 38 41  0  0  0  0  0  0  0  0999 V2000
  127.9950  122.1120   58.2160 C   0  0  0  0  0  0  0  0  0  0  0  0
  127.8260  122.5240   59.6820 C   0  0  0  0  0  0  0  0  0  0  0  0
  128.5850  121.6360   60.4970 O   0  0  0  0  0  0  0  0  0  0  0  0
  129.5030  122.1550   61.3920 C   0  0  0  0  0  0  0  0  0  0  0  0
  129.1480  123.3430   62.0290 C   0  0  0  0  0  0  0  0  0  0  0  0
  130.0080  123.9410   62.9450 C   0  0  0  0  0  0  0  0  0  0  0  0
  131.2490  123.3590   63.2420 C   0  0  0  0  0  0  0  0  0  0  0  0
  132.1560  124.0270   64.2350 C   0  0  0  0  0  0  0  0  0  0  0  0
  133.2410  123.5420   64.5690 O   0  0  0  0  0  0  0  0  0  0  0  0
  131.6660  125.3580   64.8480 C   0  0  0  0  0  0  0  0  0  0  0  0
  130.2420  125.1180   65.9690 S   0  0  0  0  0  0  0  0  0  0  0  0
  129.3430  126.6090   65.6440 C   0  0  0  0  0  0  0  0  0  0  0  0
  128.8850  126.9790   64.4720 N   0  0  0  0  0  0  0  0  0  0  0  0
  128.2340  128.1960   64.6340 N   0  0  0  0  0  0  0  0  0  0  0  0
  128.3210  128.5140   65.9010 C   0  0  0  0  0  0  0  0  0  0  0  0
  127.7290  129.7720   66.5190 C   0  0  0  0  0  0  0  0  0  0  0  0
  126.6420  130.3570   65.7380 N   0  0  0  0  0  0  0  0  0  0  0  0
  126.8240  130.9750   64.4870 C   0  0  0  0  0  0  0  0  0  0  0  0
  126.8990  132.3670   64.4630 C   0  0  0  0  0  0  0  0  0  0  0  0
  127.0730  133.0420   63.2590 C   0  0  0  0  0  0  0  0  0  0  0  0
  127.1780  132.3300   62.0600 C   0  0  0  0  0  0  0  0  0  0  0  0
  127.3620  133.0860   60.7460 C   0  0  0  0  0  0  0  0  0  0  0  0
  127.8220  132.3000   59.7700 F   0  0  0  0  0  0  0  0  0  0  0  0
  126.2020  133.6070   60.3420 F   0  0  0  0  0  0  0  0  0  0  0  0
  128.2350  134.0770   60.9310 F   0  0  0  0  0  0  0  0  0  0  0  0
  127.1100  130.9320   62.0830 C   0  0  0  0  0  0  0  0  0  0  0  0
  126.9380  130.2580   63.2880 C   0  0  0  0  0  0  0  0  0  0  0  0
  129.0250  127.5530   66.5990 N   0  0  0  0  0  0  0  0  0  0  0  0
  129.3180  127.5290   67.9700 C   0  0  0  0  0  0  0  0  0  0  0  0
  130.5100  128.0900   68.4280 C   0  0  0  0  0  0  0  0  0  0  0  0
  130.8030  128.0630   69.7890 C   0  0  0  0  0  0  0  0  0  0  0  0
  129.9050  127.4740   70.6940 C   0  0  0  0  0  0  0  0  0  0  0  0
  130.1120  127.4020   72.0580 O   0  0  0  0  0  0  0  0  0  0  0  0
  129.1120  126.8120   72.8820 C   0  0  0  0  0  0  0  0  0  0  0  0
  128.7180  126.9150   70.2170 C   0  0  0  0  0  0  0  0  0  0  0  0
  128.4180  126.9400   68.8580 C   0  0  0  0  0  0  0  0  0  0  0  0
  131.6050  122.1640   62.6010 C   0  0  0  0  0  0  0  0  0  0  0  0
  130.7420  121.5670   61.6860 C   0  0  0  0  0  0  0  0  0  0  0  0
  1  2  1  0
  2  3  1  0
  3  4  1  0
  4  5  2  0
  5  6  1  0
  6  7  2  0
  7  8  1  0
  8  9  2  0
  8 10  1  0
 10 11  1  0
 11 12  1  0
 12 13  2  0
 13 14  1  0
 14 15  2  0
 15 16  1  0
 16 17  1  0
 17 18  1  0
 18 19  2  0
 19 20  1  0
 20 21  2  0
 21 22  1  0
 22 23  1  0
 22 24  1  0
 22 25  1  0
 21 26  1  0
 26 27  2  0
 15 28  1  0
 28 29  1  0
 29 30  2  0
 30 31  1  0
 31 32  2  0
 32 33  1  0
 33 34  1  0
 32 35  1  0
 35 36  2  0
  7 37  1  0
 37 38  2  0
 38  4  1  0
 28 12  1  0
 36 29  1  0
 27 18  1  0
M  END
>  <Binding energies>  (72) 
[-7.92]

>  <Ligand effiencies>  (72) 
[-0.20307692307692307]

>  <Interactions>  (72) 
["V-A:GLU:543:C:4899, V-A:LEU:475:CD1:4254, V-A:GLU:543:CD:4905, V-B:TYR:539:CE2:9845, V-B:ALA:541:CB:9861, V-B:PRO:540:CA:9852, V-B:GLU:543:CD:9877, V-A:GLU:543:CB:4903, V-B:TYR:539:CZ:9846, V-A:HIS:456:CD2:4064, V-B:TYR:539:CD2:9843, V-B:TYR:539:CE1:9844, V-A:HIS:456:CE1:4066, V-B:HIS:456:CD2:9036, V-B:HIS:456:CE1:9038, V-B:LYS:547:CE:9919, H-A:TYR:484:OH:4344, V-B:TYR:539:C:9836, V-A:GLY:544:C:4909, H-A:LYS:547:NZ:4948, V-B:TYR:539:CD1:9842, V-B:PRO:540:N:9853, V-B:TYR:539:CG:9841, H-A:GLY:454:N:4046, V-B:LEU:475:CD2:9227, H-B:ALA:541:N:9860, V-A:GLU:543:CG:4904, V-A:ALA:541:CB:4889, H-B:TYR:484:OH:9316, V-A:TYR:539:C:4864, V-A:PRO:540:C:4878, V-A:TYR:539:CD2:4871, V-A:TYR:539:CE2:4873, V-B:TYR:484:CZ:9315, V-B:TYR:484:CE1:9313, V-A:ALA:541:CA:4887"]

$$$$
RR19_Rahimova_2017
     RDKit          3D

 46 51  0  0  0  0  0  0  0  0999 V2000
  132.4090  122.6640   64.1270 O   0  0  0  0  0  0  0  0  0  0  0  0
  131.3960  123.3350   63.9110 C   0  0  0  0  0  0  0  0  0  0  0  0
  131.0400  124.4730   64.5610 N   0  0  0  0  0  0  0  0  0  0  0  0
  131.7100  125.3090   65.4200 C   0  0  0  0  0  0  0  0  0  0  0  0
  133.3710  125.2640   65.7430 S   0  0  0  0  0  0  0  0  0  0  0  0
  130.8100  126.1860   65.9710 N   0  0  0  0  0  0  0  0  0  0  0  0
  130.9510  127.2860   66.7530 C   0  0  0  0  0  0  0  0  0  0  0  0
  132.0070  127.8700   67.0110 O   0  0  0  0  0  0  0  0  0  0  0  0
  129.6230  127.7940   67.3690 C   0  0  2  0  0  0  0  0  0  0  0  0
  128.8460  126.7380   68.2070 C   0  0  0  0  0  0  0  0  0  0  0  0
  128.9510  126.9030   69.7140 C   0  0  0  0  0  0  0  0  0  0  0  0
  129.9770  127.6850   70.2880 C   0  0  0  0  0  0  0  0  0  0  0  0
  130.0100  127.8890   71.6600 C   0  0  0  0  0  0  0  0  0  0  0  0
  129.0260  127.3400   72.4740 C   0  0  0  0  0  0  0  0  0  0  0  0
  127.9940  126.5940   71.9210 C   0  0  0  0  0  0  0  0  0  0  0  0
  127.9410  126.3800   70.5500 C   0  0  0  0  0  0  0  0  0  0  0  0
  128.7530  128.4210   66.3360 N   0  0  0  0  0  0  0  0  0  0  0  0
  128.3760  127.7380   65.2180 C   0  0  0  0  0  0  0  0  0  0  0  0
  128.6970  126.5910   64.8990 O   0  0  0  0  0  0  0  0  0  0  0  0
  127.4920  128.6630   64.4670 C   0  0  0  0  0  0  0  0  0  0  0  0
  126.8220  128.5060   63.2530 C   0  0  0  0  0  0  0  0  0  0  0  0
  126.0370  129.5620   62.7790 C   0  0  0  0  0  0  0  0  0  0  0  0
  125.9310  130.7500   63.5160 C   0  0  0  0  0  0  0  0  0  0  0  0
  126.6100  130.8870   64.7320 C   0  0  0  0  0  0  0  0  0  0  0  0
  127.3880  129.8230   65.1870 C   0  0  0  0  0  0  0  0  0  0  0  0
  128.2020  129.6690   66.4180 C   0  0  0  0  0  0  0  0  0  0  0  0
  128.3410  130.4920   67.3250 O   0  0  0  0  0  0  0  0  0  0  0  0
  130.3930  122.8790   62.8180 C   0  0  2  0  0  0  0  0  0  0  0  0
  131.0000  121.8920   61.7790 C   0  0  0  0  0  0  0  0  0  0  0  0
  132.3110  122.3620   61.1760 C   0  0  0  0  0  0  0  0  0  0  0  0
  132.3230  123.4280   60.2500 C   0  0  0  0  0  0  0  0  0  0  0  0
  133.5330  123.9240   59.7780 C   0  0  0  0  0  0  0  0  0  0  0  0
  134.7320  123.3930   60.2330 C   0  0  0  0  0  0  0  0  0  0  0  0
  134.7370  122.3710   61.1730 C   0  0  0  0  0  0  0  0  0  0  0  0
  133.5390  121.8600   61.6570 C   0  0  0  0  0  0  0  0  0  0  0  0
  129.6900  124.0110   62.1510 N   0  0  0  0  0  0  0  0  0  0  0  0
  128.4310  123.8750   61.6470 C   0  0  0  0  0  0  0  0  0  0  0  0
  127.7330  122.8610   61.6460 O   0  0  0  0  0  0  0  0  0  0  0  0
  128.0810  125.2090   61.0990 C   0  0  0  0  0  0  0  0  0  0  0  0
  126.9260  125.6600   60.4580 C   0  0  0  0  0  0  0  0  0  0  0  0
  126.8690  126.9950   60.0420 C   0  0  0  0  0  0  0  0  0  0  0  0
  127.9520  127.8540   60.2710 C   0  0  0  0  0  0  0  0  0  0  0  0
  129.1010  127.3830   60.9170 C   0  0  0  0  0  0  0  0  0  0  0  0
  129.1390  126.0470   61.3230 C   0  0  0  0  0  0  0  0  0  0  0  0
  130.1940  125.2730   62.0190 C   0  0  0  0  0  0  0  0  0  0  0  0
  131.2920  125.6830   62.3990 O   0  0  0  0  0  0  0  0  0  0  0  0
  1  2  2  0
  2  3  1  0
  3  4  1  0
  4  5  2  0
  4  6  1  0
  6  7  1  0
  7  8  2  0
  7  9  1  0
  9 10  1  6
 10 11  1  0
 11 12  2  0
 12 13  1  0
 13 14  2  0
 14 15  1  0
 15 16  2  0
  9 17  1  0
 17 18  1  0
 18 19  2  0
 18 20  1  0
 20 21  2  0
 21 22  1  0
 22 23  2  0
 23 24  1  0
 24 25  2  0
 25 26  1  0
 26 27  2  0
  2 28  1  0
 28 29  1  6
 29 30  1  0
 30 31  2  0
 31 32  1  0
 32 33  2  0
 33 34  1  0
 34 35  2  0
 28 36  1  0
 36 37  1  0
 37 38  2  0
 37 39  1  0
 39 40  2  0
 40 41  1  0
 41 42  2  0
 42 43  1  0
 43 44  2  0
 44 45  1  0
 45 46  2  0
 16 11  1  0
 26 17  1  0
 35 30  1  0
 45 36  1  0
 25 20  1  0
 44 39  1  0
M  END
>  <Binding energies>  (73) 
[-10.59]

>  <Ligand effiencies>  (73) 
[-0.220625]

>  <Interactions>  (73) 
["V-A:ILE:369:CG1:3234, V-A:ILE:369:CG2:3233, V-A:LEU:475:CD1:4254, V-A:GLU:543:CD:4905, V-B:TYR:539:CE2:9845, V-B:ALA:541:CB:9861, V-B:GLU:543:CD:9877, V-A:GLU:543:CB:4903, V-B:TYR:539:CZ:9846, V-A:HIS:456:CE1:4066, V-B:HIS:456:CD2:9036, V-A:ARG:545:CZ:4923, V-B:GLY:544:C:9881, V-B:HIS:456:CE1:9038, V-A:ASP:366:CG:3209, V-A:ASP:366:CA:3206, V-B:LYS:547:CE:9919, V-A:ASP:366:CB:3208, V-A:ILE:369:CB:3232, H-A:TYR:484:OH:4344, V-A:GLY:453:C:4038, V-A:GLY:454:CA:4045, H-A:ARG:545:NH2:4925, H-A:ARG:545:NE:4921, V-A:ARG:545:CG:4919, V-A:ARG:545:CD:4920, H-A:GLY:454:N:4046, H-B:ALA:541:N:9860, V-A:GLU:543:CG:4904, H-B:TYR:484:OH:9316"]

$$$$
RR1_Rahimova_2017
     RDKit          3D

 41 44  0  0  0  0  0  0  0  0999 V2000
  126.3010  122.4380   56.4310 C   0  0  0  0  0  0  0  0  0  0  0  0
  127.6570  122.1160   56.7200 O   0  0  0  0  0  0  0  0  0  0  0  0
  128.2460  122.6380   57.8550 C   0  0  0  0  0  0  0  0  0  0  0  0
  129.1500  123.7120   57.8550 C   0  0  0  0  0  0  0  0  0  0  0  0
  129.7010  124.1650   59.0500 C   0  0  0  0  0  0  0  0  0  0  0  0
  129.3560  123.5630   60.2600 C   0  0  0  0  0  0  0  0  0  0  0  0
  130.0010  124.0620   61.4080 N   0  0  0  0  0  0  0  0  0  0  0  0
  131.2790  124.4690   61.5620 C   0  0  0  0  0  0  0  0  0  0  0  0
  132.1470  124.3980   60.6920 O   0  0  0  0  0  0  0  0  0  0  0  0
  131.6040  125.0440   62.9500 C   0  0  0  0  0  0  0  0  0  0  0  0
  130.1930  125.7880   63.8400 S   0  0  0  0  0  0  0  0  0  0  0  0
  129.8770  127.1140   62.7240 C   0  0  0  0  0  0  0  0  0  0  0  0
  130.6530  127.4310   61.7190 N   0  0  0  0  0  0  0  0  0  0  0  0
  130.0340  128.4610   61.1520 C   0  0  0  0  0  0  0  0  0  0  0  0
  130.5730  129.1500   59.9300 C   0  0  0  0  0  0  0  0  0  0  0  0
  130.5590  128.5290   58.6710 C   0  0  0  0  0  0  0  0  0  0  0  0
  131.0700  129.1920   57.5540 C   0  0  0  0  0  0  0  0  0  0  0  0
  131.5880  130.4750   57.7220 C   0  0  0  0  0  0  0  0  0  0  0  0
  131.6180  131.1040   58.9240 N   0  0  0  0  0  0  0  0  0  0  0  0
  131.1160  130.4430   59.9970 C   0  0  0  0  0  0  0  0  0  0  0  0
  128.9100  128.8360   61.7330 N   0  0  0  0  0  0  0  0  0  0  0  0
  128.8070  127.9710   62.7460 N   0  0  0  0  0  0  0  0  0  0  0  0
  127.6600  128.0210   63.6530 C   0  0  0  0  0  0  0  0  0  0  0  0
  128.0010  128.3530   65.1160 C   0  0  0  0  0  0  0  0  0  0  0  0
  127.8950  129.5080   65.5440 O   0  0  0  0  0  0  0  0  0  0  0  0
  128.4140  127.3050   65.8550 N   0  0  0  0  0  0  0  0  0  0  0  0
  128.5980  127.4980   67.2170 N   0  0  0  0  0  0  0  0  0  0  0  0
  128.8320  126.4090   67.9820 C   0  0  0  0  0  0  0  0  0  0  0  0
  128.9940  125.2700   67.5330 O   0  0  0  0  0  0  0  0  0  0  0  0
  128.9170  126.6620   69.4730 C   0  0  0  0  0  0  0  0  0  0  0  0
  128.2060  125.8470   70.3610 C   0  0  0  0  0  0  0  0  0  0  0  0
  128.2600  126.0690   71.7330 C   0  0  0  0  0  0  0  0  0  0  0  0
  129.0250  127.1210   72.2610 C   0  0  0  0  0  0  0  0  0  0  0  0
  129.1110  127.4040   73.6130 O   0  0  0  0  0  0  0  0  0  0  0  0
  127.9310  127.7320   74.3370 C   0  0  0  0  0  0  0  0  0  0  0  0
  129.7390  127.9530   71.3880 C   0  0  0  0  0  0  0  0  0  0  0  0
  130.4620  128.9880   71.9570 O   0  0  0  0  0  0  0  0  0  0  0  0
  129.7730  130.0840   72.5490 C   0  0  0  0  0  0  0  0  0  0  0  0
  129.6810  127.7140   70.0030 C   0  0  0  0  0  0  0  0  0  0  0  0
  128.4520  122.4890   60.2650 C   0  0  0  0  0  0  0  0  0  0  0  0
  127.9030  122.0390   59.0680 C   0  0  0  0  0  0  0  0  0  0  0  0
  1  2  1  0
  2  3  1  0
  3  4  2  0
  4  5  1  0
  5  6  2  0
  6  7  1  0
  7  8  1  0
  8  9  2  0
  8 10  1  0
 10 11  1  0
 11 12  1  0
 12 13  2  0
 13 14  1  0
 14 15  1  0
 15 16  2  0
 16 17  1  0
 17 18  2  0
 18 19  1  0
 19 20  2  0
 14 21  2  0
 21 22  1  0
 22 23  1  0
 23 24  1  0
 24 25  2  0
 24 26  1  0
 26 27  1  0
 27 28  1  0
 28 29  2  0
 28 30  1  0
 30 31  2  0
 31 32  1  0
 32 33  2  0
 33 34  1  0
 34 35  1  0
 33 36  1  0
 36 37  1  0
 37 38  1  0
 36 39  2  0
  6 40  1  0
 40 41  2  0
 41  3  1  0
 22 12  1  0
 39 30  1  0
 20 15  1  0
M  END
>  <Binding energies>  (74) 
[-7.49]

>  <Ligand effiencies>  (74) 
[-0.17022727272727273]

>  <Interactions>  (74) 
["V-A:GLU:543:C:4899, V-A:GLU:543:CD:4905, V-B:TYR:539:CE2:9845, V-B:ALA:541:CB:9861, V-B:PRO:540:CA:9852, V-B:GLU:543:C:9871, V-B:GLU:543:CD:9877, H-B:TYR:539:N:9839, V-B:TYR:539:CZ:9846, V-B:TYR:539:CD2:9843, V-B:TYR:539:CE1:9844, V-B:HIS:456:CD2:9036, V-B:GLY:544:C:9881, V-B:HIS:456:CE1:9038, V-B:LYS:547:CE:9919, V-B:GLU:543:CB:9875, V-B:TYR:539:C:9836, V-A:LYS:547:CE:4947, H-A:ARG:545:NH2:4925, V-A:GLY:544:CA:4911, H-B:GLU:543:OE2:9879, H-A:LYS:547:NZ:4948, H-B:GLU:543:OE1:9878, V-B:TYR:539:CD1:9842, V-B:PRO:540:N:9853, V-B:TYR:539:CG:9841, H-B:HIS:456:NE2:9039, V-B:PRO:540:CD:9856, V-B:ILE:538:CB:9831"]

$$$$
RR22_Rahimova_2017
     RDKit          3D

 31 36  0  0  0  0  0  0  0  0999 V2000
  130.8790  128.6480   56.7780 O   0  0  0  0  0  0  0  0  0  0  0  0
  130.6020  127.6200   57.3920 C   0  0  0  0  0  0  0  0  0  0  0  0
  131.3620  126.9820   58.3560 N   0  0  0  0  0  0  0  0  0  0  0  0
  130.8640  125.8180   59.0240 C   0  0  1  0  0  0  0  0  0  0  0  0
  131.8580  124.8110   58.8120 O   0  0  0  0  0  0  0  0  0  0  0  0
  132.4700  124.2390   59.9280 C   0  0  0  0  0  0  0  0  0  0  0  0
  133.6630  123.5530   59.7000 C   0  0  0  0  0  0  0  0  0  0  0  0
  134.3130  122.9210   60.7600 C   0  0  0  0  0  0  0  0  0  0  0  0
  133.7660  122.9680   62.0420 C   0  0  0  0  0  0  0  0  0  0  0  0
  132.5720  123.6540   62.2710 C   0  0  0  0  0  0  0  0  0  0  0  0
  131.9220  124.3140   61.2230 C   0  0  0  0  0  0  0  0  0  0  0  0
  130.6060  125.0450   61.3570 C   0  0  1  0  0  0  0  0  0  0  0  0
  130.1970  125.7600   62.6290 C   0  0  0  0  0  0  0  0  0  0  0  0
  129.3280  126.8730   62.0370 C   0  0  0  0  0  0  0  0  0  0  0  0
  128.3590  127.6420   62.8420 C   0  0  0  0  0  0  0  0  0  0  0  0
  127.2310  128.2200   62.2400 C   0  0  0  0  0  0  0  0  0  0  0  0
  126.3190  128.9430   63.0030 C   0  0  0  0  0  0  0  0  0  0  0  0
  126.5280  129.0940   64.3710 C   0  0  0  0  0  0  0  0  0  0  0  0
  127.6420  128.5270   64.9840 C   0  0  0  0  0  0  0  0  0  0  0  0
  128.5550  127.8020   64.2220 C   0  0  0  0  0  0  0  0  0  0  0  0
  129.5810  127.0440   60.7940 N   0  0  0  0  0  0  0  0  0  0  0  0
  130.5930  126.1390   60.4330 N   0  0  0  0  0  0  0  0  0  0  0  0
  129.6180  125.3820   58.2670 C   0  0  0  0  0  0  0  0  0  0  0  0
  129.0760  124.1480   58.3880 C   0  0  0  0  0  0  0  0  0  0  0  0
  127.8700  123.6040   57.7340 C   0  0  0  0  0  0  0  0  0  0  0  0
  126.6170  124.2320   57.7910 C   0  0  0  0  0  0  0  0  0  0  0  0
  125.5200  123.6590   57.1480 C   0  0  0  0  0  0  0  0  0  0  0  0
  125.7030  122.4580   56.4620 C   0  0  0  0  0  0  0  0  0  0  0  0
  126.9000  121.8240   56.3970 N   0  0  0  0  0  0  0  0  0  0  0  0
  127.9570  122.3980   57.0280 C   0  0  0  0  0  0  0  0  0  0  0  0
  129.0740  126.6600   57.1690 S   0  0  0  0  0  0  0  0  0  0  0  0
  1  2  2  0
  2  3  1  0
  4  3  1  6
  4  5  1  0
  5  6  1  0
  6  7  2  0
  7  8  1  0
  8  9  2  0
  9 10  1  0
 10 11  2  0
 11 12  1  0
 12 13  1  1
 13 14  1  0
 14 15  1  0
 15 16  2  0
 16 17  1  0
 17 18  2  0
 18 19  1  0
 19 20  2  0
 14 21  2  0
 21 22  1  0
  4 23  1  0
 23 24  2  0
 24 25  1  0
 25 26  2  0
 26 27  1  0
 27 28  2  0
 28 29  1  0
 29 30  2  0
 23 31  1  0
 31  2  1  0
 22  4  1  0
 30 25  1  0
 11  6  1  0
 22 12  1  0
 20 15  1  0
M  END
>  <Binding energies>  (75) 
[-8.46]

>  <Ligand effiencies>  (75) 
[-0.264375]

>  <Interactions>  (75) 
["V-A:ILE:369:CG1:3234, V-A:ILE:369:CG2:3233, V-A:GLU:543:CD:4905, V-B:TYR:539:CE2:9845, V-B:PRO:540:CA:9852, V-B:GLU:543:CD:9877, H-B:TYR:539:N:9839, V-B:TYR:539:CZ:9846, V-B:TYR:539:CE1:9844, V-A:ASP:366:CG:3209, V-A:ASP:366:CA:3206, V-A:ASP:366:CB:3208, V-A:ILE:369:CB:3232, V-B:TYR:539:C:9836, H-B:TYR:539:OH:9847, V-A:GLY:454:CA:4045, V-B:TYR:539:CD1:9842, V-B:PRO:540:N:9853, V-B:TYR:539:CG:9841, H-A:ASP:366:OD2:3211, V-B:PRO:540:CB:9854, H-A:ASP:366:OD1:3210, H-A:TYR:531:OH:4792, V-B:PRO:540:CD:9856, V-B:ILE:538:CB:9831, V-B:LEU:363:CD1:8157"]

$$$$
RR24_Rahimova_2017
     RDKit          3D

 43 49  0  0  0  0  0  0  0  0999 V2000
  127.1380  132.9570   60.2010 C   0  0  0  0  0  0  0  0  0  0  0  0
  127.6100  131.7810   59.3330 C   0  0  2  0  0  0  0  0  0  0  0  0
  126.8050  130.4720   59.5830 C   0  0  0  0  0  0  0  0  0  0  0  0
  126.4680  129.7230   58.6600 O   0  0  0  0  0  0  0  0  0  0  0  0
  126.5100  130.2830   60.9020 O   0  0  0  0  0  0  0  0  0  0  0  0
  127.1910  129.3270   61.6220 C   0  0  0  0  0  0  0  0  0  0  0  0
  127.4510  128.0870   61.0360 C   0  0  0  0  0  0  0  0  0  0  0  0
  128.1470  127.1160   61.7500 C   0  0  0  0  0  0  0  0  0  0  0  0
  128.5930  127.3830   63.0480 C   0  0  0  0  0  0  0  0  0  0  0  0
  129.3420  126.3020   63.8360 C   0  0  1  0  0  0  0  0  0  0  0  0
  130.4010  125.5830   62.9680 C   0  0  0  0  0  0  0  0  0  0  0  0
  131.6800  125.4310   63.3570 C   0  0  0  0  0  0  0  0  0  0  0  0
  132.1410  125.9070   64.5600 N   0  0  0  0  0  0  0  0  0  0  0  0
  131.3100  126.5700   65.4320 C   0  0  0  0  0  0  0  0  0  0  0  0
  131.9180  126.9690   66.5790 N   0  0  0  0  0  0  0  0  0  0  0  0
  131.2750  127.7070   67.5250 C   0  0  0  0  0  0  0  0  0  0  0  0
  131.9370  128.3050   68.3750 O   0  0  0  0  0  0  0  0  0  0  0  0
  129.9110  127.8330   67.3130 N   0  0  0  0  0  0  0  0  0  0  0  0
  129.1500  128.5480   68.3580 C   0  0  0  0  0  0  0  0  0  0  0  0
  129.1940  127.4670   66.1870 C   0  0  0  0  0  0  0  0  0  0  0  0
  127.9820  127.6580   66.0450 O   0  0  0  0  0  0  0  0  0  0  0  0
  129.9990  126.7980   65.1590 C   0  0  0  0  0  0  0  0  0  0  0  0
  132.4470  124.7210   62.3480 C   0  0  0  0  0  0  0  0  0  0  0  0
  133.7840  124.3270   62.2710 C   0  0  0  0  0  0  0  0  0  0  0  0
  134.2280  123.6410   61.1370 C   0  0  0  0  0  0  0  0  0  0  0  0
  133.3410  123.3540   60.0950 C   0  0  0  0  0  0  0  0  0  0  0  0
  132.0040  123.7510   60.1780 C   0  0  0  0  0  0  0  0  0  0  0  0
  131.5660  124.4370   61.3130 C   0  0  0  0  0  0  0  0  0  0  0  0
  130.2290  124.9630   61.6590 C   0  0  0  0  0  0  0  0  0  0  0  0
  129.1760  124.9170   61.0240 O   0  0  0  0  0  0  0  0  0  0  0  0
  128.3460  128.6330   63.6250 C   0  0  0  0  0  0  0  0  0  0  0  0
  127.6520  129.6050   62.9110 C   0  0  0  0  0  0  0  0  0  0  0  0
  129.0850  131.5690   59.4300 N   0  0  0  0  0  0  0  0  0  0  0  0
  129.8150  131.1410   58.3630 C   0  0  0  0  0  0  0  0  0  0  0  0
  129.4020  130.8720   57.2330 O   0  0  0  0  0  0  0  0  0  0  0  0
  131.2160  131.0660   58.8470 C   0  0  0  0  0  0  0  0  0  0  0  0
  132.3890  130.6880   58.1930 C   0  0  0  0  0  0  0  0  0  0  0  0
  133.5920  130.7150   58.9090 C   0  0  0  0  0  0  0  0  0  0  0  0
  133.6070  131.1160   60.2500 C   0  0  0  0  0  0  0  0  0  0  0  0
  132.4200  131.4920   60.8880 C   0  0  0  0  0  0  0  0  0  0  0  0
  131.2300  131.4570   60.1590 C   0  0  0  0  0  0  0  0  0  0  0  0
  129.8390  131.7930   60.5500 C   0  0  0  0  0  0  0  0  0  0  0  0
  129.4490  132.1930   61.6470 O   0  0  0  0  0  0  0  0  0  0  0  0
  2  1  1  1
  2  3  1  0
  3  4  2  0
  3  5  1  0
  5  6  1  0
  6  7  2  0
  7  8  1  0
  8  9  2  0
 10  9  1  6
 10 11  1  0
 11 12  2  0
 12 13  1  0
 13 14  1  0
 14 15  1  0
 15 16  1  0
 16 17  2  0
 16 18  1  0
 18 19  1  0
 18 20  1  0
 20 21  2  0
 20 22  1  0
 12 23  1  0
 23 24  2  0
 24 25  1  0
 25 26  2  0
 26 27  1  0
 27 28  2  0
 28 29  1  0
 29 30  2  0
  9 31  1  0
 31 32  2  0
  2 33  1  0
 33 34  1  0
 34 35  2  0
 34 36  1  0
 36 37  2  0
 37 38  1  0
 38 39  2  0
 39 40  1  0
 40 41  2  0
 41 42  1  0
 42 43  2  0
 32  6  1  0
 42 33  1  0
 22 10  1  0
 28 23  1  0
 41 36  1  0
 29 11  1  0
 22 14  2  0
M  END
>  <Binding energies>  (76) 
[-8.84]

>  <Ligand effiencies>  (76) 
[-0.19644444444444445]

>  <Interactions>  (76) 
["V-A:GLU:543:C:4899, V-A:ILE:369:CG2:3233, V-A:GLU:543:CD:4905, V-B:TYR:539:CE2:9845, V-B:GLU:543:CD:9877, V-A:GLU:543:CB:4903, V-B:TYR:539:CZ:9846, V-A:HIS:456:CE1:4066, V-B:HIS:456:CD2:9036, V-A:ARG:545:CZ:4923, V-B:HIS:456:CE1:9038, V-A:ASP:366:CG:3209, V-A:ARG:545:CG:4919, V-A:ARG:545:CD:4920, H-A:GLU:543:OE1:4906, H-A:ARG:545:N:4917, V-A:PRO:540:CA:4880, H-A:ALA:541:N:4888, V-A:ASN:362:C:3168, V-A:PRO:540:CB:4882, V-A:LEU:363:CA:3181, V-A:ASN:362:CA:3170, V-A:ASN:362:CB:3172, H-A:HIS:456:NE2:4067, V-A:TYR:539:CD2:4871, V-A:LEU:363:CB:3183"]

$$$$
RR25_Rahimova_2017
     RDKit          3D

 39 44  0  0  0  0  0  0  0  0999 V2000
  129.2270  124.3380   65.1730 O   0  0  0  0  0  0  0  0  0  0  0  0
  129.5830  125.1660   66.0120 C   0  0  0  0  0  0  0  0  0  0  0  0
  128.6990  125.4140   67.0330 O   0  0  0  0  0  0  0  0  0  0  0  0
  129.0760  126.1240   68.1580 C   0  0  0  0  0  0  0  0  0  0  0  0
  128.3650  125.8680   69.3290 C   0  0  0  0  0  0  0  0  0  0  0  0
  128.6860  126.5540   70.4980 C   0  0  0  0  0  0  0  0  0  0  0  0
  129.7170  127.5050   70.5130 C   0  0  0  0  0  0  0  0  0  0  0  0
  130.0630  128.2290   71.7620 N   0  0  0  0  0  0  0  0  0  0  0  0
  130.9530  129.0750   71.7230 O   0  0  0  0  0  0  0  0  0  0  0  0
  129.4480  127.9550   72.7880 O   0  0  0  0  0  0  0  0  0  0  0  0
  130.4130  127.7570   69.3200 C   0  0  0  0  0  0  0  0  0  0  0  0
  130.0980  127.0840   68.1370 C   0  0  0  0  0  0  0  0  0  0  0  0
  130.8280  127.3120   66.8260 C   0  0  0  0  0  0  0  0  0  0  0  0
  130.9120  125.9770   66.0330 C   0  0  2  0  0  0  0  0  0  0  0  0
  131.5670  126.1930   64.6380 C   0  0  0  0  0  0  0  0  0  0  0  0
  132.7640  125.9080   64.5510 O   0  0  0  0  0  0  0  0  0  0  0  0
  130.8370  126.5540   63.5400 N   0  0  0  0  0  0  0  0  0  0  0  0
  129.5090  127.1950   63.6360 C   0  0  0  0  0  0  0  0  0  0  0  0
  128.6150  126.6720   62.4920 C   0  0  0  0  0  0  0  0  0  0  0  0
  129.2480  126.8700   61.1850 N   0  0  0  0  0  0  0  0  0  0  0  0
  128.3460  126.4960   60.0870 C   0  0  0  0  0  0  0  0  0  0  0  0
  129.0580  126.4550   58.7090 C   0  0  0  0  0  0  0  0  0  0  0  0
  129.5850  127.7560   58.2040 N   0  0  0  0  0  0  0  0  0  0  0  0
  128.6340  128.7290   57.9790 C   0  0  0  0  0  0  0  0  0  0  0  0
  127.4230  128.5420   58.1440 O   0  0  0  0  0  0  0  0  0  0  0  0
  129.1920  130.0650   57.5290 C   0  0  0  0  0  0  0  0  0  0  0  0
  128.3160  131.1330   57.2970 C   0  0  0  0  0  0  0  0  0  0  0  0
  128.7950  132.3770   56.8900 C   0  0  0  0  0  0  0  0  0  0  0  0
  130.1590  132.5950   56.7060 C   0  0  0  0  0  0  0  0  0  0  0  0
  131.0830  131.5450   56.9280 C   0  0  0  0  0  0  0  0  0  0  0  0
  132.4800  131.6970   56.7620 C   0  0  0  0  0  0  0  0  0  0  0  0
  133.3340  130.6220   57.0010 C   0  0  0  0  0  0  0  0  0  0  0  0
  132.8330  129.3860   57.4040 C   0  0  0  0  0  0  0  0  0  0  0  0
  131.4570  129.1890   57.5820 C   0  0  0  0  0  0  0  0  0  0  0  0
  130.5820  130.2790   57.3420 C   0  0  0  0  0  0  0  0  0  0  0  0
  130.9520  127.8310   58.0310 C   0  0  0  0  0  0  0  0  0  0  0  0
  131.7170  126.8820   58.2360 O   0  0  0  0  0  0  0  0  0  0  0  0
  130.5080  126.1270   61.1260 C   0  0  0  0  0  0  0  0  0  0  0  0
  131.5000  126.5970   62.2160 C   0  0  0  0  0  0  0  0  0  0  0  0
  1  2  2  0
  2  3  1  0
  3  4  1  0
  4  5  2  0
  5  6  1  0
  6  7  2  0
  7  8  1  0
  8  9  2  0
  8 10  1  0
  7 11  1  0
 11 12  2  0
 12 13  1  0
 13 14  1  0
 14 15  1  6
 15 16  2  0
 15 17  1  0
 17 18  1  0
 18 19  1  0
 19 20  1  0
 20 21  1  0
 21 22  1  0
 22 23  1  0
 23 24  1  0
 24 25  2  0
 24 26  1  0
 26 27  2  0
 27 28  1  0
 28 29  2  0
 29 30  1  0
 30 31  2  0
 31 32  1  0
 32 33  2  0
 33 34  1  0
 34 35  2  0
 34 36  1  0
 36 37  2  0
 20 38  1  0
 38 39  1  0
 14  2  1  0
 39 17  1  0
 12  4  1  0
 36 23  1  0
 35 26  1  0
 35 30  1  0
M  CHG  2   8   1  10  -1
M  END
>  <Binding energies>  (77) 
[-8.75]

>  <Ligand effiencies>  (77) 
[-0.22435897435897437]

>  <Interactions>  (77) 
["V-A:GLU:543:C:4899, V-A:GLU:543:CD:4905, V-B:GLU:543:C:9871, V-B:GLU:543:CD:9877, V-A:GLU:543:CB:4903, V-A:HIS:456:CE1:4066, V-A:ARG:545:CZ:4923, V-B:GLU:543:CG:9876, V-A:ASP:366:CG:3209, V-A:ASP:366:CB:3208, V-B:GLU:543:CB:9875, H-A:ARG:545:NH2:4925, H-A:ARG:545:NE:4921, H-A:LYS:547:NZ:4948, V-A:PRO:540:CA:4880, V-A:PRO:540:CB:4882, V-A:LEU:363:CA:3181, V-A:TYR:539:C:4864, V-A:PRO:540:N:4881, V-A:TYR:539:CD2:4871, V-A:TYR:539:CE2:4873, V-A:LEU:363:CD1:3185, V-A:TYR:531:CZ:4791, V-A:TYR:539:CA:4866"]

$$$$
RR27_Rahimova_2017
     RDKit          3D

 39 44  0  0  0  0  0  0  0  0999 V2000
  128.6610  123.1530   62.0190 O   0  0  0  0  0  0  0  0  0  0  0  0
  129.6350  123.9100   62.0620 C   0  0  0  0  0  0  0  0  0  0  0  0
  130.7900  123.5720   63.0490 C   0  0  0  0  0  0  0  0  0  0  0  0
  130.9860  124.6410   64.1400 C   0  0  0  0  0  0  0  0  0  0  0  0
  132.2620  125.0270   64.5800 C   0  0  0  0  0  0  0  0  0  0  0  0
  132.4020  125.9980   65.5660 C   0  0  0  0  0  0  0  0  0  0  0  0
  131.2690  126.5890   66.1180 C   0  0  0  0  0  0  0  0  0  0  0  0
  129.9970  126.2150   65.6950 C   0  0  0  0  0  0  0  0  0  0  0  0
  129.8560  125.2440   64.7080 C   0  0  0  0  0  0  0  0  0  0  0  0
  132.0760  123.1610   62.3060 C   0  0  0  0  0  0  0  0  0  0  0  0
  133.0320  124.1050   61.9080 C   0  0  0  0  0  0  0  0  0  0  0  0
  134.1770  123.7000   61.2280 C   0  0  0  0  0  0  0  0  0  0  0  0
  134.3680  122.3520   60.9380 C   0  0  0  0  0  0  0  0  0  0  0  0
  133.4210  121.4040   61.3170 C   0  0  0  0  0  0  0  0  0  0  0  0
  132.2770  121.8100   61.9960 C   0  0  0  0  0  0  0  0  0  0  0  0
  129.7860  124.9320   61.1720 N   0  0  0  0  0  0  0  0  0  0  0  0
  130.7790  126.0050   61.3310 C   0  0  0  0  0  0  0  0  0  0  0  0
  130.1160  127.1040   62.1910 C   0  0  0  0  0  0  0  0  0  0  0  0
  128.7610  127.6020   61.5940 C   0  0  0  0  0  0  0  0  0  0  0  0
  128.0030  128.6170   62.4700 C   0  0  0  0  0  0  0  0  0  0  0  0
  127.5620  128.1640   63.6800 N   0  0  0  0  0  0  0  0  0  0  0  0
  126.9100  129.0290   64.5050 C   0  0  0  0  0  0  0  0  0  0  0  0
  126.4250  128.6950   65.7420 O   0  0  0  0  0  0  0  0  0  0  0  0
  126.7150  130.3560   64.0750 C   0  0  0  0  0  0  0  0  0  0  0  0
  126.1260  131.4500   64.6370 N   0  0  0  0  0  0  0  0  0  0  0  0
  126.2330  132.4870   63.7280 N   0  0  0  0  0  0  0  0  0  0  0  0
  126.8840  132.0400   62.6330 N   0  0  0  0  0  0  0  0  0  0  0  0
  127.1170  132.9280   61.4960 C   0  0  0  0  0  0  0  0  0  0  0  0
  128.3280  132.5430   60.6570 C   0  0  0  0  0  0  0  0  0  0  0  0
  129.5340  132.2030   61.2770 C   0  0  0  0  0  0  0  0  0  0  0  0
  130.6410  131.8400   60.5080 C   0  0  0  0  0  0  0  0  0  0  0  0
  130.5460  131.8100   59.1170 C   0  0  0  0  0  0  0  0  0  0  0  0
  129.3420  132.1390   58.4930 C   0  0  0  0  0  0  0  0  0  0  0  0
  129.2150  132.0780   56.7720 Cl  0  0  0  0  0  0  0  0  0  0  0  0
  128.2380  132.5100   59.2600 C   0  0  0  0  0  0  0  0  0  0  0  0
  127.2060  130.7040   62.7980 C   0  0  0  0  0  0  0  0  0  0  0  0
  127.8420  129.8740   61.9670 N   0  0  0  0  0  0  0  0  0  0  0  0
  127.8690  126.4180   61.1080 C   0  0  0  0  0  0  0  0  0  0  0  0
  128.6600  125.3430   60.3200 C   0  0  0  0  0  0  0  0  0  0  0  0
  1  2  2  0
  2  3  1  0
  3  4  1  0
  4  5  2  0
  5  6  1  0
  6  7  2  0
  7  8  1  0
  8  9  2  0
  3 10  1  0
 10 11  2  0
 11 12  1  0
 12 13  2  0
 13 14  1  0
 14 15  2  0
  2 16  1  0
 16 17  1  0
 17 18  1  0
 18 19  1  0
 19 20  1  0
 20 21  2  0
 21 22  1  0
 22 23  1  0
 22 24  2  0
 24 25  1  0
 25 26  2  0
 26 27  1  0
 27 28  1  0
 28 29  1  0
 29 30  2  0
 30 31  1  0
 31 32  2  0
 32 33  1  0
 33 34  1  0
 33 35  2  0
 27 36  1  0
 36 37  2  0
 19 38  1  0
 38 39  1  0
  9  4  1  0
 15 10  1  0
 39 16  1  0
 37 20  1  0
 36 24  1  0
 35 29  1  0
M  END
>  <Binding energies>  (78) 
[-8.88]

>  <Ligand effiencies>  (78) 
[-0.22200000000000003]

>  <Interactions>  (78) 
["V-A:ILE:369:CG1:3234, V-A:ILE:369:CG2:3233, V-A:LEU:475:CD1:4254, V-A:GLU:543:CD:4905, V-B:TYR:539:CE2:9845, V-B:GLU:543:CD:9877, V-A:HIS:456:CE1:4066, V-A:ARG:545:CZ:4923, V-B:GLU:543:CG:9876, V-A:ASP:366:CG:3209, V-A:ILE:369:CB:3232, V-A:ARG:545:CG:4919, V-A:ARG:545:CD:4920, H-B:GLU:543:OE1:9878, V-A:PRO:540:CA:4880, V-A:PRO:540:CB:4882, V-A:ALA:541:CB:4889, H-B:TYR:484:OH:9316, V-A:TYR:539:C:4864, V-A:PRO:540:N:4881, V-A:PRO:540:C:4878, V-A:TYR:539:CD2:4871, V-A:ALA:541:CA:4887"]

$$$$
RR28_Rahimova_2017
     RDKit          3D

 46 49  0  0  0  0  0  0  0  0999 V2000
  126.8960  126.2040   69.1320 C   0  0  0  0  0  0  0  0  0  0  0  0
  127.9660  126.9040   68.3030 C   0  0  0  0  0  0  0  0  0  0  0  0
  129.0660  127.1350   68.8010 O   0  0  0  0  0  0  0  0  0  0  0  0
  127.6240  127.2350   67.0410 N   0  0  0  0  0  0  0  0  0  0  0  0
  128.4450  127.9210   66.0190 C   0  0  0  0  0  0  0  0  0  0  0  0
  129.7240  127.0700   65.7710 C   0  0  0  0  0  0  0  0  0  0  0  0
  129.6650  125.9810   64.8870 C   0  0  0  0  0  0  0  0  0  0  0  0
  130.7870  125.1960   64.6440 C   0  0  0  0  0  0  0  0  0  0  0  0
  131.9960  125.4800   65.2810 C   0  0  0  0  0  0  0  0  0  0  0  0
  133.2170  124.6040   65.0050 C   0  0  0  0  0  0  0  0  0  0  0  0
  134.0020  124.4750   66.0770 F   0  0  0  0  0  0  0  0  0  0  0  0
  132.8350  123.3840   64.6260 F   0  0  0  0  0  0  0  0  0  0  0  0
  133.9380  125.1510   64.0250 F   0  0  0  0  0  0  0  0  0  0  0  0
  132.0680  126.5610   66.1640 C   0  0  0  0  0  0  0  0  0  0  0  0
  130.9440  127.3470   66.4060 C   0  0  0  0  0  0  0  0  0  0  0  0
  128.7450  129.4000   66.4560 C   0  0  0  0  0  0  0  0  0  0  0  0
  127.4790  130.2900   66.5180 C   0  0  0  0  0  0  0  0  0  0  0  0
  126.8870  130.2660   65.1700 N   0  0  0  0  0  0  0  0  0  0  0  0
  127.1980  131.2340   64.2660 C   0  0  0  0  0  0  0  0  0  0  0  0
  127.8370  132.2420   64.5790 O   0  0  0  0  0  0  0  0  0  0  0  0
  126.5940  131.1500   62.8430 C   0  0  0  0  0  0  0  0  0  0  0  0
  126.6980  129.7680   62.1420 C   0  0  0  0  0  0  0  0  0  0  0  0
  127.6630  129.7160   60.9340 C   0  0  0  0  0  0  0  0  0  0  0  0
  127.4180  130.4430   59.9660 O   0  0  0  0  0  0  0  0  0  0  0  0
  128.8120  128.9890   61.0170 N   0  0  0  0  0  0  0  0  0  0  0  0
  129.0040  127.8890   61.9700 C   0  0  0  0  0  0  0  0  0  0  0  0
  128.4190  126.6230   61.3060 C   0  0  0  0  0  0  0  0  0  0  0  0
  129.0340  126.2720   59.9060 C   0  0  0  0  0  0  0  0  0  0  0  0
  128.1440  125.3180   59.2110 N   0  0  0  0  0  0  0  0  0  0  0  0
  127.8310  124.0580   59.5730 C   0  0  0  0  0  0  0  0  0  0  0  0
  126.8920  123.3000   58.6400 C   0  0  0  0  0  0  0  0  0  0  0  0
  128.2550  123.5070   60.5880 O   0  0  0  0  0  0  0  0  0  0  0  0
  130.3950  125.5470   60.1620 C   0  0  0  0  0  0  0  0  0  0  0  0
  131.2650  125.1730   59.1230 C   0  0  0  0  0  0  0  0  0  0  0  0
  132.4690  124.5300   59.3940 C   0  0  0  0  0  0  0  0  0  0  0  0
  132.8350  124.2400   60.7100 C   0  0  0  0  0  0  0  0  0  0  0  0
  134.1550  123.5370   61.0240 C   0  0  0  0  0  0  0  0  0  0  0  0
  133.9400  122.2700   61.3820 F   0  0  0  0  0  0  0  0  0  0  0  0
  134.9240  123.5480   59.9360 F   0  0  0  0  0  0  0  0  0  0  0  0
  134.8210  124.1360   62.0130 F   0  0  0  0  0  0  0  0  0  0  0  0
  131.9770  124.5970   61.7520 C   0  0  0  0  0  0  0  0  0  0  0  0
  130.7740  125.2410   61.4780 C   0  0  0  0  0  0  0  0  0  0  0  0
  129.1850  127.5980   59.0640 C   0  0  0  0  0  0  0  0  0  0  0  0
  129.6820  128.8470   59.8420 C   0  0  0  0  0  0  0  0  0  0  0  0
  126.3940  128.9400   64.7740 C   0  0  0  0  0  0  0  0  0  0  0  0
  127.6280  128.0040   64.6880 C   0  0  0  0  0  0  0  0  0  0  0  0
  1  2  1  0
  2  3  2  0
  2  4  1  0
  4  5  1  0
  5  6  1  0
  6  7  2  0
  7  8  1  0
  8  9  2  0
  9 10  1  0
 10 11  1  0
 10 12  1  0
 10 13  1  0
  9 14  1  0
 14 15  2  0
  5 16  1  0
 16 17  1  0
 17 18  1  0
 18 19  1  0
 19 20  2  0
 19 21  1  0
 21 22  1  0
 22 23  1  0
 23 24  2  0
 23 25  1  0
 25 26  1  0
 26 27  1  0
 27 28  1  0
 28 29  1  0
 29 30  1  0
 30 31  1  0
 30 32  2  0
 28 33  1  0
 33 34  2  0
 34 35  1  0
 35 36  2  0
 36 37  1  0
 37 38  1  0
 37 39  1  0
 37 40  1  0
 36 41  1  0
 41 42  2  0
 28 43  1  0
 43 44  1  0
 18 45  1  0
 45 46  1  0
 46  5  1  0
 15  6  1  0
 44 25  1  0
 42 33  1  0
M  END
>  <Binding energies>  (79) 
[-7.25]

>  <Ligand effiencies>  (79) 
[-0.15104166666666666]

>  <Interactions>  (79) 
["V-A:ILE:369:CG1:3234, V-A:ILE:369:CG2:3233, V-A:GLU:543:CD:4905, V-B:GLY:544:CA:9883, V-B:PRO:540:CA:9852, V-B:GLU:543:C:9871, V-B:GLU:543:CD:9877, V-A:GLU:543:CB:4903, V-B:TYR:539:CZ:9846, V-A:HIS:456:CE1:4066, V-A:ARG:545:CZ:4923, V-B:GLU:543:CG:9876, V-B:GLY:544:C:9881, V-B:HIS:456:CE1:9038, V-A:ASP:366:CG:3209, V-A:ASP:366:CA:3206, V-A:ASP:366:CB:3208, V-A:ILE:369:CB:3232, V-B:GLU:543:CB:9875, V-A:GLY:453:C:4038, V-A:GLY:454:CA:4045, V-A:GLY:454:C:4043, V-A:ARG:545:CG:4919, V-A:GLY:453:CA:4040, V-A:ARG:545:CD:4920, V-A:TYR:484:CZ:4343, H-B:GLU:543:OE1:9878, V-A:GLU:543:CG:4904, H-B:TYR:484:OH:9316, V-B:TYR:484:CZ:9315, V-B:TYR:484:CE1:9313, V-A:GLU:543:CA:4901"]

$$$$
RR29_Rahimova_2017
     RDKit          3D

 18 19  0  0  0  0  0  0  0  0999 V2000
  129.1920  125.3920   65.9680 C   0  0  0  0  0  0  0  0  0  0  0  0
  129.1450  126.7570   65.2970 C   0  0  0  0  0  0  0  0  0  0  0  0
  129.2720  127.9260   66.2990 C   0  0  0  0  0  0  0  0  0  0  0  0
  130.2390  127.5860   67.4520 C   0  0  0  0  0  0  0  0  0  0  0  0
  129.5060  127.2960   68.7530 C   0  0  0  0  0  0  0  0  0  0  0  0
  128.2800  126.6020   68.7300 C   0  0  0  0  0  0  0  0  0  0  0  0
  127.5890  126.3230   69.9170 C   0  0  0  0  0  0  0  0  0  0  0  0
  128.1520  126.7660   71.1090 C   0  0  0  0  0  0  0  0  0  0  0  0
  129.3390  127.4420   71.1370 C   0  0  0  0  0  0  0  0  0  0  0  0
  130.0520  127.7240   69.9760 C   0  0  0  0  0  0  0  0  0  0  0  0
  129.6670  127.7220   72.4260 O   0  0  0  0  0  0  0  0  0  0  0  0
  128.5360  127.3860   73.1850 C   0  0  0  0  0  0  0  0  0  0  0  0
  127.6980  126.6010   72.3790 O   0  0  0  0  0  0  0  0  0  0  0  0
  129.0000  126.8110   64.0250 N   0  0  0  0  0  0  0  0  0  0  0  0
  128.8710  128.0450   63.4250 N   0  0  0  0  0  0  0  0  0  0  0  0
  127.8430  128.3920   62.6340 C   0  0  0  0  0  0  0  0  0  0  0  0
  126.8080  127.6030   62.3390 N   0  0  0  0  0  0  0  0  0  0  0  0
  127.8540  129.6070   62.1060 N   0  0  0  0  0  0  0  0  0  0  0  0
  1  2  1  0
  2  3  1  0
  3  4  1  0
  4  5  1  0
  5  6  2  0
  6  7  1  0
  7  8  2  0
  8  9  1  0
  9 10  2  0
  9 11  1  0
 11 12  1  0
 12 13  1  0
  2 14  2  0
 14 15  1  0
 15 16  1  0
 16 17  1  0
 16 18  2  0
 10  5  1  0
 13  8  1  0
M  CHG  1  18   1
M  END
>  <Binding energies>  (80) 
[-7.32]

>  <Ligand effiencies>  (80) 
[-0.31826086956521743]

>  <Interactions>  (80) 
["V-A:GLU:543:CD:4905, V-B:GLU:543:C:9871, V-B:GLU:543:CD:9877, V-A:GLU:543:CB:4903, V-A:HIS:456:CE1:4066, V-B:HIS:456:CD2:9036, V-B:GLU:543:CG:9876, V-B:GLY:544:C:9881, V-B:HIS:456:CE1:9038, V-B:LYS:547:CE:9919, V-B:GLU:543:CB:9875, H-B:GLU:543:OE2:9879, H-A:LYS:547:NZ:4948, H-A:GLU:543:OE1:4906, H-A:GLU:543:OE2:4907, H-B:GLU:543:OE1:9878, H-B:ASP:366:OD1:8182, V-A:GLU:543:CG:4904"]

$$$$
RR30_Rahimova_2017
     RDKit          3D

 18 19  0  0  0  0  0  0  0  0999 V2000
  129.7650  127.1220   71.6900 C   0  0  0  0  0  0  0  0  0  0  0  0
  128.7370  126.0560   71.2840 C   0  0  0  0  0  0  0  0  0  0  0  0
  128.1440  126.3220   69.9180 C   0  0  0  0  0  0  0  0  0  0  0  0
  126.8920  126.2230   69.5450 N   0  0  0  0  0  0  0  0  0  0  0  0
  126.8680  126.5650   68.1950 N   0  0  0  0  0  0  0  0  0  0  0  0
  128.1070  126.8310   67.8670 C   0  0  0  0  0  0  0  0  0  0  0  0
  128.7170  127.3390   66.2910 S   0  0  0  0  0  0  0  0  0  0  0  0
  130.4970  127.0470   66.5370 C   0  0  0  0  0  0  0  0  0  0  0  0
  131.0300  125.9280   65.6380 C   0  0  0  0  0  0  0  0  0  0  0  0
  130.6590  124.7690   65.8360 O   0  0  0  0  0  0  0  0  0  0  0  0
  131.9180  126.3040   64.6900 N   0  0  0  0  0  0  0  0  0  0  0  0
  132.5360  125.4750   63.7660 C   0  0  0  0  0  0  0  0  0  0  0  0
  133.6380  124.7730   63.9110 N   0  0  0  0  0  0  0  0  0  0  0  0
  133.9610  124.0550   62.7670 N   0  0  0  0  0  0  0  0  0  0  0  0
  133.1040  124.2250   61.7860 C   0  0  0  0  0  0  0  0  0  0  0  0
  133.2430  123.5520   60.4400 C   0  0  0  0  0  0  0  0  0  0  0  0
  131.8010  125.3040   62.2020 S   0  0  0  0  0  0  0  0  0  0  0  0
  128.9670  126.7020   68.9090 O   0  0  0  0  0  0  0  0  0  0  0  0
  1  2  1  0
  2  3  1  0
  3  4  2  0
  4  5  1  0
  5  6  2  0
  6  7  1  0
  7  8  1  0
  8  9  1  0
  9 10  2  0
  9 11  1  0
 11 12  1  0
 12 13  2  0
 13 14  1  0
 14 15  2  0
 15 16  1  0
 15 17  1  0
  6 18  1  0
 18  3  1  0
 17 12  1  0
M  END
>  <Binding energies>  (81) 
[-6.01]

>  <Ligand effiencies>  (81) 
[-0.3163157894736842]

>  <Interactions>  (81) 
["V-A:GLU:543:CD:4905, V-B:TYR:539:CE2:9845, V-B:GLU:543:C:9871, V-A:GLU:543:CB:4903, V-A:HIS:456:CD2:4064, V-A:HIS:456:CE1:4066, V-A:ARG:545:CZ:4923, V-B:HIS:456:CE1:9038, V-A:ASP:366:CG:3209, V-B:GLU:543:CB:9875, H-A:TYR:484:OH:4344, H-B:ARG:545:N:9889, H-A:ARG:545:NH2:4925, H-A:GLU:543:OE1:4906, H-A:GLU:543:OE2:4907, H-A:GLY:454:N:4046, H-A:ARG:545:NH1:4924"]

$$$$
RR31_Rahimova_2017
     RDKit          3D

 18 19  0  0  0  0  0  0  0  0999 V2000
  127.8980  127.0940   71.8130 C   0  0  0  0  0  0  0  0  0  0  0  0
  128.4160  126.9640   70.3870 C   0  0  0  0  0  0  0  0  0  0  0  0
  127.6110  126.3560   69.4230 C   0  0  0  0  0  0  0  0  0  0  0  0
  128.0550  126.2250   68.1090 C   0  0  0  0  0  0  0  0  0  0  0  0
  129.3150  126.7040   67.7160 C   0  0  0  0  0  0  0  0  0  0  0  0
  129.7780  126.5700   66.4050 N   0  0  0  0  0  0  0  0  0  0  0  0
  129.0210  127.0940   65.2520 C   0  0  0  0  0  0  0  0  0  0  0  0
  129.4610  126.5070   63.8900 C   0  0  0  0  0  0  0  0  0  0  0  0
  130.8950  126.7120   63.6700 N   0  0  0  0  0  0  0  0  0  0  0  0
  131.3350  126.1970   62.3690 C   0  0  0  0  0  0  0  0  0  0  0  0
  130.2280  126.2400   61.2980 C   0  0  0  0  0  0  0  0  0  0  0  0
  129.9430  127.6700   60.8110 C   0  0  0  0  0  0  0  0  0  0  0  0
  130.9410  128.6470   61.4430 N   0  0  0  0  0  0  0  0  0  0  0  0
  131.6060  126.0170   64.7420 C   0  0  0  0  0  0  0  0  0  0  0  0
  131.2260  126.6010   66.1210 C   0  0  0  0  0  0  0  0  0  0  0  0
  130.1180  127.3040   68.6970 C   0  0  0  0  0  0  0  0  0  0  0  0
  129.6840  127.4420   70.0210 C   0  0  0  0  0  0  0  0  0  0  0  0
  130.6060  128.1000   71.0400 C   0  0  0  0  0  0  0  0  0  0  0  0
  1  2  1  0
  2  3  2  0
  3  4  1  0
  4  5  2  0
  5  6  1  0
  6  7  1  0
  7  8  1  0
  8  9  1  0
  9 10  1  0
 10 11  1  0
 11 12  1  0
 12 13  1  0
  9 14  1  0
 14 15  1  0
  5 16  1  0
 16 17  2  0
 17 18  1  0
 17  2  1  0
 15  6  1  0
M  CHG  1  13   1
M  END
>  <Binding energies>  (82) 
[-6.7]

>  <Ligand effiencies>  (82) 
[-0.3190476190476191]

>  <Interactions>  (82) 
["V-A:GLU:543:C:4899, V-A:GLU:543:CD:4905, V-B:GLU:543:C:9871, V-B:GLU:543:CD:9877, V-A:HIS:456:CE1:4066, V-B:HIS:456:CD2:9036, V-A:ARG:545:CZ:4923, V-B:GLY:544:C:9881, V-B:HIS:456:CE1:9038, V-B:LYS:547:CE:9919, V-B:GLU:543:CB:9875, H-A:ARG:545:NH2:4925, V-A:GLY:544:C:4909, H-A:GLU:543:OE1:4906, H-A:GLU:543:OE2:4907, H-A:ASP:366:OD2:3211, H-A:ASP:366:OD1:3210"]

$$$$
RR32_Rahimova_2017
     RDKit          3D

 18 20  0  0  0  0  0  0  0  0999 V2000
  125.7000  128.8200   75.1200 C   0  0  0  0  0  0  0  0  0  0  0  0
  127.0080  128.8240   74.3350 C   0  0  0  0  0  0  0  0  0  0  0  0
  127.6060  127.5980   74.0420 C   0  0  0  0  0  0  0  0  0  0  0  0
  128.7980  127.5630   73.3240 C   0  0  0  0  0  0  0  0  0  0  0  0
  129.3870  126.3450   73.0350 N   0  0  0  0  0  0  0  0  0  0  0  0
  129.8900  125.5510   74.1710 C   0  0  0  0  0  0  0  0  0  0  0  0
  130.6890  124.2990   73.7360 C   0  0  0  0  0  0  0  0  0  0  0  0
  129.8590  123.4370   72.8940 N   0  0  0  0  0  0  0  0  0  0  0  0
  130.6010  122.2420   72.5100 C   0  0  0  0  0  0  0  0  0  0  0  0
  129.4750  124.1990   71.7080 C   0  0  0  0  0  0  0  0  0  0  0  0
  128.6620  125.4510   72.1120 C   0  0  0  0  0  0  0  0  0  0  0  0
  129.4240  128.6870   72.8900 N   0  0  0  0  0  0  0  0  0  0  0  0
  128.8670  129.8990   73.1630 C   0  0  0  0  0  0  0  0  0  0  0  0
  129.5430  131.0540   72.6990 C   0  0  0  0  0  0  0  0  0  0  0  0
  129.0210  132.3180   72.9490 C   0  0  0  0  0  0  0  0  0  0  0  0
  127.8320  132.4630   73.6550 C   0  0  0  0  0  0  0  0  0  0  0  0
  127.1440  131.3480   74.1250 C   0  0  0  0  0  0  0  0  0  0  0  0
  127.6410  130.0330   73.8930 C   0  0  0  0  0  0  0  0  0  0  0  0
  1  2  1  0
  2  3  2  0
  3  4  1  0
  4  5  1  0
  5  6  1  0
  6  7  1  0
  7  8  1  0
  8  9  1  0
  8 10  1  0
 10 11  1  0
  4 12  2  0
 12 13  1  0
 13 14  2  0
 14 15  1  0
 15 16  2  0
 16 17  1  0
 17 18  2  0
 18  2  1  0
 11  5  1  0
 18 13  1  0
M  END
>  <Binding energies>  (83) 
[-5.73]

>  <Ligand effiencies>  (83) 
[-0.31833333333333336]

>  <Interactions>  (83) 
["V-A:GLU:543:C:4899, V-A:HIS:456:CD2:4064, V-B:HIS:456:CD2:9036, V-B:LYS:547:CE:9919, V-A:LYS:547:CE:4947, V-A:GLY:544:CA:4911, H-A:LYS:547:NZ:4948, V-B:HIS:456:CG:9034, H-B:LYS:547:NZ:9920, V-A:TYR:484:CG:4338, V-A:TYR:484:CB:4337, V-A:TYR:484:CD2:4340, V-A:ASP:473:CB:4235, V-B:LYS:547:CD:9918, V-B:HIS:456:CB:9033, V-B:VAL:458:CG2:9055, V-B:ASP:473:CG:9208, V-B:ASP:473:CB:9207"]

$$$$
RR5_Rahimova_2017
     RDKit          3D

 45 50  0  0  0  0  0  0  0  0999 V2000
  127.0410  128.5000   60.9110 O   0  0  0  0  0  0  0  0  0  0  0  0
  128.1610  128.5850   61.4120 C   0  0  0  0  0  0  0  0  0  0  0  0
  128.5730  127.6090   62.5300 C   0  0  0  0  0  0  0  0  0  0  0  0
  130.1200  127.3550   62.6190 C   0  0  2  0  0  0  0  0  0  0  0  0
  130.7660  126.9870   61.3430 N   0  0  0  0  0  0  0  0  0  0  0  0
  130.1090  126.2200   60.3910 C   0  0  0  0  0  0  0  0  0  0  0  0
  128.9500  125.8040   60.4520 O   0  0  0  0  0  0  0  0  0  0  0  0
  130.9600  125.9840   59.3770 O   0  0  0  0  0  0  0  0  0  0  0  0
  131.7700  124.8120   59.3440 C   0  0  0  0  0  0  0  0  0  0  0  0
  131.8080  124.1310   60.7300 C   0  0  0  0  0  0  0  0  0  0  0  0
  130.8020  123.0040   60.8820 C   0  0  0  0  0  0  0  0  0  0  0  0
  129.4110  123.0280   60.7450 C   0  0  0  0  0  0  0  0  0  0  0  0
  128.6760  121.8530   60.9090 C   0  0  0  0  0  0  0  0  0  0  0  0
  129.3270  120.6550   61.2100 C   0  0  0  0  0  0  0  0  0  0  0  0
  130.7160  120.6290   61.3490 C   0  0  0  0  0  0  0  0  0  0  0  0
  131.4490  121.8060   61.1860 C   0  0  0  0  0  0  0  0  0  0  0  0
  132.8940  122.0670   61.2810 C   0  0  0  0  0  0  0  0  0  0  0  0
  133.9640  121.2180   61.5730 C   0  0  0  0  0  0  0  0  0  0  0  0
  135.2600  121.7340   61.6230 C   0  0  0  0  0  0  0  0  0  0  0  0
  135.4840  123.0920   61.3810 C   0  0  0  0  0  0  0  0  0  0  0  0
  134.4120  123.9350   61.0870 C   0  0  0  0  0  0  0  0  0  0  0  0
  133.1140  123.4220   61.0320 C   0  0  0  0  0  0  0  0  0  0  0  0
  130.4410  126.2870   63.6930 C   0  0  0  0  0  0  0  0  0  0  0  0
  129.6870  125.3960   64.0310 O   0  0  0  0  0  0  0  0  0  0  0  0
  131.7010  126.4890   64.1810 O   0  0  0  0  0  0  0  0  0  0  0  0
  129.1100  129.4710   61.0340 N   0  0  0  0  0  0  0  0  0  0  0  0
  129.1480  130.5650   60.0180 C   0  0  0  0  0  0  0  0  0  0  0  0
  128.3610  129.9290   58.8230 C   0  0  0  0  0  0  0  0  0  0  0  0
  128.8320  128.7820   58.1630 C   0  0  0  0  0  0  0  0  0  0  0  0
  128.1230  128.2240   57.1030 C   0  0  0  0  0  0  0  0  0  0  0  0
  126.9360  128.8110   56.6770 C   0  0  0  0  0  0  0  0  0  0  0  0
  126.4460  129.9460   57.3120 C   0  0  0  0  0  0  0  0  0  0  0  0
  127.1500  130.4970   58.3790 C   0  0  0  0  0  0  0  0  0  0  0  0
  128.4100  131.8010   60.6350 C   0  0  0  0  0  0  0  0  0  0  0  0
  127.9170  131.7850   61.9500 C   0  0  0  0  0  0  0  0  0  0  0  0
  127.2460  132.8890   62.4710 C   0  0  0  0  0  0  0  0  0  0  0  0
  127.0580  134.0210   61.6850 C   0  0  0  0  0  0  0  0  0  0  0  0
  127.5410  134.0610   60.3810 C   0  0  0  0  0  0  0  0  0  0  0  0
  128.2190  132.9610   59.8650 C   0  0  0  0  0  0  0  0  0  0  0  0
  130.6610  130.8040   59.6930 C   0  0  0  0  0  0  0  0  0  0  0  0
  131.0990  130.9640   58.3650 C   0  0  0  0  0  0  0  0  0  0  0  0
  132.4440  131.1680   58.0690 C   0  0  0  0  0  0  0  0  0  0  0  0
  133.3760  131.2230   59.0980 C   0  0  0  0  0  0  0  0  0  0  0  0
  132.9720  131.0830   60.4200 C   0  0  0  0  0  0  0  0  0  0  0  0
  131.6270  130.8780   60.7130 C   0  0  0  0  0  0  0  0  0  0  0  0
  1  2  2  0
  2  3  1  0
  4  3  1  6
  4  5  1  0
  5  6  1  0
  6  7  2  0
  6  8  1  0
  8  9  1  0
  9 10  1  0
 10 11  1  0
 11 12  2  0
 12 13  1  0
 13 14  2  0
 14 15  1  0
 15 16  2  0
 16 17  1  0
 17 18  2  0
 18 19  1  0
 19 20  2  0
 20 21  1  0
 21 22  2  0
  4 23  1  0
 23 24  2  0
 23 25  1  0
  2 26  1  0
 26 27  1  0
 27 28  1  0
 28 29  2  0
 29 30  1  0
 30 31  2  0
 31 32  1  0
 32 33  2  0
 27 34  1  0
 34 35  2  0
 35 36  1  0
 36 37  2  0
 37 38  1  0
 38 39  2  0
 27 40  1  0
 40 41  2  0
 41 42  1  0
 42 43  2  0
 43 44  1  0
 44 45  2  0
 22 10  1  0
 33 28  1  0
 39 34  1  0
 45 40  1  0
 16 11  1  0
 22 17  1  0
M  END
>  <Binding energies>  (84) 
[-8.74]

>  <Ligand effiencies>  (84) 
[-0.18208333333333335]

>  <Interactions>  (84) 
["V-A:ILE:369:CG1:3234, V-A:ILE:369:CG2:3233, V-A:LEU:475:CD1:4254, V-A:GLU:543:CD:4905, V-B:TYR:539:CE2:9845, V-B:ALA:541:CB:9861, V-B:TYR:539:CZ:9846, V-B:TYR:539:CD2:9843, V-A:ASP:366:CG:3209, V-A:ASP:366:CA:3206, V-A:ASP:366:CB:3208, V-A:ILE:369:CB:3232, V-A:GLY:453:C:4038, V-A:ILE:369:CD1:3235, V-A:GLY:454:CA:4045, H-A:ARG:545:NH2:4925, H-A:ARG:545:NE:4921, V-A:GLY:453:CA:4040, H-A:GLU:543:OE1:4906, H-A:GLU:543:OE2:4907, H-A:ASP:366:OD2:3211, V-B:LEU:475:CD2:9227, H-A:ASP:366:OD1:3210, V-A:PRO:540:CA:4880, V-B:MET:535:CE:9804, V-B:ALA:541:CA:9859, V-A:ASN:362:C:3168, V-A:PRO:540:CB:4882, V-A:LEU:363:CA:3181, V-A:ASN:362:CB:3172, V-A:ALA:541:CB:4889, V-A:TYR:539:C:4864, V-A:TYR:539:CD2:4871"]

$$$$
