1a_Ghoteimi_2023
     RDKit          3D

 40 43  0  0  0  0  0  0  0  0999 V2000
  133.6160  130.3420   57.5890 C   0  0  0  0  0  0  0  0  0  0  0  0
  132.2590  130.5430   56.9080 C   0  0  0  0  0  0  0  0  0  0  0  0
  131.9180  131.9240   56.9370 O   0  0  0  0  0  0  0  0  0  0  0  0
  130.6360  132.3260   57.1300 C   0  0  0  0  0  0  0  0  0  0  0  0
  130.0720  133.1670   56.4240 O   0  0  0  0  0  0  0  0  0  0  0  0
  129.9690  131.6410   58.2880 C   0  0  0  0  0  0  0  0  0  0  0  0
  130.0500  132.1420   59.5950 C   0  0  0  0  0  0  0  0  0  0  0  0
  129.4240  131.4830   60.6490 C   0  0  0  0  0  0  0  0  0  0  0  0
  128.6970  130.3070   60.4120 C   0  0  0  0  0  0  0  0  0  0  0  0
  128.0290  129.5580   61.4000 N   0  0  0  0  0  0  0  0  0  0  0  0
  127.6130  129.9270   62.6310 C   0  0  0  0  0  0  0  0  0  0  0  0
  127.7390  131.0470   63.1240 O   0  0  0  0  0  0  0  0  0  0  0  0
  126.9270  128.8320   63.4480 C   0  0  0  0  0  0  0  0  0  0  0  0
  127.0600  129.1410   65.2330 S   0  0  0  0  0  0  0  0  0  0  0  0
  128.2770  127.9970   65.8440 C   0  0  0  0  0  0  0  0  0  0  0  0
  128.3590  127.9530   67.1950 N   0  0  0  0  0  0  0  0  0  0  0  0
  129.2480  127.1150   67.7910 C   0  0  0  0  0  0  0  0  0  0  0  0
  129.2650  127.1080   69.2920 C   0  0  0  0  0  0  0  0  0  0  0  0
  129.9790  128.0760   70.0180 C   0  0  0  0  0  0  0  0  0  0  0  0
  129.9920  128.0680   71.4100 C   0  0  0  0  0  0  0  0  0  0  0  0
  129.2950  127.0930   72.1200 C   0  0  0  0  0  0  0  0  0  0  0  0
  129.3620  127.1640   73.4980 O   0  0  0  0  0  0  0  0  0  0  0  0
  129.7400  126.0060   74.2350 C   0  0  0  0  0  0  0  0  0  0  0  0
  128.5810  126.1180   71.4100 C   0  0  0  0  0  0  0  0  0  0  0  0
  128.5710  126.1290   70.0180 C   0  0  0  0  0  0  0  0  0  0  0  0
  130.0810  126.2960   67.0180 C   0  0  0  0  0  0  0  0  0  0  0  0
  130.0320  126.3430   65.6190 C   0  0  0  0  0  0  0  0  0  0  0  0
  130.9730  125.4640   64.8600 C   0  0  0  0  0  0  0  0  0  0  0  0
  130.5440  124.2430   64.3300 C   0  0  0  0  0  0  0  0  0  0  0  0
  131.4240  123.4370   63.6120 C   0  0  0  0  0  0  0  0  0  0  0  0
  132.7430  123.8380   63.4030 C   0  0  0  0  0  0  0  0  0  0  0  0
  133.5410  122.9750   62.6780 O   0  0  0  0  0  0  0  0  0  0  0  0
  134.0300  123.3850   61.4060 C   0  0  0  0  0  0  0  0  0  0  0  0
  133.1740  125.0670   63.9260 C   0  0  0  0  0  0  0  0  0  0  0  0
  132.2930  125.8710   64.6450 C   0  0  0  0  0  0  0  0  0  0  0  0
  129.1000  127.2150   65.0070 C   0  0  0  0  0  0  0  0  0  0  0  0
  128.9910  127.2960   63.5460 C   0  0  0  0  0  0  0  0  0  0  0  0
  128.9050  127.3600   62.3940 N   0  0  0  0  0  0  0  0  0  0  0  0
  128.6170  129.8030   59.1130 C   0  0  0  0  0  0  0  0  0  0  0  0
  129.2440  130.4630   58.0600 C   0  0  0  0  0  0  0  0  0  0  0  0
  1  2  1  0
  2  3  1  0
  3  4  1  0
  4  5  2  0
  4  6  1  0
  6  7  2  0
  7  8  1  0
  8  9  2  0
  9 10  1  0
 10 11  1  0
 11 12  2  0
 11 13  1  0
 13 14  1  0
 14 15  1  0
 15 16  2  0
 16 17  1  0
 17 18  1  0
 18 19  2  0
 19 20  1  0
 20 21  2  0
 21 22  1  0
 22 23  1  0
 21 24  1  0
 24 25  2  0
 17 26  2  0
 26 27  1  0
 27 28  1  0
 28 29  2  0
 29 30  1  0
 30 31  2  0
 31 32  1  0
 32 33  1  0
 31 34  1  0
 34 35  2  0
 27 36  2  0
 36 37  1  0
 37 38  3  0
  9 39  1  0
 39 40  2  0
 40  6  1  0
 36 15  1  0
 25 18  1  0
 35 28  1  0
M  END
>  <Binding energies>  (1) 
[-9.2]

>  <Ligand effiencies>  (1) 
[-0.224390243902439]

>  <Interactions>  (1) 
["V-A:GLU:543:C:4899, V-A:GLU:543:CD:4905, V-B:GLU:543:C:9871, V-B:GLU:543:CD:9877, V-A:HIS:456:CE1:4066, V-B:HIS:456:CD2:9036, V-A:ARG:545:CZ:4923, V-B:HIS:456:CE1:9038, V-A:ASP:366:CG:3209, V-B:LYS:547:CE:9919, V-A:ASP:366:CB:3208, V-A:GLY:454:CA:4045, H-A:LYS:547:NZ:4948, H-A:GLY:454:N:4046, V-A:PRO:540:CA:4880, H-A:TYR:531:OH:4792, V-A:PRO:540:CB:4882, V-A:LEU:363:CA:3181, V-A:TYR:539:C:4864, V-A:PRO:540:N:4881, V-A:PRO:540:C:4878, V-A:LEU:363:CD1:3185, V-A:LEU:363:CB:3183, V-A:TYR:531:CZ:4791, H-A:TYR:539:N:4867"]

$$$$
1b_Ghoteimi_2023
     RDKit          3D

 34 37  0  0  0  0  0  0  0  0999 V2000
  128.2690  127.7470   74.2760 C   0  0  0  0  0  0  0  0  0  0  0  0
  129.3970  127.3190   73.5230 O   0  0  0  0  0  0  0  0  0  0  0  0
  129.3060  127.2640   72.1450 C   0  0  0  0  0  0  0  0  0  0  0  0
  130.3230  127.8890   71.4260 C   0  0  0  0  0  0  0  0  0  0  0  0
  130.3140  127.8860   70.0350 C   0  0  0  0  0  0  0  0  0  0  0  0
  129.2870  127.2540   69.3180 C   0  0  0  0  0  0  0  0  0  0  0  0
  129.2800  127.2540   67.8150 C   0  0  0  0  0  0  0  0  0  0  0  0
  130.1350  126.4550   67.0490 C   0  0  0  0  0  0  0  0  0  0  0  0
  130.0850  126.4900   65.6500 C   0  0  0  0  0  0  0  0  0  0  0  0
  131.0310  125.6140   64.8970 C   0  0  0  0  0  0  0  0  0  0  0  0
  130.5500  124.5360   64.1470 C   0  0  0  0  0  0  0  0  0  0  0  0
  131.4280  123.7110   63.4500 C   0  0  0  0  0  0  0  0  0  0  0  0
  132.8030  123.9430   63.4920 C   0  0  0  0  0  0  0  0  0  0  0  0
  133.5980  123.0730   62.7710 O   0  0  0  0  0  0  0  0  0  0  0  0
  133.9840  123.4230   61.4460 C   0  0  0  0  0  0  0  0  0  0  0  0
  133.2910  125.0190   64.2500 C   0  0  0  0  0  0  0  0  0  0  0  0
  132.4100  125.8410   64.9460 C   0  0  0  0  0  0  0  0  0  0  0  0
  129.1410  127.3450   65.0300 C   0  0  0  0  0  0  0  0  0  0  0  0
  128.9830  127.3480   63.5720 C   0  0  0  0  0  0  0  0  0  0  0  0
  128.8590  127.3490   62.4220 N   0  0  0  0  0  0  0  0  0  0  0  0
  128.3210  128.1410   65.8610 C   0  0  0  0  0  0  0  0  0  0  0  0
  127.0880  129.2760   65.2590 S   0  0  0  0  0  0  0  0  0  0  0  0
  127.5980  130.9630   65.7330 C   0  0  0  0  0  0  0  0  0  0  0  0
  127.7020  131.9610   64.5700 C   0  0  0  0  0  0  0  0  0  0  0  0
  127.2480  133.1020   64.6770 O   0  0  0  0  0  0  0  0  0  0  0  0
  128.3140  131.4770   63.4660 N   0  0  0  0  0  0  0  0  0  0  0  0
  128.5490  132.1490   62.2720 C   0  0  0  0  0  0  0  0  0  0  0  0
  127.5530  132.8310   61.5740 C   0  0  0  0  0  0  0  0  0  0  0  0
  128.1840  133.3500   60.4660 C   0  0  0  0  0  0  0  0  0  0  0  0
  129.4920  133.0000   60.4970 O   0  0  0  0  0  0  0  0  0  0  0  0
  129.7110  132.2390   61.6470 N   0  0  0  0  0  0  0  0  0  0  0  0
  128.3810  128.0770   67.2130 N   0  0  0  0  0  0  0  0  0  0  0  0
  128.2670  126.6280   70.0520 C   0  0  0  0  0  0  0  0  0  0  0  0
  128.2720  126.6300   71.4430 C   0  0  0  0  0  0  0  0  0  0  0  0
  1  2  1  0
  2  3  1  0
  3  4  2  0
  4  5  1  0
  5  6  2  0
  6  7  1  0
  7  8  2  0
  8  9  1  0
  9 10  1  0
 10 11  2  0
 11 12  1  0
 12 13  2  0
 13 14  1  0
 14 15  1  0
 13 16  1  0
 16 17  2  0
  9 18  2  0
 18 19  1  0
 19 20  3  0
 18 21  1  0
 21 22  1  0
 22 23  1  0
 23 24  1  0
 24 25  2  0
 24 26  1  0
 26 27  1  0
 27 28  1  0
 28 29  2  0
 29 30  1  0
 30 31  1  0
 21 32  2  0
  6 33  1  0
 33 34  2  0
 34  3  1  0
 32  7  1  0
 17 10  1  0
 31 27  2  0
M  END
>  <Binding energies>  (2) 
[-9.4]

>  <Ligand effiencies>  (2) 
[-0.26857142857142857]

>  <Interactions>  (2) 
["V-A:GLU:543:C:4899, V-A:GLU:543:CD:4905, V-B:GLU:543:CD:9877, V-A:GLU:543:CB:4903, V-A:HIS:456:CE1:4066, V-B:HIS:456:CD2:9036, V-A:ARG:545:CZ:4923, V-B:HIS:456:CE1:9038, V-B:LYS:547:CE:9919, V-A:GLY:454:CA:4045, V-A:LYS:547:CE:4947, V-A:GLY:544:C:4909, H-A:LYS:547:NZ:4948, H-A:GLU:543:OE1:4906, H-A:GLU:543:OE2:4907, H-A:GLY:454:N:4046, H-A:ALA:541:N:4888, V-A:GLU:543:CG:4904, V-A:ALA:541:CB:4889, H-B:TYR:484:OH:9316, V-B:TYR:484:CZ:9315, V-B:TYR:484:CE1:9313"]

$$$$
1c_Ghoteimi_2023
     RDKit          3D

 34 37  0  0  0  0  0  0  0  0999 V2000
  128.3610  127.7650   74.3070 C   0  0  0  0  0  0  0  0  0  0  0  0
  129.4620  127.2670   73.5550 O   0  0  0  0  0  0  0  0  0  0  0  0
  129.3740  127.2220   72.1770 C   0  0  0  0  0  0  0  0  0  0  0  0
  130.4310  127.7820   71.4650 C   0  0  0  0  0  0  0  0  0  0  0  0
  130.4250  127.7840   70.0720 C   0  0  0  0  0  0  0  0  0  0  0  0
  129.3590  127.2260   69.3500 C   0  0  0  0  0  0  0  0  0  0  0  0
  129.3450  127.2310   67.8490 C   0  0  0  0  0  0  0  0  0  0  0  0
  130.2010  126.4310   67.0830 C   0  0  0  0  0  0  0  0  0  0  0  0
  130.1330  126.4500   65.6850 C   0  0  0  0  0  0  0  0  0  0  0  0
  131.0290  125.5220   64.9330 C   0  0  0  0  0  0  0  0  0  0  0  0
  132.3710  125.8470   64.7180 C   0  0  0  0  0  0  0  0  0  0  0  0
  133.1990  124.9920   63.9980 C   0  0  0  0  0  0  0  0  0  0  0  0
  132.7010  123.7980   63.4760 C   0  0  0  0  0  0  0  0  0  0  0  0
  133.5950  123.0110   62.7750 O   0  0  0  0  0  0  0  0  0  0  0  0
  133.9730  123.3940   61.4570 C   0  0  0  0  0  0  0  0  0  0  0  0
  131.3520  123.4710   63.6830 C   0  0  0  0  0  0  0  0  0  0  0  0
  130.5260  124.3290   64.4040 C   0  0  0  0  0  0  0  0  0  0  0  0
  129.2010  127.3160   65.0670 C   0  0  0  0  0  0  0  0  0  0  0  0
  129.1040  127.4070   63.6060 C   0  0  0  0  0  0  0  0  0  0  0  0
  129.0280  127.4760   62.4530 N   0  0  0  0  0  0  0  0  0  0  0  0
  128.3570  128.0810   65.8990 C   0  0  0  0  0  0  0  0  0  0  0  0
  127.0300  129.0820   65.2640 S   0  0  0  0  0  0  0  0  0  0  0  0
  127.4870  130.7920   65.6970 C   0  0  0  0  0  0  0  0  0  0  0  0
  127.3760  131.7410   64.4980 C   0  0  0  0  0  0  0  0  0  0  0  0
  126.7850  132.8140   64.6240 O   0  0  0  0  0  0  0  0  0  0  0  0
  127.9970  131.3220   63.3730 N   0  0  0  0  0  0  0  0  0  0  0  0
  128.1800  132.0500   62.2080 C   0  0  0  0  0  0  0  0  0  0  0  0
  129.3050  132.2790   61.5670 N   0  0  0  0  0  0  0  0  0  0  0  0
  129.1020  132.9780   60.4670 C   0  0  0  0  0  0  0  0  0  0  0  0
  127.7830  133.3290   60.1970 C   0  0  0  0  0  0  0  0  0  0  0  0
  126.7610  132.7090   61.4590 S   0  0  0  0  0  0  0  0  0  0  0  0
  128.4240  128.0310   67.2510 N   0  0  0  0  0  0  0  0  0  0  0  0
  128.3020  126.6590   70.0780 C   0  0  0  0  0  0  0  0  0  0  0  0
  128.3040  126.6560   71.4700 C   0  0  0  0  0  0  0  0  0  0  0  0
  1  2  1  0
  2  3  1  0
  3  4  2  0
  4  5  1  0
  5  6  2  0
  6  7  1  0
  7  8  2  0
  8  9  1  0
  9 10  1  0
 10 11  2  0
 11 12  1  0
 12 13  2  0
 13 14  1  0
 14 15  1  0
 13 16  1  0
 16 17  2  0
  9 18  2  0
 18 19  1  0
 19 20  3  0
 18 21  1  0
 21 22  1  0
 22 23  1  0
 23 24  1  0
 24 25  2  0
 24 26  1  0
 26 27  1  0
 27 28  2  0
 28 29  1  0
 29 30  2  0
 30 31  1  0
 21 32  2  0
  6 33  1  0
 33 34  2  0
 34  3  1  0
 32  7  1  0
 17 10  1  0
 31 27  1  0
M  END
>  <Binding energies>  (3) 
[-9.16]

>  <Ligand effiencies>  (3) 
[-0.26171428571428573]

>  <Interactions>  (3) 
["V-A:GLU:543:C:4899, V-A:GLU:543:CD:4905, V-B:GLU:543:CD:9877, V-A:GLU:543:CB:4903, V-A:HIS:456:CD2:4064, V-A:HIS:456:CE1:4066, V-B:HIS:456:CD2:9036, V-A:ARG:545:CZ:4923, V-B:HIS:456:CE1:9038, V-B:LYS:547:CE:9919, V-A:GLY:454:CA:4045, V-A:LYS:547:CE:4947, V-A:GLY:544:C:4909, H-A:LYS:547:NZ:4948, H-A:GLU:543:OE2:4907, H-A:GLY:454:N:4046, V-A:PRO:540:CA:4880, H-A:ALA:541:N:4888, V-A:GLU:543:CG:4904, V-A:ALA:541:CB:4889, H-B:TYR:484:OH:9316, V-A:TYR:539:C:4864, V-A:PRO:540:C:4878, V-A:TYR:539:CD2:4871, V-B:TYR:484:CZ:9315, V-B:TYR:484:CE1:9313"]

$$$$
1d_Ghoteimi_2023
     RDKit          3D

 30 32  0  0  0  0  0  0  0  0999 V2000
  126.8680  132.9240   63.8750 C   0  0  0  0  0  0  0  0  0  0  0  0
  127.6920  132.6050   64.9850 O   0  0  0  0  0  0  0  0  0  0  0  0
  127.7270  131.3480   65.4740 C   0  0  0  0  0  0  0  0  0  0  0  0
  128.0200  131.0210   66.6250 O   0  0  0  0  0  0  0  0  0  0  0  0
  127.3560  130.3060   64.4210 C   0  0  0  0  0  0  0  0  0  0  0  0
  126.6610  128.8710   65.2930 S   0  0  0  0  0  0  0  0  0  0  0  0
  128.0330  127.9030   65.8800 C   0  0  0  0  0  0  0  0  0  0  0  0
  128.1510  127.8850   67.2290 N   0  0  0  0  0  0  0  0  0  0  0  0
  129.1580  127.1860   67.8120 C   0  0  0  0  0  0  0  0  0  0  0  0
  129.2140  127.2130   69.3120 C   0  0  0  0  0  0  0  0  0  0  0  0
  130.2750  127.8350   69.9900 C   0  0  0  0  0  0  0  0  0  0  0  0
  130.3280  127.8540   71.3810 C   0  0  0  0  0  0  0  0  0  0  0  0
  129.3260  127.2500   72.1370 C   0  0  0  0  0  0  0  0  0  0  0  0
  129.4630  127.3140   73.5100 O   0  0  0  0  0  0  0  0  0  0  0  0
  128.3610  127.7510   74.2980 C   0  0  0  0  0  0  0  0  0  0  0  0
  128.2610  126.6250   71.4740 C   0  0  0  0  0  0  0  0  0  0  0  0
  128.2100  126.6090   70.0830 C   0  0  0  0  0  0  0  0  0  0  0  0
  130.0750  126.4720   67.0310 C   0  0  0  0  0  0  0  0  0  0  0  0
  129.9860  126.4860   65.6340 C   0  0  0  0  0  0  0  0  0  0  0  0
  131.0030  125.7070   64.8620 C   0  0  0  0  0  0  0  0  0  0  0  0
  132.3640  125.8540   65.1440 C   0  0  0  0  0  0  0  0  0  0  0  0
  133.3160  125.1320   64.4290 C   0  0  0  0  0  0  0  0  0  0  0  0
  132.9280  124.2480   63.4240 C   0  0  0  0  0  0  0  0  0  0  0  0
  133.9410  123.5800   62.7630 O   0  0  0  0  0  0  0  0  0  0  0  0
  133.9630  123.5840   61.3390 C   0  0  0  0  0  0  0  0  0  0  0  0
  131.5620  124.0880   63.1450 C   0  0  0  0  0  0  0  0  0  0  0  0
  130.6120  124.8100   63.8620 C   0  0  0  0  0  0  0  0  0  0  0  0
  128.9480  127.2390   65.0310 C   0  0  0  0  0  0  0  0  0  0  0  0
  128.8700  127.3720   63.5730 C   0  0  0  0  0  0  0  0  0  0  0  0
  128.8090  127.4770   62.4230 N   0  0  0  0  0  0  0  0  0  0  0  0
  1  2  1  0
  2  3  1  0
  3  4  2  0
  3  5  1  0
  5  6  1  0
  6  7  1  0
  7  8  2  0
  8  9  1  0
  9 10  1  0
 10 11  2  0
 11 12  1  0
 12 13  2  0
 13 14  1  0
 14 15  1  0
 13 16  1  0
 16 17  2  0
  9 18  2  0
 18 19  1  0
 19 20  1  0
 20 21  2  0
 21 22  1  0
 22 23  2  0
 23 24  1  0
 24 25  1  0
 23 26  1  0
 26 27  2  0
 19 28  2  0
 28 29  1  0
 29 30  3  0
 28  7  1  0
 17 10  1  0
 27 20  1  0
M  END
>  <Binding energies>  (4) 
[-7.68]

>  <Ligand effiencies>  (4) 
[-0.256]

>  <Interactions>  (4) 
["V-A:GLU:543:C:4899, V-A:GLU:543:CD:4905, V-B:GLU:543:CD:9877, V-A:GLU:543:CB:4903, V-A:HIS:456:CD2:4064, V-A:HIS:456:CE1:4066, V-B:HIS:456:CD2:9036, V-A:ARG:545:CZ:4923, V-B:HIS:456:CE1:9038, V-A:ASP:366:CG:3209, V-B:LYS:547:CE:9919, V-A:GLY:454:CA:4045, V-A:LYS:547:CE:4947, V-A:GLY:544:C:4909, H-A:LYS:547:NZ:4948, H-A:GLY:454:N:4046, V-B:LEU:475:CD2:9227, V-A:GLU:543:CG:4904, V-A:ALA:541:CB:4889, H-B:TYR:484:OH:9316, V-B:TYR:484:CZ:9315, V-B:TYR:484:CE1:9313"]

$$$$
1j_Grossjean_2025
     RDKit          3D

 20 21  0  0  0  0  0  0  0  0999 V2000
  135.1060  123.5980   60.4060 C   0  0  0  0  0  0  0  0  0  0  0  0
  133.9510  123.3870   61.3680 C   0  0  0  0  0  0  0  0  0  0  0  0
  132.9400  122.4670   61.1030 C   0  0  0  0  0  0  0  0  0  0  0  0
  131.9080  122.3050   62.0320 C   0  0  0  0  0  0  0  0  0  0  0  0
  130.8190  121.2770   61.7270 C   0  0  0  0  0  0  0  0  0  0  0  0
  131.9120  123.0840   63.2110 C   0  0  0  0  0  0  0  0  0  0  0  0
  130.8690  122.8930   64.2230 C   0  0  0  0  0  0  0  0  0  0  0  0
  130.0450  122.7400   65.0200 N   0  0  0  0  0  0  0  0  0  0  0  0
  132.9640  124.0130   63.3860 C   0  0  0  0  0  0  0  0  0  0  0  0
  133.1250  125.0740   64.8050 S   0  0  0  0  0  0  0  0  0  0  0  0
  131.6860  126.1840   64.8310 C   0  0  0  0  0  0  0  0  0  0  0  0
  130.9250  126.1070   66.1570 C   0  0  0  0  0  0  0  0  0  0  0  0
  130.3490  125.0620   66.4630 O   0  0  0  0  0  0  0  0  0  0  0  0
  130.9520  127.2280   66.9090 N   0  0  0  0  0  0  0  0  0  0  0  0
  130.3380  127.4140   68.1400 C   0  0  0  0  0  0  0  0  0  0  0  0
  130.7900  128.0940   69.1730 N   0  0  0  0  0  0  0  0  0  0  0  0
  129.9430  128.0610   70.1820 C   0  0  0  0  0  0  0  0  0  0  0  0
  128.7690  127.3410   69.9780 C   0  0  0  0  0  0  0  0  0  0  0  0
  128.7870  126.6750   68.3720 S   0  0  0  0  0  0  0  0  0  0  0  0
  133.9730  124.1470   62.4880 N   0  0  0  0  0  0  0  0  0  0  0  0
  1  2  1  0
  2  3  2  0
  3  4  1  0
  4  5  1  0
  4  6  2  0
  6  7  1  0
  7  8  3  0
  6  9  1  0
  9 10  1  0
 10 11  1  0
 11 12  1  0
 12 13  2  0
 12 14  1  0
 14 15  1  0
 15 16  2  0
 16 17  1  0
 17 18  2  0
 18 19  1  0
  9 20  2  0
 20  2  1  0
 19 15  1  0
M  END
>  <Binding energies>  (5) 
[-6.43]

>  <Ligand effiencies>  (5) 
[-0.3061904761904762]

>  <Interactions>  (5) 
["V-A:ILE:369:CG1:3234, V-A:GLU:543:C:4899, V-A:ILE:369:CG2:3233, V-A:LEU:475:CD1:4254, V-A:GLU:543:CD:4905, V-B:TYR:539:CE2:9845, V-B:ALA:541:CB:9861, V-A:GLU:543:CB:4903, V-B:TYR:539:CD2:9843, V-A:HIS:456:CE1:4066, V-B:HIS:456:CD2:9036, V-A:ARG:545:CZ:4923, V-B:HIS:456:CE1:9038, V-A:ASP:366:CG:3209, V-A:ASP:366:CA:3206, V-A:ASP:366:CB:3208, V-A:ILE:369:CB:3232, V-B:GLU:543:CB:9875, H-A:TYR:484:OH:4344, V-A:GLY:454:CA:4045, H-A:ARG:545:NE:4921, V-A:TYR:484:CE1:4341, V-A:TYR:484:CZ:4343, H-A:GLU:543:OE1:4906, H-A:GLY:454:N:4046"]

$$$$
1o_Grossjean_2025
     RDKit          3D

 26 27  0  0  0  0  0  0  0  0999 V2000
  129.0640  129.7840   73.2740 C   0  0  0  0  0  0  0  0  0  0  0  0
  129.2790  128.3820   73.1900 O   0  0  0  0  0  0  0  0  0  0  0  0
  128.4310  127.5850   72.4890 C   0  0  0  0  0  0  0  0  0  0  0  0
  127.4220  127.0680   72.9780 O   0  0  0  0  0  0  0  0  0  0  0  0
  128.8410  127.3970   71.0560 C   0  0  0  0  0  0  0  0  0  0  0  0
  129.9920  127.9990   70.5280 C   0  0  0  0  0  0  0  0  0  0  0  0
  130.3460  127.8030   69.1960 C   0  0  0  0  0  0  0  0  0  0  0  0
  129.5560  127.0080   68.3640 C   0  0  0  0  0  0  0  0  0  0  0  0
  130.0100  126.8690   67.0380 N   0  0  0  0  0  0  0  0  0  0  0  0
  129.9090  125.8190   66.1930 C   0  0  0  0  0  0  0  0  0  0  0  0
  129.3310  124.7610   66.4430 O   0  0  0  0  0  0  0  0  0  0  0  0
  130.5550  126.0150   64.8140 C   0  0  0  0  0  0  0  0  0  0  0  0
  132.0820  126.2190   64.8790 C   0  0  0  0  0  0  0  0  0  0  0  0
  133.0280  124.6740   65.0220 S   0  0  0  0  0  0  0  0  0  0  0  0
  132.8050  123.7360   63.5240 C   0  0  0  0  0  0  0  0  0  0  0  0
  133.7710  123.9610   62.5970 N   0  0  0  0  0  0  0  0  0  0  0  0
  133.7120  123.2960   61.4190 C   0  0  0  0  0  0  0  0  0  0  0  0
  134.8330  123.5880   60.4400 C   0  0  0  0  0  0  0  0  0  0  0  0
  132.6920  122.3980   61.1140 C   0  0  0  0  0  0  0  0  0  0  0  0
  131.6770  122.1780   62.0510 C   0  0  0  0  0  0  0  0  0  0  0  0
  130.5620  121.1990   61.6870 C   0  0  0  0  0  0  0  0  0  0  0  0
  131.7150  122.8640   63.2870 C   0  0  0  0  0  0  0  0  0  0  0  0
  130.6310  122.6910   64.2560 C   0  0  0  0  0  0  0  0  0  0  0  0
  129.7730  122.5510   65.0200 N   0  0  0  0  0  0  0  0  0  0  0  0
  128.4050  126.3980   68.8870 C   0  0  0  0  0  0  0  0  0  0  0  0
  128.0540  126.5950   70.2190 C   0  0  0  0  0  0  0  0  0  0  0  0
  1  2  1  0
  2  3  1  0
  3  4  2  0
  3  5  1  0
  5  6  2  0
  6  7  1  0
  7  8  2  0
  8  9  1  0
  9 10  1  0
 10 11  2  0
 10 12  1  0
 12 13  1  0
 13 14  1  0
 14 15  1  0
 15 16  2  0
 16 17  1  0
 17 18  1  0
 17 19  2  0
 19 20  1  0
 20 21  1  0
 20 22  2  0
 22 23  1  0
 23 24  3  0
  8 25  1  0
 25 26  2  0
 26  5  1  0
 22 15  1  0
M  END
>  <Binding energies>  (6) 
[-7.81]

>  <Ligand effiencies>  (6) 
[-0.28925925925925927]

>  <Interactions>  (6) 
["V-A:ILE:369:CG1:3234, V-A:GLU:543:C:4899, V-A:ILE:369:CG2:3233, V-A:LEU:475:CD1:4254, V-B:TYR:539:CE2:9845, V-B:ALA:541:CB:9861, V-A:GLU:543:CB:4903, V-B:TYR:539:CD2:9843, V-A:HIS:456:CE1:4066, V-B:HIS:456:CD2:9036, V-A:ARG:545:CZ:4923, V-B:HIS:456:CE1:9038, V-A:ASP:366:CG:3209, V-A:ASP:366:CA:3206, V-A:ASP:366:CB:3208, V-A:ILE:369:CB:3232, V-B:GLU:543:CB:9875, H-A:TYR:484:OH:4344, V-A:GLY:454:CA:4045, V-A:LYS:547:CE:4947, V-A:TYR:484:CE1:4341, V-A:TYR:484:CZ:4343, H-A:LYS:547:NZ:4948, H-A:GLU:543:OE1:4906, H-A:GLY:454:N:4046"]

$$$$
1p_Grossjean_2025
     RDKit          3D

 21 22  0  0  0  0  0  0  0  0999 V2000
  134.8230  123.9380   61.4860 C   0  0  0  0  0  0  0  0  0  0  0  0
  133.6320  123.8200   62.4190 C   0  0  0  0  0  0  0  0  0  0  0  0
  132.6400  122.8630   62.2160 C   0  0  0  0  0  0  0  0  0  0  0  0
  131.5570  122.8090   63.1010 C   0  0  0  0  0  0  0  0  0  0  0  0
  130.4730  121.7620   62.8510 C   0  0  0  0  0  0  0  0  0  0  0  0
  131.5020  123.7170   64.1820 C   0  0  0  0  0  0  0  0  0  0  0  0
  130.3560  123.7120   65.0930 C   0  0  0  0  0  0  0  0  0  0  0  0
  129.4500  123.7070   65.8140 N   0  0  0  0  0  0  0  0  0  0  0  0
  132.5660  124.6400   64.3240 C   0  0  0  0  0  0  0  0  0  0  0  0
  132.6580  125.8430   65.6310 S   0  0  0  0  0  0  0  0  0  0  0  0
  131.0080  126.5890   65.7760 C   0  0  0  0  0  0  0  0  0  0  0  0
  130.9000  127.6470   66.8900 C   0  0  0  0  0  0  0  0  0  0  0  0
  130.2170  127.1290   68.1650 C   0  0  0  0  0  0  0  0  0  0  0  0
  129.6530  126.0330   68.1490 O   0  0  0  0  0  0  0  0  0  0  0  0
  130.3040  127.9380   69.2450 N   0  0  0  0  0  0  0  0  0  0  0  0
  129.7800  127.7090   70.5100 C   0  0  0  0  0  0  0  0  0  0  0  0
  128.6010  126.9950   70.7290 C   0  0  0  0  0  0  0  0  0  0  0  0
  128.4320  126.9930   72.0940 C   0  0  0  0  0  0  0  0  0  0  0  0
  129.4530  127.6720   72.6680 O   0  0  0  0  0  0  0  0  0  0  0  0
  130.3000  128.1220   71.6540 N   0  0  0  0  0  0  0  0  0  0  0  0
  133.6010  124.6990   63.4480 N   0  0  0  0  0  0  0  0  0  0  0  0
  1  2  1  0
  2  3  2  0
  3  4  1  0
  4  5  1  0
  4  6  2  0
  6  7  1  0
  7  8  3  0
  6  9  1  0
  9 10  1  0
 10 11  1  0
 11 12  1  0
 12 13  1  0
 13 14  2  0
 13 15  1  0
 15 16  1  0
 16 17  1  0
 17 18  2  0
 18 19  1  0
 19 20  1  0
  9 21  2  0
 21  2  1  0
 20 16  2  0
M  END
>  <Binding energies>  (7) 
[-6.93]

>  <Ligand effiencies>  (7) 
[-0.315]

>  <Interactions>  (7) 
["V-A:GLU:543:C:4899, V-A:LEU:475:CD1:4254, V-A:GLU:543:CD:4905, V-B:ALA:541:CB:9861, V-A:GLU:543:CB:4903, V-A:HIS:456:CE1:4066, V-B:HIS:456:CD2:9036, V-B:GLU:543:CG:9876, V-B:HIS:456:CE1:9038, V-A:ASP:366:CG:3209, V-B:LYS:547:CE:9919, H-A:TYR:484:OH:4344, V-A:GLY:453:C:4038, V-A:GLY:454:CA:4045, H-A:ARG:545:NH2:4925, H-A:ARG:545:NE:4921, V-A:GLY:453:CA:4040, V-A:TYR:484:CE1:4341, V-A:TYR:484:CZ:4343, H-A:LYS:547:NZ:4948, H-A:GLY:454:N:4046, H-A:ARG:545:NH1:4924, V-A:GLU:543:CG:4904, H-A:GLU:543:O:4900"]

$$$$
2a_Ghoteimi_2023
     RDKit          3D

 48 53  0  0  0  0  0  0  0  0999 V2000
  128.6320  125.1230   56.4040 C   0  0  0  0  0  0  0  0  0  0  0  0
  129.5570  123.9300   56.6580 C   0  0  0  0  0  0  0  0  0  0  0  0
  128.8210  122.7220   56.5080 O   0  0  0  0  0  0  0  0  0  0  0  0
  127.7720  122.4340   57.3210 C   0  0  0  0  0  0  0  0  0  0  0  0
  127.1110  121.3950   57.2340 O   0  0  0  0  0  0  0  0  0  0  0  0
  127.5010  123.5030   58.3400 C   0  0  0  0  0  0  0  0  0  0  0  0
  128.3910  123.7710   59.3900 C   0  0  0  0  0  0  0  0  0  0  0  0
  128.1100  124.7700   60.3170 C   0  0  0  0  0  0  0  0  0  0  0  0
  126.9400  125.5240   60.2140 C   0  0  0  0  0  0  0  0  0  0  0  0
  126.7550  126.5050   61.2070 N   0  0  0  0  0  0  0  0  0  0  0  0
  127.0980  127.8110   61.2080 C   0  0  0  0  0  0  0  0  0  0  0  0
  127.7080  128.3840   60.3040 O   0  0  0  0  0  0  0  0  0  0  0  0
  126.7100  128.5860   62.4740 C   0  0  0  0  0  0  0  0  0  0  0  0
  128.1160  129.3240   63.3670 S   0  0  0  0  0  0  0  0  0  0  0  0
  128.6280  128.1000   64.5510 C   0  0  0  0  0  0  0  0  0  0  0  0
  129.1460  126.9820   63.9920 N   0  0  0  0  0  0  0  0  0  0  0  0
  129.5650  125.9690   64.7930 C   0  0  0  0  0  0  0  0  0  0  0  0
  130.1180  124.7620   64.1060 C   0  0  0  0  0  0  0  0  0  0  0  0
  131.3940  124.7750   63.5310 C   0  0  0  0  0  0  0  0  0  0  0  0
  131.8990  123.6510   62.8830 C   0  0  0  0  0  0  0  0  0  0  0  0
  131.1500  122.4690   62.7920 C   0  0  0  0  0  0  0  0  0  0  0  0
  131.6590  121.3570   62.1120 N   0  0  0  0  0  0  0  0  0  0  0  0
  132.8370  121.4680   61.2290 C   0  0  0  0  0  0  0  0  0  0  0  0
  133.4680  120.1090   60.8580 C   0  0  0  0  0  0  0  0  0  0  0  0
  132.4860  119.2560   60.2910 O   0  0  0  0  0  0  0  0  0  0  0  0
  131.4270  119.0080   61.2020 C   0  0  0  0  0  0  0  0  0  0  0  0
  130.7340  120.3320   61.5840 C   0  0  0  0  0  0  0  0  0  0  0  0
  129.8660  122.4650   63.3600 C   0  0  0  0  0  0  0  0  0  0  0  0
  129.3630  123.5880   64.0100 C   0  0  0  0  0  0  0  0  0  0  0  0
  129.4830  126.0670   66.1840 C   0  0  0  0  0  0  0  0  0  0  0  0
  128.9490  127.2160   66.7850 C   0  0  0  0  0  0  0  0  0  0  0  0
  128.8850  127.2510   68.2770 C   0  0  0  0  0  0  0  0  0  0  0  0
  129.8240  127.9880   69.0040 C   0  0  0  0  0  0  0  0  0  0  0  0
  129.7850  128.0120   70.3950 C   0  0  0  0  0  0  0  0  0  0  0  0
  128.8030  127.3010   71.1020 C   0  0  0  0  0  0  0  0  0  0  0  0
  128.7570  127.2960   72.4990 N   0  0  0  0  0  0  0  0  0  0  0  0
  129.3410  126.1590   73.2380 C   0  0  0  0  0  0  0  0  0  0  0  0
  129.5730  126.4590   74.7340 C   0  0  0  0  0  0  0  0  0  0  0  0
  128.3610  126.8840   75.3380 O   0  0  0  0  0  0  0  0  0  0  0  0
  127.8550  128.0610   74.7290 C   0  0  0  0  0  0  0  0  0  0  0  0
  127.5820  127.8060   73.2320 C   0  0  0  0  0  0  0  0  0  0  0  0
  127.8720  126.5540   70.3660 C   0  0  0  0  0  0  0  0  0  0  0  0
  127.9120  126.5300   68.9740 C   0  0  0  0  0  0  0  0  0  0  0  0
  128.5120  128.2710   65.9480 C   0  0  0  0  0  0  0  0  0  0  0  0
  127.9970  129.5200   66.5190 C   0  0  0  0  0  0  0  0  0  0  0  0
  127.5890  130.5040   66.9720 N   0  0  0  0  0  0  0  0  0  0  0  0
  126.0410  125.2570   59.1710 C   0  0  0  0  0  0  0  0  0  0  0  0
  126.3240  124.2580   58.2430 C   0  0  0  0  0  0  0  0  0  0  0  0
  1  2  1  0
  2  3  1  0
  3  4  1  0
  4  5  2  0
  4  6  1  0
  6  7  2  0
  7  8  1  0
  8  9  2  0
  9 10  1  0
 10 11  1  0
 11 12  2  0
 11 13  1  0
 13 14  1  0
 14 15  1  0
 15 16  2  0
 16 17  1  0
 17 18  1  0
 18 19  2  0
 19 20  1  0
 20 21  2  0
 21 22  1  0
 22 23  1  0
 23 24  1  0
 24 25  1  0
 25 26  1  0
 26 27  1  0
 21 28  1  0
 28 29  2  0
 17 30  2  0
 30 31  1  0
 31 32  1  0
 32 33  2  0
 33 34  1  0
 34 35  2  0
 35 36  1  0
 36 37  1  0
 37 38  1  0
 38 39  1  0
 39 40  1  0
 40 41  1  0
 35 42  1  0
 42 43  2  0
 31 44  2  0
 44 45  1  0
 45 46  3  0
  9 47  1  0
 47 48  2  0
 48  6  1  0
 44 15  1  0
 29 18  1  0
 43 32  1  0
 27 22  1  0
 41 36  1  0
M  END
>  <Binding energies>  (8) 
[-7.58]

>  <Ligand effiencies>  (8) 
[-0.1546938775510204]

>  <Interactions>  (8) 
["V-A:GLU:543:C:4899, V-A:ILE:369:CG2:3233, V-A:LEU:475:CD1:4254, V-A:GLU:543:CD:4905, V-B:TYR:539:CE2:9845, V-B:ALA:541:CB:9861, V-B:PRO:540:CA:9852, V-B:GLU:543:C:9871, V-B:GLU:543:CD:9877, V-A:GLU:543:CB:4903, H-B:TYR:539:N:9839, V-B:TYR:539:CZ:9846, V-B:TYR:539:CD2:9843, V-B:TYR:539:CE1:9844, V-A:HIS:456:CE1:4066, V-B:HIS:456:CD2:9036, V-B:GLU:543:CG:9876, V-B:GLY:544:C:9881, V-B:HIS:456:CE1:9038, V-B:LYS:547:CE:9919, V-B:GLU:543:CB:9875, V-A:TRP:381:CZ2:3366, V-B:TYR:539:C:9836, H-B:TYR:539:OH:9847, V-A:TRP:381:CH2:3368, V-A:LYS:547:CE:4947, H-B:GLU:543:OE2:9879, H-B:GLU:543:OE1:9878, V-B:TYR:539:CD1:9842, V-B:PRO:540:N:9853, V-B:TYR:539:CG:9841, V-B:MET:535:CE:9804, H-B:ASP:366:OD1:8182, V-A:GLU:543:CG:4904, H-B:TYR:484:OH:9316"]

$$$$
2aa_Ghoteimi_2023
     RDKit          3D

 48 53  0  0  0  0  0  0  0  0999 V2000
  132.5800  131.4850   57.0090 C   0  0  0  0  0  0  0  0  0  0  0  0
  131.2030  131.7980   56.4140 C   0  0  0  0  0  0  0  0  0  0  0  0
  130.5240  132.7190   57.2580 O   0  0  0  0  0  0  0  0  0  0  0  0
  129.1930  132.5990   57.5020 C   0  0  0  0  0  0  0  0  0  0  0  0
  128.3230  132.8190   56.6530 O   0  0  0  0  0  0  0  0  0  0  0  0
  128.8850  132.1570   58.9040 C   0  0  0  0  0  0  0  0  0  0  0  0
  127.9940  132.8640   59.7240 C   0  0  0  0  0  0  0  0  0  0  0  0
  127.7260  132.4270   61.0180 C   0  0  0  0  0  0  0  0  0  0  0  0
  128.3470  131.2830   61.5210 C   0  0  0  0  0  0  0  0  0  0  0  0
  128.0000  130.9290   62.8400 N   0  0  0  0  0  0  0  0  0  0  0  0
  126.9550  131.3280   63.5960 C   0  0  0  0  0  0  0  0  0  0  0  0
  126.0630  132.0930   63.2250 O   0  0  0  0  0  0  0  0  0  0  0  0
  126.9230  130.7290   65.0080 C   0  0  0  0  0  0  0  0  0  0  0  0
  126.6920  129.3180   64.9270 O   0  0  0  0  0  0  0  0  0  0  0  0
  127.6300  128.4280   65.4340 C   0  0  0  0  0  0  0  0  0  0  0  0
  127.7280  128.3040   66.7870 N   0  0  0  0  0  0  0  0  0  0  0  0
  128.6320  127.4400   67.3150 C   0  0  0  0  0  0  0  0  0  0  0  0
  128.6870  127.3600   68.8080 C   0  0  0  0  0  0  0  0  0  0  0  0
  127.7400  126.6150   69.5190 C   0  0  0  0  0  0  0  0  0  0  0  0
  127.7910  126.5310   70.9080 C   0  0  0  0  0  0  0  0  0  0  0  0
  128.8000  127.1790   71.6380 C   0  0  0  0  0  0  0  0  0  0  0  0
  128.8580  127.1160   73.0350 N   0  0  0  0  0  0  0  0  0  0  0  0
  129.7840  126.1960   73.7260 C   0  0  0  0  0  0  0  0  0  0  0  0
  129.4670  126.0030   75.2240 C   0  0  0  0  0  0  0  0  0  0  0  0
  129.4200  127.2610   75.8770 O   0  0  0  0  0  0  0  0  0  0  0  0
  128.4130  128.0950   75.3250 C   0  0  0  0  0  0  0  0  0  0  0  0
  128.6990  128.3510   73.8300 C   0  0  0  0  0  0  0  0  0  0  0  0
  129.7330  127.9420   70.9220 C   0  0  0  0  0  0  0  0  0  0  0  0
  129.6800  128.0280   69.5340 C   0  0  0  0  0  0  0  0  0  0  0  0
  129.4760  126.6860   66.4950 C   0  0  0  0  0  0  0  0  0  0  0  0
  129.4030  126.8040   65.1010 C   0  0  0  0  0  0  0  0  0  0  0  0
  130.3490  125.9910   64.2770 C   0  0  0  0  0  0  0  0  0  0  0  0
  131.1420  126.6040   63.3040 C   0  0  0  0  0  0  0  0  0  0  0  0
  132.0110  125.8500   62.5200 C   0  0  0  0  0  0  0  0  0  0  0  0
  132.1000  124.4580   62.6760 C   0  0  0  0  0  0  0  0  0  0  0  0
  132.9680  123.6820   61.9020 N   0  0  0  0  0  0  0  0  0  0  0  0
  133.0980  123.8930   60.4480 C   0  0  0  0  0  0  0  0  0  0  0  0
  134.3360  123.2050   59.8350 C   0  0  0  0  0  0  0  0  0  0  0  0
  134.3240  121.8200   60.1460 O   0  0  0  0  0  0  0  0  0  0  0  0
  134.3470  121.5990   61.5480 C   0  0  0  0  0  0  0  0  0  0  0  0
  133.1090  122.2440   62.2050 C   0  0  0  0  0  0  0  0  0  0  0  0
  131.3050  123.8540   63.6590 C   0  0  0  0  0  0  0  0  0  0  0  0
  130.4380  124.6070   64.4440 C   0  0  0  0  0  0  0  0  0  0  0  0
  128.4430  127.6890   64.5570 C   0  0  0  0  0  0  0  0  0  0  0  0
  128.2610  127.8390   63.1110 C   0  0  0  0  0  0  0  0  0  0  0  0
  128.1180  127.9570   61.9690 N   0  0  0  0  0  0  0  0  0  0  0  0
  129.2330  130.5660   60.7050 C   0  0  0  0  0  0  0  0  0  0  0  0
  129.4970  131.0030   59.4100 C   0  0  0  0  0  0  0  0  0  0  0  0
  1  2  1  0
  2  3  1  0
  3  4  1  0
  4  5  2  0
  4  6  1  0
  6  7  2  0
  7  8  1  0
  8  9  2  0
  9 10  1  0
 10 11  1  0
 11 12  2  0
 11 13  1  0
 13 14  1  0
 14 15  1  0
 15 16  2  0
 16 17  1  0
 17 18  1  0
 18 19  2  0
 19 20  1  0
 20 21  2  0
 21 22  1  0
 22 23  1  0
 23 24  1  0
 24 25  1  0
 25 26  1  0
 26 27  1  0
 21 28  1  0
 28 29  2  0
 17 30  2  0
 30 31  1  0
 31 32  1  0
 32 33  2  0
 33 34  1  0
 34 35  2  0
 35 36  1  0
 36 37  1  0
 37 38  1  0
 38 39  1  0
 39 40  1  0
 40 41  1  0
 35 42  1  0
 42 43  2  0
 31 44  2  0
 44 45  1  0
 45 46  3  0
  9 47  1  0
 47 48  2  0
 48  6  1  0
 44 15  1  0
 29 18  1  0
 43 32  1  0
 27 22  1  0
 41 36  1  0
M  END
>  <Binding energies>  (9) 
[-9.2]

>  <Ligand effiencies>  (9) 
[-0.1877551020408163]

>  <Interactions>  (9) 
["V-A:ILE:369:CG1:3234, V-A:GLU:543:C:4899, V-A:ILE:369:CG2:3233, V-A:LEU:475:CD1:4254, V-A:GLU:543:CD:4905, V-B:GLU:543:CD:9877, V-B:HIS:456:CD2:9036, V-A:ARG:545:CZ:4923, V-B:GLY:544:C:9881, V-B:HIS:456:CE1:9038, V-A:ASP:366:CG:3209, V-A:ASP:366:CA:3206, V-B:LYS:547:CE:9919, V-A:ASP:366:CB:3208, V-A:ILE:369:CB:3232, H-B:TYR:539:OH:9847, V-A:GLY:454:CA:4045, V-A:LYS:547:CE:4947, H-A:LYS:547:NZ:4948, H-A:GLU:543:OE2:4907, V-A:PRO:540:CA:4880, V-A:PRO:540:CB:4882, V-A:GLU:543:CG:4904, V-B:LYS:547:CD:9918, V-A:TYR:539:C:4864, V-A:PRO:540:N:4881, V-A:TYR:539:CD2:4871, V-A:TYR:539:CE2:4873, V-A:LEU:363:CD1:3185, H-A:TYR:539:N:4867"]

$$$$
2b_Ghoteimi_2023
     RDKit          3D

 42 47  0  0  0  0  0  0  0  0999 V2000
  129.4420  122.3610   65.3400 N   0  0  0  0  0  0  0  0  0  0  0  0
  129.5000  123.2640   64.6180 C   0  0  0  0  0  0  0  0  0  0  0  0
  129.5730  124.4110   63.7090 C   0  0  0  0  0  0  0  0  0  0  0  0
  129.5760  125.7340   64.2170 C   0  0  0  0  0  0  0  0  0  0  0  0
  129.5080  126.0640   65.6720 C   0  0  0  0  0  0  0  0  0  0  0  0
  129.5120  127.3950   66.0930 C   0  0  0  0  0  0  0  0  0  0  0  0
  129.4500  127.7090   67.4480 C   0  0  0  0  0  0  0  0  0  0  0  0
  129.4000  126.6980   68.4200 C   0  0  0  0  0  0  0  0  0  0  0  0
  129.3240  126.9870   69.7840 N   0  0  0  0  0  0  0  0  0  0  0  0
  129.1330  125.8820   70.7440 C   0  0  0  0  0  0  0  0  0  0  0  0
  128.6910  126.3570   72.1440 C   0  0  0  0  0  0  0  0  0  0  0  0
  129.6080  127.3180   72.6460 O   0  0  0  0  0  0  0  0  0  0  0  0
  129.6910  128.4550   71.8020 C   0  0  0  0  0  0  0  0  0  0  0  0
  130.1680  128.0320   70.3970 C   0  0  0  0  0  0  0  0  0  0  0  0
  129.4000  125.3650   67.9880 C   0  0  0  0  0  0  0  0  0  0  0  0
  129.4580  125.0510   66.6330 C   0  0  0  0  0  0  0  0  0  0  0  0
  129.6520  126.7980   63.3100 C   0  0  0  0  0  0  0  0  0  0  0  0
  129.7560  126.5510   61.9380 C   0  0  0  0  0  0  0  0  0  0  0  0
  129.8710  127.6510   60.9300 C   0  0  0  0  0  0  0  0  0  0  0  0
  130.9010  128.5930   61.0170 C   0  0  0  0  0  0  0  0  0  0  0  0
  131.0230  129.6100   60.0730 C   0  0  0  0  0  0  0  0  0  0  0  0
  130.1110  129.7290   59.0130 C   0  0  0  0  0  0  0  0  0  0  0  0
  130.2390  130.7270   58.0400 N   0  0  0  0  0  0  0  0  0  0  0  0
  129.1400  131.6910   57.8250 C   0  0  0  0  0  0  0  0  0  0  0  0
  129.2470  132.4630   56.4920 C   0  0  0  0  0  0  0  0  0  0  0  0
  130.5100  133.1030   56.4020 O   0  0  0  0  0  0  0  0  0  0  0  0
  131.5720  132.1650   56.4420 C   0  0  0  0  0  0  0  0  0  0  0  0
  131.5350  131.3800   57.7710 C   0  0  0  0  0  0  0  0  0  0  0  0
  129.0840  128.7780   58.9260 C   0  0  0  0  0  0  0  0  0  0  0  0
  128.9640  127.7610   59.8680 C   0  0  0  0  0  0  0  0  0  0  0  0
  129.7550  125.2840   61.4530 N   0  0  0  0  0  0  0  0  0  0  0  0
  129.6480  124.2390   62.3080 C   0  0  0  0  0  0  0  0  0  0  0  0
  129.6580  122.6530   61.5010 S   0  0  0  0  0  0  0  0  0  0  0  0
  131.3860  122.2490   61.1060 C   0  0  0  0  0  0  0  0  0  0  0  0
  132.3370  122.6130   62.2470 C   0  0  0  0  0  0  0  0  0  0  0  0
  133.0140  121.7280   62.7740 O   0  0  0  0  0  0  0  0  0  0  0  0
  132.3520  123.9170   62.5980 N   0  0  0  0  0  0  0  0  0  0  0  0
  133.1240  124.5140   63.5850 C   0  0  0  0  0  0  0  0  0  0  0  0
  132.6600  124.7390   64.8800 C   0  0  0  0  0  0  0  0  0  0  0  0
  133.7090  125.3400   65.5360 C   0  0  0  0  0  0  0  0  0  0  0  0
  134.7500  125.4690   64.6810 O   0  0  0  0  0  0  0  0  0  0  0  0
  134.3680  124.9400   63.4460 N   0  0  0  0  0  0  0  0  0  0  0  0
  1  2  3  0
  2  3  1  0
  3  4  2  0
  4  5  1  0
  5  6  2  0
  6  7  1  0
  7  8  2  0
  8  9  1  0
  9 10  1  0
 10 11  1  0
 11 12  1  0
 12 13  1  0
 13 14  1  0
  8 15  1  0
 15 16  2  0
  4 17  1  0
 17 18  2  0
 18 19  1  0
 19 20  2  0
 20 21  1  0
 21 22  2  0
 22 23  1  0
 23 24  1  0
 24 25  1  0
 25 26  1  0
 26 27  1  0
 27 28  1  0
 22 29  1  0
 29 30  2  0
 18 31  1  0
 31 32  2  0
 32 33  1  0
 33 34  1  0
 34 35  1  0
 35 36  2  0
 35 37  1  0
 37 38  1  0
 38 39  1  0
 39 40  2  0
 40 41  1  0
 41 42  1  0
 32  3  1  0
 42 38  2  0
 16  5  1  0
 30 19  1  0
 14  9  1  0
 28 23  1  0
M  END
>  <Binding energies>  (10) 
[-10.34]

>  <Ligand effiencies>  (10) 
[-0.24046511627906977]

>  <Interactions>  (10) 
["V-A:GLU:543:C:4899, V-A:LEU:475:CD1:4254, V-A:GLU:543:CD:4905, V-B:TYR:539:CE2:9845, V-B:ALA:541:CB:9861, V-B:GLU:543:C:9871, V-B:GLU:543:CD:9877, V-A:GLU:543:CB:4903, V-B:TYR:539:CZ:9846, V-A:HIS:456:CD2:4064, V-B:TYR:539:CD2:9843, V-A:HIS:456:CE1:4066, V-B:HIS:456:CD2:9036, V-A:ARG:545:CZ:4923, V-B:GLU:543:CG:9876, V-A:ASP:366:CG:3209, V-B:LYS:547:CE:9919, V-B:GLU:543:CB:9875, H-A:TYR:484:OH:4344, V-A:GLY:454:CA:4045, V-B:GLU:543:CA:9873, H-A:ARG:545:NH2:4925, H-A:ARG:545:NE:4921, V-A:ARG:545:CG:4919, V-A:ARG:545:CD:4920, V-A:TYR:484:CE1:4341, H-A:LYS:547:NZ:4948, H-A:GLY:454:N:4046, H-A:ARG:545:NH1:4924, V-A:PRO:540:CA:4880, V-A:PRO:540:CB:4882, V-A:TYR:539:C:4864, V-A:PRO:540:N:4881, V-A:TYR:539:CD2:4871, V-A:TYR:539:CE2:4873, V-A:PRO:540:CD:4884, V-A:ILE:538:CG2:4860, H-A:TYR:539:N:4867"]

$$$$
2c_Ghoteimi_2023
     RDKit          3D

 42 47  0  0  0  0  0  0  0  0999 V2000
  131.4560  124.4570   59.3090 N   0  0  0  0  0  0  0  0  0  0  0  0
  131.2360  124.7650   60.4020 C   0  0  0  0  0  0  0  0  0  0  0  0
  130.9540  125.1610   61.7850 C   0  0  0  0  0  0  0  0  0  0  0  0
  130.5450  126.4840   62.0880 C   0  0  0  0  0  0  0  0  0  0  0  0
  130.3740  127.5570   61.0620 C   0  0  0  0  0  0  0  0  0  0  0  0
  131.0030  128.7920   61.2260 C   0  0  0  0  0  0  0  0  0  0  0  0
  130.8520  129.7960   60.2730 C   0  0  0  0  0  0  0  0  0  0  0  0
  130.0550  129.5970   59.1350 C   0  0  0  0  0  0  0  0  0  0  0  0
  129.9060  130.5820   58.1560 N   0  0  0  0  0  0  0  0  0  0  0  0
  128.6460  131.3480   58.0880 C   0  0  0  0  0  0  0  0  0  0  0  0
  128.4640  132.1060   56.7560 C   0  0  0  0  0  0  0  0  0  0  0  0
  129.5820  132.9480   56.5190 O   0  0  0  0  0  0  0  0  0  0  0  0
  130.7900  132.2070   56.4390 C   0  0  0  0  0  0  0  0  0  0  0  0
  131.0320  131.4510   57.7620 C   0  0  0  0  0  0  0  0  0  0  0  0
  129.4240  128.3540   58.9810 C   0  0  0  0  0  0  0  0  0  0  0  0
  129.5770  127.3500   59.9330 C   0  0  0  0  0  0  0  0  0  0  0  0
  130.2840  126.8120   63.4240 C   0  0  0  0  0  0  0  0  0  0  0  0
  130.4010  125.8450   64.4270 C   0  0  0  0  0  0  0  0  0  0  0  0
  130.1170  126.1400   65.8650 C   0  0  0  0  0  0  0  0  0  0  0  0
  130.5820  127.3180   66.4570 C   0  0  0  0  0  0  0  0  0  0  0  0
  130.3160  127.6020   67.7950 C   0  0  0  0  0  0  0  0  0  0  0  0
  129.5840  126.7090   68.5940 C   0  0  0  0  0  0  0  0  0  0  0  0
  129.2870  126.9900   69.9310 N   0  0  0  0  0  0  0  0  0  0  0  0
  129.0170  125.8840   70.8730 C   0  0  0  0  0  0  0  0  0  0  0  0
  128.3380  126.3380   72.1820 C   0  0  0  0  0  0  0  0  0  0  0  0
  129.1100  127.3510   72.8040 O   0  0  0  0  0  0  0  0  0  0  0  0
  129.2410  128.4900   71.9690 C   0  0  0  0  0  0  0  0  0  0  0  0
  129.9430  128.1020   70.6500 C   0  0  0  0  0  0  0  0  0  0  0  0
  129.1090  125.5350   67.9920 C   0  0  0  0  0  0  0  0  0  0  0  0
  129.3740  125.2530   66.6540 C   0  0  0  0  0  0  0  0  0  0  0  0
  130.7900  124.5770   64.1340 N   0  0  0  0  0  0  0  0  0  0  0  0
  131.0780  124.2440   62.8530 C   0  0  0  0  0  0  0  0  0  0  0  0
  131.5820  122.5500   62.6550 S   0  0  0  0  0  0  0  0  0  0  0  0
  130.0890  121.5760   62.2960 C   0  0  0  0  0  0  0  0  0  0  0  0
  129.1340  122.3140   61.3570 C   0  0  0  0  0  0  0  0  0  0  0  0
  128.4680  123.2560   61.7910 O   0  0  0  0  0  0  0  0  0  0  0  0
  129.0930  121.8550   60.0880 N   0  0  0  0  0  0  0  0  0  0  0  0
  128.3270  122.3590   59.0480 C   0  0  0  0  0  0  0  0  0  0  0  0
  127.8500  121.7100   58.0080 N   0  0  0  0  0  0  0  0  0  0  0  0
  127.1570  122.5040   57.2170 C   0  0  0  0  0  0  0  0  0  0  0  0
  127.0610  123.8350   57.6120 C   0  0  0  0  0  0  0  0  0  0  0  0
  127.9290  124.0460   59.1030 S   0  0  0  0  0  0  0  0  0  0  0  0
  1  2  3  0
  2  3  1  0
  3  4  2  0
  4  5  1  0
  5  6  2  0
  6  7  1  0
  7  8  2  0
  8  9  1  0
  9 10  1  0
 10 11  1  0
 11 12  1  0
 12 13  1  0
 13 14  1  0
  8 15  1  0
 15 16  2  0
  4 17  1  0
 17 18  2  0
 18 19  1  0
 19 20  2  0
 20 21  1  0
 21 22  2  0
 22 23  1  0
 23 24  1  0
 24 25  1  0
 25 26  1  0
 26 27  1  0
 27 28  1  0
 22 29  1  0
 29 30  2  0
 18 31  1  0
 31 32  2  0
 32 33  1  0
 33 34  1  0
 34 35  1  0
 35 36  2  0
 35 37  1  0
 37 38  1  0
 38 39  2  0
 39 40  1  0
 40 41  2  0
 41 42  1  0
 32  3  1  0
 42 38  1  0
 16  5  1  0
 30 19  1  0
 14  9  1  0
 28 23  1  0
M  END
>  <Binding energies>  (11) 
[-9.37]

>  <Ligand effiencies>  (11) 
[-0.21790697674418602]

>  <Interactions>  (11) 
["V-A:GLU:543:C:4899, V-A:LEU:475:CD1:4254, V-A:GLU:543:CD:4905, V-B:TYR:539:CE2:9845, V-B:ALA:541:CB:9861, V-B:PRO:540:CA:9852, V-B:GLU:543:C:9871, V-B:GLU:543:CD:9877, V-A:GLU:543:CB:4903, H-B:TYR:539:N:9839, V-B:TYR:539:CZ:9846, V-A:HIS:456:CD2:4064, V-B:TYR:539:CD2:9843, V-A:HIS:456:CE1:4066, V-B:HIS:456:CD2:9036, V-B:GLU:543:CG:9876, V-A:ASP:366:CG:3209, V-B:LYS:547:CE:9919, V-B:GLU:543:CB:9875, V-B:TYR:539:C:9836, H-B:TYR:539:OH:9847, V-B:GLU:543:CA:9873, V-A:TYR:484:CE1:4341, H-A:LYS:547:NZ:4948, V-B:PRO:540:N:9853, H-B:TYR:539:O:9837, V-A:PRO:540:CA:4880, V-A:PRO:540:CB:4882, V-A:TYR:539:C:4864, V-A:PRO:540:N:4881, V-A:TYR:539:CD2:4871, V-A:TYR:539:CE2:4873, H-A:TYR:539:N:4867"]

$$$$
2j_Grossjean_2025
     RDKit          3D

 23 24  0  0  0  0  0  0  0  0999 V2000
  135.0680  123.5840   60.8110 C   0  0  0  0  0  0  0  0  0  0  0  0
  133.8500  123.3410   61.6830 C   0  0  0  0  0  0  0  0  0  0  0  0
  132.9150  122.3580   61.3720 C   0  0  0  0  0  0  0  0  0  0  0  0
  131.8070  122.1680   62.2110 C   0  0  0  0  0  0  0  0  0  0  0  0
  130.7820  121.0750   61.8530 C   0  0  0  0  0  0  0  0  0  0  0  0
  129.8490  121.5730   61.0410 F   0  0  0  0  0  0  0  0  0  0  0  0
  131.3930  120.0600   61.2400 F   0  0  0  0  0  0  0  0  0  0  0  0
  130.1600  120.5800   62.9250 F   0  0  0  0  0  0  0  0  0  0  0  0
  131.6760  122.9940   63.3560 C   0  0  0  0  0  0  0  0  0  0  0  0
  130.5380  122.8410   64.2680 C   0  0  0  0  0  0  0  0  0  0  0  0
  129.6400  122.7190   64.9880 N   0  0  0  0  0  0  0  0  0  0  0  0
  132.6740  123.9700   63.5950 C   0  0  0  0  0  0  0  0  0  0  0  0
  132.6130  125.0640   65.0070 S   0  0  0  0  0  0  0  0  0  0  0  0
  130.9520  125.8180   65.0790 C   0  0  0  0  0  0  0  0  0  0  0  0
  130.2620  125.7300   66.4470 C   0  0  0  0  0  0  0  0  0  0  0  0
  129.6710  124.7030   66.7900 O   0  0  0  0  0  0  0  0  0  0  0  0
  130.3530  126.8490   67.2010 N   0  0  0  0  0  0  0  0  0  0  0  0
  129.8240  127.0390   68.4710 C   0  0  0  0  0  0  0  0  0  0  0  0
  130.3420  127.7270   69.4650 N   0  0  0  0  0  0  0  0  0  0  0  0
  129.5660  127.6980   70.5310 C   0  0  0  0  0  0  0  0  0  0  0  0
  128.3850  126.9710   70.4130 C   0  0  0  0  0  0  0  0  0  0  0  0
  128.2970  126.2930   68.8150 S   0  0  0  0  0  0  0  0  0  0  0  0
  133.7400  124.1360   62.7720 N   0  0  0  0  0  0  0  0  0  0  0  0
  1  2  1  0
  2  3  2  0
  3  4  1  0
  4  5  1  0
  5  6  1  0
  5  7  1  0
  5  8  1  0
  4  9  2  0
  9 10  1  0
 10 11  3  0
  9 12  1  0
 12 13  1  0
 13 14  1  0
 14 15  1  0
 15 16  2  0
 15 17  1  0
 17 18  1  0
 18 19  2  0
 19 20  1  0
 20 21  2  0
 21 22  1  0
 12 23  2  0
 23  2  1  0
 22 18  1  0
M  END
>  <Binding energies>  (12) 
[-6.0]

>  <Ligand effiencies>  (12) 
[-0.25]

>  <Interactions>  (12) 
["V-A:ILE:369:CG1:3234, V-A:LEU:475:CD1:4254, V-B:TYR:539:CE2:9845, V-B:ALA:541:CB:9861, V-B:GLU:543:C:9871, V-B:TYR:539:CD2:9843, V-A:HIS:456:CE1:4066, V-B:HIS:456:CD2:9036, V-B:HIS:456:CE1:9038, V-A:ASP:366:CG:3209, V-A:ASP:366:CA:3206, V-A:ILE:369:CB:3232, V-B:GLU:543:CB:9875, H-A:TYR:484:OH:4344, V-A:GLY:453:C:4038, V-A:GLY:454:CA:4045, V-A:GLY:453:CA:4040, V-A:TYR:484:CE1:4341, H-A:GLU:543:OE1:4906, H-A:GLY:454:N:4046, V-A:LEU:475:CD2:4255, V-A:LEU:475:CG:4253"]

$$$$
3ab_Grossjean_2025
     RDKit          3D

 33 35  0  0  0  0  0  0  0  0999 V2000
  128.3590  129.3260   73.6450 C   0  0  0  0  0  0  0  0  0  0  0  0
  129.3270  128.7880   72.7550 O   0  0  0  0  0  0  0  0  0  0  0  0
  129.3280  127.4670   72.4400 C   0  0  0  0  0  0  0  0  0  0  0  0
  129.4810  126.5690   73.2730 O   0  0  0  0  0  0  0  0  0  0  0  0
  129.1230  127.2060   70.9760 C   0  0  0  0  0  0  0  0  0  0  0  0
  128.0350  126.4580   70.5000 C   0  0  0  0  0  0  0  0  0  0  0  0
  127.8690  126.2320   69.1360 C   0  0  0  0  0  0  0  0  0  0  0  0
  128.7940  126.7540   68.2190 C   0  0  0  0  0  0  0  0  0  0  0  0
  128.7220  126.5950   66.8220 N   0  0  0  0  0  0  0  0  0  0  0  0
  129.7110  126.4780   65.9110 C   0  0  0  0  0  0  0  0  0  0  0  0
  130.9170  126.5070   66.1570 O   0  0  0  0  0  0  0  0  0  0  0  0
  129.2510  126.3000   64.4630 C   0  0  0  0  0  0  0  0  0  0  0  0
  130.5720  126.6830   63.2730 S   0  0  0  0  0  0  0  0  0  0  0  0
  130.8630  125.2150   62.3080 C   0  0  0  0  0  0  0  0  0  0  0  0
  129.8180  124.8700   61.5190 N   0  0  0  0  0  0  0  0  0  0  0  0
  129.9040  123.7730   60.7230 C   0  0  0  0  0  0  0  0  0  0  0  0
  128.7050  123.4610   59.8780 C   0  0  0  0  0  0  0  0  0  0  0  0
  127.4100  123.7570   60.3320 C   0  0  0  0  0  0  0  0  0  0  0  0
  126.2930  123.4710   59.5510 C   0  0  0  0  0  0  0  0  0  0  0  0
  126.4560  122.8810   58.3020 C   0  0  0  0  0  0  0  0  0  0  0  0
  127.7280  122.5740   57.8300 C   0  0  0  0  0  0  0  0  0  0  0  0
  128.8420  122.8620   58.6140 C   0  0  0  0  0  0  0  0  0  0  0  0
  131.0560  122.9770   60.7230 C   0  0  0  0  0  0  0  0  0  0  0  0
  132.1440  123.3030   61.5460 C   0  0  0  0  0  0  0  0  0  0  0  0
  133.3910  122.3980   61.5200 C   0  0  0  0  0  0  0  0  0  0  0  0
  133.2610  121.3620   60.6890 F   0  0  0  0  0  0  0  0  0  0  0  0
  134.4570  123.0950   61.1250 F   0  0  0  0  0  0  0  0  0  0  0  0
  133.6230  121.9090   62.7390 F   0  0  0  0  0  0  0  0  0  0  0  0
  132.0490  124.4510   62.3720 C   0  0  0  0  0  0  0  0  0  0  0  0
  133.1340  124.8030   63.2920 C   0  0  0  0  0  0  0  0  0  0  0  0
  133.9920  125.0790   64.0180 N   0  0  0  0  0  0  0  0  0  0  0  0
  129.8740  127.5040   68.6890 C   0  0  0  0  0  0  0  0  0  0  0  0
  130.0380  127.7270   70.0520 C   0  0  0  0  0  0  0  0  0  0  0  0
  1  2  1  0
  2  3  1  0
  3  4  2  0
  3  5  1  0
  5  6  2  0
  6  7  1  0
  7  8  2  0
  8  9  1  0
  9 10  1  0
 10 11  2  0
 10 12  1  0
 12 13  1  0
 13 14  1  0
 14 15  2  0
 15 16  1  0
 16 17  1  0
 17 18  2  0
 18 19  1  0
 19 20  2  0
 20 21  1  0
 21 22  2  0
 16 23  2  0
 23 24  1  0
 24 25  1  0
 25 26  1  0
 25 27  1  0
 25 28  1  0
 24 29  2  0
 29 30  1  0
 30 31  3  0
  8 32  1  0
 32 33  2  0
 33  5  1  0
 29 14  1  0
 22 17  1  0
M  END
>  <Binding energies>  (13) 
[-8.51]

>  <Ligand effiencies>  (13) 
[-0.25029411764705883]

>  <Interactions>  (13) 
["V-A:ILE:369:CG1:3234, V-A:ILE:369:CG2:3233, V-A:LEU:475:CD1:4254, V-B:TYR:539:CE2:9845, V-B:PRO:540:CA:9852, V-B:GLU:543:C:9871, V-B:GLU:543:CD:9877, V-B:TYR:539:CZ:9846, V-B:TYR:539:CD2:9843, V-B:TYR:539:CE1:9844, V-A:HIS:456:CE1:4066, V-B:HIS:456:CD2:9036, V-A:ARG:545:CZ:4923, V-B:GLU:543:CG:9876, V-B:GLY:544:C:9881, V-B:HIS:456:CE1:9038, V-A:ILE:369:CB:3232, V-B:GLU:543:CB:9875, V-B:TYR:539:C:9836, V-A:GLY:454:CA:4045, V-A:LYS:547:CE:4947, H-A:ARG:545:NH2:4925, H-A:ARG:545:NE:4921, H-A:LYS:547:NZ:4948, H-B:GLU:543:OE1:9878, V-B:PRO:540:N:9853, H-A:GLY:454:N:4046, H-A:ARG:545:NH1:4924, V-B:PRO:540:CB:9854"]

$$$$
3ac_Grossjean_2025
     RDKit          3D

 31 33  0  0  0  0  0  0  0  0999 V2000
  128.3520  127.9060   73.1920 C   0  0  0  0  0  0  0  0  0  0  0  0
  129.5380  127.6170   72.4580 O   0  0  0  0  0  0  0  0  0  0  0  0
  129.4420  127.3180   71.1120 C   0  0  0  0  0  0  0  0  0  0  0  0
  130.3600  127.9440   70.2690 C   0  0  0  0  0  0  0  0  0  0  0  0
  130.3430  127.7010   68.8990 C   0  0  0  0  0  0  0  0  0  0  0  0
  129.3990  126.8330   68.3490 C   0  0  0  0  0  0  0  0  0  0  0  0
  129.4740  126.6340   66.9580 N   0  0  0  0  0  0  0  0  0  0  0  0
  130.5500  126.7020   66.1450 C   0  0  0  0  0  0  0  0  0  0  0  0
  131.7060  126.9180   66.5110 O   0  0  0  0  0  0  0  0  0  0  0  0
  130.2680  126.4850   64.6580 C   0  0  0  0  0  0  0  0  0  0  0  0
  129.8250  124.7600   64.2870 S   0  0  0  0  0  0  0  0  0  0  0  0
  130.7270  124.2370   62.8410 C   0  0  0  0  0  0  0  0  0  0  0  0
  129.9280  123.9810   61.7770 N   0  0  0  0  0  0  0  0  0  0  0  0
  130.4740  123.5790   60.6010 C   0  0  0  0  0  0  0  0  0  0  0  0
  129.5190  123.3110   59.4760 C   0  0  0  0  0  0  0  0  0  0  0  0
  128.5020  122.3510   59.6100 C   0  0  0  0  0  0  0  0  0  0  0  0
  127.6090  122.1010   58.5720 C   0  0  0  0  0  0  0  0  0  0  0  0
  127.7230  122.8090   57.3790 C   0  0  0  0  0  0  0  0  0  0  0  0
  128.7240  123.7610   57.2180 C   0  0  0  0  0  0  0  0  0  0  0  0
  129.6150  124.0070   58.2590 C   0  0  0  0  0  0  0  0  0  0  0  0
  131.8560  123.4060   60.4750 C   0  0  0  0  0  0  0  0  0  0  0  0
  132.7040  123.6410   61.5670 C   0  0  0  0  0  0  0  0  0  0  0  0
  134.2200  123.4330   61.3860 C   0  0  0  0  0  0  0  0  0  0  0  0
  134.6280  122.2260   61.7840 F   0  0  0  0  0  0  0  0  0  0  0  0
  134.5530  123.5600   60.1000 F   0  0  0  0  0  0  0  0  0  0  0  0
  134.8900  124.3400   62.0970 F   0  0  0  0  0  0  0  0  0  0  0  0
  132.1290  124.0560   62.7950 C   0  0  0  0  0  0  0  0  0  0  0  0
  132.9650  124.2390   63.9830 C   0  0  0  0  0  0  0  0  0  0  0  0
  133.6260  124.3830   64.9220 N   0  0  0  0  0  0  0  0  0  0  0  0
  128.4760  126.1930   69.1920 C   0  0  0  0  0  0  0  0  0  0  0  0
  128.4970  126.4380   70.5620 C   0  0  0  0  0  0  0  0  0  0  0  0
  1  2  1  0
  2  3  1  0
  3  4  2  0
  4  5  1  0
  5  6  2  0
  6  7  1  0
  7  8  1  0
  8  9  2  0
  8 10  1  0
 10 11  1  0
 11 12  1  0
 12 13  2  0
 13 14  1  0
 14 15  1  0
 15 16  2  0
 16 17  1  0
 17 18  2  0
 18 19  1  0
 19 20  2  0
 14 21  2  0
 21 22  1  0
 22 23  1  0
 23 24  1  0
 23 25  1  0
 23 26  1  0
 22 27  2  0
 27 28  1  0
 28 29  3  0
  6 30  1  0
 30 31  2  0
 31  3  1  0
 27 12  1  0
 20 15  1  0
M  END
>  <Binding energies>  (14) 
[-8.08]

>  <Ligand effiencies>  (14) 
[-0.2525]

>  <Interactions>  (14) 
["V-A:ILE:369:CG1:3234, V-A:GLU:543:C:4899, V-A:ILE:369:CG2:3233, V-A:GLU:543:CD:4905, V-B:TYR:539:CE2:9845, V-B:PRO:540:CA:9852, V-B:GLU:543:C:9871, V-A:GLU:543:CB:4903, V-B:TYR:539:CZ:9846, V-B:TYR:539:CD2:9843, V-B:TYR:539:CE1:9844, V-A:HIS:456:CE1:4066, V-B:HIS:456:CD2:9036, V-A:ASP:366:CG:3209, V-A:ASP:366:CA:3206, V-A:ASP:366:CB:3208, V-A:ILE:369:CB:3232, V-B:GLU:543:CB:9875, H-A:TYR:484:OH:4344, V-A:GLY:453:C:4038, V-B:TYR:539:C:9836, V-A:GLY:454:CA:4045, H-A:ARG:545:NE:4921, V-A:GLY:453:CA:4040, V-A:GLY:544:C:4909, H-A:LYS:547:NZ:4948, H-B:GLU:543:OE1:9878, V-B:PRO:540:N:9853, H-A:GLY:454:N:4046"]

$$$$
3af_Grossjean_2025
     RDKit          3D

 29 31  0  0  0  0  0  0  0  0999 V2000
  133.3400  124.2750   64.2800 N   0  0  0  0  0  0  0  0  0  0  0  0
  132.5440  124.0560   63.4690 C   0  0  0  0  0  0  0  0  0  0  0  0
  131.5380  123.7790   62.4410 C   0  0  0  0  0  0  0  0  0  0  0  0
  131.9240  123.5280   61.1020 C   0  0  0  0  0  0  0  0  0  0  0  0
  133.3980  123.4810   60.6550 C   0  0  0  0  0  0  0  0  0  0  0  0
  133.5670  123.8480   59.3830 F   0  0  0  0  0  0  0  0  0  0  0  0
  134.1290  124.3020   61.4100 F   0  0  0  0  0  0  0  0  0  0  0  0
  133.8740  122.2410   60.7770 F   0  0  0  0  0  0  0  0  0  0  0  0
  130.9210  123.3210   60.1420 C   0  0  0  0  0  0  0  0  0  0  0  0
  129.5720  123.3670   60.5090 C   0  0  0  0  0  0  0  0  0  0  0  0
  128.4600  123.1720   59.5210 C   0  0  0  0  0  0  0  0  0  0  0  0
  128.7250  122.6980   58.2260 C   0  0  0  0  0  0  0  0  0  0  0  0
  127.6970  122.5130   57.3060 C   0  0  0  0  0  0  0  0  0  0  0  0
  126.3860  122.8000   57.6700 C   0  0  0  0  0  0  0  0  0  0  0  0
  126.0950  123.2680   58.9470 C   0  0  0  0  0  0  0  0  0  0  0  0
  127.1270  123.4510   59.8650 C   0  0  0  0  0  0  0  0  0  0  0  0
  129.2060  123.6110   61.7920 N   0  0  0  0  0  0  0  0  0  0  0  0
  130.1570  123.7910   62.7410 C   0  0  0  0  0  0  0  0  0  0  0  0
  129.4860  124.0840   64.3650 S   0  0  0  0  0  0  0  0  0  0  0  0
  129.4900  125.8790   64.6600 C   0  0  0  0  0  0  0  0  0  0  0  0
  129.7860  126.2140   66.1220 C   0  0  0  0  0  0  0  0  0  0  0  0
  130.9560  126.3490   66.4800 O   0  0  0  0  0  0  0  0  0  0  0  0
  128.7020  126.3290   66.9200 N   0  0  0  0  0  0  0  0  0  0  0  0
  128.6270  126.6180   68.2960 C   0  0  0  0  0  0  0  0  0  0  0  0
  127.5780  126.2460   69.1570 C   0  0  0  0  0  0  0  0  0  0  0  0
  127.6330  126.6020   70.5070 C   0  0  0  0  0  0  0  0  0  0  0  0
  128.7360  127.3230   70.9630 C   0  0  0  0  0  0  0  0  0  0  0  0
  129.7600  127.6940   70.1540 N   0  0  0  0  0  0  0  0  0  0  0  0
  129.6920  127.3400   68.8460 C   0  0  0  0  0  0  0  0  0  0  0  0
  1  2  3  0
  2  3  1  0
  3  4  2  0
  4  5  1  0
  5  6  1  0
  5  7  1  0
  5  8  1  0
  4  9  1  0
  9 10  2  0
 10 11  1  0
 11 12  2  0
 12 13  1  0
 13 14  2  0
 14 15  1  0
 15 16  2  0
 10 17  1  0
 17 18  2  0
 18 19  1  0
 19 20  1  0
 20 21  1  0
 21 22  2  0
 21 23  1  0
 23 24  1  0
 24 25  2  0
 25 26  1  0
 26 27  2  0
 27 28  1  0
 28 29  2  0
 18  3  1  0
 29 24  1  0
 16 11  1  0
M  END
>  <Binding energies>  (15) 
[-7.3]

>  <Ligand effiencies>  (15) 
[-0.24333333333333332]

>  <Interactions>  (15) 
["V-A:ILE:369:CG1:3234, V-A:ILE:369:CG2:3233, V-B:TYR:539:CE2:9845, V-B:PRO:540:CA:9852, V-B:GLU:543:C:9871, V-B:GLU:543:CD:9877, V-B:TYR:539:CZ:9846, V-B:TYR:539:CD2:9843, V-B:TYR:539:CE1:9844, V-A:HIS:456:CE1:4066, V-B:HIS:456:CD2:9036, V-B:GLU:543:CG:9876, V-B:GLY:544:C:9881, V-B:HIS:456:CE1:9038, V-A:ASP:366:CG:3209, V-A:ASP:366:CA:3206, V-A:ASP:366:CB:3208, V-A:ILE:369:CB:3232, V-B:GLU:543:CB:9875, H-A:TYR:484:OH:4344, V-B:TYR:539:C:9836, H-B:GLU:543:OE1:9878, V-B:TYR:539:CD1:9842, V-B:PRO:540:N:9853, V-B:TYR:539:CG:9841, H-A:GLY:454:N:4046, V-B:PRO:540:CB:9854, V-B:PRO:540:CD:9856"]

$$$$
3ag_Grossjean_2025
     RDKit          3D

 30 32  0  0  0  0  0  0  0  0999 V2000
  127.7950  129.1280   61.0900 N   0  0  0  0  0  0  0  0  0  0  0  0
  127.9920  128.8380   62.1940 C   0  0  0  0  0  0  0  0  0  0  0  0
  128.2450  128.4690   63.5890 C   0  0  0  0  0  0  0  0  0  0  0  0
  128.9980  127.3120   63.9060 C   0  0  0  0  0  0  0  0  0  0  0  0
  129.6400  126.4150   62.8290 C   0  0  0  0  0  0  0  0  0  0  0  0
  128.7530  125.9500   61.9480 F   0  0  0  0  0  0  0  0  0  0  0  0
  130.5560  127.1060   62.1510 F   0  0  0  0  0  0  0  0  0  0  0  0
  130.2260  125.3610   63.3980 F   0  0  0  0  0  0  0  0  0  0  0  0
  129.1670  126.9700   65.2570 C   0  0  0  0  0  0  0  0  0  0  0  0
  128.5900  127.7550   66.2620 C   0  0  0  0  0  0  0  0  0  0  0  0
  128.7360  127.4360   67.7190 C   0  0  0  0  0  0  0  0  0  0  0  0
  129.7790  127.9940   68.4740 C   0  0  0  0  0  0  0  0  0  0  0  0
  129.9210  127.7020   69.8280 C   0  0  0  0  0  0  0  0  0  0  0  0
  129.0170  126.8440   70.4470 C   0  0  0  0  0  0  0  0  0  0  0  0
  127.9760  126.2760   69.7200 C   0  0  0  0  0  0  0  0  0  0  0  0
  127.8380  126.5690   68.3670 C   0  0  0  0  0  0  0  0  0  0  0  0
  127.8790  128.8700   65.9540 N   0  0  0  0  0  0  0  0  0  0  0  0
  127.7200  129.2300   64.6570 C   0  0  0  0  0  0  0  0  0  0  0  0
  126.7660  130.7160   64.4430 S   0  0  0  0  0  0  0  0  0  0  0  0
  127.9200  132.0370   63.9650 C   0  0  0  0  0  0  0  0  0  0  0  0
  127.9460  132.2620   62.4530 C   0  0  0  0  0  0  0  0  0  0  0  0
  126.9570  132.7270   61.8840 O   0  0  0  0  0  0  0  0  0  0  0  0
  129.0850  131.9340   61.8190 N   0  0  0  0  0  0  0  0  0  0  0  0
  129.3390  132.0990   60.3890 C   0  0  0  0  0  0  0  0  0  0  0  0
  130.7280  131.6510   59.9470 C   0  0  0  0  0  0  0  0  0  0  0  0
  131.0010  131.4730   58.5880 C   0  0  0  0  0  0  0  0  0  0  0  0
  132.2760  131.0930   58.1790 C   0  0  0  0  0  0  0  0  0  0  0  0
  133.2780  130.9020   59.1290 C   0  0  0  0  0  0  0  0  0  0  0  0
  133.0170  131.0930   60.4840 C   0  0  0  0  0  0  0  0  0  0  0  0
  131.7420  131.4730   60.8940 C   0  0  0  0  0  0  0  0  0  0  0  0
  1  2  3  0
  2  3  1  0
  3  4  2  0
  4  5  1  0
  5  6  1  0
  5  7  1  0
  5  8  1  0
  4  9  1  0
  9 10  2  0
 10 11  1  0
 11 12  2  0
 12 13  1  0
 13 14  2  0
 14 15  1  0
 15 16  2  0
 10 17  1  0
 17 18  2  0
 18 19  1  0
 19 20  1  0
 20 21  1  0
 21 22  2  0
 21 23  1  0
 23 24  1  0
 24 25  1  0
 25 26  2  0
 26 27  1  0
 27 28  2  0
 28 29  1  0
 29 30  2  0
 18  3  1  0
 30 25  1  0
 16 11  1  0
M  END
>  <Binding energies>  (16) 
[-7.46]

>  <Ligand effiencies>  (16) 
[-0.24064516129032257]

>  <Interactions>  (16) 
["V-A:GLU:543:CD:4905, V-B:GLU:543:C:9871, V-B:GLU:543:CD:9877, V-A:GLU:543:CB:4903, V-A:HIS:456:CE1:4066, V-B:GLY:544:C:9881, V-B:HIS:456:CE1:9038, V-A:ASP:366:CG:3209, V-B:GLU:543:CB:9875, H-A:GLU:543:OE2:4907, V-A:PRO:540:CA:4880, V-A:ASN:362:C:3168, V-A:PRO:540:CB:4882, V-A:LEU:363:CA:3181, V-A:ASN:362:CB:3172, V-A:GLU:543:CG:4904, V-A:ALA:541:CB:4889, H-B:TYR:484:OH:9316"]

$$$$
3bc_Grossjean_2025
     RDKit          3D

 28 30  0  0  0  0  0  0  0  0999 V2000
  128.3670  128.1690   73.3190 C   0  0  0  0  0  0  0  0  0  0  0  0
  129.4920  127.8090   72.5240 O   0  0  0  0  0  0  0  0  0  0  0  0
  129.2890  127.3880   71.2230 C   0  0  0  0  0  0  0  0  0  0  0  0
  130.2440  127.7830   70.2860 C   0  0  0  0  0  0  0  0  0  0  0  0
  130.1260  127.4080   68.9510 C   0  0  0  0  0  0  0  0  0  0  0  0
  129.0410  126.6350   68.5320 C   0  0  0  0  0  0  0  0  0  0  0  0
  129.0130  126.2940   67.1670 N   0  0  0  0  0  0  0  0  0  0  0  0
  130.0080  126.3420   66.2560 C   0  0  0  0  0  0  0  0  0  0  0  0
  131.1690  126.6750   66.5020 O   0  0  0  0  0  0  0  0  0  0  0  0
  129.6050  125.9000   64.8410 C   0  0  0  0  0  0  0  0  0  0  0  0
  129.7710  124.1140   64.5100 S   0  0  0  0  0  0  0  0  0  0  0  0
  130.3480  123.9220   62.8380 C   0  0  0  0  0  0  0  0  0  0  0  0
  129.3550  123.7140   61.9390 N   0  0  0  0  0  0  0  0  0  0  0  0
  129.6560  123.5530   60.6240 C   0  0  0  0  0  0  0  0  0  0  0  0
  128.5030  123.3070   59.6970 C   0  0  0  0  0  0  0  0  0  0  0  0
  127.1900  123.6120   60.0890 C   0  0  0  0  0  0  0  0  0  0  0  0
  126.1140  123.3860   59.2350 C   0  0  0  0  0  0  0  0  0  0  0  0
  126.3390  122.8480   57.9720 C   0  0  0  0  0  0  0  0  0  0  0  0
  127.6290  122.5340   57.5590 C   0  0  0  0  0  0  0  0  0  0  0  0
  128.7020  122.7610   58.4180 C   0  0  0  0  0  0  0  0  0  0  0  0
  130.9810  123.5980   60.1790 C   0  0  0  0  0  0  0  0  0  0  0  0
  132.0160  123.8340   61.0910 C   0  0  0  0  0  0  0  0  0  0  0  0
  133.4470  123.8920   60.5590 C   0  0  0  0  0  0  0  0  0  0  0  0
  131.7060  124.0130   62.4570 C   0  0  0  0  0  0  0  0  0  0  0  0
  132.7670  124.3100   63.4210 C   0  0  0  0  0  0  0  0  0  0  0  0
  133.6080  124.5440   64.1820 N   0  0  0  0  0  0  0  0  0  0  0  0
  128.0830  126.2220   69.4700 C   0  0  0  0  0  0  0  0  0  0  0  0
  128.2060  126.6000   70.8050 C   0  0  0  0  0  0  0  0  0  0  0  0
  1  2  1  0
  2  3  1  0
  3  4  2  0
  4  5  1  0
  5  6  2  0
  6  7  1  0
  7  8  1  0
  8  9  2  0
  8 10  1  0
 10 11  1  0
 11 12  1  0
 12 13  2  0
 13 14  1  0
 14 15  1  0
 15 16  2  0
 16 17  1  0
 17 18  2  0
 18 19  1  0
 19 20  2  0
 14 21  2  0
 21 22  1  0
 22 23  1  0
 22 24  2  0
 24 25  1  0
 25 26  3  0
  6 27  1  0
 27 28  2  0
 28  3  1  0
 24 12  1  0
 20 15  1  0
M  END
>  <Binding energies>  (17) 
[-8.38]

>  <Ligand effiencies>  (17) 
[-0.2889655172413793]

>  <Interactions>  (17) 
["V-B:TYR:539:CE2:9845, V-B:PRO:540:CA:9852, V-B:GLU:543:C:9871, V-B:GLU:543:CD:9877, V-B:TYR:539:CZ:9846, V-A:HIS:456:CD2:4064, V-B:TYR:539:CD2:9843, V-B:TYR:539:CE1:9844, V-A:HIS:456:CE1:4066, V-B:HIS:456:CD2:9036, V-B:GLU:543:CG:9876, V-B:HIS:456:CE1:9038, V-A:ASP:366:CG:3209, V-A:ASP:366:CB:3208, V-B:GLU:543:CB:9875, H-A:TYR:484:OH:4344, V-B:TYR:539:C:9836, H-A:LYS:547:NZ:4948, H-B:GLU:543:OE1:9878, V-B:PRO:540:N:9853, H-A:GLY:454:N:4046, V-B:PRO:540:CB:9854"]

$$$$
3bd_Grossjean_2025
     RDKit          3D

 26 28  0  0  0  0  0  0  0  0999 V2000
  133.4430  123.9000   60.1560 C   0  0  0  0  0  0  0  0  0  0  0  0
  132.0110  123.8840   60.6860 C   0  0  0  0  0  0  0  0  0  0  0  0
  130.9740  123.6170   59.7850 C   0  0  0  0  0  0  0  0  0  0  0  0
  129.6480  123.5970   60.2300 C   0  0  0  0  0  0  0  0  0  0  0  0
  128.4900  123.3130   59.3190 C   0  0  0  0  0  0  0  0  0  0  0  0
  127.1710  123.5310   59.7460 C   0  0  0  0  0  0  0  0  0  0  0  0
  126.0920  123.2670   58.9050 C   0  0  0  0  0  0  0  0  0  0  0  0
  126.3190  122.7800   57.6220 C   0  0  0  0  0  0  0  0  0  0  0  0
  127.6170  122.5520   57.1760 C   0  0  0  0  0  0  0  0  0  0  0  0
  128.6930  122.8170   58.0200 C   0  0  0  0  0  0  0  0  0  0  0  0
  129.3500  123.8230   61.5370 N   0  0  0  0  0  0  0  0  0  0  0  0
  130.3420  124.0850   62.4250 C   0  0  0  0  0  0  0  0  0  0  0  0
  129.8180  124.3750   64.1060 S   0  0  0  0  0  0  0  0  0  0  0  0
  129.9730  126.1540   64.4460 C   0  0  0  0  0  0  0  0  0  0  0  0
  130.1550  126.4400   65.9370 C   0  0  0  0  0  0  0  0  0  0  0  0
  131.2890  126.6360   66.3750 O   0  0  0  0  0  0  0  0  0  0  0  0
  129.0240  126.4390   66.6750 N   0  0  0  0  0  0  0  0  0  0  0  0
  128.8640  126.6920   68.0510 C   0  0  0  0  0  0  0  0  0  0  0  0
  129.8810  127.4310   68.6620 C   0  0  0  0  0  0  0  0  0  0  0  0
  129.8140  127.7230   70.0220 C   0  0  0  0  0  0  0  0  0  0  0  0
  128.7350  127.2680   70.7740 C   0  0  0  0  0  0  0  0  0  0  0  0
  127.7220  126.5180   70.1790 C   0  0  0  0  0  0  0  0  0  0  0  0
  127.7850  126.2260   68.8190 C   0  0  0  0  0  0  0  0  0  0  0  0
  131.7000  124.1280   62.0410 C   0  0  0  0  0  0  0  0  0  0  0  0
  132.7630  124.4100   63.0100 C   0  0  0  0  0  0  0  0  0  0  0  0
  133.6030  124.6320   63.7740 N   0  0  0  0  0  0  0  0  0  0  0  0
  1  2  1  0
  2  3  2  0
  3  4  1  0
  4  5  1  0
  5  6  2  0
  6  7  1  0
  7  8  2  0
  8  9  1  0
  9 10  2  0
  4 11  2  0
 11 12  1  0
 12 13  1  0
 13 14  1  0
 14 15  1  0
 15 16  2  0
 15 17  1  0
 17 18  1  0
 18 19  2  0
 19 20  1  0
 20 21  2  0
 21 22  1  0
 22 23  2  0
 12 24  2  0
 24 25  1  0
 25 26  3  0
 24  2  1  0
 10  5  1  0
 23 18  1  0
M  END
>  <Binding energies>  (18) 
[-7.87]

>  <Ligand effiencies>  (18) 
[-0.2914814814814815]

>  <Interactions>  (18) 
["V-B:TYR:539:CE2:9845, V-B:PRO:540:CA:9852, V-B:GLU:543:C:9871, V-B:GLU:543:CD:9877, V-B:TYR:539:CZ:9846, V-B:TYR:539:CD2:9843, V-B:TYR:539:CE1:9844, V-A:HIS:456:CE1:4066, V-B:HIS:456:CD2:9036, V-B:GLU:543:CG:9876, V-B:GLY:544:C:9881, V-B:HIS:456:CE1:9038, V-A:ASP:366:CG:3209, V-A:ASP:366:CA:3206, V-A:ASP:366:CB:3208, V-B:GLU:543:CB:9875, V-B:TYR:539:C:9836, H-B:GLU:543:OE1:9878, V-B:TYR:539:CD1:9842, V-B:PRO:540:N:9853, H-A:GLY:454:N:4046, V-B:PRO:540:CB:9854, V-B:PRO:540:CD:9856"]

$$$$
3be_Grossjean_2025
     RDKit          3D

 27 29  0  0  0  0  0  0  0  0999 V2000
  130.6220  128.0260   71.0510 C   0  0  0  0  0  0  0  0  0  0  0  0
  129.5310  127.3890   70.2120 C   0  0  0  0  0  0  0  0  0  0  0  0
  128.3180  126.9850   70.7740 C   0  0  0  0  0  0  0  0  0  0  0  0
  127.3610  126.4030   69.9420 C   0  0  0  0  0  0  0  0  0  0  0  0
  127.6370  126.2420   68.5810 C   0  0  0  0  0  0  0  0  0  0  0  0
  128.8710  126.6730   68.0820 C   0  0  0  0  0  0  0  0  0  0  0  0
  129.0920  126.4740   66.7070 N   0  0  0  0  0  0  0  0  0  0  0  0
  130.2430  126.5940   66.0090 C   0  0  0  0  0  0  0  0  0  0  0  0
  131.3270  126.9180   66.4980 O   0  0  0  0  0  0  0  0  0  0  0  0
  130.1190  126.2880   64.5080 C   0  0  0  0  0  0  0  0  0  0  0  0
  129.7720  124.5430   64.0980 S   0  0  0  0  0  0  0  0  0  0  0  0
  130.6760  124.1330   62.6210 C   0  0  0  0  0  0  0  0  0  0  0  0
  129.8840  123.8940   61.5480 N   0  0  0  0  0  0  0  0  0  0  0  0
  130.4420  123.5720   60.3510 C   0  0  0  0  0  0  0  0  0  0  0  0
  129.4950  123.3100   59.2170 C   0  0  0  0  0  0  0  0  0  0  0  0
  129.5900  124.0370   58.0200 C   0  0  0  0  0  0  0  0  0  0  0  0
  128.7130  123.8010   56.9660 C   0  0  0  0  0  0  0  0  0  0  0  0
  127.7250  122.8310   57.0940 C   0  0  0  0  0  0  0  0  0  0  0  0
  127.6080  122.0980   58.2700 C   0  0  0  0  0  0  0  0  0  0  0  0
  128.4870  122.3380   59.3230 C   0  0  0  0  0  0  0  0  0  0  0  0
  131.8310  123.4800   60.2100 C   0  0  0  0  0  0  0  0  0  0  0  0
  132.6640  123.7460   61.3010 C   0  0  0  0  0  0  0  0  0  0  0  0
  134.1750  123.6500   61.0950 C   0  0  0  0  0  0  0  0  0  0  0  0
  132.0870  124.0940   62.5420 C   0  0  0  0  0  0  0  0  0  0  0  0
  132.9410  124.4310   63.6830 C   0  0  0  0  0  0  0  0  0  0  0  0
  133.6180  124.6960   64.5830 N   0  0  0  0  0  0  0  0  0  0  0  0
  129.8130  127.2400   68.8930 N   0  0  0  0  0  0  0  0  0  0  0  0
  1  2  1  0
  2  3  2  0
  3  4  1  0
  4  5  2  0
  5  6  1  0
  6  7  1  0
  7  8  1  0
  8  9  2  0
  8 10  1  0
 10 11  1  0
 11 12  1  0
 12 13  2  0
 13 14  1  0
 14 15  1  0
 15 16  2  0
 16 17  1  0
 17 18  2  0
 18 19  1  0
 19 20  2  0
 14 21  2  0
 21 22  1  0
 22 23  1  0
 22 24  2  0
 24 25  1  0
 25 26  3  0
  6 27  2  0
 27  2  1  0
 24 12  1  0
 20 15  1  0
M  END
>  <Binding energies>  (19) 
[-7.91]

>  <Ligand effiencies>  (19) 
[-0.28250000000000003]

>  <Interactions>  (19) 
["V-B:TYR:539:CE2:9845, V-B:PRO:540:CA:9852, V-B:GLU:543:C:9871, V-B:GLU:543:CD:9877, V-B:TYR:539:CZ:9846, V-A:HIS:456:CD2:4064, V-B:TYR:539:CD2:9843, V-B:TYR:539:CE1:9844, V-A:HIS:456:CE1:4066, V-B:HIS:456:CD2:9036, V-B:GLY:544:C:9881, V-B:HIS:456:CE1:9038, V-A:ASP:366:CG:3209, V-B:GLU:543:CB:9875, H-A:TYR:484:OH:4344, V-B:TYR:539:C:9836, V-A:GLY:454:CA:4045, V-A:GLY:544:C:4909, H-B:GLU:543:OE1:9878, V-B:TYR:539:CD1:9842, V-B:PRO:540:N:9853, V-B:TYR:539:CG:9841, H-A:GLY:454:N:4046, V-B:MET:535:CE:9804"]

$$$$
3bf_Grossjean_2025
     RDKit          3D

 26 28  0  0  0  0  0  0  0  0999 V2000
  134.1160  124.3500   62.3980 C   0  0  0  0  0  0  0  0  0  0  0  0
  132.6620  124.3090   62.8620 C   0  0  0  0  0  0  0  0  0  0  0  0
  131.6910  123.8850   61.9500 C   0  0  0  0  0  0  0  0  0  0  0  0
  130.3480  123.8180   62.3390 C   0  0  0  0  0  0  0  0  0  0  0  0
  129.2620  123.3500   61.4170 C   0  0  0  0  0  0  0  0  0  0  0  0
  127.9170  123.6420   61.6890 C   0  0  0  0  0  0  0  0  0  0  0  0
  126.9030  123.2110   60.8380 C   0  0  0  0  0  0  0  0  0  0  0  0
  127.2230  122.4790   59.6990 C   0  0  0  0  0  0  0  0  0  0  0  0
  128.5480  122.1760   59.4080 C   0  0  0  0  0  0  0  0  0  0  0  0
  129.5590  122.6070   60.2630 C   0  0  0  0  0  0  0  0  0  0  0  0
  129.9690  124.1620   63.5990 N   0  0  0  0  0  0  0  0  0  0  0  0
  130.8960  124.5990   64.4870 C   0  0  0  0  0  0  0  0  0  0  0  0
  130.2180  125.0090   66.0810 S   0  0  0  0  0  0  0  0  0  0  0  0
  130.3400  126.8170   66.2990 C   0  0  0  0  0  0  0  0  0  0  0  0
  130.3600  127.2980   67.7580 C   0  0  0  0  0  0  0  0  0  0  0  0
  131.1650  128.1560   68.1260 O   0  0  0  0  0  0  0  0  0  0  0  0
  129.4260  126.7300   68.5510 N   0  0  0  0  0  0  0  0  0  0  0  0
  129.1860  126.9400   69.9210 C   0  0  0  0  0  0  0  0  0  0  0  0
  127.9500  126.5180   70.4250 C   0  0  0  0  0  0  0  0  0  0  0  0
  127.6570  126.6860   71.7800 C   0  0  0  0  0  0  0  0  0  0  0  0
  128.6200  127.2710   72.6030 C   0  0  0  0  0  0  0  0  0  0  0  0
  129.8300  127.6790   72.1440 N   0  0  0  0  0  0  0  0  0  0  0  0
  130.1010  127.5090   70.8240 C   0  0  0  0  0  0  0  0  0  0  0  0
  132.2700  124.6730   64.1690 C   0  0  0  0  0  0  0  0  0  0  0  0
  133.2780  125.0730   65.1550 C   0  0  0  0  0  0  0  0  0  0  0  0
  134.0750  125.3900   65.9320 N   0  0  0  0  0  0  0  0  0  0  0  0
  1  2  1  0
  2  3  2  0
  3  4  1  0
  4  5  1  0
  5  6  2  0
  6  7  1  0
  7  8  2  0
  8  9  1  0
  9 10  2  0
  4 11  2  0
 11 12  1  0
 12 13  1  0
 13 14  1  0
 14 15  1  0
 15 16  2  0
 15 17  1  0
 17 18  1  0
 18 19  2  0
 19 20  1  0
 20 21  2  0
 21 22  1  0
 22 23  2  0
 12 24  2  0
 24 25  1  0
 25 26  3  0
 24  2  1  0
 10  5  1  0
 23 18  1  0
M  END
>  <Binding energies>  (20) 
[-7.39]

>  <Ligand effiencies>  (20) 
[-0.27370370370370367]

>  <Interactions>  (20) 
["V-A:GLU:543:CD:4905, V-B:TYR:539:CE2:9845, V-B:ALA:541:CB:9861, V-B:PRO:540:CA:9852, V-B:GLU:543:CD:9877, V-A:GLU:543:CB:4903, V-B:TYR:539:CZ:9846, V-A:HIS:456:CD2:4064, V-B:TYR:539:CD2:9843, V-A:HIS:456:CE1:4066, V-B:HIS:456:CD2:9036, V-A:ARG:545:CZ:4923, V-B:GLU:543:CG:9876, V-B:GLY:544:C:9881, V-B:HIS:456:CE1:9038, V-A:ASP:366:CG:3209, V-B:LYS:547:CE:9919, H-A:TYR:484:OH:4344, V-A:GLY:453:C:4038, V-B:TYR:539:C:9836, V-A:GLY:454:CA:4045, H-A:ARG:545:NE:4921, V-A:GLY:453:CA:4040, H-A:LYS:547:NZ:4948, V-B:PRO:540:N:9853, H-A:GLY:454:N:4046, V-B:PRO:540:C:9850, H-A:HIS:456:NE2:4067, H-B:GLU:543:O:9872, H-A:HIS:456:ND1:4063"]

$$$$
3bg_Grossjean_2025
     RDKit          3D

 27 29  0  0  0  0  0  0  0  0999 V2000
  130.0100  126.1450   63.5600 C   0  0  0  0  0  0  0  0  0  0  0  0
  129.2450  127.0180   64.5520 C   0  0  0  0  0  0  0  0  0  0  0  0
  129.3450  126.7150   65.9140 C   0  0  0  0  0  0  0  0  0  0  0  0
  128.6650  127.4950   66.8590 C   0  0  0  0  0  0  0  0  0  0  0  0
  128.7400  127.2310   68.3370 C   0  0  0  0  0  0  0  0  0  0  0  0
  127.7550  126.4680   68.9870 C   0  0  0  0  0  0  0  0  0  0  0  0
  127.8300  126.2060   70.3520 C   0  0  0  0  0  0  0  0  0  0  0  0
  128.8940  126.7080   71.0940 C   0  0  0  0  0  0  0  0  0  0  0  0
  129.8770  127.4760   70.4800 C   0  0  0  0  0  0  0  0  0  0  0  0
  129.7970  127.7370   69.1150 C   0  0  0  0  0  0  0  0  0  0  0  0
  127.9180  128.5610   66.4650 N   0  0  0  0  0  0  0  0  0  0  0  0
  127.8130  128.8710   65.1480 C   0  0  0  0  0  0  0  0  0  0  0  0
  126.8310  130.3140   64.7680 S   0  0  0  0  0  0  0  0  0  0  0  0
  127.9620  131.7080   64.4530 C   0  0  0  0  0  0  0  0  0  0  0  0
  127.8020  132.2630   63.0340 C   0  0  0  0  0  0  0  0  0  0  0  0
  127.1500  133.2910   62.8480 O   0  0  0  0  0  0  0  0  0  0  0  0
  128.3800  131.5580   62.0470 N   0  0  0  0  0  0  0  0  0  0  0  0
  128.2040  131.7990   60.6140 C   0  0  0  0  0  0  0  0  0  0  0  0
  129.5180  131.6730   59.8530 C   0  0  0  0  0  0  0  0  0  0  0  0
  130.6790  131.2690   60.5210 C   0  0  0  0  0  0  0  0  0  0  0  0
  131.8800  131.1630   59.8280 C   0  0  0  0  0  0  0  0  0  0  0  0
  131.9180  131.4490   58.4640 C   0  0  0  0  0  0  0  0  0  0  0  0
  130.7620  131.8320   57.7870 C   0  0  0  0  0  0  0  0  0  0  0  0
  129.5590  131.9380   58.4820 C   0  0  0  0  0  0  0  0  0  0  0  0
  128.4570  128.1160   64.1460 C   0  0  0  0  0  0  0  0  0  0  0  0
  128.3390  128.4630   62.7270 C   0  0  0  0  0  0  0  0  0  0  0  0
  128.2470  128.7350   61.6070 N   0  0  0  0  0  0  0  0  0  0  0  0
  1  2  1  0
  2  3  2  0
  3  4  1  0
  4  5  1  0
  5  6  2  0
  6  7  1  0
  7  8  2  0
  8  9  1  0
  9 10  2  0
  4 11  2  0
 11 12  1  0
 12 13  1  0
 13 14  1  0
 14 15  1  0
 15 16  2  0
 15 17  1  0
 17 18  1  0
 18 19  1  0
 19 20  2  0
 20 21  1  0
 21 22  2  0
 22 23  1  0
 23 24  2  0
 12 25  2  0
 25 26  1  0
 26 27  3  0
 25  2  1  0
 10  5  1  0
 24 19  1  0
M  END
>  <Binding energies>  (21) 
[-7.22]

>  <Ligand effiencies>  (21) 
[-0.25785714285714284]

>  <Interactions>  (21) 
["V-A:GLU:543:CD:4905, V-B:GLU:543:C:9871, V-B:GLU:543:CD:9877, V-A:HIS:456:CD2:4064, V-A:HIS:456:CE1:4066, V-B:GLY:544:C:9881, V-B:HIS:456:CE1:9038, V-B:GLU:543:CB:9875, H-A:GLU:543:OE2:4907, V-A:PRO:540:CA:4880, V-A:PRO:540:CB:4882, V-A:GLU:543:CG:4904, V-A:ALA:541:CB:4889, H-B:TYR:484:OH:9316, V-A:TYR:539:C:4864, V-A:PRO:540:N:4881"]

$$$$
3ca_Grossjean_2025
     RDKit          3D

 31 33  0  0  0  0  0  0  0  0999 V2000
  129.4990  130.8150   72.8730 C   0  0  0  0  0  0  0  0  0  0  0  0
  128.7310  129.6930   73.5770 C   0  0  0  0  0  0  0  0  0  0  0  0
  129.1640  128.4350   73.0730 O   0  0  0  0  0  0  0  0  0  0  0  0
  128.3120  127.6170   72.4040 C   0  0  0  0  0  0  0  0  0  0  0  0
  127.2530  127.1980   72.8830 O   0  0  0  0  0  0  0  0  0  0  0  0
  128.7820  127.2770   71.0180 C   0  0  0  0  0  0  0  0  0  0  0  0
  129.8310  128.0110   70.4520 C   0  0  0  0  0  0  0  0  0  0  0  0
  130.2880  127.7200   69.1700 C   0  0  0  0  0  0  0  0  0  0  0  0
  129.7020  126.6950   68.4260 C   0  0  0  0  0  0  0  0  0  0  0  0
  130.2410  126.4830   67.1420 N   0  0  0  0  0  0  0  0  0  0  0  0
  131.3360  127.0260   66.5670 C   0  0  0  0  0  0  0  0  0  0  0  0
  132.0990  127.8280   67.1040 O   0  0  0  0  0  0  0  0  0  0  0  0
  131.6220  126.5600   65.1360 C   0  0  0  0  0  0  0  0  0  0  0  0
  132.8590  125.2230   65.0500 S   0  0  0  0  0  0  0  0  0  0  0  0
  132.8230  124.4650   63.4320 C   0  0  0  0  0  0  0  0  0  0  0  0
  134.0270  124.3260   62.8210 N   0  0  0  0  0  0  0  0  0  0  0  0
  134.0780  123.7430   61.6040 C   0  0  0  0  0  0  0  0  0  0  0  0
  135.4600  123.6080   60.9960 C   0  0  0  0  0  0  0  0  0  0  0  0
  132.9400  123.2900   60.9420 C   0  0  0  0  0  0  0  0  0  0  0  0
  131.6830  123.4380   61.5430 C   0  0  0  0  0  0  0  0  0  0  0  0
  130.4890  122.9490   60.7900 C   0  0  0  0  0  0  0  0  0  0  0  0
  130.0550  123.6280   59.6440 C   0  0  0  0  0  0  0  0  0  0  0  0
  128.9370  123.1860   58.9410 C   0  0  0  0  0  0  0  0  0  0  0  0
  128.2450  122.0620   59.3850 C   0  0  0  0  0  0  0  0  0  0  0  0
  128.6590  121.3800   60.5260 C   0  0  0  0  0  0  0  0  0  0  0  0
  129.7770  121.8250   61.2270 C   0  0  0  0  0  0  0  0  0  0  0  0
  131.6180  124.0330   62.8290 C   0  0  0  0  0  0  0  0  0  0  0  0
  130.3370  124.1680   63.5300 C   0  0  0  0  0  0  0  0  0  0  0  0
  129.3250  124.2740   64.0830 N   0  0  0  0  0  0  0  0  0  0  0  0
  128.6560  125.9480   68.9880 C   0  0  0  0  0  0  0  0  0  0  0  0
  128.2010  126.2400   70.2720 C   0  0  0  0  0  0  0  0  0  0  0  0
  1  2  1  0
  2  3  1  0
  3  4  1  0
  4  5  2  0
  4  6  1  0
  6  7  2  0
  7  8  1  0
  8  9  2  0
  9 10  1  0
 10 11  1  0
 11 12  2  0
 11 13  1  0
 13 14  1  0
 14 15  1  0
 15 16  2  0
 16 17  1  0
 17 18  1  0
 17 19  2  0
 19 20  1  0
 20 21  1  0
 21 22  2  0
 22 23  1  0
 23 24  2  0
 24 25  1  0
 25 26  2  0
 20 27  2  0
 27 28  1  0
 28 29  3  0
  9 30  1  0
 30 31  2  0
 31  6  1  0
 27 15  1  0
 26 21  1  0
M  END
>  <Binding energies>  (22) 
[-8.68]

>  <Ligand effiencies>  (22) 
[-0.27125]

>  <Interactions>  (22) 
["V-A:ILE:369:CG1:3234, V-A:GLU:543:CD:4905, V-B:TYR:539:CE2:9845, V-B:ALA:541:CB:9861, V-B:PRO:540:CA:9852, V-B:GLU:543:C:9871, V-A:GLU:543:CB:4903, V-B:TYR:539:CZ:9846, V-B:TYR:539:CD2:9843, V-A:HIS:456:CE1:4066, V-B:HIS:456:CD2:9036, V-A:ARG:545:CZ:4923, V-B:GLY:544:C:9881, V-A:ASP:366:CG:3209, V-A:ASP:366:CA:3206, V-A:ILE:369:CB:3232, V-B:GLU:543:CB:9875, H-A:TYR:484:OH:4344, V-A:GLY:453:C:4038, V-B:TYR:539:C:9836, V-A:LYS:547:CE:4947, V-A:GLY:544:CA:4911, H-A:ARG:545:NE:4921, V-A:ARG:545:CG:4919, V-A:GLY:453:CA:4040, H-A:LYS:547:NZ:4948, V-B:PRO:540:N:9853, H-A:GLY:454:N:4046, V-B:PRO:540:C:9850, V-B:ALA:541:CA:9859"]

$$$$
3ce_Grossjean_2025
     RDKit          3D

 27 29  0  0  0  0  0  0  0  0999 V2000
  130.5870  120.9240   73.2760 C   0  0  0  0  0  0  0  0  0  0  0  0
  130.4850  122.4260   73.4530 C   0  0  0  0  0  0  0  0  0  0  0  0
  130.9400  123.0580   74.6140 C   0  0  0  0  0  0  0  0  0  0  0  0
  130.8240  124.4450   74.7040 C   0  0  0  0  0  0  0  0  0  0  0  0
  130.2610  125.1610   73.6440 C   0  0  0  0  0  0  0  0  0  0  0  0
  129.8160  124.4650   72.5140 C   0  0  0  0  0  0  0  0  0  0  0  0
  129.2780  125.2380   71.4720 N   0  0  0  0  0  0  0  0  0  0  0  0
  129.4590  126.5550   71.2290 C   0  0  0  0  0  0  0  0  0  0  0  0
  130.1580  127.3090   71.9070 O   0  0  0  0  0  0  0  0  0  0  0  0
  128.7320  127.1090   70.0040 C   0  0  0  0  0  0  0  0  0  0  0  0
  128.6240  125.8840   68.6660 S   0  0  0  0  0  0  0  0  0  0  0  0
  128.6650  126.8160   67.1530 C   0  0  0  0  0  0  0  0  0  0  0  0
  128.1920  128.0810   67.2720 N   0  0  0  0  0  0  0  0  0  0  0  0
  128.1970  128.8790   66.1800 C   0  0  0  0  0  0  0  0  0  0  0  0
  127.6670  130.2850   66.3860 C   0  0  0  0  0  0  0  0  0  0  0  0
  128.6540  128.4470   64.9380 C   0  0  0  0  0  0  0  0  0  0  0  0
  129.1220  127.1340   64.7880 C   0  0  0  0  0  0  0  0  0  0  0  0
  129.5790  126.7090   63.4310 C   0  0  0  0  0  0  0  0  0  0  0  0
  130.9370  126.4750   63.1880 C   0  0  0  0  0  0  0  0  0  0  0  0
  131.3710  126.0840   61.9240 C   0  0  0  0  0  0  0  0  0  0  0  0
  130.4470  125.9320   60.8930 C   0  0  0  0  0  0  0  0  0  0  0  0
  129.0940  126.1720   61.1160 C   0  0  0  0  0  0  0  0  0  0  0  0
  128.6630  126.5610   62.3820 C   0  0  0  0  0  0  0  0  0  0  0  0
  129.1350  126.2890   65.9270 C   0  0  0  0  0  0  0  0  0  0  0  0
  129.6270  124.9110   65.8350 C   0  0  0  0  0  0  0  0  0  0  0  0
  130.0160  123.8240   65.7620 N   0  0  0  0  0  0  0  0  0  0  0  0
  129.9340  123.1080   72.4160 N   0  0  0  0  0  0  0  0  0  0  0  0
  1  2  1  0
  2  3  2  0
  3  4  1  0
  4  5  2  0
  5  6  1  0
  6  7  1  0
  7  8  1  0
  8  9  2  0
  8 10  1  0
 10 11  1  0
 11 12  1  0
 12 13  2  0
 13 14  1  0
 14 15  1  0
 14 16  2  0
 16 17  1  0
 17 18  1  0
 18 19  2  0
 19 20  1  0
 20 21  2  0
 21 22  1  0
 22 23  2  0
 17 24  2  0
 24 25  1  0
 25 26  3  0
  6 27  2  0
 27  2  1  0
 24 12  1  0
 23 18  1  0
M  END
>  <Binding energies>  (23) 
[-7.04]

>  <Ligand effiencies>  (23) 
[-0.25142857142857145]

>  <Interactions>  (23) 
["V-A:GLU:543:CD:4905, V-B:GLU:543:CD:9877, V-A:GLU:543:CB:4903, V-A:HIS:456:CD2:4064, V-B:HIS:456:CD2:9036, V-B:GLU:543:CG:9876, V-B:HIS:456:CE1:9038, V-A:ASP:366:CG:3209, V-B:LYS:547:CE:9919, V-B:GLU:543:CB:9875, H-A:TYR:484:OH:4344, V-A:TYR:484:CE1:4341, H-A:LYS:547:NZ:4948, H-B:LYS:547:NZ:9920, V-A:TYR:484:CG:4338, V-A:TYR:484:CB:4337, V-A:TYR:484:CD2:4340, V-A:GLU:543:CG:4904, V-A:ASP:473:CB:4235, H-A:HIS:456:NE2:4067, V-A:ASP:473:CG:4236, H-B:GLU:543:O:9872, V-B:TYR:484:CZ:9315, V-B:TYR:484:CE1:9313"]

$$$$
3cj_Grossjean_2025
     RDKit          3D

 25 27  0  0  0  0  0  0  0  0999 V2000
  135.0860  125.2470   65.5830 C   0  0  0  0  0  0  0  0  0  0  0  0
  133.6720  125.0970   65.0550 C   0  0  0  0  0  0  0  0  0  0  0  0
  132.5720  125.5510   65.7790 C   0  0  0  0  0  0  0  0  0  0  0  0
  131.2850  125.4130   65.2420 C   0  0  0  0  0  0  0  0  0  0  0  0
  130.1430  125.9710   66.0230 C   0  0  0  0  0  0  0  0  0  0  0  0
  129.7260  125.3590   67.2110 C   0  0  0  0  0  0  0  0  0  0  0  0
  128.6520  125.8740   67.9320 C   0  0  0  0  0  0  0  0  0  0  0  0
  127.9850  127.0010   67.4620 C   0  0  0  0  0  0  0  0  0  0  0  0
  128.3810  127.6160   66.2770 C   0  0  0  0  0  0  0  0  0  0  0  0
  129.4560  127.1000   65.5580 C   0  0  0  0  0  0  0  0  0  0  0  0
  131.1440  124.7790   63.9830 C   0  0  0  0  0  0  0  0  0  0  0  0
  129.8210  124.5790   63.3820 C   0  0  0  0  0  0  0  0  0  0  0  0
  128.7770  124.4230   62.9070 N   0  0  0  0  0  0  0  0  0  0  0  0
  132.3150  124.3540   63.3160 C   0  0  0  0  0  0  0  0  0  0  0  0
  132.2910  123.6670   61.6740 S   0  0  0  0  0  0  0  0  0  0  0  0
  131.7410  125.0340   60.6040 C   0  0  0  0  0  0  0  0  0  0  0  0
  130.3560  124.7700   60.0060 C   0  0  0  0  0  0  0  0  0  0  0  0
  129.4180  125.5170   60.2930 O   0  0  0  0  0  0  0  0  0  0  0  0
  130.2830  123.7240   59.1550 N   0  0  0  0  0  0  0  0  0  0  0  0
  129.1900  123.3590   58.3850 C   0  0  0  0  0  0  0  0  0  0  0  0
  128.9710  123.6250   57.1160 N   0  0  0  0  0  0  0  0  0  0  0  0
  127.8390  123.0930   56.6990 C   0  0  0  0  0  0  0  0  0  0  0  0
  127.1110  122.3750   57.6430 C   0  0  0  0  0  0  0  0  0  0  0  0
  127.9640  122.4050   59.1580 S   0  0  0  0  0  0  0  0  0  0  0  0
  133.5560  124.5190   63.8390 N   0  0  0  0  0  0  0  0  0  0  0  0
  1  2  1  0
  2  3  2  0
  3  4  1  0
  4  5  1  0
  5  6  2  0
  6  7  1  0
  7  8  2  0
  8  9  1  0
  9 10  2  0
  4 11  2  0
 11 12  1  0
 12 13  3  0
 11 14  1  0
 14 15  1  0
 15 16  1  0
 16 17  1  0
 17 18  2  0
 17 19  1  0
 19 20  1  0
 20 21  2  0
 21 22  1  0
 22 23  2  0
 23 24  1  0
 14 25  2  0
 25  2  1  0
 10  5  1  0
 24 20  1  0
M  END
>  <Binding energies>  (24) 
[-7.12]

>  <Ligand effiencies>  (24) 
[-0.27384615384615385]

>  <Interactions>  (24) 
["V-A:GLU:543:CD:4905, V-B:TYR:539:CE2:9845, V-B:PRO:540:CA:9852, V-B:GLU:543:C:9871, V-B:GLU:543:CD:9877, V-B:TYR:539:CZ:9846, V-B:TYR:539:CE1:9844, V-A:HIS:456:CE1:4066, V-A:ARG:545:CZ:4923, V-B:GLU:543:CG:9876, V-B:HIS:456:CE1:9038, V-A:ASP:366:CG:3209, V-B:GLU:543:CB:9875, V-A:GLY:453:C:4038, V-B:TYR:539:C:9836, H-B:TYR:539:OH:9847, V-A:GLY:454:CA:4045, V-B:GLU:543:CA:9873, V-A:GLY:454:C:4043, V-A:ARG:545:CG:4919, V-A:GLY:453:CA:4040, V-A:ARG:545:CD:4920, V-A:TYR:484:CE1:4341, V-B:PRO:540:N:9853, H-A:GLY:454:N:4046, V-B:PRO:540:CB:9854, V-B:PRO:540:CD:9856"]

$$$$
4ba_Grossjean_2025
     RDKit          3D

 28 30  0  0  0  0  0  0  0  0999 V2000
  126.1010  128.4610   74.3900 C   0  0  0  0  0  0  0  0  0  0  0  0
  126.5710  127.6970   73.1380 C   0  0  0  0  0  0  0  0  0  0  0  0
  128.0820  127.7940   72.8400 C   0  0  0  0  0  0  0  0  0  0  0  0
  128.8460  128.2170   73.7110 O   0  0  0  0  0  0  0  0  0  0  0  0
  128.5550  127.3570   71.4850 C   0  0  0  0  0  0  0  0  0  0  0  0
  129.6140  128.0400   70.8730 C   0  0  0  0  0  0  0  0  0  0  0  0
  130.0730  127.6570   69.6160 C   0  0  0  0  0  0  0  0  0  0  0  0
  129.4860  126.5820   68.9460 C   0  0  0  0  0  0  0  0  0  0  0  0
  130.0220  126.2860   67.6780 N   0  0  0  0  0  0  0  0  0  0  0  0
  130.0960  127.0520   66.5620 C   0  0  0  0  0  0  0  0  0  0  0  0
  129.6350  128.1910   66.4730 O   0  0  0  0  0  0  0  0  0  0  0  0
  130.7560  126.4240   65.4150 C   0  0  0  0  0  0  0  0  0  0  0  0
  132.1390  125.3600   65.6620 S   0  0  0  0  0  0  0  0  0  0  0  0
  132.3200  125.1200   63.9400 C   0  0  0  0  0  0  0  0  0  0  0  0
  133.2840  124.3450   63.4450 N   0  0  0  0  0  0  0  0  0  0  0  0
  133.3250  124.2360   62.0980 C   0  0  0  0  0  0  0  0  0  0  0  0
  134.4360  123.3550   61.5550 C   0  0  0  0  0  0  0  0  0  0  0  0
  132.4320  124.8750   61.2420 C   0  0  0  0  0  0  0  0  0  0  0  0
  131.4140  125.6930   61.7570 C   0  0  0  0  0  0  0  0  0  0  0  0
  130.4540  126.3730   60.7760 C   0  0  0  0  0  0  0  0  0  0  0  0
  129.1750  126.0570   60.9930 F   0  0  0  0  0  0  0  0  0  0  0  0
  130.5610  127.6980   60.8830 F   0  0  0  0  0  0  0  0  0  0  0  0
  130.7500  126.0070   59.5290 F   0  0  0  0  0  0  0  0  0  0  0  0
  131.3470  125.8340   63.1760 C   0  0  0  0  0  0  0  0  0  0  0  0
  130.4710  126.5780   64.0480 C   0  0  0  0  0  0  0  0  0  0  0  0
  129.4510  127.3640   63.5770 N   0  0  0  0  0  0  0  0  0  0  0  0
  128.4210  125.8960   69.5490 C   0  0  0  0  0  0  0  0  0  0  0  0
  127.9640  126.2810   70.8070 C   0  0  0  0  0  0  0  0  0  0  0  0
  1  2  1  0
  2  3  1  0
  3  4  2  0
  3  5  1  0
  5  6  2  0
  6  7  1  0
  7  8  2  0
  8  9  1  0
  9 10  1  0
 10 11  2  0
 10 12  1  0
 12 13  1  0
 13 14  1  0
 14 15  2  0
 15 16  1  0
 16 17  1  0
 16 18  2  0
 18 19  1  0
 19 20  1  0
 20 21  1  0
 20 22  1  0
 20 23  1  0
 19 24  2  0
 24 25  1  0
 25 26  1  0
  8 27  1  0
 27 28  2  0
 28  5  1  0
 25 12  2  0
 24 14  1  0
M  END
>  <Binding energies>  (25) 
[-6.78]

>  <Ligand effiencies>  (25) 
[-0.21870967741935485]

>  <Interactions>  (25) 
["V-A:ILE:369:CG1:3234, V-A:GLU:543:CD:4905, V-B:GLU:543:C:9871, V-A:HIS:456:CE1:4066, V-B:HIS:456:CD2:9036, V-A:ARG:545:CZ:4923, V-B:GLY:544:C:9881, V-A:ASP:366:CG:3209, V-B:LYS:547:CE:9919, V-B:GLU:543:CB:9875, H-A:TYR:484:OH:4344, V-A:GLY:453:C:4038, V-A:GLY:454:CA:4045, V-A:GLY:453:CA:4040, H-B:GLU:543:OE2:9879, H-A:LYS:547:NZ:4948, H-A:GLU:543:OE1:4906, H-A:GLU:543:OE2:4907, H-B:GLU:543:OE1:9878, H-A:GLY:454:N:4046, V-B:HIS:456:CG:9034, H-A:HIS:456:NE2:4067, V-B:HIS:456:CB:9033"]

$$$$
4bb_Grossjean_2025
     RDKit          3D

 27 29  0  0  0  0  0  0  0  0999 V2000
  127.5280  126.9940   71.9890 C   0  0  0  0  0  0  0  0  0  0  0  0
  128.8950  127.4990   71.5230 C   0  0  0  0  0  0  0  0  0  0  0  0
  129.5870  128.1260   72.3270 O   0  0  0  0  0  0  0  0  0  0  0  0
  129.3150  127.2140   70.1130 C   0  0  0  0  0  0  0  0  0  0  0  0
  128.7350  126.1390   69.4270 C   0  0  0  0  0  0  0  0  0  0  0  0
  129.1080  125.8520   68.1170 C   0  0  0  0  0  0  0  0  0  0  0  0
  130.0610  126.6370   67.4650 C   0  0  0  0  0  0  0  0  0  0  0  0
  130.3660  126.2560   66.1430 N   0  0  0  0  0  0  0  0  0  0  0  0
  130.2330  125.0550   65.5300 C   0  0  0  0  0  0  0  0  0  0  0  0
  129.8220  124.0360   66.0850 O   0  0  0  0  0  0  0  0  0  0  0  0
  130.6480  125.0220   64.1250 C   0  0  0  0  0  0  0  0  0  0  0  0
  129.7420  125.9220   62.9110 S   0  0  0  0  0  0  0  0  0  0  0  0
  130.7890  125.3460   61.6340 C   0  0  0  0  0  0  0  0  0  0  0  0
  130.6060  125.7120   60.3670 N   0  0  0  0  0  0  0  0  0  0  0  0
  131.4800  125.2010   59.4690 C   0  0  0  0  0  0  0  0  0  0  0  0
  131.2540  125.6310   58.0310 C   0  0  0  0  0  0  0  0  0  0  0  0
  132.5220  124.3410   59.8060 C   0  0  0  0  0  0  0  0  0  0  0  0
  132.7200  123.9530   61.1390 C   0  0  0  0  0  0  0  0  0  0  0  0
  133.8800  123.0050   61.4610 C   0  0  0  0  0  0  0  0  0  0  0  0
  133.5380  122.0290   62.3050 F   0  0  0  0  0  0  0  0  0  0  0  0
  134.3160  122.4300   60.3400 F   0  0  0  0  0  0  0  0  0  0  0  0
  134.8780  123.6870   62.0230 F   0  0  0  0  0  0  0  0  0  0  0  0
  131.8150  124.4740   62.1130 C   0  0  0  0  0  0  0  0  0  0  0  0
  131.7050  124.3040   63.5400 C   0  0  0  0  0  0  0  0  0  0  0  0
  132.5650  123.5150   64.2610 N   0  0  0  0  0  0  0  0  0  0  0  0
  130.6520  127.7100   68.1480 C   0  0  0  0  0  0  0  0  0  0  0  0
  130.2790  127.9950   69.4600 C   0  0  0  0  0  0  0  0  0  0  0  0
  1  2  1  0
  2  3  2  0
  2  4  1  0
  4  5  2  0
  5  6  1  0
  6  7  2  0
  7  8  1  0
  8  9  1  0
  9 10  2  0
  9 11  1  0
 11 12  1  0
 12 13  1  0
 13 14  2  0
 14 15  1  0
 15 16  1  0
 15 17  2  0
 17 18  1  0
 18 19  1  0
 19 20  1  0
 19 21  1  0
 19 22  1  0
 18 23  2  0
 23 24  1  0
 24 25  1  0
  7 26  1  0
 26 27  2  0
 27  4  1  0
 24 11  2  0
 23 13  1  0
M  END
>  <Binding energies>  (26) 
[-6.63]

>  <Ligand effiencies>  (26) 
[-0.221]

>  <Interactions>  (26) 
["V-A:ILE:369:CG1:3234, V-A:GLU:543:C:4899, V-A:ILE:369:CG2:3233, V-A:LEU:475:CD1:4254, V-B:TYR:539:CE2:9845, V-B:GLU:543:C:9871, V-A:GLU:543:CB:4903, V-B:TYR:539:CZ:9846, V-A:HIS:456:CE1:4066, V-B:HIS:456:CD2:9036, V-B:GLU:543:CG:9876, V-B:GLY:544:C:9881, V-A:ASP:366:CG:3209, V-B:LYS:547:CE:9919, V-A:ASP:366:CB:3208, V-A:ILE:369:CB:3232, V-B:GLU:543:CB:9875, H-A:TYR:484:OH:4344, V-A:GLY:453:C:4038, V-A:GLY:454:CA:4045, V-A:GLY:453:CA:4040, H-A:LYS:547:NZ:4948, H-A:GLU:543:OE1:4906, V-B:HIS:456:CG:9034, H-A:GLY:454:O:4044"]

$$$$
4bd_Grossjean_2025
     RDKit          3D

 24 26  0  0  0  0  0  0  0  0999 V2000
  134.7300  125.0910   65.7670 C   0  0  0  0  0  0  0  0  0  0  0  0
  133.4010  124.9550   65.0450 C   0  0  0  0  0  0  0  0  0  0  0  0
  132.3120  125.7500   65.3900 C   0  0  0  0  0  0  0  0  0  0  0  0
  131.0890  125.6120   64.7160 C   0  0  0  0  0  0  0  0  0  0  0  0
  129.9170  126.5070   65.1320 C   0  0  0  0  0  0  0  0  0  0  0  0
  128.8860  125.8200   65.6300 F   0  0  0  0  0  0  0  0  0  0  0  0
  130.3150  127.3650   66.0710 F   0  0  0  0  0  0  0  0  0  0  0  0
  129.4700  127.1850   64.0750 F   0  0  0  0  0  0  0  0  0  0  0  0
  131.0220  124.6340   63.6790 C   0  0  0  0  0  0  0  0  0  0  0  0
  129.9660  124.2170   62.7890 C   0  0  0  0  0  0  0  0  0  0  0  0
  128.7150  124.7780   62.8120 N   0  0  0  0  0  0  0  0  0  0  0  0
  130.3330  123.1900   61.9030 C   0  0  0  0  0  0  0  0  0  0  0  0
  129.5130  122.5230   60.8870 C   0  0  0  0  0  0  0  0  0  0  0  0
  129.4870  121.2940   60.8090 O   0  0  0  0  0  0  0  0  0  0  0  0
  128.8020  123.3490   60.0800 N   0  0  0  0  0  0  0  0  0  0  0  0
  127.9630  123.0360   58.9950 C   0  0  0  0  0  0  0  0  0  0  0  0
  126.6400  123.4750   59.0980 C   0  0  0  0  0  0  0  0  0  0  0  0
  125.7340  123.2230   58.0710 C   0  0  0  0  0  0  0  0  0  0  0  0
  126.1530  122.5370   56.9350 C   0  0  0  0  0  0  0  0  0  0  0  0
  127.4710  122.1050   56.8140 C   0  0  0  0  0  0  0  0  0  0  0  0
  128.3800  122.3560   57.8390 C   0  0  0  0  0  0  0  0  0  0  0  0
  132.0120  122.7120   62.1430 S   0  0  0  0  0  0  0  0  0  0  0  0
  132.2110  123.8830   63.4250 C   0  0  0  0  0  0  0  0  0  0  0  0
  133.3700  124.0190   64.0680 N   0  0  0  0  0  0  0  0  0  0  0  0
  1  2  1  0
  2  3  2  0
  3  4  1  0
  4  5  1  0
  5  6  1  0
  5  7  1  0
  5  8  1  0
  4  9  2  0
  9 10  1  0
 10 11  1  0
 10 12  2  0
 12 13  1  0
 13 14  2  0
 13 15  1  0
 15 16  1  0
 16 17  2  0
 17 18  1  0
 18 19  2  0
 19 20  1  0
 20 21  2  0
 12 22  1  0
 22 23  1  0
 23 24  2  0
 24  2  1  0
 23  9  1  0
 21 16  1  0
M  END
>  <Binding energies>  (27) 
[-6.49]

>  <Ligand effiencies>  (27) 
[-0.24037037037037037]

>  <Interactions>  (27) 
["V-A:LEU:475:CD1:4254, V-A:GLU:543:CD:4905, V-B:TYR:539:CE2:9845, V-B:ALA:541:CB:9861, V-B:PRO:540:CA:9852, V-B:GLU:543:CD:9877, V-A:GLU:543:CB:4903, V-B:TYR:539:CZ:9846, V-B:TYR:539:CD2:9843, V-B:TYR:539:CE1:9844, V-A:HIS:456:CE1:4066, V-A:ARG:545:CZ:4923, V-B:GLU:543:CG:9876, V-B:GLU:543:CB:9875, H-A:TYR:484:OH:4344, V-A:GLY:453:C:4038, V-B:TYR:539:C:9836, V-A:GLY:454:CA:4045, V-A:GLY:454:C:4043, V-A:ARG:545:CG:4919, V-A:GLY:453:CA:4040, V-A:ARG:545:CD:4920, H-B:GLU:543:OE2:9879, H-B:GLU:543:OE1:9878, V-B:TYR:539:CD1:9842, V-B:PRO:540:N:9853, V-B:TYR:539:CG:9841, H-A:GLY:454:N:4046, V-B:PRO:540:CB:9854, V-B:PRO:540:CD:9856, V-B:TYR:539:CA:9838"]

$$$$
4be_Grossjean_2025
     RDKit          3D

 25 27  0  0  0  0  0  0  0  0999 V2000
  130.0220  128.2390   71.4210 C   0  0  0  0  0  0  0  0  0  0  0  0
  129.2950  127.4160   70.3740 C   0  0  0  0  0  0  0  0  0  0  0  0
  127.9840  126.9760   70.5720 C   0  0  0  0  0  0  0  0  0  0  0  0
  127.3790  126.2210   69.5660 C   0  0  0  0  0  0  0  0  0  0  0  0
  128.0910  125.9270   68.4010 C   0  0  0  0  0  0  0  0  0  0  0  0
  129.3990  126.4050   68.2650 C   0  0  0  0  0  0  0  0  0  0  0  0
  130.0640  126.0700   67.0710 N   0  0  0  0  0  0  0  0  0  0  0  0
  131.0930  126.7080   66.4600 C   0  0  0  0  0  0  0  0  0  0  0  0
  131.6230  127.7310   66.8990 O   0  0  0  0  0  0  0  0  0  0  0  0
  131.5430  126.1130   65.1990 C   0  0  0  0  0  0  0  0  0  0  0  0
  132.9330  125.0300   65.1780 S   0  0  0  0  0  0  0  0  0  0  0  0
  132.8100  124.8320   63.4460 C   0  0  0  0  0  0  0  0  0  0  0  0
  133.6580  124.0560   62.7730 N   0  0  0  0  0  0  0  0  0  0  0  0
  133.4610  123.9800   61.4360 C   0  0  0  0  0  0  0  0  0  0  0  0
  134.4390  123.0930   60.6880 C   0  0  0  0  0  0  0  0  0  0  0  0
  132.4450  124.6540   60.7640 C   0  0  0  0  0  0  0  0  0  0  0  0
  131.5480  125.4730   61.4680 C   0  0  0  0  0  0  0  0  0  0  0  0
  130.4440  126.1920   60.6850 C   0  0  0  0  0  0  0  0  0  0  0  0
  129.2160  125.8230   61.0580 F   0  0  0  0  0  0  0  0  0  0  0  0
  130.5390  127.5080   60.8760 F   0  0  0  0  0  0  0  0  0  0  0  0
  130.5650  125.9250   59.3850 F   0  0  0  0  0  0  0  0  0  0  0  0
  131.7310  125.5790   62.8790 C   0  0  0  0  0  0  0  0  0  0  0  0
  131.0310  126.3090   63.9070 C   0  0  0  0  0  0  0  0  0  0  0  0
  129.9560  127.1180   63.6400 N   0  0  0  0  0  0  0  0  0  0  0  0
  130.0000  127.1400   69.2470 N   0  0  0  0  0  0  0  0  0  0  0  0
  1  2  1  0
  2  3  2  0
  3  4  1  0
  4  5  2  0
  5  6  1  0
  6  7  1  0
  7  8  1  0
  8  9  2  0
  8 10  1  0
 10 11  1  0
 11 12  1  0
 12 13  2  0
 13 14  1  0
 14 15  1  0
 14 16  2  0
 16 17  1  0
 17 18  1  0
 18 19  1  0
 18 20  1  0
 18 21  1  0
 17 22  2  0
 22 23  1  0
 23 24  1  0
  6 25  2  0
 25  2  1  0
 23 10  2  0
 22 12  1  0
M  END
>  <Binding energies>  (28) 
[-6.16]

>  <Ligand effiencies>  (28) 
[-0.22]

>  <Interactions>  (28) 
["V-A:ILE:369:CG1:3234, V-A:ILE:369:CG2:3233, V-A:GLU:543:CD:4905, V-B:GLU:543:C:9871, V-A:HIS:456:CE1:4066, V-B:HIS:456:CD2:9036, V-A:ARG:545:CZ:4923, V-B:GLY:544:C:9881, V-B:HIS:456:CE1:9038, V-A:ASP:366:CG:3209, V-A:ILE:369:CB:3232, V-B:GLU:543:CB:9875, H-A:TYR:484:OH:4344, V-B:GLU:543:CA:9873, H-A:ARG:545:NE:4921, H-B:GLU:543:OE2:9879, H-A:GLU:543:OE1:4906, H-A:GLU:543:OE2:4907, H-B:GLU:543:OE1:9878, H-A:GLY:454:N:4046"]

$$$$
4bg_Grossjean_2025
     RDKit          3D

 25 27  0  0  0  0  0  0  0  0999 V2000
  135.4000  123.5670   61.2000 C   0  0  0  0  0  0  0  0  0  0  0  0
  134.0860  123.5380   61.9610 C   0  0  0  0  0  0  0  0  0  0  0  0
  133.1030  122.5990   61.6580 C   0  0  0  0  0  0  0  0  0  0  0  0
  131.8900  122.5860   62.3660 C   0  0  0  0  0  0  0  0  0  0  0  0
  130.8390  121.5350   61.9970 C   0  0  0  0  0  0  0  0  0  0  0  0
  130.2670  120.9730   63.0640 F   0  0  0  0  0  0  0  0  0  0  0  0
  129.8700  122.1000   61.2770 F   0  0  0  0  0  0  0  0  0  0  0  0
  131.4040  120.5590   61.2870 F   0  0  0  0  0  0  0  0  0  0  0  0
  131.7240  123.5650   63.3900 C   0  0  0  0  0  0  0  0  0  0  0  0
  130.6430  123.8590   64.3000 C   0  0  0  0  0  0  0  0  0  0  0  0
  129.4640  123.1570   64.3050 N   0  0  0  0  0  0  0  0  0  0  0  0
  130.9100  124.9170   65.1820 C   0  0  0  0  0  0  0  0  0  0  0  0
  130.0380  125.4960   66.2030 C   0  0  0  0  0  0  0  0  0  0  0  0
  129.6440  124.8320   67.1630 O   0  0  0  0  0  0  0  0  0  0  0  0
  129.7290  126.8000   66.0460 N   0  0  0  0  0  0  0  0  0  0  0  0
  128.8640  127.5800   66.9310 C   0  0  0  0  0  0  0  0  0  0  0  0
  129.1660  127.3800   68.4110 C   0  0  0  0  0  0  0  0  0  0  0  0
  128.3310  126.5780   69.1950 C   0  0  0  0  0  0  0  0  0  0  0  0
  128.6310  126.3660   70.5380 C   0  0  0  0  0  0  0  0  0  0  0  0
  129.7730  126.9430   71.0900 C   0  0  0  0  0  0  0  0  0  0  0  0
  130.6190  127.7280   70.3100 C   0  0  0  0  0  0  0  0  0  0  0  0
  130.3180  127.9420   68.9670 C   0  0  0  0  0  0  0  0  0  0  0  0
  132.5020  125.6120   64.8860 S   0  0  0  0  0  0  0  0  0  0  0  0
  132.8120  124.4650   63.6050 C   0  0  0  0  0  0  0  0  0  0  0  0
  133.9610  124.4740   62.9280 N   0  0  0  0  0  0  0  0  0  0  0  0
  1  2  1  0
  2  3  2  0
  3  4  1  0
  4  5  1  0
  5  6  1  0
  5  7  1  0
  5  8  1  0
  4  9  2  0
  9 10  1  0
 10 11  1  0
 10 12  2  0
 12 13  1  0
 13 14  2  0
 13 15  1  0
 15 16  1  0
 16 17  1  0
 17 18  2  0
 18 19  1  0
 19 20  2  0
 20 21  1  0
 21 22  2  0
 12 23  1  0
 23 24  1  0
 24 25  2  0
 25  2  1  0
 24  9  1  0
 22 17  1  0
M  END
>  <Binding energies>  (29) 
[-6.6]

>  <Ligand effiencies>  (29) 
[-0.2357142857142857]

>  <Interactions>  (29) 
["V-A:ILE:369:CG1:3234, V-A:GLU:543:C:4899, V-A:LEU:475:CD1:4254, V-B:TYR:539:CE2:9845, V-B:ALA:541:CB:9861, V-B:GLU:543:CD:9877, V-A:GLU:543:CB:4903, V-A:HIS:456:CD2:4064, V-B:TYR:539:CD2:9843, V-A:HIS:456:CE1:4066, V-A:ARG:545:CZ:4923, V-B:GLU:543:CG:9876, V-B:HIS:456:CE1:9038, V-A:ASP:366:CG:3209, V-A:ASP:366:CA:3206, V-A:ILE:369:CB:3232, V-B:GLU:543:CB:9875, H-A:TYR:484:OH:4344, V-A:GLY:453:C:4038, V-A:GLY:454:CA:4045, V-A:GLY:453:CA:4040, V-A:TYR:484:CE1:4341, V-A:GLY:544:C:4909, H-A:GLU:543:OE1:4906, H-A:GLU:543:OE2:4907, H-A:GLY:454:N:4046, H-A:ARG:545:NH1:4924, V-A:LEU:475:CD2:4255, V-A:LEU:475:CG:4253"]

$$$$
4ca_Grossjean_2025
     RDKit          3D

 34 37  0  0  0  0  0  0  0  0999 V2000
  129.4600  131.4840   72.5280 C   0  0  0  0  0  0  0  0  0  0  0  0
  129.3300  129.9970   72.8740 C   0  0  0  0  0  0  0  0  0  0  0  0
  129.8720  129.2160   71.8170 O   0  0  0  0  0  0  0  0  0  0  0  0
  129.6620  127.8760   71.7550 C   0  0  0  0  0  0  0  0  0  0  0  0
  129.4880  127.1680   72.7530 O   0  0  0  0  0  0  0  0  0  0  0  0
  129.6580  127.3400   70.3530 C   0  0  0  0  0  0  0  0  0  0  0  0
  128.7810  126.3000   70.0200 C   0  0  0  0  0  0  0  0  0  0  0  0
  128.7510  125.7850   68.7270 C   0  0  0  0  0  0  0  0  0  0  0  0
  129.6000  126.2930   67.7440 C   0  0  0  0  0  0  0  0  0  0  0  0
  129.4800  125.7060   66.4690 N   0  0  0  0  0  0  0  0  0  0  0  0
  130.2990  125.7850   65.3910 C   0  0  0  0  0  0  0  0  0  0  0  0
  131.3720  126.3880   65.3810 O   0  0  0  0  0  0  0  0  0  0  0  0
  129.8340  125.0720   64.1990 C   0  0  0  0  0  0  0  0  0  0  0  0
  128.7370  125.8610   63.0680 S   0  0  0  0  0  0  0  0  0  0  0  0
  128.7360  124.4600   62.0230 C   0  0  0  0  0  0  0  0  0  0  0  0
  128.0320  124.4370   60.8940 N   0  0  0  0  0  0  0  0  0  0  0  0
  128.1040  123.3100   60.1390 C   0  0  0  0  0  0  0  0  0  0  0  0
  127.3060  123.3190   58.8670 C   0  0  0  0  0  0  0  0  0  0  0  0
  126.2180  124.1920   58.7070 C   0  0  0  0  0  0  0  0  0  0  0  0
  125.4710  124.2000   57.5310 C   0  0  0  0  0  0  0  0  0  0  0  0
  125.8020  123.3320   56.4960 C   0  0  0  0  0  0  0  0  0  0  0  0
  126.8730  122.4550   56.6300 C   0  0  0  0  0  0  0  0  0  0  0  0
  127.6180  122.4490   57.8060 C   0  0  0  0  0  0  0  0  0  0  0  0
  128.8640  122.2040   60.5340 C   0  0  0  0  0  0  0  0  0  0  0  0
  129.6070  122.2160   61.7240 C   0  0  0  0  0  0  0  0  0  0  0  0
  130.4210  120.9710   62.0940 C   0  0  0  0  0  0  0  0  0  0  0  0
  130.2220  120.5690   63.3510 F   0  0  0  0  0  0  0  0  0  0  0  0
  130.0870  119.9590   61.2940 F   0  0  0  0  0  0  0  0  0  0  0  0
  131.7220  121.2270   61.9600 F   0  0  0  0  0  0  0  0  0  0  0  0
  129.5520  123.4000   62.5150 C   0  0  0  0  0  0  0  0  0  0  0  0
  130.1700  123.7800   63.7620 C   0  0  0  0  0  0  0  0  0  0  0  0
  131.0100  122.9470   64.4560 N   0  0  0  0  0  0  0  0  0  0  0  0
  130.4780  127.3390   68.0650 C   0  0  0  0  0  0  0  0  0  0  0  0
  130.5050  127.8540   69.3590 C   0  0  0  0  0  0  0  0  0  0  0  0
  1  2  1  0
  2  3  1  0
  3  4  1  0
  4  5  2  0
  4  6  1  0
  6  7  2  0
  7  8  1  0
  8  9  2  0
  9 10  1  0
 10 11  1  0
 11 12  2  0
 11 13  1  0
 13 14  1  0
 14 15  1  0
 15 16  2  0
 16 17  1  0
 17 18  1  0
 18 19  2  0
 19 20  1  0
 20 21  2  0
 21 22  1  0
 22 23  2  0
 17 24  2  0
 24 25  1  0
 25 26  1  0
 26 27  1  0
 26 28  1  0
 26 29  1  0
 25 30  2  0
 30 31  1  0
 31 32  1  0
  9 33  1  0
 33 34  2  0
 34  6  1  0
 31 13  2  0
 30 15  1  0
 23 18  1  0
M  END
>  <Binding energies>  (30) 
[-8.05]

>  <Ligand effiencies>  (30) 
[-0.2175675675675676]

>  <Interactions>  (30) 
["V-A:GLU:543:C:4899, V-A:LEU:475:CD1:4254, V-B:TYR:539:CE2:9845, V-B:ALA:541:CB:9861, V-B:PRO:540:CA:9852, V-B:GLU:543:C:9871, V-B:GLU:543:CD:9877, V-A:GLU:543:CB:4903, V-A:HIS:456:CD2:4064, V-B:TYR:539:CD2:9843, V-A:HIS:456:CE1:4066, V-B:HIS:456:CD2:9036, V-B:GLU:543:CG:9876, V-B:GLU:543:CB:9875, H-A:TYR:484:OH:4344, V-B:TYR:539:C:9836, V-A:LYS:547:CE:4947, V-A:GLY:544:CA:4911, V-A:TYR:484:CE1:4341, V-A:TYR:484:CZ:4343, H-A:LYS:547:NZ:4948, H-B:GLU:543:OE1:9878, V-B:PRO:540:N:9853, V-A:LEU:475:CD2:4255, V-A:LEU:475:CG:4253, V-B:PRO:540:CD:9856, V-B:LEU:363:CD1:8157"]

$$$$
4cb_Grossjean_2025
     RDKit          3D

 33 36  0  0  0  0  0  0  0  0999 V2000
  130.1510  126.0890   72.3320 C   0  0  0  0  0  0  0  0  0  0  0  0
  129.5630  127.3670   72.5320 O   0  0  0  0  0  0  0  0  0  0  0  0
  129.5230  128.2820   71.5300 C   0  0  0  0  0  0  0  0  0  0  0  0
  129.4710  129.5000   71.7220 O   0  0  0  0  0  0  0  0  0  0  0  0
  129.5510  127.6640   70.1600 C   0  0  0  0  0  0  0  0  0  0  0  0
  128.5310  126.7780   69.7890 C   0  0  0  0  0  0  0  0  0  0  0  0
  128.5240  126.1950   68.5250 C   0  0  0  0  0  0  0  0  0  0  0  0
  129.5380  126.4800   67.6100 C   0  0  0  0  0  0  0  0  0  0  0  0
  129.4240  125.8480   66.3560 N   0  0  0  0  0  0  0  0  0  0  0  0
  130.3000  125.7940   65.3240 C   0  0  0  0  0  0  0  0  0  0  0  0
  131.4290  126.2870   65.3470 O   0  0  0  0  0  0  0  0  0  0  0  0
  129.8260  125.0730   64.1390 C   0  0  0  0  0  0  0  0  0  0  0  0
  128.7350  125.8600   63.0000 S   0  0  0  0  0  0  0  0  0  0  0  0
  128.7190  124.4480   61.9700 C   0  0  0  0  0  0  0  0  0  0  0  0
  128.0120  124.4180   60.8430 N   0  0  0  0  0  0  0  0  0  0  0  0
  128.0700  123.2810   60.1020 C   0  0  0  0  0  0  0  0  0  0  0  0
  127.2660  123.2790   58.8340 C   0  0  0  0  0  0  0  0  0  0  0  0
  126.1590  124.1290   58.6850 C   0  0  0  0  0  0  0  0  0  0  0  0
  125.4070  124.1310   57.5130 C   0  0  0  0  0  0  0  0  0  0  0  0
  125.7530  123.2780   56.4700 C   0  0  0  0  0  0  0  0  0  0  0  0
  126.8440  122.4240   56.5920 C   0  0  0  0  0  0  0  0  0  0  0  0
  127.5920  122.4250   57.7660 C   0  0  0  0  0  0  0  0  0  0  0  0
  128.8200  122.1720   60.5090 C   0  0  0  0  0  0  0  0  0  0  0  0
  129.5660  122.1920   61.6970 C   0  0  0  0  0  0  0  0  0  0  0  0
  130.3690  120.9430   62.0820 C   0  0  0  0  0  0  0  0  0  0  0  0
  130.2420  120.6170   63.3700 F   0  0  0  0  0  0  0  0  0  0  0  0
  129.9510  119.9010   61.3640 F   0  0  0  0  0  0  0  0  0  0  0  0
  131.6640  121.1480   61.8480 F   0  0  0  0  0  0  0  0  0  0  0  0
  129.5260  123.3860   62.4730 C   0  0  0  0  0  0  0  0  0  0  0  0
  130.1520  123.7750   63.7130 C   0  0  0  0  0  0  0  0  0  0  0  0
  130.9900  122.9430   64.4120 N   0  0  0  0  0  0  0  0  0  0  0  0
  130.5610  127.3690   67.9720 C   0  0  0  0  0  0  0  0  0  0  0  0
  130.5650  127.9520   69.2350 C   0  0  0  0  0  0  0  0  0  0  0  0
  1  2  1  0
  2  3  1  0
  3  4  2  0
  3  5  1  0
  5  6  2  0
  6  7  1  0
  7  8  2  0
  8  9  1  0
  9 10  1  0
 10 11  2  0
 10 12  1  0
 12 13  1  0
 13 14  1  0
 14 15  2  0
 15 16  1  0
 16 17  1  0
 17 18  2  0
 18 19  1  0
 19 20  2  0
 20 21  1  0
 21 22  2  0
 16 23  2  0
 23 24  1  0
 24 25  1  0
 25 26  1  0
 25 27  1  0
 25 28  1  0
 24 29  2  0
 29 30  1  0
 30 31  1  0
  8 32  1  0
 32 33  2  0
 33  5  1  0
 30 12  2  0
 29 14  1  0
 22 17  1  0
M  END
>  <Binding energies>  (31) 
[-7.99]

>  <Ligand effiencies>  (31) 
[-0.22194444444444444]

>  <Interactions>  (31) 
["V-A:GLU:543:C:4899, V-A:LEU:475:CD1:4254, V-B:TYR:539:CE2:9845, V-B:ALA:541:CB:9861, V-B:PRO:540:CA:9852, V-B:GLU:543:C:9871, V-B:GLU:543:CD:9877, V-A:GLU:543:CB:4903, V-A:HIS:456:CD2:4064, V-B:TYR:539:CD2:9843, V-A:HIS:456:CE1:4066, V-B:HIS:456:CD2:9036, V-B:GLU:543:CG:9876, V-B:HIS:456:CE1:9038, V-B:GLU:543:CB:9875, H-A:TYR:484:OH:4344, V-B:TYR:539:C:9836, V-A:TYR:484:CE1:4341, V-A:TYR:484:CZ:4343, H-A:LYS:547:NZ:4948, H-B:GLU:543:OE1:9878, V-B:PRO:540:N:9853, V-A:LEU:475:CD2:4255, V-A:LEU:475:CG:4253, V-B:PRO:540:CD:9856, V-B:LEU:363:CD1:8157, V-A:PRO:482:CG:4323"]

$$$$
4cc_Grossjean_2025
     RDKit          3D

 31 34  0  0  0  0  0  0  0  0999 V2000
  128.7110  127.7630   72.3430 C   0  0  0  0  0  0  0  0  0  0  0  0
  129.8320  128.0090   71.5010 O   0  0  0  0  0  0  0  0  0  0  0  0
  129.8220  127.5260   70.2070 C   0  0  0  0  0  0  0  0  0  0  0  0
  129.0070  126.4220   69.9610 C   0  0  0  0  0  0  0  0  0  0  0  0
  128.9300  125.8660   68.6870 C   0  0  0  0  0  0  0  0  0  0  0  0
  129.6810  126.4040   67.6390 C   0  0  0  0  0  0  0  0  0  0  0  0
  129.5270  125.7860   66.3840 N   0  0  0  0  0  0  0  0  0  0  0  0
  130.4120  125.6890   65.3620 C   0  0  0  0  0  0  0  0  0  0  0  0
  131.5640  126.1240   65.4060 O   0  0  0  0  0  0  0  0  0  0  0  0
  129.9130  125.0150   64.1600 C   0  0  0  0  0  0  0  0  0  0  0  0
  128.8070  125.8490   63.0690 S   0  0  0  0  0  0  0  0  0  0  0  0
  128.7380  124.4610   62.0080 C   0  0  0  0  0  0  0  0  0  0  0  0
  128.0000  124.4710   60.9000 N   0  0  0  0  0  0  0  0  0  0  0  0
  128.0170  123.3500   60.1330 C   0  0  0  0  0  0  0  0  0  0  0  0
  127.1740  123.3880   58.8920 C   0  0  0  0  0  0  0  0  0  0  0  0
  127.3420  122.4290   57.8790 C   0  0  0  0  0  0  0  0  0  0  0  0
  126.5640  122.4600   56.7250 C   0  0  0  0  0  0  0  0  0  0  0  0
  125.6040  123.4530   56.5650 C   0  0  0  0  0  0  0  0  0  0  0  0
  125.4200  124.4170   57.5510 C   0  0  0  0  0  0  0  0  0  0  0  0
  126.2000  124.3840   58.7030 C   0  0  0  0  0  0  0  0  0  0  0  0
  128.7610  122.2210   60.4900 C   0  0  0  0  0  0  0  0  0  0  0  0
  129.5410  122.2000   61.6580 C   0  0  0  0  0  0  0  0  0  0  0  0
  130.3360  120.9310   61.9850 C   0  0  0  0  0  0  0  0  0  0  0  0
  131.6400  121.0450   61.7180 F   0  0  0  0  0  0  0  0  0  0  0  0
  130.2190  120.6480   63.2820 F   0  0  0  0  0  0  0  0  0  0  0  0
  129.8700  119.9090   61.2680 F   0  0  0  0  0  0  0  0  0  0  0  0
  129.5380  123.3730   62.4650 C   0  0  0  0  0  0  0  0  0  0  0  0
  130.1960  123.7190   63.7020 C   0  0  0  0  0  0  0  0  0  0  0  0
  131.0260  122.8520   64.3660 N   0  0  0  0  0  0  0  0  0  0  0  0
  130.4940  127.5230   67.8760 C   0  0  0  0  0  0  0  0  0  0  0  0
  130.5660  128.0750   69.1510 C   0  0  0  0  0  0  0  0  0  0  0  0
  1  2  1  0
  2  3  1  0
  3  4  2  0
  4  5  1  0
  5  6  2  0
  6  7  1  0
  7  8  1  0
  8  9  2  0
  8 10  1  0
 10 11  1  0
 11 12  1  0
 12 13  2  0
 13 14  1  0
 14 15  1  0
 15 16  2  0
 16 17  1  0
 17 18  2  0
 18 19  1  0
 19 20  2  0
 14 21  2  0
 21 22  1  0
 22 23  1  0
 23 24  1  0
 23 25  1  0
 23 26  1  0
 22 27  2  0
 27 28  1  0
 28 29  1  0
  6 30  1  0
 30 31  2  0
 31  3  1  0
 28 10  2  0
 27 12  1  0
 20 15  1  0
M  END
>  <Binding energies>  (32) 
[-7.34]

>  <Ligand effiencies>  (32) 
[-0.21588235294117647]

>  <Interactions>  (32) 
["V-A:GLU:543:C:4899, V-A:LEU:475:CD1:4254, V-B:TYR:539:CE2:9845, V-B:ALA:541:CB:9861, V-B:PRO:540:CA:9852, V-B:GLU:543:C:9871, V-B:GLU:543:CD:9877, V-A:GLU:543:CB:4903, V-B:TYR:539:CD2:9843, V-A:HIS:456:CE1:4066, V-B:HIS:456:CD2:9036, V-B:GLU:543:CG:9876, V-B:GLU:543:CB:9875, H-A:TYR:484:OH:4344, V-B:TYR:539:C:9836, V-A:TYR:484:CE1:4341, V-A:TYR:484:CZ:4343, H-A:LYS:547:NZ:4948, H-B:GLU:543:OE1:9878, V-B:PRO:540:N:9853, V-A:LEU:475:CD2:4255, V-A:LEU:475:CG:4253, V-B:PRO:540:CD:9856, V-B:LEU:363:CD1:8157, V-A:PRO:482:CG:4323"]

$$$$
4ce_Grossjean_2025
     RDKit          3D

 30 33  0  0  0  0  0  0  0  0999 V2000
  125.4020  124.0290   57.0030 C   0  0  0  0  0  0  0  0  0  0  0  0
  126.4920  123.5410   57.9390 C   0  0  0  0  0  0  0  0  0  0  0  0
  127.2950  122.4440   57.6170 C   0  0  0  0  0  0  0  0  0  0  0  0
  128.2840  122.0560   58.5220 C   0  0  0  0  0  0  0  0  0  0  0  0
  128.4460  122.7670   59.7130 C   0  0  0  0  0  0  0  0  0  0  0  0
  127.6040  123.8540   59.9760 C   0  0  0  0  0  0  0  0  0  0  0  0
  127.8320  124.5440   61.1800 N   0  0  0  0  0  0  0  0  0  0  0  0
  128.8930  125.3140   61.5280 C   0  0  0  0  0  0  0  0  0  0  0  0
  129.8500  125.5390   60.7850 O   0  0  0  0  0  0  0  0  0  0  0  0
  128.8410  125.8850   62.8760 C   0  0  0  0  0  0  0  0  0  0  0  0
  129.4790  124.9800   64.2470 S   0  0  0  0  0  0  0  0  0  0  0  0
  129.0940  126.2850   65.3440 C   0  0  0  0  0  0  0  0  0  0  0  0
  129.3640  126.2000   66.6440 N   0  0  0  0  0  0  0  0  0  0  0  0
  129.0420  127.2710   67.4160 C   0  0  0  0  0  0  0  0  0  0  0  0
  129.3640  127.1470   68.8760 C   0  0  0  0  0  0  0  0  0  0  0  0
  128.5920  126.3230   69.7120 C   0  0  0  0  0  0  0  0  0  0  0  0
  128.8800  126.2070   71.0690 C   0  0  0  0  0  0  0  0  0  0  0  0
  129.9490  126.9140   71.6100 C   0  0  0  0  0  0  0  0  0  0  0  0
  130.7280  127.7380   70.8050 C   0  0  0  0  0  0  0  0  0  0  0  0
  130.4350  127.8530   69.4490 C   0  0  0  0  0  0  0  0  0  0  0  0
  128.4320  128.4120   66.8830 C   0  0  0  0  0  0  0  0  0  0  0  0
  128.1390  128.5090   65.5130 C   0  0  0  0  0  0  0  0  0  0  0  0
  127.4720  129.7870   64.9950 C   0  0  0  0  0  0  0  0  0  0  0  0
  127.9370  130.1750   63.8060 F   0  0  0  0  0  0  0  0  0  0  0  0
  126.1590  129.5910   64.8650 F   0  0  0  0  0  0  0  0  0  0  0  0
  127.6850  130.7860   65.8520 F   0  0  0  0  0  0  0  0  0  0  0  0
  128.4860  127.3980   64.6920 C   0  0  0  0  0  0  0  0  0  0  0  0
  128.3520  127.1390   63.2790 C   0  0  0  0  0  0  0  0  0  0  0  0
  127.7980  128.0420   62.4090 N   0  0  0  0  0  0  0  0  0  0  0  0
  126.6370  124.2420   59.0930 N   0  0  0  0  0  0  0  0  0  0  0  0
  1  2  1  0
  2  3  2  0
  3  4  1  0
  4  5  2  0
  5  6  1  0
  6  7  1  0
  7  8  1  0
  8  9  2  0
  8 10  1  0
 10 11  1  0
 11 12  1  0
 12 13  2  0
 13 14  1  0
 14 15  1  0
 15 16  2  0
 16 17  1  0
 17 18  2  0
 18 19  1  0
 19 20  2  0
 14 21  2  0
 21 22  1  0
 22 23  1  0
 23 24  1  0
 23 25  1  0
 23 26  1  0
 22 27  2  0
 27 28  1  0
 28 29  1  0
  6 30  2  0
 30  2  1  0
 28 10  2  0
 27 12  1  0
 20 15  1  0
M  END
>  <Binding energies>  (33) 
[-6.97]

>  <Ligand effiencies>  (33) 
[-0.2112121212121212]

>  <Interactions>  (33) 
["V-A:GLU:543:C:4899, V-A:GLU:543:CD:4905, V-B:TYR:539:CE2:9845, V-B:PRO:540:CA:9852, V-B:GLU:543:CD:9877, V-A:GLU:543:CB:4903, V-B:TYR:539:CZ:9846, V-A:HIS:456:CD2:4064, V-B:TYR:539:CD2:9843, V-B:TYR:539:CE1:9844, V-A:HIS:456:CE1:4066, V-B:GLU:543:CG:9876, V-B:HIS:456:CE1:9038, V-B:GLU:543:CB:9875, V-B:TYR:539:C:9836, H-B:GLU:543:OE2:9879, V-A:GLY:544:C:4909, H-A:GLU:543:OE2:4907, V-B:TYR:539:CD1:9842, V-B:PRO:540:N:9853, V-B:TYR:539:CG:9841, H-B:ASP:366:OD1:8182, V-A:GLU:543:CG:4904, V-B:LEU:363:CD1:8157, V-B:TYR:484:CZ:9315, V-B:TYR:484:CE1:9313"]

$$$$
4cf_Grossjean_2025
     RDKit          3D

 29 32  0  0  0  0  0  0  0  0999 V2000
  126.9630  128.2320   61.6910 N   0  0  0  0  0  0  0  0  0  0  0  0
  127.7260  127.4120   62.4820 C   0  0  0  0  0  0  0  0  0  0  0  0
  128.3210  126.2280   62.0160 C   0  0  0  0  0  0  0  0  0  0  0  0
  128.2330  125.6260   60.6830 C   0  0  0  0  0  0  0  0  0  0  0  0
  129.0490  125.9190   59.8080 O   0  0  0  0  0  0  0  0  0  0  0  0
  127.2210  124.7420   60.5110 N   0  0  0  0  0  0  0  0  0  0  0  0
  126.8320  124.0350   59.3570 C   0  0  0  0  0  0  0  0  0  0  0  0
  125.6580  124.2650   58.6140 C   0  0  0  0  0  0  0  0  0  0  0  0
  125.3850  123.4790   57.4930 C   0  0  0  0  0  0  0  0  0  0  0  0
  126.2910  122.4780   57.1420 C   0  0  0  0  0  0  0  0  0  0  0  0
  127.4250  122.2310   57.8430 N   0  0  0  0  0  0  0  0  0  0  0  0
  127.6770  123.0030   58.9320 C   0  0  0  0  0  0  0  0  0  0  0  0
  129.2330  125.4280   63.2940 S   0  0  0  0  0  0  0  0  0  0  0  0
  128.8060  126.6770   64.4410 C   0  0  0  0  0  0  0  0  0  0  0  0
  129.2250  126.6320   65.7040 N   0  0  0  0  0  0  0  0  0  0  0  0
  128.8280  127.6400   66.5260 C   0  0  0  0  0  0  0  0  0  0  0  0
  129.3090  127.5590   67.9450 C   0  0  0  0  0  0  0  0  0  0  0  0
  128.5280  126.9410   68.9340 C   0  0  0  0  0  0  0  0  0  0  0  0
  128.9670  126.8610   70.2530 C   0  0  0  0  0  0  0  0  0  0  0  0
  130.2010  127.3990   70.6010 C   0  0  0  0  0  0  0  0  0  0  0  0
  130.9980  128.0150   69.6410 C   0  0  0  0  0  0  0  0  0  0  0  0
  130.5550  128.0920   68.3240 C   0  0  0  0  0  0  0  0  0  0  0  0
  128.0350  128.6960   66.0700 C   0  0  0  0  0  0  0  0  0  0  0  0
  127.5920  128.7550   64.7390 C   0  0  0  0  0  0  0  0  0  0  0  0
  126.7200  129.9390   64.3070 C   0  0  0  0  0  0  0  0  0  0  0  0
  127.1460  130.5220   63.1840 F   0  0  0  0  0  0  0  0  0  0  0  0
  125.4710  129.5260   64.0920 F   0  0  0  0  0  0  0  0  0  0  0  0
  126.7170  130.8700   65.2620 F   0  0  0  0  0  0  0  0  0  0  0  0
  127.9860  127.6940   63.8730 C   0  0  0  0  0  0  0  0  0  0  0  0
  1  2  1  0
  2  3  2  0
  3  4  1  0
  4  5  2  0
  4  6  1  0
  6  7  1  0
  7  8  2  0
  8  9  1  0
  9 10  2  0
 10 11  1  0
 11 12  2  0
  3 13  1  0
 13 14  1  0
 14 15  2  0
 15 16  1  0
 16 17  1  0
 17 18  2  0
 18 19  1  0
 19 20  2  0
 20 21  1  0
 21 22  2  0
 16 23  2  0
 23 24  1  0
 24 25  1  0
 25 26  1  0
 25 27  1  0
 25 28  1  0
 24 29  2  0
 29  2  1  0
 12  7  1  0
 29 14  1  0
 22 17  1  0
M  END
>  <Binding energies>  (34) 
[-6.82]

>  <Ligand effiencies>  (34) 
[-0.213125]

>  <Interactions>  (34) 
["V-A:GLU:543:C:4899, V-A:GLU:543:CD:4905, V-B:PRO:540:CA:9852, V-B:GLU:543:CD:9877, V-A:GLU:543:CB:4903, V-A:HIS:456:CD2:4064, V-A:HIS:456:CE1:4066, V-B:GLU:543:CG:9876, V-B:HIS:456:CE1:9038, V-B:TYR:539:C:9836, H-B:GLU:543:OE2:9879, V-A:GLY:544:C:4909, V-B:PRO:540:N:9853, V-B:PRO:540:CB:9854, H-B:ASP:366:OD1:8182, V-A:GLU:543:CG:4904, V-B:PRO:540:CD:9856, V-B:LEU:363:CD1:8157, V-B:ARG:545:CZ:9895, V-B:TYR:484:CZ:9315, V-B:TYR:484:CE1:9313"]

$$$$
4ci_Grossjean_2025
     RDKit          3D

 28 31  0  0  0  0  0  0  0  0999 V2000
  127.4620  127.9710   66.4750 N   0  0  0  0  0  0  0  0  0  0  0  0
  128.4470  127.0180   66.4760 C   0  0  0  0  0  0  0  0  0  0  0  0
  128.8460  126.3260   67.6310 C   0  0  0  0  0  0  0  0  0  0  0  0
  128.3260  126.4490   68.9950 C   0  0  0  0  0  0  0  0  0  0  0  0
  127.1630  126.1300   69.2560 O   0  0  0  0  0  0  0  0  0  0  0  0
  129.1990  126.9380   69.9110 N   0  0  0  0  0  0  0  0  0  0  0  0
  128.9710  127.1590   71.2630 C   0  0  0  0  0  0  0  0  0  0  0  0
  127.7280  126.9750   71.8680 C   0  0  0  0  0  0  0  0  0  0  0  0
  127.9210  127.2960   73.1910 C   0  0  0  0  0  0  0  0  0  0  0  0
  129.2140  127.6560   73.3750 O   0  0  0  0  0  0  0  0  0  0  0  0
  129.8690  127.5660   72.1460 N   0  0  0  0  0  0  0  0  0  0  0  0
  130.1260  125.1700   67.2700 S   0  0  0  0  0  0  0  0  0  0  0  0
  130.1240  125.6270   65.5820 C   0  0  0  0  0  0  0  0  0  0  0  0
  130.9490  125.0570   64.7060 N   0  0  0  0  0  0  0  0  0  0  0  0
  130.8720  125.4750   63.4160 C   0  0  0  0  0  0  0  0  0  0  0  0
  131.8180  124.8160   62.4530 C   0  0  0  0  0  0  0  0  0  0  0  0
  133.1030  124.4230   62.8610 C   0  0  0  0  0  0  0  0  0  0  0  0
  133.9840  123.8110   61.9720 C   0  0  0  0  0  0  0  0  0  0  0  0
  133.5910  123.5850   60.6570 C   0  0  0  0  0  0  0  0  0  0  0  0
  132.3270  123.9680   60.2250 C   0  0  0  0  0  0  0  0  0  0  0  0
  131.4500  124.5810   61.1170 C   0  0  0  0  0  0  0  0  0  0  0  0
  129.9800  126.4750   63.0170 C   0  0  0  0  0  0  0  0  0  0  0  0
  129.1060  127.0840   63.9320 C   0  0  0  0  0  0  0  0  0  0  0  0
  128.1550  128.1740   63.4250 C   0  0  0  0  0  0  0  0  0  0  0  0
  126.8850  127.7690   63.3540 F   0  0  0  0  0  0  0  0  0  0  0  0
  128.1940  129.2220   64.2480 F   0  0  0  0  0  0  0  0  0  0  0  0
  128.5210  128.5600   62.2030 F   0  0  0  0  0  0  0  0  0  0  0  0
  129.1700  126.6430   65.2850 C   0  0  0  0  0  0  0  0  0  0  0  0
  1  2  1  0
  2  3  2  0
  3  4  1  0
  4  5  2  0
  4  6  1  0
  6  7  1  0
  7  8  1  0
  8  9  2  0
  9 10  1  0
 10 11  1  0
  3 12  1  0
 12 13  1  0
 13 14  2  0
 14 15  1  0
 15 16  1  0
 16 17  2  0
 17 18  1  0
 18 19  2  0
 19 20  1  0
 20 21  2  0
 15 22  2  0
 22 23  1  0
 23 24  1  0
 24 25  1  0
 24 26  1  0
 24 27  1  0
 23 28  2  0
 28  2  1  0
 11  7  2  0
 28 13  1  0
 21 16  1  0
M  END
>  <Binding energies>  (35) 
[-6.95]

>  <Ligand effiencies>  (35) 
[-0.2241935483870968]

>  <Interactions>  (35) 
["V-A:GLU:543:CD:4905, V-B:TYR:539:CE2:9845, V-B:GLU:543:CD:9877, V-B:TYR:539:CZ:9846, V-A:HIS:456:CE1:4066, V-B:HIS:456:CD2:9036, V-B:GLU:543:CG:9876, V-B:GLY:544:C:9881, V-B:HIS:456:CE1:9038, V-A:ASP:366:CG:3209, V-B:LYS:547:CE:9919, V-B:GLU:543:CB:9875, H-A:TYR:484:OH:4344, V-A:GLY:453:C:4038, V-A:GLY:454:CA:4045, H-B:ARG:545:N:9889, V-A:TYR:484:CE1:4341, V-A:TYR:484:CZ:4343, H-A:LYS:547:NZ:4948, H-B:GLU:543:OE1:9878, V-A:GLU:543:CG:4904, H-A:HIS:456:NE2:4067, H-B:HIS:456:NE2:9039, H-A:GLU:543:O:4900"]

$$$$
8a_Ghoteimi_2023
     RDKit          3D

 40 44  0  0  0  0  0  0  0  0999 V2000
  126.0520  128.8930   74.8300 C   0  0  0  0  0  0  0  0  0  0  0  0
  125.8910  127.8930   73.6820 C   0  0  0  0  0  0  0  0  0  0  0  0
  126.9960  126.9980   73.6770 O   0  0  0  0  0  0  0  0  0  0  0  0
  128.2200  127.3980   73.2430 C   0  0  0  0  0  0  0  0  0  0  0  0
  129.0870  127.8620   73.9890 O   0  0  0  0  0  0  0  0  0  0  0  0
  128.4120  127.2230   71.7640 C   0  0  0  0  0  0  0  0  0  0  0  0
  129.5180  127.8180   71.1430 C   0  0  0  0  0  0  0  0  0  0  0  0
  129.7220  127.6760   69.7740 C   0  0  0  0  0  0  0  0  0  0  0  0
  128.8280  126.9380   68.9960 C   0  0  0  0  0  0  0  0  0  0  0  0
  129.1340  126.8670   67.6220 N   0  0  0  0  0  0  0  0  0  0  0  0
  129.5820  125.8270   66.8770 C   0  0  0  0  0  0  0  0  0  0  0  0
  129.8110  124.7020   67.3220 O   0  0  0  0  0  0  0  0  0  0  0  0
  129.7840  126.1190   65.4550 C   0  0  0  0  0  0  0  0  0  0  0  0
  129.2330  127.6490   64.7730 S   0  0  0  0  0  0  0  0  0  0  0  0
  129.8040  127.1990   63.1820 C   0  0  0  0  0  0  0  0  0  0  0  0
  129.6460  128.0010   62.1290 N   0  0  0  0  0  0  0  0  0  0  0  0
  130.1210  127.5530   60.9370 C   0  0  0  0  0  0  0  0  0  0  0  0
  129.9160  128.4600   59.7660 C   0  0  0  0  0  0  0  0  0  0  0  0
  129.3060  129.7140   59.9190 C   0  0  0  0  0  0  0  0  0  0  0  0
  129.1070  130.5480   58.8230 C   0  0  0  0  0  0  0  0  0  0  0  0
  129.5140  130.1540   57.5500 C   0  0  0  0  0  0  0  0  0  0  0  0
  129.2740  131.0460   56.5220 O   0  0  0  0  0  0  0  0  0  0  0  0
  129.9460  132.3010   56.5210 C   0  0  0  0  0  0  0  0  0  0  0  0
  130.1290  128.9050   57.3860 C   0  0  0  0  0  0  0  0  0  0  0  0
  130.3250  128.0710   58.4840 C   0  0  0  0  0  0  0  0  0  0  0  0
  130.7550  126.3160   60.8030 C   0  0  0  0  0  0  0  0  0  0  0  0
  130.9370  125.4790   61.9090 C   0  0  0  0  0  0  0  0  0  0  0  0
  131.6460  124.1880   61.7170 C   0  0  0  0  0  0  0  0  0  0  0  0
  133.0410  124.1460   61.7120 C   0  0  0  0  0  0  0  0  0  0  0  0
  133.7100  122.9360   61.5530 C   0  0  0  0  0  0  0  0  0  0  0  0
  132.9960  121.7460   61.4020 C   0  0  0  0  0  0  0  0  0  0  0  0
  133.7430  120.5940   61.2510 O   0  0  0  0  0  0  0  0  0  0  0  0
  135.1060  120.5920   61.6580 C   0  0  0  0  0  0  0  0  0  0  0  0
  131.5930  121.7840   61.4150 C   0  0  0  0  0  0  0  0  0  0  0  0
  130.9270  122.9970   61.5760 C   0  0  0  0  0  0  0  0  0  0  0  0
  130.4270  125.9170   63.1640 C   0  0  0  0  0  0  0  0  0  0  0  0
  130.3850  125.3150   64.4730 C   0  0  0  0  0  0  0  0  0  0  0  0
  130.8770  124.0580   64.7230 N   0  0  0  0  0  0  0  0  0  0  0  0
  127.7200  126.3350   69.6100 C   0  0  0  0  0  0  0  0  0  0  0  0
  127.5170  126.4780   70.9810 C   0  0  0  0  0  0  0  0  0  0  0  0
  1  2  1  0
  2  3  1  0
  3  4  1  0
  4  5  2  0
  4  6  1  0
  6  7  2  0
  7  8  1  0
  8  9  2  0
  9 10  1  0
 10 11  1  0
 11 12  2  0
 11 13  1  0
 13 14  1  0
 14 15  1  0
 15 16  2  0
 16 17  1  0
 17 18  1  0
 18 19  2  0
 19 20  1  0
 20 21  2  0
 21 22  1  0
 22 23  1  0
 21 24  1  0
 24 25  2  0
 17 26  2  0
 26 27  1  0
 27 28  1  0
 28 29  2  0
 29 30  1  0
 30 31  2  0
 31 32  1  0
 32 33  1  0
 31 34  1  0
 34 35  2  0
 27 36  2  0
 36 37  1  0
 37 38  1  0
  9 39  1  0
 39 40  2  0
 40  6  1  0
 37 13  2  0
 36 15  1  0
 25 18  1  0
 35 28  1  0
M  END
>  <Binding energies>  (36) 
[-7.32]

>  <Ligand effiencies>  (36) 
[-0.1702325581395349]

>  <Interactions>  (36) 
["V-A:ILE:369:CG1:3234, V-A:ILE:369:CG2:3233, V-A:LEU:475:CD1:4254, V-A:GLU:543:CD:4905, V-B:GLY:544:CA:9883, V-B:TYR:539:CE2:9845, V-B:GLU:543:C:9871, V-B:GLU:543:CD:9877, V-B:TYR:539:CD2:9843, V-A:HIS:456:CE1:4066, V-B:HIS:456:CD2:9036, V-B:GLY:544:C:9881, V-B:HIS:456:CE1:9038, V-A:ASP:366:CG:3209, V-B:LYS:547:CE:9919, V-A:ILE:369:CB:3232, V-B:GLU:543:CB:9875, H-A:TYR:484:OH:4344, V-A:SER:385:C:3401, V-A:ILE:369:CD1:3235, V-A:GLY:454:CA:4045, V-A:TYR:484:CE1:4341, V-A:TYR:484:CZ:4343, H-A:LYS:547:NZ:4948, V-B:HIS:456:CG:9034, V-B:LYS:547:CD:9918, V-B:HIS:456:CB:9033, V-A:TYR:539:C:4864, V-A:PRO:540:N:4881"]

$$$$
8c_Ghoteimi_2023
     RDKit          3D

 34 38  0  0  0  0  0  0  0  0999 V2000
  128.1570  127.6960   74.3720 C   0  0  0  0  0  0  0  0  0  0  0  0
  129.1940  127.0530   73.6400 O   0  0  0  0  0  0  0  0  0  0  0  0
  129.1460  127.0570   72.2590 C   0  0  0  0  0  0  0  0  0  0  0  0
  130.2100  127.6710   71.6000 C   0  0  0  0  0  0  0  0  0  0  0  0
  130.2440  127.7250   70.2100 C   0  0  0  0  0  0  0  0  0  0  0  0
  129.2140  127.1650   69.4410 C   0  0  0  0  0  0  0  0  0  0  0  0
  129.2440  127.2230   67.9470 C   0  0  0  0  0  0  0  0  0  0  0  0
  130.1090  126.4220   67.1950 C   0  0  0  0  0  0  0  0  0  0  0  0
  130.1140  126.4940   65.7980 C   0  0  0  0  0  0  0  0  0  0  0  0
  131.0490  125.6390   65.0310 C   0  0  0  0  0  0  0  0  0  0  0  0
  130.5630  124.5820   64.2580 C   0  0  0  0  0  0  0  0  0  0  0  0
  131.4410  123.7850   63.5310 C   0  0  0  0  0  0  0  0  0  0  0  0
  132.8150  124.0280   63.5670 C   0  0  0  0  0  0  0  0  0  0  0  0
  133.6110  123.1880   62.8120 O   0  0  0  0  0  0  0  0  0  0  0  0
  134.0150  123.5980   61.5100 C   0  0  0  0  0  0  0  0  0  0  0  0
  133.3030  125.0880   64.3480 C   0  0  0  0  0  0  0  0  0  0  0  0
  132.4220  125.8850   65.0750 C   0  0  0  0  0  0  0  0  0  0  0  0
  129.2140  127.3960   65.1720 C   0  0  0  0  0  0  0  0  0  0  0  0
  128.9560  127.7180   63.7930 C   0  0  0  0  0  0  0  0  0  0  0  0
  129.6310  127.1180   62.7590 N   0  0  0  0  0  0  0  0  0  0  0  0
  127.9600  128.6900   63.6120 C   0  0  0  0  0  0  0  0  0  0  0  0
  127.4450  129.2470   62.3580 C   0  0  0  0  0  0  0  0  0  0  0  0
  126.5290  128.6900   61.7510 O   0  0  0  0  0  0  0  0  0  0  0  0
  128.0460  130.3880   61.9390 N   0  0  0  0  0  0  0  0  0  0  0  0
  127.7500  131.1150   60.7950 C   0  0  0  0  0  0  0  0  0  0  0  0
  126.6110  131.1580   60.1380 N   0  0  0  0  0  0  0  0  0  0  0  0
  126.6850  131.9590   59.0940 C   0  0  0  0  0  0  0  0  0  0  0  0
  127.9080  132.5880   58.8850 C   0  0  0  0  0  0  0  0  0  0  0  0
  129.0160  132.0950   60.1300 S   0  0  0  0  0  0  0  0  0  0  0  0
  127.3100  129.2320   65.1600 S   0  0  0  0  0  0  0  0  0  0  0  0
  128.3760  128.1580   66.0360 C   0  0  0  0  0  0  0  0  0  0  0  0
  128.3710  128.0920   67.3680 N   0  0  0  0  0  0  0  0  0  0  0  0
  128.1490  126.5470   70.1110 C   0  0  0  0  0  0  0  0  0  0  0  0
  128.1110  126.4920   71.5010 C   0  0  0  0  0  0  0  0  0  0  0  0
  1  2  1  0
  2  3  1  0
  3  4  2  0
  4  5  1  0
  5  6  2  0
  6  7  1  0
  7  8  2  0
  8  9  1  0
  9 10  1  0
 10 11  2  0
 11 12  1  0
 12 13  2  0
 13 14  1  0
 14 15  1  0
 13 16  1  0
 16 17  2  0
  9 18  2  0
 18 19  1  0
 19 20  1  0
 19 21  2  0
 21 22  1  0
 22 23  2  0
 22 24  1  0
 24 25  1  0
 25 26  2  0
 26 27  1  0
 27 28  2  0
 28 29  1  0
 21 30  1  0
 30 31  1  0
 31 32  2  0
  6 33  1  0
 33 34  2  0
 34  3  1  0
 32  7  1  0
 17 10  1  0
 31 18  1  0
 29 25  1  0
M  END
>  <Binding energies>  (37) 
[-8.46]

>  <Ligand effiencies>  (37) 
[-0.22864864864864867]

>  <Interactions>  (37) 
["V-A:GLU:543:CD:4905, V-B:GLU:543:CD:9877, V-A:HIS:456:CD2:4064, V-A:HIS:456:CE1:4066, V-B:HIS:456:CD2:9036, V-A:ARG:545:CZ:4923, V-B:GLY:544:C:9881, V-B:HIS:456:CE1:9038, V-A:ASP:366:CG:3209, V-B:LYS:547:CE:9919, V-A:GLY:454:CA:4045, V-A:LYS:547:CE:4947, H-B:ARG:545:NH2:9897, H-A:LYS:547:NZ:4948, H-A:GLU:543:OE1:4906, H-A:GLU:543:OE2:4907, H-A:GLY:454:N:4046, V-A:TYR:539:C:4864, V-A:TYR:539:CD2:4871, V-A:TYR:539:CE2:4873"]

$$$$
8d_Ghoteimi_2023
     RDKit          3D

 30 33  0  0  0  0  0  0  0  0999 V2000
  126.8410  126.8760   60.8720 C   0  0  0  0  0  0  0  0  0  0  0  0
  127.5230  128.0920   61.1460 O   0  0  0  0  0  0  0  0  0  0  0  0
  127.1830  128.8540   62.2180 C   0  0  0  0  0  0  0  0  0  0  0  0
  126.4620  129.8520   62.1540 O   0  0  0  0  0  0  0  0  0  0  0  0
  127.7690  128.3620   63.4840 C   0  0  0  0  0  0  0  0  0  0  0  0
  127.1580  128.9590   65.0280 S   0  0  0  0  0  0  0  0  0  0  0  0
  128.2940  127.9630   65.9070 C   0  0  0  0  0  0  0  0  0  0  0  0
  128.3430  127.9600   67.2400 N   0  0  0  0  0  0  0  0  0  0  0  0
  129.2630  127.1470   67.8240 C   0  0  0  0  0  0  0  0  0  0  0  0
  129.3000  127.1660   69.3190 C   0  0  0  0  0  0  0  0  0  0  0  0
  130.3750  127.7440   70.0110 C   0  0  0  0  0  0  0  0  0  0  0  0
  130.4040  127.7580   71.4020 C   0  0  0  0  0  0  0  0  0  0  0  0
  129.3620  127.1960   72.1390 C   0  0  0  0  0  0  0  0  0  0  0  0
  129.4760  127.2570   73.5140 O   0  0  0  0  0  0  0  0  0  0  0  0
  128.3680  127.7140   74.2830 C   0  0  0  0  0  0  0  0  0  0  0  0
  128.2820  126.6180   71.4580 C   0  0  0  0  0  0  0  0  0  0  0  0
  128.2560  126.6060   70.0660 C   0  0  0  0  0  0  0  0  0  0  0  0
  130.1340  126.3480   67.0770 C   0  0  0  0  0  0  0  0  0  0  0  0
  130.0810  126.3490   65.6800 C   0  0  0  0  0  0  0  0  0  0  0  0
  131.0120  125.4850   64.9160 C   0  0  0  0  0  0  0  0  0  0  0  0
  132.3550  125.8420   64.7870 C   0  0  0  0  0  0  0  0  0  0  0  0
  133.2280  125.0350   64.0630 C   0  0  0  0  0  0  0  0  0  0  0  0
  132.7730  123.8600   63.4620 C   0  0  0  0  0  0  0  0  0  0  0  0
  133.7090  123.1230   62.7630 O   0  0  0  0  0  0  0  0  0  0  0  0
  133.9870  123.4600   61.4080 C   0  0  0  0  0  0  0  0  0  0  0  0
  131.4220  123.5010   63.5970 C   0  0  0  0  0  0  0  0  0  0  0  0
  130.5500  124.3100   64.3210 C   0  0  0  0  0  0  0  0  0  0  0  0
  129.1250  127.1880   65.0490 C   0  0  0  0  0  0  0  0  0  0  0  0
  128.8030  127.4370   63.6700 C   0  0  0  0  0  0  0  0  0  0  0  0
  129.4610  126.8210   62.6350 N   0  0  0  0  0  0  0  0  0  0  0  0
  1  2  1  0
  2  3  1  0
  3  4  2  0
  3  5  1  0
  5  6  1  0
  6  7  1  0
  7  8  2  0
  8  9  1  0
  9 10  1  0
 10 11  2  0
 11 12  1  0
 12 13  2  0
 13 14  1  0
 14 15  1  0
 13 16  1  0
 16 17  2  0
  9 18  2  0
 18 19  1  0
 19 20  1  0
 20 21  2  0
 21 22  1  0
 22 23  2  0
 23 24  1  0
 24 25  1  0
 23 26  1  0
 26 27  2  0
 19 28  2  0
 28 29  1  0
 29 30  1  0
 29  5  2  0
 28  7  1  0
 17 10  1  0
 27 20  1  0
M  END
>  <Binding energies>  (38) 
[-7.14]

>  <Ligand effiencies>  (38) 
[-0.223125]

>  <Interactions>  (38) 
["V-A:GLU:543:CD:4905, V-B:GLU:543:CD:9877, V-A:HIS:456:CD2:4064, V-A:HIS:456:CE1:4066, V-B:HIS:456:CD2:9036, V-A:ARG:545:CZ:4923, V-B:HIS:456:CE1:9038, V-B:LYS:547:CE:9919, V-A:GLY:454:CA:4045, V-A:LYS:547:CE:4947, V-A:GLY:544:C:4909, H-A:LYS:547:NZ:4948, H-A:GLY:454:N:4046"]

$$$$
9a_Ghoteimi_2023
     RDKit          3D

 48 54  0  0  0  0  0  0  0  0999 V2000
  133.0630  118.3510   57.9350 C   0  0  0  0  0  0  0  0  0  0  0  0
  134.2020  117.4110   57.5290 C   0  0  0  0  0  0  0  0  0  0  0  0
  135.4310  117.9010   58.0530 O   0  0  0  0  0  0  0  0  0  0  0  0
  135.7150  117.8060   59.3770 C   0  0  0  0  0  0  0  0  0  0  0  0
  136.4740  116.9550   59.8500 O   0  0  0  0  0  0  0  0  0  0  0  0
  135.0100  118.8370   60.2110 C   0  0  0  0  0  0  0  0  0  0  0  0
  133.6390  118.6950   60.4600 C   0  0  0  0  0  0  0  0  0  0  0  0
  132.9560  119.6330   61.2280 C   0  0  0  0  0  0  0  0  0  0  0  0
  133.6280  120.7320   61.7650 C   0  0  0  0  0  0  0  0  0  0  0  0
  132.8370  121.6160   62.5240 N   0  0  0  0  0  0  0  0  0  0  0  0
  131.4900  121.6920   62.6620 C   0  0  0  0  0  0  0  0  0  0  0  0
  130.6940  120.9380   62.1020 O   0  0  0  0  0  0  0  0  0  0  0  0
  131.0120  122.7520   63.5540 C   0  0  0  0  0  0  0  0  0  0  0  0
  130.8380  122.4520   65.2830 S   0  0  0  0  0  0  0  0  0  0  0  0
  130.2870  124.0880   65.5580 C   0  0  0  0  0  0  0  0  0  0  0  0
  129.9850  124.5270   66.7800 N   0  0  0  0  0  0  0  0  0  0  0  0
  129.5760  125.8190   66.8870 C   0  0  0  0  0  0  0  0  0  0  0  0
  129.2530  126.2930   68.2670 C   0  0  0  0  0  0  0  0  0  0  0  0
  129.0820  127.6570   68.5280 C   0  0  0  0  0  0  0  0  0  0  0  0
  128.7800  128.1080   69.8100 C   0  0  0  0  0  0  0  0  0  0  0  0
  128.6240  127.2090   70.8770 C   0  0  0  0  0  0  0  0  0  0  0  0
  128.3400  127.6480   72.1750 N   0  0  0  0  0  0  0  0  0  0  0  0
  128.7490  128.9870   72.6440 C   0  0  0  0  0  0  0  0  0  0  0  0
  128.6800  129.1590   74.1750 C   0  0  0  0  0  0  0  0  0  0  0  0
  127.3830  128.8300   74.6440 O   0  0  0  0  0  0  0  0  0  0  0  0
  127.0460  127.4850   74.3400 C   0  0  0  0  0  0  0  0  0  0  0  0
  127.0620  127.2700   72.8130 C   0  0  0  0  0  0  0  0  0  0  0  0
  128.8110  125.8440   70.6130 C   0  0  0  0  0  0  0  0  0  0  0  0
  129.1160  125.3950   69.3310 C   0  0  0  0  0  0  0  0  0  0  0  0
  129.4460  126.6550   65.7750 C   0  0  0  0  0  0  0  0  0  0  0  0
  129.7430  126.1910   64.4890 C   0  0  0  0  0  0  0  0  0  0  0  0
  129.5520  127.1100   63.3370 C   0  0  0  0  0  0  0  0  0  0  0  0
  128.3320  127.7610   63.1410 C   0  0  0  0  0  0  0  0  0  0  0  0
  128.1590  128.6320   62.0700 C   0  0  0  0  0  0  0  0  0  0  0  0
  129.2100  128.8910   61.1750 C   0  0  0  0  0  0  0  0  0  0  0  0
  129.0570  129.7520   60.0860 N   0  0  0  0  0  0  0  0  0  0  0  0
  127.9090  129.5660   59.1770 C   0  0  0  0  0  0  0  0  0  0  0  0
  127.6470  130.7840   58.2660 C   0  0  0  0  0  0  0  0  0  0  0  0
  128.8210  131.1100   57.5390 O   0  0  0  0  0  0  0  0  0  0  0  0
  129.9000  131.4340   58.4020 C   0  0  0  0  0  0  0  0  0  0  0  0
  130.2220  130.2320   59.3170 C   0  0  0  0  0  0  0  0  0  0  0  0
  130.4320  128.2340   61.3830 C   0  0  0  0  0  0  0  0  0  0  0  0
  130.6030  127.3600   62.4520 C   0  0  0  0  0  0  0  0  0  0  0  0
  130.2070  124.8510   64.3570 C   0  0  0  0  0  0  0  0  0  0  0  0
  130.6510  124.0690   63.2290 C   0  0  0  0  0  0  0  0  0  0  0  0
  130.7240  124.5820   61.9590 N   0  0  0  0  0  0  0  0  0  0  0  0
  135.0030  120.8810   61.5240 C   0  0  0  0  0  0  0  0  0  0  0  0
  135.6840  119.9410   60.7540 C   0  0  0  0  0  0  0  0  0  0  0  0
  1  2  1  0
  2  3  1  0
  3  4  1  0
  4  5  2  0
  4  6  1  0
  6  7  2  0
  7  8  1  0
  8  9  2  0
  9 10  1  0
 10 11  1  0
 11 12  2  0
 11 13  1  0
 13 14  1  0
 14 15  1  0
 15 16  2  0
 16 17  1  0
 17 18  1  0
 18 19  2  0
 19 20  1  0
 20 21  2  0
 21 22  1  0
 22 23  1  0
 23 24  1  0
 24 25  1  0
 25 26  1  0
 26 27  1  0
 21 28  1  0
 28 29  2  0
 17 30  2  0
 30 31  1  0
 31 32  1  0
 32 33  2  0
 33 34  1  0
 34 35  2  0
 35 36  1  0
 36 37  1  0
 37 38  1  0
 38 39  1  0
 39 40  1  0
 40 41  1  0
 35 42  1  0
 42 43  2  0
 31 44  2  0
 44 45  1  0
 45 46  1  0
  9 47  1  0
 47 48  2  0
 48  6  1  0
 45 13  2  0
 44 15  1  0
 29 18  1  0
 43 32  1  0
 27 22  1  0
 41 36  1  0
M  END
>  <Binding energies>  (39) 
[13.77]

>  <Ligand effiencies>  (39) 
[0.27]

>  <Interactions>  (39) 
["V-A:ILE:369:CG1:3234, V-A:ILE:369:CG2:3233, V-A:LEU:475:CD1:4254, V-A:GLU:543:CD:4905, V-B:TYR:539:CE2:9845, V-B:GLU:543:C:9871, V-B:GLU:543:CD:9877, V-B:TYR:539:CZ:9846, V-A:HIS:456:CD2:4064, V-B:TYR:539:CD2:9843, V-B:TYR:539:CE1:9844, V-A:HIS:456:CE1:4066, V-B:HIS:456:CD2:9036, V-B:GLU:543:CG:9876, V-B:GLY:544:C:9881, V-B:HIS:456:CE1:9038, V-B:LYS:547:CE:9919, V-A:ILE:369:CB:3232, V-B:GLU:543:CB:9875, H-A:TYR:484:OH:4344, V-A:TRP:381:CZ2:3366, V-A:SER:385:C:3401, V-A:SER:385:CA:3403, V-A:ILE:369:CD1:3235, V-A:GLY:454:CA:4045, V-A:TRP:381:CH2:3368, V-A:LYS:547:CE:4947, V-A:TYR:484:CE1:4341, V-A:TYR:484:CZ:4343, V-B:TYR:539:CD1:9842, V-B:TYR:539:CG:9841, V-B:HIS:456:CG:9034, V-A:LEU:475:CD2:4255, V-A:LEU:475:CG:4253, V-A:PRO:540:CA:4880, V-B:LYS:547:CD:9918, V-A:LEU:373:CG:3275, H-A:ASN:382:ND2:3377, V-A:LEU:373:CD2:3277, V-A:TRP:381:CZ3:3367, H-A:SER:385:N:3404, V-A:VAL:384:C:3393, H-A:MET:386:N:3412"]

$$$$
9b_Ghoteimi_2023
     RDKit          3D

 42 48  0  0  0  0  0  0  0  0999 V2000
  129.6440  126.8660   62.1090 N   0  0  0  0  0  0  0  0  0  0  0  0
  129.0290  127.5620   63.1190 C   0  0  0  0  0  0  0  0  0  0  0  0
  128.2290  128.6950   62.9020 C   0  0  0  0  0  0  0  0  0  0  0  0
  127.8730  129.3320   61.6320 C   0  0  0  0  0  0  0  0  0  0  0  0
  126.9950  128.8510   60.9110 O   0  0  0  0  0  0  0  0  0  0  0  0
  128.5710  130.4530   61.3260 N   0  0  0  0  0  0  0  0  0  0  0  0
  128.4490  131.2450   60.1910 C   0  0  0  0  0  0  0  0  0  0  0  0
  129.4510  131.3540   59.2280 C   0  0  0  0  0  0  0  0  0  0  0  0
  128.9450  132.2140   58.2810 C   0  0  0  0  0  0  0  0  0  0  0  0
  127.7020  132.6030   58.6560 O   0  0  0  0  0  0  0  0  0  0  0  0
  127.3990  131.9820   59.8670 N   0  0  0  0  0  0  0  0  0  0  0  0
  127.6280  129.3520   64.4240 S   0  0  0  0  0  0  0  0  0  0  0  0
  128.4650  128.1200   65.3390 C   0  0  0  0  0  0  0  0  0  0  0  0
  128.4210  128.0880   66.6690 N   0  0  0  0  0  0  0  0  0  0  0  0
  129.1210  127.1000   67.2860 C   0  0  0  0  0  0  0  0  0  0  0  0
  129.0720  127.0990   68.7800 C   0  0  0  0  0  0  0  0  0  0  0  0
  129.8780  127.9640   69.5310 C   0  0  0  0  0  0  0  0  0  0  0  0
  129.8390  127.9490   70.9210 C   0  0  0  0  0  0  0  0  0  0  0  0
  129.0030  127.0580   71.6130 C   0  0  0  0  0  0  0  0  0  0  0  0
  128.9510  127.0340   73.0120 N   0  0  0  0  0  0  0  0  0  0  0  0
  129.5190  125.9100   73.7830 C   0  0  0  0  0  0  0  0  0  0  0  0
  129.6840  126.2070   75.2880 C   0  0  0  0  0  0  0  0  0  0  0  0
  128.4460  126.6250   75.8380 O   0  0  0  0  0  0  0  0  0  0  0  0
  127.9720  127.8070   75.2150 C   0  0  0  0  0  0  0  0  0  0  0  0
  127.7580  127.5640   73.7050 C   0  0  0  0  0  0  0  0  0  0  0  0
  128.1840  126.2090   70.8560 C   0  0  0  0  0  0  0  0  0  0  0  0
  128.2200  126.2270   69.4650 C   0  0  0  0  0  0  0  0  0  0  0  0
  129.8370  126.1350   66.5730 C   0  0  0  0  0  0  0  0  0  0  0  0
  129.8680  126.1530   65.1730 C   0  0  0  0  0  0  0  0  0  0  0  0
  130.6190  125.0880   64.4610 C   0  0  0  0  0  0  0  0  0  0  0  0
  130.0150  123.8580   64.1940 C   0  0  0  0  0  0  0  0  0  0  0  0
  130.7080  122.8650   63.5100 C   0  0  0  0  0  0  0  0  0  0  0  0
  132.0270  123.0730   63.0750 C   0  0  0  0  0  0  0  0  0  0  0  0
  132.7360  122.0960   62.3730 N   0  0  0  0  0  0  0  0  0  0  0  0
  132.0590  121.3420   61.3000 C   0  0  0  0  0  0  0  0  0  0  0  0
  132.8080  120.0540   60.8950 C   0  0  0  0  0  0  0  0  0  0  0  0
  134.1430  120.3650   60.5250 O   0  0  0  0  0  0  0  0  0  0  0  0
  134.8560  120.9720   61.5910 C   0  0  0  0  0  0  0  0  0  0  0  0
  134.1580  122.2810   62.0180 C   0  0  0  0  0  0  0  0  0  0  0  0
  132.6170  124.3190   63.3330 C   0  0  0  0  0  0  0  0  0  0  0  0
  131.9230  125.3130   64.0170 C   0  0  0  0  0  0  0  0  0  0  0  0
  129.1710  127.2000   64.5080 C   0  0  0  0  0  0  0  0  0  0  0  0
  1  2  1  0
  2  3  2  0
  3  4  1  0
  4  5  2  0
  4  6  1  0
  6  7  1  0
  7  8  1  0
  8  9  2  0
  9 10  1  0
 10 11  1  0
  3 12  1  0
 12 13  1  0
 13 14  2  0
 14 15  1  0
 15 16  1  0
 16 17  2  0
 17 18  1  0
 18 19  2  0
 19 20  1  0
 20 21  1  0
 21 22  1  0
 22 23  1  0
 23 24  1  0
 24 25  1  0
 19 26  1  0
 26 27  2  0
 15 28  2  0
 28 29  1  0
 29 30  1  0
 30 31  2  0
 31 32  1  0
 32 33  2  0
 33 34  1  0
 34 35  1  0
 35 36  1  0
 36 37  1  0
 37 38  1  0
 38 39  1  0
 33 40  1  0
 40 41  2  0
 29 42  2  0
 42  2  1  0
 11  7  2  0
 42 13  1  0
 27 16  1  0
 41 30  1  0
 25 20  1  0
 39 34  1  0
M  END
>  <Binding energies>  (40) 
[-8.42]

>  <Ligand effiencies>  (40) 
[-0.18711111111111112]

>  <Interactions>  (40) 
["V-A:ILE:369:CG1:3234, V-A:GLU:543:C:4899, V-A:ILE:369:CG2:3233, V-A:LEU:475:CD1:4254, V-A:GLU:543:CD:4905, V-B:TYR:539:CE2:9845, V-B:GLU:543:C:9871, V-B:GLU:543:CD:9877, V-B:TYR:539:CD2:9843, V-A:HIS:456:CE1:4066, V-B:HIS:456:CD2:9036, V-A:ARG:545:CZ:4923, V-B:GLU:543:CG:9876, V-B:GLY:544:C:9881, V-B:HIS:456:CE1:9038, V-B:LYS:547:CE:9919, V-A:ILE:369:CB:3232, V-B:GLU:543:CB:9875, V-A:GLY:453:C:4038, V-A:ILE:369:CD1:3235, V-A:GLY:454:CA:4045, V-A:LYS:547:CE:4947, H-A:GLU:543:OE2:4907, H-A:ASP:366:OD1:3210, V-B:LYS:547:CD:9918, V-A:TYR:539:C:4864, V-A:TYR:539:CD2:4871"]

$$$$
9c_Ghoteimi_2023
     RDKit          3D

 42 48  0  0  0  0  0  0  0  0999 V2000
  129.6020  126.8910   62.0700 N   0  0  0  0  0  0  0  0  0  0  0  0
  128.9920  127.5670   63.0960 C   0  0  0  0  0  0  0  0  0  0  0  0
  128.1760  128.6920   62.9040 C   0  0  0  0  0  0  0  0  0  0  0  0
  127.8000  129.3430   61.6460 C   0  0  0  0  0  0  0  0  0  0  0  0
  126.7570  129.0360   61.0640 O   0  0  0  0  0  0  0  0  0  0  0  0
  128.6710  130.2770   61.1910 N   0  0  0  0  0  0  0  0  0  0  0  0
  128.5610  131.0240   60.0260 C   0  0  0  0  0  0  0  0  0  0  0  0
  127.4690  131.5190   59.4840 N   0  0  0  0  0  0  0  0  0  0  0  0
  127.7360  132.1740   58.3700 C   0  0  0  0  0  0  0  0  0  0  0  0
  129.0740  132.2190   57.9880 C   0  0  0  0  0  0  0  0  0  0  0  0
  130.0250  131.3530   59.1570 S   0  0  0  0  0  0  0  0  0  0  0  0
  127.5850  129.3210   64.4420 S   0  0  0  0  0  0  0  0  0  0  0  0
  128.4470  128.0880   65.3300 C   0  0  0  0  0  0  0  0  0  0  0  0
  128.4190  128.0370   66.6610 N   0  0  0  0  0  0  0  0  0  0  0  0
  129.1370  127.0490   67.2550 C   0  0  0  0  0  0  0  0  0  0  0  0
  129.1050  127.0280   68.7490 C   0  0  0  0  0  0  0  0  0  0  0  0
  128.0890  126.3600   69.4430 C   0  0  0  0  0  0  0  0  0  0  0  0
  128.0580  126.3510   70.8340 C   0  0  0  0  0  0  0  0  0  0  0  0
  129.0360  127.0230   71.5840 C   0  0  0  0  0  0  0  0  0  0  0  0
  129.0230  127.0180   72.9840 N   0  0  0  0  0  0  0  0  0  0  0  0
  129.5510  125.8730   73.7540 C   0  0  0  0  0  0  0  0  0  0  0  0
  129.7800  126.1780   75.2490 C   0  0  0  0  0  0  0  0  0  0  0  0
  128.5830  126.6710   75.8300 O   0  0  0  0  0  0  0  0  0  0  0  0
  128.1580  127.8710   75.2040 C   0  0  0  0  0  0  0  0  0  0  0  0
  127.8830  127.6200   73.7060 C   0  0  0  0  0  0  0  0  0  0  0  0
  130.0620  127.6740   70.8850 C   0  0  0  0  0  0  0  0  0  0  0  0
  130.0950  127.6790   69.4930 C   0  0  0  0  0  0  0  0  0  0  0  0
  129.8560  126.1030   66.5210 C   0  0  0  0  0  0  0  0  0  0  0  0
  129.8710  126.1400   65.1220 C   0  0  0  0  0  0  0  0  0  0  0  0
  130.6240  125.0930   64.3870 C   0  0  0  0  0  0  0  0  0  0  0  0
  131.7980  125.4180   63.7050 C   0  0  0  0  0  0  0  0  0  0  0  0
  132.5160  124.4360   63.0280 C   0  0  0  0  0  0  0  0  0  0  0  0
  132.0780  123.1030   63.0130 C   0  0  0  0  0  0  0  0  0  0  0  0
  132.7890  122.0990   62.3490 N   0  0  0  0  0  0  0  0  0  0  0  0
  132.1230  121.3350   61.2750 C   0  0  0  0  0  0  0  0  0  0  0  0
  132.8620  120.0300   60.9080 C   0  0  0  0  0  0  0  0  0  0  0  0
  134.2080  120.3160   60.5610 O   0  0  0  0  0  0  0  0  0  0  0  0
  134.9070  120.9300   61.6320 C   0  0  0  0  0  0  0  0  0  0  0  0
  134.2190  122.2560   62.0220 C   0  0  0  0  0  0  0  0  0  0  0  0
  130.9080  122.7850   63.7180 C   0  0  0  0  0  0  0  0  0  0  0  0
  130.1890  123.7670   64.3960 C   0  0  0  0  0  0  0  0  0  0  0  0
  129.1540  127.1880   64.4780 C   0  0  0  0  0  0  0  0  0  0  0  0
  1  2  1  0
  2  3  2  0
  3  4  1  0
  4  5  2  0
  4  6  1  0
  6  7  1  0
  7  8  2  0
  8  9  1  0
  9 10  2  0
 10 11  1  0
  3 12  1  0
 12 13  1  0
 13 14  2  0
 14 15  1  0
 15 16  1  0
 16 17  2  0
 17 18  1  0
 18 19  2  0
 19 20  1  0
 20 21  1  0
 21 22  1  0
 22 23  1  0
 23 24  1  0
 24 25  1  0
 19 26  1  0
 26 27  2  0
 15 28  2  0
 28 29  1  0
 29 30  1  0
 30 31  2  0
 31 32  1  0
 32 33  2  0
 33 34  1  0
 34 35  1  0
 35 36  1  0
 36 37  1  0
 37 38  1  0
 38 39  1  0
 33 40  1  0
 40 41  2  0
 29 42  2  0
 42  2  1  0
 11  7  1  0
 42 13  1  0
 27 16  1  0
 41 30  1  0
 25 20  1  0
 39 34  1  0
M  END
>  <Binding energies>  (41) 
[-8.65]

>  <Ligand effiencies>  (41) 
[-0.19222222222222224]

>  <Interactions>  (41) 
["V-A:ILE:369:CG1:3234, V-A:ILE:369:CG2:3233, V-A:LEU:475:CD1:4254, V-A:GLU:543:CD:4905, V-B:TYR:539:CE2:9845, V-B:GLU:543:C:9871, V-B:GLU:543:CD:9877, V-A:HIS:456:CD2:4064, V-B:TYR:539:CD2:9843, V-A:HIS:456:CE1:4066, V-B:HIS:456:CD2:9036, V-A:ARG:545:CZ:4923, V-B:GLU:543:CG:9876, V-B:GLY:544:C:9881, V-B:HIS:456:CE1:9038, V-B:LYS:547:CE:9919, V-A:ILE:369:CB:3232, V-B:GLU:543:CB:9875, V-A:GLY:453:C:4038, V-A:ILE:369:CD1:3235, V-A:GLY:454:CA:4045, V-A:LYS:547:CE:4947, H-A:GLU:543:OE2:4907, H-A:ASP:366:OD1:3210, V-A:PRO:540:CA:4880, V-A:TYR:539:C:4864, V-A:TYR:539:CD2:4871, V-A:TYR:539:CE2:4873"]

$$$$
RR11_Rahimova_2017
     RDKit          3D

 33 38  0  0  0  0  0  0  0  0999 V2000
  130.5620  125.9930   73.3050 N   0  0  0  0  0  0  0  0  0  0  0  0
  130.1710  126.4810   72.0600 C   0  0  0  0  0  0  0  0  0  0  0  0
  128.9530  126.0840   71.5100 C   0  0  0  0  0  0  0  0  0  0  0  0
  128.5620  126.5750   70.2680 C   0  0  0  0  0  0  0  0  0  0  0  0
  129.3830  127.4660   69.5640 C   0  0  0  0  0  0  0  0  0  0  0  0
  128.9570  127.9980   68.2270 C   0  0  0  0  0  0  0  0  0  0  0  0
  128.7510  127.2530   67.1630 N   0  0  0  0  0  0  0  0  0  0  0  0
  128.3690  128.1270   66.1790 C   0  0  0  0  0  0  0  0  0  0  0  0
  128.0210  127.8650   64.8470 C   0  0  0  0  0  0  0  0  0  0  0  0
  127.6440  128.9390   64.0330 C   0  0  0  0  0  0  0  0  0  0  0  0
  127.2660  128.6850   62.5790 C   0  0  0  0  0  0  0  0  0  0  0  0
  127.9110  127.4290   62.0100 C   0  0  0  0  0  0  0  0  0  0  0  0
  127.2560  126.7180   60.9980 C   0  0  0  0  0  0  0  0  0  0  0  0
  127.8100  125.5660   60.4370 C   0  0  0  0  0  0  0  0  0  0  0  0
  129.0560  125.1340   60.9110 C   0  0  0  0  0  0  0  0  0  0  0  0
  129.7980  124.0450   60.5350 N   0  0  0  0  0  0  0  0  0  0  0  0
  130.8800  124.0870   61.2830 C   0  0  0  0  0  0  0  0  0  0  0  0
  131.9870  123.0740   61.2330 C   0  0  0  0  0  0  0  0  0  0  0  0
  131.7010  121.7040   61.3010 C   0  0  0  0  0  0  0  0  0  0  0  0
  132.7280  120.7650   61.2650 C   0  0  0  0  0  0  0  0  0  0  0  0
  134.0510  121.1890   61.1590 C   0  0  0  0  0  0  0  0  0  0  0  0
  135.0800  120.2490   61.1270 N   0  0  0  0  0  0  0  0  0  0  0  0
  134.3500  122.5470   61.0850 C   0  0  0  0  0  0  0  0  0  0  0  0
  133.3220  123.4850   61.1220 C   0  0  0  0  0  0  0  0  0  0  0  0
  130.8770  125.1720   62.1340 N   0  0  0  0  0  0  0  0  0  0  0  0
  129.7120  125.8710   61.9250 C   0  0  0  0  0  0  0  0  0  0  0  0
  129.1650  127.0280   62.4870 C   0  0  0  0  0  0  0  0  0  0  0  0
  127.6420  130.2460   64.5330 C   0  0  0  0  0  0  0  0  0  0  0  0
  127.9890  130.5420   65.8540 C   0  0  0  0  0  0  0  0  0  0  0  0
  128.3460  129.4580   66.6600 C   0  0  0  0  0  0  0  0  0  0  0  0
  128.7320  129.3350   67.9740 N   0  0  0  0  0  0  0  0  0  0  0  0
  130.6050  127.8550   70.1280 C   0  0  0  0  0  0  0  0  0  0  0  0
  130.9980  127.3660   71.3710 C   0  0  0  0  0  0  0  0  0  0  0  0
  1  2  1  0
  2  3  2  0
  3  4  1  0
  4  5  2  0
  5  6  1  0
  6  7  2  0
  7  8  1  0
  8  9  2  0
  9 10  1  0
 10 11  1  0
 11 12  1  0
 12 13  2  0
 13 14  1  0
 14 15  2  0
 15 16  1  0
 16 17  2  0
 17 18  1  0
 18 19  2  0
 19 20  1  0
 20 21  2  0
 21 22  1  0
 21 23  1  0
 23 24  2  0
 17 25  1  0
 25 26  1  0
 26 27  2  0
 10 28  2  0
 28 29  1  0
 29 30  2  0
 30 31  1  0
  5 32  1  0
 32 33  2  0
 33  2  1  0
 31  6  1  0
 30  8  1  0
 27 12  1  0
 26 15  1  0
 24 18  1  0
M  END
>  <Binding energies>  (42) 
[-6.02]

>  <Ligand effiencies>  (42) 
[-0.15435897435897436]

>  <Interactions>  (42) 
["V-A:ILE:369:CG1:3234, V-A:GLU:543:C:4899, V-A:ILE:369:CG2:3233, V-A:LEU:475:CD1:4254, V-A:GLU:543:CD:4905, V-B:TYR:539:CE2:9845, V-B:GLU:543:CD:9877, V-A:GLU:543:CB:4903, V-A:HIS:456:CD2:4064, V-B:TYR:539:CD2:9843, V-A:HIS:456:CE1:4066, V-B:HIS:456:CD2:9036, V-B:HIS:456:CE1:9038, V-A:ASP:366:CG:3209, V-B:LYS:547:CE:9919, V-A:ILE:369:CB:3232, V-A:SER:385:C:3401, V-A:ILE:369:CD1:3235, V-A:GLY:454:CA:4045, V-A:GLY:544:C:4909, V-A:GLU:543:CG:4904, H-B:HIS:456:NE2:9039, H-A:GLU:543:O:4900, V-B:TYR:484:CE1:9313, V-A:GLU:543:CA:4901, H-A:SER:385:O:3402"]

$$$$
RR16_Rahimova_2017
     RDKit          3D

 44 49  0  0  0  0  0  0  0  0999 V2000
  131.3970  119.8610   72.8840 O   0  0  0  0  0  0  0  0  0  0  0  0
  130.3100  120.4680   73.6610 S   0  0  0  0  0  0  0  0  0  0  0  0
  130.3320  120.4510   75.1280 O   0  0  0  0  0  0  0  0  0  0  0  0
  128.7980  119.7310   73.1270 N   0  0  0  0  0  0  0  0  0  0  0  0
  127.7370  119.3790   74.1000 C   0  0  0  0  0  0  0  0  0  0  0  0
  126.4750  120.2300   73.8070 C   0  0  0  0  0  0  0  0  0  0  0  0
  126.1670  120.5530   72.3320 C   0  0  0  0  0  0  0  0  0  0  0  0
  125.6990  119.3390   71.5100 C   0  0  0  0  0  0  0  0  0  0  0  0
  126.5570  118.0680   71.6470 C   0  0  0  0  0  0  0  0  0  0  0  0
  126.5330  117.3470   73.0100 C   0  0  0  0  0  0  0  0  0  0  0  0
  127.5340  117.8460   74.0710 C   0  0  0  0  0  0  0  0  0  0  0  0
  130.1850  122.1730   73.1320 C   0  0  0  0  0  0  0  0  0  0  0  0
  130.6890  123.1980   73.9350 C   0  0  0  0  0  0  0  0  0  0  0  0
  130.4770  124.5250   73.5720 C   0  0  0  0  0  0  0  0  0  0  0  0
  129.7630  124.8200   72.4080 C   0  0  0  0  0  0  0  0  0  0  0  0
  129.3670  126.5220   72.0130 S   0  0  0  0  0  0  0  0  0  0  0  0
  130.4660  127.3570   72.5140 O   0  0  0  0  0  0  0  0  0  0  0  0
  127.9890  126.7670   72.4560 O   0  0  0  0  0  0  0  0  0  0  0  0
  129.3940  126.5730   70.2390 N   0  0  0  0  0  0  0  0  0  0  0  0
  128.0550  126.4940   69.6010 C   0  0  0  0  0  0  0  0  0  0  0  0
  128.1930  126.2310   68.0870 C   0  0  0  0  0  0  0  0  0  0  0  0
  129.1270  127.2630   67.4080 C   0  0  0  0  0  0  0  0  0  0  0  0
  129.3140  126.9920   65.9130 C   0  0  0  0  0  0  0  0  0  0  0  0
  128.7770  127.8810   64.9720 C   0  0  0  0  0  0  0  0  0  0  0  0
  128.9310  127.6770   63.6000 C   0  0  0  0  0  0  0  0  0  0  0  0
  128.4020  128.5600   62.6940 O   0  0  0  0  0  0  0  0  0  0  0  0
  129.6460  126.5480   63.1740 C   0  0  0  0  0  0  0  0  0  0  0  0
  129.9660  126.1080   61.9220 N   0  0  0  0  0  0  0  0  0  0  0  0
  130.7110  124.9580   62.0640 N   0  0  0  0  0  0  0  0  0  0  0  0
  130.8080  124.6730   63.3770 N   0  0  0  0  0  0  0  0  0  0  0  0
  131.6200  123.5490   63.8250 C   0  0  0  0  0  0  0  0  0  0  0  0
  132.7270  123.1950   62.8430 C   0  0  0  0  0  0  0  0  0  0  0  0
  133.6430  124.1720   62.4360 C   0  0  0  0  0  0  0  0  0  0  0  0
  134.6730  123.8450   61.5530 C   0  0  0  0  0  0  0  0  0  0  0  0
  134.7930  122.5400   61.0730 C   0  0  0  0  0  0  0  0  0  0  0  0
  133.8850  121.5610   61.4760 C   0  0  0  0  0  0  0  0  0  0  0  0
  134.0370  119.9440   60.8930 Cl  0  0  0  0  0  0  0  0  0  0  0  0
  132.8510  121.8890   62.3570 C   0  0  0  0  0  0  0  0  0  0  0  0
  130.1790  125.6500   64.1300 C   0  0  0  0  0  0  0  0  0  0  0  0
  130.0220  125.8520   65.5050 C   0  0  0  0  0  0  0  0  0  0  0  0
  130.4720  127.4250   68.1630 C   0  0  0  0  0  0  0  0  0  0  0  0
  130.2620  127.6390   69.6750 C   0  0  0  0  0  0  0  0  0  0  0  0
  129.2960  123.7930   71.5850 C   0  0  0  0  0  0  0  0  0  0  0  0
  129.5040  122.4670   71.9500 C   0  0  0  0  0  0  0  0  0  0  0  0
  1  2  2  0
  2  3  2  0
  2  4  1  0
  4  5  1  0
  5  6  1  0
  6  7  1  0
  7  8  1  0
  8  9  1  0
  9 10  1  0
 10 11  1  0
  2 12  1  0
 12 13  2  0
 13 14  1  0
 14 15  2  0
 15 16  1  0
 16 17  2  0
 16 18  2  0
 16 19  1  0
 19 20  1  0
 20 21  1  0
 21 22  1  0
 22 23  1  0
 23 24  2  0
 24 25  1  0
 25 26  1  0
 25 27  2  0
 27 28  1  0
 28 29  2  0
 29 30  1  0
 30 31  1  0
 31 32  1  0
 32 33  2  0
 33 34  1  0
 34 35  2  0
 35 36  1  0
 36 37  1  0
 36 38  2  0
 30 39  1  0
 39 40  2  0
 22 41  1  0
 41 42  1  0
 15 43  1  0
 43 44  2  0
 11  5  1  0
 44 12  1  0
 42 19  1  0
 40 23  1  0
 39 27  1  0
 38 32  1  0
M  END
>  <Binding energies>  (43) 
[-8.18]

>  <Ligand effiencies>  (43) 
[-0.17041666666666666]

>  <Interactions>  (43) 
["V-A:ILE:369:CG1:3234, V-A:ILE:369:CG2:3233, V-A:LEU:475:CD1:4254, V-A:GLU:543:CD:4905, V-B:GLY:544:CA:9883, V-B:TYR:539:CE2:9845, V-B:GLU:543:C:9871, V-B:GLU:543:CD:9877, V-A:GLU:543:CB:4903, V-A:HIS:456:CD2:4064, V-A:HIS:456:CE1:4066, V-B:HIS:456:CE1:9038, V-A:ASP:366:CG:3209, V-B:LYS:547:CE:9919, V-A:ILE:369:CB:3232, V-B:GLU:543:CB:9875, V-A:GLY:453:C:4038, V-A:ILE:369:CD1:3235, V-A:GLY:454:CA:4045, V-A:GLY:453:CA:4040, H-A:LYS:547:NZ:4948, H-A:GLU:543:OE1:4906, H-A:GLU:543:OE2:4907, V-A:TYR:484:CD1:4339, V-A:TYR:484:CG:4338, V-A:TYR:484:CB:4337, V-A:TYR:484:CD2:4340, V-A:ASP:473:CB:4235, V-A:ASP:473:CG:4236, V-A:TYR:484:C:4333, V-A:TYR:484:CA:4335, V-B:VAL:542:CG1:9868, H-A:TYR:484:O:4334"]

$$$$
RR18_Rahimova_2017
     RDKit          3D

 36 41  0  0  0  0  0  0  0  0999 V2000
  133.8900  125.0790   65.3710 C   0  0  0  0  0  0  0  0  0  0  0  0
  132.7890  125.1030   64.3410 C   0  0  0  0  0  0  0  0  0  0  0  0
  132.7380  124.8670   62.9760 C   0  0  0  0  0  0  0  0  0  0  0  0
  131.4110  125.0500   62.5860 C   0  0  0  0  0  0  0  0  0  0  0  0
  130.7000  125.3890   63.7250 C   0  0  0  0  0  0  0  0  0  0  0  0
  129.2330  125.7100   64.0010 C   0  0  1  0  0  0  0  0  0  0  0  0
  129.0800  126.7210   65.1750 C   0  0  0  0  0  0  0  0  0  0  0  0
  129.4860  126.3500   66.5280 C   0  0  0  0  0  0  0  0  0  0  0  0
  129.9990  125.2580   66.7750 O   0  0  0  0  0  0  0  0  0  0  0  0
  129.2630  127.3090   67.4560 N   0  0  0  0  0  0  0  0  0  0  0  0
  129.5010  127.3060   68.8470 C   0  0  0  0  0  0  0  0  0  0  0  0
  130.6890  127.7830   69.4310 C   0  0  0  0  0  0  0  0  0  0  0  0
  130.8640  127.7450   70.8130 C   0  0  0  0  0  0  0  0  0  0  0  0
  129.8650  127.2270   71.6310 C   0  0  0  0  0  0  0  0  0  0  0  0
  128.6890  126.7400   71.0660 C   0  0  0  0  0  0  0  0  0  0  0  0
  128.4970  126.7720   69.6800 C   0  0  0  0  0  0  0  0  0  0  0  0
  127.1930  126.2220   69.1110 C   0  0  0  0  0  0  0  0  0  0  0  0
  128.6610  127.9830   64.8930 C   0  0  0  0  0  0  0  0  0  0  0  0
  128.2450  128.4070   63.6670 N   0  0  0  0  0  0  0  0  0  0  0  0
  128.1560  127.5640   62.7050 C   0  0  0  0  0  0  0  0  0  0  0  0
  127.4990  127.9260   61.1260 S   0  0  0  0  0  0  0  0  0  0  0  0
  127.7540  126.2410   60.5750 C   0  0  0  0  0  0  0  0  0  0  0  0
  127.4520  125.7150   59.3380 C   0  0  0  0  0  0  0  0  0  0  0  0
  126.7760  126.5390   58.3260 C   0  0  0  0  0  0  0  0  0  0  0  0
  126.4200  127.7160   58.3720 O   0  0  0  0  0  0  0  0  0  0  0  0
  126.5630  125.7640   57.2570 N   0  0  0  0  0  0  0  0  0  0  0  0
  127.0510  124.5020   57.4110 C   0  0  0  0  0  0  0  0  0  0  0  0
  127.0120  123.4520   56.4940 C   0  0  0  0  0  0  0  0  0  0  0  0
  127.6010  122.2380   56.8350 C   0  0  0  0  0  0  0  0  0  0  0  0
  128.2230  122.0980   58.0740 C   0  0  0  0  0  0  0  0  0  0  0  0
  128.2490  123.1640   58.9770 C   0  0  0  0  0  0  0  0  0  0  0  0
  127.6380  124.3920   58.6600 C   0  0  0  0  0  0  0  0  0  0  0  0
  128.3380  125.4860   61.6850 C   0  0  0  0  0  0  0  0  0  0  0  0
  128.6020  124.2880   61.6940 O   0  0  0  0  0  0  0  0  0  0  0  0
  128.5550  126.2680   62.7770 N   0  0  0  0  0  0  0  0  0  0  0  0
  131.5470  125.4200   64.7890 O   0  0  0  0  0  0  0  0  0  0  0  0
  1  2  1  0
  2  3  2  0
  3  4  1  0
  4  5  2  0
  6  5  1  6
  6  7  1  0
  7  8  1  0
  8  9  2  0
  8 10  1  0
 10 11  1  0
 11 12  2  0
 12 13  1  0
 13 14  2  0
 14 15  1  0
 15 16  2  0
 16 17  1  0
  7 18  2  0
 18 19  1  0
 19 20  2  0
 20 21  1  0
 21 22  1  0
 22 23  2  0
 23 24  1  0
 24 25  2  0
 24 26  1  0
 26 27  1  0
 27 28  2  0
 28 29  1  0
 29 30  2  0
 30 31  1  0
 31 32  2  0
 22 33  1  0
 33 34  2  0
 33 35  1  0
  5 36  1  0
 36  2  1  0
 35  6  1  0
 16 11  1  0
 35 20  1  0
 32 23  1  0
 32 27  1  0
M  END
>  <Binding energies>  (44) 
[-8.82]

>  <Ligand effiencies>  (44) 
[-0.23210526315789473]

>  <Interactions>  (44) 
["V-A:GLU:543:C:4899, V-A:GLU:543:CD:4905, V-B:TYR:539:CE2:9845, V-B:PRO:540:CA:9852, V-B:GLU:543:C:9871, V-B:GLU:543:CD:9877, V-B:TYR:539:CZ:9846, V-A:HIS:456:CD2:4064, V-B:TYR:539:CD2:9843, V-B:TYR:539:CE1:9844, V-A:HIS:456:CE1:4066, V-B:HIS:456:CD2:9036, V-A:ARG:545:CZ:4923, V-B:GLU:543:CG:9876, V-B:GLY:544:C:9881, V-B:HIS:456:CE1:9038, V-B:GLU:543:CB:9875, H-A:TYR:484:OH:4344, V-B:TYR:539:C:9836, V-A:GLY:454:CA:4045, V-A:ARG:545:CD:4920, V-A:GLY:544:C:4909, V-B:TYR:539:CD1:9842, V-B:PRO:540:N:9853, V-B:TYR:539:CG:9841, V-B:MET:535:CE:9804, H-B:HIS:456:NE2:9039, H-B:TYR:531:OH:9764, H-B:MET:535:SD:9803"]

$$$$
RR20_Rahimova_2017
     RDKit          3D

 38 43  0  0  0  0  0  0  0  0999 V2000
  126.7010  123.0500   56.7380 C   0  0  0  0  0  0  0  0  0  0  0  0
  127.7520  123.0180   57.8320 C   0  0  0  0  0  0  0  0  0  0  0  0
  127.6180  122.1290   58.8990 C   0  0  0  0  0  0  0  0  0  0  0  0
  128.5870  122.0910   59.8980 C   0  0  0  0  0  0  0  0  0  0  0  0
  129.6900  122.9510   59.8470 C   0  0  0  0  0  0  0  0  0  0  0  0
  130.7410  122.8800   60.9320 C   0  0  0  0  0  0  0  0  0  0  0  0
  131.9200  122.7980   60.5800 O   0  0  0  0  0  0  0  0  0  0  0  0
  130.3550  122.9230   62.2410 N   0  0  0  0  0  0  0  0  0  0  0  0
  130.6110  121.8000   63.1570 C   0  0  0  0  0  0  0  0  0  0  0  0
  130.1870  122.2690   64.5390 C   0  0  0  0  0  0  0  0  0  0  0  0
  130.0740  123.7540   64.3670 C   0  0  0  0  0  0  0  0  0  0  0  0
  129.8000  124.7310   65.3240 C   0  0  0  0  0  0  0  0  0  0  0  0
  129.5710  126.0590   64.9420 C   0  0  0  0  0  0  0  0  0  0  0  0
  129.2840  127.1140   65.9730 C   0  0  0  0  0  0  0  0  0  0  0  0
  129.6350  126.8790   67.2280 N   0  0  0  0  0  0  0  0  0  0  0  0
  129.3560  127.8710   68.0340 C   0  0  0  0  0  0  0  0  0  0  0  0
  129.5920  127.9560   69.3980 N   0  0  0  0  0  0  0  0  0  0  0  0
  129.4630  126.9630   70.3110 C   0  0  0  0  0  0  0  0  0  0  0  0
  129.1270  125.8100   70.0320 O   0  0  0  0  0  0  0  0  0  0  0  0
  129.7810  127.2880   71.7890 C   0  0  0  0  0  0  0  0  0  0  0  0
  129.1180  128.5170   72.2640 N   0  0  0  0  0  0  0  0  0  0  0  0
  128.6860  128.4150   73.6660 C   0  0  0  0  0  0  0  0  0  0  0  0
  127.7710  129.6070   74.0290 C   0  0  0  0  0  0  0  0  0  0  0  0
  128.3220  130.9500   73.5480 C   0  0  0  0  0  0  0  0  0  0  0  0
  127.7830  132.1570   74.0080 C   0  0  0  0  0  0  0  0  0  0  0  0
  128.2580  133.3790   73.5410 C   0  0  0  0  0  0  0  0  0  0  0  0
  129.2870  133.4090   72.6050 C   0  0  0  0  0  0  0  0  0  0  0  0
  129.8400  132.2160   72.1460 C   0  0  0  0  0  0  0  0  0  0  0  0
  129.3700  130.9800   72.6060 C   0  0  0  0  0  0  0  0  0  0  0  0
  130.0150  129.6730   72.1450 C   0  0  0  0  0  0  0  0  0  0  0  0
  128.6000  129.2160   67.2730 S   0  0  0  0  0  0  0  0  0  0  0  0
  128.6610  128.3610   65.7500 C   0  0  0  0  0  0  0  0  0  0  0  0
  128.0750  128.9790   64.5000 C   0  0  0  0  0  0  0  0  0  0  0  0
  129.5700  126.3710   63.5740 C   0  0  0  0  0  0  0  0  0  0  0  0
  129.8260  125.3920   62.6140 C   0  0  0  0  0  0  0  0  0  0  0  0
  130.1370  124.0860   63.0140 C   0  0  0  0  0  0  0  0  0  0  0  0
  129.8330  123.8210   58.7580 C   0  0  0  0  0  0  0  0  0  0  0  0
  128.8650  123.8580   57.7570 C   0  0  0  0  0  0  0  0  0  0  0  0
  1  2  1  0
  2  3  2  0
  3  4  1  0
  4  5  2  0
  5  6  1  0
  6  7  2  0
  6  8  1  0
  8  9  1  0
  9 10  1  0
 10 11  1  0
 11 12  2  0
 12 13  1  0
 13 14  1  0
 14 15  1  0
 15 16  2  0
 16 17  1  0
 17 18  1  0
 18 19  2  0
 18 20  1  0
 20 21  1  0
 21 22  1  0
 22 23  1  0
 23 24  1  0
 24 25  2  0
 25 26  1  0
 26 27  2  0
 27 28  1  0
 28 29  2  0
 29 30  1  0
 16 31  1  0
 31 32  1  0
 32 33  1  0
 13 34  2  0
 34 35  1  0
 35 36  2  0
  5 37  1  0
 37 38  2  0
 38  2  1  0
 36  8  1  0
 36 11  1  0
 32 14  2  0
 30 21  1  0
 29 24  1  0
M  END
>  <Binding energies>  (45) 
[-9.31]

>  <Ligand effiencies>  (45) 
[-0.23871794871794874]

>  <Interactions>  (45) 
["V-A:GLU:543:C:4899, V-A:LEU:475:CD1:4254, V-A:GLU:543:CD:4905, V-B:TYR:539:CE2:9845, V-B:ALA:541:CB:9861, V-B:PRO:540:CA:9852, V-B:GLU:543:CD:9877, V-A:GLU:543:CB:4903, V-B:TYR:539:CZ:9846, V-A:HIS:456:CD2:4064, V-B:TYR:539:CD2:9843, V-B:TYR:539:CE1:9844, V-A:HIS:456:CE1:4066, V-B:HIS:456:CD2:9036, V-B:GLU:543:CG:9876, V-B:HIS:456:CE1:9038, V-B:GLU:543:CB:9875, V-B:TYR:539:C:9836, H-B:TYR:539:OH:9847, V-A:LYS:547:CE:4947, V-A:GLY:544:CA:4911, V-A:TYR:484:CE1:4341, V-A:GLY:544:C:4909, V-A:TYR:484:CZ:4343, H-A:LYS:547:NZ:4948, V-B:PRO:540:N:9853, V-A:LEU:475:CD2:4255, V-B:PRO:540:C:9850, V-A:GLU:543:CG:4904, H-B:HIS:456:NE2:9039, H-A:GLU:543:O:4900, V-A:GLU:543:CA:4901, V-B:TYR:484:CB:9309, V-B:TYR:484:CG:9310, V-B:ASP:473:CG:9208, V-B:ASP:473:CB:9207"]

$$$$
RR21_Rahimova_2017
     RDKit          3D

 40 45  0  0  0  0  0  0  0  0999 V2000
  130.2250  120.4010   74.7920 C   0  0  0  0  0  0  0  0  0  0  0  0
  130.6150  120.8850   73.5100 O   0  0  0  0  0  0  0  0  0  0  0  0
  130.3970  122.2130   73.1940 C   0  0  0  0  0  0  0  0  0  0  0  0
  131.0000  123.2930   73.8600 C   0  0  0  0  0  0  0  0  0  0  0  0
  130.7290  124.6050   73.4760 C   0  0  0  0  0  0  0  0  0  0  0  0
  129.8520  124.8730   72.4180 C   0  0  0  0  0  0  0  0  0  0  0  0
  129.5660  126.2840   72.0040 C   0  0  0  0  0  0  0  0  0  0  0  0
  129.4620  127.2270   72.9200 N   0  0  0  0  0  0  0  0  0  0  0  0
  129.2080  128.3710   72.2670 N   0  0  0  0  0  0  0  0  0  0  0  0
  129.0560  129.6010   72.9580 C   0  0  0  0  0  0  0  0  0  0  0  0
  128.1280  129.7270   74.0030 C   0  0  0  0  0  0  0  0  0  0  0  0
  127.9920  130.9380   74.6780 C   0  0  0  0  0  0  0  0  0  0  0  0
  128.7800  132.0260   74.3100 C   0  0  0  0  0  0  0  0  0  0  0  0
  129.7030  131.9150   73.2720 C   0  0  0  0  0  0  0  0  0  0  0  0
  129.8410  130.7050   72.5960 C   0  0  0  0  0  0  0  0  0  0  0  0
  129.1680  128.1460   70.9140 C   0  0  0  0  0  0  0  0  0  0  0  0
  129.3830  126.7930   70.6980 C   0  0  0  0  0  0  0  0  0  0  0  0
  129.4750  126.0890   69.4280 C   0  0  0  0  0  0  0  0  0  0  0  0
  129.2430  126.5700   68.1850 C   0  0  0  0  0  0  0  0  0  0  0  0
  128.7430  128.2130   67.7260 S   0  0  0  0  0  0  0  0  0  0  0  0
  128.7800  127.7360   66.0340 C   0  0  0  0  0  0  0  0  0  0  0  0
  128.5270  128.4700   64.9950 N   0  0  0  0  0  0  0  0  0  0  0  0
  128.6060  127.9600   63.6700 C   0  0  0  0  0  0  0  0  0  0  0  0
  128.4030  128.5940   62.6350 O   0  0  0  0  0  0  0  0  0  0  0  0
  128.9870  126.5060   63.5990 C   0  0  0  0  0  0  0  0  0  0  0  0
  129.0830  125.8400   62.2210 C   0  0  0  0  0  0  0  0  0  0  0  0
  130.4290  125.1770   61.9360 C   0  0  0  0  0  0  0  0  0  0  0  0
  130.5510  124.2650   60.8840 C   0  0  0  0  0  0  0  0  0  0  0  0
  131.7820  123.6730   60.6140 C   0  0  0  0  0  0  0  0  0  0  0  0
  132.8950  123.9920   61.3930 C   0  0  0  0  0  0  0  0  0  0  0  0
  134.2370  123.3530   61.0870 C   0  0  0  0  0  0  0  0  0  0  0  0
  132.7780  124.9130   62.4380 C   0  0  0  0  0  0  0  0  0  0  0  0
  131.5480  125.5040   62.7080 C   0  0  0  0  0  0  0  0  0  0  0  0
  129.2300  125.7860   64.6450 N   0  0  0  0  0  0  0  0  0  0  0  0
  129.1270  126.4190   65.8900 N   0  0  0  0  0  0  0  0  0  0  0  0
  129.3900  125.7130   67.0170 C   0  0  0  0  0  0  0  0  0  0  0  0
  129.7130  124.5190   67.0420 O   0  0  0  0  0  0  0  0  0  0  0  0
  129.2460  123.7990   71.7590 C   0  0  0  0  0  0  0  0  0  0  0  0
  129.5160  122.4850   72.1410 C   0  0  0  0  0  0  0  0  0  0  0  0
  128.9140  121.4670   71.4820 F   0  0  0  0  0  0  0  0  0  0  0  0
  1  2  1  0
  2  3  1  0
  3  4  2  0
  4  5  1  0
  5  6  2  0
  6  7  1  0
  7  8  2  0
  8  9  1  0
  9 10  1  0
 10 11  2  0
 11 12  1  0
 12 13  2  0
 13 14  1  0
 14 15  2  0
  9 16  1  0
 16 17  2  0
 17 18  1  0
 18 19  2  0
 19 20  1  0
 20 21  1  0
 21 22  2  0
 22 23  1  0
 23 24  2  0
 23 25  1  0
 25 26  1  0
 26 27  1  0
 27 28  2  0
 28 29  1  0
 29 30  2  0
 30 31  1  0
 30 32  1  0
 32 33  2  0
 25 34  2  0
 34 35  1  0
 35 36  1  0
 36 37  2  0
  6 38  1  0
 38 39  2  0
 39 40  1  0
 39  3  1  0
 17  7  1  0
 36 19  1  0
 15 10  1  0
 35 21  1  0
 33 27  1  0
M  END
>  <Binding energies>  (46) 
[-8.14]

>  <Ligand effiencies>  (46) 
[-0.20350000000000001]

>  <Interactions>  (46) 
["V-A:ILE:369:CG1:3234, V-A:GLU:543:C:4899, V-A:GLU:543:CD:4905, V-B:TYR:539:CE2:9845, V-B:GLU:543:C:9871, V-B:GLU:543:CD:9877, V-A:GLU:543:CB:4903, V-A:HIS:456:CD2:4064, V-A:HIS:456:CE1:4066, V-B:HIS:456:CD2:9036, V-A:ARG:545:CZ:4923, V-B:GLU:543:CG:9876, V-B:HIS:456:CE1:9038, V-A:ASP:366:CG:3209, V-B:LYS:547:CE:9919, V-B:GLU:543:CB:9875, H-A:TYR:484:OH:4344, V-A:LYS:547:CE:4947, V-A:GLY:544:CA:4911, V-A:TYR:484:CE1:4341, H-A:LYS:547:NZ:4948, V-A:TYR:484:CD1:4339, V-A:TYR:484:CG:4338, V-A:TYR:484:CB:4337, V-A:TYR:484:CD2:4340, V-A:ASP:473:CB:4235, V-A:ASP:473:CG:4236"]

$$$$
RR23_Rahimova_2017
     RDKit          3D

 39 44  0  0  0  0  0  0  0  0999 V2000
  126.7990  122.9690   56.9050 C   0  0  0  0  0  0  0  0  0  0  0  0
  127.8390  122.9570   58.0100 C   0  0  0  0  0  0  0  0  0  0  0  0
  128.9320  123.8230   57.9500 C   0  0  0  0  0  0  0  0  0  0  0  0
  129.8810  123.8190   58.9690 C   0  0  0  0  0  0  0  0  0  0  0  0
  129.7500  122.9410   60.0510 C   0  0  0  0  0  0  0  0  0  0  0  0
  130.7800  122.9660   61.1580 C   0  0  0  0  0  0  0  0  0  0  0  0
  131.9700  122.9670   60.8310 O   0  0  0  0  0  0  0  0  0  0  0  0
  130.3650  123.0010   62.4590 N   0  0  0  0  0  0  0  0  0  0  0  0
  130.2350  121.7720   63.2590 C   0  0  0  0  0  0  0  0  0  0  0  0
  129.9010  122.2170   64.6740 C   0  0  0  0  0  0  0  0  0  0  0  0
  130.2370  123.6770   64.6530 C   0  0  0  0  0  0  0  0  0  0  0  0
  130.2160  124.5990   65.7000 C   0  0  0  0  0  0  0  0  0  0  0  0
  130.4110  125.9650   65.4470 C   0  0  0  0  0  0  0  0  0  0  0  0
  130.3960  127.0130   66.5700 C   0  0  2  0  0  0  0  0  0  0  0  0
  130.1140  126.4250   67.8620 N   0  0  0  0  0  0  0  0  0  0  0  0
  129.4780  127.2250   68.6190 C   0  0  0  0  0  0  0  0  0  0  0  0
  129.0270  127.0040   69.8830 N   0  0  0  0  0  0  0  0  0  0  0  0
  129.0210  125.8450   70.5840 C   0  0  0  0  0  0  0  0  0  0  0  0
  129.4770  124.7680   70.1920 O   0  0  0  0  0  0  0  0  0  0  0  0
  128.3780  125.9180   71.9790 C   0  0  0  0  0  0  0  0  0  0  0  0
  128.4600  127.3090   72.4780 N   0  0  0  0  0  0  0  0  0  0  0  0
  129.6220  127.9940   72.1480 N   0  0  0  0  0  0  0  0  0  0  0  0
  129.8170  129.2170   72.5250 N   0  0  0  0  0  0  0  0  0  0  0  0
  128.8430  129.8740   73.2800 C   0  0  0  0  0  0  0  0  0  0  0  0
  129.0850  131.1930   73.6730 C   0  0  0  0  0  0  0  0  0  0  0  0
  128.1310  131.8760   74.4280 C   0  0  0  0  0  0  0  0  0  0  0  0
  126.9390  131.2450   74.7920 C   0  0  0  0  0  0  0  0  0  0  0  0
  126.6950  129.9270   74.4010 C   0  0  0  0  0  0  0  0  0  0  0  0
  127.6520  129.2420   73.6410 C   0  0  0  0  0  0  0  0  0  0  0  0
  127.4090  127.8140   73.2120 C   0  0  0  0  0  0  0  0  0  0  0  0
  126.3920  127.1750   73.4970 O   0  0  0  0  0  0  0  0  0  0  0  0
  129.1060  128.8430   67.9560 S   0  0  0  0  0  0  0  0  0  0  0  0
  129.4620  128.2170   66.3050 C   0  0  2  0  0  0  0  0  0  0  0  0
  128.1320  127.9160   65.5830 C   0  0  0  0  0  0  0  0  0  0  0  0
  130.5760  126.3890   64.1230 C   0  0  0  0  0  0  0  0  0  0  0  0
  130.5760  125.4700   63.0730 C   0  0  0  0  0  0  0  0  0  0  0  0
  130.4620  124.1000   63.3420 C   0  0  0  0  0  0  0  0  0  0  0  0
  128.6360  122.0940   60.1190 C   0  0  0  0  0  0  0  0  0  0  0  0
  127.6870  122.1000   59.1010 C   0  0  0  0  0  0  0  0  0  0  0  0
  1  2  1  0
  2  3  2  0
  3  4  1  0
  4  5  2  0
  5  6  1  0
  6  7  2  0
  6  8  1  0
  8  9  1  0
  9 10  1  0
 10 11  1  0
 11 12  2  0
 12 13  1  0
 14 13  1  6
 14 15  1  0
 15 16  2  0
 16 17  1  0
 17 18  1  0
 18 19  2  0
 18 20  1  0
 20 21  1  0
 21 22  1  0
 22 23  2  0
 23 24  1  0
 24 25  2  0
 25 26  1  0
 26 27  2  0
 27 28  1  0
 28 29  2  0
 29 30  1  0
 30 31  2  0
 16 32  1  0
 32 33  1  0
 33 34  1  1
 13 35  2  0
 35 36  1  0
 36 37  2  0
  5 38  1  0
 38 39  2  0
 39  2  1  0
 37  8  1  0
 37 11  1  0
 33 14  1  0
 30 21  1  0
 29 24  1  0
M  END
>  <Binding energies>  (47) 
[-9.65]

>  <Ligand effiencies>  (47) 
[-0.24125000000000002]

>  <Interactions>  (47) 
["V-A:LEU:475:CD1:4254, V-A:GLU:543:CD:4905, V-B:TYR:539:CE2:9845, V-B:ALA:541:CB:9861, V-B:PRO:540:CA:9852, V-B:GLU:543:CD:9877, V-A:GLU:543:CB:4903, V-B:TYR:539:CZ:9846, V-A:HIS:456:CD2:4064, V-B:TYR:539:CD2:9843, V-B:TYR:539:CE1:9844, V-A:HIS:456:CE1:4066, V-B:HIS:456:CD2:9036, V-B:GLU:543:CG:9876, V-B:HIS:456:CE1:9038, V-B:LYS:547:CE:9919, V-B:TYR:539:C:9836, H-B:TYR:539:OH:9847, V-A:LYS:547:CE:4947, V-A:TYR:484:CE1:4341, V-A:TYR:484:CZ:4343, H-A:LYS:547:NZ:4948, V-B:PRO:540:N:9853, V-B:HIS:456:CG:9034, V-A:LEU:475:CD2:4255, V-B:PRO:540:C:9850, V-A:GLU:543:CG:4904, V-B:HIS:456:CB:9033, H-B:HIS:456:NE2:9039, H-A:GLU:543:O:4900, V-B:ASP:473:CG:9208, V-B:LYS:471:CE:9188"]

$$$$
RR26_Rahimova_2017
     RDKit          3D

 38 44  0  0  0  0  0  0  0  0999 V2000
  131.7390  128.4170   68.4470 C   0  0  0  0  0  0  0  0  0  0  0  0
  130.6570  127.7650   69.2990 C   0  0  0  0  0  0  0  0  0  0  0  0
  130.8410  127.7220   70.6850 C   0  0  0  0  0  0  0  0  0  0  0  0
  129.8660  127.1730   71.5160 C   0  0  0  0  0  0  0  0  0  0  0  0
  128.6910  126.6690   70.9660 C   0  0  0  0  0  0  0  0  0  0  0  0
  128.4960  126.7070   69.5870 C   0  0  0  0  0  0  0  0  0  0  0  0
  129.4700  127.2470   68.7340 C   0  0  0  0  0  0  0  0  0  0  0  0
  129.1860  127.2360   67.2600 C   0  0  0  0  0  0  0  0  0  0  0  0
  129.5310  126.2160   66.4770 N   0  0  0  0  0  0  0  0  0  0  0  0
  129.0950  126.6110   65.3120 C   0  0  0  0  0  0  0  0  0  0  0  0
  129.0910  125.9710   63.7100 S   0  0  0  0  0  0  0  0  0  0  0  0
  128.2260  127.4490   63.1450 C   0  0  0  0  0  0  0  0  0  0  0  0
  127.8260  127.7440   61.8890 C   0  0  0  0  0  0  0  0  0  0  0  0
  127.9870  126.9440   60.6850 C   0  0  0  0  0  0  0  0  0  0  0  0
  127.2860  125.8080   60.3110 C   0  0  0  0  0  0  0  0  0  0  0  0
  127.7460  125.4140   59.0800 N   0  0  0  0  0  0  0  0  0  0  0  0
  127.3220  124.3090   58.2980 C   0  0  0  0  0  0  0  0  0  0  0  0
  126.0600  124.3040   57.6860 C   0  0  0  0  0  0  0  0  0  0  0  0
  125.6560  123.2120   56.9230 C   0  0  0  0  0  0  0  0  0  0  0  0
  126.5100  122.1240   56.7670 C   0  0  0  0  0  0  0  0  0  0  0  0
  127.7680  122.1180   57.3670 C   0  0  0  0  0  0  0  0  0  0  0  0
  128.1740  123.2070   58.1320 C   0  0  0  0  0  0  0  0  0  0  0  0
  128.6870  126.2630   58.6420 N   0  0  0  0  0  0  0  0  0  0  0  0
  128.8440  127.1720   59.5850 C   0  0  0  0  0  0  0  0  0  0  0  0
  129.8450  128.2710   59.4020 C   0  0  0  0  0  0  0  0  0  0  0  0
  129.8910  129.3460   60.3020 C   0  0  0  0  0  0  0  0  0  0  0  0
  130.8170  130.3780   60.1390 C   0  0  0  0  0  0  0  0  0  0  0  0
  131.7080  130.3410   59.0680 C   0  0  0  0  0  0  0  0  0  0  0  0
  131.6850  129.2620   58.1720 C   0  0  0  0  0  0  0  0  0  0  0  0
  130.7540  128.2370   58.3340 C   0  0  0  0  0  0  0  0  0  0  0  0
  132.5180  129.2060   57.0720 O   0  0  0  0  0  0  0  0  0  0  0  0
  133.6620  130.0600   57.1600 C   0  0  0  0  0  0  0  0  0  0  0  0
  133.2570  131.4600   57.6830 C   0  0  0  0  0  0  0  0  0  0  0  0
  132.6390  131.3560   58.9710 O   0  0  0  0  0  0  0  0  0  0  0  0
  127.9760  128.3940   64.2300 C   0  0  0  0  0  0  0  0  0  0  0  0
  127.4190  129.4920   64.1910 O   0  0  0  0  0  0  0  0  0  0  0  0
  128.5050  127.8180   65.3950 N   0  0  0  0  0  0  0  0  0  0  0  0
  128.5540  128.2340   66.6630 N   0  0  0  0  0  0  0  0  0  0  0  0
  1  2  1  0
  2  3  2  0
  3  4  1  0
  4  5  2  0
  5  6  1  0
  6  7  2  0
  7  8  1  0
  8  9  1  0
  9 10  2  0
 10 11  1  0
 11 12  1  0
 12 13  2  0
 13 14  1  0
 14 15  2  0
 15 16  1  0
 16 17  1  0
 17 18  2  0
 18 19  1  0
 19 20  2  0
 20 21  1  0
 21 22  2  0
 16 23  1  0
 23 24  2  0
 24 25  1  0
 25 26  2  0
 26 27  1  0
 27 28  2  0
 28 29  1  0
 29 30  2  0
 29 31  1  0
 31 32  1  0
 32 33  1  0
 33 34  1  0
 12 35  1  0
 35 36  2  0
 35 37  1  0
 37 38  1  0
  7  2  1  0
 38  8  2  0
 37 10  1  0
 24 14  1  0
 30 25  1  0
 22 17  1  0
 34 28  1  0
M  END
>  <Binding energies>  (48) 
[-8.75]

>  <Ligand effiencies>  (48) 
[-0.23026315789473684]

>  <Interactions>  (48) 
["V-A:GLU:543:C:4899, V-A:GLU:543:CD:4905, V-B:PRO:540:CA:9852, V-B:GLU:543:CD:9877, V-A:GLU:543:CB:4903, V-B:TYR:539:CZ:9846, V-A:HIS:456:CD2:4064, V-B:TYR:539:CE1:9844, V-A:HIS:456:CE1:4066, V-B:HIS:456:CD2:9036, V-B:GLU:543:CG:9876, V-B:HIS:456:CE1:9038, V-A:ASP:366:CG:3209, V-A:ASP:366:CB:3208, V-B:TYR:539:C:9836, V-A:ARG:545:CG:4919, V-A:GLY:544:C:4909, V-B:TYR:539:CD1:9842, V-B:PRO:540:N:9853, V-B:TYR:539:CG:9841, V-A:ARG:545:CA:4916, V-B:PRO:540:CB:9854, V-A:PRO:540:CA:4880, H-A:TYR:531:OH:4792, V-A:PRO:540:CB:4882, V-A:LEU:363:CA:3181, V-B:PRO:540:CD:9856, V-B:ILE:538:CB:9831, V-B:LEU:363:CD1:8157, V-A:LEU:363:CD1:3185, V-A:GLU:543:CA:4901, V-B:TYR:539:CA:9838, V-A:LEU:363:CB:3183, V-A:TYR:531:CZ:4791"]

$$$$
RR2_Rahimova_2017
     RDKit          3D

 46 50  0  0  0  0  0  0  0  0999 V2000
  127.6720  132.5620   64.8850 C   0  0  0  0  0  0  0  0  0  0  0  0
  126.7570  131.5070   64.6080 O   0  0  0  0  0  0  0  0  0  0  0  0
  126.8240  130.8600   63.3880 C   0  0  0  0  0  0  0  0  0  0  0  0
  127.1580  131.4840   62.1780 C   0  0  0  0  0  0  0  0  0  0  0  0
  127.1970  130.7500   60.9960 C   0  0  0  0  0  0  0  0  0  0  0  0
  126.9010  129.3800   60.9940 C   0  0  0  0  0  0  0  0  0  0  0  0
  126.9430  128.6050   59.6910 C   0  0  0  0  0  0  0  0  0  0  0  0
  127.2280  129.1780   58.6340 O   0  0  0  0  0  0  0  0  0  0  0  0
  126.6410  127.2880   59.7780 N   0  0  0  0  0  0  0  0  0  0  0  0
  126.5740  126.5510   58.6000 N   0  0  0  0  0  0  0  0  0  0  0  0
  126.0950  125.2920   58.6620 C   0  0  0  0  0  0  0  0  0  0  0  0
  125.8740  124.6720   59.7060 O   0  0  0  0  0  0  0  0  0  0  0  0
  125.7960  124.6320   57.3100 C   0  0  0  0  0  0  0  0  0  0  0  0
  127.2060  123.7430   56.5530 S   0  0  0  0  0  0  0  0  0  0  0  0
  127.9300  123.0030   57.9850 C   0  0  0  0  0  0  0  0  0  0  0  0
  127.6580  121.7820   58.3710 N   0  0  0  0  0  0  0  0  0  0  0  0
  128.3400  121.5590   59.5590 N   0  0  0  0  0  0  0  0  0  0  0  0
  129.0240  122.6450   59.8310 C   0  0  0  0  0  0  0  0  0  0  0  0
  129.9030  122.7840   61.0320 C   0  0  0  0  0  0  0  0  0  0  0  0
  131.2000  122.2660   61.0060 C   0  0  0  0  0  0  0  0  0  0  0  0
  132.0230  122.3830   62.1220 C   0  0  0  0  0  0  0  0  0  0  0  0
  131.5620  123.0360   63.2700 C   0  0  0  0  0  0  0  0  0  0  0  0
  132.3440  123.1750   64.4270 N   0  0  0  0  0  0  0  0  0  0  0  0
  133.1120  124.6890   64.9540 S   0  0  0  0  0  0  0  0  0  0  0  0
  133.4200  125.4340   63.7280 O   0  0  0  0  0  0  0  0  0  0  0  0
  134.1690  124.3520   65.9150 O   0  0  0  0  0  0  0  0  0  0  0  0
  131.8230  125.5990   65.8010 C   0  0  0  0  0  0  0  0  0  0  0  0
  130.5550  125.0400   65.9760 C   0  0  0  0  0  0  0  0  0  0  0  0
  129.5620  125.7700   66.6230 C   0  0  0  0  0  0  0  0  0  0  0  0
  129.8380  127.0540   67.1000 C   0  0  0  0  0  0  0  0  0  0  0  0
  128.7500  127.8540   67.7920 C   0  0  0  0  0  0  0  0  0  0  0  0
  131.1060  127.6110   66.9200 C   0  0  0  0  0  0  0  0  0  0  0  0
  132.0990  126.8830   66.2720 C   0  0  0  0  0  0  0  0  0  0  0  0
  130.2670  123.5560   63.2940 C   0  0  0  0  0  0  0  0  0  0  0  0
  129.4410  123.4330   62.1810 C   0  0  0  0  0  0  0  0  0  0  0  0
  128.8040  123.6130   58.8650 N   0  0  0  0  0  0  0  0  0  0  0  0
  129.3110  124.9280   58.8100 C   0  0  0  0  0  0  0  0  0  0  0  0
  129.3270  125.7170   59.9610 C   0  0  0  0  0  0  0  0  0  0  0  0
  129.8340  127.0120   59.9010 C   0  0  0  0  0  0  0  0  0  0  0  0
  130.3240  127.5290   58.7010 C   0  0  0  0  0  0  0  0  0  0  0  0
  130.8050  128.8230   58.7400 O   0  0  0  0  0  0  0  0  0  0  0  0
  131.8150  129.2180   57.8170 C   0  0  0  0  0  0  0  0  0  0  0  0
  130.3040  126.7270   57.5480 C   0  0  0  0  0  0  0  0  0  0  0  0
  129.8010  125.4310   57.6030 C   0  0  0  0  0  0  0  0  0  0  0  0
  126.5730  128.7610   62.2100 C   0  0  0  0  0  0  0  0  0  0  0  0
  126.5360  129.4970   63.3910 C   0  0  0  0  0  0  0  0  0  0  0  0
  1  2  1  0
  2  3  1  0
  3  4  2  0
  4  5  1  0
  5  6  2  0
  6  7  1  0
  7  8  2  0
  7  9  1  0
  9 10  1  0
 10 11  1  0
 11 12  2  0
 11 13  1  0
 13 14  1  0
 14 15  1  0
 15 16  2  0
 16 17  1  0
 17 18  2  0
 18 19  1  0
 19 20  2  0
 20 21  1  0
 21 22  2  0
 22 23  1  0
 23 24  1  0
 24 25  2  0
 24 26  2  0
 24 27  1  0
 27 28  2  0
 28 29  1  0
 29 30  2  0
 30 31  1  0
 30 32  1  0
 32 33  2  0
 22 34  1  0
 34 35  2  0
 18 36  1  0
 36 37  1  0
 37 38  2  0
 38 39  1  0
 39 40  2  0
 40 41  1  0
 41 42  1  0
 40 43  1  0
 43 44  2  0
  6 45  1  0
 45 46  2  0
 46  3  1  0
 36 15  1  0
 44 37  1  0
 35 19  1  0
 33 27  1  0
M  END
>  <Binding energies>  (49) 
[-8.34]

>  <Ligand effiencies>  (49) 
[-0.17020408163265305]

>  <Interactions>  (49) 
["V-A:LEU:475:CD1:4254, V-A:GLU:543:CD:4905, V-B:TYR:539:CE2:9845, V-B:ALA:541:CB:9861, V-A:GLU:543:CB:4903, V-B:TYR:539:CZ:9846, V-B:TYR:539:CD2:9843, V-A:HIS:456:CE1:4066, V-A:ARG:545:CZ:4923, V-B:GLU:543:CG:9876, V-B:HIS:456:CE1:9038, V-A:ASP:366:CG:3209, V-A:ASP:366:CB:3208, V-B:GLU:543:CB:9875, H-A:TYR:484:OH:4344, V-A:GLY:454:CA:4045, H-A:ARG:545:NH2:4925, H-A:ARG:545:NE:4921, V-A:ARG:545:CG:4919, V-A:ARG:545:CD:4920, V-A:TYR:484:CE1:4341, H-B:GLU:543:OE2:9879, V-A:TYR:484:CZ:4343, H-A:GLY:454:N:4046, H-A:ARG:545:NH1:4924, H-A:GLY:454:O:4044, V-B:MET:535:CE:9804, H-B:ASP:366:OD1:8182, V-B:ASP:366:CG:8181, V-A:GLU:543:CG:4904, V-A:ALA:541:CB:4889, H-B:TYR:484:OH:9316, V-B:TYR:484:CZ:9315, V-B:TYR:484:CE1:9313, H-A:HIS:456:ND1:4063, H-B:TYR:531:OH:9764"]

$$$$
RR33_Rahimova_2017
     RDKit          3D

 18 19  0  0  0  0  0  0  0  0999 V2000
  127.0860  127.7640   73.8530 C   0  0  0  0  0  0  0  0  0  0  0  0
  128.4020  128.5160   73.6350 C   0  0  0  0  0  0  0  0  0  0  0  0
  129.3540  127.6180   73.0710 O   0  0  0  0  0  0  0  0  0  0  0  0
  129.3270  127.3650   71.7130 C   0  0  0  0  0  0  0  0  0  0  0  0
  130.3520  127.9290   70.9550 C   0  0  0  0  0  0  0  0  0  0  0  0
  130.4050  127.7320   69.5780 C   0  0  0  0  0  0  0  0  0  0  0  0
  129.4290  126.9640   68.9370 C   0  0  0  0  0  0  0  0  0  0  0  0
  129.4870  126.7530   67.4570 C   0  0  0  0  0  0  0  0  0  0  0  0
  130.1560  125.8300   66.8040 N   0  0  0  0  0  0  0  0  0  0  0  0
  129.8940  126.0480   65.5240 C   0  0  0  0  0  0  0  0  0  0  0  0
  130.4870  125.1650   64.4470 C   0  0  0  0  0  0  0  0  0  0  0  0
  130.9170  123.8920   65.0070 N   0  0  0  0  0  0  0  0  0  0  0  0
  129.9620  122.8430   64.6870 C   0  0  0  0  0  0  0  0  0  0  0  0
  129.0400  127.1370   65.4020 C   0  0  0  0  0  0  0  0  0  0  0  0
  128.3860  127.8650   64.2530 C   0  0  0  0  0  0  0  0  0  0  0  0
  128.7820  127.5890   66.6510 O   0  0  0  0  0  0  0  0  0  0  0  0
  128.4020  126.3920   69.6940 C   0  0  0  0  0  0  0  0  0  0  0  0
  128.3480  126.5900   71.0720 C   0  0  0  0  0  0  0  0  0  0  0  0
  1  2  1  0
  2  3  1  0
  3  4  1  0
  4  5  2  0
  5  6  1  0
  6  7  2  0
  7  8  1  0
  8  9  2  0
  9 10  1  0
 10 11  1  0
 11 12  1  0
 12 13  1  0
 10 14  2  0
 14 15  1  0
 14 16  1  0
  7 17  1  0
 17 18  2  0
 18  4  1  0
 16  8  1  0
M  END
>  <Binding energies>  (50) 
[-5.19]

>  <Ligand effiencies>  (50) 
[-0.2731578947368421]

>  <Interactions>  (50) 
["V-A:GLU:543:C:4899, V-A:GLU:543:CD:4905, V-B:ALA:541:CB:9861, V-B:GLU:543:CD:9877, V-A:HIS:456:CD2:4064, V-A:HIS:456:CE1:4066, V-B:HIS:456:CD2:9036, V-B:GLU:543:CG:9876, V-B:HIS:456:CE1:9038, V-B:LYS:547:CE:9919, H-A:TYR:484:OH:4344, V-A:LYS:547:CE:4947, V-A:TYR:484:CE1:4341, V-A:GLY:544:C:4909, V-A:TYR:484:CZ:4343, H-A:LYS:547:NZ:4948, V-B:LYS:547:CD:9918"]

$$$$
RR3_Rahimova_2017
     RDKit          3D

 38 44  0  0  0  0  0  0  0  0999 V2000
  125.3640  133.3880   62.1280 C   0  0  0  0  0  0  0  0  0  0  0  0
  125.7450  133.1210   63.4390 C   0  0  0  0  0  0  0  0  0  0  0  0
  126.4050  131.9320   63.7360 C   0  0  0  0  0  0  0  0  0  0  0  0
  126.6950  130.9980   62.7310 C   0  0  0  0  0  0  0  0  0  0  0  0
  127.4060  129.7210   63.0520 C   0  0  0  0  0  0  0  0  0  0  0  0
  127.4100  129.2070   64.3560 C   0  0  0  0  0  0  0  0  0  0  0  0
  128.0750  128.0210   64.6550 C   0  0  0  0  0  0  0  0  0  0  0  0
  128.7590  127.3240   63.6560 C   0  0  0  0  0  0  0  0  0  0  0  0
  129.4810  126.0510   63.9720 C   0  0  0  0  0  0  0  0  0  0  0  0
  129.8570  125.2400   62.9900 N   0  0  0  0  0  0  0  0  0  0  0  0
  130.4970  124.2430   63.5520 C   0  0  0  0  0  0  0  0  0  0  0  0
  131.0870  123.1120   62.8400 C   0  0  0  0  0  0  0  0  0  0  0  0
  130.4640  121.9020   62.5830 C   0  0  0  0  0  0  0  0  0  0  0  0
  131.3060  121.0760   61.8860 N   0  0  0  0  0  0  0  0  0  0  0  0
  132.5080  121.7100   61.6640 C   0  0  0  0  0  0  0  0  0  0  0  0
  133.6630  121.2740   61.0060 C   0  0  0  0  0  0  0  0  0  0  0  0
  134.7340  122.1660   60.9480 C   0  0  0  0  0  0  0  0  0  0  0  0
  134.6650  123.4340   61.5170 C   0  0  0  0  0  0  0  0  0  0  0  0
  133.5140  123.8680   62.1720 C   0  0  0  0  0  0  0  0  0  0  0  0
  132.4050  123.0070   62.2590 C   0  0  0  0  0  0  0  0  0  0  0  0
  130.5370  124.3920   64.9110 N   0  0  0  0  0  0  0  0  0  0  0  0
  129.8660  125.5460   65.2250 C   0  0  0  0  0  0  0  0  0  0  0  0
  129.6530  126.0030   66.6310 C   0  0  0  0  0  0  0  0  0  0  0  0
  129.1110  125.1310   67.5760 C   0  0  0  0  0  0  0  0  0  0  0  0
  128.8990  125.5570   68.8830 C   0  0  0  0  0  0  0  0  0  0  0  0
  129.2280  126.8620   69.2780 C   0  0  0  0  0  0  0  0  0  0  0  0
  128.9800  127.3240   70.6800 C   0  0  0  0  0  0  0  0  0  0  0  0
  129.6480  128.4450   71.1970 C   0  0  0  0  0  0  0  0  0  0  0  0
  129.4140  128.8760   72.5010 C   0  0  0  0  0  0  0  0  0  0  0  0
  128.5070  128.1900   73.3020 C   0  0  0  0  0  0  0  0  0  0  0  0
  127.8340  127.0770   72.8100 C   0  0  0  0  0  0  0  0  0  0  0  0
  128.0710  126.6470   71.5070 C   0  0  0  0  0  0  0  0  0  0  0  0
  129.7880  127.7230   68.3230 C   0  0  0  0  0  0  0  0  0  0  0  0
  130.0010  127.3000   67.0150 C   0  0  0  0  0  0  0  0  0  0  0  0
  128.7500  127.8210   62.3510 C   0  0  0  0  0  0  0  0  0  0  0  0
  128.0850  129.0070   62.0550 C   0  0  0  0  0  0  0  0  0  0  0  0
  126.3010  131.2890   61.4160 C   0  0  0  0  0  0  0  0  0  0  0  0
  125.6410  132.4760   61.1140 C   0  0  0  0  0  0  0  0  0  0  0  0
  1  2  2  0
  2  3  1  0
  3  4  2  0
  4  5  1  0
  5  6  2  0
  6  7  1  0
  7  8  2  0
  8  9  1  0
  9 10  1  0
 10 11  2  0
 11 12  1  0
 12 13  2  0
 13 14  1  0
 14 15  1  0
 15 16  2  0
 16 17  1  0
 17 18  2  0
 18 19  1  0
 19 20  2  0
 11 21  1  0
 21 22  1  0
 22 23  1  0
 23 24  2  0
 24 25  1  0
 25 26  2  0
 26 27  1  0
 27 28  2  0
 28 29  1  0
 29 30  2  0
 30 31  1  0
 31 32  2  0
 26 33  1  0
 33 34  2  0
  8 35  1  0
 35 36  2  0
  4 37  1  0
 37 38  2  0
 38  1  1  0
 36  5  1  0
 22  9  2  0
 34 23  1  0
 20 12  1  0
 32 27  1  0
 20 15  1  0
M  END
>  <Binding energies>  (51) 
[-9.45]

>  <Ligand effiencies>  (51) 
[-0.23625]

>  <Interactions>  (51) 
["V-A:ILE:369:CG1:3234, V-A:ILE:369:CG2:3233, V-A:LEU:475:CD1:4254, V-A:GLU:543:CD:4905, V-B:TYR:539:CE2:9845, V-B:ALA:541:CB:9861, V-B:GLU:543:C:9871, V-B:GLU:543:CD:9877, V-A:GLU:543:CB:4903, V-B:TYR:539:CD2:9843, V-A:HIS:456:CE1:4066, V-B:HIS:456:CD2:9036, V-B:GLU:543:CG:9876, V-B:GLY:544:C:9881, V-B:LYS:547:CE:9919, V-A:ILE:369:CB:3232, V-B:GLU:543:CB:9875, H-A:TYR:484:OH:4344, V-A:GLY:453:C:4038, V-A:ILE:369:CD1:3235, V-A:GLY:454:CA:4045, V-B:GLU:543:CA:9873, V-A:LYS:547:CE:4947, V-A:GLY:453:CA:4040, V-A:TYR:484:CE1:4341, V-B:LEU:475:CD2:9227"]

$$$$
RR4_Rahimova_2017
     RDKit          3D

 40 44  0  0  0  0  0  0  0  0999 V2000
  129.8400  120.4940   61.2700 C   0  0  0  0  0  0  0  0  0  0  0  0
  130.8680  121.3550   61.7460 O   0  0  0  0  0  0  0  0  0  0  0  0
  130.5220  122.5360   62.3740 C   0  0  0  0  0  0  0  0  0  0  0  0
  130.3710  122.4880   63.7580 C   0  0  0  0  0  0  0  0  0  0  0  0
  130.0250  123.6290   64.4750 C   0  0  0  0  0  0  0  0  0  0  0  0
  129.8160  124.8550   63.8260 C   0  0  0  0  0  0  0  0  0  0  0  0
  129.4420  126.0850   64.6030 C   0  0  0  0  0  0  0  0  0  0  0  0
  129.5640  126.1700   65.9930 C   0  0  0  0  0  0  0  0  0  0  0  0
  129.2050  127.3420   66.6720 C   0  0  0  0  0  0  0  0  0  0  0  0
  129.3910  127.3680   68.1540 C   0  0  0  0  0  0  0  0  0  0  0  0
  128.4290  126.7970   68.9920 C   0  0  0  0  0  0  0  0  0  0  0  0
  128.5990  126.8070   70.3740 C   0  0  0  0  0  0  0  0  0  0  0  0
  129.7350  127.3810   70.9440 C   0  0  0  0  0  0  0  0  0  0  0  0
  129.8190  127.3450   72.3230 O   0  0  0  0  0  0  0  0  0  0  0  0
  128.6200  127.3540   73.0920 C   0  0  0  0  0  0  0  0  0  0  0  0
  130.7050  127.9520   70.1060 C   0  0  0  0  0  0  0  0  0  0  0  0
  130.5330  127.9400   68.7250 C   0  0  0  0  0  0  0  0  0  0  0  0
  128.6890  128.4250   65.9200 C   0  0  0  0  0  0  0  0  0  0  0  0
  128.2990  129.6750   66.5800 C   0  0  0  0  0  0  0  0  0  0  0  0
  127.9900  130.6610   67.1010 N   0  0  0  0  0  0  0  0  0  0  0  0
  128.5640  128.2610   64.5220 C   0  0  0  0  0  0  0  0  0  0  0  0
  127.9250  129.5080   63.4250 S   0  0  0  0  0  0  0  0  0  0  0  0
  126.5390  128.7740   62.4930 C   0  0  0  0  0  0  0  0  0  0  0  0
  126.9610  127.9340   61.2800 C   0  0  0  0  0  0  0  0  0  0  0  0
  127.5660  128.4530   60.3390 O   0  0  0  0  0  0  0  0  0  0  0  0
  126.6030  126.6300   61.3420 N   0  0  0  0  0  0  0  0  0  0  0  0
  126.8400  125.6190   60.4080 C   0  0  0  0  0  0  0  0  0  0  0  0
  127.2840  123.9950   60.8600 S   0  0  0  0  0  0  0  0  0  0  0  0
  127.3700  123.4960   59.1980 C   0  0  0  0  0  0  0  0  0  0  0  0
  127.0690  124.5540   58.3260 C   0  0  0  0  0  0  0  0  0  0  0  0
  126.7540  125.7510   59.0130 C   0  0  0  0  0  0  0  0  0  0  0  0
  126.3860  126.9920   58.3390 C   0  0  0  0  0  0  0  0  0  0  0  0
  126.0960  127.9760   57.8030 N   0  0  0  0  0  0  0  0  0  0  0  0
  127.0400  124.3560   56.8050 C   0  0  0  0  0  0  0  0  0  0  0  0
  126.9770  122.8530   56.4520 C   0  0  0  0  0  0  0  0  0  0  0  0
  127.9800  122.0220   57.2710 C   0  0  0  0  0  0  0  0  0  0  0  0
  127.6680  122.0620   58.7820 C   0  0  0  0  0  0  0  0  0  0  0  0
  128.9490  127.1280   63.8880 N   0  0  0  0  0  0  0  0  0  0  0  0
  129.9750  124.8950   62.4320 C   0  0  0  0  0  0  0  0  0  0  0  0
  130.3200  123.7550   61.7120 C   0  0  0  0  0  0  0  0  0  0  0  0
  1  2  1  0
  2  3  1  0
  3  4  2  0
  4  5  1  0
  5  6  2  0
  6  7  1  0
  7  8  2  0
  8  9  1  0
  9 10  1  0
 10 11  2  0
 11 12  1  0
 12 13  2  0
 13 14  1  0
 14 15  1  0
 13 16  1  0
 16 17  2  0
  9 18  2  0
 18 19  1  0
 19 20  3  0
 18 21  1  0
 21 22  1  0
 22 23  1  0
 23 24  1  0
 24 25  2  0
 24 26  1  0
 26 27  1  0
 27 28  1  0
 28 29  1  0
 29 30  2  0
 30 31  1  0
 31 32  1  0
 32 33  3  0
 30 34  1  0
 34 35  1  0
 35 36  1  0
 36 37  1  0
 21 38  2  0
  6 39  1  0
 39 40  2  0
 40  3  1  0
 38  7  1  0
 17 10  1  0
 31 27  2  0
 37 29  1  0
M  END
>  <Binding energies>  (52) 
[-9.44]

>  <Ligand effiencies>  (52) 
[-0.23024390243902437]

>  <Interactions>  (52) 
["V-A:GLU:543:C:4899, V-A:LEU:475:CD1:4254, V-A:GLU:543:CD:4905, V-B:TYR:539:CE2:9845, V-B:ALA:541:CB:9861, V-B:PRO:540:CA:9852, V-B:GLU:543:CD:9877, V-A:GLU:543:CB:4903, V-B:TYR:539:CZ:9846, V-A:HIS:456:CD2:4064, V-B:TYR:539:CD2:9843, V-B:TYR:539:CE1:9844, V-A:HIS:456:CE1:4066, V-B:HIS:456:CD2:9036, V-B:GLU:543:CG:9876, V-B:HIS:456:CE1:9038, V-B:LYS:547:CE:9919, V-B:GLU:543:CB:9875, V-B:TYR:539:C:9836, V-A:TYR:484:CE1:4341, H-B:GLU:543:OE2:9879, V-A:GLY:544:C:4909, H-A:LYS:547:NZ:4948, H-B:GLU:543:OE1:9878, V-B:TYR:539:CD1:9842, V-B:PRO:540:N:9853, V-B:TYR:539:CG:9841, V-B:MET:535:CE:9804, H-B:ASP:366:OD1:8182, V-A:GLU:543:CG:4904, H-B:TYR:484:OH:9316, V-B:TYR:539:CA:9838, H-B:TYR:531:OH:9764"]

$$$$
RR6_Rahimova_2017
     RDKit          3D

 38 41  0  0  0  0  0  0  0  0999 V2000
  135.8390  123.9610   60.8740 C   0  0  0  0  0  0  0  0  0  0  0  0
  135.3640  122.7530   61.4520 O   0  0  0  0  0  0  0  0  0  0  0  0
  134.0330  122.5100   61.5690 C   0  0  0  0  0  0  0  0  0  0  0  0
  133.5430  121.3770   61.5250 O   0  0  0  0  0  0  0  0  0  0  0  0
  133.2160  123.7550   61.7570 C   0  0  0  0  0  0  0  0  0  0  0  0
  133.1740  124.4380   62.9810 C   0  0  0  0  0  0  0  0  0  0  0  0
  132.4000  125.5880   63.1270 C   0  0  0  0  0  0  0  0  0  0  0  0
  131.6490  126.0720   62.0450 C   0  0  0  0  0  0  0  0  0  0  0  0
  130.8140  127.2030   62.0910 N   0  0  0  0  0  0  0  0  0  0  0  0
  129.6800  127.4590   61.4010 C   0  0  0  0  0  0  0  0  0  0  0  0
  129.1550  126.7020   60.5840 O   0  0  0  0  0  0  0  0  0  0  0  0
  129.0590  128.8400   61.6380 C   0  0  0  0  0  0  0  0  0  0  0  0
  127.8890  128.8870   63.0360 S   0  0  0  0  0  0  0  0  0  0  0  0
  128.4450  127.6730   64.2130 C   0  0  0  0  0  0  0  0  0  0  0  0
  128.7250  126.4620   63.6750 N   0  0  0  0  0  0  0  0  0  0  0  0
  129.1860  125.4620   64.4690 C   0  0  0  0  0  0  0  0  0  0  0  0
  129.5300  124.1720   63.7850 C   0  0  0  0  0  0  0  0  0  0  0  0
  130.2760  123.1820   64.4430 C   0  0  0  0  0  0  0  0  0  0  0  0
  130.6070  121.9900   63.8040 C   0  0  0  0  0  0  0  0  0  0  0  0
  130.1930  121.7640   62.4920 C   0  0  0  0  0  0  0  0  0  0  0  0
  130.5640  120.4670   61.7960 C   0  0  0  0  0  0  0  0  0  0  0  0
  129.4500  122.7330   61.8210 C   0  0  0  0  0  0  0  0  0  0  0  0
  129.1220  123.9210   62.4650 C   0  0  0  0  0  0  0  0  0  0  0  0
  129.3630  125.6640   65.8410 C   0  0  0  0  0  0  0  0  0  0  0  0
  129.0750  126.9060   66.4230 C   0  0  0  0  0  0  0  0  0  0  0  0
  129.3040  127.0580   67.8910 C   0  0  0  0  0  0  0  0  0  0  0  0
  128.4070  126.4950   68.8040 C   0  0  0  0  0  0  0  0  0  0  0  0
  128.6220  126.6170   70.1740 C   0  0  0  0  0  0  0  0  0  0  0  0
  129.7380  127.2980   70.6580 C   0  0  0  0  0  0  0  0  0  0  0  0
  129.8710  127.3680   72.0310 O   0  0  0  0  0  0  0  0  0  0  0  0
  128.7190  127.1920   72.8490 C   0  0  0  0  0  0  0  0  0  0  0  0
  130.6440  127.8600   69.7460 C   0  0  0  0  0  0  0  0  0  0  0  0
  130.4270  127.7350   68.3760 C   0  0  0  0  0  0  0  0  0  0  0  0
  128.5950  127.9450   65.5880 C   0  0  0  0  0  0  0  0  0  0  0  0
  128.2480  129.2610   66.1360 C   0  0  0  0  0  0  0  0  0  0  0  0
  127.9760  130.2990   66.5680 N   0  0  0  0  0  0  0  0  0  0  0  0
  131.7020  125.4040   60.8210 C   0  0  0  0  0  0  0  0  0  0  0  0
  132.4740  124.2540   60.6790 C   0  0  0  0  0  0  0  0  0  0  0  0
  1  2  1  0
  2  3  1  0
  3  4  2  0
  3  5  1  0
  5  6  2  0
  6  7  1  0
  7  8  2  0
  8  9  1  0
  9 10  1  0
 10 11  2  0
 10 12  1  0
 12 13  1  0
 13 14  1  0
 14 15  2  0
 15 16  1  0
 16 17  1  0
 17 18  2  0
 18 19  1  0
 19 20  2  0
 20 21  1  0
 20 22  1  0
 22 23  2  0
 16 24  2  0
 24 25  1  0
 25 26  1  0
 26 27  2  0
 27 28  1  0
 28 29  2  0
 29 30  1  0
 30 31  1  0
 29 32  1  0
 32 33  2  0
 25 34  2  0
 34 35  1  0
 35 36  3  0
  8 37  1  0
 37 38  2  0
 38  5  1  0
 34 14  1  0
 23 17  1  0
 33 26  1  0
M  END
>  <Binding energies>  (53) 
[-8.33]

>  <Ligand effiencies>  (53) 
[-0.21358974358974359]

>  <Interactions>  (53) 
["V-A:ILE:369:CG1:3234, V-A:GLU:543:C:4899, V-A:LEU:475:CD1:4254, V-A:GLU:543:CD:4905, V-B:TYR:539:CE2:9845, V-B:ALA:541:CB:9861, V-B:GLU:543:CD:9877, V-A:GLU:543:CB:4903, V-A:HIS:456:CD2:4064, V-B:TYR:539:CD2:9843, V-A:HIS:456:CE1:4066, V-A:ARG:545:CZ:4923, V-B:GLU:543:CG:9876, V-B:HIS:456:CE1:9038, V-A:ASP:366:CG:3209, V-A:ASP:366:CA:3206, V-B:LYS:547:CE:9919, V-A:ILE:369:CB:3232, V-B:GLU:543:CB:9875, V-A:GLY:453:C:4038, V-A:GLY:454:CA:4045, V-A:GLY:453:CA:4040, V-A:TYR:484:CE1:4341, V-A:GLY:544:C:4909, H-A:LYS:547:NZ:4948, H-A:GLU:543:OE1:4906, H-A:GLU:543:OE2:4907, H-A:GLY:454:N:4046, V-A:LEU:475:CD2:4255, V-A:LEU:475:CG:4253, H-A:ASP:366:OD1:3210, V-A:GLU:543:CG:4904, H-B:TYR:484:OH:9316, V-A:CYS:365:C:3200"]

$$$$
RR7_Rahimova_2017
     RDKit          3D

 47 53  0  0  0  0  0  0  0  0999 V2000
  133.8490  125.0700   65.3820 C   0  0  0  0  0  0  0  0  0  0  0  0
  134.2010  124.7430   64.0410 O   0  0  0  0  0  0  0  0  0  0  0  0
  133.2430  124.8420   63.0510 C   0  0  0  0  0  0  0  0  0  0  0  0
  132.1950  125.7310   63.2850 C   0  0  0  0  0  0  0  0  0  0  0  0
  131.1860  125.9020   62.3430 C   0  0  0  0  0  0  0  0  0  0  0  0
  131.1950  125.1760   61.1430 C   0  0  0  0  0  0  0  0  0  0  0  0
  130.0940  125.3710   60.0540 C   0  0  0  0  0  0  0  0  0  0  0  0
  129.1240  126.2830   60.6150 O   0  0  0  0  0  0  0  0  0  0  0  0
  127.7510  125.8930   60.7220 C   0  0  0  0  0  0  0  0  0  0  0  0
  126.8720  127.1540   60.7360 C   0  0  1  0  0  0  0  0  0  0  0  0
  126.4500  127.3480   62.0830 O   0  0  0  0  0  0  0  0  0  0  0  0
  126.8510  128.5900   62.5840 C   0  0  1  0  0  0  0  0  0  0  0  0
  127.1300  128.4900   64.0040 N   0  0  0  0  0  0  0  0  0  0  0  0
  126.6280  129.2730   65.0290 C   0  0  0  0  0  0  0  0  0  0  0  0
  127.0860  128.9930   66.2240 N   0  0  0  0  0  0  0  0  0  0  0  0
  127.9890  127.9900   66.0010 C   0  0  0  0  0  0  0  0  0  0  0  0
  128.8280  127.2660   66.8710 C   0  0  0  0  0  0  0  0  0  0  0  0
  128.7840  127.5560   68.2480 N   0  0  0  0  0  0  0  0  0  0  0  0
  128.8010  126.7030   69.3000 C   0  0  0  0  0  0  0  0  0  0  0  0
  128.8410  125.4750   69.1970 O   0  0  0  0  0  0  0  0  0  0  0  0
  128.7320  127.3480   70.6680 C   0  0  0  0  0  0  0  0  0  0  0  0
  129.5650  128.4390   70.9630 C   0  0  0  0  0  0  0  0  0  0  0  0
  129.5150  129.0500   72.2120 C   0  0  0  0  0  0  0  0  0  0  0  0
  128.6280  128.5800   73.1760 C   0  0  0  0  0  0  0  0  0  0  0  0
  127.7900  127.5020   72.9010 C   0  0  0  0  0  0  0  0  0  0  0  0
  127.8410  126.8890   71.6520 C   0  0  0  0  0  0  0  0  0  0  0  0
  129.6590  126.3100   66.3560 N   0  0  0  0  0  0  0  0  0  0  0  0
  129.6340  126.1050   65.0130 C   0  0  0  0  0  0  0  0  0  0  0  0
  128.8660  126.7400   64.0880 N   0  0  0  0  0  0  0  0  0  0  0  0
  128.0580  127.6660   64.6220 C   0  0  0  0  0  0  0  0  0  0  0  0
  128.0390  129.0050   61.7230 C   0  0  0  0  0  0  0  0  0  0  0  0
  127.6000  128.4570   60.3760 C   0  0  2  0  0  0  0  0  0  0  0  0
  126.7670  129.3670   59.6770 O   0  0  0  0  0  0  0  0  0  0  0  0
  130.6490  126.0370   58.7660 C   0  0  0  0  0  0  0  0  0  0  0  0
  130.2430  127.3320   58.4070 C   0  0  0  0  0  0  0  0  0  0  0  0
  130.7230  127.9330   57.2480 C   0  0  0  0  0  0  0  0  0  0  0  0
  131.6160  127.2430   56.4340 C   0  0  0  0  0  0  0  0  0  0  0  0
  132.0320  125.9590   56.7700 C   0  0  0  0  0  0  0  0  0  0  0  0
  131.5510  125.3580   57.9290 C   0  0  0  0  0  0  0  0  0  0  0  0
  129.3750  124.0770   59.5780 C   0  0  0  0  0  0  0  0  0  0  0  0
  129.3050  122.9540   60.4180 C   0  0  0  0  0  0  0  0  0  0  0  0
  128.6720  121.7880   59.9980 C   0  0  0  0  0  0  0  0  0  0  0  0
  128.1090  121.7300   58.7260 C   0  0  0  0  0  0  0  0  0  0  0  0
  128.1790  122.8260   57.8720 C   0  0  0  0  0  0  0  0  0  0  0  0
  128.8120  123.9910   58.2940 C   0  0  0  0  0  0  0  0  0  0  0  0
  132.2590  124.2930   60.9060 C   0  0  0  0  0  0  0  0  0  0  0  0
  133.2700  124.1230   61.8480 C   0  0  0  0  0  0  0  0  0  0  0  0
  1  2  1  0
  2  3  1  0
  3  4  2  0
  4  5  1  0
  5  6  2  0
  6  7  1  0
  7  8  1  0
  8  9  1  0
 10  9  1  1
 10 11  1  0
 11 12  1  0
 12 13  1  1
 13 14  1  0
 14 15  2  0
 15 16  1  0
 16 17  2  0
 17 18  1  0
 18 19  1  0
 19 20  2  0
 19 21  1  0
 21 22  2  0
 22 23  1  0
 23 24  2  0
 24 25  1  0
 25 26  2  0
 17 27  1  0
 27 28  2  0
 28 29  1  0
 29 30  2  0
 12 31  1  0
 31 32  1  0
 32 33  1  1
  7 34  1  0
 34 35  2  0
 35 36  1  0
 36 37  2  0
 37 38  1  0
 38 39  2  0
  7 40  1  0
 40 41  2  0
 41 42  1  0
 42 43  2  0
 43 44  1  0
 44 45  2  0
  6 46  1  0
 46 47  2  0
 47  3  1  0
 32 10  1  0
 39 34  1  0
 45 40  1  0
 30 13  1  0
 30 16  1  0
 26 21  1  0
M  END
>  <Binding energies>  (54) 
[-8.36]

>  <Ligand effiencies>  (54) 
[-0.17061224489795918]

>  <Interactions>  (54) 
["V-A:GLU:543:C:4899, V-A:GLU:543:CD:4905, V-B:TYR:539:CE2:9845, V-B:ALA:541:CB:9861, V-B:PRO:540:CA:9852, V-B:GLU:543:CD:9877, V-B:TYR:539:CZ:9846, V-B:TYR:539:CD2:9843, V-B:TYR:539:CE1:9844, V-A:HIS:456:CE1:4066, V-B:HIS:456:CD2:9036, V-A:ARG:545:CZ:4923, V-B:GLU:543:CG:9876, V-B:GLY:544:C:9881, V-B:HIS:456:CE1:9038, V-A:ASP:366:CG:3209, V-B:LYS:547:CE:9919, V-A:ASP:366:CB:3208, V-B:TYR:539:C:9836, V-A:GLY:454:CA:4045, V-A:LYS:547:CE:4947, V-A:ARG:545:CD:4920, H-B:ARG:545:NH2:9897, V-B:TYR:539:CD1:9842, V-B:PRO:540:N:9853, V-B:TYR:539:CG:9841, H-A:GLY:454:N:4046, H-A:ARG:545:NH1:4924, H-B:ASP:366:OD1:8182, H-B:HIS:456:NE2:9039, H-A:GLU:543:O:4900, V-B:TYR:539:CA:9838, V-A:TYR:531:CE1:4789, V-A:TYR:531:CZ:4791"]

$$$$
RR8_A_Rahimova_2017
     RDKit          3D

 42 46  0  0  0  0  0  0  0  0999 V2000
  131.4030  127.0310   66.2330 O   0  0  0  0  0  0  0  0  0  0  0  0
  130.3290  126.5600   66.6250 C   0  0  0  0  0  0  0  0  0  0  0  0
  129.4900  125.8020   65.8530 O   0  0  0  0  0  0  0  0  0  0  0  0
  130.0480  125.1240   64.7620 C   0  0  1  0  0  0  0  0  0  0  0  0
  130.1480  123.7500   65.0050 O   0  0  0  0  0  0  0  0  0  0  0  0
  129.8570  122.9830   63.8400 C   0  0  2  0  0  0  0  0  0  0  0  0
  131.0500  122.0560   63.5520 C   0  0  0  0  0  0  0  0  0  0  0  0
  132.1420  122.4460   64.3730 O   0  0  0  0  0  0  0  0  0  0  0  0
  132.7840  123.6420   63.9520 C   0  0  0  0  0  0  0  0  0  0  0  0
  133.1280  123.5500   62.4720 C   0  0  0  0  0  0  0  0  0  0  0  0
  134.0260  122.5770   62.0260 C   0  0  0  0  0  0  0  0  0  0  0  0
  134.3380  122.4860   60.6710 C   0  0  0  0  0  0  0  0  0  0  0  0
  133.7480  123.3660   59.7660 C   0  0  0  0  0  0  0  0  0  0  0  0
  132.8470  124.3350   60.2020 C   0  0  0  0  0  0  0  0  0  0  0  0
  132.5340  124.4250   61.5560 C   0  0  0  0  0  0  0  0  0  0  0  0
  129.5690  124.0430   62.7680 C   0  0  1  0  0  0  0  0  0  0  0  0
  128.5040  123.6800   61.8920 O   0  0  0  0  0  0  0  0  0  0  0  0
  128.7720  122.5940   61.0120 C   0  0  0  0  0  0  0  0  0  0  0  0
  127.9210  122.7210   59.7560 C   0  0  0  0  0  0  0  0  0  0  0  0
  126.6980  123.3960   59.8130 C   0  0  0  0  0  0  0  0  0  0  0  0
  125.9100  123.5080   58.6710 C   0  0  0  0  0  0  0  0  0  0  0  0
  126.3450  122.9420   57.4740 C   0  0  0  0  0  0  0  0  0  0  0  0
  127.5580  122.2620   57.4100 C   0  0  0  0  0  0  0  0  0  0  0  0
  128.3460  122.1480   58.5530 C   0  0  0  0  0  0  0  0  0  0  0  0
  129.1010  125.2400   63.5760 C   0  0  2  0  0  0  0  0  0  0  0  0
  129.2630  126.4430   62.8290 O   0  0  0  0  0  0  0  0  0  0  0  0
  129.4830  127.6200   63.5980 C   0  0  0  0  0  0  0  0  0  0  0  0
  128.1520  128.2080   64.0390 C   0  0  0  0  0  0  0  0  0  0  0  0
  127.9700  128.6240   65.3620 C   0  0  0  0  0  0  0  0  0  0  0  0
  126.7520  129.1710   65.7590 C   0  0  0  0  0  0  0  0  0  0  0  0
  125.7210  129.3040   64.8320 C   0  0  0  0  0  0  0  0  0  0  0  0
  125.8950  128.8980   63.5110 C   0  0  0  0  0  0  0  0  0  0  0  0
  127.1140  128.3510   63.1130 C   0  0  0  0  0  0  0  0  0  0  0  0
  129.8140  126.7560   68.0210 C   0  0  0  0  0  0  0  0  0  0  0  0
  128.7270  126.0210   68.5200 C   0  0  0  0  0  0  0  0  0  0  0  0
  128.2710  126.2260   69.8190 C   0  0  0  0  0  0  0  0  0  0  0  0
  128.8860  127.1700   70.6520 C   0  0  0  0  0  0  0  0  0  0  0  0
  128.4010  127.3860   72.0360 N   0  0  0  0  0  0  0  0  0  0  0  0
  129.2070  127.7290   72.8960 O   0  0  0  0  0  0  0  0  0  0  0  0
  127.2090  127.2160   72.2740 O   0  0  0  0  0  0  0  0  0  0  0  0
  129.9690  127.9040   70.1520 C   0  0  0  0  0  0  0  0  0  0  0  0
  130.4260  127.7010   68.8530 C   0  0  0  0  0  0  0  0  0  0  0  0
  1  2  2  0
  2  3  1  0
  4  3  1  1
  4  5  1  0
  5  6  1  0
  6  7  1  6
  7  8  1  0
  8  9  1  0
  9 10  1  0
 10 11  2  0
 11 12  1  0
 12 13  2  0
 13 14  1  0
 14 15  2  0
  6 16  1  0
 16 17  1  6
 17 18  1  0
 18 19  1  0
 19 20  2  0
 20 21  1  0
 21 22  2  0
 22 23  1  0
 23 24  2  0
 16 25  1  0
 25 26  1  6
 26 27  1  0
 27 28  1  0
 28 29  2  0
 29 30  1  0
 30 31  2  0
 31 32  1  0
 32 33  2  0
  2 34  1  0
 34 35  2  0
 35 36  1  0
 36 37  2  0
 37 38  1  0
 38 39  2  0
 38 40  1  0
 37 41  1  0
 41 42  2  0
 25  4  1  0
 33 28  1  0
 42 34  1  0
 15 10  1  0
 24 19  1  0
M  CHG  2  38   1  40  -1
M  END
>  <Binding energies>  (55) 
[-9.37]

>  <Ligand effiencies>  (55) 
[-0.22309523809523807]

>  <Interactions>  (55) 
["V-A:ILE:369:CG1:3234, V-A:ILE:369:CG2:3233, V-A:LEU:475:CD1:4254, V-A:GLU:543:CD:4905, V-B:TYR:539:CE2:9845, V-B:ALA:541:CB:9861, V-B:PRO:540:CA:9852, V-B:GLU:543:C:9871, V-B:GLU:543:CD:9877, V-A:GLU:543:CB:4903, V-B:TYR:539:CZ:9846, V-B:TYR:539:CD2:9843, V-B:TYR:539:CE1:9844, V-A:HIS:456:CE1:4066, V-B:HIS:456:CD2:9036, V-B:GLU:543:CG:9876, V-B:HIS:456:CE1:9038, V-A:ASP:366:CG:3209, V-A:ASP:366:CA:3206, V-A:ASP:366:CB:3208, V-A:ILE:369:CB:3232, V-B:GLU:543:CB:9875, H-A:TYR:484:OH:4344, V-A:GLY:453:C:4038, V-B:TYR:539:C:9836, V-A:GLY:454:CA:4045, H-A:ARG:545:NE:4921, H-A:LYS:547:NZ:4948, V-B:TYR:539:CD1:9842, V-B:PRO:540:N:9853, V-B:TYR:539:CG:9841, V-A:LEU:475:CD2:4255, V-B:PRO:540:CB:9854, V-A:LEU:475:CG:4253, V-B:ARG:545:CZ:9895"]

$$$$
RR8_B_Rahimova_2017
     RDKit          3D

 42 46  0  0  0  0  0  0  0  0999 V2000
  131.5950  126.9450   66.5030 O   0  0  0  0  0  0  0  0  0  0  0  0
  130.3930  126.9400   66.7840 C   0  0  0  0  0  0  0  0  0  0  0  0
  129.3840  126.9200   65.8610 O   0  0  0  0  0  0  0  0  0  0  0  0
  129.2120  125.7570   65.0890 C   0  0  2  0  0  0  0  0  0  0  0  0
  130.4180  125.0710   64.9050 O   0  0  0  0  0  0  0  0  0  0  0  0
  131.0800  125.4890   63.7120 C   0  0  2  0  0  0  0  0  0  0  0  0
  132.4810  126.0210   64.0610 C   0  0  0  0  0  0  0  0  0  0  0  0
  133.3190  124.9300   64.4220 O   0  0  0  0  0  0  0  0  0  0  0  0
  132.7730  123.6450   64.1630 C   0  0  0  0  0  0  0  0  0  0  0  0
  133.1130  123.2350   62.7380 C   0  0  0  0  0  0  0  0  0  0  0  0
  132.5280  122.0900   62.1880 C   0  0  0  0  0  0  0  0  0  0  0  0
  132.8540  121.6950   60.8930 C   0  0  0  0  0  0  0  0  0  0  0  0
  133.7620  122.4480   60.1510 C   0  0  0  0  0  0  0  0  0  0  0  0
  134.3430  123.5930   60.6900 C   0  0  0  0  0  0  0  0  0  0  0  0
  134.0200  123.9870   61.9870 C   0  0  0  0  0  0  0  0  0  0  0  0
  130.1240  126.5110   63.0860 C   0  0  1  0  0  0  0  0  0  0  0  0
  130.1670  126.4070   61.6600 O   0  0  0  0  0  0  0  0  0  0  0  0
  130.9300  125.3310   61.1090 C   0  0  0  0  0  0  0  0  0  0  0  0
  130.0450  124.2390   60.5170 C   0  0  0  0  0  0  0  0  0  0  0  0
  129.3790  123.3430   61.3580 C   0  0  0  0  0  0  0  0  0  0  0  0
  128.5460  122.3680   60.8160 C   0  0  0  0  0  0  0  0  0  0  0  0
  128.3860  122.2890   59.4340 C   0  0  0  0  0  0  0  0  0  0  0  0
  129.0500  123.1750   58.5890 C   0  0  0  0  0  0  0  0  0  0  0  0
  129.8810  124.1530   59.1320 C   0  0  0  0  0  0  0  0  0  0  0  0
  128.7680  126.1420   63.6790 C   0  0  2  0  0  0  0  0  0  0  0  0
  127.8870  127.2620   63.6390 O   0  0  0  0  0  0  0  0  0  0  0  0
  128.3400  128.3730   62.8810 C   0  0  0  0  0  0  0  0  0  0  0  0
  127.9610  129.6420   63.6240 C   0  0  0  0  0  0  0  0  0  0  0  0
  127.9400  129.6620   65.0220 C   0  0  0  0  0  0  0  0  0  0  0  0
  127.5720  130.8250   65.6930 C   0  0  0  0  0  0  0  0  0  0  0  0
  127.2250  131.9620   64.9660 C   0  0  0  0  0  0  0  0  0  0  0  0
  127.2450  131.9490   63.5720 C   0  0  0  0  0  0  0  0  0  0  0  0
  127.6140  130.7870   62.9010 C   0  0  0  0  0  0  0  0  0  0  0  0
  129.8790  126.9930   68.1930 C   0  0  0  0  0  0  0  0  0  0  0  0
  128.7280  126.2940   68.5880 C   0  0  0  0  0  0  0  0  0  0  0  0
  128.2700  126.3680   69.8980 C   0  0  0  0  0  0  0  0  0  0  0  0
  128.9430  127.1490   70.8460 C   0  0  0  0  0  0  0  0  0  0  0  0
  128.4370  127.2480   72.2370 N   0  0  0  0  0  0  0  0  0  0  0  0
  129.2130  127.5990   73.1220 O   0  0  0  0  0  0  0  0  0  0  0  0
  127.2580  126.9790   72.4550 O   0  0  0  0  0  0  0  0  0  0  0  0
  130.0950  127.8420   70.4540 C   0  0  0  0  0  0  0  0  0  0  0  0
  130.5590  127.7630   69.1440 C   0  0  0  0  0  0  0  0  0  0  0  0
  1  2  2  0
  2  3  1  0
  4  3  1  1
  4  5  1  0
  5  6  1  0
  6  7  1  1
  7  8  1  0
  8  9  1  0
  9 10  1  0
 10 11  2  0
 11 12  1  0
 12 13  2  0
 13 14  1  0
 14 15  2  0
  6 16  1  0
 16 17  1  6
 17 18  1  0
 18 19  1  0
 19 20  2  0
 20 21  1  0
 21 22  2  0
 22 23  1  0
 23 24  2  0
 16 25  1  0
 25 26  1  1
 26 27  1  0
 27 28  1  0
 28 29  2  0
 29 30  1  0
 30 31  2  0
 31 32  1  0
 32 33  2  0
  2 34  1  0
 34 35  2  0
 35 36  1  0
 36 37  2  0
 37 38  1  0
 38 39  2  0
 38 40  1  0
 37 41  1  0
 41 42  2  0
 25  4  1  0
 33 28  1  0
 42 34  1  0
 15 10  1  0
 24 19  1  0
M  CHG  2  38   1  40  -1
M  END
>  <Binding energies>  (56) 
[-7.87]

>  <Ligand effiencies>  (56) 
[-0.18738095238095237]

>  <Interactions>  (56) 
["V-A:ILE:369:CG1:3234, V-A:GLU:543:C:4899, V-A:ILE:369:CG2:3233, V-A:LEU:475:CD1:4254, V-A:GLU:543:CD:4905, V-B:TYR:539:CE2:9845, V-B:ALA:541:CB:9861, V-B:PRO:540:CA:9852, V-B:GLU:543:CD:9877, V-A:GLU:543:CB:4903, V-B:TYR:539:CZ:9846, V-B:TYR:539:CD2:9843, V-B:TYR:539:CE1:9844, V-A:HIS:456:CE1:4066, V-B:HIS:456:CD2:9036, V-A:ARG:545:CZ:4923, V-B:GLU:543:CG:9876, V-B:HIS:456:CE1:9038, V-A:ASP:366:CG:3209, V-A:ASP:366:CA:3206, V-B:LYS:547:CE:9919, V-A:ILE:369:CB:3232, V-B:GLU:543:CB:9875, H-A:TYR:484:OH:4344, V-A:GLY:453:C:4038, V-B:TYR:539:C:9836, V-A:GLY:454:CA:4045, H-A:ARG:545:NE:4921, V-A:GLY:453:CA:4040, H-A:LYS:547:NZ:4948, H-A:GLY:454:N:4046, V-A:GLU:543:CG:4904, V-A:ALA:541:CB:4889, V-B:TYR:484:CZ:9315, V-B:TYR:484:CE1:9313"]

$$$$
RR9_Rahimova_2017
     RDKit          3D

 36 40  0  0  0  0  0  0  0  0999 V2000
  128.0280  128.7290   73.7210 C   0  0  0  0  0  0  0  0  0  0  0  0
  128.3770  127.6010   72.7440 C   0  0  0  0  0  0  0  0  0  0  0  0
  129.4910  128.0090   71.9550 O   0  0  0  0  0  0  0  0  0  0  0  0
  129.5980  127.5620   70.6520 C   0  0  0  0  0  0  0  0  0  0  0  0
  128.7630  126.5090   70.2830 C   0  0  0  0  0  0  0  0  0  0  0  0
  128.8030  125.9920   68.9920 C   0  0  0  0  0  0  0  0  0  0  0  0
  129.6810  126.5140   68.0310 C   0  0  0  0  0  0  0  0  0  0  0  0
  129.7320  125.9570   66.6390 C   0  0  0  0  0  0  0  0  0  0  0  0
  129.3550  126.7240   65.5260 C   0  0  0  0  0  0  0  0  0  0  0  0
  129.4170  126.2010   64.2210 C   0  0  0  0  0  0  0  0  0  0  0  0
  129.0970  127.1050   63.0620 C   0  0  0  0  0  0  0  0  0  0  0  0
  129.9920  127.7310   62.4940 O   0  0  0  0  0  0  0  0  0  0  0  0
  127.7940  127.1880   62.7260 N   0  0  0  0  0  0  0  0  0  0  0  0
  127.2200  128.0940   61.7250 C   0  0  0  0  0  0  0  0  0  0  0  0
  126.2800  129.1570   62.3390 C   0  0  0  0  0  0  0  0  0  0  0  0
  126.7350  129.7090   63.6850 C   0  0  0  0  0  0  0  0  0  0  0  0
  126.7540  128.8820   64.8130 C   0  0  0  0  0  0  0  0  0  0  0  0
  127.2030  129.3800   66.0330 C   0  0  0  0  0  0  0  0  0  0  0  0
  127.6280  130.7040   66.1230 C   0  0  0  0  0  0  0  0  0  0  0  0
  127.6080  131.5350   65.0050 C   0  0  0  0  0  0  0  0  0  0  0  0
  127.1600  131.0370   63.7840 C   0  0  0  0  0  0  0  0  0  0  0  0
  129.8450  124.8560   64.1040 C   0  0  0  0  0  0  0  0  0  0  0  0
  130.0460  123.8650   63.0730 C   0  0  0  0  0  0  0  0  0  0  0  0
  129.7540  123.9450   61.6110 C   0  0  0  0  0  0  0  0  0  0  0  0
  128.7220  123.1820   61.0570 C   0  0  0  0  0  0  0  0  0  0  0  0
  128.4620  123.2460   59.6900 C   0  0  0  0  0  0  0  0  0  0  0  0
  129.2310  124.0770   58.8730 C   0  0  0  0  0  0  0  0  0  0  0  0
  128.9600  124.1330   57.3810 C   0  0  0  0  0  0  0  0  0  0  0  0
  130.2630  124.8380   59.4220 C   0  0  0  0  0  0  0  0  0  0  0  0
  130.5200  124.7750   60.7890 C   0  0  0  0  0  0  0  0  0  0  0  0
  130.5360  122.7590   63.5860 N   0  0  0  0  0  0  0  0  0  0  0  0
  130.6260  122.9240   64.9150 N   0  0  0  0  0  0  0  0  0  0  0  0
  130.2080  124.1780   65.2930 C   0  0  0  0  0  0  0  0  0  0  0  0
  130.1620  124.6690   66.5300 N   0  0  0  0  0  0  0  0  0  0  0  0
  130.5200  127.5720   68.4100 C   0  0  0  0  0  0  0  0  0  0  0  0
  130.4810  128.0930   69.7020 C   0  0  0  0  0  0  0  0  0  0  0  0
  1  2  1  0
  2  3  1  0
  3  4  1  0
  4  5  2  0
  5  6  1  0
  6  7  2  0
  7  8  1  0
  8  9  2  0
  9 10  1  0
 10 11  1  0
 11 12  2  0
 11 13  1  0
 13 14  1  0
 14 15  1  0
 15 16  1  0
 16 17  2  0
 17 18  1  0
 18 19  2  0
 19 20  1  0
 20 21  2  0
 10 22  2  0
 22 23  1  0
 23 24  1  0
 24 25  2  0
 25 26  1  0
 26 27  2  0
 27 28  1  0
 27 29  1  0
 29 30  2  0
 23 31  2  0
 31 32  1  0
 32 33  1  0
 33 34  2  0
  7 35  1  0
 35 36  2  0
 36  4  1  0
 34  8  1  0
 21 16  1  0
 33 22  1  0
 30 24  1  0
M  END
>  <Binding energies>  (57) 
[-8.37]

>  <Ligand effiencies>  (57) 
[-0.22026315789473683]

>  <Interactions>  (57) 
["V-A:GLU:543:C:4899, V-A:GLU:543:CD:4905, V-B:ALA:541:CB:9861, V-B:GLU:543:C:9871, V-B:GLU:543:CD:9877, V-A:GLU:543:CB:4903, V-B:TYR:539:CZ:9846, V-B:TYR:539:CE1:9844, V-A:HIS:456:CE1:4066, V-B:HIS:456:CD2:9036, V-B:GLU:543:CG:9876, V-B:HIS:456:CE1:9038, V-B:LYS:547:CE:9919, V-B:GLU:543:CB:9875, H-A:TYR:484:OH:4344, V-A:LYS:547:CE:4947, V-A:TYR:484:CE1:4341, H-B:GLU:543:OE2:9879, V-A:GLY:544:C:4909, V-A:TYR:484:CZ:4343, H-A:LYS:547:NZ:4948, H-B:GLU:543:OE1:9878, V-B:ASP:366:CG:8181, V-A:GLU:543:CG:4904, V-B:TYR:484:CZ:9315, V-B:TYR:484:CE1:9313"]

$$$$
