lig2.pdb
 OpenBabel06022614543D

 34 36  0  0  1  0  0  0  0  0999 V2000
  100.4410  120.2490   62.6470 C   0  0  0  0  0  0  0  0  0  0  0  0
  106.2530  125.5890   60.0910 N   0  0  0  0  0  0  0  0  0  0  0  0
  100.8680  119.1160   61.8810 O   0  0  0  0  0  0  0  0  0  0  0  0
  101.6370  120.8210   63.4320 C   0  0  1  0  0  0  0  0  0  0  0  0
  105.7370  124.1980   61.9800 N   0  0  0  0  0  0  0  0  0  0  0  0
  102.7190  121.0890   62.5150 O   0  0  0  0  0  0  0  0  0  0  0  0
  101.3760  122.1890   64.1180 C   0  0  1  0  0  0  0  0  0  0  0  0
  104.8220  125.9790   58.4760 N   0  0  0  0  0  0  0  0  0  0  0  0
  100.5870  122.0740   65.3120 O   0  0  0  0  0  0  0  0  0  0  0  0
  102.8450  122.6230   64.3710 C   0  0  1  0  0  0  0  0  0  0  0  0
  102.7910  124.2700   59.9910 N   0  0  0  0  0  0  0  0  0  0  0  0
  103.4120  121.9060   65.4770 O   0  0  0  0  0  0  0  0  0  0  0  0
  103.4900  122.2210   62.9950 C   0  0  2  0  0  0  0  0  0  0  0  0
  103.4770  123.2410   61.9430 N   0  0  0  0  0  0  0  0  0  0  0  0
  106.5600  124.9750   61.2400 C   0  0  0  0  0  0  0  0  0  0  0  0
  104.5110  124.0120   61.4790 C   0  0  0  0  0  0  0  0  0  0  0  0
  104.1010  124.5950   60.3220 C   0  0  0  0  0  0  0  0  0  0  0  0
  105.0310  125.3890   59.6520 C   0  0  1  0  0  0  0  0  0  0  0  0
  102.4620  123.4440   60.9940 C   0  0  0  0  0  0  0  0  0  0  0  0
  101.4800  122.9950   61.0240 H   0  0  0  0  0  0  0  0  0  0  0  0
  101.9630  120.0960   64.1780 H   0  0  0  0  0  0  0  0  0  0  0  0
  100.8980  122.8740   63.4180 H   0  0  0  0  0  0  0  0  0  0  0  0
  102.9100  123.6990   64.5310 H   0  0  0  0  0  0  0  0  0  0  0  0
  104.5180  121.9020   63.1660 H   0  0  0  0  0  0  0  0  0  0  0  0
  107.5500  125.0790   61.6600 H   0  0  0  0  0  0  0  0  0  0  0  0
  101.5540  119.3850   61.2660 H   0  0  0  0  0  0  0  0  0  0  0  0
  100.6880  122.8690   65.8410 H   0  0  0  0  0  0  0  0  0  0  0  0
  103.1890  122.3530   66.2970 H   0  0  0  0  0  0  0  0  0  0  0  0
   99.6620  119.9430   63.3450 H   0  0  0  0  0  0  0  0  0  0  0  0
  100.0480  121.0130   61.9770 H   0  0  0  0  0  0  0  0  0  0  0  0
  103.9210  125.9030   58.0260 H   0  0  0  0  0  0  0  0  0  0  0  0
  105.5650  126.5020   58.0340 H   0  0  0  0  0  0  0  0  0  0  0  0
  106.0218  123.7954   62.8321 H   0  0  0  0  0  0  0  0  0  0  0  0
  104.1481  125.1757   60.2176 H   0  0  0  0  0  0  0  0  0  0  0  0
  1 29  1  0  0  0  0
  1  4  1  0  0  0  0
  2 15  2  0  0  0  0
  3  1  1  0  0  0  0
  4  7  1  1  0  0  0
  4 21  1  0  0  0  0
  5 33  1  0  0  0  0
  6 13  1  0  0  0  0
  6  4  1  0  0  0  0
  7 10  1  1  0  0  0
  7  9  1  0  0  0  0
  8 18  1  0  0  0  0
  9 27  1  0  0  0  0
 10 13  1  6  0  0  0
 10 23  1  0  0  0  0
 10 12  1  0  0  0  0
 11 17  1  0  0  0  0
 11 19  2  0  0  0  0
 12 28  1  0  0  0  0
 13 24  1  1  0  0  0
 14 13  1  0  0  0  0
 15 25  1  0  0  0  0
 15  5  1  0  0  0  0
 16 14  1  0  0  0  0
 16  5  1  0  0  0  0
 17 16  2  0  0  0  0
 18  2  1  0  0  0  0
 18 17  1  0  0  0  0
 18 34  1  1  0  0  0
 19 20  1  0  0  0  0
 19 14  1  0  0  0  0
 22  7  1  0  0  0  0
 26  3  1  0  0  0  0
 30  1  1  0  0  0  0
 31  8  1  0  0  0  0
 32  8  1  0  0  0  0
M  END
$$$$
