1a_Grossjean_2025
     RDKit          3D

 26 27  0  0  0  0  0  0  0  0999 V2000
  128.2200  129.2810   67.3180 C   0  0  0  0  0  0  0  0  0  0  0  0
  128.2430  127.7530   67.2250 C   0  0  0  0  0  0  0  0  0  0  0  0
  129.1690  127.2330   68.1710 O   0  0  0  0  0  0  0  0  0  0  0  0
  129.5650  125.9350   68.1240 C   0  0  0  0  0  0  0  0  0  0  0  0
  129.3550  125.1270   69.0340 O   0  0  0  0  0  0  0  0  0  0  0  0
  130.2980  125.5830   66.8620 C   0  0  0  0  0  0  0  0  0  0  0  0
  129.6740  124.7590   65.9150 C   0  0  0  0  0  0  0  0  0  0  0  0
  130.3290  124.4120   64.7380 C   0  0  0  0  0  0  0  0  0  0  0  0
  131.6190  124.8770   64.4820 C   0  0  0  0  0  0  0  0  0  0  0  0
  132.1870  124.4610   63.2610 N   0  0  0  0  0  0  0  0  0  0  0  0
  133.4790  124.4270   62.8720 C   0  0  0  0  0  0  0  0  0  0  0  0
  134.4420  124.7720   63.5570 O   0  0  0  0  0  0  0  0  0  0  0  0
  133.7230  123.9090   61.4530 C   0  0  0  0  0  0  0  0  0  0  0  0
  133.9980  122.1130   61.4160 S   0  0  0  0  0  0  0  0  0  0  0  0
  132.4010  121.3290   61.3770 C   0  0  0  0  0  0  0  0  0  0  0  0
  131.3770  122.1560   61.7050 N   0  0  0  0  0  0  0  0  0  0  0  0
  130.1170  121.6600   61.7120 C   0  0  0  0  0  0  0  0  0  0  0  0
  129.0250  122.6390   62.1010 C   0  0  0  0  0  0  0  0  0  0  0  0
  129.8280  120.3370   61.3860 C   0  0  0  0  0  0  0  0  0  0  0  0
  130.8740  119.4810   61.0250 C   0  0  0  0  0  0  0  0  0  0  0  0
  130.5320  118.0390   60.6560 C   0  0  0  0  0  0  0  0  0  0  0  0
  132.1980  119.9780   61.0080 C   0  0  0  0  0  0  0  0  0  0  0  0
  133.3050  119.1140   60.5870 C   0  0  0  0  0  0  0  0  0  0  0  0
  134.1760  118.4300   60.2540 N   0  0  0  0  0  0  0  0  0  0  0  0
  132.2490  125.7090   65.4200 C   0  0  0  0  0  0  0  0  0  0  0  0
  131.5930  126.0550   66.5980 C   0  0  0  0  0  0  0  0  0  0  0  0
  1  2  1  0
  2  3  1  0
  3  4  1  0
  4  5  2  0
  4  6  1  0
  6  7  2  0
  7  8  1  0
  8  9  2  0
  9 10  1  0
 10 11  1  0
 11 12  2  0
 11 13  1  0
 13 14  1  0
 14 15  1  0
 15 16  2  0
 16 17  1  0
 17 18  1  0
 17 19  2  0
 19 20  1  0
 20 21  1  0
 20 22  2  0
 22 23  1  0
 23 24  3  0
  9 25  1  0
 25 26  2  0
 26  6  1  0
 22 15  1  0
M  END
>  <Binding energies>  (1) 
[-7.4]

>  <Ligand effiencies>  (1) 
[-0.2740740740740741]

>  <Interactions>  (1) 
["V-A:GLU:543:CD:4908, V-A:ASP:366:CG:3212, V-A:TYR:484:CZ:4346, H-A:ARG:545:NH2:4928, H-A:ARG:545:NH1:4927, V-A:ARG:545:CZ:4926, H-A:GLY:454:N:4049, V-A:ILE:369:CG2:3236, V-B:TYR:539:CD2:9846, H-A:SER:385:OG:3409, V-A:LEU:475:CD1:4257, H-A:HIS:383:NE2:3393, V-A:PRO:482:CG:4326, V-B:GLU:543:CG:9879, V-B:ALA:541:CB:9864, V-B:GLU:543:CD:9880, V-B:TYR:539:C:9839, V-A:TYR:484:CE2:4345, V-A:HIS:456:CE1:4069, V-B:ALA:541:CA:9862, V-A:GLU:543:CG:4907, V-B:HIS:456:CE1:9041, V-B:TYR:484:CE2:9317, V-A:GLU:543:CB:4906, V-B:GLU:543:CB:9878, V-A:SER:385:CA:3406, V-B:PRO:540:C:9853"]

$$$$
1aa_Ghoteimi_2023
     RDKit          3D

 40 43  0  0  0  0  0  0  0  0999 V2000
  134.4910  118.7580   60.3020 C   0  0  0  0  0  0  0  0  0  0  0  0
  133.4670  118.7670   59.1630 C   0  0  0  0  0  0  0  0  0  0  0  0
  132.3600  119.5820   59.5280 O   0  0  0  0  0  0  0  0  0  0  0  0
  131.6610  119.3450   60.6670 C   0  0  0  0  0  0  0  0  0  0  0  0
  131.0400  118.2990   60.8800 O   0  0  0  0  0  0  0  0  0  0  0  0
  131.7170  120.4830   61.6460 C   0  0  0  0  0  0  0  0  0  0  0  0
  132.9030  121.1910   61.8940 C   0  0  0  0  0  0  0  0  0  0  0  0
  132.9250  122.2420   62.8080 C   0  0  0  0  0  0  0  0  0  0  0  0
  131.7540  122.6070   63.4890 C   0  0  0  0  0  0  0  0  0  0  0  0
  131.6570  123.6480   64.4310 N   0  0  0  0  0  0  0  0  0  0  0  0
  132.4570  124.7190   64.6390 C   0  0  0  0  0  0  0  0  0  0  0  0
  133.4700  124.9780   63.9890 O   0  0  0  0  0  0  0  0  0  0  0  0
  132.0660  125.6800   65.7730 C   0  0  0  0  0  0  0  0  0  0  0  0
  130.9420  125.1670   66.5000 O   0  0  0  0  0  0  0  0  0  0  0  0
  130.0330  126.0330   67.0900 C   0  0  0  0  0  0  0  0  0  0  0  0
  130.0900  126.2000   68.4410 N   0  0  0  0  0  0  0  0  0  0  0  0
  129.2070  127.0290   69.0570 C   0  0  0  0  0  0  0  0  0  0  0  0
  129.3380  127.1600   70.5480 C   0  0  0  0  0  0  0  0  0  0  0  0
  128.9570  126.1140   71.4010 C   0  0  0  0  0  0  0  0  0  0  0  0
  129.0750  126.2330   72.7820 C   0  0  0  0  0  0  0  0  0  0  0  0
  129.5790  127.3990   73.3540 C   0  0  0  0  0  0  0  0  0  0  0  0
  129.6600  127.4280   74.7330 O   0  0  0  0  0  0  0  0  0  0  0  0
  128.5450  126.9890   75.5030 C   0  0  0  0  0  0  0  0  0  0  0  0
  129.9690  128.4510   72.5150 C   0  0  0  0  0  0  0  0  0  0  0  0
  129.8510  128.3290   71.1340 C   0  0  0  0  0  0  0  0  0  0  0  0
  128.2500  127.7310   68.3150 C   0  0  0  0  0  0  0  0  0  0  0  0
  128.1760  127.5860   66.9230 C   0  0  0  0  0  0  0  0  0  0  0  0
  127.1400  128.3700   66.1880 C   0  0  0  0  0  0  0  0  0  0  0  0
  127.4860  129.0890   65.0390 C   0  0  0  0  0  0  0  0  0  0  0  0
  126.5230  129.8150   64.3430 C   0  0  0  0  0  0  0  0  0  0  0  0
  125.1980  129.8320   64.7740 C   0  0  0  0  0  0  0  0  0  0  0  0
  124.3120  130.5790   64.0210 O   0  0  0  0  0  0  0  0  0  0  0  0
  124.8190  131.5720   63.1370 C   0  0  0  0  0  0  0  0  0  0  0  0
  124.8450  129.1050   65.9220 C   0  0  0  0  0  0  0  0  0  0  0  0
  125.8090  128.3810   66.6170 C   0  0  0  0  0  0  0  0  0  0  0  0
  129.0880  126.7050   66.2960 C   0  0  0  0  0  0  0  0  0  0  0  0
  129.0590  126.4560   64.8540 C   0  0  0  0  0  0  0  0  0  0  0  0
  129.0380  126.2580   63.7140 N   0  0  0  0  0  0  0  0  0  0  0  0
  130.5740  121.9040   63.2450 C   0  0  0  0  0  0  0  0  0  0  0  0
  130.5540  120.8530   62.3330 C   0  0  0  0  0  0  0  0  0  0  0  0
  1  2  1  0
  2  3  1  0
  3  4  1  0
  4  5  2  0
  4  6  1  0
  6  7  2  0
  7  8  1  0
  8  9  2  0
  9 10  1  0
 10 11  1  0
 11 12  2  0
 11 13  1  0
 13 14  1  0
 14 15  1  0
 15 16  2  0
 16 17  1  0
 17 18  1  0
 18 19  2  0
 19 20  1  0
 20 21  2  0
 21 22  1  0
 22 23  1  0
 21 24  1  0
 24 25  2  0
 17 26  2  0
 26 27  1  0
 27 28  1  0
 28 29  2  0
 29 30  1  0
 30 31  2  0
 31 32  1  0
 32 33  1  0
 31 34  1  0
 34 35  2  0
 27 36  2  0
 36 37  1  0
 37 38  3  0
  9 39  1  0
 39 40  2  0
 40  6  1  0
 36 15  1  0
 25 18  1  0
 35 28  1  0
M  END
>  <Binding energies>  (2) 
[-8.13]

>  <Ligand effiencies>  (2) 
[-0.19829268292682928]

>  <Interactions>  (2) 
["V-B:LEU:475:CD1:9229, V-A:GLU:543:CD:4908, H-A:TYR:484:OH:4347, V-A:GLY:454:CA:4048, V-A:TYR:484:CZ:4346, H-A:ARG:545:NH2:4928, H-A:GLY:454:N:4049, V-A:ILE:369:CG2:3236, V-B:TYR:539:CD2:9846, V-B:TYR:539:CE2:9848, V-A:LEU:475:CD1:4257, V-B:ALA:541:CB:9864, V-B:GLU:543:CD:9880, V-A:SER:385:C:3404, V-A:HIS:383:CD2:3391, V-A:HIS:456:CE1:4069, V-B:HIS:456:CE1:9041, H-B:GLY:454:N:9021, V-B:GLY:454:CA:9020, V-A:SER:385:CA:3406, V-A:GLU:543:C:4902, V-B:ARG:545:CG:9894, V-B:ARG:545:CD:9895, V-B:ARG:545:CZ:9898, V-A:SER:385:CB:3408, H-A:LYS:547:NZ:4951"]

$$$$
1b_Grossjean_2025
     RDKit          3D

 25 26  0  0  0  0  0  0  0  0999 V2000
  128.9620  128.3280   67.7750 C   0  0  0  0  0  0  0  0  0  0  0  0
  129.8430  127.3910   68.3820 O   0  0  0  0  0  0  0  0  0  0  0  0
  129.7260  126.0620   68.1340 C   0  0  0  0  0  0  0  0  0  0  0  0
  129.1280  125.2800   68.8800 O   0  0  0  0  0  0  0  0  0  0  0  0
  130.3900  125.6360   66.8560 C   0  0  0  0  0  0  0  0  0  0  0  0
  129.7680  124.7620   65.9510 C   0  0  0  0  0  0  0  0  0  0  0  0
  130.4120  124.3860   64.7760 C   0  0  0  0  0  0  0  0  0  0  0  0
  131.6850  124.8720   64.4790 C   0  0  0  0  0  0  0  0  0  0  0  0
  132.2400  124.4240   63.2650 N   0  0  0  0  0  0  0  0  0  0  0  0
  133.5250  124.4070   62.8490 C   0  0  0  0  0  0  0  0  0  0  0  0
  134.4930  124.7990   63.5000 O   0  0  0  0  0  0  0  0  0  0  0  0
  133.7530  123.8350   61.4490 C   0  0  0  0  0  0  0  0  0  0  0  0
  134.0200  122.0360   61.4780 S   0  0  0  0  0  0  0  0  0  0  0  0
  132.4190  121.2610   61.4240 C   0  0  0  0  0  0  0  0  0  0  0  0
  131.4110  122.0570   61.8610 N   0  0  0  0  0  0  0  0  0  0  0  0
  130.1490  121.5680   61.8610 C   0  0  0  0  0  0  0  0  0  0  0  0
  129.0720  122.5190   62.3480 C   0  0  0  0  0  0  0  0  0  0  0  0
  129.8450  120.2750   61.4400 C   0  0  0  0  0  0  0  0  0  0  0  0
  130.8800  119.4390   61.0100 C   0  0  0  0  0  0  0  0  0  0  0  0
  130.5240  118.0200   60.5690 C   0  0  0  0  0  0  0  0  0  0  0  0
  132.2060  119.9280   61.0010 C   0  0  0  0  0  0  0  0  0  0  0  0
  133.3110  119.0570   60.5950 C   0  0  0  0  0  0  0  0  0  0  0  0
  134.1820  118.3660   60.2750 N   0  0  0  0  0  0  0  0  0  0  0  0
  132.3140  125.7460   65.3780 C   0  0  0  0  0  0  0  0  0  0  0  0
  131.6690  126.1220   66.5530 C   0  0  0  0  0  0  0  0  0  0  0  0
  1  2  1  0
  2  3  1  0
  3  4  2  0
  3  5  1  0
  5  6  2  0
  6  7  1  0
  7  8  2  0
  8  9  1  0
  9 10  1  0
 10 11  2  0
 10 12  1  0
 12 13  1  0
 13 14  1  0
 14 15  2  0
 15 16  1  0
 16 17  1  0
 16 18  2  0
 18 19  1  0
 19 20  1  0
 19 21  2  0
 21 22  1  0
 22 23  3  0
  8 24  1  0
 24 25  2  0
 25  5  1  0
 21 14  1  0
M  END
>  <Binding energies>  (3) 
[-7.24]

>  <Ligand effiencies>  (3) 
[-0.2784615384615385]

>  <Interactions>  (3) 
["V-A:GLU:543:CD:4908, V-A:ASP:366:CG:3212, V-A:TYR:484:CZ:4346, H-A:ARG:545:NH2:4928, H-A:ARG:545:NH1:4927, V-A:ARG:545:CZ:4926, H-A:GLY:454:N:4049, V-A:ILE:369:CG2:3236, V-B:TYR:539:CD2:9846, H-A:SER:385:OG:3409, V-A:LEU:475:CD1:4257, H-A:HIS:383:NE2:3393, V-A:PRO:482:CG:4326, V-B:GLU:543:CG:9879, V-B:ALA:541:CB:9864, V-B:GLU:543:CD:9880, V-B:TYR:539:C:9839, V-A:TYR:484:CE2:4345, V-A:HIS:456:CE1:4069, V-B:ALA:541:CA:9862, V-A:GLU:543:CG:4907, V-B:HIS:456:CE1:9041, V-A:GLU:543:CB:4906, V-B:GLU:543:CB:9878, V-A:SER:385:CA:3406, V-B:PRO:540:C:9853"]

$$$$
1c_Grossjean_2025
     RDKit          3D

 23 24  0  0  0  0  0  0  0  0999 V2000
  124.1430  130.2980   63.0490 C   0  0  0  0  0  0  0  0  0  0  0  0
  124.5030  130.4920   64.4120 O   0  0  0  0  0  0  0  0  0  0  0  0
  125.5170  129.7280   64.9570 C   0  0  0  0  0  0  0  0  0  0  0  0
  125.1960  128.9860   66.0930 C   0  0  0  0  0  0  0  0  0  0  0  0
  126.1490  128.1840   66.7130 C   0  0  0  0  0  0  0  0  0  0  0  0
  127.4500  128.1110   66.1920 C   0  0  0  0  0  0  0  0  0  0  0  0
  128.4920  127.3420   66.7450 N   0  0  0  0  0  0  0  0  0  0  0  0
  128.4740  126.5140   67.8110 C   0  0  0  0  0  0  0  0  0  0  0  0
  127.4890  126.2640   68.5050 O   0  0  0  0  0  0  0  0  0  0  0  0
  129.8090  125.8450   68.1440 C   0  0  0  0  0  0  0  0  0  0  0  0
  131.2030  126.6670   67.3180 S   0  0  0  0  0  0  0  0  0  0  0  0
  131.3790  125.9730   65.6870 C   0  0  0  0  0  0  0  0  0  0  0  0
  130.2150  125.9300   64.9900 N   0  0  0  0  0  0  0  0  0  0  0  0
  130.2240  125.4210   63.7360 C   0  0  0  0  0  0  0  0  0  0  0  0
  128.8880  125.4150   63.0170 C   0  0  0  0  0  0  0  0  0  0  0  0
  131.3790  124.9290   63.1330 C   0  0  0  0  0  0  0  0  0  0  0  0
  132.5800  124.9450   63.8510 C   0  0  0  0  0  0  0  0  0  0  0  0
  133.8300  124.3840   63.1750 C   0  0  0  0  0  0  0  0  0  0  0  0
  132.5940  125.4700   65.1640 C   0  0  0  0  0  0  0  0  0  0  0  0
  133.8300  125.4460   65.9500 C   0  0  0  0  0  0  0  0  0  0  0  0
  134.8060  125.4270   66.5700 N   0  0  0  0  0  0  0  0  0  0  0  0
  127.7780  128.8610   65.0610 C   0  0  0  0  0  0  0  0  0  0  0  0
  126.8220  129.6620   64.4440 C   0  0  0  0  0  0  0  0  0  0  0  0
  1  2  1  0
  2  3  1  0
  3  4  2  0
  4  5  1  0
  5  6  2  0
  6  7  1  0
  7  8  1  0
  8  9  2  0
  8 10  1  0
 10 11  1  0
 11 12  1  0
 12 13  2  0
 13 14  1  0
 14 15  1  0
 14 16  2  0
 16 17  1  0
 17 18  1  0
 17 19  2  0
 19 20  1  0
 20 21  3  0
  6 22  1  0
 22 23  2  0
 23  3  1  0
 19 12  1  0
M  END
>  <Binding energies>  (4) 
[-6.8]

>  <Ligand effiencies>  (4) 
[-0.2833333333333333]

>  <Interactions>  (4) 
["V-A:GLU:543:CD:4908, V-A:ARG:545:CD:4923, V-A:ARG:545:CG:4922, V-A:GLY:453:C:4041, H-A:TYR:484:OH:4347, V-A:GLY:454:CA:4048, H-A:GLU:543:OE1:4909, V-A:ARG:545:CZ:4926, H-A:GLY:454:N:4049, H-A:ARG:545:NE:4924, V-B:GLU:543:CD:9880, V-A:TYR:484:CE2:4345, V-A:HIS:456:CE1:4069, V-A:GLU:543:CG:4907, V-B:HIS:456:CE1:9041, V-A:GLY:453:CA:4043, V-B:GLU:543:CB:9878, H-B:TYR:484:OH:9319, H-B:GLY:454:N:9021, H-B:GLU:543:OE2:9882, V-B:ARG:545:CG:9894, V-B:ARG:545:CD:9895, V-B:ARG:545:CZ:9898, H-A:ILE:455:N:4054"]

$$$$
1d_Grossjean_2025
     RDKit          3D

 21 22  0  0  0  0  0  0  0  0999 V2000
  128.2100  126.6310   67.8330 C   0  0  0  0  0  0  0  0  0  0  0  0
  129.4190  126.2300   67.0110 C   0  0  0  0  0  0  0  0  0  0  0  0
  130.7060  126.2580   67.5440 C   0  0  0  0  0  0  0  0  0  0  0  0
  131.7840  125.8680   66.7420 C   0  0  0  0  0  0  0  0  0  0  0  0
  133.1830  125.8930   67.3540 C   0  0  0  0  0  0  0  0  0  0  0  0
  131.5420  125.4620   65.4100 C   0  0  0  0  0  0  0  0  0  0  0  0
  132.6490  125.0030   64.5670 C   0  0  0  0  0  0  0  0  0  0  0  0
  133.5250  124.6400   63.9040 N   0  0  0  0  0  0  0  0  0  0  0  0
  130.2060  125.4870   64.9440 C   0  0  0  0  0  0  0  0  0  0  0  0
  129.7220  125.0120   63.3000 S   0  0  0  0  0  0  0  0  0  0  0  0
  129.0670  123.3180   63.3950 C   0  0  0  0  0  0  0  0  0  0  0  0
  128.1750  122.9770   62.2000 C   0  0  0  0  0  0  0  0  0  0  0  0
  128.5090  122.0650   61.4420 O   0  0  0  0  0  0  0  0  0  0  0  0
  127.0490  123.7140   62.0900 N   0  0  0  0  0  0  0  0  0  0  0  0
  126.0350  123.6730   61.1150 C   0  0  0  0  0  0  0  0  0  0  0  0
  126.4370  123.9740   59.8110 C   0  0  0  0  0  0  0  0  0  0  0  0
  125.5140  123.9570   58.7690 C   0  0  0  0  0  0  0  0  0  0  0  0
  124.1860  123.6300   59.0300 C   0  0  0  0  0  0  0  0  0  0  0  0
  123.7740  123.3190   60.3230 C   0  0  0  0  0  0  0  0  0  0  0  0
  124.6940  123.3370   61.3670 C   0  0  0  0  0  0  0  0  0  0  0  0
  129.1650  125.8480   65.7370 N   0  0  0  0  0  0  0  0  0  0  0  0
  1  2  1  0
  2  3  2  0
  3  4  1  0
  4  5  1  0
  4  6  2  0
  6  7  1  0
  7  8  3  0
  6  9  1  0
  9 10  1  0
 10 11  1  0
 11 12  1  0
 12 13  2  0
 12 14  1  0
 14 15  1  0
 15 16  2  0
 16 17  1  0
 17 18  2  0
 18 19  1  0
 19 20  2  0
  9 21  2  0
 21  2  1  0
 20 15  1  0
M  END
>  <Binding energies>  (5) 
[-7.25]

>  <Ligand effiencies>  (5) 
[-0.32954545454545453]

>  <Interactions>  (5) 
["V-A:ARG:545:CD:4923, V-A:ARG:545:CG:4922, H-A:TYR:484:OH:4347, V-A:TYR:484:CZ:4346, H-A:ARG:545:NH2:4928, V-A:ARG:545:CZ:4926, H-A:GLY:454:N:4049, H-B:ALA:541:N:9863, V-B:PRO:540:CA:9855, V-B:LEU:363:CD1:8160, H-B:GLU:543:OE1:9881, V-B:GLU:543:CG:9879, V-B:ALA:541:CB:9864, V-B:GLU:543:CD:9880, V-B:PRO:540:CB:9857, V-A:HIS:456:CE1:4069, V-B:HIS:456:CE1:9041, V-B:GLU:543:CB:9878, H-B:GLU:543:OE2:9882, V-B:LEU:363:CA:8156, V-B:LEU:363:CB:8158, V-B:ASN:362:CB:8147, V-B:ASN:362:C:8143"]

$$$$
1e_Grossjean_2025
     RDKit          3D

 22 23  0  0  0  0  0  0  0  0999 V2000
  134.2470  125.4700   67.1200 C   0  0  0  0  0  0  0  0  0  0  0  0
  133.3030  125.4970   65.9330 C   0  0  0  0  0  0  0  0  0  0  0  0
  131.9610  125.8620   66.0740 C   0  0  0  0  0  0  0  0  0  0  0  0
  131.1510  125.8620   64.9380 C   0  0  0  0  0  0  0  0  0  0  0  0
  131.6940  125.5010   63.7020 C   0  0  0  0  0  0  0  0  0  0  0  0
  133.0480  125.1510   63.6310 C   0  0  0  0  0  0  0  0  0  0  0  0
  133.5340  124.7860   62.3630 N   0  0  0  0  0  0  0  0  0  0  0  0
  133.8040  123.5490   61.8900 C   0  0  0  0  0  0  0  0  0  0  0  0
  133.6710  122.5040   62.5290 O   0  0  0  0  0  0  0  0  0  0  0  0
  134.3420  123.4860   60.4590 C   0  0  0  0  0  0  0  0  0  0  0  0
  133.1290  122.7750   59.3070 S   0  0  0  0  0  0  0  0  0  0  0  0
  131.8130  122.0310   60.2520 C   0  0  0  0  0  0  0  0  0  0  0  0
  130.8900  122.9250   60.6870 N   0  0  0  0  0  0  0  0  0  0  0  0
  129.8420  122.4780   61.4190 C   0  0  0  0  0  0  0  0  0  0  0  0
  128.8480  123.5330   61.8630 C   0  0  0  0  0  0  0  0  0  0  0  0
  129.6790  121.1360   61.7550 C   0  0  0  0  0  0  0  0  0  0  0  0
  130.6380  120.2090   61.3330 C   0  0  0  0  0  0  0  0  0  0  0  0
  130.4450  118.7460   61.7300 C   0  0  0  0  0  0  0  0  0  0  0  0
  131.7420  120.6540   60.5700 C   0  0  0  0  0  0  0  0  0  0  0  0
  132.7840  119.7050   60.1700 C   0  0  0  0  0  0  0  0  0  0  0  0
  133.6070  118.9540   59.8560 N   0  0  0  0  0  0  0  0  0  0  0  0
  133.8450  125.1450   64.7390 N   0  0  0  0  0  0  0  0  0  0  0  0
  1  2  1  0
  2  3  2  0
  3  4  1  0
  4  5  2  0
  5  6  1  0
  6  7  1  0
  7  8  1  0
  8  9  2  0
  8 10  1  0
 10 11  1  0
 11 12  1  0
 12 13  2  0
 13 14  1  0
 14 15  1  0
 14 16  2  0
 16 17  1  0
 17 18  1  0
 17 19  2  0
 19 20  1  0
 20 21  3  0
  6 22  2  0
 22  2  1  0
 19 12  1  0
M  END
>  <Binding energies>  (6) 
[-7.28]

>  <Ligand effiencies>  (6) 
[-0.3165217391304348]

>  <Interactions>  (6) 
["V-A:GLU:543:CD:4908, V-A:ASP:366:CG:3212, V-A:ARG:545:CD:4923, V-A:ARG:545:CG:4922, H-A:TYR:484:OH:4347, V-A:ASP:366:CA:3209, H-A:ARG:545:NH2:4928, V-A:ILE:369:CD1:3238, H-A:ARG:545:NH1:4927, V-A:ARG:545:CZ:4926, H-A:GLY:454:N:4049, V-A:ILE:369:CB:3235, H-A:ASP:366:OD2:3214, H-A:ASP:366:OD1:3213, H-A:ARG:545:NE:4924, V-A:ILE:369:CG2:3236, V-B:TYR:539:CD2:9846, V-B:TYR:539:CE2:9848, V-A:LEU:475:CD1:4257, V-A:PRO:482:CB:4325, H-A:HIS:383:NE2:3393, V-A:PRO:482:CG:4326, V-B:ALA:541:CB:9864, V-A:HIS:456:CE1:4069, V-B:ALA:541:CA:9862, V-A:ILE:455:C:4051"]

$$$$
1f_Grossjean_2025
     RDKit          3D

 21 22  0  0  0  0  0  0  0  0999 V2000
  135.1610  125.4980   66.6570 C   0  0  0  0  0  0  0  0  0  0  0  0
  133.8330  125.5010   65.9220 C   0  0  0  0  0  0  0  0  0  0  0  0
  132.6480  125.8600   66.5580 C   0  0  0  0  0  0  0  0  0  0  0  0
  131.4530  125.8320   65.8320 C   0  0  0  0  0  0  0  0  0  0  0  0
  130.1620  126.2120   66.5570 C   0  0  0  0  0  0  0  0  0  0  0  0
  131.4780  125.4490   64.4720 C   0  0  0  0  0  0  0  0  0  0  0  0
  130.2290  125.3600   63.7110 C   0  0  0  0  0  0  0  0  0  0  0  0
  129.2420  125.2900   63.1110 N   0  0  0  0  0  0  0  0  0  0  0  0
  132.7310  125.1280   63.9000 C   0  0  0  0  0  0  0  0  0  0  0  0
  132.9590  124.6250   62.2060 S   0  0  0  0  0  0  0  0  0  0  0  0
  134.4140  123.5260   62.1220 C   0  0  0  0  0  0  0  0  0  0  0  0
  134.0880  122.0300   61.9940 C   0  0  0  0  0  0  0  0  0  0  0  0
  134.9430  121.1810   62.2490 O   0  0  0  0  0  0  0  0  0  0  0  0
  132.8350  121.7630   61.5690 N   0  0  0  0  0  0  0  0  0  0  0  0
  132.2050  120.5230   61.3500 C   0  0  0  0  0  0  0  0  0  0  0  0
  130.8590  120.2260   61.6350 C   0  0  0  0  0  0  0  0  0  0  0  0
  130.3610  118.9490   61.3630 C   0  0  0  0  0  0  0  0  0  0  0  0
  131.2210  118.0000   60.8090 C   0  0  0  0  0  0  0  0  0  0  0  0
  132.5200  118.2630   60.5200 N   0  0  0  0  0  0  0  0  0  0  0  0
  132.9890  119.5080   60.7900 C   0  0  0  0  0  0  0  0  0  0  0  0
  133.8810  125.1350   64.6190 N   0  0  0  0  0  0  0  0  0  0  0  0
  1  2  1  0
  2  3  2  0
  3  4  1  0
  4  5  1  0
  4  6  2  0
  6  7  1  0
  7  8  3  0
  6  9  1  0
  9 10  1  0
 10 11  1  0
 11 12  1  0
 12 13  2  0
 12 14  1  0
 14 15  1  0
 15 16  2  0
 16 17  1  0
 17 18  2  0
 18 19  1  0
 19 20  2  0
  9 21  2  0
 21  2  1  0
 20 15  1  0
M  END
>  <Binding energies>  (7) 
[-7.11]

>  <Ligand effiencies>  (7) 
[-0.3231818181818182]

>  <Interactions>  (7) 
["V-A:ARG:545:CD:4923, V-A:ARG:545:CG:4922, V-A:GLY:453:C:4041, H-A:TYR:484:OH:4347, V-A:GLY:454:CA:4048, V-A:TYR:484:CZ:4346, H-A:ARG:545:NH2:4928, V-A:ILE:369:CD1:3238, H-A:ARG:545:NH1:4927, V-A:ARG:545:CZ:4926, H-A:GLY:454:N:4049, H-A:ARG:545:NE:4924, V-A:ILE:369:CG2:3236, H-A:SER:385:OG:3409, V-A:LEU:475:CD1:4257, V-A:PRO:482:CB:4325, H-A:HIS:383:NE2:3393, V-A:PRO:482:CG:4326, V-B:ALA:541:CB:9864, V-A:HIS:456:CE1:4069, V-A:GLY:453:CA:4043, V-A:ARG:545:CB:4921, V-A:ILE:455:C:4051"]

$$$$
1g_Grossjean_2025
     RDKit          3D

 22 23  0  0  0  0  0  0  0  0999 V2000
  129.2250  125.6660   62.8320 C   0  0  0  0  0  0  0  0  0  0  0  0
  130.5340  125.5650   63.5930 C   0  0  0  0  0  0  0  0  0  0  0  0
  131.7300  125.2530   62.9500 C   0  0  0  0  0  0  0  0  0  0  0  0
  132.9030  125.1580   63.7060 C   0  0  0  0  0  0  0  0  0  0  0  0
  134.2000  124.7990   62.9810 C   0  0  0  0  0  0  0  0  0  0  0  0
  132.8490  125.3880   65.0990 C   0  0  0  0  0  0  0  0  0  0  0  0
  134.0540  125.2430   65.9190 C   0  0  0  0  0  0  0  0  0  0  0  0
  135.0080  125.1260   66.5640 N   0  0  0  0  0  0  0  0  0  0  0  0
  131.5960  125.7250   65.6630 C   0  0  0  0  0  0  0  0  0  0  0  0
  131.3490  126.0560   67.3940 S   0  0  0  0  0  0  0  0  0  0  0  0
  129.5590  125.9990   67.7040 C   0  0  0  0  0  0  0  0  0  0  0  0
  128.9380  127.3970   67.7340 C   0  0  0  0  0  0  0  0  0  0  0  0
  129.4480  128.2840   68.4210 O   0  0  0  0  0  0  0  0  0  0  0  0
  127.8340  127.5740   66.9880 N   0  0  0  0  0  0  0  0  0  0  0  0
  127.1150  128.8370   66.8240 C   0  0  0  0  0  0  0  0  0  0  0  0
  126.4490  129.0090   65.4620 C   0  0  0  0  0  0  0  0  0  0  0  0
  127.1060  128.5770   64.3050 C   0  0  0  0  0  0  0  0  0  0  0  0
  126.4990  128.7320   63.0620 C   0  0  0  0  0  0  0  0  0  0  0  0
  125.2350  129.3140   62.9790 C   0  0  0  0  0  0  0  0  0  0  0  0
  124.5740  129.7420   64.1280 C   0  0  0  0  0  0  0  0  0  0  0  0
  125.1810  129.5890   65.3720 C   0  0  0  0  0  0  0  0  0  0  0  0
  130.4580  125.7920   64.9250 N   0  0  0  0  0  0  0  0  0  0  0  0
  1  2  1  0
  2  3  2  0
  3  4  1  0
  4  5  1  0
  4  6  2  0
  6  7  1  0
  7  8  3  0
  6  9  1  0
  9 10  1  0
 10 11  1  0
 11 12  1  0
 12 13  2  0
 12 14  1  0
 14 15  1  0
 15 16  1  0
 16 17  2  0
 17 18  1  0
 18 19  2  0
 19 20  1  0
 20 21  2  0
  9 22  2  0
 22  2  1  0
 21 16  1  0
M  END
>  <Binding energies>  (8) 
[-6.74]

>  <Ligand effiencies>  (8) 
[-0.29304347826086957]

>  <Interactions>  (8) 
["V-A:ASP:366:CG:3212, V-A:ARG:545:CD:4923, V-A:ARG:545:CG:4922, V-A:GLY:453:C:4041, H-A:TYR:484:OH:4347, V-A:GLY:454:CA:4048, V-A:ARG:545:CZ:4926, H-A:GLY:454:N:4049, H-A:ARG:545:NE:4924, V-A:HIS:456:CE1:4069, V-B:HIS:456:CE1:9041, V-A:GLY:453:CA:4043, V-B:GLU:543:CB:9878, V-B:ASP:366:CG:8184, H-B:GLU:543:OE2:9882, V-B:ARG:545:CZ:9898, H-A:ILE:455:N:4054"]

$$$$
1h_Grossjean_2025
     RDKit          3D

 28 29  0  0  0  0  0  0  0  0999 V2000
  134.9730  125.2510   66.7230 C   0  0  0  0  0  0  0  0  0  0  0  0
  134.2910  125.5030   65.5000 O   0  0  0  0  0  0  0  0  0  0  0  0
  132.9200  125.3270   65.4390 C   0  0  0  0  0  0  0  0  0  0  0  0
  132.0150  125.8980   66.3480 C   0  0  0  0  0  0  0  0  0  0  0  0
  130.6440  125.6660   66.2330 C   0  0  0  0  0  0  0  0  0  0  0  0
  129.6700  126.3100   67.2150 C   0  0  0  0  0  0  0  0  0  0  0  0
  128.6210  127.1050   66.5770 N   0  0  0  0  0  0  0  0  0  0  0  0
  128.1980  128.3120   66.9940 C   0  0  0  0  0  0  0  0  0  0  0  0
  128.6730  128.9050   67.9620 O   0  0  0  0  0  0  0  0  0  0  0  0
  127.0570  128.9460   66.1980 C   0  0  0  0  0  0  0  0  0  0  0  0
  127.3560  130.7090   65.8670 S   0  0  0  0  0  0  0  0  0  0  0  0
  126.8060  131.0620   64.2050 C   0  0  0  0  0  0  0  0  0  0  0  0
  127.7220  131.6520   63.3930 N   0  0  0  0  0  0  0  0  0  0  0  0
  127.3710  131.9430   62.1190 C   0  0  0  0  0  0  0  0  0  0  0  0
  128.4480  132.5960   61.2730 C   0  0  0  0  0  0  0  0  0  0  0  0
  126.1070  131.6650   61.6040 C   0  0  0  0  0  0  0  0  0  0  0  0
  125.1550  131.0600   62.4310 C   0  0  0  0  0  0  0  0  0  0  0  0
  123.7760  130.7620   61.8460 C   0  0  0  0  0  0  0  0  0  0  0  0
  125.4990  130.7470   63.7660 C   0  0  0  0  0  0  0  0  0  0  0  0
  124.5210  130.1150   64.6550 C   0  0  0  0  0  0  0  0  0  0  0  0
  123.7480  129.6160   65.3580 N   0  0  0  0  0  0  0  0  0  0  0  0
  130.1630  124.8870   65.1800 C   0  0  0  0  0  0  0  0  0  0  0  0
  131.0450  124.3080   64.2530 C   0  0  0  0  0  0  0  0  0  0  0  0
  130.6400  123.5250   63.1870 O   0  0  0  0  0  0  0  0  0  0  0  0
  129.2950  123.0580   63.1340 C   0  0  0  0  0  0  0  0  0  0  0  0
  132.4220  124.5270   64.4000 C   0  0  0  0  0  0  0  0  0  0  0  0
  133.2960  123.9730   63.4960 O   0  0  0  0  0  0  0  0  0  0  0  0
  133.4710  124.7420   62.3140 C   0  0  0  0  0  0  0  0  0  0  0  0
  1  2  1  0
  2  3  1  0
  3  4  2  0
  4  5  1  0
  5  6  1  0
  6  7  1  0
  7  8  1  0
  8  9  2  0
  8 10  1  0
 10 11  1  0
 11 12  1  0
 12 13  2  0
 13 14  1  0
 14 15  1  0
 14 16  2  0
 16 17  1  0
 17 18  1  0
 17 19  2  0
 19 20  1  0
 20 21  3  0
  5 22  2  0
 22 23  1  0
 23 24  1  0
 24 25  1  0
 23 26  2  0
 26 27  1  0
 27 28  1  0
 26  3  1  0
 19 12  1  0
M  END
>  <Binding energies>  (9) 
[-7.12]

>  <Ligand effiencies>  (9) 
[-0.24551724137931036]

>  <Interactions>  (9) 
["V-A:ALA:541:CB:4892, V-A:GLU:543:CD:4908, V-A:ASP:366:CG:3212, V-A:ARG:545:CD:4923, V-A:ARG:545:CG:4922, V-A:GLY:453:C:4041, H-A:TYR:484:OH:4347, V-A:GLY:454:CA:4048, H-A:ARG:545:NH2:4928, H-A:GLU:543:OE1:4909, H-A:ARG:545:NH1:4927, V-A:ARG:545:CZ:4926, H-A:GLY:454:N:4049, H-A:ARG:545:NE:4924, V-B:GLU:543:CG:9879, V-B:ALA:541:CB:9864, V-B:GLU:543:CD:9880, V-B:HIS:456:CE1:9041, V-A:GLY:453:CA:4043, H-B:TYR:484:OH:9319, H-B:ARG:545:NH2:9900, H-B:GLY:454:N:9021, V-B:GLY:454:CA:9020, V-B:ILE:369:CD1:8210, H-B:ARG:545:NH1:9899, V-B:ASP:366:CG:8184, H-B:GLU:543:OE2:9882, H-B:ARG:545:NE:9896, V-B:ARG:545:CZ:9898, V-A:GLY:454:C:4046, V-A:ILE:455:C:4051"]

$$$$
1i_Grossjean_2025
     RDKit          3D

 20 21  0  0  0  0  0  0  0  0999 V2000
  133.6760  125.5230   66.9020 C   0  0  0  0  0  0  0  0  0  0  0  0
  133.0620  125.3990   65.5210 C   0  0  0  0  0  0  0  0  0  0  0  0
  131.7360  125.7520   65.2770 C   0  0  0  0  0  0  0  0  0  0  0  0
  131.2260  125.6260   63.9800 C   0  0  0  0  0  0  0  0  0  0  0  0
  129.7750  126.0350   63.7340 C   0  0  0  0  0  0  0  0  0  0  0  0
  132.0660  125.1390   62.9520 C   0  0  0  0  0  0  0  0  0  0  0  0
  131.5670  125.0470   61.5770 C   0  0  0  0  0  0  0  0  0  0  0  0
  131.1720  124.9760   60.4910 N   0  0  0  0  0  0  0  0  0  0  0  0
  133.3910  124.7820   63.2960 C   0  0  0  0  0  0  0  0  0  0  0  0
  134.5790  124.1520   62.1310 S   0  0  0  0  0  0  0  0  0  0  0  0
  134.6950  122.3550   62.3800 C   0  0  0  0  0  0  0  0  0  0  0  0
  133.5850  121.5990   61.6460 C   0  0  0  0  0  0  0  0  0  0  0  0
  132.8040  122.2240   60.9260 O   0  0  0  0  0  0  0  0  0  0  0  0
  133.5540  120.2640   61.8510 N   0  0  0  0  0  0  0  0  0  0  0  0
  132.6570  119.3520   61.3160 C   0  0  0  0  0  0  0  0  0  0  0  0
  131.2750  119.4750   61.4490 C   0  0  0  0  0  0  0  0  0  0  0  0
  130.7530  118.3870   60.7890 C   0  0  0  0  0  0  0  0  0  0  0  0
  131.7670  117.6450   60.2860 O   0  0  0  0  0  0  0  0  0  0  0  0
  132.9700  118.2660   60.6280 N   0  0  0  0  0  0  0  0  0  0  0  0
  133.8810  124.9260   64.5520 N   0  0  0  0  0  0  0  0  0  0  0  0
  1  2  1  0
  2  3  2  0
  3  4  1  0
  4  5  1  0
  4  6  2  0
  6  7  1  0
  7  8  3  0
  6  9  1  0
  9 10  1  0
 10 11  1  0
 11 12  1  0
 12 13  2  0
 12 14  1  0
 14 15  1  0
 15 16  1  0
 16 17  2  0
 17 18  1  0
 18 19  1  0
  9 20  2  0
 20  2  1  0
 19 15  2  0
M  END
>  <Binding energies>  (10) 
[-6.92]

>  <Ligand effiencies>  (10) 
[-0.3295238095238095]

>  <Interactions>  (10) 
["V-A:ASP:366:CG:3212, V-A:ARG:545:CD:4923, V-A:ARG:545:CG:4922, V-A:GLY:453:C:4041, H-A:TYR:484:OH:4347, V-A:GLY:454:CA:4048, V-A:TYR:484:CZ:4346, H-A:ARG:545:NH2:4928, V-A:ILE:369:CD1:3238, H-A:ARG:545:NH1:4927, V-A:ARG:545:CZ:4926, H-A:GLY:454:N:4049, H-A:ARG:545:NE:4924, V-A:ILE:369:CG2:3236, V-B:TYR:539:CD2:9846, H-A:SER:385:OG:3409, V-A:LEU:475:CD1:4257, H-A:HIS:383:NE2:3393, V-A:PRO:482:CG:4326, V-A:SER:385:C:3404, V-A:HIS:456:CE1:4069, H-A:SER:385:O:3405"]

$$$$
1k_Grossjean_2025
     RDKit          3D

 25 25  0  0  0  0  0  0  0  0999 V2000
  134.0870  125.3440   67.1510 C   0  0  0  0  0  0  0  0  0  0  0  0
  133.8810  125.0760   65.7730 O   0  0  0  0  0  0  0  0  0  0  0  0
  132.7750  125.7760   65.2190 C   0  0  0  0  0  0  0  0  0  0  0  0
  131.7720  124.7710   64.6370 C   0  0  0  0  0  0  0  0  0  0  0  0
  132.2040  124.3660   63.3440 O   0  0  0  0  0  0  0  0  0  0  0  0
  133.5550  124.7040   63.0610 C   0  0  0  0  0  0  0  0  0  0  0  0
  133.9360  124.1680   61.6760 C   0  0  0  0  0  0  0  0  0  0  0  0
  133.6120  122.7850   61.5970 O   0  0  0  0  0  0  0  0  0  0  0  0
  134.6230  121.9310   62.1160 C   0  0  0  0  0  0  0  0  0  0  0  0
  134.2980  120.4690   61.7590 C   0  0  0  0  0  0  0  0  0  0  0  0
  132.9080  120.2500   61.3570 N   0  0  0  0  0  0  0  0  0  0  0  0
  132.3900  119.0710   60.9670 C   0  0  0  0  0  0  0  0  0  0  0  0
  133.0500  118.0320   60.9130 O   0  0  0  0  0  0  0  0  0  0  0  0
  130.9030  119.0960   60.5800 C   0  0  0  0  0  0  0  0  0  0  0  0
  129.8930  120.3750   61.4060 S   0  0  0  0  0  0  0  0  0  0  0  0
  130.2040  121.9570   60.6360 C   0  0  0  0  0  0  0  0  0  0  0  0
  131.3670  122.0600   59.9420 N   0  0  0  0  0  0  0  0  0  0  0  0
  131.6690  123.2340   59.3420 C   0  0  0  0  0  0  0  0  0  0  0  0
  132.9870  123.2730   58.5940 C   0  0  0  0  0  0  0  0  0  0  0  0
  130.8310  124.3450   59.4010 C   0  0  0  0  0  0  0  0  0  0  0  0
  129.6270  124.2510   60.1070 C   0  0  0  0  0  0  0  0  0  0  0  0
  128.7220  125.4800   60.1600 C   0  0  0  0  0  0  0  0  0  0  0  0
  129.2950  123.0340   60.7440 C   0  0  0  0  0  0  0  0  0  0  0  0
  128.0420  122.9070   61.4940 C   0  0  0  0  0  0  0  0  0  0  0  0
  127.0520  122.8090   62.0860 N   0  0  0  0  0  0  0  0  0  0  0  0
  1  2  1  0
  2  3  1  0
  3  4  1  0
  4  5  1  0
  5  6  1  0
  6  7  1  0
  7  8  1  0
  8  9  1  0
  9 10  1  0
 10 11  1  0
 11 12  1  0
 12 13  2  0
 12 14  1  0
 14 15  1  0
 15 16  1  0
 16 17  2  0
 17 18  1  0
 18 19  1  0
 18 20  2  0
 20 21  1  0
 21 22  1  0
 21 23  2  0
 23 24  1  0
 24 25  3  0
 23 16  1  0
M  END
>  <Binding energies>  (11) 
[-4.88]

>  <Ligand effiencies>  (11) 
[-0.18769230769230769]

>  <Interactions>  (11) 
["V-A:ASP:366:CG:3212, V-A:ARG:545:CD:4923, V-A:ARG:545:CG:4922, V-A:GLY:453:C:4041, H-A:TYR:484:OH:4347, V-A:GLY:454:CA:4048, V-A:TYR:484:CZ:4346, V-A:ILE:369:CD1:3238, V-A:ARG:545:CZ:4926, H-A:GLY:454:N:4049, H-A:ARG:545:NE:4924, V-A:ILE:369:CG2:3236, V-B:TYR:539:CD2:9846, H-A:SER:385:OG:3409, V-B:TYR:539:CE2:9848, V-A:LEU:475:CD1:4257, H-B:ALA:541:N:9863, H-A:HIS:383:NE2:3393, V-B:PRO:540:CA:9855, V-B:TYR:539:CZ:9849, V-A:SER:385:C:3404, V-A:HIS:456:CE1:4069, V-A:ILE:455:C:4051"]

$$$$
1l_Grossjean_2025
     RDKit          3D

 17 17  0  0  0  0  0  0  0  0999 V2000
  132.9030  125.4950   65.0950 C   0  0  0  0  0  0  0  0  0  0  0  0
  134.0760  125.1590   64.3680 O   0  0  0  0  0  0  0  0  0  0  0  0
  133.7770  125.0400   63.0110 N   0  0  0  0  0  0  0  0  0  0  0  0
  133.6840  123.8120   62.4680 C   0  0  0  0  0  0  0  0  0  0  0  0
  133.6210  122.7730   63.1320 O   0  0  0  0  0  0  0  0  0  0  0  0
  133.6440  123.7790   60.9340 C   0  0  0  0  0  0  0  0  0  0  0  0
  132.0670  123.2050   60.2150 S   0  0  0  0  0  0  0  0  0  0  0  0
  131.9850  121.4310   60.4000 C   0  0  0  0  0  0  0  0  0  0  0  0
  133.1250  120.7540   60.1040 N   0  0  0  0  0  0  0  0  0  0  0  0
  133.1330  119.4050   60.2220 C   0  0  0  0  0  0  0  0  0  0  0  0
  134.4410  118.7210   59.8740 C   0  0  0  0  0  0  0  0  0  0  0  0
  132.0180  118.6800   60.6360 C   0  0  0  0  0  0  0  0  0  0  0  0
  130.8390  119.3660   60.9440 C   0  0  0  0  0  0  0  0  0  0  0  0
  129.6280  118.5510   61.3970 C   0  0  0  0  0  0  0  0  0  0  0  0
  130.8090  120.7740   60.8280 C   0  0  0  0  0  0  0  0  0  0  0  0
  129.5860  121.5190   61.1450 C   0  0  0  0  0  0  0  0  0  0  0  0
  128.6210  122.1050   61.3950 N   0  0  0  0  0  0  0  0  0  0  0  0
  1  2  1  0
  2  3  1  0
  3  4  1  0
  4  5  2  0
  4  6  1  0
  6  7  1  0
  7  8  1  0
  8  9  2  0
  9 10  1  0
 10 11  1  0
 10 12  2  0
 12 13  1  0
 13 14  1  0
 13 15  2  0
 15 16  1  0
 16 17  3  0
 15  8  1  0
M  END
>  <Binding energies>  (12) 
[-6.15]

>  <Ligand effiencies>  (12) 
[-0.3416666666666667]

>  <Interactions>  (12) 
["V-A:ASP:366:CG:3212, H-A:ARG:545:NH2:4928, H-A:ARG:545:NH1:4927, V-A:ARG:545:CZ:4926, H-A:GLY:454:N:4049, H-A:ASP:366:OD2:3214, H-A:ASP:366:OD1:3213, H-A:ARG:545:NE:4924, V-A:ILE:369:CG2:3236, V-B:TYR:539:CD2:9846, V-B:TYR:539:CE2:9848, H-B:ALA:541:N:9863, V-A:PRO:482:CB:4325, V-A:PRO:482:CG:4326, V-B:ALA:541:CB:9864, V-B:TYR:539:C:9839, V-A:SER:385:C:3404, V-A:HIS:383:CD2:3391, V-B:ALA:541:CA:9862, V-A:GLY:453:CA:4043, V-A:SER:385:CA:3406, V-B:PRO:540:C:9853, V-A:SER:385:CB:3408"]

$$$$
1m_Grossjean_2025
     RDKit          3D

 20 20  0  0  0  0  0  0  0  0999 V2000
  130.2260  120.3770   61.3630 C   0  0  0  0  0  0  0  0  0  0  0  0
  131.1750  119.9610   60.3910 O   0  0  0  0  0  0  0  0  0  0  0  0
  132.1310  119.0630   60.7070 C   0  0  0  0  0  0  0  0  0  0  0  0
  131.9980  117.8360   60.6890 O   0  0  0  0  0  0  0  0  0  0  0  0
  133.4530  119.7580   61.0940 C   0  0  0  0  0  0  0  0  0  0  0  0
  133.3570  121.2250   61.0590 N   0  0  0  0  0  0  0  0  0  0  0  0
  134.1460  122.0800   61.7370 C   0  0  0  0  0  0  0  0  0  0  0  0
  135.0470  121.7080   62.4920 O   0  0  0  0  0  0  0  0  0  0  0  0
  133.8490  123.5690   61.5190 C   0  0  0  0  0  0  0  0  0  0  0  0
  134.4100  124.6640   62.8680 S   0  0  0  0  0  0  0  0  0  0  0  0
  132.9850  125.1260   63.8300 C   0  0  0  0  0  0  0  0  0  0  0  0
  131.8610  125.2960   63.0890 N   0  0  0  0  0  0  0  0  0  0  0  0
  130.7130  125.6420   63.7160 C   0  0  0  0  0  0  0  0  0  0  0  0
  129.4950  125.7940   62.8240 C   0  0  0  0  0  0  0  0  0  0  0  0
  130.6390  125.8430   65.0920 C   0  0  0  0  0  0  0  0  0  0  0  0
  131.7970  125.6970   65.8630 C   0  0  0  0  0  0  0  0  0  0  0  0
  131.6960  125.9380   67.3680 C   0  0  0  0  0  0  0  0  0  0  0  0
  133.0090  125.3360   65.2300 C   0  0  0  0  0  0  0  0  0  0  0  0
  134.2430  125.2270   66.0110 C   0  0  0  0  0  0  0  0  0  0  0  0
  135.2170  125.1390   66.6290 N   0  0  0  0  0  0  0  0  0  0  0  0
  1  2  1  0
  2  3  1  0
  3  4  2  0
  3  5  1  0
  5  6  1  0
  6  7  1  0
  7  8  2  0
  7  9  1  0
  9 10  1  0
 10 11  1  0
 11 12  2  0
 12 13  1  0
 13 14  1  0
 13 15  2  0
 15 16  1  0
 16 17  1  0
 16 18  2  0
 18 19  1  0
 19 20  3  0
 18 11  1  0
M  END
>  <Binding energies>  (13) 
[-5.5]

>  <Ligand effiencies>  (13) 
[-0.2619047619047619]

>  <Interactions>  (13) 
["V-A:ARG:545:CD:4923, V-A:ARG:545:CG:4922, V-A:GLY:453:C:4041, H-A:TYR:484:OH:4347, V-A:GLY:454:CA:4048, V-A:TYR:484:CZ:4346, H-A:ARG:545:NH2:4928, V-A:ILE:369:CD1:3238, H-A:ARG:545:NH1:4927, V-A:ARG:545:CZ:4926, H-A:GLY:454:N:4049, H-A:ARG:545:NE:4924, V-A:ILE:369:CG2:3236, V-B:TYR:539:CD2:9846, H-A:SER:385:OG:3409, V-A:LEU:475:CD1:4257, H-A:HIS:383:NE2:3393, V-B:ALA:541:CB:9864, V-A:HIS:456:CE1:4069, V-A:GLY:453:CA:4043, H-A:ILE:455:N:4054"]

$$$$
1n_Grossjean_2025
     RDKit          3D

 27 28  0  0  0  0  0  0  0  0999 V2000
  124.4960  133.6280   61.8250 C   0  0  0  0  0  0  0  0  0  0  0  0
  125.3730  132.4230   62.1800 C   0  0  0  0  0  0  0  0  0  0  0  0
  125.0590  131.9830   63.4960 O   0  0  0  0  0  0  0  0  0  0  0  0
  124.4910  130.7690   63.7130 C   0  0  0  0  0  0  0  0  0  0  0  0
  123.4110  130.4260   63.2240 O   0  0  0  0  0  0  0  0  0  0  0  0
  125.3150  129.8780   64.5990 C   0  0  0  0  0  0  0  0  0  0  0  0
  124.8090  129.3480   65.7960 C   0  0  0  0  0  0  0  0  0  0  0  0
  125.6000  128.5280   66.5950 C   0  0  0  0  0  0  0  0  0  0  0  0
  126.9110  128.2280   66.2230 C   0  0  0  0  0  0  0  0  0  0  0  0
  127.6230  127.3940   67.1070 N   0  0  0  0  0  0  0  0  0  0  0  0
  128.3770  127.7170   68.1800 C   0  0  0  0  0  0  0  0  0  0  0  0
  128.5760  128.8590   68.5940 O   0  0  0  0  0  0  0  0  0  0  0  0
  129.0200  126.5360   68.9180 C   0  0  0  0  0  0  0  0  0  0  0  0
  129.8320  125.6100   67.9880 C   0  0  0  0  0  0  0  0  0  0  0  0
  131.3830  126.3320   67.3720 S   0  0  0  0  0  0  0  0  0  0  0  0
  131.5530  125.8660   65.6630 C   0  0  0  0  0  0  0  0  0  0  0  0
  130.3890  125.9160   64.9680 N   0  0  0  0  0  0  0  0  0  0  0  0
  130.4020  125.5980   63.6520 C   0  0  0  0  0  0  0  0  0  0  0  0
  129.0670  125.6870   62.9380 C   0  0  0  0  0  0  0  0  0  0  0  0
  131.5620  125.2150   62.9830 C   0  0  0  0  0  0  0  0  0  0  0  0
  132.7640  125.1400   63.6950 C   0  0  0  0  0  0  0  0  0  0  0  0
  134.0210  124.7040   62.9440 C   0  0  0  0  0  0  0  0  0  0  0  0
  132.7730  125.4630   65.0720 C   0  0  0  0  0  0  0  0  0  0  0  0
  134.0090  125.3420   65.8480 C   0  0  0  0  0  0  0  0  0  0  0  0
  134.9860  125.2450   66.4600 N   0  0  0  0  0  0  0  0  0  0  0  0
  127.4200  128.7460   65.0230 C   0  0  0  0  0  0  0  0  0  0  0  0
  126.6260  129.5630   64.2230 C   0  0  0  0  0  0  0  0  0  0  0  0
  1  2  1  0
  2  3  1  0
  3  4  1  0
  4  5  2  0
  4  6  1  0
  6  7  2  0
  7  8  1  0
  8  9  2  0
  9 10  1  0
 10 11  1  0
 11 12  2  0
 11 13  1  0
 13 14  1  0
 14 15  1  0
 15 16  1  0
 16 17  2  0
 17 18  1  0
 18 19  1  0
 18 20  2  0
 20 21  1  0
 21 22  1  0
 21 23  2  0
 23 24  1  0
 24 25  3  0
  9 26  1  0
 26 27  2  0
 27  6  1  0
 23 16  1  0
M  END
>  <Binding energies>  (14) 
[-7.52]

>  <Ligand effiencies>  (14) 
[-0.26857142857142857]

>  <Interactions>  (14) 
["V-B:LEU:475:CD1:9229, V-A:GLU:543:CD:4908, V-A:ASP:366:CG:3212, V-A:ARG:545:CD:4923, V-A:ARG:545:CG:4922, V-A:GLY:453:C:4041, H-A:TYR:484:OH:4347, V-A:GLY:454:CA:4048, V-A:TYR:484:CZ:4346, V-A:ARG:545:CZ:4926, H-A:GLY:454:N:4049, H-A:ARG:545:NE:4924, V-B:GLU:543:CD:9880, V-A:TYR:484:CE2:4345, V-A:HIS:456:CE1:4069, V-B:HIS:456:CE1:9041, V-A:GLY:453:CA:4043, V-B:GLU:543:CB:9878, H-B:GLY:454:N:9021, V-B:GLY:454:CA:9020, V-B:ILE:369:CG2:8208, V-B:ILE:369:CD1:8210, H-B:GLU:543:OE2:9882, V-B:ARG:545:CG:9894, V-B:ARG:545:CD:9895, V-B:ARG:545:CZ:9898, H-A:ILE:455:N:4054"]

$$$$
1q_Grossjean_2025
     RDKit          3D

 21 21  0  0  0  0  0  0  0  0999 V2000
  132.1760  126.5960   66.9640 C   0  0  0  0  0  0  0  0  0  0  0  0
  132.0990  125.4900   66.0770 O   0  0  0  0  0  0  0  0  0  0  0  0
  132.9840  125.3620   65.0570 C   0  0  0  0  0  0  0  0  0  0  0  0
  134.1870  125.1260   65.1790 O   0  0  0  0  0  0  0  0  0  0  0  0
  132.3660  125.5710   63.6590 C   0  0  0  0  0  0  0  0  0  0  0  0
  133.2230  125.0740   62.5720 N   0  0  0  0  0  0  0  0  0  0  0  0
  133.7100  123.8240   62.4600 C   0  0  0  0  0  0  0  0  0  0  0  0
  133.4800  122.9350   63.2820 O   0  0  0  0  0  0  0  0  0  0  0  0
  134.5740  123.5480   61.2210 C   0  0  0  0  0  0  0  0  0  0  0  0
  133.8090  123.6250   59.8850 C   0  0  0  0  0  0  0  0  0  0  0  0
  132.0500  123.1880   60.0270 S   0  0  0  0  0  0  0  0  0  0  0  0
  131.9240  121.4430   60.3600 C   0  0  0  0  0  0  0  0  0  0  0  0
  133.0830  120.7690   60.1470 N   0  0  0  0  0  0  0  0  0  0  0  0
  133.1110  119.4330   60.3640 C   0  0  0  0  0  0  0  0  0  0  0  0
  134.4360  118.7480   60.0890 C   0  0  0  0  0  0  0  0  0  0  0  0
  131.9990  118.7210   60.8080 C   0  0  0  0  0  0  0  0  0  0  0  0
  130.8070  119.4090   61.0550 C   0  0  0  0  0  0  0  0  0  0  0  0
  129.6060  118.6070   61.5590 C   0  0  0  0  0  0  0  0  0  0  0  0
  130.7540  120.8040   60.8380 C   0  0  0  0  0  0  0  0  0  0  0  0
  129.5310  121.5490   61.1460 C   0  0  0  0  0  0  0  0  0  0  0  0
  128.5630  122.1340   61.3900 N   0  0  0  0  0  0  0  0  0  0  0  0
  1  2  1  0
  2  3  1  0
  3  4  2  0
  3  5  1  0
  5  6  1  0
  6  7  1  0
  7  8  2  0
  7  9  1  0
  9 10  1  0
 10 11  1  0
 11 12  1  0
 12 13  2  0
 13 14  1  0
 14 15  1  0
 14 16  2  0
 16 17  1  0
 17 18  1  0
 17 19  2  0
 19 20  1  0
 20 21  3  0
 19 12  1  0
M  END
>  <Binding energies>  (15) 
[-6.03]

>  <Ligand effiencies>  (15) 
[-0.2740909090909091]

>  <Interactions>  (15) 
["V-A:GLU:543:CD:4908, V-A:ASP:366:CG:3212, V-A:ARG:545:CD:4923, V-A:ARG:545:CG:4922, H-A:TYR:484:OH:4347, V-A:ASP:366:CA:3209, V-A:ASP:366:CB:3211, H-A:ARG:545:NH2:4928, V-A:ILE:369:CD1:3238, H-A:ARG:545:NH1:4927, V-A:ARG:545:CZ:4926, H-A:GLY:454:N:4049, V-A:ILE:369:CB:3235, H-A:ASP:366:OD2:3214, H-A:ASP:366:OD1:3213, H-A:ARG:545:NE:4924, V-A:ILE:369:CG2:3236, V-B:TYR:539:CD2:9846, V-B:TYR:539:CE2:9848, V-A:LEU:475:CD1:4257, H-B:ALA:541:N:9863, V-A:PRO:482:CB:4325, V-A:PRO:482:CG:4326, V-B:ALA:541:CB:9864, V-B:TYR:539:C:9839, V-A:SER:385:C:3404, V-A:HIS:383:CD2:3391, V-A:HIS:456:CE1:4069, V-B:ALA:541:CA:9862, V-A:SER:385:CA:3406, V-B:PRO:540:C:9853, V-A:SER:385:CB:3408"]

$$$$
2a_Grossjean_2025
     RDKit          3D

 29 30  0  0  0  0  0  0  0  0999 V2000
  127.4930  127.7850   67.3000 C   0  0  0  0  0  0  0  0  0  0  0  0
  128.7590  128.5090   67.7680 C   0  0  0  0  0  0  0  0  0  0  0  0
  129.4770  127.6680   68.6640 O   0  0  0  0  0  0  0  0  0  0  0  0
  129.5020  126.3210   68.4920 C   0  0  0  0  0  0  0  0  0  0  0  0
  128.9940  125.5240   69.2870 O   0  0  0  0  0  0  0  0  0  0  0  0
  130.1920  125.8990   67.2260 C   0  0  0  0  0  0  0  0  0  0  0  0
  131.5180  126.2610   66.9480 C   0  0  0  0  0  0  0  0  0  0  0  0
  132.1270  125.8550   65.7650 C   0  0  0  0  0  0  0  0  0  0  0  0
  131.4260  125.0870   64.8340 C   0  0  0  0  0  0  0  0  0  0  0  0
  132.1360  124.7460   63.6680 N   0  0  0  0  0  0  0  0  0  0  0  0
  133.4640  124.7650   63.4240 C   0  0  0  0  0  0  0  0  0  0  0  0
  134.3320  125.1290   64.2170 O   0  0  0  0  0  0  0  0  0  0  0  0
  133.8850  124.2890   62.0290 C   0  0  0  0  0  0  0  0  0  0  0  0
  134.1510  122.4870   61.9310 S   0  0  0  0  0  0  0  0  0  0  0  0
  132.5750  121.6510   61.7920 C   0  0  0  0  0  0  0  0  0  0  0  0
  131.4890  122.3750   62.1650 N   0  0  0  0  0  0  0  0  0  0  0  0
  130.2660  121.8020   62.0980 C   0  0  0  0  0  0  0  0  0  0  0  0
  129.1060  122.6650   62.5580 C   0  0  0  0  0  0  0  0  0  0  0  0
  130.0720  120.4980   61.6520 C   0  0  0  0  0  0  0  0  0  0  0  0
  131.1790  119.7330   61.2530 C   0  0  0  0  0  0  0  0  0  0  0  0
  130.9460  118.2920   60.7610 C   0  0  0  0  0  0  0  0  0  0  0  0
  131.6250  117.4340   61.5220 F   0  0  0  0  0  0  0  0  0  0  0  0
  129.6480  117.9940   60.8230 F   0  0  0  0  0  0  0  0  0  0  0  0
  131.3410  118.1090   59.4980 F   0  0  0  0  0  0  0  0  0  0  0  0
  132.4680  120.3210   61.3220 C   0  0  0  0  0  0  0  0  0  0  0  0
  133.6590  119.5670   60.9200 C   0  0  0  0  0  0  0  0  0  0  0  0
  134.6000  118.9710   60.6030 N   0  0  0  0  0  0  0  0  0  0  0  0
  130.1020  124.7150   65.1090 C   0  0  0  0  0  0  0  0  0  0  0  0
  129.4950  125.1180   66.2950 C   0  0  0  0  0  0  0  0  0  0  0  0
  1  2  1  0
  2  3  1  0
  3  4  1  0
  4  5  2  0
  4  6  1  0
  6  7  2  0
  7  8  1  0
  8  9  2  0
  9 10  1  0
 10 11  1  0
 11 12  2  0
 11 13  1  0
 13 14  1  0
 14 15  1  0
 15 16  2  0
 16 17  1  0
 17 18  1  0
 17 19  2  0
 19 20  1  0
 20 21  1  0
 21 22  1  0
 21 23  1  0
 21 24  1  0
 20 25  2  0
 25 26  1  0
 26 27  3  0
  9 28  1  0
 28 29  2  0
 29  6  1  0
 25 15  1  0
M  END
>  <Binding energies>  (16) 
[-7.23]

>  <Ligand effiencies>  (16) 
[-0.24100000000000002]

>  <Interactions>  (16) 
["V-A:GLU:543:CD:4908, V-A:ASP:366:CG:3212, H-A:ARG:545:NH2:4928, H-A:ARG:545:NH1:4927, V-A:ARG:545:CZ:4926, H-A:GLY:454:N:4049, H-A:ARG:545:NE:4924, V-A:ILE:369:CG2:3236, V-B:TYR:539:CD2:9846, H-A:SER:385:OG:3409, V-A:LEU:475:CD1:4257, V-A:HIS:383:CE1:3392, V-A:PRO:482:CB:4325, V-A:PRO:482:CG:4326, V-B:TYR:539:CG:9844, V-B:GLU:543:CG:9879, V-B:ALA:541:CB:9864, V-B:GLU:543:CD:9880, V-B:TYR:539:C:9839, V-A:SER:385:C:3404, V-A:TYR:484:CE2:4345, V-A:HIS:456:CE1:4069, V-B:ALA:541:CA:9862, V-A:GLU:543:CG:4907, V-B:HIS:456:CE1:9041, V-A:GLU:543:CB:4906, V-B:GLU:543:CB:9878, V-A:SER:385:CA:3406, V-B:PRO:540:C:9853, V-B:TYR:539:CB:9843, V-A:PRO:482:CD:4327"]

$$$$
2b_Grossjean_2025
     RDKit          3D

 28 29  0  0  0  0  0  0  0  0999 V2000
  128.6340  128.2350   67.3670 C   0  0  0  0  0  0  0  0  0  0  0  0
  128.2900  127.1030   68.1530 O   0  0  0  0  0  0  0  0  0  0  0  0
  129.1750  126.0920   68.3490 C   0  0  0  0  0  0  0  0  0  0  0  0
  129.3340  125.5280   69.4360 O   0  0  0  0  0  0  0  0  0  0  0  0
  129.9450  125.7310   67.1110 C   0  0  0  0  0  0  0  0  0  0  0  0
  129.3850  124.9470   66.0920 C   0  0  0  0  0  0  0  0  0  0  0  0
  130.1270  124.6280   64.9580 C   0  0  0  0  0  0  0  0  0  0  0  0
  131.4350  125.0890   64.8150 C   0  0  0  0  0  0  0  0  0  0  0  0
  132.0950  124.7030   63.6330 N   0  0  0  0  0  0  0  0  0  0  0  0
  133.4110  124.7330   63.3310 C   0  0  0  0  0  0  0  0  0  0  0  0
  134.3030  125.1500   64.0720 O   0  0  0  0  0  0  0  0  0  0  0  0
  133.7730  124.2120   61.9370 C   0  0  0  0  0  0  0  0  0  0  0  0
  133.9770  122.4010   61.8790 S   0  0  0  0  0  0  0  0  0  0  0  0
  132.3780  121.6110   61.7480 C   0  0  0  0  0  0  0  0  0  0  0  0
  131.3130  122.3740   62.1020 N   0  0  0  0  0  0  0  0  0  0  0  0
  130.0740  121.8400   62.0330 C   0  0  0  0  0  0  0  0  0  0  0  0
  128.9400  122.7530   62.4580 C   0  0  0  0  0  0  0  0  0  0  0  0
  129.8410  120.5360   61.6040 C   0  0  0  0  0  0  0  0  0  0  0  0
  130.9260  119.7310   61.2260 C   0  0  0  0  0  0  0  0  0  0  0  0
  130.6510  118.2930   60.7480 C   0  0  0  0  0  0  0  0  0  0  0  0
  129.3620  117.9940   60.9190 F   0  0  0  0  0  0  0  0  0  0  0  0
  130.9550  118.1720   59.4550 F   0  0  0  0  0  0  0  0  0  0  0  0
  131.3650  117.3820   61.4140 F   0  0  0  0  0  0  0  0  0  0  0  0
  132.2330  120.2770   61.2990 C   0  0  0  0  0  0  0  0  0  0  0  0
  133.4040  119.4790   60.9220 C   0  0  0  0  0  0  0  0  0  0  0  0
  134.3280  118.8490   60.6240 N   0  0  0  0  0  0  0  0  0  0  0  0
  132.0050  125.8670   65.8330 C   0  0  0  0  0  0  0  0  0  0  0  0
  131.2630  126.1840   66.9670 C   0  0  0  0  0  0  0  0  0  0  0  0
  1  2  1  0
  2  3  1  0
  3  4  2  0
  3  5  1  0
  5  6  2  0
  6  7  1  0
  7  8  2  0
  8  9  1  0
  9 10  1  0
 10 11  2  0
 10 12  1  0
 12 13  1  0
 13 14  1  0
 14 15  2  0
 15 16  1  0
 16 17  1  0
 16 18  2  0
 18 19  1  0
 19 20  1  0
 20 21  1  0
 20 22  1  0
 20 23  1  0
 19 24  2  0
 24 25  1  0
 25 26  3  0
  8 27  1  0
 27 28  2  0
 28  5  1  0
 24 14  1  0
M  END
>  <Binding energies>  (17) 
[-6.87]

>  <Ligand effiencies>  (17) 
[-0.23689655172413793]

>  <Interactions>  (17) 
["V-A:GLU:543:CD:4908, V-A:ASP:366:CG:3212, H-A:ARG:545:NH2:4928, H-A:ARG:545:NH1:4927, V-A:ARG:545:CZ:4926, H-A:GLY:454:N:4049, H-A:ARG:545:NE:4924, V-A:ILE:369:CG2:3236, V-B:TYR:539:CD2:9846, H-A:SER:385:OG:3409, V-B:TYR:539:CE2:9848, V-A:LEU:475:CD1:4257, V-A:HIS:383:CE1:3392, V-A:PRO:482:CB:4325, H-A:HIS:383:NE2:3393, V-A:PRO:482:CG:4326, V-B:TYR:539:CG:9844, V-B:GLU:543:CG:9879, V-B:ALA:541:CB:9864, V-B:PRO:540:N:9856, V-B:GLU:543:CD:9880, V-B:TYR:539:C:9839, V-A:TYR:484:CE2:4345, V-A:HIS:456:CE1:4069, V-B:ALA:541:CA:9862, V-A:GLU:543:CG:4907, V-B:HIS:456:CE1:9041, V-A:GLU:543:CB:4906, V-B:GLU:543:CB:9878, V-A:SER:385:CA:3406, V-B:PRO:540:C:9853, V-B:TYR:539:CB:9843, V-A:PRO:482:CD:4327"]

$$$$
2c_Grossjean_2025
     RDKit          3D

 26 27  0  0  0  0  0  0  0  0999 V2000
  128.5450  126.6680   68.4340 C   0  0  0  0  0  0  0  0  0  0  0  0
  129.7780  125.9570   68.4330 O   0  0  0  0  0  0  0  0  0  0  0  0
  130.3920  125.6750   67.2280 C   0  0  0  0  0  0  0  0  0  0  0  0
  129.7320  124.7800   66.3870 C   0  0  0  0  0  0  0  0  0  0  0  0
  130.2730  124.4320   65.1520 C   0  0  0  0  0  0  0  0  0  0  0  0
  131.5010  124.9770   64.7480 C   0  0  0  0  0  0  0  0  0  0  0  0
  132.1160  124.7000   63.5130 N   0  0  0  0  0  0  0  0  0  0  0  0
  133.4280  124.7500   63.1960 C   0  0  0  0  0  0  0  0  0  0  0  0
  134.3210  125.1140   63.9630 O   0  0  0  0  0  0  0  0  0  0  0  0
  133.7590  124.3480   61.7510 C   0  0  0  0  0  0  0  0  0  0  0  0
  133.9710  122.5570   61.4620 S   0  0  0  0  0  0  0  0  0  0  0  0
  132.3720  121.7560   61.4890 C   0  0  0  0  0  0  0  0  0  0  0  0
  131.3200  122.5560   61.8020 N   0  0  0  0  0  0  0  0  0  0  0  0
  130.0820  122.0170   61.8500 C   0  0  0  0  0  0  0  0  0  0  0  0
  128.9640  122.9710   62.2220 C   0  0  0  0  0  0  0  0  0  0  0  0
  129.8380  120.6720   61.5830 C   0  0  0  0  0  0  0  0  0  0  0  0
  130.9080  119.8290   61.2510 C   0  0  0  0  0  0  0  0  0  0  0  0
  130.6210  118.3440   60.9560 C   0  0  0  0  0  0  0  0  0  0  0  0
  131.3360  117.5700   61.7740 F   0  0  0  0  0  0  0  0  0  0  0  0
  129.3250  118.0830   61.1360 F   0  0  0  0  0  0  0  0  0  0  0  0
  130.9300  117.9980   59.7040 F   0  0  0  0  0  0  0  0  0  0  0  0
  132.2130  120.3800   61.2010 C   0  0  0  0  0  0  0  0  0  0  0  0
  133.3700  119.5450   60.8610 C   0  0  0  0  0  0  0  0  0  0  0  0
  134.2830  118.8860   60.5930 N   0  0  0  0  0  0  0  0  0  0  0  0
  132.1580  125.8850   65.5790 C   0  0  0  0  0  0  0  0  0  0  0  0
  131.6130  126.2300   66.8120 C   0  0  0  0  0  0  0  0  0  0  0  0
  1  2  1  0
  2  3  1  0
  3  4  2  0
  4  5  1  0
  5  6  2  0
  6  7  1  0
  7  8  1  0
  8  9  2  0
  8 10  1  0
 10 11  1  0
 11 12  1  0
 12 13  2  0
 13 14  1  0
 14 15  1  0
 14 16  2  0
 16 17  1  0
 17 18  1  0
 18 19  1  0
 18 20  1  0
 18 21  1  0
 17 22  2  0
 22 23  1  0
 23 24  3  0
  6 25  1  0
 25 26  2  0
 26  3  1  0
 22 12  1  0
M  END
>  <Binding energies>  (18) 
[-6.62]

>  <Ligand effiencies>  (18) 
[-0.2451851851851852]

>  <Interactions>  (18) 
["V-A:ASP:366:CG:3212, V-A:TYR:484:CZ:4346, H-A:ARG:545:NH2:4928, H-A:ARG:545:NH1:4927, V-A:ARG:545:CZ:4926, H-A:GLY:454:N:4049, H-A:ARG:545:NE:4924, V-A:ILE:369:CG2:3236, V-B:TYR:539:CD2:9846, H-A:SER:385:OG:3409, V-A:LEU:475:CD1:4257, V-A:PRO:482:CB:4325, H-A:HIS:383:NE2:3393, V-A:PRO:482:CG:4326, V-B:TYR:539:CG:9844, V-B:GLU:543:CG:9879, V-B:ALA:541:CB:9864, V-B:GLU:543:CD:9880, V-B:TYR:539:C:9839, V-A:TYR:484:CE2:4345, V-A:HIS:456:CE1:4069, V-B:ALA:541:CA:9862, V-B:HIS:456:CE1:9041, V-B:GLU:543:CB:9878, V-B:PRO:540:C:9853, V-B:TYR:539:CB:9843, V-A:PRO:482:CD:4327"]

$$$$
2d_Ghoteimi_2023
     RDKit          3D

 38 42  0  0  0  0  0  0  0  0999 V2000
  124.0480  130.3290   62.9760 C   0  0  0  0  0  0  0  0  0  0  0  0
  124.0780  129.9360   64.3400 O   0  0  0  0  0  0  0  0  0  0  0  0
  125.2240  129.5020   64.9040 C   0  0  0  0  0  0  0  0  0  0  0  0
  125.3030  128.7710   65.8950 O   0  0  0  0  0  0  0  0  0  0  0  0
  126.4530  130.0290   64.1470 C   0  0  0  0  0  0  0  0  0  0  0  0
  127.0430  128.8160   62.9180 S   0  0  0  0  0  0  0  0  0  0  0  0
  127.9650  127.5550   63.7740 C   0  0  0  0  0  0  0  0  0  0  0  0
  128.0770  127.7850   65.1050 N   0  0  0  0  0  0  0  0  0  0  0  0
  128.7610  126.9080   65.8820 C   0  0  0  0  0  0  0  0  0  0  0  0
  128.8590  127.2370   67.3370 C   0  0  0  0  0  0  0  0  0  0  0  0
  128.9180  126.2200   68.2950 C   0  0  0  0  0  0  0  0  0  0  0  0
  129.0090  126.5190   69.6520 C   0  0  0  0  0  0  0  0  0  0  0  0
  129.0550  127.8490   70.0990 C   0  0  0  0  0  0  0  0  0  0  0  0
  129.1280  128.1670   71.4600 N   0  0  0  0  0  0  0  0  0  0  0  0
  130.2470  127.7020   72.3030 C   0  0  0  0  0  0  0  0  0  0  0  0
  129.9730  127.8240   73.8160 C   0  0  0  0  0  0  0  0  0  0  0  0
  129.6200  129.1610   74.1380 O   0  0  0  0  0  0  0  0  0  0  0  0
  128.4490  129.5700   73.4510 C   0  0  0  0  0  0  0  0  0  0  0  0
  128.6750  129.4940   71.9250 C   0  0  0  0  0  0  0  0  0  0  0  0
  128.9810  128.8650   69.1360 C   0  0  0  0  0  0  0  0  0  0  0  0
  128.8880  128.5650   67.7800 C   0  0  0  0  0  0  0  0  0  0  0  0
  129.3490  125.7650   65.3330 C   0  0  0  0  0  0  0  0  0  0  0  0
  129.2190  125.4860   63.9670 C   0  0  0  0  0  0  0  0  0  0  0  0
  129.8500  124.2330   63.4560 C   0  0  0  0  0  0  0  0  0  0  0  0
  131.1800  123.9410   63.7600 C   0  0  0  0  0  0  0  0  0  0  0  0
  131.7740  122.7700   63.2990 C   0  0  0  0  0  0  0  0  0  0  0  0
  131.0520  121.8560   62.5150 C   0  0  0  0  0  0  0  0  0  0  0  0
  131.6230  120.6670   62.0510 N   0  0  0  0  0  0  0  0  0  0  0  0
  132.8800  120.6690   61.2770 C   0  0  0  0  0  0  0  0  0  0  0  0
  133.5370  119.2760   61.1670 C   0  0  0  0  0  0  0  0  0  0  0  0
  132.6110  118.3440   60.6300 O   0  0  0  0  0  0  0  0  0  0  0  0
  131.4550  118.2240   61.4450 C   0  0  0  0  0  0  0  0  0  0  0  0
  130.7440  119.5900   61.5580 C   0  0  0  0  0  0  0  0  0  0  0  0
  129.7110  122.1480   62.2290 C   0  0  0  0  0  0  0  0  0  0  0  0
  129.1180  123.3190   62.6910 C   0  0  0  0  0  0  0  0  0  0  0  0
  128.5020  126.4010   63.1570 C   0  0  0  0  0  0  0  0  0  0  0  0
  128.3210  126.1440   61.7250 C   0  0  0  0  0  0  0  0  0  0  0  0
  128.1810  125.9360   60.5950 N   0  0  0  0  0  0  0  0  0  0  0  0
  1  2  1  0
  2  3  1  0
  3  4  2  0
  3  5  1  0
  5  6  1  0
  6  7  1  0
  7  8  2  0
  8  9  1  0
  9 10  1  0
 10 11  2  0
 11 12  1  0
 12 13  2  0
 13 14  1  0
 14 15  1  0
 15 16  1  0
 16 17  1  0
 17 18  1  0
 18 19  1  0
 13 20  1  0
 20 21  2  0
  9 22  2  0
 22 23  1  0
 23 24  1  0
 24 25  2  0
 25 26  1  0
 26 27  2  0
 27 28  1  0
 28 29  1  0
 29 30  1  0
 30 31  1  0
 31 32  1  0
 32 33  1  0
 27 34  1  0
 34 35  2  0
 23 36  2  0
 36 37  1  0
 37 38  3  0
 36  7  1  0
 21 10  1  0
 35 24  1  0
 19 14  1  0
 33 28  1  0
M  END
>  <Binding energies>  (19) 
[-8.39]

>  <Ligand effiencies>  (19) 
[-0.22078947368421054]

>  <Interactions>  (19) 
["V-A:GLU:543:CD:4908, V-A:ILE:369:CG2:3236, H-A:SER:385:OG:3409, V-A:LEU:475:CD1:4257, V-A:PRO:482:CB:4325, H-A:HIS:383:NE2:3393, V-A:PRO:482:CG:4326, V-B:GLU:543:CG:9879, V-B:ALA:541:CB:9864, V-B:GLU:543:CD:9880, V-A:SER:385:C:3404, V-A:HIS:456:CE1:4069, V-A:GLU:543:CG:4907, V-B:HIS:456:CE1:9041, V-A:GLU:543:CB:4906, V-B:GLU:543:CB:9878, H-B:TYR:484:OH:9319, H-B:ARG:545:NH2:9900, H-B:GLY:454:N:9021, V-B:ILE:369:CD1:8210, H-B:ARG:545:NH1:9899, V-A:SER:385:CA:3406, V-A:GLU:543:C:4902, H-B:ARG:545:NE:9896, V-B:ARG:545:CZ:9898, V-B:HIS:456:CG:9037, V-B:HIS:456:CD2:9039, H-A:LYS:547:NZ:4951, V-A:LYS:547:CE:4950"]

$$$$
2d_Grossjean_2025
     RDKit          3D

 24 25  0  0  0  0  0  0  0  0999 V2000
  129.0800  122.7990   62.3980 C   0  0  0  0  0  0  0  0  0  0  0  0
  130.1650  121.8430   61.9410 C   0  0  0  0  0  0  0  0  0  0  0  0
  129.8770  120.5270   61.5860 C   0  0  0  0  0  0  0  0  0  0  0  0
  130.9150  119.6830   61.1650 C   0  0  0  0  0  0  0  0  0  0  0  0
  130.5750  118.2340   60.7650 C   0  0  0  0  0  0  0  0  0  0  0  0
  131.3120  117.3800   61.4760 F   0  0  0  0  0  0  0  0  0  0  0  0
  129.2840  117.9870   60.9980 F   0  0  0  0  0  0  0  0  0  0  0  0
  130.8040  117.9860   59.4750 F   0  0  0  0  0  0  0  0  0  0  0  0
  132.2350  120.2010   61.1220 C   0  0  0  0  0  0  0  0  0  0  0  0
  133.3460  119.3740   60.6460 C   0  0  0  0  0  0  0  0  0  0  0  0
  134.2240  118.7200   60.2680 N   0  0  0  0  0  0  0  0  0  0  0  0
  132.4370  121.5420   61.5260 C   0  0  0  0  0  0  0  0  0  0  0  0
  134.0300  122.3400   61.5650 S   0  0  0  0  0  0  0  0  0  0  0  0
  133.7800  124.1460   61.5890 C   0  0  0  0  0  0  0  0  0  0  0  0
  133.6110  124.7080   63.0040 C   0  0  0  0  0  0  0  0  0  0  0  0
  134.6040  125.1140   63.6090 O   0  0  0  0  0  0  0  0  0  0  0  0
  132.3550  124.6840   63.4950 N   0  0  0  0  0  0  0  0  0  0  0  0
  131.8810  125.1270   64.7440 C   0  0  0  0  0  0  0  0  0  0  0  0
  130.5510  124.8180   65.0390 C   0  0  0  0  0  0  0  0  0  0  0  0
  129.9890  125.2180   66.2490 C   0  0  0  0  0  0  0  0  0  0  0  0
  130.7570  125.9370   67.1620 C   0  0  0  0  0  0  0  0  0  0  0  0
  132.0790  126.2630   66.8730 C   0  0  0  0  0  0  0  0  0  0  0  0
  132.6440  125.8630   65.6660 C   0  0  0  0  0  0  0  0  0  0  0  0
  131.4190  122.3500   61.9100 N   0  0  0  0  0  0  0  0  0  0  0  0
  1  2  1  0
  2  3  2  0
  3  4  1  0
  4  5  1  0
  5  6  1  0
  5  7  1  0
  5  8  1  0
  4  9  2  0
  9 10  1  0
 10 11  3  0
  9 12  1  0
 12 13  1  0
 13 14  1  0
 14 15  1  0
 15 16  2  0
 15 17  1  0
 17 18  1  0
 18 19  2  0
 19 20  1  0
 20 21  2  0
 21 22  1  0
 22 23  2  0
 12 24  2  0
 24  2  1  0
 23 18  1  0
M  END
>  <Binding energies>  (20) 
[-6.73]

>  <Ligand effiencies>  (20) 
[-0.2692]

>  <Interactions>  (20) 
["V-A:ASP:366:CG:3212, V-A:ARG:545:CG:4922, V-A:TYR:484:CZ:4346, H-A:ARG:545:NH2:4928, H-A:ARG:545:NH1:4927, V-A:ARG:545:CZ:4926, H-A:GLY:454:N:4049, V-A:ILE:369:CG2:3236, V-B:TYR:539:CD2:9846, H-A:SER:385:OG:3409, V-A:LEU:475:CD1:4257, V-A:HIS:383:CE1:3392, V-A:PRO:482:CB:4325, H-A:HIS:383:NE2:3393, V-A:PRO:482:CG:4326, V-B:PRO:540:CA:9855, V-B:TYR:539:CG:9844, V-B:GLU:543:CG:9879, V-B:ALA:541:CB:9864, V-B:PRO:540:N:9856, V-B:TYR:539:C:9839, V-A:TYR:484:CE2:4345, V-A:HIS:456:CE1:4069, V-B:ALA:541:CA:9862, V-B:GLU:543:CB:9878, V-B:PRO:540:C:9853, V-B:TYR:539:CB:9843, V-B:TYR:539:CA:9841, V-A:PRO:482:CD:4327"]

$$$$
2e_Grossjean_2025
     RDKit          3D

 25 26  0  0  0  0  0  0  0  0999 V2000
  122.9660  129.2720   66.9410 C   0  0  0  0  0  0  0  0  0  0  0  0
  124.3020  129.2470   66.2230 C   0  0  0  0  0  0  0  0  0  0  0  0
  124.4970  129.9240   65.0170 C   0  0  0  0  0  0  0  0  0  0  0  0
  125.7570  129.8670   64.4190 C   0  0  0  0  0  0  0  0  0  0  0  0
  126.7800  129.1410   65.0340 C   0  0  0  0  0  0  0  0  0  0  0  0
  126.5140  128.4780   66.2380 C   0  0  0  0  0  0  0  0  0  0  0  0
  127.5900  127.8000   66.8350 N   0  0  0  0  0  0  0  0  0  0  0  0
  128.5080  128.2890   67.6980 C   0  0  0  0  0  0  0  0  0  0  0  0
  128.5000  129.4290   68.1670 O   0  0  0  0  0  0  0  0  0  0  0  0
  129.6530  127.3390   68.0620 C   0  0  0  0  0  0  0  0  0  0  0  0
  129.4980  125.7290   67.2250 S   0  0  0  0  0  0  0  0  0  0  0  0
  130.9650  125.5660   66.2320 C   0  0  0  0  0  0  0  0  0  0  0  0
  132.1250  125.5620   66.9340 N   0  0  0  0  0  0  0  0  0  0  0  0
  133.2910  125.4870   66.2530 C   0  0  0  0  0  0  0  0  0  0  0  0
  134.5500  125.4870   67.0990 C   0  0  0  0  0  0  0  0  0  0  0  0
  133.3470  125.4210   64.8620 C   0  0  0  0  0  0  0  0  0  0  0  0
  132.1560  125.4330   64.1210 C   0  0  0  0  0  0  0  0  0  0  0  0
  132.2360  125.3800   62.5840 C   0  0  0  0  0  0  0  0  0  0  0  0
  133.4960  125.1790   62.1970 F   0  0  0  0  0  0  0  0  0  0  0  0
  131.4770  124.3860   62.1220 F   0  0  0  0  0  0  0  0  0  0  0  0
  131.8150  126.5080   62.0070 F   0  0  0  0  0  0  0  0  0  0  0  0
  130.9260  125.5060   64.8200 C   0  0  0  0  0  0  0  0  0  0  0  0
  129.6480  125.5520   64.1020 C   0  0  0  0  0  0  0  0  0  0  0  0
  128.6400  125.5900   63.5350 N   0  0  0  0  0  0  0  0  0  0  0  0
  125.2860  128.5370   66.8320 N   0  0  0  0  0  0  0  0  0  0  0  0
  1  2  1  0
  2  3  2  0
  3  4  1  0
  4  5  2  0
  5  6  1  0
  6  7  1  0
  7  8  1  0
  8  9  2  0
  8 10  1  0
 10 11  1  0
 11 12  1  0
 12 13  2  0
 13 14  1  0
 14 15  1  0
 14 16  2  0
 16 17  1  0
 17 18  1  0
 18 19  1  0
 18 20  1  0
 18 21  1  0
 17 22  2  0
 22 23  1  0
 23 24  3  0
  6 25  2  0
 25  2  1  0
 22 12  1  0
M  END
>  <Binding energies>  (21) 
[-6.35]

>  <Ligand effiencies>  (21) 
[-0.24423076923076922]

>  <Interactions>  (21) 
["V-A:ASP:366:CG:3212, V-A:ARG:545:CD:4923, V-A:ARG:545:CG:4922, H-A:TYR:484:OH:4347, V-A:TYR:484:CZ:4346, V-A:ARG:545:CZ:4926, V-B:GLU:543:CD:9880, V-A:HIS:456:CE1:4069, V-B:HIS:456:CE1:9041, V-A:GLU:543:CB:4906, H-B:TYR:484:OH:9319, V-B:GLY:454:CA:9020, H-B:GLU:543:OE2:9882, V-B:ARG:545:CG:9894, H-B:ARG:545:NE:9896, V-B:ARG:545:CD:9895, V-B:GLY:453:C:9013, V-B:GLY:453:CA:9015, V-B:ARG:545:CZ:9898, V-A:ARG:545:CB:4921, V-A:ILE:455:C:4051, V-B:ILE:455:C:9023"]

$$$$
2f_Grossjean_2025
     RDKit          3D

 24 25  0  0  0  0  0  0  0  0999 V2000
  133.4800  125.7450   66.7970 C   0  0  0  0  0  0  0  0  0  0  0  0
  133.0060  125.5000   65.3770 C   0  0  0  0  0  0  0  0  0  0  0  0
  131.6710  125.6610   65.0150 C   0  0  0  0  0  0  0  0  0  0  0  0
  131.2800  125.4150   63.6890 C   0  0  0  0  0  0  0  0  0  0  0  0
  129.7970  125.5860   63.3120 C   0  0  0  0  0  0  0  0  0  0  0  0
  129.1060  126.0410   64.3600 F   0  0  0  0  0  0  0  0  0  0  0  0
  129.6800  126.4560   62.3080 F   0  0  0  0  0  0  0  0  0  0  0  0
  129.2260  124.4440   62.9220 F   0  0  0  0  0  0  0  0  0  0  0  0
  132.2690  125.0140   62.7540 C   0  0  0  0  0  0  0  0  0  0  0  0
  131.9020  124.6910   61.3740 C   0  0  0  0  0  0  0  0  0  0  0  0
  131.6110  124.4360   60.2820 N   0  0  0  0  0  0  0  0  0  0  0  0
  133.6060  124.9020   63.2060 C   0  0  0  0  0  0  0  0  0  0  0  0
  134.9740  124.4240   62.1700 S   0  0  0  0  0  0  0  0  0  0  0  0
  134.3140  123.4440   60.7790 C   0  0  0  0  0  0  0  0  0  0  0  0
  133.9010  122.0080   61.1310 C   0  0  0  0  0  0  0  0  0  0  0  0
  134.6650  121.2700   61.7550 O   0  0  0  0  0  0  0  0  0  0  0  0
  132.6760  121.6530   60.6870 N   0  0  0  0  0  0  0  0  0  0  0  0
  131.9880  120.4340   60.8390 C   0  0  0  0  0  0  0  0  0  0  0  0
  130.6580  120.2970   61.2780 C   0  0  0  0  0  0  0  0  0  0  0  0
  130.0920  119.0250   61.3800 C   0  0  0  0  0  0  0  0  0  0  0  0
  130.8700  117.9180   61.0360 C   0  0  0  0  0  0  0  0  0  0  0  0
  132.1510  118.0240   60.6030 N   0  0  0  0  0  0  0  0  0  0  0  0
  132.6870  119.2680   60.5080 C   0  0  0  0  0  0  0  0  0  0  0  0
  133.9600  125.1230   64.4960 N   0  0  0  0  0  0  0  0  0  0  0  0
  1  2  1  0
  2  3  2  0
  3  4  1  0
  4  5  1  0
  5  6  1  0
  5  7  1  0
  5  8  1  0
  4  9  2  0
  9 10  1  0
 10 11  3  0
  9 12  1  0
 12 13  1  0
 13 14  1  0
 14 15  1  0
 15 16  2  0
 15 17  1  0
 17 18  1  0
 18 19  2  0
 19 20  1  0
 20 21  2  0
 21 22  1  0
 22 23  2  0
 12 24  2  0
 24  2  1  0
 23 18  1  0
M  END
>  <Binding energies>  (22) 
[-6.38]

>  <Ligand effiencies>  (22) 
[-0.2552]

>  <Interactions>  (22) 
["V-A:ASP:366:CG:3212, V-A:ARG:545:CD:4923, V-A:ARG:545:CG:4922, H-A:TYR:484:OH:4347, V-A:TYR:484:CZ:4346, H-A:ARG:545:NH2:4928, V-A:ILE:369:CD1:3238, H-A:ARG:545:NH1:4927, V-A:ARG:545:CZ:4926, H-A:GLY:454:N:4049, V-A:ILE:369:CB:3235, H-A:ARG:545:NE:4924, V-A:ILE:369:CG2:3236, V-B:TYR:539:CD2:9846, H-A:SER:385:OG:3409, V-A:LEU:475:CD1:4257, V-A:PRO:482:CB:4325, H-A:HIS:383:NE2:3393, V-A:PRO:482:CG:4326, V-B:GLU:543:CG:9879, V-B:ALA:541:CB:9864, V-B:GLU:543:CD:9880, V-A:HIS:456:CE1:4069, V-B:ALA:541:CA:9862, V-B:PRO:540:C:9853"]

$$$$
2g_Grossjean_2025
     RDKit          3D

 25 26  0  0  0  0  0  0  0  0999 V2000
  128.2120  122.8640   61.9320 C   0  0  0  0  0  0  0  0  0  0  0  0
  129.5880  122.2470   61.7720 C   0  0  0  0  0  0  0  0  0  0  0  0
  129.7510  120.9070   61.4280 C   0  0  0  0  0  0  0  0  0  0  0  0
  131.0460  120.3810   61.3000 C   0  0  0  0  0  0  0  0  0  0  0  0
  131.2070  118.8940   60.9280 C   0  0  0  0  0  0  0  0  0  0  0  0
  131.8350  118.7770   59.7560 F   0  0  0  0  0  0  0  0  0  0  0  0
  131.9200  118.2690   61.8650 F   0  0  0  0  0  0  0  0  0  0  0  0
  130.0380  118.2600   60.8190 F   0  0  0  0  0  0  0  0  0  0  0  0
  132.1530  121.2410   61.5190 C   0  0  0  0  0  0  0  0  0  0  0  0
  133.5240  120.7290   61.4530 C   0  0  0  0  0  0  0  0  0  0  0  0
  134.6070  120.3240   61.4010 N   0  0  0  0  0  0  0  0  0  0  0  0
  131.8900  122.5960   61.8350 C   0  0  0  0  0  0  0  0  0  0  0  0
  133.1570  123.8140   62.1150 S   0  0  0  0  0  0  0  0  0  0  0  0
  132.3840  125.2190   62.9870 C   0  0  0  0  0  0  0  0  0  0  0  0
  132.8120  125.3790   64.4520 C   0  0  0  0  0  0  0  0  0  0  0  0
  133.7600  124.7440   64.9170 O   0  0  0  0  0  0  0  0  0  0  0  0
  132.0810  126.2460   65.1760 N   0  0  0  0  0  0  0  0  0  0  0  0
  132.3010  126.5720   66.5860 C   0  0  0  0  0  0  0  0  0  0  0  0
  131.0330  126.5910   67.4330 C   0  0  0  0  0  0  0  0  0  0  0  0
  130.6790  127.7500   68.1310 C   0  0  0  0  0  0  0  0  0  0  0  0
  129.5010  127.7820   68.8740 C   0  0  0  0  0  0  0  0  0  0  0  0
  128.6770  126.6600   68.9080 C   0  0  0  0  0  0  0  0  0  0  0  0
  129.0180  125.5060   68.2040 C   0  0  0  0  0  0  0  0  0  0  0  0
  130.1940  125.4740   67.4610 C   0  0  0  0  0  0  0  0  0  0  0  0
  130.6320  123.0820   61.9770 N   0  0  0  0  0  0  0  0  0  0  0  0
  1  2  1  0
  2  3  2  0
  3  4  1  0
  4  5  1  0
  5  6  1  0
  5  7  1  0
  5  8  1  0
  4  9  2  0
  9 10  1  0
 10 11  3  0
  9 12  1  0
 12 13  1  0
 13 14  1  0
 14 15  1  0
 15 16  2  0
 15 17  1  0
 17 18  1  0
 18 19  1  0
 19 20  2  0
 20 21  1  0
 21 22  2  0
 22 23  1  0
 23 24  2  0
 12 25  2  0
 25  2  1  0
 24 19  1  0
M  END
>  <Binding energies>  (23) 
[-7.16]

>  <Ligand effiencies>  (23) 
[-0.2753846153846154]

>  <Interactions>  (23) 
["V-A:GLU:543:CD:4908, V-A:ARG:545:CD:4923, V-A:ARG:545:CG:4922, H-A:TYR:484:OH:4347, H-A:GLU:543:OE2:4910, V-A:TYR:484:CZ:4346, H-A:GLU:543:OE1:4909, V-A:ARG:545:CZ:4926, H-A:GLY:454:N:4049, V-A:ILE:369:CG2:3236, V-B:TYR:539:CD2:9846, V-B:TYR:539:CE2:9848, V-A:LEU:475:CD1:4257, V-A:PRO:482:CB:4325, V-A:PRO:482:CG:4326, V-B:TYR:539:CG:9844, V-B:GLU:543:CG:9879, V-B:ALA:541:CB:9864, V-B:TYR:539:C:9839, V-A:TYR:484:CE2:4345, V-A:HIS:456:CE1:4069, V-B:ALA:541:CA:9862, V-B:GLU:543:CA:9876, V-B:HIS:456:CE1:9041, V-A:GLU:543:CB:4906, V-B:GLU:543:C:9874, V-B:GLU:543:CB:9878, V-B:PRO:540:C:9853"]

$$$$
2h_Grossjean_2025
     RDKit          3D

 31 32  0  0  0  0  0  0  0  0999 V2000
  133.8830  124.0080   62.8780 C   0  0  0  0  0  0  0  0  0  0  0  0
  134.0080  125.1310   63.7440 O   0  0  0  0  0  0  0  0  0  0  0  0
  133.0300  125.3690   64.6930 C   0  0  0  0  0  0  0  0  0  0  0  0
  133.2980  125.6210   66.0480 C   0  0  0  0  0  0  0  0  0  0  0  0
  132.2590  125.8600   66.9440 C   0  0  0  0  0  0  0  0  0  0  0  0
  130.9320  125.8530   66.5100 C   0  0  0  0  0  0  0  0  0  0  0  0
  129.8110  126.1380   67.5080 C   0  0  0  0  0  0  0  0  0  0  0  0
  128.6590  126.8200   66.9170 N   0  0  0  0  0  0  0  0  0  0  0  0
  128.2950  128.0870   67.1820 C   0  0  0  0  0  0  0  0  0  0  0  0
  128.8560  128.7890   68.0250 O   0  0  0  0  0  0  0  0  0  0  0  0
  127.1210  128.6260   66.3520 C   0  0  0  0  0  0  0  0  0  0  0  0
  127.1640  130.4210   66.0310 S   0  0  0  0  0  0  0  0  0  0  0  0
  127.2070  130.6250   64.2630 C   0  0  0  0  0  0  0  0  0  0  0  0
  128.4350  130.9360   63.7800 N   0  0  0  0  0  0  0  0  0  0  0  0
  128.5780  131.1330   62.4500 C   0  0  0  0  0  0  0  0  0  0  0  0
  129.9770  131.4840   61.9820 C   0  0  0  0  0  0  0  0  0  0  0  0
  127.5150  131.0230   61.5550 C   0  0  0  0  0  0  0  0  0  0  0  0
  126.2410  130.6820   62.0350 C   0  0  0  0  0  0  0  0  0  0  0  0
  125.0800  130.5560   61.0290 C   0  0  0  0  0  0  0  0  0  0  0  0
  124.9210  129.2810   60.6750 F   0  0  0  0  0  0  0  0  0  0  0  0
  123.9170  130.9820   61.5270 F   0  0  0  0  0  0  0  0  0  0  0  0
  125.3390  131.2790   59.9380 F   0  0  0  0  0  0  0  0  0  0  0  0
  126.0770  130.4650   63.4270 C   0  0  0  0  0  0  0  0  0  0  0  0
  124.7810  130.0500   63.9700 C   0  0  0  0  0  0  0  0  0  0  0  0
  123.7580  129.7190   64.3960 N   0  0  0  0  0  0  0  0  0  0  0  0
  130.6480  125.5790   65.1640 C   0  0  0  0  0  0  0  0  0  0  0  0
  129.3440  125.5670   64.7290 O   0  0  0  0  0  0  0  0  0  0  0  0
  128.9980  126.6560   63.8830 C   0  0  0  0  0  0  0  0  0  0  0  0
  131.6990  125.3570   64.2570 C   0  0  0  0  0  0  0  0  0  0  0  0
  131.4250  125.1070   62.9330 O   0  0  0  0  0  0  0  0  0  0  0  0
  131.6080  126.2280   62.0800 C   0  0  0  0  0  0  0  0  0  0  0  0
  1  2  1  0
  2  3  1  0
  3  4  2  0
  4  5  1  0
  5  6  2  0
  6  7  1  0
  7  8  1  0
  8  9  1  0
  9 10  2  0
  9 11  1  0
 11 12  1  0
 12 13  1  0
 13 14  2  0
 14 15  1  0
 15 16  1  0
 15 17  2  0
 17 18  1  0
 18 19  1  0
 19 20  1  0
 19 21  1  0
 19 22  1  0
 18 23  2  0
 23 24  1  0
 24 25  3  0
  6 26  1  0
 26 27  1  0
 27 28  1  0
 26 29  2  0
 29 30  1  0
 30 31  1  0
 29  3  1  0
 23 13  1  0
M  END
>  <Binding energies>  (24) 
[-6.19]

>  <Ligand effiencies>  (24) 
[-0.1934375]

>  <Interactions>  (24) 
["V-A:ALA:541:CB:4892, V-A:TYR:539:CE1:4875, V-A:GLU:543:CD:4908, V-A:ASP:366:CG:3212, V-A:ARG:545:CD:4923, V-A:ARG:545:CG:4922, V-A:GLY:453:C:4041, V-A:GLY:454:CA:4048, V-A:TYR:484:CZ:4346, H-A:ARG:545:NH2:4928, H-A:GLU:543:OE1:4909, H-A:ARG:545:NH1:4927, V-A:ARG:545:CZ:4926, H-A:GLY:454:N:4049, V-B:GLU:543:CD:9880, V-A:HIS:456:CE1:4069, V-B:HIS:456:CE1:9041, V-A:GLY:453:CA:4043, V-B:GLU:543:CB:9878, H-B:TYR:484:OH:9319, H-B:ARG:545:NH2:9900, H-B:GLY:454:N:9021, V-B:ILE:369:CG2:8208, V-B:ILE:369:CD1:8210, H-B:ARG:545:NH1:9899, V-B:ASP:366:CG:8184, V-A:ALA:541:CA:4890, V-B:ASP:366:CB:8183, H-B:GLU:543:OE2:9882, V-B:ARG:545:CZ:9898, V-B:ASP:366:CA:8181"]

$$$$
2i_Grossjean_2025
     RDKit          3D

 23 24  0  0  0  0  0  0  0  0999 V2000
  133.7210  125.5060   66.7790 C   0  0  0  0  0  0  0  0  0  0  0  0
  133.0750  125.4240   65.4080 C   0  0  0  0  0  0  0  0  0  0  0  0
  131.7520  125.8050   65.2010 C   0  0  0  0  0  0  0  0  0  0  0  0
  131.2010  125.7130   63.9150 C   0  0  0  0  0  0  0  0  0  0  0  0
  129.7350  126.1370   63.7040 C   0  0  0  0  0  0  0  0  0  0  0  0
  129.6770  127.1740   62.8660 F   0  0  0  0  0  0  0  0  0  0  0  0
  129.0350  125.1260   63.1900 F   0  0  0  0  0  0  0  0  0  0  0  0
  129.1350  126.5040   64.8390 F   0  0  0  0  0  0  0  0  0  0  0  0
  132.0190  125.2320   62.8610 C   0  0  0  0  0  0  0  0  0  0  0  0
  131.4950  125.1170   61.4960 C   0  0  0  0  0  0  0  0  0  0  0  0
  131.0820  125.0260   60.4190 N   0  0  0  0  0  0  0  0  0  0  0  0
  133.3510  124.8650   63.1600 C   0  0  0  0  0  0  0  0  0  0  0  0
  134.4700  124.2390   61.9170 S   0  0  0  0  0  0  0  0  0  0  0  0
  134.6180  122.4410   62.1430 C   0  0  0  0  0  0  0  0  0  0  0  0
  133.3740  121.6920   61.6610 C   0  0  0  0  0  0  0  0  0  0  0  0
  132.3700  122.3350   61.3510 O   0  0  0  0  0  0  0  0  0  0  0  0
  133.4710  120.3450   61.6390 N   0  0  0  0  0  0  0  0  0  0  0  0
  132.4830  119.4510   61.2610 C   0  0  0  0  0  0  0  0  0  0  0  0
  131.0890  119.5380   61.3880 C   0  0  0  0  0  0  0  0  0  0  0  0
  130.6140  118.3690   60.8410 C   0  0  0  0  0  0  0  0  0  0  0  0
  131.6600  117.6270   60.4030 O   0  0  0  0  0  0  0  0  0  0  0  0
  132.8370  118.3300   60.6720 N   0  0  0  0  0  0  0  0  0  0  0  0
  133.8650  124.9630   64.4130 N   0  0  0  0  0  0  0  0  0  0  0  0
  1  2  1  0
  2  3  2  0
  3  4  1  0
  4  5  1  0
  5  6  1  0
  5  7  1  0
  5  8  1  0
  4  9  2  0
  9 10  1  0
 10 11  3  0
  9 12  1  0
 12 13  1  0
 13 14  1  0
 14 15  1  0
 15 16  2  0
 15 17  1  0
 17 18  1  0
 18 19  1  0
 19 20  2  0
 20 21  1  0
 21 22  1  0
 12 23  2  0
 23  2  1  0
 22 18  2  0
M  END
>  <Binding energies>  (25) 
[-6.37]

>  <Ligand effiencies>  (25) 
[-0.2654166666666667]

>  <Interactions>  (25) 
["V-A:GLU:543:CD:4908, V-A:ASP:366:CG:3212, V-A:ARG:545:CD:4923, V-A:ARG:545:CG:4922, V-A:GLY:453:C:4041, H-A:TYR:484:OH:4347, V-A:GLY:454:CA:4048, V-A:TYR:484:CZ:4346, H-A:ARG:545:NH2:4928, V-A:ILE:369:CD1:3238, H-A:ARG:545:NH1:4927, V-A:ARG:545:CZ:4926, H-A:GLY:454:N:4049, H-A:ARG:545:NE:4924, V-A:ILE:369:CG2:3236, H-A:SER:385:OG:3409, V-A:LEU:475:CD1:4257, H-A:HIS:383:NE2:3393, V-A:PRO:482:CG:4326, V-B:GLU:543:CD:9880, H-A:SER:385:O:3405"]

$$$$
2k_Grossjean_2025
     RDKit          3D

 28 28  0  0  0  0  0  0  0  0999 V2000
  124.4370  133.8320   61.7290 C   0  0  0  0  0  0  0  0  0  0  0  0
  123.8160  132.7920   62.4700 O   0  0  0  0  0  0  0  0  0  0  0  0
  124.2670  131.4930   62.1100 C   0  0  0  0  0  0  0  0  0  0  0  0
  123.4430  130.4340   62.8530 C   0  0  0  0  0  0  0  0  0  0  0  0
  124.1670  130.0020   63.9960 O   0  0  0  0  0  0  0  0  0  0  0  0
  125.5780  130.1330   63.8780 C   0  0  0  0  0  0  0  0  0  0  0  0
  126.2250  128.8040   64.2900 C   0  0  0  0  0  0  0  0  0  0  0  0
  125.6970  128.4380   65.5550 O   0  0  0  0  0  0  0  0  0  0  0  0
  126.3340  129.0400   66.6720 C   0  0  0  0  0  0  0  0  0  0  0  0
  127.8400  129.1720   66.3780 C   0  0  0  0  0  0  0  0  0  0  0  0
  128.5920  127.9530   66.6860 N   0  0  0  0  0  0  0  0  0  0  0  0
  128.7800  127.4390   67.9160 C   0  0  0  0  0  0  0  0  0  0  0  0
  128.3030  127.9350   68.9390 O   0  0  0  0  0  0  0  0  0  0  0  0
  129.6590  126.1820   67.9860 C   0  0  0  0  0  0  0  0  0  0  0  0
  131.3570  126.3780   67.3410 S   0  0  0  0  0  0  0  0  0  0  0  0
  131.4040  125.8690   65.6270 C   0  0  0  0  0  0  0  0  0  0  0  0
  130.2360  125.9860   64.9460 N   0  0  0  0  0  0  0  0  0  0  0  0
  130.1970  125.6160   63.6470 C   0  0  0  0  0  0  0  0  0  0  0  0
  128.8540  125.7660   62.9600 C   0  0  0  0  0  0  0  0  0  0  0  0
  131.3120  125.1290   62.9710 C   0  0  0  0  0  0  0  0  0  0  0  0
  132.5330  125.0070   63.6530 C   0  0  0  0  0  0  0  0  0  0  0  0
  133.7590  124.4710   62.8880 C   0  0  0  0  0  0  0  0  0  0  0  0
  133.6180  124.5520   61.5640 F   0  0  0  0  0  0  0  0  0  0  0  0
  134.8450  125.1700   63.2200 F   0  0  0  0  0  0  0  0  0  0  0  0
  133.9610  123.1890   63.1920 F   0  0  0  0  0  0  0  0  0  0  0  0
  132.5860  125.3850   65.0190 C   0  0  0  0  0  0  0  0  0  0  0  0
  133.8340  125.2750   65.7810 C   0  0  0  0  0  0  0  0  0  0  0  0
  134.8200  125.1880   66.3820 N   0  0  0  0  0  0  0  0  0  0  0  0
  1  2  1  0
  2  3  1  0
  3  4  1  0
  4  5  1  0
  5  6  1  0
  6  7  1  0
  7  8  1  0
  8  9  1  0
  9 10  1  0
 10 11  1  0
 11 12  1  0
 12 13  2  0
 12 14  1  0
 14 15  1  0
 15 16  1  0
 16 17  2  0
 17 18  1  0
 18 19  1  0
 18 20  2  0
 20 21  1  0
 21 22  1  0
 22 23  1  0
 22 24  1  0
 22 25  1  0
 21 26  2  0
 26 27  1  0
 27 28  3  0
 26 16  1  0
M  END
>  <Binding energies>  (26) 
[-4.8]

>  <Ligand effiencies>  (26) 
[-0.16551724137931034]

>  <Interactions>  (26) 
["V-B:LEU:475:CD1:9229, V-A:GLU:543:CD:4908, V-A:ASP:366:CG:3212, V-A:ARG:545:CD:4923, V-A:ARG:545:CG:4922, V-A:GLY:453:C:4041, H-A:TYR:484:OH:4347, V-A:GLY:454:CA:4048, H-A:GLU:543:OE1:4909, V-A:ARG:545:CZ:4926, H-A:GLY:454:N:4049, H-A:ARG:545:NE:4924, V-B:GLU:543:CD:9880, V-A:HIS:456:CE1:4069, V-A:GLU:543:CG:4907, V-B:HIS:456:CE1:9041, V-A:GLY:453:CA:4043, H-B:ARG:545:NH2:9900, H-B:GLY:454:N:9021, V-B:GLY:454:CA:9020, V-B:ILE:369:CG2:8208, V-B:ILE:369:CD1:8210, V-B:ASP:366:CG:8184, H-B:GLU:543:OE2:9882, H-B:ARG:545:NE:9896, V-B:GLY:453:C:9013, V-B:GLY:453:CA:9015, V-B:ARG:545:CZ:9898, H-A:ILE:455:N:4054, V-B:TYR:484:CZ:9318"]

$$$$
3aa_Grossjean_2025
     RDKit          3D

 34 36  0  0  0  0  0  0  0  0999 V2000
  129.9940  125.1250   65.9980 C   0  0  0  0  0  0  0  0  0  0  0  0
  130.3400  126.0280   67.1860 C   0  0  0  0  0  0  0  0  0  0  0  0
  129.5210  125.6850   68.2970 O   0  0  0  0  0  0  0  0  0  0  0  0
  128.8290  126.6350   68.9760 C   0  0  0  0  0  0  0  0  0  0  0  0
  128.6960  126.6330   70.2040 O   0  0  0  0  0  0  0  0  0  0  0  0
  128.2270  127.6830   68.0840 C   0  0  0  0  0  0  0  0  0  0  0  0
  128.8210  128.9420   67.9090 C   0  0  0  0  0  0  0  0  0  0  0  0
  128.2390  129.8880   67.0710 C   0  0  0  0  0  0  0  0  0  0  0  0
  127.0590  129.5950   66.3850 C   0  0  0  0  0  0  0  0  0  0  0  0
  126.5550  130.6210   65.5600 N   0  0  0  0  0  0  0  0  0  0  0  0
  126.2870  130.6060   64.2360 C   0  0  0  0  0  0  0  0  0  0  0  0
  126.4670  129.6500   63.4810 O   0  0  0  0  0  0  0  0  0  0  0  0
  125.7250  131.9080   63.6630 C   0  0  0  0  0  0  0  0  0  0  0  0
  127.0090  132.8870   62.8260 S   0  0  0  0  0  0  0  0  0  0  0  0
  127.6020  131.9110   61.4610 C   0  0  0  0  0  0  0  0  0  0  0  0
  128.9520  131.8800   61.3620 N   0  0  0  0  0  0  0  0  0  0  0  0
  129.5370  131.1720   60.3610 C   0  0  0  0  0  0  0  0  0  0  0  0
  131.0350  131.1730   60.3280 C   0  0  0  0  0  0  0  0  0  0  0  0
  131.7240  130.8900   59.1370 C   0  0  0  0  0  0  0  0  0  0  0  0
  133.1160  130.8910   59.0980 C   0  0  0  0  0  0  0  0  0  0  0  0
  133.8390  131.1750   60.2510 C   0  0  0  0  0  0  0  0  0  0  0  0
  133.1810  131.4620   61.4420 C   0  0  0  0  0  0  0  0  0  0  0  0
  131.7890  131.4630   61.4780 C   0  0  0  0  0  0  0  0  0  0  0  0
  128.7640  130.4660   59.4340 C   0  0  0  0  0  0  0  0  0  0  0  0
  127.3630  130.4990   59.5060 C   0  0  0  0  0  0  0  0  0  0  0  0
  126.5470  129.7180   58.4590 C   0  0  0  0  0  0  0  0  0  0  0  0
  127.2730  129.3600   57.3980 F   0  0  0  0  0  0  0  0  0  0  0  0
  126.0530  128.6030   58.9980 F   0  0  0  0  0  0  0  0  0  0  0  0
  125.5360  130.4690   58.0190 F   0  0  0  0  0  0  0  0  0  0  0  0
  126.7570  131.2520   60.5410 C   0  0  0  0  0  0  0  0  0  0  0  0
  125.2990  131.3690   60.6310 C   0  0  0  0  0  0  0  0  0  0  0  0
  124.1470  131.4610   60.7020 N   0  0  0  0  0  0  0  0  0  0  0  0
  126.4520  128.3430   66.5650 C   0  0  0  0  0  0  0  0  0  0  0  0
  127.0340  127.4000   67.4050 C   0  0  0  0  0  0  0  0  0  0  0  0
  1  2  1  0
  2  3  1  0
  3  4  1  0
  4  5  2  0
  4  6  1  0
  6  7  2  0
  7  8  1  0
  8  9  2  0
  9 10  1  0
 10 11  1  0
 11 12  2  0
 11 13  1  0
 13 14  1  0
 14 15  1  0
 15 16  2  0
 16 17  1  0
 17 18  1  0
 18 19  2  0
 19 20  1  0
 20 21  2  0
 21 22  1  0
 22 23  2  0
 17 24  2  0
 24 25  1  0
 25 26  1  0
 26 27  1  0
 26 28  1  0
 26 29  1  0
 25 30  2  0
 30 31  1  0
 31 32  3  0
  9 33  1  0
 33 34  2  0
 34  6  1  0
 30 15  1  0
 23 18  1  0
M  END
>  <Binding energies>  (27) 
[-7.55]

>  <Ligand effiencies>  (27) 
[-0.21571428571428572]

>  <Interactions>  (27) 
["V-A:ASN:362:CB:3175, V-A:TYR:539:CE1:4875, V-A:PRO:540:CA:4883, V-A:TYR:539:CD1:4873, V-B:LEU:475:CD1:9229, V-A:GLU:543:CD:4908, V-A:PRO:540:CB:4885, V-A:ASP:366:CG:3212, V-B:GLU:543:CG:9879, V-B:GLU:543:CD:9880, V-A:TYR:484:CE2:4345, V-A:HIS:456:CE1:4069, V-A:GLU:543:CG:4907, V-B:HIS:456:CE1:9041, V-B:TYR:484:CE2:9317, V-A:GLU:543:CB:4906, V-B:GLU:543:CB:9878, H-B:TYR:484:OH:9319, H-A:ALA:541:N:4891, V-B:ASP:366:CG:8184, V-B:ASP:366:CB:8183, V-A:GLU:543:CA:4904, V-B:TYR:484:CZ:9318, V-A:PRO:540:C:4881, V-A:ASN:362:C:3171, V-A:LEU:363:CA:3184, V-A:TYR:539:CZ:4877"]

$$$$
3ad_Grossjean_2025
     RDKit          3D

 29 31  0  0  0  0  0  0  0  0999 V2000
  124.1860  131.4720   60.8060 N   0  0  0  0  0  0  0  0  0  0  0  0
  125.3350  131.4270   60.6730 C   0  0  0  0  0  0  0  0  0  0  0  0
  126.7900  131.3680   60.5020 C   0  0  0  0  0  0  0  0  0  0  0  0
  127.3710  130.5080   59.5390 C   0  0  0  0  0  0  0  0  0  0  0  0
  126.5310  129.6280   58.5940 C   0  0  0  0  0  0  0  0  0  0  0  0
  125.8660  128.6650   59.2360 F   0  0  0  0  0  0  0  0  0  0  0  0
  125.6330  130.3780   57.9520 F   0  0  0  0  0  0  0  0  0  0  0  0
  127.3200  129.0360   57.6950 F   0  0  0  0  0  0  0  0  0  0  0  0
  128.7700  130.4530   59.4470 C   0  0  0  0  0  0  0  0  0  0  0  0
  129.5660  131.2320   60.2940 C   0  0  0  0  0  0  0  0  0  0  0  0
  131.0650  131.2010   60.2480 C   0  0  0  0  0  0  0  0  0  0  0  0
  131.8230  131.4730   61.3980 C   0  0  0  0  0  0  0  0  0  0  0  0
  133.2140  131.4450   61.3640 C   0  0  0  0  0  0  0  0  0  0  0  0
  133.8690  131.1430   60.1730 C   0  0  0  0  0  0  0  0  0  0  0  0
  133.1410  130.8680   59.0210 C   0  0  0  0  0  0  0  0  0  0  0  0
  131.7490  130.8960   59.0600 C   0  0  0  0  0  0  0  0  0  0  0  0
  129.0040  132.0500   61.2190 N   0  0  0  0  0  0  0  0  0  0  0  0
  127.6560  132.1350   61.3130 C   0  0  0  0  0  0  0  0  0  0  0  0
  127.0970  133.2640   62.5700 S   0  0  0  0  0  0  0  0  0  0  0  0
  126.3710  132.2670   63.9060 C   0  0  0  0  0  0  0  0  0  0  0  0
  127.3510  131.2220   64.4450 C   0  0  0  0  0  0  0  0  0  0  0  0
  128.4250  131.0550   63.8670 O   0  0  0  0  0  0  0  0  0  0  0  0
  126.9370  130.5520   65.5410 N   0  0  0  0  0  0  0  0  0  0  0  0
  127.5900  129.5520   66.2850 C   0  0  0  0  0  0  0  0  0  0  0  0
  128.2130  129.9810   67.4610 C   0  0  0  0  0  0  0  0  0  0  0  0
  128.8900  129.0720   68.2700 C   0  0  0  0  0  0  0  0  0  0  0  0
  128.9510  127.7320   67.9010 C   0  0  0  0  0  0  0  0  0  0  0  0
  128.3410  127.2920   66.7290 C   0  0  0  0  0  0  0  0  0  0  0  0
  127.6620  128.1970   65.9170 C   0  0  0  0  0  0  0  0  0  0  0  0
  1  2  3  0
  2  3  1  0
  3  4  2  0
  4  5  1  0
  5  6  1  0
  5  7  1  0
  5  8  1  0
  4  9  1  0
  9 10  2  0
 10 11  1  0
 11 12  2  0
 12 13  1  0
 13 14  2  0
 14 15  1  0
 15 16  2  0
 10 17  1  0
 17 18  2  0
 18 19  1  0
 19 20  1  0
 20 21  1  0
 21 22  2  0
 21 23  1  0
 23 24  1  0
 24 25  2  0
 25 26  1  0
 26 27  2  0
 27 28  1  0
 28 29  2  0
 18  3  1  0
 29 24  1  0
 16 11  1  0
M  END
>  <Binding energies>  (28) 
[-6.98]

>  <Ligand effiencies>  (28) 
[-0.2326666666666667]

>  <Interactions>  (28) 
["V-A:ASN:362:CB:3175, V-A:ALA:541:CB:4892, V-A:TYR:539:CE1:4875, V-A:PRO:540:CA:4883, V-B:LEU:475:CD1:9229, V-A:GLU:543:CD:4908, V-A:PRO:540:CB:4885, V-A:ASP:366:CG:3212, V-B:GLU:543:CD:9880, V-A:GLU:543:CG:4907, V-B:HIS:456:CE1:9041, V-B:TYR:484:CE2:9317, V-A:GLU:543:CB:4906, H-B:TYR:484:OH:9319, H-A:ALA:541:N:4891, V-B:ASP:366:CG:8184, V-B:ASP:366:CB:8183, V-A:GLU:543:C:4902, V-A:GLU:543:CA:4904, V-B:TYR:484:CZ:9318, V-A:PRO:540:C:4881, V-A:ASN:362:C:3171, V-A:LEU:363:CA:3184, V-A:TYR:539:CZ:4877"]

$$$$
3ai_Grossjean_2025
     RDKit          3D

 28 30  0  0  0  0  0  0  0  0999 V2000
  134.5890  119.8750   60.9570 N   0  0  0  0  0  0  0  0  0  0  0  0
  133.5160  120.3020   60.8850 C   0  0  0  0  0  0  0  0  0  0  0  0
  132.1560  120.8430   60.7970 C   0  0  0  0  0  0  0  0  0  0  0  0
  131.0390  120.0560   61.1690 C   0  0  0  0  0  0  0  0  0  0  0  0
  131.1770  118.6250   61.7240 C   0  0  0  0  0  0  0  0  0  0  0  0
  130.4020  118.4060   62.7890 F   0  0  0  0  0  0  0  0  0  0  0  0
  130.8330  117.7390   60.7880 F   0  0  0  0  0  0  0  0  0  0  0  0
  132.4370  118.3960   62.0950 F   0  0  0  0  0  0  0  0  0  0  0  0
  129.7550  120.6020   61.0200 C   0  0  0  0  0  0  0  0  0  0  0  0
  129.5900  121.8950   60.5120 C   0  0  0  0  0  0  0  0  0  0  0  0
  128.2430  122.5240   60.3220 C   0  0  0  0  0  0  0  0  0  0  0  0
  127.4620  122.8930   61.4290 C   0  0  0  0  0  0  0  0  0  0  0  0
  126.2120  123.4820   61.2600 C   0  0  0  0  0  0  0  0  0  0  0  0
  125.7250  123.7120   59.9780 C   0  0  0  0  0  0  0  0  0  0  0  0
  126.4800  123.3580   58.8640 C   0  0  0  0  0  0  0  0  0  0  0  0
  127.7290  122.7690   59.0370 C   0  0  0  0  0  0  0  0  0  0  0  0
  130.6640  122.6420   60.1490 N   0  0  0  0  0  0  0  0  0  0  0  0
  131.9150  122.1460   60.3060 C   0  0  0  0  0  0  0  0  0  0  0  0
  133.1950  123.2750   59.7980 S   0  0  0  0  0  0  0  0  0  0  0  0
  134.4380  123.3490   61.1320 C   0  0  0  0  0  0  0  0  0  0  0  0
  133.8600  123.4670   62.5500 C   0  0  0  0  0  0  0  0  0  0  0  0
  133.4290  122.4730   63.1400 O   0  0  0  0  0  0  0  0  0  0  0  0
  133.8730  124.7180   63.0620 N   0  0  0  0  0  0  0  0  0  0  0  0
  133.4240  125.1190   64.3140 C   0  0  0  0  0  0  0  0  0  0  0  0
  132.1250  125.5660   64.5510 C   0  0  0  0  0  0  0  0  0  0  0  0
  132.0880  125.8640   65.8940 C   0  0  0  0  0  0  0  0  0  0  0  0
  133.3010  125.6090   66.4380 O   0  0  0  0  0  0  0  0  0  0  0  0
  134.1400  125.1370   65.4270 N   0  0  0  0  0  0  0  0  0  0  0  0
  1  2  3  0
  2  3  1  0
  3  4  2  0
  4  5  1  0
  5  6  1  0
  5  7  1  0
  5  8  1  0
  4  9  1  0
  9 10  2  0
 10 11  1  0
 11 12  2  0
 12 13  1  0
 13 14  2  0
 14 15  1  0
 15 16  2  0
 10 17  1  0
 17 18  2  0
 18 19  1  0
 19 20  1  0
 20 21  1  0
 21 22  2  0
 21 23  1  0
 23 24  1  0
 24 25  1  0
 25 26  2  0
 26 27  1  0
 27 28  1  0
 18  3  1  0
 28 24  2  0
 16 11  1  0
M  END
>  <Binding energies>  (29) 
[-7.6]

>  <Ligand effiencies>  (29) 
[-0.26206896551724135]

>  <Interactions>  (29) 
["V-A:GLY:453:C:4041, H-A:TYR:484:OH:4347, V-A:GLY:454:CA:4048, V-A:ILE:369:CD1:3238, V-A:ARG:545:CZ:4926, H-A:GLY:454:N:4049, H-A:ASP:366:OD2:3214, H-A:ASP:366:OD1:3213, H-A:ARG:545:NE:4924, V-A:ILE:369:CG2:3236, V-B:TYR:539:CD2:9846, V-B:TYR:539:CE2:9848, V-A:LEU:475:CD1:4257, V-A:PRO:482:CB:4325, V-A:PRO:482:CG:4326, V-B:PRO:540:CA:9855, V-B:ALA:541:CB:9864, V-B:PRO:540:N:9856, V-B:GLU:543:CD:9880, V-B:PRO:540:CB:9857, V-B:TYR:539:C:9839, V-B:ALA:541:CA:9862, V-A:GLY:453:CA:4043, V-B:PRO:540:C:9853, V-A:SER:385:CB:3408, V-A:LEU:475:CD2:4258"]

$$$$
3aj_Grossjean_2025
     RDKit          3D

 28 30  0  0  0  0  0  0  0  0999 V2000
  126.4130  126.4230   59.8330 N   0  0  0  0  0  0  0  0  0  0  0  0
  127.1140  125.5100   59.9480 C   0  0  0  0  0  0  0  0  0  0  0  0
  128.0010  124.3520   60.0920 C   0  0  0  0  0  0  0  0  0  0  0  0
  127.8750  123.2330   59.2320 C   0  0  0  0  0  0  0  0  0  0  0  0
  126.8500  123.1770   58.0840 C   0  0  0  0  0  0  0  0  0  0  0  0
  126.9720  122.0790   57.3340 F   0  0  0  0  0  0  0  0  0  0  0  0
  125.6110  123.1930   58.5770 F   0  0  0  0  0  0  0  0  0  0  0  0
  127.0080  124.2290   57.2790 F   0  0  0  0  0  0  0  0  0  0  0  0
  128.7170  122.1290   59.4420 C   0  0  0  0  0  0  0  0  0  0  0  0
  129.6530  122.1410   60.4810 C   0  0  0  0  0  0  0  0  0  0  0  0
  130.5680  120.9860   60.7550 C   0  0  0  0  0  0  0  0  0  0  0  0
  130.0900  119.8270   61.3850 C   0  0  0  0  0  0  0  0  0  0  0  0
  130.9340  118.7490   61.6380 C   0  0  0  0  0  0  0  0  0  0  0  0
  132.2730  118.8170   61.2650 C   0  0  0  0  0  0  0  0  0  0  0  0
  132.7710  119.9550   60.6380 C   0  0  0  0  0  0  0  0  0  0  0  0
  131.9230  121.0290   60.3850 C   0  0  0  0  0  0  0  0  0  0  0  0
  129.7640  123.2120   61.3070 N   0  0  0  0  0  0  0  0  0  0  0  0
  128.9790  124.2990   61.1110 C   0  0  0  0  0  0  0  0  0  0  0  0
  129.2810  125.6120   62.2740 S   0  0  0  0  0  0  0  0  0  0  0  0
  131.0150  126.1460   62.0770 C   0  0  0  0  0  0  0  0  0  0  0  0
  131.9940  125.5670   63.1080 C   0  0  0  0  0  0  0  0  0  0  0  0
  132.7360  124.6260   62.8150 O   0  0  0  0  0  0  0  0  0  0  0  0
  131.9620  126.1690   64.3170 N   0  0  0  0  0  0  0  0  0  0  0  0
  132.7410  125.8530   65.4220 C   0  0  0  0  0  0  0  0  0  0  0  0
  133.9050  125.2400   65.4410 N   0  0  0  0  0  0  0  0  0  0  0  0
  134.3650  125.1070   66.6700 C   0  0  0  0  0  0  0  0  0  0  0  0
  133.5620  125.6210   67.6850 C   0  0  0  0  0  0  0  0  0  0  0  0
  132.1310  126.3100   66.9810 S   0  0  0  0  0  0  0  0  0  0  0  0
  1  2  3  0
  2  3  1  0
  3  4  2  0
  4  5  1  0
  5  6  1  0
  5  7  1  0
  5  8  1  0
  4  9  1  0
  9 10  2  0
 10 11  1  0
 11 12  2  0
 12 13  1  0
 13 14  2  0
 14 15  1  0
 15 16  2  0
 10 17  1  0
 17 18  2  0
 18 19  1  0
 19 20  1  0
 20 21  1  0
 21 22  2  0
 21 23  1  0
 23 24  1  0
 24 25  2  0
 25 26  1  0
 26 27  2  0
 27 28  1  0
 18  3  1  0
 28 24  1  0
 16 11  1  0
M  END
>  <Binding energies>  (30) 
[-7.22]

>  <Ligand effiencies>  (30) 
[-0.2489655172413793]

>  <Interactions>  (30) 
["V-A:GLU:543:CD:4908, V-A:ARG:545:CD:4923, V-A:ARG:545:CG:4922, V-A:GLY:453:C:4041, H-A:TYR:484:OH:4347, V-A:GLY:454:CA:4048, H-A:GLU:543:OE2:4910, V-A:TYR:484:CZ:4346, H-A:ARG:545:NH2:4928, H-A:GLU:543:OE1:4909, V-A:ARG:545:CZ:4926, H-A:GLY:454:N:4049, H-A:ARG:545:NE:4924, V-A:ILE:369:CG2:3236, V-B:TYR:539:CD2:9846, V-B:TYR:539:CE2:9848, V-A:LEU:475:CD1:4257, V-A:PRO:482:CB:4325, V-A:PRO:482:CG:4326, V-B:PRO:540:CD:9859, V-B:PRO:540:CA:9855, V-B:ALA:541:CB:9864, V-B:MET:535:CE:9807, V-B:PRO:540:N:9856, V-B:PRO:540:CB:9857, V-B:TYR:539:C:9839, V-A:HIS:456:CE1:4069, V-B:ALA:541:CA:9862, V-A:GLY:453:CA:4043, V-B:PRO:540:C:9853, V-A:ILE:455:C:4051, V-B:TYR:539:CA:9841"]

$$$$
3ak_Grossjean_2025
     RDKit          3D

 33 34  0  0  0  0  0  0  0  0999 V2000
  134.9530  124.0400   61.7610 C   0  0  0  0  0  0  0  0  0  0  0  0
  134.5180  124.5920   62.9940 O   0  0  0  0  0  0  0  0  0  0  0  0
  133.1590  125.0040   62.9800 C   0  0  0  0  0  0  0  0  0  0  0  0
  132.6210  125.0010   64.4160 C   0  0  0  0  0  0  0  0  0  0  0  0
  133.7160  125.1080   65.3200 O   0  0  0  0  0  0  0  0  0  0  0  0
  133.3810  125.5150   66.6450 C   0  0  0  0  0  0  0  0  0  0  0  0
  132.3000  126.6100   66.7030 C   0  0  0  0  0  0  0  0  0  0  0  0
  131.0240  126.0170   66.5110 O   0  0  0  0  0  0  0  0  0  0  0  0
  130.3790  125.6310   67.7170 C   0  0  0  0  0  0  0  0  0  0  0  0
  128.9660  126.2380   67.7830 C   0  0  0  0  0  0  0  0  0  0  0  0
  128.7570  127.3380   66.8390 N   0  0  0  0  0  0  0  0  0  0  0  0
  127.6040  128.0080   66.6500 C   0  0  0  0  0  0  0  0  0  0  0  0
  126.5790  127.7640   67.2870 O   0  0  0  0  0  0  0  0  0  0  0  0
  127.5620  129.1260   65.5940 C   0  0  0  0  0  0  0  0  0  0  0  0
  127.5650  128.5960   63.8420 S   0  0  0  0  0  0  0  0  0  0  0  0
  127.8930  130.0190   62.8130 C   0  0  0  0  0  0  0  0  0  0  0  0
  129.1390  130.0850   62.2830 N   0  0  0  0  0  0  0  0  0  0  0  0
  129.4860  131.1320   61.4930 C   0  0  0  0  0  0  0  0  0  0  0  0
  130.8830  131.1230   60.9480 C   0  0  0  0  0  0  0  0  0  0  0  0
  131.1350  130.7260   59.6260 C   0  0  0  0  0  0  0  0  0  0  0  0
  132.4300  130.7190   59.1130 C   0  0  0  0  0  0  0  0  0  0  0  0
  133.4930  131.1130   59.9190 C   0  0  0  0  0  0  0  0  0  0  0  0
  133.2710  131.5140   61.2310 C   0  0  0  0  0  0  0  0  0  0  0  0
  131.9750  131.5200   61.7410 C   0  0  0  0  0  0  0  0  0  0  0  0
  128.5660  132.1450   61.2010 C   0  0  0  0  0  0  0  0  0  0  0  0
  127.2700  132.1020   61.7350 C   0  0  0  0  0  0  0  0  0  0  0  0
  126.2860  133.2370   61.3920 C   0  0  0  0  0  0  0  0  0  0  0  0
  125.7260  133.7070   62.5070 F   0  0  0  0  0  0  0  0  0  0  0  0
  126.9310  134.2320   60.7810 F   0  0  0  0  0  0  0  0  0  0  0  0
  125.3010  132.8420   60.5830 F   0  0  0  0  0  0  0  0  0  0  0  0
  126.9180  131.0110   62.5670 C   0  0  0  0  0  0  0  0  0  0  0  0
  125.5780  130.9130   63.1530 C   0  0  0  0  0  0  0  0  0  0  0  0
  124.5200  130.8360   63.6180 N   0  0  0  0  0  0  0  0  0  0  0  0
  1  2  1  0
  2  3  1  0
  3  4  1  0
  4  5  1  0
  5  6  1  0
  6  7  1  0
  7  8  1  0
  8  9  1  0
  9 10  1  0
 10 11  1  0
 11 12  1  0
 12 13  2  0
 12 14  1  0
 14 15  1  0
 15 16  1  0
 16 17  2  0
 17 18  1  0
 18 19  1  0
 19 20  2  0
 20 21  1  0
 21 22  2  0
 22 23  1  0
 23 24  2  0
 18 25  2  0
 25 26  1  0
 26 27  1  0
 27 28  1  0
 27 29  1  0
 27 30  1  0
 26 31  2  0
 31 32  1  0
 32 33  3  0
 31 16  1  0
 24 19  1  0
M  END
>  <Binding energies>  (31) 
[-6.99]

>  <Ligand effiencies>  (31) 
[-0.20558823529411765]

>  <Interactions>  (31) 
["V-A:ASN:362:CB:3175, V-A:ALA:541:CB:4892, V-A:TYR:539:CE1:4875, V-A:PRO:540:CA:4883, V-A:TYR:539:CD1:4873, V-B:LEU:475:CD1:9229, V-A:GLU:543:CD:4908, V-A:PRO:540:CB:4885, V-A:ASP:366:CG:3212, V-A:ARG:545:CD:4923, V-A:ARG:545:CG:4922, V-A:GLY:453:C:4041, H-A:TYR:484:OH:4347, V-A:TYR:484:CZ:4346, H-A:ARG:545:NH2:4928, V-A:ILE:369:CD1:3238, H-A:GLU:543:OE1:4909, H-A:ARG:545:NH1:4927, V-A:ARG:545:CZ:4926, H-A:GLY:454:N:4049, H-A:ARG:545:NE:4924, V-A:TYR:484:CE2:4345, V-A:HIS:456:CE1:4069, V-A:GLU:543:CG:4907, V-B:HIS:456:CE1:9041, V-A:GLY:453:CA:4043, V-B:GLU:543:CB:9878, H-B:GLY:454:N:9021, V-B:ILE:369:CG2:8208, V-A:ALA:541:CA:4890, V-A:PRO:540:C:4881, V-A:ASN:362:C:3171, V-A:LEU:363:CA:3184"]

$$$$
3bk_Grossjean_2025
     RDKit          3D

 30 31  0  0  0  0  0  0  0  0999 V2000
  124.8860  129.6190   65.1410 C   0  0  0  0  0  0  0  0  0  0  0  0
  123.8230  129.9410   64.2570 O   0  0  0  0  0  0  0  0  0  0  0  0
  124.2390  130.1050   62.9080 C   0  0  0  0  0  0  0  0  0  0  0  0
  124.1350  131.5840   62.5120 C   0  0  0  0  0  0  0  0  0  0  0  0
  124.2500  131.7030   61.1010 O   0  0  0  0  0  0  0  0  0  0  0  0
  123.8660  130.5320   60.3920 C   0  0  0  0  0  0  0  0  0  0  0  0
  124.9780  130.1490   59.4070 C   0  0  0  0  0  0  0  0  0  0  0  0
  125.2840  128.7690   59.5540 O   0  0  0  0  0  0  0  0  0  0  0  0
  125.8200  128.1700   58.3810 C   0  0  0  0  0  0  0  0  0  0  0  0
  126.7530  127.0170   58.7770 C   0  0  0  0  0  0  0  0  0  0  0  0
  126.0180  125.8410   59.2460 N   0  0  0  0  0  0  0  0  0  0  0  0
  126.0040  124.6380   58.6460 C   0  0  0  0  0  0  0  0  0  0  0  0
  126.6380  124.3780   57.6220 O   0  0  0  0  0  0  0  0  0  0  0  0
  125.1650  123.5500   59.3180 C   0  0  0  0  0  0  0  0  0  0  0  0
  125.5710  123.3690   61.0840 S   0  0  0  0  0  0  0  0  0  0  0  0
  127.3270  123.6030   61.3030 C   0  0  0  0  0  0  0  0  0  0  0  0
  128.0990  122.5010   61.1290 N   0  0  0  0  0  0  0  0  0  0  0  0
  129.4480  122.5840   61.2780 C   0  0  0  0  0  0  0  0  0  0  0  0
  130.2270  121.3240   61.0470 C   0  0  0  0  0  0  0  0  0  0  0  0
  129.7090  120.0780   61.4350 C   0  0  0  0  0  0  0  0  0  0  0  0
  130.4310  118.9060   61.2270 C   0  0  0  0  0  0  0  0  0  0  0  0
  131.6840  118.9630   60.6270 C   0  0  0  0  0  0  0  0  0  0  0  0
  132.2180  120.1850   60.2290 C   0  0  0  0  0  0  0  0  0  0  0  0
  131.4930  121.3550   60.4370 C   0  0  0  0  0  0  0  0  0  0  0  0
  130.0590  123.7990   61.6060 C   0  0  0  0  0  0  0  0  0  0  0  0
  129.2790  124.9460   61.7910 C   0  0  0  0  0  0  0  0  0  0  0  0
  129.9870  126.2510   62.1490 C   0  0  0  0  0  0  0  0  0  0  0  0
  127.8790  124.8590   61.6390 C   0  0  0  0  0  0  0  0  0  0  0  0
  127.0360  126.0430   61.8240 C   0  0  0  0  0  0  0  0  0  0  0  0
  126.3710  126.9790   61.9700 N   0  0  0  0  0  0  0  0  0  0  0  0
  1  2  1  0
  2  3  1  0
  3  4  1  0
  4  5  1  0
  5  6  1  0
  6  7  1  0
  7  8  1  0
  8  9  1  0
  9 10  1  0
 10 11  1  0
 11 12  1  0
 12 13  2  0
 12 14  1  0
 14 15  1  0
 15 16  1  0
 16 17  2  0
 17 18  1  0
 18 19  1  0
 19 20  2  0
 20 21  1  0
 21 22  2  0
 22 23  1  0
 23 24  2  0
 18 25  2  0
 25 26  1  0
 26 27  1  0
 26 28  2  0
 28 29  1  0
 29 30  3  0
 28 16  1  0
 24 19  1  0
M  END
>  <Binding energies>  (32) 
[-6.33]

>  <Ligand effiencies>  (32) 
[-0.20419354838709677]

>  <Interactions>  (32) 
["V-A:TYR:539:CE1:4875, V-A:ILE:369:CG2:3236, V-B:TYR:539:CD2:9846, V-B:TYR:539:CE2:9848, H-B:ALA:541:N:9863, V-A:PRO:482:CG:4326, V-B:PRO:540:CA:9855, H-B:ASP:366:OD1:8185, V-B:ALA:541:CB:9864, V-B:GLU:543:CD:9880, V-B:PRO:540:CB:9857, V-B:TYR:539:C:9839, V-B:ALA:541:CA:9862, H-B:ARG:545:NH2:9900, H-B:GLY:454:N:9021, V-B:GLY:454:CA:9020, V-B:ILE:369:CG2:8208, V-B:ILE:369:CD1:8210, H-B:ARG:545:NH1:9899, V-B:ASP:366:CG:8184, V-B:ILE:369:CB:8207, V-B:ASP:366:CB:8183, V-B:ARG:545:CZ:9898, V-B:PRO:540:C:9853, H-B:TYR:531:OH:9767, V-B:TYR:531:CZ:9766, V-B:ASP:366:CA:8181"]

$$$$
3cb_Grossjean_2025
     RDKit          3D

 30 32  0  0  0  0  0  0  0  0999 V2000
  127.5370  125.5620   73.0520 C   0  0  0  0  0  0  0  0  0  0  0  0
  128.8840  125.7110   72.6290 O   0  0  0  0  0  0  0  0  0  0  0  0
  129.3650  126.9190   72.2390 C   0  0  0  0  0  0  0  0  0  0  0  0
  129.9520  127.6950   72.9990 O   0  0  0  0  0  0  0  0  0  0  0  0
  129.1110  127.2190   70.7890 C   0  0  0  0  0  0  0  0  0  0  0  0
  129.3450  128.4890   70.2400 C   0  0  0  0  0  0  0  0  0  0  0  0
  129.1010  128.7330   68.8920 C   0  0  0  0  0  0  0  0  0  0  0  0
  128.6150  127.7200   68.0650 C   0  0  0  0  0  0  0  0  0  0  0  0
  128.4070  128.0770   66.7170 N   0  0  0  0  0  0  0  0  0  0  0  0
  127.2850  128.4980   66.0940 C   0  0  0  0  0  0  0  0  0  0  0  0
  126.1950  128.6680   66.6430 O   0  0  0  0  0  0  0  0  0  0  0  0
  127.4600  128.7850   64.5950 C   0  0  0  0  0  0  0  0  0  0  0  0
  126.1140  129.7590   63.8370 S   0  0  0  0  0  0  0  0  0  0  0  0
  126.8590  131.0070   62.8080 C   0  0  0  0  0  0  0  0  0  0  0  0
  128.1500  130.7450   62.4910 N   0  0  0  0  0  0  0  0  0  0  0  0
  128.8180  131.6260   61.7130 C   0  0  0  0  0  0  0  0  0  0  0  0
  130.2550  131.2620   61.3880 C   0  0  0  0  0  0  0  0  0  0  0  0
  128.2340  132.7920   61.2280 C   0  0  0  0  0  0  0  0  0  0  0  0
  126.9050  133.0920   61.5560 C   0  0  0  0  0  0  0  0  0  0  0  0
  126.3240  134.3600   61.0170 C   0  0  0  0  0  0  0  0  0  0  0  0
  127.0420  135.5590   61.1110 C   0  0  0  0  0  0  0  0  0  0  0  0
  126.5150  136.7430   60.6020 C   0  0  0  0  0  0  0  0  0  0  0  0
  125.2640  136.7320   59.9910 C   0  0  0  0  0  0  0  0  0  0  0  0
  124.5400  135.5480   59.8820 C   0  0  0  0  0  0  0  0  0  0  0  0
  125.0710  134.3650   60.3900 C   0  0  0  0  0  0  0  0  0  0  0  0
  126.1940  132.1840   62.3840 C   0  0  0  0  0  0  0  0  0  0  0  0
  124.8330  132.4920   62.8350 C   0  0  0  0  0  0  0  0  0  0  0  0
  123.7590  132.7350   63.1900 N   0  0  0  0  0  0  0  0  0  0  0  0
  128.3820  126.4460   68.6050 C   0  0  0  0  0  0  0  0  0  0  0  0
  128.6270  126.2030   69.9540 C   0  0  0  0  0  0  0  0  0  0  0  0
  1  2  1  0
  2  3  1  0
  3  4  2  0
  3  5  1  0
  5  6  2  0
  6  7  1  0
  7  8  2  0
  8  9  1  0
  9 10  1  0
 10 11  2  0
 10 12  1  0
 12 13  1  0
 13 14  1  0
 14 15  2  0
 15 16  1  0
 16 17  1  0
 16 18  2  0
 18 19  1  0
 19 20  1  0
 20 21  2  0
 21 22  1  0
 22 23  2  0
 23 24  1  0
 24 25  2  0
 19 26  2  0
 26 27  1  0
 27 28  3  0
  8 29  1  0
 29 30  2  0
 30  5  1  0
 26 14  1  0
 25 20  1  0
M  END
>  <Binding energies>  (33) 
[-8.14]

>  <Ligand effiencies>  (33) 
[-0.2625806451612903]

>  <Interactions>  (33) 
["V-A:ALA:541:CB:4892, V-A:TYR:539:CE1:4875, V-A:PRO:540:CA:4883, V-A:TYR:539:CD1:4873, V-B:LEU:475:CD1:9229, V-A:GLU:543:CD:4908, H-A:GLU:543:OE1:4909, V-A:HIS:456:CE1:4069, V-B:HIS:456:CE1:9041, V-A:GLU:543:CB:4906, V-B:GLU:543:C:9874, V-B:GLU:543:CB:9878, H-B:TYR:484:OH:9319, H-B:GLY:454:N:9021, V-B:PRO:482:CB:9297, V-A:TYR:539:CB:4871, V-B:GLY:454:CA:9020, V-B:ILE:369:CG2:8208, V-B:PRO:482:CG:9298, V-B:LEU:373:CD1:8251, V-B:SER:385:CB:8380, V-A:GLU:543:C:4902, V-B:HIS:456:CD2:9039, V-B:GLY:544:CA:9886, V-B:LYS:547:CE:9922, V-B:GLY:544:C:9884"]

$$$$
3ch_Grossjean_2025
     RDKit          3D

 32 34  0  0  0  0  0  0  0  0999 V2000
  130.5950  121.9570   63.0580 C   0  0  0  0  0  0  0  0  0  0  0  0
  131.0820  123.2590   62.7490 O   0  0  0  0  0  0  0  0  0  0  0  0
  131.2640  124.1790   63.7670 C   0  0  0  0  0  0  0  0  0  0  0  0
  130.2180  124.8810   64.3870 C   0  0  0  0  0  0  0  0  0  0  0  0
  130.4770  125.7930   65.4200 C   0  0  0  0  0  0  0  0  0  0  0  0
  129.4960  126.5370   66.1040 N   0  0  0  0  0  0  0  0  0  0  0  0
  128.8710  126.2730   67.2720 C   0  0  0  0  0  0  0  0  0  0  0  0
  129.0730  125.2880   67.9830 O   0  0  0  0  0  0  0  0  0  0  0  0
  127.8680  127.3280   67.7360 C   0  0  0  0  0  0  0  0  0  0  0  0
  128.0950  128.9150   66.8800 S   0  0  0  0  0  0  0  0  0  0  0  0
  126.5870  129.2120   65.9820 C   0  0  0  0  0  0  0  0  0  0  0  0
  125.4690  129.1460   66.7480 N   0  0  0  0  0  0  0  0  0  0  0  0
  124.2700  129.3500   66.1580 C   0  0  0  0  0  0  0  0  0  0  0  0
  123.0620  129.2560   67.0710 C   0  0  0  0  0  0  0  0  0  0  0  0
  124.1370  129.6220   64.7990 C   0  0  0  0  0  0  0  0  0  0  0  0
  125.2810  129.7020   63.9920 C   0  0  0  0  0  0  0  0  0  0  0  0
  125.0900  129.9870   62.5380 C   0  0  0  0  0  0  0  0  0  0  0  0
  124.3220  131.0840   62.1310 C   0  0  0  0  0  0  0  0  0  0  0  0
  124.1320  131.3510   60.7770 C   0  0  0  0  0  0  0  0  0  0  0  0
  124.7100  130.5170   59.8230 C   0  0  0  0  0  0  0  0  0  0  0  0
  125.4710  129.4180   60.2110 C   0  0  0  0  0  0  0  0  0  0  0  0
  125.6570  129.1540   61.5660 C   0  0  0  0  0  0  0  0  0  0  0  0
  126.5490  129.5100   64.6000 C   0  0  0  0  0  0  0  0  0  0  0  0
  127.7820  129.6750   63.8250 C   0  0  0  0  0  0  0  0  0  0  0  0
  128.7560  129.8040   63.2140 N   0  0  0  0  0  0  0  0  0  0  0  0
  131.7970  126.0130   65.8170 C   0  0  0  0  0  0  0  0  0  0  0  0
  132.8600  125.3250   65.2110 C   0  0  0  0  0  0  0  0  0  0  0  0
  134.1890  125.4920   65.5630 O   0  0  0  0  0  0  0  0  0  0  0  0
  134.6100  125.1660   66.8830 C   0  0  0  0  0  0  0  0  0  0  0  0
  132.5800  124.4130   64.1860 C   0  0  0  0  0  0  0  0  0  0  0  0
  133.6110  123.7200   63.5960 O   0  0  0  0  0  0  0  0  0  0  0  0
  134.1470  124.3500   62.4410 C   0  0  0  0  0  0  0  0  0  0  0  0
  1  2  1  0
  2  3  1  0
  3  4  2  0
  4  5  1  0
  5  6  1  0
  6  7  1  0
  7  8  2  0
  7  9  1  0
  9 10  1  0
 10 11  1  0
 11 12  2  0
 12 13  1  0
 13 14  1  0
 13 15  2  0
 15 16  1  0
 16 17  1  0
 17 18  2  0
 18 19  1  0
 19 20  2  0
 20 21  1  0
 21 22  2  0
 16 23  2  0
 23 24  1  0
 24 25  3  0
  5 26  2  0
 26 27  1  0
 27 28  1  0
 28 29  1  0
 27 30  2  0
 30 31  1  0
 31 32  1  0
 30  3  1  0
 23 11  1  0
 22 17  1  0
M  END
>  <Binding energies>  (34) 
[-7.76]

>  <Ligand effiencies>  (34) 
[-0.23515151515151514]

>  <Interactions>  (34) 
["V-A:GLU:543:CD:4908, V-A:ASP:366:CG:3212, V-A:ARG:545:CD:4923, V-A:ARG:545:CG:4922, V-A:GLY:453:C:4041, H-A:TYR:484:OH:4347, V-A:GLY:454:CA:4048, H-A:ARG:545:NH2:4928, H-A:GLU:543:OE1:4909, H-A:ARG:545:NH1:4927, V-A:ARG:545:CZ:4926, H-A:GLY:454:N:4049, H-A:ARG:545:NE:4924, V-A:LEU:475:CD1:4257, V-B:GLU:543:CG:9879, V-B:ALA:541:CB:9864, V-B:GLU:543:CD:9880, V-B:HIS:456:CE1:9041, V-A:GLY:453:CA:4043, V-B:GLU:543:CB:9878, H-B:TYR:484:OH:9319, V-B:GLY:454:CA:9020, V-B:ILE:369:CG2:8208, V-B:ILE:369:CD1:8210, V-B:ASP:366:CG:8184, V-B:ILE:369:CB:8207, V-B:ASP:366:CB:8183, H-B:GLU:543:OE2:9882, V-B:ARG:545:CG:9894, H-B:ARG:545:NE:9896, V-B:ARG:545:CD:9895, V-B:GLY:453:C:9013, V-B:GLY:453:CA:9015, V-B:ARG:545:CZ:9898, V-B:ASP:366:CA:8181, V-A:GLY:454:C:4046, V-A:ILE:455:C:4051, V-B:ILE:455:C:9023"]

$$$$
3ci_Grossjean_2025
     RDKit          3D

 25 27  0  0  0  0  0  0  0  0999 V2000
  134.5850  124.3260   62.1290 C   0  0  0  0  0  0  0  0  0  0  0  0
  133.1980  123.7640   61.8850 C   0  0  0  0  0  0  0  0  0  0  0  0
  132.9960  122.4200   61.5870 C   0  0  0  0  0  0  0  0  0  0  0  0
  131.6930  121.9430   61.3850 C   0  0  0  0  0  0  0  0  0  0  0  0
  131.5220  120.4910   61.0820 C   0  0  0  0  0  0  0  0  0  0  0  0
  130.5100  119.7440   61.6990 C   0  0  0  0  0  0  0  0  0  0  0  0
  130.3610  118.3880   61.4200 C   0  0  0  0  0  0  0  0  0  0  0  0
  131.2300  117.7700   60.5270 C   0  0  0  0  0  0  0  0  0  0  0  0
  132.2480  118.4950   59.9120 C   0  0  0  0  0  0  0  0  0  0  0  0
  132.3930  119.8500   60.1930 C   0  0  0  0  0  0  0  0  0  0  0  0
  130.6170  122.8630   61.4810 C   0  0  0  0  0  0  0  0  0  0  0  0
  129.2360  122.4310   61.2380 C   0  0  0  0  0  0  0  0  0  0  0  0
  128.1460  122.0890   61.0460 N   0  0  0  0  0  0  0  0  0  0  0  0
  130.9110  124.2120   61.7930 C   0  0  0  0  0  0  0  0  0  0  0  0
  129.6310  125.4500   61.9610 S   0  0  0  0  0  0  0  0  0  0  0  0
  129.5310  125.9890   63.6990 C   0  0  0  0  0  0  0  0  0  0  0  0
  130.5730  125.3230   64.6040 C   0  0  0  0  0  0  0  0  0  0  0  0
  130.3860  124.1670   64.9890 O   0  0  0  0  0  0  0  0  0  0  0  0
  131.6410  126.0850   64.9290 N   0  0  0  0  0  0  0  0  0  0  0  0
  132.7330  125.7170   65.7030 C   0  0  0  0  0  0  0  0  0  0  0  0
  132.8030  125.9490   67.0770 C   0  0  0  0  0  0  0  0  0  0  0  0
  134.0260  125.4470   67.4620 C   0  0  0  0  0  0  0  0  0  0  0  0
  134.6570  124.9390   66.3760 O   0  0  0  0  0  0  0  0  0  0  0  0
  133.8280  125.1170   65.2680 N   0  0  0  0  0  0  0  0  0  0  0  0
  132.1820  124.6490   61.9830 N   0  0  0  0  0  0  0  0  0  0  0  0
  1  2  1  0
  2  3  2  0
  3  4  1  0
  4  5  1  0
  5  6  2  0
  6  7  1  0
  7  8  2  0
  8  9  1  0
  9 10  2  0
  4 11  2  0
 11 12  1  0
 12 13  3  0
 11 14  1  0
 14 15  1  0
 15 16  1  0
 16 17  1  0
 17 18  2  0
 17 19  1  0
 19 20  1  0
 20 21  1  0
 21 22  2  0
 22 23  1  0
 23 24  1  0
 14 25  2  0
 25  2  1  0
 10  5  1  0
 24 20  2  0
M  END
>  <Binding energies>  (35) 
[-8.28]

>  <Ligand effiencies>  (35) 
[-0.31846153846153846]

>  <Interactions>  (35) 
["V-A:GLU:543:CD:4908, V-A:ASP:366:CG:3212, V-A:ARG:545:CD:4923, V-A:ARG:545:CG:4922, V-A:GLY:453:C:4041, H-A:TYR:484:OH:4347, H-A:GLU:543:OE2:4910, V-A:TYR:484:CZ:4346, H-A:ARG:545:NH2:4928, V-A:ILE:369:CD1:3238, H-A:GLU:543:OE1:4909, V-A:ARG:545:CZ:4926, H-A:GLY:454:N:4049, H-A:ARG:545:NE:4924, V-A:ILE:369:CG2:3236, V-B:TYR:539:CD2:9846, V-B:TYR:539:CE2:9848, V-A:LEU:475:CD1:4257, V-A:HIS:383:CE1:3392, H-B:ALA:541:N:9863, V-A:PRO:482:CB:4325, V-A:PRO:482:CG:4326, V-B:ALA:541:CB:9864, V-B:GLU:543:CD:9880, V-A:HIS:383:CD2:3391, V-A:HIS:456:CE1:4069, V-A:GLY:453:CA:4043, H-A:ILE:455:N:4054, V-A:ILE:455:C:4051"]

$$$$
3ck_Grossjean_2025
     RDKit          3D

 30 31  0  0  0  0  0  0  0  0999 V2000
  133.5090  124.7460   62.9620 C   0  0  0  0  0  0  0  0  0  0  0  0
  133.8610  124.7420   64.3370 O   0  0  0  0  0  0  0  0  0  0  0  0
  133.0000  125.5340   65.1440 C   0  0  0  0  0  0  0  0  0  0  0  0
  133.4860  125.5020   66.5980 C   0  0  0  0  0  0  0  0  0  0  0  0
  132.9570  126.6230   67.2960 O   0  0  0  0  0  0  0  0  0  0  0  0
  131.5490  126.7710   67.1650 C   0  0  0  0  0  0  0  0  0  0  0  0
  130.8780  125.4120   67.4020 C   0  0  0  0  0  0  0  0  0  0  0  0
  129.5160  125.5130   67.0150 O   0  0  0  0  0  0  0  0  0  0  0  0
  128.6240  125.8650   68.0610 C   0  0  0  0  0  0  0  0  0  0  0  0
  128.4780  127.3980   68.1190 C   0  0  0  0  0  0  0  0  0  0  0  0
  127.6550  127.9540   67.0400 N   0  0  0  0  0  0  0  0  0  0  0  0
  127.5670  129.2560   66.7130 C   0  0  0  0  0  0  0  0  0  0  0  0
  128.2050  130.1410   67.2850 O   0  0  0  0  0  0  0  0  0  0  0  0
  126.6080  129.5830   65.5570 C   0  0  0  0  0  0  0  0  0  0  0  0
  127.0910  128.9170   63.9270 S   0  0  0  0  0  0  0  0  0  0  0  0
  127.7150  130.2490   62.9120 C   0  0  0  0  0  0  0  0  0  0  0  0
  128.9940  130.1080   62.4830 N   0  0  0  0  0  0  0  0  0  0  0  0
  129.5330  131.0810   61.7140 C   0  0  0  0  0  0  0  0  0  0  0  0
  130.9670  130.8560   61.2750 C   0  0  0  0  0  0  0  0  0  0  0  0
  128.8260  132.2230   61.3440 C   0  0  0  0  0  0  0  0  0  0  0  0
  127.5060  132.3920   61.7810 C   0  0  0  0  0  0  0  0  0  0  0  0
  126.7950  133.6420   61.3790 C   0  0  0  0  0  0  0  0  0  0  0  0
  125.5970  133.5700   60.6580 C   0  0  0  0  0  0  0  0  0  0  0  0
  124.9340  134.7330   60.2720 C   0  0  0  0  0  0  0  0  0  0  0  0
  125.4710  135.9740   60.6010 C   0  0  0  0  0  0  0  0  0  0  0  0
  126.6660  136.0630   61.3110 C   0  0  0  0  0  0  0  0  0  0  0  0
  127.3260  134.8990   61.6960 C   0  0  0  0  0  0  0  0  0  0  0  0
  126.9240  131.3720   62.5780 C   0  0  0  0  0  0  0  0  0  0  0  0
  125.5320  131.4760   63.0290 C   0  0  0  0  0  0  0  0  0  0  0  0
  124.4330  131.5580   63.3840 N   0  0  0  0  0  0  0  0  0  0  0  0
  1  2  1  0
  2  3  1  0
  3  4  1  0
  4  5  1  0
  5  6  1  0
  6  7  1  0
  7  8  1  0
  8  9  1  0
  9 10  1  0
 10 11  1  0
 11 12  1  0
 12 13  2  0
 12 14  1  0
 14 15  1  0
 15 16  1  0
 16 17  2  0
 17 18  1  0
 18 19  1  0
 18 20  2  0
 20 21  1  0
 21 22  1  0
 22 23  2  0
 23 24  1  0
 24 25  2  0
 25 26  1  0
 26 27  2  0
 21 28  2  0
 28 29  1  0
 29 30  3  0
 28 16  1  0
 27 22  1  0
M  END
>  <Binding energies>  (36) 
[-7.0]

>  <Ligand effiencies>  (36) 
[-0.22580645161290322]

>  <Interactions>  (36) 
["V-A:ALA:541:CB:4892, V-A:TYR:539:CE1:4875, V-A:TYR:539:CD1:4873, V-B:LEU:475:CD1:9229, V-A:GLU:543:CD:4908, V-A:ARG:545:CD:4923, V-A:ARG:545:CG:4922, H-A:TYR:484:OH:4347, V-A:TYR:484:CZ:4346, H-A:ARG:545:NH2:4928, V-A:ARG:545:CZ:4926, H-A:GLY:454:N:4049, H-A:ARG:545:NE:4924, V-B:GLU:543:CG:9879, V-A:TYR:484:CE2:4345, V-A:HIS:456:CE1:4069, V-A:GLU:543:CG:4907, V-B:GLU:543:CA:9876, V-B:HIS:456:CE1:9041, V-B:TYR:484:CE2:9317, V-A:GLU:543:CB:4906, V-B:GLU:543:CB:9878, H-B:TYR:484:OH:9319, H-B:GLY:454:N:9021, V-B:PRO:482:CB:9297, V-B:ILE:369:CG2:8208, V-B:PRO:482:CG:9298, V-A:ALA:541:CA:4890, H-B:GLU:543:OE2:9882, V-B:SER:385:CB:8380"]

$$$$
4aa_Grossjean_2025
     RDKit          3D

 26 28  0  0  0  0  0  0  0  0999 V2000
  127.3970  129.0600   66.9490 C   0  0  0  0  0  0  0  0  0  0  0  0
  128.6050  129.5960   67.7240 C   0  0  0  0  0  0  0  0  0  0  0  0
  128.6350  129.0080   69.0180 O   0  0  0  0  0  0  0  0  0  0  0  0
  129.6080  128.1260   69.3650 C   0  0  0  0  0  0  0  0  0  0  0  0
  130.1590  128.1200   70.4710 O   0  0  0  0  0  0  0  0  0  0  0  0
  129.9510  127.1600   68.2690 C   0  0  0  0  0  0  0  0  0  0  0  0
  129.0220  126.1740   67.9090 C   0  0  0  0  0  0  0  0  0  0  0  0
  129.3130  125.2610   66.9000 C   0  0  0  0  0  0  0  0  0  0  0  0
  130.5330  125.3180   66.2240 C   0  0  0  0  0  0  0  0  0  0  0  0
  130.7260  124.3420   65.2270 N   0  0  0  0  0  0  0  0  0  0  0  0
  130.2100  124.2550   63.9780 C   0  0  0  0  0  0  0  0  0  0  0  0
  129.4010  125.0540   63.5060 O   0  0  0  0  0  0  0  0  0  0  0  0
  130.6610  123.1030   63.1940 C   0  0  0  0  0  0  0  0  0  0  0  0
  129.4860  122.0480   62.4040 S   0  0  0  0  0  0  0  0  0  0  0  0
  130.7560  121.0130   61.7940 C   0  0  0  0  0  0  0  0  0  0  0  0
  130.4930  119.9360   61.0510 N   0  0  0  0  0  0  0  0  0  0  0  0
  131.5680  119.2170   60.6460 C   0  0  0  0  0  0  0  0  0  0  0  0
  131.2470  117.9930   59.8060 C   0  0  0  0  0  0  0  0  0  0  0  0
  132.8850  119.5460   60.9600 C   0  0  0  0  0  0  0  0  0  0  0  0
  133.1570  120.6760   61.7380 C   0  0  0  0  0  0  0  0  0  0  0  0
  134.6110  120.9950   62.0540 C   0  0  0  0  0  0  0  0  0  0  0  0
  132.0560  121.4550   62.1860 C   0  0  0  0  0  0  0  0  0  0  0  0
  131.9720  122.6470   62.9870 C   0  0  0  0  0  0  0  0  0  0  0  0
  133.0870  123.2680   63.4920 N   0  0  0  0  0  0  0  0  0  0  0  0
  131.4710  126.2980   66.5800 C   0  0  0  0  0  0  0  0  0  0  0  0
  131.1800  127.2090   67.5920 C   0  0  0  0  0  0  0  0  0  0  0  0
  1  2  1  0
  2  3  1  0
  3  4  1  0
  4  5  2  0
  4  6  1  0
  6  7  2  0
  7  8  1  0
  8  9  2  0
  9 10  1  0
 10 11  1  0
 11 12  2  0
 11 13  1  0
 13 14  1  0
 14 15  1  0
 15 16  2  0
 16 17  1  0
 17 18  1  0
 17 19  2  0
 19 20  1  0
 20 21  1  0
 20 22  2  0
 22 23  1  0
 23 24  1  0
  9 25  1  0
 25 26  2  0
 26  6  1  0
 23 13  2  0
 22 15  1  0
M  END
>  <Binding energies>  (37) 
[-6.34]

>  <Ligand effiencies>  (37) 
[-0.2186206896551724]

>  <Interactions>  (37) 
["V-A:GLU:543:CD:4908, H-A:TYR:484:OH:4347, V-A:GLY:454:CA:4048, V-A:TYR:484:CZ:4346, V-A:ILE:369:CD1:3238, V-A:ILE:369:CG2:3236, V-B:TYR:539:CD2:9846, V-A:LEU:475:CD1:4257, V-B:TYR:539:CG:9844, V-B:GLU:543:CG:9879, V-B:ALA:541:CB:9864, V-B:GLU:543:CD:9880, V-A:SER:385:C:3404, V-A:TYR:484:CE2:4345, V-A:HIS:456:CE1:4069, V-A:GLU:543:CG:4907, V-B:HIS:456:CE1:9041, V-B:TYR:484:CE2:9317, V-A:GLU:543:CB:4906, V-B:GLU:543:CB:9878, V-A:GLU:543:C:4902, V-A:GLU:543:CA:4904, V-B:TYR:539:CB:9843"]

$$$$
4ab_Grossjean_2025
     RDKit          3D

 25 27  0  0  0  0  0  0  0  0999 V2000
  131.0440  117.6280   59.9820 C   0  0  0  0  0  0  0  0  0  0  0  0
  132.3670  118.0000   60.3400 O   0  0  0  0  0  0  0  0  0  0  0  0
  132.5980  119.0610   61.1550 C   0  0  0  0  0  0  0  0  0  0  0  0
  133.5380  119.1130   61.9550 O   0  0  0  0  0  0  0  0  0  0  0  0
  131.5920  120.1640   60.9930 C   0  0  0  0  0  0  0  0  0  0  0  0
  131.9280  121.2890   60.2280 C   0  0  0  0  0  0  0  0  0  0  0  0
  131.0170  122.3290   60.0610 C   0  0  0  0  0  0  0  0  0  0  0  0
  129.7520  122.2620   60.6440 C   0  0  0  0  0  0  0  0  0  0  0  0
  128.9160  123.3710   60.4160 N   0  0  0  0  0  0  0  0  0  0  0  0
  127.6760  123.6430   60.8920 C   0  0  0  0  0  0  0  0  0  0  0  0
  127.0310  122.8850   61.6180 O   0  0  0  0  0  0  0  0  0  0  0  0
  127.1090  124.9230   60.4620 C   0  0  0  0  0  0  0  0  0  0  0  0
  126.5740  125.1450   58.7950 S   0  0  0  0  0  0  0  0  0  0  0  0
  126.1260  126.8060   59.1090 C   0  0  0  0  0  0  0  0  0  0  0  0
  125.6110  127.5900   58.1620 N   0  0  0  0  0  0  0  0  0  0  0  0
  125.3100  128.8570   58.5360 C   0  0  0  0  0  0  0  0  0  0  0  0
  124.7290  129.7340   57.4420 C   0  0  0  0  0  0  0  0  0  0  0  0
  125.5060  129.3530   59.8230 C   0  0  0  0  0  0  0  0  0  0  0  0
  126.0480  128.5270   60.8150 C   0  0  0  0  0  0  0  0  0  0  0  0
  126.2450  129.1140   62.2050 C   0  0  0  0  0  0  0  0  0  0  0  0
  126.3800  127.1920   60.4600 C   0  0  0  0  0  0  0  0  0  0  0  0
  126.9460  126.1010   61.2070 C   0  0  0  0  0  0  0  0  0  0  0  0
  127.2870  126.2210   62.5310 N   0  0  0  0  0  0  0  0  0  0  0  0
  129.4080  121.1420   61.4160 C   0  0  0  0  0  0  0  0  0  0  0  0
  130.3210  120.1040   61.5840 C   0  0  0  0  0  0  0  0  0  0  0  0
  1  2  1  0
  2  3  1  0
  3  4  2  0
  3  5  1  0
  5  6  2  0
  6  7  1  0
  7  8  2  0
  8  9  1  0
  9 10  1  0
 10 11  2  0
 10 12  1  0
 12 13  1  0
 13 14  1  0
 14 15  2  0
 15 16  1  0
 16 17  1  0
 16 18  2  0
 18 19  1  0
 19 20  1  0
 19 21  2  0
 21 22  1  0
 22 23  1  0
  8 24  1  0
 24 25  2  0
 25  5  1  0
 22 12  2  0
 21 14  1  0
M  END
>  <Binding energies>  (38) 
[-6.31]

>  <Ligand effiencies>  (38) 
[-0.22535714285714284]

>  <Interactions>  (38) 
["V-A:TYR:539:CE1:4875, V-B:TYR:539:CD2:9846, H-A:SER:385:OG:3409, V-B:TYR:539:CE2:9848, V-A:LEU:475:CD1:4257, V-A:HIS:383:CE1:3392, H-B:ALA:541:N:9863, H-A:HIS:383:NE2:3393, V-A:PRO:482:CG:4326, V-B:PRO:540:CA:9855, H-B:GLU:543:OE1:9881, V-B:ALA:541:CB:9864, V-B:GLU:543:CD:9880, V-B:ALA:541:CA:9862, V-B:ASP:366:CG:8184, V-B:ASP:366:CB:8183, H-B:GLU:543:OE2:9882, V-B:PRO:540:C:9853, H-B:TYR:531:OH:9767, V-B:TYR:531:CZ:9766, V-B:ASP:366:C:8179, V-B:ASP:366:CA:8181, V-B:TYR:539:CB:9843, V-B:TYR:531:CE1:9764, V-A:TYR:539:CZ:4877"]

$$$$
4ac_Grossjean_2025
     RDKit          3D

 23 25  0  0  0  0  0  0  0  0999 V2000
  128.6370  125.9010   71.8940 C   0  0  0  0  0  0  0  0  0  0  0  0
  129.2220  125.7810   70.6010 O   0  0  0  0  0  0  0  0  0  0  0  0
  128.8930  126.6990   69.6240 C   0  0  0  0  0  0  0  0  0  0  0  0
  128.0050  126.2690   68.6390 C   0  0  0  0  0  0  0  0  0  0  0  0
  127.6150  127.1250   67.6120 C   0  0  0  0  0  0  0  0  0  0  0  0
  128.1030  128.4310   67.5640 C   0  0  0  0  0  0  0  0  0  0  0  0
  127.6640  129.2190   66.4840 N   0  0  0  0  0  0  0  0  0  0  0  0
  126.4160  129.3560   65.9750 C   0  0  0  0  0  0  0  0  0  0  0  0
  125.4310  128.7450   66.3910 O   0  0  0  0  0  0  0  0  0  0  0  0
  126.2940  130.2960   64.8570 C   0  0  0  0  0  0  0  0  0  0  0  0
  127.3390  131.7140   64.7660 S   0  0  0  0  0  0  0  0  0  0  0  0
  126.5880  132.2310   63.2740 C   0  0  0  0  0  0  0  0  0  0  0  0
  126.9680  133.3400   62.6380 N   0  0  0  0  0  0  0  0  0  0  0  0
  126.3050  133.6280   61.4930 C   0  0  0  0  0  0  0  0  0  0  0  0
  126.7530  134.8930   60.7850 C   0  0  0  0  0  0  0  0  0  0  0  0
  125.2780  132.8410   60.9730 C   0  0  0  0  0  0  0  0  0  0  0  0
  124.8800  131.6780   61.6430 C   0  0  0  0  0  0  0  0  0  0  0  0
  123.7550  130.8530   61.0370 C   0  0  0  0  0  0  0  0  0  0  0  0
  125.5560  131.3430   62.8470 C   0  0  0  0  0  0  0  0  0  0  0  0
  125.4100  130.2470   63.7670 C   0  0  0  0  0  0  0  0  0  0  0  0
  124.4840  129.2530   63.5800 N   0  0  0  0  0  0  0  0  0  0  0  0
  129.0060  128.8680   68.5440 C   0  0  0  0  0  0  0  0  0  0  0  0
  129.3950  128.0090   69.5680 C   0  0  0  0  0  0  0  0  0  0  0  0
  1  2  1  0
  2  3  1  0
  3  4  2  0
  4  5  1  0
  5  6  2  0
  6  7  1  0
  7  8  1  0
  8  9  2  0
  8 10  1  0
 10 11  1  0
 11 12  1  0
 12 13  2  0
 13 14  1  0
 14 15  1  0
 14 16  2  0
 16 17  1  0
 17 18  1  0
 17 19  2  0
 19 20  1  0
 20 21  1  0
  6 22  1  0
 22 23  2  0
 23  3  1  0
 20 10  2  0
 19 12  1  0
M  END
>  <Binding energies>  (39) 
[-6.12]

>  <Ligand effiencies>  (39) 
[-0.2353846153846154]

>  <Interactions>  (39) 
["V-A:ALA:541:CB:4892, V-A:TYR:539:CD1:4873, V-B:LEU:475:CD1:9229, V-A:GLU:543:CD:4908, H-A:GLU:543:OE1:4909, H-B:ASP:366:OD1:8185, V-B:GLU:543:CD:9880, V-A:HIS:456:CE1:4069, V-A:GLU:543:CG:4907, V-B:HIS:456:CE1:9041, V-B:TYR:484:CE2:9317, V-A:GLU:543:CB:4906, V-B:GLU:543:C:9874, V-B:GLU:543:CB:9878, H-B:ASP:366:OD2:8186, H-B:TYR:484:OH:9319, V-B:ILE:369:CG2:8208, V-B:ILE:369:CD1:8210, V-B:ASP:366:CG:8184, V-B:ILE:369:CB:8207, V-B:ASP:366:CB:8183, V-A:GLU:543:C:4902, V-A:GLU:543:CA:4904, H-B:ARG:545:NE:9896, V-B:ARG:545:CZ:9898, V-B:HIS:456:CD2:9039, V-B:ASP:366:CA:8181"]

$$$$
4ad_Grossjean_2025
     RDKit          3D

 21 23  0  0  0  0  0  0  0  0999 V2000
  126.7640  134.9380   60.9980 C   0  0  0  0  0  0  0  0  0  0  0  0
  126.3180  133.6610   61.6870 C   0  0  0  0  0  0  0  0  0  0  0  0
  125.2780  132.8920   61.1690 C   0  0  0  0  0  0  0  0  0  0  0  0
  124.8830  131.7190   61.8240 C   0  0  0  0  0  0  0  0  0  0  0  0
  123.7400  130.9140   61.2220 C   0  0  0  0  0  0  0  0  0  0  0  0
  125.5740  131.3570   63.0110 C   0  0  0  0  0  0  0  0  0  0  0  0
  125.4340  130.2460   63.9140 C   0  0  0  0  0  0  0  0  0  0  0  0
  124.4990  129.2600   63.7210 N   0  0  0  0  0  0  0  0  0  0  0  0
  126.3340  130.2700   64.9920 C   0  0  0  0  0  0  0  0  0  0  0  0
  126.4590  129.3170   66.0960 C   0  0  0  0  0  0  0  0  0  0  0  0
  125.4590  128.7850   66.5830 O   0  0  0  0  0  0  0  0  0  0  0  0
  127.7260  129.0710   66.5110 N   0  0  0  0  0  0  0  0  0  0  0  0
  128.1810  128.2520   67.5620 C   0  0  0  0  0  0  0  0  0  0  0  0
  129.0160  128.8670   68.5000 C   0  0  0  0  0  0  0  0  0  0  0  0
  129.5090  128.1430   69.5810 C   0  0  0  0  0  0  0  0  0  0  0  0
  129.1620  126.8040   69.7320 C   0  0  0  0  0  0  0  0  0  0  0  0
  128.3200  126.1820   68.8120 C   0  0  0  0  0  0  0  0  0  0  0  0
  127.8260  126.9040   67.7290 C   0  0  0  0  0  0  0  0  0  0  0  0
  127.3890  131.6820   64.9080 S   0  0  0  0  0  0  0  0  0  0  0  0
  126.6200  132.2300   63.4370 C   0  0  0  0  0  0  0  0  0  0  0  0
  126.9990  133.3480   62.8150 N   0  0  0  0  0  0  0  0  0  0  0  0
  1  2  1  0
  2  3  2  0
  3  4  1  0
  4  5  1  0
  4  6  2  0
  6  7  1  0
  7  8  1  0
  7  9  2  0
  9 10  1  0
 10 11  2  0
 10 12  1  0
 12 13  1  0
 13 14  2  0
 14 15  1  0
 15 16  2  0
 16 17  1  0
 17 18  2  0
  9 19  1  0
 19 20  1  0
 20 21  2  0
 21  2  1  0
 20  6  1  0
 18 13  1  0
M  END
>  <Binding energies>  (40) 
[-6.52]

>  <Ligand effiencies>  (40) 
[-0.27166666666666667]

>  <Interactions>  (40) 
["V-A:ALA:541:CB:4892, V-A:TYR:539:CD1:4873, V-B:LEU:475:CD1:9229, V-A:GLU:543:CD:4908, H-A:GLU:543:OE1:4909, H-B:ASP:366:OD1:8185, V-B:GLU:543:CD:9880, V-A:HIS:456:CE1:4069, V-A:GLU:543:CG:4907, V-B:HIS:456:CE1:9041, V-B:TYR:484:CE2:9317, V-A:GLU:543:CB:4906, V-B:GLU:543:C:9874, V-B:GLU:543:CB:9878, H-B:ASP:366:OD2:8186, H-B:TYR:484:OH:9319, V-B:ILE:369:CG2:8208, V-B:ILE:369:CD1:8210, V-B:ASP:366:CG:8184, V-A:GLU:543:C:4902, V-A:GLU:543:CA:4904, H-B:ARG:545:NE:9896, V-B:ARG:545:CZ:9898"]

$$$$
4ae_Grossjean_2025
     RDKit          3D

 22 24  0  0  0  0  0  0  0  0999 V2000
  129.3810  128.1580   70.9590 C   0  0  0  0  0  0  0  0  0  0  0  0
  129.1200  127.6240   69.5640 C   0  0  0  0  0  0  0  0  0  0  0  0
  129.3610  126.2870   69.2360 C   0  0  0  0  0  0  0  0  0  0  0  0
  129.1050  125.8680   67.9300 C   0  0  0  0  0  0  0  0  0  0  0  0
  128.6210  126.7850   66.9940 C   0  0  0  0  0  0  0  0  0  0  0  0
  128.3940  128.1070   67.3910 C   0  0  0  0  0  0  0  0  0  0  0  0
  127.9270  128.9870   66.4000 N   0  0  0  0  0  0  0  0  0  0  0  0
  126.6460  129.2800   66.0610 C   0  0  0  0  0  0  0  0  0  0  0  0
  125.6610  128.7800   66.6060 O   0  0  0  0  0  0  0  0  0  0  0  0
  126.4910  130.2520   64.9760 C   0  0  0  0  0  0  0  0  0  0  0  0
  127.5410  131.6670   64.8910 S   0  0  0  0  0  0  0  0  0  0  0  0
  126.7210  132.2490   63.4610 C   0  0  0  0  0  0  0  0  0  0  0  0
  127.0750  133.3840   62.8580 N   0  0  0  0  0  0  0  0  0  0  0  0
  126.3550  133.7260   61.7620 C   0  0  0  0  0  0  0  0  0  0  0  0
  126.7700  135.0240   61.0950 C   0  0  0  0  0  0  0  0  0  0  0  0
  125.3010  132.9650   61.2590 C   0  0  0  0  0  0  0  0  0  0  0  0
  124.9330  131.7730   61.8950 C   0  0  0  0  0  0  0  0  0  0  0  0
  123.7740  130.9800   61.3110 C   0  0  0  0  0  0  0  0  0  0  0  0
  125.6640  131.3840   63.0490 C   0  0  0  0  0  0  0  0  0  0  0  0
  125.5550  130.2500   63.9290 C   0  0  0  0  0  0  0  0  0  0  0  0
  124.6160  129.2680   63.7470 N   0  0  0  0  0  0  0  0  0  0  0  0
  128.6490  128.5260   68.6660 N   0  0  0  0  0  0  0  0  0  0  0  0
  1  2  1  0
  2  3  2  0
  3  4  1  0
  4  5  2  0
  5  6  1  0
  6  7  1  0
  7  8  1  0
  8  9  2  0
  8 10  1  0
 10 11  1  0
 11 12  1  0
 12 13  2  0
 13 14  1  0
 14 15  1  0
 14 16  2  0
 16 17  1  0
 17 18  1  0
 17 19  2  0
 19 20  1  0
 20 21  1  0
  6 22  2  0
 22  2  1  0
 20 10  2  0
 19 12  1  0
M  END
>  <Binding energies>  (41) 
[-6.64]

>  <Ligand effiencies>  (41) 
[-0.2656]

>  <Interactions>  (41) 
["V-A:ALA:541:CB:4892, V-A:TYR:539:CD1:4873, V-B:LEU:475:CD1:9229, V-A:GLU:543:CD:4908, H-A:GLU:543:OE1:4909, V-B:GLU:543:CG:9879, H-B:ASP:366:OD1:8185, V-B:GLU:543:CD:9880, V-A:HIS:456:CE1:4069, V-A:GLU:543:CG:4907, V-B:HIS:456:CE1:9041, V-B:TYR:484:CE2:9317, V-B:GLU:543:CB:9878, H-B:ASP:366:OD2:8186, H-B:TYR:484:OH:9319, V-B:ILE:369:CG2:8208, V-B:ILE:369:CD1:8210, V-B:ASP:366:CG:8184, H-B:ARG:545:NE:9896, V-B:ARG:545:CZ:9898, V-B:HIS:456:CD2:9039"]

$$$$
4af_Grossjean_2025
     RDKit          3D

 21 23  0  0  0  0  0  0  0  0999 V2000
  126.7550  135.0170   61.0070 C   0  0  0  0  0  0  0  0  0  0  0  0
  126.3310  133.7160   61.6640 C   0  0  0  0  0  0  0  0  0  0  0  0
  125.2820  132.9600   61.1480 C   0  0  0  0  0  0  0  0  0  0  0  0
  124.9070  131.7640   61.7730 C   0  0  0  0  0  0  0  0  0  0  0  0
  123.7540  130.9740   61.1730 C   0  0  0  0  0  0  0  0  0  0  0  0
  125.6280  131.3670   62.9310 C   0  0  0  0  0  0  0  0  0  0  0  0
  125.5130  130.2280   63.8020 C   0  0  0  0  0  0  0  0  0  0  0  0
  124.5730  129.2480   63.6040 N   0  0  0  0  0  0  0  0  0  0  0  0
  126.4410  130.2180   64.8550 C   0  0  0  0  0  0  0  0  0  0  0  0
  126.5870  129.2380   65.9330 C   0  0  0  0  0  0  0  0  0  0  0  0
  125.6000  128.6650   66.3970 O   0  0  0  0  0  0  0  0  0  0  0  0
  127.8580  129.0140   66.3450 N   0  0  0  0  0  0  0  0  0  0  0  0
  128.3320  128.1820   67.3770 C   0  0  0  0  0  0  0  0  0  0  0  0
  128.2270  126.7790   67.4070 C   0  0  0  0  0  0  0  0  0  0  0  0
  128.7250  126.0730   68.5030 C   0  0  0  0  0  0  0  0  0  0  0  0
  129.3120  126.7870   69.5490 C   0  0  0  0  0  0  0  0  0  0  0  0
  129.4180  128.1400   69.5480 N   0  0  0  0  0  0  0  0  0  0  0  0
  128.9290  128.8120   68.4750 C   0  0  0  0  0  0  0  0  0  0  0  0
  127.4890  131.6370   64.7930 S   0  0  0  0  0  0  0  0  0  0  0  0
  126.6820  132.2290   63.3590 C   0  0  0  0  0  0  0  0  0  0  0  0
  127.0420  133.3680   62.7660 N   0  0  0  0  0  0  0  0  0  0  0  0
  1  2  1  0
  2  3  2  0
  3  4  1  0
  4  5  1  0
  4  6  2  0
  6  7  1  0
  7  8  1  0
  7  9  2  0
  9 10  1  0
 10 11  2  0
 10 12  1  0
 12 13  1  0
 13 14  2  0
 14 15  1  0
 15 16  2  0
 16 17  1  0
 17 18  2  0
  9 19  1  0
 19 20  1  0
 20 21  2  0
 21  2  1  0
 20  6  1  0
 18 13  1  0
M  END
>  <Binding energies>  (42) 
[-6.2]

>  <Ligand effiencies>  (42) 
[-0.25833333333333336]

>  <Interactions>  (42) 
["V-A:ALA:541:CB:4892, V-A:TYR:539:CD1:4873, V-B:LEU:475:CD1:9229, V-A:GLU:543:CD:4908, H-A:GLU:543:OE1:4909, H-B:ASP:366:OD1:8185, V-B:GLU:543:CD:9880, V-A:HIS:456:CE1:4069, V-A:GLU:543:CG:4907, V-B:HIS:456:CE1:9041, V-B:TYR:484:CE2:9317, V-A:GLU:543:CB:4906, V-B:GLU:543:CB:9878, H-B:ASP:366:OD2:8186, H-B:TYR:484:OH:9319, V-B:ILE:369:CG2:8208, V-B:ILE:369:CD1:8210, V-B:ASP:366:CG:8184, V-A:GLU:543:C:4902, V-A:GLU:543:CA:4904, H-B:ARG:545:NE:9896, V-B:ARG:545:CZ:9898"]

$$$$
4ag_Grossjean_2025
     RDKit          3D

 22 24  0  0  0  0  0  0  0  0999 V2000
  134.0380  122.9850   62.5010 C   0  0  0  0  0  0  0  0  0  0  0  0
  133.0290  123.7900   63.2990 C   0  0  0  0  0  0  0  0  0  0  0  0
  131.6950  123.8610   62.9030 C   0  0  0  0  0  0  0  0  0  0  0  0
  130.7810  124.6080   63.6540 C   0  0  0  0  0  0  0  0  0  0  0  0
  129.3350  124.6550   63.1820 C   0  0  0  0  0  0  0  0  0  0  0  0
  131.2630  125.2760   64.8120 C   0  0  0  0  0  0  0  0  0  0  0  0
  130.6160  126.1090   65.7890 C   0  0  0  0  0  0  0  0  0  0  0  0
  129.2780  126.4080   65.7290 N   0  0  0  0  0  0  0  0  0  0  0  0
  131.4760  126.5790   66.7930 C   0  0  0  0  0  0  0  0  0  0  0  0
  131.1550  127.4320   67.9380 C   0  0  0  0  0  0  0  0  0  0  0  0
  132.0280  128.0740   68.5250 O   0  0  0  0  0  0  0  0  0  0  0  0
  129.8600  127.4540   68.3170 N   0  0  0  0  0  0  0  0  0  0  0  0
  129.3120  128.2520   69.4130 C   0  0  0  0  0  0  0  0  0  0  0  0
  129.3680  127.5610   70.7710 C   0  0  0  0  0  0  0  0  0  0  0  0
  128.7880  126.2990   70.9330 C   0  0  0  0  0  0  0  0  0  0  0  0
  128.8600  125.6540   72.1650 C   0  0  0  0  0  0  0  0  0  0  0  0
  129.5200  126.2680   73.2280 C   0  0  0  0  0  0  0  0  0  0  0  0
  130.1140  127.5180   73.0690 C   0  0  0  0  0  0  0  0  0  0  0  0
  130.0430  128.1620   71.8370 C   0  0  0  0  0  0  0  0  0  0  0  0
  133.1200  125.9890   66.5560 S   0  0  0  0  0  0  0  0  0  0  0  0
  132.6500  125.1230   65.1100 C   0  0  0  0  0  0  0  0  0  0  0  0
  133.5230  124.4110   64.3970 N   0  0  0  0  0  0  0  0  0  0  0  0
  1  2  1  0
  2  3  2  0
  3  4  1  0
  4  5  1  0
  4  6  2  0
  6  7  1  0
  7  8  1  0
  7  9  2  0
  9 10  1  0
 10 11  2  0
 10 12  1  0
 12 13  1  0
 13 14  1  0
 14 15  2  0
 15 16  1  0
 16 17  2  0
 17 18  1  0
 18 19  2  0
  9 20  1  0
 20 21  1  0
 21 22  2  0
 22  2  1  0
 21  6  1  0
 19 14  1  0
M  END
>  <Binding energies>  (43) 
[-6.6]

>  <Ligand effiencies>  (43) 
[-0.264]

>  <Interactions>  (43) 
["V-A:GLU:543:CD:4908, V-A:ARG:545:CD:4923, V-A:ARG:545:CG:4922, V-A:GLY:453:C:4041, H-A:TYR:484:OH:4347, V-A:GLY:454:CA:4048, V-A:ILE:369:CD1:3238, H-A:GLU:543:OE1:4909, V-A:ARG:545:CZ:4926, H-A:GLY:454:N:4049, V-B:GLU:543:CD:9880, V-A:HIS:456:CE1:4069, V-B:HIS:456:CE1:9041, V-A:GLU:543:CB:4906, H-A:HIS:456:ND1:4066, H-B:GLU:543:OE2:9882, V-A:GLU:543:C:4902, V-B:HIS:456:CD2:9039"]

$$$$
4ah_Grossjean_2025
     RDKit          3D

 28 30  0  0  0  0  0  0  0  0999 V2000
  122.8270  129.2940   66.9950 C   0  0  0  0  0  0  0  0  0  0  0  0
  123.5820  129.2530   65.7890 O   0  0  0  0  0  0  0  0  0  0  0  0
  124.9600  129.3560   65.8470 C   0  0  0  0  0  0  0  0  0  0  0  0
  125.7800  128.4950   66.5950 C   0  0  0  0  0  0  0  0  0  0  0  0
  127.1650  128.6600   66.6070 C   0  0  0  0  0  0  0  0  0  0  0  0
  128.0430  127.6870   67.3880 C   0  0  0  0  0  0  0  0  0  0  0  0
  129.0390  127.0050   66.5610 N   0  0  0  0  0  0  0  0  0  0  0  0
  129.7370  125.9080   66.9240 C   0  0  0  0  0  0  0  0  0  0  0  0
  129.6240  125.3860   68.0340 O   0  0  0  0  0  0  0  0  0  0  0  0
  130.6790  125.3920   65.9320 C   0  0  0  0  0  0  0  0  0  0  0  0
  132.2380  126.1820   65.6940 S   0  0  0  0  0  0  0  0  0  0  0  0
  132.6630  125.0590   64.4220 C   0  0  0  0  0  0  0  0  0  0  0  0
  133.8300  125.1270   63.7800 N   0  0  0  0  0  0  0  0  0  0  0  0
  134.0360  124.1960   62.8180 C   0  0  0  0  0  0  0  0  0  0  0  0
  135.3690  124.2940   62.0980 C   0  0  0  0  0  0  0  0  0  0  0  0
  133.1130  123.2080   62.4860 C   0  0  0  0  0  0  0  0  0  0  0  0
  131.8870  123.1390   63.1590 C   0  0  0  0  0  0  0  0  0  0  0  0
  130.9110  122.0420   62.7600 C   0  0  0  0  0  0  0  0  0  0  0  0
  131.6340  124.1000   64.1740 C   0  0  0  0  0  0  0  0  0  0  0  0
  130.5080  124.3210   65.0420 C   0  0  0  0  0  0  0  0  0  0  0  0
  129.3820  123.5400   64.9960 N   0  0  0  0  0  0  0  0  0  0  0  0
  127.7450  129.6750   65.8460 C   0  0  0  0  0  0  0  0  0  0  0  0
  126.9500  130.5540   65.0930 C   0  0  0  0  0  0  0  0  0  0  0  0
  127.4560  131.5890   64.3280 O   0  0  0  0  0  0  0  0  0  0  0  0
  128.3880  131.3010   63.2910 C   0  0  0  0  0  0  0  0  0  0  0  0
  125.5580  130.3870   65.1070 C   0  0  0  0  0  0  0  0  0  0  0  0
  124.7690  131.2290   64.3610 O   0  0  0  0  0  0  0  0  0  0  0  0
  124.3930  130.6990   63.0970 C   0  0  0  0  0  0  0  0  0  0  0  0
  1  2  1  0
  2  3  1  0
  3  4  2  0
  4  5  1  0
  5  6  1  0
  6  7  1  0
  7  8  1  0
  8  9  2  0
  8 10  1  0
 10 11  1  0
 11 12  1  0
 12 13  2  0
 13 14  1  0
 14 15  1  0
 14 16  2  0
 16 17  1  0
 17 18  1  0
 17 19  2  0
 19 20  1  0
 20 21  1  0
  5 22  2  0
 22 23  1  0
 23 24  1  0
 24 25  1  0
 23 26  2  0
 26 27  1  0
 27 28  1  0
 26  3  1  0
 20 10  2  0
 19 12  1  0
M  END
>  <Binding energies>  (44) 
[-6.94]

>  <Ligand effiencies>  (44) 
[-0.2238709677419355]

>  <Interactions>  (44) 
["V-A:ALA:541:CB:4892, V-A:GLU:543:CD:4908, V-A:ASP:366:CG:3212, V-A:GLY:453:C:4041, H-A:TYR:484:OH:4347, V-A:GLY:454:CA:4048, V-A:TYR:484:CZ:4346, H-A:ARG:545:NH2:4928, V-A:ILE:369:CD1:3238, H-A:GLU:543:OE1:4909, H-A:ARG:545:NH1:4927, V-A:ARG:545:CZ:4926, H-A:GLY:454:N:4049, V-A:LEU:475:CD1:4257, H-B:GLU:543:OE1:9881, V-B:GLU:543:CG:9879, V-B:ALA:541:CB:9864, V-B:GLU:543:CD:9880, V-A:TYR:484:CE2:4345, V-A:GLU:543:CG:4907, V-B:HIS:456:CE1:9041, V-A:GLY:453:CA:4043, V-B:GLU:543:CB:9878, H-B:TYR:484:OH:9319, H-B:ARG:545:NH2:9900, H-B:GLY:454:N:9021, V-B:GLY:454:CA:9020, H-B:ARG:545:NH1:9899, H-B:GLU:543:OE2:9882, V-B:GLY:454:C:9018, V-B:ARG:545:CG:9894, H-B:ARG:545:NE:9896, V-B:ARG:545:CD:9895, V-B:GLY:453:C:9013, V-B:GLY:453:CA:9015, V-B:ARG:545:CZ:9898, V-B:ILE:455:C:9023"]

$$$$
4ai_Grossjean_2025
     RDKit          3D

 20 22  0  0  0  0  0  0  0  0999 V2000
  125.6670  128.8410   59.2570 C   0  0  0  0  0  0  0  0  0  0  0  0
  126.3180  128.5060   60.5870 C   0  0  0  0  0  0  0  0  0  0  0  0
  125.8870  129.1100   61.7680 C   0  0  0  0  0  0  0  0  0  0  0  0
  126.4970  128.7810   62.9840 C   0  0  0  0  0  0  0  0  0  0  0  0
  125.9910  129.4650   64.2450 C   0  0  0  0  0  0  0  0  0  0  0  0
  127.5500  127.8270   62.9620 C   0  0  0  0  0  0  0  0  0  0  0  0
  128.3760  127.2700   63.9990 C   0  0  0  0  0  0  0  0  0  0  0  0
  128.2450  127.6370   65.3150 N   0  0  0  0  0  0  0  0  0  0  0  0
  129.3080  126.3260   63.5420 C   0  0  0  0  0  0  0  0  0  0  0  0
  130.3020  125.5780   64.3150 C   0  0  0  0  0  0  0  0  0  0  0  0
  130.1150  124.3950   64.6030 O   0  0  0  0  0  0  0  0  0  0  0  0
  131.4150  126.2750   64.6580 N   0  0  0  0  0  0  0  0  0  0  0  0
  132.5110  125.8140   65.3750 C   0  0  0  0  0  0  0  0  0  0  0  0
  132.7010  126.0790   66.7320 C   0  0  0  0  0  0  0  0  0  0  0  0
  133.8860  125.4600   67.0560 C   0  0  0  0  0  0  0  0  0  0  0  0
  134.3830  124.8510   65.9530 O   0  0  0  0  0  0  0  0  0  0  0  0
  133.5030  125.0810   64.8950 N   0  0  0  0  0  0  0  0  0  0  0  0
  129.2010  126.1210   61.7920 S   0  0  0  0  0  0  0  0  0  0  0  0
  127.8960  127.2830   61.6880 C   0  0  0  0  0  0  0  0  0  0  0  0
  127.3180  127.5940   60.5270 N   0  0  0  0  0  0  0  0  0  0  0  0
  1  2  1  0
  2  3  2  0
  3  4  1  0
  4  5  1  0
  4  6  2  0
  6  7  1  0
  7  8  1  0
  7  9  2  0
  9 10  1  0
 10 11  2  0
 10 12  1  0
 12 13  1  0
 13 14  1  0
 14 15  2  0
 15 16  1  0
 16 17  1  0
  9 18  1  0
 18 19  1  0
 19 20  2  0
 20  2  1  0
 19  6  1  0
 17 13  2  0
M  END
>  <Binding energies>  (45) 
[-5.98]

>  <Ligand effiencies>  (45) 
[-0.26]

>  <Interactions>  (45) 
["V-A:GLU:543:CD:4908, V-A:ARG:545:CD:4923, V-A:ARG:545:CG:4922, H-A:TYR:484:OH:4347, H-A:GLU:543:OE2:4910, V-A:TYR:484:CZ:4346, H-A:ARG:545:NH2:4928, H-A:GLU:543:OE1:4909, V-A:ARG:545:CZ:4926, H-A:GLY:454:N:4049, H-A:ARG:545:NE:4924, V-B:GLU:543:CD:9880, V-A:HIS:456:CE1:4069, V-B:ASP:366:CG:8184, V-B:ASP:366:CB:8183, H-B:GLU:543:OE2:9882, H-A:ILE:455:N:4054"]

$$$$
4aj_Grossjean_2025
     RDKit          3D

 20 22  0  0  0  0  0  0  0  0999 V2000
  126.7410  134.9950   61.0000 C   0  0  0  0  0  0  0  0  0  0  0  0
  126.3230  133.7080   61.6870 C   0  0  0  0  0  0  0  0  0  0  0  0
  125.2760  132.9360   61.1890 C   0  0  0  0  0  0  0  0  0  0  0  0
  124.9040  131.7550   61.8430 C   0  0  0  0  0  0  0  0  0  0  0  0
  123.7550  130.9470   61.2600 C   0  0  0  0  0  0  0  0  0  0  0  0
  125.6260  131.3870   63.0090 C   0  0  0  0  0  0  0  0  0  0  0  0
  125.5140  130.2680   63.9070 C   0  0  0  0  0  0  0  0  0  0  0  0
  124.5740  129.2850   63.7360 N   0  0  0  0  0  0  0  0  0  0  0  0
  126.4500  130.2810   64.9520 C   0  0  0  0  0  0  0  0  0  0  0  0
  126.6120  129.3140   66.0410 C   0  0  0  0  0  0  0  0  0  0  0  0
  125.6290  128.8250   66.6000 O   0  0  0  0  0  0  0  0  0  0  0  0
  127.8940  129.0050   66.3580 N   0  0  0  0  0  0  0  0  0  0  0  0
  128.3200  128.1160   67.3350 C   0  0  0  0  0  0  0  0  0  0  0  0
  128.2770  126.8010   67.3040 N   0  0  0  0  0  0  0  0  0  0  0  0
  128.7730  126.2740   68.4060 C   0  0  0  0  0  0  0  0  0  0  0  0
  129.2320  127.1720   69.3660 C   0  0  0  0  0  0  0  0  0  0  0  0
  128.9980  128.7930   68.7800 S   0  0  0  0  0  0  0  0  0  0  0  0
  127.4920  131.7020   64.8590 S   0  0  0  0  0  0  0  0  0  0  0  0
  126.6790  132.2620   63.4150 C   0  0  0  0  0  0  0  0  0  0  0  0
  127.0350  133.3880   62.7960 N   0  0  0  0  0  0  0  0  0  0  0  0
  1  2  1  0
  2  3  2  0
  3  4  1  0
  4  5  1  0
  4  6  2  0
  6  7  1  0
  7  8  1  0
  7  9  2  0
  9 10  1  0
 10 11  2  0
 10 12  1  0
 12 13  1  0
 13 14  2  0
 14 15  1  0
 15 16  2  0
 16 17  1  0
  9 18  1  0
 18 19  1  0
 19 20  2  0
 20  2  1  0
 19  6  1  0
 17 13  1  0
M  END
>  <Binding energies>  (46) 
[-5.97]

>  <Ligand effiencies>  (46) 
[-0.25956521739130434]

>  <Interactions>  (46) 
["V-A:ALA:541:CB:4892, V-A:TYR:539:CD1:4873, V-B:LEU:475:CD1:9229, V-A:GLU:543:CD:4908, H-A:GLU:543:OE1:4909, H-B:ASP:366:OD1:8185, V-A:HIS:456:CE1:4069, V-A:GLU:543:CG:4907, V-B:HIS:456:CE1:9041, V-B:TYR:484:CE2:9317, V-A:GLU:543:CB:4906, V-B:GLU:543:CB:9878, H-B:ASP:366:OD2:8186, H-B:TYR:484:OH:9319, V-B:ILE:369:CG2:8208, V-B:ILE:369:CD1:8210, V-B:ASP:366:CG:8184, V-A:GLU:543:C:4902, H-B:ARG:545:NE:9896, V-B:ARG:545:CZ:9898"]

$$$$
4ak_Grossjean_2025
     RDKit          3D

 25 26  0  0  0  0  0  0  0  0999 V2000
  128.4990  131.2040   72.6800 C   0  0  0  0  0  0  0  0  0  0  0  0
  129.3780  130.3960   73.4460 O   0  0  0  0  0  0  0  0  0  0  0  0
  129.8850  129.2760   72.7310 C   0  0  0  0  0  0  0  0  0  0  0  0
  128.9820  128.0610   72.9770 C   0  0  0  0  0  0  0  0  0  0  0  0
  129.7150  126.8700   72.7250 O   0  0  0  0  0  0  0  0  0  0  0  0
  128.9980  125.9040   71.9670 C   0  0  0  0  0  0  0  0  0  0  0  0
  128.6200  126.5050   70.6080 C   0  0  0  0  0  0  0  0  0  0  0  0
  129.6620  127.3660   70.1690 O   0  0  0  0  0  0  0  0  0  0  0  0
  129.2150  128.4320   69.3400 C   0  0  0  0  0  0  0  0  0  0  0  0
  128.4460  127.8540   68.1390 C   0  0  0  0  0  0  0  0  0  0  0  0
  129.3100  127.2490   67.1250 N   0  0  0  0  0  0  0  0  0  0  0  0
  129.9840  126.0900   67.2660 C   0  0  0  0  0  0  0  0  0  0  0  0
  129.9130  125.4040   68.2880 O   0  0  0  0  0  0  0  0  0  0  0  0
  130.8050  125.6810   66.1280 C   0  0  0  0  0  0  0  0  0  0  0  0
  132.5570  125.8720   66.1810 S   0  0  0  0  0  0  0  0  0  0  0  0
  132.7260  125.1880   64.5800 C   0  0  0  0  0  0  0  0  0  0  0  0
  133.9160  125.0510   63.9930 N   0  0  0  0  0  0  0  0  0  0  0  0
  133.9080  124.5080   62.7510 C   0  0  0  0  0  0  0  0  0  0  0  0
  135.2710  124.3600   62.1000 C   0  0  0  0  0  0  0  0  0  0  0  0
  132.7500  124.1030   62.0900 C   0  0  0  0  0  0  0  0  0  0  0  0
  131.5030  124.2470   62.7090 C   0  0  0  0  0  0  0  0  0  0  0  0
  130.2680  123.7930   61.9470 C   0  0  0  0  0  0  0  0  0  0  0  0
  131.4720  124.8130   64.0120 C   0  0  0  0  0  0  0  0  0  0  0  0
  130.3930  125.1000   64.9190 C   0  0  0  0  0  0  0  0  0  0  0  0
  129.0840  124.8270   64.6110 N   0  0  0  0  0  0  0  0  0  0  0  0
  1  2  1  0
  2  3  1  0
  3  4  1  0
  4  5  1  0
  5  6  1  0
  6  7  1  0
  7  8  1  0
  8  9  1  0
  9 10  1  0
 10 11  1  0
 11 12  1  0
 12 13  2  0
 12 14  1  0
 14 15  1  0
 15 16  1  0
 16 17  2  0
 17 18  1  0
 18 19  1  0
 18 20  2  0
 20 21  1  0
 21 22  1  0
 21 23  2  0
 23 24  1  0
 24 25  1  0
 24 14  2  0
 23 16  1  0
M  END
>  <Binding energies>  (47) 
[-5.68]

>  <Ligand effiencies>  (47) 
[-0.20285714285714285]

>  <Interactions>  (47) 
["V-A:GLU:543:CD:4908, V-A:ASP:366:CG:3212, V-A:ARG:545:CG:4922, V-A:GLY:453:C:4041, H-A:ARG:545:NH2:4928, V-A:ILE:369:CD1:3238, H-A:GLU:543:OE1:4909, H-A:ARG:545:NH1:4927, V-A:ARG:545:CZ:4926, H-A:GLY:454:N:4049, H-A:ARG:545:NE:4924, H-B:GLU:543:OE1:9881, V-B:GLU:543:CG:9879, V-B:GLU:543:CD:9880, V-A:HIS:456:CE1:4069, V-B:HIS:456:CE1:9041, V-A:GLY:453:CA:4043, V-A:GLU:543:CB:4906, H-B:GLU:543:OE2:9882, V-A:GLU:543:C:4902, V-B:TYR:484:CD2:9315, V-B:HIS:456:CD2:9039, H-A:LYS:547:NZ:4951, V-A:GLY:544:CA:4914, V-A:LYS:547:CE:4950, V-B:TYR:484:CG:9313"]

$$$$
4al_Grossjean_2025
     RDKit          3D

 16 17  0  0  0  0  0  0  0  0999 V2000
  131.2510  117.4280   61.0010 C   0  0  0  0  0  0  0  0  0  0  0  0
  132.0060  118.0400   59.9660 O   0  0  0  0  0  0  0  0  0  0  0  0
  133.1270  118.7540   60.2490 C   0  0  0  0  0  0  0  0  0  0  0  0
  134.2630  118.4160   59.9100 O   0  0  0  0  0  0  0  0  0  0  0  0
  132.8450  119.9890   61.0120 C   0  0  0  0  0  0  0  0  0  0  0  0
  134.1420  120.7910   61.9010 S   0  0  0  0  0  0  0  0  0  0  0  0
  133.0480  122.0370   62.4550 C   0  0  0  0  0  0  0  0  0  0  0  0
  133.4550  123.0350   63.2400 N   0  0  0  0  0  0  0  0  0  0  0  0
  132.5070  123.9370   63.5980 C   0  0  0  0  0  0  0  0  0  0  0  0
  132.9920  125.0640   64.4920 C   0  0  0  0  0  0  0  0  0  0  0  0
  131.1760  123.8630   63.1930 C   0  0  0  0  0  0  0  0  0  0  0  0
  130.7520  122.8150   62.3690 C   0  0  0  0  0  0  0  0  0  0  0  0
  129.2900  122.7780   61.9540 C   0  0  0  0  0  0  0  0  0  0  0  0
  131.7180  121.8510   61.9740 C   0  0  0  0  0  0  0  0  0  0  0  0
  131.6330  120.6750   61.1530 C   0  0  0  0  0  0  0  0  0  0  0  0
  130.4630  120.2680   60.5650 N   0  0  0  0  0  0  0  0  0  0  0  0
  1  2  1  0
  2  3  1  0
  3  4  2  0
  3  5  1  0
  5  6  1  0
  6  7  1  0
  7  8  2  0
  8  9  1  0
  9 10  1  0
  9 11  2  0
 11 12  1  0
 12 13  1  0
 12 14  2  0
 14 15  1  0
 15 16  1  0
 15  5  2  0
 14  7  1  0
M  END
>  <Binding energies>  (48) 
[-5.16]

>  <Ligand effiencies>  (48) 
[-0.2866666666666667]

>  <Interactions>  (48) 
["V-A:GLY:454:CA:4048, V-A:ILE:369:CD1:3238, V-A:ARG:545:CZ:4926, H-A:GLY:454:N:4049, V-A:ILE:369:CG2:3236, V-B:TYR:539:CD2:9846, H-A:SER:385:OG:3409, V-B:TYR:539:CE2:9848, V-A:LEU:475:CD1:4257, V-A:HIS:383:CE1:3392, V-A:PRO:482:CB:4325, H-A:HIS:383:NE2:3393, H-B:TYR:539:O:9840, V-A:PRO:482:CG:4326, V-B:ALA:541:CB:9864, V-B:TYR:539:C:9839, V-A:SER:385:C:3404, V-A:HIS:383:CD2:3391"]

$$$$
4bc_Grossjean_2025
     RDKit          3D

 26 28  0  0  0  0  0  0  0  0999 V2000
  128.6550  126.0850   71.7830 C   0  0  0  0  0  0  0  0  0  0  0  0
  129.1280  125.8700   70.4580 O   0  0  0  0  0  0  0  0  0  0  0  0
  128.8210  126.7900   69.4740 C   0  0  0  0  0  0  0  0  0  0  0  0
  127.9120  126.3790   68.5000 C   0  0  0  0  0  0  0  0  0  0  0  0
  127.5420  127.2380   67.4680 C   0  0  0  0  0  0  0  0  0  0  0  0
  128.0710  128.5280   67.4030 C   0  0  0  0  0  0  0  0  0  0  0  0
  127.6500  129.3190   66.3180 N   0  0  0  0  0  0  0  0  0  0  0  0
  126.4000  129.5090   65.8300 C   0  0  0  0  0  0  0  0  0  0  0  0
  125.3960  128.9520   66.2760 O   0  0  0  0  0  0  0  0  0  0  0  0
  126.3010  130.4370   64.6990 C   0  0  0  0  0  0  0  0  0  0  0  0
  127.1860  131.9600   64.7210 S   0  0  0  0  0  0  0  0  0  0  0  0
  126.5580  132.4000   63.1500 C   0  0  0  0  0  0  0  0  0  0  0  0
  126.8920  133.5500   62.5650 N   0  0  0  0  0  0  0  0  0  0  0  0
  126.3410  133.7810   61.3520 C   0  0  0  0  0  0  0  0  0  0  0  0
  126.7390  135.0930   60.7000 C   0  0  0  0  0  0  0  0  0  0  0  0
  125.4710  132.8990   60.7150 C   0  0  0  0  0  0  0  0  0  0  0  0
  125.1160  131.6870   61.3270 C   0  0  0  0  0  0  0  0  0  0  0  0
  124.1530  130.7500   60.5880 C   0  0  0  0  0  0  0  0  0  0  0  0
  123.7790  131.2200   59.3970 F   0  0  0  0  0  0  0  0  0  0  0  0
  124.7400  129.5710   60.3860 F   0  0  0  0  0  0  0  0  0  0  0  0
  123.0490  130.5740   61.3130 F   0  0  0  0  0  0  0  0  0  0  0  0
  125.6810  131.4110   62.6070 C   0  0  0  0  0  0  0  0  0  0  0  0
  125.5570  130.2980   63.5170 C   0  0  0  0  0  0  0  0  0  0  0  0
  124.7770  129.2030   63.2430 N   0  0  0  0  0  0  0  0  0  0  0  0
  128.9960  128.9450   68.3730 C   0  0  0  0  0  0  0  0  0  0  0  0
  129.3650  128.0830   69.4020 C   0  0  0  0  0  0  0  0  0  0  0  0
  1  2  1  0
  2  3  1  0
  3  4  2  0
  4  5  1  0
  5  6  2  0
  6  7  1  0
  7  8  1  0
  8  9  2  0
  8 10  1  0
 10 11  1  0
 11 12  1  0
 12 13  2  0
 13 14  1  0
 14 15  1  0
 14 16  2  0
 16 17  1  0
 17 18  1  0
 18 19  1  0
 18 20  1  0
 18 21  1  0
 17 22  2  0
 22 23  1  0
 23 24  1  0
  6 25  1  0
 25 26  2  0
 26  3  1  0
 23 10  2  0
 22 12  1  0
M  END
>  <Binding energies>  (49) 
[-5.65]

>  <Ligand effiencies>  (49) 
[-0.19482758620689655]

>  <Interactions>  (49) 
["V-A:ALA:541:CB:4892, V-A:TYR:539:CE1:4875, V-A:TYR:539:CD1:4873, V-B:LEU:475:CD1:9229, V-A:GLU:543:CD:4908, V-A:TYR:539:C:4867, H-A:GLU:543:OE1:4909, H-B:ASP:366:OD1:8185, V-B:GLU:543:CD:9880, V-A:HIS:456:CE1:4069, V-A:GLU:543:CG:4907, V-B:HIS:456:CE1:9041, V-B:TYR:484:CE2:9317, V-A:GLU:543:CB:4906, V-B:GLU:543:C:9874, V-B:GLU:543:CB:9878, H-B:ASP:366:OD2:8186, H-B:TYR:484:OH:9319, V-B:ILE:369:CG2:8208, V-B:ILE:369:CD1:8210, V-B:ILE:369:CG1:8209, V-B:ASP:366:CG:8184, V-B:ILE:369:CB:8207, V-B:ASP:366:CB:8183, V-A:GLU:543:C:4902, V-A:GLU:543:CA:4904, H-B:ARG:545:NE:9896, V-B:ARG:545:CZ:9898, V-B:HIS:456:CD2:9039, V-B:ASP:366:CA:8181"]

$$$$
4bf_Grossjean_2025
     RDKit          3D

 24 26  0  0  0  0  0  0  0  0999 V2000
  126.8750  135.0280   61.0080 C   0  0  0  0  0  0  0  0  0  0  0  0
  126.4530  133.7250   61.6640 C   0  0  0  0  0  0  0  0  0  0  0  0
  125.4900  132.9080   61.0790 C   0  0  0  0  0  0  0  0  0  0  0  0
  125.1060  131.7080   61.6970 C   0  0  0  0  0  0  0  0  0  0  0  0
  124.0400  130.8420   61.0180 C   0  0  0  0  0  0  0  0  0  0  0  0
  123.5880  131.3690   59.8770 F   0  0  0  0  0  0  0  0  0  0  0  0
  124.5470  129.6430   60.7310 F   0  0  0  0  0  0  0  0  0  0  0  0
  122.9930  130.6950   61.8310 F   0  0  0  0  0  0  0  0  0  0  0  0
  125.7430  131.3760   62.9310 C   0  0  0  0  0  0  0  0  0  0  0  0
  125.6120  130.2590   63.8340 C   0  0  0  0  0  0  0  0  0  0  0  0
  124.7480  129.2190   63.6020 N   0  0  0  0  0  0  0  0  0  0  0  0
  126.4470  130.3300   64.9610 C   0  0  0  0  0  0  0  0  0  0  0  0
  126.5480  129.3930   66.0840 C   0  0  0  0  0  0  0  0  0  0  0  0
  125.5380  128.8750   66.5620 O   0  0  0  0  0  0  0  0  0  0  0  0
  127.8070  129.1450   66.5210 N   0  0  0  0  0  0  0  0  0  0  0  0
  128.2420  128.3450   67.5950 C   0  0  0  0  0  0  0  0  0  0  0  0
  129.0090  128.7920   68.6850 C   0  0  0  0  0  0  0  0  0  0  0  0
  129.3880  127.8870   69.6800 C   0  0  0  0  0  0  0  0  0  0  0  0
  128.9930  126.5540   69.5570 C   0  0  0  0  0  0  0  0  0  0  0  0
  128.2600  126.0980   68.5110 N   0  0  0  0  0  0  0  0  0  0  0  0
  127.8990  126.9890   67.5520 C   0  0  0  0  0  0  0  0  0  0  0  0
  127.4230  131.7970   64.9380 S   0  0  0  0  0  0  0  0  0  0  0  0
  126.7150  132.3020   63.4220 C   0  0  0  0  0  0  0  0  0  0  0  0
  127.0760  133.4400   62.8310 N   0  0  0  0  0  0  0  0  0  0  0  0
  1  2  1  0
  2  3  2  0
  3  4  1  0
  4  5  1  0
  5  6  1  0
  5  7  1  0
  5  8  1  0
  4  9  2  0
  9 10  1  0
 10 11  1  0
 10 12  2  0
 12 13  1  0
 13 14  2  0
 13 15  1  0
 15 16  1  0
 16 17  2  0
 17 18  1  0
 18 19  2  0
 19 20  1  0
 20 21  2  0
 12 22  1  0
 22 23  1  0
 23 24  2  0
 24  2  1  0
 23  9  1  0
 21 16  1  0
M  END
>  <Binding energies>  (50) 
[-5.7]

>  <Ligand effiencies>  (50) 
[-0.2111111111111111]

>  <Interactions>  (50) 
["V-A:ALA:541:CB:4892, V-A:TYR:539:CD1:4873, V-B:LEU:475:CD1:9229, V-A:GLU:543:CD:4908, H-A:GLU:543:OE1:4909, H-B:ASP:366:OD1:8185, V-B:GLU:543:CD:9880, V-A:HIS:456:CE1:4069, V-A:GLU:543:CG:4907, V-B:HIS:456:CE1:9041, V-B:TYR:484:CE2:9317, V-A:GLU:543:CB:4906, V-B:GLU:543:CB:9878, H-B:ASP:366:OD2:8186, H-B:TYR:484:OH:9319, V-B:ILE:369:CG2:8208, V-B:ILE:369:CD1:8210, V-B:ILE:369:CG1:8209, V-B:ASP:366:CG:8184, V-B:ILE:369:CB:8207, V-B:ASP:366:CB:8183, H-B:GLU:543:OE2:9882, V-A:GLU:543:C:4902, V-A:GLU:543:CA:4904, H-B:ARG:545:NE:9896, V-B:ARG:545:CZ:9898, V-B:ASP:366:CA:8181"]

$$$$
4bh_Grossjean_2025
     RDKit          3D

 31 33  0  0  0  0  0  0  0  0999 V2000
  122.9260  129.2770   67.0110 C   0  0  0  0  0  0  0  0  0  0  0  0
  123.6730  129.2590   65.8000 O   0  0  0  0  0  0  0  0  0  0  0  0
  125.0520  129.3480   65.8520 C   0  0  0  0  0  0  0  0  0  0  0  0
  125.8680  128.4720   66.5840 C   0  0  0  0  0  0  0  0  0  0  0  0
  127.2550  128.6240   66.5930 C   0  0  0  0  0  0  0  0  0  0  0  0
  128.1280  127.6360   67.3570 C   0  0  0  0  0  0  0  0  0  0  0  0
  129.1210  126.9630   66.5190 N   0  0  0  0  0  0  0  0  0  0  0  0
  129.6200  125.7290   66.7350 C   0  0  0  0  0  0  0  0  0  0  0  0
  129.3040  125.0480   67.7130 O   0  0  0  0  0  0  0  0  0  0  0  0
  130.6030  125.2530   65.7610 C   0  0  0  0  0  0  0  0  0  0  0  0
  132.1470  126.0820   65.5890 S   0  0  0  0  0  0  0  0  0  0  0  0
  132.6350  124.9980   64.3070 C   0  0  0  0  0  0  0  0  0  0  0  0
  133.8200  125.1170   63.7100 N   0  0  0  0  0  0  0  0  0  0  0  0
  134.0860  124.2180   62.7340 C   0  0  0  0  0  0  0  0  0  0  0  0
  135.4400  124.3720   62.0660 C   0  0  0  0  0  0  0  0  0  0  0  0
  133.2050  123.2120   62.3460 C   0  0  0  0  0  0  0  0  0  0  0  0
  131.9540  123.0840   62.9700 C   0  0  0  0  0  0  0  0  0  0  0  0
  131.0180  121.9600   62.5100 C   0  0  0  0  0  0  0  0  0  0  0  0
  130.5590  121.2160   63.5190 F   0  0  0  0  0  0  0  0  0  0  0  0
  129.9620  122.4790   61.8860 F   0  0  0  0  0  0  0  0  0  0  0  0
  131.6670  121.1470   61.6770 F   0  0  0  0  0  0  0  0  0  0  0  0
  131.6410  124.0170   64.0020 C   0  0  0  0  0  0  0  0  0  0  0  0
  130.4830  124.1980   64.8430 C   0  0  0  0  0  0  0  0  0  0  0  0
  129.3690  123.4030   64.7550 N   0  0  0  0  0  0  0  0  0  0  0  0
  127.8400  129.6430   65.8390 C   0  0  0  0  0  0  0  0  0  0  0  0
  127.0490  130.5390   65.1030 C   0  0  0  0  0  0  0  0  0  0  0  0
  127.5590  131.5790   64.3470 O   0  0  0  0  0  0  0  0  0  0  0  0
  128.2550  131.2870   63.1400 C   0  0  0  0  0  0  0  0  0  0  0  0
  125.6550  130.3840   65.1230 C   0  0  0  0  0  0  0  0  0  0  0  0
  124.8690  131.2430   64.3910 O   0  0  0  0  0  0  0  0  0  0  0  0
  124.4530  130.7190   63.1380 C   0  0  0  0  0  0  0  0  0  0  0  0
  1  2  1  0
  2  3  1  0
  3  4  2  0
  4  5  1  0
  5  6  1  0
  6  7  1  0
  7  8  1  0
  8  9  2  0
  8 10  1  0
 10 11  1  0
 11 12  1  0
 12 13  2  0
 13 14  1  0
 14 15  1  0
 14 16  2  0
 16 17  1  0
 17 18  1  0
 18 19  1  0
 18 20  1  0
 18 21  1  0
 17 22  2  0
 22 23  1  0
 23 24  1  0
  5 25  2  0
 25 26  1  0
 26 27  1  0
 27 28  1  0
 26 29  2  0
 29 30  1  0
 30 31  1  0
 29  3  1  0
 23 10  2  0
 22 12  1  0
M  END
>  <Binding energies>  (51) 
[-6.54]

>  <Ligand effiencies>  (51) 
[-0.1923529411764706]

>  <Interactions>  (51) 
["V-A:ALA:541:CB:4892, V-A:GLU:543:CD:4908, V-A:ASP:366:CG:3212, V-A:GLY:453:C:4041, H-A:TYR:484:OH:4347, V-A:GLY:454:CA:4048, V-A:TYR:484:CZ:4346, H-A:ARG:545:NH2:4928, V-A:ILE:369:CD1:3238, H-A:GLU:543:OE1:4909, H-A:ARG:545:NH1:4927, V-A:ARG:545:CZ:4926, H-A:GLY:454:N:4049, V-A:LEU:475:CD1:4257, H-B:GLU:543:OE1:9881, V-B:GLU:543:CG:9879, V-B:ALA:541:CB:9864, V-B:GLU:543:CD:9880, V-A:GLU:543:CG:4907, V-B:HIS:456:CE1:9041, V-A:GLY:453:CA:4043, V-B:GLU:543:CB:9878, H-B:TYR:484:OH:9319, H-B:ARG:545:NH2:9900, H-B:GLY:454:N:9021, V-B:GLY:454:CA:9020, H-B:ARG:545:NH1:9899, H-B:GLU:543:OE2:9882, V-B:ARG:545:CG:9894, H-B:ARG:545:NE:9896, V-B:ARG:545:CD:9895, V-B:GLY:453:C:9013, V-B:GLY:453:CA:9015, V-B:ARG:545:CZ:9898, V-A:LEU:475:CD2:4258, V-A:LEU:475:CG:4256, V-B:ILE:455:C:9023"]

$$$$
4bi_Grossjean_2025
     RDKit          3D

 23 25  0  0  0  0  0  0  0  0999 V2000
  125.7340  128.6230   59.2090 C   0  0  0  0  0  0  0  0  0  0  0  0
  126.3600  128.3280   60.5600 C   0  0  0  0  0  0  0  0  0  0  0  0
  125.9030  128.9550   61.7160 C   0  0  0  0  0  0  0  0  0  0  0  0
  126.4890  128.6690   62.9600 C   0  0  0  0  0  0  0  0  0  0  0  0
  125.9460  129.3780   64.2050 C   0  0  0  0  0  0  0  0  0  0  0  0
  125.5960  128.5320   65.1770 F   0  0  0  0  0  0  0  0  0  0  0  0
  126.8760  130.1930   64.7020 F   0  0  0  0  0  0  0  0  0  0  0  0
  124.8640  130.0880   63.8840 F   0  0  0  0  0  0  0  0  0  0  0  0
  127.5580  127.7240   62.9750 C   0  0  0  0  0  0  0  0  0  0  0  0
  128.3840  127.1950   64.0320 C   0  0  0  0  0  0  0  0  0  0  0  0
  128.2480  127.5780   65.3420 N   0  0  0  0  0  0  0  0  0  0  0  0
  129.3320  126.2510   63.6020 C   0  0  0  0  0  0  0  0  0  0  0  0
  130.3300  125.5310   64.3980 C   0  0  0  0  0  0  0  0  0  0  0  0
  130.1520  124.3530   64.7150 O   0  0  0  0  0  0  0  0  0  0  0  0
  131.4360  126.2430   64.7270 N   0  0  0  0  0  0  0  0  0  0  0  0
  132.5350  125.8100   65.4570 C   0  0  0  0  0  0  0  0  0  0  0  0
  132.7000  126.0770   66.8150 C   0  0  0  0  0  0  0  0  0  0  0  0
  133.8950  125.4850   67.1540 C   0  0  0  0  0  0  0  0  0  0  0  0
  134.4230  124.8920   66.0570 O   0  0  0  0  0  0  0  0  0  0  0  0
  133.5510  125.1050   64.9870 N   0  0  0  0  0  0  0  0  0  0  0  0
  129.2430  126.0070   61.8590 S   0  0  0  0  0  0  0  0  0  0  0  0
  127.9300  127.1530   61.7200 C   0  0  0  0  0  0  0  0  0  0  0  0
  127.3690  127.4270   60.5420 N   0  0  0  0  0  0  0  0  0  0  0  0
  1  2  1  0
  2  3  2  0
  3  4  1  0
  4  5  1  0
  5  6  1  0
  5  7  1  0
  5  8  1  0
  4  9  2  0
  9 10  1  0
 10 11  1  0
 10 12  2  0
 12 13  1  0
 13 14  2  0
 13 15  1  0
 15 16  1  0
 16 17  1  0
 17 18  2  0
 18 19  1  0
 19 20  1  0
 12 21  1  0
 21 22  1  0
 22 23  2  0
 23  2  1  0
 22  9  1  0
 20 16  2  0
M  END
>  <Binding energies>  (52) 
[-5.79]

>  <Ligand effiencies>  (52) 
[-0.2226923076923077]

>  <Interactions>  (52) 
["V-A:GLU:543:CD:4908, V-A:ARG:545:CD:4923, V-A:ARG:545:CG:4922, H-A:TYR:484:OH:4347, H-A:GLU:543:OE2:4910, V-A:TYR:484:CZ:4346, H-A:ARG:545:NH2:4928, H-A:GLU:543:OE1:4909, V-A:ARG:545:CZ:4926, H-A:GLY:454:N:4049, H-A:ARG:545:NE:4924, V-B:GLU:543:CD:9880, V-A:HIS:456:CE1:4069, V-B:ASP:366:CG:8184, V-B:ASP:366:CB:8183, H-B:GLU:543:OE2:9882, V-B:ARG:545:CZ:9898, H-A:ILE:455:N:4054"]

$$$$
4bj_Grossjean_2025
     RDKit          3D

 23 25  0  0  0  0  0  0  0  0999 V2000
  126.7780  134.9640   61.0620 C   0  0  0  0  0  0  0  0  0  0  0  0
  126.3750  133.6600   61.7270 C   0  0  0  0  0  0  0  0  0  0  0  0
  125.3950  132.8440   61.1690 C   0  0  0  0  0  0  0  0  0  0  0  0
  125.0280  131.6430   61.7980 C   0  0  0  0  0  0  0  0  0  0  0  0
  123.9410  130.7790   61.1480 C   0  0  0  0  0  0  0  0  0  0  0  0
  123.3720  131.3630   60.0920 F   0  0  0  0  0  0  0  0  0  0  0  0
  124.4690  129.6280   60.7330 F   0  0  0  0  0  0  0  0  0  0  0  0
  122.9770  130.5280   62.0340 F   0  0  0  0  0  0  0  0  0  0  0  0
  125.7000  131.3100   63.0110 C   0  0  0  0  0  0  0  0  0  0  0  0
  125.5930  130.1940   63.9190 C   0  0  0  0  0  0  0  0  0  0  0  0
  124.7120  129.1610   63.7210 N   0  0  0  0  0  0  0  0  0  0  0  0
  126.4720  130.2560   65.0120 C   0  0  0  0  0  0  0  0  0  0  0  0
  126.6210  129.3080   66.1180 C   0  0  0  0  0  0  0  0  0  0  0  0
  125.6320  128.8490   66.6940 O   0  0  0  0  0  0  0  0  0  0  0  0
  127.8980  128.9780   66.4340 N   0  0  0  0  0  0  0  0  0  0  0  0
  128.3110  128.0990   67.4260 C   0  0  0  0  0  0  0  0  0  0  0  0
  128.2360  126.7860   67.4250 N   0  0  0  0  0  0  0  0  0  0  0  0
  128.7300  126.2710   68.5330 C   0  0  0  0  0  0  0  0  0  0  0  0
  129.2230  127.1780   69.4670 C   0  0  0  0  0  0  0  0  0  0  0  0
  129.0190  128.7910   68.8510 S   0  0  0  0  0  0  0  0  0  0  0  0
  127.4490  131.7210   64.9620 S   0  0  0  0  0  0  0  0  0  0  0  0
  126.6890  132.2320   63.4730 C   0  0  0  0  0  0  0  0  0  0  0  0
  127.0320  133.3720   62.8740 N   0  0  0  0  0  0  0  0  0  0  0  0
  1  2  1  0
  2  3  2  0
  3  4  1  0
  4  5  1  0
  5  6  1  0
  5  7  1  0
  5  8  1  0
  4  9  2  0
  9 10  1  0
 10 11  1  0
 10 12  2  0
 12 13  1  0
 13 14  2  0
 13 15  1  0
 15 16  1  0
 16 17  2  0
 17 18  1  0
 18 19  2  0
 19 20  1  0
 12 21  1  0
 21 22  1  0
 22 23  2  0
 23  2  1  0
 22  9  1  0
 20 16  1  0
M  END
>  <Binding energies>  (53) 
[-5.46]

>  <Ligand effiencies>  (53) 
[-0.21]

>  <Interactions>  (53) 
["V-A:ALA:541:CB:4892, V-A:TYR:539:CD1:4873, V-B:LEU:475:CD1:9229, V-A:GLU:543:CD:4908, H-A:GLU:543:OE1:4909, H-B:ASP:366:OD1:8185, V-A:HIS:456:CE1:4069, V-A:GLU:543:CG:4907, V-B:HIS:456:CE1:9041, V-B:TYR:484:CE2:9317, V-A:GLU:543:CB:4906, V-B:GLU:543:CB:9878, H-B:ASP:366:OD2:8186, H-B:TYR:484:OH:9319, V-B:ILE:369:CG2:8208, V-B:ILE:369:CD1:8210, V-B:ILE:369:CG1:8209, V-B:ASP:366:CG:8184, V-B:ILE:369:CB:8207, V-B:ASP:366:CB:8183, H-B:GLU:543:OE2:9882, V-A:GLU:543:C:4902, H-B:ARG:545:NE:9896, V-B:GLY:453:CA:9015, V-B:ARG:545:CZ:9898, V-B:ASP:366:CA:8181"]

$$$$
4bk_Grossjean_2025
     RDKit          3D

 28 29  0  0  0  0  0  0  0  0999 V2000
  133.5660  124.7530   63.0180 C   0  0  0  0  0  0  0  0  0  0  0  0
  133.8550  124.8110   64.4060 O   0  0  0  0  0  0  0  0  0  0  0  0
  132.8550  125.4770   65.1650 C   0  0  0  0  0  0  0  0  0  0  0  0
  133.4230  125.8590   66.5370 C   0  0  0  0  0  0  0  0  0  0  0  0
  132.3660  126.2970   67.3810 O   0  0  0  0  0  0  0  0  0  0  0  0
  131.0750  126.1610   66.8010 C   0  0  0  0  0  0  0  0  0  0  0  0
  130.0100  126.5620   67.8300 C   0  0  0  0  0  0  0  0  0  0  0  0
  129.9230  127.9790   67.8890 O   0  0  0  0  0  0  0  0  0  0  0  0
  128.6060  128.4660   68.1180 C   0  0  0  0  0  0  0  0  0  0  0  0
  127.6720  127.9500   67.0110 C   0  0  0  0  0  0  0  0  0  0  0  0
  127.3810  128.9450   65.9770 N   0  0  0  0  0  0  0  0  0  0  0  0
  126.1470  129.3330   65.5940 C   0  0  0  0  0  0  0  0  0  0  0  0
  125.1230  128.8840   66.1120 O   0  0  0  0  0  0  0  0  0  0  0  0
  126.0890  130.3330   64.5270 C   0  0  0  0  0  0  0  0  0  0  0  0
  126.9400  131.8650   64.7040 S   0  0  0  0  0  0  0  0  0  0  0  0
  126.4150  132.3900   63.1220 C   0  0  0  0  0  0  0  0  0  0  0  0
  126.7620  133.5800   62.6330 N   0  0  0  0  0  0  0  0  0  0  0  0
  126.2970  133.8740   61.3970 C   0  0  0  0  0  0  0  0  0  0  0  0
  126.7070  135.2330   60.8600 C   0  0  0  0  0  0  0  0  0  0  0  0
  125.4990  133.0150   60.6460 C   0  0  0  0  0  0  0  0  0  0  0  0
  125.1280  131.7610   61.1550 C   0  0  0  0  0  0  0  0  0  0  0  0
  124.2470  130.8510   60.2930 C   0  0  0  0  0  0  0  0  0  0  0  0
  123.0270  130.6690   60.8050 F   0  0  0  0  0  0  0  0  0  0  0  0
  124.0960  131.3860   59.0820 F   0  0  0  0  0  0  0  0  0  0  0  0
  124.8140  129.6510   60.1770 F   0  0  0  0  0  0  0  0  0  0  0  0
  125.6040  131.4180   62.4570 C   0  0  0  0  0  0  0  0  0  0  0  0
  125.4400  130.2510   63.2860 C   0  0  0  0  0  0  0  0  0  0  0  0
  124.7100  129.1580   62.8930 N   0  0  0  0  0  0  0  0  0  0  0  0
  1  2  1  0
  2  3  1  0
  3  4  1  0
  4  5  1  0
  5  6  1  0
  6  7  1  0
  7  8  1  0
  8  9  1  0
  9 10  1  0
 10 11  1  0
 11 12  1  0
 12 13  2  0
 12 14  1  0
 14 15  1  0
 15 16  1  0
 16 17  2  0
 17 18  1  0
 18 19  1  0
 18 20  2  0
 20 21  1  0
 21 22  1  0
 22 23  1  0
 22 24  1  0
 22 25  1  0
 21 26  2  0
 26 27  1  0
 27 28  1  0
 27 14  2  0
 26 16  1  0
M  END
>  <Binding energies>  (54) 
[-5.47]

>  <Ligand effiencies>  (54) 
[-0.1764516129032258]

>  <Interactions>  (54) 
["V-A:ALA:541:CB:4892, V-A:TYR:539:CE1:4875, V-A:TYR:539:CD1:4873, V-B:LEU:475:CD1:9229, V-A:ARG:545:CD:4923, V-A:ARG:545:CG:4922, H-A:TYR:484:OH:4347, H-A:ARG:545:NH2:4928, H-A:GLU:543:OE1:4909, V-A:ARG:545:CZ:4926, H-A:GLY:454:N:4049, H-B:ASP:366:OD1:8185, V-A:HIS:456:CE1:4069, V-B:HIS:456:CE1:9041, V-B:TYR:484:CE2:9317, V-A:GLU:543:CB:4906, H-B:ASP:366:OD2:8186, H-B:TYR:484:OH:9319, H-B:ARG:545:NH2:9900, V-B:ILE:369:CG2:8208, V-B:ILE:369:CD1:8210, V-B:ILE:369:CG1:8209, V-B:ASP:366:CG:8184, V-B:ILE:369:CB:8207, V-B:ASP:366:CB:8183, H-B:ARG:545:NE:9896, V-B:ARG:545:CZ:9898, V-B:ASP:366:CA:8181"]

$$$$
4cd_Grossjean_2025
     RDKit          3D

 29 32  0  0  0  0  0  0  0  0999 V2000
  126.7630  127.9420   63.3070 N   0  0  0  0  0  0  0  0  0  0  0  0
  126.6060  129.2410   63.7200 C   0  0  0  0  0  0  0  0  0  0  0  0
  126.5970  129.6230   65.0710 C   0  0  0  0  0  0  0  0  0  0  0  0
  126.7230  128.7750   66.2610 C   0  0  0  0  0  0  0  0  0  0  0  0
  125.7320  128.2440   66.7610 O   0  0  0  0  0  0  0  0  0  0  0  0
  127.9840  128.6270   66.7370 N   0  0  0  0  0  0  0  0  0  0  0  0
  128.4370  127.9330   67.8740 C   0  0  0  0  0  0  0  0  0  0  0  0
  129.0060  128.7160   68.8830 C   0  0  0  0  0  0  0  0  0  0  0  0
  129.4720  128.1240   70.0530 C   0  0  0  0  0  0  0  0  0  0  0  0
  129.3620  126.7460   70.2190 C   0  0  0  0  0  0  0  0  0  0  0  0
  128.7850  125.9550   69.2290 C   0  0  0  0  0  0  0  0  0  0  0  0
  128.3180  126.5450   68.0560 C   0  0  0  0  0  0  0  0  0  0  0  0
  126.3870  131.3650   65.2390 S   0  0  0  0  0  0  0  0  0  0  0  0
  126.3040  131.5670   63.5050 C   0  0  0  0  0  0  0  0  0  0  0  0
  126.1330  132.7660   62.9530 N   0  0  0  0  0  0  0  0  0  0  0  0
  126.0680  132.8210   61.5970 C   0  0  0  0  0  0  0  0  0  0  0  0
  125.8720  134.1860   61.0030 C   0  0  0  0  0  0  0  0  0  0  0  0
  126.9180  135.1240   60.9960 C   0  0  0  0  0  0  0  0  0  0  0  0
  126.7440  136.3910   60.4470 C   0  0  0  0  0  0  0  0  0  0  0  0
  125.5160  136.7400   59.8940 C   0  0  0  0  0  0  0  0  0  0  0  0
  124.4650  135.8300   59.8850 C   0  0  0  0  0  0  0  0  0  0  0  0
  124.6440  134.5630   60.4330 C   0  0  0  0  0  0  0  0  0  0  0  0
  126.1940  131.6780   60.8030 C   0  0  0  0  0  0  0  0  0  0  0  0
  126.3780  130.4090   61.3750 C   0  0  0  0  0  0  0  0  0  0  0  0
  126.5050  129.1960   60.4460 C   0  0  0  0  0  0  0  0  0  0  0  0
  127.7430  128.6980   60.3990 F   0  0  0  0  0  0  0  0  0  0  0  0
  125.6990  128.2200   60.8640 F   0  0  0  0  0  0  0  0  0  0  0  0
  126.1690  129.5430   59.2040 F   0  0  0  0  0  0  0  0  0  0  0  0
  126.4360  130.3360   62.7960 C   0  0  0  0  0  0  0  0  0  0  0  0
  1  2  1  0
  2  3  2  0
  3  4  1  0
  4  5  2  0
  4  6  1  0
  6  7  1  0
  7  8  2  0
  8  9  1  0
  9 10  2  0
 10 11  1  0
 11 12  2  0
  3 13  1  0
 13 14  1  0
 14 15  2  0
 15 16  1  0
 16 17  1  0
 17 18  2  0
 18 19  1  0
 19 20  2  0
 20 21  1  0
 21 22  2  0
 16 23  2  0
 23 24  1  0
 24 25  1  0
 25 26  1  0
 25 27  1  0
 25 28  1  0
 24 29  2  0
 29  2  1  0
 12  7  1  0
 29 14  1  0
 22 17  1  0
M  END
>  <Binding energies>  (55) 
[-7.32]

>  <Ligand effiencies>  (55) 
[-0.22875]

>  <Interactions>  (55) 
["V-A:TYR:539:CE1:4875, V-A:TYR:539:CD1:4873, V-B:LEU:475:CD1:9229, V-A:GLU:543:CD:4908, V-A:TYR:539:C:4867, H-A:GLU:543:OE1:4909, H-B:GLU:543:OE1:9881, V-A:HIS:456:CE1:4069, V-A:GLU:543:CG:4907, V-B:HIS:456:CE1:9041, V-B:TYR:484:CE2:9317, V-A:GLU:543:CB:4906, V-B:GLU:543:C:9874, V-B:GLU:543:CB:9878, H-B:TYR:484:OH:9319, V-B:PRO:482:CB:9297, V-A:TYR:539:CB:4871, V-B:ILE:369:CG2:8208, V-B:PRO:482:CG:9298, V-B:ASP:366:CG:8184, V-B:LEU:373:CD1:8251, V-B:ASP:366:CB:8183, H-B:GLU:543:OE2:9882, V-B:SER:385:CB:8380, V-A:GLU:543:C:4902, H-B:ARG:545:NE:9896, V-B:TYR:484:CZ:9318, V-A:TYR:539:CG:4872"]

$$$$
4cg_Grossjean_2025
     RDKit          3D

 30 33  0  0  0  0  0  0  0  0999 V2000
  128.0070  127.8930   64.3080 N   0  0  0  0  0  0  0  0  0  0  0  0
  128.3530  128.7310   63.2790 C   0  0  0  0  0  0  0  0  0  0  0  0
  129.3900  128.4530   62.3780 C   0  0  0  0  0  0  0  0  0  0  0  0
  130.2420  127.2660   62.3060 C   0  0  0  0  0  0  0  0  0  0  0  0
  130.5200  126.7390   61.2260 O   0  0  0  0  0  0  0  0  0  0  0  0
  130.6660  126.7700   63.4870 N   0  0  0  0  0  0  0  0  0  0  0  0
  131.5410  125.6100   63.6540 C   0  0  0  0  0  0  0  0  0  0  0  0
  132.2950  125.6050   64.9790 C   0  0  0  0  0  0  0  0  0  0  0  0
  131.6420  125.9990   66.1500 C   0  0  0  0  0  0  0  0  0  0  0  0
  132.3180  125.9650   67.3680 C   0  0  0  0  0  0  0  0  0  0  0  0
  133.6410  125.5300   67.4100 C   0  0  0  0  0  0  0  0  0  0  0  0
  134.2910  125.1210   66.2480 C   0  0  0  0  0  0  0  0  0  0  0  0
  133.6160  125.1520   65.0310 C   0  0  0  0  0  0  0  0  0  0  0  0
  129.5520  129.7270   61.1720 S   0  0  0  0  0  0  0  0  0  0  0  0
  128.2460  130.6340   61.8960 C   0  0  0  0  0  0  0  0  0  0  0  0
  127.8530  131.8030   61.3980 N   0  0  0  0  0  0  0  0  0  0  0  0
  126.8260  132.4350   62.0240 C   0  0  0  0  0  0  0  0  0  0  0  0
  126.4080  133.7530   61.4380 C   0  0  0  0  0  0  0  0  0  0  0  0
  127.2310  134.8860   61.5490 C   0  0  0  0  0  0  0  0  0  0  0  0
  126.8470  136.1090   61.0080 C   0  0  0  0  0  0  0  0  0  0  0  0
  125.6280  136.2200   60.3470 C   0  0  0  0  0  0  0  0  0  0  0  0
  124.7920  135.1160   60.2250 C   0  0  0  0  0  0  0  0  0  0  0  0
  125.1800  133.8940   60.7670 C   0  0  0  0  0  0  0  0  0  0  0  0
  126.2120  131.8960   63.1610 C   0  0  0  0  0  0  0  0  0  0  0  0
  126.6190  130.6640   63.6960 C   0  0  0  0  0  0  0  0  0  0  0  0
  125.9040  130.1330   64.9430 C   0  0  0  0  0  0  0  0  0  0  0  0
  125.5120  128.8630   64.8210 F   0  0  0  0  0  0  0  0  0  0  0  0
  126.7210  130.1990   65.9940 F   0  0  0  0  0  0  0  0  0  0  0  0
  124.8170  130.8630   65.1850 F   0  0  0  0  0  0  0  0  0  0  0  0
  127.6860  129.9870   63.0370 C   0  0  0  0  0  0  0  0  0  0  0  0
  1  2  1  0
  2  3  2  0
  3  4  1  0
  4  5  2  0
  4  6  1  0
  6  7  1  0
  7  8  1  0
  8  9  2  0
  9 10  1  0
 10 11  2  0
 11 12  1  0
 12 13  2  0
  3 14  1  0
 14 15  1  0
 15 16  2  0
 16 17  1  0
 17 18  1  0
 18 19  2  0
 19 20  1  0
 20 21  2  0
 21 22  1  0
 22 23  2  0
 17 24  2  0
 24 25  1  0
 25 26  1  0
 26 27  1  0
 26 28  1  0
 26 29  1  0
 25 30  2  0
 30  2  1  0
 13  8  1  0
 30 15  1  0
 23 18  1  0
M  END
>  <Binding energies>  (56) 
[-7.92]

>  <Ligand effiencies>  (56) 
[-0.24]

>  <Interactions>  (56) 
["V-A:ALA:541:CB:4892, V-A:TYR:539:CE1:4875, V-A:TYR:539:CD1:4873, V-B:LEU:475:CD1:9229, V-A:GLU:543:CD:4908, V-A:ARG:545:CD:4923, V-A:ARG:545:CG:4922, V-A:GLY:453:C:4041, V-A:GLY:454:CA:4048, H-A:GLU:543:OE2:4910, V-A:TYR:484:CZ:4346, H-A:GLU:543:OE1:4909, V-A:ARG:545:CZ:4926, V-A:HIS:456:CE1:4069, V-B:TYR:484:CE2:9317, V-A:GLY:453:CA:4043, V-B:PRO:482:CB:9297, V-A:TYR:539:CB:4871, V-B:GLY:454:CA:9020, V-B:ILE:369:CG2:8208, V-B:PRO:482:CG:9298, V-B:LEU:373:CD1:8251, H-B:GLU:543:OE2:9882, V-B:SER:385:CB:8380, V-B:ARG:545:CZ:9898, V-B:TYR:484:CZ:9318"]

$$$$
4ch_Grossjean_2025
     RDKit          3D

 36 39  0  0  0  0  0  0  0  0999 V2000
  128.5050  131.1460   63.0260 C   0  0  0  0  0  0  0  0  0  0  0  0
  127.3070  131.3250   63.7750 O   0  0  0  0  0  0  0  0  0  0  0  0
  126.9370  130.3680   64.7010 C   0  0  0  0  0  0  0  0  0  0  0  0
  127.8470  129.5510   65.3920 C   0  0  0  0  0  0  0  0  0  0  0  0
  127.4020  128.6050   66.3160 C   0  0  0  0  0  0  0  0  0  0  0  0
  128.4030  127.7080   67.0350 C   0  0  0  0  0  0  0  0  0  0  0  0
  129.0500  126.7180   66.1730 N   0  0  0  0  0  0  0  0  0  0  0  0
  129.5040  125.5110   66.5700 C   0  0  0  0  0  0  0  0  0  0  0  0
  129.3880  125.1070   67.7290 O   0  0  0  0  0  0  0  0  0  0  0  0
  130.1170  124.6830   65.5300 C   0  0  0  0  0  0  0  0  0  0  0  0
  129.4140  123.1220   65.1170 S   0  0  0  0  0  0  0  0  0  0  0  0
  130.6280  122.8510   63.8900 C   0  0  0  0  0  0  0  0  0  0  0  0
  130.6420  121.7390   63.1610 N   0  0  0  0  0  0  0  0  0  0  0  0
  131.6210  121.6190   62.2270 C   0  0  0  0  0  0  0  0  0  0  0  0
  131.6140  120.3490   61.4260 C   0  0  0  0  0  0  0  0  0  0  0  0
  130.5270  119.4620   61.4950 C   0  0  0  0  0  0  0  0  0  0  0  0
  130.5140  118.2820   60.7550 C   0  0  0  0  0  0  0  0  0  0  0  0
  131.5910  117.9710   59.9330 C   0  0  0  0  0  0  0  0  0  0  0  0
  132.6820  118.8300   59.8490 C   0  0  0  0  0  0  0  0  0  0  0  0
  132.6920  120.0070   60.5920 C   0  0  0  0  0  0  0  0  0  0  0  0
  132.5910  122.6100   62.0420 C   0  0  0  0  0  0  0  0  0  0  0  0
  132.5860  123.7880   62.8070 C   0  0  0  0  0  0  0  0  0  0  0  0
  133.6780  124.8330   62.5520 C   0  0  0  0  0  0  0  0  0  0  0  0
  134.3800  125.1350   63.6470 F   0  0  0  0  0  0  0  0  0  0  0  0
  134.5360  124.3770   61.6420 F   0  0  0  0  0  0  0  0  0  0  0  0
  133.1260  125.9630   62.1100 F   0  0  0  0  0  0  0  0  0  0  0  0
  131.5560  123.9290   63.7800 C   0  0  0  0  0  0  0  0  0  0  0  0
  131.2300  124.9700   64.7250 C   0  0  0  0  0  0  0  0  0  0  0  0
  131.9530  126.1310   64.8310 N   0  0  0  0  0  0  0  0  0  0  0  0
  126.0330  128.4560   66.5440 C   0  0  0  0  0  0  0  0  0  0  0  0
  125.1000  129.2580   65.8660 C   0  0  0  0  0  0  0  0  0  0  0  0
  123.7320  129.1670   66.0440 O   0  0  0  0  0  0  0  0  0  0  0  0
  123.1900  129.2520   67.3570 C   0  0  0  0  0  0  0  0  0  0  0  0
  125.5660  130.2150   64.9520 C   0  0  0  0  0  0  0  0  0  0  0  0
  124.6630  130.9950   64.2720 O   0  0  0  0  0  0  0  0  0  0  0  0
  124.1860  130.4120   63.0670 C   0  0  0  0  0  0  0  0  0  0  0  0
  1  2  1  0
  2  3  1  0
  3  4  2  0
  4  5  1  0
  5  6  1  0
  6  7  1  0
  7  8  1  0
  8  9  2  0
  8 10  1  0
 10 11  1  0
 11 12  1  0
 12 13  2  0
 13 14  1  0
 14 15  1  0
 15 16  2  0
 16 17  1  0
 17 18  2  0
 18 19  1  0
 19 20  2  0
 14 21  2  0
 21 22  1  0
 22 23  1  0
 23 24  1  0
 23 25  1  0
 23 26  1  0
 22 27  2  0
 27 28  1  0
 28 29  1  0
  5 30  2  0
 30 31  1  0
 31 32  1  0
 32 33  1  0
 31 34  2  0
 34 35  1  0
 35 36  1  0
 34  3  1  0
 28 10  2  0
 27 12  1  0
 20 15  1  0
M  END
>  <Binding energies>  (57) 
[-7.95]

>  <Ligand effiencies>  (57) 
[-0.20384615384615384]

>  <Interactions>  (57) 
["V-A:ALA:541:CB:4892, V-A:GLU:543:CD:4908, V-A:ASP:366:CG:3212, V-A:GLY:453:C:4041, H-A:GLU:543:OE2:4910, V-A:TYR:484:CZ:4346, V-A:ILE:369:CD1:3238, H-A:GLU:543:OE1:4909, V-A:ARG:545:CZ:4926, V-A:ILE:369:CG2:3236, V-B:TYR:539:CD2:9846, V-B:TYR:539:CE2:9848, V-A:LEU:475:CD1:4257, V-A:HIS:383:CE1:3392, V-A:PRO:482:CG:4326, V-B:GLU:543:CG:9879, V-B:ALA:541:CB:9864, V-B:GLU:543:CD:9880, V-B:TYR:539:C:9839, V-A:TYR:484:CE2:4345, V-A:HIS:383:CD2:3391, V-A:GLU:543:CG:4907, V-B:HIS:456:CE1:9041, V-A:GLY:453:CA:4043, V-B:GLU:543:CB:9878, H-B:TYR:484:OH:9319, H-B:ARG:545:NH2:9900, H-B:GLY:454:N:9021, H-B:ARG:545:NH1:9899, H-B:GLU:543:OE2:9882, V-B:ARG:545:CG:9894, H-B:ARG:545:NE:9896, V-B:ARG:545:CD:9895, V-B:ARG:545:CZ:9898, V-B:ILE:455:C:9023, V-B:ARG:545:CB:9893"]

$$$$
4cj_Grossjean_2025
     RDKit          3D

 28 31  0  0  0  0  0  0  0  0999 V2000
  127.0040  128.1150   63.9700 N   0  0  0  0  0  0  0  0  0  0  0  0
  127.0890  129.4540   64.2530 C   0  0  0  0  0  0  0  0  0  0  0  0
  127.5340  129.9530   65.4880 C   0  0  0  0  0  0  0  0  0  0  0  0
  127.9830  129.2070   66.6660 C   0  0  0  0  0  0  0  0  0  0  0  0
  128.3260  129.7970   67.6930 O   0  0  0  0  0  0  0  0  0  0  0  0
  127.9990  127.8570   66.5290 N   0  0  0  0  0  0  0  0  0  0  0  0
  128.3800  126.9270   67.4870 C   0  0  0  0  0  0  0  0  0  0  0  0
  128.0530  126.9010   68.7610 N   0  0  0  0  0  0  0  0  0  0  0  0
  128.5920  125.8690   69.3790 C   0  0  0  0  0  0  0  0  0  0  0  0
  129.3780  125.0260   68.5980 C   0  0  0  0  0  0  0  0  0  0  0  0
  129.4050  125.6280   66.9670 S   0  0  0  0  0  0  0  0  0  0  0  0
  127.5280  131.7150   65.5030 S   0  0  0  0  0  0  0  0  0  0  0  0
  126.9300  131.7710   63.8610 C   0  0  0  0  0  0  0  0  0  0  0  0
  126.7040  132.9280   63.2440 N   0  0  0  0  0  0  0  0  0  0  0  0
  126.2470  132.8720   61.9670 C   0  0  0  0  0  0  0  0  0  0  0  0
  126.0150  134.1950   61.2950 C   0  0  0  0  0  0  0  0  0  0  0  0
  124.8380  134.4350   60.5690 C   0  0  0  0  0  0  0  0  0  0  0  0
  124.6190  135.6580   59.9380 C   0  0  0  0  0  0  0  0  0  0  0  0
  125.5790  136.6610   60.0250 C   0  0  0  0  0  0  0  0  0  0  0  0
  126.7550  136.4480   60.7360 C   0  0  0  0  0  0  0  0  0  0  0  0
  126.9690  135.2250   61.3650 C   0  0  0  0  0  0  0  0  0  0  0  0
  125.9960  131.6560   61.3240 C   0  0  0  0  0  0  0  0  0  0  0  0
  126.2290  130.4290   61.9660 C   0  0  0  0  0  0  0  0  0  0  0  0
  125.9360  129.1330   61.2030 C   0  0  0  0  0  0  0  0  0  0  0  0
  125.2150  129.3270   60.0970 F   0  0  0  0  0  0  0  0  0  0  0  0
  127.0810  128.5570   60.8370 F   0  0  0  0  0  0  0  0  0  0  0  0
  125.2520  128.2940   61.9820 F   0  0  0  0  0  0  0  0  0  0  0  0
  126.7270  130.4760   63.3000 C   0  0  0  0  0  0  0  0  0  0  0  0
  1  2  1  0
  2  3  2  0
  3  4  1  0
  4  5  2  0
  4  6  1  0
  6  7  1  0
  7  8  2  0
  8  9  1  0
  9 10  2  0
 10 11  1  0
  3 12  1  0
 12 13  1  0
 13 14  2  0
 14 15  1  0
 15 16  1  0
 16 17  2  0
 17 18  1  0
 18 19  2  0
 19 20  1  0
 20 21  2  0
 15 22  2  0
 22 23  1  0
 23 24  1  0
 24 25  1  0
 24 26  1  0
 24 27  1  0
 23 28  2  0
 28  2  1  0
 11  7  1  0
 28 13  1  0
 21 16  1  0
M  END
>  <Binding energies>  (58) 
[-7.21]

>  <Ligand effiencies>  (58) 
[-0.23258064516129032]

>  <Interactions>  (58) 
["V-A:ALA:541:CB:4892, V-A:TYR:539:CE1:4875, V-A:TYR:539:CD1:4873, V-B:LEU:475:CD1:9229, V-A:GLU:543:CD:4908, V-A:TYR:484:CZ:4346, H-A:GLU:543:OE1:4909, H-B:GLU:543:OE1:9881, V-B:GLU:543:CG:9879, V-B:GLU:543:CD:9880, V-A:TYR:484:CE2:4345, V-A:HIS:456:CE1:4069, V-A:GLU:543:CG:4907, V-B:GLU:543:CA:9876, V-B:HIS:456:CE1:9041, V-B:TYR:484:CE2:9317, V-A:GLU:543:CB:4906, V-B:GLU:543:C:9874, V-B:GLU:543:CB:9878, V-B:PRO:482:CB:9297, V-A:TYR:539:CB:4871, V-B:ILE:369:CG2:8208, V-B:PRO:482:CG:9298, V-B:ASP:366:CG:8184, V-B:LEU:373:CD1:8251, V-B:ASP:366:CB:8183, V-A:TYR:484:CD2:4343, H-B:GLU:543:OE2:9882, V-B:SER:385:CB:8380, V-B:ARG:545:CZ:9898, V-B:TYR:484:CZ:9318, V-A:TYR:539:CG:4872"]

$$$$
4ck_Grossjean_2025
     RDKit          3D

 33 35  0  0  0  0  0  0  0  0999 V2000
  133.7620  124.7470   62.8020 C   0  0  0  0  0  0  0  0  0  0  0  0
  133.8770  124.7480   64.2170 O   0  0  0  0  0  0  0  0  0  0  0  0
  132.7010  125.1940   64.8780 C   0  0  0  0  0  0  0  0  0  0  0  0
  133.0920  125.8260   66.2210 C   0  0  0  0  0  0  0  0  0  0  0  0
  132.3740  127.0410   66.3880 O   0  0  0  0  0  0  0  0  0  0  0  0
  132.1360  127.3770   67.7480 C   0  0  0  0  0  0  0  0  0  0  0  0
  130.6510  127.1660   68.0660 C   0  0  0  0  0  0  0  0  0  0  0  0
  130.2920  125.8370   67.7110 O   0  0  0  0  0  0  0  0  0  0  0  0
  129.0280  125.7360   67.0670 C   0  0  0  0  0  0  0  0  0  0  0  0
  128.0970  126.8450   67.5800 C   0  0  0  0  0  0  0  0  0  0  0  0
  127.7480  127.8000   66.5290 N   0  0  0  0  0  0  0  0  0  0  0  0
  127.7210  129.1430   66.6590 C   0  0  0  0  0  0  0  0  0  0  0  0
  128.0260  129.7170   67.7060 O   0  0  0  0  0  0  0  0  0  0  0  0
  127.3160  129.8930   65.4690 C   0  0  0  0  0  0  0  0  0  0  0  0
  127.2780  131.6540   65.5050 S   0  0  0  0  0  0  0  0  0  0  0  0
  126.7960  131.7190   63.8260 C   0  0  0  0  0  0  0  0  0  0  0  0
  126.5890  132.8790   63.2070 N   0  0  0  0  0  0  0  0  0  0  0  0
  126.2150  132.8310   61.9020 C   0  0  0  0  0  0  0  0  0  0  0  0
  126.0070  134.1560   61.2280 C   0  0  0  0  0  0  0  0  0  0  0  0
  127.0130  135.1370   61.2440 C   0  0  0  0  0  0  0  0  0  0  0  0
  126.8250  136.3700   60.6230 C   0  0  0  0  0  0  0  0  0  0  0  0
  125.6250  136.6400   59.9750 C   0  0  0  0  0  0  0  0  0  0  0  0
  124.6140  135.6850   59.9400 C   0  0  0  0  0  0  0  0  0  0  0  0
  124.8060  134.4530   60.5610 C   0  0  0  0  0  0  0  0  0  0  0  0
  126.0610  131.6180   61.2220 C   0  0  0  0  0  0  0  0  0  0  0  0
  126.2760  130.3890   61.8650 C   0  0  0  0  0  0  0  0  0  0  0  0
  126.0850  129.0970   61.0610 C   0  0  0  0  0  0  0  0  0  0  0  0
  127.2370  128.5240   60.7100 F   0  0  0  0  0  0  0  0  0  0  0  0
  125.4030  128.2120   61.7860 F   0  0  0  0  0  0  0  0  0  0  0  0
  125.4120  129.3600   59.9410 F   0  0  0  0  0  0  0  0  0  0  0  0
  126.6650  130.4280   63.2350 C   0  0  0  0  0  0  0  0  0  0  0  0
  126.9770  129.4010   64.1990 C   0  0  0  0  0  0  0  0  0  0  0  0
  126.9410  128.0630   63.8980 N   0  0  0  0  0  0  0  0  0  0  0  0
  1  2  1  0
  2  3  1  0
  3  4  1  0
  4  5  1  0
  5  6  1  0
  6  7  1  0
  7  8  1  0
  8  9  1  0
  9 10  1  0
 10 11  1  0
 11 12  1  0
 12 13  2  0
 12 14  1  0
 14 15  1  0
 15 16  1  0
 16 17  2  0
 17 18  1  0
 18 19  1  0
 19 20  2  0
 20 21  1  0
 21 22  2  0
 22 23  1  0
 23 24  2  0
 18 25  2  0
 25 26  1  0
 26 27  1  0
 27 28  1  0
 27 29  1  0
 27 30  1  0
 26 31  2  0
 31 32  1  0
 32 33  1  0
 32 14  2  0
 31 16  1  0
 24 19  1  0
M  END
>  <Binding energies>  (59) 
[-6.94]

>  <Ligand effiencies>  (59) 
[-0.1927777777777778]

>  <Interactions>  (59) 
["V-A:ALA:541:CB:4892, V-A:TYR:539:CE1:4875, V-A:TYR:539:CD1:4873, V-B:LEU:475:CD1:9229, V-A:GLU:543:CD:4908, V-A:TYR:539:C:4867, V-A:ASP:366:CG:3212, V-A:ARG:545:CD:4923, V-A:ARG:545:CG:4922, H-A:TYR:484:OH:4347, H-A:ARG:545:NH2:4928, H-A:GLU:543:OE1:4909, V-A:ARG:545:CZ:4926, H-A:GLY:454:N:4049, H-A:ARG:545:NE:4924, H-B:GLU:543:OE1:9881, V-B:GLU:543:CG:9879, V-B:GLU:543:CD:9880, V-A:HIS:456:CE1:4069, V-A:GLU:543:CG:4907, V-B:HIS:456:CE1:9041, V-B:TYR:484:CE2:9317, V-A:GLU:543:CB:4906, V-B:GLU:543:CB:9878, H-B:TYR:484:OH:9319, V-B:PRO:482:CB:9297, V-A:TYR:539:CB:4871, V-B:ILE:369:CG2:8208, V-B:PRO:482:CG:9298, V-B:ASP:366:CG:8184, V-B:LEU:373:CD1:8251, V-B:ASP:366:CB:8183, H-B:GLU:543:OE2:9882, V-B:SER:385:CB:8380, V-B:ARG:545:CZ:9898, V-B:TYR:484:CZ:9318, V-A:TYR:539:CG:4872"]

$$$$
4dd_Grossjean_2025
     RDKit          3D

 26 29  0  0  0  0  0  0  0  0999 V2000
  125.9720  129.1530   60.4330 C   0  0  0  0  0  0  0  0  0  0  0  0
  126.0900  130.3540   61.3580 C   0  0  0  0  0  0  0  0  0  0  0  0
  126.0000  131.6330   60.7940 C   0  0  0  0  0  0  0  0  0  0  0  0
  126.1000  132.7800   61.5920 C   0  0  0  0  0  0  0  0  0  0  0  0
  126.0130  134.1610   61.0140 C   0  0  0  0  0  0  0  0  0  0  0  0
  124.8880  134.5630   60.2750 C   0  0  0  0  0  0  0  0  0  0  0  0
  124.7990  135.8440   59.7380 C   0  0  0  0  0  0  0  0  0  0  0  0
  125.8380  136.7470   59.9330 C   0  0  0  0  0  0  0  0  0  0  0  0
  126.9630  136.3780   60.6630 C   0  0  0  0  0  0  0  0  0  0  0  0
  127.0470  135.0950   61.1990 C   0  0  0  0  0  0  0  0  0  0  0  0
  126.3010  132.7050   62.9360 N   0  0  0  0  0  0  0  0  0  0  0  0
  126.3810  131.4890   63.4740 C   0  0  0  0  0  0  0  0  0  0  0  0
  126.6190  131.2480   65.1900 S   0  0  0  0  0  0  0  0  0  0  0  0
  126.5940  129.4940   64.9950 C   0  0  0  0  0  0  0  0  0  0  0  0
  126.7400  128.6170   66.1590 C   0  0  0  0  0  0  0  0  0  0  0  0
  125.7860  127.9510   66.5660 O   0  0  0  0  0  0  0  0  0  0  0  0
  127.9730  128.5980   66.7210 N   0  0  0  0  0  0  0  0  0  0  0  0
  128.4260  127.9150   67.8640 C   0  0  0  0  0  0  0  0  0  0  0  0
  129.0010  128.7080   68.8620 C   0  0  0  0  0  0  0  0  0  0  0  0
  129.4680  128.1270   70.0380 C   0  0  0  0  0  0  0  0  0  0  0  0
  129.3530  126.7520   70.2210 C   0  0  0  0  0  0  0  0  0  0  0  0
  128.7710  125.9520   69.2410 C   0  0  0  0  0  0  0  0  0  0  0  0
  128.3040  126.5290   68.0640 C   0  0  0  0  0  0  0  0  0  0  0  0
  126.4140  129.1380   63.6500 C   0  0  0  0  0  0  0  0  0  0  0  0
  126.3600  127.8410   63.2040 N   0  0  0  0  0  0  0  0  0  0  0  0
  126.2860  130.2620   62.7600 C   0  0  0  0  0  0  0  0  0  0  0  0
  1  2  1  0
  2  3  2  0
  3  4  1  0
  4  5  1  0
  5  6  2  0
  6  7  1  0
  7  8  2  0
  8  9  1  0
  9 10  2  0
  4 11  2  0
 11 12  1  0
 12 13  1  0
 13 14  1  0
 14 15  1  0
 15 16  2  0
 15 17  1  0
 17 18  1  0
 18 19  2  0
 19 20  1  0
 20 21  2  0
 21 22  1  0
 22 23  2  0
 14 24  2  0
 24 25  1  0
 24 26  1  0
 26  2  1  0
 10  5  1  0
 26 12  2  0
 23 18  1  0
M  END
>  <Binding energies>  (60) 
[-7.93]

>  <Ligand effiencies>  (60) 
[-0.27344827586206893]

>  <Interactions>  (60) 
["V-A:ALA:541:CB:4892, V-A:TYR:539:CE1:4875, V-A:TYR:539:CD1:4873, V-B:LEU:475:CD1:9229, V-A:GLU:543:CD:4908, V-A:TYR:539:C:4867, H-A:GLU:543:OE1:4909, H-B:GLU:543:OE1:9881, H-B:ASP:366:OD1:8185, V-B:GLU:543:CD:9880, V-A:HIS:456:CE1:4069, V-A:GLU:543:CG:4907, V-B:HIS:456:CE1:9041, V-B:TYR:484:CE2:9317, V-A:GLU:543:CB:4906, V-B:GLU:543:C:9874, V-B:GLU:543:CB:9878, V-B:PRO:482:CB:9297, V-A:TYR:539:CB:4871, V-B:ILE:369:CG2:8208, V-B:PRO:482:CG:9298, V-B:ASP:366:CG:8184, V-B:LEU:373:CD1:8251, H-B:GLU:543:OE2:9882, V-B:SER:385:CB:8380, V-A:GLU:543:C:4902, H-B:ARG:545:NE:9896, V-B:ARG:545:CZ:9898, V-B:TYR:484:CZ:9318, V-A:TYR:539:CG:4872"]

$$$$
4dg_Grossjean_2025
     RDKit          3D

 27 30  0  0  0  0  0  0  0  0999 V2000
  123.4080  130.0050   63.1540 C   0  0  0  0  0  0  0  0  0  0  0  0
  124.5820  130.9700   63.2340 C   0  0  0  0  0  0  0  0  0  0  0  0
  124.5680  132.0970   62.4040 C   0  0  0  0  0  0  0  0  0  0  0  0
  125.6180  133.0230   62.4300 C   0  0  0  0  0  0  0  0  0  0  0  0
  125.6310  134.2420   61.5520 C   0  0  0  0  0  0  0  0  0  0  0  0
  124.5450  134.5370   60.7120 C   0  0  0  0  0  0  0  0  0  0  0  0
  124.5530  135.6640   59.8930 C   0  0  0  0  0  0  0  0  0  0  0  0
  125.6510  136.5160   59.9030 C   0  0  0  0  0  0  0  0  0  0  0  0
  126.7430  136.2470   60.7230 C   0  0  0  0  0  0  0  0  0  0  0  0
  126.7310  135.1190   61.5380 C   0  0  0  0  0  0  0  0  0  0  0  0
  126.6800  132.8810   63.2690 N   0  0  0  0  0  0  0  0  0  0  0  0
  126.6950  131.8080   64.0590 C   0  0  0  0  0  0  0  0  0  0  0  0
  128.0030  131.5010   65.1780 S   0  0  0  0  0  0  0  0  0  0  0  0
  127.2330  130.0170   65.7380 C   0  0  0  0  0  0  0  0  0  0  0  0
  127.8920  129.1800   66.7390 C   0  0  0  0  0  0  0  0  0  0  0  0
  128.4350  129.6710   67.7310 O   0  0  0  0  0  0  0  0  0  0  0  0
  127.8990  127.8540   66.4870 N   0  0  0  0  0  0  0  0  0  0  0  0
  128.4780  126.8300   67.3560 C   0  0  0  0  0  0  0  0  0  0  0  0
  129.9160  126.4740   66.9970 C   0  0  0  0  0  0  0  0  0  0  0  0
  130.1750  125.6620   65.8890 C   0  0  0  0  0  0  0  0  0  0  0  0
  131.4880  125.3610   65.5400 C   0  0  0  0  0  0  0  0  0  0  0  0
  132.5390  125.8820   66.2920 C   0  0  0  0  0  0  0  0  0  0  0  0
  132.2890  126.7060   67.3870 C   0  0  0  0  0  0  0  0  0  0  0  0
  130.9760  127.0080   67.7360 C   0  0  0  0  0  0  0  0  0  0  0  0
  126.0260  129.7820   65.0620 C   0  0  0  0  0  0  0  0  0  0  0  0
  125.2250  128.6920   65.2880 N   0  0  0  0  0  0  0  0  0  0  0  0
  125.6900  130.8010   64.1040 C   0  0  0  0  0  0  0  0  0  0  0  0
  1  2  1  0
  2  3  2  0
  3  4  1  0
  4  5  1  0
  5  6  2  0
  6  7  1  0
  7  8  2  0
  8  9  1  0
  9 10  2  0
  4 11  2  0
 11 12  1  0
 12 13  1  0
 13 14  1  0
 14 15  1  0
 15 16  2  0
 15 17  1  0
 17 18  1  0
 18 19  1  0
 19 20  2  0
 20 21  1  0
 21 22  2  0
 22 23  1  0
 23 24  2  0
 14 25  2  0
 25 26  1  0
 25 27  1  0
 27  2  1  0
 10  5  1  0
 27 12  2  0
 24 19  1  0
M  END
>  <Binding energies>  (61) 
[-8.44]

>  <Ligand effiencies>  (61) 
[-0.2813333333333333]

>  <Interactions>  (61) 
["V-A:ALA:541:CB:4892, V-A:TYR:539:CD1:4873, V-B:LEU:475:CD1:9229, V-A:GLU:543:CD:4908, V-A:ARG:545:CD:4923, V-A:ARG:545:CG:4922, V-A:TYR:484:CZ:4346, H-A:GLU:543:OE1:4909, V-A:ARG:545:CZ:4926, V-A:HIS:456:CE1:4069, V-A:GLU:543:CG:4907, V-B:HIS:456:CE1:9041, V-B:TYR:484:CE2:9317, V-A:GLU:543:CB:4906, V-B:GLU:543:CB:9878, H-B:TYR:484:OH:9319, V-B:PRO:482:CB:9297, V-A:TYR:539:CB:4871, V-B:GLY:454:CA:9020, V-B:ILE:369:CG2:8208, V-B:ILE:369:CD1:8210, V-B:PRO:482:CG:9298, V-B:ASP:366:CG:8184, V-B:LEU:373:CD1:8251, H-B:GLU:543:OE2:9882, V-B:SER:385:CB:8380, V-B:ARG:545:CD:9895, V-B:GLY:453:C:9013, V-B:GLY:453:CA:9015, V-B:ARG:545:CZ:9898, V-A:TYR:539:CG:4872"]

$$$$
4dj_Grossjean_2025
     RDKit          3D

 25 28  0  0  0  0  0  0  0  0999 V2000
  125.2540  129.2750   61.5130 C   0  0  0  0  0  0  0  0  0  0  0  0
  125.7740  130.5460   62.1690 C   0  0  0  0  0  0  0  0  0  0  0  0
  125.6100  131.7560   61.4850 C   0  0  0  0  0  0  0  0  0  0  0  0
  126.0680  132.9600   62.0340 C   0  0  0  0  0  0  0  0  0  0  0  0
  125.9010  134.2740   61.3260 C   0  0  0  0  0  0  0  0  0  0  0  0
  126.9120  135.2490   61.3680 C   0  0  0  0  0  0  0  0  0  0  0  0
  126.7650  136.4690   60.7140 C   0  0  0  0  0  0  0  0  0  0  0  0
  125.5960  136.7360   60.0080 C   0  0  0  0  0  0  0  0  0  0  0  0
  124.5760  135.7910   59.9530 C   0  0  0  0  0  0  0  0  0  0  0  0
  124.7290  134.5720   60.6070 C   0  0  0  0  0  0  0  0  0  0  0  0
  126.6710  133.0110   63.2530 N   0  0  0  0  0  0  0  0  0  0  0  0
  126.8280  131.8600   63.9040 C   0  0  0  0  0  0  0  0  0  0  0  0
  127.5940  131.7790   65.4750 S   0  0  0  0  0  0  0  0  0  0  0  0
  127.3740  130.0290   65.5450 C   0  0  0  0  0  0  0  0  0  0  0  0
  127.8480  129.2700   66.7030 C   0  0  0  0  0  0  0  0  0  0  0  0
  128.1450  129.8440   67.7550 O   0  0  0  0  0  0  0  0  0  0  0  0
  127.9380  127.9290   66.5250 N   0  0  0  0  0  0  0  0  0  0  0  0
  128.3580  126.9890   67.4550 C   0  0  0  0  0  0  0  0  0  0  0  0
  128.0830  126.9470   68.7420 N   0  0  0  0  0  0  0  0  0  0  0  0
  128.6510  125.9100   69.3250 C   0  0  0  0  0  0  0  0  0  0  0  0
  129.4070  125.0790   68.5030 C   0  0  0  0  0  0  0  0  0  0  0  0
  129.3670  125.7010   66.8800 S   0  0  0  0  0  0  0  0  0  0  0  0
  126.7360  129.5540   64.3890 C   0  0  0  0  0  0  0  0  0  0  0  0
  126.4400  128.2320   64.1700 N   0  0  0  0  0  0  0  0  0  0  0  0
  126.4110  130.5810   63.4370 C   0  0  0  0  0  0  0  0  0  0  0  0
  1  2  1  0
  2  3  2  0
  3  4  1  0
  4  5  1  0
  5  6  2  0
  6  7  1  0
  7  8  2  0
  8  9  1  0
  9 10  2  0
  4 11  2  0
 11 12  1  0
 12 13  1  0
 13 14  1  0
 14 15  1  0
 15 16  2  0
 15 17  1  0
 17 18  1  0
 18 19  2  0
 19 20  1  0
 20 21  2  0
 21 22  1  0
 14 23  2  0
 23 24  1  0
 23 25  1  0
 25  2  1  0
 10  5  1  0
 25 12  2  0
 22 18  1  0
M  END
>  <Binding energies>  (62) 
[-7.8]

>  <Ligand effiencies>  (62) 
[-0.2785714285714286]

>  <Interactions>  (62) 
["V-A:ALA:541:CB:4892, V-A:TYR:539:CD1:4873, V-B:LEU:475:CD1:9229, V-A:GLU:543:CD:4908, V-A:TYR:484:CZ:4346, H-A:GLU:543:OE1:4909, V-B:GLU:543:CG:9879, V-B:GLU:543:CD:9880, V-A:TYR:484:CE2:4345, V-A:HIS:456:CE1:4069, V-A:GLU:543:CG:4907, V-B:GLU:543:CA:9876, V-B:HIS:456:CE1:9041, V-B:TYR:484:CE2:9317, V-A:GLU:543:CB:4906, V-B:GLU:543:C:9874, V-B:GLU:543:CB:9878, H-B:TYR:484:OH:9319, V-B:PRO:482:CB:9297, V-A:TYR:539:CB:4871, V-B:ILE:369:CG2:8208, V-B:PRO:482:CG:9298, V-B:ASP:366:CG:8184, V-B:LEU:373:CD1:8251, V-B:ASP:366:CB:8183, H-B:GLU:543:OE2:9882, V-B:SER:385:CB:8380, V-B:ARG:545:CZ:9898, V-B:TYR:484:CZ:9318, V-A:TYR:539:CG:4872"]

$$$$
4ea_Grossjean_2025
     RDKit          3D

 31 34  0  0  0  0  0  0  0  0999 V2000
  130.1480  117.3180   60.1570 C   0  0  0  0  0  0  0  0  0  0  0  0
  131.3880  117.8230   60.9000 C   0  0  0  0  0  0  0  0  0  0  0  0
  131.9410  118.9290   60.1980 O   0  0  0  0  0  0  0  0  0  0  0  0
  132.9830  119.6350   60.7090 C   0  0  0  0  0  0  0  0  0  0  0  0
  134.1620  119.4170   60.4130 O   0  0  0  0  0  0  0  0  0  0  0  0
  132.5580  120.7070   61.6700 C   0  0  0  0  0  0  0  0  0  0  0  0
  131.1920  120.9410   61.8710 C   0  0  0  0  0  0  0  0  0  0  0  0
  130.7650  121.9280   62.7560 C   0  0  0  0  0  0  0  0  0  0  0  0
  131.6930  122.7000   63.4560 C   0  0  0  0  0  0  0  0  0  0  0  0
  131.1460  123.6670   64.3220 N   0  0  0  0  0  0  0  0  0  0  0  0
  130.2080  124.6190   64.0950 C   0  0  0  0  0  0  0  0  0  0  0  0
  129.6470  124.7970   63.0130 O   0  0  0  0  0  0  0  0  0  0  0  0
  129.8820  125.4610   65.2490 C   0  0  0  0  0  0  0  0  0  0  0  0
  130.6420  125.1650   66.8150 S   0  0  0  0  0  0  0  0  0  0  0  0
  129.7700  126.4920   67.5450 C   0  0  0  0  0  0  0  0  0  0  0  0
  129.9220  126.8140   68.8310 N   0  0  0  0  0  0  0  0  0  0  0  0
  129.1880  127.8640   69.2730 C   0  0  0  0  0  0  0  0  0  0  0  0
  129.3760  128.2120   70.7380 C   0  0  0  0  0  0  0  0  0  0  0  0
  128.3140  128.5930   68.4690 C   0  0  0  0  0  0  0  0  0  0  0  0
  128.1580  128.2520   67.1210 C   0  0  0  0  0  0  0  0  0  0  0  0
  127.2260  129.0360   66.2800 C   0  0  0  0  0  0  0  0  0  0  0  0
  125.8700  128.6960   66.2270 C   0  0  0  0  0  0  0  0  0  0  0  0
  124.9930  129.4340   65.4380 C   0  0  0  0  0  0  0  0  0  0  0  0
  125.4720  130.5110   64.6960 C   0  0  0  0  0  0  0  0  0  0  0  0
  126.8210  130.8560   64.7370 C   0  0  0  0  0  0  0  0  0  0  0  0
  127.6970  130.1170   65.5270 C   0  0  0  0  0  0  0  0  0  0  0  0
  128.9110  127.1560   66.6180 C   0  0  0  0  0  0  0  0  0  0  0  0
  128.9940  126.5470   65.3150 C   0  0  0  0  0  0  0  0  0  0  0  0
  128.2640  127.0010   64.2470 N   0  0  0  0  0  0  0  0  0  0  0  0
  133.0640  122.4720   63.2610 C   0  0  0  0  0  0  0  0  0  0  0  0
  133.4880  121.4850   62.3760 C   0  0  0  0  0  0  0  0  0  0  0  0
  1  2  1  0
  2  3  1  0
  3  4  1  0
  4  5  2  0
  4  6  1  0
  6  7  2  0
  7  8  1  0
  8  9  2  0
  9 10  1  0
 10 11  1  0
 11 12  2  0
 11 13  1  0
 13 14  1  0
 14 15  1  0
 15 16  2  0
 16 17  1  0
 17 18  1  0
 17 19  2  0
 19 20  1  0
 20 21  1  0
 21 22  2  0
 22 23  1  0
 23 24  2  0
 24 25  1  0
 25 26  2  0
 20 27  2  0
 27 28  1  0
 28 29  1  0
  9 30  1  0
 30 31  2  0
 31  6  1  0
 28 13  2  0
 27 15  1  0
 26 21  1  0
M  END
>  <Binding energies>  (63) 
[-7.29]

>  <Ligand effiencies>  (63) 
[-0.21441176470588236]

>  <Interactions>  (63) 
["V-A:GLU:543:CD:4908, H-A:TYR:484:OH:4347, V-A:GLY:454:CA:4048, V-A:TYR:484:CZ:4346, H-A:GLU:543:OE1:4909, V-A:ILE:369:CG2:3236, H-A:SER:385:OG:3409, V-A:LEU:475:CD1:4257, V-A:PRO:482:CG:4326, V-B:GLU:543:CG:9879, V-B:ALA:541:CB:9864, V-B:GLU:543:CD:9880, V-B:TYR:539:C:9839, V-A:TYR:484:CE2:4345, V-A:HIS:456:CE1:4069, V-A:GLU:543:CG:4907, V-B:HIS:456:CE1:9041, V-B:TYR:484:CE2:9317, H-B:GLU:543:OE2:9882, V-B:ARG:545:CZ:9898, V-B:HIS:456:CD2:9039, V-B:TYR:539:CB:9843"]

$$$$
4eb_Grossjean_2025
     RDKit          3D

 30 33  0  0  0  0  0  0  0  0999 V2000
  130.9670  117.6240   60.2270 C   0  0  0  0  0  0  0  0  0  0  0  0
  132.3280  118.0040   60.3670 O   0  0  0  0  0  0  0  0  0  0  0  0
  132.6790  119.0810   61.1190 C   0  0  0  0  0  0  0  0  0  0  0  0
  133.7010  119.1240   61.8080 O   0  0  0  0  0  0  0  0  0  0  0  0
  131.6970  120.2140   61.0260 C   0  0  0  0  0  0  0  0  0  0  0  0
  131.9080  121.2250   60.0800 C   0  0  0  0  0  0  0  0  0  0  0  0
  131.0170  122.2880   59.9690 C   0  0  0  0  0  0  0  0  0  0  0  0
  129.8980  122.3630   60.8000 C   0  0  0  0  0  0  0  0  0  0  0  0
  129.0660  123.4820   60.5990 N   0  0  0  0  0  0  0  0  0  0  0  0
  127.7770  123.6940   60.9600 C   0  0  0  0  0  0  0  0  0  0  0  0
  127.0830  122.8770   61.5670 O   0  0  0  0  0  0  0  0  0  0  0  0
  127.2270  124.9980   60.5790 C   0  0  0  0  0  0  0  0  0  0  0  0
  126.7870  125.3230   58.9010 S   0  0  0  0  0  0  0  0  0  0  0  0
  126.2700  126.9450   59.3000 C   0  0  0  0  0  0  0  0  0  0  0  0
  125.7880  127.7790   58.3770 N   0  0  0  0  0  0  0  0  0  0  0  0
  125.4230  129.0070   58.8170 C   0  0  0  0  0  0  0  0  0  0  0  0
  124.8770  129.9400   57.7500 C   0  0  0  0  0  0  0  0  0  0  0  0
  125.5270  129.4190   60.1430 C   0  0  0  0  0  0  0  0  0  0  0  0
  126.0330  128.5410   61.1090 C   0  0  0  0  0  0  0  0  0  0  0  0
  126.1370  128.9920   62.5150 C   0  0  0  0  0  0  0  0  0  0  0  0
  127.3930  129.1600   63.1080 C   0  0  0  0  0  0  0  0  0  0  0  0
  127.4920  129.5860   64.4300 C   0  0  0  0  0  0  0  0  0  0  0  0
  126.3340  129.8420   65.1610 C   0  0  0  0  0  0  0  0  0  0  0  0
  125.0780  129.6750   64.5800 C   0  0  0  0  0  0  0  0  0  0  0  0
  124.9810  129.2490   63.2580 C   0  0  0  0  0  0  0  0  0  0  0  0
  126.4270  127.2410   60.6880 C   0  0  0  0  0  0  0  0  0  0  0  0
  126.9750  126.1130   61.3930 C   0  0  0  0  0  0  0  0  0  0  0  0
  127.2230  126.1430   62.7420 N   0  0  0  0  0  0  0  0  0  0  0  0
  129.6780  121.3550   61.7510 C   0  0  0  0  0  0  0  0  0  0  0  0
  130.5710  120.2920   61.8600 C   0  0  0  0  0  0  0  0  0  0  0  0
  1  2  1  0
  2  3  1  0
  3  4  2  0
  3  5  1  0
  5  6  2  0
  6  7  1  0
  7  8  2  0
  8  9  1  0
  9 10  1  0
 10 11  2  0
 10 12  1  0
 12 13  1  0
 13 14  1  0
 14 15  2  0
 15 16  1  0
 16 17  1  0
 16 18  2  0
 18 19  1  0
 19 20  1  0
 20 21  2  0
 21 22  1  0
 22 23  2  0
 23 24  1  0
 24 25  2  0
 19 26  2  0
 26 27  1  0
 27 28  1  0
  8 29  1  0
 29 30  2  0
 30  5  1  0
 27 12  2  0
 26 14  1  0
 25 20  1  0
M  END
>  <Binding energies>  (64) 
[-7.41]

>  <Ligand effiencies>  (64) 
[-0.22454545454545455]

>  <Interactions>  (64) 
["V-A:TYR:539:CE1:4875, V-A:GLU:543:CD:4908, V-B:TYR:539:CD2:9846, H-A:SER:385:OG:3409, V-B:TYR:539:CE2:9848, V-A:LEU:475:CD1:4257, V-A:HIS:383:CE1:3392, H-B:ALA:541:N:9863, H-A:HIS:383:NE2:3393, V-A:PRO:482:CG:4326, H-B:GLU:543:OE1:9881, V-B:ALA:541:CB:9864, V-B:GLU:543:CD:9880, V-B:ALA:541:CA:9862, V-B:ASP:366:CG:8184, V-B:ASP:366:CB:8183, H-B:GLU:543:OE2:9882, V-B:ARG:545:CZ:9898, H-B:TYR:531:OH:9767, V-B:ASP:366:C:8179, V-A:TYR:539:CZ:4877"]

$$$$
8b_Ghoteimi_2023
     RDKit          3D

 34 38  0  0  0  0  0  0  0  0999 V2000
  127.8900  131.2070   75.0960 C   0  0  0  0  0  0  0  0  0  0  0  0
  128.9910  130.3960   74.7010 O   0  0  0  0  0  0  0  0  0  0  0  0
  129.0110  129.8610   73.4270 C   0  0  0  0  0  0  0  0  0  0  0  0
  128.3140  130.5620   72.4450 C   0  0  0  0  0  0  0  0  0  0  0  0
  128.2780  130.0980   71.1350 C   0  0  0  0  0  0  0  0  0  0  0  0
  128.9400  128.9170   70.7700 C   0  0  0  0  0  0  0  0  0  0  0  0
  128.9030  128.4120   69.3620 C   0  0  0  0  0  0  0  0  0  0  0  0
  128.2450  129.1120   68.3450 C   0  0  0  0  0  0  0  0  0  0  0  0
  128.2260  128.6190   67.0380 C   0  0  0  0  0  0  0  0  0  0  0  0
  127.5110  129.3790   65.9860 C   0  0  0  0  0  0  0  0  0  0  0  0
  126.4570  128.7900   65.2860 C   0  0  0  0  0  0  0  0  0  0  0  0
  125.7800  129.5100   64.3050 C   0  0  0  0  0  0  0  0  0  0  0  0
  126.1470  130.8230   64.0080 C   0  0  0  0  0  0  0  0  0  0  0  0
  125.4180  131.4600   63.0220 O   0  0  0  0  0  0  0  0  0  0  0  0
  125.9550  132.6240   62.4040 C   0  0  0  0  0  0  0  0  0  0  0  0
  127.2100  131.4110   64.7110 C   0  0  0  0  0  0  0  0  0  0  0  0
  127.8860  130.6910   65.6920 C   0  0  0  0  0  0  0  0  0  0  0  0
  128.8990  127.3960   66.7740 C   0  0  0  0  0  0  0  0  0  0  0  0
  129.0830  126.6210   65.5750 C   0  0  0  0  0  0  0  0  0  0  0  0
  128.5660  127.0080   64.3650 N   0  0  0  0  0  0  0  0  0  0  0  0
  129.8330  125.4500   65.7640 C   0  0  0  0  0  0  0  0  0  0  0  0
  130.2120  124.4410   64.7730 C   0  0  0  0  0  0  0  0  0  0  0  0
  131.3730  124.0270   64.7080 O   0  0  0  0  0  0  0  0  0  0  0  0
  129.2110  124.0180   63.9600 N   0  0  0  0  0  0  0  0  0  0  0  0
  129.2880  123.0740   62.9450 C   0  0  0  0  0  0  0  0  0  0  0  0
  130.4960  122.5930   62.4420 C   0  0  0  0  0  0  0  0  0  0  0  0
  130.1440  121.6940   61.4620 C   0  0  0  0  0  0  0  0  0  0  0  0
  128.7940  121.6330   61.3810 O   0  0  0  0  0  0  0  0  0  0  0  0
  128.2610  122.5120   62.3270 N   0  0  0  0  0  0  0  0  0  0  0  0
  130.3350  125.2800   67.4470 S   0  0  0  0  0  0  0  0  0  0  0  0
  129.5390  126.7740   67.8840 C   0  0  0  0  0  0  0  0  0  0  0  0
  129.5560  127.2410   69.1320 N   0  0  0  0  0  0  0  0  0  0  0  0
  129.6420  128.2180   71.7610 C   0  0  0  0  0  0  0  0  0  0  0  0
  129.6790  128.6790   73.0740 C   0  0  0  0  0  0  0  0  0  0  0  0
  1  2  1  0
  2  3  1  0
  3  4  2  0
  4  5  1  0
  5  6  2  0
  6  7  1  0
  7  8  2  0
  8  9  1  0
  9 10  1  0
 10 11  2  0
 11 12  1  0
 12 13  2  0
 13 14  1  0
 14 15  1  0
 13 16  1  0
 16 17  2  0
  9 18  2  0
 18 19  1  0
 19 20  1  0
 19 21  2  0
 21 22  1  0
 22 23  2  0
 22 24  1  0
 24 25  1  0
 25 26  1  0
 26 27  2  0
 27 28  1  0
 28 29  1  0
 21 30  1  0
 30 31  1  0
 31 32  2  0
  6 33  1  0
 33 34  2  0
 34  3  1  0
 32  7  1  0
 17 10  1  0
 31 18  1  0
 29 25  2  0
M  END
>  <Binding energies>  (65) 
[-7.35]

>  <Ligand effiencies>  (65) 
[-0.19864864864864865]

>  <Interactions>  (65) 
["V-A:ALA:541:CB:4892, V-B:LEU:475:CD1:9229, V-A:GLU:543:CD:4908, H-A:TYR:484:OH:4347, V-A:TYR:484:CZ:4346, H-A:GLU:543:OE1:4909, H-B:ALA:541:N:9863, H-B:GLU:543:OE1:9881, V-B:GLU:543:CG:9879, V-B:ALA:541:CB:9864, V-B:GLU:543:CD:9880, V-A:TYR:484:CE2:4345, V-A:HIS:456:CE1:4069, V-A:GLU:543:CG:4907, V-B:HIS:456:CE1:9041, V-B:TYR:484:CE2:9317, V-A:GLU:543:CB:4906, H-B:GLU:543:OE2:9882, V-A:GLU:543:C:4902, V-B:TYR:484:CD2:9315, V-B:ARG:545:CZ:9898, V-B:HIS:456:CG:9037, V-B:HIS:456:CD2:9039, H-A:LYS:547:NZ:4951"]

$$$$
9d_Ghoteimi_2023
     RDKit          3D

 38 43  0  0  0  0  0  0  0  0999 V2000
  124.4670  130.2500   63.2650 C   0  0  0  0  0  0  0  0  0  0  0  0
  125.0110  130.7280   64.4870 O   0  0  0  0  0  0  0  0  0  0  0  0
  126.3520  130.8880   64.6370 C   0  0  0  0  0  0  0  0  0  0  0  0
  126.9180  131.9840   64.6550 O   0  0  0  0  0  0  0  0  0  0  0  0
  127.0730  129.6030   64.7730 C   0  0  0  0  0  0  0  0  0  0  0  0
  127.3690  128.6070   63.3490 S   0  0  0  0  0  0  0  0  0  0  0  0
  128.2160  127.4170   64.3090 C   0  0  0  0  0  0  0  0  0  0  0  0
  128.7620  126.3350   63.7550 N   0  0  0  0  0  0  0  0  0  0  0  0
  129.4140  125.4790   64.5860 C   0  0  0  0  0  0  0  0  0  0  0  0
  130.0400  124.2850   63.9390 C   0  0  0  0  0  0  0  0  0  0  0  0
  129.2620  123.3910   63.1960 C   0  0  0  0  0  0  0  0  0  0  0  0
  129.8350  122.2750   62.5930 C   0  0  0  0  0  0  0  0  0  0  0  0
  131.2110  122.0180   62.6990 C   0  0  0  0  0  0  0  0  0  0  0  0
  131.7980  120.8920   62.1130 N   0  0  0  0  0  0  0  0  0  0  0  0
  130.9750  119.7960   61.5610 C   0  0  0  0  0  0  0  0  0  0  0  0
  131.7670  118.5030   61.2780 C   0  0  0  0  0  0  0  0  0  0  0  0
  132.8710  118.7840   60.4350 O   0  0  0  0  0  0  0  0  0  0  0  0
  133.7600  119.7110   61.0360 C   0  0  0  0  0  0  0  0  0  0  0  0
  133.0310  121.0430   61.3130 C   0  0  0  0  0  0  0  0  0  0  0  0
  131.9830  122.9100   63.4580 C   0  0  0  0  0  0  0  0  0  0  0  0
  131.4090  124.0240   64.0650 C   0  0  0  0  0  0  0  0  0  0  0  0
  129.4890  125.6900   65.9650 C   0  0  0  0  0  0  0  0  0  0  0  0
  128.9010  126.8160   66.5530 C   0  0  0  0  0  0  0  0  0  0  0  0
  128.9880  126.9780   68.0280 C   0  0  0  0  0  0  0  0  0  0  0  0
  128.3060  126.1080   68.8820 C   0  0  0  0  0  0  0  0  0  0  0  0
  128.4050  126.2530   70.2640 C   0  0  0  0  0  0  0  0  0  0  0  0
  129.2020  127.2620   70.8270 C   0  0  0  0  0  0  0  0  0  0  0  0
  129.3100  127.4340   72.2090 N   0  0  0  0  0  0  0  0  0  0  0  0
  129.0210  128.7580   72.7930 C   0  0  0  0  0  0  0  0  0  0  0  0
  128.7960  128.7150   74.3190 C   0  0  0  0  0  0  0  0  0  0  0  0
  129.9120  128.1120   74.9590 O   0  0  0  0  0  0  0  0  0  0  0  0
  130.1190  126.7820   74.5060 C   0  0  0  0  0  0  0  0  0  0  0  0
  130.3810  126.7790   72.9850 C   0  0  0  0  0  0  0  0  0  0  0  0
  129.8810  128.1300   69.9600 C   0  0  0  0  0  0  0  0  0  0  0  0
  129.7800  127.9860   68.5790 C   0  0  0  0  0  0  0  0  0  0  0  0
  128.2500  127.7460   65.6960 C   0  0  0  0  0  0  0  0  0  0  0  0
  127.6040  129.0120   65.9270 C   0  0  0  0  0  0  0  0  0  0  0  0
  127.5360  129.5990   67.1640 N   0  0  0  0  0  0  0  0  0  0  0  0
  1  2  1  0
  2  3  1  0
  3  4  2  0
  3  5  1  0
  5  6  1  0
  6  7  1  0
  7  8  2  0
  8  9  1  0
  9 10  1  0
 10 11  2  0
 11 12  1  0
 12 13  2  0
 13 14  1  0
 14 15  1  0
 15 16  1  0
 16 17  1  0
 17 18  1  0
 18 19  1  0
 13 20  1  0
 20 21  2  0
  9 22  2  0
 22 23  1  0
 23 24  1  0
 24 25  2  0
 25 26  1  0
 26 27  2  0
 27 28  1  0
 28 29  1  0
 29 30  1  0
 30 31  1  0
 31 32  1  0
 32 33  1  0
 27 34  1  0
 34 35  2  0
 23 36  2  0
 36 37  1  0
 37 38  1  0
 37  5  2  0
 36  7  1  0
 21 10  1  0
 35 24  1  0
 19 14  1  0
 33 28  1  0
M  END
>  <Binding energies>  (66) 
[-8.15]

>  <Ligand effiencies>  (66) 
[-0.20375000000000001]

>  <Interactions>  (66) 
["V-A:GLU:543:CD:4908, H-A:GLU:543:OE1:4909, V-A:ILE:369:CG2:3236, H-A:SER:385:OG:3409, V-A:LEU:475:CD1:4257, H-A:HIS:383:NE2:3393, V-A:PRO:482:CG:4326, V-B:GLU:543:CG:9879, V-B:ALA:541:CB:9864, V-B:GLU:543:CD:9880, V-A:SER:385:C:3404, V-A:HIS:456:CE1:4069, V-A:GLU:543:CG:4907, V-B:HIS:456:CE1:9041, V-B:TYR:484:CE2:9317, V-A:GLU:543:CB:4906, V-B:GLU:543:C:9874, V-B:GLU:543:CB:9878, H-B:TYR:484:OH:9319, H-B:GLY:454:N:9021, V-A:SER:385:CA:3406, V-A:GLU:543:C:4902, V-B:HIS:456:CD2:9039, V-B:TYR:484:CZ:9318, H-A:GLU:543:O:4903, H-A:LYS:547:NZ:4951, V-A:HIS:456:CD2:4067, V-A:HIS:456:CG:4065"]

$$$$
RR10_Rahimova_2017
     RDKit          3D

 34 38  0  0  0  0  0  0  0  0999 V2000
  124.1170  123.3820   61.3240 C   0  0  0  0  0  0  0  0  0  0  0  0
  125.3540  123.7630   60.4920 C   0  0  1  0  0  0  0  0  0  0  0  0
  124.9660  124.3000   59.0940 C   0  0  0  0  0  0  0  0  0  0  0  0
  126.2240  124.6420   58.2640 C   0  0  0  0  0  0  0  0  0  0  0  0
  127.1280  125.6820   58.9750 C   0  0  1  0  0  0  0  0  0  0  0  0
  126.4680  126.9930   59.0320 N   0  0  0  0  0  0  0  0  0  0  0  0
  127.0190  128.1230   59.5110 C   0  0  0  0  0  0  0  0  0  0  0  0
  128.1730  128.1780   59.9430 O   0  0  0  0  0  0  0  0  0  0  0  0
  126.1270  129.3820   59.5160 C   0  0  1  0  0  0  0  0  0  0  0  0
  125.0880  129.2810   58.3690 C   0  0  0  0  0  0  0  0  0  0  0  0
  124.1330  130.4980   58.4280 C   0  0  0  0  0  0  0  0  0  0  0  0
  123.5060  130.6920   59.8280 C   0  0  0  0  0  0  0  0  0  0  0  0
  124.5620  130.7140   60.8770 N   0  0  0  0  0  0  0  0  0  0  0  0
  123.9960  131.2260   62.4760 S   0  0  0  0  0  0  0  0  0  0  0  0
  122.8690  130.3660   62.8590 O   0  0  0  0  0  0  0  0  0  0  0  0
  123.8380  132.6850   62.4520 O   0  0  0  0  0  0  0  0  0  0  0  0
  125.3430  130.8360   63.5940 C   0  0  0  0  0  0  0  0  0  0  0  0
  126.5590  131.5160   63.4650 C   0  0  0  0  0  0  0  0  0  0  0  0
  127.6480  131.2570   64.3020 C   0  0  0  0  0  0  0  0  0  0  0  0
  127.4620  130.2810   65.2830 C   0  0  0  0  0  0  0  0  0  0  0  0
  128.2660  129.7520   66.2650 N   0  0  0  0  0  0  0  0  0  0  0  0
  127.5360  128.8000   66.9450 C   0  0  0  0  0  0  0  0  0  0  0  0
  128.0830  127.9940   68.0880 C   0  0  0  0  0  0  0  0  0  0  0  0
  128.8810  128.6010   69.0680 C   0  0  0  0  0  0  0  0  0  0  0  0
  129.3850  127.8560   70.1300 C   0  0  0  0  0  0  0  0  0  0  0  0
  129.0950  126.4970   70.2180 C   0  0  0  0  0  0  0  0  0  0  0  0
  128.3040  125.8780   69.2540 C   0  0  0  0  0  0  0  0  0  0  0  0
  127.8000  126.6250   68.1920 C   0  0  0  0  0  0  0  0  0  0  0  0
  126.3150  128.6850   66.4720 N   0  0  0  0  0  0  0  0  0  0  0  0
  126.2400  129.5850   65.4420 C   0  0  0  0  0  0  0  0  0  0  0  0
  125.1640  129.8680   64.5880 C   0  0  0  0  0  0  0  0  0  0  0  0
  125.4130  129.4970   60.8860 C   0  0  0  0  0  0  0  0  0  0  0  0
  127.4950  125.1380   60.3820 C   0  0  0  0  0  0  0  0  0  0  0  0
  126.2400  124.8010   61.2180 C   0  0  0  0  0  0  0  0  0  0  0  0
  2  1  1  1
  2  3  1  0
  3  4  1  0
  4  5  1  0
  5  6  1  1
  6  7  1  0
  7  8  2  0
  9  7  1  1
  9 10  1  0
 10 11  1  0
 11 12  1  0
 12 13  1  0
 13 14  1  0
 14 15  2  0
 14 16  2  0
 14 17  1  0
 17 18  2  0
 18 19  1  0
 19 20  2  0
 20 21  1  0
 21 22  1  0
 22 23  1  0
 23 24  2  0
 24 25  1  0
 25 26  2  0
 26 27  1  0
 27 28  2  0
 22 29  2  0
 29 30  1  0
 30 31  2  0
 13 32  1  0
  5 33  1  0
 33 34  1  0
 34  2  1  0
 32  9  1  0
 31 17  1  0
 30 20  1  0
 28 23  1  0
M  END
>  <Binding energies>  (67) 
[-9.29]

>  <Ligand effiencies>  (67) 
[-0.25805555555555554]

>  <Interactions>  (67) 
["V-A:ALA:541:CB:4892, V-A:TYR:539:CE1:4875, V-B:LEU:475:CD1:9229, V-A:GLU:543:CD:4908, H-A:GLU:543:OE1:4909, V-B:PRO:540:CA:9855, H-B:ASP:366:OD1:8185, V-B:GLU:543:CD:9880, V-B:PRO:540:CB:9857, V-A:HIS:456:CE1:4069, V-A:GLU:543:CG:4907, V-B:GLU:543:CA:9876, V-B:HIS:456:CE1:9041, V-B:TYR:484:CE2:9317, V-A:GLU:543:CB:4906, V-B:GLU:543:C:9874, V-B:GLU:543:CB:9878, H-B:TYR:484:OH:9319, H-B:GLY:454:N:9021, V-B:ILE:369:CG2:8208, V-B:ILE:369:CD1:8210, V-B:ASP:366:CG:8184, V-B:ILE:369:CB:8207, V-B:ASP:366:CB:8183, V-A:GLU:543:C:4902, V-B:ARG:545:CZ:9898, V-B:LEU:363:CA:8156, H-B:TYR:531:OH:9767, V-B:ASP:366:C:8179, V-B:ASP:366:CA:8181, V-B:ASN:362:CB:8147, V-B:ASN:362:C:8143"]

$$$$
RR12_Rahimova_2017
     RDKit          3D

 26 28  0  0  0  0  0  0  0  0999 V2000
  133.1100  122.8880   59.7860 C   0  0  0  0  0  0  0  0  0  0  0  0
  134.1350  123.1770   60.8900 C   0  0  0  0  0  0  0  0  0  0  0  0
  133.9680  122.2520   62.1100 C   0  0  0  0  0  0  0  0  0  0  0  0
  132.6360  121.6510   62.1250 N   0  0  0  0  0  0  0  0  0  0  0  0
  131.4770  122.1820   62.6700 C   0  0  0  0  0  0  0  0  0  0  0  0
  131.4170  123.5070   63.4080 C   0  0  0  0  0  0  0  0  0  0  0  0
  131.9220  124.6810   62.5490 C   0  0  0  0  0  0  0  0  0  0  0  0
  131.5980  126.0540   63.1670 C   0  0  0  0  0  0  0  0  0  0  0  0
  131.9660  126.1690   64.5780 N   0  0  0  0  0  0  0  0  0  0  0  0
  133.0490  125.6040   65.1420 C   0  0  0  0  0  0  0  0  0  0  0  0
  133.8560  124.9150   64.5130 O   0  0  0  0  0  0  0  0  0  0  0  0
  133.2330  125.8720   66.6410 C   0  0  0  0  0  0  0  0  0  0  0  0
  132.4360  126.9930   67.0260 O   0  0  0  0  0  0  0  0  0  0  0  0
  131.1730  126.7790   67.5460 C   0  0  0  0  0  0  0  0  0  0  0  0
  130.6460  125.4960   67.3860 C   0  0  0  0  0  0  0  0  0  0  0  0
  129.3810  125.1850   67.8790 C   0  0  0  0  0  0  0  0  0  0  0  0
  128.6390  126.1610   68.5370 C   0  0  0  0  0  0  0  0  0  0  0  0
  129.1490  127.4470   68.7040 C   0  0  0  0  0  0  0  0  0  0  0  0
  130.4140  127.7570   68.2090 C   0  0  0  0  0  0  0  0  0  0  0  0
  130.4270  121.4160   62.5030 N   0  0  0  0  0  0  0  0  0  0  0  0
  130.8860  120.3400   61.7970 C   0  0  0  0  0  0  0  0  0  0  0  0
  130.1780  119.2190   61.3360 C   0  0  0  0  0  0  0  0  0  0  0  0
  130.8800  118.2460   60.6230 C   0  0  0  0  0  0  0  0  0  0  0  0
  132.2460  118.3770   60.3710 C   0  0  0  0  0  0  0  0  0  0  0  0
  132.9780  119.4790   60.8170 C   0  0  0  0  0  0  0  0  0  0  0  0
  132.2740  120.4540   61.5340 C   0  0  0  0  0  0  0  0  0  0  0  0
  1  2  1  0
  2  3  1  0
  3  4  1  0
  4  5  1  0
  5  6  1  0
  6  7  1  0
  7  8  1  0
  8  9  1  0
  9 10  1  0
 10 11  2  0
 10 12  1  0
 12 13  1  0
 13 14  1  0
 14 15  2  0
 15 16  1  0
 16 17  2  0
 17 18  1  0
 18 19  2  0
  5 20  2  0
 20 21  1  0
 21 22  2  0
 22 23  1  0
 23 24  2  0
 24 25  1  0
 25 26  2  0
 26  4  1  0
 19 14  1  0
 26 21  1  0
M  END
>  <Binding energies>  (68) 
[-7.16]

>  <Ligand effiencies>  (68) 
[-0.2651851851851852]

>  <Interactions>  (68) 
["V-A:GLU:543:CD:4908, V-A:ARG:545:CD:4923, V-A:ARG:545:CG:4922, H-A:TYR:484:OH:4347, V-A:GLY:454:CA:4048, H-A:GLU:543:OE2:4910, V-A:TYR:484:CZ:4346, H-A:ARG:545:NH2:4928, V-A:ILE:369:CD1:3238, H-A:GLU:543:OE1:4909, H-A:ARG:545:NH1:4927, V-A:ARG:545:CZ:4926, H-A:GLY:454:N:4049, H-A:ARG:545:NE:4924, V-A:ILE:369:CG2:3236, V-B:TYR:539:CD2:9846, V-B:TYR:539:CE2:9848, V-A:LEU:475:CD1:4257, V-A:PRO:482:CG:4326, V-B:GLU:543:CG:9879, V-B:ALA:541:CB:9864, V-A:TYR:484:CE2:4345, V-A:HIS:383:CD2:3391, V-A:HIS:456:CE1:4069, V-B:GLU:543:CA:9876, V-B:HIS:456:CE1:9041, V-A:GLU:543:CB:4906, V-B:GLU:543:CB:9878"]

$$$$
RR13_Rahimova_2017
     RDKit          3D

 48 54  0  0  0  0  0  0  0  0999 V2000
  129.7210  125.2120   64.7870 Cl  0  0  0  0  0  0  0  0  0  0  0  0
  130.9720  125.0950   63.5960 C   0  0  0  0  0  0  0  0  0  0  0  0
  132.2710  124.8400   64.0400 C   0  0  0  0  0  0  0  0  0  0  0  0
  133.3250  124.7560   63.1340 C   0  0  0  0  0  0  0  0  0  0  0  0
  133.0860  124.9300   61.7740 C   0  0  0  0  0  0  0  0  0  0  0  0
  131.7920  125.1850   61.3220 C   0  0  0  0  0  0  0  0  0  0  0  0
  130.7140  125.2610   62.2200 C   0  0  0  0  0  0  0  0  0  0  0  0
  129.2940  125.5700   61.6970 C   0  0  1  0  0  0  0  0  0  0  0  0
  128.4180  124.3080   61.7030 C   0  0  0  0  0  0  0  0  0  0  0  0
  127.3540  124.0950   62.4450 N   0  0  0  0  0  0  0  0  0  0  0  0
  126.9160  122.8140   62.1230 N   0  0  0  0  0  0  0  0  0  0  0  0
  127.7530  122.2490   61.1810 N   0  0  0  0  0  0  0  0  0  0  0  0
  128.6850  123.1800   60.9560 N   0  0  0  0  0  0  0  0  0  0  0  0
  129.7360  122.9500   59.9720 C   0  0  0  0  0  0  0  0  0  0  0  0
  129.4420  123.7370   58.6820 C   0  0  0  0  0  0  0  0  0  0  0  0
  127.9830  123.6330   58.2650 C   0  0  0  0  0  0  0  0  0  0  0  0
  127.1230  124.7180   58.4590 C   0  0  0  0  0  0  0  0  0  0  0  0
  125.7850  124.6190   58.0850 C   0  0  0  0  0  0  0  0  0  0  0  0
  125.3130  123.4360   57.5180 C   0  0  0  0  0  0  0  0  0  0  0  0
  126.1650  122.3520   57.3220 C   0  0  0  0  0  0  0  0  0  0  0  0
  127.5030  122.4500   57.6970 C   0  0  0  0  0  0  0  0  0  0  0  0
  128.6460  126.7110   62.3870 N   0  0  0  0  0  0  0  0  0  0  0  0
  127.3620  127.0430   61.7420 C   0  0  0  0  0  0  0  0  0  0  0  0
  126.6180  128.1430   62.5350 C   0  0  0  0  0  0  0  0  0  0  0  0
  127.4170  129.3790   62.5830 N   0  0  0  0  0  0  0  0  0  0  0  0
  126.7070  130.4870   63.2630 C   0  0  1  0  0  0  0  0  0  0  0  0
  126.5920  131.7990   62.4560 C   0  0  0  0  0  0  0  0  0  0  0  0
  125.3640  132.4730   62.5020 C   0  0  0  0  0  0  0  0  0  0  0  0
  125.1740  133.6730   61.8190 C   0  0  0  0  0  0  0  0  0  0  0  0
  126.2140  134.2170   61.0700 C   0  0  0  0  0  0  0  0  0  0  0  0
  127.4360  133.5550   60.9970 C   0  0  0  0  0  0  0  0  0  0  0  0
  127.6350  132.3500   61.6760 C   0  0  0  0  0  0  0  0  0  0  0  0
  129.1670  131.5690   61.4670 Cl  0  0  0  0  0  0  0  0  0  0  0  0
  125.3350  130.0790   63.8030 C   0  0  0  0  0  0  0  0  0  0  0  0
  124.2170  130.0700   63.1140 N   0  0  0  0  0  0  0  0  0  0  0  0
  123.2330  129.6200   63.9880 N   0  0  0  0  0  0  0  0  0  0  0  0
  123.7860  129.3420   65.2210 N   0  0  0  0  0  0  0  0  0  0  0  0
  125.0890  129.6120   65.0770 N   0  0  0  0  0  0  0  0  0  0  0  0
  125.9980  129.4500   66.2070 C   0  0  0  0  0  0  0  0  0  0  0  0
  127.0960  128.4240   65.8700 C   0  0  0  0  0  0  0  0  0  0  0  0
  127.8900  128.0100   67.0990 C   0  0  0  0  0  0  0  0  0  0  0  0
  127.9290  126.6670   67.4850 C   0  0  0  0  0  0  0  0  0  0  0  0
  128.6620  126.2870   68.6060 C   0  0  0  0  0  0  0  0  0  0  0  0
  129.3540  127.2510   69.3380 C   0  0  0  0  0  0  0  0  0  0  0  0
  129.3190  128.5920   68.9570 C   0  0  0  0  0  0  0  0  0  0  0  0
  128.5870  128.9730   67.8360 C   0  0  0  0  0  0  0  0  0  0  0  0
  128.6970  129.0430   63.2330 C   0  0  0  0  0  0  0  0  0  0  0  0
  129.4410  127.9510   62.4300 C   0  0  0  0  0  0  0  0  0  0  0  0
  1  2  1  0
  2  3  2  0
  3  4  1  0
  4  5  2  0
  5  6  1  0
  6  7  2  0
  7  8  1  0
  8  9  1  0
  9 10  2  0
 10 11  1  0
 11 12  2  0
 12 13  1  0
 13 14  1  0
 14 15  1  0
 15 16  1  0
 16 17  2  0
 17 18  1  0
 18 19  2  0
 19 20  1  0
 20 21  2  0
  8 22  1  1
 22 23  1  0
 23 24  1  0
 24 25  1  0
 26 25  1  6
 26 27  1  0
 27 28  2  0
 28 29  1  0
 29 30  2  0
 30 31  1  0
 31 32  2  0
 32 33  1  0
 26 34  1  0
 34 35  2  0
 35 36  1  0
 36 37  2  0
 37 38  1  0
 38 39  1  0
 39 40  1  0
 40 41  1  0
 41 42  2  0
 42 43  1  0
 43 44  2  0
 44 45  1  0
 45 46  2  0
 25 47  1  0
 47 48  1  0
  7  2  1  0
 13  9  1  0
 21 16  1  0
 48 22  1  0
 32 27  1  0
 38 34  1  0
 46 41  1  0
M  END
>  <Binding energies>  (69) 
[-12.82]

>  <Ligand effiencies>  (69) 
[-0.26708333333333334]

>  <Interactions>  (69) 
["V-A:ALA:541:CB:4892, V-A:TYR:539:CD1:4873, V-B:LEU:475:CD1:9229, V-A:GLU:543:CD:4908, V-A:ASP:366:CG:3212, V-A:ARG:545:CZ:4926, V-B:TYR:539:CE2:9848, H-B:ALA:541:N:9863, V-B:PRO:540:CD:9859, V-B:PRO:540:CA:9855, V-B:LEU:363:CD1:8160, V-B:GLU:543:CG:9879, V-B:MET:535:CE:9807, V-B:PRO:540:N:9856, V-B:GLU:543:CD:9880, V-B:PRO:540:CB:9857, V-B:TYR:539:C:9839, V-A:HIS:456:CE1:4069, V-A:GLU:543:CG:4907, V-B:HIS:456:CE1:9041, V-B:TYR:484:CE2:9317, V-A:GLU:543:CB:4906, V-B:GLU:543:CB:9878, H-B:TYR:484:OH:9319, H-B:ARG:545:NH2:9900, H-B:GLY:454:N:9021, H-B:ARG:545:NH1:9899, V-A:GLU:543:C:4902, H-B:ARG:545:NE:9896, V-B:ARG:545:CZ:9898, V-B:TYR:484:CZ:9318, V-B:TYR:531:CE2:9765"]

$$$$
RR14_Rahimova_2017
     RDKit          3D

 39 43  0  0  0  0  0  0  0  0999 V2000
  128.4710  121.6770   72.6320 C   0  0  0  0  0  0  0  0  0  0  0  0
  129.3970  122.1450   73.6060 O   0  0  0  0  0  0  0  0  0  0  0  0
  129.6810  123.4960   73.6700 C   0  0  0  0  0  0  0  0  0  0  0  0
  130.8280  123.8580   74.3770 C   0  0  0  0  0  0  0  0  0  0  0  0
  131.1810  125.1970   74.5160 C   0  0  0  0  0  0  0  0  0  0  0  0
  130.3820  126.1920   73.9490 C   0  0  0  0  0  0  0  0  0  0  0  0
  130.7300  127.6620   74.1550 C   0  0  0  0  0  0  0  0  0  0  0  0
  129.7470  128.5760   73.5730 N   0  0  0  0  0  0  0  0  0  0  0  0
  128.9170  129.2680   74.3610 N   0  0  0  0  0  0  0  0  0  0  0  0
  128.1250  129.9890   73.4900 N   0  0  0  0  0  0  0  0  0  0  0  0
  128.4860  129.7130   72.1750 N   0  0  0  0  0  0  0  0  0  0  0  0
  129.4690  128.8470   72.2500 C   0  0  0  0  0  0  0  0  0  0  0  0
  130.1830  128.2250   71.0580 C   0  0  0  0  0  0  0  0  0  0  0  0
  129.2690  127.9440   69.9380 N   0  0  0  0  0  0  0  0  0  0  0  0
  129.5430  128.8010   68.7780 C   0  0  0  0  0  0  0  0  0  0  0  0
  128.3090  129.5960   68.2980 C   0  0  0  0  0  0  0  0  0  0  0  0
  127.9770  129.3840   66.8060 C   0  0  0  0  0  0  0  0  0  0  0  0
  126.6660  129.9160   66.4220 N   0  0  0  0  0  0  0  0  0  0  0  0
  125.6640  128.8420   66.4030 C   0  0  0  0  0  0  0  0  0  0  0  0
  124.2820  129.3600   65.9520 C   0  0  0  0  0  0  0  0  0  0  0  0
  124.3930  130.0170   64.6930 O   0  0  0  0  0  0  0  0  0  0  0  0
  125.2790  131.1290   64.7420 C   0  0  0  0  0  0  0  0  0  0  0  0
  126.6920  130.6650   65.1550 C   0  0  0  0  0  0  0  0  0  0  0  0
  129.3510  126.5250   69.5620 C   0  0  0  0  0  0  0  0  0  0  0  0
  129.7090  126.2370   68.1060 C   0  0  0  0  0  0  0  0  0  0  0  0
  130.9930  126.0180   67.7310 C   0  0  0  0  0  0  0  0  0  0  0  0
  131.3710  125.7760   66.3240 C   0  0  0  0  0  0  0  0  0  0  0  0
  132.6880  125.5260   65.9030 C   0  0  0  0  0  0  0  0  0  0  0  0
  133.8470  125.4830   66.8910 C   0  0  0  0  0  0  0  0  0  0  0  0
  132.9380  125.3080   64.5460 C   0  0  0  0  0  0  0  0  0  0  0  0
  131.9000  125.3370   63.6170 C   0  0  0  0  0  0  0  0  0  0  0  0
  130.5860  125.5830   64.0250 C   0  0  0  0  0  0  0  0  0  0  0  0
  129.4720  125.6060   62.9860 C   0  0  0  0  0  0  0  0  0  0  0  0
  130.3230  125.8040   65.3860 C   0  0  0  0  0  0  0  0  0  0  0  0
  129.0130  126.0590   65.8450 N   0  0  0  0  0  0  0  0  0  0  0  0
  128.6210  126.2860   67.1230 C   0  0  0  0  0  0  0  0  0  0  0  0
  127.4390  126.5120   67.3820 O   0  0  0  0  0  0  0  0  0  0  0  0
  129.2490  125.8380   73.2140 C   0  0  0  0  0  0  0  0  0  0  0  0
  128.8960  124.4990   73.0770 C   0  0  0  0  0  0  0  0  0  0  0  0
  1  2  1  0
  2  3  1  0
  3  4  2  0
  4  5  1  0
  5  6  2  0
  6  7  1  0
  7  8  1  0
  8  9  1  0
  9 10  2  0
 10 11  1  0
 11 12  2  0
 12 13  1  0
 13 14  1  0
 14 15  1  0
 15 16  1  0
 16 17  1  0
 17 18  1  0
 18 19  1  0
 19 20  1  0
 20 21  1  0
 21 22  1  0
 22 23  1  0
 14 24  1  0
 24 25  1  0
 25 26  2  0
 26 27  1  0
 27 28  2  0
 28 29  1  0
 28 30  1  0
 30 31  2  0
 31 32  1  0
 32 33  1  0
 32 34  2  0
 34 35  1  0
 35 36  1  0
 36 37  2  0
  6 38  1  0
 38 39  2  0
 39  3  1  0
 12  8  1  0
 23 18  1  0
 36 25  1  0
 34 27  1  0
M  END
>  <Binding energies>  (70) 
[-9.36]

>  <Ligand effiencies>  (70) 
[-0.23399999999999999]

>  <Interactions>  (70) 
["V-B:LEU:475:CD1:9229, V-A:GLU:543:CD:4908, V-A:ARG:545:CD:4923, V-A:ARG:545:CG:4922, V-A:TYR:484:CZ:4346, H-A:GLU:543:OE1:4909, V-A:ARG:545:CZ:4926, H-B:GLU:543:OE1:9881, V-B:GLU:543:CG:9879, V-B:GLU:543:CD:9880, V-A:HIS:456:CE1:4069, V-A:GLU:543:CG:4907, V-B:HIS:456:CE1:9041, V-B:TYR:484:CE2:9317, V-A:GLU:543:CB:4906, V-B:GLU:543:C:9874, V-B:GLU:543:CB:9878, H-B:TYR:484:OH:9319, H-B:GLY:454:N:9021, V-B:GLY:454:CA:9020, V-A:TYR:484:CD2:4343, H-B:GLU:543:OE2:9882, V-A:GLU:543:C:4902, V-A:GLU:543:CA:4904, V-B:ARG:545:CD:9895, V-B:ARG:545:CZ:9898, V-B:HIS:456:CD2:9039, V-B:TYR:484:CZ:9318, H-A:LYS:547:NZ:4951, V-A:HIS:456:CD2:4067, H-B:LYS:547:NZ:9923, V-A:HIS:456:CB:4064, V-A:HIS:456:CG:4065, V-A:LYS:547:CE:4950, V-B:GLY:544:CA:9886, V-B:LYS:547:CE:9922, V-A:TYR:484:CB:4340, V-A:TYR:484:CG:4341"]

$$$$
RR15_Rahimova_2017
     RDKit          3D

 45 49  0  0  0  0  0  0  0  0999 V2000
  132.8510  124.7660   57.3840 C   0  0  0  0  0  0  0  0  0  0  0  0
  132.9160  123.7120   58.3380 O   0  0  0  0  0  0  0  0  0  0  0  0
  133.0980  124.0140   59.6770 C   0  0  0  0  0  0  0  0  0  0  0  0
  134.3390  123.9380   60.3290 C   0  0  0  0  0  0  0  0  0  0  0  0
  134.4520  124.2550   61.6810 C   0  0  0  0  0  0  0  0  0  0  0  0
  133.3330  124.6530   62.4190 C   0  0  0  0  0  0  0  0  0  0  0  0
  133.4550  124.9880   63.8800 C   0  0  0  0  0  0  0  0  0  0  0  0
  134.6220  125.1640   64.4850 N   0  0  0  0  0  0  0  0  0  0  0  0
  134.3300  125.4440   65.8040 N   0  0  0  0  0  0  0  0  0  0  0  0
  132.9970  125.4450   65.8380 N   0  0  0  0  0  0  0  0  0  0  0  0
  132.2540  125.5400   67.0930 C   0  0  0  0  0  0  0  0  0  0  0  0
  131.4930  126.8740   67.2970 C   0  0  0  0  0  0  0  0  0  0  0  0
  132.1460  127.9200   67.3250 O   0  0  0  0  0  0  0  0  0  0  0  0
  130.1290  126.8650   67.4090 N   0  0  0  0  0  0  0  0  0  0  0  0
  129.3260  125.7290   66.9140 C   0  0  0  0  0  0  0  0  0  0  0  0
  129.8550  125.1280   65.5940 C   0  0  0  0  0  0  0  0  0  0  0  0
  129.1780  125.6740   64.3140 C   0  0  0  0  0  0  0  0  0  0  0  0
  129.1420  124.7120   63.2080 N   0  0  0  0  0  0  0  0  0  0  0  0
  129.4390  123.3320   63.6210 C   0  0  0  0  0  0  0  0  0  0  0  0
  129.3030  122.3480   62.4380 C   0  0  0  0  0  0  0  0  0  0  0  0
  128.0150  122.4680   61.8440 O   0  0  0  0  0  0  0  0  0  0  0  0
  127.7660  123.7800   61.3510 C   0  0  0  0  0  0  0  0  0  0  0  0
  127.8560  124.8030   62.5040 C   0  0  0  0  0  0  0  0  0  0  0  0
  129.3610  127.8790   68.1950 C   0  0  2  0  0  0  0  0  0  0  0  0
  129.1420  127.4920   69.6910 C   0  0  0  0  0  0  0  0  0  0  0  0
  128.9690  126.3200   70.0250 O   0  0  0  0  0  0  0  0  0  0  0  0
  129.1980  128.5090   70.5690 N   0  0  0  0  0  0  0  0  0  0  0  0
  129.1250  128.3760   72.0190 C   0  0  0  0  0  0  0  0  0  0  0  0
  129.2550  129.7460   72.7110 C   0  0  2  0  0  0  0  0  0  0  0  0
  128.4660  129.9010   74.0230 C   0  0  0  0  0  0  0  0  0  0  0  0
  127.2370  130.6880   73.6360 C   0  0  0  0  0  0  0  0  0  0  0  0
  127.7890  131.5820   72.5390 C   0  0  0  0  0  0  0  0  0  0  0  0
  128.6490  130.6990   71.8270 O   0  0  0  0  0  0  0  0  0  0  0  0
  128.1470  128.3620   67.4100 C   0  0  0  0  0  0  0  0  0  0  0  0
  128.2510  129.5720   66.7120 C   0  0  0  0  0  0  0  0  0  0  0  0
  127.1750  130.0620   65.9790 C   0  0  0  0  0  0  0  0  0  0  0  0
  125.9840  129.3440   65.9370 C   0  0  0  0  0  0  0  0  0  0  0  0
  124.9380  129.8190   65.2240 F   0  0  0  0  0  0  0  0  0  0  0  0
  125.8620  128.1380   66.6230 C   0  0  0  0  0  0  0  0  0  0  0  0
  126.9390  127.6490   67.3570 C   0  0  0  0  0  0  0  0  0  0  0  0
  132.4120  125.1270   64.6770 N   0  0  0  0  0  0  0  0  0  0  0  0
  132.0970  124.7300   61.7650 C   0  0  0  0  0  0  0  0  0  0  0  0
  131.9670  124.4170   60.4010 C   0  0  0  0  0  0  0  0  0  0  0  0
  130.7690  124.4810   59.7100 O   0  0  0  0  0  0  0  0  0  0  0  0
  130.1910  123.2870   59.1920 C   0  0  0  0  0  0  0  0  0  0  0  0
  1  2  1  0
  2  3  1  0
  3  4  2  0
  4  5  1  0
  5  6  2  0
  6  7  1  0
  7  8  1  0
  8  9  2  0
  9 10  1  0
 10 11  1  0
 11 12  1  0
 12 13  2  0
 12 14  1  0
 14 15  1  0
 15 16  1  0
 16 17  1  0
 17 18  1  0
 18 19  1  0
 19 20  1  0
 20 21  1  0
 21 22  1  0
 22 23  1  0
 24 14  1  6
 24 25  1  0
 25 26  2  0
 25 27  1  0
 27 28  1  0
 29 28  1  6
 29 30  1  0
 30 31  1  0
 31 32  1  0
 32 33  1  0
 24 34  1  0
 34 35  2  0
 35 36  1  0
 36 37  2  0
 37 38  1  0
 37 39  1  0
 39 40  2  0
 10 41  1  0
  6 42  1  0
 42 43  2  0
 43 44  1  0
 44 45  1  0
 43  3  1  0
 41  7  2  0
 23 18  1  0
 33 29  1  0
 40 34  1  0
M  END
>  <Binding energies>  (71) 
[-9.22]

>  <Ligand effiencies>  (71) 
[-0.20043478260869566]

>  <Interactions>  (71) 
["V-A:GLU:543:CD:4908, V-A:ASP:366:CG:3212, V-A:ARG:545:CG:4922, H-A:TYR:484:OH:4347, V-A:ASP:366:CA:3209, V-A:ASP:366:CB:3211, V-A:TYR:484:CZ:4346, H-A:ARG:545:NH2:4928, V-A:ILE:369:CD1:3238, H-A:ARG:545:NH1:4927, V-A:ARG:545:CZ:4926, H-A:GLY:454:N:4049, V-A:ILE:369:CB:3235, H-A:ARG:545:NE:4924, V-A:ILE:369:CG2:3236, V-B:TYR:539:CE2:9848, H-B:ALA:541:N:9863, V-B:GLU:543:CG:9879, V-B:TYR:539:CZ:9849, V-B:ALA:541:CB:9864, V-B:GLU:543:CD:9880, V-A:HIS:456:CE1:4069, V-A:GLU:543:CG:4907, V-B:HIS:456:CE1:9041, V-B:TYR:484:CE2:9317, V-A:GLU:543:CB:4906, V-B:GLU:543:CB:9878, V-A:GLU:543:C:4902, V-B:TYR:484:CD2:9315, V-B:ARG:545:CG:9894, V-B:ARG:545:CD:9895, V-B:ARG:545:CZ:9898, V-B:HIS:456:CG:9037, V-B:HIS:456:CD2:9039, H-B:TYR:539:OH:9850, V-B:TYR:484:CZ:9318, H-A:GLU:543:O:4903, H-B:HIS:456:NE2:9042, V-B:TYR:484:CB:9312, V-B:HIS:456:CB:9036, V-B:TYR:484:CG:9313, V-B:TYR:484:CD1:9314, V-A:ASP:366:C:3207"]

$$$$
RR17_Rahimova_2017
     RDKit          3D

 38 41  0  0  0  0  0  0  0  0999 V2000
  134.4010  124.0430   62.2000 C   0  0  0  0  0  0  0  0  0  0  0  0
  133.5320  125.0470   62.9630 C   0  0  0  0  0  0  0  0  0  0  0  0
  133.6020  124.7480   64.3550 O   0  0  0  0  0  0  0  0  0  0  0  0
  132.6720  125.3020   65.2150 C   0  0  0  0  0  0  0  0  0  0  0  0
  131.3330  125.1860   64.8420 C   0  0  0  0  0  0  0  0  0  0  0  0
  130.3260  125.7140   65.6430 C   0  0  0  0  0  0  0  0  0  0  0  0
  130.6390  126.3730   66.8400 C   0  0  0  0  0  0  0  0  0  0  0  0
  129.5300  126.9320   67.6850 C   0  0  0  0  0  0  0  0  0  0  0  0
  129.6240  127.0410   68.9110 O   0  0  0  0  0  0  0  0  0  0  0  0
  128.2370  127.3570   66.9540 C   0  0  0  0  0  0  0  0  0  0  0  0
  127.9090  129.1480   67.1210 S   0  0  0  0  0  0  0  0  0  0  0  0
  126.3570  129.2530   66.2750 C   0  0  0  0  0  0  0  0  0  0  0  0
  125.1900  128.9380   66.7860 N   0  0  0  0  0  0  0  0  0  0  0  0
  124.2240  129.1660   65.8130 N   0  0  0  0  0  0  0  0  0  0  0  0
  124.8440  129.6140   64.7510 C   0  0  0  0  0  0  0  0  0  0  0  0
  124.1570  130.0030   63.4500 C   0  0  0  0  0  0  0  0  0  0  0  0
  125.0840  130.3590   62.3780 N   0  0  0  0  0  0  0  0  0  0  0  0
  125.3020  131.6770   61.9400 C   0  0  0  0  0  0  0  0  0  0  0  0
  124.4850  132.6740   62.4720 C   0  0  0  0  0  0  0  0  0  0  0  0
  124.6440  134.0000   62.0780 C   0  0  0  0  0  0  0  0  0  0  0  0
  125.6270  134.3450   61.1470 C   0  0  0  0  0  0  0  0  0  0  0  0
  125.7840  135.8040   60.7200 C   0  0  0  0  0  0  0  0  0  0  0  0
  126.1000  136.5990   61.7440 F   0  0  0  0  0  0  0  0  0  0  0  0
  126.7430  135.9190   59.8000 F   0  0  0  0  0  0  0  0  0  0  0  0
  124.6350  136.2320   60.1960 F   0  0  0  0  0  0  0  0  0  0  0  0
  126.4530  133.3470   60.6180 C   0  0  0  0  0  0  0  0  0  0  0  0
  126.2940  132.0230   61.0130 C   0  0  0  0  0  0  0  0  0  0  0  0
  126.2040  129.6830   64.9720 N   0  0  0  0  0  0  0  0  0  0  0  0
  127.1980  130.1210   64.0840 C   0  0  0  0  0  0  0  0  0  0  0  0
  127.7400  129.2260   63.1620 C   0  0  0  0  0  0  0  0  0  0  0  0
  128.7290  129.6600   62.2840 C   0  0  0  0  0  0  0  0  0  0  0  0
  129.1790  130.9890   62.3260 C   0  0  0  0  0  0  0  0  0  0  0  0
  130.1530  131.5080   61.4950 O   0  0  0  0  0  0  0  0  0  0  0  0
  131.2860  130.7090   61.1710 C   0  0  0  0  0  0  0  0  0  0  0  0
  128.6260  131.8710   63.2570 C   0  0  0  0  0  0  0  0  0  0  0  0
  127.6360  131.4440   64.1380 C   0  0  0  0  0  0  0  0  0  0  0  0
  131.9850  126.4890   67.2150 C   0  0  0  0  0  0  0  0  0  0  0  0
  132.9920  125.9590   66.4120 C   0  0  0  0  0  0  0  0  0  0  0  0
  1  2  1  0
  2  3  1  0
  3  4  1  0
  4  5  2  0
  5  6  1  0
  6  7  2  0
  7  8  1  0
  8  9  2  0
  8 10  1  0
 10 11  1  0
 11 12  1  0
 12 13  2  0
 13 14  1  0
 14 15  2  0
 15 16  1  0
 16 17  1  0
 17 18  1  0
 18 19  2  0
 19 20  1  0
 20 21  2  0
 21 22  1  0
 22 23  1  0
 22 24  1  0
 22 25  1  0
 21 26  1  0
 26 27  2  0
 15 28  1  0
 28 29  1  0
 29 30  2  0
 30 31  1  0
 31 32  2  0
 32 33  1  0
 33 34  1  0
 32 35  1  0
 35 36  2  0
  7 37  1  0
 37 38  2  0
 38  4  1  0
 28 12  1  0
 36 29  1  0
 27 18  1  0
M  END
>  <Binding energies>  (72) 
[-8.76]

>  <Ligand effiencies>  (72) 
[-0.2246153846153846]

>  <Interactions>  (72) 
["V-A:ALA:541:CB:4892, V-A:TYR:539:CE1:4875, V-A:TYR:539:CD1:4873, V-B:LEU:475:CD1:9229, V-A:GLU:543:CD:4908, V-A:TYR:539:C:4867, V-A:ASP:366:CG:3212, V-A:ARG:545:CD:4923, V-A:ARG:545:CG:4922, V-A:GLY:453:C:4041, H-A:TYR:484:OH:4347, H-A:ARG:545:NH2:4928, V-A:ILE:369:CD1:3238, V-A:ARG:545:CZ:4926, H-A:GLY:454:N:4049, V-A:HIS:456:CE1:4069, V-A:GLU:543:CG:4907, V-B:HIS:456:CE1:9041, V-A:GLY:453:CA:4043, H-B:ASP:366:OD2:8186, H-B:TYR:484:OH:9319, H-B:ARG:545:NH2:9900, H-B:GLY:454:N:9021, V-B:PRO:482:CB:9297, V-A:TYR:539:CB:4871, V-B:GLY:454:CA:9020, V-B:ILE:369:CG2:8208, V-B:ILE:369:CD1:8210, H-A:ALA:541:N:4891, H-B:ARG:545:NH1:9899, V-B:PRO:482:CG:9298, V-A:ALA:541:CA:4890, V-B:LEU:373:CD1:8251, V-B:SER:385:CB:8380, H-B:ARG:545:NE:9896, V-B:ARG:545:CZ:9898, V-A:TYR:539:CG:4872, V-A:TYR:539:CA:4869"]

$$$$
RR19_Rahimova_2017
     RDKit          3D

 46 51  0  0  0  0  0  0  0  0999 V2000
  129.0820  124.2220   61.2790 O   0  0  0  0  0  0  0  0  0  0  0  0
  129.4340  124.7330   62.3460 C   0  0  0  0  0  0  0  0  0  0  0  0
  128.8610  125.8090   62.9420 N   0  0  0  0  0  0  0  0  0  0  0  0
  127.6860  126.4850   62.7230 C   0  0  0  0  0  0  0  0  0  0  0  0
  126.4280  125.9720   61.7130 S   0  0  0  0  0  0  0  0  0  0  0  0
  127.7020  127.6440   63.4590 N   0  0  0  0  0  0  0  0  0  0  0  0
  126.7610  128.5870   63.7170 C   0  0  0  0  0  0  0  0  0  0  0  0
  125.5560  128.5070   63.4670 O   0  0  0  0  0  0  0  0  0  0  0  0
  127.3250  129.8740   64.3710 C   0  0  2  0  0  0  0  0  0  0  0  0
  127.0060  130.0300   65.8860 C   0  0  0  0  0  0  0  0  0  0  0  0
  127.7960  129.1180   66.8110 C   0  0  0  0  0  0  0  0  0  0  0  0
  128.4100  129.6250   67.9770 C   0  0  0  0  0  0  0  0  0  0  0  0
  129.0600  128.7640   68.8500 C   0  0  0  0  0  0  0  0  0  0  0  0
  129.0940  127.3990   68.5930 C   0  0  0  0  0  0  0  0  0  0  0  0
  128.4690  126.8820   67.4650 C   0  0  0  0  0  0  0  0  0  0  0  0
  127.8110  127.7260   66.5800 C   0  0  0  0  0  0  0  0  0  0  0  0
  126.9330  131.0870   63.6020 N   0  0  0  0  0  0  0  0  0  0  0  0
  127.8510  131.8050   62.8940 C   0  0  0  0  0  0  0  0  0  0  0  0
  129.0630  131.5920   62.8110 O   0  0  0  0  0  0  0  0  0  0  0  0
  127.0840  132.8930   62.2390 C   0  0  0  0  0  0  0  0  0  0  0  0
  127.5000  133.9280   61.4000 C   0  0  0  0  0  0  0  0  0  0  0  0
  126.5400  134.8220   60.9140 C   0  0  0  0  0  0  0  0  0  0  0  0
  125.1910  134.6720   61.2660 C   0  0  0  0  0  0  0  0  0  0  0  0
  124.7950  133.6260   62.1080 C   0  0  0  0  0  0  0  0  0  0  0  0
  125.7680  132.7460   62.5830 C   0  0  0  0  0  0  0  0  0  0  0  0
  125.6580  131.5590   63.4670 C   0  0  0  0  0  0  0  0  0  0  0  0
  124.6300  131.0960   63.9640 O   0  0  0  0  0  0  0  0  0  0  0  0
  130.6480  124.1430   63.1130 C   0  0  2  0  0  0  0  0  0  0  0  0
  131.8180  125.1490   63.3120 C   0  0  0  0  0  0  0  0  0  0  0  0
  132.2300  125.3360   64.7610 C   0  0  0  0  0  0  0  0  0  0  0  0
  133.5770  125.1550   65.1430 C   0  0  0  0  0  0  0  0  0  0  0  0
  133.9700  125.4260   66.4480 C   0  0  0  0  0  0  0  0  0  0  0  0
  133.0500  125.9000   67.3730 C   0  0  0  0  0  0  0  0  0  0  0  0
  131.7300  126.1210   67.0010 C   0  0  0  0  0  0  0  0  0  0  0  0
  131.3150  125.8550   65.7020 C   0  0  0  0  0  0  0  0  0  0  0  0
  131.1300  122.8490   62.5520 N   0  0  0  0  0  0  0  0  0  0  0  0
  132.4580  122.5750   62.4190 C   0  0  0  0  0  0  0  0  0  0  0  0
  133.4030  123.3110   62.7060 O   0  0  0  0  0  0  0  0  0  0  0  0
  132.5230  121.2030   61.8570 C   0  0  0  0  0  0  0  0  0  0  0  0
  133.6160  120.4090   61.5090 C   0  0  0  0  0  0  0  0  0  0  0  0
  133.3780  119.1290   60.9950 C   0  0  0  0  0  0  0  0  0  0  0  0
  132.0650  118.6640   60.8390 C   0  0  0  0  0  0  0  0  0  0  0  0
  130.9820  119.4750   61.1970 C   0  0  0  0  0  0  0  0  0  0  0  0
  131.2420  120.7490   61.7060 C   0  0  0  0  0  0  0  0  0  0  0  0
  130.3220  121.8170   62.1660 C   0  0  0  0  0  0  0  0  0  0  0  0
  129.0910  121.7810   62.1950 O   0  0  0  0  0  0  0  0  0  0  0  0
  1  2  2  0
  2  3  1  0
  3  4  1  0
  4  5  2  0
  4  6  1  0
  6  7  1  0
  7  8  2  0
  7  9  1  0
  9 10  1  1
 10 11  1  0
 11 12  2  0
 12 13  1  0
 13 14  2  0
 14 15  1  0
 15 16  2  0
  9 17  1  0
 17 18  1  0
 18 19  2  0
 18 20  1  0
 20 21  2  0
 21 22  1  0
 22 23  2  0
 23 24  1  0
 24 25  2  0
 25 26  1  0
 26 27  2  0
  2 28  1  0
 28 29  1  6
 29 30  1  0
 30 31  2  0
 31 32  1  0
 32 33  2  0
 33 34  1  0
 34 35  2  0
 28 36  1  0
 36 37  1  0
 37 38  2  0
 37 39  1  0
 39 40  2  0
 40 41  1  0
 41 42  2  0
 42 43  1  0
 43 44  2  0
 44 45  1  0
 45 46  2  0
 16 11  1  0
 26 17  1  0
 35 30  1  0
 45 36  1  0
 25 20  1  0
 44 39  1  0
M  END
>  <Binding energies>  (73) 
[-12.04]

>  <Ligand effiencies>  (73) 
[-0.2508333333333333]

>  <Interactions>  (73) 
["V-A:ALA:541:CB:4892, V-A:TYR:539:CD1:4873, V-B:LEU:475:CD1:9229, V-A:GLU:543:CD:4908, V-A:ARG:545:CD:4923, V-A:ARG:545:CG:4922, V-A:TYR:484:CZ:4346, H-A:GLU:543:OE1:4909, V-A:ARG:545:CZ:4926, H-A:GLY:454:N:4049, V-A:ILE:369:CG2:3236, V-A:LEU:475:CD1:4257, H-B:ALA:541:N:9863, V-B:ALA:541:CB:9864, V-B:GLU:543:CD:9880, V-A:SER:385:C:3404, V-A:HIS:456:CE1:4069, V-A:GLU:543:CG:4907, V-B:HIS:456:CE1:9041, V-B:TYR:484:CE2:9317, V-A:GLU:543:CB:4906, V-B:GLU:543:CB:9878, H-B:ARG:545:NH2:9900, H-B:GLY:454:N:9021, V-B:ILE:369:CG2:8208, H-A:ALA:541:N:4891, V-B:ASP:366:CG:8184, H-B:GLU:543:OE2:9882, V-A:SER:385:CA:3406, V-A:GLU:543:C:4902, V-A:GLU:543:CA:4904, V-B:TYR:484:CZ:9318"]

$$$$
RR1_Rahimova_2017
     RDKit          3D

 41 44  0  0  0  0  0  0  0  0999 V2000
  131.2240  117.6070   60.2280 C   0  0  0  0  0  0  0  0  0  0  0  0
  132.3390  118.3680   60.6790 O   0  0  0  0  0  0  0  0  0  0  0  0
  132.1420  119.6680   61.1020 C   0  0  0  0  0  0  0  0  0  0  0  0
  130.8880  120.2170   61.4130 C   0  0  0  0  0  0  0  0  0  0  0  0
  130.7850  121.5430   61.8260 C   0  0  0  0  0  0  0  0  0  0  0  0
  131.9270  122.3370   61.9400 C   0  0  0  0  0  0  0  0  0  0  0  0
  131.7150  123.6760   62.3190 N   0  0  0  0  0  0  0  0  0  0  0  0
  132.3760  124.4220   63.2310 C   0  0  0  0  0  0  0  0  0  0  0  0
  133.2740  124.0030   63.9610 O   0  0  0  0  0  0  0  0  0  0  0  0
  131.9180  125.8870   63.3120 C   0  0  0  0  0  0  0  0  0  0  0  0
  130.6130  126.3670   62.1270 S   0  0  0  0  0  0  0  0  0  0  0  0
  129.4750  127.0500   63.2850 C   0  0  0  0  0  0  0  0  0  0  0  0
  128.7760  128.1370   63.0770 N   0  0  0  0  0  0  0  0  0  0  0  0
  128.0570  128.2700   64.1880 C   0  0  0  0  0  0  0  0  0  0  0  0
  127.0830  129.3970   64.3840 C   0  0  0  0  0  0  0  0  0  0  0  0
  127.5180  130.7120   64.6100 C   0  0  0  0  0  0  0  0  0  0  0  0
  126.5890  131.7390   64.7930 C   0  0  0  0  0  0  0  0  0  0  0  0
  125.2320  131.4230   64.7440 C   0  0  0  0  0  0  0  0  0  0  0  0
  124.7770  130.1630   64.5280 N   0  0  0  0  0  0  0  0  0  0  0  0
  125.6970  129.1800   64.3520 C   0  0  0  0  0  0  0  0  0  0  0  0
  128.2550  127.3410   65.1040 N   0  0  0  0  0  0  0  0  0  0  0  0
  129.1680  126.5550   64.5270 N   0  0  0  0  0  0  0  0  0  0  0  0
  129.6610  125.3600   65.2120 C   0  0  0  0  0  0  0  0  0  0  0  0
  129.6960  125.4590   66.7470 C   0  0  0  0  0  0  0  0  0  0  0  0
  130.7420  125.2510   67.3710 O   0  0  0  0  0  0  0  0  0  0  0  0
  128.5200  125.7780   67.3220 N   0  0  0  0  0  0  0  0  0  0  0  0
  128.5070  126.0290   68.6870 N   0  0  0  0  0  0  0  0  0  0  0  0
  129.0250  127.2000   69.1180 C   0  0  0  0  0  0  0  0  0  0  0  0
  129.4140  128.1020   68.3690 O   0  0  0  0  0  0  0  0  0  0  0  0
  129.0850  127.3770   70.6220 C   0  0  0  0  0  0  0  0  0  0  0  0
  128.9000  126.2740   71.4620 C   0  0  0  0  0  0  0  0  0  0  0  0
  128.9390  126.4150   72.8460 C   0  0  0  0  0  0  0  0  0  0  0  0
  129.1580  127.6720   73.4330 C   0  0  0  0  0  0  0  0  0  0  0  0
  129.1940  127.8830   74.8000 O   0  0  0  0  0  0  0  0  0  0  0  0
  127.9800  128.1080   75.5070 C   0  0  0  0  0  0  0  0  0  0  0  0
  129.3380  128.7900   72.6080 C   0  0  0  0  0  0  0  0  0  0  0  0
  129.5300  130.0090   73.2370 O   0  0  0  0  0  0  0  0  0  0  0  0
  128.8640  131.1670   72.7460 C   0  0  0  0  0  0  0  0  0  0  0  0
  129.3030  128.6320   71.2110 C   0  0  0  0  0  0  0  0  0  0  0  0
  133.1820  121.7920   61.6300 C   0  0  0  0  0  0  0  0  0  0  0  0
  133.2800  120.4660   61.2190 C   0  0  0  0  0  0  0  0  0  0  0  0
  1  2  1  0
  2  3  1  0
  3  4  2  0
  4  5  1  0
  5  6  2  0
  6  7  1  0
  7  8  1  0
  8  9  2  0
  8 10  1  0
 10 11  1  0
 11 12  1  0
 12 13  2  0
 13 14  1  0
 14 15  1  0
 15 16  2  0
 16 17  1  0
 17 18  2  0
 18 19  1  0
 19 20  2  0
 14 21  2  0
 21 22  1  0
 22 23  1  0
 23 24  1  0
 24 25  2  0
 24 26  1  0
 26 27  1  0
 27 28  1  0
 28 29  2  0
 28 30  1  0
 30 31  2  0
 31 32  1  0
 32 33  2  0
 33 34  1  0
 34 35  1  0
 33 36  1  0
 36 37  1  0
 37 38  1  0
 36 39  2  0
  6 40  1  0
 40 41  2  0
 41  3  1  0
 22 12  1  0
 39 30  1  0
 20 15  1  0
M  END
>  <Binding energies>  (74) 
[-8.41]

>  <Ligand effiencies>  (74) 
[-0.19113636363636363]

>  <Interactions>  (74) 
["V-B:LEU:475:CD1:9229, V-A:GLU:543:CD:4908, H-A:TYR:484:OH:4347, V-A:ARG:545:CZ:4926, H-A:GLY:454:N:4049, V-A:ILE:369:CG2:3236, V-B:TYR:539:CD2:9846, H-A:SER:385:OG:3409, V-A:LEU:475:CD1:4257, V-A:HIS:383:CE1:3392, H-A:HIS:383:NE2:3393, V-A:PRO:482:CG:4326, V-B:GLU:543:CG:9879, V-B:ALA:541:CB:9864, V-B:GLU:543:CD:9880, V-A:TYR:484:CE2:4345, V-A:HIS:456:CE1:4069, V-A:GLU:543:CG:4907, V-B:GLU:543:CA:9876, V-B:HIS:456:CE1:9041, V-B:TYR:484:CE2:9317, V-B:GLU:543:C:9874, V-B:GLU:543:CB:9878, H-B:TYR:484:OH:9319, H-B:GLY:454:N:9021, V-B:GLY:454:CA:9020, H-B:GLU:543:OE2:9882, V-A:GLU:543:C:4902, V-B:ARG:545:CZ:9898, V-B:HIS:456:CD2:9039, V-B:TYR:484:CZ:9318, H-B:GLU:543:O:9875, H-A:HIS:456:NE2:4070, H-A:LYS:547:NZ:4951"]

$$$$
RR22_Rahimova_2017
     RDKit          3D

 31 36  0  0  0  0  0  0  0  0999 V2000
  132.8510  125.0830   58.3640 O   0  0  0  0  0  0  0  0  0  0  0  0
  132.3140  124.4980   59.3020 C   0  0  0  0  0  0  0  0  0  0  0  0
  131.8950  125.0380   60.5050 N   0  0  0  0  0  0  0  0  0  0  0  0
  131.2270  124.2250   61.4750 C   0  0  1  0  0  0  0  0  0  0  0  0
  131.9960  124.3630   62.6730 O   0  0  0  0  0  0  0  0  0  0  0  0
  131.3680  124.8750   63.8090 C   0  0  0  0  0  0  0  0  0  0  0  0
  132.2020  125.3390   64.8260 C   0  0  0  0  0  0  0  0  0  0  0  0
  131.6470  125.8280   66.0090 C   0  0  0  0  0  0  0  0  0  0  0  0
  130.2620  125.8450   66.1760 C   0  0  0  0  0  0  0  0  0  0  0  0
  129.4270  125.3800   65.1580 C   0  0  0  0  0  0  0  0  0  0  0  0
  129.9680  124.9100   63.9570 C   0  0  0  0  0  0  0  0  0  0  0  0
  129.1540  124.3460   62.8140 C   0  0  1  0  0  0  0  0  0  0  0  0
  127.7570  124.8360   62.4910 C   0  0  0  0  0  0  0  0  0  0  0  0
  127.7390  124.5950   60.9790 C   0  0  0  0  0  0  0  0  0  0  0  0
  126.4890  124.5330   60.1950 C   0  0  0  0  0  0  0  0  0  0  0  0
  125.4470  123.6770   60.5810 C   0  0  0  0  0  0  0  0  0  0  0  0
  124.2700  123.6240   59.8390 C   0  0  0  0  0  0  0  0  0  0  0  0
  124.1280  124.4250   58.7090 C   0  0  0  0  0  0  0  0  0  0  0  0
  125.1530  125.2800   58.3130 C   0  0  0  0  0  0  0  0  0  0  0  0
  126.3300  125.3350   59.0540 C   0  0  0  0  0  0  0  0  0  0  0  0
  128.9270  124.4850   60.5140 N   0  0  0  0  0  0  0  0  0  0  0  0
  129.8230  124.6460   61.5840 N   0  0  0  0  0  0  0  0  0  0  0  0
  131.3780  122.7830   61.0120 C   0  0  0  0  0  0  0  0  0  0  0  0
  131.1790  121.7220   61.8290 C   0  0  0  0  0  0  0  0  0  0  0  0
  131.2710  120.2850   61.5070 C   0  0  0  0  0  0  0  0  0  0  0  0
  130.1490  119.4500   61.4000 C   0  0  0  0  0  0  0  0  0  0  0  0
  130.3130  118.0980   61.0930 C   0  0  0  0  0  0  0  0  0  0  0  0
  131.6060  117.6100   60.9060 C   0  0  0  0  0  0  0  0  0  0  0  0
  132.7100  118.3920   61.0130 N   0  0  0  0  0  0  0  0  0  0  0  0
  132.5290  119.7050   61.3100 C   0  0  0  0  0  0  0  0  0  0  0  0
  131.9320  122.7210   59.3320 S   0  0  0  0  0  0  0  0  0  0  0  0
  1  2  2  0
  2  3  1  0
  4  3  1  6
  4  5  1  0
  5  6  1  0
  6  7  2  0
  7  8  1  0
  8  9  2  0
  9 10  1  0
 10 11  2  0
 11 12  1  0
 12 13  1  6
 13 14  1  0
 14 15  1  0
 15 16  2  0
 16 17  1  0
 17 18  2  0
 18 19  1  0
 19 20  2  0
 14 21  2  0
 21 22  1  0
  4 23  1  0
 23 24  2  0
 24 25  1  0
 25 26  2  0
 26 27  1  0
 27 28  2  0
 28 29  1  0
 29 30  2  0
 23 31  1  0
 31  2  1  0
 22  4  1  0
 30 25  1  0
 11  6  1  0
 22 12  1  0
 20 15  1  0
M  END
>  <Binding energies>  (75) 
[-8.34]

>  <Ligand effiencies>  (75) 
[-0.260625]

>  <Interactions>  (75) 
["V-A:ASP:366:CG:3212, V-A:ASP:366:CB:3211, V-A:ARG:545:CZ:4926, H-A:ASP:366:OD2:3214, H-A:ASP:366:OD1:3213, H-A:SER:385:OG:3409, V-A:LEU:475:CD1:4257, V-A:HIS:383:CE1:3392, V-A:PRO:482:CB:4325, H-A:HIS:383:NE2:3393, V-A:PRO:482:CG:4326, V-B:PRO:540:CA:9855, V-B:LEU:363:CD1:8160, V-B:GLU:543:CG:9879, V-B:ALA:541:CB:9864, V-B:GLU:543:CD:9880, V-B:PRO:540:CB:9857, V-B:ALA:541:CA:9862, V-B:ASP:366:CG:8184, V-B:ASP:366:CB:8183, V-B:LEU:363:CA:8156, V-B:PRO:540:C:9853, V-B:TYR:531:CZ:9766, V-B:LEU:363:CB:8158, V-B:TYR:531:CE2:9765"]

$$$$
RR24_Rahimova_2017
     RDKit          3D

 43 49  0  0  0  0  0  0  0  0999 V2000
  129.6550  121.0170   61.5320 C   0  0  0  0  0  0  0  0  0  0  0  0
  129.7720  121.7870   60.2090 C   0  0  2  0  0  0  0  0  0  0  0  0
  130.9130  122.8470   60.2150 C   0  0  0  0  0  0  0  0  0  0  0  0
  131.7780  122.8750   61.0950 O   0  0  0  0  0  0  0  0  0  0  0  0
  130.8160  123.7250   59.1730 O   0  0  0  0  0  0  0  0  0  0  0  0
  130.4920  125.0400   59.4200 C   0  0  0  0  0  0  0  0  0  0  0  0
  129.7530  125.7520   58.4740 C   0  0  0  0  0  0  0  0  0  0  0  0
  129.4110  127.0790   58.7170 C   0  0  0  0  0  0  0  0  0  0  0  0
  129.7990  127.6970   59.9090 C   0  0  0  0  0  0  0  0  0  0  0  0
  129.4360  129.1650   60.1620 C   0  0  1  0  0  0  0  0  0  0  0  0
  128.4080  129.3170   61.3080 C   0  0  0  0  0  0  0  0  0  0  0  0
  128.5900  130.1570   62.3430 C   0  0  0  0  0  0  0  0  0  0  0  0
  129.7090  130.9440   62.4590 N   0  0  0  0  0  0  0  0  0  0  0  0
  130.7080  130.9100   61.5150 C   0  0  0  0  0  0  0  0  0  0  0  0
  131.7400  131.7540   61.7720 N   0  0  0  0  0  0  0  0  0  0  0  0
  132.8540  131.8010   60.9920 C   0  0  0  0  0  0  0  0  0  0  0  0
  133.8760  132.3320   61.4310 O   0  0  0  0  0  0  0  0  0  0  0  0
  132.7500  131.0760   59.8150 N   0  0  0  0  0  0  0  0  0  0  0  0
  133.8970  131.1660   58.8880 C   0  0  0  0  0  0  0  0  0  0  0  0
  131.7500  130.1890   59.4550 C   0  0  0  0  0  0  0  0  0  0  0  0
  131.7490  129.5340   58.4080 O   0  0  0  0  0  0  0  0  0  0  0  0
  130.6530  130.1020   60.4240 C   0  0  0  0  0  0  0  0  0  0  0  0
  127.4680  130.0930   63.2650 C   0  0  0  0  0  0  0  0  0  0  0  0
  127.1840  130.7460   64.4650 C   0  0  0  0  0  0  0  0  0  0  0  0
  125.9900  130.4590   65.1310 C   0  0  0  0  0  0  0  0  0  0  0  0
  125.0930  129.5280   64.5990 C   0  0  0  0  0  0  0  0  0  0  0  0
  125.3830  128.8770   63.3970 C   0  0  0  0  0  0  0  0  0  0  0  0
  126.5780  129.1670   62.7360 C   0  0  0  0  0  0  0  0  0  0  0  0
  127.1270  128.6380   61.4700 C   0  0  0  0  0  0  0  0  0  0  0  0
  126.6540  127.8110   60.6920 O   0  0  0  0  0  0  0  0  0  0  0  0
  130.5230  126.9750   60.8630 C   0  0  0  0  0  0  0  0  0  0  0  0
  130.8640  125.6480   60.6220 C   0  0  0  0  0  0  0  0  0  0  0  0
  128.4640  122.3630   59.7780 N   0  0  0  0  0  0  0  0  0  0  0  0
  128.1490  122.5110   58.4610 C   0  0  0  0  0  0  0  0  0  0  0  0
  128.8480  122.2220   57.4880 O   0  0  0  0  0  0  0  0  0  0  0  0
  126.7850  123.0940   58.4430 C   0  0  0  0  0  0  0  0  0  0  0  0
  125.9610  123.4600   57.3780 C   0  0  0  0  0  0  0  0  0  0  0  0
  124.6980  123.9930   57.6610 C   0  0  0  0  0  0  0  0  0  0  0  0
  124.2790  124.1510   58.9870 C   0  0  0  0  0  0  0  0  0  0  0  0
  125.1200  123.7780   60.0420 C   0  0  0  0  0  0  0  0  0  0  0  0
  126.3750  123.2500   59.7400 C   0  0  0  0  0  0  0  0  0  0  0  0
  127.4670  122.7690   60.6230 C   0  0  0  0  0  0  0  0  0  0  0  0
  127.4710  122.7390   61.8540 O   0  0  0  0  0  0  0  0  0  0  0  0
  2  1  1  1
  2  3  1  0
  3  4  2  0
  3  5  1  0
  5  6  1  0
  6  7  2  0
  7  8  1  0
  8  9  2  0
 10  9  1  1
 10 11  1  0
 11 12  2  0
 12 13  1  0
 13 14  1  0
 14 15  1  0
 15 16  1  0
 16 17  2  0
 16 18  1  0
 18 19  1  0
 18 20  1  0
 20 21  2  0
 20 22  1  0
 12 23  1  0
 23 24  2  0
 24 25  1  0
 25 26  2  0
 26 27  1  0
 27 28  2  0
 28 29  1  0
 29 30  2  0
  9 31  1  0
 31 32  2  0
  2 33  1  0
 33 34  1  0
 34 35  2  0
 34 36  1  0
 36 37  2  0
 37 38  1  0
 38 39  2  0
 39 40  1  0
 40 41  2  0
 41 42  1  0
 42 43  2  0
 32  6  1  0
 42 33  1  0
 22 10  1  0
 28 23  1  0
 41 36  1  0
 29 11  1  0
 22 14  2  0
M  END
>  <Binding energies>  (76) 
[-9.1]

>  <Ligand effiencies>  (76) 
[-0.20222222222222222]

>  <Interactions>  (76) 
["V-A:ASN:362:CB:3175, V-A:ALA:541:CB:4892, V-A:PRO:540:CA:4883, V-A:GLU:543:CD:4908, V-A:LEU:363:CD1:3188, V-A:PRO:540:CB:4885, V-A:ASP:366:CG:3212, H-A:GLU:543:OE2:4910, H-A:GLU:543:OE1:4909, V-B:TYR:539:CD2:9846, V-B:TYR:539:CE2:9848, H-B:ALA:541:N:9863, V-B:PRO:540:CA:9855, V-B:LEU:363:CD1:8160, V-B:ALA:541:CB:9864, V-B:MET:535:CE:9807, V-B:PRO:540:N:9856, V-B:PRO:540:CB:9857, V-B:TYR:539:C:9839, V-B:ALA:541:CA:9862, V-A:GLU:543:CG:4907, H-A:ALA:541:N:4891, V-B:ASP:366:CG:8184, V-A:ALA:541:CA:4890, V-B:ASP:366:CB:8183, V-B:ARG:545:CZ:9898, V-B:LEU:363:CA:8156, V-B:PRO:540:C:9853, V-B:TYR:484:CZ:9318, V-B:LEU:363:CB:8158, V-A:PRO:540:C:4881, V-B:TYR:531:CE2:9765, V-A:ASN:362:C:3171, V-A:LEU:363:CB:3186, V-A:LEU:363:CA:3184, V-A:ALA:541:C:4888, H-A:LEU:363:N:3185, H-A:ALA:541:O:4889"]

$$$$
RR25_Rahimova_2017
     RDKit          3D

 39 44  0  0  0  0  0  0  0  0999 V2000
  133.9180  125.5920   67.2910 O   0  0  0  0  0  0  0  0  0  0  0  0
  132.7930  125.8050   66.8370 C   0  0  0  0  0  0  0  0  0  0  0  0
  131.7610  125.7920   67.7420 O   0  0  0  0  0  0  0  0  0  0  0  0
  130.5020  126.2570   67.4090 C   0  0  0  0  0  0  0  0  0  0  0  0
  129.7080  126.7230   68.4560 C   0  0  0  0  0  0  0  0  0  0  0  0
  128.4260  127.1990   68.1920 C   0  0  0  0  0  0  0  0  0  0  0  0
  127.9180  127.2130   66.8850 C   0  0  0  0  0  0  0  0  0  0  0  0
  126.5550  127.7270   66.6060 N   0  0  0  0  0  0  0  0  0  0  0  0
  125.6400  127.4060   67.3600 O   0  0  0  0  0  0  0  0  0  0  0  0
  126.3900  128.4560   65.6320 O   0  0  0  0  0  0  0  0  0  0  0  0
  128.7300  126.7280   65.8460 C   0  0  0  0  0  0  0  0  0  0  0  0
  130.0150  126.2390   66.0940 C   0  0  0  0  0  0  0  0  0  0  0  0
  130.9340  125.7150   65.0060 C   0  0  0  0  0  0  0  0  0  0  0  0
  132.4090  126.0670   65.3520 C   0  0  2  0  0  0  0  0  0  0  0  0
  133.3900  125.4590   64.3070 C   0  0  0  0  0  0  0  0  0  0  0  0
  134.5030  125.1370   64.7320 O   0  0  0  0  0  0  0  0  0  0  0  0
  133.0060  125.1790   63.0250 N   0  0  0  0  0  0  0  0  0  0  0  0
  131.8310  125.8080   62.3850 C   0  0  0  0  0  0  0  0  0  0  0  0
  131.1380  124.7700   61.4780 C   0  0  0  0  0  0  0  0  0  0  0  0
  132.0750  124.1960   60.5080 N   0  0  0  0  0  0  0  0  0  0  0  0
  131.3900  123.3080   59.5590 C   0  0  0  0  0  0  0  0  0  0  0  0
  130.4070  122.3270   60.2530 C   0  0  0  0  0  0  0  0  0  0  0  0
  128.9550  122.6170   60.0730 N   0  0  0  0  0  0  0  0  0  0  0  0
  128.1610  122.3510   61.1680 C   0  0  0  0  0  0  0  0  0  0  0  0
  128.5990  121.8710   62.2200 O   0  0  0  0  0  0  0  0  0  0  0  0
  126.6990  122.7120   60.9920 C   0  0  0  0  0  0  0  0  0  0  0  0
  125.8070  122.5080   62.0520 C   0  0  0  0  0  0  0  0  0  0  0  0
  124.4580  122.8360   61.9270 C   0  0  0  0  0  0  0  0  0  0  0  0
  123.9600  123.3810   60.7450 C   0  0  0  0  0  0  0  0  0  0  0  0
  124.8240  123.6050   59.6460 C   0  0  0  0  0  0  0  0  0  0  0  0
  124.3850  124.1560   58.4190 C   0  0  0  0  0  0  0  0  0  0  0  0
  125.2900  124.3540   57.3780 C   0  0  0  0  0  0  0  0  0  0  0  0
  126.6340  124.0160   57.5230 C   0  0  0  0  0  0  0  0  0  0  0  0
  127.1130  123.4680   58.7200 C   0  0  0  0  0  0  0  0  0  0  0  0
  126.1980  123.2640   59.7850 C   0  0  0  0  0  0  0  0  0  0  0  0
  128.5850  123.1210   58.8430 C   0  0  0  0  0  0  0  0  0  0  0  0
  129.3790  123.2970   57.9130 O   0  0  0  0  0  0  0  0  0  0  0  0
  133.1570  123.5050   61.2110 C   0  0  0  0  0  0  0  0  0  0  0  0
  133.9470  124.4660   62.1310 C   0  0  0  0  0  0  0  0  0  0  0  0
  1  2  2  0
  2  3  1  0
  3  4  1  0
  4  5  2  0
  5  6  1  0
  6  7  2  0
  7  8  1  0
  8  9  2  0
  8 10  1  0
  7 11  1  0
 11 12  2  0
 12 13  1  0
 13 14  1  0
 14 15  1  6
 15 16  2  0
 15 17  1  0
 17 18  1  0
 18 19  1  0
 19 20  1  0
 20 21  1  0
 21 22  1  0
 22 23  1  0
 23 24  1  0
 24 25  2  0
 24 26  1  0
 26 27  2  0
 27 28  1  0
 28 29  2  0
 29 30  1  0
 30 31  2  0
 31 32  1  0
 32 33  2  0
 33 34  1  0
 34 35  2  0
 34 36  1  0
 36 37  2  0
 20 38  1  0
 38 39  1  0
 14  2  1  0
 39 17  1  0
 12  4  1  0
 36 23  1  0
 35 26  1  0
 35 30  1  0
M  CHG  2   8   1  10  -1
M  END
>  <Binding energies>  (77) 
[-10.28]

>  <Ligand effiencies>  (77) 
[-0.2635897435897436]

>  <Interactions>  (77) 
["V-A:GLU:543:CD:4908, V-A:ASP:366:CG:3212, V-A:ARG:545:CD:4923, V-A:ARG:545:CG:4922, H-A:TYR:484:OH:4347, V-A:TYR:484:CZ:4346, H-A:ARG:545:NH2:4928, H-A:ARG:545:NH1:4927, V-A:ARG:545:CZ:4926, H-A:GLY:454:N:4049, H-A:ARG:545:NE:4924, V-B:TYR:539:CE2:9848, H-B:ALA:541:N:9863, V-B:PRO:540:CA:9855, V-B:LEU:363:CD1:8160, V-B:GLU:543:CG:9879, V-B:ALA:541:CB:9864, V-B:MET:535:CE:9807, V-B:GLU:543:CD:9880, V-B:PRO:540:CB:9857, V-A:HIS:456:CE1:4069, V-B:ALA:541:CA:9862, V-B:HIS:456:CE1:9041, V-B:GLU:543:CB:9878, H-B:ARG:545:NH2:9900, V-B:ASP:366:CG:8184, V-B:ASP:366:CB:8183, H-B:ARG:545:NE:9896, V-B:LEU:363:CA:8156, V-B:PRO:540:C:9853, H-B:TYR:539:OH:9850, V-B:ALA:541:C:9860, V-B:TYR:531:CZ:9766, V-B:LEU:363:CB:8158, V-B:TYR:531:CE2:9765, V-B:ASN:362:CB:8147, V-B:ASN:362:C:8143"]

$$$$
RR27_Rahimova_2017
     RDKit          3D

 39 44  0  0  0  0  0  0  0  0999 V2000
  125.2700  131.3800   62.7390 O   0  0  0  0  0  0  0  0  0  0  0  0
  126.4210  131.2900   62.3020 C   0  0  0  0  0  0  0  0  0  0  0  0
  126.7430  131.9470   60.9280 C   0  0  0  0  0  0  0  0  0  0  0  0
  126.4830  133.4650   60.9080 C   0  0  0  0  0  0  0  0  0  0  0  0
  127.4160  134.3830   61.4130 C   0  0  0  0  0  0  0  0  0  0  0  0
  127.1490  135.7490   61.3770 C   0  0  0  0  0  0  0  0  0  0  0  0
  125.9490  136.2030   60.8370 C   0  0  0  0  0  0  0  0  0  0  0  0
  125.0120  135.3040   60.3350 C   0  0  0  0  0  0  0  0  0  0  0  0
  125.2790  133.9380   60.3710 C   0  0  0  0  0  0  0  0  0  0  0  0
  126.1150  131.1650   59.7590 C   0  0  0  0  0  0  0  0  0  0  0  0
  126.9010  130.5670   58.7650 C   0  0  0  0  0  0  0  0  0  0  0  0
  126.3000  129.8770   57.7150 C   0  0  0  0  0  0  0  0  0  0  0  0
  124.9120  129.7880   57.6520 C   0  0  0  0  0  0  0  0  0  0  0  0
  124.1180  130.3870   58.6270 C   0  0  0  0  0  0  0  0  0  0  0  0
  124.7190  131.0760   59.6750 C   0  0  0  0  0  0  0  0  0  0  0  0
  127.4320  130.7680   63.0530 N   0  0  0  0  0  0  0  0  0  0  0  0
  128.7470  130.4040   62.5030 C   0  0  0  0  0  0  0  0  0  0  0  0
  128.6320  128.9510   61.9910 C   0  0  0  0  0  0  0  0  0  0  0  0
  128.1290  127.9620   63.0900 C   0  0  0  0  0  0  0  0  0  0  0  0
  127.8900  126.5220   62.6020 C   0  0  0  0  0  0  0  0  0  0  0  0
  126.9440  126.3590   61.6300 N   0  0  0  0  0  0  0  0  0  0  0  0
  126.7130  125.1080   61.1440 C   0  0  0  0  0  0  0  0  0  0  0  0
  125.7950  124.8200   60.1680 O   0  0  0  0  0  0  0  0  0  0  0  0
  127.4570  124.0320   61.6650 C   0  0  0  0  0  0  0  0  0  0  0  0
  127.4820  122.6930   61.4080 N   0  0  0  0  0  0  0  0  0  0  0  0
  128.4250  122.1310   62.2470 N   0  0  0  0  0  0  0  0  0  0  0  0
  128.9760  123.1060   62.9990 N   0  0  0  0  0  0  0  0  0  0  0  0
  129.9930  122.7870   63.9980 C   0  0  0  0  0  0  0  0  0  0  0  0
  130.4830  123.9980   64.7820 C   0  0  0  0  0  0  0  0  0  0  0  0
  131.6420  124.6710   64.3850 C   0  0  0  0  0  0  0  0  0  0  0  0
  132.0850  125.7870   65.0970 C   0  0  0  0  0  0  0  0  0  0  0  0
  131.3680  126.2380   66.2050 C   0  0  0  0  0  0  0  0  0  0  0  0
  130.2040  125.5760   66.6000 C   0  0  0  0  0  0  0  0  0  0  0  0
  129.3000  126.1490   67.9550 Cl  0  0  0  0  0  0  0  0  0  0  0  0
  129.7660  124.4560   65.8930 C   0  0  0  0  0  0  0  0  0  0  0  0
  128.3990  124.3230   62.6760 C   0  0  0  0  0  0  0  0  0  0  0  0
  128.6400  125.5380   63.1760 N   0  0  0  0  0  0  0  0  0  0  0  0
  126.9300  128.5490   63.8970 C   0  0  0  0  0  0  0  0  0  0  0  0
  127.1290  130.0340   64.2920 C   0  0  0  0  0  0  0  0  0  0  0  0
  1  2  2  0
  2  3  1  0
  3  4  1  0
  4  5  2  0
  5  6  1  0
  6  7  2  0
  7  8  1  0
  8  9  2  0
  3 10  1  0
 10 11  2  0
 11 12  1  0
 12 13  2  0
 13 14  1  0
 14 15  2  0
  2 16  1  0
 16 17  1  0
 17 18  1  0
 18 19  1  0
 19 20  1  0
 20 21  2  0
 21 22  1  0
 22 23  1  0
 22 24  2  0
 24 25  1  0
 25 26  2  0
 26 27  1  0
 27 28  1  0
 28 29  1  0
 29 30  2  0
 30 31  1  0
 31 32  2  0
 32 33  1  0
 33 34  1  0
 33 35  2  0
 27 36  1  0
 36 37  2  0
 19 38  1  0
 38 39  1  0
  9  4  1  0
 15 10  1  0
 39 16  1  0
 37 20  1  0
 36 24  1  0
 35 29  1  0
M  END
>  <Binding energies>  (78) 
[-10.72]

>  <Ligand effiencies>  (78) 
[-0.268]

>  <Interactions>  (78) 
["V-A:ALA:541:CB:4892, V-A:TYR:539:CE1:4875, V-A:TYR:539:CD1:4873, V-A:GLU:543:CD:4908, V-A:TYR:484:CZ:4346, V-A:ARG:545:CZ:4926, H-B:ALA:541:N:9863, V-B:GLU:543:CG:9879, H-B:ASP:366:OD1:8185, V-B:ALA:541:CB:9864, V-B:GLU:543:CD:9880, V-A:TYR:484:CE2:4345, V-A:HIS:456:CE1:4069, V-B:GLU:543:CB:9878, H-B:ARG:545:NH2:9900, V-B:PRO:482:CB:9297, V-B:ILE:369:CG2:8208, V-B:PRO:482:CG:9298, V-B:ASP:366:CG:8184, V-B:LEU:373:CD1:8251, V-B:ASP:366:CB:8183, V-B:SER:385:CB:8380, V-B:ASP:366:C:8179, V-B:ASP:366:CA:8181, V-A:TYR:539:CZ:4877"]

$$$$
RR28_Rahimova_2017
     RDKit          3D

 46 49  0  0  0  0  0  0  0  0999 V2000
  130.6030  118.0250   60.6340 C   0  0  0  0  0  0  0  0  0  0  0  0
  130.4880  119.4110   61.2590 C   0  0  0  0  0  0  0  0  0  0  0  0
  130.4030  119.5200   62.4810 O   0  0  0  0  0  0  0  0  0  0  0  0
  130.4860  120.4540   60.4050 N   0  0  0  0  0  0  0  0  0  0  0  0
  130.3800  121.8960   60.7200 C   0  0  0  0  0  0  0  0  0  0  0  0
  128.9660  122.3850   60.2920 C   0  0  0  0  0  0  0  0  0  0  0  0
  128.0420  122.7660   61.2770 C   0  0  0  0  0  0  0  0  0  0  0  0
  126.7680  123.2040   60.9300 C   0  0  0  0  0  0  0  0  0  0  0  0
  126.3870  123.2700   59.5890 C   0  0  0  0  0  0  0  0  0  0  0  0
  124.9810  123.7490   59.2280 C   0  0  0  0  0  0  0  0  0  0  0  0
  124.1270  123.6290   60.2470 F   0  0  0  0  0  0  0  0  0  0  0  0
  125.0080  125.0310   58.8640 F   0  0  0  0  0  0  0  0  0  0  0  0
  124.5190  123.0230   58.2100 F   0  0  0  0  0  0  0  0  0  0  0  0
  127.2970  122.8920   58.5990 C   0  0  0  0  0  0  0  0  0  0  0  0
  128.5720  122.4540   58.9470 C   0  0  0  0  0  0  0  0  0  0  0  0
  131.5540  122.6950   60.0500 C   0  0  0  0  0  0  0  0  0  0  0  0
  132.9480  122.3310   60.6220 C   0  0  0  0  0  0  0  0  0  0  0  0
  132.8940  122.6180   62.0650 N   0  0  0  0  0  0  0  0  0  0  0  0
  133.3080  123.8230   62.5430 C   0  0  0  0  0  0  0  0  0  0  0  0
  133.8910  124.6430   61.8300 O   0  0  0  0  0  0  0  0  0  0  0  0
  133.1910  124.1060   64.0600 C   0  0  0  0  0  0  0  0  0  0  0  0
  132.2720  125.2930   64.4600 C   0  0  0  0  0  0  0  0  0  0  0  0
  130.9020  124.8900   65.0560 C   0  0  0  0  0  0  0  0  0  0  0  0
  130.0570  124.4140   64.2930 O   0  0  0  0  0  0  0  0  0  0  0  0
  130.7110  124.9380   66.4050 N   0  0  0  0  0  0  0  0  0  0  0  0
  131.5240  125.7640   67.3060 C   0  0  0  0  0  0  0  0  0  0  0  0
  130.8890  127.1710   67.3080 C   0  0  0  0  0  0  0  0  0  0  0  0
  129.3760  127.2080   67.7180 C   0  0  0  0  0  0  0  0  0  0  0  0
  128.7920  128.5010   67.3020 N   0  0  0  0  0  0  0  0  0  0  0  0
  127.5060  128.7750   67.0040 C   0  0  0  0  0  0  0  0  0  0  0  0
  127.2000  130.2090   66.5840 C   0  0  0  0  0  0  0  0  0  0  0  0
  126.5960  127.9480   67.0520 O   0  0  0  0  0  0  0  0  0  0  0  0
  129.3120  127.1430   69.2790 C   0  0  0  0  0  0  0  0  0  0  0  0
  129.8540  128.1420   70.1050 C   0  0  0  0  0  0  0  0  0  0  0  0
  129.7750  128.0460   71.4920 C   0  0  0  0  0  0  0  0  0  0  0  0
  129.1550  126.9460   72.0890 C   0  0  0  0  0  0  0  0  0  0  0  0
  129.0580  126.8280   73.6100 C   0  0  0  0  0  0  0  0  0  0  0  0
  129.6220  127.8830   74.2000 F   0  0  0  0  0  0  0  0  0  0  0  0
  127.7740  126.7790   73.9630 F   0  0  0  0  0  0  0  0  0  0  0  0
  129.6600  125.7300   74.0690 F   0  0  0  0  0  0  0  0  0  0  0  0
  128.6200  125.9410   71.2820 C   0  0  0  0  0  0  0  0  0  0  0  0
  128.7000  126.0400   69.8970 C   0  0  0  0  0  0  0  0  0  0  0  0
  128.6230  126.0120   67.0160 C   0  0  0  0  0  0  0  0  0  0  0  0
  129.3850  124.6600   66.9710 C   0  0  0  0  0  0  0  0  0  0  0  0
  131.9520  121.7570   62.7950 C   0  0  0  0  0  0  0  0  0  0  0  0
  130.5320  122.0850   62.2650 C   0  0  0  0  0  0  0  0  0  0  0  0
  1  2  1  0
  2  3  2  0
  2  4  1  0
  4  5  1  0
  5  6  1  0
  6  7  2  0
  7  8  1  0
  8  9  2  0
  9 10  1  0
 10 11  1  0
 10 12  1  0
 10 13  1  0
  9 14  1  0
 14 15  2  0
  5 16  1  0
 16 17  1  0
 17 18  1  0
 18 19  1  0
 19 20  2  0
 19 21  1  0
 21 22  1  0
 22 23  1  0
 23 24  2  0
 23 25  1  0
 25 26  1  0
 26 27  1  0
 27 28  1  0
 28 29  1  0
 29 30  1  0
 30 31  1  0
 30 32  2  0
 28 33  1  0
 33 34  2  0
 34 35  1  0
 35 36  2  0
 36 37  1  0
 37 38  1  0
 37 39  1  0
 37 40  1  0
 36 41  1  0
 41 42  2  0
 28 43  1  0
 43 44  1  0
 18 45  1  0
 45 46  1  0
 46  5  1  0
 15  6  1  0
 44 25  1  0
 42 33  1  0
M  END
>  <Binding energies>  (79) 
[-9.41]

>  <Ligand effiencies>  (79) 
[-0.19604166666666667]

>  <Interactions>  (79) 
["V-A:GLU:543:CD:4908, V-A:GLY:454:CA:4048, V-A:TYR:484:CZ:4346, H-A:GLU:543:OE1:4909, V-A:ARG:545:CZ:4926, V-A:ILE:369:CG2:3236, V-B:TYR:539:CD2:9846, V-B:TYR:539:CE2:9848, V-A:LEU:475:CD1:4257, H-B:ALA:541:N:9863, H-B:TYR:539:O:9840, V-A:PRO:482:CG:4326, V-B:PRO:540:CA:9855, V-B:LEU:363:CD1:8160, V-B:PRO:540:CG:9858, V-B:GLU:543:CG:9879, V-B:ALA:541:CB:9864, V-B:PRO:540:N:9856, V-B:GLU:543:CD:9880, V-B:PRO:540:CB:9857, V-B:TYR:539:C:9839, V-A:TYR:484:CE2:4345, V-A:HIS:456:CE1:4069, V-A:GLU:543:CG:4907, V-B:GLU:543:CA:9876, V-B:HIS:456:CE1:9041, V-B:TYR:484:CE2:9317, V-A:GLU:543:CB:4906, V-B:GLU:543:C:9874, V-B:GLU:543:CB:9878, V-B:ASP:366:CG:8184, V-B:ASP:366:CB:8183, V-A:GLU:543:C:4902, V-B:LEU:363:CA:8156, V-B:HIS:456:CD2:9039, V-B:TYR:484:CZ:9318, H-A:GLU:543:O:4903, V-B:LEU:363:CB:8158, V-B:ASN:362:C:8143, V-B:LEU:363:CG:8159"]

$$$$
RR29_Rahimova_2017
     RDKit          3D

 18 19  0  0  0  0  0  0  0  0999 V2000
  128.6360  126.1650   70.5670 C   0  0  0  0  0  0  0  0  0  0  0  0
  128.5560  126.2500   69.0500 C   0  0  0  0  0  0  0  0  0  0  0  0
  129.7790  125.6220   68.3450 C   0  0  0  0  0  0  0  0  0  0  0  0
  130.7060  126.6990   67.7420 C   0  0  0  0  0  0  0  0  0  0  0  0
  131.6310  126.1320   66.6760 C   0  0  0  0  0  0  0  0  0  0  0  0
  132.9930  125.9230   66.9650 C   0  0  0  0  0  0  0  0  0  0  0  0
  133.8630  125.4010   65.9970 C   0  0  0  0  0  0  0  0  0  0  0  0
  133.3320  125.1120   64.7450 C   0  0  0  0  0  0  0  0  0  0  0  0
  132.0120  125.3150   64.4580 C   0  0  0  0  0  0  0  0  0  0  0  0
  131.1240  125.8220   65.4010 C   0  0  0  0  0  0  0  0  0  0  0  0
  131.7630  124.9180   63.1820 O   0  0  0  0  0  0  0  0  0  0  0  0
  133.0190  124.6590   62.6140 C   0  0  0  0  0  0  0  0  0  0  0  0
  133.9520  124.5800   63.6590 O   0  0  0  0  0  0  0  0  0  0  0  0
  127.5360  126.8170   68.5200 N   0  0  0  0  0  0  0  0  0  0  0  0
  127.5020  126.9730   67.1510 N   0  0  0  0  0  0  0  0  0  0  0  0
  128.0190  128.0280   66.5010 C   0  0  0  0  0  0  0  0  0  0  0  0
  128.6460  129.0500   67.0850 N   0  0  0  0  0  0  0  0  0  0  0  0
  127.9000  128.0590   65.1820 N   0  0  0  0  0  0  0  0  0  0  0  0
  1  2  1  0
  2  3  1  0
  3  4  1  0
  4  5  1  0
  5  6  2  0
  6  7  1  0
  7  8  2  0
  8  9  1  0
  9 10  2  0
  9 11  1  0
 11 12  1  0
 12 13  1  0
  2 14  2  0
 14 15  1  0
 15 16  1  0
 16 17  1  0
 16 18  2  0
 10  5  1  0
 13  8  1  0
M  CHG  1  18   1
M  END
>  <Binding energies>  (80) 
[-7.31]

>  <Ligand effiencies>  (80) 
[-0.3178260869565217]

>  <Interactions>  (80) 
["V-A:GLU:543:CD:4908, V-A:ARG:545:CD:4923, V-A:ARG:545:CG:4922, V-A:TYR:484:CZ:4346, H-A:ARG:545:NH2:4928, H-A:GLU:543:OE1:4909, V-A:ARG:545:CZ:4926, H-A:GLY:454:N:4049, H-B:GLU:543:OE1:9881, V-B:GLU:543:CG:9879, V-B:GLU:543:CD:9880, V-A:TYR:484:CE2:4345, V-A:HIS:456:CE1:4069, V-A:GLU:543:CG:4907, V-B:HIS:456:CE1:9041, V-A:GLU:543:CB:4906, V-B:GLU:543:C:9874, V-B:GLU:543:CB:9878, H-B:GLU:543:OE2:9882, V-B:HIS:456:CD2:9039, H-A:GLU:543:O:4903"]

$$$$
RR30_Rahimova_2017
     RDKit          3D

 18 19  0  0  0  0  0  0  0  0999 V2000
  134.3030  125.1290   66.9870 C   0  0  0  0  0  0  0  0  0  0  0  0
  133.1080  125.5480   66.1180 C   0  0  0  0  0  0  0  0  0  0  0  0
  132.0920  126.3570   66.8930 C   0  0  0  0  0  0  0  0  0  0  0  0
  132.3010  127.3890   67.6730 N   0  0  0  0  0  0  0  0  0  0  0  0
  131.0500  127.7650   68.1530 N   0  0  0  0  0  0  0  0  0  0  0  0
  130.1940  126.9240   67.6300 C   0  0  0  0  0  0  0  0  0  0  0  0
  128.4440  126.8940   67.8520 S   0  0  0  0  0  0  0  0  0  0  0  0
  128.0430  128.6150   67.4130 C   0  0  0  0  0  0  0  0  0  0  0  0
  127.2750  128.7120   66.0920 C   0  0  0  0  0  0  0  0  0  0  0  0
  127.6830  128.0870   65.1110 O   0  0  0  0  0  0  0  0  0  0  0  0
  126.1960  129.5270   66.0950 N   0  0  0  0  0  0  0  0  0  0  0  0
  125.3500  129.7770   65.0250 C   0  0  0  0  0  0  0  0  0  0  0  0
  124.0460  129.6240   64.9650 N   0  0  0  0  0  0  0  0  0  0  0  0
  123.5300  129.9750   63.7240 N   0  0  0  0  0  0  0  0  0  0  0  0
  124.4450  130.3840   62.8760 C   0  0  0  0  0  0  0  0  0  0  0  0
  124.1300  130.8160   61.4620 C   0  0  0  0  0  0  0  0  0  0  0  0
  126.0510  130.3720   63.5520 S   0  0  0  0  0  0  0  0  0  0  0  0
  130.7830  126.0090   66.8190 O   0  0  0  0  0  0  0  0  0  0  0  0
  1  2  1  0
  2  3  1  0
  3  4  2  0
  4  5  1  0
  5  6  2  0
  6  7  1  0
  7  8  1  0
  8  9  1  0
  9 10  2  0
  9 11  1  0
 11 12  1  0
 12 13  2  0
 13 14  1  0
 14 15  2  0
 15 16  1  0
 15 17  1  0
  6 18  1  0
 18  3  1  0
 17 12  1  0
M  END
>  <Binding energies>  (81) 
[-6.24]

>  <Ligand effiencies>  (81) 
[-0.32842105263157895]

>  <Interactions>  (81) 
["V-A:ARG:545:CD:4923, V-A:ARG:545:CG:4922, H-A:TYR:484:OH:4347, V-A:GLY:454:CA:4048, V-A:TYR:484:CZ:4346, V-A:ARG:545:CZ:4926, H-A:ARG:545:NE:4924, V-A:HIS:456:CE1:4069, V-B:HIS:456:CE1:9041, H-B:TYR:484:OH:9319, H-B:ARG:545:NH2:9900, H-B:GLY:454:N:9021, V-B:ILE:369:CD1:8210, H-B:ARG:545:NH1:9899, V-B:ASP:366:CG:8184, H-B:ARG:545:NE:9896, V-B:ARG:545:CZ:9898, V-B:TYR:484:CZ:9318, V-A:ILE:455:C:4051"]

$$$$
RR31_Rahimova_2017
     RDKit          3D

 18 19  0  0  0  0  0  0  0  0999 V2000
  124.8060  135.4250   60.2540 C   0  0  0  0  0  0  0  0  0  0  0  0
  125.0660  134.3270   61.2760 C   0  0  0  0  0  0  0  0  0  0  0  0
  124.0090  133.5130   61.6860 C   0  0  0  0  0  0  0  0  0  0  0  0
  124.2160  132.4970   62.6160 C   0  0  0  0  0  0  0  0  0  0  0  0
  125.4890  132.2580   63.1590 C   0  0  0  0  0  0  0  0  0  0  0  0
  125.7100  131.2500   64.1010 N   0  0  0  0  0  0  0  0  0  0  0  0
  124.8910  130.0230   64.1390 C   0  0  0  0  0  0  0  0  0  0  0  0
  124.9990  129.2340   65.4660 C   0  0  0  0  0  0  0  0  0  0  0  0
  126.3950  128.9020   65.7650 N   0  0  0  0  0  0  0  0  0  0  0  0
  126.5260  128.1230   67.0000 C   0  0  0  0  0  0  0  0  0  0  0  0
  127.9250  128.2350   67.6370 C   0  0  0  0  0  0  0  0  0  0  0  0
  128.8780  127.1310   67.1500 C   0  0  0  0  0  0  0  0  0  0  0  0
  128.6510  126.8640   65.6580 N   0  0  0  0  0  0  0  0  0  0  0  0
  127.1250  130.1620   65.8980 C   0  0  0  0  0  0  0  0  0  0  0  0
  127.0780  130.9660   64.5780 C   0  0  0  0  0  0  0  0  0  0  0  0
  126.5410  133.0890   62.7450 C   0  0  0  0  0  0  0  0  0  0  0  0
  126.3460  134.1140   61.8120 C   0  0  0  0  0  0  0  0  0  0  0  0
  127.5300  134.9830   61.4060 C   0  0  0  0  0  0  0  0  0  0  0  0
  1  2  1  0
  2  3  2  0
  3  4  1  0
  4  5  2  0
  5  6  1  0
  6  7  1  0
  7  8  1  0
  8  9  1  0
  9 10  1  0
 10 11  1  0
 11 12  1  0
 12 13  1  0
  9 14  1  0
 14 15  1  0
  5 16  1  0
 16 17  2  0
 17 18  1  0
 17  2  1  0
 15  6  1  0
M  CHG  1  13   1
M  END
>  <Binding energies>  (82) 
[-7.05]

>  <Ligand effiencies>  (82) 
[-0.3357142857142857]

>  <Interactions>  (82) 
["V-A:ALA:541:CB:4892, V-A:TYR:539:CD1:4873, V-B:LEU:475:CD1:9229, V-A:GLU:543:CD:4908, V-A:TYR:539:C:4867, H-A:GLU:543:OE1:4909, V-B:GLU:543:CD:9880, V-A:GLU:543:CG:4907, V-B:HIS:456:CE1:9041, V-B:TYR:484:CE2:9317, H-B:TYR:484:OH:9319, V-B:PRO:482:CB:9297, V-B:GLY:454:CA:9020, V-B:ILE:369:CG2:8208, V-B:ILE:369:CD1:8210, V-B:ILE:369:CG1:8209, V-B:PRO:482:CG:9298, V-A:ALA:541:CA:4890, V-B:LEU:373:CD1:8251, H-B:GLU:543:OE2:9882, V-B:SER:385:CB:8380, V-B:ARG:545:CZ:9898, V-B:TYR:484:CZ:9318"]

$$$$
RR32_Rahimova_2017
     RDKit          3D

 18 20  0  0  0  0  0  0  0  0999 V2000
  129.8300  130.2900   57.2540 C   0  0  0  0  0  0  0  0  0  0  0  0
  129.9420  130.8830   58.6550 C   0  0  0  0  0  0  0  0  0  0  0  0
  128.7750  131.3290   59.2780 C   0  0  0  0  0  0  0  0  0  0  0  0
  128.8370  131.8730   60.5570 C   0  0  0  0  0  0  0  0  0  0  0  0
  127.6780  132.3140   61.1710 N   0  0  0  0  0  0  0  0  0  0  0  0
  127.2450  133.6940   60.8860 C   0  0  0  0  0  0  0  0  0  0  0  0
  126.0490  134.1500   61.7540 C   0  0  0  0  0  0  0  0  0  0  0  0
  124.9100  133.2540   61.5570 N   0  0  0  0  0  0  0  0  0  0  0  0
  123.7720  133.7030   62.3510 C   0  0  0  0  0  0  0  0  0  0  0  0
  125.3160  131.9120   61.9670 C   0  0  0  0  0  0  0  0  0  0  0  0
  126.5030  131.4220   61.1050 C   0  0  0  0  0  0  0  0  0  0  0  0
  130.0020  131.9960   61.2440 N   0  0  0  0  0  0  0  0  0  0  0  0
  131.1580  131.5740   60.6630 C   0  0  0  0  0  0  0  0  0  0  0  0
  132.3580  131.7170   61.4010 C   0  0  0  0  0  0  0  0  0  0  0  0
  133.5680  131.3020   60.8570 C   0  0  0  0  0  0  0  0  0  0  0  0
  133.6150  130.7430   59.5860 C   0  0  0  0  0  0  0  0  0  0  0  0
  132.4540  130.5880   58.8340 C   0  0  0  0  0  0  0  0  0  0  0  0
  131.1910  130.9990   59.3500 C   0  0  0  0  0  0  0  0  0  0  0  0
  1  2  1  0
  2  3  2  0
  3  4  1  0
  4  5  1  0
  5  6  1  0
  6  7  1  0
  7  8  1  0
  8  9  1  0
  8 10  1  0
 10 11  1  0
  4 12  2  0
 12 13  1  0
 13 14  2  0
 14 15  1  0
 15 16  2  0
 16 17  1  0
 17 18  2  0
 18  2  1  0
 11  5  1  0
 18 13  1  0
M  END
>  <Binding energies>  (83) 
[-6.07]

>  <Ligand effiencies>  (83) 
[-0.33722222222222226]

>  <Interactions>  (83) 
["V-A:ASN:362:CB:3175, V-A:ALA:541:CB:4892, V-A:PRO:540:CA:4883, V-A:TYR:539:CD1:4873, V-B:LEU:475:CD1:9229, V-A:PRO:540:CB:4885, V-A:ASP:366:CG:3212, V-A:ASP:366:CB:3211, V-B:GLY:454:CA:9020, V-B:ILE:369:CG2:8208, V-B:ILE:369:CD1:8210, H-A:ALA:541:N:4891, V-A:PRO:540:C:4881, V-A:ASN:362:C:3171, V-A:LEU:363:CA:3184"]

$$$$
RR5_Rahimova_2017
     RDKit          3D

 45 50  0  0  0  0  0  0  0  0999 V2000
  128.3370  121.7390   60.3340 O   0  0  0  0  0  0  0  0  0  0  0  0
  128.4440  122.5380   61.2630 C   0  0  0  0  0  0  0  0  0  0  0  0
  127.1930  122.9540   62.0610 C   0  0  0  0  0  0  0  0  0  0  0  0
  126.1790  123.8320   61.2450 C   0  0  2  0  0  0  0  0  0  0  0  0
  126.1280  125.2540   61.6420 N   0  0  0  0  0  0  0  0  0  0  0  0
  127.2580  125.9270   62.0850 C   0  0  0  0  0  0  0  0  0  0  0  0
  128.4030  125.4740   62.1590 O   0  0  0  0  0  0  0  0  0  0  0  0
  126.8970  127.1720   62.4410 O   0  0  0  0  0  0  0  0  0  0  0  0
  127.8270  128.2510   62.4160 C   0  0  0  0  0  0  0  0  0  0  0  0
  127.2220  129.5130   63.0690 C   0  0  0  0  0  0  0  0  0  0  0  0
  126.1020  130.1410   62.2590 C   0  0  0  0  0  0  0  0  0  0  0  0
  126.1160  130.6230   60.9470 C   0  0  0  0  0  0  0  0  0  0  0  0
  124.9490  131.1460   60.3860 C   0  0  0  0  0  0  0  0  0  0  0  0
  123.7710  131.1900   61.1330 C   0  0  0  0  0  0  0  0  0  0  0  0
  123.7550  130.7110   62.4450 C   0  0  0  0  0  0  0  0  0  0  0  0
  124.9230  130.1890   63.0030 C   0  0  0  0  0  0  0  0  0  0  0  0
  125.1930  129.6340   64.3390 C   0  0  0  0  0  0  0  0  0  0  0  0
  124.3630  129.4690   65.4510 C   0  0  0  0  0  0  0  0  0  0  0  0
  124.8840  128.9260   66.6260 C   0  0  0  0  0  0  0  0  0  0  0  0
  126.2270  128.5470   66.6880 C   0  0  0  0  0  0  0  0  0  0  0  0
  127.0510  128.7090   65.5740 C   0  0  0  0  0  0  0  0  0  0  0  0
  126.5330  129.2500   64.3940 C   0  0  0  0  0  0  0  0  0  0  0  0
  124.7560  123.2240   61.3010 C   0  0  0  0  0  0  0  0  0  0  0  0
  124.3670  122.4490   62.1520 O   0  0  0  0  0  0  0  0  0  0  0  0
  124.0090  123.7060   60.2650 O   0  0  0  0  0  0  0  0  0  0  0  0
  129.6090  123.0810   61.6830 N   0  0  0  0  0  0  0  0  0  0  0  0
  131.0240  122.9610   61.2200 C   0  0  0  0  0  0  0  0  0  0  0  0
  131.8030  123.7160   62.3500 C   0  0  0  0  0  0  0  0  0  0  0  0
  133.1500  124.0800   62.1940 C   0  0  0  0  0  0  0  0  0  0  0  0
  133.8320  124.7520   63.2050 C   0  0  0  0  0  0  0  0  0  0  0  0
  133.1800  125.0620   64.3940 C   0  0  0  0  0  0  0  0  0  0  0  0
  131.8470  124.7140   64.5750 C   0  0  0  0  0  0  0  0  0  0  0  0
  131.1630  124.0520   63.5600 C   0  0  0  0  0  0  0  0  0  0  0  0
  131.3700  121.4350   61.1670 C   0  0  0  0  0  0  0  0  0  0  0  0
  130.5560  120.4720   61.7840 C   0  0  0  0  0  0  0  0  0  0  0  0
  130.8940  119.1210   61.7400 C   0  0  0  0  0  0  0  0  0  0  0  0
  132.0510  118.7170   61.0820 C   0  0  0  0  0  0  0  0  0  0  0  0
  132.8710  119.6520   60.4600 C   0  0  0  0  0  0  0  0  0  0  0  0
  132.5280  121.0000   60.4970 C   0  0  0  0  0  0  0  0  0  0  0  0
  131.0940  123.6950   59.8390 C   0  0  0  0  0  0  0  0  0  0  0  0
  132.3120  123.8190   59.1460 C   0  0  0  0  0  0  0  0  0  0  0  0
  132.3820  124.4780   57.9210 C   0  0  0  0  0  0  0  0  0  0  0  0
  131.2300  125.0200   57.3630 C   0  0  0  0  0  0  0  0  0  0  0  0
  130.0100  124.9010   58.0160 C   0  0  0  0  0  0  0  0  0  0  0  0
  129.9440  124.2420   59.2410 C   0  0  0  0  0  0  0  0  0  0  0  0
  1  2  2  0
  2  3  1  0
  4  3  1  1
  4  5  1  0
  5  6  1  0
  6  7  2  0
  6  8  1  0
  8  9  1  0
  9 10  1  0
 10 11  1  0
 11 12  2  0
 12 13  1  0
 13 14  2  0
 14 15  1  0
 15 16  2  0
 16 17  1  0
 17 18  2  0
 18 19  1  0
 19 20  2  0
 20 21  1  0
 21 22  2  0
  4 23  1  0
 23 24  2  0
 23 25  1  0
  2 26  1  0
 26 27  1  0
 27 28  1  0
 28 29  2  0
 29 30  1  0
 30 31  2  0
 31 32  1  0
 32 33  2  0
 27 34  1  0
 34 35  2  0
 35 36  1  0
 36 37  2  0
 37 38  1  0
 38 39  2  0
 27 40  1  0
 40 41  2  0
 41 42  1  0
 42 43  2  0
 43 44  1  0
 44 45  2  0
 22 10  1  0
 33 28  1  0
 39 34  1  0
 45 40  1  0
 16 11  1  0
 22 17  1  0
M  END
>  <Binding energies>  (84) 
[-11.21]

>  <Ligand effiencies>  (84) 
[-0.23354166666666668]

>  <Interactions>  (84) 
["V-A:GLY:453:C:4041, V-A:ASP:366:CB:3211, V-A:ARG:545:CZ:4926, V-A:ILE:369:CG2:3236, V-B:TYR:539:CD2:9846, V-B:TYR:539:CE2:9848, V-A:LEU:475:CD1:4257, H-B:ALA:541:N:9863, V-A:PRO:482:CB:4325, V-A:PRO:482:CG:4326, V-B:PRO:540:CA:9855, H-B:GLU:543:OE1:9881, V-B:GLU:543:CG:9879, H-B:ASP:366:OD1:8185, V-B:TYR:539:CZ:9849, V-B:ALA:541:CB:9864, V-B:GLU:543:CD:9880, V-B:PRO:540:CB:9857, V-B:HIS:456:CE1:9041, V-A:GLY:453:CA:4043, H-B:ASP:366:OD2:8186, H-B:ARG:545:NH2:9900, V-B:ILE:369:CG2:8208, V-B:ILE:369:CD1:8210, V-B:ASP:366:CG:8184, V-B:ILE:369:CB:8207, V-B:ARG:545:CG:9894, V-B:ARG:545:CD:9895, V-B:ARG:545:CZ:9898, H-B:LEU:363:N:8157, H-B:ASN:362:O:8144, V-B:ASN:362:CB:8147"]

$$$$
