1a_Ghoteimi_2023
     RDKit          3D

 67 70  0  0  0  0  0  0  0  0999 V2000
  132.6130  126.7410   75.0610 C   0  0  0  0  0  0  0  0  0  0  0  0
  131.6930  126.7660   76.2850 C   0  0  0  0  0  0  0  0  0  0  0  0
  130.4530  127.3680   75.9310 O   0  0  0  0  0  0  0  0  0  0  0  0
  129.4660  126.6450   75.3420 C   0  0  0  0  0  0  0  0  0  0  0  0
  128.6800  125.9280   75.9690 O   0  0  0  0  0  0  0  0  0  0  0  0
  129.4210  126.8090   73.8500 C   0  0  0  0  0  0  0  0  0  0  0  0
  128.8520  125.8380   73.0130 C   0  0  0  0  0  0  0  0  0  0  0  0
  128.8280  126.0160   71.6320 C   0  0  0  0  0  0  0  0  0  0  0  0
  129.3710  127.1780   71.0620 C   0  0  0  0  0  0  0  0  0  0  0  0
  129.4050  127.4590   69.6830 N   0  0  0  0  0  0  0  0  0  0  0  0
  128.6240  126.9900   68.6850 C   0  0  0  0  0  0  0  0  0  0  0  0
  127.6870  126.2040   68.8180 O   0  0  0  0  0  0  0  0  0  0  0  0
  128.9620  127.5100   67.2880 C   0  0  0  0  0  0  0  0  0  0  0  0
  128.1940  129.1250   66.9660 S   0  0  0  0  0  0  0  0  0  0  0  0
  127.7240  129.1180   65.2510 C   0  0  0  0  0  0  0  0  0  0  0  0
  127.7980  127.8990   64.6670 N   0  0  0  0  0  0  0  0  0  0  0  0
  127.4600  127.7560   63.3580 C   0  0  0  0  0  0  0  0  0  0  0  0
  127.5480  126.3690   62.7880 C   0  0  0  0  0  0  0  0  0  0  0  0
  128.6040  125.5070   63.1260 C   0  0  0  0  0  0  0  0  0  0  0  0
  128.6820  124.2220   62.5970 C   0  0  0  0  0  0  0  0  0  0  0  0
  127.7100  123.7580   61.7140 C   0  0  0  0  0  0  0  0  0  0  0  0
  127.8670  122.4690   61.2410 O   0  0  0  0  0  0  0  0  0  0  0  0
  128.9060  122.1940   60.3080 C   0  0  0  0  0  0  0  0  0  0  0  0
  126.6520  124.6080   61.3630 C   0  0  0  0  0  0  0  0  0  0  0  0
  126.5770  125.8920   61.8940 C   0  0  0  0  0  0  0  0  0  0  0  0
  127.0380  128.8590   62.6070 C   0  0  0  0  0  0  0  0  0  0  0  0
  126.9790  130.1350   63.1830 C   0  0  0  0  0  0  0  0  0  0  0  0
  126.5500  131.2720   62.3120 C   0  0  0  0  0  0  0  0  0  0  0  0
  125.1950  131.5160   62.0670 C   0  0  0  0  0  0  0  0  0  0  0  0
  124.8030  132.5860   61.2670 C   0  0  0  0  0  0  0  0  0  0  0  0
  125.7550  133.4350   60.7030 C   0  0  0  0  0  0  0  0  0  0  0  0
  125.2740  134.4700   59.9250 O   0  0  0  0  0  0  0  0  0  0  0  0
  125.6050  135.8100   60.2700 C   0  0  0  0  0  0  0  0  0  0  0  0
  127.1150  133.1980   60.9540 C   0  0  0  0  0  0  0  0  0  0  0  0
  127.5050  132.1270   61.7540 C   0  0  0  0  0  0  0  0  0  0  0  0
  127.3270  130.2750   64.5480 C   0  0  0  0  0  0  0  0  0  0  0  0
  127.2690  131.5820   65.2100 C   0  0  0  0  0  0  0  0  0  0  0  0
  127.2230  132.6140   65.7320 N   0  0  0  0  0  0  0  0  0  0  0  0
  129.9410  128.1440   71.8910 C   0  0  0  0  0  0  0  0  0  0  0  0
  129.9640  127.9640   73.2720 C   0  0  0  0  0  0  0  0  0  0  0  0
  133.6619  126.7125   75.3912 H   0  0  0  0  0  0  0  0  0  0  0  0
  132.3946  125.8485   74.4563 H   0  0  0  0  0  0  0  0  0  0  0  0
  132.4434  127.6441   74.4563 H   0  0  0  0  0  0  0  0  0  0  0  0
  131.5159  125.7374   76.6323 H   0  0  0  0  0  0  0  0  0  0  0  0
  132.1673  127.3467   77.0898 H   0  0  0  0  0  0  0  0  0  0  0  0
  128.4202  124.9264   73.4519 H   0  0  0  0  0  0  0  0  0  0  0  0
  128.3827  125.2445   70.9867 H   0  0  0  0  0  0  0  0  0  0  0  0
  130.1020  128.1390   69.4190 H   0  0  0  0  0  0  0  0  0  0  0  0
  130.0538  127.6109   67.2000 H   0  0  0  0  0  0  0  0  0  0  0  0
  128.5711  126.7922   66.5518 H   0  0  0  0  0  0  0  0  0  0  0  0
  129.3831  125.8535   63.8210 H   0  0  0  0  0  0  0  0  0  0  0  0
  129.5193  123.5667   62.8790 H   0  0  0  0  0  0  0  0  0  0  0  0
  129.8309  121.9492   60.8508 H   0  0  0  0  0  0  0  0  0  0  0  0
  128.6153  121.3419   59.6760 H   0  0  0  0  0  0  0  0  0  0  0  0
  129.0749  123.0784   59.6760 H   0  0  0  0  0  0  0  0  0  0  0  0
  125.8775  124.2583   60.6645 H   0  0  0  0  0  0  0  0  0  0  0  0
  125.7402  126.5460   61.6074 H   0  0  0  0  0  0  0  0  0  0  0  0
  126.7498  128.7229   61.5542 H   0  0  0  0  0  0  0  0  0  0  0  0
  124.4331  130.8576   62.5097 H   0  0  0  0  0  0  0  0  0  0  0  0
  123.7339  132.7632   61.0783 H   0  0  0  0  0  0  0  0  0  0  0  0
  125.6300  135.9112   61.3651 H   0  0  0  0  0  0  0  0  0  0  0  0
  126.5924  136.0620   59.8558 H   0  0  0  0  0  0  0  0  0  0  0  0
  124.8485  136.4928   59.8558 H   0  0  0  0  0  0  0  0  0  0  0  0
  127.8763  133.8610   60.5170 H   0  0  0  0  0  0  0  0  0  0  0  0
  128.5735  131.9523   61.9485 H   0  0  0  0  0  0  0  0  0  0  0  0
  130.3752  129.0540   71.4513 H   0  0  0  0  0  0  0  0  0  0  0  0
  130.4126  128.7358   73.9147 H   0  0  0  0  0  0  0  0  0  0  0  0
  1  2  1  0
  2  3  1  0
  3  4  1  0
  4  5  2  0
  4  6  1  0
  6  7  2  0
  7  8  1  0
  8  9  2  0
  9 10  1  0
 10 11  1  0
 11 12  2  0
 11 13  1  0
 13 14  1  0
 14 15  1  0
 15 16  2  0
 16 17  1  0
 17 18  1  0
 18 19  2  0
 19 20  1  0
 20 21  2  0
 21 22  1  0
 22 23  1  0
 21 24  1  0
 24 25  2  0
 17 26  2  0
 26 27  1  0
 27 28  1  0
 28 29  2  0
 29 30  1  0
 30 31  2  0
 31 32  1  0
 32 33  1  0
 31 34  1  0
 34 35  2  0
 27 36  2  0
 36 37  1  0
 37 38  3  0
  9 39  1  0
 39 40  2  0
 40  6  1  0
 36 15  1  0
 25 18  1  0
 35 28  1  0
  1 41  1  0
  1 42  1  0
  1 43  1  0
  2 44  1  0
  2 45  1  0
  7 46  1  0
  8 47  1  0
 10 48  1  0
 13 49  1  0
 13 50  1  0
 19 51  1  0
 20 52  1  0
 23 53  1  0
 23 54  1  0
 23 55  1  0
 24 56  1  0
 25 57  1  0
 26 58  1  0
 29 59  1  0
 30 60  1  0
 33 61  1  0
 33 62  1  0
 33 63  1  0
 34 64  1  0
 35 65  1  0
 39 66  1  0
 40 67  1  0
M  END
>  <Binding energies>  (1) 
[-7.93]

>  <Ligand effiencies>  (1) 
[-0.19341463414634147]

>  <Interactions>  (1) 
["V-A:ALA:541:CB:4892, V-A:TYR:539:CE1:4875, V-A:TYR:539:CD1:4873, V-B:LEU:475:CD1:9229, V-A:GLU:543:CD:4908, H-B:ALA:541:N:9863, V-B:PRO:540:CA:9855, V-B:GLU:543:CD:9880, V-A:HIS:456:CE1:4069, V-A:GLU:543:CG:4907, V-B:HIS:456:CE1:9041, V-B:TYR:484:CE2:9317, H-B:TYR:484:OH:9319, V-A:TYR:539:CB:4871, V-B:ILE:369:CG2:8208, V-B:ILE:369:CD1:8210, V-B:LEU:373:CD1:8251, V-B:HIS:456:CD2:9039, V-B:TYR:484:CZ:9318, V-A:TYR:539:CG:4872, H-A:GLU:543:O:4903, H-A:LYS:547:NZ:4951, H-B:LYS:547:NZ:9923, V-A:HIS:456:CB:4064, V-A:HIS:456:CG:4065, V-A:LYS:547:CE:4950, V-A:LYS:547:CD:4949"]

$$$$
1a_Grossjean_2025
     RDKit          3D

 45 46  0  0  0  0  0  0  0  0999 V2000
  128.2200  129.2810   67.3180 C   0  0  0  0  0  0  0  0  0  0  0  0
  128.2430  127.7530   67.2250 C   0  0  0  0  0  0  0  0  0  0  0  0
  129.1690  127.2330   68.1710 O   0  0  0  0  0  0  0  0  0  0  0  0
  129.5650  125.9350   68.1240 C   0  0  0  0  0  0  0  0  0  0  0  0
  129.3550  125.1270   69.0340 O   0  0  0  0  0  0  0  0  0  0  0  0
  130.2980  125.5830   66.8620 C   0  0  0  0  0  0  0  0  0  0  0  0
  129.6740  124.7590   65.9150 C   0  0  0  0  0  0  0  0  0  0  0  0
  130.3290  124.4120   64.7380 C   0  0  0  0  0  0  0  0  0  0  0  0
  131.6190  124.8770   64.4820 C   0  0  0  0  0  0  0  0  0  0  0  0
  132.1870  124.4610   63.2610 N   0  0  0  0  0  0  0  0  0  0  0  0
  133.4790  124.4270   62.8720 C   0  0  0  0  0  0  0  0  0  0  0  0
  134.4420  124.7720   63.5570 O   0  0  0  0  0  0  0  0  0  0  0  0
  133.7230  123.9090   61.4530 C   0  0  0  0  0  0  0  0  0  0  0  0
  133.9980  122.1130   61.4160 S   0  0  0  0  0  0  0  0  0  0  0  0
  132.4010  121.3290   61.3770 C   0  0  0  0  0  0  0  0  0  0  0  0
  131.3770  122.1560   61.7050 N   0  0  0  0  0  0  0  0  0  0  0  0
  130.1170  121.6600   61.7120 C   0  0  0  0  0  0  0  0  0  0  0  0
  129.0250  122.6390   62.1010 C   0  0  0  0  0  0  0  0  0  0  0  0
  129.8280  120.3370   61.3860 C   0  0  0  0  0  0  0  0  0  0  0  0
  130.8740  119.4810   61.0250 C   0  0  0  0  0  0  0  0  0  0  0  0
  130.5320  118.0390   60.6560 C   0  0  0  0  0  0  0  0  0  0  0  0
  132.1980  119.9780   61.0080 C   0  0  0  0  0  0  0  0  0  0  0  0
  133.3050  119.1140   60.5870 C   0  0  0  0  0  0  0  0  0  0  0  0
  134.1760  118.4300   60.2540 N   0  0  0  0  0  0  0  0  0  0  0  0
  132.2490  125.7090   65.4200 C   0  0  0  0  0  0  0  0  0  0  0  0
  131.5930  126.0550   66.5980 C   0  0  0  0  0  0  0  0  0  0  0  0
  128.2154  129.5840   68.3754 H   0  0  0  0  0  0  0  0  0  0  0  0
  129.1121  129.6920   66.8227 H   0  0  0  0  0  0  0  0  0  0  0  0
  127.3160  129.6649   66.8227 H   0  0  0  0  0  0  0  0  0  0  0  0
  127.2391  127.3577   67.4395 H   0  0  0  0  0  0  0  0  0  0  0  0
  128.5473  127.4525   66.2116 H   0  0  0  0  0  0  0  0  0  0  0  0
  128.6575  124.3836   66.1043 H   0  0  0  0  0  0  0  0  0  0  0  0
  129.8259  123.7660   64.0035 H   0  0  0  0  0  0  0  0  0  0  0  0
  131.5150  124.1090   62.5960 H   0  0  0  0  0  0  0  0  0  0  0  0
  132.8454  124.1459   60.8336 H   0  0  0  0  0  0  0  0  0  0  0  0
  134.6295  124.3976   61.0662 H   0  0  0  0  0  0  0  0  0  0  0  0
  128.9591  122.6981   63.1974 H   0  0  0  0  0  0  0  0  0  0  0  0
  129.2617  123.6331   61.6938 H   0  0  0  0  0  0  0  0  0  0  0  0
  128.0626  122.2956   61.6938 H   0  0  0  0  0  0  0  0  0  0  0  0
  128.7913  119.9702   61.4120 H   0  0  0  0  0  0  0  0  0  0  0  0
  130.3921  117.4490   61.5738 H   0  0  0  0  0  0  0  0  0  0  0  0
  129.6049  118.0220   60.0642 H   0  0  0  0  0  0  0  0  0  0  0  0
  131.3527  117.6074   60.0642 H   0  0  0  0  0  0  0  0  0  0  0  0
  133.2628  126.0884   65.2242 H   0  0  0  0  0  0  0  0  0  0  0  0
  132.0949  126.7052   67.3296 H   0  0  0  0  0  0  0  0  0  0  0  0
  1  2  1  0
  2  3  1  0
  3  4  1  0
  4  5  2  0
  4  6  1  0
  6  7  2  0
  7  8  1  0
  8  9  2  0
  9 10  1  0
 10 11  1  0
 11 12  2  0
 11 13  1  0
 13 14  1  0
 14 15  1  0
 15 16  2  0
 16 17  1  0
 17 18  1  0
 17 19  2  0
 19 20  1  0
 20 21  1  0
 20 22  2  0
 22 23  1  0
 23 24  3  0
  9 25  1  0
 25 26  2  0
 26  6  1  0
 22 15  1  0
  1 27  1  0
  1 28  1  0
  1 29  1  0
  2 30  1  0
  2 31  1  0
  7 32  1  0
  8 33  1  0
 10 34  1  0
 13 35  1  0
 13 36  1  0
 18 37  1  0
 18 38  1  0
 18 39  1  0
 19 40  1  0
 21 41  1  0
 21 42  1  0
 21 43  1  0
 25 44  1  0
 26 45  1  0
M  END
>  <Binding energies>  (1) 
[-7.4]

>  <Ligand effiencies>  (1) 
[-0.2740740740740741]

>  <Interactions>  (1) 
["V-A:GLU:543:CD:4908, V-A:ASP:366:CG:3212, V-A:TYR:484:CZ:4346, H-A:ARG:545:NH2:4928, H-A:ARG:545:NH1:4927, V-A:ARG:545:CZ:4926, H-A:GLY:454:N:4049, V-A:ILE:369:CG2:3236, V-B:TYR:539:CD2:9846, H-A:SER:385:OG:3409, V-A:LEU:475:CD1:4257, H-A:HIS:383:NE2:3393, V-A:PRO:482:CG:4326, V-B:GLU:543:CG:9879, V-B:ALA:541:CB:9864, V-B:GLU:543:CD:9880, V-B:TYR:539:C:9839, V-A:TYR:484:CE2:4345, V-A:HIS:456:CE1:4069, V-B:ALA:541:CA:9862, V-A:GLU:543:CG:4907, V-B:HIS:456:CE1:9041, V-B:TYR:484:CE2:9317, V-A:GLU:543:CB:4906, V-B:GLU:543:CB:9878, V-A:SER:385:CA:3406, V-B:PRO:540:C:9853"]

$$$$
1aa_Ghoteimi_2023
     RDKit          3D

 67 70  0  0  0  0  0  0  0  0999 V2000
  134.4910  118.7580   60.3020 C   0  0  0  0  0  0  0  0  0  0  0  0
  133.4670  118.7670   59.1630 C   0  0  0  0  0  0  0  0  0  0  0  0
  132.3600  119.5820   59.5280 O   0  0  0  0  0  0  0  0  0  0  0  0
  131.6610  119.3450   60.6670 C   0  0  0  0  0  0  0  0  0  0  0  0
  131.0400  118.2990   60.8800 O   0  0  0  0  0  0  0  0  0  0  0  0
  131.7170  120.4830   61.6460 C   0  0  0  0  0  0  0  0  0  0  0  0
  132.9030  121.1910   61.8940 C   0  0  0  0  0  0  0  0  0  0  0  0
  132.9250  122.2420   62.8080 C   0  0  0  0  0  0  0  0  0  0  0  0
  131.7540  122.6070   63.4890 C   0  0  0  0  0  0  0  0  0  0  0  0
  131.6570  123.6480   64.4310 N   0  0  0  0  0  0  0  0  0  0  0  0
  132.4570  124.7190   64.6390 C   0  0  0  0  0  0  0  0  0  0  0  0
  133.4700  124.9780   63.9890 O   0  0  0  0  0  0  0  0  0  0  0  0
  132.0660  125.6800   65.7730 C   0  0  0  0  0  0  0  0  0  0  0  0
  130.9420  125.1670   66.5000 O   0  0  0  0  0  0  0  0  0  0  0  0
  130.0330  126.0330   67.0900 C   0  0  0  0  0  0  0  0  0  0  0  0
  130.0900  126.2000   68.4410 N   0  0  0  0  0  0  0  0  0  0  0  0
  129.2070  127.0290   69.0570 C   0  0  0  0  0  0  0  0  0  0  0  0
  129.3380  127.1600   70.5480 C   0  0  0  0  0  0  0  0  0  0  0  0
  128.9570  126.1140   71.4010 C   0  0  0  0  0  0  0  0  0  0  0  0
  129.0750  126.2330   72.7820 C   0  0  0  0  0  0  0  0  0  0  0  0
  129.5790  127.3990   73.3540 C   0  0  0  0  0  0  0  0  0  0  0  0
  129.6600  127.4280   74.7330 O   0  0  0  0  0  0  0  0  0  0  0  0
  128.5450  126.9890   75.5030 C   0  0  0  0  0  0  0  0  0  0  0  0
  129.9690  128.4510   72.5150 C   0  0  0  0  0  0  0  0  0  0  0  0
  129.8510  128.3290   71.1340 C   0  0  0  0  0  0  0  0  0  0  0  0
  128.2500  127.7310   68.3150 C   0  0  0  0  0  0  0  0  0  0  0  0
  128.1760  127.5860   66.9230 C   0  0  0  0  0  0  0  0  0  0  0  0
  127.1400  128.3700   66.1880 C   0  0  0  0  0  0  0  0  0  0  0  0
  127.4860  129.0890   65.0390 C   0  0  0  0  0  0  0  0  0  0  0  0
  126.5230  129.8150   64.3430 C   0  0  0  0  0  0  0  0  0  0  0  0
  125.1980  129.8320   64.7740 C   0  0  0  0  0  0  0  0  0  0  0  0
  124.3120  130.5790   64.0210 O   0  0  0  0  0  0  0  0  0  0  0  0
  124.8190  131.5720   63.1370 C   0  0  0  0  0  0  0  0  0  0  0  0
  124.8450  129.1050   65.9220 C   0  0  0  0  0  0  0  0  0  0  0  0
  125.8090  128.3810   66.6170 C   0  0  0  0  0  0  0  0  0  0  0  0
  129.0880  126.7050   66.2960 C   0  0  0  0  0  0  0  0  0  0  0  0
  129.0590  126.4560   64.8540 C   0  0  0  0  0  0  0  0  0  0  0  0
  129.0380  126.2580   63.7140 N   0  0  0  0  0  0  0  0  0  0  0  0
  130.5740  121.9040   63.2450 C   0  0  0  0  0  0  0  0  0  0  0  0
  130.5540  120.8530   62.3330 C   0  0  0  0  0  0  0  0  0  0  0  0
  133.9649  118.7626   61.2680 H   0  0  0  0  0  0  0  0  0  0  0  0
  135.1138  117.8543   60.2280 H   0  0  0  0  0  0  0  0  0  0  0  0
  135.1296  119.6506   60.2280 H   0  0  0  0  0  0  0  0  0  0  0  0
  133.9347  119.1699   58.2525 H   0  0  0  0  0  0  0  0  0  0  0  0
  133.1202  117.7405   58.9732 H   0  0  0  0  0  0  0  0  0  0  0  0
  133.8245  120.9133   61.3613 H   0  0  0  0  0  0  0  0  0  0  0  0
  133.8620  122.7866   62.9961 H   0  0  0  0  0  0  0  0  0  0  0  0
  130.8540  123.5770   65.0400 H   0  0  0  0  0  0  0  0  0  0  0  0
  132.9181  125.7966   66.4588 H   0  0  0  0  0  0  0  0  0  0  0  0
  131.7943  126.6528   65.3374 H   0  0  0  0  0  0  0  0  0  0  0  0
  128.5580  125.1836   70.9707 H   0  0  0  0  0  0  0  0  0  0  0  0
  128.7673  125.3981   73.4288 H   0  0  0  0  0  0  0  0  0  0  0  0
  128.7796  127.0814   76.5737 H   0  0  0  0  0  0  0  0  0  0  0  0
  127.6681  127.6090   75.2650 H   0  0  0  0  0  0  0  0  0  0  0  0
  128.3262  125.9376   75.2650 H   0  0  0  0  0  0  0  0  0  0  0  0
  130.3705  129.3780   72.9502 H   0  0  0  0  0  0  0  0  0  0  0  0
  130.1651  129.1631   70.4894 H   0  0  0  0  0  0  0  0  0  0  0  0
  127.5484  128.4037   68.8300 H   0  0  0  0  0  0  0  0  0  0  0  0
  128.5266  129.0808   64.6826 H   0  0  0  0  0  0  0  0  0  0  0  0
  126.8109  130.3804   63.4445 H   0  0  0  0  0  0  0  0  0  0  0  0
  125.2426  132.4017   63.7219 H   0  0  0  0  0  0  0  0  0  0  0  0
  125.6031  131.1326   62.5029 H   0  0  0  0  0  0  0  0  0  0  0  0
  124.0032  131.9494   62.5029 H   0  0  0  0  0  0  0  0  0  0  0  0
  123.8026  129.1077   66.2734 H   0  0  0  0  0  0  0  0  0  0  0  0
  125.5211  127.8115   67.5130 H   0  0  0  0  0  0  0  0  0  0  0  0
  129.6526  122.1825   63.7774 H   0  0  0  0  0  0  0  0  0  0  0  0
  129.6162  120.3079   62.1501 H   0  0  0  0  0  0  0  0  0  0  0  0
  1  2  1  0
  2  3  1  0
  3  4  1  0
  4  5  2  0
  4  6  1  0
  6  7  2  0
  7  8  1  0
  8  9  2  0
  9 10  1  0
 10 11  1  0
 11 12  2  0
 11 13  1  0
 13 14  1  0
 14 15  1  0
 15 16  2  0
 16 17  1  0
 17 18  1  0
 18 19  2  0
 19 20  1  0
 20 21  2  0
 21 22  1  0
 22 23  1  0
 21 24  1  0
 24 25  2  0
 17 26  2  0
 26 27  1  0
 27 28  1  0
 28 29  2  0
 29 30  1  0
 30 31  2  0
 31 32  1  0
 32 33  1  0
 31 34  1  0
 34 35  2  0
 27 36  2  0
 36 37  1  0
 37 38  3  0
  9 39  1  0
 39 40  2  0
 40  6  1  0
 36 15  1  0
 25 18  1  0
 35 28  1  0
  1 41  1  0
  1 42  1  0
  1 43  1  0
  2 44  1  0
  2 45  1  0
  7 46  1  0
  8 47  1  0
 10 48  1  0
 13 49  1  0
 13 50  1  0
 19 51  1  0
 20 52  1  0
 23 53  1  0
 23 54  1  0
 23 55  1  0
 24 56  1  0
 25 57  1  0
 26 58  1  0
 29 59  1  0
 30 60  1  0
 33 61  1  0
 33 62  1  0
 33 63  1  0
 34 64  1  0
 35 65  1  0
 39 66  1  0
 40 67  1  0
M  END
>  <Binding energies>  (1) 
[-8.13]

>  <Ligand effiencies>  (1) 
[-0.19829268292682928]

>  <Interactions>  (1) 
["V-B:LEU:475:CD1:9229, V-A:GLU:543:CD:4908, H-A:TYR:484:OH:4347, V-A:GLY:454:CA:4048, V-A:TYR:484:CZ:4346, H-A:ARG:545:NH2:4928, H-A:GLY:454:N:4049, V-A:ILE:369:CG2:3236, V-B:TYR:539:CD2:9846, V-B:TYR:539:CE2:9848, V-A:LEU:475:CD1:4257, V-B:ALA:541:CB:9864, V-B:GLU:543:CD:9880, V-A:SER:385:C:3404, V-A:HIS:383:CD2:3391, V-A:HIS:456:CE1:4069, V-B:HIS:456:CE1:9041, H-B:GLY:454:N:9021, V-B:GLY:454:CA:9020, V-A:SER:385:CA:3406, V-A:GLU:543:C:4902, V-B:ARG:545:CG:9894, V-B:ARG:545:CD:9895, V-B:ARG:545:CZ:9898, V-A:SER:385:CB:3408, H-A:LYS:547:NZ:4951"]

$$$$
1b_Ghoteimi_2023
     RDKit          3D

 54 57  0  0  0  0  0  0  0  0999 V2000
  125.6450  123.2990   57.9110 C   0  0  0  0  0  0  0  0  0  0  0  0
  126.7040  122.4440   58.3250 O   0  0  0  0  0  0  0  0  0  0  0  0
  127.5610  122.8680   59.3230 C   0  0  0  0  0  0  0  0  0  0  0  0
  128.9260  122.7550   59.0650 C   0  0  0  0  0  0  0  0  0  0  0  0
  129.8630  123.1560   60.0120 C   0  0  0  0  0  0  0  0  0  0  0  0
  129.4630  123.6870   61.2480 C   0  0  0  0  0  0  0  0  0  0  0  0
  130.4790  124.1160   62.2700 C   0  0  0  0  0  0  0  0  0  0  0  0
  130.1290  124.5830   63.5410 C   0  0  0  0  0  0  0  0  0  0  0  0
  131.1150  124.9680   64.4580 C   0  0  0  0  0  0  0  0  0  0  0  0
  130.6680  125.4610   65.7950 C   0  0  0  0  0  0  0  0  0  0  0  0
  129.4810  124.9880   66.3610 C   0  0  0  0  0  0  0  0  0  0  0  0
  129.0550  125.4510   67.6030 C   0  0  0  0  0  0  0  0  0  0  0  0
  129.8050  126.3980   68.3010 C   0  0  0  0  0  0  0  0  0  0  0  0
  129.3060  126.8000   69.5260 O   0  0  0  0  0  0  0  0  0  0  0  0
  129.3450  128.1800   69.8720 C   0  0  0  0  0  0  0  0  0  0  0  0
  130.9940  126.8810   67.7340 C   0  0  0  0  0  0  0  0  0  0  0  0
  131.4160  126.4170   66.4920 C   0  0  0  0  0  0  0  0  0  0  0  0
  132.4740  124.8610   64.0720 C   0  0  0  0  0  0  0  0  0  0  0  0
  133.5450  125.1600   65.0270 C   0  0  0  0  0  0  0  0  0  0  0  0
  134.3900  125.3960   65.7830 N   0  0  0  0  0  0  0  0  0  0  0  0
  132.7580  124.4020   62.7660 C   0  0  0  0  0  0  0  0  0  0  0  0
  134.4010  124.2130   62.1080 S   0  0  0  0  0  0  0  0  0  0  0  0
  134.4130  122.7320   61.0430 C   0  0  0  0  0  0  0  0  0  0  0  0
  133.5430  121.5680   61.5390 C   0  0  0  0  0  0  0  0  0  0  0  0
  133.3080  121.4250   62.7410 O   0  0  0  0  0  0  0  0  0  0  0  0
  133.0850  120.7520   60.5630 N   0  0  0  0  0  0  0  0  0  0  0  0
  132.2810  119.6280   60.7160 C   0  0  0  0  0  0  0  0  0  0  0  0
  130.9170  119.7010   60.9970 C   0  0  0  0  0  0  0  0  0  0  0  0
  130.4960  118.3920   61.0680 C   0  0  0  0  0  0  0  0  0  0  0  0
  131.5520  117.5750   60.8390 O   0  0  0  0  0  0  0  0  0  0  0  0
  132.6770  118.3700   60.6170 N   0  0  0  0  0  0  0  0  0  0  0  0
  131.7840  124.0230   61.9040 N   0  0  0  0  0  0  0  0  0  0  0  0
  128.0860  123.7950   61.4980 C   0  0  0  0  0  0  0  0  0  0  0  0
  127.1460  123.3940   60.5540 C   0  0  0  0  0  0  0  0  0  0  0  0
  125.1372  123.7089   58.7965 H   0  0  0  0  0  0  0  0  0  0  0  0
  126.0537  124.1234   57.3082 H   0  0  0  0  0  0  0  0  0  0  0  0
  124.9253  122.7258   57.3082 H   0  0  0  0  0  0  0  0  0  0  0  0
  129.2660  122.3445   58.1027 H   0  0  0  0  0  0  0  0  0  0  0  0
  130.9353  123.0552   59.7883 H   0  0  0  0  0  0  0  0  0  0  0  0
  129.0679  124.6486   63.8234 H   0  0  0  0  0  0  0  0  0  0  0  0
  128.8781  124.2434   65.8205 H   0  0  0  0  0  0  0  0  0  0  0  0
  128.1200  125.0673   68.0372 H   0  0  0  0  0  0  0  0  0  0  0  0
  129.3479  128.2835   70.9671 H   0  0  0  0  0  0  0  0  0  0  0  0
  130.2564  128.6362   69.4582 H   0  0  0  0  0  0  0  0  0  0  0  0
  128.4608  128.6869   69.4582 H   0  0  0  0  0  0  0  0  0  0  0  0
  131.5944  127.6287   68.2730 H   0  0  0  0  0  0  0  0  0  0  0  0
  132.3470  126.8054   66.0534 H   0  0  0  0  0  0  0  0  0  0  0  0
  134.0532  123.0260   60.0459 H   0  0  0  0  0  0  0  0  0  0  0  0
  135.4491  122.3625   61.0425 H   0  0  0  0  0  0  0  0  0  0  0  0
  133.3370  120.9790   59.6130 H   0  0  0  0  0  0  0  0  0  0  0  0
  130.3092  120.6078   61.1325 H   0  0  0  0  0  0  0  0  0  0  0  0
  129.4675  118.0626   61.2771 H   0  0  0  0  0  0  0  0  0  0  0  0
  127.7433  124.2049   62.4595 H   0  0  0  0  0  0  0  0  0  0  0  0
  126.0727  123.4902   60.7747 H   0  0  0  0  0  0  0  0  0  0  0  0
  1  2  1  0
  2  3  1  0
  3  4  2  0
  4  5  1  0
  5  6  2  0
  6  7  1  0
  7  8  2  0
  8  9  1  0
  9 10  1  0
 10 11  2  0
 11 12  1  0
 12 13  2  0
 13 14  1  0
 14 15  1  0
 13 16  1  0
 16 17  2  0
  9 18  2  0
 18 19  1  0
 19 20  3  0
 18 21  1  0
 21 22  1  0
 22 23  1  0
 23 24  1  0
 24 25  2  0
 24 26  1  0
 26 27  1  0
 27 28  1  0
 28 29  2  0
 29 30  1  0
 30 31  1  0
 21 32  2  0
  6 33  1  0
 33 34  2  0
 34  3  1  0
 32  7  1  0
 17 10  1  0
 31 27  2  0
  1 35  1  0
  1 36  1  0
  1 37  1  0
  4 38  1  0
  5 39  1  0
  8 40  1  0
 11 41  1  0
 12 42  1  0
 15 43  1  0
 15 44  1  0
 15 45  1  0
 16 46  1  0
 17 47  1  0
 23 48  1  0
 23 49  1  0
 26 50  1  0
 28 51  1  0
 29 52  1  0
 33 53  1  0
 34 54  1  0
M  END
>  <Binding energies>  (1) 
[-8.44]

>  <Ligand effiencies>  (1) 
[-0.24114285714285713]

>  <Interactions>  (1) 
["V-A:GLU:543:CD:4908, H-A:TYR:484:OH:4347, V-A:ILE:369:CD1:3238, H-A:ARG:545:NH1:4927, V-A:ARG:545:CZ:4926, H-A:GLY:454:N:4049, V-A:ILE:369:CB:3235, H-A:ARG:545:NE:4924, V-A:ILE:369:CG2:3236, V-B:TYR:539:CD2:9846, H-A:SER:385:OG:3409, V-B:TYR:539:CE2:9848, V-A:LEU:475:CD1:4257, V-A:PRO:482:CB:4325, H-A:HIS:383:NE2:3393, V-A:PRO:482:CG:4326, V-B:PRO:540:CA:9855, V-B:LEU:363:CD1:8160, V-B:GLU:543:CG:9879, V-B:PRO:540:N:9856, V-B:GLU:543:CD:9880, V-B:PRO:540:CB:9857, V-A:TYR:484:CE2:4345, V-A:HIS:456:CE1:4069, V-B:GLU:543:CA:9876, V-B:HIS:456:CE1:9041, V-A:GLU:543:CB:4906, V-B:GLU:543:CB:9878, V-A:GLU:543:C:4902"]

$$$$
1b_Grossjean_2025
     RDKit          3D

 42 43  0  0  0  0  0  0  0  0999 V2000
  128.9620  128.3280   67.7750 C   0  0  0  0  0  0  0  0  0  0  0  0
  129.8430  127.3910   68.3820 O   0  0  0  0  0  0  0  0  0  0  0  0
  129.7260  126.0620   68.1340 C   0  0  0  0  0  0  0  0  0  0  0  0
  129.1280  125.2800   68.8800 O   0  0  0  0  0  0  0  0  0  0  0  0
  130.3900  125.6360   66.8560 C   0  0  0  0  0  0  0  0  0  0  0  0
  129.7680  124.7620   65.9510 C   0  0  0  0  0  0  0  0  0  0  0  0
  130.4120  124.3860   64.7760 C   0  0  0  0  0  0  0  0  0  0  0  0
  131.6850  124.8720   64.4790 C   0  0  0  0  0  0  0  0  0  0  0  0
  132.2400  124.4240   63.2650 N   0  0  0  0  0  0  0  0  0  0  0  0
  133.5250  124.4070   62.8490 C   0  0  0  0  0  0  0  0  0  0  0  0
  134.4930  124.7990   63.5000 O   0  0  0  0  0  0  0  0  0  0  0  0
  133.7530  123.8350   61.4490 C   0  0  0  0  0  0  0  0  0  0  0  0
  134.0200  122.0360   61.4780 S   0  0  0  0  0  0  0  0  0  0  0  0
  132.4190  121.2610   61.4240 C   0  0  0  0  0  0  0  0  0  0  0  0
  131.4110  122.0570   61.8610 N   0  0  0  0  0  0  0  0  0  0  0  0
  130.1490  121.5680   61.8610 C   0  0  0  0  0  0  0  0  0  0  0  0
  129.0720  122.5190   62.3480 C   0  0  0  0  0  0  0  0  0  0  0  0
  129.8450  120.2750   61.4400 C   0  0  0  0  0  0  0  0  0  0  0  0
  130.8800  119.4390   61.0100 C   0  0  0  0  0  0  0  0  0  0  0  0
  130.5240  118.0200   60.5690 C   0  0  0  0  0  0  0  0  0  0  0  0
  132.2060  119.9280   61.0010 C   0  0  0  0  0  0  0  0  0  0  0  0
  133.3110  119.0570   60.5950 C   0  0  0  0  0  0  0  0  0  0  0  0
  134.1820  118.3660   60.2750 N   0  0  0  0  0  0  0  0  0  0  0  0
  132.3140  125.7460   65.3780 C   0  0  0  0  0  0  0  0  0  0  0  0
  131.6690  126.1220   66.5530 C   0  0  0  0  0  0  0  0  0  0  0  0
  128.4317  128.8921   68.5564 H   0  0  0  0  0  0  0  0  0  0  0  0
  129.5408  129.0236   67.1496 H   0  0  0  0  0  0  0  0  0  0  0  0
  128.2321  127.7931   67.1496 H   0  0  0  0  0  0  0  0  0  0  0  0
  128.7638  124.3712   66.1721 H   0  0  0  0  0  0  0  0  0  0  0  0
  129.9129  123.6999   64.0759 H   0  0  0  0  0  0  0  0  0  0  0  0
  131.5580  124.0740   62.6080 H   0  0  0  0  0  0  0  0  0  0  0  0
  132.8705  124.0524   60.8293 H   0  0  0  0  0  0  0  0  0  0  0  0
  134.6577  124.3044   61.0352 H   0  0  0  0  0  0  0  0  0  0  0  0
  129.0613  122.5285   63.4479 H   0  0  0  0  0  0  0  0  0  0  0  0
  129.2814  123.5323   61.9746 H   0  0  0  0  0  0  0  0  0  0  0  0
  128.0924  122.1858   61.9746 H   0  0  0  0  0  0  0  0  0  0  0  0
  128.8050  119.9168   61.4458 H   0  0  0  0  0  0  0  0  0  0  0  0
  130.3657  117.3892   61.4561 H   0  0  0  0  0  0  0  0  0  0  0  0
  129.6038  118.0432   59.9667 H   0  0  0  0  0  0  0  0  0  0  0  0
  131.3461  117.6061   59.9667 H   0  0  0  0  0  0  0  0  0  0  0  0
  133.3184  126.1348   65.1542 H   0  0  0  0  0  0  0  0  0  0  0  0
  132.1692  126.8087   67.2518 H   0  0  0  0  0  0  0  0  0  0  0  0
  1  2  1  0
  2  3  1  0
  3  4  2  0
  3  5  1  0
  5  6  2  0
  6  7  1  0
  7  8  2  0
  8  9  1  0
  9 10  1  0
 10 11  2  0
 10 12  1  0
 12 13  1  0
 13 14  1  0
 14 15  2  0
 15 16  1  0
 16 17  1  0
 16 18  2  0
 18 19  1  0
 19 20  1  0
 19 21  2  0
 21 22  1  0
 22 23  3  0
  8 24  1  0
 24 25  2  0
 25  5  1  0
 21 14  1  0
  1 26  1  0
  1 27  1  0
  1 28  1  0
  6 29  1  0
  7 30  1  0
  9 31  1  0
 12 32  1  0
 12 33  1  0
 17 34  1  0
 17 35  1  0
 17 36  1  0
 18 37  1  0
 20 38  1  0
 20 39  1  0
 20 40  1  0
 24 41  1  0
 25 42  1  0
M  END
>  <Binding energies>  (1) 
[-7.24]

>  <Ligand effiencies>  (1) 
[-0.2784615384615385]

>  <Interactions>  (1) 
["V-A:GLU:543:CD:4908, V-A:ASP:366:CG:3212, V-A:TYR:484:CZ:4346, H-A:ARG:545:NH2:4928, H-A:ARG:545:NH1:4927, V-A:ARG:545:CZ:4926, H-A:GLY:454:N:4049, V-A:ILE:369:CG2:3236, V-B:TYR:539:CD2:9846, H-A:SER:385:OG:3409, V-A:LEU:475:CD1:4257, H-A:HIS:383:NE2:3393, V-A:PRO:482:CG:4326, V-B:GLU:543:CG:9879, V-B:ALA:541:CB:9864, V-B:GLU:543:CD:9880, V-B:TYR:539:C:9839, V-A:TYR:484:CE2:4345, V-A:HIS:456:CE1:4069, V-B:ALA:541:CA:9862, V-A:GLU:543:CG:4907, V-B:HIS:456:CE1:9041, V-A:GLU:543:CB:4906, V-B:GLU:543:CB:9878, V-A:SER:385:CA:3406, V-B:PRO:540:C:9853"]

$$$$
1c_Ghoteimi_2023
     RDKit          3D

 54 57  0  0  0  0  0  0  0  0999 V2000
  132.4510  130.9680   58.3700 C   0  0  0  0  0  0  0  0  0  0  0  0
  131.3210  131.8120   58.5590 O   0  0  0  0  0  0  0  0  0  0  0  0
  130.4000  131.4990   59.5410 C   0  0  0  0  0  0  0  0  0  0  0  0
  130.8760  130.7940   60.6430 C   0  0  0  0  0  0  0  0  0  0  0  0
  130.0180  130.4330   61.6780 C   0  0  0  0  0  0  0  0  0  0  0  0
  128.6550  130.7670   61.6410 C   0  0  0  0  0  0  0  0  0  0  0  0
  127.7250  130.3760   62.7530 C   0  0  0  0  0  0  0  0  0  0  0  0
  128.1790  129.8730   63.9770 C   0  0  0  0  0  0  0  0  0  0  0  0
  127.2740  129.5470   64.9940 C   0  0  0  0  0  0  0  0  0  0  0  0
  127.8320  129.0790   66.2970 C   0  0  0  0  0  0  0  0  0  0  0  0
  128.0970  129.9880   67.3250 C   0  0  0  0  0  0  0  0  0  0  0  0
  128.6370  129.5530   68.5320 C   0  0  0  0  0  0  0  0  0  0  0  0
  128.9270  128.2040   68.7320 C   0  0  0  0  0  0  0  0  0  0  0  0
  129.4610  127.8630   69.9600 O   0  0  0  0  0  0  0  0  0  0  0  0
  129.0120  126.6770   70.6080 C   0  0  0  0  0  0  0  0  0  0  0  0
  128.6690  127.2890   67.7000 C   0  0  0  0  0  0  0  0  0  0  0  0
  128.1290  127.7260   66.4940 C   0  0  0  0  0  0  0  0  0  0  0  0
  125.8910  129.7100   64.7440 C   0  0  0  0  0  0  0  0  0  0  0  0
  124.8910  129.3550   65.7560 C   0  0  0  0  0  0  0  0  0  0  0  0
  124.1040  129.0750   66.5570 N   0  0  0  0  0  0  0  0  0  0  0  0
  125.5040  130.2380   63.4950 C   0  0  0  0  0  0  0  0  0  0  0  0
  123.8180  130.6550   63.1080 S   0  0  0  0  0  0  0  0  0  0  0  0
  123.7550  130.7020   61.2870 C   0  0  0  0  0  0  0  0  0  0  0  0
  124.5200  131.9000   60.7130 C   0  0  0  0  0  0  0  0  0  0  0  0
  124.4970  132.1120   59.5000 O   0  0  0  0  0  0  0  0  0  0  0  0
  125.1450  132.6750   61.6270 N   0  0  0  0  0  0  0  0  0  0  0  0
  125.7700  133.8900   61.3930 C   0  0  0  0  0  0  0  0  0  0  0  0
  126.9480  134.2870   61.8230 N   0  0  0  0  0  0  0  0  0  0  0  0
  127.2460  135.4910   61.3730 C   0  0  0  0  0  0  0  0  0  0  0  0
  126.2950  136.0950   60.5560 C   0  0  0  0  0  0  0  0  0  0  0  0
  124.9400  135.0210   60.3750 S   0  0  0  0  0  0  0  0  0  0  0  0
  126.3980  130.5690   62.5320 N   0  0  0  0  0  0  0  0  0  0  0  0
  128.1880  131.4820   60.5290 C   0  0  0  0  0  0  0  0  0  0  0  0
  129.0420  131.8430   59.4910 C   0  0  0  0  0  0  0  0  0  0  0  0
  132.8525  130.6681   59.3492 H   0  0  0  0  0  0  0  0  0  0  0  0
  132.1495  130.0722   57.8073 H   0  0  0  0  0  0  0  0  0  0  0  0
  133.2244  131.5113   57.8073 H   0  0  0  0  0  0  0  0  0  0  0  0
  131.9399  130.5197   60.6964 H   0  0  0  0  0  0  0  0  0  0  0  0
  130.4149  129.8764   62.5398 H   0  0  0  0  0  0  0  0  0  0  0  0
  129.2574  129.7323   64.1418 H   0  0  0  0  0  0  0  0  0  0  0  0
  127.8771  131.0559   67.1791 H   0  0  0  0  0  0  0  0  0  0  0  0
  128.8364  130.2790   69.3340 H   0  0  0  0  0  0  0  0  0  0  0  0
  129.0635  126.8130   71.6983 H   0  0  0  0  0  0  0  0  0  0  0  0
  127.9729  126.4690   70.3131 H   0  0  0  0  0  0  0  0  0  0  0  0
  129.6528  125.8330   70.3131 H   0  0  0  0  0  0  0  0  0  0  0  0
  128.8944  126.2221   67.8447 H   0  0  0  0  0  0  0  0  0  0  0  0
  127.9341  127.0019   65.6892 H   0  0  0  0  0  0  0  0  0  0  0  0
  124.1992  129.7760   60.8929 H   0  0  0  0  0  0  0  0  0  0  0  0
  122.7010  130.7988   60.9875 H   0  0  0  0  0  0  0  0  0  0  0  0
  125.0940  132.3870   62.5920 H   0  0  0  0  0  0  0  0  0  0  0  0
  128.1927  135.9892   61.6292 H   0  0  0  0  0  0  0  0  0  0  0  0
  126.3860  137.0912   60.0986 H   0  0  0  0  0  0  0  0  0  0  0  0
  127.1259  131.7631   60.4759 H   0  0  0  0  0  0  0  0  0  0  0  0
  128.6497  132.4006   58.6278 H   0  0  0  0  0  0  0  0  0  0  0  0
  1  2  1  0
  2  3  1  0
  3  4  2  0
  4  5  1  0
  5  6  2  0
  6  7  1  0
  7  8  2  0
  8  9  1  0
  9 10  1  0
 10 11  2  0
 11 12  1  0
 12 13  2  0
 13 14  1  0
 14 15  1  0
 13 16  1  0
 16 17  2  0
  9 18  2  0
 18 19  1  0
 19 20  3  0
 18 21  1  0
 21 22  1  0
 22 23  1  0
 23 24  1  0
 24 25  2  0
 24 26  1  0
 26 27  1  0
 27 28  2  0
 28 29  1  0
 29 30  2  0
 30 31  1  0
 21 32  2  0
  6 33  1  0
 33 34  2  0
 34  3  1  0
 32  7  1  0
 17 10  1  0
 31 27  1  0
  1 35  1  0
  1 36  1  0
  1 37  1  0
  4 38  1  0
  5 39  1  0
  8 40  1  0
 11 41  1  0
 12 42  1  0
 15 43  1  0
 15 44  1  0
 15 45  1  0
 16 46  1  0
 17 47  1  0
 23 48  1  0
 23 49  1  0
 26 50  1  0
 29 51  1  0
 30 52  1  0
 33 53  1  0
 34 54  1  0
M  END
>  <Binding energies>  (1) 
[-7.6]

>  <Ligand effiencies>  (1) 
[-0.21714285714285714]

>  <Interactions>  (1) 
["V-A:ALA:541:CB:4892, V-A:TYR:539:CE1:4875, V-A:PRO:540:N:4884, V-A:PRO:540:CA:4883, V-A:TYR:539:CD1:4873, V-B:LEU:475:CD1:9229, V-A:GLU:543:CD:4908, V-A:TYR:539:C:4867, V-A:PRO:540:CB:4885, V-A:HIS:456:CE1:4069, V-A:GLU:543:CG:4907, V-B:HIS:456:CE1:9041, V-B:TYR:484:CE2:9317, V-A:GLU:543:CB:4906, H-B:TYR:484:OH:9319, H-B:GLY:454:N:9021, V-B:PRO:482:CB:9297, V-A:TYR:539:CB:4871, V-B:ILE:369:CG2:8208, V-B:ILE:369:CD1:8210, V-B:PRO:482:CG:9298, V-B:ASP:366:CG:8184, V-B:ASP:366:CB:8183, V-A:GLU:543:C:4902, V-A:GLU:543:CA:4904, H-B:ARG:545:NE:9896, V-B:ARG:545:CZ:9898, V-B:TYR:484:CZ:9318, V-B:ASP:366:CA:8181"]

$$$$
1c_Grossjean_2025
     RDKit          3D

 40 41  0  0  0  0  0  0  0  0999 V2000
  124.1430  130.2980   63.0490 C   0  0  0  0  0  0  0  0  0  0  0  0
  124.5030  130.4920   64.4120 O   0  0  0  0  0  0  0  0  0  0  0  0
  125.5170  129.7280   64.9570 C   0  0  0  0  0  0  0  0  0  0  0  0
  125.1960  128.9860   66.0930 C   0  0  0  0  0  0  0  0  0  0  0  0
  126.1490  128.1840   66.7130 C   0  0  0  0  0  0  0  0  0  0  0  0
  127.4500  128.1110   66.1920 C   0  0  0  0  0  0  0  0  0  0  0  0
  128.4920  127.3420   66.7450 N   0  0  0  0  0  0  0  0  0  0  0  0
  128.4740  126.5140   67.8110 C   0  0  0  0  0  0  0  0  0  0  0  0
  127.4890  126.2640   68.5050 O   0  0  0  0  0  0  0  0  0  0  0  0
  129.8090  125.8450   68.1440 C   0  0  0  0  0  0  0  0  0  0  0  0
  131.2030  126.6670   67.3180 S   0  0  0  0  0  0  0  0  0  0  0  0
  131.3790  125.9730   65.6870 C   0  0  0  0  0  0  0  0  0  0  0  0
  130.2150  125.9300   64.9900 N   0  0  0  0  0  0  0  0  0  0  0  0
  130.2240  125.4210   63.7360 C   0  0  0  0  0  0  0  0  0  0  0  0
  128.8880  125.4150   63.0170 C   0  0  0  0  0  0  0  0  0  0  0  0
  131.3790  124.9290   63.1330 C   0  0  0  0  0  0  0  0  0  0  0  0
  132.5800  124.9450   63.8510 C   0  0  0  0  0  0  0  0  0  0  0  0
  133.8300  124.3840   63.1750 C   0  0  0  0  0  0  0  0  0  0  0  0
  132.5940  125.4700   65.1640 C   0  0  0  0  0  0  0  0  0  0  0  0
  133.8300  125.4460   65.9500 C   0  0  0  0  0  0  0  0  0  0  0  0
  134.8060  125.4270   66.5700 N   0  0  0  0  0  0  0  0  0  0  0  0
  127.7780  128.8610   65.0610 C   0  0  0  0  0  0  0  0  0  0  0  0
  126.8220  129.6620   64.4440 C   0  0  0  0  0  0  0  0  0  0  0  0
  123.1758  129.7768   62.9958 H   0  0  0  0  0  0  0  0  0  0  0  0
  124.0614  131.2743   62.5488 H   0  0  0  0  0  0  0  0  0  0  0  0
  124.9135  129.6930   62.5488 H   0  0  0  0  0  0  0  0  0  0  0  0
  124.1769  129.0353   66.5041 H   0  0  0  0  0  0  0  0  0  0  0  0
  125.8828  127.6074   67.6112 H   0  0  0  0  0  0  0  0  0  0  0  0
  129.3600  127.3900   66.2320 H   0  0  0  0  0  0  0  0  0  0  0  0
  129.9658  125.8861   69.2320 H   0  0  0  0  0  0  0  0  0  0  0  0
  129.7672  124.8048   67.7886 H   0  0  0  0  0  0  0  0  0  0  0  0
  128.0737  125.4113   63.7565 H   0  0  0  0  0  0  0  0  0  0  0  0
  128.8068  126.3128   62.3866 H   0  0  0  0  0  0  0  0  0  0  0  0
  128.8149  124.5165   62.3866 H   0  0  0  0  0  0  0  0  0  0  0  0
  131.3476  124.5335   62.1070 H   0  0  0  0  0  0  0  0  0  0  0  0
  134.5486  124.0615   63.9428 H   0  0  0  0  0  0  0  0  0  0  0  0
  133.5529  123.5239   62.5477 H   0  0  0  0  0  0  0  0  0  0  0  0
  134.2884  125.1627   62.5477 H   0  0  0  0  0  0  0  0  0  0  0  0
  128.7994  128.8184   64.6548 H   0  0  0  0  0  0  0  0  0  0  0  0
  127.0899  130.2457   63.5509 H   0  0  0  0  0  0  0  0  0  0  0  0
  1  2  1  0
  2  3  1  0
  3  4  2  0
  4  5  1  0
  5  6  2  0
  6  7  1  0
  7  8  1  0
  8  9  2  0
  8 10  1  0
 10 11  1  0
 11 12  1  0
 12 13  2  0
 13 14  1  0
 14 15  1  0
 14 16  2  0
 16 17  1  0
 17 18  1  0
 17 19  2  0
 19 20  1  0
 20 21  3  0
  6 22  1  0
 22 23  2  0
 23  3  1  0
 19 12  1  0
  1 24  1  0
  1 25  1  0
  1 26  1  0
  4 27  1  0
  5 28  1  0
  7 29  1  0
 10 30  1  0
 10 31  1  0
 15 32  1  0
 15 33  1  0
 15 34  1  0
 16 35  1  0
 18 36  1  0
 18 37  1  0
 18 38  1  0
 22 39  1  0
 23 40  1  0
M  END
>  <Binding energies>  (1) 
[-6.8]

>  <Ligand effiencies>  (1) 
[-0.2833333333333333]

>  <Interactions>  (1) 
["V-A:GLU:543:CD:4908, V-A:ARG:545:CD:4923, V-A:ARG:545:CG:4922, V-A:GLY:453:C:4041, H-A:TYR:484:OH:4347, V-A:GLY:454:CA:4048, H-A:GLU:543:OE1:4909, V-A:ARG:545:CZ:4926, H-A:GLY:454:N:4049, H-A:ARG:545:NE:4924, V-B:GLU:543:CD:9880, V-A:TYR:484:CE2:4345, V-A:HIS:456:CE1:4069, V-A:GLU:543:CG:4907, V-B:HIS:456:CE1:9041, V-A:GLY:453:CA:4043, V-B:GLU:543:CB:9878, H-B:TYR:484:OH:9319, H-B:GLY:454:N:9021, H-B:GLU:543:OE2:9882, V-B:ARG:545:CG:9894, V-B:ARG:545:CD:9895, V-B:ARG:545:CZ:9898, H-A:ILE:455:N:4054"]

$$$$
1d_Ghoteimi_2023
     RDKit          3D

 50 52  0  0  0  0  0  0  0  0999 V2000
  133.8800  125.4990   67.4060 C   0  0  0  0  0  0  0  0  0  0  0  0
  134.3200  125.0800   66.1230 O   0  0  0  0  0  0  0  0  0  0  0  0
  133.4990  125.1610   65.0560 C   0  0  0  0  0  0  0  0  0  0  0  0
  133.6250  124.5550   63.9910 O   0  0  0  0  0  0  0  0  0  0  0  0
  132.3380  126.1240   65.2900 C   0  0  0  0  0  0  0  0  0  0  0  0
  130.8970  125.1340   65.7890 S   0  0  0  0  0  0  0  0  0  0  0  0
  129.7240  126.2540   66.5220 C   0  0  0  0  0  0  0  0  0  0  0  0
  129.7870  126.3020   67.8740 N   0  0  0  0  0  0  0  0  0  0  0  0
  128.9450  127.1130   68.5630 C   0  0  0  0  0  0  0  0  0  0  0  0
  129.0840  127.1120   70.0580 C   0  0  0  0  0  0  0  0  0  0  0  0
  129.6990  128.1780   70.7330 C   0  0  0  0  0  0  0  0  0  0  0  0
  129.8320  128.1720   72.1190 C   0  0  0  0  0  0  0  0  0  0  0  0
  129.3580  127.1010   72.8720 C   0  0  0  0  0  0  0  0  0  0  0  0
  129.5370  127.1780   74.2400 O   0  0  0  0  0  0  0  0  0  0  0  0
  130.6230  126.4790   74.8380 C   0  0  0  0  0  0  0  0  0  0  0  0
  128.7420  126.0280   72.2120 C   0  0  0  0  0  0  0  0  0  0  0  0
  128.6090  126.0390   70.8270 C   0  0  0  0  0  0  0  0  0  0  0  0
  128.0150  127.9120   67.8880 C   0  0  0  0  0  0  0  0  0  0  0  0
  127.9180  127.8710   66.4920 C   0  0  0  0  0  0  0  0  0  0  0  0
  126.8970  128.7450   65.8370 C   0  0  0  0  0  0  0  0  0  0  0  0
  127.2800  129.6510   64.8430 C   0  0  0  0  0  0  0  0  0  0  0  0
  126.3350  130.4680   64.2280 C   0  0  0  0  0  0  0  0  0  0  0  0
  124.9900  130.3930   64.5900 C   0  0  0  0  0  0  0  0  0  0  0  0
  124.1250  131.2460   63.9320 O   0  0  0  0  0  0  0  0  0  0  0  0
  123.8430  131.0240   62.5550 C   0  0  0  0  0  0  0  0  0  0  0  0
  124.5990  129.4770   65.5780 C   0  0  0  0  0  0  0  0  0  0  0  0
  125.5460  128.6600   66.1900 C   0  0  0  0  0  0  0  0  0  0  0  0
  128.7820  127.0020   65.7810 C   0  0  0  0  0  0  0  0  0  0  0  0
  128.6530  126.8420   64.3290 C   0  0  0  0  0  0  0  0  0  0  0  0
  128.5510  126.7160   63.1840 N   0  0  0  0  0  0  0  0  0  0  0  0
  134.4451  124.9608   68.1813 H   0  0  0  0  0  0  0  0  0  0  0  0
  134.0463  126.5808   67.5155 H   0  0  0  0  0  0  0  0  0  0  0  0
  132.8076  125.2800   67.5155 H   0  0  0  0  0  0  0  0  0  0  0  0
  132.5969  126.8377   66.0860 H   0  0  0  0  0  0  0  0  0  0  0  0
  132.1178  126.6941   64.3754 H   0  0  0  0  0  0  0  0  0  0  0  0
  130.0826  129.0330   70.1570 H   0  0  0  0  0  0  0  0  0  0  0  0
  130.3160  129.0211   72.6237 H   0  0  0  0  0  0  0  0  0  0  0  0
  130.5364  126.5348   75.9332 H   0  0  0  0  0  0  0  0  0  0  0  0
  130.5999  125.4258   74.5215 H   0  0  0  0  0  0  0  0  0  0  0  0
  131.5721  126.9362   74.5215 H   0  0  0  0  0  0  0  0  0  0  0  0
  128.3622  125.1738   72.7918 H   0  0  0  0  0  0  0  0  0  0  0  0
  128.1219  125.1899   70.3252 H   0  0  0  0  0  0  0  0  0  0  0  0
  127.3535  128.5790   68.4603 H   0  0  0  0  0  0  0  0  0  0  0  0
  128.3366  129.7188   64.5445 H   0  0  0  0  0  0  0  0  0  0  0  0
  126.6517  131.1785   63.4502 H   0  0  0  0  0  0  0  0  0  0  0  0
  122.9818  130.3460   62.4618 H   0  0  0  0  0  0  0  0  0  0  0  0
  123.6090  131.9829   62.0694 H   0  0  0  0  0  0  0  0  0  0  0  0
  124.7202  130.5715   62.0694 H   0  0  0  0  0  0  0  0  0  0  0  0
  123.5410  129.4040   65.8701 H   0  0  0  0  0  0  0  0  0  0  0  0
  125.2285  127.9403   66.9590 H   0  0  0  0  0  0  0  0  0  0  0  0
  1  2  1  0
  2  3  1  0
  3  4  2  0
  3  5  1  0
  5  6  1  0
  6  7  1  0
  7  8  2  0
  8  9  1  0
  9 10  1  0
 10 11  2  0
 11 12  1  0
 12 13  2  0
 13 14  1  0
 14 15  1  0
 13 16  1  0
 16 17  2  0
  9 18  2  0
 18 19  1  0
 19 20  1  0
 20 21  2  0
 21 22  1  0
 22 23  2  0
 23 24  1  0
 24 25  1  0
 23 26  1  0
 26 27  2  0
 19 28  2  0
 28 29  1  0
 29 30  3  0
 28  7  1  0
 17 10  1  0
 27 20  1  0
  1 31  1  0
  1 32  1  0
  1 33  1  0
  5 34  1  0
  5 35  1  0
 11 36  1  0
 12 37  1  0
 15 38  1  0
 15 39  1  0
 15 40  1  0
 16 41  1  0
 17 42  1  0
 18 43  1  0
 21 44  1  0
 22 45  1  0
 25 46  1  0
 25 47  1  0
 25 48  1  0
 26 49  1  0
 27 50  1  0
M  END
>  <Binding energies>  (1) 
[-7.0]

>  <Ligand effiencies>  (1) 
[-0.23333333333333334]

>  <Interactions>  (1) 
["V-A:GLU:543:CD:4908, V-A:ARG:545:CD:4923, V-A:ARG:545:CG:4922, H-A:TYR:484:OH:4347, V-A:TYR:484:CZ:4346, V-A:ARG:545:CZ:4926, H-A:GLY:454:N:4049, H-A:ARG:545:NE:4924, V-B:GLU:543:CD:9880, V-A:HIS:456:CE1:4069, V-B:HIS:456:CE1:9041, V-B:GLU:543:C:9874, H-B:GLY:454:N:9021, V-B:GLY:454:CA:9020, V-B:ILE:369:CD1:8210, V-A:GLU:543:C:4902, V-B:ARG:545:CG:9894, V-B:ARG:545:CD:9895, V-B:ARG:545:CZ:9898, V-B:HIS:456:CD2:9039, H-A:ILE:455:N:4054, V-A:ILE:455:C:4051"]

$$$$
1d_Grossjean_2025
     RDKit          3D

 36 37  0  0  0  0  0  0  0  0999 V2000
  128.2100  126.6310   67.8330 C   0  0  0  0  0  0  0  0  0  0  0  0
  129.4190  126.2300   67.0110 C   0  0  0  0  0  0  0  0  0  0  0  0
  130.7060  126.2580   67.5440 C   0  0  0  0  0  0  0  0  0  0  0  0
  131.7840  125.8680   66.7420 C   0  0  0  0  0  0  0  0  0  0  0  0
  133.1830  125.8930   67.3540 C   0  0  0  0  0  0  0  0  0  0  0  0
  131.5420  125.4620   65.4100 C   0  0  0  0  0  0  0  0  0  0  0  0
  132.6490  125.0030   64.5670 C   0  0  0  0  0  0  0  0  0  0  0  0
  133.5250  124.6400   63.9040 N   0  0  0  0  0  0  0  0  0  0  0  0
  130.2060  125.4870   64.9440 C   0  0  0  0  0  0  0  0  0  0  0  0
  129.7220  125.0120   63.3000 S   0  0  0  0  0  0  0  0  0  0  0  0
  129.0670  123.3180   63.3950 C   0  0  0  0  0  0  0  0  0  0  0  0
  128.1750  122.9770   62.2000 C   0  0  0  0  0  0  0  0  0  0  0  0
  128.5090  122.0650   61.4420 O   0  0  0  0  0  0  0  0  0  0  0  0
  127.0490  123.7140   62.0900 N   0  0  0  0  0  0  0  0  0  0  0  0
  126.0350  123.6730   61.1150 C   0  0  0  0  0  0  0  0  0  0  0  0
  126.4370  123.9740   59.8110 C   0  0  0  0  0  0  0  0  0  0  0  0
  125.5140  123.9570   58.7690 C   0  0  0  0  0  0  0  0  0  0  0  0
  124.1860  123.6300   59.0300 C   0  0  0  0  0  0  0  0  0  0  0  0
  123.7740  123.3190   60.3230 C   0  0  0  0  0  0  0  0  0  0  0  0
  124.6940  123.3370   61.3670 C   0  0  0  0  0  0  0  0  0  0  0  0
  129.1650  125.8480   65.7370 N   0  0  0  0  0  0  0  0  0  0  0  0
  128.4513  126.5510   68.9032 H   0  0  0  0  0  0  0  0  0  0  0  0
  127.9335  127.6690   67.5961 H   0  0  0  0  0  0  0  0  0  0  0  0
  127.3680  125.9640   67.5961 H   0  0  0  0  0  0  0  0  0  0  0  0
  130.8723  126.5825   68.5818 H   0  0  0  0  0  0  0  0  0  0  0  0
  133.1034  125.8916   68.4511 H   0  0  0  0  0  0  0  0  0  0  0  0
  133.7427  125.0047   67.0258 H   0  0  0  0  0  0  0  0  0  0  0  0
  133.7106  126.8007   67.0258 H   0  0  0  0  0  0  0  0  0  0  0  0
  129.9107  122.6126   63.4203 H   0  0  0  0  0  0  0  0  0  0  0  0
  128.4554  123.2424   64.3062 H   0  0  0  0  0  0  0  0  0  0  0  0
  126.8910  124.3940   62.8200 H   0  0  0  0  0  0  0  0  0  0  0  0
  127.4882  124.2257   59.6068 H   0  0  0  0  0  0  0  0  0  0  0  0
  125.8322  124.2007   57.7446 H   0  0  0  0  0  0  0  0  0  0  0  0
  123.4559  123.6173   58.2073 H   0  0  0  0  0  0  0  0  0  0  0  0
  122.7232  123.0595   60.5190 H   0  0  0  0  0  0  0  0  0  0  0  0
  124.3717  123.0884   62.3889 H   0  0  0  0  0  0  0  0  0  0  0  0
  1  2  1  0
  2  3  2  0
  3  4  1  0
  4  5  1  0
  4  6  2  0
  6  7  1  0
  7  8  3  0
  6  9  1  0
  9 10  1  0
 10 11  1  0
 11 12  1  0
 12 13  2  0
 12 14  1  0
 14 15  1  0
 15 16  2  0
 16 17  1  0
 17 18  2  0
 18 19  1  0
 19 20  2  0
  9 21  2  0
 21  2  1  0
 20 15  1  0
  1 22  1  0
  1 23  1  0
  1 24  1  0
  3 25  1  0
  5 26  1  0
  5 27  1  0
  5 28  1  0
 11 29  1  0
 11 30  1  0
 14 31  1  0
 16 32  1  0
 17 33  1  0
 18 34  1  0
 19 35  1  0
 20 36  1  0
M  END
>  <Binding energies>  (1) 
[-7.25]

>  <Ligand effiencies>  (1) 
[-0.32954545454545453]

>  <Interactions>  (1) 
["V-A:ARG:545:CD:4923, V-A:ARG:545:CG:4922, H-A:TYR:484:OH:4347, V-A:TYR:484:CZ:4346, H-A:ARG:545:NH2:4928, V-A:ARG:545:CZ:4926, H-A:GLY:454:N:4049, H-B:ALA:541:N:9863, V-B:PRO:540:CA:9855, V-B:LEU:363:CD1:8160, H-B:GLU:543:OE1:9881, V-B:GLU:543:CG:9879, V-B:ALA:541:CB:9864, V-B:GLU:543:CD:9880, V-B:PRO:540:CB:9857, V-A:HIS:456:CE1:4069, V-B:HIS:456:CE1:9041, V-B:GLU:543:CB:9878, H-B:GLU:543:OE2:9882, V-B:LEU:363:CA:8156, V-B:LEU:363:CB:8158, V-B:ASN:362:CB:8147, V-B:ASN:362:C:8143"]

$$$$
1e_Grossjean_2025
     RDKit          3D

 38 39  0  0  0  0  0  0  0  0999 V2000
  134.2470  125.4700   67.1200 C   0  0  0  0  0  0  0  0  0  0  0  0
  133.3030  125.4970   65.9330 C   0  0  0  0  0  0  0  0  0  0  0  0
  131.9610  125.8620   66.0740 C   0  0  0  0  0  0  0  0  0  0  0  0
  131.1510  125.8620   64.9380 C   0  0  0  0  0  0  0  0  0  0  0  0
  131.6940  125.5010   63.7020 C   0  0  0  0  0  0  0  0  0  0  0  0
  133.0480  125.1510   63.6310 C   0  0  0  0  0  0  0  0  0  0  0  0
  133.5340  124.7860   62.3630 N   0  0  0  0  0  0  0  0  0  0  0  0
  133.8040  123.5490   61.8900 C   0  0  0  0  0  0  0  0  0  0  0  0
  133.6710  122.5040   62.5290 O   0  0  0  0  0  0  0  0  0  0  0  0
  134.3420  123.4860   60.4590 C   0  0  0  0  0  0  0  0  0  0  0  0
  133.1290  122.7750   59.3070 S   0  0  0  0  0  0  0  0  0  0  0  0
  131.8130  122.0310   60.2520 C   0  0  0  0  0  0  0  0  0  0  0  0
  130.8900  122.9250   60.6870 N   0  0  0  0  0  0  0  0  0  0  0  0
  129.8420  122.4780   61.4190 C   0  0  0  0  0  0  0  0  0  0  0  0
  128.8480  123.5330   61.8630 C   0  0  0  0  0  0  0  0  0  0  0  0
  129.6790  121.1360   61.7550 C   0  0  0  0  0  0  0  0  0  0  0  0
  130.6380  120.2090   61.3330 C   0  0  0  0  0  0  0  0  0  0  0  0
  130.4450  118.7460   61.7300 C   0  0  0  0  0  0  0  0  0  0  0  0
  131.7420  120.6540   60.5700 C   0  0  0  0  0  0  0  0  0  0  0  0
  132.7840  119.7050   60.1700 C   0  0  0  0  0  0  0  0  0  0  0  0
  133.6070  118.9540   59.8560 N   0  0  0  0  0  0  0  0  0  0  0  0
  133.8450  125.1450   64.7390 N   0  0  0  0  0  0  0  0  0  0  0  0
  133.6640  125.4867   68.0526 H   0  0  0  0  0  0  0  0  0  0  0  0
  134.8551  124.5541   67.0841 H   0  0  0  0  0  0  0  0  0  0  0  0
  134.9065  126.3496   67.0841 H   0  0  0  0  0  0  0  0  0  0  0  0
  131.5536  126.1424   67.0565 H   0  0  0  0  0  0  0  0  0  0  0  0
  130.0907  126.1446   65.0149 H   0  0  0  0  0  0  0  0  0  0  0  0
  131.0671  125.4919   62.7982 H   0  0  0  0  0  0  0  0  0  0  0  0
  133.7530  125.5610   61.7550 H   0  0  0  0  0  0  0  0  0  0  0  0
  134.5914  124.5050   60.1280 H   0  0  0  0  0  0  0  0  0  0  0  0
  135.2315  122.8389   60.4583 H   0  0  0  0  0  0  0  0  0  0  0  0
  128.8159  123.5671   62.9620 H   0  0  0  0  0  0  0  0  0  0  0  0
  129.1571  124.5146   61.4746 H   0  0  0  0  0  0  0  0  0  0  0  0
  127.8497  123.2828   61.4746 H   0  0  0  0  0  0  0  0  0  0  0  0
  128.8088  120.8099   62.3436 H   0  0  0  0  0  0  0  0  0  0  0  0
  130.4339  118.6621   62.8267 H   0  0  0  0  0  0  0  0  0  0  0  0
  129.4906  118.3789   61.3245 H   0  0  0  0  0  0  0  0  0  0  0  0
  131.2715  118.1439   61.3245 H   0  0  0  0  0  0  0  0  0  0  0  0
  1  2  1  0
  2  3  2  0
  3  4  1  0
  4  5  2  0
  5  6  1  0
  6  7  1  0
  7  8  1  0
  8  9  2  0
  8 10  1  0
 10 11  1  0
 11 12  1  0
 12 13  2  0
 13 14  1  0
 14 15  1  0
 14 16  2  0
 16 17  1  0
 17 18  1  0
 17 19  2  0
 19 20  1  0
 20 21  3  0
  6 22  2  0
 22  2  1  0
 19 12  1  0
  1 23  1  0
  1 24  1  0
  1 25  1  0
  3 26  1  0
  4 27  1  0
  5 28  1  0
  7 29  1  0
 10 30  1  0
 10 31  1  0
 15 32  1  0
 15 33  1  0
 15 34  1  0
 16 35  1  0
 18 36  1  0
 18 37  1  0
 18 38  1  0
M  END
>  <Binding energies>  (1) 
[-7.28]

>  <Ligand effiencies>  (1) 
[-0.3165217391304348]

>  <Interactions>  (1) 
["V-A:GLU:543:CD:4908, V-A:ASP:366:CG:3212, V-A:ARG:545:CD:4923, V-A:ARG:545:CG:4922, H-A:TYR:484:OH:4347, V-A:ASP:366:CA:3209, H-A:ARG:545:NH2:4928, V-A:ILE:369:CD1:3238, H-A:ARG:545:NH1:4927, V-A:ARG:545:CZ:4926, H-A:GLY:454:N:4049, V-A:ILE:369:CB:3235, H-A:ASP:366:OD2:3214, H-A:ASP:366:OD1:3213, H-A:ARG:545:NE:4924, V-A:ILE:369:CG2:3236, V-B:TYR:539:CD2:9846, V-B:TYR:539:CE2:9848, V-A:LEU:475:CD1:4257, V-A:PRO:482:CB:4325, H-A:HIS:383:NE2:3393, V-A:PRO:482:CG:4326, V-B:ALA:541:CB:9864, V-A:HIS:456:CE1:4069, V-B:ALA:541:CA:9862, V-A:ILE:455:C:4051"]

$$$$
1f_Grossjean_2025
     RDKit          3D

 35 36  0  0  0  0  0  0  0  0999 V2000
  135.1610  125.4980   66.6570 C   0  0  0  0  0  0  0  0  0  0  0  0
  133.8330  125.5010   65.9220 C   0  0  0  0  0  0  0  0  0  0  0  0
  132.6480  125.8600   66.5580 C   0  0  0  0  0  0  0  0  0  0  0  0
  131.4530  125.8320   65.8320 C   0  0  0  0  0  0  0  0  0  0  0  0
  130.1620  126.2120   66.5570 C   0  0  0  0  0  0  0  0  0  0  0  0
  131.4780  125.4490   64.4720 C   0  0  0  0  0  0  0  0  0  0  0  0
  130.2290  125.3600   63.7110 C   0  0  0  0  0  0  0  0  0  0  0  0
  129.2420  125.2900   63.1110 N   0  0  0  0  0  0  0  0  0  0  0  0
  132.7310  125.1280   63.9000 C   0  0  0  0  0  0  0  0  0  0  0  0
  132.9590  124.6250   62.2060 S   0  0  0  0  0  0  0  0  0  0  0  0
  134.4140  123.5260   62.1220 C   0  0  0  0  0  0  0  0  0  0  0  0
  134.0880  122.0300   61.9940 C   0  0  0  0  0  0  0  0  0  0  0  0
  134.9430  121.1810   62.2490 O   0  0  0  0  0  0  0  0  0  0  0  0
  132.8350  121.7630   61.5690 N   0  0  0  0  0  0  0  0  0  0  0  0
  132.2050  120.5230   61.3500 C   0  0  0  0  0  0  0  0  0  0  0  0
  130.8590  120.2260   61.6350 C   0  0  0  0  0  0  0  0  0  0  0  0
  130.3610  118.9490   61.3630 C   0  0  0  0  0  0  0  0  0  0  0  0
  131.2210  118.0000   60.8090 C   0  0  0  0  0  0  0  0  0  0  0  0
  132.5200  118.2630   60.5200 N   0  0  0  0  0  0  0  0  0  0  0  0
  132.9890  119.5080   60.7900 C   0  0  0  0  0  0  0  0  0  0  0  0
  133.8810  125.1350   64.6190 N   0  0  0  0  0  0  0  0  0  0  0  0
  134.9796  125.4984   67.7419 H   0  0  0  0  0  0  0  0  0  0  0  0
  135.7309  124.5986   66.3809 H   0  0  0  0  0  0  0  0  0  0  0  0
  135.7349  126.3949   66.3809 H   0  0  0  0  0  0  0  0  0  0  0  0
  132.6514  126.1613   67.6159 H   0  0  0  0  0  0  0  0  0  0  0  0
  130.3242  126.1643   67.6439 H   0  0  0  0  0  0  0  0  0  0  0  0
  129.8700  127.2342   66.2744 H   0  0  0  0  0  0  0  0  0  0  0  0
  129.3628  125.5110   66.2744 H   0  0  0  0  0  0  0  0  0  0  0  0
  135.0149  123.8207   61.2490 H   0  0  0  0  0  0  0  0  0  0  0  0
  134.9463  123.6452   63.0772 H   0  0  0  0  0  0  0  0  0  0  0  0
  132.2570  122.5640   61.3580 H   0  0  0  0  0  0  0  0  0  0  0  0
  130.2029  120.9947   62.0693 H   0  0  0  0  0  0  0  0  0  0  0  0
  129.3127  118.6971   61.5811 H   0  0  0  0  0  0  0  0  0  0  0  0
  130.8283  116.9945   60.5973 H   0  0  0  0  0  0  0  0  0  0  0  0
  134.0406  119.7307   60.5563 H   0  0  0  0  0  0  0  0  0  0  0  0
  1  2  1  0
  2  3  2  0
  3  4  1  0
  4  5  1  0
  4  6  2  0
  6  7  1  0
  7  8  3  0
  6  9  1  0
  9 10  1  0
 10 11  1  0
 11 12  1  0
 12 13  2  0
 12 14  1  0
 14 15  1  0
 15 16  2  0
 16 17  1  0
 17 18  2  0
 18 19  1  0
 19 20  2  0
  9 21  2  0
 21  2  1  0
 20 15  1  0
  1 22  1  0
  1 23  1  0
  1 24  1  0
  3 25  1  0
  5 26  1  0
  5 27  1  0
  5 28  1  0
 11 29  1  0
 11 30  1  0
 14 31  1  0
 16 32  1  0
 17 33  1  0
 18 34  1  0
 20 35  1  0
M  END
>  <Binding energies>  (1) 
[-7.11]

>  <Ligand effiencies>  (1) 
[-0.3231818181818182]

>  <Interactions>  (1) 
["V-A:ARG:545:CD:4923, V-A:ARG:545:CG:4922, V-A:GLY:453:C:4041, H-A:TYR:484:OH:4347, V-A:GLY:454:CA:4048, V-A:TYR:484:CZ:4346, H-A:ARG:545:NH2:4928, V-A:ILE:369:CD1:3238, H-A:ARG:545:NH1:4927, V-A:ARG:545:CZ:4926, H-A:GLY:454:N:4049, H-A:ARG:545:NE:4924, V-A:ILE:369:CG2:3236, H-A:SER:385:OG:3409, V-A:LEU:475:CD1:4257, V-A:PRO:482:CB:4325, H-A:HIS:383:NE2:3393, V-A:PRO:482:CG:4326, V-B:ALA:541:CB:9864, V-A:HIS:456:CE1:4069, V-A:GLY:453:CA:4043, V-A:ARG:545:CB:4921, V-A:ILE:455:C:4051"]

$$$$
1g_Grossjean_2025
     RDKit          3D

 39 40  0  0  0  0  0  0  0  0999 V2000
  129.2250  125.6660   62.8320 C   0  0  0  0  0  0  0  0  0  0  0  0
  130.5340  125.5650   63.5930 C   0  0  0  0  0  0  0  0  0  0  0  0
  131.7300  125.2530   62.9500 C   0  0  0  0  0  0  0  0  0  0  0  0
  132.9030  125.1580   63.7060 C   0  0  0  0  0  0  0  0  0  0  0  0
  134.2000  124.7990   62.9810 C   0  0  0  0  0  0  0  0  0  0  0  0
  132.8490  125.3880   65.0990 C   0  0  0  0  0  0  0  0  0  0  0  0
  134.0540  125.2430   65.9190 C   0  0  0  0  0  0  0  0  0  0  0  0
  135.0080  125.1260   66.5640 N   0  0  0  0  0  0  0  0  0  0  0  0
  131.5960  125.7250   65.6630 C   0  0  0  0  0  0  0  0  0  0  0  0
  131.3490  126.0560   67.3940 S   0  0  0  0  0  0  0  0  0  0  0  0
  129.5590  125.9990   67.7040 C   0  0  0  0  0  0  0  0  0  0  0  0
  128.9380  127.3970   67.7340 C   0  0  0  0  0  0  0  0  0  0  0  0
  129.4480  128.2840   68.4210 O   0  0  0  0  0  0  0  0  0  0  0  0
  127.8340  127.5740   66.9880 N   0  0  0  0  0  0  0  0  0  0  0  0
  127.1150  128.8370   66.8240 C   0  0  0  0  0  0  0  0  0  0  0  0
  126.4490  129.0090   65.4620 C   0  0  0  0  0  0  0  0  0  0  0  0
  127.1060  128.5770   64.3050 C   0  0  0  0  0  0  0  0  0  0  0  0
  126.4990  128.7320   63.0620 C   0  0  0  0  0  0  0  0  0  0  0  0
  125.2350  129.3140   62.9790 C   0  0  0  0  0  0  0  0  0  0  0  0
  124.5740  129.7420   64.1280 C   0  0  0  0  0  0  0  0  0  0  0  0
  125.1810  129.5890   65.3720 C   0  0  0  0  0  0  0  0  0  0  0  0
  130.4580  125.7920   64.9250 N   0  0  0  0  0  0  0  0  0  0  0  0
  128.3902  125.7304   63.5454 H   0  0  0  0  0  0  0  0  0  0  0  0
  129.2371  126.5659   62.1995 H   0  0  0  0  0  0  0  0  0  0  0  0
  129.0989  124.7749   62.1995 H   0  0  0  0  0  0  0  0  0  0  0  0
  131.7515  125.0838   61.8633 H   0  0  0  0  0  0  0  0  0  0  0  0
  134.9852  124.5817   63.7201 H   0  0  0  0  0  0  0  0  0  0  0  0
  134.0345  123.9129   62.3506 H   0  0  0  0  0  0  0  0  0  0  0  0
  134.5137  125.6441   62.3506 H   0  0  0  0  0  0  0  0  0  0  0  0
  129.0787  125.4141   66.9058 H   0  0  0  0  0  0  0  0  0  0  0  0
  129.3991  125.5349   68.6884 H   0  0  0  0  0  0  0  0  0  0  0  0
  127.4960  126.7970   66.4390 H   0  0  0  0  0  0  0  0  0  0  0  0
  126.3354  128.8924   67.5980 H   0  0  0  0  0  0  0  0  0  0  0  0
  127.8631  129.6387   66.9120 H   0  0  0  0  0  0  0  0  0  0  0  0
  128.1017  128.1151   64.3775 H   0  0  0  0  0  0  0  0  0  0  0  0
  127.0142  128.3969   62.1497 H   0  0  0  0  0  0  0  0  0  0  0  0
  124.7550  129.4364   61.9968 H   0  0  0  0  0  0  0  0  0  0  0  0
  123.5763  130.1991   64.0530 H   0  0  0  0  0  0  0  0  0  0  0  0
  124.6629  129.9243   66.2826 H   0  0  0  0  0  0  0  0  0  0  0  0
  1  2  1  0
  2  3  2  0
  3  4  1  0
  4  5  1  0
  4  6  2  0
  6  7  1  0
  7  8  3  0
  6  9  1  0
  9 10  1  0
 10 11  1  0
 11 12  1  0
 12 13  2  0
 12 14  1  0
 14 15  1  0
 15 16  1  0
 16 17  2  0
 17 18  1  0
 18 19  2  0
 19 20  1  0
 20 21  2  0
  9 22  2  0
 22  2  1  0
 21 16  1  0
  1 23  1  0
  1 24  1  0
  1 25  1  0
  3 26  1  0
  5 27  1  0
  5 28  1  0
  5 29  1  0
 11 30  1  0
 11 31  1  0
 14 32  1  0
 15 33  1  0
 15 34  1  0
 17 35  1  0
 18 36  1  0
 19 37  1  0
 20 38  1  0
 21 39  1  0
M  END
>  <Binding energies>  (1) 
[-6.74]

>  <Ligand effiencies>  (1) 
[-0.29304347826086957]

>  <Interactions>  (1) 
["V-A:ASP:366:CG:3212, V-A:ARG:545:CD:4923, V-A:ARG:545:CG:4922, V-A:GLY:453:C:4041, H-A:TYR:484:OH:4347, V-A:GLY:454:CA:4048, V-A:ARG:545:CZ:4926, H-A:GLY:454:N:4049, H-A:ARG:545:NE:4924, V-A:HIS:456:CE1:4069, V-B:HIS:456:CE1:9041, V-A:GLY:453:CA:4043, V-B:GLU:543:CB:9878, V-B:ASP:366:CG:8184, H-B:GLU:543:OE2:9882, V-B:ARG:545:CZ:9898, H-A:ILE:455:N:4054"]

$$$$
1h_Grossjean_2025
     RDKit          3D

 51 52  0  0  0  0  0  0  0  0999 V2000
  134.9730  125.2510   66.7230 C   0  0  0  0  0  0  0  0  0  0  0  0
  134.2910  125.5030   65.5000 O   0  0  0  0  0  0  0  0  0  0  0  0
  132.9200  125.3270   65.4390 C   0  0  0  0  0  0  0  0  0  0  0  0
  132.0150  125.8980   66.3480 C   0  0  0  0  0  0  0  0  0  0  0  0
  130.6440  125.6660   66.2330 C   0  0  0  0  0  0  0  0  0  0  0  0
  129.6700  126.3100   67.2150 C   0  0  0  0  0  0  0  0  0  0  0  0
  128.6210  127.1050   66.5770 N   0  0  0  0  0  0  0  0  0  0  0  0
  128.1980  128.3120   66.9940 C   0  0  0  0  0  0  0  0  0  0  0  0
  128.6730  128.9050   67.9620 O   0  0  0  0  0  0  0  0  0  0  0  0
  127.0570  128.9460   66.1980 C   0  0  0  0  0  0  0  0  0  0  0  0
  127.3560  130.7090   65.8670 S   0  0  0  0  0  0  0  0  0  0  0  0
  126.8060  131.0620   64.2050 C   0  0  0  0  0  0  0  0  0  0  0  0
  127.7220  131.6520   63.3930 N   0  0  0  0  0  0  0  0  0  0  0  0
  127.3710  131.9430   62.1190 C   0  0  0  0  0  0  0  0  0  0  0  0
  128.4480  132.5960   61.2730 C   0  0  0  0  0  0  0  0  0  0  0  0
  126.1070  131.6650   61.6040 C   0  0  0  0  0  0  0  0  0  0  0  0
  125.1550  131.0600   62.4310 C   0  0  0  0  0  0  0  0  0  0  0  0
  123.7760  130.7620   61.8460 C   0  0  0  0  0  0  0  0  0  0  0  0
  125.4990  130.7470   63.7660 C   0  0  0  0  0  0  0  0  0  0  0  0
  124.5210  130.1150   64.6550 C   0  0  0  0  0  0  0  0  0  0  0  0
  123.7480  129.6160   65.3580 N   0  0  0  0  0  0  0  0  0  0  0  0
  130.1630  124.8870   65.1800 C   0  0  0  0  0  0  0  0  0  0  0  0
  131.0450  124.3080   64.2530 C   0  0  0  0  0  0  0  0  0  0  0  0
  130.6400  123.5250   63.1870 O   0  0  0  0  0  0  0  0  0  0  0  0
  129.2950  123.0580   63.1340 C   0  0  0  0  0  0  0  0  0  0  0  0
  132.4220  124.5270   64.4000 C   0  0  0  0  0  0  0  0  0  0  0  0
  133.2960  123.9730   63.4960 O   0  0  0  0  0  0  0  0  0  0  0  0
  133.4710  124.7420   62.3140 C   0  0  0  0  0  0  0  0  0  0  0  0
  134.3126  125.4950   67.5681 H   0  0  0  0  0  0  0  0  0  0  0  0
  135.2556  124.1891   66.7732 H   0  0  0  0  0  0  0  0  0  0  0  0
  135.8782  125.8740   66.7732 H   0  0  0  0  0  0  0  0  0  0  0  0
  132.3916  126.5362   67.1610 H   0  0  0  0  0  0  0  0  0  0  0  0
  129.1910  125.5117   67.8009 H   0  0  0  0  0  0  0  0  0  0  0  0
  130.2569  126.9997   67.8395 H   0  0  0  0  0  0  0  0  0  0  0  0
  128.1670  126.6840   65.7800 H   0  0  0  0  0  0  0  0  0  0  0  0
  126.9558  128.4166   65.2391 H   0  0  0  0  0  0  0  0  0  0  0  0
  126.1378  128.8634   66.7966 H   0  0  0  0  0  0  0  0  0  0  0  0
  129.2027  133.0536   61.9295 H   0  0  0  0  0  0  0  0  0  0  0  0
  128.9267  131.8359   60.6381 H   0  0  0  0  0  0  0  0  0  0  0  0
  127.9954  133.3719   60.6381 H   0  0  0  0  0  0  0  0  0  0  0  0
  125.8611  131.9176   60.5620 H   0  0  0  0  0  0  0  0  0  0  0  0
  123.0567  130.6066   62.6636 H   0  0  0  0  0  0  0  0  0  0  0  0
  123.4494  131.6103   61.2266 H   0  0  0  0  0  0  0  0  0  0  0  0
  123.8288  129.8545   61.2266 H   0  0  0  0  0  0  0  0  0  0  0  0
  129.0802  124.7245   65.0747 H   0  0  0  0  0  0  0  0  0  0  0  0
  128.9124  122.9252   64.1567 H   0  0  0  0  0  0  0  0  0  0  0  0
  128.6725  123.7926   62.6022 H   0  0  0  0  0  0  0  0  0  0  0  0
  129.2617  122.0957   62.6022 H   0  0  0  0  0  0  0  0  0  0  0  0
  133.7076  125.7816   62.5846 H   0  0  0  0  0  0  0  0  0  0  0  0
  134.2962  124.3206   61.7212 H   0  0  0  0  0  0  0  0  0  0  0  0
  132.5447  124.7191   61.7212 H   0  0  0  0  0  0  0  0  0  0  0  0
  1  2  1  0
  2  3  1  0
  3  4  2  0
  4  5  1  0
  5  6  1  0
  6  7  1  0
  7  8  1  0
  8  9  2  0
  8 10  1  0
 10 11  1  0
 11 12  1  0
 12 13  2  0
 13 14  1  0
 14 15  1  0
 14 16  2  0
 16 17  1  0
 17 18  1  0
 17 19  2  0
 19 20  1  0
 20 21  3  0
  5 22  2  0
 22 23  1  0
 23 24  1  0
 24 25  1  0
 23 26  2  0
 26 27  1  0
 27 28  1  0
 26  3  1  0
 19 12  1  0
  1 29  1  0
  1 30  1  0
  1 31  1  0
  4 32  1  0
  6 33  1  0
  6 34  1  0
  7 35  1  0
 10 36  1  0
 10 37  1  0
 15 38  1  0
 15 39  1  0
 15 40  1  0
 16 41  1  0
 18 42  1  0
 18 43  1  0
 18 44  1  0
 22 45  1  0
 25 46  1  0
 25 47  1  0
 25 48  1  0
 28 49  1  0
 28 50  1  0
 28 51  1  0
M  END
>  <Binding energies>  (1) 
[-7.12]

>  <Ligand effiencies>  (1) 
[-0.24551724137931036]

>  <Interactions>  (1) 
["V-A:ALA:541:CB:4892, V-A:GLU:543:CD:4908, V-A:ASP:366:CG:3212, V-A:ARG:545:CD:4923, V-A:ARG:545:CG:4922, V-A:GLY:453:C:4041, H-A:TYR:484:OH:4347, V-A:GLY:454:CA:4048, H-A:ARG:545:NH2:4928, H-A:GLU:543:OE1:4909, H-A:ARG:545:NH1:4927, V-A:ARG:545:CZ:4926, H-A:GLY:454:N:4049, H-A:ARG:545:NE:4924, V-B:GLU:543:CG:9879, V-B:ALA:541:CB:9864, V-B:GLU:543:CD:9880, V-B:HIS:456:CE1:9041, V-A:GLY:453:CA:4043, H-B:TYR:484:OH:9319, H-B:ARG:545:NH2:9900, H-B:GLY:454:N:9021, V-B:GLY:454:CA:9020, V-B:ILE:369:CD1:8210, H-B:ARG:545:NH1:9899, V-B:ASP:366:CG:8184, H-B:GLU:543:OE2:9882, H-B:ARG:545:NE:9896, V-B:ARG:545:CZ:9898, V-A:GLY:454:C:4046, V-A:ILE:455:C:4051"]

$$$$
1i_Grossjean_2025
     RDKit          3D

 32 33  0  0  0  0  0  0  0  0999 V2000
  133.6760  125.5230   66.9020 C   0  0  0  0  0  0  0  0  0  0  0  0
  133.0620  125.3990   65.5210 C   0  0  0  0  0  0  0  0  0  0  0  0
  131.7360  125.7520   65.2770 C   0  0  0  0  0  0  0  0  0  0  0  0
  131.2260  125.6260   63.9800 C   0  0  0  0  0  0  0  0  0  0  0  0
  129.7750  126.0350   63.7340 C   0  0  0  0  0  0  0  0  0  0  0  0
  132.0660  125.1390   62.9520 C   0  0  0  0  0  0  0  0  0  0  0  0
  131.5670  125.0470   61.5770 C   0  0  0  0  0  0  0  0  0  0  0  0
  131.1720  124.9760   60.4910 N   0  0  0  0  0  0  0  0  0  0  0  0
  133.3910  124.7820   63.2960 C   0  0  0  0  0  0  0  0  0  0  0  0
  134.5790  124.1520   62.1310 S   0  0  0  0  0  0  0  0  0  0  0  0
  134.6950  122.3550   62.3800 C   0  0  0  0  0  0  0  0  0  0  0  0
  133.5850  121.5990   61.6460 C   0  0  0  0  0  0  0  0  0  0  0  0
  132.8040  122.2240   60.9260 O   0  0  0  0  0  0  0  0  0  0  0  0
  133.5540  120.2640   61.8510 N   0  0  0  0  0  0  0  0  0  0  0  0
  132.6570  119.3520   61.3160 C   0  0  0  0  0  0  0  0  0  0  0  0
  131.2750  119.4750   61.4490 C   0  0  0  0  0  0  0  0  0  0  0  0
  130.7530  118.3870   60.7890 C   0  0  0  0  0  0  0  0  0  0  0  0
  131.7670  117.6450   60.2860 O   0  0  0  0  0  0  0  0  0  0  0  0
  132.9700  118.2660   60.6280 N   0  0  0  0  0  0  0  0  0  0  0  0
  133.8810  124.9260   64.5520 N   0  0  0  0  0  0  0  0  0  0  0  0
  132.8987  125.3660   67.6643 H   0  0  0  0  0  0  0  0  0  0  0  0
  134.4652  124.7661   67.0217 H   0  0  0  0  0  0  0  0  0  0  0  0
  134.1096  126.5268   67.0217 H   0  0  0  0  0  0  0  0  0  0  0  0
  131.0991  126.1246   66.0928 H   0  0  0  0  0  0  0  0  0  0  0  0
  129.2659  126.1785   64.6985 H   0  0  0  0  0  0  0  0  0  0  0  0
  129.7507  126.9750   63.1632 H   0  0  0  0  0  0  0  0  0  0  0  0
  129.2634  125.2461   63.1632 H   0  0  0  0  0  0  0  0  0  0  0  0
  135.6689  122.0071   62.0050 H   0  0  0  0  0  0  0  0  0  0  0  0
  134.5868  122.1546   63.4562 H   0  0  0  0  0  0  0  0  0  0  0  0
  134.2350  119.8790   62.4900 H   0  0  0  0  0  0  0  0  0  0  0  0
  130.7214  120.2704   61.9694 H   0  0  0  0  0  0  0  0  0  0  0  0
  129.6823  118.1567   60.6864 H   0  0  0  0  0  0  0  0  0  0  0  0
  1  2  1  0
  2  3  2  0
  3  4  1  0
  4  5  1  0
  4  6  2  0
  6  7  1  0
  7  8  3  0
  6  9  1  0
  9 10  1  0
 10 11  1  0
 11 12  1  0
 12 13  2  0
 12 14  1  0
 14 15  1  0
 15 16  1  0
 16 17  2  0
 17 18  1  0
 18 19  1  0
  9 20  2  0
 20  2  1  0
 19 15  2  0
  1 21  1  0
  1 22  1  0
  1 23  1  0
  3 24  1  0
  5 25  1  0
  5 26  1  0
  5 27  1  0
 11 28  1  0
 11 29  1  0
 14 30  1  0
 16 31  1  0
 17 32  1  0
M  END
>  <Binding energies>  (1) 
[-6.92]

>  <Ligand effiencies>  (1) 
[-0.3295238095238095]

>  <Interactions>  (1) 
["V-A:ASP:366:CG:3212, V-A:ARG:545:CD:4923, V-A:ARG:545:CG:4922, V-A:GLY:453:C:4041, H-A:TYR:484:OH:4347, V-A:GLY:454:CA:4048, V-A:TYR:484:CZ:4346, H-A:ARG:545:NH2:4928, V-A:ILE:369:CD1:3238, H-A:ARG:545:NH1:4927, V-A:ARG:545:CZ:4926, H-A:GLY:454:N:4049, H-A:ARG:545:NE:4924, V-A:ILE:369:CG2:3236, V-B:TYR:539:CD2:9846, H-A:SER:385:OG:3409, V-A:LEU:475:CD1:4257, H-A:HIS:383:NE2:3393, V-A:PRO:482:CG:4326, V-A:SER:385:C:3404, V-A:HIS:456:CE1:4069, H-A:SER:385:O:3405"]

$$$$
1j_Grossjean_2025
     RDKit          3D

 32 33  0  0  0  0  0  0  0  0999 V2000
  134.4480  118.7370   60.0410 C   0  0  0  0  0  0  0  0  0  0  0  0
  133.1240  119.4220   60.3220 C   0  0  0  0  0  0  0  0  0  0  0  0
  131.9950  118.7000   60.7010 C   0  0  0  0  0  0  0  0  0  0  0  0
  130.8040  119.3860   60.9600 C   0  0  0  0  0  0  0  0  0  0  0  0
  129.5840  118.5730   61.3910 C   0  0  0  0  0  0  0  0  0  0  0  0
  130.7740  120.7920   60.8240 C   0  0  0  0  0  0  0  0  0  0  0  0
  129.5520  121.5360   61.1420 C   0  0  0  0  0  0  0  0  0  0  0  0
  128.5860  122.1210   61.3950 N   0  0  0  0  0  0  0  0  0  0  0  0
  131.9600  121.4410   60.4090 C   0  0  0  0  0  0  0  0  0  0  0  0
  132.1010  123.2010   60.1850 S   0  0  0  0  0  0  0  0  0  0  0  0
  133.5980  123.7520   61.0550 C   0  0  0  0  0  0  0  0  0  0  0  0
  133.4080  123.7650   62.5730 C   0  0  0  0  0  0  0  0  0  0  0  0
  133.1870  122.7070   63.1630 O   0  0  0  0  0  0  0  0  0  0  0  0
  133.5030  124.9770   63.1620 N   0  0  0  0  0  0  0  0  0  0  0  0
  133.3640  125.2540   64.5140 C   0  0  0  0  0  0  0  0  0  0  0  0
  134.2720  125.1380   65.4600 N   0  0  0  0  0  0  0  0  0  0  0  0
  133.7930  125.4910   66.6360 C   0  0  0  0  0  0  0  0  0  0  0  0
  132.4650  125.9070   66.6610 C   0  0  0  0  0  0  0  0  0  0  0  0
  131.8180  125.8290   65.0500 S   0  0  0  0  0  0  0  0  0  0  0  0
  133.1160  120.7690   60.1810 N   0  0  0  0  0  0  0  0  0  0  0  0
  134.9386  118.4832   60.9922 H   0  0  0  0  0  0  0  0  0  0  0  0
  134.2700  117.8179   59.4635 H   0  0  0  0  0  0  0  0  0  0  0  0
  135.0954  119.4133   59.4635 H   0  0  0  0  0  0  0  0  0  0  0  0
  132.0394  117.6050   60.7954 H   0  0  0  0  0  0  0  0  0  0  0  0
  129.5347  118.5401   62.4894 H   0  0  0  0  0  0  0  0  0  0  0  0
  128.6715  119.0442   60.9969 H   0  0  0  0  0  0  0  0  0  0  0  0
  129.6676  117.5494   60.9969 H   0  0  0  0  0  0  0  0  0  0  0  0
  134.4243  123.0697   60.8066 H   0  0  0  0  0  0  0  0  0  0  0  0
  133.8192  124.7800   60.7319 H   0  0  0  0  0  0  0  0  0  0  0  0
  133.6630  125.7750   62.5650 H   0  0  0  0  0  0  0  0  0  0  0  0
  134.4085  125.4587   67.5471 H   0  0  0  0  0  0  0  0  0  0  0  0
  131.9141  126.2325   67.5558 H   0  0  0  0  0  0  0  0  0  0  0  0
  1  2  1  0
  2  3  2  0
  3  4  1  0
  4  5  1  0
  4  6  2  0
  6  7  1  0
  7  8  3  0
  6  9  1  0
  9 10  1  0
 10 11  1  0
 11 12  1  0
 12 13  2  0
 12 14  1  0
 14 15  1  0
 15 16  2  0
 16 17  1  0
 17 18  2  0
 18 19  1  0
  9 20  2  0
 20  2  1  0
 19 15  1  0
  1 21  1  0
  1 22  1  0
  1 23  1  0
  3 24  1  0
  5 25  1  0
  5 26  1  0
  5 27  1  0
 11 28  1  0
 11 29  1  0
 14 30  1  0
 17 31  1  0
 18 32  1  0
M  END
>  <Binding energies>  (1) 
[-6.84]

>  <Ligand effiencies>  (1) 
[-0.32571428571428573]

>  <Interactions>  (1) 
["V-A:ASP:366:CG:3212, V-A:ARG:545:CD:4923, V-A:ARG:545:CG:4922, H-A:TYR:484:OH:4347, V-A:TYR:484:CZ:4346, H-A:ARG:545:NH1:4927, V-A:ARG:545:CZ:4926, H-A:GLY:454:N:4049, H-A:ASP:366:OD2:3214, H-A:ASP:366:OD1:3213, H-A:ARG:545:NE:4924, V-A:ILE:369:CG2:3236, V-B:TYR:539:CD2:9846, V-B:TYR:539:CE2:9848, H-B:ALA:541:N:9863, V-A:PRO:482:CB:4325, V-A:PRO:482:CG:4326, V-B:ALA:541:CB:9864, V-B:TYR:539:C:9839, V-A:SER:385:C:3404, V-A:HIS:383:CD2:3391, V-A:HIS:456:CE1:4069, V-B:ALA:541:CA:9862, V-A:SER:385:CA:3406, V-B:PRO:540:C:9853, V-A:SER:385:CB:3408"]

$$$$
1k_Grossjean_2025
     RDKit          3D

 50 50  0  0  0  0  0  0  0  0999 V2000
  134.0870  125.3440   67.1510 C   0  0  0  0  0  0  0  0  0  0  0  0
  133.8810  125.0760   65.7730 O   0  0  0  0  0  0  0  0  0  0  0  0
  132.7750  125.7760   65.2190 C   0  0  0  0  0  0  0  0  0  0  0  0
  131.7720  124.7710   64.6370 C   0  0  0  0  0  0  0  0  0  0  0  0
  132.2040  124.3660   63.3440 O   0  0  0  0  0  0  0  0  0  0  0  0
  133.5550  124.7040   63.0610 C   0  0  0  0  0  0  0  0  0  0  0  0
  133.9360  124.1680   61.6760 C   0  0  0  0  0  0  0  0  0  0  0  0
  133.6120  122.7850   61.5970 O   0  0  0  0  0  0  0  0  0  0  0  0
  134.6230  121.9310   62.1160 C   0  0  0  0  0  0  0  0  0  0  0  0
  134.2980  120.4690   61.7590 C   0  0  0  0  0  0  0  0  0  0  0  0
  132.9080  120.2500   61.3570 N   0  0  0  0  0  0  0  0  0  0  0  0
  132.3900  119.0710   60.9670 C   0  0  0  0  0  0  0  0  0  0  0  0
  133.0500  118.0320   60.9130 O   0  0  0  0  0  0  0  0  0  0  0  0
  130.9030  119.0960   60.5800 C   0  0  0  0  0  0  0  0  0  0  0  0
  129.8930  120.3750   61.4060 S   0  0  0  0  0  0  0  0  0  0  0  0
  130.2040  121.9570   60.6360 C   0  0  0  0  0  0  0  0  0  0  0  0
  131.3670  122.0600   59.9420 N   0  0  0  0  0  0  0  0  0  0  0  0
  131.6690  123.2340   59.3420 C   0  0  0  0  0  0  0  0  0  0  0  0
  132.9870  123.2730   58.5940 C   0  0  0  0  0  0  0  0  0  0  0  0
  130.8310  124.3450   59.4010 C   0  0  0  0  0  0  0  0  0  0  0  0
  129.6270  124.2510   60.1070 C   0  0  0  0  0  0  0  0  0  0  0  0
  128.7220  125.4800   60.1600 C   0  0  0  0  0  0  0  0  0  0  0  0
  129.2950  123.0340   60.7440 C   0  0  0  0  0  0  0  0  0  0  0  0
  128.0420  122.9070   61.4940 C   0  0  0  0  0  0  0  0  0  0  0  0
  127.0520  122.8090   62.0860 N   0  0  0  0  0  0  0  0  0  0  0  0
  133.5264  124.6147   67.7542 H   0  0  0  0  0  0  0  0  0  0  0  0
  135.1592  125.2652   67.3836 H   0  0  0  0  0  0  0  0  0  0  0  0
  133.7351  126.3599   67.3836 H   0  0  0  0  0  0  0  0  0  0  0  0
  132.2853  126.3689   66.0055 H   0  0  0  0  0  0  0  0  0  0  0  0
  133.1279  126.4455   64.4207 H   0  0  0  0  0  0  0  0  0  0  0  0
  131.7099  123.8918   65.2951 H   0  0  0  0  0  0  0  0  0  0  0  0
  130.7812  125.2429   64.5618 H   0  0  0  0  0  0  0  0  0  0  0  0
  133.6701  125.7979   63.0753 H   0  0  0  0  0  0  0  0  0  0  0  0
  134.2121  124.2564   63.8211 H   0  0  0  0  0  0  0  0  0  0  0  0
  133.3798  124.7196   60.9037 H   0  0  0  0  0  0  0  0  0  0  0  0
  135.0161  124.3012   61.5157 H   0  0  0  0  0  0  0  0  0  0  0  0
  135.5945  122.2069   61.6801 H   0  0  0  0  0  0  0  0  0  0  0  0
  134.6660  122.0389   63.2099 H   0  0  0  0  0  0  0  0  0  0  0  0
  134.9508  120.1623   60.9285 H   0  0  0  0  0  0  0  0  0  0  0  0
  134.4638  119.8744   62.6695 H   0  0  0  0  0  0  0  0  0  0  0  0
  132.3050  121.0600   61.3750 H   0  0  0  0  0  0  0  0  0  0  0  0
  130.8386  119.2628   59.4946 H   0  0  0  0  0  0  0  0  0  0  0  0
  130.4909  118.1299   60.9070 H   0  0  0  0  0  0  0  0  0  0  0  0
  133.8173  123.2976   59.3151 H   0  0  0  0  0  0  0  0  0  0  0  0
  133.0766  122.3771   57.9621 H   0  0  0  0  0  0  0  0  0  0  0  0
  133.0235  124.1726   57.9621 H   0  0  0  0  0  0  0  0  0  0  0  0
  131.1119  125.2829   58.8996 H   0  0  0  0  0  0  0  0  0  0  0  0
  128.5261  125.7461   61.2092 H   0  0  0  0  0  0  0  0  0  0  0  0
  129.2173  126.3221   59.6545 H   0  0  0  0  0  0  0  0  0  0  0  0
  127.7708  125.2570   59.6545 H   0  0  0  0  0  0  0  0  0  0  0  0
  1  2  1  0
  2  3  1  0
  3  4  1  0
  4  5  1  0
  5  6  1  0
  6  7  1  0
  7  8  1  0
  8  9  1  0
  9 10  1  0
 10 11  1  0
 11 12  1  0
 12 13  2  0
 12 14  1  0
 14 15  1  0
 15 16  1  0
 16 17  2  0
 17 18  1  0
 18 19  1  0
 18 20  2  0
 20 21  1  0
 21 22  1  0
 21 23  2  0
 23 24  1  0
 24 25  3  0
 23 16  1  0
  1 26  1  0
  1 27  1  0
  1 28  1  0
  3 29  1  0
  3 30  1  0
  4 31  1  0
  4 32  1  0
  6 33  1  0
  6 34  1  0
  7 35  1  0
  7 36  1  0
  9 37  1  0
  9 38  1  0
 10 39  1  0
 10 40  1  0
 11 41  1  0
 14 42  1  0
 14 43  1  0
 19 44  1  0
 19 45  1  0
 19 46  1  0
 20 47  1  0
 22 48  1  0
 22 49  1  0
 22 50  1  0
M  END
>  <Binding energies>  (1) 
[-4.88]

>  <Ligand effiencies>  (1) 
[-0.18769230769230769]

>  <Interactions>  (1) 
["V-A:ASP:366:CG:3212, V-A:ARG:545:CD:4923, V-A:ARG:545:CG:4922, V-A:GLY:453:C:4041, H-A:TYR:484:OH:4347, V-A:GLY:454:CA:4048, V-A:TYR:484:CZ:4346, V-A:ILE:369:CD1:3238, V-A:ARG:545:CZ:4926, H-A:GLY:454:N:4049, H-A:ARG:545:NE:4924, V-A:ILE:369:CG2:3236, V-B:TYR:539:CD2:9846, H-A:SER:385:OG:3409, V-B:TYR:539:CE2:9848, V-A:LEU:475:CD1:4257, H-B:ALA:541:N:9863, H-A:HIS:383:NE2:3393, V-B:PRO:540:CA:9855, V-B:TYR:539:CZ:9849, V-A:SER:385:C:3404, V-A:HIS:456:CE1:4069, V-A:ILE:455:C:4051"]

$$$$
1l_Grossjean_2025
     RDKit          3D

 30 30  0  0  0  0  0  0  0  0999 V2000
  132.9030  125.4950   65.0950 C   0  0  0  0  0  0  0  0  0  0  0  0
  134.0760  125.1590   64.3680 O   0  0  0  0  0  0  0  0  0  0  0  0
  133.7770  125.0400   63.0110 N   0  0  0  0  0  0  0  0  0  0  0  0
  133.6840  123.8120   62.4680 C   0  0  0  0  0  0  0  0  0  0  0  0
  133.6210  122.7730   63.1320 O   0  0  0  0  0  0  0  0  0  0  0  0
  133.6440  123.7790   60.9340 C   0  0  0  0  0  0  0  0  0  0  0  0
  132.0670  123.2050   60.2150 S   0  0  0  0  0  0  0  0  0  0  0  0
  131.9850  121.4310   60.4000 C   0  0  0  0  0  0  0  0  0  0  0  0
  133.1250  120.7540   60.1040 N   0  0  0  0  0  0  0  0  0  0  0  0
  133.1330  119.4050   60.2220 C   0  0  0  0  0  0  0  0  0  0  0  0
  134.4410  118.7210   59.8740 C   0  0  0  0  0  0  0  0  0  0  0  0
  132.0180  118.6800   60.6360 C   0  0  0  0  0  0  0  0  0  0  0  0
  130.8390  119.3660   60.9440 C   0  0  0  0  0  0  0  0  0  0  0  0
  129.6280  118.5510   61.3970 C   0  0  0  0  0  0  0  0  0  0  0  0
  130.8090  120.7740   60.8280 C   0  0  0  0  0  0  0  0  0  0  0  0
  129.5860  121.5190   61.1450 C   0  0  0  0  0  0  0  0  0  0  0  0
  128.6210  122.1050   61.3950 N   0  0  0  0  0  0  0  0  0  0  0  0
  133.1105  125.4356   66.1736 H   0  0  0  0  0  0  0  0  0  0  0  0
  132.5923  126.5182   64.8372 H   0  0  0  0  0  0  0  0  0  0  0  0
  132.0977  124.7914   64.8372 H   0  0  0  0  0  0  0  0  0  0  0  0
  134.0330  125.8670   62.4900 H   0  0  0  0  0  0  0  0  0  0  0  0
  133.8361  124.7976   60.5657 H   0  0  0  0  0  0  0  0  0  0  0  0
  134.4070  123.0505   60.6223 H   0  0  0  0  0  0  0  0  0  0  0  0
  134.9681  118.4453   60.7993 H   0  0  0  0  0  0  0  0  0  0  0  0
  134.2356  117.8149   59.2852 H   0  0  0  0  0  0  0  0  0  0  0  0
  135.0680  119.4067   59.2852 H   0  0  0  0  0  0  0  0  0  0  0  0
  132.0642  117.5841   60.7194 H   0  0  0  0  0  0  0  0  0  0  0  0
  129.5925  118.5271   62.4962 H   0  0  0  0  0  0  0  0  0  0  0  0
  128.7085  119.0148   61.0104 H   0  0  0  0  0  0  0  0  0  0  0  0
  129.7114  117.5245   61.0104 H   0  0  0  0  0  0  0  0  0  0  0  0
  1  2  1  0
  2  3  1  0
  3  4  1  0
  4  5  2  0
  4  6  1  0
  6  7  1  0
  7  8  1  0
  8  9  2  0
  9 10  1  0
 10 11  1  0
 10 12  2  0
 12 13  1  0
 13 14  1  0
 13 15  2  0
 15 16  1  0
 16 17  3  0
 15  8  1  0
  1 18  1  0
  1 19  1  0
  1 20  1  0
  3 21  1  0
  6 22  1  0
  6 23  1  0
 11 24  1  0
 11 25  1  0
 11 26  1  0
 12 27  1  0
 14 28  1  0
 14 29  1  0
 14 30  1  0
M  END
>  <Binding energies>  (1) 
[-6.15]

>  <Ligand effiencies>  (1) 
[-0.3416666666666667]

>  <Interactions>  (1) 
["V-A:ASP:366:CG:3212, H-A:ARG:545:NH2:4928, H-A:ARG:545:NH1:4927, V-A:ARG:545:CZ:4926, H-A:GLY:454:N:4049, H-A:ASP:366:OD2:3214, H-A:ASP:366:OD1:3213, H-A:ARG:545:NE:4924, V-A:ILE:369:CG2:3236, V-B:TYR:539:CD2:9846, V-B:TYR:539:CE2:9848, H-B:ALA:541:N:9863, V-A:PRO:482:CB:4325, V-A:PRO:482:CG:4326, V-B:ALA:541:CB:9864, V-B:TYR:539:C:9839, V-A:SER:385:C:3404, V-A:HIS:383:CD2:3391, V-B:ALA:541:CA:9862, V-A:GLY:453:CA:4043, V-A:SER:385:CA:3406, V-B:PRO:540:C:9853, V-A:SER:385:CB:3408"]

$$$$
1m_Grossjean_2025
     RDKit          3D

 35 35  0  0  0  0  0  0  0  0999 V2000
  130.2260  120.3770   61.3630 C   0  0  0  0  0  0  0  0  0  0  0  0
  131.1750  119.9610   60.3910 O   0  0  0  0  0  0  0  0  0  0  0  0
  132.1310  119.0630   60.7070 C   0  0  0  0  0  0  0  0  0  0  0  0
  131.9980  117.8360   60.6890 O   0  0  0  0  0  0  0  0  0  0  0  0
  133.4530  119.7580   61.0940 C   0  0  0  0  0  0  0  0  0  0  0  0
  133.3570  121.2250   61.0590 N   0  0  0  0  0  0  0  0  0  0  0  0
  134.1460  122.0800   61.7370 C   0  0  0  0  0  0  0  0  0  0  0  0
  135.0470  121.7080   62.4920 O   0  0  0  0  0  0  0  0  0  0  0  0
  133.8490  123.5690   61.5190 C   0  0  0  0  0  0  0  0  0  0  0  0
  134.4100  124.6640   62.8680 S   0  0  0  0  0  0  0  0  0  0  0  0
  132.9850  125.1260   63.8300 C   0  0  0  0  0  0  0  0  0  0  0  0
  131.8610  125.2960   63.0890 N   0  0  0  0  0  0  0  0  0  0  0  0
  130.7130  125.6420   63.7160 C   0  0  0  0  0  0  0  0  0  0  0  0
  129.4950  125.7940   62.8240 C   0  0  0  0  0  0  0  0  0  0  0  0
  130.6390  125.8430   65.0920 C   0  0  0  0  0  0  0  0  0  0  0  0
  131.7970  125.6970   65.8630 C   0  0  0  0  0  0  0  0  0  0  0  0
  131.6960  125.9380   67.3680 C   0  0  0  0  0  0  0  0  0  0  0  0
  133.0090  125.3360   65.2300 C   0  0  0  0  0  0  0  0  0  0  0  0
  134.2430  125.2270   66.0110 C   0  0  0  0  0  0  0  0  0  0  0  0
  135.2170  125.1390   66.6290 N   0  0  0  0  0  0  0  0  0  0  0  0
  130.6309  120.1995   62.3702 H   0  0  0  0  0  0  0  0  0  0  0  0
  130.0167  121.4494   61.2357 H   0  0  0  0  0  0  0  0  0  0  0  0
  129.2956  119.8042   61.2357 H   0  0  0  0  0  0  0  0  0  0  0  0
  133.7279  119.4480   62.1130 H   0  0  0  0  0  0  0  0  0  0  0  0
  134.2129  119.4581   60.3573 H   0  0  0  0  0  0  0  0  0  0  0  0
  132.6230  121.6080   60.4810 H   0  0  0  0  0  0  0  0  0  0  0  0
  134.3475  123.8856   60.5909 H   0  0  0  0  0  0  0  0  0  0  0  0
  132.7540  123.6645   61.4762 H   0  0  0  0  0  0  0  0  0  0  0  0
  128.5957  125.9062   63.4474 H   0  0  0  0  0  0  0  0  0  0  0  0
  129.6144  126.6842   62.1890 H   0  0  0  0  0  0  0  0  0  0  0  0
  129.3919  124.9017   62.1890 H   0  0  0  0  0  0  0  0  0  0  0  0
  129.6836  126.1127   65.5658 H   0  0  0  0  0  0  0  0  0  0  0  0
  132.0667  125.0535   67.9067 H   0  0  0  0  0  0  0  0  0  0  0  0
  132.3026  126.8142   67.6406 H   0  0  0  0  0  0  0  0  0  0  0  0
  130.6459  126.1199   67.6406 H   0  0  0  0  0  0  0  0  0  0  0  0
  1  2  1  0
  2  3  1  0
  3  4  2  0
  3  5  1  0
  5  6  1  0
  6  7  1  0
  7  8  2  0
  7  9  1  0
  9 10  1  0
 10 11  1  0
 11 12  2  0
 12 13  1  0
 13 14  1  0
 13 15  2  0
 15 16  1  0
 16 17  1  0
 16 18  2  0
 18 19  1  0
 19 20  3  0
 18 11  1  0
  1 21  1  0
  1 22  1  0
  1 23  1  0
  5 24  1  0
  5 25  1  0
  6 26  1  0
  9 27  1  0
  9 28  1  0
 14 29  1  0
 14 30  1  0
 14 31  1  0
 15 32  1  0
 17 33  1  0
 17 34  1  0
 17 35  1  0
M  END
>  <Binding energies>  (1) 
[-5.5]

>  <Ligand effiencies>  (1) 
[-0.2619047619047619]

>  <Interactions>  (1) 
["V-A:ARG:545:CD:4923, V-A:ARG:545:CG:4922, V-A:GLY:453:C:4041, H-A:TYR:484:OH:4347, V-A:GLY:454:CA:4048, V-A:TYR:484:CZ:4346, H-A:ARG:545:NH2:4928, V-A:ILE:369:CD1:3238, H-A:ARG:545:NH1:4927, V-A:ARG:545:CZ:4926, H-A:GLY:454:N:4049, H-A:ARG:545:NE:4924, V-A:ILE:369:CG2:3236, V-B:TYR:539:CD2:9846, H-A:SER:385:OG:3409, V-A:LEU:475:CD1:4257, H-A:HIS:383:NE2:3393, V-B:ALA:541:CB:9864, V-A:HIS:456:CE1:4069, V-A:GLY:453:CA:4043, H-A:ILE:455:N:4054"]

$$$$
1n_Grossjean_2025
     RDKit          3D

 48 49  0  0  0  0  0  0  0  0999 V2000
  124.4960  133.6280   61.8250 C   0  0  0  0  0  0  0  0  0  0  0  0
  125.3730  132.4230   62.1800 C   0  0  0  0  0  0  0  0  0  0  0  0
  125.0590  131.9830   63.4960 O   0  0  0  0  0  0  0  0  0  0  0  0
  124.4910  130.7690   63.7130 C   0  0  0  0  0  0  0  0  0  0  0  0
  123.4110  130.4260   63.2240 O   0  0  0  0  0  0  0  0  0  0  0  0
  125.3150  129.8780   64.5990 C   0  0  0  0  0  0  0  0  0  0  0  0
  124.8090  129.3480   65.7960 C   0  0  0  0  0  0  0  0  0  0  0  0
  125.6000  128.5280   66.5950 C   0  0  0  0  0  0  0  0  0  0  0  0
  126.9110  128.2280   66.2230 C   0  0  0  0  0  0  0  0  0  0  0  0
  127.6230  127.3940   67.1070 N   0  0  0  0  0  0  0  0  0  0  0  0
  128.3770  127.7170   68.1800 C   0  0  0  0  0  0  0  0  0  0  0  0
  128.5760  128.8590   68.5940 O   0  0  0  0  0  0  0  0  0  0  0  0
  129.0200  126.5360   68.9180 C   0  0  0  0  0  0  0  0  0  0  0  0
  129.8320  125.6100   67.9880 C   0  0  0  0  0  0  0  0  0  0  0  0
  131.3830  126.3320   67.3720 S   0  0  0  0  0  0  0  0  0  0  0  0
  131.5530  125.8660   65.6630 C   0  0  0  0  0  0  0  0  0  0  0  0
  130.3890  125.9160   64.9680 N   0  0  0  0  0  0  0  0  0  0  0  0
  130.4020  125.5980   63.6520 C   0  0  0  0  0  0  0  0  0  0  0  0
  129.0670  125.6870   62.9380 C   0  0  0  0  0  0  0  0  0  0  0  0
  131.5620  125.2150   62.9830 C   0  0  0  0  0  0  0  0  0  0  0  0
  132.7640  125.1400   63.6950 C   0  0  0  0  0  0  0  0  0  0  0  0
  134.0210  124.7040   62.9440 C   0  0  0  0  0  0  0  0  0  0  0  0
  132.7730  125.4630   65.0720 C   0  0  0  0  0  0  0  0  0  0  0  0
  134.0090  125.3420   65.8480 C   0  0  0  0  0  0  0  0  0  0  0  0
  134.9860  125.2450   66.4600 N   0  0  0  0  0  0  0  0  0  0  0  0
  127.4200  128.7460   65.0230 C   0  0  0  0  0  0  0  0  0  0  0  0
  126.6260  129.5630   64.2230 C   0  0  0  0  0  0  0  0  0  0  0  0
  124.1447  134.1107   62.7489 H   0  0  0  0  0  0  0  0  0  0  0  0
  125.0830  134.3478   61.2356 H   0  0  0  0  0  0  0  0  0  0  0  0
  123.6306  133.2907   61.2356 H   0  0  0  0  0  0  0  0  0  0  0  0
  125.1842  131.6082   61.4655 H   0  0  0  0  0  0  0  0  0  0  0  0
  126.4331  132.7125   62.1319 H   0  0  0  0  0  0  0  0  0  0  0  0
  123.7796  129.5825   66.1048 H   0  0  0  0  0  0  0  0  0  0  0  0
  125.1886  128.1131   67.5270 H   0  0  0  0  0  0  0  0  0  0  0  0
  127.5130  126.4080   66.9220 H   0  0  0  0  0  0  0  0  0  0  0  0
  129.6934  126.9320   69.6924 H   0  0  0  0  0  0  0  0  0  0  0  0
  128.2050  125.9355   69.3483 H   0  0  0  0  0  0  0  0  0  0  0  0
  130.0770  124.6933   68.5445 H   0  0  0  0  0  0  0  0  0  0  0  0
  129.2022  125.4224   67.1059 H   0  0  0  0  0  0  0  0  0  0  0  0
  128.2570  125.7410   63.6803 H   0  0  0  0  0  0  0  0  0  0  0  0
  129.0476  126.5884   62.3079 H   0  0  0  0  0  0  0  0  0  0  0  0
  128.9281  124.7961   62.3079 H   0  0  0  0  0  0  0  0  0  0  0  0
  131.5335  124.9749   61.9099 H   0  0  0  0  0  0  0  0  0  0  0  0
  134.8043  124.4323   63.6669 H   0  0  0  0  0  0  0  0  0  0  0  0
  133.7875  123.8343   62.3122 H   0  0  0  0  0  0  0  0  0  0  0  0
  134.3762  125.5314   62.3122 H   0  0  0  0  0  0  0  0  0  0  0  0
  128.4480  128.5063   64.7136 H   0  0  0  0  0  0  0  0  0  0  0  0
  127.0337  129.9659   63.2841 H   0  0  0  0  0  0  0  0  0  0  0  0
  1  2  1  0
  2  3  1  0
  3  4  1  0
  4  5  2  0
  4  6  1  0
  6  7  2  0
  7  8  1  0
  8  9  2  0
  9 10  1  0
 10 11  1  0
 11 12  2  0
 11 13  1  0
 13 14  1  0
 14 15  1  0
 15 16  1  0
 16 17  2  0
 17 18  1  0
 18 19  1  0
 18 20  2  0
 20 21  1  0
 21 22  1  0
 21 23  2  0
 23 24  1  0
 24 25  3  0
  9 26  1  0
 26 27  2  0
 27  6  1  0
 23 16  1  0
  1 28  1  0
  1 29  1  0
  1 30  1  0
  2 31  1  0
  2 32  1  0
  7 33  1  0
  8 34  1  0
 10 35  1  0
 13 36  1  0
 13 37  1  0
 14 38  1  0
 14 39  1  0
 19 40  1  0
 19 41  1  0
 19 42  1  0
 20 43  1  0
 22 44  1  0
 22 45  1  0
 22 46  1  0
 26 47  1  0
 27 48  1  0
M  END
>  <Binding energies>  (1) 
[-7.52]

>  <Ligand effiencies>  (1) 
[-0.26857142857142857]

>  <Interactions>  (1) 
["V-B:LEU:475:CD1:9229, V-A:GLU:543:CD:4908, V-A:ASP:366:CG:3212, V-A:ARG:545:CD:4923, V-A:ARG:545:CG:4922, V-A:GLY:453:C:4041, H-A:TYR:484:OH:4347, V-A:GLY:454:CA:4048, V-A:TYR:484:CZ:4346, V-A:ARG:545:CZ:4926, H-A:GLY:454:N:4049, H-A:ARG:545:NE:4924, V-B:GLU:543:CD:9880, V-A:TYR:484:CE2:4345, V-A:HIS:456:CE1:4069, V-B:HIS:456:CE1:9041, V-A:GLY:453:CA:4043, V-B:GLU:543:CB:9878, H-B:GLY:454:N:9021, V-B:GLY:454:CA:9020, V-B:ILE:369:CG2:8208, V-B:ILE:369:CD1:8210, H-B:GLU:543:OE2:9882, V-B:ARG:545:CG:9894, V-B:ARG:545:CD:9895, V-B:ARG:545:CZ:9898, H-A:ILE:455:N:4054"]

$$$$
1o_Grossjean_2025
     RDKit          3D

 45 46  0  0  0  0  0  0  0  0999 V2000
  123.7110  130.6880   61.8750 C   0  0  0  0  0  0  0  0  0  0  0  0
  123.7990  130.6240   63.2920 O   0  0  0  0  0  0  0  0  0  0  0  0
  124.8860  131.1070   63.9470 C   0  0  0  0  0  0  0  0  0  0  0  0
  125.2810  132.2730   63.8420 O   0  0  0  0  0  0  0  0  0  0  0  0
  125.5600  130.0840   64.8150 C   0  0  0  0  0  0  0  0  0  0  0  0
  126.9260  129.7890   64.6920 C   0  0  0  0  0  0  0  0  0  0  0  0
  127.5210  128.8370   65.5150 C   0  0  0  0  0  0  0  0  0  0  0  0
  126.7660  128.1570   66.4720 C   0  0  0  0  0  0  0  0  0  0  0  0
  127.4690  127.2220   67.2560 N   0  0  0  0  0  0  0  0  0  0  0  0
  128.3360  127.4230   68.2730 C   0  0  0  0  0  0  0  0  0  0  0  0
  128.6400  128.5210   68.7390 O   0  0  0  0  0  0  0  0  0  0  0  0
  128.9440  126.1520   68.8840 C   0  0  0  0  0  0  0  0  0  0  0  0
  129.7850  125.3350   67.8840 C   0  0  0  0  0  0  0  0  0  0  0  0
  131.2960  126.1790   67.3290 S   0  0  0  0  0  0  0  0  0  0  0  0
  131.5490  125.8090   65.6050 C   0  0  0  0  0  0  0  0  0  0  0  0
  130.4150  125.8860   64.8640 N   0  0  0  0  0  0  0  0  0  0  0  0
  130.4850  125.6340   63.5360 C   0  0  0  0  0  0  0  0  0  0  0  0
  129.1800  125.7540   62.7720 C   0  0  0  0  0  0  0  0  0  0  0  0
  131.6740  125.2840   62.9000 C   0  0  0  0  0  0  0  0  0  0  0  0
  132.8450  125.1760   63.6580 C   0  0  0  0  0  0  0  0  0  0  0  0
  134.1330  124.7770   62.9400 C   0  0  0  0  0  0  0  0  0  0  0  0
  132.7950  125.4310   65.0480 C   0  0  0  0  0  0  0  0  0  0  0  0
  133.9970  125.2650   65.8680 C   0  0  0  0  0  0  0  0  0  0  0  0
  134.9480  125.1340   66.5130 N   0  0  0  0  0  0  0  0  0  0  0  0
  125.4000  128.4510   66.6040 C   0  0  0  0  0  0  0  0  0  0  0  0
  124.8070  129.4040   65.7810 C   0  0  0  0  0  0  0  0  0  0  0  0
  122.8520  131.3127   61.5888 H   0  0  0  0  0  0  0  0  0  0  0  0
  124.6347  131.1268   61.4697 H   0  0  0  0  0  0  0  0  0  0  0  0
  123.5782  129.6741   61.4697 H   0  0  0  0  0  0  0  0  0  0  0  0
  127.5319  130.3143   63.9390 H   0  0  0  0  0  0  0  0  0  0  0  0
  128.5941  128.6190   65.4104 H   0  0  0  0  0  0  0  0  0  0  0  0
  127.2690  126.2590   67.0280 H   0  0  0  0  0  0  0  0  0  0  0  0
  129.5892  126.4438   69.7257 H   0  0  0  0  0  0  0  0  0  0  0  0
  128.1077  125.5129   69.2037 H   0  0  0  0  0  0  0  0  0  0  0  0
  130.0738  124.3893   68.3660 H   0  0  0  0  0  0  0  0  0  0  0  0
  129.1597  125.1812   66.9922 H   0  0  0  0  0  0  0  0  0  0  0  0
  128.3444  125.8308   63.4833 H   0  0  0  0  0  0  0  0  0  0  0  0
  129.2069  126.6535   62.1394 H   0  0  0  0  0  0  0  0  0  0  0  0
  129.0424  124.8647   62.1394 H   0  0  0  0  0  0  0  0  0  0  0  0
  131.6919  125.0951   61.8165 H   0  0  0  0  0  0  0  0  0  0  0  0
  134.9078  124.5370   63.6831 H   0  0  0  0  0  0  0  0  0  0  0  0
  133.9436  123.8954   62.3100 H   0  0  0  0  0  0  0  0  0  0  0  0
  134.4751  125.6113   62.3100 H   0  0  0  0  0  0  0  0  0  0  0  0
  124.7966  127.9269   67.3598 H   0  0  0  0  0  0  0  0  0  0  0  0
  123.7351  129.6257   65.8903 H   0  0  0  0  0  0  0  0  0  0  0  0
  1  2  1  0
  2  3  1  0
  3  4  2  0
  3  5  1  0
  5  6  2  0
  6  7  1  0
  7  8  2  0
  8  9  1  0
  9 10  1  0
 10 11  2  0
 10 12  1  0
 12 13  1  0
 13 14  1  0
 14 15  1  0
 15 16  2  0
 16 17  1  0
 17 18  1  0
 17 19  2  0
 19 20  1  0
 20 21  1  0
 20 22  2  0
 22 23  1  0
 23 24  3  0
  8 25  1  0
 25 26  2  0
 26  5  1  0
 22 15  1  0
  1 27  1  0
  1 28  1  0
  1 29  1  0
  6 30  1  0
  7 31  1  0
  9 32  1  0
 12 33  1  0
 12 34  1  0
 13 35  1  0
 13 36  1  0
 18 37  1  0
 18 38  1  0
 18 39  1  0
 19 40  1  0
 21 41  1  0
 21 42  1  0
 21 43  1  0
 25 44  1  0
 26 45  1  0
M  END
>  <Binding energies>  (1) 
[-7.47]

>  <Ligand effiencies>  (1) 
[-0.27666666666666667]

>  <Interactions>  (1) 
["V-A:GLU:543:CD:4908, V-A:ASP:366:CG:3212, V-A:ARG:545:CD:4923, V-A:ARG:545:CG:4922, V-A:GLY:453:C:4041, H-A:TYR:484:OH:4347, V-A:GLY:454:CA:4048, V-A:TYR:484:CZ:4346, V-A:ARG:545:CZ:4926, H-A:GLY:454:N:4049, H-A:ARG:545:NE:4924, V-B:GLU:543:CD:9880, V-A:TYR:484:CE2:4345, V-A:HIS:456:CE1:4069, V-B:HIS:456:CE1:9041, V-A:GLY:453:CA:4043, V-B:GLU:543:CB:9878, H-B:GLY:454:N:9021, V-B:GLY:454:CA:9020, V-B:ILE:369:CD1:8210, V-B:ASP:366:CG:8184, H-B:GLU:543:OE2:9882, V-B:ARG:545:CG:9894, V-B:ARG:545:CD:9895, V-B:ARG:545:CZ:9898, H-A:ILE:455:N:4054"]

$$$$
1p_Grossjean_2025
     RDKit          3D

 35 36  0  0  0  0  0  0  0  0999 V2000
  129.2260  125.6890   62.5070 C   0  0  0  0  0  0  0  0  0  0  0  0
  130.4770  125.5790   63.3590 C   0  0  0  0  0  0  0  0  0  0  0  0
  131.7110  125.2480   62.8010 C   0  0  0  0  0  0  0  0  0  0  0  0
  132.8290  125.1460   63.6360 C   0  0  0  0  0  0  0  0  0  0  0  0
  134.1680  124.7680   63.0060 C   0  0  0  0  0  0  0  0  0  0  0  0
  132.6820  125.3900   65.0210 C   0  0  0  0  0  0  0  0  0  0  0  0
  133.8250  125.2440   65.9220 C   0  0  0  0  0  0  0  0  0  0  0  0
  134.7310  125.1280   66.6340 N   0  0  0  0  0  0  0  0  0  0  0  0
  131.3960  125.7430   65.4960 C   0  0  0  0  0  0  0  0  0  0  0  0
  131.0390  126.0920   67.2030 S   0  0  0  0  0  0  0  0  0  0  0  0
  129.2740  126.5100   67.2960 C   0  0  0  0  0  0  0  0  0  0  0  0
  128.9840  127.8130   68.0660 C   0  0  0  0  0  0  0  0  0  0  0  0
  127.9910  128.7410   67.3490 C   0  0  0  0  0  0  0  0  0  0  0  0
  128.1170  129.9620   67.4540 O   0  0  0  0  0  0  0  0  0  0  0  0
  127.0320  128.1220   66.6240 N   0  0  0  0  0  0  0  0  0  0  0  0
  126.0200  128.7210   65.8850 C   0  0  0  0  0  0  0  0  0  0  0  0
  126.1600  129.0640   64.5400 C   0  0  0  0  0  0  0  0  0  0  0  0
  124.9530  129.6220   64.1850 C   0  0  0  0  0  0  0  0  0  0  0  0
  124.1300  129.6180   65.2600 O   0  0  0  0  0  0  0  0  0  0  0  0
  124.8180  129.0450   66.3320 N   0  0  0  0  0  0  0  0  0  0  0  0
  130.3130  125.8180   64.6810 N   0  0  0  0  0  0  0  0  0  0  0  0
  128.3437  125.7666   63.1594 H   0  0  0  0  0  0  0  0  0  0  0  0
  129.2924  126.5848   61.8720 H   0  0  0  0  0  0  0  0  0  0  0  0
  129.1351  124.7954   61.8720 H   0  0  0  0  0  0  0  0  0  0  0  0
  131.8043  125.0696   61.7196 H   0  0  0  0  0  0  0  0  0  0  0  0
  134.9011  124.5610   63.7995 H   0  0  0  0  0  0  0  0  0  0  0  0
  134.0396  123.8710   62.3824 H   0  0  0  0  0  0  0  0  0  0  0  0
  134.5276  125.5997   62.3824 H   0  0  0  0  0  0  0  0  0  0  0  0
  128.8889  126.6194   66.2714 H   0  0  0  0  0  0  0  0  0  0  0  0
  128.7801  125.6956   67.8462 H   0  0  0  0  0  0  0  0  0  0  0  0
  128.5673  127.5507   69.0497 H   0  0  0  0  0  0  0  0  0  0  0  0
  129.9355  128.3589   68.1479 H   0  0  0  0  0  0  0  0  0  0  0  0
  127.0350  127.1130   66.6180 H   0  0  0  0  0  0  0  0  0  0  0  0
  127.0439  128.9197   63.9013 H   0  0  0  0  0  0  0  0  0  0  0  0
  124.6978  130.0092   63.1875 H   0  0  0  0  0  0  0  0  0  0  0  0
  1  2  1  0
  2  3  2  0
  3  4  1  0
  4  5  1  0
  4  6  2  0
  6  7  1  0
  7  8  3  0
  6  9  1  0
  9 10  1  0
 10 11  1  0
 11 12  1  0
 12 13  1  0
 13 14  2  0
 13 15  1  0
 15 16  1  0
 16 17  1  0
 17 18  2  0
 18 19  1  0
 19 20  1  0
  9 21  2  0
 21  2  1  0
 20 16  2  0
  1 22  1  0
  1 23  1  0
  1 24  1  0
  3 25  1  0
  5 26  1  0
  5 27  1  0
  5 28  1  0
 11 29  1  0
 11 30  1  0
 12 31  1  0
 12 32  1  0
 15 33  1  0
 17 34  1  0
 18 35  1  0
M  END
>  <Binding energies>  (1) 
[-6.87]

>  <Ligand effiencies>  (1) 
[-0.31227272727272726]

>  <Interactions>  (1) 
["V-A:ASP:366:CG:3212, V-A:ARG:545:CD:4923, V-A:ARG:545:CG:4922, V-A:GLY:453:C:4041, H-A:TYR:484:OH:4347, V-A:GLY:454:CA:4048, V-A:ARG:545:CZ:4926, H-A:GLY:454:N:4049, H-A:ARG:545:NE:4924, V-B:HIS:456:CE1:9041, V-A:GLY:453:CA:4043, V-A:GLU:543:CB:4906, V-B:GLU:543:CB:9878, H-B:TYR:484:OH:9319, H-B:ARG:545:NH2:9900, H-B:GLY:454:N:9021, H-B:ARG:545:NH1:9899, H-B:GLU:543:OE2:9882, H-B:ARG:545:NE:9896, V-B:ARG:545:CZ:9898, H-A:ILE:455:N:4054"]

$$$$
1q_Grossjean_2025
     RDKit          3D

 38 38  0  0  0  0  0  0  0  0999 V2000
  132.1760  126.5960   66.9640 C   0  0  0  0  0  0  0  0  0  0  0  0
  132.0990  125.4900   66.0770 O   0  0  0  0  0  0  0  0  0  0  0  0
  132.9840  125.3620   65.0570 C   0  0  0  0  0  0  0  0  0  0  0  0
  134.1870  125.1260   65.1790 O   0  0  0  0  0  0  0  0  0  0  0  0
  132.3660  125.5710   63.6590 C   0  0  0  0  0  0  0  0  0  0  0  0
  133.2230  125.0740   62.5720 N   0  0  0  0  0  0  0  0  0  0  0  0
  133.7100  123.8240   62.4600 C   0  0  0  0  0  0  0  0  0  0  0  0
  133.4800  122.9350   63.2820 O   0  0  0  0  0  0  0  0  0  0  0  0
  134.5740  123.5480   61.2210 C   0  0  0  0  0  0  0  0  0  0  0  0
  133.8090  123.6250   59.8850 C   0  0  0  0  0  0  0  0  0  0  0  0
  132.0500  123.1880   60.0270 S   0  0  0  0  0  0  0  0  0  0  0  0
  131.9240  121.4430   60.3600 C   0  0  0  0  0  0  0  0  0  0  0  0
  133.0830  120.7690   60.1470 N   0  0  0  0  0  0  0  0  0  0  0  0
  133.1110  119.4330   60.3640 C   0  0  0  0  0  0  0  0  0  0  0  0
  134.4360  118.7480   60.0890 C   0  0  0  0  0  0  0  0  0  0  0  0
  131.9990  118.7210   60.8080 C   0  0  0  0  0  0  0  0  0  0  0  0
  130.8070  119.4090   61.0550 C   0  0  0  0  0  0  0  0  0  0  0  0
  129.6060  118.6070   61.5590 C   0  0  0  0  0  0  0  0  0  0  0  0
  130.7540  120.8040   60.8380 C   0  0  0  0  0  0  0  0  0  0  0  0
  129.5310  121.5490   61.1460 C   0  0  0  0  0  0  0  0  0  0  0  0
  128.5630  122.1340   61.3900 N   0  0  0  0  0  0  0  0  0  0  0  0
  132.1509  126.2353   68.0029 H   0  0  0  0  0  0  0  0  0  0  0  0
  133.1144  127.1424   66.7882 H   0  0  0  0  0  0  0  0  0  0  0  0
  131.3224  127.2672   66.7882 H   0  0  0  0  0  0  0  0  0  0  0  0
  131.4039  125.0393   63.6179 H   0  0  0  0  0  0  0  0  0  0  0  0
  132.2430  126.6542   63.5121 H   0  0  0  0  0  0  0  0  0  0  0  0
  133.4800  125.7510   61.8670 H   0  0  0  0  0  0  0  0  0  0  0  0
  135.3869  124.2886   61.1958 H   0  0  0  0  0  0  0  0  0  0  0  0
  134.9400  122.5150   61.3156 H   0  0  0  0  0  0  0  0  0  0  0  0
  133.8819  124.6533   59.5013 H   0  0  0  0  0  0  0  0  0  0  0  0
  134.2697  122.8917   59.2068 H   0  0  0  0  0  0  0  0  0  0  0  0
  134.9233  118.4961   61.0424 H   0  0  0  0  0  0  0  0  0  0  0  0
  134.2603  117.8277   59.5126 H   0  0  0  0  0  0  0  0  0  0  0  0
  135.0853  119.4234   59.5126 H   0  0  0  0  0  0  0  0  0  0  0  0
  132.0578  117.6334   60.9620 H   0  0  0  0  0  0  0  0  0  0  0  0
  129.6023  118.6045   62.6590 H   0  0  0  0  0  0  0  0  0  0  0  0
  128.6772  119.0668   61.1902 H   0  0  0  0  0  0  0  0  0  0  0  0
  129.6748  117.5729   61.1902 H   0  0  0  0  0  0  0  0  0  0  0  0
  1  2  1  0
  2  3  1  0
  3  4  2  0
  3  5  1  0
  5  6  1  0
  6  7  1  0
  7  8  2  0
  7  9  1  0
  9 10  1  0
 10 11  1  0
 11 12  1  0
 12 13  2  0
 13 14  1  0
 14 15  1  0
 14 16  2  0
 16 17  1  0
 17 18  1  0
 17 19  2  0
 19 20  1  0
 20 21  3  0
 19 12  1  0
  1 22  1  0
  1 23  1  0
  1 24  1  0
  5 25  1  0
  5 26  1  0
  6 27  1  0
  9 28  1  0
  9 29  1  0
 10 30  1  0
 10 31  1  0
 15 32  1  0
 15 33  1  0
 15 34  1  0
 16 35  1  0
 18 36  1  0
 18 37  1  0
 18 38  1  0
M  END
>  <Binding energies>  (1) 
[-6.03]

>  <Ligand effiencies>  (1) 
[-0.2740909090909091]

>  <Interactions>  (1) 
["V-A:GLU:543:CD:4908, V-A:ASP:366:CG:3212, V-A:ARG:545:CD:4923, V-A:ARG:545:CG:4922, H-A:TYR:484:OH:4347, V-A:ASP:366:CA:3209, V-A:ASP:366:CB:3211, H-A:ARG:545:NH2:4928, V-A:ILE:369:CD1:3238, H-A:ARG:545:NH1:4927, V-A:ARG:545:CZ:4926, H-A:GLY:454:N:4049, V-A:ILE:369:CB:3235, H-A:ASP:366:OD2:3214, H-A:ASP:366:OD1:3213, H-A:ARG:545:NE:4924, V-A:ILE:369:CG2:3236, V-B:TYR:539:CD2:9846, V-B:TYR:539:CE2:9848, V-A:LEU:475:CD1:4257, H-B:ALA:541:N:9863, V-A:PRO:482:CB:4325, V-A:PRO:482:CG:4326, V-B:ALA:541:CB:9864, V-B:TYR:539:C:9839, V-A:SER:385:C:3404, V-A:HIS:383:CD2:3391, V-A:HIS:456:CE1:4069, V-B:ALA:541:CA:9862, V-A:SER:385:CA:3406, V-B:PRO:540:C:9853, V-A:SER:385:CB:3408"]

$$$$
2a_Ghoteimi_2023
     RDKit          3D

 85 90  0  0  0  0  0  0  0  0999 V2000
  134.6840  123.8860   62.0420 C   0  0  0  0  0  0  0  0  0  0  0  0
  134.1770  122.9540   60.9370 C   0  0  0  0  0  0  0  0  0  0  0  0
  134.3590  123.5770   59.6730 O   0  0  0  0  0  0  0  0  0  0  0  0
  133.3570  123.6150   58.7580 C   0  0  0  0  0  0  0  0  0  0  0  0
  133.4300  123.0800   57.6470 O   0  0  0  0  0  0  0  0  0  0  0  0
  132.1470  124.3670   59.2340 C   0  0  0  0  0  0  0  0  0  0  0  0
  132.2090  125.2720   60.3040 C   0  0  0  0  0  0  0  0  0  0  0  0
  131.0700  125.9530   60.7200 C   0  0  0  0  0  0  0  0  0  0  0  0
  129.8480  125.7500   60.0760 C   0  0  0  0  0  0  0  0  0  0  0  0
  128.7600  126.4880   60.5820 N   0  0  0  0  0  0  0  0  0  0  0  0
  127.4330  126.2650   60.4620 C   0  0  0  0  0  0  0  0  0  0  0  0
  126.9240  125.3510   59.8130 O   0  0  0  0  0  0  0  0  0  0  0  0
  126.5340  127.2820   61.1770 C   0  0  0  0  0  0  0  0  0  0  0  0
  127.4130  128.3840   62.3320 S   0  0  0  0  0  0  0  0  0  0  0  0
  128.1650  127.3140   63.5370 C   0  0  0  0  0  0  0  0  0  0  0  0
  128.6690  126.1710   63.0160 N   0  0  0  0  0  0  0  0  0  0  0  0
  129.2600  125.2680   63.8380 C   0  0  0  0  0  0  0  0  0  0  0  0
  129.7850  124.0250   63.1940 C   0  0  0  0  0  0  0  0  0  0  0  0
  129.0330  123.3290   62.2400 C   0  0  0  0  0  0  0  0  0  0  0  0
  129.5220  122.1660   61.6530 C   0  0  0  0  0  0  0  0  0  0  0  0
  130.7840  121.6580   61.9910 C   0  0  0  0  0  0  0  0  0  0  0  0
  131.2500  120.4710   61.4150 N   0  0  0  0  0  0  0  0  0  0  0  0
  130.5000  119.2050   61.5470 C   0  0  0  0  0  0  0  0  0  0  0  0
  130.9570  118.1060   60.5650 C   0  0  0  0  0  0  0  0  0  0  0  0
  132.3520  117.8860   60.6950 O   0  0  0  0  0  0  0  0  0  0  0  0
  133.0910  119.0610   60.4030 C   0  0  0  0  0  0  0  0  0  0  0  0
  132.7010  120.1910   61.3790 C   0  0  0  0  0  0  0  0  0  0  0  0
  131.5290  122.3530   62.9580 C   0  0  0  0  0  0  0  0  0  0  0  0
  131.0410  123.5170   63.5430 C   0  0  0  0  0  0  0  0  0  0  0  0
  129.3710  125.5040   65.2110 C   0  0  0  0  0  0  0  0  0  0  0  0
  128.8560  126.6800   65.7720 C   0  0  0  0  0  0  0  0  0  0  0  0
  129.0030  126.8660   67.2480 C   0  0  0  0  0  0  0  0  0  0  0  0
  129.4060  128.1000   67.7650 C   0  0  0  0  0  0  0  0  0  0  0  0
  129.5640  128.2760   69.1360 C   0  0  0  0  0  0  0  0  0  0  0  0
  129.3210  127.2250   70.0330 C   0  0  0  0  0  0  0  0  0  0  0  0
  129.4920  127.3760   71.4120 N   0  0  0  0  0  0  0  0  0  0  0  0
  128.8300  126.4290   72.3310 C   0  0  0  0  0  0  0  0  0  0  0  0
  129.4060  126.4650   73.7630 C   0  0  0  0  0  0  0  0  0  0  0  0
  129.3490  127.7880   74.2750 O   0  0  0  0  0  0  0  0  0  0  0  0
  130.0980  128.6920   73.4790 C   0  0  0  0  0  0  0  0  0  0  0  0
  129.5450  128.7110   72.0390 C   0  0  0  0  0  0  0  0  0  0  0  0
  128.9280  125.9870   69.5050 C   0  0  0  0  0  0  0  0  0  0  0  0
  128.7710  125.8090   68.1330 C   0  0  0  0  0  0  0  0  0  0  0  0
  128.2380  127.6220   64.9140 C   0  0  0  0  0  0  0  0  0  0  0  0
  127.7310  128.8950   65.4340 C   0  0  0  0  0  0  0  0  0  0  0  0
  127.3300  129.9000   65.8480 N   0  0  0  0  0  0  0  0  0  0  0  0
  129.7760  124.8400   59.0110 C   0  0  0  0  0  0  0  0  0  0  0  0
  130.9180  124.1600   58.5950 C   0  0  0  0  0  0  0  0  0  0  0  0
  134.4479  123.4519   63.0248 H   0  0  0  0  0  0  0  0  0  0  0  0
  135.7731  124.0085   61.9473 H   0  0  0  0  0  0  0  0  0  0  0  0
  134.1951  124.8668   61.9473 H   0  0  0  0  0  0  0  0  0  0  0  0
  134.7413  122.0102   60.9655 H   0  0  0  0  0  0  0  0  0  0  0  0
  133.1082  122.7463   61.0935 H   0  0  0  0  0  0  0  0  0  0  0  0
  133.1661  125.4444   60.8181 H   0  0  0  0  0  0  0  0  0  0  0  0
  131.1324  126.6570   61.5629 H   0  0  0  0  0  0  0  0  0  0  0  0
  129.0260  127.3190   61.0870 H   0  0  0  0  0  0  0  0  0  0  0  0
  126.0439  127.9042   60.4137 H   0  0  0  0  0  0  0  0  0  0  0  0
  125.8206  126.7007   61.7797 H   0  0  0  0  0  0  0  0  0  0  0  0
  128.0414  123.7069   61.9503 H   0  0  0  0  0  0  0  0  0  0  0  0
  128.9074  121.6359   60.9106 H   0  0  0  0  0  0  0  0  0  0  0  0
  130.6304  118.8298   62.5728 H   0  0  0  0  0  0  0  0  0  0  0  0
  129.4491  119.4288   61.3114 H   0  0  0  0  0  0  0  0  0  0  0  0
  130.4191  117.1726   60.7875 H   0  0  0  0  0  0  0  0  0  0  0  0
  130.7375  118.4282   59.5364 H   0  0  0  0  0  0  0  0  0  0  0  0
  134.1657  118.8489   60.5032 H   0  0  0  0  0  0  0  0  0  0  0  0
  132.8661  119.3807   59.3748 H   0  0  0  0  0  0  0  0  0  0  0  0
  133.0243  119.9033   62.3903 H   0  0  0  0  0  0  0  0  0  0  0  0
  133.1963  121.1070   61.0245 H   0  0  0  0  0  0  0  0  0  0  0  0
  132.5156  121.9701   63.2580 H   0  0  0  0  0  0  0  0  0  0  0  0
  131.6511  124.0453   64.2904 H   0  0  0  0  0  0  0  0  0  0  0  0
  129.8657  124.7620   65.8550 H   0  0  0  0  0  0  0  0  0  0  0  0
  129.6001  128.9400   67.0818 H   0  0  0  0  0  0  0  0  0  0  0  0
  129.8845  129.2546   69.5228 H   0  0  0  0  0  0  0  0  0  0  0  0
  127.7598  126.6788   72.3786 H   0  0  0  0  0  0  0  0  0  0  0  0
  129.0018  125.4169   71.9357 H   0  0  0  0  0  0  0  0  0  0  0  0
  128.8168  125.7982   74.4097 H   0  0  0  0  0  0  0  0  0  0  0  0
  130.4538  126.1311   73.7398 H   0  0  0  0  0  0  0  0  0  0  0  0
  130.0268  129.7016   73.9098 H   0  0  0  0  0  0  0  0  0  0  0  0
  131.1491  128.3684   73.4576 H   0  0  0  0  0  0  0  0  0  0  0  0
  128.5264  129.1255   72.0625 H   0  0  0  0  0  0  0  0  0  0  0  0
  130.2309  129.3248   71.4367 H   0  0  0  0  0  0  0  0  0  0  0  0
  128.7408  125.1431   70.1853 H   0  0  0  0  0  0  0  0  0  0  0  0
  128.4618  124.8284   67.7422 H   0  0  0  0  0  0  0  0  0  0  0  0
  128.8161  124.6632   58.5036 H   0  0  0  0  0  0  0  0  0  0  0  0
  130.8540  123.4524   57.7552 H   0  0  0  0  0  0  0  0  0  0  0  0
  1  2  1  0
  2  3  1  0
  3  4  1  0
  4  5  2  0
  4  6  1  0
  6  7  2  0
  7  8  1  0
  8  9  2  0
  9 10  1  0
 10 11  1  0
 11 12  2  0
 11 13  1  0
 13 14  1  0
 14 15  1  0
 15 16  2  0
 16 17  1  0
 17 18  1  0
 18 19  2  0
 19 20  1  0
 20 21  2  0
 21 22  1  0
 22 23  1  0
 23 24  1  0
 24 25  1  0
 25 26  1  0
 26 27  1  0
 21 28  1  0
 28 29  2  0
 17 30  2  0
 30 31  1  0
 31 32  1  0
 32 33  2  0
 33 34  1  0
 34 35  2  0
 35 36  1  0
 36 37  1  0
 37 38  1  0
 38 39  1  0
 39 40  1  0
 40 41  1  0
 35 42  1  0
 42 43  2  0
 31 44  2  0
 44 45  1  0
 45 46  3  0
  9 47  1  0
 47 48  2  0
 48  6  1  0
 44 15  1  0
 29 18  1  0
 43 32  1  0
 27 22  1  0
 41 36  1  0
  1 49  1  0
  1 50  1  0
  1 51  1  0
  2 52  1  0
  2 53  1  0
  7 54  1  0
  8 55  1  0
 10 56  1  0
 13 57  1  0
 13 58  1  0
 19 59  1  0
 20 60  1  0
 23 61  1  0
 23 62  1  0
 24 63  1  0
 24 64  1  0
 26 65  1  0
 26 66  1  0
 27 67  1  0
 27 68  1  0
 28 69  1  0
 29 70  1  0
 30 71  1  0
 33 72  1  0
 34 73  1  0
 37 74  1  0
 37 75  1  0
 38 76  1  0
 38 77  1  0
 40 78  1  0
 40 79  1  0
 41 80  1  0
 41 81  1  0
 42 82  1  0
 43 83  1  0
 47 84  1  0
 48 85  1  0
M  END
>  <Binding energies>  (1) 
[-8.23]

>  <Ligand effiencies>  (1) 
[-0.1679591836734694]

>  <Interactions>  (1) 
["V-A:GLU:543:CD:4908, V-A:ASP:366:CG:3212, V-A:GLY:453:C:4041, V-A:ASP:366:CA:3209, V-A:ASP:366:CB:3211, V-A:ILE:369:CD1:3238, V-A:ILE:369:CB:3235, V-A:ILE:369:CG2:3236, V-B:TYR:539:CD2:9846, H-A:SER:385:OG:3409, V-B:TYR:539:CE2:9848, V-A:LEU:475:CD1:4257, H-A:HIS:383:NE2:3393, V-A:PRO:482:CG:4326, V-B:GLU:543:CG:9879, V-B:TYR:539:CZ:9849, V-B:ALA:541:CB:9864, V-B:GLU:543:CD:9880, V-A:HIS:456:CE1:4069, V-A:GLU:543:CG:4907, V-B:GLU:543:CA:9876, V-B:HIS:456:CE1:9041, V-A:GLY:453:CA:4043, V-A:GLU:543:CB:4906, V-B:GLU:543:C:9874, V-B:GLU:543:CB:9878, H-B:TYR:484:OH:9319, V-B:ASP:366:CG:8184, V-A:GLU:543:C:4902, V-B:HIS:456:CD2:9039, H-B:TYR:539:OH:9850, H-A:LYS:547:NZ:4951, V-A:LYS:547:CE:4950, H-A:ASN:370:N:3243"]

$$$$
2a_Grossjean_2025
     RDKit          3D

 45 46  0  0  0  0  0  0  0  0999 V2000
  127.4930  127.7850   67.3000 C   0  0  0  0  0  0  0  0  0  0  0  0
  128.7590  128.5090   67.7680 C   0  0  0  0  0  0  0  0  0  0  0  0
  129.4770  127.6680   68.6640 O   0  0  0  0  0  0  0  0  0  0  0  0
  129.5020  126.3210   68.4920 C   0  0  0  0  0  0  0  0  0  0  0  0
  128.9940  125.5240   69.2870 O   0  0  0  0  0  0  0  0  0  0  0  0
  130.1920  125.8990   67.2260 C   0  0  0  0  0  0  0  0  0  0  0  0
  131.5180  126.2610   66.9480 C   0  0  0  0  0  0  0  0  0  0  0  0
  132.1270  125.8550   65.7650 C   0  0  0  0  0  0  0  0  0  0  0  0
  131.4260  125.0870   64.8340 C   0  0  0  0  0  0  0  0  0  0  0  0
  132.1360  124.7460   63.6680 N   0  0  0  0  0  0  0  0  0  0  0  0
  133.4640  124.7650   63.4240 C   0  0  0  0  0  0  0  0  0  0  0  0
  134.3320  125.1290   64.2170 O   0  0  0  0  0  0  0  0  0  0  0  0
  133.8850  124.2890   62.0290 C   0  0  0  0  0  0  0  0  0  0  0  0
  134.1510  122.4870   61.9310 S   0  0  0  0  0  0  0  0  0  0  0  0
  132.5750  121.6510   61.7920 C   0  0  0  0  0  0  0  0  0  0  0  0
  131.4890  122.3750   62.1650 N   0  0  0  0  0  0  0  0  0  0  0  0
  130.2660  121.8020   62.0980 C   0  0  0  0  0  0  0  0  0  0  0  0
  129.1060  122.6650   62.5580 C   0  0  0  0  0  0  0  0  0  0  0  0
  130.0720  120.4980   61.6520 C   0  0  0  0  0  0  0  0  0  0  0  0
  131.1790  119.7330   61.2530 C   0  0  0  0  0  0  0  0  0  0  0  0
  130.9460  118.2920   60.7610 C   0  0  0  0  0  0  0  0  0  0  0  0
  131.6250  117.4340   61.5220 F   0  0  0  0  0  0  0  0  0  0  0  0
  129.6480  117.9940   60.8230 F   0  0  0  0  0  0  0  0  0  0  0  0
  131.3410  118.1090   59.4980 F   0  0  0  0  0  0  0  0  0  0  0  0
  132.4680  120.3210   61.3220 C   0  0  0  0  0  0  0  0  0  0  0  0
  133.6590  119.5670   60.9200 C   0  0  0  0  0  0  0  0  0  0  0  0
  134.6000  118.9710   60.6030 N   0  0  0  0  0  0  0  0  0  0  0  0
  130.1020  124.7150   65.1090 C   0  0  0  0  0  0  0  0  0  0  0  0
  129.4950  125.1180   66.2950 C   0  0  0  0  0  0  0  0  0  0  0  0
  126.9149  127.4544   68.1755 H   0  0  0  0  0  0  0  0  0  0  0  0
  126.8816  128.4700   66.6942 H   0  0  0  0  0  0  0  0  0  0  0  0
  127.7733  126.9107   66.6942 H   0  0  0  0  0  0  0  0  0  0  0  0
  129.3906  128.7441   66.8986 H   0  0  0  0  0  0  0  0  0  0  0  0
  128.4821  129.4423   68.2801 H   0  0  0  0  0  0  0  0  0  0  0  0
  132.0806  126.8704   67.6706 H   0  0  0  0  0  0  0  0  0  0  0  0
  133.1694  126.1415   65.5617 H   0  0  0  0  0  0  0  0  0  0  0  0
  131.5560  124.3930   62.9220 H   0  0  0  0  0  0  0  0  0  0  0  0
  133.0966  124.5649   61.3133 H   0  0  0  0  0  0  0  0  0  0  0  0
  134.8448  124.7731   61.7956 H   0  0  0  0  0  0  0  0  0  0  0  0
  129.0779  122.6859   63.6574 H   0  0  0  0  0  0  0  0  0  0  0  0
  129.2356  123.6880   62.1750 H   0  0  0  0  0  0  0  0  0  0  0  0
  128.1634  122.2468   62.1750 H   0  0  0  0  0  0  0  0  0  0  0  0
  129.0593  120.0704   61.6125 H   0  0  0  0  0  0  0  0  0  0  0  0
  129.5422  124.1036   64.3860 H   0  0  0  0  0  0  0  0  0  0  0  0
  128.4569  124.8200   66.5035 H   0  0  0  0  0  0  0  0  0  0  0  0
  1  2  1  0
  2  3  1  0
  3  4  1  0
  4  5  2  0
  4  6  1  0
  6  7  2  0
  7  8  1  0
  8  9  2  0
  9 10  1  0
 10 11  1  0
 11 12  2  0
 11 13  1  0
 13 14  1  0
 14 15  1  0
 15 16  2  0
 16 17  1  0
 17 18  1  0
 17 19  2  0
 19 20  1  0
 20 21  1  0
 21 22  1  0
 21 23  1  0
 21 24  1  0
 20 25  2  0
 25 26  1  0
 26 27  3  0
  9 28  1  0
 28 29  2  0
 29  6  1  0
 25 15  1  0
  1 30  1  0
  1 31  1  0
  1 32  1  0
  2 33  1  0
  2 34  1  0
  7 35  1  0
  8 36  1  0
 10 37  1  0
 13 38  1  0
 13 39  1  0
 18 40  1  0
 18 41  1  0
 18 42  1  0
 19 43  1  0
 28 44  1  0
 29 45  1  0
M  END
>  <Binding energies>  (1) 
[-7.23]

>  <Ligand effiencies>  (1) 
[-0.24100000000000002]

>  <Interactions>  (1) 
["V-A:GLU:543:CD:4908, V-A:ASP:366:CG:3212, H-A:ARG:545:NH2:4928, H-A:ARG:545:NH1:4927, V-A:ARG:545:CZ:4926, H-A:GLY:454:N:4049, H-A:ARG:545:NE:4924, V-A:ILE:369:CG2:3236, V-B:TYR:539:CD2:9846, H-A:SER:385:OG:3409, V-A:LEU:475:CD1:4257, V-A:HIS:383:CE1:3392, V-A:PRO:482:CB:4325, V-A:PRO:482:CG:4326, V-B:TYR:539:CG:9844, V-B:GLU:543:CG:9879, V-B:ALA:541:CB:9864, V-B:GLU:543:CD:9880, V-B:TYR:539:C:9839, V-A:SER:385:C:3404, V-A:TYR:484:CE2:4345, V-A:HIS:456:CE1:4069, V-B:ALA:541:CA:9862, V-A:GLU:543:CG:4907, V-B:HIS:456:CE1:9041, V-A:GLU:543:CB:4906, V-B:GLU:543:CB:9878, V-A:SER:385:CA:3406, V-B:PRO:540:C:9853, V-B:TYR:539:CB:9843, V-A:PRO:482:CD:4327"]

$$$$
2aa_Ghoteimi_2023
     RDKit          3D

 85 90  0  0  0  0  0  0  0  0999 V2000
  127.2930  135.9800   61.4010 C   0  0  0  0  0  0  0  0  0  0  0  0
  126.3760  136.4810   60.2800 C   0  0  0  0  0  0  0  0  0  0  0  0
  125.5320  135.4200   59.8530 O   0  0  0  0  0  0  0  0  0  0  0  0
  124.5080  134.9810   60.6310 C   0  0  0  0  0  0  0  0  0  0  0  0
  123.3830  135.4920   60.6270 O   0  0  0  0  0  0  0  0  0  0  0  0
  124.8760  133.8020   61.4860 C   0  0  0  0  0  0  0  0  0  0  0  0
  124.0450  133.3500   62.5220 C   0  0  0  0  0  0  0  0  0  0  0  0
  124.4110  132.2520   63.2940 C   0  0  0  0  0  0  0  0  0  0  0  0
  125.6160  131.5900   63.0540 C   0  0  0  0  0  0  0  0  0  0  0  0
  125.8860  130.4900   63.8930 N   0  0  0  0  0  0  0  0  0  0  0  0
  125.0440  129.7450   64.6400 C   0  0  0  0  0  0  0  0  0  0  0  0
  123.8220  129.8970   64.6940 O   0  0  0  0  0  0  0  0  0  0  0  0
  125.7210  128.6260   65.4420 C   0  0  0  0  0  0  0  0  0  0  0  0
  127.1280  128.8790   65.5270 O   0  0  0  0  0  0  0  0  0  0  0  0
  127.9770  127.9230   66.0690 C   0  0  0  0  0  0  0  0  0  0  0  0
  128.1500  127.9130   67.4200 N   0  0  0  0  0  0  0  0  0  0  0  0
  128.9700  126.9890   67.9820 C   0  0  0  0  0  0  0  0  0  0  0  0
  129.1160  127.0420   69.4700 C   0  0  0  0  0  0  0  0  0  0  0  0
  128.6540  125.9920   70.2710 C   0  0  0  0  0  0  0  0  0  0  0  0
  128.7930  126.0320   71.6560 C   0  0  0  0  0  0  0  0  0  0  0  0
  129.4130  127.1200   72.2910 C   0  0  0  0  0  0  0  0  0  0  0  0
  129.5490  127.1830   73.6830 N   0  0  0  0  0  0  0  0  0  0  0  0
  130.8340  126.8760   74.3450 C   0  0  0  0  0  0  0  0  0  0  0  0
  130.7110  126.6490   75.8660 C   0  0  0  0  0  0  0  0  0  0  0  0
  130.0810  127.7640   76.4750 O   0  0  0  0  0  0  0  0  0  0  0  0
  128.7740  127.9670   75.9600 C   0  0  0  0  0  0  0  0  0  0  0  0
  128.8390  128.2330   74.4410 C   0  0  0  0  0  0  0  0  0  0  0  0
  129.8540  128.1800   71.4860 C   0  0  0  0  0  0  0  0  0  0  0  0
  129.7120  128.1400   70.1020 C   0  0  0  0  0  0  0  0  0  0  0  0
  129.6530  126.0560   67.1970 C   0  0  0  0  0  0  0  0  0  0  0  0
  129.5010  126.0520   65.8050 C   0  0  0  0  0  0  0  0  0  0  0  0
  130.2770  125.0470   65.0160 C   0  0  0  0  0  0  0  0  0  0  0  0
  129.7540  123.7720   64.7890 C   0  0  0  0  0  0  0  0  0  0  0  0
  130.4800  122.8250   64.0730 C   0  0  0  0  0  0  0  0  0  0  0  0
  131.7580  123.1210   63.5740 C   0  0  0  0  0  0  0  0  0  0  0  0
  132.5030  122.1870   62.8490 N   0  0  0  0  0  0  0  0  0  0  0  0
  133.9050  122.4490   62.4720 C   0  0  0  0  0  0  0  0  0  0  0  0
  134.6610  121.1880   62.0000 C   0  0  0  0  0  0  0  0  0  0  0  0
  133.9560  120.5720   60.9320 O   0  0  0  0  0  0  0  0  0  0  0  0
  132.6500  120.1810   61.3260 C   0  0  0  0  0  0  0  0  0  0  0  0
  131.8420  121.4140   61.7780 C   0  0  0  0  0  0  0  0  0  0  0  0
  132.2710  124.4060   63.8010 C   0  0  0  0  0  0  0  0  0  0  0  0
  131.5450  125.3530   64.5160 C   0  0  0  0  0  0  0  0  0  0  0  0
  128.6270  127.0030   65.2280 C   0  0  0  0  0  0  0  0  0  0  0  0
  128.3680  127.0410   63.7860 C   0  0  0  0  0  0  0  0  0  0  0  0
  128.1640  127.0700   62.6480 N   0  0  0  0  0  0  0  0  0  0  0  0
  126.4490  132.0310   62.0160 C   0  0  0  0  0  0  0  0  0  0  0  0
  126.0790  133.1270   61.2430 C   0  0  0  0  0  0  0  0  0  0  0  0
  126.8467  136.2239   62.3764 H   0  0  0  0  0  0  0  0  0  0  0  0
  127.4147  134.8901   61.3156 H   0  0  0  0  0  0  0  0  0  0  0  0
  128.2759  136.4664   61.3156 H   0  0  0  0  0  0  0  0  0  0  0  0
  125.7603  137.3126   60.6532 H   0  0  0  0  0  0  0  0  0  0  0  0
  126.9859  136.8297   59.4336 H   0  0  0  0  0  0  0  0  0  0  0  0
  123.0962  133.8680   62.7256 H   0  0  0  0  0  0  0  0  0  0  0  0
  123.7466  131.9035   64.0984 H   0  0  0  0  0  0  0  0  0  0  0  0
  126.8540  130.2030   63.8960 H   0  0  0  0  0  0  0  0  0  0  0  0
  125.2935  128.5915   66.4549 H   0  0  0  0  0  0  0  0  0  0  0  0
  125.5530  127.6627   64.9382 H   0  0  0  0  0  0  0  0  0  0  0  0
  128.1738  125.1218   69.7996 H   0  0  0  0  0  0  0  0  0  0  0  0
  128.4108  125.1976   72.2624 H   0  0  0  0  0  0  0  0  0  0  0  0
  131.2494  125.9644   73.8906 H   0  0  0  0  0  0  0  0  0  0  0  0
  131.4853  127.7510   74.2028 H   0  0  0  0  0  0  0  0  0  0  0  0
  130.1113  125.7458   76.0519 H   0  0  0  0  0  0  0  0  0  0  0  0
  131.7166  126.5249   76.2943 H   0  0  0  0  0  0  0  0  0  0  0  0
  128.1657  127.0697   76.1467 H   0  0  0  0  0  0  0  0  0  0  0  0
  128.3209  128.8362   76.4591 H   0  0  0  0  0  0  0  0  0  0  0  0
  127.8107  128.3033   74.0567 H   0  0  0  0  0  0  0  0  0  0  0  0
  129.4042  129.1665   74.3026 H   0  0  0  0  0  0  0  0  0  0  0  0
  130.3202  129.0583   71.9564 H   0  0  0  0  0  0  0  0  0  0  0  0
  130.0734  128.9836   69.4957 H   0  0  0  0  0  0  0  0  0  0  0  0
  130.3148  125.3195   67.6761 H   0  0  0  0  0  0  0  0  0  0  0  0
  128.7587  123.5139   65.1799 H   0  0  0  0  0  0  0  0  0  0  0  0
  130.0459  121.8300   63.8955 H   0  0  0  0  0  0  0  0  0  0  0  0
  133.9143  123.1865   61.6560 H   0  0  0  0  0  0  0  0  0  0  0  0
  134.4191  122.8169   63.3722 H   0  0  0  0  0  0  0  0  0  0  0  0
  135.6665  121.4729   61.6567 H   0  0  0  0  0  0  0  0  0  0  0  0
  134.7404  120.4792   62.8374 H   0  0  0  0  0  0  0  0  0  0  0  0
  132.1408  119.7040   60.4756 H   0  0  0  0  0  0  0  0  0  0  0  0
  132.7236  119.4717   62.1636 H   0  0  0  0  0  0  0  0  0  0  0  0
  131.6975  122.0738   60.9098 H   0  0  0  0  0  0  0  0  0  0  0  0
  130.8879  121.0466   62.1837 H   0  0  0  0  0  0  0  0  0  0  0  0
  133.2637  124.6696   63.4073 H   0  0  0  0  0  0  0  0  0  0  0  0
  131.9731  126.3514   64.6892 H   0  0  0  0  0  0  0  0  0  0  0  0
  127.3961  131.5099   61.8126 H   0  0  0  0  0  0  0  0  0  0  0  0
  126.7390  133.4674   60.4315 H   0  0  0  0  0  0  0  0  0  0  0  0
  1  2  1  0
  2  3  1  0
  3  4  1  0
  4  5  2  0
  4  6  1  0
  6  7  2  0
  7  8  1  0
  8  9  2  0
  9 10  1  0
 10 11  1  0
 11 12  2  0
 11 13  1  0
 13 14  1  0
 14 15  1  0
 15 16  2  0
 16 17  1  0
 17 18  1  0
 18 19  2  0
 19 20  1  0
 20 21  2  0
 21 22  1  0
 22 23  1  0
 23 24  1  0
 24 25  1  0
 25 26  1  0
 26 27  1  0
 21 28  1  0
 28 29  2  0
 17 30  2  0
 30 31  1  0
 31 32  1  0
 32 33  2  0
 33 34  1  0
 34 35  2  0
 35 36  1  0
 36 37  1  0
 37 38  1  0
 38 39  1  0
 39 40  1  0
 40 41  1  0
 35 42  1  0
 42 43  2  0
 31 44  2  0
 44 45  1  0
 45 46  3  0
  9 47  1  0
 47 48  2  0
 48  6  1  0
 44 15  1  0
 29 18  1  0
 43 32  1  0
 27 22  1  0
 41 36  1  0
  1 49  1  0
  1 50  1  0
  1 51  1  0
  2 52  1  0
  2 53  1  0
  7 54  1  0
  8 55  1  0
 10 56  1  0
 13 57  1  0
 13 58  1  0
 19 59  1  0
 20 60  1  0
 23 61  1  0
 23 62  1  0
 24 63  1  0
 24 64  1  0
 26 65  1  0
 26 66  1  0
 27 67  1  0
 27 68  1  0
 28 69  1  0
 29 70  1  0
 30 71  1  0
 33 72  1  0
 34 73  1  0
 37 74  1  0
 37 75  1  0
 38 76  1  0
 38 77  1  0
 40 78  1  0
 40 79  1  0
 41 80  1  0
 41 81  1  0
 42 82  1  0
 43 83  1  0
 47 84  1  0
 48 85  1  0
M  END
>  <Binding energies>  (1) 
[-9.66]

>  <Ligand effiencies>  (1) 
[-0.19714285714285715]

>  <Interactions>  (1) 
["V-A:ALA:541:CB:4892, V-A:TYR:539:CD1:4873, V-B:LEU:475:CD1:9229, V-A:GLU:543:CD:4908, V-A:GLY:454:CA:4048, V-A:ILE:369:CD1:3238, V-A:ILE:369:CG2:3236, V-A:LEU:475:CD1:4257, V-B:GLU:543:CG:9879, V-B:ALA:541:CB:9864, V-B:GLU:543:CD:9880, V-A:SER:385:C:3404, V-A:HIS:456:CE1:4069, V-B:HIS:456:CE1:9041, V-B:GLU:543:C:9874, V-B:GLU:543:CB:9878, H-B:TYR:484:OH:9319, H-B:ARG:545:NH2:9900, H-B:GLY:454:N:9021, V-B:PRO:482:CB:9297, V-A:TYR:539:CB:4871, V-B:GLY:454:CA:9020, V-B:ILE:369:CG2:8208, V-B:ILE:369:CD1:8210, H-B:ARG:545:NH1:9899, V-B:PRO:482:CG:9298, V-B:SER:385:CB:8380, V-A:GLU:543:C:4902, V-B:ARG:545:CZ:9898, V-B:HIS:456:CD2:9039, V-A:TYR:539:CG:4872, H-A:LYS:547:NZ:4951, H-B:SER:385:OG:8381"]

$$$$
2b_Ghoteimi_2023
     RDKit          3D

 72 77  0  0  0  0  0  0  0  0999 V2000
  127.7840  129.3520   67.7600 N   0  0  0  0  0  0  0  0  0  0  0  0
  128.1140  128.4730   67.0830 C   0  0  0  0  0  0  0  0  0  0  0  0
  128.5300  127.3650   66.2190 C   0  0  0  0  0  0  0  0  0  0  0  0
  128.4070  127.4630   64.8110 C   0  0  0  0  0  0  0  0  0  0  0  0
  127.8630  128.6620   64.1070 C   0  0  0  0  0  0  0  0  0  0  0  0
  126.5780  129.1260   64.3960 C   0  0  0  0  0  0  0  0  0  0  0  0
  126.0660  130.2430   63.7410 C   0  0  0  0  0  0  0  0  0  0  0  0
  126.8190  130.9160   62.7670 C   0  0  0  0  0  0  0  0  0  0  0  0
  126.3320  132.0460   62.1070 N   0  0  0  0  0  0  0  0  0  0  0  0
  127.1760  132.7040   61.0900 C   0  0  0  0  0  0  0  0  0  0  0  0
  126.6960  134.1240   60.7230 C   0  0  0  0  0  0  0  0  0  0  0  0
  125.3360  134.0910   60.3150 O   0  0  0  0  0  0  0  0  0  0  0  0
  124.4930  133.5930   61.3420 C   0  0  0  0  0  0  0  0  0  0  0  0
  124.9120  132.1570   61.7160 C   0  0  0  0  0  0  0  0  0  0  0  0
  128.1060  130.4410   62.4810 C   0  0  0  0  0  0  0  0  0  0  0  0
  128.6200  129.3270   63.1380 C   0  0  0  0  0  0  0  0  0  0  0  0
  128.8230  126.3800   64.0270 C   0  0  0  0  0  0  0  0  0  0  0  0
  129.3760  125.2450   64.6260 C   0  0  0  0  0  0  0  0  0  0  0  0
  129.8630  124.0740   63.8330 C   0  0  0  0  0  0  0  0  0  0  0  0
  131.1720  123.6030   63.9850 C   0  0  0  0  0  0  0  0  0  0  0  0
  131.6270  122.5040   63.2630 C   0  0  0  0  0  0  0  0  0  0  0  0
  130.7940  121.8410   62.3480 C   0  0  0  0  0  0  0  0  0  0  0  0
  131.2270  120.7160   61.6370 N   0  0  0  0  0  0  0  0  0  0  0  0
  132.6700  120.5080   61.3980 C   0  0  0  0  0  0  0  0  0  0  0  0
  132.9710  119.4720   60.2930 C   0  0  0  0  0  0  0  0  0  0  0  0
  132.3210  118.2450   60.5880 O   0  0  0  0  0  0  0  0  0  0  0  0
  130.9140  118.4060   60.6570 C   0  0  0  0  0  0  0  0  0  0  0  0
  130.5500  119.4110   61.7700 C   0  0  0  0  0  0  0  0  0  0  0  0
  129.4810  122.3110   62.2040 C   0  0  0  0  0  0  0  0  0  0  0  0
  129.0260  123.4090   62.9290 C   0  0  0  0  0  0  0  0  0  0  0  0
  129.4950  125.1530   65.9750 N   0  0  0  0  0  0  0  0  0  0  0  0
  129.0680  126.1730   66.7560 C   0  0  0  0  0  0  0  0  0  0  0  0
  129.2950  125.8820   68.4970 S   0  0  0  0  0  0  0  0  0  0  0  0
  129.7110  127.4730   69.2700 C   0  0  0  0  0  0  0  0  0  0  0  0
  129.3730  127.4940   70.7620 C   0  0  0  0  0  0  0  0  0  0  0  0
  129.1580  126.4300   71.3470 O   0  0  0  0  0  0  0  0  0  0  0  0
  129.3310  128.7170   71.3320 N   0  0  0  0  0  0  0  0  0  0  0  0
  129.0620  129.0190   72.6590 C   0  0  0  0  0  0  0  0  0  0  0  0
  128.3650  128.1600   73.5080 C   0  0  0  0  0  0  0  0  0  0  0  0
  128.3100  128.8170   74.7150 C   0  0  0  0  0  0  0  0  0  0  0  0
  128.9410  130.0090   74.6000 O   0  0  0  0  0  0  0  0  0  0  0  0
  129.4160  130.1260   73.2910 N   0  0  0  0  0  0  0  0  0  0  0  0
  125.9656  128.6051   65.1468 H   0  0  0  0  0  0  0  0  0  0  0  0
  125.0570  130.6029   63.9907 H   0  0  0  0  0  0  0  0  0  0  0  0
  128.2025  132.7724   61.4795 H   0  0  0  0  0  0  0  0  0  0  0  0
  127.1188  132.0948   60.1759 H   0  0  0  0  0  0  0  0  0  0  0  0
  126.7965  134.7798   61.6004 H   0  0  0  0  0  0  0  0  0  0  0  0
  127.3102  134.5082   59.8953 H   0  0  0  0  0  0  0  0  0  0  0  0
  124.5767  134.2396   62.2279 H   0  0  0  0  0  0  0  0  0  0  0  0
  123.4529  133.5847   60.9840 H   0  0  0  0  0  0  0  0  0  0  0  0
  124.2904  131.8202   62.5587 H   0  0  0  0  0  0  0  0  0  0  0  0
  124.7706  131.5328   60.8213 H   0  0  0  0  0  0  0  0  0  0  0  0
  128.7187  130.9560   61.7264 H   0  0  0  0  0  0  0  0  0  0  0  0
  129.6301  128.9669   62.8928 H   0  0  0  0  0  0  0  0  0  0  0  0
  128.7139  126.4229   62.9333 H   0  0  0  0  0  0  0  0  0  0  0  0
  131.8517  124.1094   64.6861 H   0  0  0  0  0  0  0  0  0  0  0  0
  132.6573  122.1485   63.4118 H   0  0  0  0  0  0  0  0  0  0  0  0
  133.1159  121.4696   61.1038 H   0  0  0  0  0  0  0  0  0  0  0  0
  133.0984  120.1164   62.3324 H   0  0  0  0  0  0  0  0  0  0  0  0
  132.6080  119.8536   59.3273 H   0  0  0  0  0  0  0  0  0  0  0  0
  134.0567  119.3026   60.2429 H   0  0  0  0  0  0  0  0  0  0  0  0
  130.5429  118.7815   59.6920 H   0  0  0  0  0  0  0  0  0  0  0  0
  130.4508  117.4343   60.8833 H   0  0  0  0  0  0  0  0  0  0  0  0
  129.4633  119.5795   61.7437 H   0  0  0  0  0  0  0  0  0  0  0  0
  130.8842  118.9714   62.7214 H   0  0  0  0  0  0  0  0  0  0  0  0
  128.7986  121.8035   61.5062 H   0  0  0  0  0  0  0  0  0  0  0  0
  127.9927  123.7595   62.7894 H   0  0  0  0  0  0  0  0  0  0  0  0
  130.7889  127.6555   69.1479 H   0  0  0  0  0  0  0  0  0  0  0  0
  129.1153  128.2552   68.7768 H   0  0  0  0  0  0  0  0  0  0  0  0
  129.5420  129.5100   70.7430 H   0  0  0  0  0  0  0  0  0  0  0  0
  127.9492  127.1710   73.2650 H   0  0  0  0  0  0  0  0  0  0  0  0
  127.8299  128.4349   75.6280 H   0  0  0  0  0  0  0  0  0  0  0  0
  1  2  3  0
  2  3  1  0
  3  4  2  0
  4  5  1  0
  5  6  2  0
  6  7  1  0
  7  8  2  0
  8  9  1  0
  9 10  1  0
 10 11  1  0
 11 12  1  0
 12 13  1  0
 13 14  1  0
  8 15  1  0
 15 16  2  0
  4 17  1  0
 17 18  2  0
 18 19  1  0
 19 20  2  0
 20 21  1  0
 21 22  2  0
 22 23  1  0
 23 24  1  0
 24 25  1  0
 25 26  1  0
 26 27  1  0
 27 28  1  0
 22 29  1  0
 29 30  2  0
 18 31  1  0
 31 32  2  0
 32 33  1  0
 33 34  1  0
 34 35  1  0
 35 36  2  0
 35 37  1  0
 37 38  1  0
 38 39  1  0
 39 40  2  0
 40 41  1  0
 41 42  1  0
 32  3  1  0
 42 38  2  0
 16  5  1  0
 30 19  1  0
 14  9  1  0
 28 23  1  0
  6 43  1  0
  7 44  1  0
 10 45  1  0
 10 46  1  0
 11 47  1  0
 11 48  1  0
 13 49  1  0
 13 50  1  0
 14 51  1  0
 14 52  1  0
 15 53  1  0
 16 54  1  0
 17 55  1  0
 20 56  1  0
 21 57  1  0
 24 58  1  0
 24 59  1  0
 25 60  1  0
 25 61  1  0
 27 62  1  0
 27 63  1  0
 28 64  1  0
 28 65  1  0
 29 66  1  0
 30 67  1  0
 34 68  1  0
 34 69  1  0
 37 70  1  0
 39 71  1  0
 40 72  1  0
M  END
>  <Binding energies>  (1) 
[-9.81]

>  <Ligand effiencies>  (1) 
[-0.22813953488372093]

>  <Interactions>  (1) 
["V-A:TYR:539:CE1:4875, V-A:TYR:539:CD1:4873, V-B:LEU:475:CD1:9229, V-A:GLU:543:CD:4908, H-A:TYR:484:OH:4347, V-A:ILE:369:CG2:3236, V-B:TYR:539:CD2:9846, H-A:SER:385:OG:3409, V-A:LEU:475:CD1:4257, H-A:HIS:383:NE2:3393, V-A:PRO:482:CG:4326, V-B:GLU:543:CG:9879, V-B:ALA:541:CB:9864, V-B:GLU:543:CD:9880, V-A:HIS:456:CE1:4069, V-B:HIS:456:CE1:9041, V-B:GLU:543:CB:9878, H-B:TYR:484:OH:9319, V-B:ILE:369:CG2:8208, V-B:ILE:369:CD1:8210, V-A:GLU:543:C:4902, V-B:HIS:456:CD2:9039, H-A:GLU:543:O:4903, H-B:HIS:456:NE2:9042, H-A:LYS:547:NZ:4951"]

$$$$
2b_Grossjean_2025
     RDKit          3D

 42 43  0  0  0  0  0  0  0  0999 V2000
  128.6340  128.2350   67.3670 C   0  0  0  0  0  0  0  0  0  0  0  0
  128.2900  127.1030   68.1530 O   0  0  0  0  0  0  0  0  0  0  0  0
  129.1750  126.0920   68.3490 C   0  0  0  0  0  0  0  0  0  0  0  0
  129.3340  125.5280   69.4360 O   0  0  0  0  0  0  0  0  0  0  0  0
  129.9450  125.7310   67.1110 C   0  0  0  0  0  0  0  0  0  0  0  0
  129.3850  124.9470   66.0920 C   0  0  0  0  0  0  0  0  0  0  0  0
  130.1270  124.6280   64.9580 C   0  0  0  0  0  0  0  0  0  0  0  0
  131.4350  125.0890   64.8150 C   0  0  0  0  0  0  0  0  0  0  0  0
  132.0950  124.7030   63.6330 N   0  0  0  0  0  0  0  0  0  0  0  0
  133.4110  124.7330   63.3310 C   0  0  0  0  0  0  0  0  0  0  0  0
  134.3030  125.1500   64.0720 O   0  0  0  0  0  0  0  0  0  0  0  0
  133.7730  124.2120   61.9370 C   0  0  0  0  0  0  0  0  0  0  0  0
  133.9770  122.4010   61.8790 S   0  0  0  0  0  0  0  0  0  0  0  0
  132.3780  121.6110   61.7480 C   0  0  0  0  0  0  0  0  0  0  0  0
  131.3130  122.3740   62.1020 N   0  0  0  0  0  0  0  0  0  0  0  0
  130.0740  121.8400   62.0330 C   0  0  0  0  0  0  0  0  0  0  0  0
  128.9400  122.7530   62.4580 C   0  0  0  0  0  0  0  0  0  0  0  0
  129.8410  120.5360   61.6040 C   0  0  0  0  0  0  0  0  0  0  0  0
  130.9260  119.7310   61.2260 C   0  0  0  0  0  0  0  0  0  0  0  0
  130.6510  118.2930   60.7480 C   0  0  0  0  0  0  0  0  0  0  0  0
  129.3620  117.9940   60.9190 F   0  0  0  0  0  0  0  0  0  0  0  0
  130.9550  118.1720   59.4550 F   0  0  0  0  0  0  0  0  0  0  0  0
  131.3650  117.3820   61.4140 F   0  0  0  0  0  0  0  0  0  0  0  0
  132.2330  120.2770   61.2990 C   0  0  0  0  0  0  0  0  0  0  0  0
  133.4040  119.4790   60.9220 C   0  0  0  0  0  0  0  0  0  0  0  0
  134.3280  118.8490   60.6240 N   0  0  0  0  0  0  0  0  0  0  0  0
  132.0050  125.8670   65.8330 C   0  0  0  0  0  0  0  0  0  0  0  0
  131.2630  126.1840   66.9670 C   0  0  0  0  0  0  0  0  0  0  0  0
  128.8897  129.0763   68.0279 H   0  0  0  0  0  0  0  0  0  0  0  0
  129.4987  127.9915   66.7322 H   0  0  0  0  0  0  0  0  0  0  0  0
  127.7800  128.5138   66.7322 H   0  0  0  0  0  0  0  0  0  0  0  0
  128.3521  124.5815   66.1894 H   0  0  0  0  0  0  0  0  0  0  0  0
  129.6778  124.0074   64.1687 H   0  0  0  0  0  0  0  0  0  0  0  0
  131.4780  124.4050   62.8930 H   0  0  0  0  0  0  0  0  0  0  0  0
  132.9723  124.4964   61.2385 H   0  0  0  0  0  0  0  0  0  0  0  0
  134.7394  124.6593   61.6611 H   0  0  0  0  0  0  0  0  0  0  0  0
  128.8922  122.7915   63.5563 H   0  0  0  0  0  0  0  0  0  0  0  0
  129.1159  123.7644   62.0630 H   0  0  0  0  0  0  0  0  0  0  0  0
  127.9894  122.3653   62.0630 H   0  0  0  0  0  0  0  0  0  0  0  0
  128.8154  120.1406   61.5619 H   0  0  0  0  0  0  0  0  0  0  0  0
  133.0398  126.2271   65.7351 H   0  0  0  0  0  0  0  0  0  0  0  0
  131.7166  126.7974   67.7595 H   0  0  0  0  0  0  0  0  0  0  0  0
  1  2  1  0
  2  3  1  0
  3  4  2  0
  3  5  1  0
  5  6  2  0
  6  7  1  0
  7  8  2  0
  8  9  1  0
  9 10  1  0
 10 11  2  0
 10 12  1  0
 12 13  1  0
 13 14  1  0
 14 15  2  0
 15 16  1  0
 16 17  1  0
 16 18  2  0
 18 19  1  0
 19 20  1  0
 20 21  1  0
 20 22  1  0
 20 23  1  0
 19 24  2  0
 24 25  1  0
 25 26  3  0
  8 27  1  0
 27 28  2  0
 28  5  1  0
 24 14  1  0
  1 29  1  0
  1 30  1  0
  1 31  1  0
  6 32  1  0
  7 33  1  0
  9 34  1  0
 12 35  1  0
 12 36  1  0
 17 37  1  0
 17 38  1  0
 17 39  1  0
 18 40  1  0
 27 41  1  0
 28 42  1  0
M  END
>  <Binding energies>  (1) 
[-6.87]

>  <Ligand effiencies>  (1) 
[-0.23689655172413793]

>  <Interactions>  (1) 
["V-A:GLU:543:CD:4908, V-A:ASP:366:CG:3212, H-A:ARG:545:NH2:4928, H-A:ARG:545:NH1:4927, V-A:ARG:545:CZ:4926, H-A:GLY:454:N:4049, H-A:ARG:545:NE:4924, V-A:ILE:369:CG2:3236, V-B:TYR:539:CD2:9846, H-A:SER:385:OG:3409, V-B:TYR:539:CE2:9848, V-A:LEU:475:CD1:4257, V-A:HIS:383:CE1:3392, V-A:PRO:482:CB:4325, H-A:HIS:383:NE2:3393, V-A:PRO:482:CG:4326, V-B:TYR:539:CG:9844, V-B:GLU:543:CG:9879, V-B:ALA:541:CB:9864, V-B:PRO:540:N:9856, V-B:GLU:543:CD:9880, V-B:TYR:539:C:9839, V-A:TYR:484:CE2:4345, V-A:HIS:456:CE1:4069, V-B:ALA:541:CA:9862, V-A:GLU:543:CG:4907, V-B:HIS:456:CE1:9041, V-A:GLU:543:CB:4906, V-B:GLU:543:CB:9878, V-A:SER:385:CA:3406, V-B:PRO:540:C:9853, V-B:TYR:539:CB:9843, V-A:PRO:482:CD:4327"]

$$$$
2c_Ghoteimi_2023
     RDKit          3D

 72 77  0  0  0  0  0  0  0  0999 V2000
  128.8370  126.2740   60.1230 N   0  0  0  0  0  0  0  0  0  0  0  0
  128.8700  126.3330   61.2780 C   0  0  0  0  0  0  0  0  0  0  0  0
  128.9160  126.4040   62.7420 C   0  0  0  0  0  0  0  0  0  0  0  0
  129.4660  125.3390   63.4980 C   0  0  0  0  0  0  0  0  0  0  0  0
  130.0250  124.0920   62.8950 C   0  0  0  0  0  0  0  0  0  0  0  0
  131.4050  123.8780   62.8770 C   0  0  0  0  0  0  0  0  0  0  0  0
  131.9340  122.7170   62.3210 C   0  0  0  0  0  0  0  0  0  0  0  0
  131.0990  121.7420   61.7540 C   0  0  0  0  0  0  0  0  0  0  0  0
  131.6060  120.5600   61.2080 N   0  0  0  0  0  0  0  0  0  0  0  0
  133.0660  120.3370   61.2000 C   0  0  0  0  0  0  0  0  0  0  0  0
  133.5040  119.2090   60.2430 C   0  0  0  0  0  0  0  0  0  0  0  0
  132.8110  118.0100   60.5540 O   0  0  0  0  0  0  0  0  0  0  0  0
  131.4060  118.1690   60.4280 C   0  0  0  0  0  0  0  0  0  0  0  0
  130.9120  119.2710   61.3890 C   0  0  0  0  0  0  0  0  0  0  0  0
  129.7150  121.9680   61.7730 C   0  0  0  0  0  0  0  0  0  0  0  0
  129.1860  123.1280   62.3310 C   0  0  0  0  0  0  0  0  0  0  0  0
  129.4900  125.4550   64.8940 C   0  0  0  0  0  0  0  0  0  0  0  0
  129.0050  126.6100   65.5170 C   0  0  0  0  0  0  0  0  0  0  0  0
  129.0240  126.7900   67.0010 C   0  0  0  0  0  0  0  0  0  0  0  0
  129.0360  128.0690   67.5650 C   0  0  0  0  0  0  0  0  0  0  0  0
  129.0480  128.2430   68.9470 C   0  0  0  0  0  0  0  0  0  0  0  0
  129.0610  127.1420   69.8170 C   0  0  0  0  0  0  0  0  0  0  0  0
  129.0480  127.2990   71.2070 N   0  0  0  0  0  0  0  0  0  0  0  0
  128.6770  126.1610   72.0730 C   0  0  0  0  0  0  0  0  0  0  0  0
  128.3330  126.5710   73.5200 C   0  0  0  0  0  0  0  0  0  0  0  0
  129.4060  127.3050   74.0850 O   0  0  0  0  0  0  0  0  0  0  0  0
  129.6680  128.4910   73.3520 C   0  0  0  0  0  0  0  0  0  0  0  0
  130.0470  128.1410   71.8970 C   0  0  0  0  0  0  0  0  0  0  0  0
  129.0370  125.8610   69.2470 C   0  0  0  0  0  0  0  0  0  0  0  0
  129.0230  125.6880   67.8650 C   0  0  0  0  0  0  0  0  0  0  0  0
  128.4810  127.6290   64.7900 N   0  0  0  0  0  0  0  0  0  0  0  0
  128.4180  127.5270   63.4410 C   0  0  0  0  0  0  0  0  0  0  0  0
  127.6930  128.9460   62.6520 S   0  0  0  0  0  0  0  0  0  0  0  0
  128.6480  130.4050   63.1700 C   0  0  0  0  0  0  0  0  0  0  0  0
  129.5410  130.9340   62.0470 C   0  0  0  0  0  0  0  0  0  0  0  0
  129.2590  132.0040   61.5040 O   0  0  0  0  0  0  0  0  0  0  0  0
  130.5980  130.1570   61.7270 N   0  0  0  0  0  0  0  0  0  0  0  0
  131.5600  130.4200   60.7640 C   0  0  0  0  0  0  0  0  0  0  0  0
  131.4100  130.4440   59.4570 N   0  0  0  0  0  0  0  0  0  0  0  0
  132.5390  130.7360   58.8440 C   0  0  0  0  0  0  0  0  0  0  0  0
  133.6440  130.9580   59.6620 C   0  0  0  0  0  0  0  0  0  0  0  0
  133.1640  130.7700   61.3220 S   0  0  0  0  0  0  0  0  0  0  0  0
  132.0796  124.6336   63.3060 H   0  0  0  0  0  0  0  0  0  0  0  0
  133.0229  122.5613   62.3261 H   0  0  0  0  0  0  0  0  0  0  0  0
  133.5603  121.2696   60.8903 H   0  0  0  0  0  0  0  0  0  0  0  0
  133.3556  120.0334   62.2168 H   0  0  0  0  0  0  0  0  0  0  0  0
  133.2776  119.5021   59.2072 H   0  0  0  0  0  0  0  0  0  0  0  0
  134.5851  119.0401   60.3560 H   0  0  0  0  0  0  0  0  0  0  0  0
  131.1626  118.4519   59.3932 H   0  0  0  0  0  0  0  0  0  0  0  0
  130.9107  117.2200   60.6812 H   0  0  0  0  0  0  0  0  0  0  0  0
  129.8367  119.4268   61.2176 H   0  0  0  0  0  0  0  0  0  0  0  0
  131.1244  118.9286   62.4125 H   0  0  0  0  0  0  0  0  0  0  0  0
  129.0375  121.2171   61.3404 H   0  0  0  0  0  0  0  0  0  0  0  0
  128.0976  123.2872   62.3279 H   0  0  0  0  0  0  0  0  0  0  0  0
  129.8926  124.6329   65.5040 H   0  0  0  0  0  0  0  0  0  0  0  0
  129.0360  128.9511   66.9078 H   0  0  0  0  0  0  0  0  0  0  0  0
  129.0473  129.2611   69.3636 H   0  0  0  0  0  0  0  0  0  0  0  0
  127.7996  125.6626   71.6351 H   0  0  0  0  0  0  0  0  0  0  0  0
  129.5528  125.4975   72.1258 H   0  0  0  0  0  0  0  0  0  0  0  0
  127.4272  127.1951   73.5160 H   0  0  0  0  0  0  0  0  0  0  0  0
  128.1601  125.6654   74.1200 H   0  0  0  0  0  0  0  0  0  0  0  0
  128.7690  129.1248   73.3516 H   0  0  0  0  0  0  0  0  0  0  0  0
  130.5041  129.0287   73.8230 H   0  0  0  0  0  0  0  0  0  0  0  0
  130.1596  129.0785   71.3328 H   0  0  0  0  0  0  0  0  0  0  0  0
  130.9806  127.5608   71.9397 H   0  0  0  0  0  0  0  0  0  0  0  0
  129.0291  124.9777   69.9025 H   0  0  0  0  0  0  0  0  0  0  0  0
  129.0110  124.6709   67.4462 H   0  0  0  0  0  0  0  0  0  0  0  0
  127.9484  131.1987   63.4711 H   0  0  0  0  0  0  0  0  0  0  0  0
  129.2961  130.1069   64.0073 H   0  0  0  0  0  0  0  0  0  0  0  0
  130.7270  129.3050   62.2540 H   0  0  0  0  0  0  0  0  0  0  0  0
  132.6051  130.8008   57.7479 H   0  0  0  0  0  0  0  0  0  0  0  0
  134.6563  131.2112   59.3141 H   0  0  0  0  0  0  0  0  0  0  0  0
  1  2  3  0
  2  3  1  0
  3  4  2  0
  4  5  1  0
  5  6  2  0
  6  7  1  0
  7  8  2  0
  8  9  1  0
  9 10  1  0
 10 11  1  0
 11 12  1  0
 12 13  1  0
 13 14  1  0
  8 15  1  0
 15 16  2  0
  4 17  1  0
 17 18  2  0
 18 19  1  0
 19 20  2  0
 20 21  1  0
 21 22  2  0
 22 23  1  0
 23 24  1  0
 24 25  1  0
 25 26  1  0
 26 27  1  0
 27 28  1  0
 22 29  1  0
 29 30  2  0
 18 31  1  0
 31 32  2  0
 32 33  1  0
 33 34  1  0
 34 35  1  0
 35 36  2  0
 35 37  1  0
 37 38  1  0
 38 39  2  0
 39 40  1  0
 40 41  2  0
 41 42  1  0
 32  3  1  0
 42 38  1  0
 16  5  1  0
 30 19  1  0
 14  9  1  0
 28 23  1  0
  6 43  1  0
  7 44  1  0
 10 45  1  0
 10 46  1  0
 11 47  1  0
 11 48  1  0
 13 49  1  0
 13 50  1  0
 14 51  1  0
 14 52  1  0
 15 53  1  0
 16 54  1  0
 17 55  1  0
 20 56  1  0
 21 57  1  0
 24 58  1  0
 24 59  1  0
 25 60  1  0
 25 61  1  0
 27 62  1  0
 27 63  1  0
 28 64  1  0
 28 65  1  0
 29 66  1  0
 30 67  1  0
 34 68  1  0
 34 69  1  0
 37 70  1  0
 40 71  1  0
 41 72  1  0
M  END
>  <Binding energies>  (1) 
[-9.66]

>  <Ligand effiencies>  (1) 
[-0.2246511627906977]

>  <Interactions>  (1) 
["V-A:ASN:362:CB:3175, V-A:ALA:541:CB:4892, V-A:PRO:540:CA:4883, V-A:GLU:543:CD:4908, V-A:PRO:540:CB:4885, V-A:ASP:366:CG:3212, H-A:GLU:543:OE2:4910, H-A:GLU:543:OE1:4909, H-A:ASP:366:OD2:3214, V-A:ILE:369:CG2:3236, V-B:TYR:539:CD2:9846, H-A:SER:385:OG:3409, V-A:LEU:475:CD1:4257, H-A:HIS:383:NE2:3393, V-A:PRO:482:CG:4326, V-B:GLU:543:CG:9879, V-B:ALA:541:CB:9864, V-B:GLU:543:CD:9880, V-A:HIS:456:CE1:4069, V-A:GLU:543:CG:4907, V-B:HIS:456:CE1:9041, V-A:GLU:543:CB:4906, V-B:GLU:543:C:9874, V-B:GLU:543:CB:9878, H-A:ALA:541:N:4891, V-A:SER:385:CA:3406, V-B:HIS:456:CD2:9039, V-A:LYS:547:CE:4950, V-A:ASN:362:C:3171, V-A:LEU:363:CB:3186, V-A:LEU:363:CA:3184"]

$$$$
2c_Grossjean_2025
     RDKit          3D

 40 41  0  0  0  0  0  0  0  0999 V2000
  128.5450  126.6680   68.4340 C   0  0  0  0  0  0  0  0  0  0  0  0
  129.7780  125.9570   68.4330 O   0  0  0  0  0  0  0  0  0  0  0  0
  130.3920  125.6750   67.2280 C   0  0  0  0  0  0  0  0  0  0  0  0
  129.7320  124.7800   66.3870 C   0  0  0  0  0  0  0  0  0  0  0  0
  130.2730  124.4320   65.1520 C   0  0  0  0  0  0  0  0  0  0  0  0
  131.5010  124.9770   64.7480 C   0  0  0  0  0  0  0  0  0  0  0  0
  132.1160  124.7000   63.5130 N   0  0  0  0  0  0  0  0  0  0  0  0
  133.4280  124.7500   63.1960 C   0  0  0  0  0  0  0  0  0  0  0  0
  134.3210  125.1140   63.9630 O   0  0  0  0  0  0  0  0  0  0  0  0
  133.7590  124.3480   61.7510 C   0  0  0  0  0  0  0  0  0  0  0  0
  133.9710  122.5570   61.4620 S   0  0  0  0  0  0  0  0  0  0  0  0
  132.3720  121.7560   61.4890 C   0  0  0  0  0  0  0  0  0  0  0  0
  131.3200  122.5560   61.8020 N   0  0  0  0  0  0  0  0  0  0  0  0
  130.0820  122.0170   61.8500 C   0  0  0  0  0  0  0  0  0  0  0  0
  128.9640  122.9710   62.2220 C   0  0  0  0  0  0  0  0  0  0  0  0
  129.8380  120.6720   61.5830 C   0  0  0  0  0  0  0  0  0  0  0  0
  130.9080  119.8290   61.2510 C   0  0  0  0  0  0  0  0  0  0  0  0
  130.6210  118.3440   60.9560 C   0  0  0  0  0  0  0  0  0  0  0  0
  131.3360  117.5700   61.7740 F   0  0  0  0  0  0  0  0  0  0  0  0
  129.3250  118.0830   61.1360 F   0  0  0  0  0  0  0  0  0  0  0  0
  130.9300  117.9980   59.7040 F   0  0  0  0  0  0  0  0  0  0  0  0
  132.2130  120.3800   61.2010 C   0  0  0  0  0  0  0  0  0  0  0  0
  133.3700  119.5450   60.8610 C   0  0  0  0  0  0  0  0  0  0  0  0
  134.2830  118.8860   60.5930 N   0  0  0  0  0  0  0  0  0  0  0  0
  132.1580  125.8850   65.5790 C   0  0  0  0  0  0  0  0  0  0  0  0
  131.6130  126.2300   66.8120 C   0  0  0  0  0  0  0  0  0  0  0  0
  128.2280  126.8508   69.4713 H   0  0  0  0  0  0  0  0  0  0  0  0
  128.6757  127.6294   67.9157 H   0  0  0  0  0  0  0  0  0  0  0  0
  127.7784  126.0733   67.9157 H   0  0  0  0  0  0  0  0  0  0  0  0
  128.7728  124.3437   66.7027 H   0  0  0  0  0  0  0  0  0  0  0  0
  129.7384  123.7309   64.4942 H   0  0  0  0  0  0  0  0  0  0  0  0
  131.4760  124.5000   62.7590 H   0  0  0  0  0  0  0  0  0  0  0  0
  132.9414  124.7010   61.1053 H   0  0  0  0  0  0  0  0  0  0  0  0
  134.7325  124.8077   61.5251 H   0  0  0  0  0  0  0  0  0  0  0  0
  128.8872  123.0365   63.3174 H   0  0  0  0  0  0  0  0  0  0  0  0
  129.1798  123.9675   61.8093 H   0  0  0  0  0  0  0  0  0  0  0  0
  128.0138  122.6011   61.8093 H   0  0  0  0  0  0  0  0  0  0  0  0
  128.8136  120.2742   61.6322 H   0  0  0  0  0  0  0  0  0  0  0  0
  133.1113  126.3302   65.2580 H   0  0  0  0  0  0  0  0  0  0  0  0
  132.1413  126.9411   67.4641 H   0  0  0  0  0  0  0  0  0  0  0  0
  1  2  1  0
  2  3  1  0
  3  4  2  0
  4  5  1  0
  5  6  2  0
  6  7  1  0
  7  8  1  0
  8  9  2  0
  8 10  1  0
 10 11  1  0
 11 12  1  0
 12 13  2  0
 13 14  1  0
 14 15  1  0
 14 16  2  0
 16 17  1  0
 17 18  1  0
 18 19  1  0
 18 20  1  0
 18 21  1  0
 17 22  2  0
 22 23  1  0
 23 24  3  0
  6 25  1  0
 25 26  2  0
 26  3  1  0
 22 12  1  0
  1 27  1  0
  1 28  1  0
  1 29  1  0
  4 30  1  0
  5 31  1  0
  7 32  1  0
 10 33  1  0
 10 34  1  0
 15 35  1  0
 15 36  1  0
 15 37  1  0
 16 38  1  0
 25 39  1  0
 26 40  1  0
M  END
>  <Binding energies>  (1) 
[-6.62]

>  <Ligand effiencies>  (1) 
[-0.2451851851851852]

>  <Interactions>  (1) 
["V-A:ASP:366:CG:3212, V-A:TYR:484:CZ:4346, H-A:ARG:545:NH2:4928, H-A:ARG:545:NH1:4927, V-A:ARG:545:CZ:4926, H-A:GLY:454:N:4049, H-A:ARG:545:NE:4924, V-A:ILE:369:CG2:3236, V-B:TYR:539:CD2:9846, H-A:SER:385:OG:3409, V-A:LEU:475:CD1:4257, V-A:PRO:482:CB:4325, H-A:HIS:383:NE2:3393, V-A:PRO:482:CG:4326, V-B:TYR:539:CG:9844, V-B:GLU:543:CG:9879, V-B:ALA:541:CB:9864, V-B:GLU:543:CD:9880, V-B:TYR:539:C:9839, V-A:TYR:484:CE2:4345, V-A:HIS:456:CE1:4069, V-B:ALA:541:CA:9862, V-B:HIS:456:CE1:9041, V-B:GLU:543:CB:9878, V-B:PRO:540:C:9853, V-B:TYR:539:CB:9843, V-A:PRO:482:CD:4327"]

$$$$
2d_Ghoteimi_2023
     RDKit          3D

 68 72  0  0  0  0  0  0  0  0999 V2000
  124.0480  130.3290   62.9760 C   0  0  0  0  0  0  0  0  0  0  0  0
  124.0780  129.9360   64.3400 O   0  0  0  0  0  0  0  0  0  0  0  0
  125.2240  129.5020   64.9040 C   0  0  0  0  0  0  0  0  0  0  0  0
  125.3030  128.7710   65.8950 O   0  0  0  0  0  0  0  0  0  0  0  0
  126.4530  130.0290   64.1470 C   0  0  0  0  0  0  0  0  0  0  0  0
  127.0430  128.8160   62.9180 S   0  0  0  0  0  0  0  0  0  0  0  0
  127.9650  127.5550   63.7740 C   0  0  0  0  0  0  0  0  0  0  0  0
  128.0770  127.7850   65.1050 N   0  0  0  0  0  0  0  0  0  0  0  0
  128.7610  126.9080   65.8820 C   0  0  0  0  0  0  0  0  0  0  0  0
  128.8590  127.2370   67.3370 C   0  0  0  0  0  0  0  0  0  0  0  0
  128.9180  126.2200   68.2950 C   0  0  0  0  0  0  0  0  0  0  0  0
  129.0090  126.5190   69.6520 C   0  0  0  0  0  0  0  0  0  0  0  0
  129.0550  127.8490   70.0990 C   0  0  0  0  0  0  0  0  0  0  0  0
  129.1280  128.1670   71.4600 N   0  0  0  0  0  0  0  0  0  0  0  0
  130.2470  127.7020   72.3030 C   0  0  0  0  0  0  0  0  0  0  0  0
  129.9730  127.8240   73.8160 C   0  0  0  0  0  0  0  0  0  0  0  0
  129.6200  129.1610   74.1380 O   0  0  0  0  0  0  0  0  0  0  0  0
  128.4490  129.5700   73.4510 C   0  0  0  0  0  0  0  0  0  0  0  0
  128.6750  129.4940   71.9250 C   0  0  0  0  0  0  0  0  0  0  0  0
  128.9810  128.8650   69.1360 C   0  0  0  0  0  0  0  0  0  0  0  0
  128.8880  128.5650   67.7800 C   0  0  0  0  0  0  0  0  0  0  0  0
  129.3490  125.7650   65.3330 C   0  0  0  0  0  0  0  0  0  0  0  0
  129.2190  125.4860   63.9670 C   0  0  0  0  0  0  0  0  0  0  0  0
  129.8500  124.2330   63.4560 C   0  0  0  0  0  0  0  0  0  0  0  0
  131.1800  123.9410   63.7600 C   0  0  0  0  0  0  0  0  0  0  0  0
  131.7740  122.7700   63.2990 C   0  0  0  0  0  0  0  0  0  0  0  0
  131.0520  121.8560   62.5150 C   0  0  0  0  0  0  0  0  0  0  0  0
  131.6230  120.6670   62.0510 N   0  0  0  0  0  0  0  0  0  0  0  0
  132.8800  120.6690   61.2770 C   0  0  0  0  0  0  0  0  0  0  0  0
  133.5370  119.2760   61.1670 C   0  0  0  0  0  0  0  0  0  0  0  0
  132.6110  118.3440   60.6300 O   0  0  0  0  0  0  0  0  0  0  0  0
  131.4550  118.2240   61.4450 C   0  0  0  0  0  0  0  0  0  0  0  0
  130.7440  119.5900   61.5580 C   0  0  0  0  0  0  0  0  0  0  0  0
  129.7110  122.1480   62.2290 C   0  0  0  0  0  0  0  0  0  0  0  0
  129.1180  123.3190   62.6910 C   0  0  0  0  0  0  0  0  0  0  0  0
  128.5020  126.4010   63.1570 C   0  0  0  0  0  0  0  0  0  0  0  0
  128.3210  126.1440   61.7250 C   0  0  0  0  0  0  0  0  0  0  0  0
  128.1810  125.9360   60.5950 N   0  0  0  0  0  0  0  0  0  0  0  0
  123.9644  131.4239   62.9116 H   0  0  0  0  0  0  0  0  0  0  0  0
  124.9737  130.0021   62.4798 H   0  0  0  0  0  0  0  0  0  0  0  0
  123.1826  129.8654   62.4798 H   0  0  0  0  0  0  0  0  0  0  0  0
  126.1828  130.9613   63.6295 H   0  0  0  0  0  0  0  0  0  0  0  0
  127.2590  130.2077   64.8739 H   0  0  0  0  0  0  0  0  0  0  0  0
  128.8922  125.1688   67.9720 H   0  0  0  0  0  0  0  0  0  0  0  0
  129.0454  125.7000   70.3854 H   0  0  0  0  0  0  0  0  0  0  0  0
  130.4426  126.6451   72.0692 H   0  0  0  0  0  0  0  0  0  0  0  0
  131.1094  128.3469   72.0785 H   0  0  0  0  0  0  0  0  0  0  0  0
  129.1469  127.1523   74.0922 H   0  0  0  0  0  0  0  0  0  0  0  0
  130.8807  127.5458   74.3715 H   0  0  0  0  0  0  0  0  0  0  0  0
  127.6147  128.9090   73.7286 H   0  0  0  0  0  0  0  0  0  0  0  0
  128.2126  130.6078   73.7287 H   0  0  0  0  0  0  0  0  0  0  0  0
  127.7275  129.7345   71.4206 H   0  0  0  0  0  0  0  0  0  0  0  0
  129.4725  130.2112   71.6807 H   0  0  0  0  0  0  0  0  0  0  0  0
  128.9967  129.9169   69.4573 H   0  0  0  0  0  0  0  0  0  0  0  0
  128.8366  129.3827   67.0460 H   0  0  0  0  0  0  0  0  0  0  0  0
  129.9179  125.0798   65.9786 H   0  0  0  0  0  0  0  0  0  0  0  0
  131.7654  124.6440   64.3707 H   0  0  0  0  0  0  0  0  0  0  0  0
  132.8232  122.5576   63.5522 H   0  0  0  0  0  0  0  0  0  0  0  0
  132.6634  121.0331   60.2619 H   0  0  0  0  0  0  0  0  0  0  0  0
  133.5881  121.3198   61.8110 H   0  0  0  0  0  0  0  0  0  0  0  0
  134.4151  119.3384   60.5075 H   0  0  0  0  0  0  0  0  0  0  0  0
  133.8459  118.9422   62.1686 H   0  0  0  0  0  0  0  0  0  0  0  0
  130.7676  117.4916   60.9965 H   0  0  0  0  0  0  0  0  0  0  0  0
  131.7544  117.8888   62.4490 H   0  0  0  0  0  0  0  0  0  0  0  0
  130.3705  119.8725   60.5626 H   0  0  0  0  0  0  0  0  0  0  0  0
  129.9302  119.4739   62.2889 H   0  0  0  0  0  0  0  0  0  0  0  0
  129.1185  121.4406   61.6302 H   0  0  0  0  0  0  0  0  0  0  0  0
  128.0646  123.5277   62.4526 H   0  0  0  0  0  0  0  0  0  0  0  0
  1  2  1  0
  2  3  1  0
  3  4  2  0
  3  5  1  0
  5  6  1  0
  6  7  1  0
  7  8  2  0
  8  9  1  0
  9 10  1  0
 10 11  2  0
 11 12  1  0
 12 13  2  0
 13 14  1  0
 14 15  1  0
 15 16  1  0
 16 17  1  0
 17 18  1  0
 18 19  1  0
 13 20  1  0
 20 21  2  0
  9 22  2  0
 22 23  1  0
 23 24  1  0
 24 25  2  0
 25 26  1  0
 26 27  2  0
 27 28  1  0
 28 29  1  0
 29 30  1  0
 30 31  1  0
 31 32  1  0
 32 33  1  0
 27 34  1  0
 34 35  2  0
 23 36  2  0
 36 37  1  0
 37 38  3  0
 36  7  1  0
 21 10  1  0
 35 24  1  0
 19 14  1  0
 33 28  1  0
  1 39  1  0
  1 40  1  0
  1 41  1  0
  5 42  1  0
  5 43  1  0
 11 44  1  0
 12 45  1  0
 15 46  1  0
 15 47  1  0
 16 48  1  0
 16 49  1  0
 18 50  1  0
 18 51  1  0
 19 52  1  0
 19 53  1  0
 20 54  1  0
 21 55  1  0
 22 56  1  0
 25 57  1  0
 26 58  1  0
 29 59  1  0
 29 60  1  0
 30 61  1  0
 30 62  1  0
 32 63  1  0
 32 64  1  0
 33 65  1  0
 33 66  1  0
 34 67  1  0
 35 68  1  0
M  END
>  <Binding energies>  (1) 
[-8.39]

>  <Ligand effiencies>  (1) 
[-0.22078947368421054]

>  <Interactions>  (1) 
["V-A:GLU:543:CD:4908, V-A:ILE:369:CG2:3236, H-A:SER:385:OG:3409, V-A:LEU:475:CD1:4257, V-A:PRO:482:CB:4325, H-A:HIS:383:NE2:3393, V-A:PRO:482:CG:4326, V-B:GLU:543:CG:9879, V-B:ALA:541:CB:9864, V-B:GLU:543:CD:9880, V-A:SER:385:C:3404, V-A:HIS:456:CE1:4069, V-A:GLU:543:CG:4907, V-B:HIS:456:CE1:9041, V-A:GLU:543:CB:4906, V-B:GLU:543:CB:9878, H-B:TYR:484:OH:9319, H-B:ARG:545:NH2:9900, H-B:GLY:454:N:9021, V-B:ILE:369:CD1:8210, H-B:ARG:545:NH1:9899, V-A:SER:385:CA:3406, V-A:GLU:543:C:4902, H-B:ARG:545:NE:9896, V-B:ARG:545:CZ:9898, V-B:HIS:456:CG:9037, V-B:HIS:456:CD2:9039, H-A:LYS:547:NZ:4951, V-A:LYS:547:CE:4950"]

$$$$
2d_Grossjean_2025
     RDKit          3D

 36 37  0  0  0  0  0  0  0  0999 V2000
  129.0800  122.7990   62.3980 C   0  0  0  0  0  0  0  0  0  0  0  0
  130.1650  121.8430   61.9410 C   0  0  0  0  0  0  0  0  0  0  0  0
  129.8770  120.5270   61.5860 C   0  0  0  0  0  0  0  0  0  0  0  0
  130.9150  119.6830   61.1650 C   0  0  0  0  0  0  0  0  0  0  0  0
  130.5750  118.2340   60.7650 C   0  0  0  0  0  0  0  0  0  0  0  0
  131.3120  117.3800   61.4760 F   0  0  0  0  0  0  0  0  0  0  0  0
  129.2840  117.9870   60.9980 F   0  0  0  0  0  0  0  0  0  0  0  0
  130.8040  117.9860   59.4750 F   0  0  0  0  0  0  0  0  0  0  0  0
  132.2350  120.2010   61.1220 C   0  0  0  0  0  0  0  0  0  0  0  0
  133.3460  119.3740   60.6460 C   0  0  0  0  0  0  0  0  0  0  0  0
  134.2240  118.7200   60.2680 N   0  0  0  0  0  0  0  0  0  0  0  0
  132.4370  121.5420   61.5260 C   0  0  0  0  0  0  0  0  0  0  0  0
  134.0300  122.3400   61.5650 S   0  0  0  0  0  0  0  0  0  0  0  0
  133.7800  124.1460   61.5890 C   0  0  0  0  0  0  0  0  0  0  0  0
  133.6110  124.7080   63.0040 C   0  0  0  0  0  0  0  0  0  0  0  0
  134.6040  125.1140   63.6090 O   0  0  0  0  0  0  0  0  0  0  0  0
  132.3550  124.6840   63.4950 N   0  0  0  0  0  0  0  0  0  0  0  0
  131.8810  125.1270   64.7440 C   0  0  0  0  0  0  0  0  0  0  0  0
  130.5510  124.8180   65.0390 C   0  0  0  0  0  0  0  0  0  0  0  0
  129.9890  125.2180   66.2490 C   0  0  0  0  0  0  0  0  0  0  0  0
  130.7570  125.9370   67.1620 C   0  0  0  0  0  0  0  0  0  0  0  0
  132.0790  126.2630   66.8730 C   0  0  0  0  0  0  0  0  0  0  0  0
  132.6440  125.8630   65.6660 C   0  0  0  0  0  0  0  0  0  0  0  0
  131.4190  122.3500   61.9100 N   0  0  0  0  0  0  0  0  0  0  0  0
  129.0522  122.8235   63.4974 H   0  0  0  0  0  0  0  0  0  0  0  0
  129.2942  123.8073   62.0140 H   0  0  0  0  0  0  0  0  0  0  0  0
  128.1067  122.4596   62.0140 H   0  0  0  0  0  0  0  0  0  0  0  0
  128.8438  120.1529   61.6355 H   0  0  0  0  0  0  0  0  0  0  0  0
  134.6525  124.6269   61.1227 H   0  0  0  0  0  0  0  0  0  0  0  0
  132.8516  124.3571   61.0380 H   0  0  0  0  0  0  0  0  0  0  0  0
  131.6560  124.2390   62.9170 H   0  0  0  0  0  0  0  0  0  0  0  0
  129.9451  124.2565   64.3127 H   0  0  0  0  0  0  0  0  0  0  0  0
  128.9437  124.9673   66.4825 H   0  0  0  0  0  0  0  0  0  0  0  0
  130.3150  126.2498   68.1195 H   0  0  0  0  0  0  0  0  0  0  0  0
  132.6761  126.8360   67.5977 H   0  0  0  0  0  0  0  0  0  0  0  0
  133.6873  126.1228   65.4338 H   0  0  0  0  0  0  0  0  0  0  0  0
  1  2  1  0
  2  3  2  0
  3  4  1  0
  4  5  1  0
  5  6  1  0
  5  7  1  0
  5  8  1  0
  4  9  2  0
  9 10  1  0
 10 11  3  0
  9 12  1  0
 12 13  1  0
 13 14  1  0
 14 15  1  0
 15 16  2  0
 15 17  1  0
 17 18  1  0
 18 19  2  0
 19 20  1  0
 20 21  2  0
 21 22  1  0
 22 23  2  0
 12 24  2  0
 24  2  1  0
 23 18  1  0
  1 25  1  0
  1 26  1  0
  1 27  1  0
  3 28  1  0
 14 29  1  0
 14 30  1  0
 17 31  1  0
 19 32  1  0
 20 33  1  0
 21 34  1  0
 22 35  1  0
 23 36  1  0
M  END
>  <Binding energies>  (1) 
[-6.73]

>  <Ligand effiencies>  (1) 
[-0.2692]

>  <Interactions>  (1) 
["V-A:ASP:366:CG:3212, V-A:ARG:545:CG:4922, V-A:TYR:484:CZ:4346, H-A:ARG:545:NH2:4928, H-A:ARG:545:NH1:4927, V-A:ARG:545:CZ:4926, H-A:GLY:454:N:4049, V-A:ILE:369:CG2:3236, V-B:TYR:539:CD2:9846, H-A:SER:385:OG:3409, V-A:LEU:475:CD1:4257, V-A:HIS:383:CE1:3392, V-A:PRO:482:CB:4325, H-A:HIS:383:NE2:3393, V-A:PRO:482:CG:4326, V-B:PRO:540:CA:9855, V-B:TYR:539:CG:9844, V-B:GLU:543:CG:9879, V-B:ALA:541:CB:9864, V-B:PRO:540:N:9856, V-B:TYR:539:C:9839, V-A:TYR:484:CE2:4345, V-A:HIS:456:CE1:4069, V-B:ALA:541:CA:9862, V-B:GLU:543:CB:9878, V-B:PRO:540:C:9853, V-B:TYR:539:CB:9843, V-B:TYR:539:CA:9841, V-A:PRO:482:CD:4327"]

$$$$
2e_Grossjean_2025
     RDKit          3D

 38 39  0  0  0  0  0  0  0  0999 V2000
  122.9660  129.2720   66.9410 C   0  0  0  0  0  0  0  0  0  0  0  0
  124.3020  129.2470   66.2230 C   0  0  0  0  0  0  0  0  0  0  0  0
  124.4970  129.9240   65.0170 C   0  0  0  0  0  0  0  0  0  0  0  0
  125.7570  129.8670   64.4190 C   0  0  0  0  0  0  0  0  0  0  0  0
  126.7800  129.1410   65.0340 C   0  0  0  0  0  0  0  0  0  0  0  0
  126.5140  128.4780   66.2380 C   0  0  0  0  0  0  0  0  0  0  0  0
  127.5900  127.8000   66.8350 N   0  0  0  0  0  0  0  0  0  0  0  0
  128.5080  128.2890   67.6980 C   0  0  0  0  0  0  0  0  0  0  0  0
  128.5000  129.4290   68.1670 O   0  0  0  0  0  0  0  0  0  0  0  0
  129.6530  127.3390   68.0620 C   0  0  0  0  0  0  0  0  0  0  0  0
  129.4980  125.7290   67.2250 S   0  0  0  0  0  0  0  0  0  0  0  0
  130.9650  125.5660   66.2320 C   0  0  0  0  0  0  0  0  0  0  0  0
  132.1250  125.5620   66.9340 N   0  0  0  0  0  0  0  0  0  0  0  0
  133.2910  125.4870   66.2530 C   0  0  0  0  0  0  0  0  0  0  0  0
  134.5500  125.4870   67.0990 C   0  0  0  0  0  0  0  0  0  0  0  0
  133.3470  125.4210   64.8620 C   0  0  0  0  0  0  0  0  0  0  0  0
  132.1560  125.4330   64.1210 C   0  0  0  0  0  0  0  0  0  0  0  0
  132.2360  125.3800   62.5840 C   0  0  0  0  0  0  0  0  0  0  0  0
  133.4960  125.1790   62.1970 F   0  0  0  0  0  0  0  0  0  0  0  0
  131.4770  124.3860   62.1220 F   0  0  0  0  0  0  0  0  0  0  0  0
  131.8150  126.5080   62.0070 F   0  0  0  0  0  0  0  0  0  0  0  0
  130.9260  125.5060   64.8200 C   0  0  0  0  0  0  0  0  0  0  0  0
  129.6480  125.5520   64.1020 C   0  0  0  0  0  0  0  0  0  0  0  0
  128.6400  125.5900   63.5350 N   0  0  0  0  0  0  0  0  0  0  0  0
  125.2860  128.5370   66.8320 N   0  0  0  0  0  0  0  0  0  0  0  0
  123.1339  129.2689   68.0281 H   0  0  0  0  0  0  0  0  0  0  0  0
  122.4145  130.1806   66.6578 H   0  0  0  0  0  0  0  0  0  0  0  0
  122.3809  128.3846   66.6578 H   0  0  0  0  0  0  0  0  0  0  0  0
  123.6770  130.4888   64.5495 H   0  0  0  0  0  0  0  0  0  0  0  0
  125.9433  130.3904   63.4696 H   0  0  0  0  0  0  0  0  0  0  0  0
  127.7801  129.0910   64.5787 H   0  0  0  0  0  0  0  0  0  0  0  0
  127.6510  126.8170   66.6120 H   0  0  0  0  0  0  0  0  0  0  0  0
  130.6060  127.8022   67.7666 H   0  0  0  0  0  0  0  0  0  0  0  0
  129.6151  127.1622   69.1470 H   0  0  0  0  0  0  0  0  0  0  0  0
  134.8543  124.4499   67.3035 H   0  0  0  0  0  0  0  0  0  0  0  0
  135.3553  126.0055   66.5580 H   0  0  0  0  0  0  0  0  0  0  0  0
  134.3534  126.0055   68.0490 H   0  0  0  0  0  0  0  0  0  0  0  0
  134.3181  125.3599   64.3489 H   0  0  0  0  0  0  0  0  0  0  0  0
  1  2  1  0
  2  3  2  0
  3  4  1  0
  4  5  2  0
  5  6  1  0
  6  7  1  0
  7  8  1  0
  8  9  2  0
  8 10  1  0
 10 11  1  0
 11 12  1  0
 12 13  2  0
 13 14  1  0
 14 15  1  0
 14 16  2  0
 16 17  1  0
 17 18  1  0
 18 19  1  0
 18 20  1  0
 18 21  1  0
 17 22  2  0
 22 23  1  0
 23 24  3  0
  6 25  2  0
 25  2  1  0
 22 12  1  0
  1 26  1  0
  1 27  1  0
  1 28  1  0
  3 29  1  0
  4 30  1  0
  5 31  1  0
  7 32  1  0
 10 33  1  0
 10 34  1  0
 15 35  1  0
 15 36  1  0
 15 37  1  0
 16 38  1  0
M  END
>  <Binding energies>  (1) 
[-6.35]

>  <Ligand effiencies>  (1) 
[-0.24423076923076922]

>  <Interactions>  (1) 
["V-A:ASP:366:CG:3212, V-A:ARG:545:CD:4923, V-A:ARG:545:CG:4922, H-A:TYR:484:OH:4347, V-A:TYR:484:CZ:4346, V-A:ARG:545:CZ:4926, V-B:GLU:543:CD:9880, V-A:HIS:456:CE1:4069, V-B:HIS:456:CE1:9041, V-A:GLU:543:CB:4906, H-B:TYR:484:OH:9319, V-B:GLY:454:CA:9020, H-B:GLU:543:OE2:9882, V-B:ARG:545:CG:9894, H-B:ARG:545:NE:9896, V-B:ARG:545:CD:9895, V-B:GLY:453:C:9013, V-B:GLY:453:CA:9015, V-B:ARG:545:CZ:9898, V-A:ARG:545:CB:4921, V-A:ILE:455:C:4051, V-B:ILE:455:C:9023"]

$$$$
2f_Grossjean_2025
     RDKit          3D

 35 36  0  0  0  0  0  0  0  0999 V2000
  133.4800  125.7450   66.7970 C   0  0  0  0  0  0  0  0  0  0  0  0
  133.0060  125.5000   65.3770 C   0  0  0  0  0  0  0  0  0  0  0  0
  131.6710  125.6610   65.0150 C   0  0  0  0  0  0  0  0  0  0  0  0
  131.2800  125.4150   63.6890 C   0  0  0  0  0  0  0  0  0  0  0  0
  129.7970  125.5860   63.3120 C   0  0  0  0  0  0  0  0  0  0  0  0
  129.1060  126.0410   64.3600 F   0  0  0  0  0  0  0  0  0  0  0  0
  129.6800  126.4560   62.3080 F   0  0  0  0  0  0  0  0  0  0  0  0
  129.2260  124.4440   62.9220 F   0  0  0  0  0  0  0  0  0  0  0  0
  132.2690  125.0140   62.7540 C   0  0  0  0  0  0  0  0  0  0  0  0
  131.9020  124.6910   61.3740 C   0  0  0  0  0  0  0  0  0  0  0  0
  131.6110  124.4360   60.2820 N   0  0  0  0  0  0  0  0  0  0  0  0
  133.6060  124.9020   63.2060 C   0  0  0  0  0  0  0  0  0  0  0  0
  134.9740  124.4240   62.1700 S   0  0  0  0  0  0  0  0  0  0  0  0
  134.3140  123.4440   60.7790 C   0  0  0  0  0  0  0  0  0  0  0  0
  133.9010  122.0080   61.1310 C   0  0  0  0  0  0  0  0  0  0  0  0
  134.6650  121.2700   61.7550 O   0  0  0  0  0  0  0  0  0  0  0  0
  132.6760  121.6530   60.6870 N   0  0  0  0  0  0  0  0  0  0  0  0
  131.9880  120.4340   60.8390 C   0  0  0  0  0  0  0  0  0  0  0  0
  130.6580  120.2970   61.2780 C   0  0  0  0  0  0  0  0  0  0  0  0
  130.0920  119.0250   61.3800 C   0  0  0  0  0  0  0  0  0  0  0  0
  130.8700  117.9180   61.0360 C   0  0  0  0  0  0  0  0  0  0  0  0
  132.1510  118.0240   60.6030 N   0  0  0  0  0  0  0  0  0  0  0  0
  132.6870  119.2680   60.5080 C   0  0  0  0  0  0  0  0  0  0  0  0
  133.9600  125.1230   64.4960 N   0  0  0  0  0  0  0  0  0  0  0  0
  132.7321  125.3585   67.5050 H   0  0  0  0  0  0  0  0  0  0  0  0
  134.4382  125.2292   66.9578 H   0  0  0  0  0  0  0  0  0  0  0  0
  133.6134  126.8250   66.9578 H   0  0  0  0  0  0  0  0  0  0  0  0
  130.9285  125.9784   65.7620 H   0  0  0  0  0  0  0  0  0  0  0  0
  133.4297  123.9656   60.3842 H   0  0  0  0  0  0  0  0  0  0  0  0
  135.1334  123.3567   60.0503 H   0  0  0  0  0  0  0  0  0  0  0  0
  132.1830  122.3420   60.1370 H   0  0  0  0  0  0  0  0  0  0  0  0
  130.0675  121.1875   61.5394 H   0  0  0  0  0  0  0  0  0  0  0  0
  129.0550  118.8976   61.7241 H   0  0  0  0  0  0  0  0  0  0  0  0
  130.4245  116.9157   61.1198 H   0  0  0  0  0  0  0  0  0  0  0  0
  133.7236  119.3640   60.1527 H   0  0  0  0  0  0  0  0  0  0  0  0
  1  2  1  0
  2  3  2  0
  3  4  1  0
  4  5  1  0
  5  6  1  0
  5  7  1  0
  5  8  1  0
  4  9  2  0
  9 10  1  0
 10 11  3  0
  9 12  1  0
 12 13  1  0
 13 14  1  0
 14 15  1  0
 15 16  2  0
 15 17  1  0
 17 18  1  0
 18 19  2  0
 19 20  1  0
 20 21  2  0
 21 22  1  0
 22 23  2  0
 12 24  2  0
 24  2  1  0
 23 18  1  0
  1 25  1  0
  1 26  1  0
  1 27  1  0
  3 28  1  0
 14 29  1  0
 14 30  1  0
 17 31  1  0
 19 32  1  0
 20 33  1  0
 21 34  1  0
 23 35  1  0
M  END
>  <Binding energies>  (1) 
[-6.38]

>  <Ligand effiencies>  (1) 
[-0.2552]

>  <Interactions>  (1) 
["V-A:ASP:366:CG:3212, V-A:ARG:545:CD:4923, V-A:ARG:545:CG:4922, H-A:TYR:484:OH:4347, V-A:TYR:484:CZ:4346, H-A:ARG:545:NH2:4928, V-A:ILE:369:CD1:3238, H-A:ARG:545:NH1:4927, V-A:ARG:545:CZ:4926, H-A:GLY:454:N:4049, V-A:ILE:369:CB:3235, H-A:ARG:545:NE:4924, V-A:ILE:369:CG2:3236, V-B:TYR:539:CD2:9846, H-A:SER:385:OG:3409, V-A:LEU:475:CD1:4257, V-A:PRO:482:CB:4325, H-A:HIS:383:NE2:3393, V-A:PRO:482:CG:4326, V-B:GLU:543:CG:9879, V-B:ALA:541:CB:9864, V-B:GLU:543:CD:9880, V-A:HIS:456:CE1:4069, V-B:ALA:541:CA:9862, V-B:PRO:540:C:9853"]

$$$$
2g_Grossjean_2025
     RDKit          3D

 39 40  0  0  0  0  0  0  0  0999 V2000
  128.2120  122.8640   61.9320 C   0  0  0  0  0  0  0  0  0  0  0  0
  129.5880  122.2470   61.7720 C   0  0  0  0  0  0  0  0  0  0  0  0
  129.7510  120.9070   61.4280 C   0  0  0  0  0  0  0  0  0  0  0  0
  131.0460  120.3810   61.3000 C   0  0  0  0  0  0  0  0  0  0  0  0
  131.2070  118.8940   60.9280 C   0  0  0  0  0  0  0  0  0  0  0  0
  131.8350  118.7770   59.7560 F   0  0  0  0  0  0  0  0  0  0  0  0
  131.9200  118.2690   61.8650 F   0  0  0  0  0  0  0  0  0  0  0  0
  130.0380  118.2600   60.8190 F   0  0  0  0  0  0  0  0  0  0  0  0
  132.1530  121.2410   61.5190 C   0  0  0  0  0  0  0  0  0  0  0  0
  133.5240  120.7290   61.4530 C   0  0  0  0  0  0  0  0  0  0  0  0
  134.6070  120.3240   61.4010 N   0  0  0  0  0  0  0  0  0  0  0  0
  131.8900  122.5960   61.8350 C   0  0  0  0  0  0  0  0  0  0  0  0
  133.1570  123.8140   62.1150 S   0  0  0  0  0  0  0  0  0  0  0  0
  132.3840  125.2190   62.9870 C   0  0  0  0  0  0  0  0  0  0  0  0
  132.8120  125.3790   64.4520 C   0  0  0  0  0  0  0  0  0  0  0  0
  133.7600  124.7440   64.9170 O   0  0  0  0  0  0  0  0  0  0  0  0
  132.0810  126.2460   65.1760 N   0  0  0  0  0  0  0  0  0  0  0  0
  132.3010  126.5720   66.5860 C   0  0  0  0  0  0  0  0  0  0  0  0
  131.0330  126.5910   67.4330 C   0  0  0  0  0  0  0  0  0  0  0  0
  130.6790  127.7500   68.1310 C   0  0  0  0  0  0  0  0  0  0  0  0
  129.5010  127.7820   68.8740 C   0  0  0  0  0  0  0  0  0  0  0  0
  128.6770  126.6600   68.9080 C   0  0  0  0  0  0  0  0  0  0  0  0
  129.0180  125.5060   68.2040 C   0  0  0  0  0  0  0  0  0  0  0  0
  130.1940  125.4740   67.4610 C   0  0  0  0  0  0  0  0  0  0  0  0
  130.6320  123.0820   61.9770 N   0  0  0  0  0  0  0  0  0  0  0  0
  127.9791  122.9684   63.0020 H   0  0  0  0  0  0  0  0  0  0  0  0
  128.1968  123.8551   61.4550 H   0  0  0  0  0  0  0  0  0  0  0  0
  127.4619  122.2160   61.4550 H   0  0  0  0  0  0  0  0  0  0  0  0
  128.8727  120.2669   61.2582 H   0  0  0  0  0  0  0  0  0  0  0  0
  132.6478  126.1422   62.4503 H   0  0  0  0  0  0  0  0  0  0  0  0
  131.3023  125.0194   62.9996 H   0  0  0  0  0  0  0  0  0  0  0  0
  131.3350  126.7470   64.7170 H   0  0  0  0  0  0  0  0  0  0  0  0
  132.9865  125.8231   67.0094 H   0  0  0  0  0  0  0  0  0  0  0  0
  132.7116  127.5922   66.6122 H   0  0  0  0  0  0  0  0  0  0  0  0
  131.3302  128.6357   68.0934 H   0  0  0  0  0  0  0  0  0  0  0  0
  129.2232  128.6890   69.4310 H   0  0  0  0  0  0  0  0  0  0  0  0
  127.7478  126.6844   69.4962 H   0  0  0  0  0  0  0  0  0  0  0  0
  128.3604  124.6248   68.2358 H   0  0  0  0  0  0  0  0  0  0  0  0
  130.4631  124.5695   66.8958 H   0  0  0  0  0  0  0  0  0  0  0  0
  1  2  1  0
  2  3  2  0
  3  4  1  0
  4  5  1  0
  5  6  1  0
  5  7  1  0
  5  8  1  0
  4  9  2  0
  9 10  1  0
 10 11  3  0
  9 12  1  0
 12 13  1  0
 13 14  1  0
 14 15  1  0
 15 16  2  0
 15 17  1  0
 17 18  1  0
 18 19  1  0
 19 20  2  0
 20 21  1  0
 21 22  2  0
 22 23  1  0
 23 24  2  0
 12 25  2  0
 25  2  1  0
 24 19  1  0
  1 26  1  0
  1 27  1  0
  1 28  1  0
  3 29  1  0
 14 30  1  0
 14 31  1  0
 17 32  1  0
 18 33  1  0
 18 34  1  0
 20 35  1  0
 21 36  1  0
 22 37  1  0
 23 38  1  0
 24 39  1  0
M  END
>  <Binding energies>  (1) 
[-7.16]

>  <Ligand effiencies>  (1) 
[-0.2753846153846154]

>  <Interactions>  (1) 
["V-A:GLU:543:CD:4908, V-A:ARG:545:CD:4923, V-A:ARG:545:CG:4922, H-A:TYR:484:OH:4347, H-A:GLU:543:OE2:4910, V-A:TYR:484:CZ:4346, H-A:GLU:543:OE1:4909, V-A:ARG:545:CZ:4926, H-A:GLY:454:N:4049, V-A:ILE:369:CG2:3236, V-B:TYR:539:CD2:9846, V-B:TYR:539:CE2:9848, V-A:LEU:475:CD1:4257, V-A:PRO:482:CB:4325, V-A:PRO:482:CG:4326, V-B:TYR:539:CG:9844, V-B:GLU:543:CG:9879, V-B:ALA:541:CB:9864, V-B:TYR:539:C:9839, V-A:TYR:484:CE2:4345, V-A:HIS:456:CE1:4069, V-B:ALA:541:CA:9862, V-B:GLU:543:CA:9876, V-B:HIS:456:CE1:9041, V-A:GLU:543:CB:4906, V-B:GLU:543:C:9874, V-B:GLU:543:CB:9878, V-B:PRO:540:C:9853"]

$$$$
2h_Grossjean_2025
     RDKit          3D

 51 52  0  0  0  0  0  0  0  0999 V2000
  133.8830  124.0080   62.8780 C   0  0  0  0  0  0  0  0  0  0  0  0
  134.0080  125.1310   63.7440 O   0  0  0  0  0  0  0  0  0  0  0  0
  133.0300  125.3690   64.6930 C   0  0  0  0  0  0  0  0  0  0  0  0
  133.2980  125.6210   66.0480 C   0  0  0  0  0  0  0  0  0  0  0  0
  132.2590  125.8600   66.9440 C   0  0  0  0  0  0  0  0  0  0  0  0
  130.9320  125.8530   66.5100 C   0  0  0  0  0  0  0  0  0  0  0  0
  129.8110  126.1380   67.5080 C   0  0  0  0  0  0  0  0  0  0  0  0
  128.6590  126.8200   66.9170 N   0  0  0  0  0  0  0  0  0  0  0  0
  128.2950  128.0870   67.1820 C   0  0  0  0  0  0  0  0  0  0  0  0
  128.8560  128.7890   68.0250 O   0  0  0  0  0  0  0  0  0  0  0  0
  127.1210  128.6260   66.3520 C   0  0  0  0  0  0  0  0  0  0  0  0
  127.1640  130.4210   66.0310 S   0  0  0  0  0  0  0  0  0  0  0  0
  127.2070  130.6250   64.2630 C   0  0  0  0  0  0  0  0  0  0  0  0
  128.4350  130.9360   63.7800 N   0  0  0  0  0  0  0  0  0  0  0  0
  128.5780  131.1330   62.4500 C   0  0  0  0  0  0  0  0  0  0  0  0
  129.9770  131.4840   61.9820 C   0  0  0  0  0  0  0  0  0  0  0  0
  127.5150  131.0230   61.5550 C   0  0  0  0  0  0  0  0  0  0  0  0
  126.2410  130.6820   62.0350 C   0  0  0  0  0  0  0  0  0  0  0  0
  125.0800  130.5560   61.0290 C   0  0  0  0  0  0  0  0  0  0  0  0
  124.9210  129.2810   60.6750 F   0  0  0  0  0  0  0  0  0  0  0  0
  123.9170  130.9820   61.5270 F   0  0  0  0  0  0  0  0  0  0  0  0
  125.3390  131.2790   59.9380 F   0  0  0  0  0  0  0  0  0  0  0  0
  126.0770  130.4650   63.4270 C   0  0  0  0  0  0  0  0  0  0  0  0
  124.7810  130.0500   63.9700 C   0  0  0  0  0  0  0  0  0  0  0  0
  123.7580  129.7190   64.3960 N   0  0  0  0  0  0  0  0  0  0  0  0
  130.6480  125.5790   65.1640 C   0  0  0  0  0  0  0  0  0  0  0  0
  129.3440  125.5670   64.7290 O   0  0  0  0  0  0  0  0  0  0  0  0
  128.9980  126.6560   63.8830 C   0  0  0  0  0  0  0  0  0  0  0  0
  131.6990  125.3570   64.2570 C   0  0  0  0  0  0  0  0  0  0  0  0
  131.4250  125.1070   62.9330 O   0  0  0  0  0  0  0  0  0  0  0  0
  131.6080  126.2280   62.0800 C   0  0  0  0  0  0  0  0  0  0  0  0
  133.7810  123.0918   63.4781 H   0  0  0  0  0  0  0  0  0  0  0  0
  132.9931  124.1316   62.2434 H   0  0  0  0  0  0  0  0  0  0  0  0
  134.7783  123.9329   62.2434 H   0  0  0  0  0  0  0  0  0  0  0  0
  134.3384  125.6297   66.4052 H   0  0  0  0  0  0  0  0  0  0  0  0
  132.4857  126.0559   68.0024 H   0  0  0  0  0  0  0  0  0  0  0  0
  129.4697  125.1812   67.9300 H   0  0  0  0  0  0  0  0  0  0  0  0
  130.2249  126.8098   68.2744 H   0  0  0  0  0  0  0  0  0  0  0  0
  128.1710  126.3190   66.1890 H   0  0  0  0  0  0  0  0  0  0  0  0
  127.1212  128.1059   65.3827 H   0  0  0  0  0  0  0  0  0  0  0  0
  126.2140  128.4416   66.9464 H   0  0  0  0  0  0  0  0  0  0  0  0
  130.6257  131.6468   62.8553 H   0  0  0  0  0  0  0  0  0  0  0  0
  130.3786  130.6588   61.3756 H   0  0  0  0  0  0  0  0  0  0  0  0
  129.9415  132.4011   61.3756 H   0  0  0  0  0  0  0  0  0  0  0  0
  127.6734  131.2020   60.4813 H   0  0  0  0  0  0  0  0  0  0  0  0
  128.7219  127.5250   64.4983 H   0  0  0  0  0  0  0  0  0  0  0  0
  129.8582  126.9147   63.2481 H   0  0  0  0  0  0  0  0  0  0  0  0
  128.1462  126.3708   63.2481 H   0  0  0  0  0  0  0  0  0  0  0  0
  131.7556  127.1320   62.6891 H   0  0  0  0  0  0  0  0  0  0  0  0
  132.4915  126.0653   61.4452 H   0  0  0  0  0  0  0  0  0  0  0  0
  130.7187  126.3547   61.4452 H   0  0  0  0  0  0  0  0  0  0  0  0
  1  2  1  0
  2  3  1  0
  3  4  2  0
  4  5  1  0
  5  6  2  0
  6  7  1  0
  7  8  1  0
  8  9  1  0
  9 10  2  0
  9 11  1  0
 11 12  1  0
 12 13  1  0
 13 14  2  0
 14 15  1  0
 15 16  1  0
 15 17  2  0
 17 18  1  0
 18 19  1  0
 19 20  1  0
 19 21  1  0
 19 22  1  0
 18 23  2  0
 23 24  1  0
 24 25  3  0
  6 26  1  0
 26 27  1  0
 27 28  1  0
 26 29  2  0
 29 30  1  0
 30 31  1  0
 29  3  1  0
 23 13  1  0
  1 32  1  0
  1 33  1  0
  1 34  1  0
  4 35  1  0
  5 36  1  0
  7 37  1  0
  7 38  1  0
  8 39  1  0
 11 40  1  0
 11 41  1  0
 16 42  1  0
 16 43  1  0
 16 44  1  0
 17 45  1  0
 28 46  1  0
 28 47  1  0
 28 48  1  0
 31 49  1  0
 31 50  1  0
 31 51  1  0
M  END
>  <Binding energies>  (1) 
[-6.19]

>  <Ligand effiencies>  (1) 
[-0.1934375]

>  <Interactions>  (1) 
["V-A:ALA:541:CB:4892, V-A:TYR:539:CE1:4875, V-A:GLU:543:CD:4908, V-A:ASP:366:CG:3212, V-A:ARG:545:CD:4923, V-A:ARG:545:CG:4922, V-A:GLY:453:C:4041, V-A:GLY:454:CA:4048, V-A:TYR:484:CZ:4346, H-A:ARG:545:NH2:4928, H-A:GLU:543:OE1:4909, H-A:ARG:545:NH1:4927, V-A:ARG:545:CZ:4926, H-A:GLY:454:N:4049, V-B:GLU:543:CD:9880, V-A:HIS:456:CE1:4069, V-B:HIS:456:CE1:9041, V-A:GLY:453:CA:4043, V-B:GLU:543:CB:9878, H-B:TYR:484:OH:9319, H-B:ARG:545:NH2:9900, H-B:GLY:454:N:9021, V-B:ILE:369:CG2:8208, V-B:ILE:369:CD1:8210, H-B:ARG:545:NH1:9899, V-B:ASP:366:CG:8184, V-A:ALA:541:CA:4890, V-B:ASP:366:CB:8183, H-B:GLU:543:OE2:9882, V-B:ARG:545:CZ:9898, V-B:ASP:366:CA:8181"]

$$$$
2i_Grossjean_2025
     RDKit          3D

 32 33  0  0  0  0  0  0  0  0999 V2000
  133.7210  125.5060   66.7790 C   0  0  0  0  0  0  0  0  0  0  0  0
  133.0750  125.4240   65.4080 C   0  0  0  0  0  0  0  0  0  0  0  0
  131.7520  125.8050   65.2010 C   0  0  0  0  0  0  0  0  0  0  0  0
  131.2010  125.7130   63.9150 C   0  0  0  0  0  0  0  0  0  0  0  0
  129.7350  126.1370   63.7040 C   0  0  0  0  0  0  0  0  0  0  0  0
  129.6770  127.1740   62.8660 F   0  0  0  0  0  0  0  0  0  0  0  0
  129.0350  125.1260   63.1900 F   0  0  0  0  0  0  0  0  0  0  0  0
  129.1350  126.5040   64.8390 F   0  0  0  0  0  0  0  0  0  0  0  0
  132.0190  125.2320   62.8610 C   0  0  0  0  0  0  0  0  0  0  0  0
  131.4950  125.1170   61.4960 C   0  0  0  0  0  0  0  0  0  0  0  0
  131.0820  125.0260   60.4190 N   0  0  0  0  0  0  0  0  0  0  0  0
  133.3510  124.8650   63.1600 C   0  0  0  0  0  0  0  0  0  0  0  0
  134.4700  124.2390   61.9170 S   0  0  0  0  0  0  0  0  0  0  0  0
  134.6180  122.4410   62.1430 C   0  0  0  0  0  0  0  0  0  0  0  0
  133.3740  121.6920   61.6610 C   0  0  0  0  0  0  0  0  0  0  0  0
  132.3700  122.3350   61.3510 O   0  0  0  0  0  0  0  0  0  0  0  0
  133.4710  120.3450   61.6390 N   0  0  0  0  0  0  0  0  0  0  0  0
  132.4830  119.4510   61.2610 C   0  0  0  0  0  0  0  0  0  0  0  0
  131.0890  119.5380   61.3880 C   0  0  0  0  0  0  0  0  0  0  0  0
  130.6140  118.3690   60.8410 C   0  0  0  0  0  0  0  0  0  0  0  0
  131.6600  117.6270   60.4030 O   0  0  0  0  0  0  0  0  0  0  0  0
  132.8370  118.3300   60.6720 N   0  0  0  0  0  0  0  0  0  0  0  0
  133.8650  124.9630   64.4130 N   0  0  0  0  0  0  0  0  0  0  0  0
  132.9477  125.4078   67.5552 H   0  0  0  0  0  0  0  0  0  0  0  0
  134.4548  124.6938   66.8877 H   0  0  0  0  0  0  0  0  0  0  0  0
  134.2286  126.4758   66.8877 H   0  0  0  0  0  0  0  0  0  0  0  0
  131.1439  126.1752   66.0396 H   0  0  0  0  0  0  0  0  0  0  0  0
  135.4890  122.0833   61.5743 H   0  0  0  0  0  0  0  0  0  0  0  0
  134.7335  122.2450   63.2192 H   0  0  0  0  0  0  0  0  0  0  0  0
  134.3350  119.9320   61.9560 H   0  0  0  0  0  0  0  0  0  0  0  0
  130.5047  120.3596   61.8279 H   0  0  0  0  0  0  0  0  0  0  0  0
  129.5544  118.0821   60.7703 H   0  0  0  0  0  0  0  0  0  0  0  0
  1  2  1  0
  2  3  2  0
  3  4  1  0
  4  5  1  0
  5  6  1  0
  5  7  1  0
  5  8  1  0
  4  9  2  0
  9 10  1  0
 10 11  3  0
  9 12  1  0
 12 13  1  0
 13 14  1  0
 14 15  1  0
 15 16  2  0
 15 17  1  0
 17 18  1  0
 18 19  1  0
 19 20  2  0
 20 21  1  0
 21 22  1  0
 12 23  2  0
 23  2  1  0
 22 18  2  0
  1 24  1  0
  1 25  1  0
  1 26  1  0
  3 27  1  0
 14 28  1  0
 14 29  1  0
 17 30  1  0
 19 31  1  0
 20 32  1  0
M  END
>  <Binding energies>  (1) 
[-6.37]

>  <Ligand effiencies>  (1) 
[-0.2654166666666667]

>  <Interactions>  (1) 
["V-A:GLU:543:CD:4908, V-A:ASP:366:CG:3212, V-A:ARG:545:CD:4923, V-A:ARG:545:CG:4922, V-A:GLY:453:C:4041, H-A:TYR:484:OH:4347, V-A:GLY:454:CA:4048, V-A:TYR:484:CZ:4346, H-A:ARG:545:NH2:4928, V-A:ILE:369:CD1:3238, H-A:ARG:545:NH1:4927, V-A:ARG:545:CZ:4926, H-A:GLY:454:N:4049, H-A:ARG:545:NE:4924, V-A:ILE:369:CG2:3236, H-A:SER:385:OG:3409, V-A:LEU:475:CD1:4257, H-A:HIS:383:NE2:3393, V-A:PRO:482:CG:4326, V-B:GLU:543:CD:9880, H-A:SER:385:O:3405"]

$$$$
2j_Grossjean_2025
     RDKit          3D

 32 33  0  0  0  0  0  0  0  0999 V2000
  129.0560  123.1070   61.8140 C   0  0  0  0  0  0  0  0  0  0  0  0
  130.0990  122.0790   61.4170 C   0  0  0  0  0  0  0  0  0  0  0  0
  129.8100  120.7170   61.3970 C   0  0  0  0  0  0  0  0  0  0  0  0
  130.8070  119.8050   61.0200 C   0  0  0  0  0  0  0  0  0  0  0  0
  130.4700  118.3010   61.0020 C   0  0  0  0  0  0  0  0  0  0  0  0
  131.2480  117.6500   61.8670 F   0  0  0  0  0  0  0  0  0  0  0  0
  129.1940  118.1150   61.3430 F   0  0  0  0  0  0  0  0  0  0  0  0
  130.6500  117.7460   59.8020 F   0  0  0  0  0  0  0  0  0  0  0  0
  132.0860  120.3070   60.6700 C   0  0  0  0  0  0  0  0  0  0  0  0
  133.1650  119.4000   60.2680 C   0  0  0  0  0  0  0  0  0  0  0  0
  134.0170  118.6830   59.9500 N   0  0  0  0  0  0  0  0  0  0  0  0
  132.2920  121.7060   60.7190 C   0  0  0  0  0  0  0  0  0  0  0  0
  133.8610  122.4500   60.2980 S   0  0  0  0  0  0  0  0  0  0  0  0
  134.0080  124.0310   61.1980 C   0  0  0  0  0  0  0  0  0  0  0  0
  133.7160  123.9470   62.7030 C   0  0  0  0  0  0  0  0  0  0  0  0
  133.5020  122.8590   63.2430 O   0  0  0  0  0  0  0  0  0  0  0  0
  133.7060  125.1360   63.3450 N   0  0  0  0  0  0  0  0  0  0  0  0
  133.4730  125.3460   64.6980 C   0  0  0  0  0  0  0  0  0  0  0  0
  134.3190  125.2040   65.6950 N   0  0  0  0  0  0  0  0  0  0  0  0
  133.7580  125.4920   66.8530 C   0  0  0  0  0  0  0  0  0  0  0  0
  132.4220  125.8790   66.8100 C   0  0  0  0  0  0  0  0  0  0  0  0
  131.8820  125.8620   65.1580 S   0  0  0  0  0  0  0  0  0  0  0  0
  131.3130  122.5720   61.0840 N   0  0  0  0  0  0  0  0  0  0  0  0
  128.9972  123.1649   62.9109 H   0  0  0  0  0  0  0  0  0  0  0  0
  129.3378  124.0903   61.4095 H   0  0  0  0  0  0  0  0  0  0  0  0
  128.0769  122.8110   61.4095 H   0  0  0  0  0  0  0  0  0  0  0  0
  128.8076  120.3590   61.6747 H   0  0  0  0  0  0  0  0  0  0  0  0
  135.0350  124.4033   61.0693 H   0  0  0  0  0  0  0  0  0  0  0  0
  133.2460  124.7005   60.7725 H   0  0  0  0  0  0  0  0  0  0  0  0
  133.8840  125.9640   62.7970 H   0  0  0  0  0  0  0  0  0  0  0  0
  134.3147  125.4299   67.7997 H   0  0  0  0  0  0  0  0  0  0  0  0
  131.8073  126.1515   67.6805 H   0  0  0  0  0  0  0  0  0  0  0  0
  1  2  1  0
  2  3  2  0
  3  4  1  0
  4  5  1  0
  5  6  1  0
  5  7  1  0
  5  8  1  0
  4  9  2  0
  9 10  1  0
 10 11  3  0
  9 12  1  0
 12 13  1  0
 13 14  1  0
 14 15  1  0
 15 16  2  0
 15 17  1  0
 17 18  1  0
 18 19  2  0
 19 20  1  0
 20 21  2  0
 21 22  1  0
 12 23  2  0
 23  2  1  0
 22 18  1  0
  1 24  1  0
  1 25  1  0
  1 26  1  0
  3 27  1  0
 14 28  1  0
 14 29  1  0
 17 30  1  0
 20 31  1  0
 21 32  1  0
M  END
>  <Binding energies>  (1) 
[-6.42]

>  <Ligand effiencies>  (1) 
[-0.2675]

>  <Interactions>  (1) 
["V-A:ASP:366:CG:3212, V-A:ARG:545:CD:4923, V-A:ARG:545:CG:4922, H-A:TYR:484:OH:4347, V-A:TYR:484:CZ:4346, V-A:ILE:369:CD1:3238, V-A:ARG:545:CZ:4926, H-A:GLY:454:N:4049, H-A:ASP:366:OD2:3214, H-A:ASP:366:OD1:3213, H-A:ARG:545:NE:4924, V-A:ILE:369:CG2:3236, V-B:TYR:539:CD2:9846, H-A:SER:385:OG:3409, V-B:TYR:539:CE2:9848, V-A:LEU:475:CD1:4257, V-A:PRO:482:CB:4325, H-A:HIS:383:NE2:3393, V-A:PRO:482:CG:4326, V-B:PRO:540:CA:9855, V-B:TYR:539:CG:9844, V-B:ALA:541:CB:9864, V-B:TYR:539:C:9839, V-A:HIS:456:CE1:4069, V-B:ALA:541:CA:9862, V-A:GLY:453:CA:4043, V-B:PRO:540:C:9853, V-B:TYR:539:CB:9843, V-A:PRO:482:CD:4327"]

$$$$
2k_Grossjean_2025
     RDKit          3D

 50 50  0  0  0  0  0  0  0  0999 V2000
  124.4370  133.8320   61.7290 C   0  0  0  0  0  0  0  0  0  0  0  0
  123.8160  132.7920   62.4700 O   0  0  0  0  0  0  0  0  0  0  0  0
  124.2670  131.4930   62.1100 C   0  0  0  0  0  0  0  0  0  0  0  0
  123.4430  130.4340   62.8530 C   0  0  0  0  0  0  0  0  0  0  0  0
  124.1670  130.0020   63.9960 O   0  0  0  0  0  0  0  0  0  0  0  0
  125.5780  130.1330   63.8780 C   0  0  0  0  0  0  0  0  0  0  0  0
  126.2250  128.8040   64.2900 C   0  0  0  0  0  0  0  0  0  0  0  0
  125.6970  128.4380   65.5550 O   0  0  0  0  0  0  0  0  0  0  0  0
  126.3340  129.0400   66.6720 C   0  0  0  0  0  0  0  0  0  0  0  0
  127.8400  129.1720   66.3780 C   0  0  0  0  0  0  0  0  0  0  0  0
  128.5920  127.9530   66.6860 N   0  0  0  0  0  0  0  0  0  0  0  0
  128.7800  127.4390   67.9160 C   0  0  0  0  0  0  0  0  0  0  0  0
  128.3030  127.9350   68.9390 O   0  0  0  0  0  0  0  0  0  0  0  0
  129.6590  126.1820   67.9860 C   0  0  0  0  0  0  0  0  0  0  0  0
  131.3570  126.3780   67.3410 S   0  0  0  0  0  0  0  0  0  0  0  0
  131.4040  125.8690   65.6270 C   0  0  0  0  0  0  0  0  0  0  0  0
  130.2360  125.9860   64.9460 N   0  0  0  0  0  0  0  0  0  0  0  0
  130.1970  125.6160   63.6470 C   0  0  0  0  0  0  0  0  0  0  0  0
  128.8540  125.7660   62.9600 C   0  0  0  0  0  0  0  0  0  0  0  0
  131.3120  125.1290   62.9710 C   0  0  0  0  0  0  0  0  0  0  0  0
  132.5330  125.0070   63.6530 C   0  0  0  0  0  0  0  0  0  0  0  0
  133.7590  124.4710   62.8880 C   0  0  0  0  0  0  0  0  0  0  0  0
  133.6180  124.5520   61.5640 F   0  0  0  0  0  0  0  0  0  0  0  0
  134.8450  125.1700   63.2200 F   0  0  0  0  0  0  0  0  0  0  0  0
  133.9610  123.1890   63.1920 F   0  0  0  0  0  0  0  0  0  0  0  0
  132.5860  125.3850   65.0190 C   0  0  0  0  0  0  0  0  0  0  0  0
  133.8340  125.2750   65.7810 C   0  0  0  0  0  0  0  0  0  0  0  0
  134.8200  125.1880   66.3820 N   0  0  0  0  0  0  0  0  0  0  0  0
  124.8748  134.5652   62.4223 H   0  0  0  0  0  0  0  0  0  0  0  0
  125.2298  133.4078   61.0953 H   0  0  0  0  0  0  0  0  0  0  0  0
  123.6875  134.3287   61.0953 H   0  0  0  0  0  0  0  0  0  0  0  0
  124.1493  131.3529   61.0253 H   0  0  0  0  0  0  0  0  0  0  0  0
  125.3271  131.3871   62.3838 H   0  0  0  0  0  0  0  0  0  0  0  0
  122.4824  130.8680   63.1674 H   0  0  0  0  0  0  0  0  0  0  0  0
  123.2526  129.5782   62.1887 H   0  0  0  0  0  0  0  0  0  0  0  0
  125.8433  130.3681   62.8367 H   0  0  0  0  0  0  0  0  0  0  0  0
  125.9373  130.9451   64.5272 H   0  0  0  0  0  0  0  0  0  0  0  0
  125.9897  128.0273   63.5475 H   0  0  0  0  0  0  0  0  0  0  0  0
  127.3184  128.9103   64.3463 H   0  0  0  0  0  0  0  0  0  0  0  0
  125.9039  130.0368   66.8491 H   0  0  0  0  0  0  0  0  0  0  0  0
  126.1826  128.4179   67.5665 H   0  0  0  0  0  0  0  0  0  0  0  0
  127.9698  129.4038   65.3106 H   0  0  0  0  0  0  0  0  0  0  0  0
  128.2323  129.9725   67.0225 H   0  0  0  0  0  0  0  0  0  0  0  0
  129.0050  127.4750   65.8990 H   0  0  0  0  0  0  0  0  0  0  0  0
  129.7294  125.8751   69.0400 H   0  0  0  0  0  0  0  0  0  0  0  0
  129.1733  125.4355   67.3404 H   0  0  0  0  0  0  0  0  0  0  0  0
  128.0621  125.8544   63.7183 H   0  0  0  0  0  0  0  0  0  0  0  0
  128.8624  126.6688   62.3316 H   0  0  0  0  0  0  0  0  0  0  0  0
  128.6630  124.8836   62.3316 H   0  0  0  0  0  0  0  0  0  0  0  0
  131.2371  124.8422   61.9117 H   0  0  0  0  0  0  0  0  0  0  0  0
  1  2  1  0
  2  3  1  0
  3  4  1  0
  4  5  1  0
  5  6  1  0
  6  7  1  0
  7  8  1  0
  8  9  1  0
  9 10  1  0
 10 11  1  0
 11 12  1  0
 12 13  2  0
 12 14  1  0
 14 15  1  0
 15 16  1  0
 16 17  2  0
 17 18  1  0
 18 19  1  0
 18 20  2  0
 20 21  1  0
 21 22  1  0
 22 23  1  0
 22 24  1  0
 22 25  1  0
 21 26  2  0
 26 27  1  0
 27 28  3  0
 26 16  1  0
  1 29  1  0
  1 30  1  0
  1 31  1  0
  3 32  1  0
  3 33  1  0
  4 34  1  0
  4 35  1  0
  6 36  1  0
  6 37  1  0
  7 38  1  0
  7 39  1  0
  9 40  1  0
  9 41  1  0
 10 42  1  0
 10 43  1  0
 11 44  1  0
 14 45  1  0
 14 46  1  0
 19 47  1  0
 19 48  1  0
 19 49  1  0
 20 50  1  0
M  END
>  <Binding energies>  (1) 
[-4.8]

>  <Ligand effiencies>  (1) 
[-0.16551724137931034]

>  <Interactions>  (1) 
["V-B:LEU:475:CD1:9229, V-A:GLU:543:CD:4908, V-A:ASP:366:CG:3212, V-A:ARG:545:CD:4923, V-A:ARG:545:CG:4922, V-A:GLY:453:C:4041, H-A:TYR:484:OH:4347, V-A:GLY:454:CA:4048, H-A:GLU:543:OE1:4909, V-A:ARG:545:CZ:4926, H-A:GLY:454:N:4049, H-A:ARG:545:NE:4924, V-B:GLU:543:CD:9880, V-A:HIS:456:CE1:4069, V-A:GLU:543:CG:4907, V-B:HIS:456:CE1:9041, V-A:GLY:453:CA:4043, H-B:ARG:545:NH2:9900, H-B:GLY:454:N:9021, V-B:GLY:454:CA:9020, V-B:ILE:369:CG2:8208, V-B:ILE:369:CD1:8210, V-B:ASP:366:CG:8184, H-B:GLU:543:OE2:9882, H-B:ARG:545:NE:9896, V-B:GLY:453:C:9013, V-B:GLY:453:CA:9015, V-B:ARG:545:CZ:9898, H-A:ILE:455:N:4054, V-B:TYR:484:CZ:9318"]

$$$$
3aa_Grossjean_2025
     RDKit          3D

 52 54  0  0  0  0  0  0  0  0999 V2000
  129.9940  125.1250   65.9980 C   0  0  0  0  0  0  0  0  0  0  0  0
  130.3400  126.0280   67.1860 C   0  0  0  0  0  0  0  0  0  0  0  0
  129.5210  125.6850   68.2970 O   0  0  0  0  0  0  0  0  0  0  0  0
  128.8290  126.6350   68.9760 C   0  0  0  0  0  0  0  0  0  0  0  0
  128.6960  126.6330   70.2040 O   0  0  0  0  0  0  0  0  0  0  0  0
  128.2270  127.6830   68.0840 C   0  0  0  0  0  0  0  0  0  0  0  0
  128.8210  128.9420   67.9090 C   0  0  0  0  0  0  0  0  0  0  0  0
  128.2390  129.8880   67.0710 C   0  0  0  0  0  0  0  0  0  0  0  0
  127.0590  129.5950   66.3850 C   0  0  0  0  0  0  0  0  0  0  0  0
  126.5550  130.6210   65.5600 N   0  0  0  0  0  0  0  0  0  0  0  0
  126.2870  130.6060   64.2360 C   0  0  0  0  0  0  0  0  0  0  0  0
  126.4670  129.6500   63.4810 O   0  0  0  0  0  0  0  0  0  0  0  0
  125.7250  131.9080   63.6630 C   0  0  0  0  0  0  0  0  0  0  0  0
  127.0090  132.8870   62.8260 S   0  0  0  0  0  0  0  0  0  0  0  0
  127.6020  131.9110   61.4610 C   0  0  0  0  0  0  0  0  0  0  0  0
  128.9520  131.8800   61.3620 N   0  0  0  0  0  0  0  0  0  0  0  0
  129.5370  131.1720   60.3610 C   0  0  0  0  0  0  0  0  0  0  0  0
  131.0350  131.1730   60.3280 C   0  0  0  0  0  0  0  0  0  0  0  0
  131.7240  130.8900   59.1370 C   0  0  0  0  0  0  0  0  0  0  0  0
  133.1160  130.8910   59.0980 C   0  0  0  0  0  0  0  0  0  0  0  0
  133.8390  131.1750   60.2510 C   0  0  0  0  0  0  0  0  0  0  0  0
  133.1810  131.4620   61.4420 C   0  0  0  0  0  0  0  0  0  0  0  0
  131.7890  131.4630   61.4780 C   0  0  0  0  0  0  0  0  0  0  0  0
  128.7640  130.4660   59.4340 C   0  0  0  0  0  0  0  0  0  0  0  0
  127.3630  130.4990   59.5060 C   0  0  0  0  0  0  0  0  0  0  0  0
  126.5470  129.7180   58.4590 C   0  0  0  0  0  0  0  0  0  0  0  0
  127.2730  129.3600   57.3980 F   0  0  0  0  0  0  0  0  0  0  0  0
  126.0530  128.6030   58.9980 F   0  0  0  0  0  0  0  0  0  0  0  0
  125.5360  130.4690   58.0190 F   0  0  0  0  0  0  0  0  0  0  0  0
  126.7570  131.2520   60.5410 C   0  0  0  0  0  0  0  0  0  0  0  0
  125.2990  131.3690   60.6310 C   0  0  0  0  0  0  0  0  0  0  0  0
  124.1470  131.4610   60.7020 N   0  0  0  0  0  0  0  0  0  0  0  0
  126.4520  128.3430   66.5650 C   0  0  0  0  0  0  0  0  0  0  0  0
  127.0340  127.4000   67.4050 C   0  0  0  0  0  0  0  0  0  0  0  0
  129.6234  124.1578   66.3683 H   0  0  0  0  0  0  0  0  0  0  0  0
  129.2164  125.6057   65.3863 H   0  0  0  0  0  0  0  0  0  0  0  0
  130.8938  124.9630   65.3863 H   0  0  0  0  0  0  0  0  0  0  0  0
  131.3980  125.8914   67.4544 H   0  0  0  0  0  0  0  0  0  0  0  0
  130.1639  127.0785   66.9114 H   0  0  0  0  0  0  0  0  0  0  0  0
  129.7545  129.1831   68.4386 H   0  0  0  0  0  0  0  0  0  0  0  0
  128.7119  130.8735   66.9482 H   0  0  0  0  0  0  0  0  0  0  0  0
  126.4240  131.5040   66.0310 H   0  0  0  0  0  0  0  0  0  0  0  0
  124.9332  131.6658   62.9388 H   0  0  0  0  0  0  0  0  0  0  0  0
  125.3285  132.5057   64.4970 H   0  0  0  0  0  0  0  0  0  0  0  0
  131.1560  130.6644   58.2224 H   0  0  0  0  0  0  0  0  0  0  0  0
  133.6418  130.6678   58.1579 H   0  0  0  0  0  0  0  0  0  0  0  0
  134.9386  131.1727   60.2210 H   0  0  0  0  0  0  0  0  0  0  0  0
  133.7574  131.6872   62.3514 H   0  0  0  0  0  0  0  0  0  0  0  0
  131.2717  131.6943   62.4208 H   0  0  0  0  0  0  0  0  0  0  0  0
  129.2571  129.8812   58.6435 H   0  0  0  0  0  0  0  0  0  0  0  0
  125.5142  128.1070   66.0408 H   0  0  0  0  0  0  0  0  0  0  0  0
  126.5523  126.4201   67.5382 H   0  0  0  0  0  0  0  0  0  0  0  0
  1  2  1  0
  2  3  1  0
  3  4  1  0
  4  5  2  0
  4  6  1  0
  6  7  2  0
  7  8  1  0
  8  9  2  0
  9 10  1  0
 10 11  1  0
 11 12  2  0
 11 13  1  0
 13 14  1  0
 14 15  1  0
 15 16  2  0
 16 17  1  0
 17 18  1  0
 18 19  2  0
 19 20  1  0
 20 21  2  0
 21 22  1  0
 22 23  2  0
 17 24  2  0
 24 25  1  0
 25 26  1  0
 26 27  1  0
 26 28  1  0
 26 29  1  0
 25 30  2  0
 30 31  1  0
 31 32  3  0
  9 33  1  0
 33 34  2  0
 34  6  1  0
 30 15  1  0
 23 18  1  0
  1 35  1  0
  1 36  1  0
  1 37  1  0
  2 38  1  0
  2 39  1  0
  7 40  1  0
  8 41  1  0
 10 42  1  0
 13 43  1  0
 13 44  1  0
 19 45  1  0
 20 46  1  0
 21 47  1  0
 22 48  1  0
 23 49  1  0
 24 50  1  0
 33 51  1  0
 34 52  1  0
M  END
>  <Binding energies>  (1) 
[-7.55]

>  <Ligand effiencies>  (1) 
[-0.21571428571428572]

>  <Interactions>  (1) 
["V-A:ASN:362:CB:3175, V-A:TYR:539:CE1:4875, V-A:PRO:540:CA:4883, V-A:TYR:539:CD1:4873, V-B:LEU:475:CD1:9229, V-A:GLU:543:CD:4908, V-A:PRO:540:CB:4885, V-A:ASP:366:CG:3212, V-B:GLU:543:CG:9879, V-B:GLU:543:CD:9880, V-A:TYR:484:CE2:4345, V-A:HIS:456:CE1:4069, V-A:GLU:543:CG:4907, V-B:HIS:456:CE1:9041, V-B:TYR:484:CE2:9317, V-A:GLU:543:CB:4906, V-B:GLU:543:CB:9878, H-B:TYR:484:OH:9319, H-A:ALA:541:N:4891, V-B:ASP:366:CG:8184, V-B:ASP:366:CB:8183, V-A:GLU:543:CA:4904, V-B:TYR:484:CZ:9318, V-A:PRO:540:C:4881, V-A:ASN:362:C:3171, V-A:LEU:363:CA:3184, V-A:TYR:539:CZ:4877"]

$$$$
3ab_Grossjean_2025
     RDKit          3D

 49 51  0  0  0  0  0  0  0  0999 V2000
  128.6300  127.8240   67.4770 C   0  0  0  0  0  0  0  0  0  0  0  0
  129.4220  127.0500   68.3670 O   0  0  0  0  0  0  0  0  0  0  0  0
  129.6820  125.7420   68.1130 C   0  0  0  0  0  0  0  0  0  0  0  0
  129.3540  124.8240   68.8690 O   0  0  0  0  0  0  0  0  0  0  0  0
  130.4070  125.5220   66.8160 C   0  0  0  0  0  0  0  0  0  0  0  0
  131.6680  126.0840   66.5650 C   0  0  0  0  0  0  0  0  0  0  0  0
  132.3170  125.8620   65.3540 C   0  0  0  0  0  0  0  0  0  0  0  0
  131.7110  125.0710   64.3660 C   0  0  0  0  0  0  0  0  0  0  0  0
  132.2770  124.7760   63.1100 N   0  0  0  0  0  0  0  0  0  0  0  0
  133.5690  124.7740   62.7210 C   0  0  0  0  0  0  0  0  0  0  0  0
  134.5310  125.0590   63.4340 O   0  0  0  0  0  0  0  0  0  0  0  0
  133.8140  124.3810   61.2630 C   0  0  0  0  0  0  0  0  0  0  0  0
  134.0600  122.5900   61.0680 S   0  0  0  0  0  0  0  0  0  0  0  0
  132.4540  121.8220   61.1170 C   0  0  0  0  0  0  0  0  0  0  0  0
  131.4370  122.7030   61.2690 N   0  0  0  0  0  0  0  0  0  0  0  0
  130.1560  122.2550   61.3170 C   0  0  0  0  0  0  0  0  0  0  0  0
  129.0880  123.2940   61.4840 C   0  0  0  0  0  0  0  0  0  0  0  0
  127.7350  122.9280   61.5610 C   0  0  0  0  0  0  0  0  0  0  0  0
  126.7390  123.8890   61.7170 C   0  0  0  0  0  0  0  0  0  0  0  0
  127.0840  125.2340   61.7980 C   0  0  0  0  0  0  0  0  0  0  0  0
  128.4170  125.6240   61.7200 C   0  0  0  0  0  0  0  0  0  0  0  0
  129.4090  124.6600   61.5640 C   0  0  0  0  0  0  0  0  0  0  0  0
  129.8720  120.8870   61.2330 C   0  0  0  0  0  0  0  0  0  0  0  0
  130.9100  119.9530   61.0950 C   0  0  0  0  0  0  0  0  0  0  0  0
  130.5550  118.4560   61.0120 C   0  0  0  0  0  0  0  0  0  0  0  0
  131.2850  117.7050   61.8390 F   0  0  0  0  0  0  0  0  0  0  0  0
  129.2740  118.2690   61.3290 F   0  0  0  0  0  0  0  0  0  0  0  0
  130.7640  118.0080   59.7730 F   0  0  0  0  0  0  0  0  0  0  0  0
  132.2450  120.4270   61.0430 C   0  0  0  0  0  0  0  0  0  0  0  0
  133.3690  119.4910   60.9570 C   0  0  0  0  0  0  0  0  0  0  0  0
  134.2550  118.7490   60.8880 N   0  0  0  0  0  0  0  0  0  0  0  0
  130.4590  124.5060   64.6140 C   0  0  0  0  0  0  0  0  0  0  0  0
  129.8120  124.7310   65.8250 C   0  0  0  0  0  0  0  0  0  0  0  0
  127.9610  128.4778   68.0557 H   0  0  0  0  0  0  0  0  0  0  0  0
  129.2857  128.4391   66.8431 H   0  0  0  0  0  0  0  0  0  0  0  0
  128.0302  127.1544   66.8431 H   0  0  0  0  0  0  0  0  0  0  0  0
  132.1488  126.7068   67.3337 H   0  0  0  0  0  0  0  0  0  0  0  0
  133.3062  126.3071   65.1712 H   0  0  0  0  0  0  0  0  0  0  0  0
  131.5970  124.5680   62.3930 H   0  0  0  0  0  0  0  0  0  0  0  0
  132.9446  124.6868   60.6625 H   0  0  0  0  0  0  0  0  0  0  0  0
  134.7306  124.8870   60.9257 H   0  0  0  0  0  0  0  0  0  0  0  0
  127.4570  121.8656   61.4971 H   0  0  0  0  0  0  0  0  0  0  0  0
  125.6834  123.5854   61.7759 H   0  0  0  0  0  0  0  0  0  0  0  0
  126.2984  125.9935   61.9244 H   0  0  0  0  0  0  0  0  0  0  0  0
  128.6858  126.6889   61.7813 H   0  0  0  0  0  0  0  0  0  0  0  0
  130.4618  124.9726   61.5023 H   0  0  0  0  0  0  0  0  0  0  0  0
  128.8284  120.5419   61.2754 H   0  0  0  0  0  0  0  0  0  0  0  0
  129.9808  123.8789   63.8471 H   0  0  0  0  0  0  0  0  0  0  0  0
  128.8236  124.2833   66.0059 H   0  0  0  0  0  0  0  0  0  0  0  0
  1  2  1  0
  2  3  1  0
  3  4  2  0
  3  5  1  0
  5  6  2  0
  6  7  1  0
  7  8  2  0
  8  9  1  0
  9 10  1  0
 10 11  2  0
 10 12  1  0
 12 13  1  0
 13 14  1  0
 14 15  2  0
 15 16  1  0
 16 17  1  0
 17 18  2  0
 18 19  1  0
 19 20  2  0
 20 21  1  0
 21 22  2  0
 16 23  2  0
 23 24  1  0
 24 25  1  0
 25 26  1  0
 25 27  1  0
 25 28  1  0
 24 29  2  0
 29 30  1  0
 30 31  3  0
  8 32  1  0
 32 33  2  0
 33  5  1  0
 29 14  1  0
 22 17  1  0
  1 34  1  0
  1 35  1  0
  1 36  1  0
  6 37  1  0
  7 38  1  0
  9 39  1  0
 12 40  1  0
 12 41  1  0
 18 42  1  0
 19 43  1  0
 20 44  1  0
 21 45  1  0
 22 46  1  0
 23 47  1  0
 32 48  1  0
 33 49  1  0
M  END
>  <Binding energies>  (1) 
[-7.53]

>  <Ligand effiencies>  (1) 
[-0.2214705882352941]

>  <Interactions>  (1) 
["V-A:ASP:366:CG:3212, V-A:TYR:484:CZ:4346, H-A:ARG:545:NH2:4928, H-A:ARG:545:NH1:4927, V-A:ARG:545:CZ:4926, H-A:GLY:454:N:4049, V-A:ILE:369:CG2:3236, V-B:TYR:539:CD2:9846, H-A:SER:385:OG:3409, V-A:LEU:475:CD1:4257, V-A:PRO:482:CB:4325, H-A:HIS:383:NE2:3393, V-A:PRO:482:CG:4326, V-B:PRO:540:CA:9855, V-B:TYR:539:CG:9844, V-B:GLU:543:CG:9879, V-B:ALA:541:CB:9864, V-B:GLU:543:CD:9880, V-B:TYR:539:C:9839, V-A:TYR:484:CE2:4345, V-A:HIS:456:CE1:4069, V-B:ALA:541:CA:9862, V-B:HIS:456:CE1:9041, V-B:GLU:543:CB:9878, V-B:PRO:540:C:9853, V-B:TYR:539:CB:9843, V-A:PRO:482:CD:4327"]

$$$$
3ac_Grossjean_2025
     RDKit          3D

 47 49  0  0  0  0  0  0  0  0999 V2000
  124.1350  130.6080   63.1990 C   0  0  0  0  0  0  0  0  0  0  0  0
  124.3660  130.4140   64.5910 O   0  0  0  0  0  0  0  0  0  0  0  0
  125.4700  129.6910   64.9980 C   0  0  0  0  0  0  0  0  0  0  0  0
  125.3090  128.8920   66.1290 C   0  0  0  0  0  0  0  0  0  0  0  0
  126.3640  128.1240   66.6110 C   0  0  0  0  0  0  0  0  0  0  0  0
  127.6040  128.1510   65.9710 C   0  0  0  0  0  0  0  0  0  0  0  0
  128.6040  127.3260   66.5190 N   0  0  0  0  0  0  0  0  0  0  0  0
  128.5310  126.4870   67.5750 C   0  0  0  0  0  0  0  0  0  0  0  0
  127.5170  126.2640   68.2380 O   0  0  0  0  0  0  0  0  0  0  0  0
  129.8330  125.7740   67.9420 C   0  0  0  0  0  0  0  0  0  0  0  0
  131.2790  126.5240   67.1320 S   0  0  0  0  0  0  0  0  0  0  0  0
  131.4330  125.8430   65.4920 C   0  0  0  0  0  0  0  0  0  0  0  0
  130.2580  125.8080   64.8170 N   0  0  0  0  0  0  0  0  0  0  0  0
  130.2200  125.3200   63.5500 C   0  0  0  0  0  0  0  0  0  0  0  0
  128.8790  125.3090   62.8770 C   0  0  0  0  0  0  0  0  0  0  0  0
  128.3450  124.1180   62.3590 C   0  0  0  0  0  0  0  0  0  0  0  0
  127.1000  124.1000   61.7380 C   0  0  0  0  0  0  0  0  0  0  0  0
  126.3690  125.2780   61.6250 C   0  0  0  0  0  0  0  0  0  0  0  0
  126.8760  126.4730   62.1240 C   0  0  0  0  0  0  0  0  0  0  0  0
  128.1230  126.4860   62.7440 C   0  0  0  0  0  0  0  0  0  0  0  0
  131.3770  124.8350   62.9340 C   0  0  0  0  0  0  0  0  0  0  0  0
  132.6010  124.8400   63.6180 C   0  0  0  0  0  0  0  0  0  0  0  0
  133.8520  124.2900   62.9030 C   0  0  0  0  0  0  0  0  0  0  0  0
  133.7530  124.3450   61.5730 F   0  0  0  0  0  0  0  0  0  0  0  0
  134.9300  124.9960   63.2500 F   0  0  0  0  0  0  0  0  0  0  0  0
  134.0430  123.0150   63.2410 F   0  0  0  0  0  0  0  0  0  0  0  0
  132.6360  125.3440   64.9420 C   0  0  0  0  0  0  0  0  0  0  0  0
  133.8740  125.2980   65.7230 C   0  0  0  0  0  0  0  0  0  0  0  0
  134.8530  125.2610   66.3400 N   0  0  0  0  0  0  0  0  0  0  0  0
  127.7730  128.9470   64.8270 C   0  0  0  0  0  0  0  0  0  0  0  0
  126.7140  129.7130   64.3470 C   0  0  0  0  0  0  0  0  0  0  0  0
  123.2994  131.3098   63.0603 H   0  0  0  0  0  0  0  0  0  0  0  0
  125.0412  131.0198   62.7308 H   0  0  0  0  0  0  0  0  0  0  0  0
  123.8860  129.6443   62.7308 H   0  0  0  0  0  0  0  0  0  0  0  0
  124.3380  128.8686   66.6454 H   0  0  0  0  0  0  0  0  0  0  0  0
  126.2203  127.4928   67.5003 H   0  0  0  0  0  0  0  0  0  0  0  0
  129.4770  127.3360   66.0140 H   0  0  0  0  0  0  0  0  0  0  0  0
  129.9706  125.8267   69.0321 H   0  0  0  0  0  0  0  0  0  0  0  0
  129.7559  124.7320   67.5981 H   0  0  0  0  0  0  0  0  0  0  0  0
  128.9202  123.1844   62.4456 H   0  0  0  0  0  0  0  0  0  0  0  0
  126.6956  123.1584   61.3382 H   0  0  0  0  0  0  0  0  0  0  0  0
  125.3830  125.2643   61.1375 H   0  0  0  0  0  0  0  0  0  0  0  0
  126.2955  127.4025   62.0295 H   0  0  0  0  0  0  0  0  0  0  0  0
  128.5226  127.4330   63.1359 H   0  0  0  0  0  0  0  0  0  0  0  0
  131.3271  124.4469   61.9060 H   0  0  0  0  0  0  0  0  0  0  0  0
  128.7433  128.9656   64.3092 H   0  0  0  0  0  0  0  0  0  0  0  0
  126.8526  130.3388   63.4530 H   0  0  0  0  0  0  0  0  0  0  0  0
  1  2  1  0
  2  3  1  0
  3  4  2  0
  4  5  1  0
  5  6  2  0
  6  7  1  0
  7  8  1  0
  8  9  2  0
  8 10  1  0
 10 11  1  0
 11 12  1  0
 12 13  2  0
 13 14  1  0
 14 15  1  0
 15 16  2  0
 16 17  1  0
 17 18  2  0
 18 19  1  0
 19 20  2  0
 14 21  2  0
 21 22  1  0
 22 23  1  0
 23 24  1  0
 23 25  1  0
 23 26  1  0
 22 27  2  0
 27 28  1  0
 28 29  3  0
  6 30  1  0
 30 31  2  0
 31  3  1  0
 27 12  1  0
 20 15  1  0
  1 32  1  0
  1 33  1  0
  1 34  1  0
  4 35  1  0
  5 36  1  0
  7 37  1  0
 10 38  1  0
 10 39  1  0
 16 40  1  0
 17 41  1  0
 18 42  1  0
 19 43  1  0
 20 44  1  0
 21 45  1  0
 30 46  1  0
 31 47  1  0
M  END
>  <Binding energies>  (1) 
[-7.27]

>  <Ligand effiencies>  (1) 
[-0.2271875]

>  <Interactions>  (1) 
["V-A:GLU:543:CD:4908, V-A:ASP:366:CG:3212, V-A:ARG:545:CD:4923, V-A:ARG:545:CG:4922, V-A:GLY:453:C:4041, H-A:TYR:484:OH:4347, V-A:GLY:454:CA:4048, H-A:GLU:543:OE1:4909, V-A:ARG:545:CZ:4926, H-A:GLY:454:N:4049, H-A:ARG:545:NE:4924, V-B:GLU:543:CG:9879, V-B:GLU:543:CD:9880, V-A:TYR:484:CE2:4345, V-A:HIS:456:CE1:4069, V-A:GLU:543:CG:4907, V-B:HIS:456:CE1:9041, V-A:GLY:453:CA:4043, V-B:GLU:543:CB:9878, H-B:TYR:484:OH:9319, H-B:GLY:454:N:9021, V-B:GLY:454:CA:9020, V-B:ILE:369:CD1:8210, H-B:GLU:543:OE2:9882, V-B:ARG:545:CD:9895, V-B:ARG:545:CZ:9898, H-A:ILE:455:N:4054"]

$$$$
3ad_Grossjean_2025
     RDKit          3D

 43 45  0  0  0  0  0  0  0  0999 V2000
  124.1860  131.4720   60.8060 N   0  0  0  0  0  0  0  0  0  0  0  0
  125.3350  131.4270   60.6730 C   0  0  0  0  0  0  0  0  0  0  0  0
  126.7900  131.3680   60.5020 C   0  0  0  0  0  0  0  0  0  0  0  0
  127.3710  130.5080   59.5390 C   0  0  0  0  0  0  0  0  0  0  0  0
  126.5310  129.6280   58.5940 C   0  0  0  0  0  0  0  0  0  0  0  0
  125.8660  128.6650   59.2360 F   0  0  0  0  0  0  0  0  0  0  0  0
  125.6330  130.3780   57.9520 F   0  0  0  0  0  0  0  0  0  0  0  0
  127.3200  129.0360   57.6950 F   0  0  0  0  0  0  0  0  0  0  0  0
  128.7700  130.4530   59.4470 C   0  0  0  0  0  0  0  0  0  0  0  0
  129.5660  131.2320   60.2940 C   0  0  0  0  0  0  0  0  0  0  0  0
  131.0650  131.2010   60.2480 C   0  0  0  0  0  0  0  0  0  0  0  0
  131.8230  131.4730   61.3980 C   0  0  0  0  0  0  0  0  0  0  0  0
  133.2140  131.4450   61.3640 C   0  0  0  0  0  0  0  0  0  0  0  0
  133.8690  131.1430   60.1730 C   0  0  0  0  0  0  0  0  0  0  0  0
  133.1410  130.8680   59.0210 C   0  0  0  0  0  0  0  0  0  0  0  0
  131.7490  130.8960   59.0600 C   0  0  0  0  0  0  0  0  0  0  0  0
  129.0040  132.0500   61.2190 N   0  0  0  0  0  0  0  0  0  0  0  0
  127.6560  132.1350   61.3130 C   0  0  0  0  0  0  0  0  0  0  0  0
  127.0970  133.2640   62.5700 S   0  0  0  0  0  0  0  0  0  0  0  0
  126.3710  132.2670   63.9060 C   0  0  0  0  0  0  0  0  0  0  0  0
  127.3510  131.2220   64.4450 C   0  0  0  0  0  0  0  0  0  0  0  0
  128.4250  131.0550   63.8670 O   0  0  0  0  0  0  0  0  0  0  0  0
  126.9370  130.5520   65.5410 N   0  0  0  0  0  0  0  0  0  0  0  0
  127.5900  129.5520   66.2850 C   0  0  0  0  0  0  0  0  0  0  0  0
  128.2130  129.9810   67.4610 C   0  0  0  0  0  0  0  0  0  0  0  0
  128.8900  129.0720   68.2700 C   0  0  0  0  0  0  0  0  0  0  0  0
  128.9510  127.7320   67.9010 C   0  0  0  0  0  0  0  0  0  0  0  0
  128.3410  127.2920   66.7290 C   0  0  0  0  0  0  0  0  0  0  0  0
  127.6620  128.1970   65.9170 C   0  0  0  0  0  0  0  0  0  0  0  0
  129.2437  129.7937   58.7048 H   0  0  0  0  0  0  0  0  0  0  0  0
  131.3093  131.7120   62.3409 H   0  0  0  0  0  0  0  0  0  0  0  0
  133.7934  131.6605   62.2739 H   0  0  0  0  0  0  0  0  0  0  0  0
  134.9684  131.1219   60.1434 H   0  0  0  0  0  0  0  0  0  0  0  0
  133.6623  130.6292   58.0823 H   0  0  0  0  0  0  0  0  0  0  0  0
  131.1769  130.6759   58.1466 H   0  0  0  0  0  0  0  0  0  0  0  0
  126.0786  132.9361   64.7287 H   0  0  0  0  0  0  0  0  0  0  0  0
  125.5008  131.7340   63.4952 H   0  0  0  0  0  0  0  0  0  0  0  0
  126.0050  130.7650   65.8670 H   0  0  0  0  0  0  0  0  0  0  0  0
  128.1681  131.0418   67.7485 H   0  0  0  0  0  0  0  0  0  0  0  0
  129.3746  129.4121   69.1971 H   0  0  0  0  0  0  0  0  0  0  0  0
  129.4855  127.0140   68.5404 H   0  0  0  0  0  0  0  0  0  0  0  0
  128.3954  126.2307   66.4449 H   0  0  0  0  0  0  0  0  0  0  0  0
  127.1826  127.8521   64.9889 H   0  0  0  0  0  0  0  0  0  0  0  0
  1  2  3  0
  2  3  1  0
  3  4  2  0
  4  5  1  0
  5  6  1  0
  5  7  1  0
  5  8  1  0
  4  9  1  0
  9 10  2  0
 10 11  1  0
 11 12  2  0
 12 13  1  0
 13 14  2  0
 14 15  1  0
 15 16  2  0
 10 17  1  0
 17 18  2  0
 18 19  1  0
 19 20  1  0
 20 21  1  0
 21 22  2  0
 21 23  1  0
 23 24  1  0
 24 25  2  0
 25 26  1  0
 26 27  2  0
 27 28  1  0
 28 29  2  0
 18  3  1  0
 29 24  1  0
 16 11  1  0
  9 30  1  0
 12 31  1  0
 13 32  1  0
 14 33  1  0
 15 34  1  0
 16 35  1  0
 20 36  1  0
 20 37  1  0
 23 38  1  0
 25 39  1  0
 26 40  1  0
 27 41  1  0
 28 42  1  0
 29 43  1  0
M  END
>  <Binding energies>  (1) 
[-6.98]

>  <Ligand effiencies>  (1) 
[-0.2326666666666667]

>  <Interactions>  (1) 
["V-A:ASN:362:CB:3175, V-A:ALA:541:CB:4892, V-A:TYR:539:CE1:4875, V-A:PRO:540:CA:4883, V-B:LEU:475:CD1:9229, V-A:GLU:543:CD:4908, V-A:PRO:540:CB:4885, V-A:ASP:366:CG:3212, V-B:GLU:543:CD:9880, V-A:GLU:543:CG:4907, V-B:HIS:456:CE1:9041, V-B:TYR:484:CE2:9317, V-A:GLU:543:CB:4906, H-B:TYR:484:OH:9319, H-A:ALA:541:N:4891, V-B:ASP:366:CG:8184, V-B:ASP:366:CB:8183, V-A:GLU:543:C:4902, V-A:GLU:543:CA:4904, V-B:TYR:484:CZ:9318, V-A:PRO:540:C:4881, V-A:ASN:362:C:3171, V-A:LEU:363:CA:3184, V-A:TYR:539:CZ:4877"]

$$$$
3af_Grossjean_2025
     RDKit          3D

 42 44  0  0  0  0  0  0  0  0999 V2000
  125.6550  129.4960   61.5040 N   0  0  0  0  0  0  0  0  0  0  0  0
  126.0430  129.1900   62.5510 C   0  0  0  0  0  0  0  0  0  0  0  0
  126.5330  128.8030   63.8770 C   0  0  0  0  0  0  0  0  0  0  0  0
  125.8350  129.1900   65.0460 C   0  0  0  0  0  0  0  0  0  0  0  0
  124.5140  129.9840   65.0020 C   0  0  0  0  0  0  0  0  0  0  0  0
  123.6900  129.5680   64.0370 F   0  0  0  0  0  0  0  0  0  0  0  0
  123.8690  129.8590   66.1630 F   0  0  0  0  0  0  0  0  0  0  0  0
  124.7630  131.2760   64.7820 F   0  0  0  0  0  0  0  0  0  0  0  0
  126.3720  128.8430   66.2950 C   0  0  0  0  0  0  0  0  0  0  0  0
  127.5740  128.1320   66.3740 C   0  0  0  0  0  0  0  0  0  0  0  0
  128.2020  127.7520   67.6810 C   0  0  0  0  0  0  0  0  0  0  0  0
  128.7990  128.7240   68.5000 C   0  0  0  0  0  0  0  0  0  0  0  0
  129.3820  128.3770   69.7160 C   0  0  0  0  0  0  0  0  0  0  0  0
  129.3750  127.0500   70.1300 C   0  0  0  0  0  0  0  0  0  0  0  0
  128.7880  126.0680   69.3400 C   0  0  0  0  0  0  0  0  0  0  0  0
  128.2060  126.4180   68.1250 C   0  0  0  0  0  0  0  0  0  0  0  0
  128.2420  127.7660   65.2500 N   0  0  0  0  0  0  0  0  0  0  0  0
  127.7310  128.0700   64.0330 C   0  0  0  0  0  0  0  0  0  0  0  0
  128.7390  127.4950   62.6810 S   0  0  0  0  0  0  0  0  0  0  0  0
  128.7770  125.6780   62.7410 C   0  0  0  0  0  0  0  0  0  0  0  0
  129.9940  125.1600   63.5080 C   0  0  0  0  0  0  0  0  0  0  0  0
  130.3980  124.0180   63.2890 O   0  0  0  0  0  0  0  0  0  0  0  0
  130.5320  126.0260   64.3930 N   0  0  0  0  0  0  0  0  0  0  0  0
  131.6370  125.8630   65.2520 C   0  0  0  0  0  0  0  0  0  0  0  0
  131.6730  126.2040   66.6160 C   0  0  0  0  0  0  0  0  0  0  0  0
  132.8410  125.9880   67.3510 C   0  0  0  0  0  0  0  0  0  0  0  0
  133.9460  125.4360   66.7030 C   0  0  0  0  0  0  0  0  0  0  0  0
  133.9360  125.0980   65.3900 N   0  0  0  0  0  0  0  0  0  0  0  0
  132.7940  125.3130   64.6890 C   0  0  0  0  0  0  0  0  0  0  0  0
  125.8452  129.1315   67.2165 H   0  0  0  0  0  0  0  0  0  0  0  0
  128.8062  129.7752   68.1761 H   0  0  0  0  0  0  0  0  0  0  0  0
  129.8462  129.1498   70.3464 H   0  0  0  0  0  0  0  0  0  0  0  0
  129.8372  126.7749   71.0895 H   0  0  0  0  0  0  0  0  0  0  0  0
  128.7835  125.0198   69.6735 H   0  0  0  0  0  0  0  0  0  0  0  0
  127.7420  125.6388   67.5025 H   0  0  0  0  0  0  0  0  0  0  0  0
  127.8637  125.3191   63.2381 H   0  0  0  0  0  0  0  0  0  0  0  0
  128.8389  125.3033   61.7086 H   0  0  0  0  0  0  0  0  0  0  0  0
  130.0920  126.9320   64.4520 H   0  0  0  0  0  0  0  0  0  0  0  0
  130.7865  126.6383   67.1012 H   0  0  0  0  0  0  0  0  0  0  0  0
  132.8884  126.2479   68.4188 H   0  0  0  0  0  0  0  0  0  0  0  0
  134.8657  125.2676   67.2825 H   0  0  0  0  0  0  0  0  0  0  0  0
  132.7770  125.0409   63.6233 H   0  0  0  0  0  0  0  0  0  0  0  0
  1  2  3  0
  2  3  1  0
  3  4  2  0
  4  5  1  0
  5  6  1  0
  5  7  1  0
  5  8  1  0
  4  9  1  0
  9 10  2  0
 10 11  1  0
 11 12  2  0
 12 13  1  0
 13 14  2  0
 14 15  1  0
 15 16  2  0
 10 17  1  0
 17 18  2  0
 18 19  1  0
 19 20  1  0
 20 21  1  0
 21 22  2  0
 21 23  1  0
 23 24  1  0
 24 25  2  0
 25 26  1  0
 26 27  2  0
 27 28  1  0
 28 29  2  0
 18  3  1  0
 29 24  1  0
 16 11  1  0
  9 30  1  0
 12 31  1  0
 13 32  1  0
 14 33  1  0
 15 34  1  0
 16 35  1  0
 20 36  1  0
 20 37  1  0
 23 38  1  0
 25 39  1  0
 26 40  1  0
 27 41  1  0
 29 42  1  0
M  END
>  <Binding energies>  (1) 
[-7.1]

>  <Ligand effiencies>  (1) 
[-0.23666666666666666]

>  <Interactions>  (1) 
["V-B:LEU:475:CD1:9229, V-A:GLU:543:CD:4908, V-A:ARG:545:CD:4923, V-A:ARG:545:CG:4922, H-A:TYR:484:OH:4347, H-A:GLU:543:OE2:4910, V-A:TYR:484:CZ:4346, H-A:GLU:543:OE1:4909, V-A:ARG:545:CZ:4926, H-A:GLY:454:N:4049, H-A:ARG:545:NE:4924, V-B:GLU:543:CD:9880, V-A:HIS:456:CE1:4069, V-B:HIS:456:CE1:9041, V-A:GLU:543:CB:4906, V-B:GLU:543:C:9874, V-B:GLU:543:CB:9878, V-B:GLY:454:CA:9020, V-A:GLU:543:C:4902, V-B:GLY:454:C:9018, V-B:ARG:545:CD:9895, V-B:GLY:453:C:9013, V-B:GLY:453:CA:9015, V-B:ARG:545:CZ:9898"]

$$$$
3ag_Grossjean_2025
     RDKit          3D

 46 48  0  0  0  0  0  0  0  0999 V2000
  134.3120  119.1350   60.5550 N   0  0  0  0  0  0  0  0  0  0  0  0
  133.3490  119.7650   60.6820 C   0  0  0  0  0  0  0  0  0  0  0  0
  132.1280  120.5590   60.8440 C   0  0  0  0  0  0  0  0  0  0  0  0
  130.8670  119.9280   60.9860 C   0  0  0  0  0  0  0  0  0  0  0  0
  130.7050  118.3960   61.0390 C   0  0  0  0  0  0  0  0  0  0  0  0
  131.2510  117.7810   59.9880 F   0  0  0  0  0  0  0  0  0  0  0  0
  131.2920  117.9160   62.1350 F   0  0  0  0  0  0  0  0  0  0  0  0
  129.4120  118.0720   61.0620 F   0  0  0  0  0  0  0  0  0  0  0  0
  129.7220  120.7320   61.0840 C   0  0  0  0  0  0  0  0  0  0  0  0
  129.8290  122.1260   61.0290 C   0  0  0  0  0  0  0  0  0  0  0  0
  128.6400  123.0320   61.1250 C   0  0  0  0  0  0  0  0  0  0  0  0
  128.6320  124.1110   62.0230 C   0  0  0  0  0  0  0  0  0  0  0  0
  127.5300  124.9570   62.1180 C   0  0  0  0  0  0  0  0  0  0  0  0
  126.4170  124.7340   61.3140 C   0  0  0  0  0  0  0  0  0  0  0  0
  126.3980  123.6690   60.4180 C   0  0  0  0  0  0  0  0  0  0  0  0
  127.5010  122.8260   60.3270 C   0  0  0  0  0  0  0  0  0  0  0  0
  131.0410  122.7270   60.9050 N   0  0  0  0  0  0  0  0  0  0  0  0
  132.1620  121.9710   60.8290 C   0  0  0  0  0  0  0  0  0  0  0  0
  133.6550  122.9270   60.6740 S   0  0  0  0  0  0  0  0  0  0  0  0
  134.3130  123.1800   62.3500 C   0  0  0  0  0  0  0  0  0  0  0  0
  133.6340  124.3480   63.0670 C   0  0  0  0  0  0  0  0  0  0  0  0
  134.2240  124.9390   63.9730 O   0  0  0  0  0  0  0  0  0  0  0  0
  132.3990  124.6710   62.6460 N   0  0  0  0  0  0  0  0  0  0  0  0
  131.5860  125.7700   63.1640 C   0  0  0  0  0  0  0  0  0  0  0  0
  131.2580  125.6550   64.6490 C   0  0  0  0  0  0  0  0  0  0  0  0
  132.1220  126.2120   65.5960 C   0  0  0  0  0  0  0  0  0  0  0  0
  131.8110  126.1350   66.9510 C   0  0  0  0  0  0  0  0  0  0  0  0
  130.6330  125.5090   67.3540 C   0  0  0  0  0  0  0  0  0  0  0  0
  129.7600  124.9650   66.4150 C   0  0  0  0  0  0  0  0  0  0  0  0
  130.0690  125.0430   65.0600 C   0  0  0  0  0  0  0  0  0  0  0  0
  128.7339  120.2639   61.2048 H   0  0  0  0  0  0  0  0  0  0  0  0
  129.5096  124.2909   62.6613 H   0  0  0  0  0  0  0  0  0  0  0  0
  127.5396  125.7986   62.8263 H   0  0  0  0  0  0  0  0  0  0  0  0
  125.5469  125.4031   61.3867 H   0  0  0  0  0  0  0  0  0  0  0  0
  125.5154  123.4948   59.7851 H   0  0  0  0  0  0  0  0  0  0  0  0
  127.4816  121.9844   59.6190 H   0  0  0  0  0  0  0  0  0  0  0  0
  134.1522  122.2630   62.9359 H   0  0  0  0  0  0  0  0  0  0  0  0
  135.3838  123.4152   62.2605 H   0  0  0  0  0  0  0  0  0  0  0  0
  131.9940  124.1380   61.8890 H   0  0  0  0  0  0  0  0  0  0  0  0
  132.1333  126.7105   63.0028 H   0  0  0  0  0  0  0  0  0  0  0  0
  130.6282  125.7382   62.6240 H   0  0  0  0  0  0  0  0  0  0  0  0
  133.0470  126.7108   65.2711 H   0  0  0  0  0  0  0  0  0  0  0  0
  132.4918  126.5662   67.6997 H   0  0  0  0  0  0  0  0  0  0  0  0
  130.3901  125.4438   68.4249 H   0  0  0  0  0  0  0  0  0  0  0  0
  128.8307  124.4760   66.7426 H   0  0  0  0  0  0  0  0  0  0  0  0
  129.3789  124.6238   64.3130 H   0  0  0  0  0  0  0  0  0  0  0  0
  1  2  3  0
  2  3  1  0
  3  4  2  0
  4  5  1  0
  5  6  1  0
  5  7  1  0
  5  8  1  0
  4  9  1  0
  9 10  2  0
 10 11  1  0
 11 12  2  0
 12 13  1  0
 13 14  2  0
 14 15  1  0
 15 16  2  0
 10 17  1  0
 17 18  2  0
 18 19  1  0
 19 20  1  0
 20 21  1  0
 21 22  2  0
 21 23  1  0
 23 24  1  0
 24 25  1  0
 25 26  2  0
 26 27  1  0
 27 28  2  0
 28 29  1  0
 29 30  2  0
 18  3  1  0
 30 25  1  0
 16 11  1  0
  9 31  1  0
 12 32  1  0
 13 33  1  0
 14 34  1  0
 15 35  1  0
 16 36  1  0
 20 37  1  0
 20 38  1  0
 23 39  1  0
 24 40  1  0
 24 41  1  0
 26 42  1  0
 27 43  1  0
 28 44  1  0
 29 45  1  0
 30 46  1  0
M  END
>  <Binding energies>  (1) 
[-7.4]

>  <Ligand effiencies>  (1) 
[-0.23870967741935484]

>  <Interactions>  (1) 
["V-A:GLU:543:CD:4908, V-A:GLY:453:C:4041, V-A:GLY:454:CA:4048, V-A:TYR:484:CZ:4346, H-A:ARG:545:NH2:4928, V-A:ILE:369:CD1:3238, H-A:ARG:545:NH1:4927, V-A:ARG:545:CZ:4926, H-A:GLY:454:N:4049, V-A:ILE:369:CG2:3236, V-B:TYR:539:CD2:9846, H-A:SER:385:OG:3409, V-A:LEU:475:CD1:4257, V-A:HIS:383:CE1:3392, V-A:PRO:482:CB:4325, V-A:PRO:482:CG:4326, V-B:PRO:540:CA:9855, V-B:GLU:543:CG:9879, V-B:ALA:541:CB:9864, V-B:GLU:543:CD:9880, V-B:PRO:540:CB:9857, V-B:TYR:539:C:9839, V-A:TYR:484:CE2:4345, V-A:HIS:456:CE1:4069, V-B:ALA:541:CA:9862, V-B:GLU:543:CB:9878, V-B:PRO:540:C:9853, V-B:TYR:539:CB:9843, V-A:PRO:482:CD:4327"]

$$$$
3ai_Grossjean_2025
     RDKit          3D

 39 41  0  0  0  0  0  0  0  0999 V2000
  134.5890  119.8750   60.9570 N   0  0  0  0  0  0  0  0  0  0  0  0
  133.5160  120.3020   60.8850 C   0  0  0  0  0  0  0  0  0  0  0  0
  132.1560  120.8430   60.7970 C   0  0  0  0  0  0  0  0  0  0  0  0
  131.0390  120.0560   61.1690 C   0  0  0  0  0  0  0  0  0  0  0  0
  131.1770  118.6250   61.7240 C   0  0  0  0  0  0  0  0  0  0  0  0
  130.4020  118.4060   62.7890 F   0  0  0  0  0  0  0  0  0  0  0  0
  130.8330  117.7390   60.7880 F   0  0  0  0  0  0  0  0  0  0  0  0
  132.4370  118.3960   62.0950 F   0  0  0  0  0  0  0  0  0  0  0  0
  129.7550  120.6020   61.0200 C   0  0  0  0  0  0  0  0  0  0  0  0
  129.5900  121.8950   60.5120 C   0  0  0  0  0  0  0  0  0  0  0  0
  128.2430  122.5240   60.3220 C   0  0  0  0  0  0  0  0  0  0  0  0
  127.4620  122.8930   61.4290 C   0  0  0  0  0  0  0  0  0  0  0  0
  126.2120  123.4820   61.2600 C   0  0  0  0  0  0  0  0  0  0  0  0
  125.7250  123.7120   59.9780 C   0  0  0  0  0  0  0  0  0  0  0  0
  126.4800  123.3580   58.8640 C   0  0  0  0  0  0  0  0  0  0  0  0
  127.7290  122.7690   59.0370 C   0  0  0  0  0  0  0  0  0  0  0  0
  130.6640  122.6420   60.1490 N   0  0  0  0  0  0  0  0  0  0  0  0
  131.9150  122.1460   60.3060 C   0  0  0  0  0  0  0  0  0  0  0  0
  133.1950  123.2750   59.7980 S   0  0  0  0  0  0  0  0  0  0  0  0
  134.4380  123.3490   61.1320 C   0  0  0  0  0  0  0  0  0  0  0  0
  133.8600  123.4670   62.5500 C   0  0  0  0  0  0  0  0  0  0  0  0
  133.4290  122.4730   63.1400 O   0  0  0  0  0  0  0  0  0  0  0  0
  133.8730  124.7180   63.0620 N   0  0  0  0  0  0  0  0  0  0  0  0
  133.4240  125.1190   64.3140 C   0  0  0  0  0  0  0  0  0  0  0  0
  132.1250  125.5660   64.5510 C   0  0  0  0  0  0  0  0  0  0  0  0
  132.0880  125.8640   65.8940 C   0  0  0  0  0  0  0  0  0  0  0  0
  133.3010  125.6090   66.4380 O   0  0  0  0  0  0  0  0  0  0  0  0
  134.1400  125.1370   65.4270 N   0  0  0  0  0  0  0  0  0  0  0  0
  128.8728  120.0097   61.3044 H   0  0  0  0  0  0  0  0  0  0  0  0
  127.8436  122.7140   62.4450 H   0  0  0  0  0  0  0  0  0  0  0  0
  125.6117  123.7644   62.1374 H   0  0  0  0  0  0  0  0  0  0  0  0
  124.7370  124.1766   59.8437 H   0  0  0  0  0  0  0  0  0  0  0  0
  126.0915  123.5428   57.8516 H   0  0  0  0  0  0  0  0  0  0  0  0
  128.3233  122.4908   58.1541 H   0  0  0  0  0  0  0  0  0  0  0  0
  135.0439  122.4321   61.0854 H   0  0  0  0  0  0  0  0  0  0  0  0
  135.0207  124.2659   60.9596 H   0  0  0  0  0  0  0  0  0  0  0  0
  134.2510  125.4520   62.4820 H   0  0  0  0  0  0  0  0  0  0  0  0
  131.3065  125.6602   63.8221 H   0  0  0  0  0  0  0  0  0  0  0  0
  131.2127  126.2480   66.4384 H   0  0  0  0  0  0  0  0  0  0  0  0
  1  2  3  0
  2  3  1  0
  3  4  2  0
  4  5  1  0
  5  6  1  0
  5  7  1  0
  5  8  1  0
  4  9  1  0
  9 10  2  0
 10 11  1  0
 11 12  2  0
 12 13  1  0
 13 14  2  0
 14 15  1  0
 15 16  2  0
 10 17  1  0
 17 18  2  0
 18 19  1  0
 19 20  1  0
 20 21  1  0
 21 22  2  0
 21 23  1  0
 23 24  1  0
 24 25  1  0
 25 26  2  0
 26 27  1  0
 27 28  1  0
 18  3  1  0
 28 24  2  0
 16 11  1  0
  9 29  1  0
 12 30  1  0
 13 31  1  0
 14 32  1  0
 15 33  1  0
 16 34  1  0
 20 35  1  0
 20 36  1  0
 23 37  1  0
 25 38  1  0
 26 39  1  0
M  END
>  <Binding energies>  (1) 
[-7.6]

>  <Ligand effiencies>  (1) 
[-0.26206896551724135]

>  <Interactions>  (1) 
["V-A:GLY:453:C:4041, H-A:TYR:484:OH:4347, V-A:GLY:454:CA:4048, V-A:ILE:369:CD1:3238, V-A:ARG:545:CZ:4926, H-A:GLY:454:N:4049, H-A:ASP:366:OD2:3214, H-A:ASP:366:OD1:3213, H-A:ARG:545:NE:4924, V-A:ILE:369:CG2:3236, V-B:TYR:539:CD2:9846, V-B:TYR:539:CE2:9848, V-A:LEU:475:CD1:4257, V-A:PRO:482:CB:4325, V-A:PRO:482:CG:4326, V-B:PRO:540:CA:9855, V-B:ALA:541:CB:9864, V-B:PRO:540:N:9856, V-B:GLU:543:CD:9880, V-B:PRO:540:CB:9857, V-B:TYR:539:C:9839, V-B:ALA:541:CA:9862, V-A:GLY:453:CA:4043, V-B:PRO:540:C:9853, V-A:SER:385:CB:3408, V-A:LEU:475:CD2:4258"]

$$$$
3aj_Grossjean_2025
     RDKit          3D

 39 41  0  0  0  0  0  0  0  0999 V2000
  126.4130  126.4230   59.8330 N   0  0  0  0  0  0  0  0  0  0  0  0
  127.1140  125.5100   59.9480 C   0  0  0  0  0  0  0  0  0  0  0  0
  128.0010  124.3520   60.0920 C   0  0  0  0  0  0  0  0  0  0  0  0
  127.8750  123.2330   59.2320 C   0  0  0  0  0  0  0  0  0  0  0  0
  126.8500  123.1770   58.0840 C   0  0  0  0  0  0  0  0  0  0  0  0
  126.9720  122.0790   57.3340 F   0  0  0  0  0  0  0  0  0  0  0  0
  125.6110  123.1930   58.5770 F   0  0  0  0  0  0  0  0  0  0  0  0
  127.0080  124.2290   57.2790 F   0  0  0  0  0  0  0  0  0  0  0  0
  128.7170  122.1290   59.4420 C   0  0  0  0  0  0  0  0  0  0  0  0
  129.6530  122.1410   60.4810 C   0  0  0  0  0  0  0  0  0  0  0  0
  130.5680  120.9860   60.7550 C   0  0  0  0  0  0  0  0  0  0  0  0
  130.0900  119.8270   61.3850 C   0  0  0  0  0  0  0  0  0  0  0  0
  130.9340  118.7490   61.6380 C   0  0  0  0  0  0  0  0  0  0  0  0
  132.2730  118.8170   61.2650 C   0  0  0  0  0  0  0  0  0  0  0  0
  132.7710  119.9550   60.6380 C   0  0  0  0  0  0  0  0  0  0  0  0
  131.9230  121.0290   60.3850 C   0  0  0  0  0  0  0  0  0  0  0  0
  129.7640  123.2120   61.3070 N   0  0  0  0  0  0  0  0  0  0  0  0
  128.9790  124.2990   61.1110 C   0  0  0  0  0  0  0  0  0  0  0  0
  129.2810  125.6120   62.2740 S   0  0  0  0  0  0  0  0  0  0  0  0
  131.0150  126.1460   62.0770 C   0  0  0  0  0  0  0  0  0  0  0  0
  131.9940  125.5670   63.1080 C   0  0  0  0  0  0  0  0  0  0  0  0
  132.7360  124.6260   62.8150 O   0  0  0  0  0  0  0  0  0  0  0  0
  131.9620  126.1690   64.3170 N   0  0  0  0  0  0  0  0  0  0  0  0
  132.7410  125.8530   65.4220 C   0  0  0  0  0  0  0  0  0  0  0  0
  133.9050  125.2400   65.4410 N   0  0  0  0  0  0  0  0  0  0  0  0
  134.3650  125.1070   66.6700 C   0  0  0  0  0  0  0  0  0  0  0  0
  133.5620  125.6210   67.6850 C   0  0  0  0  0  0  0  0  0  0  0  0
  132.1310  126.3100   66.9810 S   0  0  0  0  0  0  0  0  0  0  0  0
  128.6399  121.2497   58.7855 H   0  0  0  0  0  0  0  0  0  0  0  0
  129.0328  119.7692   61.6834 H   0  0  0  0  0  0  0  0  0  0  0  0
  130.5437  117.8465   62.1311 H   0  0  0  0  0  0  0  0  0  0  0  0
  132.9411  117.9668   61.4669 H   0  0  0  0  0  0  0  0  0  0  0  0
  133.8297  120.0054   60.3438 H   0  0  0  0  0  0  0  0  0  0  0  0
  132.3198  121.9261   59.8873 H   0  0  0  0  0  0  0  0  0  0  0  0
  131.3541  125.8412   61.0759 H   0  0  0  0  0  0  0  0  0  0  0  0
  131.0197  127.2357   62.2272 H   0  0  0  0  0  0  0  0  0  0  0  0
  131.3160  126.9350   64.4400 H   0  0  0  0  0  0  0  0  0  0  0  0
  135.3276  124.6182   66.8811 H   0  0  0  0  0  0  0  0  0  0  0  0
  133.7961  125.5949   68.7595 H   0  0  0  0  0  0  0  0  0  0  0  0
  1  2  3  0
  2  3  1  0
  3  4  2  0
  4  5  1  0
  5  6  1  0
  5  7  1  0
  5  8  1  0
  4  9  1  0
  9 10  2  0
 10 11  1  0
 11 12  2  0
 12 13  1  0
 13 14  2  0
 14 15  1  0
 15 16  2  0
 10 17  1  0
 17 18  2  0
 18 19  1  0
 19 20  1  0
 20 21  1  0
 21 22  2  0
 21 23  1  0
 23 24  1  0
 24 25  2  0
 25 26  1  0
 26 27  2  0
 27 28  1  0
 18  3  1  0
 28 24  1  0
 16 11  1  0
  9 29  1  0
 12 30  1  0
 13 31  1  0
 14 32  1  0
 15 33  1  0
 16 34  1  0
 20 35  1  0
 20 36  1  0
 23 37  1  0
 26 38  1  0
 27 39  1  0
M  END
>  <Binding energies>  (1) 
[-7.22]

>  <Ligand effiencies>  (1) 
[-0.2489655172413793]

>  <Interactions>  (1) 
["V-A:GLU:543:CD:4908, V-A:ARG:545:CD:4923, V-A:ARG:545:CG:4922, V-A:GLY:453:C:4041, H-A:TYR:484:OH:4347, V-A:GLY:454:CA:4048, H-A:GLU:543:OE2:4910, V-A:TYR:484:CZ:4346, H-A:ARG:545:NH2:4928, H-A:GLU:543:OE1:4909, V-A:ARG:545:CZ:4926, H-A:GLY:454:N:4049, H-A:ARG:545:NE:4924, V-A:ILE:369:CG2:3236, V-B:TYR:539:CD2:9846, V-B:TYR:539:CE2:9848, V-A:LEU:475:CD1:4257, V-A:PRO:482:CB:4325, V-A:PRO:482:CG:4326, V-B:PRO:540:CD:9859, V-B:PRO:540:CA:9855, V-B:ALA:541:CB:9864, V-B:MET:535:CE:9807, V-B:PRO:540:N:9856, V-B:PRO:540:CB:9857, V-B:TYR:539:C:9839, V-A:HIS:456:CE1:4069, V-B:ALA:541:CA:9862, V-A:GLY:453:CA:4043, V-B:PRO:540:C:9853, V-A:ILE:455:C:4051, V-B:TYR:539:CA:9841"]

$$$$
3ak_Grossjean_2025
     RDKit          3D

 57 58  0  0  0  0  0  0  0  0999 V2000
  134.9530  124.0400   61.7610 C   0  0  0  0  0  0  0  0  0  0  0  0
  134.5180  124.5920   62.9940 O   0  0  0  0  0  0  0  0  0  0  0  0
  133.1590  125.0040   62.9800 C   0  0  0  0  0  0  0  0  0  0  0  0
  132.6210  125.0010   64.4160 C   0  0  0  0  0  0  0  0  0  0  0  0
  133.7160  125.1080   65.3200 O   0  0  0  0  0  0  0  0  0  0  0  0
  133.3810  125.5150   66.6450 C   0  0  0  0  0  0  0  0  0  0  0  0
  132.3000  126.6100   66.7030 C   0  0  0  0  0  0  0  0  0  0  0  0
  131.0240  126.0170   66.5110 O   0  0  0  0  0  0  0  0  0  0  0  0
  130.3790  125.6310   67.7170 C   0  0  0  0  0  0  0  0  0  0  0  0
  128.9660  126.2380   67.7830 C   0  0  0  0  0  0  0  0  0  0  0  0
  128.7570  127.3380   66.8390 N   0  0  0  0  0  0  0  0  0  0  0  0
  127.6040  128.0080   66.6500 C   0  0  0  0  0  0  0  0  0  0  0  0
  126.5790  127.7640   67.2870 O   0  0  0  0  0  0  0  0  0  0  0  0
  127.5620  129.1260   65.5940 C   0  0  0  0  0  0  0  0  0  0  0  0
  127.5650  128.5960   63.8420 S   0  0  0  0  0  0  0  0  0  0  0  0
  127.8930  130.0190   62.8130 C   0  0  0  0  0  0  0  0  0  0  0  0
  129.1390  130.0850   62.2830 N   0  0  0  0  0  0  0  0  0  0  0  0
  129.4860  131.1320   61.4930 C   0  0  0  0  0  0  0  0  0  0  0  0
  130.8830  131.1230   60.9480 C   0  0  0  0  0  0  0  0  0  0  0  0
  131.1350  130.7260   59.6260 C   0  0  0  0  0  0  0  0  0  0  0  0
  132.4300  130.7190   59.1130 C   0  0  0  0  0  0  0  0  0  0  0  0
  133.4930  131.1130   59.9190 C   0  0  0  0  0  0  0  0  0  0  0  0
  133.2710  131.5140   61.2310 C   0  0  0  0  0  0  0  0  0  0  0  0
  131.9750  131.5200   61.7410 C   0  0  0  0  0  0  0  0  0  0  0  0
  128.5660  132.1450   61.2010 C   0  0  0  0  0  0  0  0  0  0  0  0
  127.2700  132.1020   61.7350 C   0  0  0  0  0  0  0  0  0  0  0  0
  126.2860  133.2370   61.3920 C   0  0  0  0  0  0  0  0  0  0  0  0
  125.7260  133.7070   62.5070 F   0  0  0  0  0  0  0  0  0  0  0  0
  126.9310  134.2320   60.7810 F   0  0  0  0  0  0  0  0  0  0  0  0
  125.3010  132.8420   60.5830 F   0  0  0  0  0  0  0  0  0  0  0  0
  126.9180  131.0110   62.5670 C   0  0  0  0  0  0  0  0  0  0  0  0
  125.5780  130.9130   63.1530 C   0  0  0  0  0  0  0  0  0  0  0  0
  124.5200  130.8360   63.6180 N   0  0  0  0  0  0  0  0  0  0  0  0
  135.6231  123.1897   61.9560 H   0  0  0  0  0  0  0  0  0  0  0  0
  134.0811  123.6953   61.1857 H   0  0  0  0  0  0  0  0  0  0  0  0
  135.4920  124.8071   61.1857 H   0  0  0  0  0  0  0  0  0  0  0  0
  133.0856  126.0184   62.5609 H   0  0  0  0  0  0  0  0  0  0  0  0
  132.5679  124.3135   62.3605 H   0  0  0  0  0  0  0  0  0  0  0  0
  131.9411  125.8541   64.5572 H   0  0  0  0  0  0  0  0  0  0  0  0
  132.0715  124.0672   64.6057 H   0  0  0  0  0  0  0  0  0  0  0  0
  133.0146  124.6361   67.1958 H   0  0  0  0  0  0  0  0  0  0  0  0
  134.2926  125.9402   67.0902 H   0  0  0  0  0  0  0  0  0  0  0  0
  132.3312  127.1062   67.6842 H   0  0  0  0  0  0  0  0  0  0  0  0
  132.4845  127.3537   65.9137 H   0  0  0  0  0  0  0  0  0  0  0  0
  130.3052  124.5341   67.7544 H   0  0  0  0  0  0  0  0  0  0  0  0
  130.9670  125.9976   68.5713 H   0  0  0  0  0  0  0  0  0  0  0  0
  128.2361  125.4455   67.5610 H   0  0  0  0  0  0  0  0  0  0  0  0
  128.8389  126.6516   68.7943 H   0  0  0  0  0  0  0  0  0  0  0  0
  129.5610  127.6110   66.2920 H   0  0  0  0  0  0  0  0  0  0  0  0
  126.6468  129.7121   65.7642 H   0  0  0  0  0  0  0  0  0  0  0  0
  128.4973  129.6891   65.7292 H   0  0  0  0  0  0  0  0  0  0  0  0
  130.2969  130.4155   58.9848 H   0  0  0  0  0  0  0  0  0  0  0  0
  132.6113  130.4033   58.0750 H   0  0  0  0  0  0  0  0  0  0  0  0
  134.5162  131.1071   59.5152 H   0  0  0  0  0  0  0  0  0  0  0  0
  134.1151  131.8253   61.8639 H   0  0  0  0  0  0  0  0  0  0  0  0
  131.8028  131.8399   62.7793 H   0  0  0  0  0  0  0  0  0  0  0  0
  128.8611  132.9801   60.5487 H   0  0  0  0  0  0  0  0  0  0  0  0
  1  2  1  0
  2  3  1  0
  3  4  1  0
  4  5  1  0
  5  6  1  0
  6  7  1  0
  7  8  1  0
  8  9  1  0
  9 10  1  0
 10 11  1  0
 11 12  1  0
 12 13  2  0
 12 14  1  0
 14 15  1  0
 15 16  1  0
 16 17  2  0
 17 18  1  0
 18 19  1  0
 19 20  2  0
 20 21  1  0
 21 22  2  0
 22 23  1  0
 23 24  2  0
 18 25  2  0
 25 26  1  0
 26 27  1  0
 27 28  1  0
 27 29  1  0
 27 30  1  0
 26 31  2  0
 31 32  1  0
 32 33  3  0
 31 16  1  0
 24 19  1  0
  1 34  1  0
  1 35  1  0
  1 36  1  0
  3 37  1  0
  3 38  1  0
  4 39  1  0
  4 40  1  0
  6 41  1  0
  6 42  1  0
  7 43  1  0
  7 44  1  0
  9 45  1  0
  9 46  1  0
 10 47  1  0
 10 48  1  0
 11 49  1  0
 14 50  1  0
 14 51  1  0
 20 52  1  0
 21 53  1  0
 22 54  1  0
 23 55  1  0
 24 56  1  0
 25 57  1  0
M  END
>  <Binding energies>  (1) 
[-6.99]

>  <Ligand effiencies>  (1) 
[-0.20558823529411765]

>  <Interactions>  (1) 
["V-A:ASN:362:CB:3175, V-A:ALA:541:CB:4892, V-A:TYR:539:CE1:4875, V-A:PRO:540:CA:4883, V-A:TYR:539:CD1:4873, V-B:LEU:475:CD1:9229, V-A:GLU:543:CD:4908, V-A:PRO:540:CB:4885, V-A:ASP:366:CG:3212, V-A:ARG:545:CD:4923, V-A:ARG:545:CG:4922, V-A:GLY:453:C:4041, H-A:TYR:484:OH:4347, V-A:TYR:484:CZ:4346, H-A:ARG:545:NH2:4928, V-A:ILE:369:CD1:3238, H-A:GLU:543:OE1:4909, H-A:ARG:545:NH1:4927, V-A:ARG:545:CZ:4926, H-A:GLY:454:N:4049, H-A:ARG:545:NE:4924, V-A:TYR:484:CE2:4345, V-A:HIS:456:CE1:4069, V-A:GLU:543:CG:4907, V-B:HIS:456:CE1:9041, V-A:GLY:453:CA:4043, V-B:GLU:543:CB:9878, H-B:GLY:454:N:9021, V-B:ILE:369:CG2:8208, V-A:ALA:541:CA:4890, V-A:PRO:540:C:4881, V-A:ASN:362:C:3171, V-A:LEU:363:CA:3184"]

$$$$
3bc_Grossjean_2025
     RDKit          3D

 47 49  0  0  0  0  0  0  0  0999 V2000
  128.0140  125.6420   72.6930 C   0  0  0  0  0  0  0  0  0  0  0  0
  129.1500  125.8920   71.8740 O   0  0  0  0  0  0  0  0  0  0  0  0
  128.9900  126.6040   70.6990 C   0  0  0  0  0  0  0  0  0  0  0  0
  128.5750  125.8770   69.5840 C   0  0  0  0  0  0  0  0  0  0  0  0
  128.3870  126.5080   68.3560 C   0  0  0  0  0  0  0  0  0  0  0  0
  128.6210  127.8780   68.2270 C   0  0  0  0  0  0  0  0  0  0  0  0
  128.3920  128.4290   66.9520 N   0  0  0  0  0  0  0  0  0  0  0  0
  127.2210  128.7240   66.3500 C   0  0  0  0  0  0  0  0  0  0  0  0
  126.1100  128.5830   66.8660 O   0  0  0  0  0  0  0  0  0  0  0  0
  127.3560  129.3080   64.9360 C   0  0  0  0  0  0  0  0  0  0  0  0
  127.8800  131.0550   64.8660 S   0  0  0  0  0  0  0  0  0  0  0  0
  127.9110  131.5450   63.1560 C   0  0  0  0  0  0  0  0  0  0  0  0
  129.1130  131.3580   62.5570 N   0  0  0  0  0  0  0  0  0  0  0  0
  129.2760  131.6890   61.2490 C   0  0  0  0  0  0  0  0  0  0  0  0
  130.6410  131.4710   60.6670 C   0  0  0  0  0  0  0  0  0  0  0  0
  130.8070  131.2460   59.2930 C   0  0  0  0  0  0  0  0  0  0  0  0
  132.0710  131.0440   58.7450 C   0  0  0  0  0  0  0  0  0  0  0  0
  133.1900  131.0620   59.5710 C   0  0  0  0  0  0  0  0  0  0  0  0
  133.0540  131.2800   60.9380 C   0  0  0  0  0  0  0  0  0  0  0  0
  131.7870  131.4810   61.4800 C   0  0  0  0  0  0  0  0  0  0  0  0
  128.2180  132.2220   60.5060 C   0  0  0  0  0  0  0  0  0  0  0  0
  126.9650  132.4000   61.1030 C   0  0  0  0  0  0  0  0  0  0  0  0
  125.8330  132.9690   60.2480 C   0  0  0  0  0  0  0  0  0  0  0  0
  126.7890  132.0470   62.4590 C   0  0  0  0  0  0  0  0  0  0  0  0
  125.4750  132.1780   63.0900 C   0  0  0  0  0  0  0  0  0  0  0  0
  124.4350  132.2830   63.5870 N   0  0  0  0  0  0  0  0  0  0  0  0
  129.0250  128.6180   69.3480 C   0  0  0  0  0  0  0  0  0  0  0  0
  129.2120  127.9840   70.5730 C   0  0  0  0  0  0  0  0  0  0  0  0
  128.3043  125.7059   73.7521 H   0  0  0  0  0  0  0  0  0  0  0  0
  127.2366  126.3906   72.4801 H   0  0  0  0  0  0  0  0  0  0  0  0
  127.6227  124.6362   72.4801 H   0  0  0  0  0  0  0  0  0  0  0  0
  128.3944  124.7957   69.6746 H   0  0  0  0  0  0  0  0  0  0  0  0
  128.0531  125.9246   67.4853 H   0  0  0  0  0  0  0  0  0  0  0  0
  129.2310  128.6880   66.4530 H   0  0  0  0  0  0  0  0  0  0  0  0
  128.0978  128.7077   64.3889 H   0  0  0  0  0  0  0  0  0  0  0  0
  126.3499  129.2722   64.4927 H   0  0  0  0  0  0  0  0  0  0  0  0
  129.9241  131.2288   58.6372 H   0  0  0  0  0  0  0  0  0  0  0  0
  132.1840  130.8711   57.6646 H   0  0  0  0  0  0  0  0  0  0  0  0
  134.1895  130.9027   59.1401 H   0  0  0  0  0  0  0  0  0  0  0  0
  133.9420  131.2936   61.5871 H   0  0  0  0  0  0  0  0  0  0  0  0
  131.6817  131.6503   62.5618 H   0  0  0  0  0  0  0  0  0  0  0  0
  128.3706  132.5011   59.4530 H   0  0  0  0  0  0  0  0  0  0  0  0
  125.0431  133.3660   60.9025 H   0  0  0  0  0  0  0  0  0  0  0  0
  126.2240  133.7777   59.6131 H   0  0  0  0  0  0  0  0  0  0  0  0
  125.4172  132.1728   59.6131 H   0  0  0  0  0  0  0  0  0  0  0  0
  129.1943  129.7012   69.2589 H   0  0  0  0  0  0  0  0  0  0  0  0
  129.5356  128.5679   71.4472 H   0  0  0  0  0  0  0  0  0  0  0  0
  1  2  1  0
  2  3  1  0
  3  4  2  0
  4  5  1  0
  5  6  2  0
  6  7  1  0
  7  8  1  0
  8  9  2  0
  8 10  1  0
 10 11  1  0
 11 12  1  0
 12 13  2  0
 13 14  1  0
 14 15  1  0
 15 16  2  0
 16 17  1  0
 17 18  2  0
 18 19  1  0
 19 20  2  0
 14 21  2  0
 21 22  1  0
 22 23  1  0
 22 24  2  0
 24 25  1  0
 25 26  3  0
  6 27  1  0
 27 28  2  0
 28  3  1  0
 24 12  1  0
 20 15  1  0
  1 29  1  0
  1 30  1  0
  1 31  1  0
  4 32  1  0
  5 33  1  0
  7 34  1  0
 10 35  1  0
 10 36  1  0
 16 37  1  0
 17 38  1  0
 18 39  1  0
 19 40  1  0
 20 41  1  0
 21 42  1  0
 23 43  1  0
 23 44  1  0
 23 45  1  0
 27 46  1  0
 28 47  1  0
M  END
>  <Binding energies>  (1) 
[-7.72]

>  <Ligand effiencies>  (1) 
[-0.26620689655172414]

>  <Interactions>  (1) 
["V-A:ASN:362:CB:3175, V-A:ALA:541:CB:4892, V-A:TYR:539:CE1:4875, V-A:PRO:540:CA:4883, V-A:TYR:539:CD1:4873, V-B:LEU:475:CD1:9229, V-A:GLU:543:CD:4908, V-A:PRO:540:CB:4885, V-A:ASP:366:CG:3212, H-A:GLU:543:OE1:4909, V-A:HIS:456:CE1:4069, V-A:GLU:543:CG:4907, V-B:HIS:456:CE1:9041, V-A:GLU:543:CB:4906, V-B:GLU:543:C:9874, V-B:GLU:543:CB:9878, H-B:TYR:484:OH:9319, H-B:GLY:454:N:9021, V-B:ILE:369:CG2:8208, V-A:GLU:543:C:4902, H-B:ARG:545:NE:9896, V-B:HIS:456:CD2:9039, V-A:PRO:540:C:4881, V-B:GLY:544:CA:9886, V-A:LEU:363:CA:3184, V-B:GLY:544:C:9884"]

$$$$
3bd_Grossjean_2025
     RDKit          3D

 43 45  0  0  0  0  0  0  0  0999 V2000
  130.5160  118.4430   61.0060 C   0  0  0  0  0  0  0  0  0  0  0  0
  130.8220  119.9300   61.1690 C   0  0  0  0  0  0  0  0  0  0  0  0
  129.7460  120.8180   61.2860 C   0  0  0  0  0  0  0  0  0  0  0  0
  129.9850  122.1900   61.4330 C   0  0  0  0  0  0  0  0  0  0  0  0
  128.8790  123.1940   61.5670 C   0  0  0  0  0  0  0  0  0  0  0  0
  127.5550  122.8510   61.2500 C   0  0  0  0  0  0  0  0  0  0  0  0
  126.5240  123.7800   61.3710 C   0  0  0  0  0  0  0  0  0  0  0  0
  126.8050  125.0690   61.8120 C   0  0  0  0  0  0  0  0  0  0  0  0
  128.1080  125.4350   62.1290 C   0  0  0  0  0  0  0  0  0  0  0  0
  129.1360  124.5040   62.0070 C   0  0  0  0  0  0  0  0  0  0  0  0
  131.2530  122.6740   61.4790 N   0  0  0  0  0  0  0  0  0  0  0  0
  132.3080  121.8270   61.3660 C   0  0  0  0  0  0  0  0  0  0  0  0
  133.9210  122.5900   61.4290 S   0  0  0  0  0  0  0  0  0  0  0  0
  133.6900  124.3850   61.5960 C   0  0  0  0  0  0  0  0  0  0  0  0
  133.4270  124.7970   63.0450 C   0  0  0  0  0  0  0  0  0  0  0  0
  134.3770  125.1260   63.7550 O   0  0  0  0  0  0  0  0  0  0  0  0
  132.1360  124.7510   63.4410 N   0  0  0  0  0  0  0  0  0  0  0  0
  131.5810  125.0910   64.6890 C   0  0  0  0  0  0  0  0  0  0  0  0
  132.3800  125.8760   65.5250 C   0  0  0  0  0  0  0  0  0  0  0  0
  131.9180  126.2550   66.7830 C   0  0  0  0  0  0  0  0  0  0  0  0
  130.6600  125.8410   67.2100 C   0  0  0  0  0  0  0  0  0  0  0  0
  129.8590  125.0470   66.3920 C   0  0  0  0  0  0  0  0  0  0  0  0
  130.3180  124.6680   65.1330 C   0  0  0  0  0  0  0  0  0  0  0  0
  132.1390  120.4350   61.2070 C   0  0  0  0  0  0  0  0  0  0  0  0
  133.2870  119.5310   61.0890 C   0  0  0  0  0  0  0  0  0  0  0  0
  134.1930  118.8160   60.9960 N   0  0  0  0  0  0  0  0  0  0  0  0
  130.4202  117.9775   61.9980 H   0  0  0  0  0  0  0  0  0  0  0  0
  129.5740  118.3212   60.4513 H   0  0  0  0  0  0  0  0  0  0  0  0
  131.3334  117.9591   60.4513 H   0  0  0  0  0  0  0  0  0  0  0  0
  128.7138  120.4384   61.2625 H   0  0  0  0  0  0  0  0  0  0  0  0
  127.3282  121.8329   60.9007 H   0  0  0  0  0  0  0  0  0  0  0  0
  125.4918  123.4954   61.1188 H   0  0  0  0  0  0  0  0  0  0  0  0
  125.9915  125.8028   61.9104 H   0  0  0  0  0  0  0  0  0  0  0  0
  128.3261  126.4562   62.4749 H   0  0  0  0  0  0  0  0  0  0  0  0
  130.1655  124.7983   62.2589 H   0  0  0  0  0  0  0  0  0  0  0  0
  134.5982  124.8943   61.2413 H   0  0  0  0  0  0  0  0  0  0  0  0
  132.8130  124.6716   60.9970 H   0  0  0  0  0  0  0  0  0  0  0  0
  131.4760  124.3730   62.7780 H   0  0  0  0  0  0  0  0  0  0  0  0
  133.3772  126.1956   65.1882 H   0  0  0  0  0  0  0  0  0  0  0  0
  132.5451  126.8792   67.4365 H   0  0  0  0  0  0  0  0  0  0  0  0
  130.2946  126.1434   68.2025 H   0  0  0  0  0  0  0  0  0  0  0  0
  128.8676  124.7207   66.7394 H   0  0  0  0  0  0  0  0  0  0  0  0
  129.6908  124.0370   64.4862 H   0  0  0  0  0  0  0  0  0  0  0  0
  1  2  1  0
  2  3  2  0
  3  4  1  0
  4  5  1  0
  5  6  2  0
  6  7  1  0
  7  8  2  0
  8  9  1  0
  9 10  2  0
  4 11  2  0
 11 12  1  0
 12 13  1  0
 13 14  1  0
 14 15  1  0
 15 16  2  0
 15 17  1  0
 17 18  1  0
 18 19  2  0
 19 20  1  0
 20 21  2  0
 21 22  1  0
 22 23  2  0
 12 24  2  0
 24 25  1  0
 25 26  3  0
 24  2  1  0
 10  5  1  0
 23 18  1  0
  1 27  1  0
  1 28  1  0
  1 29  1  0
  3 30  1  0
  6 31  1  0
  7 32  1  0
  8 33  1  0
  9 34  1  0
 10 35  1  0
 14 36  1  0
 14 37  1  0
 17 38  1  0
 19 39  1  0
 20 40  1  0
 21 41  1  0
 22 42  1  0
 23 43  1  0
M  END
>  <Binding energies>  (1) 
[-7.52]

>  <Ligand effiencies>  (1) 
[-0.2785185185185185]

>  <Interactions>  (1) 
["V-A:ASP:366:CG:3212, V-A:TYR:484:CZ:4346, H-A:ARG:545:NH2:4928, H-A:ARG:545:NH1:4927, V-A:ARG:545:CZ:4926, H-A:GLY:454:N:4049, H-A:ARG:545:NE:4924, V-A:ILE:369:CG2:3236, H-A:SER:385:OG:3409, V-A:LEU:475:CD1:4257, V-A:PRO:482:CB:4325, H-A:HIS:383:NE2:3393, V-A:PRO:482:CG:4326, V-B:PRO:540:CA:9855, V-B:GLU:543:CG:9879, V-B:ALA:541:CB:9864, V-B:GLU:543:CD:9880, V-A:TYR:484:CE2:4345, V-A:HIS:456:CE1:4069, V-B:GLU:543:CB:9878, V-B:PRO:540:C:9853"]

$$$$
3be_Grossjean_2025
     RDKit          3D

 45 47  0  0  0  0  0  0  0  0999 V2000
  134.1920  125.4590   67.3940 C   0  0  0  0  0  0  0  0  0  0  0  0
  133.2960  125.4850   66.1720 C   0  0  0  0  0  0  0  0  0  0  0  0
  131.9610  125.8890   66.2520 C   0  0  0  0  0  0  0  0  0  0  0  0
  131.1940  125.8850   65.0870 C   0  0  0  0  0  0  0  0  0  0  0  0
  131.7740  125.4830   63.8810 C   0  0  0  0  0  0  0  0  0  0  0  0
  133.1190  125.0940   63.8700 C   0  0  0  0  0  0  0  0  0  0  0  0
  133.6410  124.6910   62.6270 N   0  0  0  0  0  0  0  0  0  0  0  0
  133.7480  123.4430   62.1200 C   0  0  0  0  0  0  0  0  0  0  0  0
  133.3910  122.4180   62.7020 O   0  0  0  0  0  0  0  0  0  0  0  0
  134.3650  123.3720   60.7140 C   0  0  0  0  0  0  0  0  0  0  0  0
  133.2030  122.9290   59.3780 S   0  0  0  0  0  0  0  0  0  0  0  0
  131.9060  121.9340   60.0810 C   0  0  0  0  0  0  0  0  0  0  0  0
  130.6760  122.4950   59.9800 N   0  0  0  0  0  0  0  0  0  0  0  0
  129.5910  121.8410   60.4730 C   0  0  0  0  0  0  0  0  0  0  0  0
  128.2690  122.5370   60.3340 C   0  0  0  0  0  0  0  0  0  0  0  0
  127.5550  122.9550   61.4690 C   0  0  0  0  0  0  0  0  0  0  0  0
  126.3270  123.5980   61.3470 C   0  0  0  0  0  0  0  0  0  0  0  0
  125.7930  123.8340   60.0850 C   0  0  0  0  0  0  0  0  0  0  0  0
  126.4780  123.4290   58.9450 C   0  0  0  0  0  0  0  0  0  0  0  0
  127.7060  122.7840   59.0710 C   0  0  0  0  0  0  0  0  0  0  0  0
  129.7240  120.5930   61.0890 C   0  0  0  0  0  0  0  0  0  0  0  0
  130.9830  119.9890   61.1790 C   0  0  0  0  0  0  0  0  0  0  0  0
  131.0780  118.6170   61.8440 C   0  0  0  0  0  0  0  0  0  0  0  0
  132.1100  120.6590   60.6560 C   0  0  0  0  0  0  0  0  0  0  0  0
  133.4280  120.0210   60.6910 C   0  0  0  0  0  0  0  0  0  0  0  0
  134.4680  119.5150   60.7190 N   0  0  0  0  0  0  0  0  0  0  0  0
  133.8730  125.0930   65.0080 N   0  0  0  0  0  0  0  0  0  0  0  0
  133.5729  125.4770   68.3031 H   0  0  0  0  0  0  0  0  0  0  0  0
  134.8007  124.5428   67.3830 H   0  0  0  0  0  0  0  0  0  0  0  0
  134.8528  126.3383   67.3830 H   0  0  0  0  0  0  0  0  0  0  0  0
  131.5248  126.2030   67.2117 H   0  0  0  0  0  0  0  0  0  0  0  0
  130.1394  126.1963   65.1175 H   0  0  0  0  0  0  0  0  0  0  0  0
  131.1825  125.4723   62.9536 H   0  0  0  0  0  0  0  0  0  0  0  0
  134.0050  125.4420   62.0600 H   0  0  0  0  0  0  0  0  0  0  0  0
  134.7931  124.3579   60.4799 H   0  0  0  0  0  0  0  0  0  0  0  0
  135.1126  122.5658   60.7486 H   0  0  0  0  0  0  0  0  0  0  0  0
  127.9730  122.7712   62.4698 H   0  0  0  0  0  0  0  0  0  0  0  0
  125.7804  123.9186   62.2461 H   0  0  0  0  0  0  0  0  0  0  0  0
  124.8232  124.3440   59.9881 H   0  0  0  0  0  0  0  0  0  0  0  0
  126.0522  123.6171   57.9483 H   0  0  0  0  0  0  0  0  0  0  0  0
  128.2437  122.4628   58.1667 H   0  0  0  0  0  0  0  0  0  0  0  0
  128.8396  120.0863   61.5026 H   0  0  0  0  0  0  0  0  0  0  0  0
  131.0696  118.7381   62.9373 H   0  0  0  0  0  0  0  0  0  0  0  0
  130.2204  118.0005   61.5368 H   0  0  0  0  0  0  0  0  0  0  0  0
  132.0124  118.1245   61.5368 H   0  0  0  0  0  0  0  0  0  0  0  0
  1  2  1  0
  2  3  2  0
  3  4  1  0
  4  5  2  0
  5  6  1  0
  6  7  1  0
  7  8  1  0
  8  9  2  0
  8 10  1  0
 10 11  1  0
 11 12  1  0
 12 13  2  0
 13 14  1  0
 14 15  1  0
 15 16  2  0
 16 17  1  0
 17 18  2  0
 18 19  1  0
 19 20  2  0
 14 21  2  0
 21 22  1  0
 22 23  1  0
 22 24  2  0
 24 25  1  0
 25 26  3  0
  6 27  2  0
 27  2  1  0
 24 12  1  0
 20 15  1  0
  1 28  1  0
  1 29  1  0
  1 30  1  0
  3 31  1  0
  4 32  1  0
  5 33  1  0
  7 34  1  0
 10 35  1  0
 10 36  1  0
 16 37  1  0
 17 38  1  0
 18 39  1  0
 19 40  1  0
 20 41  1  0
 21 42  1  0
 23 43  1  0
 23 44  1  0
 23 45  1  0
M  END
>  <Binding energies>  (1) 
[-8.89]

>  <Ligand effiencies>  (1) 
[-0.3175]

>  <Interactions>  (1) 
["V-A:GLU:543:CD:4908, V-A:ASP:366:CG:3212, V-A:ARG:545:CD:4923, V-A:ARG:545:CG:4922, H-A:TYR:484:OH:4347, V-A:TYR:484:CZ:4346, H-A:ARG:545:NH2:4928, V-A:ILE:369:CD1:3238, H-A:ARG:545:NH1:4927, V-A:ARG:545:CZ:4926, H-A:GLY:454:N:4049, V-A:ILE:369:CB:3235, H-A:ASP:366:OD2:3214, H-A:ASP:366:OD1:3213, H-A:ARG:545:NE:4924, V-A:ILE:369:CG2:3236, V-B:TYR:539:CD2:9846, H-A:SER:385:OG:3409, V-B:TYR:539:CE2:9848, V-A:LEU:475:CD1:4257, V-A:PRO:482:CB:4325, V-A:PRO:482:CG:4326, V-B:PRO:540:CA:9855, V-B:ALA:541:CB:9864, V-B:PRO:540:N:9856, V-B:GLU:543:CD:9880, V-B:PRO:540:CB:9857, V-B:TYR:539:C:9839, V-A:HIS:456:CE1:4069, V-B:PRO:540:C:9853, V-A:ILE:455:C:4051"]

$$$$
3bf_Grossjean_2025
     RDKit          3D

 42 44  0  0  0  0  0  0  0  0999 V2000
  129.7450  122.9020   64.6680 C   0  0  0  0  0  0  0  0  0  0  0  0
  130.1320  123.1960   63.2210 C   0  0  0  0  0  0  0  0  0  0  0  0
  129.1920  122.9280   62.2200 C   0  0  0  0  0  0  0  0  0  0  0  0
  129.4990  123.1970   60.8820 C   0  0  0  0  0  0  0  0  0  0  0  0
  128.5280  122.9530   59.7660 C   0  0  0  0  0  0  0  0  0  0  0  0
  127.1760  123.3020   59.9040 C   0  0  0  0  0  0  0  0  0  0  0  0
  126.2680  123.0790   58.8720 C   0  0  0  0  0  0  0  0  0  0  0  0
  126.7030  122.5010   57.6840 C   0  0  0  0  0  0  0  0  0  0  0  0
  128.0370  122.1450   57.5220 C   0  0  0  0  0  0  0  0  0  0  0  0
  128.9420  122.3680   58.5570 C   0  0  0  0  0  0  0  0  0  0  0  0
  130.7060  123.7170   60.5350 N   0  0  0  0  0  0  0  0  0  0  0  0
  131.6370  123.9590   61.4900 C   0  0  0  0  0  0  0  0  0  0  0  0
  133.1560  124.6330   60.8520 S   0  0  0  0  0  0  0  0  0  0  0  0
  134.4920  123.4360   61.1890 C   0  0  0  0  0  0  0  0  0  0  0  0
  134.0260  121.9980   61.4610 C   0  0  0  0  0  0  0  0  0  0  0  0
  134.6160  121.2900   62.2790 O   0  0  0  0  0  0  0  0  0  0  0  0
  132.9320  121.6190   60.7650 N   0  0  0  0  0  0  0  0  0  0  0  0
  132.2650  120.3800   60.7740 C   0  0  0  0  0  0  0  0  0  0  0  0
  130.9840  120.3480   61.3350 C   0  0  0  0  0  0  0  0  0  0  0  0
  130.2650  119.1520   61.3620 C   0  0  0  0  0  0  0  0  0  0  0  0
  130.8520  118.0100   60.8150 C   0  0  0  0  0  0  0  0  0  0  0  0
  132.0870  118.0140   60.2550 N   0  0  0  0  0  0  0  0  0  0  0  0
  132.7750  119.1850   60.2360 C   0  0  0  0  0  0  0  0  0  0  0  0
  131.3880  123.7300   62.8620 C   0  0  0  0  0  0  0  0  0  0  0  0
  132.3690  124.0650   63.8980 C   0  0  0  0  0  0  0  0  0  0  0  0
  133.1430  124.3270   64.7180 N   0  0  0  0  0  0  0  0  0  0  0  0
  130.4349  123.4261   65.3458 H   0  0  0  0  0  0  0  0  0  0  0  0
  128.7173  123.2492   64.8505 H   0  0  0  0  0  0  0  0  0  0  0  0
  129.8039  121.8188   64.8505 H   0  0  0  0  0  0  0  0  0  0  0  0
  128.2115  122.5057   62.4851 H   0  0  0  0  0  0  0  0  0  0  0  0
  126.8279  123.7589   60.8421 H   0  0  0  0  0  0  0  0  0  0  0  0
  125.2114  123.3587   58.9958 H   0  0  0  0  0  0  0  0  0  0  0  0
  125.9871  122.3245   56.8677 H   0  0  0  0  0  0  0  0  0  0  0  0
  128.3764  121.6890   56.5803 H   0  0  0  0  0  0  0  0  0  0  0  0
  129.9961  122.0821   58.4263 H   0  0  0  0  0  0  0  0  0  0  0  0
  135.1613  123.4179   60.3162 H   0  0  0  0  0  0  0  0  0  0  0  0
  134.9838  123.7780   62.1116 H   0  0  0  0  0  0  0  0  0  0  0  0
  132.4970  122.3260   60.1890 H   0  0  0  0  0  0  0  0  0  0  0  0
  130.5437  121.2646   61.7545 H   0  0  0  0  0  0  0  0  0  0  0  0
  129.2587  119.1104   61.8043 H   0  0  0  0  0  0  0  0  0  0  0  0
  130.2884  117.0657   60.8392 H   0  0  0  0  0  0  0  0  0  0  0  0
  133.7757  119.1992   59.7794 H   0  0  0  0  0  0  0  0  0  0  0  0
  1  2  1  0
  2  3  2  0
  3  4  1  0
  4  5  1  0
  5  6  2  0
  6  7  1  0
  7  8  2  0
  8  9  1  0
  9 10  2  0
  4 11  2  0
 11 12  1  0
 12 13  1  0
 13 14  1  0
 14 15  1  0
 15 16  2  0
 15 17  1  0
 17 18  1  0
 18 19  2  0
 19 20  1  0
 20 21  2  0
 21 22  1  0
 22 23  2  0
 12 24  2  0
 24 25  1  0
 25 26  3  0
 24  2  1  0
 10  5  1  0
 23 18  1  0
  1 27  1  0
  1 28  1  0
  1 29  1  0
  3 30  1  0
  6 31  1  0
  7 32  1  0
  8 33  1  0
  9 34  1  0
 10 35  1  0
 14 36  1  0
 14 37  1  0
 17 38  1  0
 19 39  1  0
 20 40  1  0
 21 41  1  0
 23 42  1  0
M  END
>  <Binding energies>  (1) 
[-7.6]

>  <Ligand effiencies>  (1) 
[-0.28148148148148144]

>  <Interactions>  (1) 
["H-A:TYR:484:OH:4347, V-A:ILE:369:CD1:3238, H-A:GLY:454:N:4049, V-A:ILE:369:CG2:3236, V-B:TYR:539:CD2:9846, H-A:SER:385:OG:3409, V-B:TYR:539:CE2:9848, V-A:LEU:475:CD1:4257, V-A:PRO:482:CB:4325, H-A:HIS:383:NE2:3393, V-A:PRO:482:CG:4326, V-B:PRO:540:CD:9859, V-B:PRO:540:CA:9855, V-B:TYR:539:CG:9844, V-B:GLU:543:CG:9879, V-B:TYR:539:CZ:9849, V-B:ALA:541:CB:9864, V-B:MET:535:CE:9807, V-B:PRO:540:N:9856, V-B:GLU:543:CD:9880, V-B:PRO:540:CB:9857, V-B:TYR:539:C:9839, V-A:TYR:484:CE2:4345, V-B:TYR:539:CA:9841"]

$$$$
3bg_Grossjean_2025
     RDKit          3D

 46 48  0  0  0  0  0  0  0  0999 V2000
  126.1130  123.2460   60.9020 C   0  0  0  0  0  0  0  0  0  0  0  0
  127.5920  123.2720   61.2810 C   0  0  0  0  0  0  0  0  0  0  0  0
  128.3610  122.1330   61.0220 C   0  0  0  0  0  0  0  0  0  0  0  0
  129.7240  122.1160   61.3470 C   0  0  0  0  0  0  0  0  0  0  0  0
  130.6090  120.9290   61.0840 C   0  0  0  0  0  0  0  0  0  0  0  0
  130.1750  119.6250   61.3730 C   0  0  0  0  0  0  0  0  0  0  0  0
  130.9840  118.5220   61.1150 C   0  0  0  0  0  0  0  0  0  0  0  0
  132.2480  118.7070   60.5640 C   0  0  0  0  0  0  0  0  0  0  0  0
  132.7080  119.9870   60.2780 C   0  0  0  0  0  0  0  0  0  0  0  0
  131.8960  121.0870   60.5400 C   0  0  0  0  0  0  0  0  0  0  0  0
  130.3150  123.2090   61.9000 N   0  0  0  0  0  0  0  0  0  0  0  0
  129.5840  124.3240   62.1550 C   0  0  0  0  0  0  0  0  0  0  0  0
  130.4870  125.7000   62.8490 S   0  0  0  0  0  0  0  0  0  0  0  0
  132.2440  125.2280   62.9680 C   0  0  0  0  0  0  0  0  0  0  0  0
  132.7870  125.4050   64.3890 C   0  0  0  0  0  0  0  0  0  0  0  0
  133.7660  124.7560   64.7570 O   0  0  0  0  0  0  0  0  0  0  0  0
  132.1250  126.2680   65.1790 N   0  0  0  0  0  0  0  0  0  0  0  0
  132.3540  126.4560   66.6120 C   0  0  0  0  0  0  0  0  0  0  0  0
  131.0460  126.5560   67.3860 C   0  0  0  0  0  0  0  0  0  0  0  0
  130.1550  125.4770   67.3990 C   0  0  0  0  0  0  0  0  0  0  0  0
  128.9560  125.5710   68.0980 C   0  0  0  0  0  0  0  0  0  0  0  0
  128.6530  126.7410   68.7930 C   0  0  0  0  0  0  0  0  0  0  0  0
  129.5430  127.8120   68.8020 C   0  0  0  0  0  0  0  0  0  0  0  0
  130.7440  127.7170   68.1020 C   0  0  0  0  0  0  0  0  0  0  0  0
  128.2050  124.3990   61.8680 C   0  0  0  0  0  0  0  0  0  0  0  0
  127.4270  125.6100   62.1450 C   0  0  0  0  0  0  0  0  0  0  0  0
  126.8120  126.5650   62.3630 N   0  0  0  0  0  0  0  0  0  0  0  0
  125.5005  123.2352   61.8156 H   0  0  0  0  0  0  0  0  0  0  0  0
  125.8708  124.1400   60.3087 H   0  0  0  0  0  0  0  0  0  0  0  0
  125.9023  122.3440   60.3087 H   0  0  0  0  0  0  0  0  0  0  0  0
  127.8951  121.2489   60.5623 H   0  0  0  0  0  0  0  0  0  0  0  0
  129.1776  119.4725   61.8112 H   0  0  0  0  0  0  0  0  0  0  0  0
  130.6253  117.5081   61.3459 H   0  0  0  0  0  0  0  0  0  0  0  0
  132.8863  117.8362   60.3537 H   0  0  0  0  0  0  0  0  0  0  0  0
  133.7096  120.1303   59.8464 H   0  0  0  0  0  0  0  0  0  0  0  0
  132.2679  122.0980   60.3174 H   0  0  0  0  0  0  0  0  0  0  0  0
  132.3495  124.1728   62.6757 H   0  0  0  0  0  0  0  0  0  0  0  0
  132.8197  125.8840   62.2985 H   0  0  0  0  0  0  0  0  0  0  0  0
  131.3290  126.7530   64.7930 H   0  0  0  0  0  0  0  0  0  0  0  0
  132.9301  125.6011   66.9956 H   0  0  0  0  0  0  0  0  0  0  0  0
  132.9052  127.3980   66.7493 H   0  0  0  0  0  0  0  0  0  0  0  0
  130.4031  124.5533   66.8557 H   0  0  0  0  0  0  0  0  0  0  0  0
  128.2508  124.7268   68.1024 H   0  0  0  0  0  0  0  0  0  0  0  0
  127.7016  126.8189   69.3396 H   0  0  0  0  0  0  0  0  0  0  0  0
  129.2990  128.7286   69.3591 H   0  0  0  0  0  0  0  0  0  0  0  0
  131.4547  128.5565   68.1131 H   0  0  0  0  0  0  0  0  0  0  0  0
  1  2  1  0
  2  3  2  0
  3  4  1  0
  4  5  1  0
  5  6  2  0
  6  7  1  0
  7  8  2  0
  8  9  1  0
  9 10  2  0
  4 11  2  0
 11 12  1  0
 12 13  1  0
 13 14  1  0
 14 15  1  0
 15 16  2  0
 15 17  1  0
 17 18  1  0
 18 19  1  0
 19 20  2  0
 20 21  1  0
 21 22  2  0
 22 23  1  0
 23 24  2  0
 12 25  2  0
 25 26  1  0
 26 27  3  0
 25  2  1  0
 10  5  1  0
 24 19  1  0
  1 28  1  0
  1 29  1  0
  1 30  1  0
  3 31  1  0
  6 32  1  0
  7 33  1  0
  8 34  1  0
  9 35  1  0
 10 36  1  0
 14 37  1  0
 14 38  1  0
 17 39  1  0
 18 40  1  0
 18 41  1  0
 20 42  1  0
 21 43  1  0
 22 44  1  0
 23 45  1  0
 24 46  1  0
M  END
>  <Binding energies>  (1) 
[-8.32]

>  <Ligand effiencies>  (1) 
[-0.29714285714285715]

>  <Interactions>  (1) 
["V-A:GLU:543:CD:4908, V-A:ARG:545:CD:4923, V-A:ARG:545:CG:4922, H-A:TYR:484:OH:4347, H-A:GLU:543:OE2:4910, V-A:TYR:484:CZ:4346, H-A:GLU:543:OE1:4909, V-A:ARG:545:CZ:4926, H-A:GLY:454:N:4049, V-A:ILE:369:CG2:3236, V-B:TYR:539:CD2:9846, V-B:TYR:539:CE2:9848, V-A:LEU:475:CD1:4257, V-A:PRO:482:CG:4326, V-B:PRO:540:CA:9855, V-B:GLU:543:CG:9879, V-B:ALA:541:CB:9864, V-B:GLU:543:CD:9880, V-B:PRO:540:CB:9857, V-A:TYR:484:CE2:4345, V-A:HIS:456:CE1:4069, V-B:GLU:543:CA:9876, V-B:HIS:456:CE1:9041, V-A:GLU:543:CB:4906, V-B:GLU:543:C:9874, V-B:GLU:543:CB:9878, H-B:ARG:545:NH2:9900, V-B:PRO:540:C:9853"]

$$$$
3bk_Grossjean_2025
     RDKit          3D

 57 58  0  0  0  0  0  0  0  0999 V2000
  124.8860  129.6190   65.1410 C   0  0  0  0  0  0  0  0  0  0  0  0
  123.8230  129.9410   64.2570 O   0  0  0  0  0  0  0  0  0  0  0  0
  124.2390  130.1050   62.9080 C   0  0  0  0  0  0  0  0  0  0  0  0
  124.1350  131.5840   62.5120 C   0  0  0  0  0  0  0  0  0  0  0  0
  124.2500  131.7030   61.1010 O   0  0  0  0  0  0  0  0  0  0  0  0
  123.8660  130.5320   60.3920 C   0  0  0  0  0  0  0  0  0  0  0  0
  124.9780  130.1490   59.4070 C   0  0  0  0  0  0  0  0  0  0  0  0
  125.2840  128.7690   59.5540 O   0  0  0  0  0  0  0  0  0  0  0  0
  125.8200  128.1700   58.3810 C   0  0  0  0  0  0  0  0  0  0  0  0
  126.7530  127.0170   58.7770 C   0  0  0  0  0  0  0  0  0  0  0  0
  126.0180  125.8410   59.2460 N   0  0  0  0  0  0  0  0  0  0  0  0
  126.0040  124.6380   58.6460 C   0  0  0  0  0  0  0  0  0  0  0  0
  126.6380  124.3780   57.6220 O   0  0  0  0  0  0  0  0  0  0  0  0
  125.1650  123.5500   59.3180 C   0  0  0  0  0  0  0  0  0  0  0  0
  125.5710  123.3690   61.0840 S   0  0  0  0  0  0  0  0  0  0  0  0
  127.3270  123.6030   61.3030 C   0  0  0  0  0  0  0  0  0  0  0  0
  128.0990  122.5010   61.1290 N   0  0  0  0  0  0  0  0  0  0  0  0
  129.4480  122.5840   61.2780 C   0  0  0  0  0  0  0  0  0  0  0  0
  130.2270  121.3240   61.0470 C   0  0  0  0  0  0  0  0  0  0  0  0
  129.7090  120.0780   61.4350 C   0  0  0  0  0  0  0  0  0  0  0  0
  130.4310  118.9060   61.2270 C   0  0  0  0  0  0  0  0  0  0  0  0
  131.6840  118.9630   60.6270 C   0  0  0  0  0  0  0  0  0  0  0  0
  132.2180  120.1850   60.2290 C   0  0  0  0  0  0  0  0  0  0  0  0
  131.4930  121.3550   60.4370 C   0  0  0  0  0  0  0  0  0  0  0  0
  130.0590  123.7990   61.6060 C   0  0  0  0  0  0  0  0  0  0  0  0
  129.2790  124.9460   61.7910 C   0  0  0  0  0  0  0  0  0  0  0  0
  129.9870  126.2510   62.1490 C   0  0  0  0  0  0  0  0  0  0  0  0
  127.8790  124.8590   61.6390 C   0  0  0  0  0  0  0  0  0  0  0  0
  127.0360  126.0430   61.8240 C   0  0  0  0  0  0  0  0  0  0  0  0
  126.3710  126.9790   61.9700 N   0  0  0  0  0  0  0  0  0  0  0  0
  124.5425  129.7231   66.1808 H   0  0  0  0  0  0  0  0  0  0  0  0
  125.2092  128.5826   64.9636 H   0  0  0  0  0  0  0  0  0  0  0  0
  125.7300  130.3018   64.9636 H   0  0  0  0  0  0  0  0  0  0  0  0
  125.2818  129.7707   62.8035 H   0  0  0  0  0  0  0  0  0  0  0  0
  123.5918  129.5052   62.2512 H   0  0  0  0  0  0  0  0  0  0  0  0
  123.1627  131.9834   62.8361 H   0  0  0  0  0  0  0  0  0  0  0  0
  124.9430  132.1521   62.9961 H   0  0  0  0  0  0  0  0  0  0  0  0
  123.7048  129.7082   61.1029 H   0  0  0  0  0  0  0  0  0  0  0  0
  122.9343  130.7241   59.8398 H   0  0  0  0  0  0  0  0  0  0  0  0
  124.6397  130.3424   58.3783 H   0  0  0  0  0  0  0  0  0  0  0  0
  125.8762  130.7488   59.6155 H   0  0  0  0  0  0  0  0  0  0  0  0
  124.9996  127.7812   57.7599 H   0  0  0  0  0  0  0  0  0  0  0  0
  126.3864  128.9213   57.8111 H   0  0  0  0  0  0  0  0  0  0  0  0
  127.3539  126.7319   57.9009 H   0  0  0  0  0  0  0  0  0  0  0  0
  127.3878  127.3679   59.6040 H   0  0  0  0  0  0  0  0  0  0  0  0
  125.5170  125.9510   60.1160 H   0  0  0  0  0  0  0  0  0  0  0  0
  124.1010  123.8127   59.2233 H   0  0  0  0  0  0  0  0  0  0  0  0
  125.3848  122.5946   58.8191 H   0  0  0  0  0  0  0  0  0  0  0  0
  128.7183  120.0271   61.9102 H   0  0  0  0  0  0  0  0  0  0  0  0
  130.0113  117.9375   61.5365 H   0  0  0  0  0  0  0  0  0  0  0  0
  132.2562  118.0374   60.4661 H   0  0  0  0  0  0  0  0  0  0  0  0
  133.2085  120.2261   59.7522 H   0  0  0  0  0  0  0  0  0  0  0  0
  131.9174  122.3187   60.1191 H   0  0  0  0  0  0  0  0  0  0  0  0
  131.1519  123.8527   61.7184 H   0  0  0  0  0  0  0  0  0  0  0  0
  130.0410  126.3506   63.2431 H   0  0  0  0  0  0  0  0  0  0  0  0
  131.0044  126.2429   61.7309 H   0  0  0  0  0  0  0  0  0  0  0  0
  129.4255  127.0995   61.7309 H   0  0  0  0  0  0  0  0  0  0  0  0
  1  2  1  0
  2  3  1  0
  3  4  1  0
  4  5  1  0
  5  6  1  0
  6  7  1  0
  7  8  1  0
  8  9  1  0
  9 10  1  0
 10 11  1  0
 11 12  1  0
 12 13  2  0
 12 14  1  0
 14 15  1  0
 15 16  1  0
 16 17  2  0
 17 18  1  0
 18 19  1  0
 19 20  2  0
 20 21  1  0
 21 22  2  0
 22 23  1  0
 23 24  2  0
 18 25  2  0
 25 26  1  0
 26 27  1  0
 26 28  2  0
 28 29  1  0
 29 30  3  0
 28 16  1  0
 24 19  1  0
  1 31  1  0
  1 32  1  0
  1 33  1  0
  3 34  1  0
  3 35  1  0
  4 36  1  0
  4 37  1  0
  6 38  1  0
  6 39  1  0
  7 40  1  0
  7 41  1  0
  9 42  1  0
  9 43  1  0
 10 44  1  0
 10 45  1  0
 11 46  1  0
 14 47  1  0
 14 48  1  0
 20 49  1  0
 21 50  1  0
 22 51  1  0
 23 52  1  0
 24 53  1  0
 25 54  1  0
 27 55  1  0
 27 56  1  0
 27 57  1  0
M  END
>  <Binding energies>  (1) 
[-6.33]

>  <Ligand effiencies>  (1) 
[-0.20419354838709677]

>  <Interactions>  (1) 
["V-A:TYR:539:CE1:4875, V-A:ILE:369:CG2:3236, V-B:TYR:539:CD2:9846, V-B:TYR:539:CE2:9848, H-B:ALA:541:N:9863, V-A:PRO:482:CG:4326, V-B:PRO:540:CA:9855, H-B:ASP:366:OD1:8185, V-B:ALA:541:CB:9864, V-B:GLU:543:CD:9880, V-B:PRO:540:CB:9857, V-B:TYR:539:C:9839, V-B:ALA:541:CA:9862, H-B:ARG:545:NH2:9900, H-B:GLY:454:N:9021, V-B:GLY:454:CA:9020, V-B:ILE:369:CG2:8208, V-B:ILE:369:CD1:8210, H-B:ARG:545:NH1:9899, V-B:ASP:366:CG:8184, V-B:ILE:369:CB:8207, V-B:ASP:366:CB:8183, V-B:ARG:545:CZ:9898, V-B:PRO:540:C:9853, H-B:TYR:531:OH:9767, V-B:TYR:531:CZ:9766, V-B:ASP:366:CA:8181"]

$$$$
3ca_Grossjean_2025
     RDKit          3D

 52 54  0  0  0  0  0  0  0  0999 V2000
  129.3760  123.3200   72.9860 C   0  0  0  0  0  0  0  0  0  0  0  0
  128.7750  124.7280   72.9950 C   0  0  0  0  0  0  0  0  0  0  0  0
  129.7460  125.6600   72.5350 O   0  0  0  0  0  0  0  0  0  0  0  0
  129.4130  126.9500   72.2740 C   0  0  0  0  0  0  0  0  0  0  0  0
  129.3730  127.8310   73.1390 O   0  0  0  0  0  0  0  0  0  0  0  0
  129.1020  127.2020   70.8260 C   0  0  0  0  0  0  0  0  0  0  0  0
  129.2900  128.4860   70.3000 C   0  0  0  0  0  0  0  0  0  0  0  0
  129.0110  128.7520   68.9620 C   0  0  0  0  0  0  0  0  0  0  0  0
  128.5320  127.7420   68.1260 C   0  0  0  0  0  0  0  0  0  0  0  0
  128.2840  128.1170   66.7920 N   0  0  0  0  0  0  0  0  0  0  0  0
  127.1110  128.2220   66.1300 C   0  0  0  0  0  0  0  0  0  0  0  0
  125.9990  128.0140   66.6140 O   0  0  0  0  0  0  0  0  0  0  0  0
  127.2230  128.6590   64.6660 C   0  0  0  0  0  0  0  0  0  0  0  0
  126.0880  130.0190   64.2340 S   0  0  0  0  0  0  0  0  0  0  0  0
  126.8970  131.1540   63.1140 C   0  0  0  0  0  0  0  0  0  0  0  0
  128.1820  130.8520   62.7990 N   0  0  0  0  0  0  0  0  0  0  0  0
  128.8500  131.6550   61.9420 C   0  0  0  0  0  0  0  0  0  0  0  0
  130.2740  131.2420   61.6270 C   0  0  0  0  0  0  0  0  0  0  0  0
  128.2750  132.7920   61.3790 C   0  0  0  0  0  0  0  0  0  0  0  0
  126.9560  133.1350   61.7020 C   0  0  0  0  0  0  0  0  0  0  0  0
  126.3870  134.3700   61.0840 C   0  0  0  0  0  0  0  0  0  0  0  0
  127.0860  135.5810   61.1600 C   0  0  0  0  0  0  0  0  0  0  0  0
  126.5590  136.7390   60.5960 C   0  0  0  0  0  0  0  0  0  0  0  0
  125.3240  136.6920   59.9540 C   0  0  0  0  0  0  0  0  0  0  0  0
  124.6120  135.4970   59.8750 C   0  0  0  0  0  0  0  0  0  0  0  0
  125.1430  134.3410   60.4420 C   0  0  0  0  0  0  0  0  0  0  0  0
  126.2380  132.2910   62.5880 C   0  0  0  0  0  0  0  0  0  0  0  0
  124.8380  132.5700   62.9230 C   0  0  0  0  0  0  0  0  0  0  0  0
  123.7330  132.7920   63.1860 N   0  0  0  0  0  0  0  0  0  0  0  0
  128.3490  126.4500   68.6430 C   0  0  0  0  0  0  0  0  0  0  0  0
  128.6300  126.1870   69.9810 C   0  0  0  0  0  0  0  0  0  0  0  0
  129.5223  122.9772   74.0209 H   0  0  0  0  0  0  0  0  0  0  0  0
  128.6927  122.6330   72.4653 H   0  0  0  0  0  0  0  0  0  0  0  0
  130.3448  123.3382   72.4653 H   0  0  0  0  0  0  0  0  0  0  0  0
  127.8969  124.7563   72.3331 H   0  0  0  0  0  0  0  0  0  0  0  0
  128.4704  124.9905   74.0189 H   0  0  0  0  0  0  0  0  0  0  0  0
  129.6615  129.2920   70.9498 H   0  0  0  0  0  0  0  0  0  0  0  0
  129.1690  129.7642   68.5614 H   0  0  0  0  0  0  0  0  0  0  0  0
  129.1090  128.3920   66.2790 H   0  0  0  0  0  0  0  0  0  0  0  0
  128.2546  128.9915   64.4783 H   0  0  0  0  0  0  0  0  0  0  0  0
  126.9483  127.7939   64.0445 H   0  0  0  0  0  0  0  0  0  0  0  0
  130.8255  131.0821   62.5653 H   0  0  0  0  0  0  0  0  0  0  0  0
  130.2648  130.3095   61.0436 H   0  0  0  0  0  0  0  0  0  0  0  0
  130.7651  132.0347   61.0436 H   0  0  0  0  0  0  0  0  0  0  0  0
  128.8542  133.4176   60.6839 H   0  0  0  0  0  0  0  0  0  0  0  0
  128.0600  135.6173   61.6699 H   0  0  0  0  0  0  0  0  0  0  0  0
  127.1149  137.6863   60.6570 H   0  0  0  0  0  0  0  0  0  0  0  0
  124.9072  137.6059   59.5056 H   0  0  0  0  0  0  0  0  0  0  0  0
  123.6363  135.4667   59.3679 H   0  0  0  0  0  0  0  0  0  0  0  0
  124.5805  133.3974   60.3850 H   0  0  0  0  0  0  0  0  0  0  0  0
  127.9830  125.6440   67.9900 H   0  0  0  0  0  0  0  0  0  0  0  0
  128.4803  125.1727   70.3795 H   0  0  0  0  0  0  0  0  0  0  0  0
  1  2  1  0
  2  3  1  0
  3  4  1  0
  4  5  2  0
  4  6  1  0
  6  7  2  0
  7  8  1  0
  8  9  2  0
  9 10  1  0
 10 11  1  0
 11 12  2  0
 11 13  1  0
 13 14  1  0
 14 15  1  0
 15 16  2  0
 16 17  1  0
 17 18  1  0
 17 19  2  0
 19 20  1  0
 20 21  1  0
 21 22  2  0
 22 23  1  0
 23 24  2  0
 24 25  1  0
 25 26  2  0
 20 27  2  0
 27 28  1  0
 28 29  3  0
  9 30  1  0
 30 31  2  0
 31  6  1  0
 27 15  1  0
 26 21  1  0
  1 32  1  0
  1 33  1  0
  1 34  1  0
  2 35  1  0
  2 36  1  0
  7 37  1  0
  8 38  1  0
 10 39  1  0
 13 40  1  0
 13 41  1  0
 18 42  1  0
 18 43  1  0
 18 44  1  0
 19 45  1  0
 22 46  1  0
 23 47  1  0
 24 48  1  0
 25 49  1  0
 26 50  1  0
 30 51  1  0
 31 52  1  0
M  END
>  <Binding energies>  (1) 
[-8.23]

>  <Ligand effiencies>  (1) 
[-0.2571875]

>  <Interactions>  (1) 
["V-A:ALA:541:CB:4892, V-A:TYR:539:CE1:4875, V-A:TYR:539:CD1:4873, V-B:LEU:475:CD1:9229, V-A:GLU:543:CD:4908, H-A:GLU:543:OE1:4909, V-A:HIS:456:CE1:4069, V-B:HIS:456:CE1:9041, V-A:GLU:543:CB:4906, V-B:GLU:543:C:9874, V-B:GLU:543:CB:9878, H-B:GLY:454:N:9021, V-B:PRO:482:CB:9297, V-A:TYR:539:CB:4871, V-B:GLY:454:CA:9020, V-B:ILE:369:CG2:8208, V-B:PRO:482:CG:9298, V-A:ALA:541:CA:4890, V-B:LEU:373:CD1:8251, V-B:SER:385:CB:8380, V-A:GLU:543:C:4902, H-B:ARG:545:NE:9896, V-B:HIS:456:CD2:9039, V-A:HIS:456:CD2:4067"]

$$$$
3cb_Grossjean_2025
     RDKit          3D

 49 51  0  0  0  0  0  0  0  0999 V2000
  127.5370  125.5620   73.0520 C   0  0  0  0  0  0  0  0  0  0  0  0
  128.8840  125.7110   72.6290 O   0  0  0  0  0  0  0  0  0  0  0  0
  129.3650  126.9190   72.2390 C   0  0  0  0  0  0  0  0  0  0  0  0
  129.9520  127.6950   72.9990 O   0  0  0  0  0  0  0  0  0  0  0  0
  129.1110  127.2190   70.7890 C   0  0  0  0  0  0  0  0  0  0  0  0
  129.3450  128.4890   70.2400 C   0  0  0  0  0  0  0  0  0  0  0  0
  129.1010  128.7330   68.8920 C   0  0  0  0  0  0  0  0  0  0  0  0
  128.6150  127.7200   68.0650 C   0  0  0  0  0  0  0  0  0  0  0  0
  128.4070  128.0770   66.7170 N   0  0  0  0  0  0  0  0  0  0  0  0
  127.2850  128.4980   66.0940 C   0  0  0  0  0  0  0  0  0  0  0  0
  126.1950  128.6680   66.6430 O   0  0  0  0  0  0  0  0  0  0  0  0
  127.4600  128.7850   64.5950 C   0  0  0  0  0  0  0  0  0  0  0  0
  126.1140  129.7590   63.8370 S   0  0  0  0  0  0  0  0  0  0  0  0
  126.8590  131.0070   62.8080 C   0  0  0  0  0  0  0  0  0  0  0  0
  128.1500  130.7450   62.4910 N   0  0  0  0  0  0  0  0  0  0  0  0
  128.8180  131.6260   61.7130 C   0  0  0  0  0  0  0  0  0  0  0  0
  130.2550  131.2620   61.3880 C   0  0  0  0  0  0  0  0  0  0  0  0
  128.2340  132.7920   61.2280 C   0  0  0  0  0  0  0  0  0  0  0  0
  126.9050  133.0920   61.5560 C   0  0  0  0  0  0  0  0  0  0  0  0
  126.3240  134.3600   61.0170 C   0  0  0  0  0  0  0  0  0  0  0  0
  127.0420  135.5590   61.1110 C   0  0  0  0  0  0  0  0  0  0  0  0
  126.5150  136.7430   60.6020 C   0  0  0  0  0  0  0  0  0  0  0  0
  125.2640  136.7320   59.9910 C   0  0  0  0  0  0  0  0  0  0  0  0
  124.5400  135.5480   59.8820 C   0  0  0  0  0  0  0  0  0  0  0  0
  125.0710  134.3650   60.3900 C   0  0  0  0  0  0  0  0  0  0  0  0
  126.1940  132.1840   62.3840 C   0  0  0  0  0  0  0  0  0  0  0  0
  124.8330  132.4920   62.8350 C   0  0  0  0  0  0  0  0  0  0  0  0
  123.7590  132.7350   63.1900 N   0  0  0  0  0  0  0  0  0  0  0  0
  128.3820  126.4460   68.6050 C   0  0  0  0  0  0  0  0  0  0  0  0
  128.6270  126.2030   69.9540 C   0  0  0  0  0  0  0  0  0  0  0  0
  127.4962  125.5575   74.1512 H   0  0  0  0  0  0  0  0  0  0  0  0
  126.9368  126.3992   72.6663 H   0  0  0  0  0  0  0  0  0  0  0  0
  127.1343  124.6138   72.6663 H   0  0  0  0  0  0  0  0  0  0  0  0
  129.7246  129.2986   70.8807 H   0  0  0  0  0  0  0  0  0  0  0  0
  129.2929  129.7327   68.4751 H   0  0  0  0  0  0  0  0  0  0  0  0
  129.2400  128.0290   66.1470 H   0  0  0  0  0  0  0  0  0  0  0  0
  128.4005  129.3394   64.4607 H   0  0  0  0  0  0  0  0  0  0  0  0
  127.4553  127.8073   64.0909 H   0  0  0  0  0  0  0  0  0  0  0  0
  130.8175  131.1195   62.3225 H   0  0  0  0  0  0  0  0  0  0  0  0
  130.2740  130.3307   60.8030 H   0  0  0  0  0  0  0  0  0  0  0  0
  130.7151  132.0720   60.8030 H   0  0  0  0  0  0  0  0  0  0  0  0
  128.8131  133.4755   60.5897 H   0  0  0  0  0  0  0  0  0  0  0  0
  128.0315  135.5653   61.5915 H   0  0  0  0  0  0  0  0  0  0  0  0
  127.0835  137.6813   60.6821 H   0  0  0  0  0  0  0  0  0  0  0  0
  124.8442  137.6668   59.5910 H   0  0  0  0  0  0  0  0  0  0  0  0
  123.5528  135.5468   59.3967 H   0  0  0  0  0  0  0  0  0  0  0  0
  124.5026  133.4277   60.2983 H   0  0  0  0  0  0  0  0  0  0  0  0
  128.0050  125.6376   67.9613 H   0  0  0  0  0  0  0  0  0  0  0  0
  128.4384  125.2019   70.3690 H   0  0  0  0  0  0  0  0  0  0  0  0
  1  2  1  0
  2  3  1  0
  3  4  2  0
  3  5  1  0
  5  6  2  0
  6  7  1  0
  7  8  2  0
  8  9  1  0
  9 10  1  0
 10 11  2  0
 10 12  1  0
 12 13  1  0
 13 14  1  0
 14 15  2  0
 15 16  1  0
 16 17  1  0
 16 18  2  0
 18 19  1  0
 19 20  1  0
 20 21  2  0
 21 22  1  0
 22 23  2  0
 23 24  1  0
 24 25  2  0
 19 26  2  0
 26 27  1  0
 27 28  3  0
  8 29  1  0
 29 30  2  0
 30  5  1  0
 26 14  1  0
 25 20  1  0
  1 31  1  0
  1 32  1  0
  1 33  1  0
  6 34  1  0
  7 35  1  0
  9 36  1  0
 12 37  1  0
 12 38  1  0
 17 39  1  0
 17 40  1  0
 17 41  1  0
 18 42  1  0
 21 43  1  0
 22 44  1  0
 23 45  1  0
 24 46  1  0
 25 47  1  0
 29 48  1  0
 30 49  1  0
M  END
>  <Binding energies>  (1) 
[-8.14]

>  <Ligand effiencies>  (1) 
[-0.2625806451612903]

>  <Interactions>  (1) 
["V-A:ALA:541:CB:4892, V-A:TYR:539:CE1:4875, V-A:PRO:540:CA:4883, V-A:TYR:539:CD1:4873, V-B:LEU:475:CD1:9229, V-A:GLU:543:CD:4908, H-A:GLU:543:OE1:4909, V-A:HIS:456:CE1:4069, V-B:HIS:456:CE1:9041, V-A:GLU:543:CB:4906, V-B:GLU:543:C:9874, V-B:GLU:543:CB:9878, H-B:TYR:484:OH:9319, H-B:GLY:454:N:9021, V-B:PRO:482:CB:9297, V-A:TYR:539:CB:4871, V-B:GLY:454:CA:9020, V-B:ILE:369:CG2:8208, V-B:PRO:482:CG:9298, V-B:LEU:373:CD1:8251, V-B:SER:385:CB:8380, V-A:GLU:543:C:4902, V-B:HIS:456:CD2:9039, V-B:GLY:544:CA:9886, V-B:LYS:547:CE:9922, V-B:GLY:544:C:9884"]

$$$$
3ce_Grossjean_2025
     RDKit          3D

 45 47  0  0  0  0  0  0  0  0999 V2000
  134.9480  125.1420   66.6670 C   0  0  0  0  0  0  0  0  0  0  0  0
  133.6370  125.2680   65.9140 C   0  0  0  0  0  0  0  0  0  0  0  0
  132.5220  125.8880   66.4850 C   0  0  0  0  0  0  0  0  0  0  0  0
  131.3530  125.9770   65.7300 C   0  0  0  0  0  0  0  0  0  0  0  0
  131.3250  125.4490   64.4370 C   0  0  0  0  0  0  0  0  0  0  0  0
  132.4730  124.8320   63.9300 C   0  0  0  0  0  0  0  0  0  0  0  0
  132.3930  124.3370   62.6170 N   0  0  0  0  0  0  0  0  0  0  0  0
  133.3770  123.7940   61.8670 C   0  0  0  0  0  0  0  0  0  0  0  0
  134.5420  123.6380   62.2360 O   0  0  0  0  0  0  0  0  0  0  0  0
  132.9700  123.3450   60.4640 C   0  0  0  0  0  0  0  0  0  0  0  0
  131.9560  121.8380   60.5010 S   0  0  0  0  0  0  0  0  0  0  0  0
  130.4720  122.2750   61.3760 C   0  0  0  0  0  0  0  0  0  0  0  0
  130.6260  122.3490   62.7210 N   0  0  0  0  0  0  0  0  0  0  0  0
  129.5580  122.6920   63.4760 C   0  0  0  0  0  0  0  0  0  0  0  0
  129.8040  122.7680   64.9710 C   0  0  0  0  0  0  0  0  0  0  0  0
  128.3060  122.9580   62.9280 C   0  0  0  0  0  0  0  0  0  0  0  0
  128.1200  122.8620   61.5430 C   0  0  0  0  0  0  0  0  0  0  0  0
  126.7530  123.1320   61.0040 C   0  0  0  0  0  0  0  0  0  0  0  0
  126.5980  123.7340   59.7500 C   0  0  0  0  0  0  0  0  0  0  0  0
  125.3270  123.9940   59.2440 C   0  0  0  0  0  0  0  0  0  0  0  0
  124.2030  123.6600   59.9950 C   0  0  0  0  0  0  0  0  0  0  0  0
  124.3410  123.0700   61.2490 C   0  0  0  0  0  0  0  0  0  0  0  0
  125.6130  122.8100   61.7520 C   0  0  0  0  0  0  0  0  0  0  0  0
  129.2330  122.5150   60.7360 C   0  0  0  0  0  0  0  0  0  0  0  0
  129.1020  122.4140   59.2790 C   0  0  0  0  0  0  0  0  0  0  0  0
  128.9980  122.3350   58.1290 N   0  0  0  0  0  0  0  0  0  0  0  0
  133.6240  124.7480   64.6600 N   0  0  0  0  0  0  0  0  0  0  0  0
  134.7525  125.1608   67.7493 H   0  0  0  0  0  0  0  0  0  0  0  0
  135.4351  124.1929   66.3988 H   0  0  0  0  0  0  0  0  0  0  0  0
  135.6070  125.9809   66.3988 H   0  0  0  0  0  0  0  0  0  0  0  0
  132.5656  126.2960   67.5056 H   0  0  0  0  0  0  0  0  0  0  0  0
  130.4584  126.4600   66.1500 H   0  0  0  0  0  0  0  0  0  0  0  0
  130.4127  125.5176   63.8262 H   0  0  0  0  0  0  0  0  0  0  0  0
  131.4610  124.3100   62.2300 H   0  0  0  0  0  0  0  0  0  0  0  0
  132.3925  124.1503   59.9867 H   0  0  0  0  0  0  0  0  0  0  0  0
  133.8869  123.1245   59.8978 H   0  0  0  0  0  0  0  0  0  0  0  0
  128.8870  122.4847   65.5084 H   0  0  0  0  0  0  0  0  0  0  0  0
  130.6168  122.0791   65.2443 H   0  0  0  0  0  0  0  0  0  0  0  0
  130.0866  123.7953   65.2443 H   0  0  0  0  0  0  0  0  0  0  0  0
  127.4667  123.2423   63.5798 H   0  0  0  0  0  0  0  0  0  0  0  0
  127.4864  124.0036   59.1600 H   0  0  0  0  0  0  0  0  0  0  0  0
  125.2114  124.4614   58.2550 H   0  0  0  0  0  0  0  0  0  0  0  0
  123.1988  123.8636   59.5949 H   0  0  0  0  0  0  0  0  0  0  0  0
  123.4496  122.8107   61.8391 H   0  0  0  0  0  0  0  0  0  0  0  0
  125.7237  122.3483   62.7442 H   0  0  0  0  0  0  0  0  0  0  0  0
  1  2  1  0
  2  3  2  0
  3  4  1  0
  4  5  2  0
  5  6  1  0
  6  7  1  0
  7  8  1  0
  8  9  2  0
  8 10  1  0
 10 11  1  0
 11 12  1  0
 12 13  2  0
 13 14  1  0
 14 15  1  0
 14 16  2  0
 16 17  1  0
 17 18  1  0
 18 19  2  0
 19 20  1  0
 20 21  2  0
 21 22  1  0
 22 23  2  0
 17 24  2  0
 24 25  1  0
 25 26  3  0
  6 27  2  0
 27  2  1  0
 24 12  1  0
 23 18  1  0
  1 28  1  0
  1 29  1  0
  1 30  1  0
  3 31  1  0
  4 32  1  0
  5 33  1  0
  7 34  1  0
 10 35  1  0
 10 36  1  0
 15 37  1  0
 15 38  1  0
 15 39  1  0
 16 40  1  0
 19 41  1  0
 20 42  1  0
 21 43  1  0
 22 44  1  0
 23 45  1  0
M  END
>  <Binding energies>  (1) 
[-8.16]

>  <Ligand effiencies>  (1) 
[-0.2914285714285714]

>  <Interactions>  (1) 
["V-A:GLU:543:CD:4908, V-A:ARG:545:CD:4923, V-A:ARG:545:CG:4922, V-A:GLY:453:C:4041, H-A:TYR:484:OH:4347, V-A:GLY:454:CA:4048, V-A:TYR:484:CZ:4346, V-A:ARG:545:CZ:4926, H-A:GLY:454:N:4049, V-B:TYR:539:CD2:9846, V-B:TYR:539:CE2:9848, V-B:PRO:540:CA:9855, V-B:GLU:543:CG:9879, V-B:ALA:541:CB:9864, V-B:GLU:543:CD:9880, V-B:PRO:540:CB:9857, V-B:TYR:539:C:9839, V-A:TYR:484:CE2:4345, V-A:HIS:456:CE1:4069, V-A:GLY:453:CA:4043, V-B:ASP:366:CG:8184, V-B:LEU:363:CA:8156, V-B:PRO:540:C:9853, V-B:LEU:363:CB:8158, V-B:ASN:362:CB:8147, V-B:ASN:362:C:8143, V-A:GLY:454:C:4046, V-A:ILE:455:C:4051"]

$$$$
3ch_Grossjean_2025
     RDKit          3D

 55 57  0  0  0  0  0  0  0  0999 V2000
  130.5950  121.9570   63.0580 C   0  0  0  0  0  0  0  0  0  0  0  0
  131.0820  123.2590   62.7490 O   0  0  0  0  0  0  0  0  0  0  0  0
  131.2640  124.1790   63.7670 C   0  0  0  0  0  0  0  0  0  0  0  0
  130.2180  124.8810   64.3870 C   0  0  0  0  0  0  0  0  0  0  0  0
  130.4770  125.7930   65.4200 C   0  0  0  0  0  0  0  0  0  0  0  0
  129.4960  126.5370   66.1040 N   0  0  0  0  0  0  0  0  0  0  0  0
  128.8710  126.2730   67.2720 C   0  0  0  0  0  0  0  0  0  0  0  0
  129.0730  125.2880   67.9830 O   0  0  0  0  0  0  0  0  0  0  0  0
  127.8680  127.3280   67.7360 C   0  0  0  0  0  0  0  0  0  0  0  0
  128.0950  128.9150   66.8800 S   0  0  0  0  0  0  0  0  0  0  0  0
  126.5870  129.2120   65.9820 C   0  0  0  0  0  0  0  0  0  0  0  0
  125.4690  129.1460   66.7480 N   0  0  0  0  0  0  0  0  0  0  0  0
  124.2700  129.3500   66.1580 C   0  0  0  0  0  0  0  0  0  0  0  0
  123.0620  129.2560   67.0710 C   0  0  0  0  0  0  0  0  0  0  0  0
  124.1370  129.6220   64.7990 C   0  0  0  0  0  0  0  0  0  0  0  0
  125.2810  129.7020   63.9920 C   0  0  0  0  0  0  0  0  0  0  0  0
  125.0900  129.9870   62.5380 C   0  0  0  0  0  0  0  0  0  0  0  0
  124.3220  131.0840   62.1310 C   0  0  0  0  0  0  0  0  0  0  0  0
  124.1320  131.3510   60.7770 C   0  0  0  0  0  0  0  0  0  0  0  0
  124.7100  130.5170   59.8230 C   0  0  0  0  0  0  0  0  0  0  0  0
  125.4710  129.4180   60.2110 C   0  0  0  0  0  0  0  0  0  0  0  0
  125.6570  129.1540   61.5660 C   0  0  0  0  0  0  0  0  0  0  0  0
  126.5490  129.5100   64.6000 C   0  0  0  0  0  0  0  0  0  0  0  0
  127.7820  129.6750   63.8250 C   0  0  0  0  0  0  0  0  0  0  0  0
  128.7560  129.8040   63.2140 N   0  0  0  0  0  0  0  0  0  0  0  0
  131.7970  126.0130   65.8170 C   0  0  0  0  0  0  0  0  0  0  0  0
  132.8600  125.3250   65.2110 C   0  0  0  0  0  0  0  0  0  0  0  0
  134.1890  125.4920   65.5630 O   0  0  0  0  0  0  0  0  0  0  0  0
  134.6100  125.1660   66.8830 C   0  0  0  0  0  0  0  0  0  0  0  0
  132.5800  124.4130   64.1860 C   0  0  0  0  0  0  0  0  0  0  0  0
  133.6110  123.7200   63.5960 O   0  0  0  0  0  0  0  0  0  0  0  0
  134.1470  124.3500   62.4410 C   0  0  0  0  0  0  0  0  0  0  0  0
  130.5484  121.8325   64.1499 H   0  0  0  0  0  0  0  0  0  0  0  0
  129.5890  121.8310   62.6314 H   0  0  0  0  0  0  0  0  0  0  0  0
  131.2714  121.2017   62.6314 H   0  0  0  0  0  0  0  0  0  0  0  0
  129.1818  124.7133   64.0580 H   0  0  0  0  0  0  0  0  0  0  0  0
  129.2640  127.4160   65.6650 H   0  0  0  0  0  0  0  0  0  0  0  0
  126.8503  126.9608   67.5373 H   0  0  0  0  0  0  0  0  0  0  0  0
  128.0297  127.4980   68.8107 H   0  0  0  0  0  0  0  0  0  0  0  0
  123.3923  129.2817   68.1199 H   0  0  0  0  0  0  0  0  0  0  0  0
  122.3892  130.1045   66.8775 H   0  0  0  0  0  0  0  0  0  0  0  0
  122.5286  128.3136   66.8775 H   0  0  0  0  0  0  0  0  0  0  0  0
  123.1396  129.7734   64.3606 H   0  0  0  0  0  0  0  0  0  0  0  0
  123.8649  131.7404   62.8861 H   0  0  0  0  0  0  0  0  0  0  0  0
  123.5288  132.2157   60.4631 H   0  0  0  0  0  0  0  0  0  0  0  0
  124.5638  130.7287   58.7535 H   0  0  0  0  0  0  0  0  0  0  0  0
  125.9227  128.7620   59.4523 H   0  0  0  0  0  0  0  0  0  0  0  0
  126.2545  128.2836   61.8750 H   0  0  0  0  0  0  0  0  0  0  0  0
  132.0077  126.7372   66.6177 H   0  0  0  0  0  0  0  0  0  0  0  0
  133.9580  125.6709   67.6110 H   0  0  0  0  0  0  0  0  0  0  0  0
  134.5488  124.0775   67.0291 H   0  0  0  0  0  0  0  0  0  0  0  0
  135.6486  125.4977   67.0291 H   0  0  0  0  0  0  0  0  0  0  0  0
  134.8317  125.1548   62.7467 H   0  0  0  0  0  0  0  0  0  0  0  0
  134.6962  123.6095   61.8410 H   0  0  0  0  0  0  0  0  0  0  0  0
  133.3281  124.7735   61.8410 H   0  0  0  0  0  0  0  0  0  0  0  0
  1  2  1  0
  2  3  1  0
  3  4  2  0
  4  5  1  0
  5  6  1  0
  6  7  1  0
  7  8  2  0
  7  9  1  0
  9 10  1  0
 10 11  1  0
 11 12  2  0
 12 13  1  0
 13 14  1  0
 13 15  2  0
 15 16  1  0
 16 17  1  0
 17 18  2  0
 18 19  1  0
 19 20  2  0
 20 21  1  0
 21 22  2  0
 16 23  2  0
 23 24  1  0
 24 25  3  0
  5 26  2  0
 26 27  1  0
 27 28  1  0
 28 29  1  0
 27 30  2  0
 30 31  1  0
 31 32  1  0
 30  3  1  0
 23 11  1  0
 22 17  1  0
  1 33  1  0
  1 34  1  0
  1 35  1  0
  4 36  1  0
  6 37  1  0
  9 38  1  0
  9 39  1  0
 14 40  1  0
 14 41  1  0
 14 42  1  0
 15 43  1  0
 18 44  1  0
 19 45  1  0
 20 46  1  0
 21 47  1  0
 22 48  1  0
 26 49  1  0
 29 50  1  0
 29 51  1  0
 29 52  1  0
 32 53  1  0
 32 54  1  0
 32 55  1  0
M  END
>  <Binding energies>  (1) 
[-7.76]

>  <Ligand effiencies>  (1) 
[-0.23515151515151514]

>  <Interactions>  (1) 
["V-A:GLU:543:CD:4908, V-A:ASP:366:CG:3212, V-A:ARG:545:CD:4923, V-A:ARG:545:CG:4922, V-A:GLY:453:C:4041, H-A:TYR:484:OH:4347, V-A:GLY:454:CA:4048, H-A:ARG:545:NH2:4928, H-A:GLU:543:OE1:4909, H-A:ARG:545:NH1:4927, V-A:ARG:545:CZ:4926, H-A:GLY:454:N:4049, H-A:ARG:545:NE:4924, V-A:LEU:475:CD1:4257, V-B:GLU:543:CG:9879, V-B:ALA:541:CB:9864, V-B:GLU:543:CD:9880, V-B:HIS:456:CE1:9041, V-A:GLY:453:CA:4043, V-B:GLU:543:CB:9878, H-B:TYR:484:OH:9319, V-B:GLY:454:CA:9020, V-B:ILE:369:CG2:8208, V-B:ILE:369:CD1:8210, V-B:ASP:366:CG:8184, V-B:ILE:369:CB:8207, V-B:ASP:366:CB:8183, H-B:GLU:543:OE2:9882, V-B:ARG:545:CG:9894, H-B:ARG:545:NE:9896, V-B:ARG:545:CD:9895, V-B:GLY:453:C:9013, V-B:GLY:453:CA:9015, V-B:ARG:545:CZ:9898, V-B:ASP:366:CA:8181, V-A:GLY:454:C:4046, V-A:ILE:455:C:4051, V-B:ILE:455:C:9023"]

$$$$
3ci_Grossjean_2025
     RDKit          3D

 39 41  0  0  0  0  0  0  0  0999 V2000
  134.5850  124.3260   62.1290 C   0  0  0  0  0  0  0  0  0  0  0  0
  133.1980  123.7640   61.8850 C   0  0  0  0  0  0  0  0  0  0  0  0
  132.9960  122.4200   61.5870 C   0  0  0  0  0  0  0  0  0  0  0  0
  131.6930  121.9430   61.3850 C   0  0  0  0  0  0  0  0  0  0  0  0
  131.5220  120.4910   61.0820 C   0  0  0  0  0  0  0  0  0  0  0  0
  130.5100  119.7440   61.6990 C   0  0  0  0  0  0  0  0  0  0  0  0
  130.3610  118.3880   61.4200 C   0  0  0  0  0  0  0  0  0  0  0  0
  131.2300  117.7700   60.5270 C   0  0  0  0  0  0  0  0  0  0  0  0
  132.2480  118.4950   59.9120 C   0  0  0  0  0  0  0  0  0  0  0  0
  132.3930  119.8500   60.1930 C   0  0  0  0  0  0  0  0  0  0  0  0
  130.6170  122.8630   61.4810 C   0  0  0  0  0  0  0  0  0  0  0  0
  129.2360  122.4310   61.2380 C   0  0  0  0  0  0  0  0  0  0  0  0
  128.1460  122.0890   61.0460 N   0  0  0  0  0  0  0  0  0  0  0  0
  130.9110  124.2120   61.7930 C   0  0  0  0  0  0  0  0  0  0  0  0
  129.6310  125.4500   61.9610 S   0  0  0  0  0  0  0  0  0  0  0  0
  129.5310  125.9890   63.6990 C   0  0  0  0  0  0  0  0  0  0  0  0
  130.5730  125.3230   64.6040 C   0  0  0  0  0  0  0  0  0  0  0  0
  130.3860  124.1670   64.9890 O   0  0  0  0  0  0  0  0  0  0  0  0
  131.6410  126.0850   64.9290 N   0  0  0  0  0  0  0  0  0  0  0  0
  132.7330  125.7170   65.7030 C   0  0  0  0  0  0  0  0  0  0  0  0
  132.8030  125.9490   67.0770 C   0  0  0  0  0  0  0  0  0  0  0  0
  134.0260  125.4470   67.4620 C   0  0  0  0  0  0  0  0  0  0  0  0
  134.6570  124.9390   66.3760 O   0  0  0  0  0  0  0  0  0  0  0  0
  133.8280  125.1170   65.2680 N   0  0  0  0  0  0  0  0  0  0  0  0
  132.1820  124.6490   61.9830 N   0  0  0  0  0  0  0  0  0  0  0  0
  134.7657  124.3992   63.2116 H   0  0  0  0  0  0  0  0  0  0  0  0
  135.3350  123.6608   61.6762 H   0  0  0  0  0  0  0  0  0  0  0  0
  134.6605  125.3256   61.6762 H   0  0  0  0  0  0  0  0  0  0  0  0
  133.8537  121.7355   61.5103 H   0  0  0  0  0  0  0  0  0  0  0  0
  129.8275  120.2328   62.4098 H   0  0  0  0  0  0  0  0  0  0  0  0
  129.5604  117.8087   61.9032 H   0  0  0  0  0  0  0  0  0  0  0  0
  131.1123  116.6992   60.3045 H   0  0  0  0  0  0  0  0  0  0  0  0
  132.9331  117.9994   59.2085 H   0  0  0  0  0  0  0  0  0  0  0  0
  133.1996  120.4229   59.7121 H   0  0  0  0  0  0  0  0  0  0  0  0
  129.6825  127.0779   63.7356 H   0  0  0  0  0  0  0  0  0  0  0  0
  128.5397  125.6942   64.0737 H   0  0  0  0  0  0  0  0  0  0  0  0
  131.6720  127.0200   64.5520 H   0  0  0  0  0  0  0  0  0  0  0  0
  132.0456  126.4288   67.7143 H   0  0  0  0  0  0  0  0  0  0  0  0
  134.4263  125.4568   68.4865 H   0  0  0  0  0  0  0  0  0  0  0  0
  1  2  1  0
  2  3  2  0
  3  4  1  0
  4  5  1  0
  5  6  2  0
  6  7  1  0
  7  8  2  0
  8  9  1  0
  9 10  2  0
  4 11  2  0
 11 12  1  0
 12 13  3  0
 11 14  1  0
 14 15  1  0
 15 16  1  0
 16 17  1  0
 17 18  2  0
 17 19  1  0
 19 20  1  0
 20 21  1  0
 21 22  2  0
 22 23  1  0
 23 24  1  0
 14 25  2  0
 25  2  1  0
 10  5  1  0
 24 20  2  0
  1 26  1  0
  1 27  1  0
  1 28  1  0
  3 29  1  0
  6 30  1  0
  7 31  1  0
  8 32  1  0
  9 33  1  0
 10 34  1  0
 16 35  1  0
 16 36  1  0
 19 37  1  0
 21 38  1  0
 22 39  1  0
M  END
>  <Binding energies>  (1) 
[-8.28]

>  <Ligand effiencies>  (1) 
[-0.31846153846153846]

>  <Interactions>  (1) 
["V-A:GLU:543:CD:4908, V-A:ASP:366:CG:3212, V-A:ARG:545:CD:4923, V-A:ARG:545:CG:4922, V-A:GLY:453:C:4041, H-A:TYR:484:OH:4347, H-A:GLU:543:OE2:4910, V-A:TYR:484:CZ:4346, H-A:ARG:545:NH2:4928, V-A:ILE:369:CD1:3238, H-A:GLU:543:OE1:4909, V-A:ARG:545:CZ:4926, H-A:GLY:454:N:4049, H-A:ARG:545:NE:4924, V-A:ILE:369:CG2:3236, V-B:TYR:539:CD2:9846, V-B:TYR:539:CE2:9848, V-A:LEU:475:CD1:4257, V-A:HIS:383:CE1:3392, H-B:ALA:541:N:9863, V-A:PRO:482:CB:4325, V-A:PRO:482:CG:4326, V-B:ALA:541:CB:9864, V-B:GLU:543:CD:9880, V-A:HIS:383:CD2:3391, V-A:HIS:456:CE1:4069, V-A:GLY:453:CA:4043, H-A:ILE:455:N:4054, V-A:ILE:455:C:4051"]

$$$$
3cj_Grossjean_2025
     RDKit          3D

 39 41  0  0  0  0  0  0  0  0999 V2000
  134.6600  124.3410   62.1480 C   0  0  0  0  0  0  0  0  0  0  0  0
  133.2740  123.7950   61.8650 C   0  0  0  0  0  0  0  0  0  0  0  0
  133.0650  122.4440   61.5940 C   0  0  0  0  0  0  0  0  0  0  0  0
  131.7640  121.9780   61.3610 C   0  0  0  0  0  0  0  0  0  0  0  0
  131.5790  120.5140   61.1390 C   0  0  0  0  0  0  0  0  0  0  0  0
  132.3920  119.8240   60.2320 C   0  0  0  0  0  0  0  0  0  0  0  0
  132.2100  118.4610   60.0160 C   0  0  0  0  0  0  0  0  0  0  0  0
  131.2090  117.7830   60.7040 C   0  0  0  0  0  0  0  0  0  0  0  0
  130.3860  118.4570   61.6030 C   0  0  0  0  0  0  0  0  0  0  0  0
  130.5700  119.8210   61.8170 C   0  0  0  0  0  0  0  0  0  0  0  0
  130.7000  122.9140   61.3760 C   0  0  0  0  0  0  0  0  0  0  0  0
  129.3200  122.4920   61.1110 C   0  0  0  0  0  0  0  0  0  0  0  0
  128.2310  122.1590   60.9030 N   0  0  0  0  0  0  0  0  0  0  0  0
  131.0030  124.2630   61.6640 C   0  0  0  0  0  0  0  0  0  0  0  0
  129.7480  125.5130   61.8470 S   0  0  0  0  0  0  0  0  0  0  0  0
  129.1880  125.3630   63.5730 C   0  0  0  0  0  0  0  0  0  0  0  0
  130.3090  124.8770   64.4970 C   0  0  0  0  0  0  0  0  0  0  0  0
  130.4150  123.6730   64.7420 O   0  0  0  0  0  0  0  0  0  0  0  0
  131.1400  125.8380   64.9540 N   0  0  0  0  0  0  0  0  0  0  0  0
  132.3000  125.6490   65.6880 C   0  0  0  0  0  0  0  0  0  0  0  0
  133.4360  125.1260   65.2820 N   0  0  0  0  0  0  0  0  0  0  0  0
  134.3400  125.1300   66.2420 C   0  0  0  0  0  0  0  0  0  0  0  0
  133.9400  125.6660   67.4620 C   0  0  0  0  0  0  0  0  0  0  0  0
  132.2870  126.1890   67.3360 S   0  0  0  0  0  0  0  0  0  0  0  0
  132.2650  124.6930   61.9140 N   0  0  0  0  0  0  0  0  0  0  0  0
  134.8151  124.4021   63.2353 H   0  0  0  0  0  0  0  0  0  0  0  0
  135.4144  123.6729   61.7070 H   0  0  0  0  0  0  0  0  0  0  0  0
  134.7560  125.3441   61.7070 H   0  0  0  0  0  0  0  0  0  0  0  0
  133.9160  121.7477   61.5632 H   0  0  0  0  0  0  0  0  0  0  0  0
  133.1804  120.3629   59.6860 H   0  0  0  0  0  0  0  0  0  0  0  0
  132.8543  117.9229   59.3051 H   0  0  0  0  0  0  0  0  0  0  0  0
  131.0662  116.7052   60.5366 H   0  0  0  0  0  0  0  0  0  0  0  0
  129.5946  117.9148   62.1413 H   0  0  0  0  0  0  0  0  0  0  0  0
  129.9183  120.3565   62.5231 H   0  0  0  0  0  0  0  0  0  0  0  0
  128.8416  126.3472   63.9213 H   0  0  0  0  0  0  0  0  0  0  0  0
  128.3751  124.6226   63.6046 H   0  0  0  0  0  0  0  0  0  0  0  0
  130.9540  126.7880   64.6650 H   0  0  0  0  0  0  0  0  0  0  0  0
  135.3536  124.7318   66.0869 H   0  0  0  0  0  0  0  0  0  0  0  0
  134.5684  125.7459   68.3613 H   0  0  0  0  0  0  0  0  0  0  0  0
  1  2  1  0
  2  3  2  0
  3  4  1  0
  4  5  1  0
  5  6  2  0
  6  7  1  0
  7  8  2  0
  8  9  1  0
  9 10  2  0
  4 11  2  0
 11 12  1  0
 12 13  3  0
 11 14  1  0
 14 15  1  0
 15 16  1  0
 16 17  1  0
 17 18  2  0
 17 19  1  0
 19 20  1  0
 20 21  2  0
 21 22  1  0
 22 23  2  0
 23 24  1  0
 14 25  2  0
 25  2  1  0
 10  5  1  0
 24 20  1  0
  1 26  1  0
  1 27  1  0
  1 28  1  0
  3 29  1  0
  6 30  1  0
  7 31  1  0
  8 32  1  0
  9 33  1  0
 10 34  1  0
 16 35  1  0
 16 36  1  0
 19 37  1  0
 22 38  1  0
 23 39  1  0
M  END
>  <Binding energies>  (1) 
[-7.65]

>  <Ligand effiencies>  (1) 
[-0.29423076923076924]

>  <Interactions>  (1) 
["V-A:ASP:366:CG:3212, V-A:ARG:545:CD:4923, V-A:ARG:545:CG:4922, V-A:GLY:453:C:4041, H-A:TYR:484:OH:4347, V-A:GLY:454:CA:4048, H-A:GLU:543:OE2:4910, V-A:TYR:484:CZ:4346, V-A:ILE:369:CD1:3238, H-A:GLU:543:OE1:4909, V-A:ARG:545:CZ:4926, H-A:GLY:454:N:4049, H-A:ARG:545:NE:4924, V-A:ILE:369:CG2:3236, V-B:TYR:539:CD2:9846, V-B:TYR:539:CE2:9848, V-A:LEU:475:CD1:4257, H-B:ALA:541:N:9863, V-A:PRO:482:CB:4325, V-A:PRO:482:CG:4326, V-B:ALA:541:CB:9864, V-B:GLU:543:CD:9880, V-A:HIS:383:CD2:3391, V-A:HIS:456:CE1:4069, V-A:GLY:453:CA:4043, V-A:ILE:455:C:4051"]

$$$$
3ck_Grossjean_2025
     RDKit          3D

 57 58  0  0  0  0  0  0  0  0999 V2000
  133.5090  124.7460   62.9620 C   0  0  0  0  0  0  0  0  0  0  0  0
  133.8610  124.7420   64.3370 O   0  0  0  0  0  0  0  0  0  0  0  0
  133.0000  125.5340   65.1440 C   0  0  0  0  0  0  0  0  0  0  0  0
  133.4860  125.5020   66.5980 C   0  0  0  0  0  0  0  0  0  0  0  0
  132.9570  126.6230   67.2960 O   0  0  0  0  0  0  0  0  0  0  0  0
  131.5490  126.7710   67.1650 C   0  0  0  0  0  0  0  0  0  0  0  0
  130.8780  125.4120   67.4020 C   0  0  0  0  0  0  0  0  0  0  0  0
  129.5160  125.5130   67.0150 O   0  0  0  0  0  0  0  0  0  0  0  0
  128.6240  125.8650   68.0610 C   0  0  0  0  0  0  0  0  0  0  0  0
  128.4780  127.3980   68.1190 C   0  0  0  0  0  0  0  0  0  0  0  0
  127.6550  127.9540   67.0400 N   0  0  0  0  0  0  0  0  0  0  0  0
  127.5670  129.2560   66.7130 C   0  0  0  0  0  0  0  0  0  0  0  0
  128.2050  130.1410   67.2850 O   0  0  0  0  0  0  0  0  0  0  0  0
  126.6080  129.5830   65.5570 C   0  0  0  0  0  0  0  0  0  0  0  0
  127.0910  128.9170   63.9270 S   0  0  0  0  0  0  0  0  0  0  0  0
  127.7150  130.2490   62.9120 C   0  0  0  0  0  0  0  0  0  0  0  0
  128.9940  130.1080   62.4830 N   0  0  0  0  0  0  0  0  0  0  0  0
  129.5330  131.0810   61.7140 C   0  0  0  0  0  0  0  0  0  0  0  0
  130.9670  130.8560   61.2750 C   0  0  0  0  0  0  0  0  0  0  0  0
  128.8260  132.2230   61.3440 C   0  0  0  0  0  0  0  0  0  0  0  0
  127.5060  132.3920   61.7810 C   0  0  0  0  0  0  0  0  0  0  0  0
  126.7950  133.6420   61.3790 C   0  0  0  0  0  0  0  0  0  0  0  0
  125.5970  133.5700   60.6580 C   0  0  0  0  0  0  0  0  0  0  0  0
  124.9340  134.7330   60.2720 C   0  0  0  0  0  0  0  0  0  0  0  0
  125.4710  135.9740   60.6010 C   0  0  0  0  0  0  0  0  0  0  0  0
  126.6660  136.0630   61.3110 C   0  0  0  0  0  0  0  0  0  0  0  0
  127.3260  134.8990   61.6960 C   0  0  0  0  0  0  0  0  0  0  0  0
  126.9240  131.3720   62.5780 C   0  0  0  0  0  0  0  0  0  0  0  0
  125.5320  131.4760   63.0290 C   0  0  0  0  0  0  0  0  0  0  0  0
  124.4330  131.5580   63.3840 N   0  0  0  0  0  0  0  0  0  0  0  0
  132.4134  124.7584   62.8640 H   0  0  0  0  0  0  0  0  0  0  0  0
  133.9306  125.6394   62.4782 H   0  0  0  0  0  0  0  0  0  0  0  0
  133.9102  123.8432   62.4782 H   0  0  0  0  0  0  0  0  0  0  0  0
  133.0069  126.5714   64.7783 H   0  0  0  0  0  0  0  0  0  0  0  0
  131.9773  125.1323   65.0913 H   0  0  0  0  0  0  0  0  0  0  0  0
  133.1432  124.5743   67.0795 H   0  0  0  0  0  0  0  0  0  0  0  0
  134.5851  125.5399   66.6198 H   0  0  0  0  0  0  0  0  0  0  0  0
  131.1841  127.4965   67.9070 H   0  0  0  0  0  0  0  0  0  0  0  0
  131.3065  127.1333   66.1551 H   0  0  0  0  0  0  0  0  0  0  0  0
  131.3793  124.6398   66.8000 H   0  0  0  0  0  0  0  0  0  0  0  0
  130.9503  125.1341   68.4638 H   0  0  0  0  0  0  0  0  0  0  0  0
  127.6404  125.4101   67.8725 H   0  0  0  0  0  0  0  0  0  0  0  0
  129.0205  125.4984   69.0193 H   0  0  0  0  0  0  0  0  0  0  0  0
  128.0169  127.6666   69.0809 H   0  0  0  0  0  0  0  0  0  0  0  0
  129.4868  127.8211   68.0039 H   0  0  0  0  0  0  0  0  0  0  0  0
  127.1110  127.2890   66.5110 H   0  0  0  0  0  0  0  0  0  0  0  0
  125.6187  129.1747   65.8109 H   0  0  0  0  0  0  0  0  0  0  0  0
  126.6207  130.6780   65.4530 H   0  0  0  0  0  0  0  0  0  0  0  0
  131.6103  130.7551   62.1615 H   0  0  0  0  0  0  0  0  0  0  0  0
  131.0262  129.9376   60.6725 H   0  0  0  0  0  0  0  0  0  0  0  0
  131.3046  131.7122   60.6725 H   0  0  0  0  0  0  0  0  0  0  0  0
  129.3017  132.9876   60.7123 H   0  0  0  0  0  0  0  0  0  0  0  0
  125.1763  132.5884   60.3945 H   0  0  0  0  0  0  0  0  0  0  0  0
  123.9906  134.6706   59.7099 H   0  0  0  0  0  0  0  0  0  0  0  0
  124.9472  136.8925   60.2977 H   0  0  0  0  0  0  0  0  0  0  0  0
  127.0859  137.0472   61.5661 H   0  0  0  0  0  0  0  0  0  0  0  0
  128.2718  134.9670   62.2535 H   0  0  0  0  0  0  0  0  0  0  0  0
  1  2  1  0
  2  3  1  0
  3  4  1  0
  4  5  1  0
  5  6  1  0
  6  7  1  0
  7  8  1  0
  8  9  1  0
  9 10  1  0
 10 11  1  0
 11 12  1  0
 12 13  2  0
 12 14  1  0
 14 15  1  0
 15 16  1  0
 16 17  2  0
 17 18  1  0
 18 19  1  0
 18 20  2  0
 20 21  1  0
 21 22  1  0
 22 23  2  0
 23 24  1  0
 24 25  2  0
 25 26  1  0
 26 27  2  0
 21 28  2  0
 28 29  1  0
 29 30  3  0
 28 16  1  0
 27 22  1  0
  1 31  1  0
  1 32  1  0
  1 33  1  0
  3 34  1  0
  3 35  1  0
  4 36  1  0
  4 37  1  0
  6 38  1  0
  6 39  1  0
  7 40  1  0
  7 41  1  0
  9 42  1  0
  9 43  1  0
 10 44  1  0
 10 45  1  0
 11 46  1  0
 14 47  1  0
 14 48  1  0
 19 49  1  0
 19 50  1  0
 19 51  1  0
 20 52  1  0
 23 53  1  0
 24 54  1  0
 25 55  1  0
 26 56  1  0
 27 57  1  0
M  END
>  <Binding energies>  (1) 
[-7.0]

>  <Ligand effiencies>  (1) 
[-0.22580645161290322]

>  <Interactions>  (1) 
["V-A:ALA:541:CB:4892, V-A:TYR:539:CE1:4875, V-A:TYR:539:CD1:4873, V-B:LEU:475:CD1:9229, V-A:GLU:543:CD:4908, V-A:ARG:545:CD:4923, V-A:ARG:545:CG:4922, H-A:TYR:484:OH:4347, V-A:TYR:484:CZ:4346, H-A:ARG:545:NH2:4928, V-A:ARG:545:CZ:4926, H-A:GLY:454:N:4049, H-A:ARG:545:NE:4924, V-B:GLU:543:CG:9879, V-A:TYR:484:CE2:4345, V-A:HIS:456:CE1:4069, V-A:GLU:543:CG:4907, V-B:GLU:543:CA:9876, V-B:HIS:456:CE1:9041, V-B:TYR:484:CE2:9317, V-A:GLU:543:CB:4906, V-B:GLU:543:CB:9878, H-B:TYR:484:OH:9319, H-B:GLY:454:N:9021, V-B:PRO:482:CB:9297, V-B:ILE:369:CG2:8208, V-B:PRO:482:CG:9298, V-A:ALA:541:CA:4890, H-B:GLU:543:OE2:9882, V-B:SER:385:CB:8380"]

$$$$
4aa_Grossjean_2025
     RDKit          3D

 45 47  0  0  0  0  0  0  0  0999 V2000
  127.3970  129.0600   66.9490 C   0  0  0  0  0  0  0  0  0  0  0  0
  128.6050  129.5960   67.7240 C   0  0  0  0  0  0  0  0  0  0  0  0
  128.6350  129.0080   69.0180 O   0  0  0  0  0  0  0  0  0  0  0  0
  129.6080  128.1260   69.3650 C   0  0  0  0  0  0  0  0  0  0  0  0
  130.1590  128.1200   70.4710 O   0  0  0  0  0  0  0  0  0  0  0  0
  129.9510  127.1600   68.2690 C   0  0  0  0  0  0  0  0  0  0  0  0
  129.0220  126.1740   67.9090 C   0  0  0  0  0  0  0  0  0  0  0  0
  129.3130  125.2610   66.9000 C   0  0  0  0  0  0  0  0  0  0  0  0
  130.5330  125.3180   66.2240 C   0  0  0  0  0  0  0  0  0  0  0  0
  130.7260  124.3420   65.2270 N   0  0  0  0  0  0  0  0  0  0  0  0
  130.2100  124.2550   63.9780 C   0  0  0  0  0  0  0  0  0  0  0  0
  129.4010  125.0540   63.5060 O   0  0  0  0  0  0  0  0  0  0  0  0
  130.6610  123.1030   63.1940 C   0  0  0  0  0  0  0  0  0  0  0  0
  129.4860  122.0480   62.4040 S   0  0  0  0  0  0  0  0  0  0  0  0
  130.7560  121.0130   61.7940 C   0  0  0  0  0  0  0  0  0  0  0  0
  130.4930  119.9360   61.0510 N   0  0  0  0  0  0  0  0  0  0  0  0
  131.5680  119.2170   60.6460 C   0  0  0  0  0  0  0  0  0  0  0  0
  131.2470  117.9930   59.8060 C   0  0  0  0  0  0  0  0  0  0  0  0
  132.8850  119.5460   60.9600 C   0  0  0  0  0  0  0  0  0  0  0  0
  133.1570  120.6760   61.7380 C   0  0  0  0  0  0  0  0  0  0  0  0
  134.6110  120.9950   62.0540 C   0  0  0  0  0  0  0  0  0  0  0  0
  132.0560  121.4550   62.1860 C   0  0  0  0  0  0  0  0  0  0  0  0
  131.9720  122.6470   62.9870 C   0  0  0  0  0  0  0  0  0  0  0  0
  133.0870  123.2680   63.4920 N   0  0  0  0  0  0  0  0  0  0  0  0
  131.4710  126.2980   66.5800 C   0  0  0  0  0  0  0  0  0  0  0  0
  131.1800  127.2090   67.5920 C   0  0  0  0  0  0  0  0  0  0  0  0
  126.6284  128.7189   67.6581 H   0  0  0  0  0  0  0  0  0  0  0  0
  126.9834  129.8591   66.3162 H   0  0  0  0  0  0  0  0  0  0  0  0
  127.7119  128.2171   66.3162 H   0  0  0  0  0  0  0  0  0  0  0  0
  129.5292  129.3423   67.1842 H   0  0  0  0  0  0  0  0  0  0  0  0
  128.5249  130.6890   67.8190 H   0  0  0  0  0  0  0  0  0  0  0  0
  128.0540  126.1215   68.4289 H   0  0  0  0  0  0  0  0  0  0  0  0
  128.5764  124.4888   66.6332 H   0  0  0  0  0  0  0  0  0  0  0  0
  131.3370  123.5860   65.5040 H   0  0  0  0  0  0  0  0  0  0  0  0
  131.0240  117.1427   60.4673 H   0  0  0  0  0  0  0  0  0  0  0  0
  130.3735  118.2028   59.1712 H   0  0  0  0  0  0  0  0  0  0  0  0
  132.1110  117.7471   59.1712 H   0  0  0  0  0  0  0  0  0  0  0  0
  133.7108  118.9170   60.5960 H   0  0  0  0  0  0  0  0  0  0  0  0
  134.7510  121.0257   63.1446 H   0  0  0  0  0  0  0  0  0  0  0  0
  135.2590  120.2177   61.6229 H   0  0  0  0  0  0  0  0  0  0  0  0
  134.8741  121.9722   61.6229 H   0  0  0  0  0  0  0  0  0  0  0  0
  133.2630  123.3230   64.4840 H   0  0  0  0  0  0  0  0  0  0  0  0
  133.7710  123.6950   62.8830 H   0  0  0  0  0  0  0  0  0  0  0  0
  132.4384  126.3470   66.0587 H   0  0  0  0  0  0  0  0  0  0  0  0
  131.9209  127.9752   67.8640 H   0  0  0  0  0  0  0  0  0  0  0  0
  1  2  1  0
  2  3  1  0
  3  4  1  0
  4  5  2  0
  4  6  1  0
  6  7  2  0
  7  8  1  0
  8  9  2  0
  9 10  1  0
 10 11  1  0
 11 12  2  0
 11 13  1  0
 13 14  1  0
 14 15  1  0
 15 16  2  0
 16 17  1  0
 17 18  1  0
 17 19  2  0
 19 20  1  0
 20 21  1  0
 20 22  2  0
 22 23  1  0
 23 24  1  0
  9 25  1  0
 25 26  2  0
 26  6  1  0
 23 13  2  0
 22 15  1  0
  1 27  1  0
  1 28  1  0
  1 29  1  0
  2 30  1  0
  2 31  1  0
  7 32  1  0
  8 33  1  0
 10 34  1  0
 18 35  1  0
 18 36  1  0
 18 37  1  0
 19 38  1  0
 21 39  1  0
 21 40  1  0
 21 41  1  0
 24 42  1  0
 24 43  1  0
 25 44  1  0
 26 45  1  0
M  END
>  <Binding energies>  (1) 
[-6.34]

>  <Ligand effiencies>  (1) 
[-0.2186206896551724]

>  <Interactions>  (1) 
["V-A:GLU:543:CD:4908, H-A:TYR:484:OH:4347, V-A:GLY:454:CA:4048, V-A:TYR:484:CZ:4346, V-A:ILE:369:CD1:3238, V-A:ILE:369:CG2:3236, V-B:TYR:539:CD2:9846, V-A:LEU:475:CD1:4257, V-B:TYR:539:CG:9844, V-B:GLU:543:CG:9879, V-B:ALA:541:CB:9864, V-B:GLU:543:CD:9880, V-A:SER:385:C:3404, V-A:TYR:484:CE2:4345, V-A:HIS:456:CE1:4069, V-A:GLU:543:CG:4907, V-B:HIS:456:CE1:9041, V-B:TYR:484:CE2:9317, V-A:GLU:543:CB:4906, V-B:GLU:543:CB:9878, V-A:GLU:543:C:4902, V-A:GLU:543:CA:4904, V-B:TYR:539:CB:9843"]

$$$$
4ab_Grossjean_2025
     RDKit          3D

 42 44  0  0  0  0  0  0  0  0999 V2000
  131.0440  117.6280   59.9820 C   0  0  0  0  0  0  0  0  0  0  0  0
  132.3670  118.0000   60.3400 O   0  0  0  0  0  0  0  0  0  0  0  0
  132.5980  119.0610   61.1550 C   0  0  0  0  0  0  0  0  0  0  0  0
  133.5380  119.1130   61.9550 O   0  0  0  0  0  0  0  0  0  0  0  0
  131.5920  120.1640   60.9930 C   0  0  0  0  0  0  0  0  0  0  0  0
  131.9280  121.2890   60.2280 C   0  0  0  0  0  0  0  0  0  0  0  0
  131.0170  122.3290   60.0610 C   0  0  0  0  0  0  0  0  0  0  0  0
  129.7520  122.2620   60.6440 C   0  0  0  0  0  0  0  0  0  0  0  0
  128.9160  123.3710   60.4160 N   0  0  0  0  0  0  0  0  0  0  0  0
  127.6760  123.6430   60.8920 C   0  0  0  0  0  0  0  0  0  0  0  0
  127.0310  122.8850   61.6180 O   0  0  0  0  0  0  0  0  0  0  0  0
  127.1090  124.9230   60.4620 C   0  0  0  0  0  0  0  0  0  0  0  0
  126.5740  125.1450   58.7950 S   0  0  0  0  0  0  0  0  0  0  0  0
  126.1260  126.8060   59.1090 C   0  0  0  0  0  0  0  0  0  0  0  0
  125.6110  127.5900   58.1620 N   0  0  0  0  0  0  0  0  0  0  0  0
  125.3100  128.8570   58.5360 C   0  0  0  0  0  0  0  0  0  0  0  0
  124.7290  129.7340   57.4420 C   0  0  0  0  0  0  0  0  0  0  0  0
  125.5060  129.3530   59.8230 C   0  0  0  0  0  0  0  0  0  0  0  0
  126.0480  128.5270   60.8150 C   0  0  0  0  0  0  0  0  0  0  0  0
  126.2450  129.1140   62.2050 C   0  0  0  0  0  0  0  0  0  0  0  0
  126.3800  127.1920   60.4600 C   0  0  0  0  0  0  0  0  0  0  0  0
  126.9460  126.1010   61.2070 C   0  0  0  0  0  0  0  0  0  0  0  0
  127.2870  126.2210   62.5310 N   0  0  0  0  0  0  0  0  0  0  0  0
  129.4080  121.1420   61.4160 C   0  0  0  0  0  0  0  0  0  0  0  0
  130.3210  120.1040   61.5840 C   0  0  0  0  0  0  0  0  0  0  0  0
  130.4508  117.4612   60.8932 H   0  0  0  0  0  0  0  0  0  0  0  0
  130.5851  118.4320   59.3878 H   0  0  0  0  0  0  0  0  0  0  0  0
  131.0714  116.7027   59.3878 H   0  0  0  0  0  0  0  0  0  0  0  0
  132.9194  121.3511   59.7555 H   0  0  0  0  0  0  0  0  0  0  0  0
  131.2974  123.2099   59.4648 H   0  0  0  0  0  0  0  0  0  0  0  0
  129.3050  124.0580   59.7890 H   0  0  0  0  0  0  0  0  0  0  0  0
  124.1758  130.5691   57.8965 H   0  0  0  0  0  0  0  0  0  0  0  0
  125.5438  130.1303   56.8183 H   0  0  0  0  0  0  0  0  0  0  0  0
  124.0463  129.1382   56.8183 H   0  0  0  0  0  0  0  0  0  0  0  0
  125.2352  130.3926   60.0596 H   0  0  0  0  0  0  0  0  0  0  0  0
  125.9911  128.3573   62.9619 H   0  0  0  0  0  0  0  0  0  0  0  0
  127.2947  129.4187   62.3289 H   0  0  0  0  0  0  0  0  0  0  0  0
  125.5917  129.9903   62.3289 H   0  0  0  0  0  0  0  0  0  0  0  0
  128.1700  126.6130   62.8210 H   0  0  0  0  0  0  0  0  0  0  0  0
  126.6620  125.9120   63.2630 H   0  0  0  0  0  0  0  0  0  0  0  0
  128.4165  121.0838   61.8888 H   0  0  0  0  0  0  0  0  0  0  0  0
  130.0425  119.2271   62.1869 H   0  0  0  0  0  0  0  0  0  0  0  0
  1  2  1  0
  2  3  1  0
  3  4  2  0
  3  5  1  0
  5  6  2  0
  6  7  1  0
  7  8  2  0
  8  9  1  0
  9 10  1  0
 10 11  2  0
 10 12  1  0
 12 13  1  0
 13 14  1  0
 14 15  2  0
 15 16  1  0
 16 17  1  0
 16 18  2  0
 18 19  1  0
 19 20  1  0
 19 21  2  0
 21 22  1  0
 22 23  1  0
  8 24  1  0
 24 25  2  0
 25  5  1  0
 22 12  2  0
 21 14  1  0
  1 26  1  0
  1 27  1  0
  1 28  1  0
  6 29  1  0
  7 30  1  0
  9 31  1  0
 17 32  1  0
 17 33  1  0
 17 34  1  0
 18 35  1  0
 20 36  1  0
 20 37  1  0
 20 38  1  0
 23 39  1  0
 23 40  1  0
 24 41  1  0
 25 42  1  0
M  END
>  <Binding energies>  (1) 
[-6.31]

>  <Ligand effiencies>  (1) 
[-0.22535714285714284]

>  <Interactions>  (1) 
["V-A:TYR:539:CE1:4875, V-B:TYR:539:CD2:9846, H-A:SER:385:OG:3409, V-B:TYR:539:CE2:9848, V-A:LEU:475:CD1:4257, V-A:HIS:383:CE1:3392, H-B:ALA:541:N:9863, H-A:HIS:383:NE2:3393, V-A:PRO:482:CG:4326, V-B:PRO:540:CA:9855, H-B:GLU:543:OE1:9881, V-B:ALA:541:CB:9864, V-B:GLU:543:CD:9880, V-B:ALA:541:CA:9862, V-B:ASP:366:CG:8184, V-B:ASP:366:CB:8183, H-B:GLU:543:OE2:9882, V-B:PRO:540:C:9853, H-B:TYR:531:OH:9767, V-B:TYR:531:CZ:9766, V-B:ASP:366:C:8179, V-B:ASP:366:CA:8181, V-B:TYR:539:CB:9843, V-B:TYR:531:CE1:9764, V-A:TYR:539:CZ:4877"]

$$$$
4ac_Grossjean_2025
     RDKit          3D

 40 42  0  0  0  0  0  0  0  0999 V2000
  128.6370  125.9010   71.8940 C   0  0  0  0  0  0  0  0  0  0  0  0
  129.2220  125.7810   70.6010 O   0  0  0  0  0  0  0  0  0  0  0  0
  128.8930  126.6990   69.6240 C   0  0  0  0  0  0  0  0  0  0  0  0
  128.0050  126.2690   68.6390 C   0  0  0  0  0  0  0  0  0  0  0  0
  127.6150  127.1250   67.6120 C   0  0  0  0  0  0  0  0  0  0  0  0
  128.1030  128.4310   67.5640 C   0  0  0  0  0  0  0  0  0  0  0  0
  127.6640  129.2190   66.4840 N   0  0  0  0  0  0  0  0  0  0  0  0
  126.4160  129.3560   65.9750 C   0  0  0  0  0  0  0  0  0  0  0  0
  125.4310  128.7450   66.3910 O   0  0  0  0  0  0  0  0  0  0  0  0
  126.2940  130.2960   64.8570 C   0  0  0  0  0  0  0  0  0  0  0  0
  127.3390  131.7140   64.7660 S   0  0  0  0  0  0  0  0  0  0  0  0
  126.5880  132.2310   63.2740 C   0  0  0  0  0  0  0  0  0  0  0  0
  126.9680  133.3400   62.6380 N   0  0  0  0  0  0  0  0  0  0  0  0
  126.3050  133.6280   61.4930 C   0  0  0  0  0  0  0  0  0  0  0  0
  126.7530  134.8930   60.7850 C   0  0  0  0  0  0  0  0  0  0  0  0
  125.2780  132.8410   60.9730 C   0  0  0  0  0  0  0  0  0  0  0  0
  124.8800  131.6780   61.6430 C   0  0  0  0  0  0  0  0  0  0  0  0
  123.7550  130.8530   61.0370 C   0  0  0  0  0  0  0  0  0  0  0  0
  125.5560  131.3430   62.8470 C   0  0  0  0  0  0  0  0  0  0  0  0
  125.4100  130.2470   63.7670 C   0  0  0  0  0  0  0  0  0  0  0  0
  124.4840  129.2530   63.5800 N   0  0  0  0  0  0  0  0  0  0  0  0
  129.0060  128.8680   68.5440 C   0  0  0  0  0  0  0  0  0  0  0  0
  129.3950  128.0090   69.5680 C   0  0  0  0  0  0  0  0  0  0  0  0
  129.4087  125.7427   72.6617 H   0  0  0  0  0  0  0  0  0  0  0  0
  128.2057  126.9063   72.0095 H   0  0  0  0  0  0  0  0  0  0  0  0
  127.8448  125.1467   72.0095 H   0  0  0  0  0  0  0  0  0  0  0  0
  127.6085  125.2435   68.6733 H   0  0  0  0  0  0  0  0  0  0  0  0
  126.9202  126.7703   66.8365 H   0  0  0  0  0  0  0  0  0  0  0  0
  128.3980  129.7260   66.0090 H   0  0  0  0  0  0  0  0  0  0  0  0
  127.0228  135.6549   61.5312 H   0  0  0  0  0  0  0  0  0  0  0  0
  127.6271  134.6708   60.1553 H   0  0  0  0  0  0  0  0  0  0  0  0
  125.9339  135.2704   60.1553 H   0  0  0  0  0  0  0  0  0  0  0  0
  124.7807  133.1339   60.0366 H   0  0  0  0  0  0  0  0  0  0  0  0
  123.1506  130.4098   61.8421 H   0  0  0  0  0  0  0  0  0  0  0  0
  123.1193  131.5006   60.4153 H   0  0  0  0  0  0  0  0  0  0  0  0
  124.1815  130.0520   60.4153 H   0  0  0  0  0  0  0  0  0  0  0  0
  123.9300  129.1910   62.7380 H   0  0  0  0  0  0  0  0  0  0  0  0
  124.3260  128.5440   64.2830 H   0  0  0  0  0  0  0  0  0  0  0  0
  129.4076  129.8913   68.5034 H   0  0  0  0  0  0  0  0  0  0  0  0
  130.0994  128.3584   70.3373 H   0  0  0  0  0  0  0  0  0  0  0  0
  1  2  1  0
  2  3  1  0
  3  4  2  0
  4  5  1  0
  5  6  2  0
  6  7  1  0
  7  8  1  0
  8  9  2  0
  8 10  1  0
 10 11  1  0
 11 12  1  0
 12 13  2  0
 13 14  1  0
 14 15  1  0
 14 16  2  0
 16 17  1  0
 17 18  1  0
 17 19  2  0
 19 20  1  0
 20 21  1  0
  6 22  1  0
 22 23  2  0
 23  3  1  0
 20 10  2  0
 19 12  1  0
  1 24  1  0
  1 25  1  0
  1 26  1  0
  4 27  1  0
  5 28  1  0
  7 29  1  0
 15 30  1  0
 15 31  1  0
 15 32  1  0
 16 33  1  0
 18 34  1  0
 18 35  1  0
 18 36  1  0
 21 37  1  0
 21 38  1  0
 22 39  1  0
 23 40  1  0
M  END
>  <Binding energies>  (1) 
[-6.12]

>  <Ligand effiencies>  (1) 
[-0.2353846153846154]

>  <Interactions>  (1) 
["V-A:ALA:541:CB:4892, V-A:TYR:539:CD1:4873, V-B:LEU:475:CD1:9229, V-A:GLU:543:CD:4908, H-A:GLU:543:OE1:4909, H-B:ASP:366:OD1:8185, V-B:GLU:543:CD:9880, V-A:HIS:456:CE1:4069, V-A:GLU:543:CG:4907, V-B:HIS:456:CE1:9041, V-B:TYR:484:CE2:9317, V-A:GLU:543:CB:4906, V-B:GLU:543:C:9874, V-B:GLU:543:CB:9878, H-B:ASP:366:OD2:8186, H-B:TYR:484:OH:9319, V-B:ILE:369:CG2:8208, V-B:ILE:369:CD1:8210, V-B:ASP:366:CG:8184, V-B:ILE:369:CB:8207, V-B:ASP:366:CB:8183, V-A:GLU:543:C:4902, V-A:GLU:543:CA:4904, H-B:ARG:545:NE:9896, V-B:ARG:545:CZ:9898, V-B:HIS:456:CD2:9039, V-B:ASP:366:CA:8181"]

$$$$
4ad_Grossjean_2025
     RDKit          3D

 36 38  0  0  0  0  0  0  0  0999 V2000
  126.7640  134.9380   60.9980 C   0  0  0  0  0  0  0  0  0  0  0  0
  126.3180  133.6610   61.6870 C   0  0  0  0  0  0  0  0  0  0  0  0
  125.2780  132.8920   61.1690 C   0  0  0  0  0  0  0  0  0  0  0  0
  124.8830  131.7190   61.8240 C   0  0  0  0  0  0  0  0  0  0  0  0
  123.7400  130.9140   61.2220 C   0  0  0  0  0  0  0  0  0  0  0  0
  125.5740  131.3570   63.0110 C   0  0  0  0  0  0  0  0  0  0  0  0
  125.4340  130.2460   63.9140 C   0  0  0  0  0  0  0  0  0  0  0  0
  124.4990  129.2600   63.7210 N   0  0  0  0  0  0  0  0  0  0  0  0
  126.3340  130.2700   64.9920 C   0  0  0  0  0  0  0  0  0  0  0  0
  126.4590  129.3170   66.0960 C   0  0  0  0  0  0  0  0  0  0  0  0
  125.4590  128.7850   66.5830 O   0  0  0  0  0  0  0  0  0  0  0  0
  127.7260  129.0710   66.5110 N   0  0  0  0  0  0  0  0  0  0  0  0
  128.1810  128.2520   67.5620 C   0  0  0  0  0  0  0  0  0  0  0  0
  129.0160  128.8670   68.5000 C   0  0  0  0  0  0  0  0  0  0  0  0
  129.5090  128.1430   69.5810 C   0  0  0  0  0  0  0  0  0  0  0  0
  129.1620  126.8040   69.7320 C   0  0  0  0  0  0  0  0  0  0  0  0
  128.3200  126.1820   68.8120 C   0  0  0  0  0  0  0  0  0  0  0  0
  127.8260  126.9040   67.7290 C   0  0  0  0  0  0  0  0  0  0  0  0
  127.3890  131.6820   64.9080 S   0  0  0  0  0  0  0  0  0  0  0  0
  126.6200  132.2300   63.4370 C   0  0  0  0  0  0  0  0  0  0  0  0
  126.9990  133.3480   62.8150 N   0  0  0  0  0  0  0  0  0  0  0  0
  127.0269  135.6908   61.7557 H   0  0  0  0  0  0  0  0  0  0  0  0
  127.6420  134.7281   60.3695 H   0  0  0  0  0  0  0  0  0  0  0  0
  125.9462  135.3204   60.3695 H   0  0  0  0  0  0  0  0  0  0  0  0
  124.7677  133.2060   60.2465 H   0  0  0  0  0  0  0  0  0  0  0  0
  123.1293  130.4839   62.0295 H   0  0  0  0  0  0  0  0  0  0  0  0
  123.1152  131.5725   60.6007 H   0  0  0  0  0  0  0  0  0  0  0  0
  124.1495  130.1039   60.6007 H   0  0  0  0  0  0  0  0  0  0  0  0
  123.9770  129.1790   62.8610 H   0  0  0  0  0  0  0  0  0  0  0  0
  124.3050  128.5740   64.4380 H   0  0  0  0  0  0  0  0  0  0  0  0
  128.4600  129.5240   65.9880 H   0  0  0  0  0  0  0  0  0  0  0  0
  129.2841  129.9274   68.3828 H   0  0  0  0  0  0  0  0  0  0  0  0
  130.1709  128.6275   70.3139 H   0  0  0  0  0  0  0  0  0  0  0  0
  129.5556  126.2315   70.5848 H   0  0  0  0  0  0  0  0  0  0  0  0
  128.0467  125.1243   68.9411 H   0  0  0  0  0  0  0  0  0  0  0  0
  127.1570  126.4179   67.0036 H   0  0  0  0  0  0  0  0  0  0  0  0
  1  2  1  0
  2  3  2  0
  3  4  1  0
  4  5  1  0
  4  6  2  0
  6  7  1  0
  7  8  1  0
  7  9  2  0
  9 10  1  0
 10 11  2  0
 10 12  1  0
 12 13  1  0
 13 14  2  0
 14 15  1  0
 15 16  2  0
 16 17  1  0
 17 18  2  0
  9 19  1  0
 19 20  1  0
 20 21  2  0
 21  2  1  0
 20  6  1  0
 18 13  1  0
  1 22  1  0
  1 23  1  0
  1 24  1  0
  3 25  1  0
  5 26  1  0
  5 27  1  0
  5 28  1  0
  8 29  1  0
  8 30  1  0
 12 31  1  0
 14 32  1  0
 15 33  1  0
 16 34  1  0
 17 35  1  0
 18 36  1  0
M  END
>  <Binding energies>  (1) 
[-6.52]

>  <Ligand effiencies>  (1) 
[-0.27166666666666667]

>  <Interactions>  (1) 
["V-A:ALA:541:CB:4892, V-A:TYR:539:CD1:4873, V-B:LEU:475:CD1:9229, V-A:GLU:543:CD:4908, H-A:GLU:543:OE1:4909, H-B:ASP:366:OD1:8185, V-B:GLU:543:CD:9880, V-A:HIS:456:CE1:4069, V-A:GLU:543:CG:4907, V-B:HIS:456:CE1:9041, V-B:TYR:484:CE2:9317, V-A:GLU:543:CB:4906, V-B:GLU:543:C:9874, V-B:GLU:543:CB:9878, H-B:ASP:366:OD2:8186, H-B:TYR:484:OH:9319, V-B:ILE:369:CG2:8208, V-B:ILE:369:CD1:8210, V-B:ASP:366:CG:8184, V-A:GLU:543:C:4902, V-A:GLU:543:CA:4904, H-B:ARG:545:NE:9896, V-B:ARG:545:CZ:9898"]

$$$$
4ae_Grossjean_2025
     RDKit          3D

 38 40  0  0  0  0  0  0  0  0999 V2000
  129.3810  128.1580   70.9590 C   0  0  0  0  0  0  0  0  0  0  0  0
  129.1200  127.6240   69.5640 C   0  0  0  0  0  0  0  0  0  0  0  0
  129.3610  126.2870   69.2360 C   0  0  0  0  0  0  0  0  0  0  0  0
  129.1050  125.8680   67.9300 C   0  0  0  0  0  0  0  0  0  0  0  0
  128.6210  126.7850   66.9940 C   0  0  0  0  0  0  0  0  0  0  0  0
  128.3940  128.1070   67.3910 C   0  0  0  0  0  0  0  0  0  0  0  0
  127.9270  128.9870   66.4000 N   0  0  0  0  0  0  0  0  0  0  0  0
  126.6460  129.2800   66.0610 C   0  0  0  0  0  0  0  0  0  0  0  0
  125.6610  128.7800   66.6060 O   0  0  0  0  0  0  0  0  0  0  0  0
  126.4910  130.2520   64.9760 C   0  0  0  0  0  0  0  0  0  0  0  0
  127.5410  131.6670   64.8910 S   0  0  0  0  0  0  0  0  0  0  0  0
  126.7210  132.2490   63.4610 C   0  0  0  0  0  0  0  0  0  0  0  0
  127.0750  133.3840   62.8580 N   0  0  0  0  0  0  0  0  0  0  0  0
  126.3550  133.7260   61.7620 C   0  0  0  0  0  0  0  0  0  0  0  0
  126.7700  135.0240   61.0950 C   0  0  0  0  0  0  0  0  0  0  0  0
  125.3010  132.9650   61.2590 C   0  0  0  0  0  0  0  0  0  0  0  0
  124.9330  131.7730   61.8950 C   0  0  0  0  0  0  0  0  0  0  0  0
  123.7740  130.9800   61.3110 C   0  0  0  0  0  0  0  0  0  0  0  0
  125.6640  131.3840   63.0490 C   0  0  0  0  0  0  0  0  0  0  0  0
  125.5550  130.2500   63.9290 C   0  0  0  0  0  0  0  0  0  0  0  0
  124.6160  129.2680   63.7470 N   0  0  0  0  0  0  0  0  0  0  0  0
  128.6490  128.5260   68.6660 N   0  0  0  0  0  0  0  0  0  0  0  0
  129.0251  127.4299   71.7028 H   0  0  0  0  0  0  0  0  0  0  0  0
  130.4605  128.3213   71.0931 H   0  0  0  0  0  0  0  0  0  0  0  0
  128.8467  129.1101   71.0931 H   0  0  0  0  0  0  0  0  0  0  0  0
  129.7432  125.5822   69.9891 H   0  0  0  0  0  0  0  0  0  0  0  0
  129.2832  124.8222   67.6393 H   0  0  0  0  0  0  0  0  0  0  0  0
  128.4211  126.4718   65.9587 H   0  0  0  0  0  0  0  0  0  0  0  0
  128.6490  129.4140   65.8390 H   0  0  0  0  0  0  0  0  0  0  0  0
  127.0091  135.7720   61.8653 H   0  0  0  0  0  0  0  0  0  0  0  0
  127.6564  134.8470   60.4681 H   0  0  0  0  0  0  0  0  0  0  0  0
  125.9454  135.3941   60.4681 H   0  0  0  0  0  0  0  0  0  0  0  0
  124.7586  133.3007   60.3629 H   0  0  0  0  0  0  0  0  0  0  0  0
  123.1659  130.5640   62.1278 H   0  0  0  0  0  0  0  0  0  0  0  0
  123.1517  131.6425   60.6914 H   0  0  0  0  0  0  0  0  0  0  0  0
  124.1661  130.1600   60.6914 H   0  0  0  0  0  0  0  0  0  0  0  0
  124.3790  128.6130   64.4790 H   0  0  0  0  0  0  0  0  0  0  0  0
  124.1250  129.1670   62.8690 H   0  0  0  0  0  0  0  0  0  0  0  0
  1  2  1  0
  2  3  2  0
  3  4  1  0
  4  5  2  0
  5  6  1  0
  6  7  1  0
  7  8  1  0
  8  9  2  0
  8 10  1  0
 10 11  1  0
 11 12  1  0
 12 13  2  0
 13 14  1  0
 14 15  1  0
 14 16  2  0
 16 17  1  0
 17 18  1  0
 17 19  2  0
 19 20  1  0
 20 21  1  0
  6 22  2  0
 22  2  1  0
 20 10  2  0
 19 12  1  0
  1 23  1  0
  1 24  1  0
  1 25  1  0
  3 26  1  0
  4 27  1  0
  5 28  1  0
  7 29  1  0
 15 30  1  0
 15 31  1  0
 15 32  1  0
 16 33  1  0
 18 34  1  0
 18 35  1  0
 18 36  1  0
 21 37  1  0
 21 38  1  0
M  END
>  <Binding energies>  (1) 
[-6.64]

>  <Ligand effiencies>  (1) 
[-0.2656]

>  <Interactions>  (1) 
["V-A:ALA:541:CB:4892, V-A:TYR:539:CD1:4873, V-B:LEU:475:CD1:9229, V-A:GLU:543:CD:4908, H-A:GLU:543:OE1:4909, V-B:GLU:543:CG:9879, H-B:ASP:366:OD1:8185, V-B:GLU:543:CD:9880, V-A:HIS:456:CE1:4069, V-A:GLU:543:CG:4907, V-B:HIS:456:CE1:9041, V-B:TYR:484:CE2:9317, V-B:GLU:543:CB:9878, H-B:ASP:366:OD2:8186, H-B:TYR:484:OH:9319, V-B:ILE:369:CG2:8208, V-B:ILE:369:CD1:8210, V-B:ASP:366:CG:8184, H-B:ARG:545:NE:9896, V-B:ARG:545:CZ:9898, V-B:HIS:456:CD2:9039"]

$$$$
4af_Grossjean_2025
     RDKit          3D

 35 37  0  0  0  0  0  0  0  0999 V2000
  126.7550  135.0170   61.0070 C   0  0  0  0  0  0  0  0  0  0  0  0
  126.3310  133.7160   61.6640 C   0  0  0  0  0  0  0  0  0  0  0  0
  125.2820  132.9600   61.1480 C   0  0  0  0  0  0  0  0  0  0  0  0
  124.9070  131.7640   61.7730 C   0  0  0  0  0  0  0  0  0  0  0  0
  123.7540  130.9740   61.1730 C   0  0  0  0  0  0  0  0  0  0  0  0
  125.6280  131.3670   62.9310 C   0  0  0  0  0  0  0  0  0  0  0  0
  125.5130  130.2280   63.8020 C   0  0  0  0  0  0  0  0  0  0  0  0
  124.5730  129.2480   63.6040 N   0  0  0  0  0  0  0  0  0  0  0  0
  126.4410  130.2180   64.8550 C   0  0  0  0  0  0  0  0  0  0  0  0
  126.5870  129.2380   65.9330 C   0  0  0  0  0  0  0  0  0  0  0  0
  125.6000  128.6650   66.3970 O   0  0  0  0  0  0  0  0  0  0  0  0
  127.8580  129.0140   66.3450 N   0  0  0  0  0  0  0  0  0  0  0  0
  128.3320  128.1820   67.3770 C   0  0  0  0  0  0  0  0  0  0  0  0
  128.2270  126.7790   67.4070 C   0  0  0  0  0  0  0  0  0  0  0  0
  128.7250  126.0730   68.5030 C   0  0  0  0  0  0  0  0  0  0  0  0
  129.3120  126.7870   69.5490 C   0  0  0  0  0  0  0  0  0  0  0  0
  129.4180  128.1400   69.5480 N   0  0  0  0  0  0  0  0  0  0  0  0
  128.9290  128.8120   68.4750 C   0  0  0  0  0  0  0  0  0  0  0  0
  127.4890  131.6370   64.7930 S   0  0  0  0  0  0  0  0  0  0  0  0
  126.6820  132.2290   63.3590 C   0  0  0  0  0  0  0  0  0  0  0  0
  127.0420  133.3680   62.7660 N   0  0  0  0  0  0  0  0  0  0  0  0
  126.9965  135.7581   61.7832 H   0  0  0  0  0  0  0  0  0  0  0  0
  127.6418  134.8396   60.3808 H   0  0  0  0  0  0  0  0  0  0  0  0
  125.9339  135.3962   60.3808 H   0  0  0  0  0  0  0  0  0  0  0  0
  124.7477  133.3020   60.2494 H   0  0  0  0  0  0  0  0  0  0  0  0
  123.1386  130.5523   61.9814 H   0  0  0  0  0  0  0  0  0  0  0  0
  123.1371  131.6401   60.5519 H   0  0  0  0  0  0  0  0  0  0  0  0
  124.1524  130.1583   60.5519 H   0  0  0  0  0  0  0  0  0  0  0  0
  124.0320  129.1910   62.7530 H   0  0  0  0  0  0  0  0  0  0  0  0
  124.3930  128.5440   64.3070 H   0  0  0  0  0  0  0  0  0  0  0  0
  128.5820  129.5070   65.8420 H   0  0  0  0  0  0  0  0  0  0  0  0
  127.7550  126.2417   66.5712 H   0  0  0  0  0  0  0  0  0  0  0  0
  128.6563  124.9758   68.5418 H   0  0  0  0  0  0  0  0  0  0  0  0
  129.7057  126.2289   70.4113 H   0  0  0  0  0  0  0  0  0  0  0  0
  129.0059  129.9093   68.4679 H   0  0  0  0  0  0  0  0  0  0  0  0
  1  2  1  0
  2  3  2  0
  3  4  1  0
  4  5  1  0
  4  6  2  0
  6  7  1  0
  7  8  1  0
  7  9  2  0
  9 10  1  0
 10 11  2  0
 10 12  1  0
 12 13  1  0
 13 14  2  0
 14 15  1  0
 15 16  2  0
 16 17  1  0
 17 18  2  0
  9 19  1  0
 19 20  1  0
 20 21  2  0
 21  2  1  0
 20  6  1  0
 18 13  1  0
  1 22  1  0
  1 23  1  0
  1 24  1  0
  3 25  1  0
  5 26  1  0
  5 27  1  0
  5 28  1  0
  8 29  1  0
  8 30  1  0
 12 31  1  0
 14 32  1  0
 15 33  1  0
 16 34  1  0
 18 35  1  0
M  END
>  <Binding energies>  (1) 
[-6.2]

>  <Ligand effiencies>  (1) 
[-0.25833333333333336]

>  <Interactions>  (1) 
["V-A:ALA:541:CB:4892, V-A:TYR:539:CD1:4873, V-B:LEU:475:CD1:9229, V-A:GLU:543:CD:4908, H-A:GLU:543:OE1:4909, H-B:ASP:366:OD1:8185, V-B:GLU:543:CD:9880, V-A:HIS:456:CE1:4069, V-A:GLU:543:CG:4907, V-B:HIS:456:CE1:9041, V-B:TYR:484:CE2:9317, V-A:GLU:543:CB:4906, V-B:GLU:543:CB:9878, H-B:ASP:366:OD2:8186, H-B:TYR:484:OH:9319, V-B:ILE:369:CG2:8208, V-B:ILE:369:CD1:8210, V-B:ASP:366:CG:8184, V-A:GLU:543:C:4902, V-A:GLU:543:CA:4904, H-B:ARG:545:NE:9896, V-B:ARG:545:CZ:9898"]

$$$$
4ag_Grossjean_2025
     RDKit          3D

 39 41  0  0  0  0  0  0  0  0999 V2000
  134.0380  122.9850   62.5010 C   0  0  0  0  0  0  0  0  0  0  0  0
  133.0290  123.7900   63.2990 C   0  0  0  0  0  0  0  0  0  0  0  0
  131.6950  123.8610   62.9030 C   0  0  0  0  0  0  0  0  0  0  0  0
  130.7810  124.6080   63.6540 C   0  0  0  0  0  0  0  0  0  0  0  0
  129.3350  124.6550   63.1820 C   0  0  0  0  0  0  0  0  0  0  0  0
  131.2630  125.2760   64.8120 C   0  0  0  0  0  0  0  0  0  0  0  0
  130.6160  126.1090   65.7890 C   0  0  0  0  0  0  0  0  0  0  0  0
  129.2780  126.4080   65.7290 N   0  0  0  0  0  0  0  0  0  0  0  0
  131.4760  126.5790   66.7930 C   0  0  0  0  0  0  0  0  0  0  0  0
  131.1550  127.4320   67.9380 C   0  0  0  0  0  0  0  0  0  0  0  0
  132.0280  128.0740   68.5250 O   0  0  0  0  0  0  0  0  0  0  0  0
  129.8600  127.4540   68.3170 N   0  0  0  0  0  0  0  0  0  0  0  0
  129.3120  128.2520   69.4130 C   0  0  0  0  0  0  0  0  0  0  0  0
  129.3680  127.5610   70.7710 C   0  0  0  0  0  0  0  0  0  0  0  0
  128.7880  126.2990   70.9330 C   0  0  0  0  0  0  0  0  0  0  0  0
  128.8600  125.6540   72.1650 C   0  0  0  0  0  0  0  0  0  0  0  0
  129.5200  126.2680   73.2280 C   0  0  0  0  0  0  0  0  0  0  0  0
  130.1140  127.5180   73.0690 C   0  0  0  0  0  0  0  0  0  0  0  0
  130.0430  128.1620   71.8370 C   0  0  0  0  0  0  0  0  0  0  0  0
  133.1200  125.9890   66.5560 S   0  0  0  0  0  0  0  0  0  0  0  0
  132.6500  125.1230   65.1100 C   0  0  0  0  0  0  0  0  0  0  0  0
  133.5230  124.4110   64.3970 N   0  0  0  0  0  0  0  0  0  0  0  0
  134.7081  122.4504   63.1903 H   0  0  0  0  0  0  0  0  0  0  0  0
  133.5085  122.2585   61.8671 H   0  0  0  0  0  0  0  0  0  0  0  0
  134.6288  123.6626   61.8671 H   0  0  0  0  0  0  0  0  0  0  0  0
  131.3604  123.3297   61.9998 H   0  0  0  0  0  0  0  0  0  0  0  0
  128.6651  124.6768   64.0542 H   0  0  0  0  0  0  0  0  0  0  0  0
  129.1765  125.5588   62.5753 H   0  0  0  0  0  0  0  0  0  0  0  0
  129.1182  123.7634   62.5753 H   0  0  0  0  0  0  0  0  0  0  0  0
  128.5720  125.6870   65.6920 H   0  0  0  0  0  0  0  0  0  0  0  0
  128.9540  127.3660   65.7250 H   0  0  0  0  0  0  0  0  0  0  0  0
  129.1900  126.9490   67.7560 H   0  0  0  0  0  0  0  0  0  0  0  0
  129.8838  129.1894   69.4780 H   0  0  0  0  0  0  0  0  0  0  0  0
  128.2491  128.4194   69.1845 H   0  0  0  0  0  0  0  0  0  0  0  0
  128.2753  125.8162   70.0880 H   0  0  0  0  0  0  0  0  0  0  0  0
  128.3982  124.6646   72.2986 H   0  0  0  0  0  0  0  0  0  0  0  0
  129.5724  125.7604   74.2025 H   0  0  0  0  0  0  0  0  0  0  0  0
  130.6362  127.9935   73.9123 H   0  0  0  0  0  0  0  0  0  0  0  0
  130.5185  129.1447   71.7023 H   0  0  0  0  0  0  0  0  0  0  0  0
  1  2  1  0
  2  3  2  0
  3  4  1  0
  4  5  1  0
  4  6  2  0
  6  7  1  0
  7  8  1  0
  7  9  2  0
  9 10  1  0
 10 11  2  0
 10 12  1  0
 12 13  1  0
 13 14  1  0
 14 15  2  0
 15 16  1  0
 16 17  2  0
 17 18  1  0
 18 19  2  0
  9 20  1  0
 20 21  1  0
 21 22  2  0
 22  2  1  0
 21  6  1  0
 19 14  1  0
  1 23  1  0
  1 24  1  0
  1 25  1  0
  3 26  1  0
  5 27  1  0
  5 28  1  0
  5 29  1  0
  8 30  1  0
  8 31  1  0
 12 32  1  0
 13 33  1  0
 13 34  1  0
 15 35  1  0
 16 36  1  0
 17 37  1  0
 18 38  1  0
 19 39  1  0
M  END
>  <Binding energies>  (1) 
[-6.6]

>  <Ligand effiencies>  (1) 
[-0.264]

>  <Interactions>  (1) 
["V-A:GLU:543:CD:4908, V-A:ARG:545:CD:4923, V-A:ARG:545:CG:4922, V-A:GLY:453:C:4041, H-A:TYR:484:OH:4347, V-A:GLY:454:CA:4048, V-A:ILE:369:CD1:3238, H-A:GLU:543:OE1:4909, V-A:ARG:545:CZ:4926, H-A:GLY:454:N:4049, V-B:GLU:543:CD:9880, V-A:HIS:456:CE1:4069, V-B:HIS:456:CE1:9041, V-A:GLU:543:CB:4906, H-A:HIS:456:ND1:4066, H-B:GLU:543:OE2:9882, V-A:GLU:543:C:4902, V-B:HIS:456:CD2:9039"]

$$$$
4ah_Grossjean_2025
     RDKit          3D

 51 53  0  0  0  0  0  0  0  0999 V2000
  122.8270  129.2940   66.9950 C   0  0  0  0  0  0  0  0  0  0  0  0
  123.5820  129.2530   65.7890 O   0  0  0  0  0  0  0  0  0  0  0  0
  124.9600  129.3560   65.8470 C   0  0  0  0  0  0  0  0  0  0  0  0
  125.7800  128.4950   66.5950 C   0  0  0  0  0  0  0  0  0  0  0  0
  127.1650  128.6600   66.6070 C   0  0  0  0  0  0  0  0  0  0  0  0
  128.0430  127.6870   67.3880 C   0  0  0  0  0  0  0  0  0  0  0  0
  129.0390  127.0050   66.5610 N   0  0  0  0  0  0  0  0  0  0  0  0
  129.7370  125.9080   66.9240 C   0  0  0  0  0  0  0  0  0  0  0  0
  129.6240  125.3860   68.0340 O   0  0  0  0  0  0  0  0  0  0  0  0
  130.6790  125.3920   65.9320 C   0  0  0  0  0  0  0  0  0  0  0  0
  132.2380  126.1820   65.6940 S   0  0  0  0  0  0  0  0  0  0  0  0
  132.6630  125.0590   64.4220 C   0  0  0  0  0  0  0  0  0  0  0  0
  133.8300  125.1270   63.7800 N   0  0  0  0  0  0  0  0  0  0  0  0
  134.0360  124.1960   62.8180 C   0  0  0  0  0  0  0  0  0  0  0  0
  135.3690  124.2940   62.0980 C   0  0  0  0  0  0  0  0  0  0  0  0
  133.1130  123.2080   62.4860 C   0  0  0  0  0  0  0  0  0  0  0  0
  131.8870  123.1390   63.1590 C   0  0  0  0  0  0  0  0  0  0  0  0
  130.9110  122.0420   62.7600 C   0  0  0  0  0  0  0  0  0  0  0  0
  131.6340  124.1000   64.1740 C   0  0  0  0  0  0  0  0  0  0  0  0
  130.5080  124.3210   65.0420 C   0  0  0  0  0  0  0  0  0  0  0  0
  129.3820  123.5400   64.9960 N   0  0  0  0  0  0  0  0  0  0  0  0
  127.7450  129.6750   65.8460 C   0  0  0  0  0  0  0  0  0  0  0  0
  126.9500  130.5540   65.0930 C   0  0  0  0  0  0  0  0  0  0  0  0
  127.4560  131.5890   64.3280 O   0  0  0  0  0  0  0  0  0  0  0  0
  128.3880  131.3010   63.2910 C   0  0  0  0  0  0  0  0  0  0  0  0
  125.5580  130.3870   65.1070 C   0  0  0  0  0  0  0  0  0  0  0  0
  124.7690  131.2290   64.3610 O   0  0  0  0  0  0  0  0  0  0  0  0
  124.3930  130.6990   63.0970 C   0  0  0  0  0  0  0  0  0  0  0  0
  123.5099  129.2569   67.8566 H   0  0  0  0  0  0  0  0  0  0  0  0
  122.2425  130.2252   67.0302 H   0  0  0  0  0  0  0  0  0  0  0  0
  122.1451  128.4316   67.0302 H   0  0  0  0  0  0  0  0  0  0  0  0
  125.3245  127.6811   67.1781 H   0  0  0  0  0  0  0  0  0  0  0  0
  128.5690  128.2476   68.1748 H   0  0  0  0  0  0  0  0  0  0  0  0
  127.3795  126.9121   67.7995 H   0  0  0  0  0  0  0  0  0  0  0  0
  129.1210  127.3290   65.6090 H   0  0  0  0  0  0  0  0  0  0  0  0
  136.1815  124.3537   62.8372 H   0  0  0  0  0  0  0  0  0  0  0  0
  135.5115  123.4039   61.4676 H   0  0  0  0  0  0  0  0  0  0  0  0
  135.3798  125.1954   61.4676 H   0  0  0  0  0  0  0  0  0  0  0  0
  133.3470  122.4810   61.6944 H   0  0  0  0  0  0  0  0  0  0  0  0
  130.4950  121.5745   63.6646 H   0  0  0  0  0  0  0  0  0  0  0  0
  130.0952  122.4762   62.1634 H   0  0  0  0  0  0  0  0  0  0  0  0
  131.4372  121.2822   62.1634 H   0  0  0  0  0  0  0  0  0  0  0  0
  129.2770  122.7200   65.5740 H   0  0  0  0  0  0  0  0  0  0  0  0
  128.6170  123.7600   64.3720 H   0  0  0  0  0  0  0  0  0  0  0  0
  128.8391  129.7883   65.8356 H   0  0  0  0  0  0  0  0  0  0  0  0
  129.3498  131.0038   63.7345 H   0  0  0  0  0  0  0  0  0  0  0  0
  128.0020  130.4802   62.6686 H   0  0  0  0  0  0  0  0  0  0  0  0
  128.5323  132.1964   62.6686 H   0  0  0  0  0  0  0  0  0  0  0  0
  123.7623  129.8100   63.2451 H   0  0  0  0  0  0  0  0  0  0  0  0
  123.8303  131.4581   62.5338 H   0  0  0  0  0  0  0  0  0  0  0  0
  125.2954  130.4187   62.5338 H   0  0  0  0  0  0  0  0  0  0  0  0
  1  2  1  0
  2  3  1  0
  3  4  2  0
  4  5  1  0
  5  6  1  0
  6  7  1  0
  7  8  1  0
  8  9  2  0
  8 10  1  0
 10 11  1  0
 11 12  1  0
 12 13  2  0
 13 14  1  0
 14 15  1  0
 14 16  2  0
 16 17  1  0
 17 18  1  0
 17 19  2  0
 19 20  1  0
 20 21  1  0
  5 22  2  0
 22 23  1  0
 23 24  1  0
 24 25  1  0
 23 26  2  0
 26 27  1  0
 27 28  1  0
 26  3  1  0
 20 10  2  0
 19 12  1  0
  1 29  1  0
  1 30  1  0
  1 31  1  0
  4 32  1  0
  6 33  1  0
  6 34  1  0
  7 35  1  0
 15 36  1  0
 15 37  1  0
 15 38  1  0
 16 39  1  0
 18 40  1  0
 18 41  1  0
 18 42  1  0
 21 43  1  0
 21 44  1  0
 22 45  1  0
 25 46  1  0
 25 47  1  0
 25 48  1  0
 28 49  1  0
 28 50  1  0
 28 51  1  0
M  END
>  <Binding energies>  (1) 
[-6.94]

>  <Ligand effiencies>  (1) 
[-0.2238709677419355]

>  <Interactions>  (1) 
["V-A:ALA:541:CB:4892, V-A:GLU:543:CD:4908, V-A:ASP:366:CG:3212, V-A:GLY:453:C:4041, H-A:TYR:484:OH:4347, V-A:GLY:454:CA:4048, V-A:TYR:484:CZ:4346, H-A:ARG:545:NH2:4928, V-A:ILE:369:CD1:3238, H-A:GLU:543:OE1:4909, H-A:ARG:545:NH1:4927, V-A:ARG:545:CZ:4926, H-A:GLY:454:N:4049, V-A:LEU:475:CD1:4257, H-B:GLU:543:OE1:9881, V-B:GLU:543:CG:9879, V-B:ALA:541:CB:9864, V-B:GLU:543:CD:9880, V-A:TYR:484:CE2:4345, V-A:GLU:543:CG:4907, V-B:HIS:456:CE1:9041, V-A:GLY:453:CA:4043, V-B:GLU:543:CB:9878, H-B:TYR:484:OH:9319, H-B:ARG:545:NH2:9900, H-B:GLY:454:N:9021, V-B:GLY:454:CA:9020, H-B:ARG:545:NH1:9899, H-B:GLU:543:OE2:9882, V-B:GLY:454:C:9018, V-B:ARG:545:CG:9894, H-B:ARG:545:NE:9896, V-B:ARG:545:CD:9895, V-B:GLY:453:C:9013, V-B:GLY:453:CA:9015, V-B:ARG:545:CZ:9898, V-B:ILE:455:C:9023"]

$$$$
4ai_Grossjean_2025
     RDKit          3D

 32 34  0  0  0  0  0  0  0  0999 V2000
  125.6670  128.8410   59.2570 C   0  0  0  0  0  0  0  0  0  0  0  0
  126.3180  128.5060   60.5870 C   0  0  0  0  0  0  0  0  0  0  0  0
  125.8870  129.1100   61.7680 C   0  0  0  0  0  0  0  0  0  0  0  0
  126.4970  128.7810   62.9840 C   0  0  0  0  0  0  0  0  0  0  0  0
  125.9910  129.4650   64.2450 C   0  0  0  0  0  0  0  0  0  0  0  0
  127.5500  127.8270   62.9620 C   0  0  0  0  0  0  0  0  0  0  0  0
  128.3760  127.2700   63.9990 C   0  0  0  0  0  0  0  0  0  0  0  0
  128.2450  127.6370   65.3150 N   0  0  0  0  0  0  0  0  0  0  0  0
  129.3080  126.3260   63.5420 C   0  0  0  0  0  0  0  0  0  0  0  0
  130.3020  125.5780   64.3150 C   0  0  0  0  0  0  0  0  0  0  0  0
  130.1150  124.3950   64.6030 O   0  0  0  0  0  0  0  0  0  0  0  0
  131.4150  126.2750   64.6580 N   0  0  0  0  0  0  0  0  0  0  0  0
  132.5110  125.8140   65.3750 C   0  0  0  0  0  0  0  0  0  0  0  0
  132.7010  126.0790   66.7320 C   0  0  0  0  0  0  0  0  0  0  0  0
  133.8860  125.4600   67.0560 C   0  0  0  0  0  0  0  0  0  0  0  0
  134.3830  124.8510   65.9530 O   0  0  0  0  0  0  0  0  0  0  0  0
  133.5030  125.0810   64.8950 N   0  0  0  0  0  0  0  0  0  0  0  0
  129.2010  126.1210   61.7920 S   0  0  0  0  0  0  0  0  0  0  0  0
  127.8960  127.2830   61.6880 C   0  0  0  0  0  0  0  0  0  0  0  0
  127.3180  127.5940   60.5270 N   0  0  0  0  0  0  0  0  0  0  0  0
  124.7019  129.3376   59.4359 H   0  0  0  0  0  0  0  0  0  0  0  0
  126.3247  129.5127   58.6857 H   0  0  0  0  0  0  0  0  0  0  0  0
  125.5027  127.9154   58.6857 H   0  0  0  0  0  0  0  0  0  0  0  0
  125.0683  129.8443   61.7438 H   0  0  0  0  0  0  0  0  0  0  0  0
  126.3803  128.9387   65.1290 H   0  0  0  0  0  0  0  0  0  0  0  0
  126.3354  130.5096   64.2589 H   0  0  0  0  0  0  0  0  0  0  0  0
  124.8913  129.4413   64.2589 H   0  0  0  0  0  0  0  0  0  0  0  0
  127.4550  127.3480   65.8730 H   0  0  0  0  0  0  0  0  0  0  0  0
  128.9370  128.2170   65.7690 H   0  0  0  0  0  0  0  0  0  0  0  0
  131.4670  127.2360   64.3570 H   0  0  0  0  0  0  0  0  0  0  0  0
  132.0448  126.6579   67.3986 H   0  0  0  0  0  0  0  0  0  0  0  0
  134.3547  125.4597   68.0511 H   0  0  0  0  0  0  0  0  0  0  0  0
  1  2  1  0
  2  3  2  0
  3  4  1  0
  4  5  1  0
  4  6  2  0
  6  7  1  0
  7  8  1  0
  7  9  2  0
  9 10  1  0
 10 11  2  0
 10 12  1  0
 12 13  1  0
 13 14  1  0
 14 15  2  0
 15 16  1  0
 16 17  1  0
  9 18  1  0
 18 19  1  0
 19 20  2  0
 20  2  1  0
 19  6  1  0
 17 13  2  0
  1 21  1  0
  1 22  1  0
  1 23  1  0
  3 24  1  0
  5 25  1  0
  5 26  1  0
  5 27  1  0
  8 28  1  0
  8 29  1  0
 12 30  1  0
 14 31  1  0
 15 32  1  0
M  END
>  <Binding energies>  (1) 
[-5.98]

>  <Ligand effiencies>  (1) 
[-0.26]

>  <Interactions>  (1) 
["V-A:GLU:543:CD:4908, V-A:ARG:545:CD:4923, V-A:ARG:545:CG:4922, H-A:TYR:484:OH:4347, H-A:GLU:543:OE2:4910, V-A:TYR:484:CZ:4346, H-A:ARG:545:NH2:4928, H-A:GLU:543:OE1:4909, V-A:ARG:545:CZ:4926, H-A:GLY:454:N:4049, H-A:ARG:545:NE:4924, V-B:GLU:543:CD:9880, V-A:HIS:456:CE1:4069, V-B:ASP:366:CG:8184, V-B:ASP:366:CB:8183, H-B:GLU:543:OE2:9882, H-A:ILE:455:N:4054"]

$$$$
4aj_Grossjean_2025
     RDKit          3D

 32 34  0  0  0  0  0  0  0  0999 V2000
  126.7410  134.9950   61.0000 C   0  0  0  0  0  0  0  0  0  0  0  0
  126.3230  133.7080   61.6870 C   0  0  0  0  0  0  0  0  0  0  0  0
  125.2760  132.9360   61.1890 C   0  0  0  0  0  0  0  0  0  0  0  0
  124.9040  131.7550   61.8430 C   0  0  0  0  0  0  0  0  0  0  0  0
  123.7550  130.9470   61.2600 C   0  0  0  0  0  0  0  0  0  0  0  0
  125.6260  131.3870   63.0090 C   0  0  0  0  0  0  0  0  0  0  0  0
  125.5140  130.2680   63.9070 C   0  0  0  0  0  0  0  0  0  0  0  0
  124.5740  129.2850   63.7360 N   0  0  0  0  0  0  0  0  0  0  0  0
  126.4500  130.2810   64.9520 C   0  0  0  0  0  0  0  0  0  0  0  0
  126.6120  129.3140   66.0410 C   0  0  0  0  0  0  0  0  0  0  0  0
  125.6290  128.8250   66.6000 O   0  0  0  0  0  0  0  0  0  0  0  0
  127.8940  129.0050   66.3580 N   0  0  0  0  0  0  0  0  0  0  0  0
  128.3200  128.1160   67.3350 C   0  0  0  0  0  0  0  0  0  0  0  0
  128.2770  126.8010   67.3040 N   0  0  0  0  0  0  0  0  0  0  0  0
  128.7730  126.2740   68.4060 C   0  0  0  0  0  0  0  0  0  0  0  0
  129.2320  127.1720   69.3660 C   0  0  0  0  0  0  0  0  0  0  0  0
  128.9980  128.7930   68.7800 S   0  0  0  0  0  0  0  0  0  0  0  0
  127.4920  131.7020   64.8590 S   0  0  0  0  0  0  0  0  0  0  0  0
  126.6790  132.2620   63.4150 C   0  0  0  0  0  0  0  0  0  0  0  0
  127.0350  133.3880   62.7960 N   0  0  0  0  0  0  0  0  0  0  0  0
  126.9870  135.7525   61.7588 H   0  0  0  0  0  0  0  0  0  0  0  0
  127.6237  134.8053   60.3716 H   0  0  0  0  0  0  0  0  0  0  0  0
  125.9153  135.3601   60.3716 H   0  0  0  0  0  0  0  0  0  0  0  0
  124.7413  133.2541   60.2819 H   0  0  0  0  0  0  0  0  0  0  0  0
  123.1528  130.5235   62.0773 H   0  0  0  0  0  0  0  0  0  0  0  0
  123.1239  131.6012   60.6405 H   0  0  0  0  0  0  0  0  0  0  0  0
  124.1572  130.1319   60.6405 H   0  0  0  0  0  0  0  0  0  0  0  0
  124.0690  129.1730   62.8680 H   0  0  0  0  0  0  0  0  0  0  0  0
  124.3520  128.6360   64.4780 H   0  0  0  0  0  0  0  0  0  0  0  0
  128.6240  129.4610   65.8300 H   0  0  0  0  0  0  0  0  0  0  0  0
  128.8215  125.1857   68.5585 H   0  0  0  0  0  0  0  0  0  0  0  0
  129.6713  126.9005   70.3372 H   0  0  0  0  0  0  0  0  0  0  0  0
  1  2  1  0
  2  3  2  0
  3  4  1  0
  4  5  1  0
  4  6  2  0
  6  7  1  0
  7  8  1  0
  7  9  2  0
  9 10  1  0
 10 11  2  0
 10 12  1  0
 12 13  1  0
 13 14  2  0
 14 15  1  0
 15 16  2  0
 16 17  1  0
  9 18  1  0
 18 19  1  0
 19 20  2  0
 20  2  1  0
 19  6  1  0
 17 13  1  0
  1 21  1  0
  1 22  1  0
  1 23  1  0
  3 24  1  0
  5 25  1  0
  5 26  1  0
  5 27  1  0
  8 28  1  0
  8 29  1  0
 12 30  1  0
 15 31  1  0
 16 32  1  0
M  END
>  <Binding energies>  (1) 
[-5.97]

>  <Ligand effiencies>  (1) 
[-0.25956521739130434]

>  <Interactions>  (1) 
["V-A:ALA:541:CB:4892, V-A:TYR:539:CD1:4873, V-B:LEU:475:CD1:9229, V-A:GLU:543:CD:4908, H-A:GLU:543:OE1:4909, H-B:ASP:366:OD1:8185, V-A:HIS:456:CE1:4069, V-A:GLU:543:CG:4907, V-B:HIS:456:CE1:9041, V-B:TYR:484:CE2:9317, V-A:GLU:543:CB:4906, V-B:GLU:543:CB:9878, H-B:ASP:366:OD2:8186, H-B:TYR:484:OH:9319, V-B:ILE:369:CG2:8208, V-B:ILE:369:CD1:8210, V-B:ASP:366:CG:8184, V-A:GLU:543:C:4902, H-B:ARG:545:NE:9896, V-B:ARG:545:CZ:9898"]

$$$$
4ak_Grossjean_2025
     RDKit          3D

 50 51  0  0  0  0  0  0  0  0999 V2000
  128.4990  131.2040   72.6800 C   0  0  0  0  0  0  0  0  0  0  0  0
  129.3780  130.3960   73.4460 O   0  0  0  0  0  0  0  0  0  0  0  0
  129.8850  129.2760   72.7310 C   0  0  0  0  0  0  0  0  0  0  0  0
  128.9820  128.0610   72.9770 C   0  0  0  0  0  0  0  0  0  0  0  0
  129.7150  126.8700   72.7250 O   0  0  0  0  0  0  0  0  0  0  0  0
  128.9980  125.9040   71.9670 C   0  0  0  0  0  0  0  0  0  0  0  0
  128.6200  126.5050   70.6080 C   0  0  0  0  0  0  0  0  0  0  0  0
  129.6620  127.3660   70.1690 O   0  0  0  0  0  0  0  0  0  0  0  0
  129.2150  128.4320   69.3400 C   0  0  0  0  0  0  0  0  0  0  0  0
  128.4460  127.8540   68.1390 C   0  0  0  0  0  0  0  0  0  0  0  0
  129.3100  127.2490   67.1250 N   0  0  0  0  0  0  0  0  0  0  0  0
  129.9840  126.0900   67.2660 C   0  0  0  0  0  0  0  0  0  0  0  0
  129.9130  125.4040   68.2880 O   0  0  0  0  0  0  0  0  0  0  0  0
  130.8050  125.6810   66.1280 C   0  0  0  0  0  0  0  0  0  0  0  0
  132.5570  125.8720   66.1810 S   0  0  0  0  0  0  0  0  0  0  0  0
  132.7260  125.1880   64.5800 C   0  0  0  0  0  0  0  0  0  0  0  0
  133.9160  125.0510   63.9930 N   0  0  0  0  0  0  0  0  0  0  0  0
  133.9080  124.5080   62.7510 C   0  0  0  0  0  0  0  0  0  0  0  0
  135.2710  124.3600   62.1000 C   0  0  0  0  0  0  0  0  0  0  0  0
  132.7500  124.1030   62.0900 C   0  0  0  0  0  0  0  0  0  0  0  0
  131.5030  124.2470   62.7090 C   0  0  0  0  0  0  0  0  0  0  0  0
  130.2680  123.7930   61.9470 C   0  0  0  0  0  0  0  0  0  0  0  0
  131.4720  124.8130   64.0120 C   0  0  0  0  0  0  0  0  0  0  0  0
  130.3930  125.1000   64.9190 C   0  0  0  0  0  0  0  0  0  0  0  0
  129.0840  124.8270   64.6110 N   0  0  0  0  0  0  0  0  0  0  0  0
  127.8595  131.7918   73.3549 H   0  0  0  0  0  0  0  0  0  0  0  0
  129.0858  131.8846   72.0456 H   0  0  0  0  0  0  0  0  0  0  0  0
  127.8701  130.5621   72.0456 H   0  0  0  0  0  0  0  0  0  0  0  0
  129.9052  129.5061   71.6555 H   0  0  0  0  0  0  0  0  0  0  0  0
  130.9046  129.0511   73.0770 H   0  0  0  0  0  0  0  0  0  0  0  0
  128.6369  128.0656   74.0215 H   0  0  0  0  0  0  0  0  0  0  0  0
  128.1127  128.1069   72.3046 H   0  0  0  0  0  0  0  0  0  0  0  0
  129.6284  125.0158   71.8134 H   0  0  0  0  0  0  0  0  0  0  0  0
  128.0854  125.6142   72.5084 H   0  0  0  0  0  0  0  0  0  0  0  0
  128.4781  125.6968   69.8755 H   0  0  0  0  0  0  0  0  0  0  0  0
  127.6856  127.0772   70.7052 H   0  0  0  0  0  0  0  0  0  0  0  0
  128.5519  129.0932   69.9172 H   0  0  0  0  0  0  0  0  0  0  0  0
  130.0809  129.0075   68.9808 H   0  0  0  0  0  0  0  0  0  0  0  0
  127.7521  127.0845   68.5083 H   0  0  0  0  0  0  0  0  0  0  0  0
  127.9230  128.6933   67.6573 H   0  0  0  0  0  0  0  0  0  0  0  0
  129.4060  127.7600   66.2590 H   0  0  0  0  0  0  0  0  0  0  0  0
  136.0425  124.2762   62.8796 H   0  0  0  0  0  0  0  0  0  0  0  0
  135.2822  123.4554   61.4743 H   0  0  0  0  0  0  0  0  0  0  0  0
  135.4761  125.2412   61.4743 H   0  0  0  0  0  0  0  0  0  0  0  0
  132.8160  123.6698   61.0810 H   0  0  0  0  0  0  0  0  0  0  0  0
  129.4824  123.5042   62.6607 H   0  0  0  0  0  0  0  0  0  0  0  0
  129.9042  124.6162   61.3145 H   0  0  0  0  0  0  0  0  0  0  0  0
  130.5240  122.9302   61.3145 H   0  0  0  0  0  0  0  0  0  0  0  0
  128.8320  124.1990   63.8610 H   0  0  0  0  0  0  0  0  0  0  0  0
  128.3250  125.2450   65.1300 H   0  0  0  0  0  0  0  0  0  0  0  0
  1  2  1  0
  2  3  1  0
  3  4  1  0
  4  5  1  0
  5  6  1  0
  6  7  1  0
  7  8  1  0
  8  9  1  0
  9 10  1  0
 10 11  1  0
 11 12  1  0
 12 13  2  0
 12 14  1  0
 14 15  1  0
 15 16  1  0
 16 17  2  0
 17 18  1  0
 18 19  1  0
 18 20  2  0
 20 21  1  0
 21 22  1  0
 21 23  2  0
 23 24  1  0
 24 25  1  0
 24 14  2  0
 23 16  1  0
  1 26  1  0
  1 27  1  0
  1 28  1  0
  3 29  1  0
  3 30  1  0
  4 31  1  0
  4 32  1  0
  6 33  1  0
  6 34  1  0
  7 35  1  0
  7 36  1  0
  9 37  1  0
  9 38  1  0
 10 39  1  0
 10 40  1  0
 11 41  1  0
 19 42  1  0
 19 43  1  0
 19 44  1  0
 20 45  1  0
 22 46  1  0
 22 47  1  0
 22 48  1  0
 25 49  1  0
 25 50  1  0
M  END
>  <Binding energies>  (1) 
[-5.68]

>  <Ligand effiencies>  (1) 
[-0.20285714285714285]

>  <Interactions>  (1) 
["V-A:GLU:543:CD:4908, V-A:ASP:366:CG:3212, V-A:ARG:545:CG:4922, V-A:GLY:453:C:4041, H-A:ARG:545:NH2:4928, V-A:ILE:369:CD1:3238, H-A:GLU:543:OE1:4909, H-A:ARG:545:NH1:4927, V-A:ARG:545:CZ:4926, H-A:GLY:454:N:4049, H-A:ARG:545:NE:4924, H-B:GLU:543:OE1:9881, V-B:GLU:543:CG:9879, V-B:GLU:543:CD:9880, V-A:HIS:456:CE1:4069, V-B:HIS:456:CE1:9041, V-A:GLY:453:CA:4043, V-A:GLU:543:CB:4906, H-B:GLU:543:OE2:9882, V-A:GLU:543:C:4902, V-B:TYR:484:CD2:9315, V-B:HIS:456:CD2:9039, H-A:LYS:547:NZ:4951, V-A:GLY:544:CA:4914, V-A:LYS:547:CE:4950, V-B:TYR:484:CG:9313"]

$$$$
4al_Grossjean_2025
     RDKit          3D

 28 29  0  0  0  0  0  0  0  0999 V2000
  131.2510  117.4280   61.0010 C   0  0  0  0  0  0  0  0  0  0  0  0
  132.0060  118.0400   59.9660 O   0  0  0  0  0  0  0  0  0  0  0  0
  133.1270  118.7540   60.2490 C   0  0  0  0  0  0  0  0  0  0  0  0
  134.2630  118.4160   59.9100 O   0  0  0  0  0  0  0  0  0  0  0  0
  132.8450  119.9890   61.0120 C   0  0  0  0  0  0  0  0  0  0  0  0
  134.1420  120.7910   61.9010 S   0  0  0  0  0  0  0  0  0  0  0  0
  133.0480  122.0370   62.4550 C   0  0  0  0  0  0  0  0  0  0  0  0
  133.4550  123.0350   63.2400 N   0  0  0  0  0  0  0  0  0  0  0  0
  132.5070  123.9370   63.5980 C   0  0  0  0  0  0  0  0  0  0  0  0
  132.9920  125.0640   64.4920 C   0  0  0  0  0  0  0  0  0  0  0  0
  131.1760  123.8630   63.1930 C   0  0  0  0  0  0  0  0  0  0  0  0
  130.7520  122.8150   62.3690 C   0  0  0  0  0  0  0  0  0  0  0  0
  129.2900  122.7780   61.9540 C   0  0  0  0  0  0  0  0  0  0  0  0
  131.7180  121.8510   61.9740 C   0  0  0  0  0  0  0  0  0  0  0  0
  131.6330  120.6750   61.1530 C   0  0  0  0  0  0  0  0  0  0  0  0
  130.4630  120.2680   60.5650 N   0  0  0  0  0  0  0  0  0  0  0  0
  131.6433  117.7460   61.9782 H   0  0  0  0  0  0  0  0  0  0  0  0
  130.1968  117.7296   60.9133 H   0  0  0  0  0  0  0  0  0  0  0  0
  131.3279  116.3342   60.9133 H   0  0  0  0  0  0  0  0  0  0  0  0
  132.8677  124.7752   65.5461 H   0  0  0  0  0  0  0  0  0  0  0  0
  134.0549  125.2617   64.2888 H   0  0  0  0  0  0  0  0  0  0  0  0
  132.4049  125.9717   64.2888 H   0  0  0  0  0  0  0  0  0  0  0  0
  130.4581  124.6291   63.5213 H   0  0  0  0  0  0  0  0  0  0  0  0
  128.6544  122.7619   62.8516 H   0  0  0  0  0  0  0  0  0  0  0  0
  129.0562  123.6705   61.3551 H   0  0  0  0  0  0  0  0  0  0  0  0
  129.1016  121.8748   61.3551 H   0  0  0  0  0  0  0  0  0  0  0  0
  129.5730  120.6860   60.7980 H   0  0  0  0  0  0  0  0  0  0  0  0
  130.4510  119.5310   59.8730 H   0  0  0  0  0  0  0  0  0  0  0  0
  1  2  1  0
  2  3  1  0
  3  4  2  0
  3  5  1  0
  5  6  1  0
  6  7  1  0
  7  8  2  0
  8  9  1  0
  9 10  1  0
  9 11  2  0
 11 12  1  0
 12 13  1  0
 12 14  2  0
 14 15  1  0
 15 16  1  0
 15  5  2  0
 14  7  1  0
  1 17  1  0
  1 18  1  0
  1 19  1  0
 10 20  1  0
 10 21  1  0
 10 22  1  0
 11 23  1  0
 13 24  1  0
 13 25  1  0
 13 26  1  0
 16 27  1  0
 16 28  1  0
M  END
>  <Binding energies>  (1) 
[-5.16]

>  <Ligand effiencies>  (1) 
[-0.2866666666666667]

>  <Interactions>  (1) 
["V-A:GLY:454:CA:4048, V-A:ILE:369:CD1:3238, V-A:ARG:545:CZ:4926, H-A:GLY:454:N:4049, V-A:ILE:369:CG2:3236, V-B:TYR:539:CD2:9846, H-A:SER:385:OG:3409, V-B:TYR:539:CE2:9848, V-A:LEU:475:CD1:4257, V-A:HIS:383:CE1:3392, V-A:PRO:482:CB:4325, H-A:HIS:383:NE2:3393, H-B:TYR:539:O:9840, V-A:PRO:482:CG:4326, V-B:ALA:541:CB:9864, V-B:TYR:539:C:9839, V-A:SER:385:C:3404, V-A:HIS:383:CD2:3391"]

$$$$
4ba_Grossjean_2025
     RDKit          3D

 44 46  0  0  0  0  0  0  0  0999 V2000
  134.3590  120.6210   61.7560 C   0  0  0  0  0  0  0  0  0  0  0  0
  134.0380  119.3280   60.9820 C   0  0  0  0  0  0  0  0  0  0  0  0
  132.5440  118.9490   60.9320 C   0  0  0  0  0  0  0  0  0  0  0  0
  132.2150  117.7630   61.0050 O   0  0  0  0  0  0  0  0  0  0  0  0
  131.5460  120.0630   60.7980 C   0  0  0  0  0  0  0  0  0  0  0  0
  131.8660  121.1830   60.0210 C   0  0  0  0  0  0  0  0  0  0  0  0
  130.9600  122.2310   59.8810 C   0  0  0  0  0  0  0  0  0  0  0  0
  129.7160  122.1790   60.5100 C   0  0  0  0  0  0  0  0  0  0  0  0
  128.8810  123.2950   60.3080 N   0  0  0  0  0  0  0  0  0  0  0  0
  127.6860  123.6030   60.8690 C   0  0  0  0  0  0  0  0  0  0  0  0
  127.0890  122.8780   61.6660 O   0  0  0  0  0  0  0  0  0  0  0  0
  127.1060  124.8790   60.4430 C   0  0  0  0  0  0  0  0  0  0  0  0
  126.5190  125.0790   58.7940 S   0  0  0  0  0  0  0  0  0  0  0  0
  126.0900  126.7460   59.1000 C   0  0  0  0  0  0  0  0  0  0  0  0
  125.5510  127.5090   58.1500 N   0  0  0  0  0  0  0  0  0  0  0  0
  125.2620  128.7820   58.5050 C   0  0  0  0  0  0  0  0  0  0  0  0
  124.6570  129.6370   57.4050 C   0  0  0  0  0  0  0  0  0  0  0  0
  125.4930  129.3030   59.7750 C   0  0  0  0  0  0  0  0  0  0  0  0
  126.0600  128.5040   60.7800 C   0  0  0  0  0  0  0  0  0  0  0  0
  126.2930  129.1210   62.1630 C   0  0  0  0  0  0  0  0  0  0  0  0
  125.6520  128.4740   63.1380 F   0  0  0  0  0  0  0  0  0  0  0  0
  127.5940  129.0980   62.4560 F   0  0  0  0  0  0  0  0  0  0  0  0
  125.8630  130.3830   62.1710 F   0  0  0  0  0  0  0  0  0  0  0  0
  126.3830  127.1570   60.4360 C   0  0  0  0  0  0  0  0  0  0  0  0
  126.9720  126.0690   61.1780 C   0  0  0  0  0  0  0  0  0  0  0  0
  127.3640  126.1920   62.4870 N   0  0  0  0  0  0  0  0  0  0  0  0
  129.3900  121.0630   61.2950 C   0  0  0  0  0  0  0  0  0  0  0  0
  130.2970  120.0160   61.4340 C   0  0  0  0  0  0  0  0  0  0  0  0
  134.3099  120.4231   62.8369 H   0  0  0  0  0  0  0  0  0  0  0  0
  135.3698  120.9651   61.4918 H   0  0  0  0  0  0  0  0  0  0  0  0
  133.6265  121.3979   61.4918 H   0  0  0  0  0  0  0  0  0  0  0  0
  134.3926  119.4528   59.9482 H   0  0  0  0  0  0  0  0  0  0  0  0
  134.5425  118.5139   61.5231 H   0  0  0  0  0  0  0  0  0  0  0  0
  132.8421  121.2354   59.5166 H   0  0  0  0  0  0  0  0  0  0  0  0
  131.2271  123.1060   59.2702 H   0  0  0  0  0  0  0  0  0  0  0  0
  129.2320  123.9530   59.6290 H   0  0  0  0  0  0  0  0  0  0  0  0
  124.0771  130.4565   57.8546 H   0  0  0  0  0  0  0  0  0  0  0  0
  125.4610  130.0556   56.7819 H   0  0  0  0  0  0  0  0  0  0  0  0
  123.9947  129.0181   56.7819 H   0  0  0  0  0  0  0  0  0  0  0  0
  125.2292  130.3485   59.9925 H   0  0  0  0  0  0  0  0  0  0  0  0
  126.7000  126.1700   63.2480 H   0  0  0  0  0  0  0  0  0  0  0  0
  128.3350  126.3170   62.7350 H   0  0  0  0  0  0  0  0  0  0  0  0
  128.4150  121.0150   61.8021 H   0  0  0  0  0  0  0  0  0  0  0  0
  130.0314  119.1433   62.0487 H   0  0  0  0  0  0  0  0  0  0  0  0
  1  2  1  0
  2  3  1  0
  3  4  2  0
  3  5  1  0
  5  6  2  0
  6  7  1  0
  7  8  2  0
  8  9  1  0
  9 10  1  0
 10 11  2  0
 10 12  1  0
 12 13  1  0
 13 14  1  0
 14 15  2  0
 15 16  1  0
 16 17  1  0
 16 18  2  0
 18 19  1  0
 19 20  1  0
 20 21  1  0
 20 22  1  0
 20 23  1  0
 19 24  2  0
 24 25  1  0
 25 26  1  0
  8 27  1  0
 27 28  2  0
 28  5  1  0
 25 12  2  0
 24 14  1  0
  1 29  1  0
  1 30  1  0
  1 31  1  0
  2 32  1  0
  2 33  1  0
  6 34  1  0
  7 35  1  0
  9 36  1  0
 17 37  1  0
 17 38  1  0
 17 39  1  0
 18 40  1  0
 26 41  1  0
 26 42  1  0
 27 43  1  0
 28 44  1  0
M  END
>  <Binding energies>  (1) 
[-6.43]

>  <Ligand effiencies>  (1) 
[-0.20741935483870966]

>  <Interactions>  (1) 
["V-A:TYR:539:CE1:4875, V-A:ILE:369:CD1:3238, V-A:ILE:369:CG2:3236, V-B:TYR:539:CD2:9846, H-A:SER:385:OG:3409, V-B:TYR:539:CE2:9848, V-A:LEU:475:CD1:4257, H-B:ALA:541:N:9863, H-A:HIS:383:NE2:3393, V-B:PRO:540:CA:9855, H-B:GLU:543:OE1:9881, V-B:ALA:541:CB:9864, V-B:GLU:543:CD:9880, V-A:SER:385:C:3404, V-B:ALA:541:CA:9862, V-B:ASP:366:CG:8184, V-B:ASP:366:CB:8183, H-B:GLU:543:OE2:9882, V-A:SER:385:CA:3406, V-B:ARG:545:CZ:9898, V-B:PRO:540:C:9853, V-A:SER:385:CB:3408, H-B:TYR:531:OH:9767, V-B:TYR:531:CZ:9766, V-B:ASP:366:C:8179, V-B:ASP:366:CA:8181, V-B:TYR:531:CE1:9764"]

$$$$
4bb_Grossjean_2025
     RDKit          3D

 41 43  0  0  0  0  0  0  0  0999 V2000
  133.9930  119.1490   60.8240 C   0  0  0  0  0  0  0  0  0  0  0  0
  132.5030  118.8510   61.0030 C   0  0  0  0  0  0  0  0  0  0  0  0
  132.1680  117.6890   61.2410 O   0  0  0  0  0  0  0  0  0  0  0  0
  131.5310  119.9840   60.8700 C   0  0  0  0  0  0  0  0  0  0  0  0
  131.8910  121.1150   60.1260 C   0  0  0  0  0  0  0  0  0  0  0  0
  131.0070  122.1810   59.9870 C   0  0  0  0  0  0  0  0  0  0  0  0
  129.7450  122.1350   60.5810 C   0  0  0  0  0  0  0  0  0  0  0  0
  128.9320  123.2680   60.3790 N   0  0  0  0  0  0  0  0  0  0  0  0
  127.7000  123.5550   60.8660 C   0  0  0  0  0  0  0  0  0  0  0  0
  127.0490  122.8000   61.5880 O   0  0  0  0  0  0  0  0  0  0  0  0
  127.1490  124.8470   60.4490 C   0  0  0  0  0  0  0  0  0  0  0  0
  126.5600  125.0700   58.8030 S   0  0  0  0  0  0  0  0  0  0  0  0
  126.1630  126.7420   59.1210 C   0  0  0  0  0  0  0  0  0  0  0  0
  125.6280  127.5210   58.1820 N   0  0  0  0  0  0  0  0  0  0  0  0
  125.3650  128.7970   58.5470 C   0  0  0  0  0  0  0  0  0  0  0  0
  124.7540  129.6660   57.4630 C   0  0  0  0  0  0  0  0  0  0  0  0
  125.6220  129.3080   59.8160 C   0  0  0  0  0  0  0  0  0  0  0  0
  126.1860  128.4920   60.8090 C   0  0  0  0  0  0  0  0  0  0  0  0
  126.4510  129.1000   62.1910 C   0  0  0  0  0  0  0  0  0  0  0  0
  126.1920  130.4080   62.2450 F   0  0  0  0  0  0  0  0  0  0  0  0
  125.6810  128.5020   63.1010 F   0  0  0  0  0  0  0  0  0  0  0  0
  127.7320  128.9320   62.5200 F   0  0  0  0  0  0  0  0  0  0  0  0
  126.4760  127.1400   60.4580 C   0  0  0  0  0  0  0  0  0  0  0  0
  127.0420  126.0350   61.1900 C   0  0  0  0  0  0  0  0  0  0  0  0
  127.4350  126.1390   62.5000 N   0  0  0  0  0  0  0  0  0  0  0  0
  129.3800  121.0090   61.3340 C   0  0  0  0  0  0  0  0  0  0  0  0
  130.2660  119.9440   61.4730 C   0  0  0  0  0  0  0  0  0  0  0  0
  134.4690  119.2442   61.8111 H   0  0  0  0  0  0  0  0  0  0  0  0
  134.4667  118.3278   60.2661 H   0  0  0  0  0  0  0  0  0  0  0  0
  134.1145  120.0892   60.2661 H   0  0  0  0  0  0  0  0  0  0  0  0
  132.8805  121.1610   59.6477 H   0  0  0  0  0  0  0  0  0  0  0  0
  131.3050  123.0656   59.4051 H   0  0  0  0  0  0  0  0  0  0  0  0
  129.3320  123.9560   59.7570 H   0  0  0  0  0  0  0  0  0  0  0  0
  124.1804  130.4819   57.9270 H   0  0  0  0  0  0  0  0  0  0  0  0
  125.5541  130.0896   56.8382 H   0  0  0  0  0  0  0  0  0  0  0  0
  124.0847  129.0564   56.8382 H   0  0  0  0  0  0  0  0  0  0  0  0
  125.3817  130.3574   60.0419 H   0  0  0  0  0  0  0  0  0  0  0  0
  126.7680  126.1790   63.2580 H   0  0  0  0  0  0  0  0  0  0  0  0
  128.4130  126.1800   62.7550 H   0  0  0  0  0  0  0  0  0  0  0  0
  128.3919  120.9674   61.8156 H   0  0  0  0  0  0  0  0  0  0  0  0
  129.9706  119.0629   62.0615 H   0  0  0  0  0  0  0  0  0  0  0  0
  1  2  1  0
  2  3  2  0
  2  4  1  0
  4  5  2  0
  5  6  1  0
  6  7  2  0
  7  8  1  0
  8  9  1  0
  9 10  2  0
  9 11  1  0
 11 12  1  0
 12 13  1  0
 13 14  2  0
 14 15  1  0
 15 16  1  0
 15 17  2  0
 17 18  1  0
 18 19  1  0
 19 20  1  0
 19 21  1  0
 19 22  1  0
 18 23  2  0
 23 24  1  0
 24 25  1  0
  7 26  1  0
 26 27  2  0
 27  4  1  0
 24 11  2  0
 23 13  1  0
  1 28  1  0
  1 29  1  0
  1 30  1  0
  5 31  1  0
  6 32  1  0
  8 33  1  0
 16 34  1  0
 16 35  1  0
 16 36  1  0
 17 37  1  0
 25 38  1  0
 25 39  1  0
 26 40  1  0
 27 41  1  0
M  END
>  <Binding energies>  (1) 
[-6.2]

>  <Ligand effiencies>  (1) 
[-0.20666666666666667]

>  <Interactions>  (1) 
["V-A:TYR:539:CE1:4875, V-A:ILE:369:CG2:3236, V-B:TYR:539:CD2:9846, H-A:SER:385:OG:3409, V-B:TYR:539:CE2:9848, V-A:LEU:475:CD1:4257, H-B:ALA:541:N:9863, H-A:HIS:383:NE2:3393, V-B:PRO:540:CA:9855, H-B:GLU:543:OE1:9881, V-B:ALA:541:CB:9864, V-B:GLU:543:CD:9880, V-A:SER:385:C:3404, V-B:ALA:541:CA:9862, V-B:ASP:366:CG:8184, V-B:ASP:366:CB:8183, H-B:GLU:543:OE2:9882, V-A:SER:385:CA:3406, V-B:ARG:545:CZ:9898, V-B:PRO:540:C:9853, V-A:SER:385:CB:3408, H-B:TYR:531:OH:9767, V-B:TYR:531:CZ:9766, V-B:ASP:366:C:8179, V-B:ASP:366:CA:8181, V-B:TYR:531:CE1:9764"]

$$$$
4bc_Grossjean_2025
     RDKit          3D

 40 42  0  0  0  0  0  0  0  0999 V2000
  128.6550  126.0850   71.7830 C   0  0  0  0  0  0  0  0  0  0  0  0
  129.1280  125.8700   70.4580 O   0  0  0  0  0  0  0  0  0  0  0  0
  128.8210  126.7900   69.4740 C   0  0  0  0  0  0  0  0  0  0  0  0
  127.9120  126.3790   68.5000 C   0  0  0  0  0  0  0  0  0  0  0  0
  127.5420  127.2380   67.4680 C   0  0  0  0  0  0  0  0  0  0  0  0
  128.0710  128.5280   67.4030 C   0  0  0  0  0  0  0  0  0  0  0  0
  127.6500  129.3190   66.3180 N   0  0  0  0  0  0  0  0  0  0  0  0
  126.4000  129.5090   65.8300 C   0  0  0  0  0  0  0  0  0  0  0  0
  125.3960  128.9520   66.2760 O   0  0  0  0  0  0  0  0  0  0  0  0
  126.3010  130.4370   64.6990 C   0  0  0  0  0  0  0  0  0  0  0  0
  127.1860  131.9600   64.7210 S   0  0  0  0  0  0  0  0  0  0  0  0
  126.5580  132.4000   63.1500 C   0  0  0  0  0  0  0  0  0  0  0  0
  126.8920  133.5500   62.5650 N   0  0  0  0  0  0  0  0  0  0  0  0
  126.3410  133.7810   61.3520 C   0  0  0  0  0  0  0  0  0  0  0  0
  126.7390  135.0930   60.7000 C   0  0  0  0  0  0  0  0  0  0  0  0
  125.4710  132.8990   60.7150 C   0  0  0  0  0  0  0  0  0  0  0  0
  125.1160  131.6870   61.3270 C   0  0  0  0  0  0  0  0  0  0  0  0
  124.1530  130.7500   60.5880 C   0  0  0  0  0  0  0  0  0  0  0  0
  123.7790  131.2200   59.3970 F   0  0  0  0  0  0  0  0  0  0  0  0
  124.7400  129.5710   60.3860 F   0  0  0  0  0  0  0  0  0  0  0  0
  123.0490  130.5740   61.3130 F   0  0  0  0  0  0  0  0  0  0  0  0
  125.6810  131.4110   62.6070 C   0  0  0  0  0  0  0  0  0  0  0  0
  125.5570  130.2980   63.5170 C   0  0  0  0  0  0  0  0  0  0  0  0
  124.7770  129.2030   63.2430 N   0  0  0  0  0  0  0  0  0  0  0  0
  128.9960  128.9450   68.3730 C   0  0  0  0  0  0  0  0  0  0  0  0
  129.3650  128.0830   69.4020 C   0  0  0  0  0  0  0  0  0  0  0  0
  129.4121  125.7409   72.5030 H   0  0  0  0  0  0  0  0  0  0  0  0
  128.4653  127.1578   71.9351 H   0  0  0  0  0  0  0  0  0  0  0  0
  127.7220  125.5225   71.9351 H   0  0  0  0  0  0  0  0  0  0  0  0
  127.4832  125.3671   68.5470 H   0  0  0  0  0  0  0  0  0  0  0  0
  126.8301  126.8985   66.7012 H   0  0  0  0  0  0  0  0  0  0  0  0
  128.3990  129.7800   65.8230 H   0  0  0  0  0  0  0  0  0  0  0  0
  126.9644  135.8361   61.4791 H   0  0  0  0  0  0  0  0  0  0  0  0
  127.6299  134.9360   60.0742 H   0  0  0  0  0  0  0  0  0  0  0  0
  125.9110  135.4575   60.0742 H   0  0  0  0  0  0  0  0  0  0  0  0
  125.0601  133.1539   59.7270 H   0  0  0  0  0  0  0  0  0  0  0  0
  124.4110  129.0240   62.3200 H   0  0  0  0  0  0  0  0  0  0  0  0
  124.5460  128.5310   63.9630 H   0  0  0  0  0  0  0  0  0  0  0  0
  129.4299  129.9544   68.3200 H   0  0  0  0  0  0  0  0  0  0  0  0
  130.0864  128.4162   70.1627 H   0  0  0  0  0  0  0  0  0  0  0  0
  1  2  1  0
  2  3  1  0
  3  4  2  0
  4  5  1  0
  5  6  2  0
  6  7  1  0
  7  8  1  0
  8  9  2  0
  8 10  1  0
 10 11  1  0
 11 12  1  0
 12 13  2  0
 13 14  1  0
 14 15  1  0
 14 16  2  0
 16 17  1  0
 17 18  1  0
 18 19  1  0
 18 20  1  0
 18 21  1  0
 17 22  2  0
 22 23  1  0
 23 24  1  0
  6 25  1  0
 25 26  2  0
 26  3  1  0
 23 10  2  0
 22 12  1  0
  1 27  1  0
  1 28  1  0
  1 29  1  0
  4 30  1  0
  5 31  1  0
  7 32  1  0
 15 33  1  0
 15 34  1  0
 15 35  1  0
 16 36  1  0
 24 37  1  0
 24 38  1  0
 25 39  1  0
 26 40  1  0
M  END
>  <Binding energies>  (1) 
[-5.65]

>  <Ligand effiencies>  (1) 
[-0.19482758620689655]

>  <Interactions>  (1) 
["V-A:ALA:541:CB:4892, V-A:TYR:539:CE1:4875, V-A:TYR:539:CD1:4873, V-B:LEU:475:CD1:9229, V-A:GLU:543:CD:4908, V-A:TYR:539:C:4867, H-A:GLU:543:OE1:4909, H-B:ASP:366:OD1:8185, V-B:GLU:543:CD:9880, V-A:HIS:456:CE1:4069, V-A:GLU:543:CG:4907, V-B:HIS:456:CE1:9041, V-B:TYR:484:CE2:9317, V-A:GLU:543:CB:4906, V-B:GLU:543:C:9874, V-B:GLU:543:CB:9878, H-B:ASP:366:OD2:8186, H-B:TYR:484:OH:9319, V-B:ILE:369:CG2:8208, V-B:ILE:369:CD1:8210, V-B:ILE:369:CG1:8209, V-B:ASP:366:CG:8184, V-B:ILE:369:CB:8207, V-B:ASP:366:CB:8183, V-A:GLU:543:C:4902, V-A:GLU:543:CA:4904, H-B:ARG:545:NE:9896, V-B:ARG:545:CZ:9898, V-B:HIS:456:CD2:9039, V-B:ASP:366:CA:8181"]

$$$$
4bd_Grossjean_2025
     RDKit          3D

 36 38  0  0  0  0  0  0  0  0999 V2000
  126.7600  135.0400   61.0150 C   0  0  0  0  0  0  0  0  0  0  0  0
  126.4080  133.6990   61.6350 C   0  0  0  0  0  0  0  0  0  0  0  0
  125.5400  132.8180   60.9950 C   0  0  0  0  0  0  0  0  0  0  0  0
  125.2210  131.5830   61.5810 C   0  0  0  0  0  0  0  0  0  0  0  0
  124.2590  130.6480   60.8410 C   0  0  0  0  0  0  0  0  0  0  0  0
  123.8110  131.1620   59.6920 F   0  0  0  0  0  0  0  0  0  0  0  0
  124.8740  129.5020   60.5520 F   0  0  0  0  0  0  0  0  0  0  0  0
  123.1960  130.3970   61.6050 F   0  0  0  0  0  0  0  0  0  0  0  0
  125.8220  131.2830   62.8390 C   0  0  0  0  0  0  0  0  0  0  0  0
  125.7370  130.1440   63.7210 C   0  0  0  0  0  0  0  0  0  0  0  0
  124.9720  129.0440   63.4350 N   0  0  0  0  0  0  0  0  0  0  0  0
  126.5040  130.2670   64.8920 C   0  0  0  0  0  0  0  0  0  0  0  0
  126.6350  129.3170   66.0010 C   0  0  0  0  0  0  0  0  0  0  0  0
  125.6370  128.8210   66.5240 O   0  0  0  0  0  0  0  0  0  0  0  0
  127.9070  129.0350   66.3770 N   0  0  0  0  0  0  0  0  0  0  0  0
  128.3700  128.2090   67.4180 C   0  0  0  0  0  0  0  0  0  0  0  0
  128.9740  128.8630   68.4960 C   0  0  0  0  0  0  0  0  0  0  0  0
  129.4550  128.1340   69.5800 C   0  0  0  0  0  0  0  0  0  0  0  0
  129.3250  126.7480   69.5920 C   0  0  0  0  0  0  0  0  0  0  0  0
  128.7120  126.0850   68.5310 C   0  0  0  0  0  0  0  0  0  0  0  0
  128.2300  126.8110   67.4450 C   0  0  0  0  0  0  0  0  0  0  0  0
  127.3650  131.8040   64.9330 S   0  0  0  0  0  0  0  0  0  0  0  0
  126.6930  132.2730   63.3890 C   0  0  0  0  0  0  0  0  0  0  0  0
  126.9930  133.4440   62.8280 N   0  0  0  0  0  0  0  0  0  0  0  0
  126.9525  135.7733   61.8121 H   0  0  0  0  0  0  0  0  0  0  0  0
  127.6600  134.9310   60.3919 H   0  0  0  0  0  0  0  0  0  0  0  0
  125.9225  135.3870   60.3919 H   0  0  0  0  0  0  0  0  0  0  0  0
  125.1015  133.0916   60.0240 H   0  0  0  0  0  0  0  0  0  0  0  0
  124.1470  129.1010   62.8550 H   0  0  0  0  0  0  0  0  0  0  0  0
  125.2120  128.1290   63.7930 H   0  0  0  0  0  0  0  0  0  0  0  0
  128.6380  129.4600   65.8270 H   0  0  0  0  0  0  0  0  0  0  0  0
  129.0696  129.9588   68.4876 H   0  0  0  0  0  0  0  0  0  0  0  0
  129.9358  128.6509   70.4236 H   0  0  0  0  0  0  0  0  0  0  0  0
  129.7095  126.1715   70.4463 H   0  0  0  0  0  0  0  0  0  0  0  0
  128.6090  124.9900   68.5512 H   0  0  0  0  0  0  0  0  0  0  0  0
  127.7400  126.2906   66.6089 H   0  0  0  0  0  0  0  0  0  0  0  0
  1  2  1  0
  2  3  2  0
  3  4  1  0
  4  5  1  0
  5  6  1  0
  5  7  1  0
  5  8  1  0
  4  9  2  0
  9 10  1  0
 10 11  1  0
 10 12  2  0
 12 13  1  0
 13 14  2  0
 13 15  1  0
 15 16  1  0
 16 17  2  0
 17 18  1  0
 18 19  2  0
 19 20  1  0
 20 21  2  0
 12 22  1  0
 22 23  1  0
 23 24  2  0
 24  2  1  0
 23  9  1  0
 21 16  1  0
  1 25  1  0
  1 26  1  0
  1 27  1  0
  3 28  1  0
 11 29  1  0
 11 30  1  0
 15 31  1  0
 17 32  1  0
 18 33  1  0
 19 34  1  0
 20 35  1  0
 21 36  1  0
M  END
>  <Binding energies>  (1) 
[-6.13]

>  <Ligand effiencies>  (1) 
[-0.22703703703703704]

>  <Interactions>  (1) 
["V-A:ALA:541:CB:4892, V-A:TYR:539:CE1:4875, V-A:TYR:539:CD1:4873, V-B:LEU:475:CD1:9229, V-A:GLU:543:CD:4908, H-A:GLU:543:OE1:4909, H-B:ASP:366:OD1:8185, V-B:GLU:543:CD:9880, V-A:HIS:456:CE1:4069, V-A:GLU:543:CG:4907, V-B:HIS:456:CE1:9041, V-B:TYR:484:CE2:9317, V-A:GLU:543:CB:4906, V-B:GLU:543:CB:9878, H-B:ASP:366:OD2:8186, H-B:TYR:484:OH:9319, V-B:ILE:369:CG2:8208, V-B:ILE:369:CD1:8210, V-B:ASP:366:CG:8184, V-B:ILE:369:CB:8207, V-B:ASP:366:CB:8183, H-B:GLU:543:OE2:9882, V-A:GLU:543:C:4902, V-A:GLU:543:CA:4904, H-B:ARG:545:NE:9896, V-B:ARG:545:CZ:9898, V-B:ASP:366:CA:8181"]

$$$$
4be_Grossjean_2025
     RDKit          3D

 38 40  0  0  0  0  0  0  0  0999 V2000
  129.4320  128.1280   70.9640 C   0  0  0  0  0  0  0  0  0  0  0  0
  129.1510  127.6060   69.5670 C   0  0  0  0  0  0  0  0  0  0  0  0
  129.3560  126.2640   69.2340 C   0  0  0  0  0  0  0  0  0  0  0  0
  129.0790  125.8550   67.9300 C   0  0  0  0  0  0  0  0  0  0  0  0
  128.6090  126.7850   66.9990 C   0  0  0  0  0  0  0  0  0  0  0  0
  128.4210  128.1120   67.4010 C   0  0  0  0  0  0  0  0  0  0  0  0
  127.9530  129.0000   66.4160 N   0  0  0  0  0  0  0  0  0  0  0  0
  126.6740  129.2890   66.0670 C   0  0  0  0  0  0  0  0  0  0  0  0
  125.6860  128.7840   66.6040 O   0  0  0  0  0  0  0  0  0  0  0  0
  126.5230  130.2460   64.9670 C   0  0  0  0  0  0  0  0  0  0  0  0
  127.5020  131.7110   64.9290 S   0  0  0  0  0  0  0  0  0  0  0  0
  126.7310  132.2420   63.4520 C   0  0  0  0  0  0  0  0  0  0  0  0
  127.0710  133.3870   62.8640 N   0  0  0  0  0  0  0  0  0  0  0  0
  126.4050  133.6900   61.7250 C   0  0  0  0  0  0  0  0  0  0  0  0
  126.8050  135.0000   61.0720 C   0  0  0  0  0  0  0  0  0  0  0  0
  125.4190  132.8820   61.1670 C   0  0  0  0  0  0  0  0  0  0  0  0
  125.0570  131.6730   61.7820 C   0  0  0  0  0  0  0  0  0  0  0  0
  123.9690  130.8150   61.1280 C   0  0  0  0  0  0  0  0  0  0  0  0
  123.4010  131.4070   60.0740 F   0  0  0  0  0  0  0  0  0  0  0  0
  124.4940  129.6660   60.7030 F   0  0  0  0  0  0  0  0  0  0  0  0
  123.0040  130.5590   62.0110 F   0  0  0  0  0  0  0  0  0  0  0  0
  125.7370  131.3260   62.9870 C   0  0  0  0  0  0  0  0  0  0  0  0
  125.6350  130.1990   63.8820 C   0  0  0  0  0  0  0  0  0  0  0  0
  124.7490  129.1710   63.6800 N   0  0  0  0  0  0  0  0  0  0  0  0
  128.6940  128.5210   68.6750 N   0  0  0  0  0  0  0  0  0  0  0  0
  129.0474  127.4135   71.7067 H   0  0  0  0  0  0  0  0  0  0  0  0
  130.5170  128.2487   71.0990 H   0  0  0  0  0  0  0  0  0  0  0  0
  128.9353  129.1002   71.0990 H   0  0  0  0  0  0  0  0  0  0  0  0
  129.7268  125.5481   69.9823 H   0  0  0  0  0  0  0  0  0  0  0  0
  129.2297  124.8058   67.6358 H   0  0  0  0  0  0  0  0  0  0  0  0
  128.3901  126.4785   65.9655 H   0  0  0  0  0  0  0  0  0  0  0  0
  128.6780  129.4480   65.8750 H   0  0  0  0  0  0  0  0  0  0  0  0
  127.0320  135.7434   61.8504 H   0  0  0  0  0  0  0  0  0  0  0  0
  127.6955  134.8408   60.4461 H   0  0  0  0  0  0  0  0  0  0  0  0
  125.9775  135.3654   60.4461 H   0  0  0  0  0  0  0  0  0  0  0  0
  124.9197  133.1928   60.2374 H   0  0  0  0  0  0  0  0  0  0  0  0
  124.2470  129.0600   62.8120 H   0  0  0  0  0  0  0  0  0  0  0  0
  124.5640  128.4890   64.4030 H   0  0  0  0  0  0  0  0  0  0  0  0
  1  2  1  0
  2  3  2  0
  3  4  1  0
  4  5  2  0
  5  6  1  0
  6  7  1  0
  7  8  1  0
  8  9  2  0
  8 10  1  0
 10 11  1  0
 11 12  1  0
 12 13  2  0
 13 14  1  0
 14 15  1  0
 14 16  2  0
 16 17  1  0
 17 18  1  0
 18 19  1  0
 18 20  1  0
 18 21  1  0
 17 22  2  0
 22 23  1  0
 23 24  1  0
  6 25  2  0
 25  2  1  0
 23 10  2  0
 22 12  1  0
  1 26  1  0
  1 27  1  0
  1 28  1  0
  3 29  1  0
  4 30  1  0
  5 31  1  0
  7 32  1  0
 15 33  1  0
 15 34  1  0
 15 35  1  0
 16 36  1  0
 24 37  1  0
 24 38  1  0
M  END
>  <Binding energies>  (1) 
[-6.13]

>  <Ligand effiencies>  (1) 
[-0.21892857142857142]

>  <Interactions>  (1) 
["V-A:ALA:541:CB:4892, V-A:TYR:539:CD1:4873, V-B:LEU:475:CD1:9229, V-A:GLU:543:CD:4908, H-A:GLU:543:OE1:4909, V-B:GLU:543:CG:9879, H-B:ASP:366:OD1:8185, V-B:GLU:543:CD:9880, V-A:HIS:456:CE1:4069, V-A:GLU:543:CG:4907, V-B:HIS:456:CE1:9041, V-B:TYR:484:CE2:9317, V-B:GLU:543:CB:9878, H-B:ASP:366:OD2:8186, H-B:TYR:484:OH:9319, V-B:ILE:369:CG2:8208, V-B:ILE:369:CD1:8210, V-B:ILE:369:CG1:8209, V-B:ASP:366:CG:8184, V-B:ILE:369:CB:8207, V-B:ASP:366:CB:8183, H-B:GLU:543:OE2:9882, H-B:ARG:545:NE:9896, V-B:GLY:453:CA:9015, V-B:ARG:545:CZ:9898, V-B:HIS:456:CD2:9039, V-B:ASP:366:CA:8181"]

$$$$
4bf_Grossjean_2025
     RDKit          3D

 35 37  0  0  0  0  0  0  0  0999 V2000
  126.8750  135.0280   61.0080 C   0  0  0  0  0  0  0  0  0  0  0  0
  126.4530  133.7250   61.6640 C   0  0  0  0  0  0  0  0  0  0  0  0
  125.4900  132.9080   61.0790 C   0  0  0  0  0  0  0  0  0  0  0  0
  125.1060  131.7080   61.6970 C   0  0  0  0  0  0  0  0  0  0  0  0
  124.0400  130.8420   61.0180 C   0  0  0  0  0  0  0  0  0  0  0  0
  123.5880  131.3690   59.8770 F   0  0  0  0  0  0  0  0  0  0  0  0
  124.5470  129.6430   60.7310 F   0  0  0  0  0  0  0  0  0  0  0  0
  122.9930  130.6950   61.8310 F   0  0  0  0  0  0  0  0  0  0  0  0
  125.7430  131.3760   62.9310 C   0  0  0  0  0  0  0  0  0  0  0  0
  125.6120  130.2590   63.8340 C   0  0  0  0  0  0  0  0  0  0  0  0
  124.7480  129.2190   63.6020 N   0  0  0  0  0  0  0  0  0  0  0  0
  126.4470  130.3300   64.9610 C   0  0  0  0  0  0  0  0  0  0  0  0
  126.5480  129.3930   66.0840 C   0  0  0  0  0  0  0  0  0  0  0  0
  125.5380  128.8750   66.5620 O   0  0  0  0  0  0  0  0  0  0  0  0
  127.8070  129.1450   66.5210 N   0  0  0  0  0  0  0  0  0  0  0  0
  128.2420  128.3450   67.5950 C   0  0  0  0  0  0  0  0  0  0  0  0
  129.0090  128.7920   68.6850 C   0  0  0  0  0  0  0  0  0  0  0  0
  129.3880  127.8870   69.6800 C   0  0  0  0  0  0  0  0  0  0  0  0
  128.9930  126.5540   69.5570 C   0  0  0  0  0  0  0  0  0  0  0  0
  128.2600  126.0980   68.5110 N   0  0  0  0  0  0  0  0  0  0  0  0
  127.8990  126.9890   67.5520 C   0  0  0  0  0  0  0  0  0  0  0  0
  127.4230  131.7970   64.9380 S   0  0  0  0  0  0  0  0  0  0  0  0
  126.7150  132.3020   63.4220 C   0  0  0  0  0  0  0  0  0  0  0  0
  127.0760  133.4400   62.8310 N   0  0  0  0  0  0  0  0  0  0  0  0
  127.1149  135.7688   61.7850 H   0  0  0  0  0  0  0  0  0  0  0  0
  127.7623  134.8528   60.3819 H   0  0  0  0  0  0  0  0  0  0  0  0
  126.0534  135.4062   60.3819 H   0  0  0  0  0  0  0  0  0  0  0  0
  125.0270  133.2047   60.1263 H   0  0  0  0  0  0  0  0  0  0  0  0
  124.2270  129.1390   62.7410 H   0  0  0  0  0  0  0  0  0  0  0  0
  124.6050  128.4920   64.2900 H   0  0  0  0  0  0  0  0  0  0  0  0
  128.5520  129.5890   66.0040 H   0  0  0  0  0  0  0  0  0  0  0  0
  129.3091  129.8480   68.7543 H   0  0  0  0  0  0  0  0  0  0  0  0
  129.9853  128.2183   70.5423 H   0  0  0  0  0  0  0  0  0  0  0  0
  129.2889  125.8427   70.3422 H   0  0  0  0  0  0  0  0  0  0  0  0
  127.3072  126.6267   66.6985 H   0  0  0  0  0  0  0  0  0  0  0  0
  1  2  1  0
  2  3  2  0
  3  4  1  0
  4  5  1  0
  5  6  1  0
  5  7  1  0
  5  8  1  0
  4  9  2  0
  9 10  1  0
 10 11  1  0
 10 12  2  0
 12 13  1  0
 13 14  2  0
 13 15  1  0
 15 16  1  0
 16 17  2  0
 17 18  1  0
 18 19  2  0
 19 20  1  0
 20 21  2  0
 12 22  1  0
 22 23  1  0
 23 24  2  0
 24  2  1  0
 23  9  1  0
 21 16  1  0
  1 25  1  0
  1 26  1  0
  1 27  1  0
  3 28  1  0
 11 29  1  0
 11 30  1  0
 15 31  1  0
 17 32  1  0
 18 33  1  0
 19 34  1  0
 21 35  1  0
M  END
>  <Binding energies>  (1) 
[-5.7]

>  <Ligand effiencies>  (1) 
[-0.2111111111111111]

>  <Interactions>  (1) 
["V-A:ALA:541:CB:4892, V-A:TYR:539:CD1:4873, V-B:LEU:475:CD1:9229, V-A:GLU:543:CD:4908, H-A:GLU:543:OE1:4909, H-B:ASP:366:OD1:8185, V-B:GLU:543:CD:9880, V-A:HIS:456:CE1:4069, V-A:GLU:543:CG:4907, V-B:HIS:456:CE1:9041, V-B:TYR:484:CE2:9317, V-A:GLU:543:CB:4906, V-B:GLU:543:CB:9878, H-B:ASP:366:OD2:8186, H-B:TYR:484:OH:9319, V-B:ILE:369:CG2:8208, V-B:ILE:369:CD1:8210, V-B:ILE:369:CG1:8209, V-B:ASP:366:CG:8184, V-B:ILE:369:CB:8207, V-B:ASP:366:CB:8183, H-B:GLU:543:OE2:9882, V-A:GLU:543:C:4902, V-A:GLU:543:CA:4904, H-B:ARG:545:NE:9896, V-B:ARG:545:CZ:9898, V-B:ASP:366:CA:8181"]

$$$$
4bg_Grossjean_2025
     RDKit          3D

 39 41  0  0  0  0  0  0  0  0999 V2000
  133.5130  123.6250   57.8080 C   0  0  0  0  0  0  0  0  0  0  0  0
  132.9600  124.1940   59.1020 C   0  0  0  0  0  0  0  0  0  0  0  0
  131.7250  124.8360   59.1330 C   0  0  0  0  0  0  0  0  0  0  0  0
  131.2270  125.3630   60.3360 C   0  0  0  0  0  0  0  0  0  0  0  0
  129.8640  126.0610   60.3210 C   0  0  0  0  0  0  0  0  0  0  0  0
  128.9710  125.4810   61.1270 F   0  0  0  0  0  0  0  0  0  0  0  0
  130.0010  127.3250   60.7210 F   0  0  0  0  0  0  0  0  0  0  0  0
  129.3590  126.0420   59.0880 F   0  0  0  0  0  0  0  0  0  0  0  0
  132.0370  125.2060   61.5000 C   0  0  0  0  0  0  0  0  0  0  0  0
  131.8670  125.6090   62.8750 C   0  0  0  0  0  0  0  0  0  0  0  0
  130.7670  126.3000   63.3170 N   0  0  0  0  0  0  0  0  0  0  0  0
  132.9220  125.2240   63.7180 C   0  0  0  0  0  0  0  0  0  0  0  0
  133.0910  125.4910   65.1460 C   0  0  0  0  0  0  0  0  0  0  0  0
  133.8680  124.8290   65.8360 O   0  0  0  0  0  0  0  0  0  0  0  0
  132.3770  126.5220   65.6430 N   0  0  0  0  0  0  0  0  0  0  0  0
  132.3760  126.9590   67.0390 C   0  0  0  0  0  0  0  0  0  0  0  0
  131.0180  126.8330   67.7170 C   0  0  0  0  0  0  0  0  0  0  0  0
  130.3110  125.6280   67.6520 C   0  0  0  0  0  0  0  0  0  0  0  0
  129.0880  125.5030   68.3040 C   0  0  0  0  0  0  0  0  0  0  0  0
  128.5810  126.5780   69.0330 C   0  0  0  0  0  0  0  0  0  0  0  0
  129.2880  127.7750   69.1160 C   0  0  0  0  0  0  0  0  0  0  0  0
  130.5110  127.9010   68.4620 C   0  0  0  0  0  0  0  0  0  0  0  0
  134.1820  124.3800   62.8230 S   0  0  0  0  0  0  0  0  0  0  0  0
  133.2800  124.5210   61.3340 C   0  0  0  0  0  0  0  0  0  0  0  0
  133.7480  124.0250   60.1880 N   0  0  0  0  0  0  0  0  0  0  0  0
  134.2628  122.8535   58.0375 H   0  0  0  0  0  0  0  0  0  0  0  0
  132.6944  123.1786   57.2244 H   0  0  0  0  0  0  0  0  0  0  0  0
  133.9826  124.4305   57.2244 H   0  0  0  0  0  0  0  0  0  0  0  0
  131.1353  124.9312   58.2093 H   0  0  0  0  0  0  0  0  0  0  0  0
  130.8440  127.0700   63.9640 H   0  0  0  0  0  0  0  0  0  0  0  0
  129.8350  126.0520   63.0130 H   0  0  0  0  0  0  0  0  0  0  0  0
  131.7010  126.9680   65.0390 H   0  0  0  0  0  0  0  0  0  0  0  0
  133.1006  126.3465   67.5955 H   0  0  0  0  0  0  0  0  0  0  0  0
  132.6403  128.0268   67.0427 H   0  0  0  0  0  0  0  0  0  0  0  0
  130.7217  124.7792   67.0856 H   0  0  0  0  0  0  0  0  0  0  0  0
  128.5239  124.5605   68.2445 H   0  0  0  0  0  0  0  0  0  0  0  0
  127.6136  126.4797   69.5473 H   0  0  0  0  0  0  0  0  0  0  0  0
  128.8822  128.6172   69.6956 H   0  0  0  0  0  0  0  0  0  0  0  0
  131.0779  128.8411   68.5319 H   0  0  0  0  0  0  0  0  0  0  0  0
  1  2  1  0
  2  3  2  0
  3  4  1  0
  4  5  1  0
  5  6  1  0
  5  7  1  0
  5  8  1  0
  4  9  2  0
  9 10  1  0
 10 11  1  0
 10 12  2  0
 12 13  1  0
 13 14  2  0
 13 15  1  0
 15 16  1  0
 16 17  1  0
 17 18  2  0
 18 19  1  0
 19 20  2  0
 20 21  1  0
 21 22  2  0
 12 23  1  0
 23 24  1  0
 24 25  2  0
 25  2  1  0
 24  9  1  0
 22 17  1  0
  1 26  1  0
  1 27  1  0
  1 28  1  0
  3 29  1  0
 11 30  1  0
 11 31  1  0
 15 32  1  0
 16 33  1  0
 16 34  1  0
 18 35  1  0
 19 36  1  0
 20 37  1  0
 21 38  1  0
 22 39  1  0
M  END
>  <Binding energies>  (1) 
[-6.65]

>  <Ligand effiencies>  (1) 
[-0.23750000000000002]

>  <Interactions>  (1) 
["V-A:GLU:543:CD:4908, V-A:ASP:366:CG:3212, V-A:ARG:545:CD:4923, V-A:ARG:545:CG:4922, V-A:GLY:453:C:4041, H-A:TYR:484:OH:4347, H-A:GLU:543:OE2:4910, V-A:ASP:366:CA:3209, V-A:ASP:366:CB:3211, V-A:TYR:484:CZ:4346, H-A:GLU:543:OE1:4909, V-A:ARG:545:CZ:4926, H-A:GLY:454:N:4049, V-A:ILE:369:CB:3235, V-A:ILE:369:CG2:3236, V-B:TYR:539:CE2:9848, V-B:GLU:543:CG:9879, V-B:TYR:539:CZ:9849, V-A:TYR:484:CE2:4345, V-A:HIS:456:CE1:4069, V-B:GLU:543:CA:9876, V-B:HIS:456:CE1:9041, V-A:GLY:453:CA:4043, V-A:GLU:543:CB:4906, V-B:GLU:543:C:9874, V-B:GLU:543:CB:9878, V-A:GLU:543:C:4902, V-A:ASP:366:C:3207"]

$$$$
4bh_Grossjean_2025
     RDKit          3D

 51 53  0  0  0  0  0  0  0  0999 V2000
  122.9260  129.2770   67.0110 C   0  0  0  0  0  0  0  0  0  0  0  0
  123.6730  129.2590   65.8000 O   0  0  0  0  0  0  0  0  0  0  0  0
  125.0520  129.3480   65.8520 C   0  0  0  0  0  0  0  0  0  0  0  0
  125.8680  128.4720   66.5840 C   0  0  0  0  0  0  0  0  0  0  0  0
  127.2550  128.6240   66.5930 C   0  0  0  0  0  0  0  0  0  0  0  0
  128.1280  127.6360   67.3570 C   0  0  0  0  0  0  0  0  0  0  0  0
  129.1210  126.9630   66.5190 N   0  0  0  0  0  0  0  0  0  0  0  0
  129.6200  125.7290   66.7350 C   0  0  0  0  0  0  0  0  0  0  0  0
  129.3040  125.0480   67.7130 O   0  0  0  0  0  0  0  0  0  0  0  0
  130.6030  125.2530   65.7610 C   0  0  0  0  0  0  0  0  0  0  0  0
  132.1470  126.0820   65.5890 S   0  0  0  0  0  0  0  0  0  0  0  0
  132.6350  124.9980   64.3070 C   0  0  0  0  0  0  0  0  0  0  0  0
  133.8200  125.1170   63.7100 N   0  0  0  0  0  0  0  0  0  0  0  0
  134.0860  124.2180   62.7340 C   0  0  0  0  0  0  0  0  0  0  0  0
  135.4400  124.3720   62.0660 C   0  0  0  0  0  0  0  0  0  0  0  0
  133.2050  123.2120   62.3460 C   0  0  0  0  0  0  0  0  0  0  0  0
  131.9540  123.0840   62.9700 C   0  0  0  0  0  0  0  0  0  0  0  0
  131.0180  121.9600   62.5100 C   0  0  0  0  0  0  0  0  0  0  0  0
  130.5590  121.2160   63.5190 F   0  0  0  0  0  0  0  0  0  0  0  0
  129.9620  122.4790   61.8860 F   0  0  0  0  0  0  0  0  0  0  0  0
  131.6670  121.1470   61.6770 F   0  0  0  0  0  0  0  0  0  0  0  0
  131.6410  124.0170   64.0020 C   0  0  0  0  0  0  0  0  0  0  0  0
  130.4830  124.1980   64.8430 C   0  0  0  0  0  0  0  0  0  0  0  0
  129.3690  123.4030   64.7550 N   0  0  0  0  0  0  0  0  0  0  0  0
  127.8400  129.6430   65.8390 C   0  0  0  0  0  0  0  0  0  0  0  0
  127.0490  130.5390   65.1030 C   0  0  0  0  0  0  0  0  0  0  0  0
  127.5590  131.5790   64.3470 O   0  0  0  0  0  0  0  0  0  0  0  0
  128.2550  131.2870   63.1400 C   0  0  0  0  0  0  0  0  0  0  0  0
  125.6550  130.3840   65.1230 C   0  0  0  0  0  0  0  0  0  0  0  0
  124.8690  131.2430   64.3910 O   0  0  0  0  0  0  0  0  0  0  0  0
  124.4530  130.7190   63.1380 C   0  0  0  0  0  0  0  0  0  0  0  0
  123.6159  129.2604   67.8676 H   0  0  0  0  0  0  0  0  0  0  0  0
  122.3140  130.1902   67.0508 H   0  0  0  0  0  0  0  0  0  0  0  0
  122.2707  128.3944   67.0508 H   0  0  0  0  0  0  0  0  0  0  0  0
  125.4080  127.6544   67.1585 H   0  0  0  0  0  0  0  0  0  0  0  0
  128.6565  128.1816   68.1526 H   0  0  0  0  0  0  0  0  0  0  0  0
  127.4612  126.8574   67.7560 H   0  0  0  0  0  0  0  0  0  0  0  0
  129.3610  127.4300   65.6560 H   0  0  0  0  0  0  0  0  0  0  0  0
  136.2207  124.4608   62.8358 H   0  0  0  0  0  0  0  0  0  0  0  0
  135.6419  123.4910   61.4390 H   0  0  0  0  0  0  0  0  0  0  0  0
  135.4389  125.2758   61.4390 H   0  0  0  0  0  0  0  0  0  0  0  0
  133.4909  122.5134   61.5458 H   0  0  0  0  0  0  0  0  0  0  0  0
  128.6410  123.5760   64.0750 H   0  0  0  0  0  0  0  0  0  0  0  0
  129.2330  122.6180   65.3760 H   0  0  0  0  0  0  0  0  0  0  0  0
  128.9351  129.7450   65.8215 H   0  0  0  0  0  0  0  0  0  0  0  0
  129.2451  130.8716   63.3790 H   0  0  0  0  0  0  0  0  0  0  0  0
  127.6814  130.5537   62.5542 H   0  0  0  0  0  0  0  0  0  0  0  0
  128.3763  132.2101   62.5542 H   0  0  0  0  0  0  0  0  0  0  0  0
  123.7768  129.8672   63.3030 H   0  0  0  0  0  0  0  0  0  0  0  0
  123.9266  131.5004   62.5703 H   0  0  0  0  0  0  0  0  0  0  0  0
  125.3335  130.3835   62.5703 H   0  0  0  0  0  0  0  0  0  0  0  0
  1  2  1  0
  2  3  1  0
  3  4  2  0
  4  5  1  0
  5  6  1  0
  6  7  1  0
  7  8  1  0
  8  9  2  0
  8 10  1  0
 10 11  1  0
 11 12  1  0
 12 13  2  0
 13 14  1  0
 14 15  1  0
 14 16  2  0
 16 17  1  0
 17 18  1  0
 18 19  1  0
 18 20  1  0
 18 21  1  0
 17 22  2  0
 22 23  1  0
 23 24  1  0
  5 25  2  0
 25 26  1  0
 26 27  1  0
 27 28  1  0
 26 29  2  0
 29 30  1  0
 30 31  1  0
 29  3  1  0
 23 10  2  0
 22 12  1  0
  1 32  1  0
  1 33  1  0
  1 34  1  0
  4 35  1  0
  6 36  1  0
  6 37  1  0
  7 38  1  0
 15 39  1  0
 15 40  1  0
 15 41  1  0
 16 42  1  0
 24 43  1  0
 24 44  1  0
 25 45  1  0
 28 46  1  0
 28 47  1  0
 28 48  1  0
 31 49  1  0
 31 50  1  0
 31 51  1  0
M  END
>  <Binding energies>  (1) 
[-6.54]

>  <Ligand effiencies>  (1) 
[-0.1923529411764706]

>  <Interactions>  (1) 
["V-A:ALA:541:CB:4892, V-A:GLU:543:CD:4908, V-A:ASP:366:CG:3212, V-A:GLY:453:C:4041, H-A:TYR:484:OH:4347, V-A:GLY:454:CA:4048, V-A:TYR:484:CZ:4346, H-A:ARG:545:NH2:4928, V-A:ILE:369:CD1:3238, H-A:GLU:543:OE1:4909, H-A:ARG:545:NH1:4927, V-A:ARG:545:CZ:4926, H-A:GLY:454:N:4049, V-A:LEU:475:CD1:4257, H-B:GLU:543:OE1:9881, V-B:GLU:543:CG:9879, V-B:ALA:541:CB:9864, V-B:GLU:543:CD:9880, V-A:GLU:543:CG:4907, V-B:HIS:456:CE1:9041, V-A:GLY:453:CA:4043, V-B:GLU:543:CB:9878, H-B:TYR:484:OH:9319, H-B:ARG:545:NH2:9900, H-B:GLY:454:N:9021, V-B:GLY:454:CA:9020, H-B:ARG:545:NH1:9899, H-B:GLU:543:OE2:9882, V-B:ARG:545:CG:9894, H-B:ARG:545:NE:9896, V-B:ARG:545:CD:9895, V-B:GLY:453:C:9013, V-B:GLY:453:CA:9015, V-B:ARG:545:CZ:9898, V-A:LEU:475:CD2:4258, V-A:LEU:475:CG:4256, V-B:ILE:455:C:9023"]

$$$$
4bi_Grossjean_2025
     RDKit          3D

 32 34  0  0  0  0  0  0  0  0999 V2000
  125.7340  128.6230   59.2090 C   0  0  0  0  0  0  0  0  0  0  0  0
  126.3600  128.3280   60.5600 C   0  0  0  0  0  0  0  0  0  0  0  0
  125.9030  128.9550   61.7160 C   0  0  0  0  0  0  0  0  0  0  0  0
  126.4890  128.6690   62.9600 C   0  0  0  0  0  0  0  0  0  0  0  0
  125.9460  129.3780   64.2050 C   0  0  0  0  0  0  0  0  0  0  0  0
  125.5960  128.5320   65.1770 F   0  0  0  0  0  0  0  0  0  0  0  0
  126.8760  130.1930   64.7020 F   0  0  0  0  0  0  0  0  0  0  0  0
  124.8640  130.0880   63.8840 F   0  0  0  0  0  0  0  0  0  0  0  0
  127.5580  127.7240   62.9750 C   0  0  0  0  0  0  0  0  0  0  0  0
  128.3840  127.1950   64.0320 C   0  0  0  0  0  0  0  0  0  0  0  0
  128.2480  127.5780   65.3420 N   0  0  0  0  0  0  0  0  0  0  0  0
  129.3320  126.2510   63.6020 C   0  0  0  0  0  0  0  0  0  0  0  0
  130.3300  125.5310   64.3980 C   0  0  0  0  0  0  0  0  0  0  0  0
  130.1520  124.3530   64.7150 O   0  0  0  0  0  0  0  0  0  0  0  0
  131.4360  126.2430   64.7270 N   0  0  0  0  0  0  0  0  0  0  0  0
  132.5350  125.8100   65.4570 C   0  0  0  0  0  0  0  0  0  0  0  0
  132.7000  126.0770   66.8150 C   0  0  0  0  0  0  0  0  0  0  0  0
  133.8950  125.4850   67.1540 C   0  0  0  0  0  0  0  0  0  0  0  0
  134.4230  124.8920   66.0570 O   0  0  0  0  0  0  0  0  0  0  0  0
  133.5510  125.1050   64.9870 N   0  0  0  0  0  0  0  0  0  0  0  0
  129.2430  126.0070   61.8590 S   0  0  0  0  0  0  0  0  0  0  0  0
  127.9300  127.1530   61.7200 C   0  0  0  0  0  0  0  0  0  0  0  0
  127.3690  127.4270   60.5420 N   0  0  0  0  0  0  0  0  0  0  0  0
  124.7478  129.0877   59.3555 H   0  0  0  0  0  0  0  0  0  0  0  0
  126.3831  129.3100   58.6462 H   0  0  0  0  0  0  0  0  0  0  0  0
  125.6174  127.6851   58.6462 H   0  0  0  0  0  0  0  0  0  0  0  0
  125.0774  129.6793   61.6547 H   0  0  0  0  0  0  0  0  0  0  0  0
  127.4760  127.2640   65.9130 H   0  0  0  0  0  0  0  0  0  0  0  0
  128.9170  128.1950   65.7810 H   0  0  0  0  0  0  0  0  0  0  0  0
  131.4810  127.1980   64.4010 H   0  0  0  0  0  0  0  0  0  0  0  0
  132.0216  126.6394   67.4734 H   0  0  0  0  0  0  0  0  0  0  0  0
  134.3489  125.4923   68.1560 H   0  0  0  0  0  0  0  0  0  0  0  0
  1  2  1  0
  2  3  2  0
  3  4  1  0
  4  5  1  0
  5  6  1  0
  5  7  1  0
  5  8  1  0
  4  9  2  0
  9 10  1  0
 10 11  1  0
 10 12  2  0
 12 13  1  0
 13 14  2  0
 13 15  1  0
 15 16  1  0
 16 17  1  0
 17 18  2  0
 18 19  1  0
 19 20  1  0
 12 21  1  0
 21 22  1  0
 22 23  2  0
 23  2  1  0
 22  9  1  0
 20 16  2  0
  1 24  1  0
  1 25  1  0
  1 26  1  0
  3 27  1  0
 11 28  1  0
 11 29  1  0
 15 30  1  0
 17 31  1  0
 18 32  1  0
M  END
>  <Binding energies>  (1) 
[-5.79]

>  <Ligand effiencies>  (1) 
[-0.2226923076923077]

>  <Interactions>  (1) 
["V-A:GLU:543:CD:4908, V-A:ARG:545:CD:4923, V-A:ARG:545:CG:4922, H-A:TYR:484:OH:4347, H-A:GLU:543:OE2:4910, V-A:TYR:484:CZ:4346, H-A:ARG:545:NH2:4928, H-A:GLU:543:OE1:4909, V-A:ARG:545:CZ:4926, H-A:GLY:454:N:4049, H-A:ARG:545:NE:4924, V-B:GLU:543:CD:9880, V-A:HIS:456:CE1:4069, V-B:ASP:366:CG:8184, V-B:ASP:366:CB:8183, H-B:GLU:543:OE2:9882, V-B:ARG:545:CZ:9898, H-A:ILE:455:N:4054"]

$$$$
4bj_Grossjean_2025
     RDKit          3D

 32 34  0  0  0  0  0  0  0  0999 V2000
  126.7780  134.9640   61.0620 C   0  0  0  0  0  0  0  0  0  0  0  0
  126.3750  133.6600   61.7270 C   0  0  0  0  0  0  0  0  0  0  0  0
  125.3950  132.8440   61.1690 C   0  0  0  0  0  0  0  0  0  0  0  0
  125.0280  131.6430   61.7980 C   0  0  0  0  0  0  0  0  0  0  0  0
  123.9410  130.7790   61.1480 C   0  0  0  0  0  0  0  0  0  0  0  0
  123.3720  131.3630   60.0920 F   0  0  0  0  0  0  0  0  0  0  0  0
  124.4690  129.6280   60.7330 F   0  0  0  0  0  0  0  0  0  0  0  0
  122.9770  130.5280   62.0340 F   0  0  0  0  0  0  0  0  0  0  0  0
  125.7000  131.3100   63.0110 C   0  0  0  0  0  0  0  0  0  0  0  0
  125.5930  130.1940   63.9190 C   0  0  0  0  0  0  0  0  0  0  0  0
  124.7120  129.1610   63.7210 N   0  0  0  0  0  0  0  0  0  0  0  0
  126.4720  130.2560   65.0120 C   0  0  0  0  0  0  0  0  0  0  0  0
  126.6210  129.3080   66.1180 C   0  0  0  0  0  0  0  0  0  0  0  0
  125.6320  128.8490   66.6940 O   0  0  0  0  0  0  0  0  0  0  0  0
  127.8980  128.9780   66.4340 N   0  0  0  0  0  0  0  0  0  0  0  0
  128.3110  128.0990   67.4260 C   0  0  0  0  0  0  0  0  0  0  0  0
  128.2360  126.7860   67.4250 N   0  0  0  0  0  0  0  0  0  0  0  0
  128.7300  126.2710   68.5330 C   0  0  0  0  0  0  0  0  0  0  0  0
  129.2230  127.1780   69.4670 C   0  0  0  0  0  0  0  0  0  0  0  0
  129.0190  128.7910   68.8510 S   0  0  0  0  0  0  0  0  0  0  0  0
  127.4490  131.7210   64.9620 S   0  0  0  0  0  0  0  0  0  0  0  0
  126.6890  132.2320   63.4730 C   0  0  0  0  0  0  0  0  0  0  0  0
  127.0320  133.3720   62.8740 N   0  0  0  0  0  0  0  0  0  0  0  0
  127.0095  135.7129   61.8337 H   0  0  0  0  0  0  0  0  0  0  0  0
  127.6664  134.7967   60.4352 H   0  0  0  0  0  0  0  0  0  0  0  0
  125.9502  135.3271   60.4352 H   0  0  0  0  0  0  0  0  0  0  0  0
  124.9052  133.1415   60.2301 H   0  0  0  0  0  0  0  0  0  0  0  0
  124.5030  128.4890   64.4460 H   0  0  0  0  0  0  0  0  0  0  0  0
  124.2430  129.0330   62.8350 H   0  0  0  0  0  0  0  0  0  0  0  0
  128.6350  129.4050   65.8920 H   0  0  0  0  0  0  0  0  0  0  0  0
  128.7516  125.1855   68.7098 H   0  0  0  0  0  0  0  0  0  0  0  0
  129.6694  126.9165   70.4377 H   0  0  0  0  0  0  0  0  0  0  0  0
  1  2  1  0
  2  3  2  0
  3  4  1  0
  4  5  1  0
  5  6  1  0
  5  7  1  0
  5  8  1  0
  4  9  2  0
  9 10  1  0
 10 11  1  0
 10 12  2  0
 12 13  1  0
 13 14  2  0
 13 15  1  0
 15 16  1  0
 16 17  2  0
 17 18  1  0
 18 19  2  0
 19 20  1  0
 12 21  1  0
 21 22  1  0
 22 23  2  0
 23  2  1  0
 22  9  1  0
 20 16  1  0
  1 24  1  0
  1 25  1  0
  1 26  1  0
  3 27  1  0
 11 28  1  0
 11 29  1  0
 15 30  1  0
 18 31  1  0
 19 32  1  0
M  END
>  <Binding energies>  (1) 
[-5.46]

>  <Ligand effiencies>  (1) 
[-0.21]

>  <Interactions>  (1) 
["V-A:ALA:541:CB:4892, V-A:TYR:539:CD1:4873, V-B:LEU:475:CD1:9229, V-A:GLU:543:CD:4908, H-A:GLU:543:OE1:4909, H-B:ASP:366:OD1:8185, V-A:HIS:456:CE1:4069, V-A:GLU:543:CG:4907, V-B:HIS:456:CE1:9041, V-B:TYR:484:CE2:9317, V-A:GLU:543:CB:4906, V-B:GLU:543:CB:9878, H-B:ASP:366:OD2:8186, H-B:TYR:484:OH:9319, V-B:ILE:369:CG2:8208, V-B:ILE:369:CD1:8210, V-B:ILE:369:CG1:8209, V-B:ASP:366:CG:8184, V-B:ILE:369:CB:8207, V-B:ASP:366:CB:8183, H-B:GLU:543:OE2:9882, V-A:GLU:543:C:4902, H-B:ARG:545:NE:9896, V-B:GLY:453:CA:9015, V-B:ARG:545:CZ:9898, V-B:ASP:366:CA:8181"]

$$$$
4bk_Grossjean_2025
     RDKit          3D

 50 51  0  0  0  0  0  0  0  0999 V2000
  133.5660  124.7530   63.0180 C   0  0  0  0  0  0  0  0  0  0  0  0
  133.8550  124.8110   64.4060 O   0  0  0  0  0  0  0  0  0  0  0  0
  132.8550  125.4770   65.1650 C   0  0  0  0  0  0  0  0  0  0  0  0
  133.4230  125.8590   66.5370 C   0  0  0  0  0  0  0  0  0  0  0  0
  132.3660  126.2970   67.3810 O   0  0  0  0  0  0  0  0  0  0  0  0
  131.0750  126.1610   66.8010 C   0  0  0  0  0  0  0  0  0  0  0  0
  130.0100  126.5620   67.8300 C   0  0  0  0  0  0  0  0  0  0  0  0
  129.9230  127.9790   67.8890 O   0  0  0  0  0  0  0  0  0  0  0  0
  128.6060  128.4660   68.1180 C   0  0  0  0  0  0  0  0  0  0  0  0
  127.6720  127.9500   67.0110 C   0  0  0  0  0  0  0  0  0  0  0  0
  127.3810  128.9450   65.9770 N   0  0  0  0  0  0  0  0  0  0  0  0
  126.1470  129.3330   65.5940 C   0  0  0  0  0  0  0  0  0  0  0  0
  125.1230  128.8840   66.1120 O   0  0  0  0  0  0  0  0  0  0  0  0
  126.0890  130.3330   64.5270 C   0  0  0  0  0  0  0  0  0  0  0  0
  126.9400  131.8650   64.7040 S   0  0  0  0  0  0  0  0  0  0  0  0
  126.4150  132.3900   63.1220 C   0  0  0  0  0  0  0  0  0  0  0  0
  126.7620  133.5800   62.6330 N   0  0  0  0  0  0  0  0  0  0  0  0
  126.2970  133.8740   61.3970 C   0  0  0  0  0  0  0  0  0  0  0  0
  126.7070  135.2330   60.8600 C   0  0  0  0  0  0  0  0  0  0  0  0
  125.4990  133.0150   60.6460 C   0  0  0  0  0  0  0  0  0  0  0  0
  125.1280  131.7610   61.1550 C   0  0  0  0  0  0  0  0  0  0  0  0
  124.2470  130.8510   60.2930 C   0  0  0  0  0  0  0  0  0  0  0  0
  123.0270  130.6690   60.8050 F   0  0  0  0  0  0  0  0  0  0  0  0
  124.0960  131.3860   59.0820 F   0  0  0  0  0  0  0  0  0  0  0  0
  124.8140  129.6510   60.1770 F   0  0  0  0  0  0  0  0  0  0  0  0
  125.6040  131.4180   62.4570 C   0  0  0  0  0  0  0  0  0  0  0  0
  125.4400  130.2510   63.2860 C   0  0  0  0  0  0  0  0  0  0  0  0
  124.7100  129.1580   62.8930 N   0  0  0  0  0  0  0  0  0  0  0  0
  132.4967  124.5384   62.8748 H   0  0  0  0  0  0  0  0  0  0  0  0
  133.8119  125.7184   62.5516 H   0  0  0  0  0  0  0  0  0  0  0  0
  134.1654  123.9572   62.5516 H   0  0  0  0  0  0  0  0  0  0  0  0
  132.5367  126.3863   64.6340 H   0  0  0  0  0  0  0  0  0  0  0  0
  131.9915  124.8090   65.2992 H   0  0  0  0  0  0  0  0  0  0  0  0
  133.9136  124.9836   66.9876 H   0  0  0  0  0  0  0  0  0  0  0  0
  134.1574  126.6692   66.4177 H   0  0  0  0  0  0  0  0  0  0  0  0
  130.9980  126.8142   65.9193 H   0  0  0  0  0  0  0  0  0  0  0  0
  130.9169  125.1159   66.4964 H   0  0  0  0  0  0  0  0  0  0  0  0
  129.0362  126.1463   67.5318 H   0  0  0  0  0  0  0  0  0  0  0  0
  130.2872  126.1687   68.8192 H   0  0  0  0  0  0  0  0  0  0  0  0
  128.2480  128.1108   69.0956 H   0  0  0  0  0  0  0  0  0  0  0  0
  128.6139  129.5659   68.1095 H   0  0  0  0  0  0  0  0  0  0  0  0
  128.1469  127.0806   66.5329 H   0  0  0  0  0  0  0  0  0  0  0  0
  126.7154  127.6941   67.4900 H   0  0  0  0  0  0  0  0  0  0  0  0
  128.1790  129.3510   65.5130 H   0  0  0  0  0  0  0  0  0  0  0  0
  126.9120  135.9126   61.7003 H   0  0  0  0  0  0  0  0  0  0  0  0
  127.6129  135.1263   60.2453 H   0  0  0  0  0  0  0  0  0  0  0  0
  125.8932  135.6451   60.2453 H   0  0  0  0  0  0  0  0  0  0  0  0
  125.1569  133.3216   59.6465 H   0  0  0  0  0  0  0  0  0  0  0  0
  125.0770  128.4740   62.2460 H   0  0  0  0  0  0  0  0  0  0  0  0
  123.7760  128.9970   63.2430 H   0  0  0  0  0  0  0  0  0  0  0  0
  1  2  1  0
  2  3  1  0
  3  4  1  0
  4  5  1  0
  5  6  1  0
  6  7  1  0
  7  8  1  0
  8  9  1  0
  9 10  1  0
 10 11  1  0
 11 12  1  0
 12 13  2  0
 12 14  1  0
 14 15  1  0
 15 16  1  0
 16 17  2  0
 17 18  1  0
 18 19  1  0
 18 20  2  0
 20 21  1  0
 21 22  1  0
 22 23  1  0
 22 24  1  0
 22 25  1  0
 21 26  2  0
 26 27  1  0
 27 28  1  0
 27 14  2  0
 26 16  1  0
  1 29  1  0
  1 30  1  0
  1 31  1  0
  3 32  1  0
  3 33  1  0
  4 34  1  0
  4 35  1  0
  6 36  1  0
  6 37  1  0
  7 38  1  0
  7 39  1  0
  9 40  1  0
  9 41  1  0
 10 42  1  0
 10 43  1  0
 11 44  1  0
 19 45  1  0
 19 46  1  0
 19 47  1  0
 20 48  1  0
 28 49  1  0
 28 50  1  0
M  END
>  <Binding energies>  (1) 
[-5.47]

>  <Ligand effiencies>  (1) 
[-0.1764516129032258]

>  <Interactions>  (1) 
["V-A:ALA:541:CB:4892, V-A:TYR:539:CE1:4875, V-A:TYR:539:CD1:4873, V-B:LEU:475:CD1:9229, V-A:ARG:545:CD:4923, V-A:ARG:545:CG:4922, H-A:TYR:484:OH:4347, H-A:ARG:545:NH2:4928, H-A:GLU:543:OE1:4909, V-A:ARG:545:CZ:4926, H-A:GLY:454:N:4049, H-B:ASP:366:OD1:8185, V-A:HIS:456:CE1:4069, V-B:HIS:456:CE1:9041, V-B:TYR:484:CE2:9317, V-A:GLU:543:CB:4906, H-B:ASP:366:OD2:8186, H-B:TYR:484:OH:9319, H-B:ARG:545:NH2:9900, V-B:ILE:369:CG2:8208, V-B:ILE:369:CD1:8210, V-B:ILE:369:CG1:8209, V-B:ASP:366:CG:8184, V-B:ILE:369:CB:8207, V-B:ASP:366:CB:8183, H-B:ARG:545:NE:9896, V-B:ARG:545:CZ:9898, V-B:ASP:366:CA:8181"]

$$$$
4ca_Grossjean_2025
     RDKit          3D

 52 55  0  0  0  0  0  0  0  0999 V2000
  125.7360  136.4570   60.1970 C   0  0  0  0  0  0  0  0  0  0  0  0
  125.8970  135.1470   60.9740 C   0  0  0  0  0  0  0  0  0  0  0  0
  124.7640  134.3200   60.7460 O   0  0  0  0  0  0  0  0  0  0  0  0
  124.2580  133.5350   61.7320 C   0  0  0  0  0  0  0  0  0  0  0  0
  123.4460  133.9370   62.5720 O   0  0  0  0  0  0  0  0  0  0  0  0
  124.7820  132.1290   61.6980 C   0  0  0  0  0  0  0  0  0  0  0  0
  125.4960  131.6920   60.5740 C   0  0  0  0  0  0  0  0  0  0  0  0
  125.9980  130.3950   60.5150 C   0  0  0  0  0  0  0  0  0  0  0  0
  125.7910  129.5070   61.5700 C   0  0  0  0  0  0  0  0  0  0  0  0
  126.3490  128.2240   61.4090 N   0  0  0  0  0  0  0  0  0  0  0  0
  126.7710  127.3320   62.3390 C   0  0  0  0  0  0  0  0  0  0  0  0
  126.6790  127.5060   63.5540 O   0  0  0  0  0  0  0  0  0  0  0  0
  127.3470  126.0960   61.8040 C   0  0  0  0  0  0  0  0  0  0  0  0
  128.6300  125.2650   62.6810 S   0  0  0  0  0  0  0  0  0  0  0  0
  128.6850  123.9940   61.4830 C   0  0  0  0  0  0  0  0  0  0  0  0
  129.5310  122.9720   61.5950 N   0  0  0  0  0  0  0  0  0  0  0  0
  129.4920  122.0240   60.6240 C   0  0  0  0  0  0  0  0  0  0  0  0
  130.4510  120.8800   60.7830 C   0  0  0  0  0  0  0  0  0  0  0  0
  130.0420  119.6760   61.3800 C   0  0  0  0  0  0  0  0  0  0  0  0
  130.9280  118.6140   61.5360 C   0  0  0  0  0  0  0  0  0  0  0  0
  132.2420  118.7400   61.0960 C   0  0  0  0  0  0  0  0  0  0  0  0
  132.6740  119.9210   60.5040 C   0  0  0  0  0  0  0  0  0  0  0  0
  131.7850  120.9820   60.3500 C   0  0  0  0  0  0  0  0  0  0  0  0
  128.6200  122.1180   59.5330 C   0  0  0  0  0  0  0  0  0  0  0  0
  127.7280  123.1940   59.4040 C   0  0  0  0  0  0  0  0  0  0  0  0
  126.7980  123.2320   58.1860 C   0  0  0  0  0  0  0  0  0  0  0  0
  126.9960  122.2160   57.3440 F   0  0  0  0  0  0  0  0  0  0  0  0
  125.5280  123.1780   58.5850 F   0  0  0  0  0  0  0  0  0  0  0  0
  126.9970  124.3590   57.5020 F   0  0  0  0  0  0  0  0  0  0  0  0
  127.7490  124.1850   60.4270 C   0  0  0  0  0  0  0  0  0  0  0  0
  126.9940  125.3960   60.6380 C   0  0  0  0  0  0  0  0  0  0  0  0
  126.0200  125.8230   59.7720 N   0  0  0  0  0  0  0  0  0  0  0  0
  125.0810  129.9360   62.7010 C   0  0  0  0  0  0  0  0  0  0  0  0
  124.5820  131.2350   62.7600 C   0  0  0  0  0  0  0  0  0  0  0  0
  125.6333  137.2928   60.9047 H   0  0  0  0  0  0  0  0  0  0  0  0
  126.6210  136.6191   59.5641 H   0  0  0  0  0  0  0  0  0  0  0  0
  124.8381  136.4000   59.5641 H   0  0  0  0  0  0  0  0  0  0  0  0
  126.8049  134.6276   60.6334 H   0  0  0  0  0  0  0  0  0  0  0  0
  125.9817  135.3656   62.0487 H   0  0  0  0  0  0  0  0  0  0  0  0
  125.6611  132.3796   59.7314 H   0  0  0  0  0  0  0  0  0  0  0  0
  126.5624  130.0680   59.6292 H   0  0  0  0  0  0  0  0  0  0  0  0
  126.4330  127.9290   60.4470 H   0  0  0  0  0  0  0  0  0  0  0  0
  129.0045  119.5708   61.7299 H   0  0  0  0  0  0  0  0  0  0  0  0
  130.5906  117.6782   62.0055 H   0  0  0  0  0  0  0  0  0  0  0  0
  132.9425  117.9006   61.2173 H   0  0  0  0  0  0  0  0  0  0  0  0
  133.7139  120.0173   60.1585 H   0  0  0  0  0  0  0  0  0  0  0  0
  132.1320  121.9150   59.8820 H   0  0  0  0  0  0  0  0  0  0  0  0
  128.6341  121.3336   58.7620 H   0  0  0  0  0  0  0  0  0  0  0  0
  125.0540  125.5460   59.8760 H   0  0  0  0  0  0  0  0  0  0  0  0
  126.2360  126.4350   58.9960 H   0  0  0  0  0  0  0  0  0  0  0  0
  124.9182  129.2460   63.5420 H   0  0  0  0  0  0  0  0  0  0  0  0
  124.0247  131.5635   63.6497 H   0  0  0  0  0  0  0  0  0  0  0  0
  1  2  1  0
  2  3  1  0
  3  4  1  0
  4  5  2  0
  4  6  1  0
  6  7  2  0
  7  8  1  0
  8  9  2  0
  9 10  1  0
 10 11  1  0
 11 12  2  0
 11 13  1  0
 13 14  1  0
 14 15  1  0
 15 16  2  0
 16 17  1  0
 17 18  1  0
 18 19  2  0
 19 20  1  0
 20 21  2  0
 21 22  1  0
 22 23  2  0
 17 24  2  0
 24 25  1  0
 25 26  1  0
 26 27  1  0
 26 28  1  0
 26 29  1  0
 25 30  2  0
 30 31  1  0
 31 32  1  0
  9 33  1  0
 33 34  2  0
 34  6  1  0
 31 13  2  0
 30 15  1  0
 23 18  1  0
  1 35  1  0
  1 36  1  0
  1 37  1  0
  2 38  1  0
  2 39  1  0
  7 40  1  0
  8 41  1  0
 10 42  1  0
 19 43  1  0
 20 44  1  0
 21 45  1  0
 22 46  1  0
 23 47  1  0
 24 48  1  0
 32 49  1  0
 32 50  1  0
 33 51  1  0
 34 52  1  0
M  END
>  <Binding energies>  (1) 
[-7.04]

>  <Ligand effiencies>  (1) 
[-0.19027027027027027]

>  <Interactions>  (1) 
["V-A:TYR:539:CE1:4875, V-A:TYR:539:CD1:4873, V-B:LEU:475:CD1:9229, V-A:ILE:369:CG2:3236, V-B:TYR:539:CD2:9846, V-B:TYR:539:CE2:9848, V-A:LEU:475:CD1:4257, V-A:PRO:482:CB:4325, V-A:PRO:482:CG:4326, V-B:PRO:540:CD:9859, V-B:PRO:540:CA:9855, H-B:ASP:366:OD1:8185, V-B:ALA:541:CB:9864, V-B:MET:535:CE:9807, V-B:PRO:540:N:9856, V-B:GLU:543:CD:9880, V-B:PRO:540:CB:9857, V-B:TYR:539:C:9839, V-B:ALA:541:CA:9862, H-B:ARG:545:NH2:9900, V-A:TYR:539:CB:4871, V-B:ILE:369:CG2:8208, V-B:ILE:369:CD1:8210, V-B:ASP:366:CG:8184, V-B:LEU:373:CD1:8251, V-B:ASP:366:CB:8183, V-B:SER:385:CB:8380, V-B:PRO:540:C:9853, V-A:TYR:539:CG:4872, H-B:TYR:531:OH:9767, H-B:SER:385:OG:8381"]

$$$$
4cb_Grossjean_2025
     RDKit          3D

 49 52  0  0  0  0  0  0  0  0999 V2000
  130.8600  117.4880   60.1690 C   0  0  0  0  0  0  0  0  0  0  0  0
  132.0670  117.9980   60.7180 O   0  0  0  0  0  0  0  0  0  0  0  0
  132.5270  119.2280   60.3730 C   0  0  0  0  0  0  0  0  0  0  0  0
  133.2210  119.4400   59.3740 O   0  0  0  0  0  0  0  0  0  0  0  0
  132.1060  120.3080   61.3290 C   0  0  0  0  0  0  0  0  0  0  0  0
  130.8400  120.2380   61.9260 C   0  0  0  0  0  0  0  0  0  0  0  0
  130.4240  121.2190   62.8210 C   0  0  0  0  0  0  0  0  0  0  0  0
  131.2600  122.2930   63.1330 C   0  0  0  0  0  0  0  0  0  0  0  0
  130.7440  123.2180   64.0610 N   0  0  0  0  0  0  0  0  0  0  0  0
  129.9940  124.3290   63.8600 C   0  0  0  0  0  0  0  0  0  0  0  0
  129.5810  124.6960   62.7590 O   0  0  0  0  0  0  0  0  0  0  0  0
  129.6680  125.0900   65.0690 C   0  0  0  0  0  0  0  0  0  0  0  0
  130.1170  124.4690   66.6560 S   0  0  0  0  0  0  0  0  0  0  0  0
  129.4610  125.8830   67.4460 C   0  0  0  0  0  0  0  0  0  0  0  0
  129.5030  126.0230   68.7690 N   0  0  0  0  0  0  0  0  0  0  0  0
  128.9770  127.1620   69.2910 C   0  0  0  0  0  0  0  0  0  0  0  0
  129.0440  127.2930   70.7850 C   0  0  0  0  0  0  0  0  0  0  0  0
  128.6640  126.2270   71.6160 C   0  0  0  0  0  0  0  0  0  0  0  0
  128.7200  126.3430   73.0030 C   0  0  0  0  0  0  0  0  0  0  0  0
  129.1580  127.5310   73.5800 C   0  0  0  0  0  0  0  0  0  0  0  0
  129.5370  128.6040   72.7790 C   0  0  0  0  0  0  0  0  0  0  0  0
  129.4780  128.4840   71.3930 C   0  0  0  0  0  0  0  0  0  0  0  0
  128.3930  128.1440   68.4830 C   0  0  0  0  0  0  0  0  0  0  0  0
  128.3410  128.0050   67.0880 C   0  0  0  0  0  0  0  0  0  0  0  0
  127.6880  129.1210   66.2620 C   0  0  0  0  0  0  0  0  0  0  0  0
  128.2190  129.2480   65.0440 F   0  0  0  0  0  0  0  0  0  0  0  0
  126.3900  128.8640   66.1060 F   0  0  0  0  0  0  0  0  0  0  0  0
  127.8350  130.2890   66.8860 F   0  0  0  0  0  0  0  0  0  0  0  0
  128.9040  126.8220   66.5290 C   0  0  0  0  0  0  0  0  0  0  0  0
  129.0420  126.3430   65.1740 C   0  0  0  0  0  0  0  0  0  0  0  0
  128.5970  127.0540   64.0890 N   0  0  0  0  0  0  0  0  0  0  0  0
  132.5300  122.3690   62.5420 C   0  0  0  0  0  0  0  0  0  0  0  0
  132.9450  121.3860   61.6480 C   0  0  0  0  0  0  0  0  0  0  0  0
  130.1793  117.2004   60.9838 H   0  0  0  0  0  0  0  0  0  0  0  0
  130.3835  118.2617   59.5490 H   0  0  0  0  0  0  0  0  0  0  0  0
  131.0826  116.6070   59.5490 H   0  0  0  0  0  0  0  0  0  0  0  0
  130.1692  119.4002   61.6850 H   0  0  0  0  0  0  0  0  0  0  0  0
  129.4296  121.1479   63.2859 H   0  0  0  0  0  0  0  0  0  0  0  0
  130.9680  123.0060   65.0220 H   0  0  0  0  0  0  0  0  0  0  0  0
  128.3167  125.2858   71.1648 H   0  0  0  0  0  0  0  0  0  0  0  0
  128.4190  125.4983   73.6400 H   0  0  0  0  0  0  0  0  0  0  0  0
  129.2049  127.6225   74.6752 H   0  0  0  0  0  0  0  0  0  0  0  0
  129.8815  129.5422   73.2384 H   0  0  0  0  0  0  0  0  0  0  0  0
  129.7759  129.3353   70.7633 H   0  0  0  0  0  0  0  0  0  0  0  0
  127.9660  129.0432   68.9512 H   0  0  0  0  0  0  0  0  0  0  0  0
  129.1800  127.7310   63.6180 H   0  0  0  0  0  0  0  0  0  0  0  0
  127.6660  126.9210   63.7190 H   0  0  0  0  0  0  0  0  0  0  0  0
  133.1994  123.2072   62.7856 H   0  0  0  0  0  0  0  0  0  0  0  0
  133.9413  121.4553   61.1869 H   0  0  0  0  0  0  0  0  0  0  0  0
  1  2  1  0
  2  3  1  0
  3  4  2  0
  3  5  1  0
  5  6  2  0
  6  7  1  0
  7  8  2  0
  8  9  1  0
  9 10  1  0
 10 11  2  0
 10 12  1  0
 12 13  1  0
 13 14  1  0
 14 15  2  0
 15 16  1  0
 16 17  1  0
 17 18  2  0
 18 19  1  0
 19 20  2  0
 20 21  1  0
 21 22  2  0
 16 23  2  0
 23 24  1  0
 24 25  1  0
 25 26  1  0
 25 27  1  0
 25 28  1  0
 24 29  2  0
 29 30  1  0
 30 31  1  0
  8 32  1  0
 32 33  2  0
 33  5  1  0
 30 12  2  0
 29 14  1  0
 22 17  1  0
  1 34  1  0
  1 35  1  0
  1 36  1  0
  6 37  1  0
  7 38  1  0
  9 39  1  0
 18 40  1  0
 19 41  1  0
 20 42  1  0
 21 43  1  0
 22 44  1  0
 23 45  1  0
 31 46  1  0
 31 47  1  0
 32 48  1  0
 33 49  1  0
M  END
>  <Binding energies>  (1) 
[-6.89]

>  <Ligand effiencies>  (1) 
[-0.1913888888888889]

>  <Interactions>  (1) 
["V-A:GLU:543:CD:4908, H-A:TYR:484:OH:4347, H-A:GLU:543:OE2:4910, V-A:TYR:484:CZ:4346, H-A:GLU:543:OE1:4909, V-B:TYR:539:CD2:9846, H-A:SER:385:OG:3409, V-A:LEU:475:CD1:4257, V-A:HIS:383:CE1:3392, H-A:HIS:383:NE2:3393, V-A:PRO:482:CG:4326, V-B:GLU:543:CG:9879, V-B:ALA:541:CB:9864, V-B:GLU:543:CD:9880, V-A:TYR:484:CE2:4345, V-A:HIS:456:CE1:4069, V-A:GLU:543:CG:4907, V-B:HIS:456:CE1:9041, V-B:TYR:484:CE2:9317, V-A:GLU:543:CB:4906, V-B:GLU:543:CB:9878, H-B:GLU:543:OE2:9882, V-B:HIS:456:CD2:9039, V-B:TYR:484:CZ:9318, V-B:TYR:539:CB:9843"]

$$$$
4cc_Grossjean_2025
     RDKit          3D

 47 50  0  0  0  0  0  0  0  0999 V2000
  134.1160  121.8160   62.0480 C   0  0  0  0  0  0  0  0  0  0  0  0
  134.4060  122.9650   62.8370 O   0  0  0  0  0  0  0  0  0  0  0  0
  133.4660  123.9740   62.9300 C   0  0  0  0  0  0  0  0  0  0  0  0
  132.9310  124.4390   61.7290 C   0  0  0  0  0  0  0  0  0  0  0  0
  131.9760  125.4520   61.7230 C   0  0  0  0  0  0  0  0  0  0  0  0
  131.5500  126.0230   62.9240 C   0  0  0  0  0  0  0  0  0  0  0  0
  130.5710  127.0290   62.8200 N   0  0  0  0  0  0  0  0  0  0  0  0
  129.3960  127.0140   62.1450 C   0  0  0  0  0  0  0  0  0  0  0  0
  128.9740  126.0410   61.5180 O   0  0  0  0  0  0  0  0  0  0  0  0
  128.6220  128.2580   62.2020 C   0  0  0  0  0  0  0  0  0  0  0  0
  128.9770  129.5770   61.0880 S   0  0  0  0  0  0  0  0  0  0  0  0
  127.7070  130.5610   61.7780 C   0  0  0  0  0  0  0  0  0  0  0  0
  127.4520  131.7850   61.3210 N   0  0  0  0  0  0  0  0  0  0  0  0
  126.4390  132.4690   61.9130 C   0  0  0  0  0  0  0  0  0  0  0  0
  126.1760  133.8470   61.3790 C   0  0  0  0  0  0  0  0  0  0  0  0
  124.9690  134.1460   60.7250 C   0  0  0  0  0  0  0  0  0  0  0  0
  124.7190  135.4220   60.2260 C   0  0  0  0  0  0  0  0  0  0  0  0
  125.6750  136.4200   60.3740 C   0  0  0  0  0  0  0  0  0  0  0  0
  126.8810  136.1510   61.0140 C   0  0  0  0  0  0  0  0  0  0  0  0
  127.1270  134.8740   61.5110 C   0  0  0  0  0  0  0  0  0  0  0  0
  125.7000  131.9290   62.9700 C   0  0  0  0  0  0  0  0  0  0  0  0
  125.9630  130.6390   63.4600 C   0  0  0  0  0  0  0  0  0  0  0  0
  125.1090  130.1080   64.6170 C   0  0  0  0  0  0  0  0  0  0  0  0
  125.8220  129.4490   65.5340 F   0  0  0  0  0  0  0  0  0  0  0  0
  124.5050  131.1220   65.2350 F   0  0  0  0  0  0  0  0  0  0  0  0
  124.1880  129.2670   64.1480 F   0  0  0  0  0  0  0  0  0  0  0  0
  127.0170  129.9090   62.8410 C   0  0  0  0  0  0  0  0  0  0  0  0
  127.5650  128.5930   63.0640 C   0  0  0  0  0  0  0  0  0  0  0  0
  127.0900  127.7470   64.0340 N   0  0  0  0  0  0  0  0  0  0  0  0
  132.0740  125.5510   64.1370 C   0  0  0  0  0  0  0  0  0  0  0  0
  133.0270  124.5380   64.1380 C   0  0  0  0  0  0  0  0  0  0  0  0
  133.9007  120.9628   62.7080 H   0  0  0  0  0  0  0  0  0  0  0  0
  133.2408  122.0185   61.4132 H   0  0  0  0  0  0  0  0  0  0  0  0
  134.9825  121.5789   61.4132 H   0  0  0  0  0  0  0  0  0  0  0  0
  133.2668  124.0012   60.7774 H   0  0  0  0  0  0  0  0  0  0  0  0
  131.5557  125.8037   60.7692 H   0  0  0  0  0  0  0  0  0  0  0  0
  130.7710  127.8630   63.3500 H   0  0  0  0  0  0  0  0  0  0  0  0
  124.2092  133.3596   60.6052 H   0  0  0  0  0  0  0  0  0  0  0  0
  123.7685  135.6392   59.7167 H   0  0  0  0  0  0  0  0  0  0  0  0
  125.4770  137.4288   59.9828 H   0  0  0  0  0  0  0  0  0  0  0  0
  127.6359  136.9431   61.1266 H   0  0  0  0  0  0  0  0  0  0  0  0
  128.0818  134.6650   62.0156 H   0  0  0  0  0  0  0  0  0  0  0  0
  124.8969  132.5260   63.4268 H   0  0  0  0  0  0  0  0  0  0  0  0
  126.1500  127.3770   64.0060 H   0  0  0  0  0  0  0  0  0  0  0  0
  127.6660  127.4660   64.8140 H   0  0  0  0  0  0  0  0  0  0  0  0
  131.7305  125.9828   65.0886 H   0  0  0  0  0  0  0  0  0  0  0  0
  133.4393  124.1765   65.0916 H   0  0  0  0  0  0  0  0  0  0  0  0
  1  2  1  0
  2  3  1  0
  3  4  2  0
  4  5  1  0
  5  6  2  0
  6  7  1  0
  7  8  1  0
  8  9  2  0
  8 10  1  0
 10 11  1  0
 11 12  1  0
 12 13  2  0
 13 14  1  0
 14 15  1  0
 15 16  2  0
 16 17  1  0
 17 18  2  0
 18 19  1  0
 19 20  2  0
 14 21  2  0
 21 22  1  0
 22 23  1  0
 23 24  1  0
 23 25  1  0
 23 26  1  0
 22 27  2  0
 27 28  1  0
 28 29  1  0
  6 30  1  0
 30 31  2  0
 31  3  1  0
 28 10  2  0
 27 12  1  0
 20 15  1  0
  1 32  1  0
  1 33  1  0
  1 34  1  0
  4 35  1  0
  5 36  1  0
  7 37  1  0
 16 38  1  0
 17 39  1  0
 18 40  1  0
 19 41  1  0
 20 42  1  0
 21 43  1  0
 29 44  1  0
 29 45  1  0
 30 46  1  0
 31 47  1  0
M  END
>  <Binding energies>  (1) 
[-6.82]

>  <Ligand effiencies>  (1) 
[-0.20058823529411765]

>  <Interactions>  (1) 
["V-A:ALA:541:CB:4892, V-A:TYR:539:CE1:4875, V-A:TYR:539:CD1:4873, V-B:LEU:475:CD1:9229, V-A:GLU:543:CD:4908, V-A:ASP:366:CG:3212, V-A:GLY:454:CA:4048, H-A:GLU:543:OE2:4910, V-A:ILE:369:CD1:3238, H-A:GLU:543:OE1:4909, V-A:ARG:545:CZ:4926, H-A:GLY:454:N:4049, V-A:LEU:475:CD1:4257, H-B:GLU:543:OE1:9881, V-B:GLU:543:CD:9880, V-B:PRO:482:CB:9297, V-A:TYR:539:CB:4871, V-B:GLY:454:CA:9020, V-B:ILE:369:CG2:8208, V-B:PRO:482:CG:9298, V-B:LEU:373:CD1:8251, H-B:GLU:543:OE2:9882, V-B:SER:385:CB:8380, V-B:GLY:454:C:9018, V-B:GLY:453:C:9013, V-B:ARG:545:CZ:9898, V-B:TYR:484:CZ:9318"]

$$$$
4cd_Grossjean_2025
     RDKit          3D

 43 46  0  0  0  0  0  0  0  0999 V2000
  126.7630  127.9420   63.3070 N   0  0  0  0  0  0  0  0  0  0  0  0
  126.6060  129.2410   63.7200 C   0  0  0  0  0  0  0  0  0  0  0  0
  126.5970  129.6230   65.0710 C   0  0  0  0  0  0  0  0  0  0  0  0
  126.7230  128.7750   66.2610 C   0  0  0  0  0  0  0  0  0  0  0  0
  125.7320  128.2440   66.7610 O   0  0  0  0  0  0  0  0  0  0  0  0
  127.9840  128.6270   66.7370 N   0  0  0  0  0  0  0  0  0  0  0  0
  128.4370  127.9330   67.8740 C   0  0  0  0  0  0  0  0  0  0  0  0
  129.0060  128.7160   68.8830 C   0  0  0  0  0  0  0  0  0  0  0  0
  129.4720  128.1240   70.0530 C   0  0  0  0  0  0  0  0  0  0  0  0
  129.3620  126.7460   70.2190 C   0  0  0  0  0  0  0  0  0  0  0  0
  128.7850  125.9550   69.2290 C   0  0  0  0  0  0  0  0  0  0  0  0
  128.3180  126.5450   68.0560 C   0  0  0  0  0  0  0  0  0  0  0  0
  126.3870  131.3650   65.2390 S   0  0  0  0  0  0  0  0  0  0  0  0
  126.3040  131.5670   63.5050 C   0  0  0  0  0  0  0  0  0  0  0  0
  126.1330  132.7660   62.9530 N   0  0  0  0  0  0  0  0  0  0  0  0
  126.0680  132.8210   61.5970 C   0  0  0  0  0  0  0  0  0  0  0  0
  125.8720  134.1860   61.0030 C   0  0  0  0  0  0  0  0  0  0  0  0
  126.9180  135.1240   60.9960 C   0  0  0  0  0  0  0  0  0  0  0  0
  126.7440  136.3910   60.4470 C   0  0  0  0  0  0  0  0  0  0  0  0
  125.5160  136.7400   59.8940 C   0  0  0  0  0  0  0  0  0  0  0  0
  124.4650  135.8300   59.8850 C   0  0  0  0  0  0  0  0  0  0  0  0
  124.6440  134.5630   60.4330 C   0  0  0  0  0  0  0  0  0  0  0  0
  126.1940  131.6780   60.8030 C   0  0  0  0  0  0  0  0  0  0  0  0
  126.3780  130.4090   61.3750 C   0  0  0  0  0  0  0  0  0  0  0  0
  126.5050  129.1960   60.4460 C   0  0  0  0  0  0  0  0  0  0  0  0
  127.7430  128.6980   60.3990 F   0  0  0  0  0  0  0  0  0  0  0  0
  125.6990  128.2200   60.8640 F   0  0  0  0  0  0  0  0  0  0  0  0
  126.1690  129.5430   59.2040 F   0  0  0  0  0  0  0  0  0  0  0  0
  126.4360  130.3360   62.7960 C   0  0  0  0  0  0  0  0  0  0  0  0
  126.6060  127.1620   63.9290 H   0  0  0  0  0  0  0  0  0  0  0  0
  127.0390  127.7210   62.3600 H   0  0  0  0  0  0  0  0  0  0  0  0
  128.7170  129.0630   66.1970 H   0  0  0  0  0  0  0  0  0  0  0  0
  129.0857  129.8052   68.7513 H   0  0  0  0  0  0  0  0  0  0  0  0
  129.9249  128.7415   70.8426 H   0  0  0  0  0  0  0  0  0  0  0  0
  129.7348  126.2774   71.1417 H   0  0  0  0  0  0  0  0  0  0  0  0
  128.6981  124.8678   69.3723 H   0  0  0  0  0  0  0  0  0  0  0  0
  127.8567  125.9246   67.2735 H   0  0  0  0  0  0  0  0  0  0  0  0
  127.8908  134.8524   61.4318 H   0  0  0  0  0  0  0  0  0  0  0  0
  127.5737  137.1132   60.4503 H   0  0  0  0  0  0  0  0  0  0  0  0
  125.3759  137.7416   59.4614 H   0  0  0  0  0  0  0  0  0  0  0  0
  123.4958  136.1101   59.4466 H   0  0  0  0  0  0  0  0  0  0  0  0
  123.8106  133.8451   60.4197 H   0  0  0  0  0  0  0  0  0  0  0  0
  126.1481  131.7744   59.7082 H   0  0  0  0  0  0  0  0  0  0  0  0
  1  2  1  0
  2  3  2  0
  3  4  1  0
  4  5  2  0
  4  6  1  0
  6  7  1  0
  7  8  2  0
  8  9  1  0
  9 10  2  0
 10 11  1  0
 11 12  2  0
  3 13  1  0
 13 14  1  0
 14 15  2  0
 15 16  1  0
 16 17  1  0
 17 18  2  0
 18 19  1  0
 19 20  2  0
 20 21  1  0
 21 22  2  0
 16 23  2  0
 23 24  1  0
 24 25  1  0
 25 26  1  0
 25 27  1  0
 25 28  1  0
 24 29  2  0
 29  2  1  0
 12  7  1  0
 29 14  1  0
 22 17  1  0
  1 30  1  0
  1 31  1  0
  6 32  1  0
  8 33  1  0
  9 34  1  0
 10 35  1  0
 11 36  1  0
 12 37  1  0
 18 38  1  0
 19 39  1  0
 20 40  1  0
 21 41  1  0
 22 42  1  0
 23 43  1  0
M  END
>  <Binding energies>  (1) 
[-7.32]

>  <Ligand effiencies>  (1) 
[-0.22875]

>  <Interactions>  (1) 
["V-A:TYR:539:CE1:4875, V-A:TYR:539:CD1:4873, V-B:LEU:475:CD1:9229, V-A:GLU:543:CD:4908, V-A:TYR:539:C:4867, H-A:GLU:543:OE1:4909, H-B:GLU:543:OE1:9881, V-A:HIS:456:CE1:4069, V-A:GLU:543:CG:4907, V-B:HIS:456:CE1:9041, V-B:TYR:484:CE2:9317, V-A:GLU:543:CB:4906, V-B:GLU:543:C:9874, V-B:GLU:543:CB:9878, H-B:TYR:484:OH:9319, V-B:PRO:482:CB:9297, V-A:TYR:539:CB:4871, V-B:ILE:369:CG2:8208, V-B:PRO:482:CG:9298, V-B:ASP:366:CG:8184, V-B:LEU:373:CD1:8251, V-B:ASP:366:CB:8183, H-B:GLU:543:OE2:9882, V-B:SER:385:CB:8380, V-A:GLU:543:C:4902, H-B:ARG:545:NE:9896, V-B:TYR:484:CZ:9318, V-A:TYR:539:CG:4872"]

$$$$
4ce_Grossjean_2025
     RDKit          3D

 45 48  0  0  0  0  0  0  0  0999 V2000
  129.4250  128.1290   71.2180 C   0  0  0  0  0  0  0  0  0  0  0  0
  129.1460  127.4490   69.8910 C   0  0  0  0  0  0  0  0  0  0  0  0
  129.3020  126.0700   69.7290 C   0  0  0  0  0  0  0  0  0  0  0  0
  129.0190  125.5110   68.4820 C   0  0  0  0  0  0  0  0  0  0  0  0
  128.5900  126.3340   67.4390 C   0  0  0  0  0  0  0  0  0  0  0  0
  128.4590  127.7090   67.6680 C   0  0  0  0  0  0  0  0  0  0  0  0
  128.0000  128.4820   66.5860 N   0  0  0  0  0  0  0  0  0  0  0  0
  126.7290  128.6530   66.1440 C   0  0  0  0  0  0  0  0  0  0  0  0
  125.7440  128.1350   66.6740 O   0  0  0  0  0  0  0  0  0  0  0  0
  126.5810  129.5130   64.9680 C   0  0  0  0  0  0  0  0  0  0  0  0
  126.3900  131.2540   65.1620 S   0  0  0  0  0  0  0  0  0  0  0  0
  126.3360  131.4860   63.4310 C   0  0  0  0  0  0  0  0  0  0  0  0
  126.1980  132.6970   62.8970 N   0  0  0  0  0  0  0  0  0  0  0  0
  126.1820  132.7790   61.5400 C   0  0  0  0  0  0  0  0  0  0  0  0
  126.0300  134.1580   60.9700 C   0  0  0  0  0  0  0  0  0  0  0  0
  127.0340  135.1230   61.1510 C   0  0  0  0  0  0  0  0  0  0  0  0
  126.8970  136.4080   60.6310 C   0  0  0  0  0  0  0  0  0  0  0  0
  125.7510  136.7450   59.9190 C   0  0  0  0  0  0  0  0  0  0  0  0
  124.7410  135.8090   59.7260 C   0  0  0  0  0  0  0  0  0  0  0  0
  124.8800  134.5260   60.2500 C   0  0  0  0  0  0  0  0  0  0  0  0
  126.2830  131.6450   60.7290 C   0  0  0  0  0  0  0  0  0  0  0  0
  126.4240  130.3620   61.2820 C   0  0  0  0  0  0  0  0  0  0  0  0
  126.5320  129.1620   60.3350 C   0  0  0  0  0  0  0  0  0  0  0  0
  126.2560  129.4700   59.0660 F   0  0  0  0  0  0  0  0  0  0  0  0
  127.7720  128.6730   60.3660 F   0  0  0  0  0  0  0  0  0  0  0  0
  125.6760  128.2130   60.7110 F   0  0  0  0  0  0  0  0  0  0  0  0
  126.4580  130.2650   62.7030 C   0  0  0  0  0  0  0  0  0  0  0  0
  126.5950  129.1520   63.6100 C   0  0  0  0  0  0  0  0  0  0  0  0
  126.7290  127.8570   63.1800 N   0  0  0  0  0  0  0  0  0  0  0  0
  128.7300  128.2620   68.8860 N   0  0  0  0  0  0  0  0  0  0  0  0
  129.1481  127.4540   72.0412 H   0  0  0  0  0  0  0  0  0  0  0  0
  130.4955  128.3721   71.2875 H   0  0  0  0  0  0  0  0  0  0  0  0
  128.8337  129.0539   71.2875 H   0  0  0  0  0  0  0  0  0  0  0  0
  129.6400  125.4397   70.5648 H   0  0  0  0  0  0  0  0  0  0  0  0
  129.1332  124.4287   68.3219 H   0  0  0  0  0  0  0  0  0  0  0  0
  128.3583  125.9083   66.4516 H   0  0  0  0  0  0  0  0  0  0  0  0
  128.7170  129.0050   66.1060 H   0  0  0  0  0  0  0  0  0  0  0  0
  127.9428  134.8601   61.7122 H   0  0  0  0  0  0  0  0  0  0  0  0
  127.6919  137.1530   60.7829 H   0  0  0  0  0  0  0  0  0  0  0  0
  125.6428  137.7587   59.5058 H   0  0  0  0  0  0  0  0  0  0  0  0
  123.8364  136.0805   59.1621 H   0  0  0  0  0  0  0  0  0  0  0  0
  124.0775  133.7892   60.0981 H   0  0  0  0  0  0  0  0  0  0  0  0
  126.2514  131.7600   59.6355 H   0  0  0  0  0  0  0  0  0  0  0  0
  126.5670  127.0700   63.7930 H   0  0  0  0  0  0  0  0  0  0  0  0
  126.9980  127.6440   62.2290 H   0  0  0  0  0  0  0  0  0  0  0  0
  1  2  1  0
  2  3  2  0
  3  4  1  0
  4  5  2  0
  5  6  1  0
  6  7  1  0
  7  8  1  0
  8  9  2  0
  8 10  1  0
 10 11  1  0
 11 12  1  0
 12 13  2  0
 13 14  1  0
 14 15  1  0
 15 16  2  0
 16 17  1  0
 17 18  2  0
 18 19  1  0
 19 20  2  0
 14 21  2  0
 21 22  1  0
 22 23  1  0
 23 24  1  0
 23 25  1  0
 23 26  1  0
 22 27  2  0
 27 28  1  0
 28 29  1  0
  6 30  2  0
 30  2  1  0
 28 10  2  0
 27 12  1  0
 20 15  1  0
  1 31  1  0
  1 32  1  0
  1 33  1  0
  3 34  1  0
  4 35  1  0
  5 36  1  0
  7 37  1  0
 16 38  1  0
 17 39  1  0
 18 40  1  0
 19 41  1  0
 20 42  1  0
 21 43  1  0
 29 44  1  0
 29 45  1  0
M  END
>  <Binding energies>  (1) 
[-7.35]

>  <Ligand effiencies>  (1) 
[-0.22272727272727272]

>  <Interactions>  (1) 
["V-A:ALA:541:CB:4892, V-A:TYR:539:CE1:4875, V-A:TYR:539:CD1:4873, V-B:LEU:475:CD1:9229, V-A:GLU:543:CD:4908, V-A:TYR:539:C:4867, H-A:GLU:543:OE1:4909, H-B:GLU:543:OE1:9881, V-B:GLU:543:CG:9879, V-B:GLU:543:CD:9880, V-A:TYR:484:CE2:4345, V-A:HIS:456:CE1:4069, V-B:GLU:543:CA:9876, V-B:HIS:456:CE1:9041, V-B:TYR:484:CE2:9317, V-B:GLU:543:C:9874, V-B:GLU:543:CB:9878, V-B:PRO:482:CB:9297, V-A:TYR:539:CB:4871, V-B:ILE:369:CG2:8208, V-B:PRO:482:CG:9298, V-B:ASP:366:CG:8184, V-B:LEU:373:CD1:8251, V-B:ASP:366:CB:8183, H-B:GLU:543:OE2:9882, V-B:SER:385:CB:8380, H-B:ARG:545:NE:9896, V-B:HIS:456:CD2:9039, V-B:TYR:484:CZ:9318, V-A:TYR:539:CG:4872"]

$$$$
4cf_Grossjean_2025
     RDKit          3D

 42 45  0  0  0  0  0  0  0  0999 V2000
  128.2310  127.7290   64.2630 N   0  0  0  0  0  0  0  0  0  0  0  0
  128.4510  128.5260   63.1680 C   0  0  0  0  0  0  0  0  0  0  0  0
  129.3260  128.1770   62.1260 C   0  0  0  0  0  0  0  0  0  0  0  0
  130.1710  126.9860   62.0020 C   0  0  0  0  0  0  0  0  0  0  0  0
  130.4310  126.5150   60.8940 O   0  0  0  0  0  0  0  0  0  0  0  0
  130.6310  126.4760   63.1700 N   0  0  0  0  0  0  0  0  0  0  0  0
  131.4120  125.3280   63.4030 C   0  0  0  0  0  0  0  0  0  0  0  0
  131.0470  124.0100   63.0680 C   0  0  0  0  0  0  0  0  0  0  0  0
  131.9120  122.9560   63.3700 C   0  0  0  0  0  0  0  0  0  0  0  0
  133.1220  123.2440   64.0000 C   0  0  0  0  0  0  0  0  0  0  0  0
  133.4950  124.5040   64.3400 N   0  0  0  0  0  0  0  0  0  0  0  0
  132.6430  125.5180   64.0410 C   0  0  0  0  0  0  0  0  0  0  0  0
  129.3620  129.4250   60.8820 S   0  0  0  0  0  0  0  0  0  0  0  0
  128.2160  130.4040   61.7670 C   0  0  0  0  0  0  0  0  0  0  0  0
  127.8080  131.5840   61.3060 N   0  0  0  0  0  0  0  0  0  0  0  0
  126.9280  132.2800   62.0730 C   0  0  0  0  0  0  0  0  0  0  0  0
  126.4920  133.6100   61.5310 C   0  0  0  0  0  0  0  0  0  0  0  0
  127.2680  134.7600   61.7430 C   0  0  0  0  0  0  0  0  0  0  0  0
  126.8720  135.9980   61.2440 C   0  0  0  0  0  0  0  0  0  0  0  0
  125.6890  136.1020   60.5200 C   0  0  0  0  0  0  0  0  0  0  0  0
  124.9020  134.9780   60.2920 C   0  0  0  0  0  0  0  0  0  0  0  0
  125.3030  133.7430   60.7930 C   0  0  0  0  0  0  0  0  0  0  0  0
  126.4440  131.7760   63.2840 C   0  0  0  0  0  0  0  0  0  0  0  0
  126.8640  130.5310   63.7760 C   0  0  0  0  0  0  0  0  0  0  0  0
  126.2960  130.0420   65.1140 C   0  0  0  0  0  0  0  0  0  0  0  0
  126.0280  128.7340   65.1230 F   0  0  0  0  0  0  0  0  0  0  0  0
  127.1750  130.2750   66.0890 F   0  0  0  0  0  0  0  0  0  0  0  0
  125.1590  130.6830   65.3840 F   0  0  0  0  0  0  0  0  0  0  0  0
  127.8010  129.8000   62.9900 C   0  0  0  0  0  0  0  0  0  0  0  0
  127.3670  127.2210   64.3880 H   0  0  0  0  0  0  0  0  0  0  0  0
  128.9310  127.6220   64.9840 H   0  0  0  0  0  0  0  0  0  0  0  0
  130.3880  126.9890   64.0050 H   0  0  0  0  0  0  0  0  0  0  0  0
  130.0859  123.8116   62.5712 H   0  0  0  0  0  0  0  0  0  0  0  0
  131.6442  121.9198   63.1160 H   0  0  0  0  0  0  0  0  0  0  0  0
  133.8047  122.4132   64.2318 H   0  0  0  0  0  0  0  0  0  0  0  0
  132.9356  126.5425   64.3146 H   0  0  0  0  0  0  0  0  0  0  0  0
  128.2054  134.6819   62.3133 H   0  0  0  0  0  0  0  0  0  0  0  0
  127.4916  136.8894   61.4215 H   0  0  0  0  0  0  0  0  0  0  0  0
  125.3738  137.0792   60.1253 H   0  0  0  0  0  0  0  0  0  0  0  0
  123.9673  135.0648   59.7186 H   0  0  0  0  0  0  0  0  0  0  0  0
  124.6791  132.8561   60.6084 H   0  0  0  0  0  0  0  0  0  0  0  0
  125.7193  132.3675   63.8627 H   0  0  0  0  0  0  0  0  0  0  0  0
  1  2  1  0
  2  3  2  0
  3  4  1  0
  4  5  2  0
  4  6  1  0
  6  7  1  0
  7  8  2  0
  8  9  1  0
  9 10  2  0
 10 11  1  0
 11 12  2  0
  3 13  1  0
 13 14  1  0
 14 15  2  0
 15 16  1  0
 16 17  1  0
 17 18  2  0
 18 19  1  0
 19 20  2  0
 20 21  1  0
 21 22  2  0
 16 23  2  0
 23 24  1  0
 24 25  1  0
 25 26  1  0
 25 27  1  0
 25 28  1  0
 24 29  2  0
 29  2  1  0
 12  7  1  0
 29 14  1  0
 22 17  1  0
  1 30  1  0
  1 31  1  0
  6 32  1  0
  8 33  1  0
  9 34  1  0
 10 35  1  0
 12 36  1  0
 18 37  1  0
 19 38  1  0
 20 39  1  0
 21 40  1  0
 22 41  1  0
 23 42  1  0
M  END
>  <Binding energies>  (1) 
[-7.08]

>  <Ligand effiencies>  (1) 
[-0.22125]

>  <Interactions>  (1) 
["V-A:ALA:541:CB:4892, V-A:TYR:539:CE1:4875, V-A:TYR:539:CD1:4873, V-B:LEU:475:CD1:9229, V-A:GLU:543:CD:4908, H-A:TYR:484:OH:4347, V-A:GLY:454:CA:4048, H-A:GLU:543:OE2:4910, H-A:GLU:543:OE1:4909, V-A:ARG:545:CZ:4926, H-A:GLY:454:N:4049, V-A:LEU:475:CD1:4257, V-A:GLU:543:CG:4907, V-B:TYR:484:CE2:9317, V-B:PRO:482:CB:9297, V-B:GLY:454:CA:9020, V-B:ILE:369:CG2:8208, V-B:PRO:482:CG:9298, H-B:GLU:543:OE2:9882, V-B:SER:385:CB:8380, V-B:ARG:545:CZ:9898, V-B:TYR:484:CZ:9318"]

$$$$
4cg_Grossjean_2025
     RDKit          3D

 46 49  0  0  0  0  0  0  0  0999 V2000
  128.0070  127.8930   64.3080 N   0  0  0  0  0  0  0  0  0  0  0  0
  128.3530  128.7310   63.2790 C   0  0  0  0  0  0  0  0  0  0  0  0
  129.3900  128.4530   62.3780 C   0  0  0  0  0  0  0  0  0  0  0  0
  130.2420  127.2660   62.3060 C   0  0  0  0  0  0  0  0  0  0  0  0
  130.5200  126.7390   61.2260 O   0  0  0  0  0  0  0  0  0  0  0  0
  130.6660  126.7700   63.4870 N   0  0  0  0  0  0  0  0  0  0  0  0
  131.5410  125.6100   63.6540 C   0  0  0  0  0  0  0  0  0  0  0  0
  132.2950  125.6050   64.9790 C   0  0  0  0  0  0  0  0  0  0  0  0
  131.6420  125.9990   66.1500 C   0  0  0  0  0  0  0  0  0  0  0  0
  132.3180  125.9650   67.3680 C   0  0  0  0  0  0  0  0  0  0  0  0
  133.6410  125.5300   67.4100 C   0  0  0  0  0  0  0  0  0  0  0  0
  134.2910  125.1210   66.2480 C   0  0  0  0  0  0  0  0  0  0  0  0
  133.6160  125.1520   65.0310 C   0  0  0  0  0  0  0  0  0  0  0  0
  129.5520  129.7270   61.1720 S   0  0  0  0  0  0  0  0  0  0  0  0
  128.2460  130.6340   61.8960 C   0  0  0  0  0  0  0  0  0  0  0  0
  127.8530  131.8030   61.3980 N   0  0  0  0  0  0  0  0  0  0  0  0
  126.8260  132.4350   62.0240 C   0  0  0  0  0  0  0  0  0  0  0  0
  126.4080  133.7530   61.4380 C   0  0  0  0  0  0  0  0  0  0  0  0
  127.2310  134.8860   61.5490 C   0  0  0  0  0  0  0  0  0  0  0  0
  126.8470  136.1090   61.0080 C   0  0  0  0  0  0  0  0  0  0  0  0
  125.6280  136.2200   60.3470 C   0  0  0  0  0  0  0  0  0  0  0  0
  124.7920  135.1160   60.2250 C   0  0  0  0  0  0  0  0  0  0  0  0
  125.1800  133.8940   60.7670 C   0  0  0  0  0  0  0  0  0  0  0  0
  126.2120  131.8960   63.1610 C   0  0  0  0  0  0  0  0  0  0  0  0
  126.6190  130.6640   63.6960 C   0  0  0  0  0  0  0  0  0  0  0  0
  125.9040  130.1330   64.9430 C   0  0  0  0  0  0  0  0  0  0  0  0
  125.5120  128.8630   64.8210 F   0  0  0  0  0  0  0  0  0  0  0  0
  126.7210  130.1990   65.9940 F   0  0  0  0  0  0  0  0  0  0  0  0
  124.8170  130.8630   65.1850 F   0  0  0  0  0  0  0  0  0  0  0  0
  127.6860  129.9870   63.0370 C   0  0  0  0  0  0  0  0  0  0  0  0
  127.1400  127.3740   64.3070 H   0  0  0  0  0  0  0  0  0  0  0  0
  128.6170  127.7580   65.1030 H   0  0  0  0  0  0  0  0  0  0  0  0
  130.4610  127.2950   64.3240 H   0  0  0  0  0  0  0  0  0  0  0  0
  130.9266  124.6992   63.5992 H   0  0  0  0  0  0  0  0  0  0  0  0
  132.2935  125.6533   62.8528 H   0  0  0  0  0  0  0  0  0  0  0  0
  130.5955  126.3356   66.1103 H   0  0  0  0  0  0  0  0  0  0  0  0
  131.8099  126.2799   68.2914 H   0  0  0  0  0  0  0  0  0  0  0  0
  134.1774  125.5094   68.3702 H   0  0  0  0  0  0  0  0  0  0  0  0
  135.3341  124.7747   66.2919 H   0  0  0  0  0  0  0  0  0  0  0  0
  134.1214  124.8205   64.1119 H   0  0  0  0  0  0  0  0  0  0  0  0
  128.1951  134.8049   62.0724 H   0  0  0  0  0  0  0  0  0  0  0  0
  127.5052  136.9853   61.1027 H   0  0  0  0  0  0  0  0  0  0  0  0
  125.3240  137.1865   59.9186 H   0  0  0  0  0  0  0  0  0  0  0  0
  123.8283  135.2077   59.7026 H   0  0  0  0  0  0  0  0  0  0  0  0
  124.5147  133.0235   60.6688 H   0  0  0  0  0  0  0  0  0  0  0  0
  125.3938  132.4495   63.6449 H   0  0  0  0  0  0  0  0  0  0  0  0
  1  2  1  0
  2  3  2  0
  3  4  1  0
  4  5  2  0
  4  6  1  0
  6  7  1  0
  7  8  1  0
  8  9  2  0
  9 10  1  0
 10 11  2  0
 11 12  1  0
 12 13  2  0
  3 14  1  0
 14 15  1  0
 15 16  2  0
 16 17  1  0
 17 18  1  0
 18 19  2  0
 19 20  1  0
 20 21  2  0
 21 22  1  0
 22 23  2  0
 17 24  2  0
 24 25  1  0
 25 26  1  0
 26 27  1  0
 26 28  1  0
 26 29  1  0
 25 30  2  0
 30  2  1  0
 13  8  1  0
 30 15  1  0
 23 18  1  0
  1 31  1  0
  1 32  1  0
  6 33  1  0
  7 34  1  0
  7 35  1  0
  9 36  1  0
 10 37  1  0
 11 38  1  0
 12 39  1  0
 13 40  1  0
 19 41  1  0
 20 42  1  0
 21 43  1  0
 22 44  1  0
 23 45  1  0
 24 46  1  0
M  END
>  <Binding energies>  (1) 
[-7.92]

>  <Ligand effiencies>  (1) 
[-0.24]

>  <Interactions>  (1) 
["V-A:ALA:541:CB:4892, V-A:TYR:539:CE1:4875, V-A:TYR:539:CD1:4873, V-B:LEU:475:CD1:9229, V-A:GLU:543:CD:4908, V-A:ARG:545:CD:4923, V-A:ARG:545:CG:4922, V-A:GLY:453:C:4041, V-A:GLY:454:CA:4048, H-A:GLU:543:OE2:4910, V-A:TYR:484:CZ:4346, H-A:GLU:543:OE1:4909, V-A:ARG:545:CZ:4926, V-A:HIS:456:CE1:4069, V-B:TYR:484:CE2:9317, V-A:GLY:453:CA:4043, V-B:PRO:482:CB:9297, V-A:TYR:539:CB:4871, V-B:GLY:454:CA:9020, V-B:ILE:369:CG2:8208, V-B:PRO:482:CG:9298, V-B:LEU:373:CD1:8251, H-B:GLU:543:OE2:9882, V-B:SER:385:CB:8380, V-B:ARG:545:CZ:9898, V-B:TYR:484:CZ:9318"]

$$$$
4ch_Grossjean_2025
     RDKit          3D

 58 61  0  0  0  0  0  0  0  0999 V2000
  128.5050  131.1460   63.0260 C   0  0  0  0  0  0  0  0  0  0  0  0
  127.3070  131.3250   63.7750 O   0  0  0  0  0  0  0  0  0  0  0  0
  126.9370  130.3680   64.7010 C   0  0  0  0  0  0  0  0  0  0  0  0
  127.8470  129.5510   65.3920 C   0  0  0  0  0  0  0  0  0  0  0  0
  127.4020  128.6050   66.3160 C   0  0  0  0  0  0  0  0  0  0  0  0
  128.4030  127.7080   67.0350 C   0  0  0  0  0  0  0  0  0  0  0  0
  129.0500  126.7180   66.1730 N   0  0  0  0  0  0  0  0  0  0  0  0
  129.5040  125.5110   66.5700 C   0  0  0  0  0  0  0  0  0  0  0  0
  129.3880  125.1070   67.7290 O   0  0  0  0  0  0  0  0  0  0  0  0
  130.1170  124.6830   65.5300 C   0  0  0  0  0  0  0  0  0  0  0  0
  129.4140  123.1220   65.1170 S   0  0  0  0  0  0  0  0  0  0  0  0
  130.6280  122.8510   63.8900 C   0  0  0  0  0  0  0  0  0  0  0  0
  130.6420  121.7390   63.1610 N   0  0  0  0  0  0  0  0  0  0  0  0
  131.6210  121.6190   62.2270 C   0  0  0  0  0  0  0  0  0  0  0  0
  131.6140  120.3490   61.4260 C   0  0  0  0  0  0  0  0  0  0  0  0
  130.5270  119.4620   61.4950 C   0  0  0  0  0  0  0  0  0  0  0  0
  130.5140  118.2820   60.7550 C   0  0  0  0  0  0  0  0  0  0  0  0
  131.5910  117.9710   59.9330 C   0  0  0  0  0  0  0  0  0  0  0  0
  132.6820  118.8300   59.8490 C   0  0  0  0  0  0  0  0  0  0  0  0
  132.6920  120.0070   60.5920 C   0  0  0  0  0  0  0  0  0  0  0  0
  132.5910  122.6100   62.0420 C   0  0  0  0  0  0  0  0  0  0  0  0
  132.5860  123.7880   62.8070 C   0  0  0  0  0  0  0  0  0  0  0  0
  133.6780  124.8330   62.5520 C   0  0  0  0  0  0  0  0  0  0  0  0
  134.3800  125.1350   63.6470 F   0  0  0  0  0  0  0  0  0  0  0  0
  134.5360  124.3770   61.6420 F   0  0  0  0  0  0  0  0  0  0  0  0
  133.1260  125.9630   62.1100 F   0  0  0  0  0  0  0  0  0  0  0  0
  131.5560  123.9290   63.7800 C   0  0  0  0  0  0  0  0  0  0  0  0
  131.2300  124.9700   64.7250 C   0  0  0  0  0  0  0  0  0  0  0  0
  131.9530  126.1310   64.8310 N   0  0  0  0  0  0  0  0  0  0  0  0
  126.0330  128.4560   66.5440 C   0  0  0  0  0  0  0  0  0  0  0  0
  125.1000  129.2580   65.8660 C   0  0  0  0  0  0  0  0  0  0  0  0
  123.7320  129.1670   66.0440 O   0  0  0  0  0  0  0  0  0  0  0  0
  123.1900  129.2520   67.3570 C   0  0  0  0  0  0  0  0  0  0  0  0
  125.5660  130.2150   64.9520 C   0  0  0  0  0  0  0  0  0  0  0  0
  124.6630  130.9950   64.2720 O   0  0  0  0  0  0  0  0  0  0  0  0
  124.1860  130.4120   63.0670 C   0  0  0  0  0  0  0  0  0  0  0  0
  129.3529  131.0193   63.7152 H   0  0  0  0  0  0  0  0  0  0  0  0
  128.4110  130.2519   62.3921 H   0  0  0  0  0  0  0  0  0  0  0  0
  128.6764  132.0285   62.3921 H   0  0  0  0  0  0  0  0  0  0  0  0
  128.9251  129.6585   65.2021 H   0  0  0  0  0  0  0  0  0  0  0  0
  129.1842  128.3459   67.4741 H   0  0  0  0  0  0  0  0  0  0  0  0
  127.8362  127.1455   67.7915 H   0  0  0  0  0  0  0  0  0  0  0  0
  129.2260  127.0050   65.2220 H   0  0  0  0  0  0  0  0  0  0  0  0
  129.6722  119.7032   62.1439 H   0  0  0  0  0  0  0  0  0  0  0  0
  129.6545  117.5986   60.8208 H   0  0  0  0  0  0  0  0  0  0  0  0
  131.5805  117.0408   59.3459 H   0  0  0  0  0  0  0  0  0  0  0  0
  133.5330  118.5802   59.1983 H   0  0  0  0  0  0  0  0  0  0  0  0
  133.5587  120.6811   60.5252 H   0  0  0  0  0  0  0  0  0  0  0  0
  133.3731  122.4638   61.2824 H   0  0  0  0  0  0  0  0  0  0  0  0
  131.5230  127.0390   64.7300 H   0  0  0  0  0  0  0  0  0  0  0  0
  132.9460  126.1150   65.0210 H   0  0  0  0  0  0  0  0  0  0  0  0
  125.6806  127.7018   67.2630 H   0  0  0  0  0  0  0  0  0  0  0  0
  123.9957  129.1256   68.0952 H   0  0  0  0  0  0  0  0  0  0  0  0
  122.7168  130.2353   67.4954 H   0  0  0  0  0  0  0  0  0  0  0  0
  122.4385  128.4607   67.4954 H   0  0  0  0  0  0  0  0  0  0  0  0
  123.5061  129.5810   63.3058 H   0  0  0  0  0  0  0  0  0  0  0  0
  123.6462  131.1706   62.4812 H   0  0  0  0  0  0  0  0  0  0  0  0
  125.0365  130.0331   62.4812 H   0  0  0  0  0  0  0  0  0  0  0  0
  1  2  1  0
  2  3  1  0
  3  4  2  0
  4  5  1  0
  5  6  1  0
  6  7  1  0
  7  8  1  0
  8  9  2  0
  8 10  1  0
 10 11  1  0
 11 12  1  0
 12 13  2  0
 13 14  1  0
 14 15  1  0
 15 16  2  0
 16 17  1  0
 17 18  2  0
 18 19  1  0
 19 20  2  0
 14 21  2  0
 21 22  1  0
 22 23  1  0
 23 24  1  0
 23 25  1  0
 23 26  1  0
 22 27  2  0
 27 28  1  0
 28 29  1  0
  5 30  2  0
 30 31  1  0
 31 32  1  0
 32 33  1  0
 31 34  2  0
 34 35  1  0
 35 36  1  0
 34  3  1  0
 28 10  2  0
 27 12  1  0
 20 15  1  0
  1 37  1  0
  1 38  1  0
  1 39  1  0
  4 40  1  0
  6 41  1  0
  6 42  1  0
  7 43  1  0
 16 44  1  0
 17 45  1  0
 18 46  1  0
 19 47  1  0
 20 48  1  0
 21 49  1  0
 29 50  1  0
 29 51  1  0
 30 52  1  0
 33 53  1  0
 33 54  1  0
 33 55  1  0
 36 56  1  0
 36 57  1  0
 36 58  1  0
M  END
>  <Binding energies>  (1) 
[-7.95]

>  <Ligand effiencies>  (1) 
[-0.20384615384615384]

>  <Interactions>  (1) 
["V-A:ALA:541:CB:4892, V-A:GLU:543:CD:4908, V-A:ASP:366:CG:3212, V-A:GLY:453:C:4041, H-A:GLU:543:OE2:4910, V-A:TYR:484:CZ:4346, V-A:ILE:369:CD1:3238, H-A:GLU:543:OE1:4909, V-A:ARG:545:CZ:4926, V-A:ILE:369:CG2:3236, V-B:TYR:539:CD2:9846, V-B:TYR:539:CE2:9848, V-A:LEU:475:CD1:4257, V-A:HIS:383:CE1:3392, V-A:PRO:482:CG:4326, V-B:GLU:543:CG:9879, V-B:ALA:541:CB:9864, V-B:GLU:543:CD:9880, V-B:TYR:539:C:9839, V-A:TYR:484:CE2:4345, V-A:HIS:383:CD2:3391, V-A:GLU:543:CG:4907, V-B:HIS:456:CE1:9041, V-A:GLY:453:CA:4043, V-B:GLU:543:CB:9878, H-B:TYR:484:OH:9319, H-B:ARG:545:NH2:9900, H-B:GLY:454:N:9021, H-B:ARG:545:NH1:9899, H-B:GLU:543:OE2:9882, V-B:ARG:545:CG:9894, H-B:ARG:545:NE:9896, V-B:ARG:545:CD:9895, V-B:ARG:545:CZ:9898, V-B:ILE:455:C:9023, V-B:ARG:545:CB:9893"]

$$$$
4ci_Grossjean_2025
     RDKit          3D

 39 42  0  0  0  0  0  0  0  0999 V2000
  128.5040  127.2830   65.7200 N   0  0  0  0  0  0  0  0  0  0  0  0
  128.6240  127.1230   64.3630 C   0  0  0  0  0  0  0  0  0  0  0  0
  129.6110  126.3210   63.7680 C   0  0  0  0  0  0  0  0  0  0  0  0
  130.6540  125.5220   64.4180 C   0  0  0  0  0  0  0  0  0  0  0  0
  130.5920  124.2910   64.4210 O   0  0  0  0  0  0  0  0  0  0  0  0
  131.6500  126.2300   65.0060 N   0  0  0  0  0  0  0  0  0  0  0  0
  132.7520  125.7320   65.6890 C   0  0  0  0  0  0  0  0  0  0  0  0
  132.9280  125.8810   67.0640 C   0  0  0  0  0  0  0  0  0  0  0  0
  134.1230  125.2590   67.3420 C   0  0  0  0  0  0  0  0  0  0  0  0
  134.6410  124.7610   66.1930 O   0  0  0  0  0  0  0  0  0  0  0  0
  133.7630  125.0680   65.1520 N   0  0  0  0  0  0  0  0  0  0  0  0
  129.4680  126.3340   62.0120 S   0  0  0  0  0  0  0  0  0  0  0  0
  128.0970  127.4160   62.0860 C   0  0  0  0  0  0  0  0  0  0  0  0
  127.4820  127.8370   60.9830 N   0  0  0  0  0  0  0  0  0  0  0  0
  126.4240  128.6740   61.1410 C   0  0  0  0  0  0  0  0  0  0  0  0
  125.7540  129.1350   59.8790 C   0  0  0  0  0  0  0  0  0  0  0  0
  124.8680  130.2250   59.8900 C   0  0  0  0  0  0  0  0  0  0  0  0
  124.2450  130.6580   58.7220 C   0  0  0  0  0  0  0  0  0  0  0  0
  124.4990  130.0040   57.5220 C   0  0  0  0  0  0  0  0  0  0  0  0
  125.3680  128.9190   57.4820 C   0  0  0  0  0  0  0  0  0  0  0  0
  125.9880  128.4890   58.6520 C   0  0  0  0  0  0  0  0  0  0  0  0
  126.0000  129.0970   62.4050 C   0  0  0  0  0  0  0  0  0  0  0  0
  126.6410  128.6590   63.5760 C   0  0  0  0  0  0  0  0  0  0  0  0
  126.1230  129.1620   64.9280 C   0  0  0  0  0  0  0  0  0  0  0  0
  125.7480  128.1760   65.7450 F   0  0  0  0  0  0  0  0  0  0  0  0
  127.0810  129.8510   65.5470 F   0  0  0  0  0  0  0  0  0  0  0  0
  125.0650  129.9510   64.7410 F   0  0  0  0  0  0  0  0  0  0  0  0
  127.7440  127.7710   63.4210 C   0  0  0  0  0  0  0  0  0  0  0  0
  129.1380  127.8670   66.2470 H   0  0  0  0  0  0  0  0  0  0  0  0
  127.7680  126.8240   66.2400 H   0  0  0  0  0  0  0  0  0  0  0  0
  131.5950  127.2360   64.9490 H   0  0  0  0  0  0  0  0  0  0  0  0
  132.2563  126.3867   67.7733 H   0  0  0  0  0  0  0  0  0  0  0  0
  134.5842  125.1787   68.3374 H   0  0  0  0  0  0  0  0  0  0  0  0
  124.6628  130.7454   60.8371 H   0  0  0  0  0  0  0  0  0  0  0  0
  123.5548  131.5141   58.7490 H   0  0  0  0  0  0  0  0  0  0  0  0
  124.0097  130.3468   56.5984 H   0  0  0  0  0  0  0  0  0  0  0  0
  125.5645  128.4031   56.5306 H   0  0  0  0  0  0  0  0  0  0  0  0
  126.6728  127.6289   58.6160 H   0  0  0  0  0  0  0  0  0  0  0  0
  125.1469  129.7870   62.4839 H   0  0  0  0  0  0  0  0  0  0  0  0
  1  2  1  0
  2  3  2  0
  3  4  1  0
  4  5  2  0
  4  6  1  0
  6  7  1  0
  7  8  1  0
  8  9  2  0
  9 10  1  0
 10 11  1  0
  3 12  1  0
 12 13  1  0
 13 14  2  0
 14 15  1  0
 15 16  1  0
 16 17  2  0
 17 18  1  0
 18 19  2  0
 19 20  1  0
 20 21  2  0
 15 22  2  0
 22 23  1  0
 23 24  1  0
 24 25  1  0
 24 26  1  0
 24 27  1  0
 23 28  2  0
 28  2  1  0
 11  7  2  0
 28 13  1  0
 21 16  1  0
  1 29  1  0
  1 30  1  0
  6 31  1  0
  8 32  1  0
  9 33  1  0
 17 34  1  0
 18 35  1  0
 19 36  1  0
 20 37  1  0
 21 38  1  0
 22 39  1  0
M  END
>  <Binding energies>  (1) 
[-7.47]

>  <Ligand effiencies>  (1) 
[-0.24096774193548387]

>  <Interactions>  (1) 
["V-A:TYR:539:CE1:4875, V-A:GLU:543:CD:4908, V-A:ARG:545:CD:4923, V-A:ARG:545:CG:4922, H-A:TYR:484:OH:4347, H-A:GLU:543:OE2:4910, V-A:TYR:484:CZ:4346, H-A:ARG:545:NH2:4928, H-A:GLU:543:OE1:4909, V-A:ARG:545:CZ:4926, H-A:GLY:454:N:4049, H-A:ARG:545:NE:4924, V-B:GLU:543:CD:9880, V-A:HIS:456:CE1:4069, V-B:ILE:369:CG2:8208, V-B:ASP:366:CG:8184, V-B:ILE:369:CB:8207, V-B:ASP:366:CB:8183, H-B:GLU:543:OE2:9882, V-B:ARG:545:CD:9895, V-B:ARG:545:CZ:9898, H-A:ILE:455:N:4054, V-B:TYR:531:CZ:9766, V-B:ASP:366:C:8179, V-B:ASP:366:CA:8181, V-B:TYR:531:CE1:9764, V-A:ILE:455:C:4051, V-A:TYR:539:CZ:4877"]

$$$$
4cj_Grossjean_2025
     RDKit          3D

 39 42  0  0  0  0  0  0  0  0999 V2000
  127.0040  128.1150   63.9700 N   0  0  0  0  0  0  0  0  0  0  0  0
  127.0890  129.4540   64.2530 C   0  0  0  0  0  0  0  0  0  0  0  0
  127.5340  129.9530   65.4880 C   0  0  0  0  0  0  0  0  0  0  0  0
  127.9830  129.2070   66.6660 C   0  0  0  0  0  0  0  0  0  0  0  0
  128.3260  129.7970   67.6930 O   0  0  0  0  0  0  0  0  0  0  0  0
  127.9990  127.8570   66.5290 N   0  0  0  0  0  0  0  0  0  0  0  0
  128.3800  126.9270   67.4870 C   0  0  0  0  0  0  0  0  0  0  0  0
  128.0530  126.9010   68.7610 N   0  0  0  0  0  0  0  0  0  0  0  0
  128.5920  125.8690   69.3790 C   0  0  0  0  0  0  0  0  0  0  0  0
  129.3780  125.0260   68.5980 C   0  0  0  0  0  0  0  0  0  0  0  0
  129.4050  125.6280   66.9670 S   0  0  0  0  0  0  0  0  0  0  0  0
  127.5280  131.7150   65.5030 S   0  0  0  0  0  0  0  0  0  0  0  0
  126.9300  131.7710   63.8610 C   0  0  0  0  0  0  0  0  0  0  0  0
  126.7040  132.9280   63.2440 N   0  0  0  0  0  0  0  0  0  0  0  0
  126.2470  132.8720   61.9670 C   0  0  0  0  0  0  0  0  0  0  0  0
  126.0150  134.1950   61.2950 C   0  0  0  0  0  0  0  0  0  0  0  0
  124.8380  134.4350   60.5690 C   0  0  0  0  0  0  0  0  0  0  0  0
  124.6190  135.6580   59.9380 C   0  0  0  0  0  0  0  0  0  0  0  0
  125.5790  136.6610   60.0250 C   0  0  0  0  0  0  0  0  0  0  0  0
  126.7550  136.4480   60.7360 C   0  0  0  0  0  0  0  0  0  0  0  0
  126.9690  135.2250   61.3650 C   0  0  0  0  0  0  0  0  0  0  0  0
  125.9960  131.6560   61.3240 C   0  0  0  0  0  0  0  0  0  0  0  0
  126.2290  130.4290   61.9660 C   0  0  0  0  0  0  0  0  0  0  0  0
  125.9360  129.1330   61.2030 C   0  0  0  0  0  0  0  0  0  0  0  0
  125.2150  129.3270   60.0970 F   0  0  0  0  0  0  0  0  0  0  0  0
  127.0810  128.5570   60.8370 F   0  0  0  0  0  0  0  0  0  0  0  0
  125.2520  128.2940   61.9820 F   0  0  0  0  0  0  0  0  0  0  0  0
  126.7270  130.4760   63.3000 C   0  0  0  0  0  0  0  0  0  0  0  0
  127.4840  127.7030   63.1820 H   0  0  0  0  0  0  0  0  0  0  0  0
  126.4580  127.4900   64.5470 H   0  0  0  0  0  0  0  0  0  0  0  0
  127.7150  127.4780   65.6380 H   0  0  0  0  0  0  0  0  0  0  0  0
  128.4300  125.6843   70.4512 H   0  0  0  0  0  0  0  0  0  0  0  0
  129.8979  124.1248   68.9551 H   0  0  0  0  0  0  0  0  0  0  0  0
  124.0761  133.6449   60.4970 H   0  0  0  0  0  0  0  0  0  0  0  0
  123.6907  135.8296   59.3734 H   0  0  0  0  0  0  0  0  0  0  0  0
  125.4070  137.6276   59.5288 H   0  0  0  0  0  0  0  0  0  0  0  0
  127.5128  137.2427   60.8010 H   0  0  0  0  0  0  0  0  0  0  0  0
  127.9007  135.0616   61.9265 H   0  0  0  0  0  0  0  0  0  0  0  0
  125.6082  131.6606   60.2946 H   0  0  0  0  0  0  0  0  0  0  0  0
  1  2  1  0
  2  3  2  0
  3  4  1  0
  4  5  2  0
  4  6  1  0
  6  7  1  0
  7  8  2  0
  8  9  1  0
  9 10  2  0
 10 11  1  0
  3 12  1  0
 12 13  1  0
 13 14  2  0
 14 15  1  0
 15 16  1  0
 16 17  2  0
 17 18  1  0
 18 19  2  0
 19 20  1  0
 20 21  2  0
 15 22  2  0
 22 23  1  0
 23 24  1  0
 24 25  1  0
 24 26  1  0
 24 27  1  0
 23 28  2  0
 28  2  1  0
 11  7  1  0
 28 13  1  0
 21 16  1  0
  1 29  1  0
  1 30  1  0
  6 31  1  0
  9 32  1  0
 10 33  1  0
 17 34  1  0
 18 35  1  0
 19 36  1  0
 20 37  1  0
 21 38  1  0
 22 39  1  0
M  END
>  <Binding energies>  (1) 
[-7.21]

>  <Ligand effiencies>  (1) 
[-0.23258064516129032]

>  <Interactions>  (1) 
["V-A:ALA:541:CB:4892, V-A:TYR:539:CE1:4875, V-A:TYR:539:CD1:4873, V-B:LEU:475:CD1:9229, V-A:GLU:543:CD:4908, V-A:TYR:484:CZ:4346, H-A:GLU:543:OE1:4909, H-B:GLU:543:OE1:9881, V-B:GLU:543:CG:9879, V-B:GLU:543:CD:9880, V-A:TYR:484:CE2:4345, V-A:HIS:456:CE1:4069, V-A:GLU:543:CG:4907, V-B:GLU:543:CA:9876, V-B:HIS:456:CE1:9041, V-B:TYR:484:CE2:9317, V-A:GLU:543:CB:4906, V-B:GLU:543:C:9874, V-B:GLU:543:CB:9878, V-B:PRO:482:CB:9297, V-A:TYR:539:CB:4871, V-B:ILE:369:CG2:8208, V-B:PRO:482:CG:9298, V-B:ASP:366:CG:8184, V-B:LEU:373:CD1:8251, V-B:ASP:366:CB:8183, V-A:TYR:484:CD2:4343, H-B:GLU:543:OE2:9882, V-B:SER:385:CB:8380, V-B:ARG:545:CZ:9898, V-B:TYR:484:CZ:9318, V-A:TYR:539:CG:4872"]

$$$$
4ck_Grossjean_2025
     RDKit          3D

 57 59  0  0  0  0  0  0  0  0999 V2000
  133.7620  124.7470   62.8020 C   0  0  0  0  0  0  0  0  0  0  0  0
  133.8770  124.7480   64.2170 O   0  0  0  0  0  0  0  0  0  0  0  0
  132.7010  125.1940   64.8780 C   0  0  0  0  0  0  0  0  0  0  0  0
  133.0920  125.8260   66.2210 C   0  0  0  0  0  0  0  0  0  0  0  0
  132.3740  127.0410   66.3880 O   0  0  0  0  0  0  0  0  0  0  0  0
  132.1360  127.3770   67.7480 C   0  0  0  0  0  0  0  0  0  0  0  0
  130.6510  127.1660   68.0660 C   0  0  0  0  0  0  0  0  0  0  0  0
  130.2920  125.8370   67.7110 O   0  0  0  0  0  0  0  0  0  0  0  0
  129.0280  125.7360   67.0670 C   0  0  0  0  0  0  0  0  0  0  0  0
  128.0970  126.8450   67.5800 C   0  0  0  0  0  0  0  0  0  0  0  0
  127.7480  127.8000   66.5290 N   0  0  0  0  0  0  0  0  0  0  0  0
  127.7210  129.1430   66.6590 C   0  0  0  0  0  0  0  0  0  0  0  0
  128.0260  129.7170   67.7060 O   0  0  0  0  0  0  0  0  0  0  0  0
  127.3160  129.8930   65.4690 C   0  0  0  0  0  0  0  0  0  0  0  0
  127.2780  131.6540   65.5050 S   0  0  0  0  0  0  0  0  0  0  0  0
  126.7960  131.7190   63.8260 C   0  0  0  0  0  0  0  0  0  0  0  0
  126.5890  132.8790   63.2070 N   0  0  0  0  0  0  0  0  0  0  0  0
  126.2150  132.8310   61.9020 C   0  0  0  0  0  0  0  0  0  0  0  0
  126.0070  134.1560   61.2280 C   0  0  0  0  0  0  0  0  0  0  0  0
  127.0130  135.1370   61.2440 C   0  0  0  0  0  0  0  0  0  0  0  0
  126.8250  136.3700   60.6230 C   0  0  0  0  0  0  0  0  0  0  0  0
  125.6250  136.6400   59.9750 C   0  0  0  0  0  0  0  0  0  0  0  0
  124.6140  135.6850   59.9400 C   0  0  0  0  0  0  0  0  0  0  0  0
  124.8060  134.4530   60.5610 C   0  0  0  0  0  0  0  0  0  0  0  0
  126.0610  131.6180   61.2220 C   0  0  0  0  0  0  0  0  0  0  0  0
  126.2760  130.3890   61.8650 C   0  0  0  0  0  0  0  0  0  0  0  0
  126.0850  129.0970   61.0610 C   0  0  0  0  0  0  0  0  0  0  0  0
  127.2370  128.5240   60.7100 F   0  0  0  0  0  0  0  0  0  0  0  0
  125.4030  128.2120   61.7860 F   0  0  0  0  0  0  0  0  0  0  0  0
  125.4120  129.3600   59.9410 F   0  0  0  0  0  0  0  0  0  0  0  0
  126.6650  130.4280   63.2350 C   0  0  0  0  0  0  0  0  0  0  0  0
  126.9770  129.4010   64.1990 C   0  0  0  0  0  0  0  0  0  0  0  0
  126.9410  128.0630   63.8980 N   0  0  0  0  0  0  0  0  0  0  0  0
  132.6987  124.7378   62.5206 H   0  0  0  0  0  0  0  0  0  0  0  0
  134.2413  125.6493   62.3945 H   0  0  0  0  0  0  0  0  0  0  0  0
  134.2569  123.8531   62.3945 H   0  0  0  0  0  0  0  0  0  0  0  0
  132.1881  125.9409   64.2543 H   0  0  0  0  0  0  0  0  0  0  0  0
  132.0259  124.3428   65.0503 H   0  0  0  0  0  0  0  0  0  0  0  0
  132.8430  125.1351   67.0399 H   0  0  0  0  0  0  0  0  0  0  0  0
  134.1731  126.0286   66.2352 H   0  0  0  0  0  0  0  0  0  0  0  0
  132.7467  126.7336   68.3984 H   0  0  0  0  0  0  0  0  0  0  0  0
  132.4057  128.4292   67.9218 H   0  0  0  0  0  0  0  0  0  0  0  0
  130.4772  127.3215   69.1410 H   0  0  0  0  0  0  0  0  0  0  0  0
  130.0409  127.8831   67.4972 H   0  0  0  0  0  0  0  0  0  0  0  0
  129.1613  125.8437   65.9804 H   0  0  0  0  0  0  0  0  0  0  0  0
  128.5831  124.7547   67.2884 H   0  0  0  0  0  0  0  0  0  0  0  0
  127.1738  126.3847   67.9618 H   0  0  0  0  0  0  0  0  0  0  0  0
  128.6273  127.3927   68.3729 H   0  0  0  0  0  0  0  0  0  0  0  0
  127.5720  127.4080   65.6150 H   0  0  0  0  0  0  0  0  0  0  0  0
  127.9644  134.9281   61.7551 H   0  0  0  0  0  0  0  0  0  0  0  0
  127.6229  137.1269   60.6453 H   0  0  0  0  0  0  0  0  0  0  0  0
  125.4741  137.6143   59.4872 H   0  0  0  0  0  0  0  0  0  0  0  0
  123.6670  135.9019   59.4241 H   0  0  0  0  0  0  0  0  0  0  0  0
  124.0046  133.7002   60.5289 H   0  0  0  0  0  0  0  0  0  0  0  0
  125.7656  131.6277   60.1625 H   0  0  0  0  0  0  0  0  0  0  0  0
  127.4820  127.6690   63.1420 H   0  0  0  0  0  0  0  0  0  0  0  0
  126.3700  127.4210   64.4310 H   0  0  0  0  0  0  0  0  0  0  0  0
  1  2  1  0
  2  3  1  0
  3  4  1  0
  4  5  1  0
  5  6  1  0
  6  7  1  0
  7  8  1  0
  8  9  1  0
  9 10  1  0
 10 11  1  0
 11 12  1  0
 12 13  2  0
 12 14  1  0
 14 15  1  0
 15 16  1  0
 16 17  2  0
 17 18  1  0
 18 19  1  0
 19 20  2  0
 20 21  1  0
 21 22  2  0
 22 23  1  0
 23 24  2  0
 18 25  2  0
 25 26  1  0
 26 27  1  0
 27 28  1  0
 27 29  1  0
 27 30  1  0
 26 31  2  0
 31 32  1  0
 32 33  1  0
 32 14  2  0
 31 16  1  0
 24 19  1  0
  1 34  1  0
  1 35  1  0
  1 36  1  0
  3 37  1  0
  3 38  1  0
  4 39  1  0
  4 40  1  0
  6 41  1  0
  6 42  1  0
  7 43  1  0
  7 44  1  0
  9 45  1  0
  9 46  1  0
 10 47  1  0
 10 48  1  0
 11 49  1  0
 20 50  1  0
 21 51  1  0
 22 52  1  0
 23 53  1  0
 24 54  1  0
 25 55  1  0
 33 56  1  0
 33 57  1  0
M  END
>  <Binding energies>  (1) 
[-6.94]

>  <Ligand effiencies>  (1) 
[-0.1927777777777778]

>  <Interactions>  (1) 
["V-A:ALA:541:CB:4892, V-A:TYR:539:CE1:4875, V-A:TYR:539:CD1:4873, V-B:LEU:475:CD1:9229, V-A:GLU:543:CD:4908, V-A:TYR:539:C:4867, V-A:ASP:366:CG:3212, V-A:ARG:545:CD:4923, V-A:ARG:545:CG:4922, H-A:TYR:484:OH:4347, H-A:ARG:545:NH2:4928, H-A:GLU:543:OE1:4909, V-A:ARG:545:CZ:4926, H-A:GLY:454:N:4049, H-A:ARG:545:NE:4924, H-B:GLU:543:OE1:9881, V-B:GLU:543:CG:9879, V-B:GLU:543:CD:9880, V-A:HIS:456:CE1:4069, V-A:GLU:543:CG:4907, V-B:HIS:456:CE1:9041, V-B:TYR:484:CE2:9317, V-A:GLU:543:CB:4906, V-B:GLU:543:CB:9878, H-B:TYR:484:OH:9319, V-B:PRO:482:CB:9297, V-A:TYR:539:CB:4871, V-B:ILE:369:CG2:8208, V-B:PRO:482:CG:9298, V-B:ASP:366:CG:8184, V-B:LEU:373:CD1:8251, V-B:ASP:366:CB:8183, H-B:GLU:543:OE2:9882, V-B:SER:385:CB:8380, V-B:ARG:545:CZ:9898, V-B:TYR:484:CZ:9318, V-A:TYR:539:CG:4872"]

$$$$
4dd_Grossjean_2025
     RDKit          3D

 43 46  0  0  0  0  0  0  0  0999 V2000
  125.9720  129.1530   60.4330 C   0  0  0  0  0  0  0  0  0  0  0  0
  126.0900  130.3540   61.3580 C   0  0  0  0  0  0  0  0  0  0  0  0
  126.0000  131.6330   60.7940 C   0  0  0  0  0  0  0  0  0  0  0  0
  126.1000  132.7800   61.5920 C   0  0  0  0  0  0  0  0  0  0  0  0
  126.0130  134.1610   61.0140 C   0  0  0  0  0  0  0  0  0  0  0  0
  124.8880  134.5630   60.2750 C   0  0  0  0  0  0  0  0  0  0  0  0
  124.7990  135.8440   59.7380 C   0  0  0  0  0  0  0  0  0  0  0  0
  125.8380  136.7470   59.9330 C   0  0  0  0  0  0  0  0  0  0  0  0
  126.9630  136.3780   60.6630 C   0  0  0  0  0  0  0  0  0  0  0  0
  127.0470  135.0950   61.1990 C   0  0  0  0  0  0  0  0  0  0  0  0
  126.3010  132.7050   62.9360 N   0  0  0  0  0  0  0  0  0  0  0  0
  126.3810  131.4890   63.4740 C   0  0  0  0  0  0  0  0  0  0  0  0
  126.6190  131.2480   65.1900 S   0  0  0  0  0  0  0  0  0  0  0  0
  126.5940  129.4940   64.9950 C   0  0  0  0  0  0  0  0  0  0  0  0
  126.7400  128.6170   66.1590 C   0  0  0  0  0  0  0  0  0  0  0  0
  125.7860  127.9510   66.5660 O   0  0  0  0  0  0  0  0  0  0  0  0
  127.9730  128.5980   66.7210 N   0  0  0  0  0  0  0  0  0  0  0  0
  128.4260  127.9150   67.8640 C   0  0  0  0  0  0  0  0  0  0  0  0
  129.0010  128.7080   68.8620 C   0  0  0  0  0  0  0  0  0  0  0  0
  129.4680  128.1270   70.0380 C   0  0  0  0  0  0  0  0  0  0  0  0
  129.3530  126.7520   70.2210 C   0  0  0  0  0  0  0  0  0  0  0  0
  128.7710  125.9520   69.2410 C   0  0  0  0  0  0  0  0  0  0  0  0
  128.3040  126.5290   68.0640 C   0  0  0  0  0  0  0  0  0  0  0  0
  126.4140  129.1380   63.6500 C   0  0  0  0  0  0  0  0  0  0  0  0
  126.3600  127.8410   63.2040 N   0  0  0  0  0  0  0  0  0  0  0  0
  126.2860  130.2620   62.7600 C   0  0  0  0  0  0  0  0  0  0  0  0
  125.8819  128.2355   61.0330 H   0  0  0  0  0  0  0  0  0  0  0  0
  125.0805  129.2651   59.7984 H   0  0  0  0  0  0  0  0  0  0  0  0
  126.8682  129.0895   59.7984 H   0  0  0  0  0  0  0  0  0  0  0  0
  125.8487  131.7382   59.7095 H   0  0  0  0  0  0  0  0  0  0  0  0
  124.0628  133.8528   60.1179 H   0  0  0  0  0  0  0  0  0  0  0  0
  123.9103  136.1407   59.1617 H   0  0  0  0  0  0  0  0  0  0  0  0
  125.7700  137.7591   59.5075 H   0  0  0  0  0  0  0  0  0  0  0  0
  127.7823  137.0958   60.8163 H   0  0  0  0  0  0  0  0  0  0  0  0
  127.9378  134.8079   61.7770 H   0  0  0  0  0  0  0  0  0  0  0  0
  128.6820  129.1410   66.2520 H   0  0  0  0  0  0  0  0  0  0  0  0
  129.0847  129.7952   68.7174 H   0  0  0  0  0  0  0  0  0  0  0  0
  129.9258  128.7519   70.8190 H   0  0  0  0  0  0  0  0  0  0  0  0
  129.7254  126.2929   71.1486 H   0  0  0  0  0  0  0  0  0  0  0  0
  128.6807  124.8669   69.3969 H   0  0  0  0  0  0  0  0  0  0  0  0
  127.8393  125.9005   67.2900 H   0  0  0  0  0  0  0  0  0  0  0  0
  126.2690  127.6170   62.2230 H   0  0  0  0  0  0  0  0  0  0  0  0
  126.4130  127.0630   63.8460 H   0  0  0  0  0  0  0  0  0  0  0  0
  1  2  1  0
  2  3  2  0
  3  4  1  0
  4  5  1  0
  5  6  2  0
  6  7  1  0
  7  8  2  0
  8  9  1  0
  9 10  2  0
  4 11  2  0
 11 12  1  0
 12 13  1  0
 13 14  1  0
 14 15  1  0
 15 16  2  0
 15 17  1  0
 17 18  1  0
 18 19  2  0
 19 20  1  0
 20 21  2  0
 21 22  1  0
 22 23  2  0
 14 24  2  0
 24 25  1  0
 24 26  1  0
 26  2  1  0
 10  5  1  0
 26 12  2  0
 23 18  1  0
  1 27  1  0
  1 28  1  0
  1 29  1  0
  3 30  1  0
  6 31  1  0
  7 32  1  0
  8 33  1  0
  9 34  1  0
 10 35  1  0
 17 36  1  0
 19 37  1  0
 20 38  1  0
 21 39  1  0
 22 40  1  0
 23 41  1  0
 25 42  1  0
 25 43  1  0
M  END
>  <Binding energies>  (1) 
[-7.93]

>  <Ligand effiencies>  (1) 
[-0.27344827586206893]

>  <Interactions>  (1) 
["V-A:ALA:541:CB:4892, V-A:TYR:539:CE1:4875, V-A:TYR:539:CD1:4873, V-B:LEU:475:CD1:9229, V-A:GLU:543:CD:4908, V-A:TYR:539:C:4867, H-A:GLU:543:OE1:4909, H-B:GLU:543:OE1:9881, H-B:ASP:366:OD1:8185, V-B:GLU:543:CD:9880, V-A:HIS:456:CE1:4069, V-A:GLU:543:CG:4907, V-B:HIS:456:CE1:9041, V-B:TYR:484:CE2:9317, V-A:GLU:543:CB:4906, V-B:GLU:543:C:9874, V-B:GLU:543:CB:9878, V-B:PRO:482:CB:9297, V-A:TYR:539:CB:4871, V-B:ILE:369:CG2:8208, V-B:PRO:482:CG:9298, V-B:ASP:366:CG:8184, V-B:LEU:373:CD1:8251, H-B:GLU:543:OE2:9882, V-B:SER:385:CB:8380, V-A:GLU:543:C:4902, H-B:ARG:545:NE:9896, V-B:ARG:545:CZ:9898, V-B:TYR:484:CZ:9318, V-A:TYR:539:CG:4872"]

$$$$
4dg_Grossjean_2025
     RDKit          3D

 46 49  0  0  0  0  0  0  0  0999 V2000
  123.4080  130.0050   63.1540 C   0  0  0  0  0  0  0  0  0  0  0  0
  124.5820  130.9700   63.2340 C   0  0  0  0  0  0  0  0  0  0  0  0
  124.5680  132.0970   62.4040 C   0  0  0  0  0  0  0  0  0  0  0  0
  125.6180  133.0230   62.4300 C   0  0  0  0  0  0  0  0  0  0  0  0
  125.6310  134.2420   61.5520 C   0  0  0  0  0  0  0  0  0  0  0  0
  124.5450  134.5370   60.7120 C   0  0  0  0  0  0  0  0  0  0  0  0
  124.5530  135.6640   59.8930 C   0  0  0  0  0  0  0  0  0  0  0  0
  125.6510  136.5160   59.9030 C   0  0  0  0  0  0  0  0  0  0  0  0
  126.7430  136.2470   60.7230 C   0  0  0  0  0  0  0  0  0  0  0  0
  126.7310  135.1190   61.5380 C   0  0  0  0  0  0  0  0  0  0  0  0
  126.6800  132.8810   63.2690 N   0  0  0  0  0  0  0  0  0  0  0  0
  126.6950  131.8080   64.0590 C   0  0  0  0  0  0  0  0  0  0  0  0
  128.0030  131.5010   65.1780 S   0  0  0  0  0  0  0  0  0  0  0  0
  127.2330  130.0170   65.7380 C   0  0  0  0  0  0  0  0  0  0  0  0
  127.8920  129.1800   66.7390 C   0  0  0  0  0  0  0  0  0  0  0  0
  128.4350  129.6710   67.7310 O   0  0  0  0  0  0  0  0  0  0  0  0
  127.8990  127.8540   66.4870 N   0  0  0  0  0  0  0  0  0  0  0  0
  128.4780  126.8300   67.3560 C   0  0  0  0  0  0  0  0  0  0  0  0
  129.9160  126.4740   66.9970 C   0  0  0  0  0  0  0  0  0  0  0  0
  130.1750  125.6620   65.8890 C   0  0  0  0  0  0  0  0  0  0  0  0
  131.4880  125.3610   65.5400 C   0  0  0  0  0  0  0  0  0  0  0  0
  132.5390  125.8820   66.2920 C   0  0  0  0  0  0  0  0  0  0  0  0
  132.2890  126.7060   67.3870 C   0  0  0  0  0  0  0  0  0  0  0  0
  130.9760  127.0080   67.7360 C   0  0  0  0  0  0  0  0  0  0  0  0
  126.0260  129.7820   65.0620 C   0  0  0  0  0  0  0  0  0  0  0  0
  125.2250  128.6920   65.2880 N   0  0  0  0  0  0  0  0  0  0  0  0
  125.6900  130.8010   64.1040 C   0  0  0  0  0  0  0  0  0  0  0  0
  123.0830  129.7379   64.1704 H   0  0  0  0  0  0  0  0  0  0  0  0
  122.5759  130.4836   62.6169 H   0  0  0  0  0  0  0  0  0  0  0  0
  123.7165  129.0960   62.6169 H   0  0  0  0  0  0  0  0  0  0  0  0
  123.7202  132.2575   61.7217 H   0  0  0  0  0  0  0  0  0  0  0  0
  123.6729  133.8667   60.7005 H   0  0  0  0  0  0  0  0  0  0  0  0
  123.6935  135.8787   59.2409 H   0  0  0  0  0  0  0  0  0  0  0  0
  125.6570  137.4079   59.2592 H   0  0  0  0  0  0  0  0  0  0  0  0
  127.6111  136.9226   60.7269 H   0  0  0  0  0  0  0  0  0  0  0  0
  127.5972  134.9093   62.1828 H   0  0  0  0  0  0  0  0  0  0  0  0
  127.3670  127.5170   65.6980 H   0  0  0  0  0  0  0  0  0  0  0  0
  128.4585  127.1999   68.3917 H   0  0  0  0  0  0  0  0  0  0  0  0
  127.8762  125.9180   67.2289 H   0  0  0  0  0  0  0  0  0  0  0  0
  129.3415  125.2613   65.2934 H   0  0  0  0  0  0  0  0  0  0  0  0
  131.6953  124.7147   64.6744 H   0  0  0  0  0  0  0  0  0  0  0  0
  133.5766  125.6402   66.0182 H   0  0  0  0  0  0  0  0  0  0  0  0
  133.1250  127.1158   67.9728 H   0  0  0  0  0  0  0  0  0  0  0  0
  130.7722  127.6667   68.5931 H   0  0  0  0  0  0  0  0  0  0  0  0
  124.2490  128.7870   65.5290 H   0  0  0  0  0  0  0  0  0  0  0  0
  125.5870  127.7510   65.2130 H   0  0  0  0  0  0  0  0  0  0  0  0
  1  2  1  0
  2  3  2  0
  3  4  1  0
  4  5  1  0
  5  6  2  0
  6  7  1  0
  7  8  2  0
  8  9  1  0
  9 10  2  0
  4 11  2  0
 11 12  1  0
 12 13  1  0
 13 14  1  0
 14 15  1  0
 15 16  2  0
 15 17  1  0
 17 18  1  0
 18 19  1  0
 19 20  2  0
 20 21  1  0
 21 22  2  0
 22 23  1  0
 23 24  2  0
 14 25  2  0
 25 26  1  0
 25 27  1  0
 27  2  1  0
 10  5  1  0
 27 12  2  0
 24 19  1  0
  1 28  1  0
  1 29  1  0
  1 30  1  0
  3 31  1  0
  6 32  1  0
  7 33  1  0
  8 34  1  0
  9 35  1  0
 10 36  1  0
 17 37  1  0
 18 38  1  0
 18 39  1  0
 20 40  1  0
 21 41  1  0
 22 42  1  0
 23 43  1  0
 24 44  1  0
 26 45  1  0
 26 46  1  0
M  END
>  <Binding energies>  (1) 
[-8.44]

>  <Ligand effiencies>  (1) 
[-0.2813333333333333]

>  <Interactions>  (1) 
["V-A:ALA:541:CB:4892, V-A:TYR:539:CD1:4873, V-B:LEU:475:CD1:9229, V-A:GLU:543:CD:4908, V-A:ARG:545:CD:4923, V-A:ARG:545:CG:4922, V-A:TYR:484:CZ:4346, H-A:GLU:543:OE1:4909, V-A:ARG:545:CZ:4926, V-A:HIS:456:CE1:4069, V-A:GLU:543:CG:4907, V-B:HIS:456:CE1:9041, V-B:TYR:484:CE2:9317, V-A:GLU:543:CB:4906, V-B:GLU:543:CB:9878, H-B:TYR:484:OH:9319, V-B:PRO:482:CB:9297, V-A:TYR:539:CB:4871, V-B:GLY:454:CA:9020, V-B:ILE:369:CG2:8208, V-B:ILE:369:CD1:8210, V-B:PRO:482:CG:9298, V-B:ASP:366:CG:8184, V-B:LEU:373:CD1:8251, H-B:GLU:543:OE2:9882, V-B:SER:385:CB:8380, V-B:ARG:545:CD:9895, V-B:GLY:453:C:9013, V-B:GLY:453:CA:9015, V-B:ARG:545:CZ:9898, V-A:TYR:539:CG:4872"]

$$$$
4dj_Grossjean_2025
     RDKit          3D

 39 42  0  0  0  0  0  0  0  0999 V2000
  125.2540  129.2750   61.5130 C   0  0  0  0  0  0  0  0  0  0  0  0
  125.7740  130.5460   62.1690 C   0  0  0  0  0  0  0  0  0  0  0  0
  125.6100  131.7560   61.4850 C   0  0  0  0  0  0  0  0  0  0  0  0
  126.0680  132.9600   62.0340 C   0  0  0  0  0  0  0  0  0  0  0  0
  125.9010  134.2740   61.3260 C   0  0  0  0  0  0  0  0  0  0  0  0
  126.9120  135.2490   61.3680 C   0  0  0  0  0  0  0  0  0  0  0  0
  126.7650  136.4690   60.7140 C   0  0  0  0  0  0  0  0  0  0  0  0
  125.5960  136.7360   60.0080 C   0  0  0  0  0  0  0  0  0  0  0  0
  124.5760  135.7910   59.9530 C   0  0  0  0  0  0  0  0  0  0  0  0
  124.7290  134.5720   60.6070 C   0  0  0  0  0  0  0  0  0  0  0  0
  126.6710  133.0110   63.2530 N   0  0  0  0  0  0  0  0  0  0  0  0
  126.8280  131.8600   63.9040 C   0  0  0  0  0  0  0  0  0  0  0  0
  127.5940  131.7790   65.4750 S   0  0  0  0  0  0  0  0  0  0  0  0
  127.3740  130.0290   65.5450 C   0  0  0  0  0  0  0  0  0  0  0  0
  127.8480  129.2700   66.7030 C   0  0  0  0  0  0  0  0  0  0  0  0
  128.1450  129.8440   67.7550 O   0  0  0  0  0  0  0  0  0  0  0  0
  127.9380  127.9290   66.5250 N   0  0  0  0  0  0  0  0  0  0  0  0
  128.3580  126.9890   67.4550 C   0  0  0  0  0  0  0  0  0  0  0  0
  128.0830  126.9470   68.7420 N   0  0  0  0  0  0  0  0  0  0  0  0
  128.6510  125.9100   69.3250 C   0  0  0  0  0  0  0  0  0  0  0  0
  129.4070  125.0790   68.5030 C   0  0  0  0  0  0  0  0  0  0  0  0
  129.3670  125.7010   66.8800 S   0  0  0  0  0  0  0  0  0  0  0  0
  126.7360  129.5540   64.3890 C   0  0  0  0  0  0  0  0  0  0  0  0
  126.4400  128.2320   64.1700 N   0  0  0  0  0  0  0  0  0  0  0  0
  126.4110  130.5810   63.4370 C   0  0  0  0  0  0  0  0  0  0  0  0
  124.9594  128.5550   62.2908 H   0  0  0  0  0  0  0  0  0  0  0  0
  124.3821  129.5157   60.8871 H   0  0  0  0  0  0  0  0  0  0  0  0
  126.0446  128.8356   60.8871 H   0  0  0  0  0  0  0  0  0  0  0  0
  125.1146  131.7613   60.5029 H   0  0  0  0  0  0  0  0  0  0  0  0
  127.8365  135.0445   61.9279 H   0  0  0  0  0  0  0  0  0  0  0  0
  127.5691  137.2184   60.7551 H   0  0  0  0  0  0  0  0  0  0  0  0
  125.4775  137.6994   59.4905 H   0  0  0  0  0  0  0  0  0  0  0  0
  123.6528  136.0065   59.3951 H   0  0  0  0  0  0  0  0  0  0  0  0
  123.9195  133.8286   60.5609 H   0  0  0  0  0  0  0  0  0  0  0  0
  127.6780  127.5640   65.6200 H   0  0  0  0  0  0  0  0  0  0  0  0
  128.5341  125.7124   70.4008 H   0  0  0  0  0  0  0  0  0  0  0  0
  129.9430  124.1750   68.8278 H   0  0  0  0  0  0  0  0  0  0  0  0
  126.2560  127.5930   64.9300 H   0  0  0  0  0  0  0  0  0  0  0  0
  126.3960  127.8520   63.2350 H   0  0  0  0  0  0  0  0  0  0  0  0
  1  2  1  0
  2  3  2  0
  3  4  1  0
  4  5  1  0
  5  6  2  0
  6  7  1  0
  7  8  2  0
  8  9  1  0
  9 10  2  0
  4 11  2  0
 11 12  1  0
 12 13  1  0
 13 14  1  0
 14 15  1  0
 15 16  2  0
 15 17  1  0
 17 18  1  0
 18 19  2  0
 19 20  1  0
 20 21  2  0
 21 22  1  0
 14 23  2  0
 23 24  1  0
 23 25  1  0
 25  2  1  0
 10  5  1  0
 25 12  2  0
 22 18  1  0
  1 26  1  0
  1 27  1  0
  1 28  1  0
  3 29  1  0
  6 30  1  0
  7 31  1  0
  8 32  1  0
  9 33  1  0
 10 34  1  0
 17 35  1  0
 20 36  1  0
 21 37  1  0
 24 38  1  0
 24 39  1  0
M  END
>  <Binding energies>  (1) 
[-7.8]

>  <Ligand effiencies>  (1) 
[-0.2785714285714286]

>  <Interactions>  (1) 
["V-A:ALA:541:CB:4892, V-A:TYR:539:CD1:4873, V-B:LEU:475:CD1:9229, V-A:GLU:543:CD:4908, V-A:TYR:484:CZ:4346, H-A:GLU:543:OE1:4909, V-B:GLU:543:CG:9879, V-B:GLU:543:CD:9880, V-A:TYR:484:CE2:4345, V-A:HIS:456:CE1:4069, V-A:GLU:543:CG:4907, V-B:GLU:543:CA:9876, V-B:HIS:456:CE1:9041, V-B:TYR:484:CE2:9317, V-A:GLU:543:CB:4906, V-B:GLU:543:C:9874, V-B:GLU:543:CB:9878, H-B:TYR:484:OH:9319, V-B:PRO:482:CB:9297, V-A:TYR:539:CB:4871, V-B:ILE:369:CG2:8208, V-B:PRO:482:CG:9298, V-B:ASP:366:CG:8184, V-B:LEU:373:CD1:8251, V-B:ASP:366:CB:8183, H-B:GLU:543:OE2:9882, V-B:SER:385:CB:8380, V-B:ARG:545:CZ:9898, V-B:TYR:484:CZ:9318, V-A:TYR:539:CG:4872"]

$$$$
4ea_Grossjean_2025
     RDKit          3D

 52 55  0  0  0  0  0  0  0  0999 V2000
  130.1480  117.3180   60.1570 C   0  0  0  0  0  0  0  0  0  0  0  0
  131.3880  117.8230   60.9000 C   0  0  0  0  0  0  0  0  0  0  0  0
  131.9410  118.9290   60.1980 O   0  0  0  0  0  0  0  0  0  0  0  0
  132.9830  119.6350   60.7090 C   0  0  0  0  0  0  0  0  0  0  0  0
  134.1620  119.4170   60.4130 O   0  0  0  0  0  0  0  0  0  0  0  0
  132.5580  120.7070   61.6700 C   0  0  0  0  0  0  0  0  0  0  0  0
  131.1920  120.9410   61.8710 C   0  0  0  0  0  0  0  0  0  0  0  0
  130.7650  121.9280   62.7560 C   0  0  0  0  0  0  0  0  0  0  0  0
  131.6930  122.7000   63.4560 C   0  0  0  0  0  0  0  0  0  0  0  0
  131.1460  123.6670   64.3220 N   0  0  0  0  0  0  0  0  0  0  0  0
  130.2080  124.6190   64.0950 C   0  0  0  0  0  0  0  0  0  0  0  0
  129.6470  124.7970   63.0130 O   0  0  0  0  0  0  0  0  0  0  0  0
  129.8820  125.4610   65.2490 C   0  0  0  0  0  0  0  0  0  0  0  0
  130.6420  125.1650   66.8150 S   0  0  0  0  0  0  0  0  0  0  0  0
  129.7700  126.4920   67.5450 C   0  0  0  0  0  0  0  0  0  0  0  0
  129.9220  126.8140   68.8310 N   0  0  0  0  0  0  0  0  0  0  0  0
  129.1880  127.8640   69.2730 C   0  0  0  0  0  0  0  0  0  0  0  0
  129.3760  128.2120   70.7380 C   0  0  0  0  0  0  0  0  0  0  0  0
  128.3140  128.5930   68.4690 C   0  0  0  0  0  0  0  0  0  0  0  0
  128.1580  128.2520   67.1210 C   0  0  0  0  0  0  0  0  0  0  0  0
  127.2260  129.0360   66.2800 C   0  0  0  0  0  0  0  0  0  0  0  0
  125.8700  128.6960   66.2270 C   0  0  0  0  0  0  0  0  0  0  0  0
  124.9930  129.4340   65.4380 C   0  0  0  0  0  0  0  0  0  0  0  0
  125.4720  130.5110   64.6960 C   0  0  0  0  0  0  0  0  0  0  0  0
  126.8210  130.8560   64.7370 C   0  0  0  0  0  0  0  0  0  0  0  0
  127.6970  130.1170   65.5270 C   0  0  0  0  0  0  0  0  0  0  0  0
  128.9110  127.1560   66.6180 C   0  0  0  0  0  0  0  0  0  0  0  0
  128.9940  126.5470   65.3150 C   0  0  0  0  0  0  0  0  0  0  0  0
  128.2640  127.0010   64.2470 N   0  0  0  0  0  0  0  0  0  0  0  0
  133.0640  122.4720   63.2610 C   0  0  0  0  0  0  0  0  0  0  0  0
  133.4880  121.4850   62.3760 C   0  0  0  0  0  0  0  0  0  0  0  0
  129.3850  117.0073   60.8859 H   0  0  0  0  0  0  0  0  0  0  0  0
  129.7453  118.1238   59.5257 H   0  0  0  0  0  0  0  0  0  0  0  0
  130.4229  116.4602   59.5257 H   0  0  0  0  0  0  0  0  0  0  0  0
  131.1049  118.1372   61.9154 H   0  0  0  0  0  0  0  0  0  0  0  0
  132.1336  117.0166   60.9613 H   0  0  0  0  0  0  0  0  0  0  0  0
  130.4498  120.3400   61.3251 H   0  0  0  0  0  0  0  0  0  0  0  0
  129.6887  122.1002   62.9042 H   0  0  0  0  0  0  0  0  0  0  0  0
  131.5220  123.6360   65.2580 H   0  0  0  0  0  0  0  0  0  0  0  0
  128.9455  127.4152   71.3623 H   0  0  0  0  0  0  0  0  0  0  0  0
  130.4496  128.3097   70.9568 H   0  0  0  0  0  0  0  0  0  0  0  0
  128.8692  129.1634   70.9568 H   0  0  0  0  0  0  0  0  0  0  0  0
  127.7477  129.4351   68.8934 H   0  0  0  0  0  0  0  0  0  0  0  0
  125.4958  127.8423   66.8111 H   0  0  0  0  0  0  0  0  0  0  0  0
  123.9263  129.1680   65.4005 H   0  0  0  0  0  0  0  0  0  0  0  0
  124.7789  131.0943   64.0721 H   0  0  0  0  0  0  0  0  0  0  0  0
  127.1920  131.7079   64.1482 H   0  0  0  0  0  0  0  0  0  0  0  0
  128.7636  130.3839   65.5594 H   0  0  0  0  0  0  0  0  0  0  0  0
  127.3230  127.3530   64.3560 H   0  0  0  0  0  0  0  0  0  0  0  0
  128.6440  126.9990   63.3100 H   0  0  0  0  0  0  0  0  0  0  0  0
  133.8043  123.0740   63.8082 H   0  0  0  0  0  0  0  0  0  0  0  0
  134.5644  121.3129   62.2284 H   0  0  0  0  0  0  0  0  0  0  0  0
  1  2  1  0
  2  3  1  0
  3  4  1  0
  4  5  2  0
  4  6  1  0
  6  7  2  0
  7  8  1  0
  8  9  2  0
  9 10  1  0
 10 11  1  0
 11 12  2  0
 11 13  1  0
 13 14  1  0
 14 15  1  0
 15 16  2  0
 16 17  1  0
 17 18  1  0
 17 19  2  0
 19 20  1  0
 20 21  1  0
 21 22  2  0
 22 23  1  0
 23 24  2  0
 24 25  1  0
 25 26  2  0
 20 27  2  0
 27 28  1  0
 28 29  1  0
  9 30  1  0
 30 31  2  0
 31  6  1  0
 28 13  2  0
 27 15  1  0
 26 21  1  0
  1 32  1  0
  1 33  1  0
  1 34  1  0
  2 35  1  0
  2 36  1  0
  7 37  1  0
  8 38  1  0
 10 39  1  0
 18 40  1  0
 18 41  1  0
 18 42  1  0
 19 43  1  0
 22 44  1  0
 23 45  1  0
 24 46  1  0
 25 47  1  0
 26 48  1  0
 29 49  1  0
 29 50  1  0
 30 51  1  0
 31 52  1  0
M  END
>  <Binding energies>  (1) 
[-7.29]

>  <Ligand effiencies>  (1) 
[-0.21441176470588236]

>  <Interactions>  (1) 
["V-A:GLU:543:CD:4908, H-A:TYR:484:OH:4347, V-A:GLY:454:CA:4048, V-A:TYR:484:CZ:4346, H-A:GLU:543:OE1:4909, V-A:ILE:369:CG2:3236, H-A:SER:385:OG:3409, V-A:LEU:475:CD1:4257, V-A:PRO:482:CG:4326, V-B:GLU:543:CG:9879, V-B:ALA:541:CB:9864, V-B:GLU:543:CD:9880, V-B:TYR:539:C:9839, V-A:TYR:484:CE2:4345, V-A:HIS:456:CE1:4069, V-A:GLU:543:CG:4907, V-B:HIS:456:CE1:9041, V-B:TYR:484:CE2:9317, H-B:GLU:543:OE2:9882, V-B:ARG:545:CZ:9898, V-B:HIS:456:CD2:9039, V-B:TYR:539:CB:9843"]

$$$$
4eb_Grossjean_2025
     RDKit          3D

 49 52  0  0  0  0  0  0  0  0999 V2000
  130.9670  117.6240   60.2270 C   0  0  0  0  0  0  0  0  0  0  0  0
  132.3280  118.0040   60.3670 O   0  0  0  0  0  0  0  0  0  0  0  0
  132.6790  119.0810   61.1190 C   0  0  0  0  0  0  0  0  0  0  0  0
  133.7010  119.1240   61.8080 O   0  0  0  0  0  0  0  0  0  0  0  0
  131.6970  120.2140   61.0260 C   0  0  0  0  0  0  0  0  0  0  0  0
  131.9080  121.2250   60.0800 C   0  0  0  0  0  0  0  0  0  0  0  0
  131.0170  122.2880   59.9690 C   0  0  0  0  0  0  0  0  0  0  0  0
  129.8980  122.3630   60.8000 C   0  0  0  0  0  0  0  0  0  0  0  0
  129.0660  123.4820   60.5990 N   0  0  0  0  0  0  0  0  0  0  0  0
  127.7770  123.6940   60.9600 C   0  0  0  0  0  0  0  0  0  0  0  0
  127.0830  122.8770   61.5670 O   0  0  0  0  0  0  0  0  0  0  0  0
  127.2270  124.9980   60.5790 C   0  0  0  0  0  0  0  0  0  0  0  0
  126.7870  125.3230   58.9010 S   0  0  0  0  0  0  0  0  0  0  0  0
  126.2700  126.9450   59.3000 C   0  0  0  0  0  0  0  0  0  0  0  0
  125.7880  127.7790   58.3770 N   0  0  0  0  0  0  0  0  0  0  0  0
  125.4230  129.0070   58.8170 C   0  0  0  0  0  0  0  0  0  0  0  0
  124.8770  129.9400   57.7500 C   0  0  0  0  0  0  0  0  0  0  0  0
  125.5270  129.4190   60.1430 C   0  0  0  0  0  0  0  0  0  0  0  0
  126.0330  128.5410   61.1090 C   0  0  0  0  0  0  0  0  0  0  0  0
  126.1370  128.9920   62.5150 C   0  0  0  0  0  0  0  0  0  0  0  0
  127.3930  129.1600   63.1080 C   0  0  0  0  0  0  0  0  0  0  0  0
  127.4920  129.5860   64.4300 C   0  0  0  0  0  0  0  0  0  0  0  0
  126.3340  129.8420   65.1610 C   0  0  0  0  0  0  0  0  0  0  0  0
  125.0780  129.6750   64.5800 C   0  0  0  0  0  0  0  0  0  0  0  0
  124.9810  129.2490   63.2580 C   0  0  0  0  0  0  0  0  0  0  0  0
  126.4270  127.2410   60.6880 C   0  0  0  0  0  0  0  0  0  0  0  0
  126.9750  126.1130   61.3930 C   0  0  0  0  0  0  0  0  0  0  0  0
  127.2230  126.1430   62.7420 N   0  0  0  0  0  0  0  0  0  0  0  0
  129.6780  121.3550   61.7510 C   0  0  0  0  0  0  0  0  0  0  0  0
  130.5710  120.2920   61.8600 C   0  0  0  0  0  0  0  0  0  0  0  0
  130.5171  117.4984   61.2229 H   0  0  0  0  0  0  0  0  0  0  0  0
  130.4233  118.4047   59.6748 H   0  0  0  0  0  0  0  0  0  0  0  0
  130.9063  116.6746   59.6748 H   0  0  0  0  0  0  0  0  0  0  0  0
  132.7859  121.1783   59.4189 H   0  0  0  0  0  0  0  0  0  0  0  0
  131.1957  123.0747   59.2212 H   0  0  0  0  0  0  0  0  0  0  0  0
  129.5130  124.2410   60.1060 H   0  0  0  0  0  0  0  0  0  0  0  0
  124.3772  130.7940   58.2305 H   0  0  0  0  0  0  0  0  0  0  0  0
  125.7043  130.3045   57.1234 H   0  0  0  0  0  0  0  0  0  0  0  0
  124.1540  129.3972   57.1234 H   0  0  0  0  0  0  0  0  0  0  0  0
  125.2121  130.4328   60.4311 H   0  0  0  0  0  0  0  0  0  0  0  0
  128.3050  128.9550   62.5282 H   0  0  0  0  0  0  0  0  0  0  0  0
  128.4799  129.7198   64.8950 H   0  0  0  0  0  0  0  0  0  0  0  0
  126.4115  130.1787   66.2053 H   0  0  0  0  0  0  0  0  0  0  0  0
  124.1678  129.8788   65.1631 H   0  0  0  0  0  0  0  0  0  0  0  0
  123.9916  129.1142   62.7967 H   0  0  0  0  0  0  0  0  0  0  0  0
  126.4740  126.1870   63.4180 H   0  0  0  0  0  0  0  0  0  0  0  0
  128.1660  126.1210   63.1060 H   0  0  0  0  0  0  0  0  0  0  0  0
  128.7994  121.4045   62.4110 H   0  0  0  0  0  0  0  0  0  0  0  0
  130.3919  119.5052   62.6076 H   0  0  0  0  0  0  0  0  0  0  0  0
  1  2  1  0
  2  3  1  0
  3  4  2  0
  3  5  1  0
  5  6  2  0
  6  7  1  0
  7  8  2  0
  8  9  1  0
  9 10  1  0
 10 11  2  0
 10 12  1  0
 12 13  1  0
 13 14  1  0
 14 15  2  0
 15 16  1  0
 16 17  1  0
 16 18  2  0
 18 19  1  0
 19 20  1  0
 20 21  2  0
 21 22  1  0
 22 23  2  0
 23 24  1  0
 24 25  2  0
 19 26  2  0
 26 27  1  0
 27 28  1  0
  8 29  1  0
 29 30  2  0
 30  5  1  0
 27 12  2  0
 26 14  1  0
 25 20  1  0
  1 31  1  0
  1 32  1  0
  1 33  1  0
  6 34  1  0
  7 35  1  0
  9 36  1  0
 17 37  1  0
 17 38  1  0
 17 39  1  0
 18 40  1  0
 21 41  1  0
 22 42  1  0
 23 43  1  0
 24 44  1  0
 25 45  1  0
 28 46  1  0
 28 47  1  0
 29 48  1  0
 30 49  1  0
M  END
>  <Binding energies>  (1) 
[-7.41]

>  <Ligand effiencies>  (1) 
[-0.22454545454545455]

>  <Interactions>  (1) 
["V-A:TYR:539:CE1:4875, V-A:GLU:543:CD:4908, V-B:TYR:539:CD2:9846, H-A:SER:385:OG:3409, V-B:TYR:539:CE2:9848, V-A:LEU:475:CD1:4257, V-A:HIS:383:CE1:3392, H-B:ALA:541:N:9863, H-A:HIS:383:NE2:3393, V-A:PRO:482:CG:4326, H-B:GLU:543:OE1:9881, V-B:ALA:541:CB:9864, V-B:GLU:543:CD:9880, V-B:ALA:541:CA:9862, V-B:ASP:366:CG:8184, V-B:ASP:366:CB:8183, H-B:GLU:543:OE2:9882, V-B:ARG:545:CZ:9898, H-B:TYR:531:OH:9767, V-B:ASP:366:C:8179, V-A:TYR:539:CZ:4877"]

$$$$
8a_Ghoteimi_2023
     RDKit          3D

 67 71  0  0  0  0  0  0  0  0999 V2000
  130.6780  117.5520   60.1170 C   0  0  0  0  0  0  0  0  0  0  0  0
  131.6220  117.4930   61.3210 C   0  0  0  0  0  0  0  0  0  0  0  0
  132.8380  118.1580   61.0030 O   0  0  0  0  0  0  0  0  0  0  0  0
  132.8340  119.4000   60.4530 C   0  0  0  0  0  0  0  0  0  0  0  0
  133.1280  119.6230   59.2740 O   0  0  0  0  0  0  0  0  0  0  0  0
  132.4410  120.4770   61.4220 C   0  0  0  0  0  0  0  0  0  0  0  0
  131.0910  120.6390   61.7550 C   0  0  0  0  0  0  0  0  0  0  0  0
  130.6950  121.6290   62.6500 C   0  0  0  0  0  0  0  0  0  0  0  0
  131.6380  122.4780   63.2300 C   0  0  0  0  0  0  0  0  0  0  0  0
  131.1220  123.4450   64.1160 N   0  0  0  0  0  0  0  0  0  0  0  0
  130.6150  124.6780   63.8690 C   0  0  0  0  0  0  0  0  0  0  0  0
  130.5240  125.1800   62.7490 O   0  0  0  0  0  0  0  0  0  0  0  0
  130.1550  125.4120   65.0520 C   0  0  0  0  0  0  0  0  0  0  0  0
  130.9020  125.1270   66.6240 S   0  0  0  0  0  0  0  0  0  0  0  0
  129.8430  126.2870   67.3900 C   0  0  0  0  0  0  0  0  0  0  0  0
  129.9010  126.5310   68.6990 N   0  0  0  0  0  0  0  0  0  0  0  0
  129.0290  127.4480   69.1960 C   0  0  0  0  0  0  0  0  0  0  0  0
  129.0990  127.6900   70.6690 C   0  0  0  0  0  0  0  0  0  0  0  0
  129.2720  126.6300   71.5700 C   0  0  0  0  0  0  0  0  0  0  0  0
  129.3240  126.8610   72.9420 C   0  0  0  0  0  0  0  0  0  0  0  0
  129.2080  128.1540   73.4470 C   0  0  0  0  0  0  0  0  0  0  0  0
  129.2690  128.2880   74.8220 O   0  0  0  0  0  0  0  0  0  0  0  0
  128.2100  127.7660   75.6160 C   0  0  0  0  0  0  0  0  0  0  0  0
  129.0410  129.2220   72.5550 C   0  0  0  0  0  0  0  0  0  0  0  0
  128.9860  128.9880   71.1830 C   0  0  0  0  0  0  0  0  0  0  0  0
  128.1120  128.1200   68.3850 C   0  0  0  0  0  0  0  0  0  0  0  0
  128.0580  127.8790   67.0080 C   0  0  0  0  0  0  0  0  0  0  0  0
  127.0850  128.6450   66.1870 C   0  0  0  0  0  0  0  0  0  0  0  0
  125.7130  128.4820   66.3900 C   0  0  0  0  0  0  0  0  0  0  0  0
  124.7980  129.2120   65.6370 C   0  0  0  0  0  0  0  0  0  0  0  0
  125.2370  130.1220   64.6740 C   0  0  0  0  0  0  0  0  0  0  0  0
  124.2580  130.8020   63.9760 O   0  0  0  0  0  0  0  0  0  0  0  0
  123.9690  130.4210   62.6370 C   0  0  0  0  0  0  0  0  0  0  0  0
  126.6160  130.2930   64.4750 C   0  0  0  0  0  0  0  0  0  0  0  0
  127.5290  129.5620   65.2310 C   0  0  0  0  0  0  0  0  0  0  0  0
  128.9470  126.9070   66.4700 C   0  0  0  0  0  0  0  0  0  0  0  0
  129.1350  126.3730   65.1430 C   0  0  0  0  0  0  0  0  0  0  0  0
  128.3680  126.7650   64.0750 N   0  0  0  0  0  0  0  0  0  0  0  0
  132.9940  122.3210   62.9060 C   0  0  0  0  0  0  0  0  0  0  0  0
  133.3880  121.3300   62.0100 C   0  0  0  0  0  0  0  0  0  0  0  0
  129.6380  117.6170   60.4693 H   0  0  0  0  0  0  0  0  0  0  0  0
  130.9149  118.4371   59.5083 H   0  0  0  0  0  0  0  0  0  0  0  0
  130.8029  116.6443   59.5083 H   0  0  0  0  0  0  0  0  0  0  0  0
  131.1486  117.9866   62.1826 H   0  0  0  0  0  0  0  0  0  0  0  0
  131.8329  116.4426   61.5704 H   0  0  0  0  0  0  0  0  0  0  0  0
  130.3358  119.9777   61.3051 H   0  0  0  0  0  0  0  0  0  0  0  0
  129.6303  121.7428   62.9019 H   0  0  0  0  0  0  0  0  0  0  0  0
  131.1250  123.1580   65.0830 H   0  0  0  0  0  0  0  0  0  0  0  0
  129.3679  125.6029   71.1882 H   0  0  0  0  0  0  0  0  0  0  0  0
  129.4578  126.0155   73.6328 H   0  0  0  0  0  0  0  0  0  0  0  0
  128.4562  127.8874   76.6812 H   0  0  0  0  0  0  0  0  0  0  0  0
  127.2804  128.3091   75.3903 H   0  0  0  0  0  0  0  0  0  0  0  0
  128.0746  126.6979   75.3903 H   0  0  0  0  0  0  0  0  0  0  0  0
  128.9530  130.2487   72.9398 H   0  0  0  0  0  0  0  0  0  0  0  0
  128.8519  129.8345   70.4935 H   0  0  0  0  0  0  0  0  0  0  0  0
  127.4224  128.8492   68.8353 H   0  0  0  0  0  0  0  0  0  0  0  0
  125.3533  127.7724   67.1496 H   0  0  0  0  0  0  0  0  0  0  0  0
  123.7197  129.0706   65.8022 H   0  0  0  0  0  0  0  0  0  0  0  0
  123.3042  129.5446   62.6405 H   0  0  0  0  0  0  0  0  0  0  0  0
  123.4740  131.2546   62.1173 H   0  0  0  0  0  0  0  0  0  0  0  0
  124.9052  130.1690   62.1173 H   0  0  0  0  0  0  0  0  0  0  0  0
  126.9766  131.0066   63.7196 H   0  0  0  0  0  0  0  0  0  0  0  0
  128.6080  129.7077   65.0742 H   0  0  0  0  0  0  0  0  0  0  0  0
  127.4190  127.0890   64.2000 H   0  0  0  0  0  0  0  0  0  0  0  0
  128.7240  126.7480   63.1310 H   0  0  0  0  0  0  0  0  0  0  0  0
  133.7472  122.9816   63.3603 H   0  0  0  0  0  0  0  0  0  0  0  0
  134.4531  121.2146   61.7605 H   0  0  0  0  0  0  0  0  0  0  0  0
  1  2  1  0
  2  3  1  0
  3  4  1  0
  4  5  2  0
  4  6  1  0
  6  7  2  0
  7  8  1  0
  8  9  2  0
  9 10  1  0
 10 11  1  0
 11 12  2  0
 11 13  1  0
 13 14  1  0
 14 15  1  0
 15 16  2  0
 16 17  1  0
 17 18  1  0
 18 19  2  0
 19 20  1  0
 20 21  2  0
 21 22  1  0
 22 23  1  0
 21 24  1  0
 24 25  2  0
 17 26  2  0
 26 27  1  0
 27 28  1  0
 28 29  2  0
 29 30  1  0
 30 31  2  0
 31 32  1  0
 32 33  1  0
 31 34  1  0
 34 35  2  0
 27 36  2  0
 36 37  1  0
 37 38  1  0
  9 39  1  0
 39 40  2  0
 40  6  1  0
 37 13  2  0
 36 15  1  0
 25 18  1  0
 35 28  1  0
  1 41  1  0
  1 42  1  0
  1 43  1  0
  2 44  1  0
  2 45  1  0
  7 46  1  0
  8 47  1  0
 10 48  1  0
 19 49  1  0
 20 50  1  0
 23 51  1  0
 23 52  1  0
 23 53  1  0
 24 54  1  0
 25 55  1  0
 26 56  1  0
 29 57  1  0
 30 58  1  0
 33 59  1  0
 33 60  1  0
 33 61  1  0
 34 62  1  0
 35 63  1  0
 38 64  1  0
 38 65  1  0
 39 66  1  0
 40 67  1  0
M  END
>  <Binding energies>  (1) 
[-8.61]

>  <Ligand effiencies>  (1) 
[-0.20023255813953486]

>  <Interactions>  (1) 
["V-A:GLU:543:CD:4908, H-A:TYR:484:OH:4347, V-A:GLY:454:CA:4048, V-A:TYR:484:CZ:4346, H-A:GLU:543:OE1:4909, V-A:ILE:369:CG2:3236, V-B:TYR:539:CD2:9846, H-A:SER:385:OG:3409, V-A:LEU:475:CD1:4257, V-A:HIS:383:CE1:3392, V-A:PRO:482:CB:4325, H-A:HIS:383:NE2:3393, V-A:PRO:482:CG:4326, H-B:GLU:543:OE1:9881, V-B:GLU:543:CG:9879, V-B:ALA:541:CB:9864, V-B:GLU:543:CD:9880, V-B:TYR:539:C:9839, V-A:TYR:484:CE2:4345, V-A:HIS:456:CE1:4069, V-A:GLU:543:CG:4907, V-B:HIS:456:CE1:9041, H-B:GLY:454:N:9021, V-B:ILE:369:CD1:8210, V-B:ASP:366:CG:8184, H-B:GLU:543:OE2:9882, V-A:GLU:543:C:4902, V-B:ARG:545:CG:9894, V-B:ARG:545:CD:9895, V-B:ARG:545:CZ:9898, V-B:HIS:456:CD2:9039, H-A:LYS:547:NZ:4951, V-B:TYR:539:CB:9843"]

$$$$
8b_Ghoteimi_2023
     RDKit          3D

 54 58  0  0  0  0  0  0  0  0999 V2000
  127.8900  131.2070   75.0960 C   0  0  0  0  0  0  0  0  0  0  0  0
  128.9910  130.3960   74.7010 O   0  0  0  0  0  0  0  0  0  0  0  0
  129.0110  129.8610   73.4270 C   0  0  0  0  0  0  0  0  0  0  0  0
  128.3140  130.5620   72.4450 C   0  0  0  0  0  0  0  0  0  0  0  0
  128.2780  130.0980   71.1350 C   0  0  0  0  0  0  0  0  0  0  0  0
  128.9400  128.9170   70.7700 C   0  0  0  0  0  0  0  0  0  0  0  0
  128.9030  128.4120   69.3620 C   0  0  0  0  0  0  0  0  0  0  0  0
  128.2450  129.1120   68.3450 C   0  0  0  0  0  0  0  0  0  0  0  0
  128.2260  128.6190   67.0380 C   0  0  0  0  0  0  0  0  0  0  0  0
  127.5110  129.3790   65.9860 C   0  0  0  0  0  0  0  0  0  0  0  0
  126.4570  128.7900   65.2860 C   0  0  0  0  0  0  0  0  0  0  0  0
  125.7800  129.5100   64.3050 C   0  0  0  0  0  0  0  0  0  0  0  0
  126.1470  130.8230   64.0080 C   0  0  0  0  0  0  0  0  0  0  0  0
  125.4180  131.4600   63.0220 O   0  0  0  0  0  0  0  0  0  0  0  0
  125.9550  132.6240   62.4040 C   0  0  0  0  0  0  0  0  0  0  0  0
  127.2100  131.4110   64.7110 C   0  0  0  0  0  0  0  0  0  0  0  0
  127.8860  130.6910   65.6920 C   0  0  0  0  0  0  0  0  0  0  0  0
  128.8990  127.3960   66.7740 C   0  0  0  0  0  0  0  0  0  0  0  0
  129.0830  126.6210   65.5750 C   0  0  0  0  0  0  0  0  0  0  0  0
  128.5660  127.0080   64.3650 N   0  0  0  0  0  0  0  0  0  0  0  0
  129.8330  125.4500   65.7640 C   0  0  0  0  0  0  0  0  0  0  0  0
  130.2120  124.4410   64.7730 C   0  0  0  0  0  0  0  0  0  0  0  0
  131.3730  124.0270   64.7080 O   0  0  0  0  0  0  0  0  0  0  0  0
  129.2110  124.0180   63.9600 N   0  0  0  0  0  0  0  0  0  0  0  0
  129.2880  123.0740   62.9450 C   0  0  0  0  0  0  0  0  0  0  0  0
  130.4960  122.5930   62.4420 C   0  0  0  0  0  0  0  0  0  0  0  0
  130.1440  121.6940   61.4620 C   0  0  0  0  0  0  0  0  0  0  0  0
  128.7940  121.6330   61.3810 O   0  0  0  0  0  0  0  0  0  0  0  0
  128.2610  122.5120   62.3270 N   0  0  0  0  0  0  0  0  0  0  0  0
  130.3350  125.2800   67.4470 S   0  0  0  0  0  0  0  0  0  0  0  0
  129.5390  126.7740   67.8840 C   0  0  0  0  0  0  0  0  0  0  0  0
  129.5560  127.2410   69.1320 N   0  0  0  0  0  0  0  0  0  0  0  0
  129.6420  128.2180   71.7610 C   0  0  0  0  0  0  0  0  0  0  0  0
  129.6790  128.6790   73.0740 C   0  0  0  0  0  0  0  0  0  0  0  0
  127.8381  131.2452   76.1941 H   0  0  0  0  0  0  0  0  0  0  0  0
  128.0232  132.2244   74.6996 H   0  0  0  0  0  0  0  0  0  0  0  0
  126.9578  130.7781   74.6996 H   0  0  0  0  0  0  0  0  0  0  0  0
  127.7874  131.4911   72.7087 H   0  0  0  0  0  0  0  0  0  0  0  0
  127.7223  130.6654   70.3739 H   0  0  0  0  0  0  0  0  0  0  0  0
  127.7375  130.0600   68.5768 H   0  0  0  0  0  0  0  0  0  0  0  0
  126.1604  127.7546   65.5097 H   0  0  0  0  0  0  0  0  0  0  0  0
  124.9487  129.0396   63.7595 H   0  0  0  0  0  0  0  0  0  0  0  0
  126.2820  133.3329   63.1790 H   0  0  0  0  0  0  0  0  0  0  0  0
  126.8146  132.3432   61.7777 H   0  0  0  0  0  0  0  0  0  0  0  0
  125.1835  133.0957   61.7777 H   0  0  0  0  0  0  0  0  0  0  0  0
  127.5102  132.4450   64.4858 H   0  0  0  0  0  0  0  0  0  0  0  0
  128.7192  131.1579   66.2378 H   0  0  0  0  0  0  0  0  0  0  0  0
  129.0920  127.5950   63.7320 H   0  0  0  0  0  0  0  0  0  0  0  0
  127.6440  126.7240   64.0650 H   0  0  0  0  0  0  0  0  0  0  0  0
  128.3000  124.4270   64.1050 H   0  0  0  0  0  0  0  0  0  0  0  0
  131.5114  122.8721   62.7601 H   0  0  0  0  0  0  0  0  0  0  0  0
  130.8470  121.1170   60.8432 H   0  0  0  0  0  0  0  0  0  0  0  0
  130.1719  127.2908   71.4974 H   0  0  0  0  0  0  0  0  0  0  0  0
  130.2341  128.1143   73.8376 H   0  0  0  0  0  0  0  0  0  0  0  0
  1  2  1  0
  2  3  1  0
  3  4  2  0
  4  5  1  0
  5  6  2  0
  6  7  1  0
  7  8  2  0
  8  9  1  0
  9 10  1  0
 10 11  2  0
 11 12  1  0
 12 13  2  0
 13 14  1  0
 14 15  1  0
 13 16  1  0
 16 17  2  0
  9 18  2  0
 18 19  1  0
 19 20  1  0
 19 21  2  0
 21 22  1  0
 22 23  2  0
 22 24  1  0
 24 25  1  0
 25 26  1  0
 26 27  2  0
 27 28  1  0
 28 29  1  0
 21 30  1  0
 30 31  1  0
 31 32  2  0
  6 33  1  0
 33 34  2  0
 34  3  1  0
 32  7  1  0
 17 10  1  0
 31 18  1  0
 29 25  2  0
  1 35  1  0
  1 36  1  0
  1 37  1  0
  4 38  1  0
  5 39  1  0
  8 40  1  0
 11 41  1  0
 12 42  1  0
 15 43  1  0
 15 44  1  0
 15 45  1  0
 16 46  1  0
 17 47  1  0
 20 48  1  0
 20 49  1  0
 24 50  1  0
 26 51  1  0
 27 52  1  0
 33 53  1  0
 34 54  1  0
M  END
>  <Binding energies>  (1) 
[-7.35]

>  <Ligand effiencies>  (1) 
[-0.19864864864864865]

>  <Interactions>  (1) 
["V-A:ALA:541:CB:4892, V-B:LEU:475:CD1:9229, V-A:GLU:543:CD:4908, H-A:TYR:484:OH:4347, V-A:TYR:484:CZ:4346, H-A:GLU:543:OE1:4909, H-B:ALA:541:N:9863, H-B:GLU:543:OE1:9881, V-B:GLU:543:CG:9879, V-B:ALA:541:CB:9864, V-B:GLU:543:CD:9880, V-A:TYR:484:CE2:4345, V-A:HIS:456:CE1:4069, V-A:GLU:543:CG:4907, V-B:HIS:456:CE1:9041, V-B:TYR:484:CE2:9317, V-A:GLU:543:CB:4906, H-B:GLU:543:OE2:9882, V-A:GLU:543:C:4902, V-B:TYR:484:CD2:9315, V-B:ARG:545:CZ:9898, V-B:HIS:456:CG:9037, V-B:HIS:456:CD2:9039, H-A:LYS:547:NZ:4951"]

$$$$
8c_Ghoteimi_2023
     RDKit          3D

 54 58  0  0  0  0  0  0  0  0999 V2000
  130.0890  126.6710   75.6490 C   0  0  0  0  0  0  0  0  0  0  0  0
  129.8230  127.7820   74.8000 O   0  0  0  0  0  0  0  0  0  0  0  0
  129.6500  127.5690   73.4450 C   0  0  0  0  0  0  0  0  0  0  0  0
  130.0110  128.6160   72.5990 C   0  0  0  0  0  0  0  0  0  0  0  0
  129.8690  128.4910   71.2200 C   0  0  0  0  0  0  0  0  0  0  0  0
  129.3610  127.3140   70.6510 C   0  0  0  0  0  0  0  0  0  0  0  0
  129.2030  127.1760   69.1700 C   0  0  0  0  0  0  0  0  0  0  0  0
  128.2300  127.8880   68.4630 C   0  0  0  0  0  0  0  0  0  0  0  0
  128.1040  127.7420   67.0770 C   0  0  0  0  0  0  0  0  0  0  0  0
  127.0570  128.5050   66.3590 C   0  0  0  0  0  0  0  0  0  0  0  0
  127.4120  129.4480   65.3920 C   0  0  0  0  0  0  0  0  0  0  0  0
  126.4270  130.1570   64.7120 C   0  0  0  0  0  0  0  0  0  0  0  0
  125.0760  129.9380   64.9880 C   0  0  0  0  0  0  0  0  0  0  0  0
  124.1690  130.6850   64.2620 O   0  0  0  0  0  0  0  0  0  0  0  0
  124.0330  130.4480   62.8650 C   0  0  0  0  0  0  0  0  0  0  0  0
  124.7220  128.9930   65.9630 C   0  0  0  0  0  0  0  0  0  0  0  0
  125.7080  128.2830   66.6430 C   0  0  0  0  0  0  0  0  0  0  0  0
  128.9950  126.8560   66.4150 C   0  0  0  0  0  0  0  0  0  0  0  0
  129.1480  126.4760   65.0360 C   0  0  0  0  0  0  0  0  0  0  0  0
  128.3500  126.9840   64.0410 N   0  0  0  0  0  0  0  0  0  0  0  0
  130.1780  125.5490   64.8110 C   0  0  0  0  0  0  0  0  0  0  0  0
  130.6100  124.9550   63.5440 C   0  0  0  0  0  0  0  0  0  0  0  0
  130.2230  125.4140   62.4680 O   0  0  0  0  0  0  0  0  0  0  0  0
  131.4440  123.8910   63.6560 N   0  0  0  0  0  0  0  0  0  0  0  0
  131.9970  123.1530   62.6200 C   0  0  0  0  0  0  0  0  0  0  0  0
  131.4230  122.2120   61.9010 N   0  0  0  0  0  0  0  0  0  0  0  0
  132.2470  121.7230   60.9960 C   0  0  0  0  0  0  0  0  0  0  0  0
  133.5250  122.2700   60.9670 C   0  0  0  0  0  0  0  0  0  0  0  0
  133.6460  123.4900   62.2000 S   0  0  0  0  0  0  0  0  0  0  0  0
  130.9930  125.1260   66.3180 S   0  0  0  0  0  0  0  0  0  0  0  0
  129.9500  126.1870   67.2350 C   0  0  0  0  0  0  0  0  0  0  0  0
  130.0690  126.3240   68.5560 N   0  0  0  0  0  0  0  0  0  0  0  0
  129.0040  126.2650   71.5080 C   0  0  0  0  0  0  0  0  0  0  0  0
  129.1440  126.3870   72.8880 C   0  0  0  0  0  0  0  0  0  0  0  0
  130.0135  126.9864   76.7001 H   0  0  0  0  0  0  0  0  0  0  0  0
  129.3561  125.8749   75.4515 H   0  0  0  0  0  0  0  0  0  0  0  0
  131.1030  126.2931   75.4515 H   0  0  0  0  0  0  0  0  0  0  0  0
  130.4112  129.5482   73.0243 H   0  0  0  0  0  0  0  0  0  0  0  0
  130.1594  129.3273   70.5671 H   0  0  0  0  0  0  0  0  0  0  0  0
  127.5561  128.5704   69.0018 H   0  0  0  0  0  0  0  0  0  0  0  0
  128.4732  129.6306   65.1674 H   0  0  0  0  0  0  0  0  0  0  0  0
  126.7150  130.8965   63.9503 H   0  0  0  0  0  0  0  0  0  0  0  0
  123.4914  129.5042   62.7042 H   0  0  0  0  0  0  0  0  0  0  0  0
  123.4723  131.2754   62.4056 H   0  0  0  0  0  0  0  0  0  0  0  0
  125.0303  130.3813   62.4056 H   0  0  0  0  0  0  0  0  0  0  0  0
  123.6612  128.8124   66.1910 H   0  0  0  0  0  0  0  0  0  0  0  0
  125.4232  127.5444   67.4068 H   0  0  0  0  0  0  0  0  0  0  0  0
  127.4100  127.3020   64.2300 H   0  0  0  0  0  0  0  0  0  0  0  0
  128.6720  127.0550   63.0860 H   0  0  0  0  0  0  0  0  0  0  0  0
  131.6990  123.5990   64.5880 H   0  0  0  0  0  0  0  0  0  0  0  0
  131.9407  120.9263   60.3021 H   0  0  0  0  0  0  0  0  0  0  0  0
  134.3294  121.9781   60.2758 H   0  0  0  0  0  0  0  0  0  0  0  0
  128.6070  125.3307   71.0843 H   0  0  0  0  0  0  0  0  0  0  0  0
  128.8562  125.5520   73.5437 H   0  0  0  0  0  0  0  0  0  0  0  0
  1  2  1  0
  2  3  1  0
  3  4  2  0
  4  5  1  0
  5  6  2  0
  6  7  1  0
  7  8  2  0
  8  9  1  0
  9 10  1  0
 10 11  2  0
 11 12  1  0
 12 13  2  0
 13 14  1  0
 14 15  1  0
 13 16  1  0
 16 17  2  0
  9 18  2  0
 18 19  1  0
 19 20  1  0
 19 21  2  0
 21 22  1  0
 22 23  2  0
 22 24  1  0
 24 25  1  0
 25 26  2  0
 26 27  1  0
 27 28  2  0
 28 29  1  0
 21 30  1  0
 30 31  1  0
 31 32  2  0
  6 33  1  0
 33 34  2  0
 34  3  1  0
 32  7  1  0
 17 10  1  0
 31 18  1  0
 29 25  1  0
  1 35  1  0
  1 36  1  0
  1 37  1  0
  4 38  1  0
  5 39  1  0
  8 40  1  0
 11 41  1  0
 12 42  1  0
 15 43  1  0
 15 44  1  0
 15 45  1  0
 16 46  1  0
 17 47  1  0
 20 48  1  0
 20 49  1  0
 24 50  1  0
 27 51  1  0
 28 52  1  0
 33 53  1  0
 34 54  1  0
M  END
>  <Binding energies>  (1) 
[-6.82]

>  <Ligand effiencies>  (1) 
[-0.18432432432432433]

>  <Interactions>  (1) 
["V-A:GLU:543:CD:4908, H-A:TYR:484:OH:4347, V-A:TYR:484:CZ:4346, V-A:ILE:369:CD1:3238, H-A:GLU:543:OE1:4909, V-A:ILE:369:CG2:3236, V-B:GLU:543:CD:9880, V-A:TYR:484:CE2:4345, V-A:HIS:456:CE1:4069, V-A:GLU:543:CG:4907, V-B:HIS:456:CE1:9041, H-B:TYR:484:OH:9319, H-B:GLY:454:N:9021, V-B:ILE:369:CD1:8210, H-B:GLU:543:OE2:9882, V-A:GLU:543:C:4902, V-B:ARG:545:CG:9894, V-B:ARG:545:CD:9895, V-B:ARG:545:CZ:9898, V-B:HIS:456:CD2:9039, H-A:LYS:547:NZ:4951"]

$$$$
8d_Ghoteimi_2023
     RDKit          3D

 50 53  0  0  0  0  0  0  0  0999 V2000
  131.1080  117.7820   60.5010 C   0  0  0  0  0  0  0  0  0  0  0  0
  132.0210  118.5590   59.7390 O   0  0  0  0  0  0  0  0  0  0  0  0
  132.9910  119.2900   60.3490 C   0  0  0  0  0  0  0  0  0  0  0  0
  134.1970  119.0460   60.2600 O   0  0  0  0  0  0  0  0  0  0  0  0
  132.4510  120.4180   61.1380 C   0  0  0  0  0  0  0  0  0  0  0  0
  133.3810  121.0730   62.4870 S   0  0  0  0  0  0  0  0  0  0  0  0
  132.1340  122.2510   62.8250 C   0  0  0  0  0  0  0  0  0  0  0  0
  132.2470  123.1290   63.8230 N   0  0  0  0  0  0  0  0  0  0  0  0
  131.2200  124.0030   63.9970 C   0  0  0  0  0  0  0  0  0  0  0  0
  131.3700  124.9730   65.1260 C   0  0  0  0  0  0  0  0  0  0  0  0
  130.2720  125.3400   65.9170 C   0  0  0  0  0  0  0  0  0  0  0  0
  130.4160  126.2440   66.9650 C   0  0  0  0  0  0  0  0  0  0  0  0
  131.6600  126.8050   67.2510 C   0  0  0  0  0  0  0  0  0  0  0  0
  131.7100  127.6910   68.3100 O   0  0  0  0  0  0  0  0  0  0  0  0
  130.4950  128.1120   68.9210 C   0  0  0  0  0  0  0  0  0  0  0  0
  132.7660  126.4430   66.4680 C   0  0  0  0  0  0  0  0  0  0  0  0
  132.6170  125.5380   65.4200 C   0  0  0  0  0  0  0  0  0  0  0  0
  130.0850  123.9930   63.1820 C   0  0  0  0  0  0  0  0  0  0  0  0
  129.9680  123.0750   62.1340 C   0  0  0  0  0  0  0  0  0  0  0  0
  128.7560  123.0950   61.2820 C   0  0  0  0  0  0  0  0  0  0  0  0
  128.8690  123.3060   59.9060 C   0  0  0  0  0  0  0  0  0  0  0  0
  127.7290  123.3340   59.1060 C   0  0  0  0  0  0  0  0  0  0  0  0
  126.4650  123.1470   59.6670 C   0  0  0  0  0  0  0  0  0  0  0  0
  125.3930  123.1920   58.7980 O   0  0  0  0  0  0  0  0  0  0  0  0
  124.2610  123.9870   59.1310 C   0  0  0  0  0  0  0  0  0  0  0  0
  126.3550  122.9310   61.0510 C   0  0  0  0  0  0  0  0  0  0  0  0
  127.4950  122.9050   61.8490 C   0  0  0  0  0  0  0  0  0  0  0  0
  131.0300  122.1540   61.9310 C   0  0  0  0  0  0  0  0  0  0  0  0
  131.2380  121.0990   60.9790 C   0  0  0  0  0  0  0  0  0  0  0  0
  130.3210  120.7890   60.0070 N   0  0  0  0  0  0  0  0  0  0  0  0
  131.2960  117.9420   61.5729 H   0  0  0  0  0  0  0  0  0  0  0  0
  130.0784  118.0851   60.2601 H   0  0  0  0  0  0  0  0  0  0  0  0
  131.2426  116.7172   60.2601 H   0  0  0  0  0  0  0  0  0  0  0  0
  129.2829  124.9072   65.7061 H   0  0  0  0  0  0  0  0  0  0  0  0
  129.5412  126.5183   67.5728 H   0  0  0  0  0  0  0  0  0  0  0  0
  130.6026  128.0747   70.0151 H   0  0  0  0  0  0  0  0  0  0  0  0
  130.2658  129.1419   68.6100 H   0  0  0  0  0  0  0  0  0  0  0  0
  129.6777  127.4447   68.6100 H   0  0  0  0  0  0  0  0  0  0  0  0
  133.7545  126.8754   66.6824 H   0  0  0  0  0  0  0  0  0  0  0  0
  133.4926  125.2627   64.8137 H   0  0  0  0  0  0  0  0  0  0  0  0
  129.2755  124.7145   63.3668 H   0  0  0  0  0  0  0  0  0  0  0  0
  129.8608  123.4505   59.4528 H   0  0  0  0  0  0  0  0  0  0  0  0
  127.8259  123.5048   58.0237 H   0  0  0  0  0  0  0  0  0  0  0  0
  124.1679  124.0524   60.2251 H   0  0  0  0  0  0  0  0  0  0  0  0
  124.3861  124.9966   58.7127 H   0  0  0  0  0  0  0  0  0  0  0  0
  123.3538  123.5266   58.7127 H   0  0  0  0  0  0  0  0  0  0  0  0
  125.3644  122.7819   61.5054 H   0  0  0  0  0  0  0  0  0  0  0  0
  127.4017  122.7339   62.9316 H   0  0  0  0  0  0  0  0  0  0  0  0
  129.4050  121.2140   59.9900 H   0  0  0  0  0  0  0  0  0  0  0  0
  130.5310  120.1300   59.2710 H   0  0  0  0  0  0  0  0  0  0  0  0
  1  2  1  0
  2  3  1  0
  3  4  2  0
  3  5  1  0
  5  6  1  0
  6  7  1  0
  7  8  2  0
  8  9  1  0
  9 10  1  0
 10 11  2  0
 11 12  1  0
 12 13  2  0
 13 14  1  0
 14 15  1  0
 13 16  1  0
 16 17  2  0
  9 18  2  0
 18 19  1  0
 19 20  1  0
 20 21  2  0
 21 22  1  0
 22 23  2  0
 23 24  1  0
 24 25  1  0
 23 26  1  0
 26 27  2  0
 19 28  2  0
 28 29  1  0
 29 30  1  0
 29  5  2  0
 28  7  1  0
 17 10  1  0
 27 20  1  0
  1 31  1  0
  1 32  1  0
  1 33  1  0
 11 34  1  0
 12 35  1  0
 15 36  1  0
 15 37  1  0
 15 38  1  0
 16 39  1  0
 17 40  1  0
 18 41  1  0
 21 42  1  0
 22 43  1  0
 25 44  1  0
 25 45  1  0
 25 46  1  0
 26 47  1  0
 27 48  1  0
 30 49  1  0
 30 50  1  0
M  END
>  <Binding energies>  (1) 
[-6.83]

>  <Ligand effiencies>  (1) 
[-0.2134375]

>  <Interactions>  (1) 
["V-A:GLU:543:CD:4908, V-A:ARG:545:CD:4923, V-A:ARG:545:CG:4922, H-A:TYR:484:OH:4347, V-A:GLY:454:CA:4048, V-A:ARG:545:CZ:4926, V-A:ILE:369:CG2:3236, V-B:TYR:539:CD2:9846, H-A:SER:385:OG:3409, V-B:TYR:539:CE2:9848, V-A:LEU:475:CD1:4257, V-A:HIS:383:CE1:3392, H-A:HIS:383:NE2:3393, H-B:TYR:539:O:9840, V-A:PRO:482:CG:4326, V-B:PRO:540:CA:9855, V-B:LEU:363:CD1:8160, V-B:ALA:541:CB:9864, V-B:GLU:543:CD:9880, V-B:PRO:540:CB:9857, V-B:TYR:539:C:9839, V-A:HIS:456:CE1:4069, V-A:GLU:543:CB:4906, H-A:HIS:456:ND1:4066, V-B:ASP:366:CG:8184, V-B:ASP:366:CB:8183, V-A:GLU:543:C:4902, V-A:GLU:543:CA:4904, V-B:LEU:363:CA:8156, V-B:PRO:540:C:9853, V-B:LEU:363:CB:8158"]

$$$$
9a_Ghoteimi_2023
     RDKit          3D

 85 91  0  0  0  0  0  0  0  0999 V2000
  130.4600  133.7300   73.4020 C   0  0  0  0  0  0  0  0  0  0  0  0
  129.4490  133.7960   74.5520 C   0  0  0  0  0  0  0  0  0  0  0  0
  129.3810  132.5290   75.1960 O   0  0  0  0  0  0  0  0  0  0  0  0
  128.3330  131.6920   74.9880 C   0  0  0  0  0  0  0  0  0  0  0  0
  127.3980  131.5610   75.7850 O   0  0  0  0  0  0  0  0  0  0  0  0
  128.4260  130.9340   73.6950 C   0  0  0  0  0  0  0  0  0  0  0  0
  128.9380  129.6310   73.7000 C   0  0  0  0  0  0  0  0  0  0  0  0
  129.0380  128.9030   72.5180 C   0  0  0  0  0  0  0  0  0  0  0  0
  128.6270  129.4610   71.3070 C   0  0  0  0  0  0  0  0  0  0  0  0
  128.7750  128.6340   70.1770 N   0  0  0  0  0  0  0  0  0  0  0  0
  128.7830  127.2810   70.0720 C   0  0  0  0  0  0  0  0  0  0  0  0
  128.6500  126.5130   71.0250 O   0  0  0  0  0  0  0  0  0  0  0  0
  128.9570  126.7600   68.7130 C   0  0  0  0  0  0  0  0  0  0  0  0
  129.7410  125.2020   68.4510 S   0  0  0  0  0  0  0  0  0  0  0  0
  129.5350  125.3380   66.7210 C   0  0  0  0  0  0  0  0  0  0  0  0
  129.9410  124.3770   65.8910 N   0  0  0  0  0  0  0  0  0  0  0  0
  129.7230  124.5750   64.5640 C   0  0  0  0  0  0  0  0  0  0  0  0
  130.1770  123.4810   63.6530 C   0  0  0  0  0  0  0  0  0  0  0  0
  129.2740  122.8580   62.7850 C   0  0  0  0  0  0  0  0  0  0  0  0
  129.6880  121.8380   61.9330 C   0  0  0  0  0  0  0  0  0  0  0  0
  131.0250  121.4120   61.9070 C   0  0  0  0  0  0  0  0  0  0  0  0
  131.4530  120.3760   61.0700 N   0  0  0  0  0  0  0  0  0  0  0  0
  132.8750  120.2120   60.7090 C   0  0  0  0  0  0  0  0  0  0  0  0
  133.1090  119.2650   59.5140 C   0  0  0  0  0  0  0  0  0  0  0  0
  132.4990  118.0090   59.7620 O   0  0  0  0  0  0  0  0  0  0  0  0
  131.0980  118.1390   59.9470 C   0  0  0  0  0  0  0  0  0  0  0  0
  130.8090  119.0490   61.1580 C   0  0  0  0  0  0  0  0  0  0  0  0
  131.9240  122.0300   62.7900 C   0  0  0  0  0  0  0  0  0  0  0  0
  131.5080  123.0470   63.6430 C   0  0  0  0  0  0  0  0  0  0  0  0
  129.1280  125.7390   64.0720 C   0  0  0  0  0  0  0  0  0  0  0  0
  128.7180  126.7590   64.9380 C   0  0  0  0  0  0  0  0  0  0  0  0
  128.1240  127.9910   64.3600 C   0  0  0  0  0  0  0  0  0  0  0  0
  128.7140  128.6160   63.2580 C   0  0  0  0  0  0  0  0  0  0  0  0
  128.1480  129.7620   62.7090 C   0  0  0  0  0  0  0  0  0  0  0  0
  126.9640  130.3050   63.2350 C   0  0  0  0  0  0  0  0  0  0  0  0
  126.3840  131.4610   62.7080 N   0  0  0  0  0  0  0  0  0  0  0  0
  124.9430  131.4610   62.3870 C   0  0  0  0  0  0  0  0  0  0  0  0
  124.3620  132.8760   62.1820 C   0  0  0  0  0  0  0  0  0  0  0  0
  125.1020  133.5650   61.1860 O   0  0  0  0  0  0  0  0  0  0  0  0
  126.4680  133.7020   61.5480 C   0  0  0  0  0  0  0  0  0  0  0  0
  127.1050  132.3080   61.7360 C   0  0  0  0  0  0  0  0  0  0  0  0
  126.3790  129.6680   64.3380 C   0  0  0  0  0  0  0  0  0  0  0  0
  126.9470  128.5240   64.8910 C   0  0  0  0  0  0  0  0  0  0  0  0
  128.9040  126.5560   66.3360 C   0  0  0  0  0  0  0  0  0  0  0  0
  128.5630  127.3400   67.4980 C   0  0  0  0  0  0  0  0  0  0  0  0
  127.8990  128.5370   67.4110 N   0  0  0  0  0  0  0  0  0  0  0  0
  128.1090  130.7650   71.2920 C   0  0  0  0  0  0  0  0  0  0  0  0
  128.0100  131.4920   72.4760 C   0  0  0  0  0  0  0  0  0  0  0  0
  131.4784  133.6635   73.8124 H   0  0  0  0  0  0  0  0  0  0  0  0
  130.2551  132.8433   72.7841 H   0  0  0  0  0  0  0  0  0  0  0  0
  130.3721  134.6358   72.7841 H   0  0  0  0  0  0  0  0  0  0  0  0
  129.7675  134.5594   75.2771 H   0  0  0  0  0  0  0  0  0  0  0  0
  128.4577  134.0594   74.1545 H   0  0  0  0  0  0  0  0  0  0  0  0
  129.2646  129.1780   74.6477 H   0  0  0  0  0  0  0  0  0  0  0  0
  129.4438  127.8808   72.5387 H   0  0  0  0  0  0  0  0  0  0  0  0
  128.8900  129.1400   69.3110 H   0  0  0  0  0  0  0  0  0  0  0  0
  128.2218  123.1787   62.7756 H   0  0  0  0  0  0  0  0  0  0  0  0
  128.9546  121.3576   61.2687 H   0  0  0  0  0  0  0  0  0  0  0  0
  133.2841  121.2006   60.4533 H   0  0  0  0  0  0  0  0  0  0  0  0
  133.3761  119.7608   61.5781 H   0  0  0  0  0  0  0  0  0  0  0  0
  132.6727  119.7088   58.6070 H   0  0  0  0  0  0  0  0  0  0  0  0
  134.1905  119.1194   59.3758 H   0  0  0  0  0  0  0  0  0  0  0  0
  130.6506  118.5806   59.0443 H   0  0  0  0  0  0  0  0  0  0  0  0
  130.6638  117.1450   60.1300 H   0  0  0  0  0  0  0  0  0  0  0  0
  129.7212  119.1949   61.2312 H   0  0  0  0  0  0  0  0  0  0  0  0
  131.2253  118.5474   62.0441 H   0  0  0  0  0  0  0  0  0  0  0  0
  132.9747  121.7048   62.8078 H   0  0  0  0  0  0  0  0  0  0  0  0
  132.2361  123.5175   64.3202 H   0  0  0  0  0  0  0  0  0  0  0  0
  128.9796  125.8556   62.9883 H   0  0  0  0  0  0  0  0  0  0  0  0
  129.6332  128.1984   62.8213 H   0  0  0  0  0  0  0  0  0  0  0  0
  128.6342  130.2497   61.8512 H   0  0  0  0  0  0  0  0  0  0  0  0
  124.7915  130.8843   61.4626 H   0  0  0  0  0  0  0  0  0  0  0  0
  124.4186  131.0152   63.2451 H   0  0  0  0  0  0  0  0  0  0  0  0
  123.3116  132.7961   61.8654 H   0  0  0  0  0  0  0  0  0  0  0  0
  124.4250  133.4328   63.1286 H   0  0  0  0  0  0  0  0  0  0  0  0
  127.0031  134.2433   60.7539 H   0  0  0  0  0  0  0  0  0  0  0  0
  126.5377  134.2620   62.4922 H   0  0  0  0  0  0  0  0  0  0  0  0
  127.1127  131.7939   60.7635 H   0  0  0  0  0  0  0  0  0  0  0  0
  128.1196  132.4647   62.1309 H   0  0  0  0  0  0  0  0  0  0  0  0
  125.4562  130.0788   64.7735 H   0  0  0  0  0  0  0  0  0  0  0  0
  126.4660  128.0364   65.7517 H   0  0  0  0  0  0  0  0  0  0  0  0
  128.3880  129.4080   67.2640 H   0  0  0  0  0  0  0  0  0  0  0  0
  126.8930  128.5870   67.4930 H   0  0  0  0  0  0  0  0  0  0  0  0
  127.7804  131.2141   70.3431 H   0  0  0  0  0  0  0  0  0  0  0  0
  127.6019  132.5133   72.4556 H   0  0  0  0  0  0  0  0  0  0  0  0
  1  2  1  0
  2  3  1  0
  3  4  1  0
  4  5  2  0
  4  6  1  0
  6  7  2  0
  7  8  1  0
  8  9  2  0
  9 10  1  0
 10 11  1  0
 11 12  2  0
 11 13  1  0
 13 14  1  0
 14 15  1  0
 15 16  2  0
 16 17  1  0
 17 18  1  0
 18 19  2  0
 19 20  1  0
 20 21  2  0
 21 22  1  0
 22 23  1  0
 23 24  1  0
 24 25  1  0
 25 26  1  0
 26 27  1  0
 21 28  1  0
 28 29  2  0
 17 30  2  0
 30 31  1  0
 31 32  1  0
 32 33  2  0
 33 34  1  0
 34 35  2  0
 35 36  1  0
 36 37  1  0
 37 38  1  0
 38 39  1  0
 39 40  1  0
 40 41  1  0
 35 42  1  0
 42 43  2  0
 31 44  2  0
 44 45  1  0
 45 46  1  0
  9 47  1  0
 47 48  2  0
 48  6  1  0
 45 13  2  0
 44 15  1  0
 29 18  1  0
 43 32  1  0
 27 22  1  0
 41 36  1  0
  1 49  1  0
  1 50  1  0
  1 51  1  0
  2 52  1  0
  2 53  1  0
  7 54  1  0
  8 55  1  0
 10 56  1  0
 19 57  1  0
 20 58  1  0
 23 59  1  0
 23 60  1  0
 24 61  1  0
 24 62  1  0
 26 63  1  0
 26 64  1  0
 27 65  1  0
 27 66  1  0
 28 67  1  0
 29 68  1  0
 30 69  1  0
 33 70  1  0
 34 71  1  0
 37 72  1  0
 37 73  1  0
 38 74  1  0
 38 75  1  0
 40 76  1  0
 40 77  1  0
 41 78  1  0
 41 79  1  0
 42 80  1  0
 43 81  1  0
 46 82  1  0
 46 83  1  0
 47 84  1  0
 48 85  1  0
M  END
>  <Binding energies>  (1) 
[-8.25]

>  <Ligand effiencies>  (1) 
[-0.16176470588235295]

>  <Interactions>  (1) 
["V-A:ALA:541:CB:4892, V-B:LEU:475:CD1:9229, V-A:GLU:543:CD:4908, H-A:TYR:484:OH:4347, V-A:TYR:484:CZ:4346, H-A:GLU:543:OE1:4909, V-A:ILE:369:CG2:3236, V-B:TYR:539:CD2:9846, H-A:SER:385:OG:3409, V-B:TYR:539:CE2:9848, V-A:LEU:475:CD1:4257, H-A:HIS:383:NE2:3393, V-A:PRO:482:CG:4326, V-B:GLU:543:CG:9879, V-B:ALA:541:CB:9864, V-B:GLU:543:CD:9880, V-A:TYR:484:CE2:4345, V-A:HIS:456:CE1:4069, V-B:HIS:456:CE1:9041, V-B:TYR:484:CE2:9317, V-B:GLU:543:CB:9878, H-B:TYR:484:OH:9319, V-B:ILE:369:CG2:8208, V-B:ILE:369:CD1:8210, V-A:GLU:543:C:4902, V-B:TYR:484:CD2:9315, V-B:HIS:456:CG:9037, V-B:HIS:456:CD2:9039, H-A:GLU:543:O:4903, H-B:HIS:456:NE2:9042, H-A:LYS:547:NZ:4951, V-B:TYR:539:CB:9843, V-B:TYR:484:CB:9312, V-B:TYR:484:CG:9313, H-B:LYS:471:NZ:9192"]

$$$$
9b_Ghoteimi_2023
     RDKit          3D

 72 78  0  0  0  0  0  0  0  0999 V2000
  127.3000  129.5080   66.8570 N   0  0  0  0  0  0  0  0  0  0  0  0
  127.5270  128.9790   65.6110 C   0  0  0  0  0  0  0  0  0  0  0  0
  127.0850  129.5810   64.4230 C   0  0  0  0  0  0  0  0  0  0  0  0
  126.3520  130.8380   64.2530 C   0  0  0  0  0  0  0  0  0  0  0  0
  126.0400  131.5210   65.2300 O   0  0  0  0  0  0  0  0  0  0  0  0
  126.0540  131.1700   62.9720 N   0  0  0  0  0  0  0  0  0  0  0  0
  125.3630  132.2890   62.5260 C   0  0  0  0  0  0  0  0  0  0  0  0
  125.8850  133.1830   61.5920 C   0  0  0  0  0  0  0  0  0  0  0  0
  124.9050  134.1340   61.4200 C   0  0  0  0  0  0  0  0  0  0  0  0
  123.8480  133.8270   62.2110 O   0  0  0  0  0  0  0  0  0  0  0  0
  124.1510  132.6570   62.9060 N   0  0  0  0  0  0  0  0  0  0  0  0
  127.5250  128.6120   63.0160 S   0  0  0  0  0  0  0  0  0  0  0  0
  128.2800  127.4040   64.0280 C   0  0  0  0  0  0  0  0  0  0  0  0
  128.8270  126.3040   63.5120 N   0  0  0  0  0  0  0  0  0  0  0  0
  129.3720  125.4180   64.3860 C   0  0  0  0  0  0  0  0  0  0  0  0
  129.9600  124.1840   63.7830 C   0  0  0  0  0  0  0  0  0  0  0  0
  129.1830  123.3170   63.0060 C   0  0  0  0  0  0  0  0  0  0  0  0
  129.7320  122.1610   62.4590 C   0  0  0  0  0  0  0  0  0  0  0  0
  131.0760  121.8220   62.6810 C   0  0  0  0  0  0  0  0  0  0  0  0
  131.6440  120.6650   62.1360 N   0  0  0  0  0  0  0  0  0  0  0  0
  132.8870  120.7200   61.3410 C   0  0  0  0  0  0  0  0  0  0  0  0
  133.5460  119.3430   61.1190 C   0  0  0  0  0  0  0  0  0  0  0  0
  132.6130  118.4460   60.5400 O   0  0  0  0  0  0  0  0  0  0  0  0
  131.4860  118.2540   61.3790 C   0  0  0  0  0  0  0  0  0  0  0  0
  130.7630  119.5980   61.6140 C   0  0  0  0  0  0  0  0  0  0  0  0
  131.8540  122.7040   63.4440 C   0  0  0  0  0  0  0  0  0  0  0  0
  131.3060  123.8620   63.9880 C   0  0  0  0  0  0  0  0  0  0  0  0
  129.3920  125.6460   65.7650 C   0  0  0  0  0  0  0  0  0  0  0  0
  128.8360  126.8090   66.3090 C   0  0  0  0  0  0  0  0  0  0  0  0
  128.9100  127.0180   67.7780 C   0  0  0  0  0  0  0  0  0  0  0  0
  128.3620  126.0790   68.6510 C   0  0  0  0  0  0  0  0  0  0  0  0
  128.4460  126.2620   70.0280 C   0  0  0  0  0  0  0  0  0  0  0  0
  129.0810  127.3900   70.5690 C   0  0  0  0  0  0  0  0  0  0  0  0
  129.1910  127.5860   71.9480 N   0  0  0  0  0  0  0  0  0  0  0  0
  130.1250  126.7480   72.7250 C   0  0  0  0  0  0  0  0  0  0  0  0
  129.8580  126.7880   74.2450 C   0  0  0  0  0  0  0  0  0  0  0  0
  129.8850  128.1300   74.7070 O   0  0  0  0  0  0  0  0  0  0  0  0
  128.9000  128.9270   74.0660 C   0  0  0  0  0  0  0  0  0  0  0  0
  129.1390  128.9370   72.5410 C   0  0  0  0  0  0  0  0  0  0  0  0
  129.6450  128.3180   69.6810 C   0  0  0  0  0  0  0  0  0  0  0  0
  129.5600  128.1350   68.3040 C   0  0  0  0  0  0  0  0  0  0  0  0
  128.2290  127.7350   65.4150 C   0  0  0  0  0  0  0  0  0  0  0  0
  126.7720  130.3610   66.9850 H   0  0  0  0  0  0  0  0  0  0  0  0
  127.6540  129.0620   67.6910 H   0  0  0  0  0  0  0  0  0  0  0  0
  126.3680  130.5380   62.2490 H   0  0  0  0  0  0  0  0  0  0  0  0
  126.8674  133.1380   61.0992 H   0  0  0  0  0  0  0  0  0  0  0  0
  124.9692  135.0031   60.7488 H   0  0  0  0  0  0  0  0  0  0  0  0
  128.1238  123.5526   62.8252 H   0  0  0  0  0  0  0  0  0  0  0  0
  129.1025  121.5023   61.8427 H   0  0  0  0  0  0  0  0  0  0  0  0
  132.6511  121.1540   60.3581 H   0  0  0  0  0  0  0  0  0  0  0  0
  133.6041  121.3302   61.9097 H   0  0  0  0  0  0  0  0  0  0  0  0
  134.4084  119.4563   60.4456 H   0  0  0  0  0  0  0  0  0  0  0  0
  133.8789  118.9419   62.0877 H   0  0  0  0  0  0  0  0  0  0  0  0
  130.7926  117.5469   60.9003 H   0  0  0  0  0  0  0  0  0  0  0  0
  131.8221  117.8525   62.3464 H   0  0  0  0  0  0  0  0  0  0  0  0
  130.3385  119.9357   60.6571 H   0  0  0  0  0  0  0  0  0  0  0  0
  129.9907  119.4180   62.3763 H   0  0  0  0  0  0  0  0  0  0  0  0
  132.9165  122.4768   63.6158 H   0  0  0  0  0  0  0  0  0  0  0  0
  131.9395  124.5328   64.5870 H   0  0  0  0  0  0  0  0  0  0  0  0
  129.8511  124.9010   66.4315 H   0  0  0  0  0  0  0  0  0  0  0  0
  127.8596  125.1871   68.2484 H   0  0  0  0  0  0  0  0  0  0  0  0
  128.0081  125.5112   70.7022 H   0  0  0  0  0  0  0  0  0  0  0  0
  130.0302  125.7076   72.3807 H   0  0  0  0  0  0  0  0  0  0  0  0
  131.1366  127.1474   72.5604 H   0  0  0  0  0  0  0  0  0  0  0  0
  128.8703  126.3508   74.4531 H   0  0  0  0  0  0  0  0  0  0  0  0
  130.6378  126.2114   74.7641 H   0  0  0  0  0  0  0  0  0  0  0  0
  127.9030  128.5123   74.2757 H   0  0  0  0  0  0  0  0  0  0  0  0
  128.9640  129.9565   74.4481 H   0  0  0  0  0  0  0  0  0  0  0  0
  128.3212  129.4965   72.0633 H   0  0  0  0  0  0  0  0  0  0  0  0
  130.1190  129.4059   72.3684 H   0  0  0  0  0  0  0  0  0  0  0  0
  130.1622  129.2035   70.0790 H   0  0  0  0  0  0  0  0  0  0  0  0
  130.0083  128.8759   67.6257 H   0  0  0  0  0  0  0  0  0  0  0  0
  1  2  1  0
  2  3  2  0
  3  4  1  0
  4  5  2  0
  4  6  1  0
  6  7  1  0
  7  8  1  0
  8  9  2  0
  9 10  1  0
 10 11  1  0
  3 12  1  0
 12 13  1  0
 13 14  2  0
 14 15  1  0
 15 16  1  0
 16 17  2  0
 17 18  1  0
 18 19  2  0
 19 20  1  0
 20 21  1  0
 21 22  1  0
 22 23  1  0
 23 24  1  0
 24 25  1  0
 19 26  1  0
 26 27  2  0
 15 28  2  0
 28 29  1  0
 29 30  1  0
 30 31  2  0
 31 32  1  0
 32 33  2  0
 33 34  1  0
 34 35  1  0
 35 36  1  0
 36 37  1  0
 37 38  1  0
 38 39  1  0
 33 40  1  0
 40 41  2  0
 29 42  2  0
 42  2  1  0
 11  7  2  0
 42 13  1  0
 27 16  1  0
 41 30  1  0
 25 20  1  0
 39 34  1  0
  1 43  1  0
  1 44  1  0
  6 45  1  0
  8 46  1  0
  9 47  1  0
 17 48  1  0
 18 49  1  0
 21 50  1  0
 21 51  1  0
 22 52  1  0
 22 53  1  0
 24 54  1  0
 24 55  1  0
 25 56  1  0
 25 57  1  0
 26 58  1  0
 27 59  1  0
 28 60  1  0
 31 61  1  0
 32 62  1  0
 35 63  1  0
 35 64  1  0
 36 65  1  0
 36 66  1  0
 38 67  1  0
 38 68  1  0
 39 69  1  0
 39 70  1  0
 40 71  1  0
 41 72  1  0
M  END
>  <Binding energies>  (1) 
[-8.98]

>  <Ligand effiencies>  (1) 
[-0.19955555555555557]

>  <Interactions>  (1) 
["V-B:LEU:475:CD1:9229, V-A:GLU:543:CD:4908, V-A:ILE:369:CG2:3236, H-A:SER:385:OG:3409, V-A:LEU:475:CD1:4257, V-A:PRO:482:CB:4325, H-A:HIS:383:NE2:3393, V-A:PRO:482:CG:4326, V-B:GLU:543:CG:9879, V-B:ALA:541:CB:9864, V-B:GLU:543:CD:9880, V-A:SER:385:C:3404, V-A:HIS:456:CE1:4069, V-B:GLU:543:CA:9876, V-B:HIS:456:CE1:9041, V-B:TYR:484:CE2:9317, V-A:GLU:543:CB:4906, V-B:GLU:543:C:9874, V-B:GLU:543:CB:9878, H-B:TYR:484:OH:9319, H-B:GLY:454:N:9021, V-B:ILE:369:CG2:8208, V-A:SER:385:CA:3406, V-A:GLU:543:C:4902, V-B:HIS:456:CD2:9039, V-B:TYR:484:CZ:9318, H-B:HIS:456:NE2:9042, H-A:LYS:547:NZ:4951, H-B:SER:385:OG:8381, V-A:HIS:456:CD2:4067"]

$$$$
9c_Ghoteimi_2023
     RDKit          3D

 72 78  0  0  0  0  0  0  0  0999 V2000
  127.2830  129.4960   66.7870 N   0  0  0  0  0  0  0  0  0  0  0  0
  127.5240  128.9570   65.5490 C   0  0  0  0  0  0  0  0  0  0  0  0
  127.0940  129.5470   64.3510 C   0  0  0  0  0  0  0  0  0  0  0  0
  126.3580  130.8000   64.1630 C   0  0  0  0  0  0  0  0  0  0  0  0
  125.8410  131.3790   65.1210 O   0  0  0  0  0  0  0  0  0  0  0  0
  126.2910  131.2500   62.8860 N   0  0  0  0  0  0  0  0  0  0  0  0
  125.6460  132.3940   62.4360 C   0  0  0  0  0  0  0  0  0  0  0  0
  124.3980  132.7530   62.6440 N   0  0  0  0  0  0  0  0  0  0  0  0
  124.1220  133.9040   62.0610 C   0  0  0  0  0  0  0  0  0  0  0  0
  125.1620  134.5040   61.3580 C   0  0  0  0  0  0  0  0  0  0  0  0
  126.5760  133.4990   61.4740 S   0  0  0  0  0  0  0  0  0  0  0  0
  127.5520  128.5690   62.9580 S   0  0  0  0  0  0  0  0  0  0  0  0
  128.2980  127.3700   63.9870 C   0  0  0  0  0  0  0  0  0  0  0  0
  128.8550  126.2680   63.4860 N   0  0  0  0  0  0  0  0  0  0  0  0
  129.3920  125.3900   64.3730 C   0  0  0  0  0  0  0  0  0  0  0  0
  129.9900  124.1530   63.7860 C   0  0  0  0  0  0  0  0  0  0  0  0
  131.3360  123.8310   63.9930 C   0  0  0  0  0  0  0  0  0  0  0  0
  131.8910  122.6830   63.4370 C   0  0  0  0  0  0  0  0  0  0  0  0
  131.1210  121.8190   62.6400 C   0  0  0  0  0  0  0  0  0  0  0  0
  131.6630  120.6570   62.0790 N   0  0  0  0  0  0  0  0  0  0  0  0
  132.8530  120.7070   61.2050 C   0  0  0  0  0  0  0  0  0  0  0  0
  133.5110  119.3310   60.9690 C   0  0  0  0  0  0  0  0  0  0  0  0
  132.5510  118.4170   60.4650 O   0  0  0  0  0  0  0  0  0  0  0  0
  131.4810  118.2320   61.3770 C   0  0  0  0  0  0  0  0  0  0  0  0
  130.7620  119.5740   61.6320 C   0  0  0  0  0  0  0  0  0  0  0  0
  129.7690  122.1370   62.4520 C   0  0  0  0  0  0  0  0  0  0  0  0
  129.2140  123.2840   63.0130 C   0  0  0  0  0  0  0  0  0  0  0  0
  129.3960  125.6290   65.7500 C   0  0  0  0  0  0  0  0  0  0  0  0
  128.8320  126.7960   66.2780 C   0  0  0  0  0  0  0  0  0  0  0  0
  128.8900  127.0180   67.7450 C   0  0  0  0  0  0  0  0  0  0  0  0
  128.3480  126.0770   68.6220 C   0  0  0  0  0  0  0  0  0  0  0  0
  128.4150  126.2740   69.9990 C   0  0  0  0  0  0  0  0  0  0  0  0
  129.0240  127.4190   70.5340 C   0  0  0  0  0  0  0  0  0  0  0  0
  129.1130  127.6320   71.9130 N   0  0  0  0  0  0  0  0  0  0  0  0
  130.0790  126.8420   72.7030 C   0  0  0  0  0  0  0  0  0  0  0  0
  129.8050  126.8870   74.2220 C   0  0  0  0  0  0  0  0  0  0  0  0
  129.7730  128.2340   74.6700 O   0  0  0  0  0  0  0  0  0  0  0  0
  128.7570  128.9790   74.0170 C   0  0  0  0  0  0  0  0  0  0  0  0
  128.9990  128.9840   72.4920 C   0  0  0  0  0  0  0  0  0  0  0  0
  129.5840  128.3470   69.6440 C   0  0  0  0  0  0  0  0  0  0  0  0
  129.5170  128.1510   68.2670 C   0  0  0  0  0  0  0  0  0  0  0  0
  128.2310  127.7130   65.3700 C   0  0  0  0  0  0  0  0  0  0  0  0
  127.6350  129.0690   67.6330 H   0  0  0  0  0  0  0  0  0  0  0  0
  126.7410  130.3420   66.8960 H   0  0  0  0  0  0  0  0  0  0  0  0
  126.7580  130.7030   62.1770 H   0  0  0  0  0  0  0  0  0  0  0  0
  123.1249  134.3638   62.1271 H   0  0  0  0  0  0  0  0  0  0  0  0
  125.0997  135.4595   60.8165 H   0  0  0  0  0  0  0  0  0  0  0  0
  131.9644  124.4954   64.6043 H   0  0  0  0  0  0  0  0  0  0  0  0
  132.9492  122.4479   63.6242 H   0  0  0  0  0  0  0  0  0  0  0  0
  132.5506  121.1185   60.2307 H   0  0  0  0  0  0  0  0  0  0  0  0
  133.5984  121.3353   61.7145 H   0  0  0  0  0  0  0  0  0  0  0  0
  134.3296  119.4380   60.2420 H   0  0  0  0  0  0  0  0  0  0  0  0
  133.9075  118.9509   61.9221 H   0  0  0  0  0  0  0  0  0  0  0  0
  130.7654  117.5102   60.9564 H   0  0  0  0  0  0  0  0  0  0  0  0
  131.8811  117.8519   62.3285 H   0  0  0  0  0  0  0  0  0  0  0  0
  130.2762  119.8905   60.6972 H   0  0  0  0  0  0  0  0  0  0  0  0
  130.0400  119.4019   62.4438 H   0  0  0  0  0  0  0  0  0  0  0  0
  129.1353  121.4686   61.8506 H   0  0  0  0  0  0  0  0  0  0  0  0
  128.1505  123.5096   62.8458 H   0  0  0  0  0  0  0  0  0  0  0  0
  129.8484  124.8901   66.4278 H   0  0  0  0  0  0  0  0  0  0  0  0
  127.8645  125.1733   68.2226 H   0  0  0  0  0  0  0  0  0  0  0  0
  127.9846  125.5217   70.6763 H   0  0  0  0  0  0  0  0  0  0  0  0
  130.0293  125.7948   72.3698 H   0  0  0  0  0  0  0  0  0  0  0  0
  131.0735  127.2821   72.5374 H   0  0  0  0  0  0  0  0  0  0  0  0
  128.8361  126.4103   74.4317 H   0  0  0  0  0  0  0  0  0  0  0  0
  130.6070  126.3499   74.7496 H   0  0  0  0  0  0  0  0  0  0  0  0
  127.7786  128.5229   74.2285 H   0  0  0  0  0  0  0  0  0  0  0  0
  128.7755  130.0145   74.3877 H   0  0  0  0  0  0  0  0  0  0  0  0
  128.1580  129.5013   72.0071 H   0  0  0  0  0  0  0  0  0  0  0  0
  129.9575  129.4944   72.3167 H   0  0  0  0  0  0  0  0  0  0  0  0
  130.0838  129.2434   70.0398 H   0  0  0  0  0  0  0  0  0  0  0  0
  129.9605  128.8930   67.5867 H   0  0  0  0  0  0  0  0  0  0  0  0
  1  2  1  0
  2  3  2  0
  3  4  1  0
  4  5  2  0
  4  6  1  0
  6  7  1  0
  7  8  2  0
  8  9  1  0
  9 10  2  0
 10 11  1  0
  3 12  1  0
 12 13  1  0
 13 14  2  0
 14 15  1  0
 15 16  1  0
 16 17  2  0
 17 18  1  0
 18 19  2  0
 19 20  1  0
 20 21  1  0
 21 22  1  0
 22 23  1  0
 23 24  1  0
 24 25  1  0
 19 26  1  0
 26 27  2  0
 15 28  2  0
 28 29  1  0
 29 30  1  0
 30 31  2  0
 31 32  1  0
 32 33  2  0
 33 34  1  0
 34 35  1  0
 35 36  1  0
 36 37  1  0
 37 38  1  0
 38 39  1  0
 33 40  1  0
 40 41  2  0
 29 42  2  0
 42  2  1  0
 11  7  1  0
 42 13  1  0
 27 16  1  0
 41 30  1  0
 25 20  1  0
 39 34  1  0
  1 43  1  0
  1 44  1  0
  6 45  1  0
  9 46  1  0
 10 47  1  0
 17 48  1  0
 18 49  1  0
 21 50  1  0
 21 51  1  0
 22 52  1  0
 22 53  1  0
 24 54  1  0
 24 55  1  0
 25 56  1  0
 25 57  1  0
 26 58  1  0
 27 59  1  0
 28 60  1  0
 31 61  1  0
 32 62  1  0
 35 63  1  0
 35 64  1  0
 36 65  1  0
 36 66  1  0
 38 67  1  0
 38 68  1  0
 39 69  1  0
 39 70  1  0
 40 71  1  0
 41 72  1  0
M  END
>  <Binding energies>  (1) 
[-9.16]

>  <Ligand effiencies>  (1) 
[-0.20355555555555555]

>  <Interactions>  (1) 
["V-B:LEU:475:CD1:9229, V-A:GLU:543:CD:4908, V-A:ILE:369:CG2:3236, H-A:SER:385:OG:3409, V-A:LEU:475:CD1:4257, V-A:PRO:482:CB:4325, H-A:HIS:383:NE2:3393, V-A:PRO:482:CG:4326, V-B:GLU:543:CG:9879, V-B:ALA:541:CB:9864, V-B:GLU:543:CD:9880, V-A:SER:385:C:3404, V-A:HIS:456:CE1:4069, V-B:GLU:543:CA:9876, V-B:HIS:456:CE1:9041, V-B:TYR:484:CE2:9317, V-A:GLU:543:CB:4906, V-B:GLU:543:C:9874, V-B:GLU:543:CB:9878, H-B:TYR:484:OH:9319, V-B:ILE:369:CG2:8208, V-B:ILE:369:CD1:8210, V-A:SER:385:CA:3406, V-A:GLU:543:C:4902, V-B:HIS:456:CD2:9039, V-B:TYR:484:CZ:9318, H-B:HIS:456:NE2:9042, H-A:LYS:547:NZ:4951, V-A:HIS:456:CD2:4067"]

$$$$
9d_Ghoteimi_2023
     RDKit          3D

 68 73  0  0  0  0  0  0  0  0999 V2000
  124.4670  130.2500   63.2650 C   0  0  0  0  0  0  0  0  0  0  0  0
  125.0110  130.7280   64.4870 O   0  0  0  0  0  0  0  0  0  0  0  0
  126.3520  130.8880   64.6370 C   0  0  0  0  0  0  0  0  0  0  0  0
  126.9180  131.9840   64.6550 O   0  0  0  0  0  0  0  0  0  0  0  0
  127.0730  129.6030   64.7730 C   0  0  0  0  0  0  0  0  0  0  0  0
  127.3690  128.6070   63.3490 S   0  0  0  0  0  0  0  0  0  0  0  0
  128.2160  127.4170   64.3090 C   0  0  0  0  0  0  0  0  0  0  0  0
  128.7620  126.3350   63.7550 N   0  0  0  0  0  0  0  0  0  0  0  0
  129.4140  125.4790   64.5860 C   0  0  0  0  0  0  0  0  0  0  0  0
  130.0400  124.2850   63.9390 C   0  0  0  0  0  0  0  0  0  0  0  0
  129.2620  123.3910   63.1960 C   0  0  0  0  0  0  0  0  0  0  0  0
  129.8350  122.2750   62.5930 C   0  0  0  0  0  0  0  0  0  0  0  0
  131.2110  122.0180   62.6990 C   0  0  0  0  0  0  0  0  0  0  0  0
  131.7980  120.8920   62.1130 N   0  0  0  0  0  0  0  0  0  0  0  0
  130.9750  119.7960   61.5610 C   0  0  0  0  0  0  0  0  0  0  0  0
  131.7670  118.5030   61.2780 C   0  0  0  0  0  0  0  0  0  0  0  0
  132.8710  118.7840   60.4350 O   0  0  0  0  0  0  0  0  0  0  0  0
  133.7600  119.7110   61.0360 C   0  0  0  0  0  0  0  0  0  0  0  0
  133.0310  121.0430   61.3130 C   0  0  0  0  0  0  0  0  0  0  0  0
  131.9830  122.9100   63.4580 C   0  0  0  0  0  0  0  0  0  0  0  0
  131.4090  124.0240   64.0650 C   0  0  0  0  0  0  0  0  0  0  0  0
  129.4890  125.6900   65.9650 C   0  0  0  0  0  0  0  0  0  0  0  0
  128.9010  126.8160   66.5530 C   0  0  0  0  0  0  0  0  0  0  0  0
  128.9880  126.9780   68.0280 C   0  0  0  0  0  0  0  0  0  0  0  0
  128.3060  126.1080   68.8820 C   0  0  0  0  0  0  0  0  0  0  0  0
  128.4050  126.2530   70.2640 C   0  0  0  0  0  0  0  0  0  0  0  0
  129.2020  127.2620   70.8270 C   0  0  0  0  0  0  0  0  0  0  0  0
  129.3100  127.4340   72.2090 N   0  0  0  0  0  0  0  0  0  0  0  0
  129.0210  128.7580   72.7930 C   0  0  0  0  0  0  0  0  0  0  0  0
  128.7960  128.7150   74.3190 C   0  0  0  0  0  0  0  0  0  0  0  0
  129.9120  128.1120   74.9590 O   0  0  0  0  0  0  0  0  0  0  0  0
  130.1190  126.7820   74.5060 C   0  0  0  0  0  0  0  0  0  0  0  0
  130.3810  126.7790   72.9850 C   0  0  0  0  0  0  0  0  0  0  0  0
  129.8810  128.1300   69.9600 C   0  0  0  0  0  0  0  0  0  0  0  0
  129.7800  127.9860   68.5790 C   0  0  0  0  0  0  0  0  0  0  0  0
  128.2500  127.7460   65.6960 C   0  0  0  0  0  0  0  0  0  0  0  0
  127.6040  129.0120   65.9270 C   0  0  0  0  0  0  0  0  0  0  0  0
  127.5360  129.5990   67.1640 N   0  0  0  0  0  0  0  0  0  0  0  0
  123.6564  129.5377   63.4783 H   0  0  0  0  0  0  0  0  0  0  0  0
  124.0688  131.0958   62.6852 H   0  0  0  0  0  0  0  0  0  0  0  0
  125.2545  129.7464   62.6852 H   0  0  0  0  0  0  0  0  0  0  0  0
  128.1826  123.5724   63.0867 H   0  0  0  0  0  0  0  0  0  0  0  0
  129.1983  121.5821   62.0233 H   0  0  0  0  0  0  0  0  0  0  0  0
  130.1783  119.5634   62.2829 H   0  0  0  0  0  0  0  0  0  0  0  0
  130.5804  120.1471   60.5961 H   0  0  0  0  0  0  0  0  0  0  0  0
  132.1314  118.0841   62.2276 H   0  0  0  0  0  0  0  0  0  0  0  0
  131.1073  117.7782   60.7785 H   0  0  0  0  0  0  0  0  0  0  0  0
  134.1319  119.2959   61.9844 H   0  0  0  0  0  0  0  0  0  0  0  0
  134.6018  119.8969   60.3528 H   0  0  0  0  0  0  0  0  0  0  0  0
  133.7181  121.7080   61.8567 H   0  0  0  0  0  0  0  0  0  0  0  0
  132.7320  121.4539   60.3374 H   0  0  0  0  0  0  0  0  0  0  0  0
  133.0611  122.7262   63.5758 H   0  0  0  0  0  0  0  0  0  0  0  0
  132.0401  124.7080   64.6514 H   0  0  0  0  0  0  0  0  0  0  0  0
  130.0174  124.9613   66.5973 H   0  0  0  0  0  0  0  0  0  0  0  0
  127.6865  125.3028   68.4603 H   0  0  0  0  0  0  0  0  0  0  0  0
  127.8513  125.5678   70.9227 H   0  0  0  0  0  0  0  0  0  0  0  0
  129.8703  129.4250   72.5838 H   0  0  0  0  0  0  0  0  0  0  0  0
  128.0882  129.1196   72.3358 H   0  0  0  0  0  0  0  0  0  0  0  0
  128.6694  129.7401   74.6974 H   0  0  0  0  0  0  0  0  0  0  0  0
  127.8939  128.1233   74.5340 H   0  0  0  0  0  0  0  0  0  0  0  0
  130.9868  126.3506   75.0263 H   0  0  0  0  0  0  0  0  0  0  0  0
  129.2214  126.1832   74.7197 H   0  0  0  0  0  0  0  0  0  0  0  0
  131.3260  127.3079   72.7920 H   0  0  0  0  0  0  0  0  0  0  0  0
  130.4222  125.7281   72.6626 H   0  0  0  0  0  0  0  0  0  0  0  0
  130.5024  128.9362   70.3770 H   0  0  0  0  0  0  0  0  0  0  0  0
  130.3288  128.6721   67.9171 H   0  0  0  0  0  0  0  0  0  0  0  0
  128.2340  129.4280   67.8730 H   0  0  0  0  0  0  0  0  0  0  0  0
  126.7840  130.2290   67.4080 H   0  0  0  0  0  0  0  0  0  0  0  0
  1  2  1  0
  2  3  1  0
  3  4  2  0
  3  5  1  0
  5  6  1  0
  6  7  1  0
  7  8  2  0
  8  9  1  0
  9 10  1  0
 10 11  2  0
 11 12  1  0
 12 13  2  0
 13 14  1  0
 14 15  1  0
 15 16  1  0
 16 17  1  0
 17 18  1  0
 18 19  1  0
 13 20  1  0
 20 21  2  0
  9 22  2  0
 22 23  1  0
 23 24  1  0
 24 25  2  0
 25 26  1  0
 26 27  2  0
 27 28  1  0
 28 29  1  0
 29 30  1  0
 30 31  1  0
 31 32  1  0
 32 33  1  0
 27 34  1  0
 34 35  2  0
 23 36  2  0
 36 37  1  0
 37 38  1  0
 37  5  2  0
 36  7  1  0
 21 10  1  0
 35 24  1  0
 19 14  1  0
 33 28  1  0
  1 39  1  0
  1 40  1  0
  1 41  1  0
 11 42  1  0
 12 43  1  0
 15 44  1  0
 15 45  1  0
 16 46  1  0
 16 47  1  0
 18 48  1  0
 18 49  1  0
 19 50  1  0
 19 51  1  0
 20 52  1  0
 21 53  1  0
 22 54  1  0
 25 55  1  0
 26 56  1  0
 29 57  1  0
 29 58  1  0
 30 59  1  0
 30 60  1  0
 32 61  1  0
 32 62  1  0
 33 63  1  0
 33 64  1  0
 34 65  1  0
 35 66  1  0
 38 67  1  0
 38 68  1  0
M  END
>  <Binding energies>  (1) 
[-8.15]

>  <Ligand effiencies>  (1) 
[-0.20375000000000001]

>  <Interactions>  (1) 
["V-A:GLU:543:CD:4908, H-A:GLU:543:OE1:4909, V-A:ILE:369:CG2:3236, H-A:SER:385:OG:3409, V-A:LEU:475:CD1:4257, H-A:HIS:383:NE2:3393, V-A:PRO:482:CG:4326, V-B:GLU:543:CG:9879, V-B:ALA:541:CB:9864, V-B:GLU:543:CD:9880, V-A:SER:385:C:3404, V-A:HIS:456:CE1:4069, V-A:GLU:543:CG:4907, V-B:HIS:456:CE1:9041, V-B:TYR:484:CE2:9317, V-A:GLU:543:CB:4906, V-B:GLU:543:C:9874, V-B:GLU:543:CB:9878, H-B:TYR:484:OH:9319, H-B:GLY:454:N:9021, V-A:SER:385:CA:3406, V-A:GLU:543:C:4902, V-B:HIS:456:CD2:9039, V-B:TYR:484:CZ:9318, H-A:GLU:543:O:4903, H-A:LYS:547:NZ:4951, V-A:HIS:456:CD2:4067, V-A:HIS:456:CG:4065"]

$$$$
RR10_Rahimova_2017
     RDKit          3D

 66 70  0  0  0  0  0  0  0  0999 V2000
  124.1170  123.3820   61.3240 C   0  0  0  0  0  0  0  0  0  0  0  0
  125.3540  123.7630   60.4920 C   0  0  1  0  0  0  0  0  0  0  0  0
  124.9660  124.3000   59.0940 C   0  0  0  0  0  0  0  0  0  0  0  0
  126.2240  124.6420   58.2640 C   0  0  0  0  0  0  0  0  0  0  0  0
  127.1280  125.6820   58.9750 C   0  0  1  0  0  0  0  0  0  0  0  0
  126.4680  126.9930   59.0320 N   0  0  0  0  0  0  0  0  0  0  0  0
  127.0190  128.1230   59.5110 C   0  0  0  0  0  0  0  0  0  0  0  0
  128.1730  128.1780   59.9430 O   0  0  0  0  0  0  0  0  0  0  0  0
  126.1270  129.3820   59.5160 C   0  0  1  0  0  0  0  0  0  0  0  0
  125.0880  129.2810   58.3690 C   0  0  0  0  0  0  0  0  0  0  0  0
  124.1330  130.4980   58.4280 C   0  0  0  0  0  0  0  0  0  0  0  0
  123.5060  130.6920   59.8280 C   0  0  0  0  0  0  0  0  0  0  0  0
  124.5620  130.7140   60.8770 N   0  0  0  0  0  0  0  0  0  0  0  0
  123.9960  131.2260   62.4760 S   0  0  0  0  0  0  0  0  0  0  0  0
  122.8690  130.3660   62.8590 O   0  0  0  0  0  0  0  0  0  0  0  0
  123.8380  132.6850   62.4520 O   0  0  0  0  0  0  0  0  0  0  0  0
  125.3430  130.8360   63.5940 C   0  0  0  0  0  0  0  0  0  0  0  0
  126.5590  131.5160   63.4650 C   0  0  0  0  0  0  0  0  0  0  0  0
  127.6480  131.2570   64.3020 C   0  0  0  0  0  0  0  0  0  0  0  0
  127.4620  130.2810   65.2830 C   0  0  0  0  0  0  0  0  0  0  0  0
  128.2660  129.7520   66.2650 N   0  0  0  0  0  0  0  0  0  0  0  0
  127.5360  128.8000   66.9450 C   0  0  0  0  0  0  0  0  0  0  0  0
  128.0830  127.9940   68.0880 C   0  0  0  0  0  0  0  0  0  0  0  0
  128.8810  128.6010   69.0680 C   0  0  0  0  0  0  0  0  0  0  0  0
  129.3850  127.8560   70.1300 C   0  0  0  0  0  0  0  0  0  0  0  0
  129.0950  126.4970   70.2180 C   0  0  0  0  0  0  0  0  0  0  0  0
  128.3040  125.8780   69.2540 C   0  0  0  0  0  0  0  0  0  0  0  0
  127.8000  126.6250   68.1920 C   0  0  0  0  0  0  0  0  0  0  0  0
  126.3150  128.6850   66.4720 N   0  0  0  0  0  0  0  0  0  0  0  0
  126.2400  129.5850   65.4420 C   0  0  0  0  0  0  0  0  0  0  0  0
  125.1640  129.8680   64.5880 C   0  0  0  0  0  0  0  0  0  0  0  0
  125.4130  129.4970   60.8860 C   0  0  0  0  0  0  0  0  0  0  0  0
  127.4950  125.1380   60.3820 C   0  0  0  0  0  0  0  0  0  0  0  0
  126.2400  124.8010   61.2180 C   0  0  0  0  0  0  0  0  0  0  0  0
  124.3582  123.4563   62.3947 H   0  0  0  0  0  0  0  0  0  0  0  0
  123.2899  124.0670   61.0861 H   0  0  0  0  0  0  0  0  0  0  0  0
  123.8186  122.3503   61.0861 H   0  0  0  0  0  0  0  0  0  0  0  0
  125.9328  122.8364   60.3637 H   0  0  0  0  0  0  0  0  0  0  0  0
  124.3823  123.5334   58.5634 H   0  0  0  0  0  0  0  0  0  0  0  0
  124.3712  125.2163   59.2230 H   0  0  0  0  0  0  0  0  0  0  0  0
  126.8030  123.7209   58.1019 H   0  0  0  0  0  0  0  0  0  0  0  0
  125.8919  125.0782   57.3103 H   0  0  0  0  0  0  0  0  0  0  0  0
  128.0577  125.8322   58.4067 H   0  0  0  0  0  0  0  0  0  0  0  0
  125.4870  127.0040   58.7960 H   0  0  0  0  0  0  0  0  0  0  0  0
  126.7423  130.2801   59.3584 H   0  0  0  0  0  0  0  0  0  0  0  0
  125.6104  129.2716   57.4010 H   0  0  0  0  0  0  0  0  0  0  0  0
  124.5071  128.3537   58.4816 H   0  0  0  0  0  0  0  0  0  0  0  0
  124.6996  131.4039   58.1667 H   0  0  0  0  0  0  0  0  0  0  0  0
  123.3135  130.3143   57.7176 H   0  0  0  0  0  0  0  0  0  0  0  0
  122.9559  131.6444   59.8489 H   0  0  0  0  0  0  0  0  0  0  0  0
  122.8233  129.8535   60.0299 H   0  0  0  0  0  0  0  0  0  0  0  0
  126.6613  132.2792   62.6794 H   0  0  0  0  0  0  0  0  0  0  0  0
  128.6018  131.7941   64.1935 H   0  0  0  0  0  0  0  0  0  0  0  0
  129.2250  129.9800   66.4870 H   0  0  0  0  0  0  0  0  0  0  0  0
  129.1105  129.6744   68.9969 H   0  0  0  0  0  0  0  0  0  0  0  0
  130.0095  128.3385   70.8963 H   0  0  0  0  0  0  0  0  0  0  0  0
  129.4943  125.9074   71.0564 H   0  0  0  0  0  0  0  0  0  0  0  0
  128.0782  124.8042   69.3307 H   0  0  0  0  0  0  0  0  0  0  0  0
  127.1753  126.1371   67.4293 H   0  0  0  0  0  0  0  0  0  0  0  0
  124.2039  129.3423   64.6970 H   0  0  0  0  0  0  0  0  0  0  0  0
  126.1614  129.5743   61.6884 H   0  0  0  0  0  0  0  0  0  0  0  0
  124.7922  128.6061   61.0618 H   0  0  0  0  0  0  0  0  0  0  0  0
  128.0984  124.2259   60.2638 H   0  0  0  0  0  0  0  0  0  0  0  0
  128.0567  125.9207   60.9129 H   0  0  0  0  0  0  0  0  0  0  0  0
  126.5540  124.3899   62.1888 H   0  0  0  0  0  0  0  0  0  0  0  0
  125.6559  125.7221   61.3608 H   0  0  0  0  0  0  0  0  0  0  0  0
  1  2  1  0
  2  3  1  0
  3  4  1  0
  4  5  1  0
  5  6  1  0
  6  7  1  0
  7  8  2  0
  7  9  1  0
  9 10  1  0
 10 11  1  0
 11 12  1  0
 12 13  1  0
 13 14  1  0
 14 15  2  0
 14 16  2  0
 14 17  1  0
 17 18  2  0
 18 19  1  0
 19 20  2  0
 20 21  1  0
 21 22  1  0
 22 23  1  0
 23 24  2  0
 24 25  1  0
 25 26  2  0
 26 27  1  0
 27 28  2  0
 22 29  2  0
 29 30  1  0
 30 31  2  0
 13 32  1  0
  5 33  1  0
 33 34  1  0
 34  2  1  0
 32  9  1  0
 31 17  1  0
 30 20  1  0
 28 23  1  0
  1 35  1  0
  1 36  1  0
  1 37  1  0
  2 38  1  6
  3 39  1  0
  3 40  1  0
  4 41  1  0
  4 42  1  0
  5 43  1  6
  6 44  1  0
  9 45  1  6
 10 46  1  0
 10 47  1  0
 11 48  1  0
 11 49  1  0
 12 50  1  0
 12 51  1  0
 18 52  1  0
 19 53  1  0
 21 54  1  0
 24 55  1  0
 25 56  1  0
 26 57  1  0
 27 58  1  0
 28 59  1  0
 31 60  1  0
 32 61  1  0
 32 62  1  0
 33 63  1  0
 33 64  1  0
 34 65  1  0
 34 66  1  0
M  END
>  <Binding energies>  (1) 
[-9.29]

>  <Ligand effiencies>  (1) 
[-0.25805555555555554]

>  <Interactions>  (1) 
["V-A:ALA:541:CB:4892, V-A:TYR:539:CE1:4875, V-B:LEU:475:CD1:9229, V-A:GLU:543:CD:4908, H-A:GLU:543:OE1:4909, V-B:PRO:540:CA:9855, H-B:ASP:366:OD1:8185, V-B:GLU:543:CD:9880, V-B:PRO:540:CB:9857, V-A:HIS:456:CE1:4069, V-A:GLU:543:CG:4907, V-B:GLU:543:CA:9876, V-B:HIS:456:CE1:9041, V-B:TYR:484:CE2:9317, V-A:GLU:543:CB:4906, V-B:GLU:543:C:9874, V-B:GLU:543:CB:9878, H-B:TYR:484:OH:9319, H-B:GLY:454:N:9021, V-B:ILE:369:CG2:8208, V-B:ILE:369:CD1:8210, V-B:ASP:366:CG:8184, V-B:ILE:369:CB:8207, V-B:ASP:366:CB:8183, V-A:GLU:543:C:4902, V-B:ARG:545:CZ:9898, V-B:LEU:363:CA:8156, H-B:TYR:531:OH:9767, V-B:ASP:366:C:8179, V-B:ASP:366:CA:8181, V-B:ASN:362:CB:8147, V-B:ASN:362:C:8143"]

$$$$
RR11_Rahimova_2017
     RDKit          3D

 55 60  0  0  0  0  0  0  0  0999 V2000
  133.7450  123.6420   57.9160 N   0  0  0  0  0  0  0  0  0  0  0  0
  133.2470  124.0270   59.1600 C   0  0  0  0  0  0  0  0  0  0  0  0
  134.0350  123.8740   60.2990 C   0  0  0  0  0  0  0  0  0  0  0  0
  133.5380  124.2620   61.5400 C   0  0  0  0  0  0  0  0  0  0  0  0
  132.2520  124.8050   61.6540 C   0  0  0  0  0  0  0  0  0  0  0  0
  131.7200  125.2270   62.9920 C   0  0  0  0  0  0  0  0  0  0  0  0
  130.4710  125.5690   63.2210 N   0  0  0  0  0  0  0  0  0  0  0  0
  130.4160  125.8660   64.5570 C   0  0  0  0  0  0  0  0  0  0  0  0
  129.3210  126.2800   65.3290 C   0  0  0  0  0  0  0  0  0  0  0  0
  129.5180  126.5070   66.6960 C   0  0  0  0  0  0  0  0  0  0  0  0
  128.3480  126.9620   67.5580 C   0  0  0  0  0  0  0  0  0  0  0  0
  127.3900  127.8850   66.8190 C   0  0  0  0  0  0  0  0  0  0  0  0
  126.0120  127.7600   67.0310 C   0  0  0  0  0  0  0  0  0  0  0  0
  125.0940  128.5880   66.3840 C   0  0  0  0  0  0  0  0  0  0  0  0
  125.5880  129.5660   65.5100 C   0  0  0  0  0  0  0  0  0  0  0  0
  124.9030  130.4850   64.7580 N   0  0  0  0  0  0  0  0  0  0  0  0
  125.8270  131.1620   64.1100 C   0  0  0  0  0  0  0  0  0  0  0  0
  125.5430  132.2750   63.1430 C   0  0  0  0  0  0  0  0  0  0  0  0
  126.5890  132.9010   62.4530 C   0  0  0  0  0  0  0  0  0  0  0  0
  126.3260  133.9400   61.5640 C   0  0  0  0  0  0  0  0  0  0  0  0
  125.0140  134.3610   61.3590 C   0  0  0  0  0  0  0  0  0  0  0  0
  124.7510  135.4050   60.4720 N   0  0  0  0  0  0  0  0  0  0  0  0
  123.9640  133.7450   62.0350 C   0  0  0  0  0  0  0  0  0  0  0  0
  124.2280  132.7060   62.9230 C   0  0  0  0  0  0  0  0  0  0  0  0
  127.0980  130.7230   64.4160 N   0  0  0  0  0  0  0  0  0  0  0  0
  126.9840  129.6890   65.3150 C   0  0  0  0  0  0  0  0  0  0  0  0
  127.9090  128.8670   65.9640 C   0  0  0  0  0  0  0  0  0  0  0  0
  130.7850  126.3490   67.2700 C   0  0  0  0  0  0  0  0  0  0  0  0
  131.8960  125.9440   66.5270 C   0  0  0  0  0  0  0  0  0  0  0  0
  131.6820  125.7050   65.1680 C   0  0  0  0  0  0  0  0  0  0  0  0
  132.4920  125.2980   64.1330 N   0  0  0  0  0  0  0  0  0  0  0  0
  131.4700  124.9510   60.5000 C   0  0  0  0  0  0  0  0  0  0  0  0
  131.9650  124.5650   59.2570 C   0  0  0  0  0  0  0  0  0  0  0  0
  133.1310  123.1880   57.2540 H   0  0  0  0  0  0  0  0  0  0  0  0
  134.7010  123.8560   57.6760 H   0  0  0  0  0  0  0  0  0  0  0  0
  135.0460  123.4482   60.2178 H   0  0  0  0  0  0  0  0  0  0  0  0
  134.1605  124.1411   62.4388 H   0  0  0  0  0  0  0  0  0  0  0  0
  128.3310  126.4229   64.8713 H   0  0  0  0  0  0  0  0  0  0  0  0
  127.7918  126.0736   67.8916 H   0  0  0  0  0  0  0  0  0  0  0  0
  128.7632  127.5278   68.4050 H   0  0  0  0  0  0  0  0  0  0  0  0
  125.6437  126.9900   67.7248 H   0  0  0  0  0  0  0  0  0  0  0  0
  124.0131  128.4763   66.5550 H   0  0  0  0  0  0  0  0  0  0  0  0
  127.6254  132.5695   62.6145 H   0  0  0  0  0  0  0  0  0  0  0  0
  127.1520  134.4270   61.0250 H   0  0  0  0  0  0  0  0  0  0  0  0
  125.0850  135.3450   59.5200 H   0  0  0  0  0  0  0  0  0  0  0  0
  124.1990  136.1920   60.7820 H   0  0  0  0  0  0  0  0  0  0  0  0
  122.9291  134.0784   61.8678 H   0  0  0  0  0  0  0  0  0  0  0  0
  123.3979  132.2196   63.4561 H   0  0  0  0  0  0  0  0  0  0  0  0
  127.9340  131.1220   64.0150 H   0  0  0  0  0  0  0  0  0  0  0  0
  128.9920  128.9848   65.8113 H   0  0  0  0  0  0  0  0  0  0  0  0
  130.9099  126.5510   68.3441 H   0  0  0  0  0  0  0  0  0  0  0  0
  132.8870  125.8199   66.9879 H   0  0  0  0  0  0  0  0  0  0  0  0
  133.4760  125.0740   64.1530 H   0  0  0  0  0  0  0  0  0  0  0  0
  130.4574  125.3738   60.5768 H   0  0  0  0  0  0  0  0  0  0  0  0
  131.3466  124.6842   58.3552 H   0  0  0  0  0  0  0  0  0  0  0  0
  1  2  1  0
  2  3  2  0
  3  4  1  0
  4  5  2  0
  5  6  1  0
  6  7  2  0
  7  8  1  0
  8  9  2  0
  9 10  1  0
 10 11  1  0
 11 12  1  0
 12 13  2  0
 13 14  1  0
 14 15  2  0
 15 16  1  0
 16 17  2  0
 17 18  1  0
 18 19  2  0
 19 20  1  0
 20 21  2  0
 21 22  1  0
 21 23  1  0
 23 24  2  0
 17 25  1  0
 25 26  1  0
 26 27  2  0
 10 28  2  0
 28 29  1  0
 29 30  2  0
 30 31  1  0
  5 32  1  0
 32 33  2  0
 33  2  1  0
 31  6  1  0
 30  8  1  0
 27 12  1  0
 26 15  1  0
 24 18  1  0
  1 34  1  0
  1 35  1  0
  3 36  1  0
  4 37  1  0
  9 38  1  0
 11 39  1  0
 11 40  1  0
 13 41  1  0
 14 42  1  0
 19 43  1  0
 20 44  1  0
 22 45  1  0
 22 46  1  0
 23 47  1  0
 24 48  1  0
 25 49  1  0
 27 50  1  0
 28 51  1  0
 29 52  1  0
 31 53  1  0
 32 54  1  0
 33 55  1  0
M  END
>  <Binding energies>  (1) 
[-8.86]

>  <Ligand effiencies>  (1) 
[-0.22717948717948716]

>  <Interactions>  (1) 
["V-A:ALA:541:CB:4892, V-A:TYR:539:CD1:4873, V-B:LEU:475:CD1:9229, V-A:GLU:543:CD:4908, V-A:ASP:366:CG:3212, H-A:TYR:484:OH:4347, V-A:ASP:366:CA:3209, V-A:ASP:366:CB:3211, V-A:TYR:484:CZ:4346, V-A:ILE:369:CD1:3238, V-A:ARG:545:CZ:4926, V-A:ILE:369:CB:3235, V-A:ILE:369:CG2:3236, V-B:TYR:539:CE2:9848, V-B:GLU:543:CG:9879, V-B:TYR:539:CZ:9849, V-B:GLU:543:CD:9880, V-A:HIS:456:CE1:4069, V-A:GLU:543:CG:4907, V-B:HIS:456:CE1:9041, V-B:GLU:543:CB:9878, H-B:TYR:484:OH:9319, H-B:GLY:454:N:9021, V-B:GLY:454:CA:9020, V-B:ILE:369:CG2:8208, V-B:ILE:369:CD1:8210, V-B:LEU:373:CD1:8251, V-B:SER:385:CB:8380, V-B:ARG:545:CG:9894, V-B:ARG:545:CD:9895, V-B:ARG:545:CZ:9898, H-B:TYR:539:OH:9850, H-B:SER:385:OG:8381, V-A:ASP:366:C:3207, H-A:ASP:366:O:3208"]

$$$$
RR11_Rahimova_2017-again1
     RDKit          3D

 56 61  0  0  0  0  0  0  0  0999 V2000
  124.5990  135.5160   60.4880 N   0  0  0  0  0  0  0  0  0  0  0  0
  124.8780  134.4580   61.3520 C   0  0  0  0  0  0  0  0  0  0  0  0
  123.8350  133.7870   61.9880 C   0  0  0  0  0  0  0  0  0  0  0  0
  124.1160  132.7320   62.8540 C   0  0  0  0  0  0  0  0  0  0  0  0
  125.4400  132.3410   63.0910 C   0  0  0  0  0  0  0  0  0  0  0  0
  125.7420  131.2100   64.0300 C   0  0  0  0  0  0  0  0  0  0  0  0
  124.8300  130.5020   64.6570 N   0  0  0  0  0  0  0  0  0  0  0  0
  125.5290  129.6010   65.4170 C   0  0  0  0  0  0  0  0  0  0  0  0
  125.0490  128.6110   66.2850 C   0  0  0  0  0  0  0  0  0  0  0  0
  125.9810  127.8220   66.9620 C   0  0  0  0  0  0  0  0  0  0  0  0
  127.3570  128.0040   66.7920 C   0  0  0  0  0  0  0  0  0  0  0  0
  128.3300  127.1180   67.5590 C   0  0  0  0  0  0  0  0  0  0  0  0
  129.4700  126.6080   66.6890 C   0  0  0  0  0  0  0  0  0  0  0  0
  130.7410  126.4330   67.2480 C   0  0  0  0  0  0  0  0  0  0  0  0
  131.8260  125.9700   66.4990 C   0  0  0  0  0  0  0  0  0  0  0  0
  131.5810  125.6830   65.1530 C   0  0  0  0  0  0  0  0  0  0  0  0
  132.4110  125.2280   64.1380 N   0  0  0  0  0  0  0  0  0  0  0  0
  131.7000  125.1030   62.9660 C   0  0  0  0  0  0  0  0  0  0  0  0
  132.2260  124.6610   61.6390 C   0  0  0  0  0  0  0  0  0  0  0  0
  131.3880  124.6610   60.5170 C   0  0  0  0  0  0  0  0  0  0  0  0
  131.8750  124.2570   59.2760 C   0  0  0  0  0  0  0  0  0  0  0  0
  133.2020  123.8510   59.1520 C   0  0  0  0  0  0  0  0  0  0  0  0
  133.6900  123.4510   57.9090 N   0  0  0  0  0  0  0  0  0  0  0  0
  134.0440  123.8460   60.2640 C   0  0  0  0  0  0  0  0  0  0  0  0
  133.5570  124.2490   61.5040 C   0  0  0  0  0  0  0  0  0  0  0  0
  130.4080  125.4780   63.2550 N   0  0  0  0  0  0  0  0  0  0  0  0
  130.3040  125.8430   64.5890 C   0  0  0  0  0  0  0  0  0  0  0  0
  129.2210  126.3000   65.3450 C   0  0  0  0  0  0  0  0  0  0  0  0
  127.8610  128.9710   65.9120 C   0  0  0  0  0  0  0  0  0  0  0  0
  126.9240  129.7630   65.2440 C   0  0  0  0  0  0  0  0  0  0  0  0
  127.0210  130.7980   64.3430 N   0  0  0  0  0  0  0  0  0  0  0  0
  126.4790  133.0240   62.4430 C   0  0  0  0  0  0  0  0  0  0  0  0
  126.1990  134.0780   61.5770 C   0  0  0  0  0  0  0  0  0  0  0  0
  124.1550  136.3480   60.8490 H   0  0  0  0  0  0  0  0  0  0  0  0
  124.8060  135.4210   59.5050 H   0  0  0  0  0  0  0  0  0  0  0  0
  122.7930  134.0893   61.8069 H   0  0  0  0  0  0  0  0  0  0  0  0
  123.2922  132.2025   63.3550 H   0  0  0  0  0  0  0  0  0  0  0  0
  123.9690  128.4599   66.4288 H   0  0  0  0  0  0  0  0  0  0  0  0
  125.6240  127.0379   67.6459 H   0  0  0  0  0  0  0  0  0  0  0  0
  128.7548  127.6993   68.3907 H   0  0  0  0  0  0  0  0  0  0  0  0
  127.7695  126.2428   67.9193 H   0  0  0  0  0  0  0  0  0  0  0  0
  130.8909  126.6677   68.3122 H   0  0  0  0  0  0  0  0  0  0  0  0
  132.8224  125.8380   66.9459 H   0  0  0  0  0  0  0  0  0  0  0  0
  133.3960  125.0130   64.1990 H   0  0  0  0  0  0  0  0  0  0  0  0
  130.3404  124.9815   60.6161 H   0  0  0  0  0  0  0  0  0  0  0  0
  131.2140  124.2585   58.3968 H   0  0  0  0  0  0  0  0  0  0  0  0
  134.6460  123.6590   57.6590 H   0  0  0  0  0  0  0  0  0  0  0  0
  133.0730  122.9850   57.2600 H   0  0  0  0  0  0  0  0  0  0  0  0
  135.0908  123.5242   60.1612 H   0  0  0  0  0  0  0  0  0  0  0  0
  134.2206  124.2437   62.3813 H   0  0  0  0  0  0  0  0  0  0  0  0
  129.6780  125.4760   62.5590 H   0  0  0  0  0  0  0  0  0  0  0  0
  128.2191  126.4127   64.9051 H   0  0  0  0  0  0  0  0  0  0  0  0
  128.9420  129.1002   65.7548 H   0  0  0  0  0  0  0  0  0  0  0  0
  127.8510  131.2240   63.9580 H   0  0  0  0  0  0  0  0  0  0  0  0
  127.5227  132.7251   62.6199 H   0  0  0  0  0  0  0  0  0  0  0  0
  127.0191  134.6092   61.0718 H   0  0  0  0  0  0  0  0  0  0  0  0
  1  2  1  0
  2  3  2  0
  3  4  1  0
  4  5  2  0
  5  6  1  0
  6  7  2  0
  7  8  1  0
  8  9  2  0
  9 10  1  0
 10 11  2  0
 11 12  1  0
 12 13  1  0
 13 14  2  0
 14 15  1  0
 15 16  2  0
 16 17  1  0
 17 18  1  0
 18 19  1  0
 19 20  2  0
 20 21  1  0
 21 22  2  0
 22 23  1  0
 22 24  1  0
 24 25  2  0
 18 26  2  0
 26 27  1  0
 27 28  2  0
 11 29  1  0
 29 30  2  0
 30 31  1  0
  5 32  1  0
 32 33  2  0
 33  2  1  0
 31  6  1  0
 30  8  1  0
 28 13  1  0
 27 16  1  0
 25 19  1  0
  1 34  1  0
  1 35  1  0
  3 36  1  0
  4 37  1  0
  9 38  1  0
 10 39  1  0
 12 40  1  0
 12 41  1  0
 14 42  1  0
 15 43  1  0
 17 44  1  0
 20 45  1  0
 21 46  1  0
 23 47  1  0
 23 48  1  0
 24 49  1  0
 25 50  1  0
 26 51  1  0
 28 52  1  0
 29 53  1  0
 31 54  1  0
 32 55  1  0
 33 56  1  0
M  CHG  1  26   1
M  END
>  <Binding energies>  (1) 
[-9.36]

>  <Ligand effiencies>  (1) 
[-0.23399999999999999]

>  <Interactions>  (1) 
["V-A:ALA:541:CB:4892, V-A:TYR:539:CD1:4873, V-B:LEU:475:CD1:9229, V-A:GLU:543:CD:4908, V-A:ASP:366:CG:3212, H-A:TYR:484:OH:4347, V-A:ASP:366:CA:3209, V-A:ASP:366:CB:3211, V-A:ILE:369:CD1:3238, V-A:ARG:545:CZ:4926, V-A:ILE:369:CB:3235, V-A:ILE:369:CG2:3236, V-B:TYR:539:CE2:9848, V-B:GLU:543:CG:9879, V-B:TYR:539:CZ:9849, V-B:GLU:543:CD:9880, V-A:HIS:456:CE1:4069, V-A:GLU:543:CG:4907, V-B:HIS:456:CE1:9041, V-B:GLU:543:CB:9878, H-B:TYR:484:OH:9319, H-B:GLY:454:N:9021, V-B:GLY:454:CA:9020, V-B:ILE:369:CG2:8208, V-B:ILE:369:CD1:8210, V-B:ILE:369:CG1:8209, V-B:LEU:373:CD1:8251, V-B:SER:385:CB:8380, V-B:ARG:545:CG:9894, V-B:ARG:545:CD:9895, V-B:ARG:545:CZ:9898, H-B:TYR:539:OH:9850, H-B:SER:385:OG:8381, V-A:ASP:366:C:3207, H-A:ASP:366:O:3208"]

$$$$
RR11_Rahimova_2017-again2
     RDKit          3D

 57 62  0  0  0  0  0  0  0  0999 V2000
  124.9460  135.4070   60.5210 N   0  0  0  0  0  0  0  0  0  0  0  0
  125.1900  134.3470   61.3920 C   0  0  0  0  0  0  0  0  0  0  0  0
  124.1220  133.6340   61.9340 C   0  0  0  0  0  0  0  0  0  0  0  0
  124.3670  132.5790   62.8090 C   0  0  0  0  0  0  0  0  0  0  0  0
  125.6800  132.2300   63.1470 C   0  0  0  0  0  0  0  0  0  0  0  0
  125.9430  131.1050   64.0940 C   0  0  0  0  0  0  0  0  0  0  0  0
  127.1490  130.4810   64.3180 N   0  0  0  0  0  0  0  0  0  0  0  0
  127.0030  129.4950   65.2830 C   0  0  0  0  0  0  0  0  0  0  0  0
  127.9220  128.6080   65.8520 C   0  0  0  0  0  0  0  0  0  0  0  0
  127.4370  127.7360   66.8360 C   0  0  0  0  0  0  0  0  0  0  0  0
  128.3910  126.7500   67.4960 C   0  0  0  0  0  0  0  0  0  0  0  0
  129.5640  126.3760   66.6010 C   0  0  0  0  0  0  0  0  0  0  0  0
  130.8660  126.4150   67.1160 C   0  0  0  0  0  0  0  0  0  0  0  0
  131.9810  126.0830   66.3430 C   0  0  0  0  0  0  0  0  0  0  0  0
  131.7370  125.7010   65.0220 C   0  0  0  0  0  0  0  0  0  0  0  0
  132.5920  125.3250   63.9950 N   0  0  0  0  0  0  0  0  0  0  0  0
  131.8710  125.0400   62.8590 C   0  0  0  0  0  0  0  0  0  0  0  0
  132.4150  124.6160   61.5330 C   0  0  0  0  0  0  0  0  0  0  0  0
  131.6540  124.7840   60.3710 C   0  0  0  0  0  0  0  0  0  0  0  0
  132.1650  124.3990   59.1340 C   0  0  0  0  0  0  0  0  0  0  0  0
  133.4410  123.8430   59.0540 C   0  0  0  0  0  0  0  0  0  0  0  0
  133.9550  123.4630   57.8160 N   0  0  0  0  0  0  0  0  0  0  0  0
  134.2060  123.6680   60.2060 C   0  0  0  0  0  0  0  0  0  0  0  0
  133.6950  124.0540   61.4420 C   0  0  0  0  0  0  0  0  0  0  0  0
  130.5480  125.2330   63.1810 N   0  0  0  0  0  0  0  0  0  0  0  0
  130.4330  125.6450   64.5030 C   0  0  0  0  0  0  0  0  0  0  0  0
  129.3200  125.9720   65.2820 C   0  0  0  0  0  0  0  0  0  0  0  0
  126.0860  127.7390   67.2040 C   0  0  0  0  0  0  0  0  0  0  0  0
  125.1620  128.6180   66.6340 C   0  0  0  0  0  0  0  0  0  0  0  0
  125.6520  129.5010   65.6670 C   0  0  0  0  0  0  0  0  0  0  0  0
  125.0300  130.4940   64.9220 N   0  0  0  0  0  0  0  0  0  0  0  0
  126.7460  132.9510   62.5930 C   0  0  0  0  0  0  0  0  0  0  0  0
  126.5010  134.0060   61.7180 C   0  0  0  0  0  0  0  0  0  0  0  0
  125.2110  135.3240   59.5500 H   0  0  0  0  0  0  0  0  0  0  0  0
  124.5680  136.2710   60.8820 H   0  0  0  0  0  0  0  0  0  0  0  0
  123.0885  133.9040   61.6712 H   0  0  0  0  0  0  0  0  0  0  0  0
  123.5242  132.0166   63.2371 H   0  0  0  0  0  0  0  0  0  0  0  0
  127.9920  130.7450   63.8300 H   0  0  0  0  0  0  0  0  0  0  0  0
  128.9772  128.5953   65.5415 H   0  0  0  0  0  0  0  0  0  0  0  0
  128.7831  127.2038   68.4181 H   0  0  0  0  0  0  0  0  0  0  0  0
  127.8254  125.8295   67.7030 H   0  0  0  0  0  0  0  0  0  0  0  0
  131.0152  126.7169   68.1632 H   0  0  0  0  0  0  0  0  0  0  0  0
  133.0005  126.1205   66.7542 H   0  0  0  0  0  0  0  0  0  0  0  0
  133.5990  125.2590   64.0270 H   0  0  0  0  0  0  0  0  0  0  0  0
  130.6471  125.2223   60.4348 H   0  0  0  0  0  0  0  0  0  0  0  0
  131.5636  124.5332   58.2228 H   0  0  0  0  0  0  0  0  0  0  0  0
  133.4770  122.7600   57.2720 H   0  0  0  0  0  0  0  0  0  0  0  0
  134.8360  123.8470   57.5050 H   0  0  0  0  0  0  0  0  0  0  0  0
  135.2110  123.2260   60.1386 H   0  0  0  0  0  0  0  0  0  0  0  0
  134.2989  123.9171   62.3512 H   0  0  0  0  0  0  0  0  0  0  0  0
  129.8020  125.0900   62.5150 H   0  0  0  0  0  0  0  0  0  0  0  0
  128.2985  125.9148   64.8779 H   0  0  0  0  0  0  0  0  0  0  0  0
  125.7409  127.0257   67.9670 H   0  0  0  0  0  0  0  0  0  0  0  0
  124.1028  128.6156   66.9308 H   0  0  0  0  0  0  0  0  0  0  0  0
  124.0590  130.7680   64.9520 H   0  0  0  0  0  0  0  0  0  0  0  0
  127.7811  132.6824   62.8505 H   0  0  0  0  0  0  0  0  0  0  0  0
  127.3408  134.5692   61.2849 H   0  0  0  0  0  0  0  0  0  0  0  0
  1  2  1  0
  2  3  2  0
  3  4  1  0
  4  5  2  0
  5  6  1  0
  6  7  1  0
  7  8  1  0
  8  9  2  0
  9 10  1  0
 10 11  1  0
 11 12  1  0
 12 13  2  0
 13 14  1  0
 14 15  2  0
 15 16  1  0
 16 17  1  0
 17 18  1  0
 18 19  2  0
 19 20  1  0
 20 21  2  0
 21 22  1  0
 21 23  1  0
 23 24  2  0
 17 25  2  0
 25 26  1  0
 26 27  2  0
 10 28  2  0
 28 29  1  0
 29 30  2  0
 30 31  1  0
  5 32  1  0
 32 33  2  0
 33  2  1  0
 31  6  2  0
 30  8  1  0
 27 12  1  0
 26 15  1  0
 24 18  1  0
  1 34  1  0
  1 35  1  0
  3 36  1  0
  4 37  1  0
  7 38  1  0
  9 39  1  0
 11 40  1  0
 11 41  1  0
 13 42  1  0
 14 43  1  0
 16 44  1  0
 19 45  1  0
 20 46  1  0
 22 47  1  0
 22 48  1  0
 23 49  1  0
 24 50  1  0
 25 51  1  0
 27 52  1  0
 28 53  1  0
 29 54  1  0
 31 55  1  0
 32 56  1  0
 33 57  1  0
M  CHG  2  25   1  31   1
M  END
>  <Binding energies>  (1) 
[-8.96]

>  <Ligand effiencies>  (1) 
[-0.21853658536585369]

>  <Interactions>  (1) 
["V-A:ALA:541:CB:4892, V-A:TYR:539:CD1:4873, V-B:LEU:475:CD1:9229, V-A:GLU:543:CD:4908, V-A:ASP:366:CG:3212, V-A:ASP:366:CA:3209, V-A:ASP:366:CB:3211, V-A:ILE:369:CD1:3238, H-A:GLU:543:OE1:4909, V-A:ARG:545:CZ:4926, V-A:ILE:369:CB:3235, V-A:ILE:369:CG2:3236, V-B:TYR:539:CE2:9848, V-B:GLU:543:CG:9879, V-B:TYR:539:CZ:9849, V-B:GLU:543:CD:9880, V-A:HIS:456:CE1:4069, V-A:GLU:543:CG:4907, V-B:HIS:456:CE1:9041, V-B:GLU:543:CB:9878, H-B:TYR:484:OH:9319, V-B:GLY:454:CA:9020, V-B:ILE:369:CG2:8208, V-B:ILE:369:CD1:8210, V-B:SER:385:CB:8380, V-B:ARG:545:CG:9894, V-B:ARG:545:CD:9895, V-B:ARG:545:CZ:9898, H-B:TYR:539:OH:9850, H-B:SER:385:OG:8381, V-A:ASP:366:C:3207, H-A:ASP:366:O:3208, V-A:ILE:369:C:3231"]

$$$$
RR12_Rahimova_2017
     RDKit          3D

 51 53  0  0  0  0  0  0  0  0999 V2000
  133.1100  122.8880   59.7860 C   0  0  0  0  0  0  0  0  0  0  0  0
  134.1350  123.1770   60.8900 C   0  0  0  0  0  0  0  0  0  0  0  0
  133.9680  122.2520   62.1100 C   0  0  0  0  0  0  0  0  0  0  0  0
  132.6360  121.6510   62.1250 N   0  0  0  0  0  0  0  0  0  0  0  0
  131.4770  122.1820   62.6700 C   0  0  0  0  0  0  0  0  0  0  0  0
  131.4170  123.5070   63.4080 C   0  0  0  0  0  0  0  0  0  0  0  0
  131.9220  124.6810   62.5490 C   0  0  0  0  0  0  0  0  0  0  0  0
  131.5980  126.0540   63.1670 C   0  0  0  0  0  0  0  0  0  0  0  0
  131.9660  126.1690   64.5780 N   0  0  0  0  0  0  0  0  0  0  0  0
  133.0490  125.6040   65.1420 C   0  0  0  0  0  0  0  0  0  0  0  0
  133.8560  124.9150   64.5130 O   0  0  0  0  0  0  0  0  0  0  0  0
  133.2330  125.8720   66.6410 C   0  0  0  0  0  0  0  0  0  0  0  0
  132.4360  126.9930   67.0260 O   0  0  0  0  0  0  0  0  0  0  0  0
  131.1730  126.7790   67.5460 C   0  0  0  0  0  0  0  0  0  0  0  0
  130.6460  125.4960   67.3860 C   0  0  0  0  0  0  0  0  0  0  0  0
  129.3810  125.1850   67.8790 C   0  0  0  0  0  0  0  0  0  0  0  0
  128.6390  126.1610   68.5370 C   0  0  0  0  0  0  0  0  0  0  0  0
  129.1490  127.4470   68.7040 C   0  0  0  0  0  0  0  0  0  0  0  0
  130.4140  127.7570   68.2090 C   0  0  0  0  0  0  0  0  0  0  0  0
  130.4270  121.4160   62.5030 N   0  0  0  0  0  0  0  0  0  0  0  0
  130.8860  120.3400   61.7970 C   0  0  0  0  0  0  0  0  0  0  0  0
  130.1780  119.2190   61.3360 C   0  0  0  0  0  0  0  0  0  0  0  0
  130.8800  118.2460   60.6230 C   0  0  0  0  0  0  0  0  0  0  0  0
  132.2460  118.3770   60.3710 C   0  0  0  0  0  0  0  0  0  0  0  0
  132.9780  119.4790   60.8170 C   0  0  0  0  0  0  0  0  0  0  0  0
  132.2740  120.4540   61.5340 C   0  0  0  0  0  0  0  0  0  0  0  0
  132.1466  122.6164   60.2421 H   0  0  0  0  0  0  0  0  0  0  0  0
  132.9805  123.7846   59.1621 H   0  0  0  0  0  0  0  0  0  0  0  0
  133.4679  122.0558   59.1621 H   0  0  0  0  0  0  0  0  0  0  0  0
  135.1453  123.0377   60.4779 H   0  0  0  0  0  0  0  0  0  0  0  0
  133.9749  124.2105   61.2310 H   0  0  0  0  0  0  0  0  0  0  0  0
  134.7236  121.4539   62.0640 H   0  0  0  0  0  0  0  0  0  0  0  0
  134.0971  122.8479   63.0255 H   0  0  0  0  0  0  0  0  0  0  0  0
  130.3739  123.7036   63.6967 H   0  0  0  0  0  0  0  0  0  0  0  0
  132.0715  123.4302   64.2888 H   0  0  0  0  0  0  0  0  0  0  0  0
  133.0130  124.5931   62.4399 H   0  0  0  0  0  0  0  0  0  0  0  0
  131.4095  124.6254   61.5773 H   0  0  0  0  0  0  0  0  0  0  0  0
  132.1427  126.8253   62.6027 H   0  0  0  0  0  0  0  0  0  0  0  0
  130.5069  126.1813   63.1095 H   0  0  0  0  0  0  0  0  0  0  0  0
  131.3510  126.7220   65.1570 H   0  0  0  0  0  0  0  0  0  0  0  0
  132.9201  124.9860   67.2129 H   0  0  0  0  0  0  0  0  0  0  0  0
  134.2918  126.0869   66.8476 H   0  0  0  0  0  0  0  0  0  0  0  0
  131.2342  124.7251   66.8667 H   0  0  0  0  0  0  0  0  0  0  0  0
  128.9706  124.1728   67.7488 H   0  0  0  0  0  0  0  0  0  0  0  0
  127.6410  125.9152   68.9288 H   0  0  0  0  0  0  0  0  0  0  0  0
  128.5558  128.2136   69.2240 H   0  0  0  0  0  0  0  0  0  0  0  0
  130.8196  128.7713   68.3380 H   0  0  0  0  0  0  0  0  0  0  0  0
  129.1009  119.1105   61.5311 H   0  0  0  0  0  0  0  0  0  0  0  0
  130.3459  117.3586   60.2525 H   0  0  0  0  0  0  0  0  0  0  0  0
  132.7618  117.5882   59.8038 H   0  0  0  0  0  0  0  0  0  0  0  0
  134.0549  119.5765   60.6150 H   0  0  0  0  0  0  0  0  0  0  0  0
  1  2  1  0
  2  3  1  0
  3  4  1  0
  4  5  1  0
  5  6  1  0
  6  7  1  0
  7  8  1  0
  8  9  1  0
  9 10  1  0
 10 11  2  0
 10 12  1  0
 12 13  1  0
 13 14  1  0
 14 15  2  0
 15 16  1  0
 16 17  2  0
 17 18  1  0
 18 19  2  0
  5 20  2  0
 20 21  1  0
 21 22  2  0
 22 23  1  0
 23 24  2  0
 24 25  1  0
 25 26  2  0
 26  4  1  0
 19 14  1  0
 26 21  1  0
  1 27  1  0
  1 28  1  0
  1 29  1  0
  2 30  1  0
  2 31  1  0
  3 32  1  0
  3 33  1  0
  6 34  1  0
  6 35  1  0
  7 36  1  0
  7 37  1  0
  8 38  1  0
  8 39  1  0
  9 40  1  0
 12 41  1  0
 12 42  1  0
 15 43  1  0
 16 44  1  0
 17 45  1  0
 18 46  1  0
 19 47  1  0
 22 48  1  0
 23 49  1  0
 24 50  1  0
 25 51  1  0
M  END
>  <Binding energies>  (1) 
[-7.16]

>  <Ligand effiencies>  (1) 
[-0.2651851851851852]

>  <Interactions>  (1) 
["V-A:GLU:543:CD:4908, V-A:ARG:545:CD:4923, V-A:ARG:545:CG:4922, H-A:TYR:484:OH:4347, V-A:GLY:454:CA:4048, H-A:GLU:543:OE2:4910, V-A:TYR:484:CZ:4346, H-A:ARG:545:NH2:4928, V-A:ILE:369:CD1:3238, H-A:GLU:543:OE1:4909, H-A:ARG:545:NH1:4927, V-A:ARG:545:CZ:4926, H-A:GLY:454:N:4049, H-A:ARG:545:NE:4924, V-A:ILE:369:CG2:3236, V-B:TYR:539:CD2:9846, V-B:TYR:539:CE2:9848, V-A:LEU:475:CD1:4257, V-A:PRO:482:CG:4326, V-B:GLU:543:CG:9879, V-B:ALA:541:CB:9864, V-A:TYR:484:CE2:4345, V-A:HIS:383:CD2:3391, V-A:HIS:456:CE1:4069, V-B:GLU:543:CA:9876, V-B:HIS:456:CE1:9041, V-A:GLU:543:CB:4906, V-B:GLU:543:CB:9878"]

$$$$
RR13_Rahimova_2017
     RDKit          3D

 84 90  0  0  0  0  0  0  0  0999 V2000
  129.7210  125.2120   64.7870 Cl  0  0  0  0  0  0  0  0  0  0  0  0
  130.9720  125.0950   63.5960 C   0  0  0  0  0  0  0  0  0  0  0  0
  132.2710  124.8400   64.0400 C   0  0  0  0  0  0  0  0  0  0  0  0
  133.3250  124.7560   63.1340 C   0  0  0  0  0  0  0  0  0  0  0  0
  133.0860  124.9300   61.7740 C   0  0  0  0  0  0  0  0  0  0  0  0
  131.7920  125.1850   61.3220 C   0  0  0  0  0  0  0  0  0  0  0  0
  130.7140  125.2610   62.2200 C   0  0  0  0  0  0  0  0  0  0  0  0
  129.2940  125.5700   61.6970 C   0  0  1  0  0  0  0  0  0  0  0  0
  128.4180  124.3080   61.7030 C   0  0  0  0  0  0  0  0  0  0  0  0
  127.3540  124.0950   62.4450 N   0  0  0  0  0  0  0  0  0  0  0  0
  126.9160  122.8140   62.1230 N   0  0  0  0  0  0  0  0  0  0  0  0
  127.7530  122.2490   61.1810 N   0  0  0  0  0  0  0  0  0  0  0  0
  128.6850  123.1800   60.9560 N   0  0  0  0  0  0  0  0  0  0  0  0
  129.7360  122.9500   59.9720 C   0  0  0  0  0  0  0  0  0  0  0  0
  129.4420  123.7370   58.6820 C   0  0  0  0  0  0  0  0  0  0  0  0
  127.9830  123.6330   58.2650 C   0  0  0  0  0  0  0  0  0  0  0  0
  127.1230  124.7180   58.4590 C   0  0  0  0  0  0  0  0  0  0  0  0
  125.7850  124.6190   58.0850 C   0  0  0  0  0  0  0  0  0  0  0  0
  125.3130  123.4360   57.5180 C   0  0  0  0  0  0  0  0  0  0  0  0
  126.1650  122.3520   57.3220 C   0  0  0  0  0  0  0  0  0  0  0  0
  127.5030  122.4500   57.6970 C   0  0  0  0  0  0  0  0  0  0  0  0
  128.6460  126.7110   62.3870 N   0  0  0  0  0  0  0  0  0  0  0  0
  127.3620  127.0430   61.7420 C   0  0  0  0  0  0  0  0  0  0  0  0
  126.6180  128.1430   62.5350 C   0  0  0  0  0  0  0  0  0  0  0  0
  127.4170  129.3790   62.5830 N   0  0  0  0  0  0  0  0  0  0  0  0
  126.7070  130.4870   63.2630 C   0  0  1  0  0  0  0  0  0  0  0  0
  126.5920  131.7990   62.4560 C   0  0  0  0  0  0  0  0  0  0  0  0
  125.3640  132.4730   62.5020 C   0  0  0  0  0  0  0  0  0  0  0  0
  125.1740  133.6730   61.8190 C   0  0  0  0  0  0  0  0  0  0  0  0
  126.2140  134.2170   61.0700 C   0  0  0  0  0  0  0  0  0  0  0  0
  127.4360  133.5550   60.9970 C   0  0  0  0  0  0  0  0  0  0  0  0
  127.6350  132.3500   61.6760 C   0  0  0  0  0  0  0  0  0  0  0  0
  129.1670  131.5690   61.4670 Cl  0  0  0  0  0  0  0  0  0  0  0  0
  125.3350  130.0790   63.8030 C   0  0  0  0  0  0  0  0  0  0  0  0
  124.2170  130.0700   63.1140 N   0  0  0  0  0  0  0  0  0  0  0  0
  123.2330  129.6200   63.9880 N   0  0  0  0  0  0  0  0  0  0  0  0
  123.7860  129.3420   65.2210 N   0  0  0  0  0  0  0  0  0  0  0  0
  125.0890  129.6120   65.0770 N   0  0  0  0  0  0  0  0  0  0  0  0
  125.9980  129.4500   66.2070 C   0  0  0  0  0  0  0  0  0  0  0  0
  127.0960  128.4240   65.8700 C   0  0  0  0  0  0  0  0  0  0  0  0
  127.8900  128.0100   67.0990 C   0  0  0  0  0  0  0  0  0  0  0  0
  127.9290  126.6670   67.4850 C   0  0  0  0  0  0  0  0  0  0  0  0
  128.6620  126.2870   68.6060 C   0  0  0  0  0  0  0  0  0  0  0  0
  129.3540  127.2510   69.3380 C   0  0  0  0  0  0  0  0  0  0  0  0
  129.3190  128.5920   68.9570 C   0  0  0  0  0  0  0  0  0  0  0  0
  128.5870  128.9730   67.8360 C   0  0  0  0  0  0  0  0  0  0  0  0
  128.6970  129.0430   63.2330 C   0  0  0  0  0  0  0  0  0  0  0  0
  129.4410  127.9510   62.4300 C   0  0  0  0  0  0  0  0  0  0  0  0
  132.4633  124.7043   65.1145 H   0  0  0  0  0  0  0  0  0  0  0  0
  134.3448  124.5525   63.4925 H   0  0  0  0  0  0  0  0  0  0  0  0
  133.9173  124.8664   61.0564 H   0  0  0  0  0  0  0  0  0  0  0  0
  131.6123  125.3288   60.2464 H   0  0  0  0  0  0  0  0  0  0  0  0
  129.4076  125.8957   60.6525 H   0  0  0  0  0  0  0  0  0  0  0  0
  130.6999  123.2801   60.3867 H   0  0  0  0  0  0  0  0  0  0  0  0
  129.7754  121.8766   59.7350 H   0  0  0  0  0  0  0  0  0  0  0  0
  129.6879  124.7960   58.8494 H   0  0  0  0  0  0  0  0  0  0  0  0
  130.0548  123.3060   57.8766 H   0  0  0  0  0  0  0  0  0  0  0  0
  127.5025  125.6485   58.9064 H   0  0  0  0  0  0  0  0  0  0  0  0
  125.1043  125.4697   58.2362 H   0  0  0  0  0  0  0  0  0  0  0  0
  124.2564  123.3580   57.2223 H   0  0  0  0  0  0  0  0  0  0  0  0
  125.7833  121.4230   56.8733 H   0  0  0  0  0  0  0  0  0  0  0  0
  128.1810  121.5970   57.5461 H   0  0  0  0  0  0  0  0  0  0  0  0
  127.5538  127.4022   60.7201 H   0  0  0  0  0  0  0  0  0  0  0  0
  126.7349  126.1396   61.7186 H   0  0  0  0  0  0  0  0  0  0  0  0
  125.6559  128.3535   62.0451 H   0  0  0  0  0  0  0  0  0  0  0  0
  126.4525  127.7881   63.5629 H   0  0  0  0  0  0  0  0  0  0  0  0
  127.3709  130.7101   64.1112 H   0  0  0  0  0  0  0  0  0  0  0  0
  124.5356  132.0474   63.0874 H   0  0  0  0  0  0  0  0  0  0  0  0
  124.2041  134.1894   61.8716 H   0  0  0  0  0  0  0  0  0  0  0  0
  126.0700  135.1684   60.5369 H   0  0  0  0  0  0  0  0  0  0  0  0
  128.2532  133.9845   60.3989 H   0  0  0  0  0  0  0  0  0  0  0  0
  126.4655  130.4186   66.4378 H   0  0  0  0  0  0  0  0  0  0  0  0
  125.4271  129.0894   67.0753 H   0  0  0  0  0  0  0  0  0  0  0  0
  126.6247  127.5304   65.4348 H   0  0  0  0  0  0  0  0  0  0  0  0
  127.7922  128.8944   65.1601 H   0  0  0  0  0  0  0  0  0  0  0  0
  127.3810  125.9110   66.9035 H   0  0  0  0  0  0  0  0  0  0  0  0
  128.6950  125.2312   68.9128 H   0  0  0  0  0  0  0  0  0  0  0  0
  129.9328  126.9510   70.2240 H   0  0  0  0  0  0  0  0  0  0  0  0
  129.8679  129.3460   69.5402 H   0  0  0  0  0  0  0  0  0  0  0  0
  128.5568  130.0293   67.5304 H   0  0  0  0  0  0  0  0  0  0  0  0
  129.3245  129.9450   63.2851 H   0  0  0  0  0  0  0  0  0  0  0  0
  128.4936  128.6641   64.2454 H   0  0  0  0  0  0  0  0  0  0  0  0
  129.6102  128.3084   61.4035 H   0  0  0  0  0  0  0  0  0  0  0  0
  130.4024  127.7406   62.9213 H   0  0  0  0  0  0  0  0  0  0  0  0
  1  2  1  0
  2  3  2  0
  3  4  1  0
  4  5  2  0
  5  6  1  0
  6  7  2  0
  7  8  1  0
  8  9  1  0
  9 10  2  0
 10 11  1  0
 11 12  2  0
 12 13  1  0
 13 14  1  0
 14 15  1  0
 15 16  1  0
 16 17  2  0
 17 18  1  0
 18 19  2  0
 19 20  1  0
 20 21  2  0
  8 22  1  0
 22 23  1  0
 23 24  1  0
 24 25  1  0
 25 26  1  0
 26 27  1  0
 27 28  2  0
 28 29  1  0
 29 30  2  0
 30 31  1  0
 31 32  2  0
 32 33  1  0
 26 34  1  0
 34 35  2  0
 35 36  1  0
 36 37  2  0
 37 38  1  0
 38 39  1  0
 39 40  1  0
 40 41  1  0
 41 42  2  0
 42 43  1  0
 43 44  2  0
 44 45  1  0
 45 46  2  0
 25 47  1  0
 47 48  1  0
  7  2  1  0
 13  9  1  0
 21 16  1  0
 48 22  1  0
 32 27  1  0
 38 34  1  0
 46 41  1  0
  3 49  1  0
  4 50  1  0
  5 51  1  0
  6 52  1  0
  8 53  1  6
 14 54  1  0
 14 55  1  0
 15 56  1  0
 15 57  1  0
 17 58  1  0
 18 59  1  0
 19 60  1  0
 20 61  1  0
 21 62  1  0
 23 63  1  0
 23 64  1  0
 24 65  1  0
 24 66  1  0
 26 67  1  1
 28 68  1  0
 29 69  1  0
 30 70  1  0
 31 71  1  0
 39 72  1  0
 39 73  1  0
 40 74  1  0
 40 75  1  0
 42 76  1  0
 43 77  1  0
 44 78  1  0
 45 79  1  0
 46 80  1  0
 47 81  1  0
 47 82  1  0
 48 83  1  0
 48 84  1  0
M  END
>  <Binding energies>  (1) 
[-12.82]

>  <Ligand effiencies>  (1) 
[-0.26708333333333334]

>  <Interactions>  (1) 
["V-A:ALA:541:CB:4892, V-A:TYR:539:CD1:4873, V-B:LEU:475:CD1:9229, V-A:GLU:543:CD:4908, V-A:ASP:366:CG:3212, V-A:ARG:545:CZ:4926, V-B:TYR:539:CE2:9848, H-B:ALA:541:N:9863, V-B:PRO:540:CD:9859, V-B:PRO:540:CA:9855, V-B:LEU:363:CD1:8160, V-B:GLU:543:CG:9879, V-B:MET:535:CE:9807, V-B:PRO:540:N:9856, V-B:GLU:543:CD:9880, V-B:PRO:540:CB:9857, V-B:TYR:539:C:9839, V-A:HIS:456:CE1:4069, V-A:GLU:543:CG:4907, V-B:HIS:456:CE1:9041, V-B:TYR:484:CE2:9317, V-A:GLU:543:CB:4906, V-B:GLU:543:CB:9878, H-B:TYR:484:OH:9319, H-B:ARG:545:NH2:9900, H-B:GLY:454:N:9021, H-B:ARG:545:NH1:9899, V-A:GLU:543:C:4902, H-B:ARG:545:NE:9896, V-B:ARG:545:CZ:9898, V-B:TYR:484:CZ:9318, V-B:TYR:531:CE2:9765"]

$$$$
RR14_Rahimova_2017
     RDKit          3D

 76 80  0  0  0  0  0  0  0  0999 V2000
  128.4710  121.6770   72.6320 C   0  0  0  0  0  0  0  0  0  0  0  0
  129.3970  122.1450   73.6060 O   0  0  0  0  0  0  0  0  0  0  0  0
  129.6810  123.4960   73.6700 C   0  0  0  0  0  0  0  0  0  0  0  0
  130.8280  123.8580   74.3770 C   0  0  0  0  0  0  0  0  0  0  0  0
  131.1810  125.1970   74.5160 C   0  0  0  0  0  0  0  0  0  0  0  0
  130.3820  126.1920   73.9490 C   0  0  0  0  0  0  0  0  0  0  0  0
  130.7300  127.6620   74.1550 C   0  0  0  0  0  0  0  0  0  0  0  0
  129.7470  128.5760   73.5730 N   0  0  0  0  0  0  0  0  0  0  0  0
  128.9170  129.2680   74.3610 N   0  0  0  0  0  0  0  0  0  0  0  0
  128.1250  129.9890   73.4900 N   0  0  0  0  0  0  0  0  0  0  0  0
  128.4860  129.7130   72.1750 N   0  0  0  0  0  0  0  0  0  0  0  0
  129.4690  128.8470   72.2500 C   0  0  0  0  0  0  0  0  0  0  0  0
  130.1830  128.2250   71.0580 C   0  0  0  0  0  0  0  0  0  0  0  0
  129.2690  127.9440   69.9380 N   0  0  0  0  0  0  0  0  0  0  0  0
  129.5430  128.8010   68.7780 C   0  0  0  0  0  0  0  0  0  0  0  0
  128.3090  129.5960   68.2980 C   0  0  0  0  0  0  0  0  0  0  0  0
  127.9770  129.3840   66.8060 C   0  0  0  0  0  0  0  0  0  0  0  0
  126.6660  129.9160   66.4220 N   0  0  0  0  0  0  0  0  0  0  0  0
  125.6640  128.8420   66.4030 C   0  0  0  0  0  0  0  0  0  0  0  0
  124.2820  129.3600   65.9520 C   0  0  0  0  0  0  0  0  0  0  0  0
  124.3930  130.0170   64.6930 O   0  0  0  0  0  0  0  0  0  0  0  0
  125.2790  131.1290   64.7420 C   0  0  0  0  0  0  0  0  0  0  0  0
  126.6920  130.6650   65.1550 C   0  0  0  0  0  0  0  0  0  0  0  0
  129.3510  126.5250   69.5620 C   0  0  0  0  0  0  0  0  0  0  0  0
  129.7090  126.2370   68.1060 C   0  0  0  0  0  0  0  0  0  0  0  0
  130.9930  126.0180   67.7310 C   0  0  0  0  0  0  0  0  0  0  0  0
  131.3710  125.7760   66.3240 C   0  0  0  0  0  0  0  0  0  0  0  0
  132.6880  125.5260   65.9030 C   0  0  0  0  0  0  0  0  0  0  0  0
  133.8470  125.4830   66.8910 C   0  0  0  0  0  0  0  0  0  0  0  0
  132.9380  125.3080   64.5460 C   0  0  0  0  0  0  0  0  0  0  0  0
  131.9000  125.3370   63.6170 C   0  0  0  0  0  0  0  0  0  0  0  0
  130.5860  125.5830   64.0250 C   0  0  0  0  0  0  0  0  0  0  0  0
  129.4720  125.6060   62.9860 C   0  0  0  0  0  0  0  0  0  0  0  0
  130.3230  125.8040   65.3860 C   0  0  0  0  0  0  0  0  0  0  0  0
  129.0130  126.0590   65.8450 N   0  0  0  0  0  0  0  0  0  0  0  0
  128.6210  126.2860   67.1230 C   0  0  0  0  0  0  0  0  0  0  0  0
  127.4390  126.5120   67.3820 O   0  0  0  0  0  0  0  0  0  0  0  0
  129.2490  125.8380   73.2140 C   0  0  0  0  0  0  0  0  0  0  0  0
  128.8960  124.4990   73.0770 C   0  0  0  0  0  0  0  0  0  0  0  0
  127.5989  121.2362   73.1372 H   0  0  0  0  0  0  0  0  0  0  0  0
  128.1440  122.5181   72.0030 H   0  0  0  0  0  0  0  0  0  0  0  0
  128.9543  120.9149   72.0030 H   0  0  0  0  0  0  0  0  0  0  0  0
  131.4589  123.0782   74.8285 H   0  0  0  0  0  0  0  0  0  0  0  0
  132.0893  125.4715   75.0724 H   0  0  0  0  0  0  0  0  0  0  0  0
  130.7922  127.8580   75.2356 H   0  0  0  0  0  0  0  0  0  0  0  0
  131.6873  127.8450   73.6450 H   0  0  0  0  0  0  0  0  0  0  0  0
  130.9625  128.9196   70.7117 H   0  0  0  0  0  0  0  0  0  0  0  0
  130.6126  127.2675   71.3876 H   0  0  0  0  0  0  0  0  0  0  0  0
  130.3335  129.5155   69.0512 H   0  0  0  0  0  0  0  0  0  0  0  0
  129.8463  128.1416   67.9514 H   0  0  0  0  0  0  0  0  0  0  0  0
  127.4400  129.2825   68.8952 H   0  0  0  0  0  0  0  0  0  0  0  0
  128.5437  130.6629   68.4269 H   0  0  0  0  0  0  0  0  0  0  0  0
  128.7477  129.8855   66.2022 H   0  0  0  0  0  0  0  0  0  0  0  0
  127.9526  128.2986   66.6289 H   0  0  0  0  0  0  0  0  0  0  0  0
  125.9953  128.0574   65.7069 H   0  0  0  0  0  0  0  0  0  0  0  0
  125.5656  128.4461   67.4246 H   0  0  0  0  0  0  0  0  0  0  0  0
  123.5878  128.5117   65.8599 H   0  0  0  0  0  0  0  0  0  0  0  0
  123.9036  130.0737   66.6986 H   0  0  0  0  0  0  0  0  0  0  0  0
  125.3267  131.6000   63.7491 H   0  0  0  0  0  0  0  0  0  0  0  0
  124.9074  131.8525   65.4826 H   0  0  0  0  0  0  0  0  0  0  0  0
  127.1003  130.0172   64.3653 H   0  0  0  0  0  0  0  0  0  0  0  0
  127.3206  131.5568   65.2946 H   0  0  0  0  0  0  0  0  0  0  0  0
  130.1157  126.0527   70.1962 H   0  0  0  0  0  0  0  0  0  0  0  0
  128.3371  126.1223   69.7029 H   0  0  0  0  0  0  0  0  0  0  0  0
  131.7795  126.0206   68.5001 H   0  0  0  0  0  0  0  0  0  0  0  0
  133.4539  125.4976   67.9182 H   0  0  0  0  0  0  0  0  0  0  0  0
  134.4287  124.5627   66.7340 H   0  0  0  0  0  0  0  0  0  0  0  0
  134.4953  126.3577   66.7340 H   0  0  0  0  0  0  0  0  0  0  0  0
  133.9658  125.1112   64.2071 H   0  0  0  0  0  0  0  0  0  0  0  0
  132.1167  125.1647   62.5524 H   0  0  0  0  0  0  0  0  0  0  0  0
  128.4968  125.6261   63.4944 H   0  0  0  0  0  0  0  0  0  0  0  0
  129.5760  126.5022   62.3567 H   0  0  0  0  0  0  0  0  0  0  0  0
  129.5389  124.7063   62.3567 H   0  0  0  0  0  0  0  0  0  0  0  0
  128.2680  126.0880   65.1660 H   0  0  0  0  0  0  0  0  0  0  0  0
  128.6343  126.6189   72.7424 H   0  0  0  0  0  0  0  0  0  0  0  0
  127.9990  124.2248   72.5023 H   0  0  0  0  0  0  0  0  0  0  0  0
  1  2  1  0
  2  3  1  0
  3  4  2  0
  4  5  1  0
  5  6  2  0
  6  7  1  0
  7  8  1  0
  8  9  1  0
  9 10  2  0
 10 11  1  0
 11 12  2  0
 12 13  1  0
 13 14  1  0
 14 15  1  0
 15 16  1  0
 16 17  1  0
 17 18  1  0
 18 19  1  0
 19 20  1  0
 20 21  1  0
 21 22  1  0
 22 23  1  0
 14 24  1  0
 24 25  1  0
 25 26  2  0
 26 27  1  0
 27 28  2  0
 28 29  1  0
 28 30  1  0
 30 31  2  0
 31 32  1  0
 32 33  1  0
 32 34  2  0
 34 35  1  0
 35 36  1  0
 36 37  2  0
  6 38  1  0
 38 39  2  0
 39  3  1  0
 12  8  1  0
 23 18  1  0
 36 25  1  0
 34 27  1  0
  1 40  1  0
  1 41  1  0
  1 42  1  0
  4 43  1  0
  5 44  1  0
  7 45  1  0
  7 46  1  0
 13 47  1  0
 13 48  1  0
 15 49  1  0
 15 50  1  0
 16 51  1  0
 16 52  1  0
 17 53  1  0
 17 54  1  0
 19 55  1  0
 19 56  1  0
 20 57  1  0
 20 58  1  0
 22 59  1  0
 22 60  1  0
 23 61  1  0
 23 62  1  0
 24 63  1  0
 24 64  1  0
 26 65  1  0
 29 66  1  0
 29 67  1  0
 29 68  1  0
 30 69  1  0
 31 70  1  0
 33 71  1  0
 33 72  1  0
 33 73  1  0
 35 74  1  0
 38 75  1  0
 39 76  1  0
M  END
>  <Binding energies>  (1) 
[-9.36]

>  <Ligand effiencies>  (1) 
[-0.23399999999999999]

>  <Interactions>  (1) 
["V-B:LEU:475:CD1:9229, V-A:GLU:543:CD:4908, V-A:ARG:545:CD:4923, V-A:ARG:545:CG:4922, V-A:TYR:484:CZ:4346, H-A:GLU:543:OE1:4909, V-A:ARG:545:CZ:4926, H-B:GLU:543:OE1:9881, V-B:GLU:543:CG:9879, V-B:GLU:543:CD:9880, V-A:HIS:456:CE1:4069, V-A:GLU:543:CG:4907, V-B:HIS:456:CE1:9041, V-B:TYR:484:CE2:9317, V-A:GLU:543:CB:4906, V-B:GLU:543:C:9874, V-B:GLU:543:CB:9878, H-B:TYR:484:OH:9319, H-B:GLY:454:N:9021, V-B:GLY:454:CA:9020, V-A:TYR:484:CD2:4343, H-B:GLU:543:OE2:9882, V-A:GLU:543:C:4902, V-A:GLU:543:CA:4904, V-B:ARG:545:CD:9895, V-B:ARG:545:CZ:9898, V-B:HIS:456:CD2:9039, V-B:TYR:484:CZ:9318, H-A:LYS:547:NZ:4951, V-A:HIS:456:CD2:4067, H-B:LYS:547:NZ:9923, V-A:HIS:456:CB:4064, V-A:HIS:456:CG:4065, V-A:LYS:547:CE:4950, V-B:GLY:544:CA:9886, V-B:LYS:547:CE:9922, V-A:TYR:484:CB:4340, V-A:TYR:484:CG:4341"]

$$$$
RR15_Rahimova_2017
     RDKit          3D

 85 89  0  0  0  0  0  0  0  0999 V2000
  132.8510  124.7660   57.3840 C   0  0  0  0  0  0  0  0  0  0  0  0
  132.9160  123.7120   58.3380 O   0  0  0  0  0  0  0  0  0  0  0  0
  133.0980  124.0140   59.6770 C   0  0  0  0  0  0  0  0  0  0  0  0
  134.3390  123.9380   60.3290 C   0  0  0  0  0  0  0  0  0  0  0  0
  134.4520  124.2550   61.6810 C   0  0  0  0  0  0  0  0  0  0  0  0
  133.3330  124.6530   62.4190 C   0  0  0  0  0  0  0  0  0  0  0  0
  133.4550  124.9880   63.8800 C   0  0  0  0  0  0  0  0  0  0  0  0
  134.6220  125.1640   64.4850 N   0  0  0  0  0  0  0  0  0  0  0  0
  134.3300  125.4440   65.8040 N   0  0  0  0  0  0  0  0  0  0  0  0
  132.9970  125.4450   65.8380 N   0  0  0  0  0  0  0  0  0  0  0  0
  132.2540  125.5400   67.0930 C   0  0  0  0  0  0  0  0  0  0  0  0
  131.4930  126.8740   67.2970 C   0  0  0  0  0  0  0  0  0  0  0  0
  132.1460  127.9200   67.3250 O   0  0  0  0  0  0  0  0  0  0  0  0
  130.1290  126.8650   67.4090 N   0  0  0  0  0  0  0  0  0  0  0  0
  129.3260  125.7290   66.9140 C   0  0  0  0  0  0  0  0  0  0  0  0
  129.8550  125.1280   65.5940 C   0  0  0  0  0  0  0  0  0  0  0  0
  129.1780  125.6740   64.3140 C   0  0  0  0  0  0  0  0  0  0  0  0
  129.1420  124.7120   63.2080 N   0  0  0  0  0  0  0  0  0  0  0  0
  129.4390  123.3320   63.6210 C   0  0  0  0  0  0  0  0  0  0  0  0
  129.3030  122.3480   62.4380 C   0  0  0  0  0  0  0  0  0  0  0  0
  128.0150  122.4680   61.8440 O   0  0  0  0  0  0  0  0  0  0  0  0
  127.7660  123.7800   61.3510 C   0  0  0  0  0  0  0  0  0  0  0  0
  127.8560  124.8030   62.5040 C   0  0  0  0  0  0  0  0  0  0  0  0
  129.3610  127.8790   68.1950 C   0  0  2  0  0  0  0  0  0  0  0  0
  129.1420  127.4920   69.6910 C   0  0  0  0  0  0  0  0  0  0  0  0
  128.9690  126.3200   70.0250 O   0  0  0  0  0  0  0  0  0  0  0  0
  129.1980  128.5090   70.5690 N   0  0  0  0  0  0  0  0  0  0  0  0
  129.1250  128.3760   72.0190 C   0  0  0  0  0  0  0  0  0  0  0  0
  129.2550  129.7460   72.7110 C   0  0  2  0  0  0  0  0  0  0  0  0
  128.4660  129.9010   74.0230 C   0  0  0  0  0  0  0  0  0  0  0  0
  127.2370  130.6880   73.6360 C   0  0  0  0  0  0  0  0  0  0  0  0
  127.7890  131.5820   72.5390 C   0  0  0  0  0  0  0  0  0  0  0  0
  128.6490  130.6990   71.8270 O   0  0  0  0  0  0  0  0  0  0  0  0
  128.1470  128.3620   67.4100 C   0  0  0  0  0  0  0  0  0  0  0  0
  128.2510  129.5720   66.7120 C   0  0  0  0  0  0  0  0  0  0  0  0
  127.1750  130.0620   65.9790 C   0  0  0  0  0  0  0  0  0  0  0  0
  125.9840  129.3440   65.9370 C   0  0  0  0  0  0  0  0  0  0  0  0
  124.9380  129.8190   65.2240 F   0  0  0  0  0  0  0  0  0  0  0  0
  125.8620  128.1380   66.6230 C   0  0  0  0  0  0  0  0  0  0  0  0
  126.9390  127.6490   67.3570 C   0  0  0  0  0  0  0  0  0  0  0  0
  132.4120  125.1270   64.6770 N   0  0  0  0  0  0  0  0  0  0  0  0
  132.0970  124.7300   61.7650 C   0  0  0  0  0  0  0  0  0  0  0  0
  131.9670  124.4170   60.4010 C   0  0  0  0  0  0  0  0  0  0  0  0
  130.7690  124.4810   59.7100 O   0  0  0  0  0  0  0  0  0  0  0  0
  130.1910  123.2870   59.1920 C   0  0  0  0  0  0  0  0  0  0  0  0
  132.7915  125.7315   57.9078 H   0  0  0  0  0  0  0  0  0  0  0  0
  133.7521  124.7459   56.7534 H   0  0  0  0  0  0  0  0  0  0  0  0
  131.9592  124.6353   56.7534 H   0  0  0  0  0  0  0  0  0  0  0  0
  135.2311  123.6250   59.7668 H   0  0  0  0  0  0  0  0  0  0  0  0
  135.4334  124.1914   62.1738 H   0  0  0  0  0  0  0  0  0  0  0  0
  131.5211  124.7202   67.1199 H   0  0  0  0  0  0  0  0  0  0  0  0
  132.9994  125.4817   67.8998 H   0  0  0  0  0  0  0  0  0  0  0  0
  129.3288  124.9405   67.6810 H   0  0  0  0  0  0  0  0  0  0  0  0
  128.3148  126.1120   66.7121 H   0  0  0  0  0  0  0  0  0  0  0  0
  130.9322  125.3411   65.5287 H   0  0  0  0  0  0  0  0  0  0  0  0
  129.6262  124.0527   65.6302 H   0  0  0  0  0  0  0  0  0  0  0  0
  128.1442  125.9565   64.5619 H   0  0  0  0  0  0  0  0  0  0  0  0
  129.7783  126.5309   63.9743 H   0  0  0  0  0  0  0  0  0  0  0  0
  130.4681  123.2876   64.0070 H   0  0  0  0  0  0  0  0  0  0  0  0
  128.7176  123.0405   64.3985 H   0  0  0  0  0  0  0  0  0  0  0  0
  130.0726  122.5757   61.6858 H   0  0  0  0  0  0  0  0  0  0  0  0
  129.4327  121.3206   62.8091 H   0  0  0  0  0  0  0  0  0  0  0  0
  128.5140  124.0290   60.5838 H   0  0  0  0  0  0  0  0  0  0  0  0
  126.7572  123.8162   60.9139 H   0  0  0  0  0  0  0  0  0  0  0  0
  127.7458  125.8167   62.0913 H   0  0  0  0  0  0  0  0  0  0  0  0
  127.0535  124.5825   63.2233 H   0  0  0  0  0  0  0  0  0  0  0  0
  129.9847  128.7770   68.3160 H   0  0  0  0  0  0  0  0  0  0  0  0
  129.3720  129.4400   70.2170 H   0  0  0  0  0  0  0  0  0  0  0  0
  128.1579  127.9274   72.2900 H   0  0  0  0  0  0  0  0  0  0  0  0
  129.9559  127.7369   72.3525 H   0  0  0  0  0  0  0  0  0  0  0  0
  130.3242  129.8762   72.9344 H   0  0  0  0  0  0  0  0  0  0  0  0
  128.1860  128.9168   74.4266 H   0  0  0  0  0  0  0  0  0  0  0  0
  129.0531  130.4019   74.8068 H   0  0  0  0  0  0  0  0  0  0  0  0
  126.4407  130.0305   73.2570 H   0  0  0  0  0  0  0  0  0  0  0  0
  126.7706  131.2336   74.4696 H   0  0  0  0  0  0  0  0  0  0  0  0
  126.9841  131.9609   71.8920 H   0  0  0  0  0  0  0  0  0  0  0  0
  128.2988  132.4795   72.9192 H   0  0  0  0  0  0  0  0  0  0  0  0
  129.1924  130.1401   66.7438 H   0  0  0  0  0  0  0  0  0  0  0  0
  127.2654  131.0136   65.4346 H   0  0  0  0  0  0  0  0  0  0  0  0
  124.9183  127.5741   66.5849 H   0  0  0  0  0  0  0  0  0  0  0  0
  126.8427  126.6969   67.8994 H   0  0  0  0  0  0  0  0  0  0  0  0
  131.2076  125.0426   62.3318 H   0  0  0  0  0  0  0  0  0  0  0  0
  129.8778  122.6400   60.0247 H   0  0  0  0  0  0  0  0  0  0  0  0
  129.3160  123.5407   58.5756 H   0  0  0  0  0  0  0  0  0  0  0  0
  130.9328  122.7580   58.5756 H   0  0  0  0  0  0  0  0  0  0  0  0
  1  2  1  0
  2  3  1  0
  3  4  2  0
  4  5  1  0
  5  6  2  0
  6  7  1  0
  7  8  1  0
  8  9  2  0
  9 10  1  0
 10 11  1  0
 11 12  1  0
 12 13  2  0
 12 14  1  0
 14 15  1  0
 15 16  1  0
 16 17  1  0
 17 18  1  0
 18 19  1  0
 19 20  1  0
 20 21  1  0
 21 22  1  0
 22 23  1  0
 14 24  1  0
 24 25  1  0
 25 26  2  0
 25 27  1  0
 27 28  1  0
 28 29  1  0
 29 30  1  0
 30 31  1  0
 31 32  1  0
 32 33  1  0
 24 34  1  0
 34 35  2  0
 35 36  1  0
 36 37  2  0
 37 38  1  0
 37 39  1  0
 39 40  2  0
 10 41  1  0
  6 42  1  0
 42 43  2  0
 43 44  1  0
 44 45  1  0
 43  3  1  0
 41  7  2  0
 23 18  1  0
 33 29  1  0
 40 34  1  0
  1 46  1  0
  1 47  1  0
  1 48  1  0
  4 49  1  0
  5 50  1  0
 11 51  1  0
 11 52  1  0
 15 53  1  0
 15 54  1  0
 16 55  1  0
 16 56  1  0
 17 57  1  0
 17 58  1  0
 19 59  1  0
 19 60  1  0
 20 61  1  0
 20 62  1  0
 22 63  1  0
 22 64  1  0
 23 65  1  0
 23 66  1  0
 24 67  1  1
 27 68  1  0
 28 69  1  0
 28 70  1  0
 29 71  1  1
 30 72  1  0
 30 73  1  0
 31 74  1  0
 31 75  1  0
 32 76  1  0
 32 77  1  0
 35 78  1  0
 36 79  1  0
 39 80  1  0
 40 81  1  0
 42 82  1  0
 45 83  1  0
 45 84  1  0
 45 85  1  0
M  END
>  <Binding energies>  (1) 
[-9.22]

>  <Ligand effiencies>  (1) 
[-0.20043478260869566]

>  <Interactions>  (1) 
["V-A:GLU:543:CD:4908, V-A:ASP:366:CG:3212, V-A:ARG:545:CG:4922, H-A:TYR:484:OH:4347, V-A:ASP:366:CA:3209, V-A:ASP:366:CB:3211, V-A:TYR:484:CZ:4346, H-A:ARG:545:NH2:4928, V-A:ILE:369:CD1:3238, H-A:ARG:545:NH1:4927, V-A:ARG:545:CZ:4926, H-A:GLY:454:N:4049, V-A:ILE:369:CB:3235, H-A:ARG:545:NE:4924, V-A:ILE:369:CG2:3236, V-B:TYR:539:CE2:9848, H-B:ALA:541:N:9863, V-B:GLU:543:CG:9879, V-B:TYR:539:CZ:9849, V-B:ALA:541:CB:9864, V-B:GLU:543:CD:9880, V-A:HIS:456:CE1:4069, V-A:GLU:543:CG:4907, V-B:HIS:456:CE1:9041, V-B:TYR:484:CE2:9317, V-A:GLU:543:CB:4906, V-B:GLU:543:CB:9878, V-A:GLU:543:C:4902, V-B:TYR:484:CD2:9315, V-B:ARG:545:CG:9894, V-B:ARG:545:CD:9895, V-B:ARG:545:CZ:9898, V-B:HIS:456:CG:9037, V-B:HIS:456:CD2:9039, H-B:TYR:539:OH:9850, V-B:TYR:484:CZ:9318, H-A:GLU:543:O:4903, H-B:HIS:456:NE2:9042, V-B:TYR:484:CB:9312, V-B:HIS:456:CB:9036, V-B:TYR:484:CG:9313, V-B:TYR:484:CD1:9314, V-A:ASP:366:C:3207"]

$$$$
RR16_Rahimova_2017
     RDKit          3D

 80 85  0  0  0  0  0  0  0  0999 V2000
  123.7360  130.0160   63.8970 O   0  0  0  0  0  0  0  0  0  0  0  0
  124.9390  130.8390   64.0660 S   0  0  0  0  0  0  0  0  0  0  0  0
  124.8380  132.2440   64.4790 O   0  0  0  0  0  0  0  0  0  0  0  0
  125.8450  130.7750   62.5530 N   0  0  0  0  0  0  0  0  0  0  0  0
  125.3370  131.4470   61.3330 C   0  0  0  0  0  0  0  0  0  0  0  0
  124.5660  132.7290   61.7420 C   0  0  0  0  0  0  0  0  0  0  0  0
  124.8690  134.0180   60.9530 C   0  0  0  0  0  0  0  0  0  0  0  0
  126.2290  134.6520   61.2910 C   0  0  0  0  0  0  0  0  0  0  0  0
  127.3050  133.6870   61.8260 C   0  0  0  0  0  0  0  0  0  0  0  0
  127.6860  132.4890   60.9330 C   0  0  0  0  0  0  0  0  0  0  0  0
  126.5210  131.6580   60.3610 C   0  0  0  0  0  0  0  0  0  0  0  0
  125.9840  129.9930   65.2460 C   0  0  0  0  0  0  0  0  0  0  0  0
  127.3290  130.3460   65.3770 C   0  0  0  0  0  0  0  0  0  0  0  0
  128.1600  129.6000   66.2090 C   0  0  0  0  0  0  0  0  0  0  0  0
  127.6420  128.5050   66.9050 C   0  0  0  0  0  0  0  0  0  0  0  0
  128.7370  127.4600   67.8630 S   0  0  0  0  0  0  0  0  0  0  0  0
  127.9000  126.4850   68.5760 O   0  0  0  0  0  0  0  0  0  0  0  0
  129.6460  128.3400   68.6080 O   0  0  0  0  0  0  0  0  0  0  0  0
  129.6860  126.5910   66.6420 N   0  0  0  0  0  0  0  0  0  0  0  0
  131.1350  126.4830   66.9520 C   0  0  0  0  0  0  0  0  0  0  0  0
  131.9170  126.0010   65.7130 C   0  0  0  0  0  0  0  0  0  0  0  0
  131.3240  124.6940   65.1310 C   0  0  0  0  0  0  0  0  0  0  0  0
  132.0580  124.2240   63.8720 C   0  0  0  0  0  0  0  0  0  0  0  0
  133.3640  124.6680   63.6220 C   0  0  0  0  0  0  0  0  0  0  0  0
  134.0730  124.2580   62.4920 C   0  0  0  0  0  0  0  0  0  0  0  0
  135.3520  124.7000   62.2660 O   0  0  0  0  0  0  0  0  0  0  0  0
  133.4440  123.3790   61.5980 C   0  0  0  0  0  0  0  0  0  0  0  0
  133.8890  122.8070   60.4410 N   0  0  0  0  0  0  0  0  0  0  0  0
  132.8810  121.9960   59.9660 N   0  0  0  0  0  0  0  0  0  0  0  0
  131.8220  122.1040   60.7920 N   0  0  0  0  0  0  0  0  0  0  0  0
  130.6370  121.2840   60.5760 C   0  0  0  0  0  0  0  0  0  0  0  0
  129.4530  122.0890   60.0580 C   0  0  0  0  0  0  0  0  0  0  0  0
  129.4630  122.5880   58.7510 C   0  0  0  0  0  0  0  0  0  0  0  0
  128.3690  123.3070   58.2660 C   0  0  0  0  0  0  0  0  0  0  0  0
  127.2600  123.5280   59.0840 C   0  0  0  0  0  0  0  0  0  0  0  0
  127.2440  123.0300   60.3870 C   0  0  0  0  0  0  0  0  0  0  0  0
  125.8700  123.2930   61.3970 Cl  0  0  0  0  0  0  0  0  0  0  0  0
  128.3400  122.3150   60.8740 C   0  0  0  0  0  0  0  0  0  0  0  0
  132.1230  122.9420   61.8530 C   0  0  0  0  0  0  0  0  0  0  0  0
  131.4100  123.3550   62.9830 C   0  0  0  0  0  0  0  0  0  0  0  0
  129.7880  124.7820   64.9330 C   0  0  0  0  0  0  0  0  0  0  0  0
  129.0750  125.3130   66.1930 C   0  0  0  0  0  0  0  0  0  0  0  0
  126.2880  128.1790   66.8050 C   0  0  0  0  0  0  0  0  0  0  0  0
  125.4590  128.9220   65.9720 C   0  0  0  0  0  0  0  0  0  0  0  0
  126.8590  130.6590   62.6220 H   0  0  0  0  0  0  0  0  0  0  0  0
  124.6049  130.8363   60.7843 H   0  0  0  0  0  0  0  0  0  0  0  0
  123.4921  132.5183   61.6309 H   0  0  0  0  0  0  0  0  0  0  0  0
  124.8971  132.9421   62.7691 H   0  0  0  0  0  0  0  0  0  0  0  0
  124.8563  133.7778   59.8796 H   0  0  0  0  0  0  0  0  0  0  0  0
  124.0976  134.7510   61.2316 H   0  0  0  0  0  0  0  0  0  0  0  0
  126.6202  135.1195   60.3753 H   0  0  0  0  0  0  0  0  0  0  0  0
  126.0325  135.3624   62.1075 H   0  0  0  0  0  0  0  0  0  0  0  0
  128.2190  134.2741   61.9993 H   0  0  0  0  0  0  0  0  0  0  0  0
  126.8601  133.2384   62.7265 H   0  0  0  0  0  0  0  0  0  0  0  0
  128.2678  132.8771   60.0839 H   0  0  0  0  0  0  0  0  0  0  0  0
  128.2384  131.8011   61.5900 H   0  0  0  0  0  0  0  0  0  0  0  0
  126.1413  132.1719   59.4656 H   0  0  0  0  0  0  0  0  0  0  0  0
  126.9286  130.6588   60.1477 H   0  0  0  0  0  0  0  0  0  0  0  0
  127.7300  131.2092   64.8256 H   0  0  0  0  0  0  0  0  0  0  0  0
  129.2203  129.8719   66.3178 H   0  0  0  0  0  0  0  0  0  0  0  0
  131.5142  127.4690   67.2586 H   0  0  0  0  0  0  0  0  0  0  0  0
  131.2720  125.7549   67.7651 H   0  0  0  0  0  0  0  0  0  0  0  0
  131.8789  126.7839   64.9412 H   0  0  0  0  0  0  0  0  0  0  0  0
  132.9537  125.7989   66.0204 H   0  0  0  0  0  0  0  0  0  0  0  0
  131.4924  123.9125   65.8866 H   0  0  0  0  0  0  0  0  0  0  0  0
  133.8419  125.3567   64.3343 H   0  0  0  0  0  0  0  0  0  0  0  0
  135.4020  125.3930   61.6040 H   0  0  0  0  0  0  0  0  0  0  0  0
  130.8792  120.5017   59.8416 H   0  0  0  0  0  0  0  0  0  0  0  0
  130.3482  120.8546   61.5467 H   0  0  0  0  0  0  0  0  0  0  0  0
  130.3352  122.4134   58.1038 H   0  0  0  0  0  0  0  0  0  0  0  0
  128.3811  123.6996   57.2385 H   0  0  0  0  0  0  0  0  0  0  0  0
  126.3985  124.0949   58.7013 H   0  0  0  0  0  0  0  0  0  0  0  0
  128.3279  121.9280   61.9036 H   0  0  0  0  0  0  0  0  0  0  0  0
  130.3813  123.0115   63.1670 H   0  0  0  0  0  0  0  0  0  0  0  0
  129.5761  125.4592   64.0925 H   0  0  0  0  0  0  0  0  0  0  0  0
  129.4119  123.7684   64.7303 H   0  0  0  0  0  0  0  0  0  0  0  0
  128.0127  125.4817   65.9629 H   0  0  0  0  0  0  0  0  0  0  0  0
  129.1774  124.5698   66.9974 H   0  0  0  0  0  0  0  0  0  0  0  0
  125.8787  127.3374   67.3831 H   0  0  0  0  0  0  0  0  0  0  0  0
  124.3925  128.6668   65.8851 H   0  0  0  0  0  0  0  0  0  0  0  0
  1  2  2  0
  2  3  2  0
  2  4  1  0
  4  5  1  0
  5  6  1  0
  6  7  1  0
  7  8  1  0
  8  9  1  0
  9 10  1  0
 10 11  1  0
  2 12  1  0
 12 13  2  0
 13 14  1  0
 14 15  2  0
 15 16  1  0
 16 17  2  0
 16 18  2  0
 16 19  1  0
 19 20  1  0
 20 21  1  0
 21 22  1  0
 22 23  1  0
 23 24  2  0
 24 25  1  0
 25 26  1  0
 25 27  2  0
 27 28  1  0
 28 29  2  0
 29 30  1  0
 30 31  1  0
 31 32  1  0
 32 33  2  0
 33 34  1  0
 34 35  2  0
 35 36  1  0
 36 37  1  0
 36 38  2  0
 30 39  1  0
 39 40  2  0
 22 41  1  0
 41 42  1  0
 15 43  1  0
 43 44  2  0
 11  5  1  0
 44 12  1  0
 42 19  1  0
 40 23  1  0
 39 27  1  0
 38 32  1  0
  4 45  1  0
  5 46  1  0
  6 47  1  0
  6 48  1  0
  7 49  1  0
  7 50  1  0
  8 51  1  0
  8 52  1  0
  9 53  1  0
  9 54  1  0
 10 55  1  0
 10 56  1  0
 11 57  1  0
 11 58  1  0
 13 59  1  0
 14 60  1  0
 20 61  1  0
 20 62  1  0
 21 63  1  0
 21 64  1  0
 22 65  1  0
 24 66  1  0
 26 67  1  0
 31 68  1  0
 31 69  1  0
 33 70  1  0
 34 71  1  0
 35 72  1  0
 38 73  1  0
 40 74  1  0
 41 75  1  0
 41 76  1  0
 42 77  1  0
 42 78  1  0
 43 79  1  0
 44 80  1  0
M  END
>  <Binding energies>  (1) 
[-10.46]

>  <Ligand effiencies>  (1) 
[-0.21791666666666668]

>  <Interactions>  (1) 
["V-A:ALA:541:CB:4892, V-A:TYR:539:CE1:4875, V-A:TYR:539:CD1:4873, V-B:LEU:475:CD1:9229, V-A:GLU:543:CD:4908, V-A:GLY:453:C:4041, V-A:TYR:484:CZ:4346, H-A:ARG:545:NH1:4927, V-A:ARG:545:CZ:4926, H-A:GLY:454:N:4049, H-A:ASP:366:OD2:3214, H-A:ASP:366:OD1:3213, V-B:TYR:539:CD2:9846, V-B:TYR:539:CE2:9848, V-B:PRO:540:CA:9855, V-B:GLU:543:CG:9879, V-B:TYR:539:CZ:9849, V-B:GLU:543:CD:9880, V-B:PRO:540:CB:9857, V-A:HIS:456:CE1:4069, V-A:GLU:543:CG:4907, V-B:HIS:456:CE1:9041, V-B:TYR:484:CE2:9317, V-A:GLY:453:CA:4043, V-A:GLU:543:CB:4906, V-B:GLU:543:CB:9878, H-B:TYR:484:OH:9319, H-B:ARG:545:NH2:9900, H-B:GLY:454:N:9021, V-B:GLY:454:CA:9020, V-B:ILE:369:CG2:8208, V-B:ILE:369:CD1:8210, H-B:ARG:545:NH1:9899, V-B:ARG:545:CG:9894, V-B:ARG:545:CZ:9898, V-B:PRO:540:C:9853"]

$$$$
RR17_Rahimova_2017
     RDKit          3D

 63 66  0  0  0  0  0  0  0  0999 V2000
  134.4010  124.0430   62.2000 C   0  0  0  0  0  0  0  0  0  0  0  0
  133.5320  125.0470   62.9630 C   0  0  0  0  0  0  0  0  0  0  0  0
  133.6020  124.7480   64.3550 O   0  0  0  0  0  0  0  0  0  0  0  0
  132.6720  125.3020   65.2150 C   0  0  0  0  0  0  0  0  0  0  0  0
  131.3330  125.1860   64.8420 C   0  0  0  0  0  0  0  0  0  0  0  0
  130.3260  125.7140   65.6430 C   0  0  0  0  0  0  0  0  0  0  0  0
  130.6390  126.3730   66.8400 C   0  0  0  0  0  0  0  0  0  0  0  0
  129.5300  126.9320   67.6850 C   0  0  0  0  0  0  0  0  0  0  0  0
  129.6240  127.0410   68.9110 O   0  0  0  0  0  0  0  0  0  0  0  0
  128.2370  127.3570   66.9540 C   0  0  0  0  0  0  0  0  0  0  0  0
  127.9090  129.1480   67.1210 S   0  0  0  0  0  0  0  0  0  0  0  0
  126.3570  129.2530   66.2750 C   0  0  0  0  0  0  0  0  0  0  0  0
  125.1900  128.9380   66.7860 N   0  0  0  0  0  0  0  0  0  0  0  0
  124.2240  129.1660   65.8130 N   0  0  0  0  0  0  0  0  0  0  0  0
  124.8440  129.6140   64.7510 C   0  0  0  0  0  0  0  0  0  0  0  0
  124.1570  130.0030   63.4500 C   0  0  0  0  0  0  0  0  0  0  0  0
  125.0840  130.3590   62.3780 N   0  0  0  0  0  0  0  0  0  0  0  0
  125.3020  131.6770   61.9400 C   0  0  0  0  0  0  0  0  0  0  0  0
  124.4850  132.6740   62.4720 C   0  0  0  0  0  0  0  0  0  0  0  0
  124.6440  134.0000   62.0780 C   0  0  0  0  0  0  0  0  0  0  0  0
  125.6270  134.3450   61.1470 C   0  0  0  0  0  0  0  0  0  0  0  0
  125.7840  135.8040   60.7200 C   0  0  0  0  0  0  0  0  0  0  0  0
  126.1000  136.5990   61.7440 F   0  0  0  0  0  0  0  0  0  0  0  0
  126.7430  135.9190   59.8000 F   0  0  0  0  0  0  0  0  0  0  0  0
  124.6350  136.2320   60.1960 F   0  0  0  0  0  0  0  0  0  0  0  0
  126.4530  133.3470   60.6180 C   0  0  0  0  0  0  0  0  0  0  0  0
  126.2940  132.0230   61.0130 C   0  0  0  0  0  0  0  0  0  0  0  0
  126.2040  129.6830   64.9720 N   0  0  0  0  0  0  0  0  0  0  0  0
  127.1980  130.1210   64.0840 C   0  0  0  0  0  0  0  0  0  0  0  0
  127.7400  129.2260   63.1620 C   0  0  0  0  0  0  0  0  0  0  0  0
  128.7290  129.6600   62.2840 C   0  0  0  0  0  0  0  0  0  0  0  0
  129.1790  130.9890   62.3260 C   0  0  0  0  0  0  0  0  0  0  0  0
  130.1530  131.5080   61.4950 O   0  0  0  0  0  0  0  0  0  0  0  0
  131.2860  130.7090   61.1710 C   0  0  0  0  0  0  0  0  0  0  0  0
  128.6260  131.8710   63.2570 C   0  0  0  0  0  0  0  0  0  0  0  0
  127.6360  131.4440   64.1380 C   0  0  0  0  0  0  0  0  0  0  0  0
  131.9850  126.4890   67.2150 C   0  0  0  0  0  0  0  0  0  0  0  0
  132.9920  125.9590   66.4120 C   0  0  0  0  0  0  0  0  0  0  0  0
  134.9472  123.4119   62.9165 H   0  0  0  0  0  0  0  0  0  0  0  0
  133.7609  123.4102   61.5677 H   0  0  0  0  0  0  0  0  0  0  0  0
  135.1191  124.5857   61.5677 H   0  0  0  0  0  0  0  0  0  0  0  0
  133.9022  126.0674   62.7847 H   0  0  0  0  0  0  0  0  0  0  0  0
  132.4899  124.9789   62.6173 H   0  0  0  0  0  0  0  0  0  0  0  0
  131.0709  124.6720   63.9054 H   0  0  0  0  0  0  0  0  0  0  0  0
  129.2749  125.6136   65.3346 H   0  0  0  0  0  0  0  0  0  0  0  0
  128.3367  127.1128   65.8861 H   0  0  0  0  0  0  0  0  0  0  0  0
  127.3960  126.8147   67.4107 H   0  0  0  0  0  0  0  0  0  0  0  0
  123.5462  129.1527   63.1124 H   0  0  0  0  0  0  0  0  0  0  0  0
  123.5525  130.8973   63.6615 H   0  0  0  0  0  0  0  0  0  0  0  0
  125.4240  129.6100   61.7930 H   0  0  0  0  0  0  0  0  0  0  0  0
  123.7102  132.4113   63.2074 H   0  0  0  0  0  0  0  0  0  0  0  0
  123.9930  134.7791   62.5014 H   0  0  0  0  0  0  0  0  0  0  0  0
  127.2313  133.6107   59.8867 H   0  0  0  0  0  0  0  0  0  0  0  0
  126.9496  131.2444   60.5960 H   0  0  0  0  0  0  0  0  0  0  0  0
  127.3883  128.1843   63.1289 H   0  0  0  0  0  0  0  0  0  0  0  0
  129.1597  128.9587   61.5542 H   0  0  0  0  0  0  0  0  0  0  0  0
  131.7707  130.3672   62.0974 H   0  0  0  0  0  0  0  0  0  0  0  0
  130.9637  129.8372   60.5826 H   0  0  0  0  0  0  0  0  0  0  0  0
  131.9990  131.3052   60.5826 H   0  0  0  0  0  0  0  0  0  0  0  0
  128.9760  132.9132   63.2946 H   0  0  0  0  0  0  0  0  0  0  0  0
  127.2037  132.1430   64.8691 H   0  0  0  0  0  0  0  0  0  0  0  0
  132.2479  127.0030   68.1513 H   0  0  0  0  0  0  0  0  0  0  0  0
  134.0440  126.0562   66.7183 H   0  0  0  0  0  0  0  0  0  0  0  0
  1  2  1  0
  2  3  1  0
  3  4  1  0
  4  5  2  0
  5  6  1  0
  6  7  2  0
  7  8  1  0
  8  9  2  0
  8 10  1  0
 10 11  1  0
 11 12  1  0
 12 13  2  0
 13 14  1  0
 14 15  2  0
 15 16  1  0
 16 17  1  0
 17 18  1  0
 18 19  2  0
 19 20  1  0
 20 21  2  0
 21 22  1  0
 22 23  1  0
 22 24  1  0
 22 25  1  0
 21 26  1  0
 26 27  2  0
 15 28  1  0
 28 29  1  0
 29 30  2  0
 30 31  1  0
 31 32  2  0
 32 33  1  0
 33 34  1  0
 32 35  1  0
 35 36  2  0
  7 37  1  0
 37 38  2  0
 38  4  1  0
 28 12  1  0
 36 29  1  0
 27 18  1  0
  1 39  1  0
  1 40  1  0
  1 41  1  0
  2 42  1  0
  2 43  1  0
  5 44  1  0
  6 45  1  0
 10 46  1  0
 10 47  1  0
 16 48  1  0
 16 49  1  0
 17 50  1  0
 19 51  1  0
 20 52  1  0
 26 53  1  0
 27 54  1  0
 30 55  1  0
 31 56  1  0
 34 57  1  0
 34 58  1  0
 34 59  1  0
 35 60  1  0
 36 61  1  0
 37 62  1  0
 38 63  1  0
M  END
>  <Binding energies>  (1) 
[-8.76]

>  <Ligand effiencies>  (1) 
[-0.2246153846153846]

>  <Interactions>  (1) 
["V-A:ALA:541:CB:4892, V-A:TYR:539:CE1:4875, V-A:TYR:539:CD1:4873, V-B:LEU:475:CD1:9229, V-A:GLU:543:CD:4908, V-A:TYR:539:C:4867, V-A:ASP:366:CG:3212, V-A:ARG:545:CD:4923, V-A:ARG:545:CG:4922, V-A:GLY:453:C:4041, H-A:TYR:484:OH:4347, H-A:ARG:545:NH2:4928, V-A:ILE:369:CD1:3238, V-A:ARG:545:CZ:4926, H-A:GLY:454:N:4049, V-A:HIS:456:CE1:4069, V-A:GLU:543:CG:4907, V-B:HIS:456:CE1:9041, V-A:GLY:453:CA:4043, H-B:ASP:366:OD2:8186, H-B:TYR:484:OH:9319, H-B:ARG:545:NH2:9900, H-B:GLY:454:N:9021, V-B:PRO:482:CB:9297, V-A:TYR:539:CB:4871, V-B:GLY:454:CA:9020, V-B:ILE:369:CG2:8208, V-B:ILE:369:CD1:8210, H-A:ALA:541:N:4891, H-B:ARG:545:NH1:9899, V-B:PRO:482:CG:9298, V-A:ALA:541:CA:4890, V-B:LEU:373:CD1:8251, V-B:SER:385:CB:8380, H-B:ARG:545:NE:9896, V-B:ARG:545:CZ:9898, V-A:TYR:539:CG:4872, V-A:TYR:539:CA:4869"]

$$$$
RR18_Rahimova_2017
     RDKit          3D

 56 61  0  0  0  0  0  0  0  0999 V2000
  129.8270  131.9280   58.4250 C   0  0  0  0  0  0  0  0  0  0  0  0
  129.3410  131.0030   59.5120 C   0  0  0  0  0  0  0  0  0  0  0  0
  129.8950  130.5190   60.6870 C   0  0  0  0  0  0  0  0  0  0  0  0
  128.9390  129.6880   61.2700 C   0  0  0  0  0  0  0  0  0  0  0  0
  127.8360  129.6950   60.4320 C   0  0  0  0  0  0  0  0  0  0  0  0
  126.4680  129.0180   60.4780 C   0  0  1  0  0  0  0  0  0  0  0  0
  125.4070  129.8190   59.6660 C   0  0  0  0  0  0  0  0  0  0  0  0
  125.0090  131.1580   60.0890 C   0  0  0  0  0  0  0  0  0  0  0  0
  123.8320  131.4450   60.3160 O   0  0  0  0  0  0  0  0  0  0  0  0
  126.0380  132.0270   60.2190 N   0  0  0  0  0  0  0  0  0  0  0  0
  126.0410  133.3910   60.5840 C   0  0  0  0  0  0  0  0  0  0  0  0
  125.0260  134.2940   60.2160 C   0  0  0  0  0  0  0  0  0  0  0  0
  125.0920  135.6310   60.6030 C   0  0  0  0  0  0  0  0  0  0  0  0
  126.1700  136.0890   61.3540 C   0  0  0  0  0  0  0  0  0  0  0  0
  127.1880  135.2090   61.7150 C   0  0  0  0  0  0  0  0  0  0  0  0
  127.1350  133.8640   61.3350 C   0  0  0  0  0  0  0  0  0  0  0  0
  128.2780  132.9430   61.7530 C   0  0  0  0  0  0  0  0  0  0  0  0
  124.9430  129.2860   58.5050 C   0  0  0  0  0  0  0  0  0  0  0  0
  125.2450  128.0390   58.0480 N   0  0  0  0  0  0  0  0  0  0  0  0
  125.9520  127.2550   58.7740 C   0  0  0  0  0  0  0  0  0  0  0  0
  126.2930  125.5850   58.3900 S   0  0  0  0  0  0  0  0  0  0  0  0
  127.2290  125.3730   59.9030 C   0  0  0  0  0  0  0  0  0  0  0  0
  127.8590  124.2270   60.3390 C   0  0  0  0  0  0  0  0  0  0  0  0
  127.7360  122.9760   59.5750 C   0  0  0  0  0  0  0  0  0  0  0  0
  127.1470  122.7470   58.5200 O   0  0  0  0  0  0  0  0  0  0  0  0
  128.3950  122.0300   60.2520 N   0  0  0  0  0  0  0  0  0  0  0  0
  128.9890  122.5020   61.3830 C   0  0  0  0  0  0  0  0  0  0  0  0
  129.7590  121.7920   62.3040 C   0  0  0  0  0  0  0  0  0  0  0  0
  130.3080  122.4720   63.3880 C   0  0  0  0  0  0  0  0  0  0  0  0
  130.0860  123.8410   63.5260 C   0  0  0  0  0  0  0  0  0  0  0  0
  129.3100  124.5300   62.5910 C   0  0  0  0  0  0  0  0  0  0  0  0
  128.7270  123.8560   61.5010 C   0  0  0  0  0  0  0  0  0  0  0  0
  127.2060  126.6420   60.6300 C   0  0  0  0  0  0  0  0  0  0  0  0
  127.6970  126.8610   61.7330 O   0  0  0  0  0  0  0  0  0  0  0  0
  126.5340  127.6100   59.9480 N   0  0  0  0  0  0  0  0  0  0  0  0
  128.0900  130.4960   59.3630 O   0  0  0  0  0  0  0  0  0  0  0  0
  130.2929  132.8148   58.8794 H   0  0  0  0  0  0  0  0  0  0  0  0
  130.5664  131.4043   57.8013 H   0  0  0  0  0  0  0  0  0  0  0  0
  128.9762  132.2397   57.8013 H   0  0  0  0  0  0  0  0  0  0  0  0
  130.8957  130.7466   61.0830 H   0  0  0  0  0  0  0  0  0  0  0  0
  129.0411  129.1332   62.2143 H   0  0  0  0  0  0  0  0  0  0  0  0
  126.1654  128.9916   61.5352 H   0  0  0  0  0  0  0  0  0  0  0  0
  126.9590  131.6400   60.0850 H   0  0  0  0  0  0  0  0  0  0  0  0
  124.1731  133.9412   59.6176 H   0  0  0  0  0  0  0  0  0  0  0  0
  124.2899  136.3260   60.3141 H   0  0  0  0  0  0  0  0  0  0  0  0
  126.2184  137.1439   61.6621 H   0  0  0  0  0  0  0  0  0  0  0  0
  128.0414  135.5754   62.3044 H   0  0  0  0  0  0  0  0  0  0  0  0
  128.3314  132.9000   62.8509 H   0  0  0  0  0  0  0  0  0  0  0  0
  128.0997  131.9333   61.3547 H   0  0  0  0  0  0  0  0  0  0  0  0
  129.2267  133.3320   61.3547 H   0  0  0  0  0  0  0  0  0  0  0  0
  124.2751  129.9068   57.8898 H   0  0  0  0  0  0  0  0  0  0  0  0
  128.4600  121.0720   59.9390 H   0  0  0  0  0  0  0  0  0  0  0  0
  129.9297  120.7129   62.1762 H   0  0  0  0  0  0  0  0  0  0  0  0
  130.9133  121.9320   64.1310 H   0  0  0  0  0  0  0  0  0  0  0  0
  130.5248  124.3825   64.3770 H   0  0  0  0  0  0  0  0  0  0  0  0
  129.1525  125.6124   62.7077 H   0  0  0  0  0  0  0  0  0  0  0  0
  1  2  1  0
  2  3  2  0
  3  4  1  0
  4  5  2  0
  5  6  1  0
  6  7  1  0
  7  8  1  0
  8  9  2  0
  8 10  1  0
 10 11  1  0
 11 12  2  0
 12 13  1  0
 13 14  2  0
 14 15  1  0
 15 16  2  0
 16 17  1  0
  7 18  2  0
 18 19  1  0
 19 20  2  0
 20 21  1  0
 21 22  1  0
 22 23  2  0
 23 24  1  0
 24 25  2  0
 24 26  1  0
 26 27  1  0
 27 28  2  0
 28 29  1  0
 29 30  2  0
 30 31  1  0
 31 32  2  0
 22 33  1  0
 33 34  2  0
 33 35  1  0
  5 36  1  0
 36  2  1  0
 35  6  1  0
 16 11  1  0
 35 20  1  0
 32 23  1  0
 32 27  1  0
  1 37  1  0
  1 38  1  0
  1 39  1  0
  3 40  1  0
  4 41  1  0
  6 42  1  1
 10 43  1  0
 12 44  1  0
 13 45  1  0
 14 46  1  0
 15 47  1  0
 17 48  1  0
 17 49  1  0
 17 50  1  0
 18 51  1  0
 26 52  1  0
 28 53  1  0
 29 54  1  0
 30 55  1  0
 31 56  1  0
M  END
>  <Binding energies>  (1) 
[-8.22]

>  <Ligand effiencies>  (1) 
[-0.21631578947368424]

>  <Interactions>  (1) 
["V-A:ALA:541:CB:4892, V-A:TYR:539:CE1:4875, V-A:PRO:540:N:4884, V-A:PRO:540:CA:4883, V-A:TYR:539:CD1:4873, V-B:LEU:475:CD1:9229, V-A:TYR:539:C:4867, H-B:TYR:539:O:9840, V-B:PRO:540:CA:9855, V-B:ALA:541:CB:9864, V-B:PRO:540:N:9856, V-B:TYR:539:C:9839, V-B:PRO:482:CB:9297, V-B:ILE:369:CG2:8208, V-B:PRO:482:CG:9298, V-B:ASP:366:CG:8184, V-A:ALA:541:CA:4890, V-B:ASP:366:CB:8183, V-B:SER:385:CB:8380, V-B:PRO:540:C:9853, H-B:TYR:531:OH:9767, V-B:ASP:366:CA:8181"]

$$$$
RR19_Rahimova_2017
     RDKit          3D

 72 77  0  0  0  0  0  0  0  0999 V2000
  129.0820  124.2220   61.2790 O   0  0  0  0  0  0  0  0  0  0  0  0
  129.4340  124.7330   62.3460 C   0  0  0  0  0  0  0  0  0  0  0  0
  128.8610  125.8090   62.9420 N   0  0  0  0  0  0  0  0  0  0  0  0
  127.6860  126.4850   62.7230 C   0  0  0  0  0  0  0  0  0  0  0  0
  126.4280  125.9720   61.7130 S   0  0  0  0  0  0  0  0  0  0  0  0
  127.7020  127.6440   63.4590 N   0  0  0  0  0  0  0  0  0  0  0  0
  126.7610  128.5870   63.7170 C   0  0  0  0  0  0  0  0  0  0  0  0
  125.5560  128.5070   63.4670 O   0  0  0  0  0  0  0  0  0  0  0  0
  127.3250  129.8740   64.3710 C   0  0  2  0  0  0  0  0  0  0  0  0
  127.0060  130.0300   65.8860 C   0  0  0  0  0  0  0  0  0  0  0  0
  127.7960  129.1180   66.8110 C   0  0  0  0  0  0  0  0  0  0  0  0
  128.4100  129.6250   67.9770 C   0  0  0  0  0  0  0  0  0  0  0  0
  129.0600  128.7640   68.8500 C   0  0  0  0  0  0  0  0  0  0  0  0
  129.0940  127.3990   68.5930 C   0  0  0  0  0  0  0  0  0  0  0  0
  128.4690  126.8820   67.4650 C   0  0  0  0  0  0  0  0  0  0  0  0
  127.8110  127.7260   66.5800 C   0  0  0  0  0  0  0  0  0  0  0  0
  126.9330  131.0870   63.6020 N   0  0  0  0  0  0  0  0  0  0  0  0
  127.8510  131.8050   62.8940 C   0  0  0  0  0  0  0  0  0  0  0  0
  129.0630  131.5920   62.8110 O   0  0  0  0  0  0  0  0  0  0  0  0
  127.0840  132.8930   62.2390 C   0  0  0  0  0  0  0  0  0  0  0  0
  127.5000  133.9280   61.4000 C   0  0  0  0  0  0  0  0  0  0  0  0
  126.5400  134.8220   60.9140 C   0  0  0  0  0  0  0  0  0  0  0  0
  125.1910  134.6720   61.2660 C   0  0  0  0  0  0  0  0  0  0  0  0
  124.7950  133.6260   62.1080 C   0  0  0  0  0  0  0  0  0  0  0  0
  125.7680  132.7460   62.5830 C   0  0  0  0  0  0  0  0  0  0  0  0
  125.6580  131.5590   63.4670 C   0  0  0  0  0  0  0  0  0  0  0  0
  124.6300  131.0960   63.9640 O   0  0  0  0  0  0  0  0  0  0  0  0
  130.6480  124.1430   63.1130 C   0  0  2  0  0  0  0  0  0  0  0  0
  131.8180  125.1490   63.3120 C   0  0  0  0  0  0  0  0  0  0  0  0
  132.2300  125.3360   64.7610 C   0  0  0  0  0  0  0  0  0  0  0  0
  133.5770  125.1550   65.1430 C   0  0  0  0  0  0  0  0  0  0  0  0
  133.9700  125.4260   66.4480 C   0  0  0  0  0  0  0  0  0  0  0  0
  133.0500  125.9000   67.3730 C   0  0  0  0  0  0  0  0  0  0  0  0
  131.7300  126.1210   67.0010 C   0  0  0  0  0  0  0  0  0  0  0  0
  131.3150  125.8550   65.7020 C   0  0  0  0  0  0  0  0  0  0  0  0
  131.1300  122.8490   62.5520 N   0  0  0  0  0  0  0  0  0  0  0  0
  132.4580  122.5750   62.4190 C   0  0  0  0  0  0  0  0  0  0  0  0
  133.4030  123.3110   62.7060 O   0  0  0  0  0  0  0  0  0  0  0  0
  132.5230  121.2030   61.8570 C   0  0  0  0  0  0  0  0  0  0  0  0
  133.6160  120.4090   61.5090 C   0  0  0  0  0  0  0  0  0  0  0  0
  133.3780  119.1290   60.9950 C   0  0  0  0  0  0  0  0  0  0  0  0
  132.0650  118.6640   60.8390 C   0  0  0  0  0  0  0  0  0  0  0  0
  130.9820  119.4750   61.1970 C   0  0  0  0  0  0  0  0  0  0  0  0
  131.2420  120.7490   61.7060 C   0  0  0  0  0  0  0  0  0  0  0  0
  130.3220  121.8170   62.1660 C   0  0  0  0  0  0  0  0  0  0  0  0
  129.0910  121.7810   62.1950 O   0  0  0  0  0  0  0  0  0  0  0  0
  129.3510  126.1140   63.7710 H   0  0  0  0  0  0  0  0  0  0  0  0
  128.6180  127.8920   63.8000 H   0  0  0  0  0  0  0  0  0  0  0  0
  128.4184  129.7628   64.3249 H   0  0  0  0  0  0  0  0  0  0  0  0
  127.2168  131.0708   66.1728 H   0  0  0  0  0  0  0  0  0  0  0  0
  125.9500  129.7464   66.0064 H   0  0  0  0  0  0  0  0  0  0  0  0
  128.3731  130.7029   68.1935 H   0  0  0  0  0  0  0  0  0  0  0  0
  129.5506  129.1641   69.7496 H   0  0  0  0  0  0  0  0  0  0  0  0
  129.6182  126.7244   69.2859 H   0  0  0  0  0  0  0  0  0  0  0  0
  128.4955  125.7994   67.2721 H   0  0  0  0  0  0  0  0  0  0  0  0
  127.3014  127.3093   65.6987 H   0  0  0  0  0  0  0  0  0  0  0  0
  128.5598  134.0383   61.1268 H   0  0  0  0  0  0  0  0  0  0  0  0
  126.8448  135.6464   60.2527 H   0  0  0  0  0  0  0  0  0  0  0  0
  124.4416  135.3784   60.8794 H   0  0  0  0  0  0  0  0  0  0  0  0
  123.7390  133.5005   62.3892 H   0  0  0  0  0  0  0  0  0  0  0  0
  130.2515  123.9289   64.1164 H   0  0  0  0  0  0  0  0  0  0  0  0
  132.6891  124.7826   62.7490 H   0  0  0  0  0  0  0  0  0  0  0  0
  131.4629  126.1262   62.9528 H   0  0  0  0  0  0  0  0  0  0  0  0
  134.3147  124.7998   64.4084 H   0  0  0  0  0  0  0  0  0  0  0  0
  135.0154  125.2641   66.7495 H   0  0  0  0  0  0  0  0  0  0  0  0
  133.3680  126.1018   68.4065 H   0  0  0  0  0  0  0  0  0  0  0  0
  131.0106  126.5081   67.7376 H   0  0  0  0  0  0  0  0  0  0  0  0
  130.2732  126.0489   65.4069 H   0  0  0  0  0  0  0  0  0  0  0  0
  134.6434  120.7811   61.6359 H   0  0  0  0  0  0  0  0  0  0  0  0
  134.2244  118.4857   60.7125 H   0  0  0  0  0  0  0  0  0  0  0  0
  131.8850  117.6574   60.4335 H   0  0  0  0  0  0  0  0  0  0  0  0
  129.9486  119.1166   61.0800 H   0  0  0  0  0  0  0  0  0  0  0  0
  1  2  2  0
  2  3  1  0
  3  4  1  0
  4  5  2  0
  4  6  1  0
  6  7  1  0
  7  8  2  0
  7  9  1  0
  9 10  1  0
 10 11  1  0
 11 12  2  0
 12 13  1  0
 13 14  2  0
 14 15  1  0
 15 16  2  0
  9 17  1  0
 17 18  1  0
 18 19  2  0
 18 20  1  0
 20 21  2  0
 21 22  1  0
 22 23  2  0
 23 24  1  0
 24 25  2  0
 25 26  1  0
 26 27  2  0
  2 28  1  0
 28 29  1  0
 29 30  1  0
 30 31  2  0
 31 32  1  0
 32 33  2  0
 33 34  1  0
 34 35  2  0
 28 36  1  0
 36 37  1  0
 37 38  2  0
 37 39  1  0
 39 40  2  0
 40 41  1  0
 41 42  2  0
 42 43  1  0
 43 44  2  0
 44 45  1  0
 45 46  2  0
 16 11  1  0
 26 17  1  0
 35 30  1  0
 45 36  1  0
 25 20  1  0
 44 39  1  0
  3 47  1  0
  6 48  1  0
  9 49  1  1
 10 50  1  0
 10 51  1  0
 12 52  1  0
 13 53  1  0
 14 54  1  0
 15 55  1  0
 16 56  1  0
 21 57  1  0
 22 58  1  0
 23 59  1  0
 24 60  1  0
 28 61  1  1
 29 62  1  0
 29 63  1  0
 31 64  1  0
 32 65  1  0
 33 66  1  0
 34 67  1  0
 35 68  1  0
 40 69  1  0
 41 70  1  0
 42 71  1  0
 43 72  1  0
M  END
>  <Binding energies>  (1) 
[-12.04]

>  <Ligand effiencies>  (1) 
[-0.2508333333333333]

>  <Interactions>  (1) 
["V-A:ALA:541:CB:4892, V-A:TYR:539:CD1:4873, V-B:LEU:475:CD1:9229, V-A:GLU:543:CD:4908, V-A:ARG:545:CD:4923, V-A:ARG:545:CG:4922, V-A:TYR:484:CZ:4346, H-A:GLU:543:OE1:4909, V-A:ARG:545:CZ:4926, H-A:GLY:454:N:4049, V-A:ILE:369:CG2:3236, V-A:LEU:475:CD1:4257, H-B:ALA:541:N:9863, V-B:ALA:541:CB:9864, V-B:GLU:543:CD:9880, V-A:SER:385:C:3404, V-A:HIS:456:CE1:4069, V-A:GLU:543:CG:4907, V-B:HIS:456:CE1:9041, V-B:TYR:484:CE2:9317, V-A:GLU:543:CB:4906, V-B:GLU:543:CB:9878, H-B:ARG:545:NH2:9900, H-B:GLY:454:N:9021, V-B:ILE:369:CG2:8208, H-A:ALA:541:N:4891, V-B:ASP:366:CG:8184, H-B:GLU:543:OE2:9882, V-A:SER:385:CA:3406, V-A:GLU:543:C:4902, V-A:GLU:543:CA:4904, V-B:TYR:484:CZ:9318"]

$$$$
RR19_Rahimova_2017-again1
     RDKit          3D

 71 76  0  0  0  0  0  0  0  0999 V2000
  132.3230  124.8920   59.3860 O   0  0  0  0  0  0  0  0  0  0  0  0
  131.8220  125.1040   60.4930 C   0  0  0  0  0  0  0  0  0  0  0  0
  131.0330  126.1560   60.8170 N   0  0  0  0  0  0  0  0  0  0  0  0
  130.4580  127.1480   60.0740 C   0  0  0  0  0  0  0  0  0  0  0  0
  130.6150  127.5110   58.4400 S   0  0  0  0  0  0  0  0  0  0  0  0
  129.5950  127.8250   60.9170 N   0  0  0  0  0  0  0  0  0  0  0  0
  128.9350  128.9180   60.7070 C   0  0  0  0  0  0  0  0  0  0  0  0
  128.8280  129.6110   59.6760 O   0  0  0  0  0  0  0  0  0  0  0  0
  128.1550  129.4790   61.9430 C   0  0  2  0  0  0  0  0  0  0  0  0
  127.1850  128.4070   62.5400 C   0  0  0  0  0  0  0  0  0  0  0  0
  126.7210  128.6960   63.9660 C   0  0  0  0  0  0  0  0  0  0  0  0
  125.4530  129.2370   64.1900 C   0  0  0  0  0  0  0  0  0  0  0  0
  125.0220  129.4870   65.4900 C   0  0  0  0  0  0  0  0  0  0  0  0
  125.8640  129.1970   66.5630 C   0  0  0  0  0  0  0  0  0  0  0  0
  127.1320  128.6610   66.3470 C   0  0  0  0  0  0  0  0  0  0  0  0
  127.5620  128.4130   65.0460 C   0  0  0  0  0  0  0  0  0  0  0  0
  127.5290  130.8200   61.6980 N   0  0  0  0  0  0  0  0  0  0  0  0
  128.2580  131.9710   61.7600 C   0  0  0  0  0  0  0  0  0  0  0  0
  129.4560  132.0840   62.0210 O   0  0  0  0  0  0  0  0  0  0  0  0
  127.2990  133.0620   61.4480 C   0  0  0  0  0  0  0  0  0  0  0  0
  127.4810  134.4440   61.3710 C   0  0  0  0  0  0  0  0  0  0  0  0
  126.3800  135.2460   61.0520 C   0  0  0  0  0  0  0  0  0  0  0  0
  125.1270  134.6650   60.8140 C   0  0  0  0  0  0  0  0  0  0  0  0
  124.9660  133.2780   60.8960 C   0  0  0  0  0  0  0  0  0  0  0  0
  126.0760  132.4960   61.2170 C   0  0  0  0  0  0  0  0  0  0  0  0
  126.2160  131.0280   61.3730 C   0  0  0  0  0  0  0  0  0  0  0  0
  125.3350  130.1800   61.2370 O   0  0  0  0  0  0  0  0  0  0  0  0
  132.0880  124.1100   61.6620 C   0  0  2  0  0  0  0  0  0  0  0  0
  131.2690  122.7910   61.5600 C   0  0  0  0  0  0  0  0  0  0  0  0
  132.1140  121.5600   61.2840 C   0  0  0  0  0  0  0  0  0  0  0  0
  133.4960  121.5720   61.5670 C   0  0  0  0  0  0  0  0  0  0  0  0
  134.2490  120.4160   61.4070 C   0  0  0  0  0  0  0  0  0  0  0  0
  133.6410  119.2360   60.9950 C   0  0  0  0  0  0  0  0  0  0  0  0
  132.2740  119.2000   60.7490 C   0  0  0  0  0  0  0  0  0  0  0  0
  131.5040  120.3450   60.9030 C   0  0  0  0  0  0  0  0  0  0  0  0
  131.9910  124.7260   63.0200 N   0  0  0  0  0  0  0  0  0  0  0  0
  130.7870  124.9750   63.6080 C   0  0  0  0  0  0  0  0  0  0  0  0
  129.6690  124.8190   63.1160 O   0  0  0  0  0  0  0  0  0  0  0  0
  131.1060  125.4630   64.9720 C   0  0  0  0  0  0  0  0  0  0  0  0
  130.2730  125.8560   66.0210 C   0  0  0  0  0  0  0  0  0  0  0  0
  130.8590  126.2600   67.2260 C   0  0  0  0  0  0  0  0  0  0  0  0
  132.2530  126.2680   67.3650 C   0  0  0  0  0  0  0  0  0  0  0  0
  133.0720  125.8740   66.3010 C   0  0  0  0  0  0  0  0  0  0  0  0
  132.4680  125.4720   65.1090 C   0  0  0  0  0  0  0  0  0  0  0  0
  133.0560  124.9810   63.8380 C   0  0  0  0  0  0  0  0  0  0  0  0
  134.2500  124.8250   63.5820 O   0  0  0  0  0  0  0  0  0  0  0  0
  130.7400  126.1630   61.7820 H   0  0  0  0  0  0  0  0  0  0  0  0
  128.8968  129.6850   62.7287 H   0  0  0  0  0  0  0  0  0  0  0  0
  126.2962  128.3506   61.8944 H   0  0  0  0  0  0  0  0  0  0  0  0
  127.7486  127.4632   62.5799 H   0  0  0  0  0  0  0  0  0  0  0  0
  124.7946  129.4656   63.3390 H   0  0  0  0  0  0  0  0  0  0  0  0
  124.0230  129.9109   65.6697 H   0  0  0  0  0  0  0  0  0  0  0  0
  125.5238  129.3934   67.5905 H   0  0  0  0  0  0  0  0  0  0  0  0
  127.7895  128.4351   67.1994 H   0  0  0  0  0  0  0  0  0  0  0  0
  128.5636  127.9944   64.8682 H   0  0  0  0  0  0  0  0  0  0  0  0
  128.4681  134.8923   61.5570 H   0  0  0  0  0  0  0  0  0  0  0  0
  126.4983  136.3377   60.9877 H   0  0  0  0  0  0  0  0  0  0  0  0
  124.2667  135.3024   60.5617 H   0  0  0  0  0  0  0  0  0  0  0  0
  123.9859  132.8140   60.7115 H   0  0  0  0  0  0  0  0  0  0  0  0
  133.1438  123.8291   61.5337 H   0  0  0  0  0  0  0  0  0  0  0  0
  130.7371  122.6395   62.5109 H   0  0  0  0  0  0  0  0  0  0  0  0
  130.5851  122.9059   60.7062 H   0  0  0  0  0  0  0  0  0  0  0  0
  133.9777  122.4978   61.9147 H   0  0  0  0  0  0  0  0  0  0  0  0
  135.3305  120.4344   61.6071 H   0  0  0  0  0  0  0  0  0  0  0  0
  134.2450  118.3262   60.8630 H   0  0  0  0  0  0  0  0  0  0  0  0
  131.7996  118.2600   60.4308 H   0  0  0  0  0  0  0  0  0  0  0  0
  130.4187  120.3056   60.7282 H   0  0  0  0  0  0  0  0  0  0  0  0
  129.1794  125.8483   65.9030 H   0  0  0  0  0  0  0  0  0  0  0  0
  130.2227  126.5724   68.0671 H   0  0  0  0  0  0  0  0  0  0  0  0
  132.7062  126.5857   68.3156 H   0  0  0  0  0  0  0  0  0  0  0  0
  134.1673  125.8810   66.4020 H   0  0  0  0  0  0  0  0  0  0  0  0
  1  2  2  0
  2  3  1  0
  3  4  1  0
  4  5  2  0
  4  6  1  0
  6  7  2  0
  7  8  1  0
  7  9  1  0
  9 10  1  0
 10 11  1  0
 11 12  2  0
 12 13  1  0
 13 14  2  0
 14 15  1  0
 15 16  2  0
  9 17  1  0
 17 18  1  0
 18 19  2  0
 18 20  1  0
 20 21  2  0
 21 22  1  0
 22 23  2  0
 23 24  1  0
 24 25  2  0
 25 26  1  0
 26 27  2  0
  2 28  1  0
 28 29  1  0
 29 30  1  0
 30 31  2  0
 31 32  1  0
 32 33  2  0
 33 34  1  0
 34 35  2  0
 28 36  1  0
 36 37  1  0
 37 38  2  0
 37 39  1  0
 39 40  2  0
 40 41  1  0
 41 42  2  0
 42 43  1  0
 43 44  2  0
 44 45  1  0
 45 46  2  0
 16 11  1  0
 26 17  1  0
 35 30  1  0
 45 36  1  0
 25 20  1  0
 44 39  1  0
  3 47  1  0
  9 48  1  1
 10 49  1  0
 10 50  1  0
 12 51  1  0
 13 52  1  0
 14 53  1  0
 15 54  1  0
 16 55  1  0
 21 56  1  0
 22 57  1  0
 23 58  1  0
 24 59  1  0
 28 60  1  6
 29 61  1  0
 29 62  1  0
 31 63  1  0
 32 64  1  0
 33 65  1  0
 34 66  1  0
 35 67  1  0
 40 68  1  0
 41 69  1  0
 42 70  1  0
 43 71  1  0
M  CHG  1   8  -1
M  END
>  <Binding energies>  (1) 
[-9.89]

>  <Ligand effiencies>  (1) 
[-0.21042553191489363]

>  <Interactions>  (1) 
["V-A:ALA:541:CB:4892, V-A:TYR:539:CD1:4873, V-A:GLU:543:CD:4908, V-A:ASP:366:CG:3212, V-A:ARG:545:CD:4923, V-A:ARG:545:CG:4922, H-A:ARG:545:NH2:4928, V-A:ILE:369:CD1:3238, H-A:ARG:545:NH1:4927, V-A:ARG:545:CZ:4926, H-A:GLY:454:N:4049, H-A:ASP:366:OD2:3214, V-A:ILE:369:CG2:3236, V-B:TYR:539:CD2:9846, V-A:LEU:475:CD1:4257, V-A:SER:385:C:3404, V-A:HIS:456:CE1:4069, V-B:HIS:456:CE1:9041, V-B:ILE:369:CG2:8208, H-A:ALA:541:N:4891, V-A:SER:385:CA:3406, V-B:ARG:545:CZ:9898, V-B:TYR:484:CZ:9318"]

$$$$
RR1_Rahimova_2017
     RDKit          3D

 68 71  0  0  0  0  0  0  0  0999 V2000
  131.2240  117.6070   60.2280 C   0  0  0  0  0  0  0  0  0  0  0  0
  132.3390  118.3680   60.6790 O   0  0  0  0  0  0  0  0  0  0  0  0
  132.1420  119.6680   61.1020 C   0  0  0  0  0  0  0  0  0  0  0  0
  130.8880  120.2170   61.4130 C   0  0  0  0  0  0  0  0  0  0  0  0
  130.7850  121.5430   61.8260 C   0  0  0  0  0  0  0  0  0  0  0  0
  131.9270  122.3370   61.9400 C   0  0  0  0  0  0  0  0  0  0  0  0
  131.7150  123.6760   62.3190 N   0  0  0  0  0  0  0  0  0  0  0  0
  132.3760  124.4220   63.2310 C   0  0  0  0  0  0  0  0  0  0  0  0
  133.2740  124.0030   63.9610 O   0  0  0  0  0  0  0  0  0  0  0  0
  131.9180  125.8870   63.3120 C   0  0  0  0  0  0  0  0  0  0  0  0
  130.6130  126.3670   62.1270 S   0  0  0  0  0  0  0  0  0  0  0  0
  129.4750  127.0500   63.2850 C   0  0  0  0  0  0  0  0  0  0  0  0
  128.7760  128.1370   63.0770 N   0  0  0  0  0  0  0  0  0  0  0  0
  128.0570  128.2700   64.1880 C   0  0  0  0  0  0  0  0  0  0  0  0
  127.0830  129.3970   64.3840 C   0  0  0  0  0  0  0  0  0  0  0  0
  127.5180  130.7120   64.6100 C   0  0  0  0  0  0  0  0  0  0  0  0
  126.5890  131.7390   64.7930 C   0  0  0  0  0  0  0  0  0  0  0  0
  125.2320  131.4230   64.7440 C   0  0  0  0  0  0  0  0  0  0  0  0
  124.7770  130.1630   64.5280 N   0  0  0  0  0  0  0  0  0  0  0  0
  125.6970  129.1800   64.3520 C   0  0  0  0  0  0  0  0  0  0  0  0
  128.2550  127.3410   65.1040 N   0  0  0  0  0  0  0  0  0  0  0  0
  129.1680  126.5550   64.5270 N   0  0  0  0  0  0  0  0  0  0  0  0
  129.6610  125.3600   65.2120 C   0  0  0  0  0  0  0  0  0  0  0  0
  129.6960  125.4590   66.7470 C   0  0  0  0  0  0  0  0  0  0  0  0
  130.7420  125.2510   67.3710 O   0  0  0  0  0  0  0  0  0  0  0  0
  128.5200  125.7780   67.3220 N   0  0  0  0  0  0  0  0  0  0  0  0
  128.5070  126.0290   68.6870 N   0  0  0  0  0  0  0  0  0  0  0  0
  129.0250  127.2000   69.1180 C   0  0  0  0  0  0  0  0  0  0  0  0
  129.4140  128.1020   68.3690 O   0  0  0  0  0  0  0  0  0  0  0  0
  129.0850  127.3770   70.6220 C   0  0  0  0  0  0  0  0  0  0  0  0
  128.9000  126.2740   71.4620 C   0  0  0  0  0  0  0  0  0  0  0  0
  128.9390  126.4150   72.8460 C   0  0  0  0  0  0  0  0  0  0  0  0
  129.1580  127.6720   73.4330 C   0  0  0  0  0  0  0  0  0  0  0  0
  129.1940  127.8830   74.8000 O   0  0  0  0  0  0  0  0  0  0  0  0
  127.9800  128.1080   75.5070 C   0  0  0  0  0  0  0  0  0  0  0  0
  129.3380  128.7900   72.6080 C   0  0  0  0  0  0  0  0  0  0  0  0
  129.5300  130.0090   73.2370 O   0  0  0  0  0  0  0  0  0  0  0  0
  128.8640  131.1670   72.7460 C   0  0  0  0  0  0  0  0  0  0  0  0
  129.3030  128.6320   71.2110 C   0  0  0  0  0  0  0  0  0  0  0  0
  133.1820  121.7920   61.6300 C   0  0  0  0  0  0  0  0  0  0  0  0
  133.2800  120.4660   61.2190 C   0  0  0  0  0  0  0  0  0  0  0  0
  130.6653  117.2257   61.0955 H   0  0  0  0  0  0  0  0  0  0  0  0
  130.5662  118.2454   59.6200 H   0  0  0  0  0  0  0  0  0  0  0  0
  131.5788  116.7617   59.6200 H   0  0  0  0  0  0  0  0  0  0  0  0
  129.9830  119.5973   61.3301 H   0  0  0  0  0  0  0  0  0  0  0  0
  129.7981  121.9668   62.0637 H   0  0  0  0  0  0  0  0  0  0  0  0
  130.9320  124.1210   61.8600 H   0  0  0  0  0  0  0  0  0  0  0  0
  131.5370  126.0677   64.3279 H   0  0  0  0  0  0  0  0  0  0  0  0
  132.7985  126.4943   63.0554 H   0  0  0  0  0  0  0  0  0  0  0  0
  128.5947  130.9348   64.6432 H   0  0  0  0  0  0  0  0  0  0  0  0
  126.9203  132.7726   64.9715 H   0  0  0  0  0  0  0  0  0  0  0  0
  124.4983  132.2301   64.8866 H   0  0  0  0  0  0  0  0  0  0  0  0
  125.3356  128.1563   64.1744 H   0  0  0  0  0  0  0  0  0  0  0  0
  129.0094  124.5168   64.9391 H   0  0  0  0  0  0  0  0  0  0  0  0
  130.7040  125.2281   64.8883 H   0  0  0  0  0  0  0  0  0  0  0  0
  127.7190  126.1520   66.8320 H   0  0  0  0  0  0  0  0  0  0  0  0
  128.6180  125.1790   69.2200 H   0  0  0  0  0  0  0  0  0  0  0  0
  128.7212  125.2815   71.0227 H   0  0  0  0  0  0  0  0  0  0  0  0
  128.7968  125.5325   73.4870 H   0  0  0  0  0  0  0  0  0  0  0  0
  128.1739  128.0721   76.5892 H   0  0  0  0  0  0  0  0  0  0  0  0
  127.5774  129.0960   75.2392 H   0  0  0  0  0  0  0  0  0  0  0  0
  127.2501  127.3298   75.2392 H   0  0  0  0  0  0  0  0  0  0  0  0
  128.5140  131.7755   73.5929 H   0  0  0  0  0  0  0  0  0  0  0  0
  129.5602  131.7580   72.1328 H   0  0  0  0  0  0  0  0  0  0  0  0
  128.0030  130.8625   72.1328 H   0  0  0  0  0  0  0  0  0  0  0  0
  129.4496  129.5110   70.5661 H   0  0  0  0  0  0  0  0  0  0  0  0
  134.0871  122.4118   61.7117 H   0  0  0  0  0  0  0  0  0  0  0  0
  134.2673  120.0419   60.9835 H   0  0  0  0  0  0  0  0  0  0  0  0
  1  2  1  0
  2  3  1  0
  3  4  2  0
  4  5  1  0
  5  6  2  0
  6  7  1  0
  7  8  1  0
  8  9  2  0
  8 10  1  0
 10 11  1  0
 11 12  1  0
 12 13  2  0
 13 14  1  0
 14 15  1  0
 15 16  2  0
 16 17  1  0
 17 18  2  0
 18 19  1  0
 19 20  2  0
 14 21  2  0
 21 22  1  0
 22 23  1  0
 23 24  1  0
 24 25  2  0
 24 26  1  0
 26 27  1  0
 27 28  1  0
 28 29  2  0
 28 30  1  0
 30 31  2  0
 31 32  1  0
 32 33  2  0
 33 34  1  0
 34 35  1  0
 33 36  1  0
 36 37  1  0
 37 38  1  0
 36 39  2  0
  6 40  1  0
 40 41  2  0
 41  3  1  0
 22 12  1  0
 39 30  1  0
 20 15  1  0
  1 42  1  0
  1 43  1  0
  1 44  1  0
  4 45  1  0
  5 46  1  0
  7 47  1  0
 10 48  1  0
 10 49  1  0
 16 50  1  0
 17 51  1  0
 18 52  1  0
 20 53  1  0
 23 54  1  0
 23 55  1  0
 26 56  1  0
 27 57  1  0
 31 58  1  0
 32 59  1  0
 35 60  1  0
 35 61  1  0
 35 62  1  0
 38 63  1  0
 38 64  1  0
 38 65  1  0
 39 66  1  0
 40 67  1  0
 41 68  1  0
M  END
>  <Binding energies>  (1) 
[-8.41]

>  <Ligand effiencies>  (1) 
[-0.19113636363636363]

>  <Interactions>  (1) 
["V-B:LEU:475:CD1:9229, V-A:GLU:543:CD:4908, H-A:TYR:484:OH:4347, V-A:ARG:545:CZ:4926, H-A:GLY:454:N:4049, V-A:ILE:369:CG2:3236, V-B:TYR:539:CD2:9846, H-A:SER:385:OG:3409, V-A:LEU:475:CD1:4257, V-A:HIS:383:CE1:3392, H-A:HIS:383:NE2:3393, V-A:PRO:482:CG:4326, V-B:GLU:543:CG:9879, V-B:ALA:541:CB:9864, V-B:GLU:543:CD:9880, V-A:TYR:484:CE2:4345, V-A:HIS:456:CE1:4069, V-A:GLU:543:CG:4907, V-B:GLU:543:CA:9876, V-B:HIS:456:CE1:9041, V-B:TYR:484:CE2:9317, V-B:GLU:543:C:9874, V-B:GLU:543:CB:9878, H-B:TYR:484:OH:9319, H-B:GLY:454:N:9021, V-B:GLY:454:CA:9020, H-B:GLU:543:OE2:9882, V-A:GLU:543:C:4902, V-B:ARG:545:CZ:9898, V-B:HIS:456:CD2:9039, V-B:TYR:484:CZ:9318, H-B:GLU:543:O:9875, H-A:HIS:456:NE2:4070, H-A:LYS:547:NZ:4951"]

$$$$
RR20_Rahimova_2017
     RDKit          3D

 68 73  0  0  0  0  0  0  0  0999 V2000
  126.4160  136.0450   60.8130 C   0  0  0  0  0  0  0  0  0  0  0  0
  125.9280  134.7030   61.3280 C   0  0  0  0  0  0  0  0  0  0  0  0
  124.5700  134.3900   61.2720 C   0  0  0  0  0  0  0  0  0  0  0  0
  124.1210  133.1570   61.7350 C   0  0  0  0  0  0  0  0  0  0  0  0
  125.0240  132.2310   62.2710 C   0  0  0  0  0  0  0  0  0  0  0  0
  124.5180  130.8890   62.7510 C   0  0  0  0  0  0  0  0  0  0  0  0
  123.3050  130.7680   62.9360 O   0  0  0  0  0  0  0  0  0  0  0  0
  125.4060  129.8700   62.9440 N   0  0  0  0  0  0  0  0  0  0  0  0
  126.2080  129.3240   61.8370 C   0  0  0  0  0  0  0  0  0  0  0  0
  127.1740  128.3290   62.4570 C   0  0  0  0  0  0  0  0  0  0  0  0
  127.1050  128.6630   63.9170 C   0  0  0  0  0  0  0  0  0  0  0  0
  127.8450  128.1340   64.9750 C   0  0  0  0  0  0  0  0  0  0  0  0
  127.5230  128.4540   66.3000 C   0  0  0  0  0  0  0  0  0  0  0  0
  128.3250  127.8920   67.4410 C   0  0  0  0  0  0  0  0  0  0  0  0
  128.5070  128.6460   68.5130 N   0  0  0  0  0  0  0  0  0  0  0  0
  129.2010  128.0500   69.4490 C   0  0  0  0  0  0  0  0  0  0  0  0
  129.5650  128.5480   70.6910 N   0  0  0  0  0  0  0  0  0  0  0  0
  129.6920  127.8480   71.8440 C   0  0  0  0  0  0  0  0  0  0  0  0
  129.5150  126.6320   71.9350 O   0  0  0  0  0  0  0  0  0  0  0  0
  130.1120  128.6180   73.1190 C   0  0  0  0  0  0  0  0  0  0  0  0
  128.9770  129.2730   73.7960 N   0  0  0  0  0  0  0  0  0  0  0  0
  128.3570  130.3180   72.9670 C   0  0  0  0  0  0  0  0  0  0  0  0
  127.3610  131.1460   73.8110 C   0  0  0  0  0  0  0  0  0  0  0  0
  126.4410  130.2790   74.6710 C   0  0  0  0  0  0  0  0  0  0  0  0
  125.3100  130.8210   75.2900 C   0  0  0  0  0  0  0  0  0  0  0  0
  124.4940  130.0400   76.1040 C   0  0  0  0  0  0  0  0  0  0  0  0
  124.8000  128.6980   76.3070 C   0  0  0  0  0  0  0  0  0  0  0  0
  125.9180  128.1430   75.6890 C   0  0  0  0  0  0  0  0  0  0  0  0
  126.7480  128.9170   74.8700 C   0  0  0  0  0  0  0  0  0  0  0  0
  127.9410  128.2930   74.1460 C   0  0  0  0  0  0  0  0  0  0  0  0
  129.7090  126.4560   69.0510 S   0  0  0  0  0  0  0  0  0  0  0  0
  128.9280  126.6170   67.4970 C   0  0  0  0  0  0  0  0  0  0  0  0
  129.0020  125.4980   66.4820 C   0  0  0  0  0  0  0  0  0  0  0  0
  126.4080  129.2730   66.5390 C   0  0  0  0  0  0  0  0  0  0  0  0
  125.6560  129.7870   65.4840 C   0  0  0  0  0  0  0  0  0  0  0  0
  126.0390  129.5280   64.1610 C   0  0  0  0  0  0  0  0  0  0  0  0
  126.3900  132.5410   62.2980 C   0  0  0  0  0  0  0  0  0  0  0  0
  126.8400  133.7740   61.8330 C   0  0  0  0  0  0  0  0  0  0  0  0
  126.6541  136.6998   61.6642 H   0  0  0  0  0  0  0  0  0  0  0  0
  127.3178  135.8969   60.2008 H   0  0  0  0  0  0  0  0  0  0  0  0
  125.6297  136.5108   60.2008 H   0  0  0  0  0  0  0  0  0  0  0  0
  123.8541  135.1176   60.8620 H   0  0  0  0  0  0  0  0  0  0  0  0
  123.0509  132.9085   61.6796 H   0  0  0  0  0  0  0  0  0  0  0  0
  125.5568  128.8186   61.1086 H   0  0  0  0  0  0  0  0  0  0  0  0
  126.7453  130.1215   61.3028 H   0  0  0  0  0  0  0  0  0  0  0  0
  126.8499  127.2943   62.2717 H   0  0  0  0  0  0  0  0  0  0  0  0
  128.1911  128.3945   62.0433 H   0  0  0  0  0  0  0  0  0  0  0  0
  128.6887  127.4597   64.7666 H   0  0  0  0  0  0  0  0  0  0  0  0
  129.7450  129.5420   70.7340 H   0  0  0  0  0  0  0  0  0  0  0  0
  130.5765  127.9088   73.8199 H   0  0  0  0  0  0  0  0  0  0  0  0
  130.8122  129.4083   72.8108 H   0  0  0  0  0  0  0  0  0  0  0  0
  129.1404  130.9825   72.5735 H   0  0  0  0  0  0  0  0  0  0  0  0
  127.8157  129.8432   72.1354 H   0  0  0  0  0  0  0  0  0  0  0  0
  127.9326  131.8136   74.4725 H   0  0  0  0  0  0  0  0  0  0  0  0
  126.7244  131.7074   73.1113 H   0  0  0  0  0  0  0  0  0  0  0  0
  125.0613  131.8807   75.1313 H   0  0  0  0  0  0  0  0  0  0  0  0
  123.6096  130.4828   76.5854 H   0  0  0  0  0  0  0  0  0  0  0  0
  124.1614  128.0777   76.9531 H   0  0  0  0  0  0  0  0  0  0  0  0
  126.1522  127.0799   75.8471 H   0  0  0  0  0  0  0  0  0  0  0  0
  128.3875  127.5295   74.7999 H   0  0  0  0  0  0  0  0  0  0  0  0
  127.5661  127.8610   73.2064 H   0  0  0  0  0  0  0  0  0  0  0  0
  129.0659  124.5323   67.0049 H   0  0  0  0  0  0  0  0  0  0  0  0
  128.1008  125.5147   65.8515 H   0  0  0  0  0  0  0  0  0  0  0  0
  129.8932  125.6332   65.8515 H   0  0  0  0  0  0  0  0  0  0  0  0
  126.1237  129.5126   67.5742 H   0  0  0  0  0  0  0  0  0  0  0  0
  124.7629  130.3953   65.6896 H   0  0  0  0  0  0  0  0  0  0  0  0
  127.1104  131.8070   62.6883 H   0  0  0  0  0  0  0  0  0  0  0  0
  127.9126  134.0159   61.8635 H   0  0  0  0  0  0  0  0  0  0  0  0
  1  2  1  0
  2  3  2  0
  3  4  1  0
  4  5  2  0
  5  6  1  0
  6  7  2  0
  6  8  1  0
  8  9  1  0
  9 10  1  0
 10 11  1  0
 11 12  2  0
 12 13  1  0
 13 14  1  0
 14 15  1  0
 15 16  2  0
 16 17  1  0
 17 18  1  0
 18 19  2  0
 18 20  1  0
 20 21  1  0
 21 22  1  0
 22 23  1  0
 23 24  1  0
 24 25  2  0
 25 26  1  0
 26 27  2  0
 27 28  1  0
 28 29  2  0
 29 30  1  0
 16 31  1  0
 31 32  1  0
 32 33  1  0
 13 34  2  0
 34 35  1  0
 35 36  2  0
  5 37  1  0
 37 38  2  0
 38  2  1  0
 36  8  1  0
 36 11  1  0
 32 14  2  0
 30 21  1  0
 29 24  1  0
  1 39  1  0
  1 40  1  0
  1 41  1  0
  3 42  1  0
  4 43  1  0
  9 44  1  0
  9 45  1  0
 10 46  1  0
 10 47  1  0
 12 48  1  0
 17 49  1  0
 20 50  1  0
 20 51  1  0
 22 52  1  0
 22 53  1  0
 23 54  1  0
 23 55  1  0
 25 56  1  0
 26 57  1  0
 27 58  1  0
 28 59  1  0
 30 60  1  0
 30 61  1  0
 33 62  1  0
 33 63  1  0
 33 64  1  0
 34 65  1  0
 35 66  1  0
 37 67  1  0
 38 68  1  0
M  END
>  <Binding energies>  (1) 
[-10.23]

>  <Ligand effiencies>  (1) 
[-0.2623076923076923]

>  <Interactions>  (1) 
["V-A:ALA:541:CB:4892, V-A:TYR:539:CD1:4873, V-B:LEU:475:CD1:9229, V-A:GLU:543:CD:4908, V-B:GLU:543:CG:9879, V-B:GLU:543:CD:9880, V-A:HIS:456:CE1:4069, V-B:HIS:456:CE1:9041, V-B:TYR:484:CE2:9317, V-B:GLU:543:CB:9878, H-B:GLY:454:N:9021, V-B:PRO:482:CB:9297, V-B:ILE:369:CG2:8208, V-B:ILE:369:CD1:8210, V-B:PRO:482:CG:9298, V-A:GLU:543:C:4902, V-B:HIS:456:CG:9037, V-B:HIS:456:CD2:9039, V-B:TYR:484:CZ:9318, H-A:GLU:543:O:4903, H-A:LYS:547:NZ:4951, V-B:ASP:473:CG:9211, V-B:HIS:456:C:9032, V-B:LYS:471:CE:9191, V-A:LYS:547:CE:4950, V-B:VAL:458:CG2:9058, V-B:HIS:456:CB:9036, V-B:ASP:473:CB:9210"]

$$$$
RR20_Rahimova_2017-again1
     RDKit          3D

 68 73  0  0  0  0  0  0  0  0999 V2000
  124.4750  135.7370   60.0670 C   0  0  0  0  0  0  0  0  0  0  0  0
  125.5170  134.7010   60.4480 C   0  0  0  0  0  0  0  0  0  0  0  0
  126.7230  135.1050   61.0220 C   0  0  0  0  0  0  0  0  0  0  0  0
  127.6760  134.1550   61.3790 C   0  0  0  0  0  0  0  0  0  0  0  0
  127.4360  132.7940   61.1540 C   0  0  0  0  0  0  0  0  0  0  0  0
  128.4770  131.7750   61.5640 C   0  0  0  0  0  0  0  0  0  0  0  0
  129.5360  131.7530   60.9350 O   0  0  0  0  0  0  0  0  0  0  0  0
  128.2190  130.9480   62.6200 N   0  0  0  0  0  0  0  0  0  0  0  0
  127.0500  131.1550   63.4900 C   0  0  0  0  0  0  0  0  0  0  0  0
  127.0090  129.9710   64.4420 C   0  0  0  0  0  0  0  0  0  0  0  0
  127.9410  128.9920   63.7940 C   0  0  0  0  0  0  0  0  0  0  0  0
  128.2430  127.6830   64.1730 C   0  0  0  0  0  0  0  0  0  0  0  0
  129.2730  126.9730   63.5360 C   0  0  0  0  0  0  0  0  0  0  0  0
  129.6020  125.5670   63.9490 C   0  0  0  0  0  0  0  0  0  0  0  0
  129.7830  124.6630   62.9990 N   0  0  0  0  0  0  0  0  0  0  0  0
  130.0570  123.4620   63.4490 C   0  0  0  0  0  0  0  0  0  0  0  0
  130.2560  122.3030   62.7470 N   0  0  0  0  0  0  0  0  0  0  0  0
  129.3870  121.7510   61.9690 C   0  0  0  0  0  0  0  0  0  0  0  0
  128.2540  122.1180   61.6030 O   0  0  0  0  0  0  0  0  0  0  0  0
  129.8430  120.3990   61.3810 C   0  0  0  0  0  0  0  0  0  0  0  0
  130.7090  120.6390   60.1100 N   0  0  2  0  0  0  0  0  0  0  0  0
  131.9630  119.7410   60.0710 C   0  0  0  0  0  0  0  0  0  0  0  0
  132.9160  120.1180   61.2200 C   0  0  0  0  0  0  0  0  0  0  0  0
  133.1810  121.6180   61.3140 C   0  0  0  0  0  0  0  0  0  0  0  0
  134.3090  122.0820   62.0010 C   0  0  0  0  0  0  0  0  0  0  0  0
  134.5560  123.4450   62.1480 C   0  0  0  0  0  0  0  0  0  0  0  0
  133.6720  124.3670   61.6020 C   0  0  0  0  0  0  0  0  0  0  0  0
  132.5530  123.9210   60.9050 C   0  0  0  0  0  0  0  0  0  0  0  0
  132.2910  122.5560   60.7400 C   0  0  0  0  0  0  0  0  0  0  0  0
  131.0690  122.1320   59.9150 C   0  0  0  0  0  0  0  0  0  0  0  0
  130.0850  123.3710   65.1710 S   0  0  0  0  0  0  0  0  0  0  0  0
  129.7460  125.0820   65.2640 C   0  0  0  0  0  0  0  0  0  0  0  0
  129.6750  125.7800   66.6060 C   0  0  0  0  0  0  0  0  0  0  0  0
  130.0180  127.6250   62.5450 C   0  0  0  0  0  0  0  0  0  0  0  0
  129.7300  128.9400   62.1760 C   0  0  0  0  0  0  0  0  0  0  0  0
  128.6500  129.6100   62.7640 C   0  0  0  0  0  0  0  0  0  0  0  0
  126.2110  132.3950   60.6060 C   0  0  0  0  0  0  0  0  0  0  0  0
  125.2580  133.3440   60.2490 C   0  0  0  0  0  0  0  0  0  0  0  0
  124.0387  136.1708   60.9789 H   0  0  0  0  0  0  0  0  0  0  0  0
  124.9488  136.5324   59.4730 H   0  0  0  0  0  0  0  0  0  0  0  0
  123.6824  135.2586   59.4730 H   0  0  0  0  0  0  0  0  0  0  0  0
  126.9206  136.1736   61.1923 H   0  0  0  0  0  0  0  0  0  0  0  0
  128.6220  134.4751   61.8400 H   0  0  0  0  0  0  0  0  0  0  0  0
  127.1569  132.0933   64.0541 H   0  0  0  0  0  0  0  0  0  0  0  0
  126.1230  131.2265   62.9022 H   0  0  0  0  0  0  0  0  0  0  0  0
  127.3658  130.2549   65.4431 H   0  0  0  0  0  0  0  0  0  0  0  0
  125.9960  129.5713   64.5967 H   0  0  0  0  0  0  0  0  0  0  0  0
  127.6682  127.2030   64.9788 H   0  0  0  0  0  0  0  0  0  0  0  0
  130.4382  119.8573   62.1309 H   0  0  0  0  0  0  0  0  0  0  0  0
  128.9578  119.8053   61.1092 H   0  0  0  0  0  0  0  0  0  0  0  0
  130.1340  120.3610   59.3250 H   0  0  0  0  0  0  0  0  0  0  0  0
  131.6611  118.6887   60.1784 H   0  0  0  0  0  0  0  0  0  0  0  0
  132.4803  119.8843   59.1108 H   0  0  0  0  0  0  0  0  0  0  0  0
  132.4709  119.7816   62.1680 H   0  0  0  0  0  0  0  0  0  0  0  0
  133.8800  119.6278   61.0191 H   0  0  0  0  0  0  0  0  0  0  0  0
  135.0138  121.3564   62.4330 H   0  0  0  0  0  0  0  0  0  0  0  0
  135.4467  123.7895   62.6938 H   0  0  0  0  0  0  0  0  0  0  0  0
  133.8557  125.4451   61.7200 H   0  0  0  0  0  0  0  0  0  0  0  0
  131.8590  124.6577   60.4742 H   0  0  0  0  0  0  0  0  0  0  0  0
  130.2080  122.7449   60.2199 H   0  0  0  0  0  0  0  0  0  0  0  0
  131.3159  122.2796   58.8533 H   0  0  0  0  0  0  0  0  0  0  0  0
  129.7508  125.0347   67.4114 H   0  0  0  0  0  0  0  0  0  0  0  0
  130.5048  126.4971   66.6907 H   0  0  0  0  0  0  0  0  0  0  0  0
  128.7178  126.3153   66.6907 H   0  0  0  0  0  0  0  0  0  0  0  0
  130.8431  127.0922   62.0497 H   0  0  0  0  0  0  0  0  0  0  0  0
  130.3507  129.4494   61.4242 H   0  0  0  0  0  0  0  0  0  0  0  0
  126.0008  131.3256   60.4569 H   0  0  0  0  0  0  0  0  0  0  0  0
  124.3011  133.0249   59.8102 H   0  0  0  0  0  0  0  0  0  0  0  0
  1  2  1  0
  2  3  2  0
  3  4  1  0
  4  5  2  0
  5  6  1  0
  6  7  2  0
  6  8  1  0
  8  9  1  0
  9 10  1  0
 10 11  1  0
 11 12  2  0
 12 13  1  0
 13 14  1  0
 14 15  1  0
 15 16  2  0
 16 17  1  0
 17 18  2  0
 18 19  1  0
 18 20  1  0
 20 21  1  0
 21 22  1  0
 22 23  1  0
 23 24  1  0
 24 25  2  0
 25 26  1  0
 26 27  2  0
 27 28  1  0
 28 29  2  0
 29 30  1  0
 16 31  1  0
 31 32  1  0
 32 33  1  0
 13 34  2  0
 34 35  1  0
 35 36  2  0
  5 37  1  0
 37 38  2  0
 38  2  1  0
 36  8  1  0
 36 11  1  0
 32 14  2  0
 30 21  1  0
 29 24  1  0
  1 39  1  0
  1 40  1  0
  1 41  1  0
  3 42  1  0
  4 43  1  0
  9 44  1  0
  9 45  1  0
 10 46  1  0
 10 47  1  0
 12 48  1  0
 20 49  1  0
 20 50  1  0
 21 51  1  6
 22 52  1  0
 22 53  1  0
 23 54  1  0
 23 55  1  0
 25 56  1  0
 26 57  1  0
 27 58  1  0
 28 59  1  0
 30 60  1  0
 30 61  1  0
 33 62  1  0
 33 63  1  0
 33 64  1  0
 34 65  1  0
 35 66  1  0
 37 67  1  0
 38 68  1  0
M  CHG  2  19  -1  21   1
M  END
>  <Binding energies>  (1) 
[-9.16]

>  <Ligand effiencies>  (1) 
[-0.23487179487179488]

>  <Interactions>  (1) 
["V-A:ALA:541:CB:4892, V-A:TYR:539:CE1:4875, V-A:TYR:539:CD1:4873, V-A:GLU:543:CD:4908, V-A:ASP:366:CG:3212, V-A:GLY:453:C:4041, V-A:GLY:454:CA:4048, V-A:TYR:484:CZ:4346, V-A:ILE:369:CD1:3238, V-A:ILE:369:CG2:3236, V-B:TYR:539:CD2:9846, V-B:TYR:539:CE2:9848, V-A:LEU:475:CD1:4257, H-B:ALA:541:N:9863, H-B:TYR:539:O:9840, V-B:GLU:543:CG:9879, V-B:ALA:541:CB:9864, V-B:GLU:543:CD:9880, V-A:TYR:484:CE2:4345, V-B:ALA:541:CA:9862, V-A:GLY:453:CA:4043, V-B:GLU:543:CB:9878, V-B:ILE:369:CG2:8208, H-A:ALA:541:N:4891, V-A:ALA:541:CA:4890, V-B:LEU:373:CD1:8251, V-B:SER:385:CB:8380, V-B:PRO:540:C:9853"]

$$$$
RR21_Rahimova_2017
     RDKit          3D

 62 67  0  0  0  0  0  0  0  0999 V2000
  124.5960  129.9770   62.6800 C   0  0  0  0  0  0  0  0  0  0  0  0
  124.5380  130.1730   64.0890 O   0  0  0  0  0  0  0  0  0  0  0  0
  125.4560  129.5320   64.8990 C   0  0  0  0  0  0  0  0  0  0  0  0
  126.8130  129.3640   64.5760 C   0  0  0  0  0  0  0  0  0  0  0  0
  127.6750  128.7060   65.4520 C   0  0  0  0  0  0  0  0  0  0  0  0
  127.2070  128.2020   66.6710 C   0  0  0  0  0  0  0  0  0  0  0  0
  128.1370  127.4990   67.6120 C   0  0  0  0  0  0  0  0  0  0  0  0
  128.1950  127.8720   68.8760 N   0  0  0  0  0  0  0  0  0  0  0  0
  129.0980  127.0770   69.4710 N   0  0  0  0  0  0  0  0  0  0  0  0
  129.3930  127.1960   70.8540 C   0  0  0  0  0  0  0  0  0  0  0  0
  130.0800  128.3160   71.3470 C   0  0  0  0  0  0  0  0  0  0  0  0
  130.3600  128.4240   72.7070 C   0  0  0  0  0  0  0  0  0  0  0  0
  129.9560  127.4140   73.5770 C   0  0  0  0  0  0  0  0  0  0  0  0
  129.2760  126.2960   73.1000 C   0  0  0  0  0  0  0  0  0  0  0  0
  128.9950  126.1850   71.7400 C   0  0  0  0  0  0  0  0  0  0  0  0
  129.6050  126.1770   68.5670 C   0  0  0  0  0  0  0  0  0  0  0  0
  129.0160  126.4270   67.3370 C   0  0  0  0  0  0  0  0  0  0  0  0
  129.2020  125.7040   66.0880 C   0  0  0  0  0  0  0  0  0  0  0  0
  130.3540  125.4740   65.4170 C   0  0  0  0  0  0  0  0  0  0  0  0
  131.9960  125.9970   65.8550 S   0  0  0  0  0  0  0  0  0  0  0  0
  132.6200  125.1860   64.4270 C   0  0  0  0  0  0  0  0  0  0  0  0
  133.8540  125.1000   64.0360 N   0  0  0  0  0  0  0  0  0  0  0  0
  134.2290  124.3990   62.8580 C   0  0  0  0  0  0  0  0  0  0  0  0
  135.3750  124.2540   62.4320 O   0  0  0  0  0  0  0  0  0  0  0  0
  133.0690  123.7930   62.1150 C   0  0  0  0  0  0  0  0  0  0  0  0
  133.3500  123.0280   60.8160 C   0  0  0  0  0  0  0  0  0  0  0  0
  132.7820  121.6100   60.7860 C   0  0  0  0  0  0  0  0  0  0  0  0
  131.4060  121.4100   60.6490 C   0  0  0  0  0  0  0  0  0  0  0  0
  130.8900  120.1170   60.6050 C   0  0  0  0  0  0  0  0  0  0  0  0
  131.7500  119.0210   60.6940 C   0  0  0  0  0  0  0  0  0  0  0  0
  131.1840  117.6140   60.6330 C   0  0  0  0  0  0  0  0  0  0  0  0
  133.1270  119.2180   60.8190 C   0  0  0  0  0  0  0  0  0  0  0  0
  133.6420  120.5110   60.8640 C   0  0  0  0  0  0  0  0  0  0  0  0
  131.8430  123.8920   62.5140 N   0  0  0  0  0  0  0  0  0  0  0  0
  131.6170  124.6020   63.7000 N   0  0  0  0  0  0  0  0  0  0  0  0
  130.3510  124.7200   64.1710 C   0  0  0  0  0  0  0  0  0  0  0  0
  129.3480  124.2480   63.6230 O   0  0  0  0  0  0  0  0  0  0  0  0
  125.8550  128.3620   66.9900 C   0  0  0  0  0  0  0  0  0  0  0  0
  124.9900  129.0200   66.1150 C   0  0  0  0  0  0  0  0  0  0  0  0
  123.6870  129.1600   66.4550 F   0  0  0  0  0  0  0  0  0  0  0  0
  124.9022  128.9424   62.4660 H   0  0  0  0  0  0  0  0  0  0  0  0
  123.6041  130.1638   62.2427 H   0  0  0  0  0  0  0  0  0  0  0  0
  125.3265  130.6735   62.2427 H   0  0  0  0  0  0  0  0  0  0  0  0
  127.1988  129.7553   63.6231 H   0  0  0  0  0  0  0  0  0  0  0  0
  128.7342  128.5816   65.1823 H   0  0  0  0  0  0  0  0  0  0  0  0
  130.3984  129.1113   70.6570 H   0  0  0  0  0  0  0  0  0  0  0  0
  130.8977  129.3029   73.0923 H   0  0  0  0  0  0  0  0  0  0  0  0
  130.1762  127.5002   74.6513 H   0  0  0  0  0  0  0  0  0  0  0  0
  128.9618  125.5032   73.7948 H   0  0  0  0  0  0  0  0  0  0  0  0
  128.4597  125.3022   71.3605 H   0  0  0  0  0  0  0  0  0  0  0  0
  130.3482  125.3947   68.7809 H   0  0  0  0  0  0  0  0  0  0  0  0
  128.2900  125.2921   65.6313 H   0  0  0  0  0  0  0  0  0  0  0  0
  132.9098  123.5932   59.9813 H   0  0  0  0  0  0  0  0  0  0  0  0
  134.4429  122.9313   60.7375 H   0  0  0  0  0  0  0  0  0  0  0  0
  130.7296  122.2744   60.5758 H   0  0  0  0  0  0  0  0  0  0  0  0
  129.8064  119.9597   60.5003 H   0  0  0  0  0  0  0  0  0  0  0  0
  131.0317  117.2354   61.6545 H   0  0  0  0  0  0  0  0  0  0  0  0
  130.2218  117.6286   60.1001 H   0  0  0  0  0  0  0  0  0  0  0  0
  131.8883  116.9582   60.1001 H   0  0  0  0  0  0  0  0  0  0  0  0
  133.8037  118.3531   60.8818 H   0  0  0  0  0  0  0  0  0  0  0  0
  134.7265  120.6676   60.9610 H   0  0  0  0  0  0  0  0  0  0  0  0
  125.4694  127.9650   67.9406 H   0  0  0  0  0  0  0  0  0  0  0  0
  1  2  1  0
  2  3  1  0
  3  4  2  0
  4  5  1  0
  5  6  2  0
  6  7  1  0
  7  8  2  0
  8  9  1  0
  9 10  1  0
 10 11  2  0
 11 12  1  0
 12 13  2  0
 13 14  1  0
 14 15  2  0
  9 16  1  0
 16 17  2  0
 17 18  1  0
 18 19  2  0
 19 20  1  0
 20 21  1  0
 21 22  2  0
 22 23  1  0
 23 24  2  0
 23 25  1  0
 25 26  1  0
 26 27  1  0
 27 28  2  0
 28 29  1  0
 29 30  2  0
 30 31  1  0
 30 32  1  0
 32 33  2  0
 25 34  2  0
 34 35  1  0
 35 36  1  0
 36 37  2  0
  6 38  1  0
 38 39  2  0
 39 40  1  0
 39  3  1  0
 17  7  1  0
 36 19  1  0
 15 10  1  0
 35 21  1  0
 33 27  1  0
  1 41  1  0
  1 42  1  0
  1 43  1  0
  4 44  1  0
  5 45  1  0
 11 46  1  0
 12 47  1  0
 13 48  1  0
 14 49  1  0
 15 50  1  0
 16 51  1  0
 18 52  1  0
 26 53  1  0
 26 54  1  0
 28 55  1  0
 29 56  1  0
 31 57  1  0
 31 58  1  0
 31 59  1  0
 32 60  1  0
 33 61  1  0
 38 62  1  0
M  END
>  <Binding energies>  (1) 
[-11.01]

>  <Ligand effiencies>  (1) 
[-0.27525]

>  <Interactions>  (1) 
["V-A:GLU:543:CD:4908, V-A:GLY:453:C:4041, V-A:GLY:454:CA:4048, H-A:ARG:545:NH2:4928, H-A:ARG:545:NH1:4927, V-A:ARG:545:CZ:4926, H-A:GLY:454:N:4049, H-A:ARG:545:NE:4924, V-A:ILE:369:CG2:3236, V-B:TYR:539:CD2:9846, V-B:TYR:539:CE2:9848, V-A:LEU:475:CD1:4257, V-A:HIS:383:CE1:3392, V-A:PRO:482:CG:4326, V-B:GLU:543:CG:9879, V-B:GLU:543:CD:9880, V-A:HIS:456:CE1:4069, V-B:HIS:456:CE1:9041, V-A:GLY:453:CA:4043, V-B:GLU:543:CB:9878, H-B:GLY:454:N:9021, V-B:ASP:366:CG:8184, V-A:GLU:543:C:4902, V-B:ARG:545:CG:9894, V-B:ARG:545:CD:9895, V-B:ARG:545:CZ:9898, V-B:HIS:456:CD2:9039, V-A:LYS:547:CE:4950"]

$$$$
RR22_Rahimova_2017
     RDKit          3D

 49 54  0  0  0  0  0  0  0  0999 V2000
  132.8510  125.0830   58.3640 O   0  0  0  0  0  0  0  0  0  0  0  0
  132.3140  124.4980   59.3020 C   0  0  0  0  0  0  0  0  0  0  0  0
  131.8950  125.0380   60.5050 N   0  0  0  0  0  0  0  0  0  0  0  0
  131.2270  124.2250   61.4750 C   0  0  1  0  0  0  0  0  0  0  0  0
  131.9960  124.3630   62.6730 O   0  0  0  0  0  0  0  0  0  0  0  0
  131.3680  124.8750   63.8090 C   0  0  0  0  0  0  0  0  0  0  0  0
  132.2020  125.3390   64.8260 C   0  0  0  0  0  0  0  0  0  0  0  0
  131.6470  125.8280   66.0090 C   0  0  0  0  0  0  0  0  0  0  0  0
  130.2620  125.8450   66.1760 C   0  0  0  0  0  0  0  0  0  0  0  0
  129.4270  125.3800   65.1580 C   0  0  0  0  0  0  0  0  0  0  0  0
  129.9680  124.9100   63.9570 C   0  0  0  0  0  0  0  0  0  0  0  0
  129.1540  124.3460   62.8140 C   0  0  1  0  0  0  0  0  0  0  0  0
  127.7570  124.8360   62.4910 C   0  0  0  0  0  0  0  0  0  0  0  0
  127.7390  124.5950   60.9790 C   0  0  0  0  0  0  0  0  0  0  0  0
  126.4890  124.5330   60.1950 C   0  0  0  0  0  0  0  0  0  0  0  0
  125.4470  123.6770   60.5810 C   0  0  0  0  0  0  0  0  0  0  0  0
  124.2700  123.6240   59.8390 C   0  0  0  0  0  0  0  0  0  0  0  0
  124.1280  124.4250   58.7090 C   0  0  0  0  0  0  0  0  0  0  0  0
  125.1530  125.2800   58.3130 C   0  0  0  0  0  0  0  0  0  0  0  0
  126.3300  125.3350   59.0540 C   0  0  0  0  0  0  0  0  0  0  0  0
  128.9270  124.4850   60.5140 N   0  0  0  0  0  0  0  0  0  0  0  0
  129.8230  124.6460   61.5840 N   0  0  0  0  0  0  0  0  0  0  0  0
  131.3780  122.7830   61.0120 C   0  0  0  0  0  0  0  0  0  0  0  0
  131.1790  121.7220   61.8290 C   0  0  0  0  0  0  0  0  0  0  0  0
  131.2710  120.2850   61.5070 C   0  0  0  0  0  0  0  0  0  0  0  0
  130.1490  119.4500   61.4000 C   0  0  0  0  0  0  0  0  0  0  0  0
  130.3130  118.0980   61.0930 C   0  0  0  0  0  0  0  0  0  0  0  0
  131.6060  117.6100   60.9060 C   0  0  0  0  0  0  0  0  0  0  0  0
  132.7100  118.3920   61.0130 N   0  0  0  0  0  0  0  0  0  0  0  0
  132.5290  119.7050   61.3100 C   0  0  0  0  0  0  0  0  0  0  0  0
  131.9320  122.7210   59.3320 S   0  0  0  0  0  0  0  0  0  0  0  0
  132.0920  126.0000   60.7360 H   0  0  0  0  0  0  0  0  0  0  0  0
  133.2941  125.3195   64.6958 H   0  0  0  0  0  0  0  0  0  0  0  0
  132.3019  126.2004   66.8105 H   0  0  0  0  0  0  0  0  0  0  0  0
  129.8268  126.2256   67.1118 H   0  0  0  0  0  0  0  0  0  0  0  0
  128.3364  125.3834   65.3016 H   0  0  0  0  0  0  0  0  0  0  0  0
  129.0586  123.3114   63.1753 H   0  0  0  0  0  0  0  0  0  0  0  0
  126.9866  124.2455   63.0085 H   0  0  0  0  0  0  0  0  0  0  0  0
  127.5438  125.8700   62.7998 H   0  0  0  0  0  0  0  0  0  0  0  0
  125.5602  123.0447   61.4740 H   0  0  0  0  0  0  0  0  0  0  0  0
  123.4549  122.9515   60.1446 H   0  0  0  0  0  0  0  0  0  0  0  0
  123.1976  124.3819   58.1238 H   0  0  0  0  0  0  0  0  0  0  0  0
  125.0332  125.9091   57.4187 H   0  0  0  0  0  0  0  0  0  0  0  0
  127.1404  126.0110   58.7436 H   0  0  0  0  0  0  0  0  0  0  0  0
  130.9140  121.9627   62.8691 H   0  0  0  0  0  0  0  0  0  0  0  0
  129.1406  119.8602   61.5579 H   0  0  0  0  0  0  0  0  0  0  0  0
  129.4420  117.4326   61.0007 H   0  0  0  0  0  0  0  0  0  0  0  0
  131.7366  116.5456   60.6613 H   0  0  0  0  0  0  0  0  0  0  0  0
  133.4183  120.3461   61.4004 H   0  0  0  0  0  0  0  0  0  0  0  0
  1  2  2  0
  2  3  1  0
  3  4  1  0
  4  5  1  1
  5  6  1  0
  6  7  2  0
  7  8  1  0
  8  9  2  0
  9 10  1  0
 10 11  2  0
 11 12  1  0
 12 13  1  0
 13 14  1  0
 14 15  1  0
 15 16  2  0
 16 17  1  0
 17 18  2  0
 18 19  1  0
 19 20  2  0
 14 21  2  0
 21 22  1  0
  4 23  1  0
 23 24  2  0
 24 25  1  0
 25 26  2  0
 26 27  1  0
 27 28  2  0
 28 29  1  0
 29 30  2  0
 23 31  1  0
 31  2  1  0
 22  4  1  0
 30 25  1  0
 11  6  1  0
 22 12  1  0
 20 15  1  0
  3 32  1  0
  7 33  1  0
  8 34  1  0
  9 35  1  0
 10 36  1  0
 12 37  1  1
 13 38  1  0
 13 39  1  0
 16 40  1  0
 17 41  1  0
 18 42  1  0
 19 43  1  0
 20 44  1  0
 24 45  1  0
 26 46  1  0
 27 47  1  0
 28 48  1  0
 30 49  1  0
M  END
>  <Binding energies>  (1) 
[-8.34]

>  <Ligand effiencies>  (1) 
[-0.260625]

>  <Interactions>  (1) 
["V-A:ASP:366:CG:3212, V-A:ASP:366:CB:3211, V-A:ARG:545:CZ:4926, H-A:ASP:366:OD2:3214, H-A:ASP:366:OD1:3213, H-A:SER:385:OG:3409, V-A:LEU:475:CD1:4257, V-A:HIS:383:CE1:3392, V-A:PRO:482:CB:4325, H-A:HIS:383:NE2:3393, V-A:PRO:482:CG:4326, V-B:PRO:540:CA:9855, V-B:LEU:363:CD1:8160, V-B:GLU:543:CG:9879, V-B:ALA:541:CB:9864, V-B:GLU:543:CD:9880, V-B:PRO:540:CB:9857, V-B:ALA:541:CA:9862, V-B:ASP:366:CG:8184, V-B:ASP:366:CB:8183, V-B:LEU:363:CA:8156, V-B:PRO:540:C:9853, V-B:TYR:531:CZ:9766, V-B:LEU:363:CB:8158, V-B:TYR:531:CE2:9765"]

$$$$
RR23_Rahimova_2017
     RDKit          3D

 65 70  0  0  0  0  0  0  0  0999 V2000
  127.6080  123.4110   57.6340 C   0  0  0  0  0  0  0  0  0  0  0  0
  128.8650  123.1310   58.4370 C   0  0  0  0  0  0  0  0  0  0  0  0
  130.0230  123.8720   58.2020 C   0  0  0  0  0  0  0  0  0  0  0  0
  131.1730  123.6200   58.9470 C   0  0  0  0  0  0  0  0  0  0  0  0
  131.1770  122.6180   59.9240 C   0  0  0  0  0  0  0  0  0  0  0  0
  132.4290  122.3750   60.7360 C   0  0  0  0  0  0  0  0  0  0  0  0
  133.1260  121.4040   60.4330 O   0  0  0  0  0  0  0  0  0  0  0  0
  132.7480  123.2330   61.7500 N   0  0  0  0  0  0  0  0  0  0  0  0
  133.7990  124.2510   61.5950 C   0  0  0  0  0  0  0  0  0  0  0  0
  133.7640  125.0980   62.8570 C   0  0  0  0  0  0  0  0  0  0  0  0
  132.4460  124.7310   63.4680 C   0  0  0  0  0  0  0  0  0  0  0  0
  131.8260  125.2570   64.6020 C   0  0  0  0  0  0  0  0  0  0  0  0
  130.6590  124.6670   65.1110 C   0  0  0  0  0  0  0  0  0  0  0  0
  129.9450  125.2150   66.3560 C   0  0  2  0  0  0  0  0  0  0  0  0
  128.9290  126.1890   66.0180 N   0  0  0  0  0  0  0  0  0  0  0  0
  128.8060  127.0770   66.9210 C   0  0  0  0  0  0  0  0  0  0  0  0
  127.9740  128.1530   66.9310 N   0  0  0  0  0  0  0  0  0  0  0  0
  127.1850  128.6170   65.9320 C   0  0  0  0  0  0  0  0  0  0  0  0
  127.0560  128.0960   64.8210 O   0  0  0  0  0  0  0  0  0  0  0  0
  126.4060  129.9040   66.2460 C   0  0  0  0  0  0  0  0  0  0  0  0
  125.9090  130.4910   64.9810 N   0  0  0  0  0  0  0  0  0  0  0  0
  124.6350  130.0930   64.5990 N   0  0  0  0  0  0  0  0  0  0  0  0
  124.0860  130.5340   63.5110 N   0  0  0  0  0  0  0  0  0  0  0  0
  124.7820  131.4310   62.6970 C   0  0  0  0  0  0  0  0  0  0  0  0
  124.1620  131.8860   61.5310 C   0  0  0  0  0  0  0  0  0  0  0  0
  124.8320  132.7830   60.6970 C   0  0  0  0  0  0  0  0  0  0  0  0
  126.1160  133.2240   61.0250 C   0  0  0  0  0  0  0  0  0  0  0  0
  126.7370  132.7700   62.1910 C   0  0  0  0  0  0  0  0  0  0  0  0
  126.0640  131.8720   63.0280 C   0  0  0  0  0  0  0  0  0  0  0  0
  126.7200  131.3660   64.2920 C   0  0  0  0  0  0  0  0  0  0  0  0
  127.8540  131.6920   64.6550 O   0  0  0  0  0  0  0  0  0  0  0  0
  129.8550  126.9210   68.3600 S   0  0  0  0  0  0  0  0  0  0  0  0
  130.8950  125.7730   67.4410 C   0  0  2  0  0  0  0  0  0  0  0  0
  132.1510  126.5190   66.9450 C   0  0  0  0  0  0  0  0  0  0  0  0
  130.1590  123.5170   64.4910 C   0  0  0  0  0  0  0  0  0  0  0  0
  130.7900  122.9770   63.3690 C   0  0  0  0  0  0  0  0  0  0  0  0
  131.9080  123.6180   62.8190 C   0  0  0  0  0  0  0  0  0  0  0  0
  130.0010  121.8970   60.1740 C   0  0  0  0  0  0  0  0  0  0  0  0
  128.8520  122.1500   59.4300 C   0  0  0  0  0  0  0  0  0  0  0  0
  126.7687  123.5980   58.3200 H   0  0  0  0  0  0  0  0  0  0  0  0
  127.7674  124.2957   57.0000 H   0  0  0  0  0  0  0  0  0  0  0  0
  127.3768  122.5423   57.0000 H   0  0  0  0  0  0  0  0  0  0  0  0
  130.0283  124.6547   57.4291 H   0  0  0  0  0  0  0  0  0  0  0  0
  132.0825  124.2117   58.7663 H   0  0  0  0  0  0  0  0  0  0  0  0
  134.7822  123.7697   61.4868 H   0  0  0  0  0  0  0  0  0  0  0  0
  133.6313  124.8646   60.6976 H   0  0  0  0  0  0  0  0  0  0  0  0
  134.5968  124.8424   63.5287 H   0  0  0  0  0  0  0  0  0  0  0  0
  133.8677  126.1754   62.6609 H   0  0  0  0  0  0  0  0  0  0  0  0
  132.2546  126.1393   65.0999 H   0  0  0  0  0  0  0  0  0  0  0  0
  129.4553  124.3360   66.8004 H   0  0  0  0  0  0  0  0  0  0  0  0
  127.9780  128.7070   67.7750 H   0  0  0  0  0  0  0  0  0  0  0  0
  125.5550  129.6686   66.9020 H   0  0  0  0  0  0  0  0  0  0  0  0
  127.0668  130.6224   66.7532 H   0  0  0  0  0  0  0  0  0  0  0  0
  123.1509  131.5393   61.2712 H   0  0  0  0  0  0  0  0  0  0  0  0
  124.3468  133.1438   59.7781 H   0  0  0  0  0  0  0  0  0  0  0  0
  126.6393  133.9303   60.3638 H   0  0  0  0  0  0  0  0  0  0  0  0
  127.7486  133.1159   62.4499 H   0  0  0  0  0  0  0  0  0  0  0  0
  131.3139  124.9299   68.0100 H   0  0  0  0  0  0  0  0  0  0  0  0
  132.7362  126.8666   67.8091 H   0  0  0  0  0  0  0  0  0  0  0  0
  132.7648  125.8390   66.3361 H   0  0  0  0  0  0  0  0  0  0  0  0
  131.8475  127.3834   66.3361 H   0  0  0  0  0  0  0  0  0  0  0  0
  129.2571  123.0320   64.8927 H   0  0  0  0  0  0  0  0  0  0  0  0
  130.4098  122.0490   62.9170 H   0  0  0  0  0  0  0  0  0  0  0  0
  129.9862  121.1286   60.9609 H   0  0  0  0  0  0  0  0  0  0  0  0
  127.9336  121.5767   59.6246 H   0  0  0  0  0  0  0  0  0  0  0  0
  1  2  1  0
  2  3  2  0
  3  4  1  0
  4  5  2  0
  5  6  1  0
  6  7  2  0
  6  8  1  0
  8  9  1  0
  9 10  1  0
 10 11  1  0
 11 12  2  0
 12 13  1  0
 13 14  1  0
 14 15  1  0
 15 16  2  0
 16 17  1  0
 17 18  1  0
 18 19  2  0
 18 20  1  0
 20 21  1  0
 21 22  1  0
 22 23  2  0
 23 24  1  0
 24 25  2  0
 25 26  1  0
 26 27  2  0
 27 28  1  0
 28 29  2  0
 29 30  1  0
 30 31  2  0
 16 32  1  0
 32 33  1  0
 33 34  1  0
 13 35  2  0
 35 36  1  0
 36 37  2  0
  5 38  1  0
 38 39  2  0
 39  2  1  0
 37  8  1  0
 37 11  1  0
 33 14  1  0
 30 21  1  0
 29 24  1  0
  1 40  1  0
  1 41  1  0
  1 42  1  0
  3 43  1  0
  4 44  1  0
  9 45  1  0
  9 46  1  0
 10 47  1  0
 10 48  1  0
 12 49  1  0
 14 50  1  1
 17 51  1  0
 20 52  1  0
 20 53  1  0
 25 54  1  0
 26 55  1  0
 27 56  1  0
 28 57  1  0
 33 58  1  1
 34 59  1  0
 34 60  1  0
 34 61  1  0
 35 62  1  0
 36 63  1  0
 38 64  1  0
 39 65  1  0
M  END
>  <Binding energies>  (1) 
[-10.07]

>  <Ligand effiencies>  (1) 
[-0.25175000000000003]

>  <Interactions>  (1) 
["V-A:ALA:541:CB:4892, V-A:TYR:539:CE1:4875, V-A:TYR:539:CD1:4873, V-B:LEU:475:CD1:9229, V-A:ASP:366:CG:3212, V-A:ARG:545:CG:4922, V-A:TYR:484:CZ:4346, H-A:GLU:543:OE1:4909, V-A:ARG:545:CZ:4926, V-B:TYR:539:CD2:9846, V-B:TYR:539:CE2:9848, V-B:PRO:540:CA:9855, V-B:GLU:543:CG:9879, V-B:TYR:539:CZ:9849, V-B:MET:535:CE:9807, V-B:PRO:540:N:9856, V-B:TYR:539:C:9839, V-A:TYR:484:CE2:4345, V-A:HIS:456:CE1:4069, V-B:HIS:456:CE1:9041, V-B:TYR:484:CE2:9317, V-B:GLU:543:CB:9878, H-B:TYR:484:OH:9319, H-B:ARG:545:NH2:9900, H-B:GLY:454:N:9021, V-B:ILE:369:CG2:8208, V-B:ILE:369:CD1:8210, V-B:TYR:484:CZ:9318, H-B:HIS:456:NE2:9042"]

$$$$
RR24_Rahimova_2017
     RDKit          3D

 65 71  0  0  0  0  0  0  0  0999 V2000
  129.6550  121.0170   61.5320 C   0  0  0  0  0  0  0  0  0  0  0  0
  129.7720  121.7870   60.2090 C   0  0  2  0  0  0  0  0  0  0  0  0
  130.9130  122.8470   60.2150 C   0  0  0  0  0  0  0  0  0  0  0  0
  131.7780  122.8750   61.0950 O   0  0  0  0  0  0  0  0  0  0  0  0
  130.8160  123.7250   59.1730 O   0  0  0  0  0  0  0  0  0  0  0  0
  130.4920  125.0400   59.4200 C   0  0  0  0  0  0  0  0  0  0  0  0
  129.7530  125.7520   58.4740 C   0  0  0  0  0  0  0  0  0  0  0  0
  129.4110  127.0790   58.7170 C   0  0  0  0  0  0  0  0  0  0  0  0
  129.7990  127.6970   59.9090 C   0  0  0  0  0  0  0  0  0  0  0  0
  129.4360  129.1650   60.1620 C   0  0  1  0  0  0  0  0  0  0  0  0
  128.4080  129.3170   61.3080 C   0  0  0  0  0  0  0  0  0  0  0  0
  128.5900  130.1570   62.3430 C   0  0  0  0  0  0  0  0  0  0  0  0
  129.7090  130.9440   62.4590 N   0  0  0  0  0  0  0  0  0  0  0  0
  130.7080  130.9100   61.5150 C   0  0  0  0  0  0  0  0  0  0  0  0
  131.7400  131.7540   61.7720 N   0  0  0  0  0  0  0  0  0  0  0  0
  132.8540  131.8010   60.9920 C   0  0  0  0  0  0  0  0  0  0  0  0
  133.8760  132.3320   61.4310 O   0  0  0  0  0  0  0  0  0  0  0  0
  132.7500  131.0760   59.8150 N   0  0  0  0  0  0  0  0  0  0  0  0
  133.8970  131.1660   58.8880 C   0  0  0  0  0  0  0  0  0  0  0  0
  131.7500  130.1890   59.4550 C   0  0  0  0  0  0  0  0  0  0  0  0
  131.7490  129.5340   58.4080 O   0  0  0  0  0  0  0  0  0  0  0  0
  130.6530  130.1020   60.4240 C   0  0  0  0  0  0  0  0  0  0  0  0
  127.4680  130.0930   63.2650 C   0  0  0  0  0  0  0  0  0  0  0  0
  127.1840  130.7460   64.4650 C   0  0  0  0  0  0  0  0  0  0  0  0
  125.9900  130.4590   65.1310 C   0  0  0  0  0  0  0  0  0  0  0  0
  125.0930  129.5280   64.5990 C   0  0  0  0  0  0  0  0  0  0  0  0
  125.3830  128.8770   63.3970 C   0  0  0  0  0  0  0  0  0  0  0  0
  126.5780  129.1670   62.7360 C   0  0  0  0  0  0  0  0  0  0  0  0
  127.1270  128.6380   61.4700 C   0  0  0  0  0  0  0  0  0  0  0  0
  126.6540  127.8110   60.6920 O   0  0  0  0  0  0  0  0  0  0  0  0
  130.5230  126.9750   60.8630 C   0  0  0  0  0  0  0  0  0  0  0  0
  130.8640  125.6480   60.6220 C   0  0  0  0  0  0  0  0  0  0  0  0
  128.4640  122.3630   59.7780 N   0  0  0  0  0  0  0  0  0  0  0  0
  128.1490  122.5110   58.4610 C   0  0  0  0  0  0  0  0  0  0  0  0
  128.8480  122.2220   57.4880 O   0  0  0  0  0  0  0  0  0  0  0  0
  126.7850  123.0940   58.4430 C   0  0  0  0  0  0  0  0  0  0  0  0
  125.9610  123.4600   57.3780 C   0  0  0  0  0  0  0  0  0  0  0  0
  124.6980  123.9930   57.6610 C   0  0  0  0  0  0  0  0  0  0  0  0
  124.2790  124.1510   58.9870 C   0  0  0  0  0  0  0  0  0  0  0  0
  125.1200  123.7780   60.0420 C   0  0  0  0  0  0  0  0  0  0  0  0
  126.3750  123.2500   59.7400 C   0  0  0  0  0  0  0  0  0  0  0  0
  127.4670  122.7690   60.6230 C   0  0  0  0  0  0  0  0  0  0  0  0
  127.4710  122.7390   61.8540 O   0  0  0  0  0  0  0  0  0  0  0  0
  129.7613  121.7167   62.3741 H   0  0  0  0  0  0  0  0  0  0  0  0
  128.6720  120.5262   61.5849 H   0  0  0  0  0  0  0  0  0  0  0  0
  130.4479  120.2564   61.5849 H   0  0  0  0  0  0  0  0  0  0  0  0
  130.0609  121.0444   59.4507 H   0  0  0  0  0  0  0  0  0  0  0  0
  129.4414  125.2652   57.5381 H   0  0  0  0  0  0  0  0  0  0  0  0
  128.8340  127.6427   57.9692 H   0  0  0  0  0  0  0  0  0  0  0  0
  128.9856  129.4936   59.2138 H   0  0  0  0  0  0  0  0  0  0  0  0
  129.8030  131.5640   63.2520 H   0  0  0  0  0  0  0  0  0  0  0  0
  131.7230  132.3620   62.5780 H   0  0  0  0  0  0  0  0  0  0  0  0
  134.8303  131.2392   59.4655 H   0  0  0  0  0  0  0  0  0  0  0  0
  133.9276  130.2675   58.2542 H   0  0  0  0  0  0  0  0  0  0  0  0
  133.7870  132.0583   58.2542 H   0  0  0  0  0  0  0  0  0  0  0  0
  127.8917  131.4779   64.8815 H   0  0  0  0  0  0  0  0  0  0  0  0
  125.7547  130.9675   66.0776 H   0  0  0  0  0  0  0  0  0  0  0  0
  124.1548  129.3069   65.1289 H   0  0  0  0  0  0  0  0  0  0  0  0
  124.6780  128.1447   62.9766 H   0  0  0  0  0  0  0  0  0  0  0  0
  130.8232  127.4569   61.8051 H   0  0  0  0  0  0  0  0  0  0  0  0
  131.4258  125.0780   61.3767 H   0  0  0  0  0  0  0  0  0  0  0  0
  126.2968  123.3324   56.3383 H   0  0  0  0  0  0  0  0  0  0  0  0
  124.0317  124.2891   56.8374 H   0  0  0  0  0  0  0  0  0  0  0  0
  123.2847  124.5700   59.2010 H   0  0  0  0  0  0  0  0  0  0  0  0
  124.7979  123.8987   61.0868 H   0  0  0  0  0  0  0  0  0  0  0  0
  1  2  1  0
  2  3  1  0
  3  4  2  0
  3  5  1  0
  5  6  1  0
  6  7  2  0
  7  8  1  0
  8  9  2  0
  9 10  1  0
 10 11  1  0
 11 12  2  0
 12 13  1  0
 13 14  1  0
 14 15  1  0
 15 16  1  0
 16 17  2  0
 16 18  1  0
 18 19  1  0
 18 20  1  0
 20 21  2  0
 20 22  1  0
 12 23  1  0
 23 24  2  0
 24 25  1  0
 25 26  2  0
 26 27  1  0
 27 28  2  0
 28 29  1  0
 29 30  2  0
  9 31  1  0
 31 32  2  0
  2 33  1  0
 33 34  1  0
 34 35  2  0
 34 36  1  0
 36 37  2  0
 37 38  1  0
 38 39  2  0
 39 40  1  0
 40 41  2  0
 41 42  1  0
 42 43  2  0
 32  6  1  0
 42 33  1  0
 22 10  1  0
 28 23  1  0
 41 36  1  0
 29 11  1  0
 22 14  2  0
  1 44  1  0
  1 45  1  0
  1 46  1  0
  2 47  1  6
  7 48  1  0
  8 49  1  0
 10 50  1  6
 13 51  1  0
 15 52  1  0
 19 53  1  0
 19 54  1  0
 19 55  1  0
 24 56  1  0
 25 57  1  0
 26 58  1  0
 27 59  1  0
 31 60  1  0
 32 61  1  0
 37 62  1  0
 38 63  1  0
 39 64  1  0
 40 65  1  0
M  END
>  <Binding energies>  (1) 
[-9.1]

>  <Ligand effiencies>  (1) 
[-0.20222222222222222]

>  <Interactions>  (1) 
["V-A:ASN:362:CB:3175, V-A:ALA:541:CB:4892, V-A:PRO:540:CA:4883, V-A:GLU:543:CD:4908, V-A:LEU:363:CD1:3188, V-A:PRO:540:CB:4885, V-A:ASP:366:CG:3212, H-A:GLU:543:OE2:4910, H-A:GLU:543:OE1:4909, V-B:TYR:539:CD2:9846, V-B:TYR:539:CE2:9848, H-B:ALA:541:N:9863, V-B:PRO:540:CA:9855, V-B:LEU:363:CD1:8160, V-B:ALA:541:CB:9864, V-B:MET:535:CE:9807, V-B:PRO:540:N:9856, V-B:PRO:540:CB:9857, V-B:TYR:539:C:9839, V-B:ALA:541:CA:9862, V-A:GLU:543:CG:4907, H-A:ALA:541:N:4891, V-B:ASP:366:CG:8184, V-A:ALA:541:CA:4890, V-B:ASP:366:CB:8183, V-B:ARG:545:CZ:9898, V-B:LEU:363:CA:8156, V-B:PRO:540:C:9853, V-B:TYR:484:CZ:9318, V-B:LEU:363:CB:8158, V-A:PRO:540:C:4881, V-B:TYR:531:CE2:9765, V-A:ASN:362:C:3171, V-A:LEU:363:CB:3186, V-A:LEU:363:CA:3184, V-A:ALA:541:C:4888, H-A:LEU:363:N:3185, H-A:ALA:541:O:4889"]

$$$$
RR24_Rahimova_2017-again1
     RDKit          3D

 63 69  0  0  0  0  0  0  0  0999 V2000
  127.2350  132.0190   61.1230 C   0  0  0  0  0  0  0  0  0  0  0  0
  127.8170  130.7320   60.5240 C   0  0  2  0  0  0  0  0  0  0  0  0
  127.3810  129.4450   61.2830 C   0  0  0  0  0  0  0  0  0  0  0  0
  126.7300  129.4930   62.3340 O   0  0  0  0  0  0  0  0  0  0  0  0
  127.8180  128.3020   60.6770 O   0  0  0  0  0  0  0  0  0  0  0  0
  128.3830  127.3030   61.4350 C   0  0  0  0  0  0  0  0  0  0  0  0
  129.6220  127.5160   62.0410 C   0  0  0  0  0  0  0  0  0  0  0  0
  130.1920  126.5180   62.8260 C   0  0  0  0  0  0  0  0  0  0  0  0
  129.5230  125.3050   63.0160 C   0  0  0  0  0  0  0  0  0  0  0  0
  130.1470  124.2010   63.8810 C   0  0  1  0  0  0  0  0  0  0  0  0
  130.5720  122.9860   63.0220 C   0  0  0  0  0  0  0  0  0  0  0  0
  129.8650  122.1100   62.2750 C   0  0  0  0  0  0  0  0  0  0  0  0
  128.5800  122.1050   62.1600 O   0  0  0  0  0  0  0  0  0  0  0  0
  130.7660  121.1820   61.5920 C   0  0  0  0  0  0  0  0  0  0  0  0
  130.5370  120.1180   60.7110 C   0  0  0  0  0  0  0  0  0  0  0  0
  131.6190  119.3990   60.2020 C   0  0  0  0  0  0  0  0  0  0  0  0
  132.9220  119.7400   60.5720 C   0  0  0  0  0  0  0  0  0  0  0  0
  133.1460  120.8000   61.4520 C   0  0  0  0  0  0  0  0  0  0  0  0
  132.0610  121.5210   61.9570 C   0  0  0  0  0  0  0  0  0  0  0  0
  131.9760  122.6380   62.8820 C   0  0  0  0  0  0  0  0  0  0  0  0
  132.9030  123.2560   63.5120 N   0  0  0  0  0  0  0  0  0  0  0  0
  132.6210  124.2120   64.4420 C   0  0  0  0  0  0  0  0  0  0  0  0
  133.7250  124.6390   65.1220 N   0  0  0  0  0  0  0  0  0  0  0  0
  133.5990  125.5530   66.0170 C   0  0  0  0  0  0  0  0  0  0  0  0
  134.6680  125.8670   66.5670 O   0  0  0  0  0  0  0  0  0  0  0  0
  132.3670  126.1250   66.3310 N   0  0  0  0  0  0  0  0  0  0  0  0
  132.1900  127.1810   67.3560 C   0  0  0  0  0  0  0  0  0  0  0  0
  131.1950  125.7430   65.7080 C   0  0  0  0  0  0  0  0  0  0  0  0
  130.0810  126.2060   65.9720 O   0  0  0  0  0  0  0  0  0  0  0  0
  131.3680  124.7090   64.6830 C   0  0  0  0  0  0  0  0  0  0  0  0
  128.2760  125.0990   62.4170 C   0  0  0  0  0  0  0  0  0  0  0  0
  127.7040  126.0980   61.6340 C   0  0  0  0  0  0  0  0  0  0  0  0
  129.2970  130.8140   60.3510 N   0  0  0  0  0  0  0  0  0  0  0  0
  130.1080  131.2680   61.3480 C   0  0  0  0  0  0  0  0  0  0  0  0
  129.7710  131.6580   62.4680 O   0  0  0  0  0  0  0  0  0  0  0  0
  131.4860  131.1940   60.8010 C   0  0  0  0  0  0  0  0  0  0  0  0
  132.7150  131.5330   61.3700 C   0  0  0  0  0  0  0  0  0  0  0  0
  133.8750  131.3580   60.6090 C   0  0  0  0  0  0  0  0  0  0  0  0
  133.7960  130.8520   59.3050 C   0  0  0  0  0  0  0  0  0  0  0  0
  132.5550  130.5170   58.7530 C   0  0  0  0  0  0  0  0  0  0  0  0
  131.4080  130.7010   59.5270 C   0  0  0  0  0  0  0  0  0  0  0  0
  129.9780  130.4420   59.2240 C   0  0  0  0  0  0  0  0  0  0  0  0
  129.5080  129.9860   58.1820 O   0  0  0  0  0  0  0  0  0  0  0  0
  127.2627  131.9576   62.2209 H   0  0  0  0  0  0  0  0  0  0  0  0
  127.8308  132.8811   60.7888 H   0  0  0  0  0  0  0  0  0  0  0  0
  126.1941  132.1410   60.7888 H   0  0  0  0  0  0  0  0  0  0  0  0
  127.3788  130.6437   59.5189 H   0  0  0  0  0  0  0  0  0  0  0  0
  130.1476  128.4717   61.8984 H   0  0  0  0  0  0  0  0  0  0  0  0
  131.1715  126.6840   63.2982 H   0  0  0  0  0  0  0  0  0  0  0  0
  129.3676  123.8899   64.5922 H   0  0  0  0  0  0  0  0  0  0  0  0
  129.5099  119.8505   60.4218 H   0  0  0  0  0  0  0  0  0  0  0  0
  131.4457  118.5628   59.5087 H   0  0  0  0  0  0  0  0  0  0  0  0
  133.7734  119.1720   60.1690 H   0  0  0  0  0  0  0  0  0  0  0  0
  134.1718  121.0664   61.7465 H   0  0  0  0  0  0  0  0  0  0  0  0
  132.2648  126.7349   68.3587 H   0  0  0  0  0  0  0  0  0  0  0  0
  132.9727  127.9443   67.2350 H   0  0  0  0  0  0  0  0  0  0  0  0
  131.2012  127.6474   67.2350 H   0  0  0  0  0  0  0  0  0  0  0  0
  127.7464  124.1463   62.5648 H   0  0  0  0  0  0  0  0  0  0  0  0
  126.7183  125.9389   61.1724 H   0  0  0  0  0  0  0  0  0  0  0  0
  132.7696  131.9292   62.3947 H   0  0  0  0  0  0  0  0  0  0  0  0
  134.8544  131.6189   61.0364 H   0  0  0  0  0  0  0  0  0  0  0  0
  134.7133  130.7176   58.7129 H   0  0  0  0  0  0  0  0  0  0  0  0
  132.4845  130.1171   57.7307 H   0  0  0  0  0  0  0  0  0  0  0  0
  1  2  1  0
  2  3  1  0
  3  4  2  0
  3  5  1  0
  5  6  1  0
  6  7  2  0
  7  8  1  0
  8  9  2  0
  9 10  1  0
 10 11  1  0
 11 12  2  0
 12 13  1  0
 12 14  1  0
 14 15  2  0
 15 16  1  0
 16 17  2  0
 17 18  1  0
 18 19  2  0
 19 20  1  0
 20 21  2  0
 21 22  1  0
 22 23  1  0
 23 24  2  0
 24 25  1  0
 24 26  1  0
 26 27  1  0
 26 28  1  0
 28 29  2  0
 28 30  1  0
  9 31  1  0
 31 32  2  0
  2 33  1  0
 33 34  1  0
 34 35  2  0
 34 36  1  0
 36 37  2  0
 37 38  1  0
 38 39  2  0
 39 40  1  0
 40 41  2  0
 41 42  1  0
 42 43  2  0
 32  6  1  0
 42 33  1  0
 30 10  1  0
 41 36  1  0
 20 11  1  0
 30 22  2  0
 19 14  1  0
  1 44  1  0
  1 45  1  0
  1 46  1  0
  2 47  1  6
  7 48  1  0
  8 49  1  0
 10 50  1  1
 15 51  1  0
 16 52  1  0
 17 53  1  0
 18 54  1  0
 27 55  1  0
 27 56  1  0
 27 57  1  0
 31 58  1  0
 32 59  1  0
 37 60  1  0
 38 61  1  0
 39 62  1  0
 40 63  1  0
M  CHG  2  13  -1  25  -1
M  END
>  <Binding energies>  (1) 
[-9.47]

>  <Ligand effiencies>  (1) 
[-0.2202325581395349]

>  <Interactions>  (1) 
["V-A:ASN:362:CB:3175, V-A:PRO:540:CA:4883, V-A:GLU:543:CD:4908, V-A:PRO:540:CB:4885, V-A:ASP:366:CG:3212, V-A:ARG:545:CD:4923, V-A:ARG:545:CG:4922, H-A:TYR:484:OH:4347, V-A:ASP:366:CB:3211, V-A:ARG:545:CZ:4926, H-A:GLY:454:N:4049, H-A:ARG:545:NE:4924, V-A:ILE:369:CG2:3236, V-B:TYR:539:CD2:9846, V-B:TYR:539:CE2:9848, V-A:LEU:475:CD1:4257, H-B:ALA:541:N:9863, V-B:ALA:541:CB:9864, V-B:GLU:543:CD:9880, V-A:HIS:456:CE1:4069, V-A:GLU:543:CB:4906, H-A:ALA:541:N:4891, V-A:PRO:540:C:4881, V-A:ASN:362:C:3171, V-A:LEU:363:CB:3186, V-A:LEU:363:CA:3184, V-A:ASN:362:CA:3173"]

$$$$
RR25_Rahimova_2017
     RDKit          3D

 63 68  0  0  0  0  0  0  0  0999 V2000
  133.9180  125.5920   67.2910 O   0  0  0  0  0  0  0  0  0  0  0  0
  132.7930  125.8050   66.8370 C   0  0  0  0  0  0  0  0  0  0  0  0
  131.7610  125.7920   67.7420 O   0  0  0  0  0  0  0  0  0  0  0  0
  130.5020  126.2570   67.4090 C   0  0  0  0  0  0  0  0  0  0  0  0
  129.7080  126.7230   68.4560 C   0  0  0  0  0  0  0  0  0  0  0  0
  128.4260  127.1990   68.1920 C   0  0  0  0  0  0  0  0  0  0  0  0
  127.9180  127.2130   66.8850 C   0  0  0  0  0  0  0  0  0  0  0  0
  126.5550  127.7270   66.6060 N   0  0  0  0  0  0  0  0  0  0  0  0
  125.6400  127.4060   67.3600 O   0  0  0  0  0  0  0  0  0  0  0  0
  126.3900  128.4560   65.6320 O   0  0  0  0  0  0  0  0  0  0  0  0
  128.7300  126.7280   65.8460 C   0  0  0  0  0  0  0  0  0  0  0  0
  130.0150  126.2390   66.0940 C   0  0  0  0  0  0  0  0  0  0  0  0
  130.9340  125.7150   65.0060 C   0  0  0  0  0  0  0  0  0  0  0  0
  132.4090  126.0670   65.3520 C   0  0  2  0  0  0  0  0  0  0  0  0
  133.3900  125.4590   64.3070 C   0  0  0  0  0  0  0  0  0  0  0  0
  134.5030  125.1370   64.7320 O   0  0  0  0  0  0  0  0  0  0  0  0
  133.0060  125.1790   63.0250 N   0  0  0  0  0  0  0  0  0  0  0  0
  131.8310  125.8080   62.3850 C   0  0  0  0  0  0  0  0  0  0  0  0
  131.1380  124.7700   61.4780 C   0  0  0  0  0  0  0  0  0  0  0  0
  132.0750  124.1960   60.5080 N   0  0  0  0  0  0  0  0  0  0  0  0
  131.3900  123.3080   59.5590 C   0  0  0  0  0  0  0  0  0  0  0  0
  130.4070  122.3270   60.2530 C   0  0  0  0  0  0  0  0  0  0  0  0
  128.9550  122.6170   60.0730 N   0  0  0  0  0  0  0  0  0  0  0  0
  128.1610  122.3510   61.1680 C   0  0  0  0  0  0  0  0  0  0  0  0
  128.5990  121.8710   62.2200 O   0  0  0  0  0  0  0  0  0  0  0  0
  126.6990  122.7120   60.9920 C   0  0  0  0  0  0  0  0  0  0  0  0
  125.8070  122.5080   62.0520 C   0  0  0  0  0  0  0  0  0  0  0  0
  124.4580  122.8360   61.9270 C   0  0  0  0  0  0  0  0  0  0  0  0
  123.9600  123.3810   60.7450 C   0  0  0  0  0  0  0  0  0  0  0  0
  124.8240  123.6050   59.6460 C   0  0  0  0  0  0  0  0  0  0  0  0
  124.3850  124.1560   58.4190 C   0  0  0  0  0  0  0  0  0  0  0  0
  125.2900  124.3540   57.3780 C   0  0  0  0  0  0  0  0  0  0  0  0
  126.6340  124.0160   57.5230 C   0  0  0  0  0  0  0  0  0  0  0  0
  127.1130  123.4680   58.7200 C   0  0  0  0  0  0  0  0  0  0  0  0
  126.1980  123.2640   59.7850 C   0  0  0  0  0  0  0  0  0  0  0  0
  128.5850  123.1210   58.8430 C   0  0  0  0  0  0  0  0  0  0  0  0
  129.3790  123.2970   57.9130 O   0  0  0  0  0  0  0  0  0  0  0  0
  133.1570  123.5050   61.2110 C   0  0  0  0  0  0  0  0  0  0  0  0
  133.9470  124.4660   62.1310 C   0  0  0  0  0  0  0  0  0  0  0  0
  130.0926  126.7148   69.4866 H   0  0  0  0  0  0  0  0  0  0  0  0
  127.8035  127.5690   69.0200 H   0  0  0  0  0  0  0  0  0  0  0  0
  128.3458  126.7334   64.8153 H   0  0  0  0  0  0  0  0  0  0  0  0
  130.8265  124.6228   64.9311 H   0  0  0  0  0  0  0  0  0  0  0  0
  130.6640  126.1792   64.0460 H   0  0  0  0  0  0  0  0  0  0  0  0
  132.5084  127.1592   65.2676 H   0  0  0  0  0  0  0  0  0  0  0  0
  131.1279  126.1493   63.1591 H   0  0  0  0  0  0  0  0  0  0  0  0
  132.1526  126.6712   61.7839 H   0  0  0  0  0  0  0  0  0  0  0  0
  130.7319  123.9621   62.1044 H   0  0  0  0  0  0  0  0  0  0  0  0
  130.3340  125.2767   60.9241 H   0  0  0  0  0  0  0  0  0  0  0  0
  130.8247  123.9255   58.8455 H   0  0  0  0  0  0  0  0  0  0  0  0
  132.1600  122.7042   59.0565 H   0  0  0  0  0  0  0  0  0  0  0  0
  130.6005  121.3198   59.8554 H   0  0  0  0  0  0  0  0  0  0  0  0
  130.5978  122.4307   61.3314 H   0  0  0  0  0  0  0  0  0  0  0  0
  126.1762  122.0828   62.9969 H   0  0  0  0  0  0  0  0  0  0  0  0
  123.7770  122.6622   62.7732 H   0  0  0  0  0  0  0  0  0  0  0  0
  122.8933  123.6377   60.6657 H   0  0  0  0  0  0  0  0  0  0  0  0
  123.3276  124.4285   58.2866 H   0  0  0  0  0  0  0  0  0  0  0  0
  124.9384  124.7833   56.4282 H   0  0  0  0  0  0  0  0  0  0  0  0
  127.3284  124.1817   56.6861 H   0  0  0  0  0  0  0  0  0  0  0  0
  132.7266  122.6988   61.8232 H   0  0  0  0  0  0  0  0  0  0  0  0
  133.8515  123.1014   60.4595 H   0  0  0  0  0  0  0  0  0  0  0  0
  134.6619  123.8892   62.7362 H   0  0  0  0  0  0  0  0  0  0  0  0
  134.4928  125.1965   61.5157 H   0  0  0  0  0  0  0  0  0  0  0  0
  1  2  2  0
  2  3  1  0
  3  4  1  0
  4  5  2  0
  5  6  1  0
  6  7  2  0
  7  8  1  0
  8  9  2  0
  8 10  1  0
  7 11  1  0
 11 12  2  0
 12 13  1  0
 13 14  1  0
 14 15  1  0
 15 16  2  0
 15 17  1  0
 17 18  1  0
 18 19  1  0
 19 20  1  0
 20 21  1  0
 21 22  1  0
 22 23  1  0
 23 24  1  0
 24 25  2  0
 24 26  1  0
 26 27  2  0
 27 28  1  0
 28 29  2  0
 29 30  1  0
 30 31  2  0
 31 32  1  0
 32 33  2  0
 33 34  1  0
 34 35  2  0
 34 36  1  0
 36 37  2  0
 20 38  1  0
 38 39  1  0
 14  2  1  0
 39 17  1  0
 12  4  1  0
 36 23  1  0
 35 26  1  0
 35 30  1  0
  5 40  1  0
  6 41  1  0
 11 42  1  0
 13 43  1  0
 13 44  1  0
 14 45  1  1
 18 46  1  0
 18 47  1  0
 19 48  1  0
 19 49  1  0
 21 50  1  0
 21 51  1  0
 22 52  1  0
 22 53  1  0
 27 54  1  0
 28 55  1  0
 29 56  1  0
 31 57  1  0
 32 58  1  0
 33 59  1  0
 38 60  1  0
 38 61  1  0
 39 62  1  0
 39 63  1  0
M  CHG  2   8   1  10  -1
M  END
>  <Binding energies>  (1) 
[-10.28]

>  <Ligand effiencies>  (1) 
[-0.2635897435897436]

>  <Interactions>  (1) 
["V-A:GLU:543:CD:4908, V-A:ASP:366:CG:3212, V-A:ARG:545:CD:4923, V-A:ARG:545:CG:4922, H-A:TYR:484:OH:4347, V-A:TYR:484:CZ:4346, H-A:ARG:545:NH2:4928, H-A:ARG:545:NH1:4927, V-A:ARG:545:CZ:4926, H-A:GLY:454:N:4049, H-A:ARG:545:NE:4924, V-B:TYR:539:CE2:9848, H-B:ALA:541:N:9863, V-B:PRO:540:CA:9855, V-B:LEU:363:CD1:8160, V-B:GLU:543:CG:9879, V-B:ALA:541:CB:9864, V-B:MET:535:CE:9807, V-B:GLU:543:CD:9880, V-B:PRO:540:CB:9857, V-A:HIS:456:CE1:4069, V-B:ALA:541:CA:9862, V-B:HIS:456:CE1:9041, V-B:GLU:543:CB:9878, H-B:ARG:545:NH2:9900, V-B:ASP:366:CG:8184, V-B:ASP:366:CB:8183, H-B:ARG:545:NE:9896, V-B:LEU:363:CA:8156, V-B:PRO:540:C:9853, H-B:TYR:539:OH:9850, V-B:ALA:541:C:9860, V-B:TYR:531:CZ:9766, V-B:LEU:363:CB:8158, V-B:TYR:531:CE2:9765, V-B:ASN:362:CB:8147, V-B:ASN:362:C:8143"]

$$$$
RR26_Rahimova_2017
     RDKit          3D

 59 65  0  0  0  0  0  0  0  0999 V2000
  133.5970  121.5170   61.4460 C   0  0  0  0  0  0  0  0  0  0  0  0
  132.5080  120.4770   61.2140 C   0  0  0  0  0  0  0  0  0  0  0  0
  132.8170  119.3580   60.4320 C   0  0  0  0  0  0  0  0  0  0  0  0
  131.8720  118.3570   60.2200 C   0  0  0  0  0  0  0  0  0  0  0  0
  130.6090  118.4620   60.7950 C   0  0  0  0  0  0  0  0  0  0  0  0
  130.2900  119.5710   61.5760 C   0  0  0  0  0  0  0  0  0  0  0  0
  131.2260  120.5940   61.7930 C   0  0  0  0  0  0  0  0  0  0  0  0
  130.7960  121.7620   62.6340 C   0  0  0  0  0  0  0  0  0  0  0  0
  130.5620  121.6500   63.9390 N   0  0  0  0  0  0  0  0  0  0  0  0
  130.2360  122.8730   64.2600 C   0  0  0  0  0  0  0  0  0  0  0  0
  129.7670  123.6900   65.7050 S   0  0  0  0  0  0  0  0  0  0  0  0
  129.6380  125.2250   64.7690 C   0  0  0  0  0  0  0  0  0  0  0  0
  129.2810  126.4460   65.2260 C   0  0  0  0  0  0  0  0  0  0  0  0
  128.9200  126.8250   66.5830 C   0  0  0  0  0  0  0  0  0  0  0  0
  129.5570  126.4830   67.7660 C   0  0  0  0  0  0  0  0  0  0  0  0
  128.8930  127.0990   68.7960 N   0  0  0  0  0  0  0  0  0  0  0  0
  129.1840  127.0470   70.1840 C   0  0  0  0  0  0  0  0  0  0  0  0
  129.8260  128.1180   70.8230 C   0  0  0  0  0  0  0  0  0  0  0  0
  130.1100  128.0530   72.1850 C   0  0  0  0  0  0  0  0  0  0  0  0
  129.7500  126.9210   72.9120 C   0  0  0  0  0  0  0  0  0  0  0  0
  129.1090  125.8520   72.2890 C   0  0  0  0  0  0  0  0  0  0  0  0
  128.8270  125.9130   70.9280 C   0  0  0  0  0  0  0  0  0  0  0  0
  127.8800  127.8390   68.3200 N   0  0  0  0  0  0  0  0  0  0  0  0
  127.8810  127.6820   67.0110 C   0  0  0  0  0  0  0  0  0  0  0  0
  126.8520  128.3790   66.1760 C   0  0  0  0  0  0  0  0  0  0  0  0
  125.5620  128.6050   66.6790 C   0  0  0  0  0  0  0  0  0  0  0  0
  124.5950  129.2510   65.9070 C   0  0  0  0  0  0  0  0  0  0  0  0
  124.9130  129.6770   64.6190 C   0  0  0  0  0  0  0  0  0  0  0  0
  126.2040  129.4740   64.1110 C   0  0  0  0  0  0  0  0  0  0  0  0
  127.1660  128.8230   64.8820 C   0  0  0  0  0  0  0  0  0  0  0  0
  126.5510  129.8390   62.8250 O   0  0  0  0  0  0  0  0  0  0  0  0
  125.6740  130.8030   62.2340 C   0  0  0  0  0  0  0  0  0  0  0  0
  124.1960  130.4290   62.5010 C   0  0  0  0  0  0  0  0  0  0  0  0
  123.9420  130.3540   63.9080 O   0  0  0  0  0  0  0  0  0  0  0  0
  129.9600  125.0430   63.3570 C   0  0  0  0  0  0  0  0  0  0  0  0
  129.9660  125.8740   62.4470 O   0  0  0  0  0  0  0  0  0  0  0  0
  130.2810  123.6870   63.1900 N   0  0  0  0  0  0  0  0  0  0  0  0
  130.6500  122.9740   62.1220 N   0  0  0  0  0  0  0  0  0  0  0  0
  133.7449  121.6582   62.5268 H   0  0  0  0  0  0  0  0  0  0  0  0
  134.5365  121.1723   60.9893 H   0  0  0  0  0  0  0  0  0  0  0  0
  133.2959  122.4713   60.9893 H   0  0  0  0  0  0  0  0  0  0  0  0
  133.8160  119.2683   59.9804 H   0  0  0  0  0  0  0  0  0  0  0  0
  132.1236  117.4847   59.5989 H   0  0  0  0  0  0  0  0  0  0  0  0
  129.8630  117.6700   60.6330 H   0  0  0  0  0  0  0  0  0  0  0  0
  129.2904  119.6457   62.0289 H   0  0  0  0  0  0  0  0  0  0  0  0
  129.2610  127.2531   64.4789 H   0  0  0  0  0  0  0  0  0  0  0  0
  130.4390  125.8326   67.8616 H   0  0  0  0  0  0  0  0  0  0  0  0
  130.1061  129.0121   70.2466 H   0  0  0  0  0  0  0  0  0  0  0  0
  130.6165  128.8922   72.6843 H   0  0  0  0  0  0  0  0  0  0  0  0
  129.9737  126.8703   73.9878 H   0  0  0  0  0  0  0  0  0  0  0  0
  128.8268  124.9626   72.8715 H   0  0  0  0  0  0  0  0  0  0  0  0
  128.3226  125.0694   70.4341 H   0  0  0  0  0  0  0  0  0  0  0  0
  125.3092  128.2686   67.6953 H   0  0  0  0  0  0  0  0  0  0  0  0
  123.5873  129.4229   66.3132 H   0  0  0  0  0  0  0  0  0  0  0  0
  128.1743  128.6568   64.4749 H   0  0  0  0  0  0  0  0  0  0  0  0
  125.8804  131.7930   62.6667 H   0  0  0  0  0  0  0  0  0  0  0  0
  125.8453  130.8200   61.1476 H   0  0  0  0  0  0  0  0  0  0  0  0
  123.5432  131.1944   62.0560 H   0  0  0  0  0  0  0  0  0  0  0  0
  123.9916  129.4464   62.0506 H   0  0  0  0  0  0  0  0  0  0  0  0
  1  2  1  0
  2  3  2  0
  3  4  1  0
  4  5  2  0
  5  6  1  0
  6  7  2  0
  7  8  1  0
  8  9  1  0
  9 10  2  0
 10 11  1  0
 11 12  1  0
 12 13  2  0
 13 14  1  0
 14 15  2  0
 15 16  1  0
 16 17  1  0
 17 18  2  0
 18 19  1  0
 19 20  2  0
 20 21  1  0
 21 22  2  0
 16 23  1  0
 23 24  2  0
 24 25  1  0
 25 26  2  0
 26 27  1  0
 27 28  2  0
 28 29  1  0
 29 30  2  0
 29 31  1  0
 31 32  1  0
 32 33  1  0
 33 34  1  0
 12 35  1  0
 35 36  2  0
 35 37  1  0
 37 38  1  0
  7  2  1  0
 38  8  2  0
 37 10  1  0
 24 14  1  0
 30 25  1  0
 22 17  1  0
 34 28  1  0
  1 39  1  0
  1 40  1  0
  1 41  1  0
  3 42  1  0
  4 43  1  0
  5 44  1  0
  6 45  1  0
 13 46  1  0
 15 47  1  0
 18 48  1  0
 19 49  1  0
 20 50  1  0
 21 51  1  0
 22 52  1  0
 26 53  1  0
 27 54  1  0
 30 55  1  0
 32 56  1  0
 32 57  1  0
 33 58  1  0
 33 59  1  0
M  END
>  <Binding energies>  (1) 
[-9.73]

>  <Ligand effiencies>  (1) 
[-0.25605263157894737]

>  <Interactions>  (1) 
["V-A:GLU:543:CD:4908, H-A:TYR:484:OH:4347, V-A:TYR:484:CZ:4346, V-A:ILE:369:CD1:3238, V-A:ILE:369:CG2:3236, V-B:TYR:539:CD2:9846, V-A:LEU:475:CD1:4257, V-A:PRO:482:CG:4326, V-B:GLU:543:CG:9879, V-B:ALA:541:CB:9864, V-B:GLU:543:CD:9880, V-B:TYR:539:C:9839, V-A:TYR:484:CE2:4345, V-A:HIS:456:CE1:4069, V-B:HIS:456:CE1:9041, V-B:GLU:543:C:9874, V-B:GLU:543:CB:9878, H-B:GLY:454:N:9021, V-B:ILE:369:CD1:8210, V-B:ASP:366:CG:8184, V-A:GLU:543:C:4902, V-B:ARG:545:CG:9894, V-B:ARG:545:CD:9895, V-B:ARG:545:CZ:9898"]

$$$$
RR27_Rahimova_2017
     RDKit          3D

 66 71  0  0  0  0  0  0  0  0999 V2000
  125.2700  131.3800   62.7390 O   0  0  0  0  0  0  0  0  0  0  0  0
  126.4210  131.2900   62.3020 C   0  0  0  0  0  0  0  0  0  0  0  0
  126.7430  131.9470   60.9280 C   0  0  0  0  0  0  0  0  0  0  0  0
  126.4830  133.4650   60.9080 C   0  0  0  0  0  0  0  0  0  0  0  0
  127.4160  134.3830   61.4130 C   0  0  0  0  0  0  0  0  0  0  0  0
  127.1490  135.7490   61.3770 C   0  0  0  0  0  0  0  0  0  0  0  0
  125.9490  136.2030   60.8370 C   0  0  0  0  0  0  0  0  0  0  0  0
  125.0120  135.3040   60.3350 C   0  0  0  0  0  0  0  0  0  0  0  0
  125.2790  133.9380   60.3710 C   0  0  0  0  0  0  0  0  0  0  0  0
  126.1150  131.1650   59.7590 C   0  0  0  0  0  0  0  0  0  0  0  0
  126.9010  130.5670   58.7650 C   0  0  0  0  0  0  0  0  0  0  0  0
  126.3000  129.8770   57.7150 C   0  0  0  0  0  0  0  0  0  0  0  0
  124.9120  129.7880   57.6520 C   0  0  0  0  0  0  0  0  0  0  0  0
  124.1180  130.3870   58.6270 C   0  0  0  0  0  0  0  0  0  0  0  0
  124.7190  131.0760   59.6750 C   0  0  0  0  0  0  0  0  0  0  0  0
  127.4320  130.7680   63.0530 N   0  0  0  0  0  0  0  0  0  0  0  0
  128.7470  130.4040   62.5030 C   0  0  0  0  0  0  0  0  0  0  0  0
  128.6320  128.9510   61.9910 C   0  0  0  0  0  0  0  0  0  0  0  0
  128.1290  127.9620   63.0900 C   0  0  0  0  0  0  0  0  0  0  0  0
  127.8900  126.5220   62.6020 C   0  0  0  0  0  0  0  0  0  0  0  0
  126.9440  126.3590   61.6300 N   0  0  0  0  0  0  0  0  0  0  0  0
  126.7130  125.1080   61.1440 C   0  0  0  0  0  0  0  0  0  0  0  0
  125.7950  124.8200   60.1680 O   0  0  0  0  0  0  0  0  0  0  0  0
  127.4570  124.0320   61.6650 C   0  0  0  0  0  0  0  0  0  0  0  0
  127.4820  122.6930   61.4080 N   0  0  0  0  0  0  0  0  0  0  0  0
  128.4250  122.1310   62.2470 N   0  0  0  0  0  0  0  0  0  0  0  0
  128.9760  123.1060   62.9990 N   0  0  0  0  0  0  0  0  0  0  0  0
  129.9930  122.7870   63.9980 C   0  0  0  0  0  0  0  0  0  0  0  0
  130.4830  123.9980   64.7820 C   0  0  0  0  0  0  0  0  0  0  0  0
  131.6420  124.6710   64.3850 C   0  0  0  0  0  0  0  0  0  0  0  0
  132.0850  125.7870   65.0970 C   0  0  0  0  0  0  0  0  0  0  0  0
  131.3680  126.2380   66.2050 C   0  0  0  0  0  0  0  0  0  0  0  0
  130.2040  125.5760   66.6000 C   0  0  0  0  0  0  0  0  0  0  0  0
  129.3000  126.1490   67.9550 Cl  0  0  0  0  0  0  0  0  0  0  0  0
  129.7660  124.4560   65.8930 C   0  0  0  0  0  0  0  0  0  0  0  0
  128.3990  124.3230   62.6760 C   0  0  0  0  0  0  0  0  0  0  0  0
  128.6400  125.5380   63.1760 N   0  0  0  0  0  0  0  0  0  0  0  0
  126.9300  128.5490   63.8970 C   0  0  0  0  0  0  0  0  0  0  0  0
  127.1290  130.0340   64.2920 C   0  0  0  0  0  0  0  0  0  0  0  0
  127.8295  131.8696   60.7744 H   0  0  0  0  0  0  0  0  0  0  0  0
  128.3634  134.0217   61.8396 H   0  0  0  0  0  0  0  0  0  0  0  0
  127.8829  136.4661   61.7734 H   0  0  0  0  0  0  0  0  0  0  0  0
  125.7391  137.2824   60.8066 H   0  0  0  0  0  0  0  0  0  0  0  0
  124.0653  135.6711   59.9120 H   0  0  0  0  0  0  0  0  0  0  0  0
  124.5398  133.2259   59.9753 H   0  0  0  0  0  0  0  0  0  0  0  0
  127.9973  130.6428   58.8142 H   0  0  0  0  0  0  0  0  0  0  0  0
  126.9195  129.4043   56.9386 H   0  0  0  0  0  0  0  0  0  0  0  0
  124.4381  129.2396   56.8246 H   0  0  0  0  0  0  0  0  0  0  0  0
  123.0219  130.3155   58.5685 H   0  0  0  0  0  0  0  0  0  0  0  0
  124.0941  131.5545   60.4434 H   0  0  0  0  0  0  0  0  0  0  0  0
  129.0100  131.0776   61.6741 H   0  0  0  0  0  0  0  0  0  0  0  0
  129.5320  130.4910   63.2686 H   0  0  0  0  0  0  0  0  0  0  0  0
  127.9251  128.9298   61.1485 H   0  0  0  0  0  0  0  0  0  0  0  0
  129.6378  128.6256   61.6868 H   0  0  0  0  0  0  0  0  0  0  0  0
  128.9690  127.8588   63.7927 H   0  0  0  0  0  0  0  0  0  0  0  0
  124.9080  125.1050   60.3980 H   0  0  0  0  0  0  0  0  0  0  0  0
  129.5671  122.0628   64.7081 H   0  0  0  0  0  0  0  0  0  0  0  0
  130.8605  122.3829   63.4557 H   0  0  0  0  0  0  0  0  0  0  0  0
  132.2068  124.3201   63.5087 H   0  0  0  0  0  0  0  0  0  0  0  0
  133.0001  126.3110   64.7840 H   0  0  0  0  0  0  0  0  0  0  0  0
  131.7196  127.1153   66.7677 H   0  0  0  0  0  0  0  0  0  0  0  0
  128.8531  123.9306   66.2102 H   0  0  0  0  0  0  0  0  0  0  0  0
  126.0219  128.4696   63.2814 H   0  0  0  0  0  0  0  0  0  0  0  0
  126.8489  127.9707   64.8292 H   0  0  0  0  0  0  0  0  0  0  0  0
  126.2112  130.4297   64.7514 H   0  0  0  0  0  0  0  0  0  0  0  0
  127.9438  130.1416   65.0231 H   0  0  0  0  0  0  0  0  0  0  0  0
  1  2  2  0
  2  3  1  0
  3  4  1  0
  4  5  2  0
  5  6  1  0
  6  7  2  0
  7  8  1  0
  8  9  2  0
  3 10  1  0
 10 11  2  0
 11 12  1  0
 12 13  2  0
 13 14  1  0
 14 15  2  0
  2 16  1  0
 16 17  1  0
 17 18  1  0
 18 19  1  0
 19 20  1  0
 20 21  2  0
 21 22  1  0
 22 23  1  0
 22 24  2  0
 24 25  1  0
 25 26  2  0
 26 27  1  0
 27 28  1  0
 28 29  1  0
 29 30  2  0
 30 31  1  0
 31 32  2  0
 32 33  1  0
 33 34  1  0
 33 35  2  0
 27 36  1  0
 36 37  2  0
 19 38  1  0
 38 39  1  0
  9  4  1  0
 15 10  1  0
 39 16  1  0
 37 20  1  0
 36 24  1  0
 35 29  1  0
  3 40  1  0
  5 41  1  0
  6 42  1  0
  7 43  1  0
  8 44  1  0
  9 45  1  0
 11 46  1  0
 12 47  1  0
 13 48  1  0
 14 49  1  0
 15 50  1  0
 17 51  1  0
 17 52  1  0
 18 53  1  0
 18 54  1  0
 19 55  1  0
 23 56  1  0
 28 57  1  0
 28 58  1  0
 30 59  1  0
 31 60  1  0
 32 61  1  0
 35 62  1  0
 38 63  1  0
 38 64  1  0
 39 65  1  0
 39 66  1  0
M  END
>  <Binding energies>  (1) 
[-10.72]

>  <Ligand effiencies>  (1) 
[-0.268]

>  <Interactions>  (1) 
["V-A:ALA:541:CB:4892, V-A:TYR:539:CE1:4875, V-A:TYR:539:CD1:4873, V-A:GLU:543:CD:4908, V-A:TYR:484:CZ:4346, V-A:ARG:545:CZ:4926, H-B:ALA:541:N:9863, V-B:GLU:543:CG:9879, H-B:ASP:366:OD1:8185, V-B:ALA:541:CB:9864, V-B:GLU:543:CD:9880, V-A:TYR:484:CE2:4345, V-A:HIS:456:CE1:4069, V-B:GLU:543:CB:9878, H-B:ARG:545:NH2:9900, V-B:PRO:482:CB:9297, V-B:ILE:369:CG2:8208, V-B:PRO:482:CG:9298, V-B:ASP:366:CG:8184, V-B:LEU:373:CD1:8251, V-B:ASP:366:CB:8183, V-B:SER:385:CB:8380, V-B:ASP:366:C:8179, V-B:ASP:366:CA:8181, V-A:TYR:539:CZ:4877"]

$$$$
RR27_Rahimova_2017-again1
     RDKit          3D

 66 71  0  0  0  0  0  0  0  0999 V2000
  128.6420  126.0700   59.2070 O   0  0  0  0  0  0  0  0  0  0  0  0
  128.9160  125.4650   60.2480 C   0  0  0  0  0  0  0  0  0  0  0  0
  128.2940  124.0530   60.4640 C   0  0  0  0  0  0  0  0  0  0  0  0
  129.3620  122.9520   60.6040 C   0  0  0  0  0  0  0  0  0  0  0  0
  130.6260  123.0600   60.0030 C   0  0  0  0  0  0  0  0  0  0  0  0
  131.5660  122.0450   60.1540 C   0  0  0  0  0  0  0  0  0  0  0  0
  131.2490  120.9160   60.9040 C   0  0  0  0  0  0  0  0  0  0  0  0
  130.0010  120.7950   61.5070 C   0  0  0  0  0  0  0  0  0  0  0  0
  129.0610  121.8100   61.3570 C   0  0  0  0  0  0  0  0  0  0  0  0
  127.2090  123.7330   59.4180 C   0  0  0  0  0  0  0  0  0  0  0  0
  125.9020  124.2260   59.5450 C   0  0  0  0  0  0  0  0  0  0  0  0
  124.9330  123.9060   58.5970 C   0  0  0  0  0  0  0  0  0  0  0  0
  125.2660  123.0950   57.5160 C   0  0  0  0  0  0  0  0  0  0  0  0
  126.5580  122.5970   57.3770 C   0  0  0  0  0  0  0  0  0  0  0  0
  127.5250  122.9100   58.3290 C   0  0  0  0  0  0  0  0  0  0  0  0
  129.8610  125.9360   61.1120 N   0  0  0  0  0  0  0  0  0  0  0  0
  130.0390  125.4320   62.4810 C   0  0  0  0  0  0  0  0  0  0  0  0
  129.0500  126.1930   63.3950 C   0  0  0  0  0  0  0  0  0  0  0  0
  128.9600  127.7370   63.1600 C   0  0  0  0  0  0  0  0  0  0  0  0
  127.6200  128.3420   63.5890 C   0  0  0  0  0  0  0  0  0  0  0  0
  126.9430  129.0890   62.7740 N   0  0  0  0  0  0  0  0  0  0  0  0
  125.7700  129.5780   63.2640 C   0  0  0  0  0  0  0  0  0  0  0  0
  125.2510  129.3540   64.5300 C   0  0  0  0  0  0  0  0  0  0  0  0
  124.1000  129.9870   64.6750 N   0  0  0  0  0  0  0  0  0  0  0  0
  123.8370  130.6510   63.4810 N   0  0  0  0  0  0  0  0  0  0  0  0
  124.8480  130.3770   62.6390 N   0  0  0  0  0  0  0  0  0  0  0  0
  124.8820  130.9460   61.2980 C   0  0  0  0  0  0  0  0  0  0  0  0
  125.5720  132.3010   61.2340 C   0  0  0  0  0  0  0  0  0  0  0  0
  126.8620  132.4560   61.7520 C   0  0  0  0  0  0  0  0  0  0  0  0
  127.4930  133.7000   61.7030 C   0  0  0  0  0  0  0  0  0  0  0  0
  126.8390  134.7920   61.1340 C   0  0  0  0  0  0  0  0  0  0  0  0
  125.5550  134.6420   60.6100 C   0  0  0  0  0  0  0  0  0  0  0  0
  124.7450  135.9960   59.9100 Cl  0  0  0  0  0  0  0  0  0  0  0  0
  124.9230  133.3990   60.6580 C   0  0  0  0  0  0  0  0  0  0  0  0
  125.9920  128.5080   65.4660 C   0  0  0  0  0  0  0  0  0  0  0  0
  125.6940  128.1950   66.6160 O   0  0  0  0  0  0  0  0  0  0  0  0
  127.1540  128.0660   64.8710 N   0  0  0  0  0  0  0  0  0  0  0  0
  129.4150  128.2440   61.7550 C   0  0  0  0  0  0  0  0  0  0  0  0
  130.3680  127.3090   60.9680 C   0  0  0  0  0  0  0  0  0  0  0  0
  127.7756  124.0746   61.4339 H   0  0  0  0  0  0  0  0  0  0  0  0
  130.8749  123.9520   59.4093 H   0  0  0  0  0  0  0  0  0  0  0  0
  132.5558  122.1345   59.6825 H   0  0  0  0  0  0  0  0  0  0  0  0
  131.9914  120.1128   61.0209 H   0  0  0  0  0  0  0  0  0  0  0  0
  129.7584  119.9007   62.0998 H   0  0  0  0  0  0  0  0  0  0  0  0
  128.0741  121.7148   61.8334 H   0  0  0  0  0  0  0  0  0  0  0  0
  125.6407  124.8691   60.3983 H   0  0  0  0  0  0  0  0  0  0  0  0
  123.9086  124.2927   58.7023 H   0  0  0  0  0  0  0  0  0  0  0  0
  124.5016  122.8456   56.7653 H   0  0  0  0  0  0  0  0  0  0  0  0
  126.8144  121.9587   56.5186 H   0  0  0  0  0  0  0  0  0  0  0  0
  128.5438  122.5084   58.2253 H   0  0  0  0  0  0  0  0  0  0  0  0
  129.8253  124.3535   62.5138 H   0  0  0  0  0  0  0  0  0  0  0  0
  131.0742  125.5898   62.8179 H   0  0  0  0  0  0  0  0  0  0  0  0
  128.0479  125.7680   63.2365 H   0  0  0  0  0  0  0  0  0  0  0  0
  129.4309  126.0673   64.4193 H   0  0  0  0  0  0  0  0  0  0  0  0
  129.7274  128.1269   63.8449 H   0  0  0  0  0  0  0  0  0  0  0  0
  125.4190  130.2496   60.6372 H   0  0  0  0  0  0  0  0  0  0  0  0
  123.8391  131.0973   60.9828 H   0  0  0  0  0  0  0  0  0  0  0  0
  127.3806  131.5951   62.1992 H   0  0  0  0  0  0  0  0  0  0  0  0
  128.5066  133.8189   62.1134 H   0  0  0  0  0  0  0  0  0  0  0  0
  127.3360  135.7727   61.0983 H   0  0  0  0  0  0  0  0  0  0  0  0
  123.9115  133.2817   60.2418 H   0  0  0  0  0  0  0  0  0  0  0  0
  127.7290  127.4750   65.4540 H   0  0  0  0  0  0  0  0  0  0  0  0
  128.5128  128.3956   61.1441 H   0  0  0  0  0  0  0  0  0  0  0  0
  129.9915  129.1614   61.9446 H   0  0  0  0  0  0  0  0  0  0  0  0
  130.3814  127.5947   59.9058 H   0  0  0  0  0  0  0  0  0  0  0  0
  131.3938  127.3854   61.3577 H   0  0  0  0  0  0  0  0  0  0  0  0
  1  2  2  0
  2  3  1  0
  3  4  1  0
  4  5  2  0
  5  6  1  0
  6  7  2  0
  7  8  1  0
  8  9  2  0
  3 10  1  0
 10 11  2  0
 11 12  1  0
 12 13  2  0
 13 14  1  0
 14 15  2  0
  2 16  1  0
 16 17  1  0
 17 18  1  0
 18 19  1  0
 19 20  1  0
 20 21  2  0
 21 22  1  0
 22 23  2  0
 23 24  1  0
 24 25  2  0
 25 26  1  0
 26 27  1  0
 27 28  1  0
 28 29  2  0
 29 30  1  0
 30 31  2  0
 31 32  1  0
 32 33  1  0
 32 34  2  0
 23 35  1  0
 35 36  2  0
 35 37  1  0
 19 38  1  0
 38 39  1  0
  9  4  1  0
 15 10  1  0
 39 16  1  0
 37 20  1  0
 26 22  1  0
 34 28  1  0
  3 40  1  0
  5 41  1  0
  6 42  1  0
  7 43  1  0
  8 44  1  0
  9 45  1  0
 11 46  1  0
 12 47  1  0
 13 48  1  0
 14 49  1  0
 15 50  1  0
 17 51  1  0
 17 52  1  0
 18 53  1  0
 18 54  1  0
 19 55  1  0
 27 56  1  0
 27 57  1  0
 29 58  1  0
 30 59  1  0
 31 60  1  0
 34 61  1  0
 37 62  1  0
 38 63  1  0
 38 64  1  0
 39 65  1  0
 39 66  1  0
M  END
>  <Binding energies>  (1) 
[-10.54]

>  <Ligand effiencies>  (1) 
[-0.26349999999999996]

>  <Interactions>  (1) 
["V-A:ALA:541:CB:4892, V-A:TYR:539:CE1:4875, V-A:TYR:539:CD1:4873, V-A:GLU:543:CD:4908, H-A:GLU:543:OE1:4909, V-B:TYR:539:CD2:9846, V-B:TYR:539:CE2:9848, V-B:PRO:540:CA:9855, V-B:LEU:363:CD1:8160, V-B:ALA:541:CB:9864, V-B:MET:535:CE:9807, V-B:PRO:540:N:9856, V-B:GLU:543:CD:9880, V-B:PRO:540:CB:9857, V-B:TYR:539:C:9839, H-B:TYR:484:OH:9319, H-B:GLY:454:N:9021, V-B:ILE:369:CG2:8208, H-B:ARG:545:NH1:9899, V-B:LEU:373:CD1:8251, H-B:GLU:543:OE2:9882, V-B:SER:385:CB:8380, H-B:ARG:545:NE:9896, V-B:ARG:545:CZ:9898, V-B:PRO:540:C:9853"]

$$$$
RR28_Rahimova_2017
     RDKit          3D

 82 85  0  0  0  0  0  0  0  0999 V2000
  130.6030  118.0250   60.6340 C   0  0  0  0  0  0  0  0  0  0  0  0
  130.4880  119.4110   61.2590 C   0  0  0  0  0  0  0  0  0  0  0  0
  130.4030  119.5200   62.4810 O   0  0  0  0  0  0  0  0  0  0  0  0
  130.4860  120.4540   60.4050 N   0  0  0  0  0  0  0  0  0  0  0  0
  130.3800  121.8960   60.7200 C   0  0  0  0  0  0  0  0  0  0  0  0
  128.9660  122.3850   60.2920 C   0  0  0  0  0  0  0  0  0  0  0  0
  128.0420  122.7660   61.2770 C   0  0  0  0  0  0  0  0  0  0  0  0
  126.7680  123.2040   60.9300 C   0  0  0  0  0  0  0  0  0  0  0  0
  126.3870  123.2700   59.5890 C   0  0  0  0  0  0  0  0  0  0  0  0
  124.9810  123.7490   59.2280 C   0  0  0  0  0  0  0  0  0  0  0  0
  124.1270  123.6290   60.2470 F   0  0  0  0  0  0  0  0  0  0  0  0
  125.0080  125.0310   58.8640 F   0  0  0  0  0  0  0  0  0  0  0  0
  124.5190  123.0230   58.2100 F   0  0  0  0  0  0  0  0  0  0  0  0
  127.2970  122.8920   58.5990 C   0  0  0  0  0  0  0  0  0  0  0  0
  128.5720  122.4540   58.9470 C   0  0  0  0  0  0  0  0  0  0  0  0
  131.5540  122.6950   60.0500 C   0  0  0  0  0  0  0  0  0  0  0  0
  132.9480  122.3310   60.6220 C   0  0  0  0  0  0  0  0  0  0  0  0
  132.8940  122.6180   62.0650 N   0  0  0  0  0  0  0  0  0  0  0  0
  133.3080  123.8230   62.5430 C   0  0  0  0  0  0  0  0  0  0  0  0
  133.8910  124.6430   61.8300 O   0  0  0  0  0  0  0  0  0  0  0  0
  133.1910  124.1060   64.0600 C   0  0  0  0  0  0  0  0  0  0  0  0
  132.2720  125.2930   64.4600 C   0  0  0  0  0  0  0  0  0  0  0  0
  130.9020  124.8900   65.0560 C   0  0  0  0  0  0  0  0  0  0  0  0
  130.0570  124.4140   64.2930 O   0  0  0  0  0  0  0  0  0  0  0  0
  130.7110  124.9380   66.4050 N   0  0  0  0  0  0  0  0  0  0  0  0
  131.5240  125.7640   67.3060 C   0  0  0  0  0  0  0  0  0  0  0  0
  130.8890  127.1710   67.3080 C   0  0  0  0  0  0  0  0  0  0  0  0
  129.3760  127.2080   67.7180 C   0  0  0  0  0  0  0  0  0  0  0  0
  128.7920  128.5010   67.3020 N   0  0  0  0  0  0  0  0  0  0  0  0
  127.5060  128.7750   67.0040 C   0  0  0  0  0  0  0  0  0  0  0  0
  127.2000  130.2090   66.5840 C   0  0  0  0  0  0  0  0  0  0  0  0
  126.5960  127.9480   67.0520 O   0  0  0  0  0  0  0  0  0  0  0  0
  129.3120  127.1430   69.2790 C   0  0  0  0  0  0  0  0  0  0  0  0
  129.8540  128.1420   70.1050 C   0  0  0  0  0  0  0  0  0  0  0  0
  129.7750  128.0460   71.4920 C   0  0  0  0  0  0  0  0  0  0  0  0
  129.1550  126.9460   72.0890 C   0  0  0  0  0  0  0  0  0  0  0  0
  129.0580  126.8280   73.6100 C   0  0  0  0  0  0  0  0  0  0  0  0
  129.6220  127.8830   74.2000 F   0  0  0  0  0  0  0  0  0  0  0  0
  127.7740  126.7790   73.9630 F   0  0  0  0  0  0  0  0  0  0  0  0
  129.6600  125.7300   74.0690 F   0  0  0  0  0  0  0  0  0  0  0  0
  128.6200  125.9410   71.2820 C   0  0  0  0  0  0  0  0  0  0  0  0
  128.7000  126.0400   69.8970 C   0  0  0  0  0  0  0  0  0  0  0  0
  128.6230  126.0120   67.0160 C   0  0  0  0  0  0  0  0  0  0  0  0
  129.3850  124.6600   66.9710 C   0  0  0  0  0  0  0  0  0  0  0  0
  131.9520  121.7570   62.7950 C   0  0  0  0  0  0  0  0  0  0  0  0
  130.5320  122.0850   62.2650 C   0  0  0  0  0  0  0  0  0  0  0  0
  130.6658  117.2680   61.4297 H   0  0  0  0  0  0  0  0  0  0  0  0
  129.7180  117.8293   60.0107 H   0  0  0  0  0  0  0  0  0  0  0  0
  131.5081  117.9778   60.0107 H   0  0  0  0  0  0  0  0  0  0  0  0
  130.5400  120.2400   59.4200 H   0  0  0  0  0  0  0  0  0  0  0  0
  128.3289  122.7177   62.3378 H   0  0  0  0  0  0  0  0  0  0  0  0
  126.0577  123.4997   61.7162 H   0  0  0  0  0  0  0  0  0  0  0  0
  127.0050  122.9406   57.5396 H   0  0  0  0  0  0  0  0  0  0  0  0
  129.2791  122.1584   58.1579 H   0  0  0  0  0  0  0  0  0  0  0  0
  131.5521  122.4795   58.9713 H   0  0  0  0  0  0  0  0  0  0  0  0
  131.3839  123.7613   60.2599 H   0  0  0  0  0  0  0  0  0  0  0  0
  133.1615  121.2651   60.4540 H   0  0  0  0  0  0  0  0  0  0  0  0
  133.7439  122.9095   60.1302 H   0  0  0  0  0  0  0  0  0  0  0  0
  132.7990  123.1987   64.5428 H   0  0  0  0  0  0  0  0  0  0  0  0
  134.2020  124.3883   64.3889 H   0  0  0  0  0  0  0  0  0  0  0  0
  132.8041  125.8990   65.2080 H   0  0  0  0  0  0  0  0  0  0  0  0
  132.0533  125.8382   63.5300 H   0  0  0  0  0  0  0  0  0  0  0  0
  131.5133  125.3413   68.3215 H   0  0  0  0  0  0  0  0  0  0  0  0
  132.5714  125.8021   66.9722 H   0  0  0  0  0  0  0  0  0  0  0  0
  131.4508  127.7991   68.0150 H   0  0  0  0  0  0  0  0  0  0  0  0
  130.9382  127.5349   66.2711 H   0  0  0  0  0  0  0  0  0  0  0  0
  129.4570  129.2520   67.1970 H   0  0  0  0  0  0  0  0  0  0  0  0
  127.0668  130.8330   67.4800 H   0  0  0  0  0  0  0  0  0  0  0  0
  128.0346  130.6015   65.9845 H   0  0  0  0  0  0  0  0  0  0  0  0
  126.2779  130.2267   65.9845 H   0  0  0  0  0  0  0  0  0  0  0  0
  130.3480  129.0128   69.6494 H   0  0  0  0  0  0  0  0  0  0  0  0
  130.2031  128.8406   72.1207 H   0  0  0  0  0  0  0  0  0  0  0  0
  128.1338  125.0683   71.7425 H   0  0  0  0  0  0  0  0  0  0  0  0
  128.2758  125.2391   69.2736 H   0  0  0  0  0  0  0  0  0  0  0  0
  127.6776  125.8476   67.5538 H   0  0  0  0  0  0  0  0  0  0  0  0
  128.4971  126.3163   65.9664 H   0  0  0  0  0  0  0  0  0  0  0  0
  129.4855  124.2482   67.9860 H   0  0  0  0  0  0  0  0  0  0  0  0
  128.8429  123.9219   66.3615 H   0  0  0  0  0  0  0  0  0  0  0  0
  132.1882  120.6984   62.6117 H   0  0  0  0  0  0  0  0  0  0  0  0
  132.0169  121.9351   63.8785 H   0  0  0  0  0  0  0  0  0  0  0  0
  129.8117  121.4235   62.7686 H   0  0  0  0  0  0  0  0  0  0  0  0
  130.3457  123.1477   62.4794 H   0  0  0  0  0  0  0  0  0  0  0  0
  1  2  1  0
  2  3  2  0
  2  4  1  0
  4  5  1  0
  5  6  1  0
  6  7  2  0
  7  8  1  0
  8  9  2  0
  9 10  1  0
 10 11  1  0
 10 12  1  0
 10 13  1  0
  9 14  1  0
 14 15  2  0
  5 16  1  0
 16 17  1  0
 17 18  1  0
 18 19  1  0
 19 20  2  0
 19 21  1  0
 21 22  1  0
 22 23  1  0
 23 24  2  0
 23 25  1  0
 25 26  1  0
 26 27  1  0
 27 28  1  0
 28 29  1  0
 29 30  1  0
 30 31  1  0
 30 32  2  0
 28 33  1  0
 33 34  2  0
 34 35  1  0
 35 36  2  0
 36 37  1  0
 37 38  1  0
 37 39  1  0
 37 40  1  0
 36 41  1  0
 41 42  2  0
 28 43  1  0
 43 44  1  0
 18 45  1  0
 45 46  1  0
 46  5  1  0
 15  6  1  0
 44 25  1  0
 42 33  1  0
  1 47  1  0
  1 48  1  0
  1 49  1  0
  4 50  1  0
  7 51  1  0
  8 52  1  0
 14 53  1  0
 15 54  1  0
 16 55  1  0
 16 56  1  0
 17 57  1  0
 17 58  1  0
 21 59  1  0
 21 60  1  0
 22 61  1  0
 22 62  1  0
 26 63  1  0
 26 64  1  0
 27 65  1  0
 27 66  1  0
 29 67  1  0
 31 68  1  0
 31 69  1  0
 31 70  1  0
 34 71  1  0
 35 72  1  0
 41 73  1  0
 42 74  1  0
 43 75  1  0
 43 76  1  0
 44 77  1  0
 44 78  1  0
 45 79  1  0
 45 80  1  0
 46 81  1  0
 46 82  1  0
M  END
>  <Binding energies>  (1) 
[-9.41]

>  <Ligand effiencies>  (1) 
[-0.19604166666666667]

>  <Interactions>  (1) 
["V-A:GLU:543:CD:4908, V-A:GLY:454:CA:4048, V-A:TYR:484:CZ:4346, H-A:GLU:543:OE1:4909, V-A:ARG:545:CZ:4926, V-A:ILE:369:CG2:3236, V-B:TYR:539:CD2:9846, V-B:TYR:539:CE2:9848, V-A:LEU:475:CD1:4257, H-B:ALA:541:N:9863, H-B:TYR:539:O:9840, V-A:PRO:482:CG:4326, V-B:PRO:540:CA:9855, V-B:LEU:363:CD1:8160, V-B:PRO:540:CG:9858, V-B:GLU:543:CG:9879, V-B:ALA:541:CB:9864, V-B:PRO:540:N:9856, V-B:GLU:543:CD:9880, V-B:PRO:540:CB:9857, V-B:TYR:539:C:9839, V-A:TYR:484:CE2:4345, V-A:HIS:456:CE1:4069, V-A:GLU:543:CG:4907, V-B:GLU:543:CA:9876, V-B:HIS:456:CE1:9041, V-B:TYR:484:CE2:9317, V-A:GLU:543:CB:4906, V-B:GLU:543:C:9874, V-B:GLU:543:CB:9878, V-B:ASP:366:CG:8184, V-B:ASP:366:CB:8183, V-A:GLU:543:C:4902, V-B:LEU:363:CA:8156, V-B:HIS:456:CD2:9039, V-B:TYR:484:CZ:9318, H-A:GLU:543:O:4903, V-B:LEU:363:CB:8158, V-B:ASN:362:C:8143, V-B:LEU:363:CG:8159"]

$$$$
RR29_Rahimova_2017
     RDKit          3D

 35 36  0  0  0  0  0  0  0  0999 V2000
  128.6360  126.1650   70.5670 C   0  0  0  0  0  0  0  0  0  0  0  0
  128.5560  126.2500   69.0500 C   0  0  0  0  0  0  0  0  0  0  0  0
  129.7790  125.6220   68.3450 C   0  0  0  0  0  0  0  0  0  0  0  0
  130.7060  126.6990   67.7420 C   0  0  0  0  0  0  0  0  0  0  0  0
  131.6310  126.1320   66.6760 C   0  0  0  0  0  0  0  0  0  0  0  0
  132.9930  125.9230   66.9650 C   0  0  0  0  0  0  0  0  0  0  0  0
  133.8630  125.4010   65.9970 C   0  0  0  0  0  0  0  0  0  0  0  0
  133.3320  125.1120   64.7450 C   0  0  0  0  0  0  0  0  0  0  0  0
  132.0120  125.3150   64.4580 C   0  0  0  0  0  0  0  0  0  0  0  0
  131.1240  125.8220   65.4010 C   0  0  0  0  0  0  0  0  0  0  0  0
  131.7630  124.9180   63.1820 O   0  0  0  0  0  0  0  0  0  0  0  0
  133.0190  124.6590   62.6140 C   0  0  0  0  0  0  0  0  0  0  0  0
  133.9520  124.5800   63.6590 O   0  0  0  0  0  0  0  0  0  0  0  0
  127.5360  126.8170   68.5200 N   0  0  0  0  0  0  0  0  0  0  0  0
  127.5020  126.9730   67.1510 N   0  0  0  0  0  0  0  0  0  0  0  0
  128.0190  128.0280   66.5010 C   0  0  0  0  0  0  0  0  0  0  0  0
  128.6460  129.0500   67.0850 N   0  0  0  0  0  0  0  0  0  0  0  0
  127.9000  128.0590   65.1820 N   0  0  0  0  0  0  0  0  0  0  0  0
  127.9466  126.8975   71.0121 H   0  0  0  0  0  0  0  0  0  0  0  0
  128.3556  125.1525   70.8928 H   0  0  0  0  0  0  0  0  0  0  0  0
  129.6637  126.3836   70.8928 H   0  0  0  0  0  0  0  0  0  0  0  0
  130.3484  125.0313   69.0777 H   0  0  0  0  0  0  0  0  0  0  0  0
  129.4131  124.9865   67.5251 H   0  0  0  0  0  0  0  0  0  0  0  0
  130.0858  127.4869   67.2897 H   0  0  0  0  0  0  0  0  0  0  0  0
  131.3320  127.0977   68.5539 H   0  0  0  0  0  0  0  0  0  0  0  0
  133.3800  126.1726   67.9639 H   0  0  0  0  0  0  0  0  0  0  0  0
  134.9260  125.2267   66.2199 H   0  0  0  0  0  0  0  0  0  0  0  0
  130.0621  125.9752   65.1581 H   0  0  0  0  0  0  0  0  0  0  0  0
  132.9920  123.7072   62.0632 H   0  0  0  0  0  0  0  0  0  0  0  0
  133.2956  125.4580   61.9103 H   0  0  0  0  0  0  0  0  0  0  0  0
  127.0310  126.2510   66.6250 H   0  0  0  0  0  0  0  0  0  0  0  0
  129.2720  129.6350   66.5500 H   0  0  0  0  0  0  0  0  0  0  0  0
  128.4990  129.2270   68.0690 H   0  0  0  0  0  0  0  0  0  0  0  0
  127.1850  127.5100   64.7270 H   0  0  0  0  0  0  0  0  0  0  0  0
  128.5210  128.6370   64.6350 H   0  0  0  0  0  0  0  0  0  0  0  0
  1  2  1  0
  2  3  1  0
  3  4  1  0
  4  5  1  0
  5  6  2  0
  6  7  1  0
  7  8  2  0
  8  9  1  0
  9 10  2  0
  9 11  1  0
 11 12  1  0
 12 13  1  0
  2 14  2  0
 14 15  1  0
 15 16  1  0
 16 17  1  0
 16 18  2  0
 10  5  1  0
 13  8  1  0
  1 19  1  0
  1 20  1  0
  1 21  1  0
  3 22  1  0
  3 23  1  0
  4 24  1  0
  4 25  1  0
  6 26  1  0
  7 27  1  0
 10 28  1  0
 12 29  1  0
 12 30  1  0
 15 31  1  0
 17 32  1  0
 17 33  1  0
 18 34  1  0
 18 35  1  0
M  CHG  1  18   1
M  END
>  <Binding energies>  (1) 
[-7.31]

>  <Ligand effiencies>  (1) 
[-0.3178260869565217]

>  <Interactions>  (1) 
["V-A:GLU:543:CD:4908, V-A:ARG:545:CD:4923, V-A:ARG:545:CG:4922, V-A:TYR:484:CZ:4346, H-A:ARG:545:NH2:4928, H-A:GLU:543:OE1:4909, V-A:ARG:545:CZ:4926, H-A:GLY:454:N:4049, H-B:GLU:543:OE1:9881, V-B:GLU:543:CG:9879, V-B:GLU:543:CD:9880, V-A:TYR:484:CE2:4345, V-A:HIS:456:CE1:4069, V-A:GLU:543:CG:4907, V-B:HIS:456:CE1:9041, V-A:GLU:543:CB:4906, V-B:GLU:543:C:9874, V-B:GLU:543:CB:9878, H-B:GLU:543:OE2:9882, V-B:HIS:456:CD2:9039, H-A:GLU:543:O:4903"]

$$$$
RR29_Rahimova_2017-again1
     RDKit          3D

 34 35  0  0  0  0  0  0  0  0999 V2000
  134.0210  124.4820   62.0270 C   0  0  0  0  0  0  0  0  0  0  0  0
  133.5010  124.3240   63.4470 C   0  0  0  0  0  0  0  0  0  0  0  0
  132.4350  123.2220   63.5920 C   0  0  0  0  0  0  0  0  0  0  0  0
  131.6550  123.0130   62.2760 C   0  0  0  0  0  0  0  0  0  0  0  0
  131.7960  121.5950   61.7420 C   0  0  0  0  0  0  0  0  0  0  0  0
  133.0610  121.1160   61.3480 C   0  0  0  0  0  0  0  0  0  0  0  0
  133.2140  119.8130   60.8540 C   0  0  0  0  0  0  0  0  0  0  0  0
  132.0750  119.0220   60.7600 C   0  0  0  0  0  0  0  0  0  0  0  0
  130.8450  119.4830   61.1390 C   0  0  0  0  0  0  0  0  0  0  0  0
  130.6650  120.7670   61.6410 C   0  0  0  0  0  0  0  0  0  0  0  0
  129.9250  118.4970   60.9730 O   0  0  0  0  0  0  0  0  0  0  0  0
  130.5860  117.4760   60.2740 C   0  0  0  0  0  0  0  0  0  0  0  0
  131.9630  117.7330   60.3460 O   0  0  0  0  0  0  0  0  0  0  0  0
  133.9540  125.0960   64.3710 N   0  0  0  0  0  0  0  0  0  0  0  0
  133.4650  124.9490   65.5600 N   0  0  0  0  0  0  0  0  0  0  0  0
  134.2530  125.1520   66.5520 C   0  0  0  0  0  0  0  0  0  0  0  0
  135.6260  125.5240   66.5180 N   0  0  0  0  0  0  0  0  0  0  0  0
  133.8030  125.0200   67.8830 N   0  0  0  0  0  0  0  0  0  0  0  0
  135.0731  124.8017   62.0553 H   0  0  0  0  0  0  0  0  0  0  0  0
  133.9441  123.5200   61.4992 H   0  0  0  0  0  0  0  0  0  0  0  0
  133.4219  125.2387   61.4992 H   0  0  0  0  0  0  0  0  0  0  0  0
  132.9305  122.2793   63.8675 H   0  0  0  0  0  0  0  0  0  0  0  0
  131.7221  123.5315   64.3704 H   0  0  0  0  0  0  0  0  0  0  0  0
  130.5899  123.2180   62.4593 H   0  0  0  0  0  0  0  0  0  0  0  0
  132.0718  123.6995   61.5243 H   0  0  0  0  0  0  0  0  0  0  0  0
  133.9397  121.7727   61.4290 H   0  0  0  0  0  0  0  0  0  0  0  0
  134.2000  119.4304   60.5517 H   0  0  0  0  0  0  0  0  0  0  0  0
  129.6707  121.1228   61.9488 H   0  0  0  0  0  0  0  0  0  0  0  0
  130.3621  116.5018   60.7331 H   0  0  0  0  0  0  0  0  0  0  0  0
  130.2533  117.4485   59.2259 H   0  0  0  0  0  0  0  0  0  0  0  0
  136.1230  125.6600   65.6500 H   0  0  0  0  0  0  0  0  0  0  0  0
  136.1710  125.6600   67.3550 H   0  0  0  0  0  0  0  0  0  0  0  0
  132.8540  124.7570   68.1050 H   0  0  0  0  0  0  0  0  0  0  0  0
  134.4070  125.1720   68.6770 H   0  0  0  0  0  0  0  0  0  0  0  0
  1  2  1  0
  2  3  1  0
  3  4  1  0
  4  5  1  0
  5  6  2  0
  6  7  1  0
  7  8  2  0
  8  9  1  0
  9 10  2  0
  9 11  1  0
 11 12  1  0
 12 13  1  0
  2 14  2  0
 14 15  1  0
 15 16  2  0
 16 17  1  0
 16 18  1  0
 10  5  1  0
 13  8  1  0
  1 19  1  0
  1 20  1  0
  1 21  1  0
  3 22  1  0
  3 23  1  0
  4 24  1  0
  4 25  1  0
  6 26  1  0
  7 27  1  0
 10 28  1  0
 12 29  1  0
 12 30  1  0
 17 31  1  0
 17 32  1  0
 18 33  1  0
 18 34  1  0
M  END
>  <Binding energies>  (1) 
[-6.87]

>  <Ligand effiencies>  (1) 
[-0.31227272727272726]

>  <Interactions>  (1) 
["V-A:ASP:366:CG:3212, V-A:ARG:545:CD:4923, V-A:ARG:545:CG:4922, V-A:GLY:453:C:4041, H-A:TYR:484:OH:4347, V-A:GLY:454:CA:4048, V-A:TYR:484:CZ:4346, H-A:ARG:545:NH2:4928, H-A:ARG:545:NH1:4927, V-A:ARG:545:CZ:4926, H-A:GLY:454:N:4049, H-A:ARG:545:NE:4924, V-A:ILE:369:CG2:3236, V-B:TYR:539:CD2:9846, H-A:SER:385:OG:3409, V-A:LEU:475:CD1:4257, V-A:HIS:383:CE1:3392, H-B:ALA:541:N:9863, H-A:HIS:383:NE2:3393, V-A:PRO:482:CG:4326, V-B:ALA:541:CB:9864, V-B:TYR:539:C:9839, V-A:HIS:456:CE1:4069, V-A:GLY:453:CA:4043, H-A:ILE:455:O:4052, H-A:HIS:456:NE2:4070, V-B:TYR:539:CB:9843, V-A:HIS:456:CD2:4067, V-A:HIS:456:CG:4065, V-A:ARG:545:CB:4921, V-A:VAL:452:C:4033, V-A:ILE:455:C:4051, V-A:TYR:484:CE1:4344, H-A:VAL:452:O:4034"]

$$$$
RR2_Rahimova_2017
     RDKit          3D

 76 80  0  0  0  0  0  0  0  0999 V2000
  129.6520  121.5510   61.0700 C   0  0  0  0  0  0  0  0  0  0  0  0
  128.6570  121.9270   62.0150 O   0  0  0  0  0  0  0  0  0  0  0  0
  128.1640  123.2180   61.9980 C   0  0  0  0  0  0  0  0  0  0  0  0
  128.8260  124.3260   62.5450 C   0  0  0  0  0  0  0  0  0  0  0  0
  128.2490  125.5910   62.4830 C   0  0  0  0  0  0  0  0  0  0  0  0
  126.9990  125.7790   61.8770 C   0  0  0  0  0  0  0  0  0  0  0  0
  126.3890  127.1670   61.8290 C   0  0  0  0  0  0  0  0  0  0  0  0
  126.1730  127.7890   62.8750 O   0  0  0  0  0  0  0  0  0  0  0  0
  126.1000  127.6420   60.5950 N   0  0  0  0  0  0  0  0  0  0  0  0
  125.4540  128.8700   60.4990 N   0  0  0  0  0  0  0  0  0  0  0  0
  124.9860  129.2520   59.2940 C   0  0  0  0  0  0  0  0  0  0  0  0
  125.2380  128.6840   58.2270 O   0  0  0  0  0  0  0  0  0  0  0  0
  124.0580  130.4740   59.3020 C   0  0  0  0  0  0  0  0  0  0  0  0
  124.6860  131.9170   60.2360 S   0  0  0  0  0  0  0  0  0  0  0  0
  124.7660  131.2410   61.8660 C   0  0  0  0  0  0  0  0  0  0  0  0
  123.7020  130.9690   62.5790 N   0  0  0  0  0  0  0  0  0  0  0  0
  124.1340  130.5260   63.8210 N   0  0  0  0  0  0  0  0  0  0  0  0
  125.4460  130.5180   63.8020 C   0  0  0  0  0  0  0  0  0  0  0  0
  126.2820  130.0820   64.9620 C   0  0  0  0  0  0  0  0  0  0  0  0
  126.0670  128.8280   65.5400 C   0  0  0  0  0  0  0  0  0  0  0  0
  126.8350  128.4160   66.6250 C   0  0  0  0  0  0  0  0  0  0  0  0
  127.8380  129.2490   67.1320 C   0  0  0  0  0  0  0  0  0  0  0  0
  128.6350  128.8910   68.2300 N   0  0  0  0  0  0  0  0  0  0  0  0
  129.0020  127.2190   68.7120 S   0  0  0  0  0  0  0  0  0  0  0  0
  127.7400  126.4800   68.5970 O   0  0  0  0  0  0  0  0  0  0  0  0
  129.7360  127.2620   69.9820 O   0  0  0  0  0  0  0  0  0  0  0  0
  130.0870  126.5900   67.4330 C   0  0  0  0  0  0  0  0  0  0  0  0
  129.5890  125.7670   66.4190 C   0  0  0  0  0  0  0  0  0  0  0  0
  130.4520  125.2760   65.4440 C   0  0  0  0  0  0  0  0  0  0  0  0
  131.8080  125.6110   65.4770 C   0  0  0  0  0  0  0  0  0  0  0  0
  132.7490  125.0620   64.4210 C   0  0  0  0  0  0  0  0  0  0  0  0
  132.3030  126.4300   66.4940 C   0  0  0  0  0  0  0  0  0  0  0  0
  131.4420  126.9210   67.4710 C   0  0  0  0  0  0  0  0  0  0  0  0
  128.0540  130.4990   66.5530 C   0  0  0  0  0  0  0  0  0  0  0  0
  127.2820  130.9150   65.4710 C   0  0  0  0  0  0  0  0  0  0  0  0
  125.9180  130.9690   62.5810 N   0  0  0  0  0  0  0  0  0  0  0  0
  127.2550  131.1530   62.1720 C   0  0  0  0  0  0  0  0  0  0  0  0
  127.6230  132.3180   61.4980 C   0  0  0  0  0  0  0  0  0  0  0  0
  128.9460  132.4960   61.1010 C   0  0  0  0  0  0  0  0  0  0  0  0
  129.9060  131.5190   61.3700 C   0  0  0  0  0  0  0  0  0  0  0  0
  131.1900  131.7850   60.9360 O   0  0  0  0  0  0  0  0  0  0  0  0
  132.1650  130.7470   60.9720 C   0  0  0  0  0  0  0  0  0  0  0  0
  129.5260  130.3500   62.0480 C   0  0  0  0  0  0  0  0  0  0  0  0
  128.2060  130.1680   62.4490 C   0  0  0  0  0  0  0  0  0  0  0  0
  126.3450  124.6670   61.3260 C   0  0  0  0  0  0  0  0  0  0  0  0
  126.9250  123.4030   61.3880 C   0  0  0  0  0  0  0  0  0  0  0  0
  130.5527  121.2106   61.6018 H   0  0  0  0  0  0  0  0  0  0  0  0
  129.2688  120.7357   60.4388 H   0  0  0  0  0  0  0  0  0  0  0  0
  129.9037  122.4160   60.4388 H   0  0  0  0  0  0  0  0  0  0  0  0
  129.8067  124.1949   63.0258 H   0  0  0  0  0  0  0  0  0  0  0  0
  128.7796  126.4527   62.9142 H   0  0  0  0  0  0  0  0  0  0  0  0
  125.8420  127.0240   59.8390 H   0  0  0  0  0  0  0  0  0  0  0  0
  125.0580  129.1820   61.3750 H   0  0  0  0  0  0  0  0  0  0  0  0
  123.8964  130.7864   58.2597 H   0  0  0  0  0  0  0  0  0  0  0  0
  123.1361  130.1562   59.8111 H   0  0  0  0  0  0  0  0  0  0  0  0
  125.2882  128.1644   65.1361 H   0  0  0  0  0  0  0  0  0  0  0  0
  126.6530  127.4334   67.0848 H   0  0  0  0  0  0  0  0  0  0  0  0
  129.0520  129.6350   68.7710 H   0  0  0  0  0  0  0  0  0  0  0  0
  128.5201  125.5087   66.3918 H   0  0  0  0  0  0  0  0  0  0  0  0
  130.0663  124.6236   64.6467 H   0  0  0  0  0  0  0  0  0  0  0  0
  133.5999  124.5656   64.9105 H   0  0  0  0  0  0  0  0  0  0  0  0
  132.2121  124.3354   63.7935 H   0  0  0  0  0  0  0  0  0  0  0  0
  133.1173  125.8870   63.7935 H   0  0  0  0  0  0  0  0  0  0  0  0
  133.3722  126.6868   66.5229 H   0  0  0  0  0  0  0  0  0  0  0  0
  131.8289  127.5687   68.2715 H   0  0  0  0  0  0  0  0  0  0  0  0
  128.8376  131.1595   66.9526 H   0  0  0  0  0  0  0  0  0  0  0  0
  127.4597  131.9008   65.0164 H   0  0  0  0  0  0  0  0  0  0  0  0
  126.8720  133.0919   61.2813 H   0  0  0  0  0  0  0  0  0  0  0  0
  129.2370  133.4147   60.5707 H   0  0  0  0  0  0  0  0  0  0  0  0
  132.3980  130.4989   62.0180 H   0  0  0  0  0  0  0  0  0  0  0  0
  131.7703  129.8554   60.4629 H   0  0  0  0  0  0  0  0  0  0  0  0
  133.0796  131.0852   60.4629 H   0  0  0  0  0  0  0  0  0  0  0  0
  130.2754  129.5741   62.2633 H   0  0  0  0  0  0  0  0  0  0  0  0
  127.9124  129.2518   62.9822 H   0  0  0  0  0  0  0  0  0  0  0  0
  125.3660  124.7948   60.8410 H   0  0  0  0  0  0  0  0  0  0  0  0
  126.3996  122.5411   60.9508 H   0  0  0  0  0  0  0  0  0  0  0  0
  1  2  1  0
  2  3  1  0
  3  4  2  0
  4  5  1  0
  5  6  2  0
  6  7  1  0
  7  8  2  0
  7  9  1  0
  9 10  1  0
 10 11  1  0
 11 12  2  0
 11 13  1  0
 13 14  1  0
 14 15  1  0
 15 16  2  0
 16 17  1  0
 17 18  2  0
 18 19  1  0
 19 20  2  0
 20 21  1  0
 21 22  2  0
 22 23  1  0
 23 24  1  0
 24 25  2  0
 24 26  2  0
 24 27  1  0
 27 28  2  0
 28 29  1  0
 29 30  2  0
 30 31  1  0
 30 32  1  0
 32 33  2  0
 22 34  1  0
 34 35  2  0
 18 36  1  0
 36 37  1  0
 37 38  2  0
 38 39  1  0
 39 40  2  0
 40 41  1  0
 41 42  1  0
 40 43  1  0
 43 44  2  0
  6 45  1  0
 45 46  2  0
 46  3  1  0
 36 15  1  0
 44 37  1  0
 35 19  1  0
 33 27  1  0
  1 47  1  0
  1 48  1  0
  1 49  1  0
  4 50  1  0
  5 51  1  0
  9 52  1  0
 10 53  1  0
 13 54  1  0
 13 55  1  0
 20 56  1  0
 21 57  1  0
 23 58  1  0
 28 59  1  0
 29 60  1  0
 31 61  1  0
 31 62  1  0
 31 63  1  0
 32 64  1  0
 33 65  1  0
 34 66  1  0
 35 67  1  0
 38 68  1  0
 39 69  1  0
 42 70  1  0
 42 71  1  0
 42 72  1  0
 43 73  1  0
 44 74  1  0
 45 75  1  0
 46 76  1  0
M  END
>  <Binding energies>  (1) 
[-10.69]

>  <Ligand effiencies>  (1) 
[-0.21816326530612243]

>  <Interactions>  (1) 
["V-A:ALA:541:CB:4892, V-A:TYR:539:CE1:4875, V-A:PRO:540:CA:4883, V-A:GLU:543:CD:4908, V-A:PRO:540:CB:4885, V-A:ARG:545:CD:4923, V-A:ARG:545:CG:4922, V-A:ARG:545:CZ:4926, H-B:ALA:541:N:9863, V-B:PRO:540:CA:9855, V-B:GLU:543:CG:9879, H-B:ASP:366:OD1:8185, V-B:ALA:541:CB:9864, V-B:GLU:543:CD:9880, V-A:HIS:456:CE1:4069, V-A:GLU:543:CG:4907, V-B:HIS:456:CE1:9041, V-B:TYR:484:CE2:9317, V-A:GLU:543:CB:4906, V-B:GLU:543:CB:9878, H-B:ASP:366:OD2:8186, H-B:ARG:545:NH2:9900, H-B:GLY:454:N:9021, V-B:ILE:369:CG2:8208, H-A:ALA:541:N:4891, V-B:ASP:366:CG:8184, V-A:ALA:541:CA:4890, V-B:ILE:369:CB:8207, V-B:ASP:366:CB:8183, V-B:ARG:545:CZ:9898, V-B:TYR:484:CZ:9318, H-A:GLU:543:O:4903, H-B:TYR:531:OH:9767, V-A:PRO:540:C:4881, V-B:ASP:366:C:8179, V-B:ASP:366:CA:8181"]

$$$$
RR30_Rahimova_2017
     RDKit          3D

 29 30  0  0  0  0  0  0  0  0999 V2000
  134.3030  125.1290   66.9870 C   0  0  0  0  0  0  0  0  0  0  0  0
  133.1080  125.5480   66.1180 C   0  0  0  0  0  0  0  0  0  0  0  0
  132.0920  126.3570   66.8930 C   0  0  0  0  0  0  0  0  0  0  0  0
  132.3010  127.3890   67.6730 N   0  0  0  0  0  0  0  0  0  0  0  0
  131.0500  127.7650   68.1530 N   0  0  0  0  0  0  0  0  0  0  0  0
  130.1940  126.9240   67.6300 C   0  0  0  0  0  0  0  0  0  0  0  0
  128.4440  126.8940   67.8520 S   0  0  0  0  0  0  0  0  0  0  0  0
  128.0430  128.6150   67.4130 C   0  0  0  0  0  0  0  0  0  0  0  0
  127.2750  128.7120   66.0920 C   0  0  0  0  0  0  0  0  0  0  0  0
  127.6830  128.0870   65.1110 O   0  0  0  0  0  0  0  0  0  0  0  0
  126.1960  129.5270   66.0950 N   0  0  0  0  0  0  0  0  0  0  0  0
  125.3500  129.7770   65.0250 C   0  0  0  0  0  0  0  0  0  0  0  0
  124.0460  129.6240   64.9650 N   0  0  0  0  0  0  0  0  0  0  0  0
  123.5300  129.9750   63.7240 N   0  0  0  0  0  0  0  0  0  0  0  0
  124.4450  130.3840   62.8760 C   0  0  0  0  0  0  0  0  0  0  0  0
  124.1300  130.8160   61.4620 C   0  0  0  0  0  0  0  0  0  0  0  0
  126.0510  130.3720   63.5520 S   0  0  0  0  0  0  0  0  0  0  0  0
  130.7830  126.0090   66.8190 O   0  0  0  0  0  0  0  0  0  0  0  0
  134.0345  125.2231   68.0496 H   0  0  0  0  0  0  0  0  0  0  0  0
  134.5680  124.0843   66.7669 H   0  0  0  0  0  0  0  0  0  0  0  0
  135.1624  125.7794   66.7669 H   0  0  0  0  0  0  0  0  0  0  0  0
  133.4768  126.1545   65.2777 H   0  0  0  0  0  0  0  0  0  0  0  0
  132.6111  124.6326   65.7643 H   0  0  0  0  0  0  0  0  0  0  0  0
  127.4268  129.0502   68.2136 H   0  0  0  0  0  0  0  0  0  0  0  0
  128.9899  129.1620   67.2936 H   0  0  0  0  0  0  0  0  0  0  0  0
  125.9770  130.0110   66.9540 H   0  0  0  0  0  0  0  0  0  0  0  0
  123.4821  131.7046   61.4858 H   0  0  0  0  0  0  0  0  0  0  0  0
  125.0651  131.0580   60.9356 H   0  0  0  0  0  0  0  0  0  0  0  0
  123.6137  129.9997   60.9356 H   0  0  0  0  0  0  0  0  0  0  0  0
  1  2  1  0
  2  3  1  0
  3  4  2  0
  4  5  1  0
  5  6  2  0
  6  7  1  0
  7  8  1  0
  8  9  1  0
  9 10  2  0
  9 11  1  0
 11 12  1  0
 12 13  2  0
 13 14  1  0
 14 15  2  0
 15 16  1  0
 15 17  1  0
  6 18  1  0
 18  3  1  0
 17 12  1  0
  1 19  1  0
  1 20  1  0
  1 21  1  0
  2 22  1  0
  2 23  1  0
  8 24  1  0
  8 25  1  0
 11 26  1  0
 16 27  1  0
 16 28  1  0
 16 29  1  0
M  END
>  <Binding energies>  (1) 
[-6.24]

>  <Ligand effiencies>  (1) 
[-0.32842105263157895]

>  <Interactions>  (1) 
["V-A:ARG:545:CD:4923, V-A:ARG:545:CG:4922, H-A:TYR:484:OH:4347, V-A:GLY:454:CA:4048, V-A:TYR:484:CZ:4346, V-A:ARG:545:CZ:4926, H-A:ARG:545:NE:4924, V-A:HIS:456:CE1:4069, V-B:HIS:456:CE1:9041, H-B:TYR:484:OH:9319, H-B:ARG:545:NH2:9900, H-B:GLY:454:N:9021, V-B:ILE:369:CD1:8210, H-B:ARG:545:NH1:9899, V-B:ASP:366:CG:8184, H-B:ARG:545:NE:9896, V-B:ARG:545:CZ:9898, V-B:TYR:484:CZ:9318, V-A:ILE:455:C:4051"]

$$$$
RR31_Rahimova_2017
     RDKit          3D

 44 45  0  0  0  0  0  0  0  0999 V2000
  124.8060  135.4250   60.2540 C   0  0  0  0  0  0  0  0  0  0  0  0
  125.0660  134.3270   61.2760 C   0  0  0  0  0  0  0  0  0  0  0  0
  124.0090  133.5130   61.6860 C   0  0  0  0  0  0  0  0  0  0  0  0
  124.2160  132.4970   62.6160 C   0  0  0  0  0  0  0  0  0  0  0  0
  125.4890  132.2580   63.1590 C   0  0  0  0  0  0  0  0  0  0  0  0
  125.7100  131.2500   64.1010 N   0  0  0  0  0  0  0  0  0  0  0  0
  124.8910  130.0230   64.1390 C   0  0  0  0  0  0  0  0  0  0  0  0
  124.9990  129.2340   65.4660 C   0  0  0  0  0  0  0  0  0  0  0  0
  126.3950  128.9020   65.7650 N   0  0  0  0  0  0  0  0  0  0  0  0
  126.5260  128.1230   67.0000 C   0  0  0  0  0  0  0  0  0  0  0  0
  127.9250  128.2350   67.6370 C   0  0  0  0  0  0  0  0  0  0  0  0
  128.8780  127.1310   67.1500 C   0  0  0  0  0  0  0  0  0  0  0  0
  128.6510  126.8640   65.6580 N   0  0  0  0  0  0  0  0  0  0  0  0
  127.1250  130.1620   65.8980 C   0  0  0  0  0  0  0  0  0  0  0  0
  127.0780  130.9660   64.5780 C   0  0  0  0  0  0  0  0  0  0  0  0
  126.5410  133.0890   62.7450 C   0  0  0  0  0  0  0  0  0  0  0  0
  126.3460  134.1140   61.8120 C   0  0  0  0  0  0  0  0  0  0  0  0
  127.5300  134.9830   61.4060 C   0  0  0  0  0  0  0  0  0  0  0  0
  124.5830  136.3669   60.7765 H   0  0  0  0  0  0  0  0  0  0  0  0
  125.6976  135.5577   59.6235 H   0  0  0  0  0  0  0  0  0  0  0  0
  123.9496  135.1438   59.6235 H   0  0  0  0  0  0  0  0  0  0  0  0
  123.0033  133.6753   61.2709 H   0  0  0  0  0  0  0  0  0  0  0  0
  123.3679  131.8711   62.9306 H   0  0  0  0  0  0  0  0  0  0  0  0
  123.8384  130.3051   63.9892 H   0  0  0  0  0  0  0  0  0  0  0  0
  125.2702  129.3630   63.3449 H   0  0  0  0  0  0  0  0  0  0  0  0
  124.5915  129.8468   66.2836 H   0  0  0  0  0  0  0  0  0  0  0  0
  124.4289  128.2986   65.3661 H   0  0  0  0  0  0  0  0  0  0  0  0
  125.7812  128.4855   67.7238 H   0  0  0  0  0  0  0  0  0  0  0  0
  126.3661  127.0660   66.7409 H   0  0  0  0  0  0  0  0  0  0  0  0
  128.3549  129.2135   67.3768 H   0  0  0  0  0  0  0  0  0  0  0  0
  127.8092  128.1237   68.7252 H   0  0  0  0  0  0  0  0  0  0  0  0
  129.9182  127.4515   67.3087 H   0  0  0  0  0  0  0  0  0  0  0  0
  128.6816  126.2085   67.7161 H   0  0  0  0  0  0  0  0  0  0  0  0
  129.4270  127.2210   65.1190 H   0  0  0  0  0  0  0  0  0  0  0  0
  127.8040  127.3180   65.3480 H   0  0  0  0  0  0  0  0  0  0  0  0
  128.5680  125.8710   65.4900 H   0  0  0  0  0  0  0  0  0  0  0  0
  126.6690  130.7599   66.7008 H   0  0  0  0  0  0  0  0  0  0  0  0
  128.1750  129.9375   66.1368 H   0  0  0  0  0  0  0  0  0  0  0  0
  127.5956  131.9235   64.7367 H   0  0  0  0  0  0  0  0  0  0  0  0
  127.5632  130.3472   63.8088 H   0  0  0  0  0  0  0  0  0  0  0  0
  127.5454  132.9308   63.1647 H   0  0  0  0  0  0  0  0  0  0  0  0
  128.0377  135.3556   62.3079 H   0  0  0  0  0  0  0  0  0  0  0  0
  128.2349  134.3863   60.8085 H   0  0  0  0  0  0  0  0  0  0  0  0
  127.1721  135.8344   60.8085 H   0  0  0  0  0  0  0  0  0  0  0  0
  1  2  1  0
  2  3  2  0
  3  4  1  0
  4  5  2  0
  5  6  1  0
  6  7  1  0
  7  8  1  0
  8  9  1  0
  9 10  1  0
 10 11  1  0
 11 12  1  0
 12 13  1  0
  9 14  1  0
 14 15  1  0
  5 16  1  0
 16 17  2  0
 17 18  1  0
 17  2  1  0
 15  6  1  0
  1 19  1  0
  1 20  1  0
  1 21  1  0
  3 22  1  0
  4 23  1  0
  7 24  1  0
  7 25  1  0
  8 26  1  0
  8 27  1  0
 10 28  1  0
 10 29  1  0
 11 30  1  0
 11 31  1  0
 12 32  1  0
 12 33  1  0
 13 34  1  0
 13 35  1  0
 13 36  1  0
 14 37  1  0
 14 38  1  0
 15 39  1  0
 15 40  1  0
 16 41  1  0
 18 42  1  0
 18 43  1  0
 18 44  1  0
M  CHG  1  13   1
M  END
>  <Binding energies>  (1) 
[-7.05]

>  <Ligand effiencies>  (1) 
[-0.3357142857142857]

>  <Interactions>  (1) 
["V-A:ALA:541:CB:4892, V-A:TYR:539:CD1:4873, V-B:LEU:475:CD1:9229, V-A:GLU:543:CD:4908, V-A:TYR:539:C:4867, H-A:GLU:543:OE1:4909, V-B:GLU:543:CD:9880, V-A:GLU:543:CG:4907, V-B:HIS:456:CE1:9041, V-B:TYR:484:CE2:9317, H-B:TYR:484:OH:9319, V-B:PRO:482:CB:9297, V-B:GLY:454:CA:9020, V-B:ILE:369:CG2:8208, V-B:ILE:369:CD1:8210, V-B:ILE:369:CG1:8209, V-B:PRO:482:CG:9298, V-A:ALA:541:CA:4890, V-B:LEU:373:CD1:8251, H-B:GLU:543:OE2:9882, V-B:SER:385:CB:8380, V-B:ARG:545:CZ:9898, V-B:TYR:484:CZ:9318"]

$$$$
RR32_Rahimova_2017
     RDKit          3D

 37 39  0  0  0  0  0  0  0  0999 V2000
  129.8300  130.2900   57.2540 C   0  0  0  0  0  0  0  0  0  0  0  0
  129.9420  130.8830   58.6550 C   0  0  0  0  0  0  0  0  0  0  0  0
  128.7750  131.3290   59.2780 C   0  0  0  0  0  0  0  0  0  0  0  0
  128.8370  131.8730   60.5570 C   0  0  0  0  0  0  0  0  0  0  0  0
  127.6780  132.3140   61.1710 N   0  0  0  0  0  0  0  0  0  0  0  0
  127.2450  133.6940   60.8860 C   0  0  0  0  0  0  0  0  0  0  0  0
  126.0490  134.1500   61.7540 C   0  0  0  0  0  0  0  0  0  0  0  0
  124.9100  133.2540   61.5570 N   0  0  0  0  0  0  0  0  0  0  0  0
  123.7720  133.7030   62.3510 C   0  0  0  0  0  0  0  0  0  0  0  0
  125.3160  131.9120   61.9670 C   0  0  0  0  0  0  0  0  0  0  0  0
  126.5030  131.4220   61.1050 C   0  0  0  0  0  0  0  0  0  0  0  0
  130.0020  131.9960   61.2440 N   0  0  0  0  0  0  0  0  0  0  0  0
  131.1580  131.5740   60.6630 C   0  0  0  0  0  0  0  0  0  0  0  0
  132.3580  131.7170   61.4010 C   0  0  0  0  0  0  0  0  0  0  0  0
  133.5680  131.3020   60.8570 C   0  0  0  0  0  0  0  0  0  0  0  0
  133.6150  130.7430   59.5860 C   0  0  0  0  0  0  0  0  0  0  0  0
  132.4540  130.5880   58.8340 C   0  0  0  0  0  0  0  0  0  0  0  0
  131.1910  130.9990   59.3500 C   0  0  0  0  0  0  0  0  0  0  0  0
  129.6263  129.2115   57.3275 H   0  0  0  0  0  0  0  0  0  0  0  0
  129.0089  130.7821   56.7121 H   0  0  0  0  0  0  0  0  0  0  0  0
  130.7740  130.4487   56.7121 H   0  0  0  0  0  0  0  0  0  0  0  0
  127.8085  131.2505   58.7587 H   0  0  0  0  0  0  0  0  0  0  0  0
  128.0911  134.3714   61.0735 H   0  0  0  0  0  0  0  0  0  0  0  0
  126.9165  133.7229   59.8366 H   0  0  0  0  0  0  0  0  0  0  0  0
  126.3432  134.1358   62.8138 H   0  0  0  0  0  0  0  0  0  0  0  0
  125.7590  135.1689   61.4578 H   0  0  0  0  0  0  0  0  0  0  0  0
  124.0111  133.6087   63.4205 H   0  0  0  0  0  0  0  0  0  0  0  0
  123.5529  134.7550   62.1157 H   0  0  0  0  0  0  0  0  0  0  0  0
  122.8937  133.0840   62.1157 H   0  0  0  0  0  0  0  0  0  0  0  0
  125.6195  131.9320   63.0241 H   0  0  0  0  0  0  0  0  0  0  0  0
  124.4679  131.2249   61.8307 H   0  0  0  0  0  0  0  0  0  0  0  0
  126.8019  130.4237   61.4571 H   0  0  0  0  0  0  0  0  0  0  0  0
  126.1627  131.4069   60.0591 H   0  0  0  0  0  0  0  0  0  0  0  0
  132.3326  132.1581   62.4084 H   0  0  0  0  0  0  0  0  0  0  0  0
  134.4954  131.4171   61.4373 H   0  0  0  0  0  0  0  0  0  0  0  0
  134.5802  130.4194   59.1694 H   0  0  0  0  0  0  0  0  0  0  0  0
  132.5122  130.1430   57.8297 H   0  0  0  0  0  0  0  0  0  0  0  0
  1  2  1  0
  2  3  2  0
  3  4  1  0
  4  5  1  0
  5  6  1  0
  6  7  1  0
  7  8  1  0
  8  9  1  0
  8 10  1  0
 10 11  1  0
  4 12  2  0
 12 13  1  0
 13 14  2  0
 14 15  1  0
 15 16  2  0
 16 17  1  0
 17 18  2  0
 18  2  1  0
 11  5  1  0
 18 13  1  0
  1 19  1  0
  1 20  1  0
  1 21  1  0
  3 22  1  0
  6 23  1  0
  6 24  1  0
  7 25  1  0
  7 26  1  0
  9 27  1  0
  9 28  1  0
  9 29  1  0
 10 30  1  0
 10 31  1  0
 11 32  1  0
 11 33  1  0
 14 34  1  0
 15 35  1  0
 16 36  1  0
 17 37  1  0
M  END
>  <Binding energies>  (1) 
[-6.07]

>  <Ligand effiencies>  (1) 
[-0.33722222222222226]

>  <Interactions>  (1) 
["V-A:ASN:362:CB:3175, V-A:ALA:541:CB:4892, V-A:PRO:540:CA:4883, V-A:TYR:539:CD1:4873, V-B:LEU:475:CD1:9229, V-A:PRO:540:CB:4885, V-A:ASP:366:CG:3212, V-A:ASP:366:CB:3211, V-B:GLY:454:CA:9020, V-B:ILE:369:CG2:8208, V-B:ILE:369:CD1:8210, H-A:ALA:541:N:4891, V-A:PRO:540:C:4881, V-A:ASN:362:C:3171, V-A:LEU:363:CA:3184"]

$$$$
RR32_Rahimova_2017-again1
     RDKit          3D

 38 40  0  0  0  0  0  0  0  0999 V2000
  129.0010  122.8380   57.9880 C   0  0  0  0  0  0  0  0  0  0  0  0
  128.4810  122.8370   59.4190 C   0  0  0  0  0  0  0  0  0  0  0  0
  129.3450  122.5690   60.4810 C   0  0  0  0  0  0  0  0  0  0  0  0
  128.8660  122.5730   61.7950 C   0  0  0  0  0  0  0  0  0  0  0  0
  129.7120  122.2970   62.8750 N   0  0  0  0  0  0  0  0  0  0  0  0
  131.1730  122.4530   62.7370 C   0  0  0  0  0  0  0  0  0  0  0  0
  131.6460  123.8990   63.0200 C   0  0  0  0  0  0  0  0  0  0  0  0
  131.2740  124.2610   64.4710 N   0  0  0  0  0  0  0  0  0  0  0  0
  131.7070  125.7020   64.8050 C   0  0  0  0  0  0  0  0  0  0  0  0
  129.7500  124.0960   64.6470 C   0  0  0  0  0  0  0  0  0  0  0  0
  129.3650  122.6460   64.2690 C   0  0  0  0  0  0  0  0  0  0  0  0
  127.5530  122.8080   62.0690 N   0  0  0  0  0  0  0  0  0  0  0  0
  126.6870  123.0750   61.0550 C   0  0  0  0  0  0  0  0  0  0  0  0
  125.3330  123.3290   61.3780 C   0  0  0  0  0  0  0  0  0  0  0  0
  124.4130  123.6100   60.3710 C   0  0  0  0  0  0  0  0  0  0  0  0
  124.8120  123.6420   59.0390 C   0  0  0  0  0  0  0  0  0  0  0  0
  126.1370  123.3930   58.6890 C   0  0  0  0  0  0  0  0  0  0  0  0
  127.1060  123.1040   59.6890 C   0  0  0  0  0  0  0  0  0  0  0  0
  130.1010  122.8401   57.9976 H   0  0  0  0  0  0  0  0  0  0  0  0
  128.6406  121.9392   57.4663 H   0  0  0  0  0  0  0  0  0  0  0  0
  128.6371  123.7354   57.4663 H   0  0  0  0  0  0  0  0  0  0  0  0
  130.4057  122.3540   60.2844 H   0  0  0  0  0  0  0  0  0  0  0  0
  131.6685  121.7748   63.4473 H   0  0  0  0  0  0  0  0  0  0  0  0
  131.4370  122.2136   61.6963 H   0  0  0  0  0  0  0  0  0  0  0  0
  132.7362  123.9649   62.8892 H   0  0  0  0  0  0  0  0  0  0  0  0
  131.1613  124.5972   62.3217 H   0  0  0  0  0  0  0  0  0  0  0  0
  131.7390  123.6150   65.0930 H   0  0  0  0  0  0  0  0  0  0  0  0
  131.7453  125.8296   65.8969 H   0  0  0  0  0  0  0  0  0  0  0  0
  132.7025  125.8940   64.3782 H   0  0  0  0  0  0  0  0  0  0  0  0
  130.9822  126.4109   64.3782 H   0  0  0  0  0  0  0  0  0  0  0  0
  129.4742  124.2920   65.6937 H   0  0  0  0  0  0  0  0  0  0  0  0
  129.2171  124.8079   63.9995 H   0  0  0  0  0  0  0  0  0  0  0  0
  129.8932  121.9565   64.9441 H   0  0  0  0  0  0  0  0  0  0  0  0
  128.2725  122.5617   64.3653 H   0  0  0  0  0  0  0  0  0  0  0  0
  125.0060  123.3044   62.4280 H   0  0  0  0  0  0  0  0  0  0  0  0
  123.3627  123.8082   60.6310 H   0  0  0  0  0  0  0  0  0  0  0  0
  124.0742  123.8661   58.2545 H   0  0  0  0  0  0  0  0  0  0  0  0
  126.4362  123.4201   57.6308 H   0  0  0  0  0  0  0  0  0  0  0  0
  1  2  1  0
  2  3  2  0
  3  4  1  0
  4  5  1  0
  5  6  1  0
  6  7  1  0
  7  8  1  0
  8  9  1  0
  8 10  1  0
 10 11  1  0
  4 12  2  0
 12 13  1  0
 13 14  2  0
 14 15  1  0
 15 16  2  0
 16 17  1  0
 17 18  2  0
 18  2  1  0
 11  5  1  0
 18 13  1  0
  1 19  1  0
  1 20  1  0
  1 21  1  0
  3 22  1  0
  6 23  1  0
  6 24  1  0
  7 25  1  0
  7 26  1  0
  8 27  1  0
  9 28  1  0
  9 29  1  0
  9 30  1  0
 10 31  1  0
 10 32  1  0
 11 33  1  0
 11 34  1  0
 14 35  1  0
 15 36  1  0
 16 37  1  0
 17 38  1  0
M  CHG  1   8   1
M  END
>  <Binding energies>  (1) 
[-6.66]

>  <Ligand effiencies>  (1) 
[-0.3505263157894737]

>  <Interactions>  (1) 
["H-A:TYR:484:OH:4347, V-B:TYR:539:CD2:9846, V-B:TYR:539:CE2:9848, V-A:LEU:475:CD1:4257, H-B:ALA:541:N:9863, V-B:PRO:540:CA:9855, V-B:LEU:363:CD1:8160, V-B:GLU:543:CG:9879, V-B:TYR:539:CZ:9849, V-B:ALA:541:CB:9864, V-B:GLU:543:CD:9880, V-B:PRO:540:CB:9857, V-B:ASP:366:CG:8184, V-B:LEU:363:CA:8156, V-B:PRO:540:C:9853"]

$$$$
RR32_Rahimova_2017-again2
     RDKit          3D

 39 41  0  0  0  0  0  0  0  0999 V2000
  133.1450  125.9690   67.2890 C   0  0  0  0  0  0  0  0  0  0  0  0
  131.7260  126.0750   66.7450 C   0  0  0  0  0  0  0  0  0  0  0  0
  130.7490  126.7700   67.4630 C   0  0  0  0  0  0  0  0  0  0  0  0
  129.4370  126.8740   66.9820 C   0  0  0  0  0  0  0  0  0  0  0  0
  128.3970  127.5910   67.6760 N   0  0  0  0  0  0  0  0  0  0  0  0
  128.5950  129.0040   68.0960 C   0  0  0  0  0  0  0  0  0  0  0  0
  128.2440  129.9750   66.9380 C   0  0  0  0  0  0  0  0  0  0  0  0
  126.7690  129.7670   66.5180 N   0  0  0  0  0  0  0  0  0  0  0  0
  126.4000  130.6760   65.3290 C   0  0  0  0  0  0  0  0  0  0  0  0
  126.5170  128.2790   66.1760 C   0  0  0  0  0  0  0  0  0  0  0  0
  126.9550  127.3980   67.3760 C   0  0  0  0  0  0  0  0  0  0  0  0
  129.1500  126.2900   65.8010 N   0  0  0  0  0  0  0  0  0  0  0  0
  130.0440  125.5880   65.0250 C   0  0  0  0  0  0  0  0  0  0  0  0
  129.6380  125.0120   63.8000 C   0  0  0  0  0  0  0  0  0  0  0  0
  130.5700  124.3120   63.0390 C   0  0  0  0  0  0  0  0  0  0  0  0
  131.8860  124.1780   63.4760 C   0  0  0  0  0  0  0  0  0  0  0  0
  132.3000  124.7410   64.6830 C   0  0  0  0  0  0  0  0  0  0  0  0
  131.3840  125.4660   65.4970 C   0  0  0  0  0  0  0  0  0  0  0  0
  133.1172  125.9711   68.3886 H   0  0  0  0  0  0  0  0  0  0  0  0
  133.6043  125.0340   66.9356 H   0  0  0  0  0  0  0  0  0  0  0  0
  133.7381  126.8253   66.9356 H   0  0  0  0  0  0  0  0  0  0  0  0
  131.0140  127.2426   68.4203 H   0  0  0  0  0  0  0  0  0  0  0  0
  127.9452  129.2191   68.9571 H   0  0  0  0  0  0  0  0  0  0  0  0
  129.6509  129.1469   68.3694 H   0  0  0  0  0  0  0  0  0  0  0  0
  128.3865  131.0127   67.2739 H   0  0  0  0  0  0  0  0  0  0  0  0
  128.9012  129.7735   66.0792 H   0  0  0  0  0  0  0  0  0  0  0  0
  126.1870  130.0040   67.3100 H   0  0  0  0  0  0  0  0  0  0  0  0
  126.0113  131.6334   65.7062 H   0  0  0  0  0  0  0  0  0  0  0  0
  127.2949  130.8594   64.7162 H   0  0  0  0  0  0  0  0  0  0  0  0
  125.6305  130.1838   64.7162 H   0  0  0  0  0  0  0  0  0  0  0  0
  125.4464  128.1235   65.9770 H   0  0  0  0  0  0  0  0  0  0  0  0
  127.0968  128.0018   65.2832 H   0  0  0  0  0  0  0  0  0  0  0  0
  126.3628  127.6743   68.2609 H   0  0  0  0  0  0  0  0  0  0  0  0
  126.7879  126.3421   67.1166 H   0  0  0  0  0  0  0  0  0  0  0  0
  128.2060  126.3800   65.4570 H   0  0  0  0  0  0  0  0  0  0  0  0
  128.5995  125.1154   63.4525 H   0  0  0  0  0  0  0  0  0  0  0  0
  130.2645  123.8604   62.0836 H   0  0  0  0  0  0  0  0  0  0  0  0
  132.6081  123.6208   62.8610 H   0  0  0  0  0  0  0  0  0  0  0  0
  133.3440  124.6238   65.0091 H   0  0  0  0  0  0  0  0  0  0  0  0
  1  2  1  0
  2  3  2  0
  3  4  1  0
  4  5  1  0
  5  6  1  0
  6  7  1  0
  7  8  1  0
  8  9  1  0
  8 10  1  0
 10 11  1  0
  4 12  2  0
 12 13  1  0
 13 14  2  0
 14 15  1  0
 15 16  2  0
 16 17  1  0
 17 18  2  0
 18  2  1  0
 11  5  1  0
 18 13  1  0
  1 19  1  0
  1 20  1  0
  1 21  1  0
  3 22  1  0
  6 23  1  0
  6 24  1  0
  7 25  1  0
  7 26  1  0
  8 27  1  0
  9 28  1  0
  9 29  1  0
  9 30  1  0
 10 31  1  0
 10 32  1  0
 11 33  1  0
 11 34  1  0
 12 35  1  0
 14 36  1  0
 15 37  1  0
 16 38  1  0
 17 39  1  0
M  CHG  2   8   1  12   1
M  END
>  <Binding energies>  (1) 
[-7.11]

>  <Ligand effiencies>  (1) 
[-0.35550000000000004]

>  <Interactions>  (1) 
["V-A:GLU:543:CD:4908, V-A:ARG:545:CD:4923, V-A:ARG:545:CG:4922, V-A:TYR:484:CZ:4346, H-A:GLU:543:OE1:4909, V-B:GLU:543:CG:9879, V-B:GLU:543:CD:9880, V-A:HIS:456:CE1:4069, V-A:GLU:543:CG:4907, V-B:HIS:456:CE1:9041, V-B:TYR:484:CE2:9317, V-A:GLU:543:CB:4906, V-B:GLU:543:CB:9878, H-B:TYR:484:OH:9319, H-B:GLU:543:OE2:9882, V-A:GLU:543:CA:4904, V-B:ARG:545:CG:9894, V-B:TYR:484:CZ:9318"]

$$$$
RR33_Rahimova_2017
     RDKit          3D

 36 37  0  0  0  0  0  0  0  0999 V2000
  124.1390  132.2180   62.6560 C   0  0  0  0  0  0  0  0  0  0  0  0
  123.8860  130.7290   62.3980 C   0  0  0  0  0  0  0  0  0  0  0  0
  123.5120  130.1090   63.6260 O   0  0  0  0  0  0  0  0  0  0  0  0
  124.4930  129.6020   64.4560 C   0  0  0  0  0  0  0  0  0  0  0  0
  125.7140  129.2930   63.8580 C   0  0  0  0  0  0  0  0  0  0  0  0
  126.7620  128.7730   64.6140 C   0  0  0  0  0  0  0  0  0  0  0  0
  126.6010  128.5560   65.9860 C   0  0  0  0  0  0  0  0  0  0  0  0
  127.7260  127.9970   66.7970 C   0  0  0  0  0  0  0  0  0  0  0  0
  128.6290  127.1180   66.4200 N   0  0  0  0  0  0  0  0  0  0  0  0
  129.4070  126.9410   67.4760 C   0  0  0  0  0  0  0  0  0  0  0  0
  130.5860  125.9940   67.4240 C   0  0  0  0  0  0  0  0  0  0  0  0
  131.1320  125.9280   66.0760 N   0  0  0  0  0  0  0  0  0  0  0  0
  132.5620  126.1880   66.0890 C   0  0  0  0  0  0  0  0  0  0  0  0
  128.9600  127.7370   68.5240 C   0  0  0  0  0  0  0  0  0  0  0  0
  129.4020  127.9880   69.9450 C   0  0  0  0  0  0  0  0  0  0  0  0
  127.8760  128.4150   68.0810 O   0  0  0  0  0  0  0  0  0  0  0  0
  125.3800  128.8690   66.5900 C   0  0  0  0  0  0  0  0  0  0  0  0
  124.3320  129.3870   65.8340 C   0  0  0  0  0  0  0  0  0  0  0  0
  124.1703  132.4022   63.7400 H   0  0  0  0  0  0  0  0  0  0  0  0
  125.0996  132.5100   62.2066 H   0  0  0  0  0  0  0  0  0  0  0  0
  123.3287  132.8109   62.2066 H   0  0  0  0  0  0  0  0  0  0  0  0
  123.0757  130.6132   61.6631 H   0  0  0  0  0  0  0  0  0  0  0  0
  124.7976  130.2572   62.0025 H   0  0  0  0  0  0  0  0  0  0  0  0
  125.8509  129.4614   62.7796 H   0  0  0  0  0  0  0  0  0  0  0  0
  127.7199  128.5321   64.1299 H   0  0  0  0  0  0  0  0  0  0  0  0
  131.3662  126.3501   68.1129 H   0  0  0  0  0  0  0  0  0  0  0  0
  130.2472  124.9898   67.7186 H   0  0  0  0  0  0  0  0  0  0  0  0
  130.6780  126.6230   65.4990 H   0  0  0  0  0  0  0  0  0  0  0  0
  132.9136  126.2519   67.1293 H   0  0  0  0  0  0  0  0  0  0  0  0
  133.0880  125.3708   65.5738 H   0  0  0  0  0  0  0  0  0  0  0  0
  132.7666  127.1381   65.5738 H   0  0  0  0  0  0  0  0  0  0  0  0
  128.6603  127.5668   70.6395 H   0  0  0  0  0  0  0  0  0  0  0  0
  130.3775  127.5091   70.1156 H   0  0  0  0  0  0  0  0  0  0  0  0
  129.4904  129.0711   70.1156 H   0  0  0  0  0  0  0  0  0  0  0  0
  125.2463  128.7050   67.6695 H   0  0  0  0  0  0  0  0  0  0  0  0
  123.3743  129.6287   66.3181 H   0  0  0  0  0  0  0  0  0  0  0  0
  1  2  1  0
  2  3  1  0
  3  4  1  0
  4  5  2  0
  5  6  1  0
  6  7  2  0
  7  8  1  0
  8  9  2  0
  9 10  1  0
 10 11  1  0
 11 12  1  0
 12 13  1  0
 10 14  2  0
 14 15  1  0
 14 16  1  0
  7 17  1  0
 17 18  2  0
 18  4  1  0
 16  8  1  0
  1 19  1  0
  1 20  1  0
  1 21  1  0
  2 22  1  0
  2 23  1  0
  5 24  1  0
  6 25  1  0
 11 26  1  0
 11 27  1  0
 12 28  1  0
 13 29  1  0
 13 30  1  0
 13 31  1  0
 15 32  1  0
 15 33  1  0
 15 34  1  0
 17 35  1  0
 18 36  1  0
M  END
>  <Binding energies>  (1) 
[-5.09]

>  <Ligand effiencies>  (1) 
[-0.26789473684210524]

>  <Interactions>  (1) 
["V-B:LEU:475:CD1:9229, V-A:ARG:545:CD:4923, V-A:ARG:545:CG:4922, H-A:TYR:484:OH:4347, H-A:GLU:543:OE1:4909, V-A:ARG:545:CZ:4926, V-A:HIS:456:CE1:4069, V-B:HIS:456:CE1:9041, H-B:GLY:454:N:9021, V-B:GLY:454:CA:9020, V-B:ILE:369:CD1:8210, H-B:ARG:545:NH1:9899, V-B:ARG:545:CG:9894, V-B:ARG:545:CD:9895, V-B:ARG:545:CZ:9898"]

$$$$
RR33_Rahimova_2017-again1
     RDKit          3D

 37 38  0  0  0  0  0  0  0  0999 V2000
  125.3480  136.7090   59.5030 C   0  0  0  0  0  0  0  0  0  0  0  0
  126.0970  135.9670   60.6130 C   0  0  0  0  0  0  0  0  0  0  0  0
  126.1030  134.5750   60.3120 O   0  0  0  0  0  0  0  0  0  0  0  0
  126.0600  133.6580   61.3450 C   0  0  0  0  0  0  0  0  0  0  0  0
  124.8590  132.9680   61.5150 C   0  0  0  0  0  0  0  0  0  0  0  0
  124.7210  132.0230   62.5280 C   0  0  0  0  0  0  0  0  0  0  0  0
  125.7880  131.7550   63.3920 C   0  0  0  0  0  0  0  0  0  0  0  0
  125.6440  130.7400   64.4800 C   0  0  0  0  0  0  0  0  0  0  0  0
  126.5610  129.9130   64.9330 N   0  0  0  0  0  0  0  0  0  0  0  0
  125.9660  129.2180   65.8910 C   0  0  0  0  0  0  0  0  0  0  0  0
  126.7100  128.1390   66.6550 C   0  0  0  0  0  0  0  0  0  0  0  0
  127.9670  127.7400   65.8650 N   0  0  0  0  0  0  0  0  0  0  0  0
  129.0080  126.9870   66.7060 C   0  0  0  0  0  0  0  0  0  0  0  0
  124.6450  129.6330   66.0140 C   0  0  0  0  0  0  0  0  0  0  0  0
  123.4740  129.2490   66.8840 C   0  0  0  0  0  0  0  0  0  0  0  0
  124.4450  130.6160   65.1040 O   0  0  0  0  0  0  0  0  0  0  0  0
  126.9940  132.4440   63.2240 C   0  0  0  0  0  0  0  0  0  0  0  0
  127.1310  133.3880   62.2100 C   0  0  0  0  0  0  0  0  0  0  0  0
  124.6344  137.4159   59.9514 H   0  0  0  0  0  0  0  0  0  0  0  0
  126.0678  137.2602   58.8800 H   0  0  0  0  0  0  0  0  0  0  0  0
  124.8036  135.9841   58.8800 H   0  0  0  0  0  0  0  0  0  0  0  0
  127.1313  136.3368   60.6721 H   0  0  0  0  0  0  0  0  0  0  0  0
  125.5990  136.1382   61.5787 H   0  0  0  0  0  0  0  0  0  0  0  0
  124.0132  133.1727   60.8421 H   0  0  0  0  0  0  0  0  0  0  0  0
  123.7693  131.4850   62.6494 H   0  0  0  0  0  0  0  0  0  0  0  0
  127.0024  128.5226   67.6436 H   0  0  0  0  0  0  0  0  0  0  0  0
  126.0597  127.2614   66.7852 H   0  0  0  0  0  0  0  0  0  0  0  0
  127.6920  127.1590   65.0860 H   0  0  0  0  0  0  0  0  0  0  0  0
  128.3930  128.5770   65.4920 H   0  0  0  0  0  0  0  0  0  0  0  0
  128.7964  127.1401   67.7745 H   0  0  0  0  0  0  0  0  0  0  0  0
  128.9603  125.9130   66.4730 H   0  0  0  0  0  0  0  0  0  0  0  0
  130.0131  127.3685   66.4730 H   0  0  0  0  0  0  0  0  0  0  0  0
  123.7577  129.3420   67.9427 H   0  0  0  0  0  0  0  0  0  0  0  0
  122.6253  129.9159   66.6718 H   0  0  0  0  0  0  0  0  0  0  0  0
  123.1851  128.2090   66.6718 H   0  0  0  0  0  0  0  0  0  0  0  0
  127.8392  132.2385   63.8973 H   0  0  0  0  0  0  0  0  0  0  0  0
  128.0833  133.9246   62.0865 H   0  0  0  0  0  0  0  0  0  0  0  0
  1  2  1  0
  2  3  1  0
  3  4  1  0
  4  5  2  0
  5  6  1  0
  6  7  2  0
  7  8  1  0
  8  9  2  0
  9 10  1  0
 10 11  1  0
 11 12  1  0
 12 13  1  0
 10 14  2  0
 14 15  1  0
 14 16  1  0
  7 17  1  0
 17 18  2  0
 18  4  1  0
 16  8  1  0
  1 19  1  0
  1 20  1  0
  1 21  1  0
  2 22  1  0
  2 23  1  0
  5 24  1  0
  6 25  1  0
 11 26  1  0
 11 27  1  0
 12 28  1  0
 12 29  1  0
 13 30  1  0
 13 31  1  0
 13 32  1  0
 15 33  1  0
 15 34  1  0
 15 35  1  0
 17 36  1  0
 18 37  1  0
M  CHG  1  12   1
M  END
>  <Binding energies>  (1) 
[-6.11]

>  <Ligand effiencies>  (1) 
[-0.3055]

>  <Interactions>  (1) 
["V-A:ALA:541:CB:4892, V-A:TYR:539:CD1:4873, V-B:LEU:475:CD1:9229, V-A:GLU:543:CD:4908, H-A:GLU:543:OE1:4909, V-B:GLU:543:CD:9880, V-B:HIS:456:CE1:9041, H-B:TYR:484:OH:9319, H-B:GLY:454:N:9021, V-A:TYR:539:CB:4871, V-B:ILE:369:CG2:8208, V-B:ILE:369:CD1:8210, V-B:PRO:482:CG:9298, V-B:LEU:373:CD1:8251, H-B:GLU:543:OE2:9882, V-B:ARG:545:CG:9894, V-B:ARG:545:CD:9895, V-B:ARG:545:CZ:9898, V-B:TYR:484:CZ:9318, V-A:TYR:539:CG:4872"]

$$$$
RR3_Rahimova_2017
     RDKit          3D

 63 69  0  0  0  0  0  0  0  0999 V2000
  133.9530  122.7630   62.1430 C   0  0  0  0  0  0  0  0  0  0  0  0
  132.9790  122.1740   62.9430 C   0  0  0  0  0  0  0  0  0  0  0  0
  132.3130  122.9410   63.8950 C   0  0  0  0  0  0  0  0  0  0  0  0
  132.6110  124.3020   64.0600 C   0  0  0  0  0  0  0  0  0  0  0  0
  131.8930  125.1260   65.0830 C   0  0  0  0  0  0  0  0  0  0  0  0
  130.4940  125.1140   65.1650 C   0  0  0  0  0  0  0  0  0  0  0  0
  129.8270  125.8830   66.1150 C   0  0  0  0  0  0  0  0  0  0  0  0
  130.5460  126.6890   67.0020 C   0  0  0  0  0  0  0  0  0  0  0  0
  129.8350  127.5220   68.0220 C   0  0  0  0  0  0  0  0  0  0  0  0
  130.1230  127.3830   69.3110 N   0  0  0  0  0  0  0  0  0  0  0  0
  129.3900  128.2590   69.9560 C   0  0  0  0  0  0  0  0  0  0  0  0
  129.3890  128.4530   71.4030 C   0  0  0  0  0  0  0  0  0  0  0  0
  130.0090  127.6340   72.3310 C   0  0  0  0  0  0  0  0  0  0  0  0
  129.8110  128.1190   73.5980 N   0  0  0  0  0  0  0  0  0  0  0  0
  129.0550  129.2690   73.5460 C   0  0  0  0  0  0  0  0  0  0  0  0
  128.6010  130.1100   74.5680 C   0  0  0  0  0  0  0  0  0  0  0  0
  127.8410  131.2160   74.1870 C   0  0  0  0  0  0  0  0  0  0  0  0
  127.5430  131.4770   72.8540 C   0  0  0  0  0  0  0  0  0  0  0  0
  127.9960  130.6400   71.8360 C   0  0  0  0  0  0  0  0  0  0  0  0
  128.7660  129.5100   72.1660 C   0  0  0  0  0  0  0  0  0  0  0  0
  128.6100  128.9750   69.0900 N   0  0  0  0  0  0  0  0  0  0  0  0
  128.8540  128.5080   67.8240 C   0  0  0  0  0  0  0  0  0  0  0  0
  128.1320  129.0170   66.6200 C   0  0  0  0  0  0  0  0  0  0  0  0
  127.8750  130.3820   66.4820 C   0  0  0  0  0  0  0  0  0  0  0  0
  127.1920  130.8580   65.3680 C   0  0  0  0  0  0  0  0  0  0  0  0
  126.7530  129.9840   64.3630 C   0  0  0  0  0  0  0  0  0  0  0  0
  126.0010  130.4970   63.1760 C   0  0  0  0  0  0  0  0  0  0  0  0
  124.6310  130.2330   63.0220 C   0  0  0  0  0  0  0  0  0  0  0  0
  123.9310  130.7150   61.9190 C   0  0  0  0  0  0  0  0  0  0  0  0
  124.5950  131.4680   60.9550 C   0  0  0  0  0  0  0  0  0  0  0  0
  125.9510  131.7430   61.0880 C   0  0  0  0  0  0  0  0  0  0  0  0
  126.6490  131.2590   62.1910 C   0  0  0  0  0  0  0  0  0  0  0  0
  127.0330  128.6170   64.5050 C   0  0  0  0  0  0  0  0  0  0  0  0
  127.7160  128.1370   65.6180 C   0  0  0  0  0  0  0  0  0  0  0  0
  131.9410  126.6970   66.9370 C   0  0  0  0  0  0  0  0  0  0  0  0
  132.6050  125.9270   65.9860 C   0  0  0  0  0  0  0  0  0  0  0  0
  133.5970  124.8730   63.2420 C   0  0  0  0  0  0  0  0  0  0  0  0
  134.2650  124.1100   62.2890 C   0  0  0  0  0  0  0  0  0  0  0  0
  134.4799  122.1588   61.3898 H   0  0  0  0  0  0  0  0  0  0  0  0
  132.7364  121.1077   62.8239 H   0  0  0  0  0  0  0  0  0  0  0  0
  131.5428  122.4737   64.5263 H   0  0  0  0  0  0  0  0  0  0  0  0
  129.9151  124.4886   64.4695 H   0  0  0  0  0  0  0  0  0  0  0  0
  128.7286  125.8560   66.1677 H   0  0  0  0  0  0  0  0  0  0  0  0
  130.5785  126.7251   72.0870 H   0  0  0  0  0  0  0  0  0  0  0  0
  130.1860  127.6640   74.4170 H   0  0  0  0  0  0  0  0  0  0  0  0
  128.8329  129.9081   75.6242 H   0  0  0  0  0  0  0  0  0  0  0  0
  127.4671  131.9007   74.9625 H   0  0  0  0  0  0  0  0  0  0  0  0
  126.9388  132.3600   72.5985 H   0  0  0  0  0  0  0  0  0  0  0  0
  127.7541  130.8606   70.7859 H   0  0  0  0  0  0  0  0  0  0  0  0
  127.9500  129.6970   69.3420 H   0  0  0  0  0  0  0  0  0  0  0  0
  128.2142  131.0843   67.2578 H   0  0  0  0  0  0  0  0  0  0  0  0
  126.9932  131.9358   65.2738 H   0  0  0  0  0  0  0  0  0  0  0  0
  124.1038  129.6379   63.7822 H   0  0  0  0  0  0  0  0  0  0  0  0
  122.8574  130.5015   61.8100 H   0  0  0  0  0  0  0  0  0  0  0  0
  124.0433  131.8478   60.0825 H   0  0  0  0  0  0  0  0  0  0  0  0
  126.4706  132.3408   60.3247 H   0  0  0  0  0  0  0  0  0  0  0  0
  127.7225  131.4765   62.2921 H   0  0  0  0  0  0  0  0  0  0  0  0
  126.7076  127.9136   63.7244 H   0  0  0  0  0  0  0  0  0  0  0  0
  127.9290  127.0617   65.7092 H   0  0  0  0  0  0  0  0  0  0  0  0
  132.5181  127.3148   67.6408 H   0  0  0  0  0  0  0  0  0  0  0  0
  133.7040  125.9476   65.9428 H   0  0  0  0  0  0  0  0  0  0  0  0
  133.8457  125.9385   63.3553 H   0  0  0  0  0  0  0  0  0  0  0  0
  135.0363  124.5705   61.6541 H   0  0  0  0  0  0  0  0  0  0  0  0
  1  2  2  0
  2  3  1  0
  3  4  2  0
  4  5  1  0
  5  6  2  0
  6  7  1  0
  7  8  2  0
  8  9  1  0
  9 10  1  0
 10 11  2  0
 11 12  1  0
 12 13  2  0
 13 14  1  0
 14 15  1  0
 15 16  2  0
 16 17  1  0
 17 18  2  0
 18 19  1  0
 19 20  2  0
 11 21  1  0
 21 22  1  0
 22 23  1  0
 23 24  2  0
 24 25  1  0
 25 26  2  0
 26 27  1  0
 27 28  2  0
 28 29  1  0
 29 30  2  0
 30 31  1  0
 31 32  2  0
 26 33  1  0
 33 34  2  0
  8 35  1  0
 35 36  2  0
  4 37  1  0
 37 38  2  0
 38  1  1  0
 36  5  1  0
 22  9  2  0
 34 23  1  0
 20 12  1  0
 32 27  1  0
 20 15  1  0
  1 39  1  0
  2 40  1  0
  3 41  1  0
  6 42  1  0
  7 43  1  0
 13 44  1  0
 14 45  1  0
 16 46  1  0
 17 47  1  0
 18 48  1  0
 19 49  1  0
 21 50  1  0
 24 51  1  0
 25 52  1  0
 28 53  1  0
 29 54  1  0
 30 55  1  0
 31 56  1  0
 32 57  1  0
 33 58  1  0
 34 59  1  0
 35 60  1  0
 36 61  1  0
 37 62  1  0
 38 63  1  0
M  END
>  <Binding energies>  (1) 
[-9.6]

>  <Ligand effiencies>  (1) 
[-0.24]

>  <Interactions>  (1) 
["V-A:GLU:543:CD:4908, V-A:ASP:366:CG:3212, V-A:ARG:545:CD:4923, V-A:ARG:545:CG:4922, V-A:GLY:453:C:4041, V-A:GLY:454:CA:4048, V-A:ILE:369:CD1:3238, V-A:ARG:545:CZ:4926, V-A:LEU:475:CD1:4257, V-A:HIS:456:CE1:4069, V-A:GLU:543:CG:4907, V-B:HIS:456:CE1:9041, V-B:TYR:484:CE2:9317, V-A:GLY:453:CA:4043, V-A:GLU:543:CB:4906, V-B:ILE:369:CG2:8208, V-B:ILE:369:CD1:8210, V-B:ASP:366:CG:8184, V-A:GLU:543:C:4902, V-B:TYR:484:CD2:9315, V-B:HIS:456:CG:9037, V-B:HIS:456:CD2:9039, V-B:TYR:484:CZ:9318, H-A:GLU:543:O:4903, H-B:HIS:456:NE2:9042, V-B:TYR:484:CB:9312, V-A:LYS:547:CE:4950, V-B:TYR:484:CG:9313"]

$$$$
RR4_Rahimova_2017
     RDKit          3D

 66 70  0  0  0  0  0  0  0  0999 V2000
  128.1790  127.1960   75.2560 C   0  0  0  0  0  0  0  0  0  0  0  0
  129.3680  127.3030   74.4810 O   0  0  0  0  0  0  0  0  0  0  0  0
  129.2720  127.3610   73.1040 C   0  0  0  0  0  0  0  0  0  0  0  0
  128.8380  126.2060   72.4580 C   0  0  0  0  0  0  0  0  0  0  0  0
  128.7100  126.1730   71.0730 C   0  0  0  0  0  0  0  0  0  0  0  0
  129.0160  127.2960   70.2900 C   0  0  0  0  0  0  0  0  0  0  0  0
  128.8780  127.2560   68.7950 C   0  0  0  0  0  0  0  0  0  0  0  0
  128.0810  128.1580   68.0840 C   0  0  0  0  0  0  0  0  0  0  0  0
  127.9880  128.0830   66.6880 C   0  0  0  0  0  0  0  0  0  0  0  0
  127.1390  129.0980   65.9940 C   0  0  0  0  0  0  0  0  0  0  0  0
  127.7030  130.2980   65.5490 C   0  0  0  0  0  0  0  0  0  0  0  0
  126.9220  131.2440   64.8910 C   0  0  0  0  0  0  0  0  0  0  0  0
  125.5670  131.0080   64.6600 C   0  0  0  0  0  0  0  0  0  0  0  0
  124.8730  132.0040   63.9990 O   0  0  0  0  0  0  0  0  0  0  0  0
  124.2490  131.7060   62.7540 C   0  0  0  0  0  0  0  0  0  0  0  0
  124.9990  129.8040   65.1000 C   0  0  0  0  0  0  0  0  0  0  0  0
  125.7820  128.8580   65.7570 C   0  0  0  0  0  0  0  0  0  0  0  0
  128.6960  127.0540   66.0190 C   0  0  0  0  0  0  0  0  0  0  0  0
  128.6340  126.9300   64.5600 C   0  0  0  0  0  0  0  0  0  0  0  0
  128.5860  126.8320   63.4080 N   0  0  0  0  0  0  0  0  0  0  0  0
  129.4590  126.1590   66.8030 C   0  0  0  0  0  0  0  0  0  0  0  0
  130.4000  124.8030   66.1350 S   0  0  0  0  0  0  0  0  0  0  0  0
  131.7770  125.5060   65.1670 C   0  0  0  0  0  0  0  0  0  0  0  0
  132.5010  124.4980   64.2650 C   0  0  0  0  0  0  0  0  0  0  0  0
  133.7030  124.6260   64.0210 O   0  0  0  0  0  0  0  0  0  0  0  0
  131.7160  123.5100   63.7750 N   0  0  0  0  0  0  0  0  0  0  0  0
  132.0730  122.4510   62.9370 C   0  0  0  0  0  0  0  0  0  0  0  0
  133.7200  121.9120   62.7390 S   0  0  0  0  0  0  0  0  0  0  0  0
  133.2390  120.6790   61.6130 C   0  0  0  0  0  0  0  0  0  0  0  0
  131.8530  120.6900   61.3970 C   0  0  0  0  0  0  0  0  0  0  0  0
  131.1920  121.6840   62.1600 C   0  0  0  0  0  0  0  0  0  0  0  0
  129.7480  121.8910   62.1320 C   0  0  0  0  0  0  0  0  0  0  0  0
  128.6020  122.0550   62.1090 N   0  0  0  0  0  0  0  0  0  0  0  0
  131.1770  119.6710   60.4720 C   0  0  0  0  0  0  0  0  0  0  0  0
  132.1230  118.4820   60.1880 C   0  0  0  0  0  0  0  0  0  0  0  0
  133.5470  118.9440   59.8370 C   0  0  0  0  0  0  0  0  0  0  0  0
  134.2220  119.6830   61.0120 C   0  0  0  0  0  0  0  0  0  0  0  0
  129.5570  126.2740   68.1480 N   0  0  0  0  0  0  0  0  0  0  0  0
  129.4490  128.4560   70.9510 C   0  0  0  0  0  0  0  0  0  0  0  0
  129.5780  128.4930   72.3360 C   0  0  0  0  0  0  0  0  0  0  0  0
  128.4351  127.2190   76.3255 H   0  0  0  0  0  0  0  0  0  0  0  0
  127.5110  128.0377   75.0207 H   0  0  0  0  0  0  0  0  0  0  0  0
  127.6720  126.2486   75.0207 H   0  0  0  0  0  0  0  0  0  0  0  0
  128.5939  125.3108   73.0488 H   0  0  0  0  0  0  0  0  0  0  0  0
  128.3630  125.2509   70.5838 H   0  0  0  0  0  0  0  0  0  0  0  0
  127.5212  128.9345   68.6260 H   0  0  0  0  0  0  0  0  0  0  0  0
  128.7715  130.4957   65.7202 H   0  0  0  0  0  0  0  0  0  0  0  0
  127.3774  132.1856   64.5504 H   0  0  0  0  0  0  0  0  0  0  0  0
  123.2702  131.2386   62.9370 H   0  0  0  0  0  0  0  0  0  0  0  0
  124.1104  132.6351   62.1817 H   0  0  0  0  0  0  0  0  0  0  0  0
  124.8845  131.0142   62.1817 H   0  0  0  0  0  0  0  0  0  0  0  0
  123.9311  129.6059   64.9257 H   0  0  0  0  0  0  0  0  0  0  0  0
  125.3288  127.9135   66.0925 H   0  0  0  0  0  0  0  0  0  0  0  0
  131.3753  126.3090   64.5315 H   0  0  0  0  0  0  0  0  0  0  0  0
  132.5199  125.8641   65.8949 H   0  0  0  0  0  0  0  0  0  0  0  0
  130.7460  123.5230   64.0550 H   0  0  0  0  0  0  0  0  0  0  0  0
  130.2614  119.2973   60.9537 H   0  0  0  0  0  0  0  0  0  0  0  0
  130.9321  120.1644   59.5199 H   0  0  0  0  0  0  0  0  0  0  0  0
  132.1681  117.8436   61.0827 H   0  0  0  0  0  0  0  0  0  0  0  0
  131.7237  117.9317   59.3233 H   0  0  0  0  0  0  0  0  0  0  0  0
  134.1521  118.0629   59.5772 H   0  0  0  0  0  0  0  0  0  0  0  0
  133.4781  119.6434   58.9908 H   0  0  0  0  0  0  0  0  0  0  0  0
  134.5225  118.9548   61.7797 H   0  0  0  0  0  0  0  0  0  0  0  0
  135.1116  120.2179   60.6479 H   0  0  0  0  0  0  0  0  0  0  0  0
  129.6911  129.3534   70.3627 H   0  0  0  0  0  0  0  0  0  0  0  0
  129.9214  129.4139   72.8300 H   0  0  0  0  0  0  0  0  0  0  0  0
  1  2  1  0
  2  3  1  0
  3  4  2  0
  4  5  1  0
  5  6  2  0
  6  7  1  0
  7  8  2  0
  8  9  1  0
  9 10  1  0
 10 11  2  0
 11 12  1  0
 12 13  2  0
 13 14  1  0
 14 15  1  0
 13 16  1  0
 16 17  2  0
  9 18  2  0
 18 19  1  0
 19 20  3  0
 18 21  1  0
 21 22  1  0
 22 23  1  0
 23 24  1  0
 24 25  2  0
 24 26  1  0
 26 27  1  0
 27 28  1  0
 28 29  1  0
 29 30  2  0
 30 31  1  0
 31 32  1  0
 32 33  3  0
 30 34  1  0
 34 35  1  0
 35 36  1  0
 36 37  1  0
 21 38  2  0
  6 39  1  0
 39 40  2  0
 40  3  1  0
 38  7  1  0
 17 10  1  0
 31 27  2  0
 37 29  1  0
  1 41  1  0
  1 42  1  0
  1 43  1  0
  4 44  1  0
  5 45  1  0
  8 46  1  0
 11 47  1  0
 12 48  1  0
 15 49  1  0
 15 50  1  0
 15 51  1  0
 16 52  1  0
 17 53  1  0
 23 54  1  0
 23 55  1  0
 26 56  1  0
 34 57  1  0
 34 58  1  0
 35 59  1  0
 35 60  1  0
 36 61  1  0
 36 62  1  0
 37 63  1  0
 37 64  1  0
 39 65  1  0
 40 66  1  0
M  END
>  <Binding energies>  (1) 
[-10.24]

>  <Ligand effiencies>  (1) 
[-0.2497560975609756]

>  <Interactions>  (1) 
["V-A:GLU:543:CD:4908, H-A:TYR:484:OH:4347, V-A:GLY:454:CA:4048, H-A:ARG:545:NH2:4928, H-A:GLY:454:N:4049, V-A:ILE:369:CG2:3236, V-B:TYR:539:CD2:9846, V-B:TYR:539:CE2:9848, V-A:LEU:475:CD1:4257, H-B:ALA:541:N:9863, V-B:ALA:541:CB:9864, V-B:GLU:543:CD:9880, V-A:SER:385:C:3404, V-A:HIS:383:CD2:3391, V-A:HIS:456:CE1:4069, V-A:GLU:543:CG:4907, V-B:HIS:456:CE1:9041, V-B:TYR:484:CE2:9317, V-B:GLU:543:CB:9878, H-B:TYR:484:OH:9319, H-B:GLY:454:N:9021, V-B:GLY:454:CA:9020, V-B:ILE:369:CD1:8210, V-A:SER:385:CA:3406, V-A:GLU:543:C:4902, V-B:ARG:545:CZ:9898, V-B:HIS:456:CD2:9039"]

$$$$
RR5_Rahimova_2017
     RDKit          3D

 77 82  0  0  0  0  0  0  0  0999 V2000
  128.3370  121.7390   60.3340 O   0  0  0  0  0  0  0  0  0  0  0  0
  128.4440  122.5380   61.2630 C   0  0  0  0  0  0  0  0  0  0  0  0
  127.1930  122.9540   62.0610 C   0  0  0  0  0  0  0  0  0  0  0  0
  126.1790  123.8320   61.2450 C   0  0  2  0  0  0  0  0  0  0  0  0
  126.1280  125.2540   61.6420 N   0  0  0  0  0  0  0  0  0  0  0  0
  127.2580  125.9270   62.0850 C   0  0  0  0  0  0  0  0  0  0  0  0
  128.4030  125.4740   62.1590 O   0  0  0  0  0  0  0  0  0  0  0  0
  126.8970  127.1720   62.4410 O   0  0  0  0  0  0  0  0  0  0  0  0
  127.8270  128.2510   62.4160 C   0  0  0  0  0  0  0  0  0  0  0  0
  127.2220  129.5130   63.0690 C   0  0  0  0  0  0  0  0  0  0  0  0
  126.1020  130.1410   62.2590 C   0  0  0  0  0  0  0  0  0  0  0  0
  126.1160  130.6230   60.9470 C   0  0  0  0  0  0  0  0  0  0  0  0
  124.9490  131.1460   60.3860 C   0  0  0  0  0  0  0  0  0  0  0  0
  123.7710  131.1900   61.1330 C   0  0  0  0  0  0  0  0  0  0  0  0
  123.7550  130.7110   62.4450 C   0  0  0  0  0  0  0  0  0  0  0  0
  124.9230  130.1890   63.0030 C   0  0  0  0  0  0  0  0  0  0  0  0
  125.1930  129.6340   64.3390 C   0  0  0  0  0  0  0  0  0  0  0  0
  124.3630  129.4690   65.4510 C   0  0  0  0  0  0  0  0  0  0  0  0
  124.8840  128.9260   66.6260 C   0  0  0  0  0  0  0  0  0  0  0  0
  126.2270  128.5470   66.6880 C   0  0  0  0  0  0  0  0  0  0  0  0
  127.0510  128.7090   65.5740 C   0  0  0  0  0  0  0  0  0  0  0  0
  126.5330  129.2500   64.3940 C   0  0  0  0  0  0  0  0  0  0  0  0
  124.7560  123.2240   61.3010 C   0  0  0  0  0  0  0  0  0  0  0  0
  124.3670  122.4490   62.1520 O   0  0  0  0  0  0  0  0  0  0  0  0
  124.0090  123.7060   60.2650 O   0  0  0  0  0  0  0  0  0  0  0  0
  129.6090  123.0810   61.6830 N   0  0  0  0  0  0  0  0  0  0  0  0
  131.0240  122.9610   61.2200 C   0  0  0  0  0  0  0  0  0  0  0  0
  131.8030  123.7160   62.3500 C   0  0  0  0  0  0  0  0  0  0  0  0
  133.1500  124.0800   62.1940 C   0  0  0  0  0  0  0  0  0  0  0  0
  133.8320  124.7520   63.2050 C   0  0  0  0  0  0  0  0  0  0  0  0
  133.1800  125.0620   64.3940 C   0  0  0  0  0  0  0  0  0  0  0  0
  131.8470  124.7140   64.5750 C   0  0  0  0  0  0  0  0  0  0  0  0
  131.1630  124.0520   63.5600 C   0  0  0  0  0  0  0  0  0  0  0  0
  131.3700  121.4350   61.1670 C   0  0  0  0  0  0  0  0  0  0  0  0
  130.5560  120.4720   61.7840 C   0  0  0  0  0  0  0  0  0  0  0  0
  130.8940  119.1210   61.7400 C   0  0  0  0  0  0  0  0  0  0  0  0
  132.0510  118.7170   61.0820 C   0  0  0  0  0  0  0  0  0  0  0  0
  132.8710  119.6520   60.4600 C   0  0  0  0  0  0  0  0  0  0  0  0
  132.5280  121.0000   60.4970 C   0  0  0  0  0  0  0  0  0  0  0  0
  131.0940  123.6950   59.8390 C   0  0  0  0  0  0  0  0  0  0  0  0
  132.3120  123.8190   59.1460 C   0  0  0  0  0  0  0  0  0  0  0  0
  132.3820  124.4780   57.9210 C   0  0  0  0  0  0  0  0  0  0  0  0
  131.2300  125.0200   57.3630 C   0  0  0  0  0  0  0  0  0  0  0  0
  130.0100  124.9010   58.0160 C   0  0  0  0  0  0  0  0  0  0  0  0
  129.9440  124.2420   59.2410 C   0  0  0  0  0  0  0  0  0  0  0  0
  126.6738  122.0420   62.3908 H   0  0  0  0  0  0  0  0  0  0  0  0
  127.5423  123.5699   62.9028 H   0  0  0  0  0  0  0  0  0  0  0  0
  126.5635  123.8186   60.2145 H   0  0  0  0  0  0  0  0  0  0  0  0
  125.2220  125.6870   61.7530 H   0  0  0  0  0  0  0  0  0  0  0  0
  128.7329  127.9589   62.9674 H   0  0  0  0  0  0  0  0  0  0  0  0
  128.0728  128.4799   61.3685 H   0  0  0  0  0  0  0  0  0  0  0  0
  128.1112  130.1540   63.1608 H   0  0  0  0  0  0  0  0  0  0  0  0
  127.0443  130.5904   60.3577 H   0  0  0  0  0  0  0  0  0  0  0  0
  124.9583  131.5241   59.3531 H   0  0  0  0  0  0  0  0  0  0  0  0
  122.8536  131.6026   60.6878 H   0  0  0  0  0  0  0  0  0  0  0  0
  122.8273  130.7450   63.0350 H   0  0  0  0  0  0  0  0  0  0  0  0
  123.3049  129.7655   65.4003 H   0  0  0  0  0  0  0  0  0  0  0  0
  124.2358  128.7961   67.5052 H   0  0  0  0  0  0  0  0  0  0  0  0
  126.6353  128.1204   67.6161 H   0  0  0  0  0  0  0  0  0  0  0  0
  128.1086  128.4109   65.6243 H   0  0  0  0  0  0  0  0  0  0  0  0
  124.0040  124.6650   60.2360 H   0  0  0  0  0  0  0  0  0  0  0  0
  129.5000  123.7910   62.3920 H   0  0  0  0  0  0  0  0  0  0  0  0
  133.6741  123.8307   61.2596 H   0  0  0  0  0  0  0  0  0  0  0  0
  134.8849  125.0373   63.0636 H   0  0  0  0  0  0  0  0  0  0  0  0
  133.7225  125.5854   65.1951 H   0  0  0  0  0  0  0  0  0  0  0  0
  131.3346  124.9608   65.5166 H   0  0  0  0  0  0  0  0  0  0  0  0
  130.1053  123.7865   63.7044 H   0  0  0  0  0  0  0  0  0  0  0  0
  129.6416  120.7873   62.3078 H   0  0  0  0  0  0  0  0  0  0  0  0
  130.2470  118.3752   62.2248 H   0  0  0  0  0  0  0  0  0  0  0  0
  132.3191  117.6506   61.0535 H   0  0  0  0  0  0  0  0  0  0  0  0
  133.7855  119.3279   59.9417 H   0  0  0  0  0  0  0  0  0  0  0  0
  133.1721  121.7368   59.9947 H   0  0  0  0  0  0  0  0  0  0  0  0
  133.2261  123.3874   59.5797 H   0  0  0  0  0  0  0  0  0  0  0  0
  133.3450  124.5692   57.3972 H   0  0  0  0  0  0  0  0  0  0  0  0
  131.2849  125.5462   56.3986 H   0  0  0  0  0  0  0  0  0  0  0  0
  129.0997  125.3255   57.5674 H   0  0  0  0  0  0  0  0  0  0  0  0
  128.9740  124.1473   59.7509 H   0  0  0  0  0  0  0  0  0  0  0  0
  1  2  2  0
  2  3  1  0
  3  4  1  0
  4  5  1  0
  5  6  1  0
  6  7  2  0
  6  8  1  0
  8  9  1  0
  9 10  1  0
 10 11  1  0
 11 12  2  0
 12 13  1  0
 13 14  2  0
 14 15  1  0
 15 16  2  0
 16 17  1  0
 17 18  2  0
 18 19  1  0
 19 20  2  0
 20 21  1  0
 21 22  2  0
  4 23  1  0
 23 24  2  0
 23 25  1  0
  2 26  1  0
 26 27  1  0
 27 28  1  0
 28 29  2  0
 29 30  1  0
 30 31  2  0
 31 32  1  0
 32 33  2  0
 27 34  1  0
 34 35  2  0
 35 36  1  0
 36 37  2  0
 37 38  1  0
 38 39  2  0
 27 40  1  0
 40 41  2  0
 41 42  1  0
 42 43  2  0
 43 44  1  0
 44 45  2  0
 22 10  1  0
 33 28  1  0
 39 34  1  0
 45 40  1  0
 16 11  1  0
 22 17  1  0
  3 46  1  0
  3 47  1  0
  4 48  1  6
  5 49  1  0
  9 50  1  0
  9 51  1  0
 10 52  1  0
 12 53  1  0
 13 54  1  0
 14 55  1  0
 15 56  1  0
 18 57  1  0
 19 58  1  0
 20 59  1  0
 21 60  1  0
 25 61  1  0
 26 62  1  0
 29 63  1  0
 30 64  1  0
 31 65  1  0
 32 66  1  0
 33 67  1  0
 35 68  1  0
 36 69  1  0
 37 70  1  0
 38 71  1  0
 39 72  1  0
 41 73  1  0
 42 74  1  0
 43 75  1  0
 44 76  1  0
 45 77  1  0
M  END
>  <Binding energies>  (1) 
[-11.21]

>  <Ligand effiencies>  (1) 
[-0.23354166666666668]

>  <Interactions>  (1) 
["V-A:GLY:453:C:4041, V-A:ASP:366:CB:3211, V-A:ARG:545:CZ:4926, V-A:ILE:369:CG2:3236, V-B:TYR:539:CD2:9846, V-B:TYR:539:CE2:9848, V-A:LEU:475:CD1:4257, H-B:ALA:541:N:9863, V-A:PRO:482:CB:4325, V-A:PRO:482:CG:4326, V-B:PRO:540:CA:9855, H-B:GLU:543:OE1:9881, V-B:GLU:543:CG:9879, H-B:ASP:366:OD1:8185, V-B:TYR:539:CZ:9849, V-B:ALA:541:CB:9864, V-B:GLU:543:CD:9880, V-B:PRO:540:CB:9857, V-B:HIS:456:CE1:9041, V-A:GLY:453:CA:4043, H-B:ASP:366:OD2:8186, H-B:ARG:545:NH2:9900, V-B:ILE:369:CG2:8208, V-B:ILE:369:CD1:8210, V-B:ASP:366:CG:8184, V-B:ILE:369:CB:8207, V-B:ARG:545:CG:9894, V-B:ARG:545:CD:9895, V-B:ARG:545:CZ:9898, H-B:LEU:363:N:8157, H-B:ASN:362:O:8144, V-B:ASN:362:CB:8147"]

$$$$
RR5_Rahimova_2017-again1
     RDKit          3D

 76 81  0  0  0  0  0  0  0  0999 V2000
  125.9000  132.4210   63.4100 O   0  0  0  0  0  0  0  0  0  0  0  0
  126.5300  131.3670   63.3220 C   0  0  0  0  0  0  0  0  0  0  0  0
  126.5550  130.4130   64.5340 C   0  0  0  0  0  0  0  0  0  0  0  0
  125.5860  129.1860   64.4810 C   0  0  2  0  0  0  0  0  0  0  0  0
  125.6120  128.6070   63.1220 N   0  0  0  0  0  0  0  0  0  0  0  0
  126.7850  128.1170   62.5590 C   0  0  0  0  0  0  0  0  0  0  0  0
  127.9050  128.1190   63.0780 O   0  0  0  0  0  0  0  0  0  0  0  0
  126.5060  127.6280   61.3350 O   0  0  0  0  0  0  0  0  0  0  0  0
  127.3340  126.6370   60.7370 C   0  0  0  0  0  0  0  0  0  0  0  0
  126.7060  125.2420   60.9180 C   0  0  0  0  0  0  0  0  0  0  0  0
  126.2050  124.6300   59.6220 C   0  0  0  0  0  0  0  0  0  0  0  0
  125.2430  125.1030   58.7260 C   0  0  0  0  0  0  0  0  0  0  0  0
  124.9460  124.3740   57.5720 C   0  0  0  0  0  0  0  0  0  0  0  0
  125.6050  123.1700   57.3160 C   0  0  0  0  0  0  0  0  0  0  0  0
  126.5620  122.6910   58.2120 C   0  0  0  0  0  0  0  0  0  0  0  0
  126.8580  123.4230   59.3640 C   0  0  0  0  0  0  0  0  0  0  0  0
  127.7950  123.1560   60.4650 C   0  0  0  0  0  0  0  0  0  0  0  0
  128.6690  122.0900   60.6900 C   0  0  0  0  0  0  0  0  0  0  0  0
  129.4540  122.0720   61.8440 C   0  0  0  0  0  0  0  0  0  0  0  0
  129.3660  123.1160   62.7680 C   0  0  0  0  0  0  0  0  0  0  0  0
  128.4930  124.1820   62.5390 C   0  0  0  0  0  0  0  0  0  0  0  0
  127.7070  124.2040   61.3830 C   0  0  0  0  0  0  0  0  0  0  0  0
  124.1180  129.5710   64.9300 C   0  0  0  0  0  0  0  0  0  0  0  0
  123.2950  129.6520   63.9880 O   0  0  0  0  0  0  0  0  0  0  0  0
  123.9220  129.7140   66.1600 O   0  0  0  0  0  0  0  0  0  0  0  0
  127.0990  130.9480   62.1720 N   0  0  0  0  0  0  0  0  0  0  0  0
  127.2070  131.6400   60.8620 C   0  0  0  0  0  0  0  0  0  0  0  0
  126.2540  130.9720   59.8210 C   0  0  0  0  0  0  0  0  0  0  0  0
  124.8940  130.7660   60.1160 C   0  0  0  0  0  0  0  0  0  0  0  0
  124.0390  130.1820   59.1850 C   0  0  0  0  0  0  0  0  0  0  0  0
  124.5320  129.7980   57.9430 C   0  0  0  0  0  0  0  0  0  0  0  0
  125.8720  129.9940   57.6240 C   0  0  0  0  0  0  0  0  0  0  0  0
  126.7260  130.5770   58.5560 C   0  0  0  0  0  0  0  0  0  0  0  0
  126.7600  133.1370   60.8610 C   0  0  0  0  0  0  0  0  0  0  0  0
  125.5350  133.5240   60.2920 C   0  0  0  0  0  0  0  0  0  0  0  0
  125.1340  134.8570   60.2880 C   0  0  0  0  0  0  0  0  0  0  0  0
  125.9530  135.8240   60.8610 C   0  0  0  0  0  0  0  0  0  0  0  0
  127.1660  135.4660   61.4410 C   0  0  0  0  0  0  0  0  0  0  0  0
  127.5640  134.1320   61.4430 C   0  0  0  0  0  0  0  0  0  0  0  0
  128.7060  131.4410   60.4450 C   0  0  0  0  0  0  0  0  0  0  0  0
  129.5950  130.6810   61.2250 C   0  0  0  0  0  0  0  0  0  0  0  0
  130.9170  130.4990   60.8310 C   0  0  0  0  0  0  0  0  0  0  0  0
  131.3680  131.0630   59.6430 C   0  0  0  0  0  0  0  0  0  0  0  0
  130.5040  131.8000   58.8410 C   0  0  0  0  0  0  0  0  0  0  0  0
  129.1820  131.9820   59.2380 C   0  0  0  0  0  0  0  0  0  0  0  0
  127.5796  130.0249   64.6319 H   0  0  0  0  0  0  0  0  0  0  0  0
  126.2101  131.0177   65.3857 H   0  0  0  0  0  0  0  0  0  0  0  0
  125.9324  128.4281   65.1990 H   0  0  0  0  0  0  0  0  0  0  0  0
  124.7400  128.5080   62.6210 H   0  0  0  0  0  0  0  0  0  0  0  0
  127.4404  126.8515   59.6634 H   0  0  0  0  0  0  0  0  0  0  0  0
  128.3213  126.6527   61.2218 H   0  0  0  0  0  0  0  0  0  0  0  0
  125.9017  125.4409   61.6415 H   0  0  0  0  0  0  0  0  0  0  0  0
  124.7197  126.0490   58.9292 H   0  0  0  0  0  0  0  0  0  0  0  0
  124.1921  124.7489   56.8642 H   0  0  0  0  0  0  0  0  0  0  0  0
  125.3695  122.5979   56.4065 H   0  0  0  0  0  0  0  0  0  0  0  0
  127.0805  121.7417   58.0118 H   0  0  0  0  0  0  0  0  0  0  0  0
  128.7383  121.2688   59.9614 H   0  0  0  0  0  0  0  0  0  0  0  0
  130.1432  121.2342   62.0262 H   0  0  0  0  0  0  0  0  0  0  0  0
  129.9850  123.0985   63.6771 H   0  0  0  0  0  0  0  0  0  0  0  0
  128.4240  125.0034   63.2674 H   0  0  0  0  0  0  0  0  0  0  0  0
  127.6440  130.1000   62.2320 H   0  0  0  0  0  0  0  0  0  0  0  0
  124.5001  131.0708   61.0968 H   0  0  0  0  0  0  0  0  0  0  0  0
  122.9784  130.0252   59.4310 H   0  0  0  0  0  0  0  0  0  0  0  0
  123.8576  129.3358   57.2071 H   0  0  0  0  0  0  0  0  0  0  0  0
  126.2552  129.6894   56.6389 H   0  0  0  0  0  0  0  0  0  0  0  0
  127.7846  130.7310   58.2998 H   0  0  0  0  0  0  0  0  0  0  0  0
  124.8823  132.7612   59.8424 H   0  0  0  0  0  0  0  0  0  0  0  0
  124.1741  135.1441   59.8339 H   0  0  0  0  0  0  0  0  0  0  0  0
  125.6398  136.8785   60.8556 H   0  0  0  0  0  0  0  0  0  0  0  0
  127.8082  136.2343   61.8963 H   0  0  0  0  0  0  0  0  0  0  0  0
  128.5215  133.8527   61.9068 H   0  0  0  0  0  0  0  0  0  0  0  0
  129.2403  130.2236   62.1604 H   0  0  0  0  0  0  0  0  0  0  0  0
  131.6033  129.9106   61.4577 H   0  0  0  0  0  0  0  0  0  0  0  0
  132.4152  130.9252   59.3356 H   0  0  0  0  0  0  0  0  0  0  0  0
  130.8630  132.2371   57.8976 H   0  0  0  0  0  0  0  0  0  0  0  0
  128.4989  132.5585   58.5968 H   0  0  0  0  0  0  0  0  0  0  0  0
  1  2  2  0
  2  3  1  0
  3  4  1  0
  4  5  1  0
  5  6  1  0
  6  7  2  0
  6  8  1  0
  8  9  1  0
  9 10  1  0
 10 11  1  0
 11 12  2  0
 12 13  1  0
 13 14  2  0
 14 15  1  0
 15 16  2  0
 16 17  1  0
 17 18  2  0
 18 19  1  0
 19 20  2  0
 20 21  1  0
 21 22  2  0
  4 23  1  0
 23 24  2  0
 23 25  1  0
  2 26  1  0
 26 27  1  0
 27 28  1  0
 28 29  2  0
 29 30  1  0
 30 31  2  0
 31 32  1  0
 32 33  2  0
 27 34  1  0
 34 35  2  0
 35 36  1  0
 36 37  2  0
 37 38  1  0
 38 39  2  0
 27 40  1  0
 40 41  2  0
 41 42  1  0
 42 43  2  0
 43 44  1  0
 44 45  2  0
 22 10  1  0
 33 28  1  0
 39 34  1  0
 45 40  1  0
 16 11  1  0
 22 17  1  0
  3 46  1  0
  3 47  1  0
  4 48  1  1
  5 49  1  0
  9 50  1  0
  9 51  1  0
 10 52  1  0
 12 53  1  0
 13 54  1  0
 14 55  1  0
 15 56  1  0
 18 57  1  0
 19 58  1  0
 20 59  1  0
 21 60  1  0
 26 61  1  0
 29 62  1  0
 30 63  1  0
 31 64  1  0
 32 65  1  0
 33 66  1  0
 35 67  1  0
 36 68  1  0
 37 69  1  0
 38 70  1  0
 39 71  1  0
 41 72  1  0
 42 73  1  0
 43 74  1  0
 44 75  1  0
 45 76  1  0
M  CHG  1  25  -1
M  END
>  <Binding energies>  (1) 
[-10.12]

>  <Ligand effiencies>  (1) 
[-0.21531914893617018]

>  <Interactions>  (1) 
["V-A:ALA:541:CB:4892, V-A:TYR:539:CE1:4875, V-A:PRO:540:N:4884, V-A:PRO:540:CA:4883, V-A:TYR:539:CD1:4873, V-B:LEU:475:CD1:9229, V-A:TYR:539:C:4867, V-A:PRO:540:CB:4885, V-B:PRO:540:CA:9855, V-B:LEU:363:CD1:8160, V-B:GLU:543:CG:9879, H-B:ASP:366:OD1:8185, V-B:ALA:541:CB:9864, V-B:PRO:540:N:9856, V-B:GLU:543:CD:9880, V-B:PRO:540:CB:9857, V-B:TYR:539:C:9839, H-B:ASP:366:OD2:8186, H-B:TYR:484:OH:9319, H-B:ARG:545:NH2:9900, H-B:GLY:454:N:9021, V-B:PRO:482:CB:9297, V-B:GLY:454:CA:9020, V-B:ILE:369:CG2:8208, H-B:ARG:545:NH1:9899, V-B:PRO:482:CG:9298, V-B:ASP:366:CG:8184, V-A:ALA:541:CA:4890, V-B:ASP:366:CB:8183, H-B:ARG:545:NE:9896, V-B:GLY:453:CA:9015, V-B:ARG:545:CZ:9898, V-B:PRO:540:C:9853, V-B:TYR:531:CZ:9766, V-B:TYR:531:CE2:9765, V-B:ASP:366:C:8179, V-B:ASP:366:CA:8181, V-A:TYR:539:CZ:4877"]

$$$$
RR6_Rahimova_2017
     RDKit          3D

 63 66  0  0  0  0  0  0  0  0999 V2000
  134.2500  123.6690   60.6530 C   0  0  0  0  0  0  0  0  0  0  0  0
  133.9790  124.3720   59.4480 O   0  0  0  0  0  0  0  0  0  0  0  0
  133.3190  123.7730   58.4230 C   0  0  0  0  0  0  0  0  0  0  0  0
  133.8850  123.3040   57.4310 O   0  0  0  0  0  0  0  0  0  0  0  0
  131.8300  123.7380   58.6170 C   0  0  0  0  0  0  0  0  0  0  0  0
  130.9730  124.6270   57.9510 C   0  0  0  0  0  0  0  0  0  0  0  0
  129.5960  124.5740   58.1580 C   0  0  0  0  0  0  0  0  0  0  0  0
  129.0530  123.6280   59.0400 C   0  0  0  0  0  0  0  0  0  0  0  0
  127.6840  123.5070   59.3430 N   0  0  0  0  0  0  0  0  0  0  0  0
  126.6160  124.0300   58.7020 C   0  0  0  0  0  0  0  0  0  0  0  0
  126.6620  124.7280   57.6890 O   0  0  0  0  0  0  0  0  0  0  0  0
  125.2560  123.7620   59.3550 C   0  0  0  0  0  0  0  0  0  0  0  0
  125.3250  123.6510   61.1750 S   0  0  0  0  0  0  0  0  0  0  0  0
  126.4720  124.8980   61.7220 C   0  0  0  0  0  0  0  0  0  0  0  0
  126.0020  126.1650   61.6350 N   0  0  0  0  0  0  0  0  0  0  0  0
  126.7750  127.2000   62.0500 C   0  0  0  0  0  0  0  0  0  0  0  0
  126.1570  128.5660   61.9770 C   0  0  0  0  0  0  0  0  0  0  0  0
  125.7560  129.2400   63.1410 C   0  0  0  0  0  0  0  0  0  0  0  0
  125.1700  130.5010   63.0720 C   0  0  0  0  0  0  0  0  0  0  0  0
  124.9800  131.1160   61.8350 C   0  0  0  0  0  0  0  0  0  0  0  0
  124.3330  132.4870   61.7640 C   0  0  0  0  0  0  0  0  0  0  0  0
  125.3730  130.4640   60.6690 C   0  0  0  0  0  0  0  0  0  0  0  0
  125.9580  129.2040   60.7430 C   0  0  0  0  0  0  0  0  0  0  0  0
  128.0590  126.9750   62.5560 C   0  0  0  0  0  0  0  0  0  0  0  0
  128.5700  125.6730   62.6530 C   0  0  0  0  0  0  0  0  0  0  0  0
  129.9410  125.5040   63.2200 C   0  0  0  0  0  0  0  0  0  0  0  0
  130.1290  125.4690   64.6050 C   0  0  0  0  0  0  0  0  0  0  0  0
  131.4020  125.2950   65.1420 C   0  0  0  0  0  0  0  0  0  0  0  0
  132.5090  125.1470   64.3070 C   0  0  0  0  0  0  0  0  0  0  0  0
  133.7310  124.9780   64.9280 O   0  0  0  0  0  0  0  0  0  0  0  0
  133.9140  125.4760   66.2490 C   0  0  0  0  0  0  0  0  0  0  0  0
  132.3250  125.1760   62.9170 C   0  0  0  0  0  0  0  0  0  0  0  0
  131.0500  125.3490   62.3830 C   0  0  0  0  0  0  0  0  0  0  0  0
  127.7570  124.5970   62.2180 C   0  0  0  0  0  0  0  0  0  0  0  0
  128.2410  123.2140   62.2640 C   0  0  0  0  0  0  0  0  0  0  0  0
  128.6220  122.1220   62.3020 N   0  0  0  0  0  0  0  0  0  0  0  0
  129.9010  122.7310   59.6910 C   0  0  0  0  0  0  0  0  0  0  0  0
  131.2770  122.7880   59.4850 C   0  0  0  0  0  0  0  0  0  0  0  0
  134.0036  124.3081   61.5137 H   0  0  0  0  0  0  0  0  0  0  0  0
  133.6400  122.7543   60.6890 H   0  0  0  0  0  0  0  0  0  0  0  0
  135.3161  123.4004   60.6890 H   0  0  0  0  0  0  0  0  0  0  0  0
  131.3918  125.3726   57.2592 H   0  0  0  0  0  0  0  0  0  0  0  0
  128.9338  125.2751   57.6289 H   0  0  0  0  0  0  0  0  0  0  0  0
  127.4910  123.0270   60.2100 H   0  0  0  0  0  0  0  0  0  0  0  0
  124.5728  124.5800   59.0827 H   0  0  0  0  0  0  0  0  0  0  0  0
  124.9094  122.7853   58.9864 H   0  0  0  0  0  0  0  0  0  0  0  0
  125.9069  128.7652   64.1217 H   0  0  0  0  0  0  0  0  0  0  0  0
  124.8566  131.0126   63.9940 H   0  0  0  0  0  0  0  0  0  0  0  0
  124.1560  132.8621   62.7828 H   0  0  0  0  0  0  0  0  0  0  0  0
  124.9993  133.1796   61.2289 H   0  0  0  0  0  0  0  0  0  0  0  0
  123.3748  132.4130   61.2289 H   0  0  0  0  0  0  0  0  0  0  0  0
  125.2211  130.9444   59.6912 H   0  0  0  0  0  0  0  0  0  0  0  0
  126.2703  128.6985   59.8173 H   0  0  0  0  0  0  0  0  0  0  0  0
  128.6738  127.8273   62.8809 H   0  0  0  0  0  0  0  0  0  0  0  0
  129.2644  125.5798   65.2759 H   0  0  0  0  0  0  0  0  0  0  0  0
  131.5354  125.2741   66.2337 H   0  0  0  0  0  0  0  0  0  0  0  0
  133.6292  124.7010   66.9758 H   0  0  0  0  0  0  0  0  0  0  0  0
  134.9701  125.7461   66.3960 H   0  0  0  0  0  0  0  0  0  0  0  0
  133.2841  126.3657   66.3960 H   0  0  0  0  0  0  0  0  0  0  0  0
  133.1897  125.0619   62.2467 H   0  0  0  0  0  0  0  0  0  0  0  0
  130.9144  125.3638   61.2915 H   0  0  0  0  0  0  0  0  0  0  0  0
  129.4803  121.9750   60.3704 H   0  0  0  0  0  0  0  0  0  0  0  0
  131.9360  122.0801   60.0090 H   0  0  0  0  0  0  0  0  0  0  0  0
  1  2  1  0
  2  3  1  0
  3  4  2  0
  3  5  1  0
  5  6  2  0
  6  7  1  0
  7  8  2  0
  8  9  1  0
  9 10  1  0
 10 11  2  0
 10 12  1  0
 12 13  1  0
 13 14  1  0
 14 15  2  0
 15 16  1  0
 16 17  1  0
 17 18  2  0
 18 19  1  0
 19 20  2  0
 20 21  1  0
 20 22  1  0
 22 23  2  0
 16 24  2  0
 24 25  1  0
 25 26  1  0
 26 27  2  0
 27 28  1  0
 28 29  2  0
 29 30  1  0
 30 31  1  0
 29 32  1  0
 32 33  2  0
 25 34  2  0
 34 35  1  0
 35 36  3  0
  8 37  1  0
 37 38  2  0
 38  5  1  0
 34 14  1  0
 23 17  1  0
 33 26  1  0
  1 39  1  0
  1 40  1  0
  1 41  1  0
  6 42  1  0
  7 43  1  0
  9 44  1  0
 12 45  1  0
 12 46  1  0
 18 47  1  0
 19 48  1  0
 21 49  1  0
 21 50  1  0
 21 51  1  0
 22 52  1  0
 23 53  1  0
 24 54  1  0
 27 55  1  0
 28 56  1  0
 31 57  1  0
 31 58  1  0
 31 59  1  0
 32 60  1  0
 33 61  1  0
 37 62  1  0
 38 63  1  0
M  END
>  <Binding energies>  (1) 
[-8.24]

>  <Ligand effiencies>  (1) 
[-0.2112820512820513]

>  <Interactions>  (1) 
["V-A:ASP:366:CG:3212, V-A:ARG:545:CD:4923, V-A:ARG:545:CG:4922, H-A:TYR:484:OH:4347, V-A:ASP:366:CA:3209, V-A:ASP:366:CB:3211, H-A:ARG:545:NH2:4928, V-A:ILE:369:CD1:3238, V-A:ARG:545:CZ:4926, H-A:GLY:454:N:4049, V-A:ILE:369:CB:3235, H-A:ARG:545:NE:4924, V-A:ILE:369:CG2:3236, V-B:TYR:539:CD2:9846, V-B:TYR:539:CE2:9848, H-B:ALA:541:N:9863, V-B:PRO:540:CA:9855, V-B:TYR:539:CZ:9849, V-B:ALA:541:CB:9864, V-B:GLU:543:CD:9880, V-B:PRO:540:CB:9857, H-B:ARG:545:NH2:9900, V-B:ILE:369:CG2:8208, V-B:ILE:369:CD1:8210, V-B:ASP:366:CG:8184, H-B:TYR:539:OH:9850, H-B:TYR:531:OH:9767, V-A:ASP:366:C:3207, H-A:ASN:370:N:3243"]

$$$$
RR7_Rahimova_2017
     RDKit          3D

 80 86  0  0  0  0  0  0  0  0999 V2000
  132.9700  125.8980   66.8610 C   0  0  0  0  0  0  0  0  0  0  0  0
  133.7250  125.8080   65.6570 O   0  0  0  0  0  0  0  0  0  0  0  0
  133.1870  125.1400   64.5740 C   0  0  0  0  0  0  0  0  0  0  0  0
  133.9590  125.1090   63.4140 C   0  0  0  0  0  0  0  0  0  0  0  0
  133.5030  124.4550   62.2750 C   0  0  0  0  0  0  0  0  0  0  0  0
  132.2500  123.8230   62.2640 C   0  0  0  0  0  0  0  0  0  0  0  0
  131.7270  123.0540   61.0110 C   0  0  0  0  0  0  0  0  0  0  0  0
  130.2840  123.1160   61.0690 O   0  0  0  0  0  0  0  0  0  0  0  0
  129.6270  124.3730   61.2620 C   0  0  0  0  0  0  0  0  0  0  0  0
  128.3110  124.1400   62.0210 C   0  0  1  0  0  0  0  0  0  0  0  0
  127.9000  125.4040   62.5330 O   0  0  0  0  0  0  0  0  0  0  0  0
  126.6360  125.7740   62.0630 C   0  0  1  0  0  0  0  0  0  0  0  0
  126.5600  127.2150   61.9120 N   0  0  0  0  0  0  0  0  0  0  0  0
  126.3220  127.9400   60.7580 C   0  0  0  0  0  0  0  0  0  0  0  0
  126.3540  129.2420   60.8970 N   0  0  0  0  0  0  0  0  0  0  0  0
  126.6780  129.4220   62.2140 C   0  0  0  0  0  0  0  0  0  0  0  0
  126.8790  130.5830   62.9860 C   0  0  0  0  0  0  0  0  0  0  0  0
  126.7260  131.8390   62.3680 N   0  0  0  0  0  0  0  0  0  0  0  0
  125.6020  132.5740   62.1990 C   0  0  0  0  0  0  0  0  0  0  0  0
  124.4790  132.2210   62.5670 O   0  0  0  0  0  0  0  0  0  0  0  0
  125.7840  133.8930   61.4770 C   0  0  0  0  0  0  0  0  0  0  0  0
  124.7740  134.3620   60.6230 C   0  0  0  0  0  0  0  0  0  0  0  0
  124.9180  135.5740   59.9550 C   0  0  0  0  0  0  0  0  0  0  0  0
  126.0710  136.3300   60.1380 C   0  0  0  0  0  0  0  0  0  0  0  0
  127.0830  135.8850   60.9840 C   0  0  0  0  0  0  0  0  0  0  0  0
  126.9400  134.6710   61.6530 C   0  0  0  0  0  0  0  0  0  0  0  0
  127.2190  130.4590   64.3040 N   0  0  0  0  0  0  0  0  0  0  0  0
  127.3480  129.2040   64.8090 C   0  0  0  0  0  0  0  0  0  0  0  0
  127.1750  128.0220   64.1600 N   0  0  0  0  0  0  0  0  0  0  0  0
  126.8350  128.1760   62.8730 C   0  0  0  0  0  0  0  0  0  0  0  0
  126.4390  124.9810   60.7760 C   0  0  0  0  0  0  0  0  0  0  0  0
  127.1320  123.6820   61.1500 C   0  0  2  0  0  0  0  0  0  0  0  0
  126.2640  122.7960   61.8360 O   0  0  0  0  0  0  0  0  0  0  0  0
  132.1560  123.7310   59.6810 C   0  0  0  0  0  0  0  0  0  0  0  0
  131.5770  124.9480   59.2870 C   0  0  0  0  0  0  0  0  0  0  0  0
  131.9430  125.5560   58.0910 C   0  0  0  0  0  0  0  0  0  0  0  0
  132.8940  124.9520   57.2740 C   0  0  0  0  0  0  0  0  0  0  0  0
  133.4800  123.7450   57.6440 C   0  0  0  0  0  0  0  0  0  0  0  0
  133.1120  123.1370   58.8410 C   0  0  0  0  0  0  0  0  0  0  0  0
  132.1780  121.5710   60.8890 C   0  0  0  0  0  0  0  0  0  0  0  0
  133.4760  121.1900   61.2660 C   0  0  0  0  0  0  0  0  0  0  0  0
  133.8920  119.8680   61.1530 C   0  0  0  0  0  0  0  0  0  0  0  0
  133.0150  118.9100   60.6500 C   0  0  0  0  0  0  0  0  0  0  0  0
  131.7290  119.2680   60.2580 C   0  0  0  0  0  0  0  0  0  0  0  0
  131.3150  120.5910   60.3730 C   0  0  0  0  0  0  0  0  0  0  0  0
  131.4830  123.8450   63.4380 C   0  0  0  0  0  0  0  0  0  0  0  0
  131.9400  124.4990   64.5790 C   0  0  0  0  0  0  0  0  0  0  0  0
  133.6463  125.8174   67.7248 H   0  0  0  0  0  0  0  0  0  0  0  0
  132.4465  126.8649   66.8941 H   0  0  0  0  0  0  0  0  0  0  0  0
  132.2339  125.0812   66.8941 H   0  0  0  0  0  0  0  0  0  0  0  0
  134.9396  125.6073   63.3995 H   0  0  0  0  0  0  0  0  0  0  0  0
  134.1313  124.4327   61.3724 H   0  0  0  0  0  0  0  0  0  0  0  0
  130.2759  125.0421   61.8461 H   0  0  0  0  0  0  0  0  0  0  0  0
  129.4158  124.8350   60.2863 H   0  0  0  0  0  0  0  0  0  0  0  0
  128.5226  123.3562   62.7632 H   0  0  0  0  0  0  0  0  0  0  0  0
  125.8165  125.5375   62.7576 H   0  0  0  0  0  0  0  0  0  0  0  0
  126.1199  127.4565   59.7908 H   0  0  0  0  0  0  0  0  0  0  0  0
  127.5820  132.2320   62.0020 H   0  0  0  0  0  0  0  0  0  0  0  0
  123.8604  133.7662   60.4805 H   0  0  0  0  0  0  0  0  0  0  0  0
  124.1230  135.9329   59.2848 H   0  0  0  0  0  0  0  0  0  0  0  0
  126.1842  137.2881   59.6095 H   0  0  0  0  0  0  0  0  0  0  0  0
  127.9916  136.4891   61.1238 H   0  0  0  0  0  0  0  0  0  0  0  0
  127.7380  134.3196   62.3236 H   0  0  0  0  0  0  0  0  0  0  0  0
  127.6260  129.1363   65.8711 H   0  0  0  0  0  0  0  0  0  0  0  0
  125.3732  124.8244   60.5533 H   0  0  0  0  0  0  0  0  0  0  0  0
  126.8301  125.4678   59.8704 H   0  0  0  0  0  0  0  0  0  0  0  0
  127.4601  123.1059   60.2722 H   0  0  0  0  0  0  0  0  0  0  0  0
  125.9980  123.2070   62.6620 H   0  0  0  0  0  0  0  0  0  0  0  0
  130.8250  125.4261   59.9319 H   0  0  0  0  0  0  0  0  0  0  0  0
  131.4831  126.5096   57.7923 H   0  0  0  0  0  0  0  0  0  0  0  0
  133.1849  125.4324   56.3282 H   0  0  0  0  0  0  0  0  0  0  0  0
  134.2310  123.2734   56.9931 H   0  0  0  0  0  0  0  0  0  0  0  0
  133.5744  122.1822   59.1317 H   0  0  0  0  0  0  0  0  0  0  0  0
  134.1725  121.9470   61.6557 H   0  0  0  0  0  0  0  0  0  0  0  0
  134.9086  119.5803   61.4593 H   0  0  0  0  0  0  0  0  0  0  0  0
  133.3414  117.8632   60.5621 H   0  0  0  0  0  0  0  0  0  0  0  0
  131.0420  118.5075   59.8585 H   0  0  0  0  0  0  0  0  0  0  0  0
  130.3000  120.8726   60.0561 H   0  0  0  0  0  0  0  0  0  0  0  0
  130.5068  123.3385   63.4576 H   0  0  0  0  0  0  0  0  0  0  0  0
  131.3204  124.5129   65.4878 H   0  0  0  0  0  0  0  0  0  0  0  0
  1  2  1  0
  2  3  1  0
  3  4  2  0
  4  5  1  0
  5  6  2  0
  6  7  1  0
  7  8  1  0
  8  9  1  0
  9 10  1  0
 10 11  1  0
 11 12  1  0
 12 13  1  0
 13 14  1  0
 14 15  2  0
 15 16  1  0
 16 17  2  0
 17 18  1  0
 18 19  1  0
 19 20  2  0
 19 21  1  0
 21 22  2  0
 22 23  1  0
 23 24  2  0
 24 25  1  0
 25 26  2  0
 17 27  1  0
 27 28  2  0
 28 29  1  0
 29 30  2  0
 12 31  1  0
 31 32  1  0
 32 33  1  0
  7 34  1  0
 34 35  2  0
 35 36  1  0
 36 37  2  0
 37 38  1  0
 38 39  2  0
  7 40  1  0
 40 41  2  0
 41 42  1  0
 42 43  2  0
 43 44  1  0
 44 45  2  0
  6 46  1  0
 46 47  2  0
 47  3  1  0
 32 10  1  0
 39 34  1  0
 45 40  1  0
 30 13  1  0
 30 16  1  0
 26 21  1  0
  1 48  1  0
  1 49  1  0
  1 50  1  0
  4 51  1  0
  5 52  1  0
  9 53  1  0
  9 54  1  0
 10 55  1  1
 12 56  1  1
 14 57  1  0
 18 58  1  0
 22 59  1  0
 23 60  1  0
 24 61  1  0
 25 62  1  0
 26 63  1  0
 28 64  1  0
 31 65  1  0
 31 66  1  0
 32 67  1  6
 33 68  1  0
 35 69  1  0
 36 70  1  0
 37 71  1  0
 38 72  1  0
 39 73  1  0
 41 74  1  0
 42 75  1  0
 43 76  1  0
 44 77  1  0
 45 78  1  0
 46 79  1  0
 47 80  1  0
M  END
>  <Binding energies>  (1) 
[-10.03]

>  <Ligand effiencies>  (1) 
[-0.2046938775510204]

>  <Interactions>  (1) 
["V-A:ALA:541:CB:4892, V-A:TYR:539:CE1:4875, V-A:TYR:539:CD1:4873, V-B:LEU:475:CD1:9229, V-A:GLU:543:CD:4908, V-A:TYR:539:C:4867, V-A:ASP:366:CG:3212, V-A:ARG:545:CD:4923, V-A:ARG:545:CG:4922, V-A:GLY:453:C:4041, H-A:TYR:484:OH:4347, V-A:ASP:366:CA:3209, V-A:ASP:366:CB:3211, V-A:TYR:484:CZ:4346, H-A:ARG:545:NH2:4928, H-A:ARG:545:NH1:4927, V-A:ARG:545:CZ:4926, H-A:GLY:454:N:4049, V-A:ILE:369:CB:3235, H-A:ARG:545:NE:4924, V-A:ILE:369:CG2:3236, V-B:TYR:539:CD2:9846, V-B:TYR:539:CE2:9848, V-A:LEU:475:CD1:4257, H-B:ALA:541:N:9863, H-B:ALA:541:O:9861, H-B:GLU:543:OE1:9881, V-B:TYR:539:CZ:9849, V-B:GLU:543:CD:9880, V-A:SER:385:C:3404, V-A:HIS:456:CE1:4069, V-A:GLY:453:CA:4043, H-B:ARG:545:NH2:9900, V-B:PRO:482:CB:9297, V-A:TYR:539:CB:4871, V-B:ILE:369:CG2:8208, V-B:PRO:482:CG:9298, V-B:ASP:366:CG:8184, V-B:LEU:373:CD1:8251, H-B:GLU:543:OE2:9882, V-A:SER:385:CA:3406, V-A:TYR:539:CG:4872, V-A:ASP:366:C:3207"]

$$$$
RR8_A_Rahimova_2017
     RDKit          3D

 73 77  0  0  0  0  0  0  0  0999 V2000
  127.9070  126.8860   68.6060 O   0  0  0  0  0  0  0  0  0  0  0  0
  129.1090  127.1420   68.7410 C   0  0  0  0  0  0  0  0  0  0  0  0
  129.6340  127.8540   69.7860 O   0  0  0  0  0  0  0  0  0  0  0  0
  129.0930  127.6340   71.0590 C   0  0  1  0  0  0  0  0  0  0  0  0
  129.0350  126.2710   71.3660 O   0  0  0  0  0  0  0  0  0  0  0  0
  129.3460  126.0220   72.7340 C   0  0  2  0  0  0  0  0  0  0  0  0
  128.1800  125.2440   73.3680 C   0  0  0  0  0  0  0  0  0  0  0  0
  127.8380  125.8570   74.6030 O   0  0  0  0  0  0  0  0  0  0  0  0
  126.4400  125.9070   74.8570 C   0  0  0  0  0  0  0  0  0  0  0  0
  126.0360  127.3240   75.2370 C   0  0  0  0  0  0  0  0  0  0  0  0
  127.0000  128.3340   75.2880 C   0  0  0  0  0  0  0  0  0  0  0  0
  126.6310  129.6330   75.6300 C   0  0  0  0  0  0  0  0  0  0  0  0
  125.2970  129.9190   75.9180 C   0  0  0  0  0  0  0  0  0  0  0  0
  124.3290  128.9190   75.8640 C   0  0  0  0  0  0  0  0  0  0  0  0
  124.6980  127.6200   75.5210 C   0  0  0  0  0  0  0  0  0  0  0  0
  129.5970  127.4210   73.3110 C   0  0  1  0  0  0  0  0  0  0  0  0
  130.6690  127.4560   74.2510 O   0  0  0  0  0  0  0  0  0  0  0  0
  130.8170  126.2960   75.0610 C   0  0  0  0  0  0  0  0  0  0  0  0
  132.2940  125.9850   75.2590 C   0  0  0  0  0  0  0  0  0  0  0  0
  132.6780  124.7420   75.7720 C   0  0  0  0  0  0  0  0  0  0  0  0
  134.0260  124.4540   75.9640 C   0  0  0  0  0  0  0  0  0  0  0  0
  134.9890  125.4100   75.6450 C   0  0  0  0  0  0  0  0  0  0  0  0
  134.6150  126.6530   75.1400 C   0  0  0  0  0  0  0  0  0  0  0  0
  133.2660  126.9420   74.9490 C   0  0  0  0  0  0  0  0  0  0  0  0
  130.0320  128.2270   72.1000 C   0  0  2  0  0  0  0  0  0  0  0  0
  129.8310  129.6200   72.3250 O   0  0  0  0  0  0  0  0  0  0  0  0
  128.5830  130.1420   71.8840 C   0  0  0  0  0  0  0  0  0  0  0  0
  128.1450  131.2780   72.7970 C   0  0  0  0  0  0  0  0  0  0  0  0
  129.0960  132.0120   73.5130 C   0  0  0  0  0  0  0  0  0  0  0  0
  128.6910  133.0570   74.3390 C   0  0  0  0  0  0  0  0  0  0  0  0
  127.3370  133.3680   74.4450 C   0  0  0  0  0  0  0  0  0  0  0  0
  126.3840  132.6460   73.7310 C   0  0  0  0  0  0  0  0  0  0  0  0
  126.7890  131.6000   72.9040 C   0  0  0  0  0  0  0  0  0  0  0  0
  130.1550  126.6850   67.7670 C   0  0  0  0  0  0  0  0  0  0  0  0
  131.4380  127.2540   67.7350 C   0  0  0  0  0  0  0  0  0  0  0  0
  132.3870  126.8090   66.8190 C   0  0  0  0  0  0  0  0  0  0  0  0
  132.0790  125.7880   65.9110 C   0  0  0  0  0  0  0  0  0  0  0  0
  133.0920  125.3140   64.9360 N   0  0  0  0  0  0  0  0  0  0  0  0
  134.2800  125.4790   65.1950 O   0  0  0  0  0  0  0  0  0  0  0  0
  132.7060  124.7720   63.9040 O   0  0  0  0  0  0  0  0  0  0  0  0
  130.7980  125.2230   65.9420 C   0  0  0  0  0  0  0  0  0  0  0  0
  129.8480  125.6660   66.8570 C   0  0  0  0  0  0  0  0  0  0  0  0
  128.0881  128.0813   71.0647 H   0  0  0  0  0  0  0  0  0  0  0  0
  130.2278  125.3914   72.9205 H   0  0  0  0  0  0  0  0  0  0  0  0
  127.3119  125.2637   72.6927 H   0  0  0  0  0  0  0  0  0  0  0  0
  128.4776  124.1990   73.5394 H   0  0  0  0  0  0  0  0  0  0  0  0
  125.8933  125.6014   73.9527 H   0  0  0  0  0  0  0  0  0  0  0  0
  126.1965  125.2252   75.6852 H   0  0  0  0  0  0  0  0  0  0  0  0
  128.0507  128.1034   75.0580 H   0  0  0  0  0  0  0  0  0  0  0  0
  127.3885  130.4295   75.6727 H   0  0  0  0  0  0  0  0  0  0  0  0
  125.0063  130.9443   76.1905 H   0  0  0  0  0  0  0  0  0  0  0  0
  123.2786  129.1536   76.0910 H   0  0  0  0  0  0  0  0  0  0  0  0
  123.9374  126.8268   75.4734 H   0  0  0  0  0  0  0  0  0  0  0  0
  128.7026  127.7857   73.8373 H   0  0  0  0  0  0  0  0  0  0  0  0
  130.3474  126.4728   76.0399 H   0  0  0  0  0  0  0  0  0  0  0  0
  130.3318  125.4434   74.5633 H   0  0  0  0  0  0  0  0  0  0  0  0
  131.9142  123.9915   76.0239 H   0  0  0  0  0  0  0  0  0  0  0  0
  134.3302  123.4762   76.3657 H   0  0  0  0  0  0  0  0  0  0  0  0
  136.0545  125.1805   75.7935 H   0  0  0  0  0  0  0  0  0  0  0  0
  135.3812  127.4027   74.8933 H   0  0  0  0  0  0  0  0  0  0  0  0
  132.9647  127.9235   74.5541 H   0  0  0  0  0  0  0  0  0  0  0  0
  131.0951  128.1691   71.8236 H   0  0  0  0  0  0  0  0  0  0  0  0
  128.6884  130.5199   70.8564 H   0  0  0  0  0  0  0  0  0  0  0  0
  127.8267  129.3437   71.9109 H   0  0  0  0  0  0  0  0  0  0  0  0
  130.1639  131.7637   73.4236 H   0  0  0  0  0  0  0  0  0  0  0  0
  129.4365  133.6344   74.9053 H   0  0  0  0  0  0  0  0  0  0  0  0
  127.0175  134.1924   75.0995 H   0  0  0  0  0  0  0  0  0  0  0  0
  125.3174  132.9000   73.8193 H   0  0  0  0  0  0  0  0  0  0  0  0
  126.0414  131.0276   72.3353 H   0  0  0  0  0  0  0  0  0  0  0  0
  131.6956  128.0583   68.4398 H   0  0  0  0  0  0  0  0  0  0  0  0
  133.3886  127.2636   66.8082 H   0  0  0  0  0  0  0  0  0  0  0  0
  130.5401  124.4204   65.2354 H   0  0  0  0  0  0  0  0  0  0  0  0
  128.8463  125.2114   66.8656 H   0  0  0  0  0  0  0  0  0  0  0  0
  1  2  2  0
  2  3  1  0
  3  4  1  0
  4  5  1  0
  5  6  1  0
  6  7  1  0
  7  8  1  0
  8  9  1  0
  9 10  1  0
 10 11  2  0
 11 12  1  0
 12 13  2  0
 13 14  1  0
 14 15  2  0
  6 16  1  0
 16 17  1  0
 17 18  1  0
 18 19  1  0
 19 20  2  0
 20 21  1  0
 21 22  2  0
 22 23  1  0
 23 24  2  0
 16 25  1  0
 25 26  1  0
 26 27  1  0
 27 28  1  0
 28 29  2  0
 29 30  1  0
 30 31  2  0
 31 32  1  0
 32 33  2  0
  2 34  1  0
 34 35  2  0
 35 36  1  0
 36 37  2  0
 37 38  1  0
 38 39  2  0
 38 40  1  0
 37 41  1  0
 41 42  2  0
 25  4  1  0
 33 28  1  0
 42 34  1  0
 15 10  1  0
 24 19  1  0
  4 43  1  6
  6 44  1  6
  7 45  1  0
  7 46  1  0
  9 47  1  0
  9 48  1  0
 11 49  1  0
 12 50  1  0
 13 51  1  0
 14 52  1  0
 15 53  1  0
 16 54  1  1
 18 55  1  0
 18 56  1  0
 20 57  1  0
 21 58  1  0
 22 59  1  0
 23 60  1  0
 24 61  1  0
 25 62  1  6
 27 63  1  0
 27 64  1  0
 29 65  1  0
 30 66  1  0
 31 67  1  0
 32 68  1  0
 33 69  1  0
 35 70  1  0
 36 71  1  0
 41 72  1  0
 42 73  1  0
M  CHG  2  38   1  40  -1
M  END
>  <Binding energies>  (1) 
[-9.97]

>  <Ligand effiencies>  (1) 
[-0.2373809523809524]

>  <Interactions>  (1) 
["V-A:GLU:543:CD:4908, V-A:ARG:545:CD:4923, V-A:ARG:545:CG:4922, H-A:TYR:484:OH:4347, V-A:TYR:484:CZ:4346, H-A:ARG:545:NH2:4928, H-A:ARG:545:NH1:4927, V-A:ARG:545:CZ:4926, H-A:GLY:454:N:4049, H-A:ARG:545:NE:4924, V-B:GLU:543:CG:9879, V-A:TYR:484:CE2:4345, V-A:HIS:456:CE1:4069, V-B:HIS:456:CE1:9041, V-A:GLU:543:CB:4906, V-B:GLU:543:CB:9878, V-A:GLU:543:C:4902, V-B:TYR:484:CD2:9315, V-B:HIS:456:CG:9037, V-B:HIS:456:CD2:9039, H-A:LYS:547:NZ:4951, H-B:LYS:547:NZ:9923, V-A:HIS:456:CB:4064, V-A:HIS:456:CG:4065, V-A:LYS:471:CD:4218, V-B:ASP:473:CG:9211, V-B:HIS:456:C:9032, V-B:TYR:484:CB:9312, V-A:LYS:547:CE:4950, V-B:VAL:458:CG2:9058, V-B:HIS:456:CB:9036, V-B:TYR:484:CG:9313, V-A:VAL:458:CG2:4086, V-A:HIS:456:C:4060, V-A:LYS:547:CD:4949, V-A:HIS:456:CA:4062, V-B:GLY:544:CA:9886, V-B:LYS:547:CE:9922, V-B:GLY:544:C:9884, V-B:TYR:484:CD1:9314, V-B:LYS:547:CD:9921, V-B:ASP:473:CB:9210, V-A:VAL:457:C:4072"]

$$$$
RR8_B_Rahimova_2017
     RDKit          3D

 73 77  0  0  0  0  0  0  0  0999 V2000
  128.8690  126.9340   63.7140 O   0  0  0  0  0  0  0  0  0  0  0  0
  129.5460  125.9050   63.8060 C   0  0  0  0  0  0  0  0  0  0  0  0
  129.2830  124.7440   63.1320 O   0  0  0  0  0  0  0  0  0  0  0  0
  129.0090  123.5870   63.8830 C   0  0  2  0  0  0  0  0  0  0  0  0
  130.1510  123.1020   64.5300 O   0  0  0  0  0  0  0  0  0  0  0  0
  130.8380  122.1420   63.7280 C   0  0  2  0  0  0  0  0  0  0  0  0
  132.2820  122.6160   63.4830 C   0  0  0  0  0  0  0  0  0  0  0  0
  132.2660  123.7190   62.5860 O   0  0  0  0  0  0  0  0  0  0  0  0
  133.4420  123.8730   61.8060 C   0  0  0  0  0  0  0  0  0  0  0  0
  133.0540  124.0470   60.3450 C   0  0  0  0  0  0  0  0  0  0  0  0
  131.8530  124.6820   60.0170 C   0  0  0  0  0  0  0  0  0  0  0  0
  131.4810  124.8230   58.6820 C   0  0  0  0  0  0  0  0  0  0  0  0
  132.3130  124.3300   57.6800 C   0  0  0  0  0  0  0  0  0  0  0  0
  133.5150  123.7020   57.9990 C   0  0  0  0  0  0  0  0  0  0  0  0
  133.8860  123.5570   59.3330 C   0  0  0  0  0  0  0  0  0  0  0  0
  129.9670  122.0030   62.4740 C   0  0  1  0  0  0  0  0  0  0  0  0
  129.9920  120.6490   62.0130 O   0  0  0  0  0  0  0  0  0  0  0  0
  130.4840  120.4210   60.6900 C   0  0  0  0  0  0  0  0  0  0  0  0
  131.9360  119.9520   60.6860 C   0  0  0  0  0  0  0  0  0  0  0  0
  132.3070  118.8270   59.9450 C   0  0  0  0  0  0  0  0  0  0  0  0
  133.6380  118.4200   59.9180 C   0  0  0  0  0  0  0  0  0  0  0  0
  134.5930  119.1380   60.6350 C   0  0  0  0  0  0  0  0  0  0  0  0
  134.2300  120.2580   61.3800 C   0  0  0  0  0  0  0  0  0  0  0  0
  132.8980  120.6670   61.4050 C   0  0  0  0  0  0  0  0  0  0  0  0
  128.5900  122.4580   62.9430 C   0  0  2  0  0  0  0  0  0  0  0  0
  127.8060  122.8930   61.8350 O   0  0  0  0  0  0  0  0  0  0  0  0
  128.5360  123.2930   60.6860 C   0  0  0  0  0  0  0  0  0  0  0  0
  127.6070  123.2330   59.4860 C   0  0  0  0  0  0  0  0  0  0  0  0
  126.4070  123.9500   59.4870 C   0  0  0  0  0  0  0  0  0  0  0  0
  125.5530  123.8720   58.3890 C   0  0  0  0  0  0  0  0  0  0  0  0
  125.9000  123.0790   57.2980 C   0  0  0  0  0  0  0  0  0  0  0  0
  127.0960  122.3630   57.2910 C   0  0  0  0  0  0  0  0  0  0  0  0
  127.9500  122.4410   58.3870 C   0  0  0  0  0  0  0  0  0  0  0  0
  130.7380  125.7840   64.7120 C   0  0  0  0  0  0  0  0  0  0  0  0
  130.6020  125.6890   66.1050 C   0  0  0  0  0  0  0  0  0  0  0  0
  131.7240  125.5860   66.9190 C   0  0  0  0  0  0  0  0  0  0  0  0
  133.0100  125.5870   66.3650 C   0  0  0  0  0  0  0  0  0  0  0  0
  134.2070  125.5050   67.2380 N   0  0  0  0  0  0  0  0  0  0  0  0
  135.2660  125.1200   66.7500 O   0  0  0  0  0  0  0  0  0  0  0  0
  134.0970  125.8290   68.4190 O   0  0  0  0  0  0  0  0  0  0  0  0
  133.1450  125.6760   64.9740 C   0  0  0  0  0  0  0  0  0  0  0  0
  132.0230  125.7710   64.1570 C   0  0  0  0  0  0  0  0  0  0  0  0
  128.2306  123.8648   64.6089 H   0  0  0  0  0  0  0  0  0  0  0  0
  130.9621  121.1515   64.1901 H   0  0  0  0  0  0  0  0  0  0  0  0
  132.7350  122.9240   64.4369 H   0  0  0  0  0  0  0  0  0  0  0  0
  132.8719  121.7952   63.0490 H   0  0  0  0  0  0  0  0  0  0  0  0
  133.9965  124.7595   62.1475 H   0  0  0  0  0  0  0  0  0  0  0  0
  134.0778  122.9821   61.9160 H   0  0  0  0  0  0  0  0  0  0  0  0
  131.2012  125.0706   60.8133 H   0  0  0  0  0  0  0  0  0  0  0  0
  130.5355  125.3209   58.4208 H   0  0  0  0  0  0  0  0  0  0  0  0
  132.0181  124.4375   56.6257 H   0  0  0  0  0  0  0  0  0  0  0  0
  134.1685  123.3221   57.1998 H   0  0  0  0  0  0  0  0  0  0  0  0
  134.8318  123.0580   59.5907 H   0  0  0  0  0  0  0  0  0  0  0  0
  130.3071  122.5993   61.6144 H   0  0  0  0  0  0  0  0  0  0  0  0
  129.8622  119.6516   60.2089 H   0  0  0  0  0  0  0  0  0  0  0  0
  130.4364  121.3746   60.1438 H   0  0  0  0  0  0  0  0  0  0  0  0
  131.5477  118.2632   59.3832 H   0  0  0  0  0  0  0  0  0  0  0  0
  133.9342  117.5363   59.3338 H   0  0  0  0  0  0  0  0  0  0  0  0
  135.6449  118.8171   60.6126 H   0  0  0  0  0  0  0  0  0  0  0  0
  134.9906  120.8164   61.9454 H   0  0  0  0  0  0  0  0  0  0  0  0
  132.6042  121.5512   61.9897 H   0  0  0  0  0  0  0  0  0  0  0  0
  127.9519  121.6999   63.4206 H   0  0  0  0  0  0  0  0  0  0  0  0
  128.9056  124.3204   60.8192 H   0  0  0  0  0  0  0  0  0  0  0  0
  129.3968  122.6256   60.5326 H   0  0  0  0  0  0  0  0  0  0  0  0
  126.1378  124.5739   60.3521 H   0  0  0  0  0  0  0  0  0  0  0  0
  124.6079  124.4348   58.3838 H   0  0  0  0  0  0  0  0  0  0  0  0
  125.2234  123.0170   56.4329 H   0  0  0  0  0  0  0  0  0  0  0  0
  127.3631  121.7402   56.4245 H   0  0  0  0  0  0  0  0  0  0  0  0
  128.8955  121.8789   58.3882 H   0  0  0  0  0  0  0  0  0  0  0  0
  129.5991  125.6961   66.5569 H   0  0  0  0  0  0  0  0  0  0  0  0
  131.6005  125.5029   68.0089 H   0  0  0  0  0  0  0  0  0  0  0  0
  134.1482  125.6707   64.5229 H   0  0  0  0  0  0  0  0  0  0  0  0
  132.1466  125.8364   63.0659 H   0  0  0  0  0  0  0  0  0  0  0  0
  1  2  2  0
  2  3  1  0
  3  4  1  0
  4  5  1  0
  5  6  1  0
  6  7  1  0
  7  8  1  0
  8  9  1  0
  9 10  1  0
 10 11  2  0
 11 12  1  0
 12 13  2  0
 13 14  1  0
 14 15  2  0
  6 16  1  0
 16 17  1  0
 17 18  1  0
 18 19  1  0
 19 20  2  0
 20 21  1  0
 21 22  2  0
 22 23  1  0
 23 24  2  0
 16 25  1  0
 25 26  1  0
 26 27  1  0
 27 28  1  0
 28 29  2  0
 29 30  1  0
 30 31  2  0
 31 32  1  0
 32 33  2  0
  2 34  1  0
 34 35  2  0
 35 36  1  0
 36 37  2  0
 37 38  1  0
 38 39  2  0
 38 40  1  0
 37 41  1  0
 41 42  2  0
 25  4  1  0
 33 28  1  0
 42 34  1  0
 15 10  1  0
 24 19  1  0
  4 43  1  1
  6 44  1  1
  7 45  1  0
  7 46  1  0
  9 47  1  0
  9 48  1  0
 11 49  1  0
 12 50  1  0
 13 51  1  0
 14 52  1  0
 15 53  1  0
 16 54  1  6
 18 55  1  0
 18 56  1  0
 20 57  1  0
 21 58  1  0
 22 59  1  0
 23 60  1  0
 24 61  1  0
 25 62  1  1
 27 63  1  0
 27 64  1  0
 29 65  1  0
 30 66  1  0
 31 67  1  0
 32 68  1  0
 33 69  1  0
 35 70  1  0
 36 71  1  0
 41 72  1  0
 42 73  1  0
M  CHG  2  38   1  40  -1
M  END
>  <Binding energies>  (1) 
[-9.64]

>  <Ligand effiencies>  (1) 
[-0.22952380952380955]

>  <Interactions>  (1) 
["V-A:ASP:366:CG:3212, V-A:ARG:545:CD:4923, V-A:ARG:545:CG:4922, H-A:TYR:484:OH:4347, V-A:GLY:454:CA:4048, V-A:ASP:366:CA:3209, V-A:ASP:366:CB:3211, V-A:TYR:484:CZ:4346, V-A:ILE:369:CD1:3238, V-A:ARG:545:CZ:4926, H-A:GLY:454:N:4049, V-A:ILE:369:CB:3235, H-A:ARG:545:NE:4924, V-A:ILE:369:CG2:3236, V-B:TYR:539:CD2:9846, V-B:TYR:539:CE2:9848, V-A:LEU:475:CD1:4257, H-B:ALA:541:N:9863, V-B:PRO:540:CA:9855, V-B:LEU:363:CD1:8160, V-B:GLU:543:CG:9879, V-B:TYR:539:CZ:9849, V-B:ALA:541:CB:9864, V-B:MET:535:CE:9807, V-B:PRO:540:N:9856, V-B:GLU:543:CD:9880, V-B:PRO:540:CB:9857, V-B:TYR:539:C:9839, V-A:SER:385:C:3404, V-A:TYR:484:CE2:4345, V-A:HIS:383:CD2:3391, V-A:HIS:456:CE1:4069, V-B:ALA:541:CA:9862, H-A:HIS:456:ND1:4066, V-A:SER:385:CA:3406, H-A:ILE:455:N:4054, V-A:SER:385:CB:3408, V-A:ILE:455:C:4051, V-A:ASP:366:C:3207"]

$$$$
RR9_Rahimova_2017
     RDKit          3D

 64 68  0  0  0  0  0  0  0  0999 V2000
  131.2100  127.3390   73.4060 C   0  0  0  0  0  0  0  0  0  0  0  0
  129.9470  127.7270   72.6310 C   0  0  0  0  0  0  0  0  0  0  0  0
  129.7450  126.7830   71.5830 O   0  0  0  0  0  0  0  0  0  0  0  0
  129.1860  127.2020   70.3910 C   0  0  0  0  0  0  0  0  0  0  0  0
  128.4060  126.2720   69.7070 C   0  0  0  0  0  0  0  0  0  0  0  0
  127.8050  126.6040   68.4970 C   0  0  0  0  0  0  0  0  0  0  0  0
  127.9690  127.8790   67.9350 C   0  0  0  0  0  0  0  0  0  0  0  0
  127.3280  128.2410   66.6280 C   0  0  0  0  0  0  0  0  0  0  0  0
  127.9210  127.9080   65.4000 C   0  0  0  0  0  0  0  0  0  0  0  0
  127.3090  128.2380   64.1780 C   0  0  0  0  0  0  0  0  0  0  0  0
  127.9440  127.7640   62.8980 C   0  0  0  0  0  0  0  0  0  0  0  0
  128.6320  128.5310   62.2240 O   0  0  0  0  0  0  0  0  0  0  0  0
  127.6840  126.4880   62.5530 N   0  0  0  0  0  0  0  0  0  0  0  0
  128.0770  125.8400   61.2970 C   0  0  0  0  0  0  0  0  0  0  0  0
  127.6860  124.3450   61.2390 C   0  0  0  0  0  0  0  0  0  0  0  0
  126.3230  124.0670   60.6150 C   0  0  0  0  0  0  0  0  0  0  0  0
  125.3000  123.5030   61.3840 C   0  0  0  0  0  0  0  0  0  0  0  0
  124.0460  123.2830   60.8210 C   0  0  0  0  0  0  0  0  0  0  0  0
  123.8200  123.6220   59.4890 C   0  0  0  0  0  0  0  0  0  0  0  0
  124.8350  124.1800   58.7140 C   0  0  0  0  0  0  0  0  0  0  0  0
  126.0900  124.4020   59.2780 C   0  0  0  0  0  0  0  0  0  0  0  0
  126.0880  128.9500   64.2600 C   0  0  0  0  0  0  0  0  0  0  0  0
  125.1110  129.5390   63.3730 C   0  0  0  0  0  0  0  0  0  0  0  0
  125.1290  129.6550   61.8850 C   0  0  0  0  0  0  0  0  0  0  0  0
  125.7230  128.6550   61.1080 C   0  0  0  0  0  0  0  0  0  0  0  0
  125.7530  128.7730   59.7210 C   0  0  0  0  0  0  0  0  0  0  0  0
  125.1850  129.8900   59.1050 C   0  0  0  0  0  0  0  0  0  0  0  0
  125.2340  130.0280   57.5940 C   0  0  0  0  0  0  0  0  0  0  0  0
  124.5930  130.8900   59.8770 C   0  0  0  0  0  0  0  0  0  0  0  0
  124.5620  130.7700   61.2630 C   0  0  0  0  0  0  0  0  0  0  0  0
  124.1080  130.0400   64.0600 N   0  0  0  0  0  0  0  0  0  0  0  0
  124.3770  129.8750   65.3650 N   0  0  0  0  0  0  0  0  0  0  0  0
  125.5760  129.2270   65.5500 C   0  0  0  0  0  0  0  0  0  0  0  0
  126.1440  128.9090   66.7120 N   0  0  0  0  0  0  0  0  0  0  0  0
  128.7570  128.8080   68.6280 C   0  0  0  0  0  0  0  0  0  0  0  0
  129.3590  128.4790   69.8410 C   0  0  0  0  0  0  0  0  0  0  0  0
  131.0107  127.4002   74.4861 H   0  0  0  0  0  0  0  0  0  0  0  0
  131.4994  126.3105   73.1442 H   0  0  0  0  0  0  0  0  0  0  0  0
  132.0269  128.0276   73.1442 H   0  0  0  0  0  0  0  0  0  0  0  0
  129.0803  127.7190   73.3083 H   0  0  0  0  0  0  0  0  0  0  0  0
  130.0620  128.7362   72.2088 H   0  0  0  0  0  0  0  0  0  0  0  0
  128.2640  125.2656   70.1277 H   0  0  0  0  0  0  0  0  0  0  0  0
  127.1921  125.8557   67.9731 H   0  0  0  0  0  0  0  0  0  0  0  0
  128.8847  127.3777   65.3937 H   0  0  0  0  0  0  0  0  0  0  0  0
  127.1820  125.9100   63.2100 H   0  0  0  0  0  0  0  0  0  0  0  0
  127.5850  126.3634   60.4639 H   0  0  0  0  0  0  0  0  0  0  0  0
  129.1734  125.8958   61.2275 H   0  0  0  0  0  0  0  0  0  0  0  0
  128.4477  123.8142   60.6490 H   0  0  0  0  0  0  0  0  0  0  0  0
  127.6271  123.9985   62.2813 H   0  0  0  0  0  0  0  0  0  0  0  0
  125.4863  123.2332   62.4340 H   0  0  0  0  0  0  0  0  0  0  0  0
  123.2381  122.8439   61.4247 H   0  0  0  0  0  0  0  0  0  0  0  0
  122.8294  123.4473   59.0439 H   0  0  0  0  0  0  0  0  0  0  0  0
  124.6466  124.4438   57.6628 H   0  0  0  0  0  0  0  0  0  0  0  0
  126.8963  124.8404   58.6717 H   0  0  0  0  0  0  0  0  0  0  0  0
  126.1673  127.7737   61.5937 H   0  0  0  0  0  0  0  0  0  0  0  0
  126.2234  127.9875   59.1114 H   0  0  0  0  0  0  0  0  0  0  0  0
  125.5912  131.0341   57.3291 H   0  0  0  0  0  0  0  0  0  0  0  0
  125.9195  129.2744   57.1790 H   0  0  0  0  0  0  0  0  0  0  0  0
  124.2268  129.8755   57.1790 H   0  0  0  0  0  0  0  0  0  0  0  0
  124.1513  131.7722   59.3906 H   0  0  0  0  0  0  0  0  0  0  0  0
  124.0895  131.5557   61.8708 H   0  0  0  0  0  0  0  0  0  0  0  0
  123.7330  130.2060   66.0680 H   0  0  0  0  0  0  0  0  0  0  0  0
  128.9028  129.8139   68.2073 H   0  0  0  0  0  0  0  0  0  0  0  0
  129.9722  129.2245   70.3685 H   0  0  0  0  0  0  0  0  0  0  0  0
  1  2  1  0
  2  3  1  0
  3  4  1  0
  4  5  2  0
  5  6  1  0
  6  7  2  0
  7  8  1  0
  8  9  2  0
  9 10  1  0
 10 11  1  0
 11 12  2  0
 11 13  1  0
 13 14  1  0
 14 15  1  0
 15 16  1  0
 16 17  2  0
 17 18  1  0
 18 19  2  0
 19 20  1  0
 20 21  2  0
 10 22  2  0
 22 23  1  0
 23 24  1  0
 24 25  2  0
 25 26  1  0
 26 27  2  0
 27 28  1  0
 27 29  1  0
 29 30  2  0
 23 31  2  0
 31 32  1  0
 32 33  1  0
 33 34  2  0
  7 35  1  0
 35 36  2  0
 36  4  1  0
 34  8  1  0
 21 16  1  0
 33 22  1  0
 30 24  1  0
  1 37  1  0
  1 38  1  0
  1 39  1  0
  2 40  1  0
  2 41  1  0
  5 42  1  0
  6 43  1  0
  9 44  1  0
 13 45  1  0
 14 46  1  0
 14 47  1  0
 15 48  1  0
 15 49  1  0
 17 50  1  0
 18 51  1  0
 19 52  1  0
 20 53  1  0
 21 54  1  0
 25 55  1  0
 26 56  1  0
 28 57  1  0
 28 58  1  0
 28 59  1  0
 29 60  1  0
 30 61  1  0
 32 62  1  0
 35 63  1  0
 36 64  1  0
M  END
>  <Binding energies>  (1) 
[-8.62]

>  <Ligand effiencies>  (1) 
[-0.22684210526315787]

>  <Interactions>  (1) 
["V-A:TYR:539:CE1:4875, V-A:GLU:543:CD:4908, V-B:PRO:540:CA:9855, V-B:LEU:363:CD1:8160, H-B:GLU:543:OE1:9881, V-B:GLU:543:CD:9880, V-B:PRO:540:CB:9857, V-A:HIS:456:CE1:4069, V-B:HIS:456:CE1:9041, V-A:GLU:543:CB:4906, V-B:GLU:543:C:9874, H-A:HIS:456:ND1:4066, V-B:GLU:543:CB:9878, H-B:TYR:484:OH:9319, H-B:ARG:545:NH2:9900, H-B:GLY:454:N:9021, V-B:GLY:454:CA:9020, V-B:ILE:369:CG2:8208, V-B:ILE:369:CD1:8210, H-B:ARG:545:NH1:9899, V-B:ASP:366:CG:8184, V-B:ASP:366:CB:8183, H-B:GLU:543:OE2:9882, V-A:GLU:543:C:4902, V-B:ARG:545:CZ:9898, V-B:LEU:363:CA:8156, V-B:LEU:363:CB:8158, V-A:HIS:456:CG:4065, V-A:LYS:547:CE:4950, V-B:ASN:362:CB:8147, V-B:ASN:362:C:8143, V-A:TYR:539:CZ:4877"]

$$$$
