1a_Ghoteimi_2023
     RDKit          3D

 40 43  0  0  0  0  0  0  0  0999 V2000
  132.6130  126.7410   75.0610 C   0  0  0  0  0  0  0  0  0  0  0  0
  131.6930  126.7660   76.2850 C   0  0  0  0  0  0  0  0  0  0  0  0
  130.4530  127.3680   75.9310 O   0  0  0  0  0  0  0  0  0  0  0  0
  129.4660  126.6450   75.3420 C   0  0  0  0  0  0  0  0  0  0  0  0
  128.6800  125.9280   75.9690 O   0  0  0  0  0  0  0  0  0  0  0  0
  129.4210  126.8090   73.8500 C   0  0  0  0  0  0  0  0  0  0  0  0
  128.8520  125.8380   73.0130 C   0  0  0  0  0  0  0  0  0  0  0  0
  128.8280  126.0160   71.6320 C   0  0  0  0  0  0  0  0  0  0  0  0
  129.3710  127.1780   71.0620 C   0  0  0  0  0  0  0  0  0  0  0  0
  129.4050  127.4590   69.6830 N   0  0  0  0  0  0  0  0  0  0  0  0
  128.6240  126.9900   68.6850 C   0  0  0  0  0  0  0  0  0  0  0  0
  127.6870  126.2040   68.8180 O   0  0  0  0  0  0  0  0  0  0  0  0
  128.9620  127.5100   67.2880 C   0  0  0  0  0  0  0  0  0  0  0  0
  128.1940  129.1250   66.9660 S   0  0  0  0  0  0  0  0  0  0  0  0
  127.7240  129.1180   65.2510 C   0  0  0  0  0  0  0  0  0  0  0  0
  127.7980  127.8990   64.6670 N   0  0  0  0  0  0  0  0  0  0  0  0
  127.4600  127.7560   63.3580 C   0  0  0  0  0  0  0  0  0  0  0  0
  127.5480  126.3690   62.7880 C   0  0  0  0  0  0  0  0  0  0  0  0
  128.6040  125.5070   63.1260 C   0  0  0  0  0  0  0  0  0  0  0  0
  128.6820  124.2220   62.5970 C   0  0  0  0  0  0  0  0  0  0  0  0
  127.7100  123.7580   61.7140 C   0  0  0  0  0  0  0  0  0  0  0  0
  127.8670  122.4690   61.2410 O   0  0  0  0  0  0  0  0  0  0  0  0
  128.9060  122.1940   60.3080 C   0  0  0  0  0  0  0  0  0  0  0  0
  126.6520  124.6080   61.3630 C   0  0  0  0  0  0  0  0  0  0  0  0
  126.5770  125.8920   61.8940 C   0  0  0  0  0  0  0  0  0  0  0  0
  127.0380  128.8590   62.6070 C   0  0  0  0  0  0  0  0  0  0  0  0
  126.9790  130.1350   63.1830 C   0  0  0  0  0  0  0  0  0  0  0  0
  126.5500  131.2720   62.3120 C   0  0  0  0  0  0  0  0  0  0  0  0
  125.1950  131.5160   62.0670 C   0  0  0  0  0  0  0  0  0  0  0  0
  124.8030  132.5860   61.2670 C   0  0  0  0  0  0  0  0  0  0  0  0
  125.7550  133.4350   60.7030 C   0  0  0  0  0  0  0  0  0  0  0  0
  125.2740  134.4700   59.9250 O   0  0  0  0  0  0  0  0  0  0  0  0
  125.6050  135.8100   60.2700 C   0  0  0  0  0  0  0  0  0  0  0  0
  127.1150  133.1980   60.9540 C   0  0  0  0  0  0  0  0  0  0  0  0
  127.5050  132.1270   61.7540 C   0  0  0  0  0  0  0  0  0  0  0  0
  127.3270  130.2750   64.5480 C   0  0  0  0  0  0  0  0  0  0  0  0
  127.2690  131.5820   65.2100 C   0  0  0  0  0  0  0  0  0  0  0  0
  127.2230  132.6140   65.7320 N   0  0  0  0  0  0  0  0  0  0  0  0
  129.9410  128.1440   71.8910 C   0  0  0  0  0  0  0  0  0  0  0  0
  129.9640  127.9640   73.2720 C   0  0  0  0  0  0  0  0  0  0  0  0
  1  2  1  0
  2  3  1  0
  3  4  1  0
  4  5  2  0
  4  6  1  0
  6  7  2  0
  7  8  1  0
  8  9  2  0
  9 10  1  0
 10 11  1  0
 11 12  2  0
 11 13  1  0
 13 14  1  0
 14 15  1  0
 15 16  2  0
 16 17  1  0
 17 18  1  0
 18 19  2  0
 19 20  1  0
 20 21  2  0
 21 22  1  0
 22 23  1  0
 21 24  1  0
 24 25  2  0
 17 26  2  0
 26 27  1  0
 27 28  1  0
 28 29  2  0
 29 30  1  0
 30 31  2  0
 31 32  1  0
 32 33  1  0
 31 34  1  0
 34 35  2  0
 27 36  2  0
 36 37  1  0
 37 38  3  0
  9 39  1  0
 39 40  2  0
 40  6  1  0
 36 15  1  0
 25 18  1  0
 35 28  1  0
M  END
>  <Binding energies>  (1) 
[-7.93]

>  <Ligand effiencies>  (1) 
[-0.19341463414634147]

>  <Interactions>  (1) 
["V-A:ALA:541:CB:4892, V-A:TYR:539:CE1:4875, V-A:TYR:539:CD1:4873, V-B:LEU:475:CD1:9229, V-A:GLU:543:CD:4908, H-B:ALA:541:N:9863, V-B:PRO:540:CA:9855, V-B:GLU:543:CD:9880, V-A:HIS:456:CE1:4069, V-A:GLU:543:CG:4907, V-B:HIS:456:CE1:9041, V-B:TYR:484:CE2:9317, H-B:TYR:484:OH:9319, V-A:TYR:539:CB:4871, V-B:ILE:369:CG2:8208, V-B:ILE:369:CD1:8210, V-B:LEU:373:CD1:8251, V-B:HIS:456:CD2:9039, V-B:TYR:484:CZ:9318, V-A:TYR:539:CG:4872, H-A:GLU:543:O:4903, H-A:LYS:547:NZ:4951, H-B:LYS:547:NZ:9923, V-A:HIS:456:CB:4064, V-A:HIS:456:CG:4065, V-A:LYS:547:CE:4950, V-A:LYS:547:CD:4949"]

$$$$
1b_Ghoteimi_2023
     RDKit          3D

 34 37  0  0  0  0  0  0  0  0999 V2000
  125.6450  123.2990   57.9110 C   0  0  0  0  0  0  0  0  0  0  0  0
  126.7040  122.4440   58.3250 O   0  0  0  0  0  0  0  0  0  0  0  0
  127.5610  122.8680   59.3230 C   0  0  0  0  0  0  0  0  0  0  0  0
  128.9260  122.7550   59.0650 C   0  0  0  0  0  0  0  0  0  0  0  0
  129.8630  123.1560   60.0120 C   0  0  0  0  0  0  0  0  0  0  0  0
  129.4630  123.6870   61.2480 C   0  0  0  0  0  0  0  0  0  0  0  0
  130.4790  124.1160   62.2700 C   0  0  0  0  0  0  0  0  0  0  0  0
  130.1290  124.5830   63.5410 C   0  0  0  0  0  0  0  0  0  0  0  0
  131.1150  124.9680   64.4580 C   0  0  0  0  0  0  0  0  0  0  0  0
  130.6680  125.4610   65.7950 C   0  0  0  0  0  0  0  0  0  0  0  0
  129.4810  124.9880   66.3610 C   0  0  0  0  0  0  0  0  0  0  0  0
  129.0550  125.4510   67.6030 C   0  0  0  0  0  0  0  0  0  0  0  0
  129.8050  126.3980   68.3010 C   0  0  0  0  0  0  0  0  0  0  0  0
  129.3060  126.8000   69.5260 O   0  0  0  0  0  0  0  0  0  0  0  0
  129.3450  128.1800   69.8720 C   0  0  0  0  0  0  0  0  0  0  0  0
  130.9940  126.8810   67.7340 C   0  0  0  0  0  0  0  0  0  0  0  0
  131.4160  126.4170   66.4920 C   0  0  0  0  0  0  0  0  0  0  0  0
  132.4740  124.8610   64.0720 C   0  0  0  0  0  0  0  0  0  0  0  0
  133.5450  125.1600   65.0270 C   0  0  0  0  0  0  0  0  0  0  0  0
  134.3900  125.3960   65.7830 N   0  0  0  0  0  0  0  0  0  0  0  0
  132.7580  124.4020   62.7660 C   0  0  0  0  0  0  0  0  0  0  0  0
  134.4010  124.2130   62.1080 S   0  0  0  0  0  0  0  0  0  0  0  0
  134.4130  122.7320   61.0430 C   0  0  0  0  0  0  0  0  0  0  0  0
  133.5430  121.5680   61.5390 C   0  0  0  0  0  0  0  0  0  0  0  0
  133.3080  121.4250   62.7410 O   0  0  0  0  0  0  0  0  0  0  0  0
  133.0850  120.7520   60.5630 N   0  0  0  0  0  0  0  0  0  0  0  0
  132.2810  119.6280   60.7160 C   0  0  0  0  0  0  0  0  0  0  0  0
  130.9170  119.7010   60.9970 C   0  0  0  0  0  0  0  0  0  0  0  0
  130.4960  118.3920   61.0680 C   0  0  0  0  0  0  0  0  0  0  0  0
  131.5520  117.5750   60.8390 O   0  0  0  0  0  0  0  0  0  0  0  0
  132.6770  118.3700   60.6170 N   0  0  0  0  0  0  0  0  0  0  0  0
  131.7840  124.0230   61.9040 N   0  0  0  0  0  0  0  0  0  0  0  0
  128.0860  123.7950   61.4980 C   0  0  0  0  0  0  0  0  0  0  0  0
  127.1460  123.3940   60.5540 C   0  0  0  0  0  0  0  0  0  0  0  0
  1  2  1  0
  2  3  1  0
  3  4  2  0
  4  5  1  0
  5  6  2  0
  6  7  1  0
  7  8  2  0
  8  9  1  0
  9 10  1  0
 10 11  2  0
 11 12  1  0
 12 13  2  0
 13 14  1  0
 14 15  1  0
 13 16  1  0
 16 17  2  0
  9 18  2  0
 18 19  1  0
 19 20  3  0
 18 21  1  0
 21 22  1  0
 22 23  1  0
 23 24  1  0
 24 25  2  0
 24 26  1  0
 26 27  1  0
 27 28  1  0
 28 29  2  0
 29 30  1  0
 30 31  1  0
 21 32  2  0
  6 33  1  0
 33 34  2  0
 34  3  1  0
 32  7  1  0
 17 10  1  0
 31 27  2  0
M  END
>  <Binding energies>  (2) 
[-8.44]

>  <Ligand effiencies>  (2) 
[-0.24114285714285713]

>  <Interactions>  (2) 
["V-A:GLU:543:CD:4908, H-A:TYR:484:OH:4347, V-A:ILE:369:CD1:3238, H-A:ARG:545:NH1:4927, V-A:ARG:545:CZ:4926, H-A:GLY:454:N:4049, V-A:ILE:369:CB:3235, H-A:ARG:545:NE:4924, V-A:ILE:369:CG2:3236, V-B:TYR:539:CD2:9846, H-A:SER:385:OG:3409, V-B:TYR:539:CE2:9848, V-A:LEU:475:CD1:4257, V-A:PRO:482:CB:4325, H-A:HIS:383:NE2:3393, V-A:PRO:482:CG:4326, V-B:PRO:540:CA:9855, V-B:LEU:363:CD1:8160, V-B:GLU:543:CG:9879, V-B:PRO:540:N:9856, V-B:GLU:543:CD:9880, V-B:PRO:540:CB:9857, V-A:TYR:484:CE2:4345, V-A:HIS:456:CE1:4069, V-B:GLU:543:CA:9876, V-B:HIS:456:CE1:9041, V-A:GLU:543:CB:4906, V-B:GLU:543:CB:9878, V-A:GLU:543:C:4902"]

$$$$
1c_Ghoteimi_2023
     RDKit          3D

 34 37  0  0  0  0  0  0  0  0999 V2000
  132.4510  130.9680   58.3700 C   0  0  0  0  0  0  0  0  0  0  0  0
  131.3210  131.8120   58.5590 O   0  0  0  0  0  0  0  0  0  0  0  0
  130.4000  131.4990   59.5410 C   0  0  0  0  0  0  0  0  0  0  0  0
  130.8760  130.7940   60.6430 C   0  0  0  0  0  0  0  0  0  0  0  0
  130.0180  130.4330   61.6780 C   0  0  0  0  0  0  0  0  0  0  0  0
  128.6550  130.7670   61.6410 C   0  0  0  0  0  0  0  0  0  0  0  0
  127.7250  130.3760   62.7530 C   0  0  0  0  0  0  0  0  0  0  0  0
  128.1790  129.8730   63.9770 C   0  0  0  0  0  0  0  0  0  0  0  0
  127.2740  129.5470   64.9940 C   0  0  0  0  0  0  0  0  0  0  0  0
  127.8320  129.0790   66.2970 C   0  0  0  0  0  0  0  0  0  0  0  0
  128.0970  129.9880   67.3250 C   0  0  0  0  0  0  0  0  0  0  0  0
  128.6370  129.5530   68.5320 C   0  0  0  0  0  0  0  0  0  0  0  0
  128.9270  128.2040   68.7320 C   0  0  0  0  0  0  0  0  0  0  0  0
  129.4610  127.8630   69.9600 O   0  0  0  0  0  0  0  0  0  0  0  0
  129.0120  126.6770   70.6080 C   0  0  0  0  0  0  0  0  0  0  0  0
  128.6690  127.2890   67.7000 C   0  0  0  0  0  0  0  0  0  0  0  0
  128.1290  127.7260   66.4940 C   0  0  0  0  0  0  0  0  0  0  0  0
  125.8910  129.7100   64.7440 C   0  0  0  0  0  0  0  0  0  0  0  0
  124.8910  129.3550   65.7560 C   0  0  0  0  0  0  0  0  0  0  0  0
  124.1040  129.0750   66.5570 N   0  0  0  0  0  0  0  0  0  0  0  0
  125.5040  130.2380   63.4950 C   0  0  0  0  0  0  0  0  0  0  0  0
  123.8180  130.6550   63.1080 S   0  0  0  0  0  0  0  0  0  0  0  0
  123.7550  130.7020   61.2870 C   0  0  0  0  0  0  0  0  0  0  0  0
  124.5200  131.9000   60.7130 C   0  0  0  0  0  0  0  0  0  0  0  0
  124.4970  132.1120   59.5000 O   0  0  0  0  0  0  0  0  0  0  0  0
  125.1450  132.6750   61.6270 N   0  0  0  0  0  0  0  0  0  0  0  0
  125.7700  133.8900   61.3930 C   0  0  0  0  0  0  0  0  0  0  0  0
  126.9480  134.2870   61.8230 N   0  0  0  0  0  0  0  0  0  0  0  0
  127.2460  135.4910   61.3730 C   0  0  0  0  0  0  0  0  0  0  0  0
  126.2950  136.0950   60.5560 C   0  0  0  0  0  0  0  0  0  0  0  0
  124.9400  135.0210   60.3750 S   0  0  0  0  0  0  0  0  0  0  0  0
  126.3980  130.5690   62.5320 N   0  0  0  0  0  0  0  0  0  0  0  0
  128.1880  131.4820   60.5290 C   0  0  0  0  0  0  0  0  0  0  0  0
  129.0420  131.8430   59.4910 C   0  0  0  0  0  0  0  0  0  0  0  0
  1  2  1  0
  2  3  1  0
  3  4  2  0
  4  5  1  0
  5  6  2  0
  6  7  1  0
  7  8  2  0
  8  9  1  0
  9 10  1  0
 10 11  2  0
 11 12  1  0
 12 13  2  0
 13 14  1  0
 14 15  1  0
 13 16  1  0
 16 17  2  0
  9 18  2  0
 18 19  1  0
 19 20  3  0
 18 21  1  0
 21 22  1  0
 22 23  1  0
 23 24  1  0
 24 25  2  0
 24 26  1  0
 26 27  1  0
 27 28  2  0
 28 29  1  0
 29 30  2  0
 30 31  1  0
 21 32  2  0
  6 33  1  0
 33 34  2  0
 34  3  1  0
 32  7  1  0
 17 10  1  0
 31 27  1  0
M  END
>  <Binding energies>  (3) 
[-7.6]

>  <Ligand effiencies>  (3) 
[-0.21714285714285714]

>  <Interactions>  (3) 
["V-A:ALA:541:CB:4892, V-A:TYR:539:CE1:4875, V-A:PRO:540:N:4884, V-A:PRO:540:CA:4883, V-A:TYR:539:CD1:4873, V-B:LEU:475:CD1:9229, V-A:GLU:543:CD:4908, V-A:TYR:539:C:4867, V-A:PRO:540:CB:4885, V-A:HIS:456:CE1:4069, V-A:GLU:543:CG:4907, V-B:HIS:456:CE1:9041, V-B:TYR:484:CE2:9317, V-A:GLU:543:CB:4906, H-B:TYR:484:OH:9319, H-B:GLY:454:N:9021, V-B:PRO:482:CB:9297, V-A:TYR:539:CB:4871, V-B:ILE:369:CG2:8208, V-B:ILE:369:CD1:8210, V-B:PRO:482:CG:9298, V-B:ASP:366:CG:8184, V-B:ASP:366:CB:8183, V-A:GLU:543:C:4902, V-A:GLU:543:CA:4904, H-B:ARG:545:NE:9896, V-B:ARG:545:CZ:9898, V-B:TYR:484:CZ:9318, V-B:ASP:366:CA:8181"]

$$$$
1d_Ghoteimi_2023
     RDKit          3D

 30 32  0  0  0  0  0  0  0  0999 V2000
  133.8800  125.4990   67.4060 C   0  0  0  0  0  0  0  0  0  0  0  0
  134.3200  125.0800   66.1230 O   0  0  0  0  0  0  0  0  0  0  0  0
  133.4990  125.1610   65.0560 C   0  0  0  0  0  0  0  0  0  0  0  0
  133.6250  124.5550   63.9910 O   0  0  0  0  0  0  0  0  0  0  0  0
  132.3380  126.1240   65.2900 C   0  0  0  0  0  0  0  0  0  0  0  0
  130.8970  125.1340   65.7890 S   0  0  0  0  0  0  0  0  0  0  0  0
  129.7240  126.2540   66.5220 C   0  0  0  0  0  0  0  0  0  0  0  0
  129.7870  126.3020   67.8740 N   0  0  0  0  0  0  0  0  0  0  0  0
  128.9450  127.1130   68.5630 C   0  0  0  0  0  0  0  0  0  0  0  0
  129.0840  127.1120   70.0580 C   0  0  0  0  0  0  0  0  0  0  0  0
  129.6990  128.1780   70.7330 C   0  0  0  0  0  0  0  0  0  0  0  0
  129.8320  128.1720   72.1190 C   0  0  0  0  0  0  0  0  0  0  0  0
  129.3580  127.1010   72.8720 C   0  0  0  0  0  0  0  0  0  0  0  0
  129.5370  127.1780   74.2400 O   0  0  0  0  0  0  0  0  0  0  0  0
  130.6230  126.4790   74.8380 C   0  0  0  0  0  0  0  0  0  0  0  0
  128.7420  126.0280   72.2120 C   0  0  0  0  0  0  0  0  0  0  0  0
  128.6090  126.0390   70.8270 C   0  0  0  0  0  0  0  0  0  0  0  0
  128.0150  127.9120   67.8880 C   0  0  0  0  0  0  0  0  0  0  0  0
  127.9180  127.8710   66.4920 C   0  0  0  0  0  0  0  0  0  0  0  0
  126.8970  128.7450   65.8370 C   0  0  0  0  0  0  0  0  0  0  0  0
  127.2800  129.6510   64.8430 C   0  0  0  0  0  0  0  0  0  0  0  0
  126.3350  130.4680   64.2280 C   0  0  0  0  0  0  0  0  0  0  0  0
  124.9900  130.3930   64.5900 C   0  0  0  0  0  0  0  0  0  0  0  0
  124.1250  131.2460   63.9320 O   0  0  0  0  0  0  0  0  0  0  0  0
  123.8430  131.0240   62.5550 C   0  0  0  0  0  0  0  0  0  0  0  0
  124.5990  129.4770   65.5780 C   0  0  0  0  0  0  0  0  0  0  0  0
  125.5460  128.6600   66.1900 C   0  0  0  0  0  0  0  0  0  0  0  0
  128.7820  127.0020   65.7810 C   0  0  0  0  0  0  0  0  0  0  0  0
  128.6530  126.8420   64.3290 C   0  0  0  0  0  0  0  0  0  0  0  0
  128.5510  126.7160   63.1840 N   0  0  0  0  0  0  0  0  0  0  0  0
  1  2  1  0
  2  3  1  0
  3  4  2  0
  3  5  1  0
  5  6  1  0
  6  7  1  0
  7  8  2  0
  8  9  1  0
  9 10  1  0
 10 11  2  0
 11 12  1  0
 12 13  2  0
 13 14  1  0
 14 15  1  0
 13 16  1  0
 16 17  2  0
  9 18  2  0
 18 19  1  0
 19 20  1  0
 20 21  2  0
 21 22  1  0
 22 23  2  0
 23 24  1  0
 24 25  1  0
 23 26  1  0
 26 27  2  0
 19 28  2  0
 28 29  1  0
 29 30  3  0
 28  7  1  0
 17 10  1  0
 27 20  1  0
M  END
>  <Binding energies>  (4) 
[-7.0]

>  <Ligand effiencies>  (4) 
[-0.23333333333333334]

>  <Interactions>  (4) 
["V-A:GLU:543:CD:4908, V-A:ARG:545:CD:4923, V-A:ARG:545:CG:4922, H-A:TYR:484:OH:4347, V-A:TYR:484:CZ:4346, V-A:ARG:545:CZ:4926, H-A:GLY:454:N:4049, H-A:ARG:545:NE:4924, V-B:GLU:543:CD:9880, V-A:HIS:456:CE1:4069, V-B:HIS:456:CE1:9041, V-B:GLU:543:C:9874, H-B:GLY:454:N:9021, V-B:GLY:454:CA:9020, V-B:ILE:369:CD1:8210, V-A:GLU:543:C:4902, V-B:ARG:545:CG:9894, V-B:ARG:545:CD:9895, V-B:ARG:545:CZ:9898, V-B:HIS:456:CD2:9039, H-A:ILE:455:N:4054, V-A:ILE:455:C:4051"]

$$$$
1j_Grossjean_2025
     RDKit          3D

 20 21  0  0  0  0  0  0  0  0999 V2000
  134.4480  118.7370   60.0410 C   0  0  0  0  0  0  0  0  0  0  0  0
  133.1240  119.4220   60.3220 C   0  0  0  0  0  0  0  0  0  0  0  0
  131.9950  118.7000   60.7010 C   0  0  0  0  0  0  0  0  0  0  0  0
  130.8040  119.3860   60.9600 C   0  0  0  0  0  0  0  0  0  0  0  0
  129.5840  118.5730   61.3910 C   0  0  0  0  0  0  0  0  0  0  0  0
  130.7740  120.7920   60.8240 C   0  0  0  0  0  0  0  0  0  0  0  0
  129.5520  121.5360   61.1420 C   0  0  0  0  0  0  0  0  0  0  0  0
  128.5860  122.1210   61.3950 N   0  0  0  0  0  0  0  0  0  0  0  0
  131.9600  121.4410   60.4090 C   0  0  0  0  0  0  0  0  0  0  0  0
  132.1010  123.2010   60.1850 S   0  0  0  0  0  0  0  0  0  0  0  0
  133.5980  123.7520   61.0550 C   0  0  0  0  0  0  0  0  0  0  0  0
  133.4080  123.7650   62.5730 C   0  0  0  0  0  0  0  0  0  0  0  0
  133.1870  122.7070   63.1630 O   0  0  0  0  0  0  0  0  0  0  0  0
  133.5030  124.9770   63.1620 N   0  0  0  0  0  0  0  0  0  0  0  0
  133.3640  125.2540   64.5140 C   0  0  0  0  0  0  0  0  0  0  0  0
  134.2720  125.1380   65.4600 N   0  0  0  0  0  0  0  0  0  0  0  0
  133.7930  125.4910   66.6360 C   0  0  0  0  0  0  0  0  0  0  0  0
  132.4650  125.9070   66.6610 C   0  0  0  0  0  0  0  0  0  0  0  0
  131.8180  125.8290   65.0500 S   0  0  0  0  0  0  0  0  0  0  0  0
  133.1160  120.7690   60.1810 N   0  0  0  0  0  0  0  0  0  0  0  0
  1  2  1  0
  2  3  2  0
  3  4  1  0
  4  5  1  0
  4  6  2  0
  6  7  1  0
  7  8  3  0
  6  9  1  0
  9 10  1  0
 10 11  1  0
 11 12  1  0
 12 13  2  0
 12 14  1  0
 14 15  1  0
 15 16  2  0
 16 17  1  0
 17 18  2  0
 18 19  1  0
  9 20  2  0
 20  2  1  0
 19 15  1  0
M  END
>  <Binding energies>  (5) 
[-6.84]

>  <Ligand effiencies>  (5) 
[-0.32571428571428573]

>  <Interactions>  (5) 
["V-A:ASP:366:CG:3212, V-A:ARG:545:CD:4923, V-A:ARG:545:CG:4922, H-A:TYR:484:OH:4347, V-A:TYR:484:CZ:4346, H-A:ARG:545:NH1:4927, V-A:ARG:545:CZ:4926, H-A:GLY:454:N:4049, H-A:ASP:366:OD2:3214, H-A:ASP:366:OD1:3213, H-A:ARG:545:NE:4924, V-A:ILE:369:CG2:3236, V-B:TYR:539:CD2:9846, V-B:TYR:539:CE2:9848, H-B:ALA:541:N:9863, V-A:PRO:482:CB:4325, V-A:PRO:482:CG:4326, V-B:ALA:541:CB:9864, V-B:TYR:539:C:9839, V-A:SER:385:C:3404, V-A:HIS:383:CD2:3391, V-A:HIS:456:CE1:4069, V-B:ALA:541:CA:9862, V-A:SER:385:CA:3406, V-B:PRO:540:C:9853, V-A:SER:385:CB:3408"]

$$$$
1o_Grossjean_2025
     RDKit          3D

 26 27  0  0  0  0  0  0  0  0999 V2000
  123.7110  130.6880   61.8750 C   0  0  0  0  0  0  0  0  0  0  0  0
  123.7990  130.6240   63.2920 O   0  0  0  0  0  0  0  0  0  0  0  0
  124.8860  131.1070   63.9470 C   0  0  0  0  0  0  0  0  0  0  0  0
  125.2810  132.2730   63.8420 O   0  0  0  0  0  0  0  0  0  0  0  0
  125.5600  130.0840   64.8150 C   0  0  0  0  0  0  0  0  0  0  0  0
  126.9260  129.7890   64.6920 C   0  0  0  0  0  0  0  0  0  0  0  0
  127.5210  128.8370   65.5150 C   0  0  0  0  0  0  0  0  0  0  0  0
  126.7660  128.1570   66.4720 C   0  0  0  0  0  0  0  0  0  0  0  0
  127.4690  127.2220   67.2560 N   0  0  0  0  0  0  0  0  0  0  0  0
  128.3360  127.4230   68.2730 C   0  0  0  0  0  0  0  0  0  0  0  0
  128.6400  128.5210   68.7390 O   0  0  0  0  0  0  0  0  0  0  0  0
  128.9440  126.1520   68.8840 C   0  0  0  0  0  0  0  0  0  0  0  0
  129.7850  125.3350   67.8840 C   0  0  0  0  0  0  0  0  0  0  0  0
  131.2960  126.1790   67.3290 S   0  0  0  0  0  0  0  0  0  0  0  0
  131.5490  125.8090   65.6050 C   0  0  0  0  0  0  0  0  0  0  0  0
  130.4150  125.8860   64.8640 N   0  0  0  0  0  0  0  0  0  0  0  0
  130.4850  125.6340   63.5360 C   0  0  0  0  0  0  0  0  0  0  0  0
  129.1800  125.7540   62.7720 C   0  0  0  0  0  0  0  0  0  0  0  0
  131.6740  125.2840   62.9000 C   0  0  0  0  0  0  0  0  0  0  0  0
  132.8450  125.1760   63.6580 C   0  0  0  0  0  0  0  0  0  0  0  0
  134.1330  124.7770   62.9400 C   0  0  0  0  0  0  0  0  0  0  0  0
  132.7950  125.4310   65.0480 C   0  0  0  0  0  0  0  0  0  0  0  0
  133.9970  125.2650   65.8680 C   0  0  0  0  0  0  0  0  0  0  0  0
  134.9480  125.1340   66.5130 N   0  0  0  0  0  0  0  0  0  0  0  0
  125.4000  128.4510   66.6040 C   0  0  0  0  0  0  0  0  0  0  0  0
  124.8070  129.4040   65.7810 C   0  0  0  0  0  0  0  0  0  0  0  0
  1  2  1  0
  2  3  1  0
  3  4  2  0
  3  5  1  0
  5  6  2  0
  6  7  1  0
  7  8  2  0
  8  9  1  0
  9 10  1  0
 10 11  2  0
 10 12  1  0
 12 13  1  0
 13 14  1  0
 14 15  1  0
 15 16  2  0
 16 17  1  0
 17 18  1  0
 17 19  2  0
 19 20  1  0
 20 21  1  0
 20 22  2  0
 22 23  1  0
 23 24  3  0
  8 25  1  0
 25 26  2  0
 26  5  1  0
 22 15  1  0
M  END
>  <Binding energies>  (6) 
[-7.47]

>  <Ligand effiencies>  (6) 
[-0.27666666666666667]

>  <Interactions>  (6) 
["V-A:GLU:543:CD:4908, V-A:ASP:366:CG:3212, V-A:ARG:545:CD:4923, V-A:ARG:545:CG:4922, V-A:GLY:453:C:4041, H-A:TYR:484:OH:4347, V-A:GLY:454:CA:4048, V-A:TYR:484:CZ:4346, V-A:ARG:545:CZ:4926, H-A:GLY:454:N:4049, H-A:ARG:545:NE:4924, V-B:GLU:543:CD:9880, V-A:TYR:484:CE2:4345, V-A:HIS:456:CE1:4069, V-B:HIS:456:CE1:9041, V-A:GLY:453:CA:4043, V-B:GLU:543:CB:9878, H-B:GLY:454:N:9021, V-B:GLY:454:CA:9020, V-B:ILE:369:CD1:8210, V-B:ASP:366:CG:8184, H-B:GLU:543:OE2:9882, V-B:ARG:545:CG:9894, V-B:ARG:545:CD:9895, V-B:ARG:545:CZ:9898, H-A:ILE:455:N:4054"]

$$$$
1p_Grossjean_2025
     RDKit          3D

 21 22  0  0  0  0  0  0  0  0999 V2000
  129.2260  125.6890   62.5070 C   0  0  0  0  0  0  0  0  0  0  0  0
  130.4770  125.5790   63.3590 C   0  0  0  0  0  0  0  0  0  0  0  0
  131.7110  125.2480   62.8010 C   0  0  0  0  0  0  0  0  0  0  0  0
  132.8290  125.1460   63.6360 C   0  0  0  0  0  0  0  0  0  0  0  0
  134.1680  124.7680   63.0060 C   0  0  0  0  0  0  0  0  0  0  0  0
  132.6820  125.3900   65.0210 C   0  0  0  0  0  0  0  0  0  0  0  0
  133.8250  125.2440   65.9220 C   0  0  0  0  0  0  0  0  0  0  0  0
  134.7310  125.1280   66.6340 N   0  0  0  0  0  0  0  0  0  0  0  0
  131.3960  125.7430   65.4960 C   0  0  0  0  0  0  0  0  0  0  0  0
  131.0390  126.0920   67.2030 S   0  0  0  0  0  0  0  0  0  0  0  0
  129.2740  126.5100   67.2960 C   0  0  0  0  0  0  0  0  0  0  0  0
  128.9840  127.8130   68.0660 C   0  0  0  0  0  0  0  0  0  0  0  0
  127.9910  128.7410   67.3490 C   0  0  0  0  0  0  0  0  0  0  0  0
  128.1170  129.9620   67.4540 O   0  0  0  0  0  0  0  0  0  0  0  0
  127.0320  128.1220   66.6240 N   0  0  0  0  0  0  0  0  0  0  0  0
  126.0200  128.7210   65.8850 C   0  0  0  0  0  0  0  0  0  0  0  0
  126.1600  129.0640   64.5400 C   0  0  0  0  0  0  0  0  0  0  0  0
  124.9530  129.6220   64.1850 C   0  0  0  0  0  0  0  0  0  0  0  0
  124.1300  129.6180   65.2600 O   0  0  0  0  0  0  0  0  0  0  0  0
  124.8180  129.0450   66.3320 N   0  0  0  0  0  0  0  0  0  0  0  0
  130.3130  125.8180   64.6810 N   0  0  0  0  0  0  0  0  0  0  0  0
  1  2  1  0
  2  3  2  0
  3  4  1  0
  4  5  1  0
  4  6  2  0
  6  7  1  0
  7  8  3  0
  6  9  1  0
  9 10  1  0
 10 11  1  0
 11 12  1  0
 12 13  1  0
 13 14  2  0
 13 15  1  0
 15 16  1  0
 16 17  1  0
 17 18  2  0
 18 19  1  0
 19 20  1  0
  9 21  2  0
 21  2  1  0
 20 16  2  0
M  END
>  <Binding energies>  (7) 
[-6.87]

>  <Ligand effiencies>  (7) 
[-0.31227272727272726]

>  <Interactions>  (7) 
["V-A:ASP:366:CG:3212, V-A:ARG:545:CD:4923, V-A:ARG:545:CG:4922, V-A:GLY:453:C:4041, H-A:TYR:484:OH:4347, V-A:GLY:454:CA:4048, V-A:ARG:545:CZ:4926, H-A:GLY:454:N:4049, H-A:ARG:545:NE:4924, V-B:HIS:456:CE1:9041, V-A:GLY:453:CA:4043, V-A:GLU:543:CB:4906, V-B:GLU:543:CB:9878, H-B:TYR:484:OH:9319, H-B:ARG:545:NH2:9900, H-B:GLY:454:N:9021, H-B:ARG:545:NH1:9899, H-B:GLU:543:OE2:9882, H-B:ARG:545:NE:9896, V-B:ARG:545:CZ:9898, H-A:ILE:455:N:4054"]

$$$$
2a_Ghoteimi_2023
     RDKit          3D

 48 53  0  0  0  0  0  0  0  0999 V2000
  134.6840  123.8860   62.0420 C   0  0  0  0  0  0  0  0  0  0  0  0
  134.1770  122.9540   60.9370 C   0  0  0  0  0  0  0  0  0  0  0  0
  134.3590  123.5770   59.6730 O   0  0  0  0  0  0  0  0  0  0  0  0
  133.3570  123.6150   58.7580 C   0  0  0  0  0  0  0  0  0  0  0  0
  133.4300  123.0800   57.6470 O   0  0  0  0  0  0  0  0  0  0  0  0
  132.1470  124.3670   59.2340 C   0  0  0  0  0  0  0  0  0  0  0  0
  132.2090  125.2720   60.3040 C   0  0  0  0  0  0  0  0  0  0  0  0
  131.0700  125.9530   60.7200 C   0  0  0  0  0  0  0  0  0  0  0  0
  129.8480  125.7500   60.0760 C   0  0  0  0  0  0  0  0  0  0  0  0
  128.7600  126.4880   60.5820 N   0  0  0  0  0  0  0  0  0  0  0  0
  127.4330  126.2650   60.4620 C   0  0  0  0  0  0  0  0  0  0  0  0
  126.9240  125.3510   59.8130 O   0  0  0  0  0  0  0  0  0  0  0  0
  126.5340  127.2820   61.1770 C   0  0  0  0  0  0  0  0  0  0  0  0
  127.4130  128.3840   62.3320 S   0  0  0  0  0  0  0  0  0  0  0  0
  128.1650  127.3140   63.5370 C   0  0  0  0  0  0  0  0  0  0  0  0
  128.6690  126.1710   63.0160 N   0  0  0  0  0  0  0  0  0  0  0  0
  129.2600  125.2680   63.8380 C   0  0  0  0  0  0  0  0  0  0  0  0
  129.7850  124.0250   63.1940 C   0  0  0  0  0  0  0  0  0  0  0  0
  129.0330  123.3290   62.2400 C   0  0  0  0  0  0  0  0  0  0  0  0
  129.5220  122.1660   61.6530 C   0  0  0  0  0  0  0  0  0  0  0  0
  130.7840  121.6580   61.9910 C   0  0  0  0  0  0  0  0  0  0  0  0
  131.2500  120.4710   61.4150 N   0  0  0  0  0  0  0  0  0  0  0  0
  130.5000  119.2050   61.5470 C   0  0  0  0  0  0  0  0  0  0  0  0
  130.9570  118.1060   60.5650 C   0  0  0  0  0  0  0  0  0  0  0  0
  132.3520  117.8860   60.6950 O   0  0  0  0  0  0  0  0  0  0  0  0
  133.0910  119.0610   60.4030 C   0  0  0  0  0  0  0  0  0  0  0  0
  132.7010  120.1910   61.3790 C   0  0  0  0  0  0  0  0  0  0  0  0
  131.5290  122.3530   62.9580 C   0  0  0  0  0  0  0  0  0  0  0  0
  131.0410  123.5170   63.5430 C   0  0  0  0  0  0  0  0  0  0  0  0
  129.3710  125.5040   65.2110 C   0  0  0  0  0  0  0  0  0  0  0  0
  128.8560  126.6800   65.7720 C   0  0  0  0  0  0  0  0  0  0  0  0
  129.0030  126.8660   67.2480 C   0  0  0  0  0  0  0  0  0  0  0  0
  129.4060  128.1000   67.7650 C   0  0  0  0  0  0  0  0  0  0  0  0
  129.5640  128.2760   69.1360 C   0  0  0  0  0  0  0  0  0  0  0  0
  129.3210  127.2250   70.0330 C   0  0  0  0  0  0  0  0  0  0  0  0
  129.4920  127.3760   71.4120 N   0  0  0  0  0  0  0  0  0  0  0  0
  128.8300  126.4290   72.3310 C   0  0  0  0  0  0  0  0  0  0  0  0
  129.4060  126.4650   73.7630 C   0  0  0  0  0  0  0  0  0  0  0  0
  129.3490  127.7880   74.2750 O   0  0  0  0  0  0  0  0  0  0  0  0
  130.0980  128.6920   73.4790 C   0  0  0  0  0  0  0  0  0  0  0  0
  129.5450  128.7110   72.0390 C   0  0  0  0  0  0  0  0  0  0  0  0
  128.9280  125.9870   69.5050 C   0  0  0  0  0  0  0  0  0  0  0  0
  128.7710  125.8090   68.1330 C   0  0  0  0  0  0  0  0  0  0  0  0
  128.2380  127.6220   64.9140 C   0  0  0  0  0  0  0  0  0  0  0  0
  127.7310  128.8950   65.4340 C   0  0  0  0  0  0  0  0  0  0  0  0
  127.3300  129.9000   65.8480 N   0  0  0  0  0  0  0  0  0  0  0  0
  129.7760  124.8400   59.0110 C   0  0  0  0  0  0  0  0  0  0  0  0
  130.9180  124.1600   58.5950 C   0  0  0  0  0  0  0  0  0  0  0  0
  1  2  1  0
  2  3  1  0
  3  4  1  0
  4  5  2  0
  4  6  1  0
  6  7  2  0
  7  8  1  0
  8  9  2  0
  9 10  1  0
 10 11  1  0
 11 12  2  0
 11 13  1  0
 13 14  1  0
 14 15  1  0
 15 16  2  0
 16 17  1  0
 17 18  1  0
 18 19  2  0
 19 20  1  0
 20 21  2  0
 21 22  1  0
 22 23  1  0
 23 24  1  0
 24 25  1  0
 25 26  1  0
 26 27  1  0
 21 28  1  0
 28 29  2  0
 17 30  2  0
 30 31  1  0
 31 32  1  0
 32 33  2  0
 33 34  1  0
 34 35  2  0
 35 36  1  0
 36 37  1  0
 37 38  1  0
 38 39  1  0
 39 40  1  0
 40 41  1  0
 35 42  1  0
 42 43  2  0
 31 44  2  0
 44 45  1  0
 45 46  3  0
  9 47  1  0
 47 48  2  0
 48  6  1  0
 44 15  1  0
 29 18  1  0
 43 32  1  0
 27 22  1  0
 41 36  1  0
M  END
>  <Binding energies>  (8) 
[-8.23]

>  <Ligand effiencies>  (8) 
[-0.1679591836734694]

>  <Interactions>  (8) 
["V-A:GLU:543:CD:4908, V-A:ASP:366:CG:3212, V-A:GLY:453:C:4041, V-A:ASP:366:CA:3209, V-A:ASP:366:CB:3211, V-A:ILE:369:CD1:3238, V-A:ILE:369:CB:3235, V-A:ILE:369:CG2:3236, V-B:TYR:539:CD2:9846, H-A:SER:385:OG:3409, V-B:TYR:539:CE2:9848, V-A:LEU:475:CD1:4257, H-A:HIS:383:NE2:3393, V-A:PRO:482:CG:4326, V-B:GLU:543:CG:9879, V-B:TYR:539:CZ:9849, V-B:ALA:541:CB:9864, V-B:GLU:543:CD:9880, V-A:HIS:456:CE1:4069, V-A:GLU:543:CG:4907, V-B:GLU:543:CA:9876, V-B:HIS:456:CE1:9041, V-A:GLY:453:CA:4043, V-A:GLU:543:CB:4906, V-B:GLU:543:C:9874, V-B:GLU:543:CB:9878, H-B:TYR:484:OH:9319, V-B:ASP:366:CG:8184, V-A:GLU:543:C:4902, V-B:HIS:456:CD2:9039, H-B:TYR:539:OH:9850, H-A:LYS:547:NZ:4951, V-A:LYS:547:CE:4950, H-A:ASN:370:N:3243"]

$$$$
2aa_Ghoteimi_2023
     RDKit          3D

 48 53  0  0  0  0  0  0  0  0999 V2000
  127.2930  135.9800   61.4010 C   0  0  0  0  0  0  0  0  0  0  0  0
  126.3760  136.4810   60.2800 C   0  0  0  0  0  0  0  0  0  0  0  0
  125.5320  135.4200   59.8530 O   0  0  0  0  0  0  0  0  0  0  0  0
  124.5080  134.9810   60.6310 C   0  0  0  0  0  0  0  0  0  0  0  0
  123.3830  135.4920   60.6270 O   0  0  0  0  0  0  0  0  0  0  0  0
  124.8760  133.8020   61.4860 C   0  0  0  0  0  0  0  0  0  0  0  0
  124.0450  133.3500   62.5220 C   0  0  0  0  0  0  0  0  0  0  0  0
  124.4110  132.2520   63.2940 C   0  0  0  0  0  0  0  0  0  0  0  0
  125.6160  131.5900   63.0540 C   0  0  0  0  0  0  0  0  0  0  0  0
  125.8860  130.4900   63.8930 N   0  0  0  0  0  0  0  0  0  0  0  0
  125.0440  129.7450   64.6400 C   0  0  0  0  0  0  0  0  0  0  0  0
  123.8220  129.8970   64.6940 O   0  0  0  0  0  0  0  0  0  0  0  0
  125.7210  128.6260   65.4420 C   0  0  0  0  0  0  0  0  0  0  0  0
  127.1280  128.8790   65.5270 O   0  0  0  0  0  0  0  0  0  0  0  0
  127.9770  127.9230   66.0690 C   0  0  0  0  0  0  0  0  0  0  0  0
  128.1500  127.9130   67.4200 N   0  0  0  0  0  0  0  0  0  0  0  0
  128.9700  126.9890   67.9820 C   0  0  0  0  0  0  0  0  0  0  0  0
  129.1160  127.0420   69.4700 C   0  0  0  0  0  0  0  0  0  0  0  0
  128.6540  125.9920   70.2710 C   0  0  0  0  0  0  0  0  0  0  0  0
  128.7930  126.0320   71.6560 C   0  0  0  0  0  0  0  0  0  0  0  0
  129.4130  127.1200   72.2910 C   0  0  0  0  0  0  0  0  0  0  0  0
  129.5490  127.1830   73.6830 N   0  0  0  0  0  0  0  0  0  0  0  0
  130.8340  126.8760   74.3450 C   0  0  0  0  0  0  0  0  0  0  0  0
  130.7110  126.6490   75.8660 C   0  0  0  0  0  0  0  0  0  0  0  0
  130.0810  127.7640   76.4750 O   0  0  0  0  0  0  0  0  0  0  0  0
  128.7740  127.9670   75.9600 C   0  0  0  0  0  0  0  0  0  0  0  0
  128.8390  128.2330   74.4410 C   0  0  0  0  0  0  0  0  0  0  0  0
  129.8540  128.1800   71.4860 C   0  0  0  0  0  0  0  0  0  0  0  0
  129.7120  128.1400   70.1020 C   0  0  0  0  0  0  0  0  0  0  0  0
  129.6530  126.0560   67.1970 C   0  0  0  0  0  0  0  0  0  0  0  0
  129.5010  126.0520   65.8050 C   0  0  0  0  0  0  0  0  0  0  0  0
  130.2770  125.0470   65.0160 C   0  0  0  0  0  0  0  0  0  0  0  0
  129.7540  123.7720   64.7890 C   0  0  0  0  0  0  0  0  0  0  0  0
  130.4800  122.8250   64.0730 C   0  0  0  0  0  0  0  0  0  0  0  0
  131.7580  123.1210   63.5740 C   0  0  0  0  0  0  0  0  0  0  0  0
  132.5030  122.1870   62.8490 N   0  0  0  0  0  0  0  0  0  0  0  0
  133.9050  122.4490   62.4720 C   0  0  0  0  0  0  0  0  0  0  0  0
  134.6610  121.1880   62.0000 C   0  0  0  0  0  0  0  0  0  0  0  0
  133.9560  120.5720   60.9320 O   0  0  0  0  0  0  0  0  0  0  0  0
  132.6500  120.1810   61.3260 C   0  0  0  0  0  0  0  0  0  0  0  0
  131.8420  121.4140   61.7780 C   0  0  0  0  0  0  0  0  0  0  0  0
  132.2710  124.4060   63.8010 C   0  0  0  0  0  0  0  0  0  0  0  0
  131.5450  125.3530   64.5160 C   0  0  0  0  0  0  0  0  0  0  0  0
  128.6270  127.0030   65.2280 C   0  0  0  0  0  0  0  0  0  0  0  0
  128.3680  127.0410   63.7860 C   0  0  0  0  0  0  0  0  0  0  0  0
  128.1640  127.0700   62.6480 N   0  0  0  0  0  0  0  0  0  0  0  0
  126.4490  132.0310   62.0160 C   0  0  0  0  0  0  0  0  0  0  0  0
  126.0790  133.1270   61.2430 C   0  0  0  0  0  0  0  0  0  0  0  0
  1  2  1  0
  2  3  1  0
  3  4  1  0
  4  5  2  0
  4  6  1  0
  6  7  2  0
  7  8  1  0
  8  9  2  0
  9 10  1  0
 10 11  1  0
 11 12  2  0
 11 13  1  0
 13 14  1  0
 14 15  1  0
 15 16  2  0
 16 17  1  0
 17 18  1  0
 18 19  2  0
 19 20  1  0
 20 21  2  0
 21 22  1  0
 22 23  1  0
 23 24  1  0
 24 25  1  0
 25 26  1  0
 26 27  1  0
 21 28  1  0
 28 29  2  0
 17 30  2  0
 30 31  1  0
 31 32  1  0
 32 33  2  0
 33 34  1  0
 34 35  2  0
 35 36  1  0
 36 37  1  0
 37 38  1  0
 38 39  1  0
 39 40  1  0
 40 41  1  0
 35 42  1  0
 42 43  2  0
 31 44  2  0
 44 45  1  0
 45 46  3  0
  9 47  1  0
 47 48  2  0
 48  6  1  0
 44 15  1  0
 29 18  1  0
 43 32  1  0
 27 22  1  0
 41 36  1  0
M  END
>  <Binding energies>  (9) 
[-9.66]

>  <Ligand effiencies>  (9) 
[-0.19714285714285715]

>  <Interactions>  (9) 
["V-A:ALA:541:CB:4892, V-A:TYR:539:CD1:4873, V-B:LEU:475:CD1:9229, V-A:GLU:543:CD:4908, V-A:GLY:454:CA:4048, V-A:ILE:369:CD1:3238, V-A:ILE:369:CG2:3236, V-A:LEU:475:CD1:4257, V-B:GLU:543:CG:9879, V-B:ALA:541:CB:9864, V-B:GLU:543:CD:9880, V-A:SER:385:C:3404, V-A:HIS:456:CE1:4069, V-B:HIS:456:CE1:9041, V-B:GLU:543:C:9874, V-B:GLU:543:CB:9878, H-B:TYR:484:OH:9319, H-B:ARG:545:NH2:9900, H-B:GLY:454:N:9021, V-B:PRO:482:CB:9297, V-A:TYR:539:CB:4871, V-B:GLY:454:CA:9020, V-B:ILE:369:CG2:8208, V-B:ILE:369:CD1:8210, H-B:ARG:545:NH1:9899, V-B:PRO:482:CG:9298, V-B:SER:385:CB:8380, V-A:GLU:543:C:4902, V-B:ARG:545:CZ:9898, V-B:HIS:456:CD2:9039, V-A:TYR:539:CG:4872, H-A:LYS:547:NZ:4951, H-B:SER:385:OG:8381"]

$$$$
2b_Ghoteimi_2023
     RDKit          3D

 42 47  0  0  0  0  0  0  0  0999 V2000
  127.7840  129.3520   67.7600 N   0  0  0  0  0  0  0  0  0  0  0  0
  128.1140  128.4730   67.0830 C   0  0  0  0  0  0  0  0  0  0  0  0
  128.5300  127.3650   66.2190 C   0  0  0  0  0  0  0  0  0  0  0  0
  128.4070  127.4630   64.8110 C   0  0  0  0  0  0  0  0  0  0  0  0
  127.8630  128.6620   64.1070 C   0  0  0  0  0  0  0  0  0  0  0  0
  126.5780  129.1260   64.3960 C   0  0  0  0  0  0  0  0  0  0  0  0
  126.0660  130.2430   63.7410 C   0  0  0  0  0  0  0  0  0  0  0  0
  126.8190  130.9160   62.7670 C   0  0  0  0  0  0  0  0  0  0  0  0
  126.3320  132.0460   62.1070 N   0  0  0  0  0  0  0  0  0  0  0  0
  127.1760  132.7040   61.0900 C   0  0  0  0  0  0  0  0  0  0  0  0
  126.6960  134.1240   60.7230 C   0  0  0  0  0  0  0  0  0  0  0  0
  125.3360  134.0910   60.3150 O   0  0  0  0  0  0  0  0  0  0  0  0
  124.4930  133.5930   61.3420 C   0  0  0  0  0  0  0  0  0  0  0  0
  124.9120  132.1570   61.7160 C   0  0  0  0  0  0  0  0  0  0  0  0
  128.1060  130.4410   62.4810 C   0  0  0  0  0  0  0  0  0  0  0  0
  128.6200  129.3270   63.1380 C   0  0  0  0  0  0  0  0  0  0  0  0
  128.8230  126.3800   64.0270 C   0  0  0  0  0  0  0  0  0  0  0  0
  129.3760  125.2450   64.6260 C   0  0  0  0  0  0  0  0  0  0  0  0
  129.8630  124.0740   63.8330 C   0  0  0  0  0  0  0  0  0  0  0  0
  131.1720  123.6030   63.9850 C   0  0  0  0  0  0  0  0  0  0  0  0
  131.6270  122.5040   63.2630 C   0  0  0  0  0  0  0  0  0  0  0  0
  130.7940  121.8410   62.3480 C   0  0  0  0  0  0  0  0  0  0  0  0
  131.2270  120.7160   61.6370 N   0  0  0  0  0  0  0  0  0  0  0  0
  132.6700  120.5080   61.3980 C   0  0  0  0  0  0  0  0  0  0  0  0
  132.9710  119.4720   60.2930 C   0  0  0  0  0  0  0  0  0  0  0  0
  132.3210  118.2450   60.5880 O   0  0  0  0  0  0  0  0  0  0  0  0
  130.9140  118.4060   60.6570 C   0  0  0  0  0  0  0  0  0  0  0  0
  130.5500  119.4110   61.7700 C   0  0  0  0  0  0  0  0  0  0  0  0
  129.4810  122.3110   62.2040 C   0  0  0  0  0  0  0  0  0  0  0  0
  129.0260  123.4090   62.9290 C   0  0  0  0  0  0  0  0  0  0  0  0
  129.4950  125.1530   65.9750 N   0  0  0  0  0  0  0  0  0  0  0  0
  129.0680  126.1730   66.7560 C   0  0  0  0  0  0  0  0  0  0  0  0
  129.2950  125.8820   68.4970 S   0  0  0  0  0  0  0  0  0  0  0  0
  129.7110  127.4730   69.2700 C   0  0  0  0  0  0  0  0  0  0  0  0
  129.3730  127.4940   70.7620 C   0  0  0  0  0  0  0  0  0  0  0  0
  129.1580  126.4300   71.3470 O   0  0  0  0  0  0  0  0  0  0  0  0
  129.3310  128.7170   71.3320 N   0  0  0  0  0  0  0  0  0  0  0  0
  129.0620  129.0190   72.6590 C   0  0  0  0  0  0  0  0  0  0  0  0
  128.3650  128.1600   73.5080 C   0  0  0  0  0  0  0  0  0  0  0  0
  128.3100  128.8170   74.7150 C   0  0  0  0  0  0  0  0  0  0  0  0
  128.9410  130.0090   74.6000 O   0  0  0  0  0  0  0  0  0  0  0  0
  129.4160  130.1260   73.2910 N   0  0  0  0  0  0  0  0  0  0  0  0
  1  2  3  0
  2  3  1  0
  3  4  2  0
  4  5  1  0
  5  6  2  0
  6  7  1  0
  7  8  2  0
  8  9  1  0
  9 10  1  0
 10 11  1  0
 11 12  1  0
 12 13  1  0
 13 14  1  0
  8 15  1  0
 15 16  2  0
  4 17  1  0
 17 18  2  0
 18 19  1  0
 19 20  2  0
 20 21  1  0
 21 22  2  0
 22 23  1  0
 23 24  1  0
 24 25  1  0
 25 26  1  0
 26 27  1  0
 27 28  1  0
 22 29  1  0
 29 30  2  0
 18 31  1  0
 31 32  2  0
 32 33  1  0
 33 34  1  0
 34 35  1  0
 35 36  2  0
 35 37  1  0
 37 38  1  0
 38 39  1  0
 39 40  2  0
 40 41  1  0
 41 42  1  0
 32  3  1  0
 42 38  2  0
 16  5  1  0
 30 19  1  0
 14  9  1  0
 28 23  1  0
M  END
>  <Binding energies>  (10) 
[-9.81]

>  <Ligand effiencies>  (10) 
[-0.22813953488372093]

>  <Interactions>  (10) 
["V-A:TYR:539:CE1:4875, V-A:TYR:539:CD1:4873, V-B:LEU:475:CD1:9229, V-A:GLU:543:CD:4908, H-A:TYR:484:OH:4347, V-A:ILE:369:CG2:3236, V-B:TYR:539:CD2:9846, H-A:SER:385:OG:3409, V-A:LEU:475:CD1:4257, H-A:HIS:383:NE2:3393, V-A:PRO:482:CG:4326, V-B:GLU:543:CG:9879, V-B:ALA:541:CB:9864, V-B:GLU:543:CD:9880, V-A:HIS:456:CE1:4069, V-B:HIS:456:CE1:9041, V-B:GLU:543:CB:9878, H-B:TYR:484:OH:9319, V-B:ILE:369:CG2:8208, V-B:ILE:369:CD1:8210, V-A:GLU:543:C:4902, V-B:HIS:456:CD2:9039, H-A:GLU:543:O:4903, H-B:HIS:456:NE2:9042, H-A:LYS:547:NZ:4951"]

$$$$
2c_Ghoteimi_2023
     RDKit          3D

 42 47  0  0  0  0  0  0  0  0999 V2000
  128.8370  126.2740   60.1230 N   0  0  0  0  0  0  0  0  0  0  0  0
  128.8700  126.3330   61.2780 C   0  0  0  0  0  0  0  0  0  0  0  0
  128.9160  126.4040   62.7420 C   0  0  0  0  0  0  0  0  0  0  0  0
  129.4660  125.3390   63.4980 C   0  0  0  0  0  0  0  0  0  0  0  0
  130.0250  124.0920   62.8950 C   0  0  0  0  0  0  0  0  0  0  0  0
  131.4050  123.8780   62.8770 C   0  0  0  0  0  0  0  0  0  0  0  0
  131.9340  122.7170   62.3210 C   0  0  0  0  0  0  0  0  0  0  0  0
  131.0990  121.7420   61.7540 C   0  0  0  0  0  0  0  0  0  0  0  0
  131.6060  120.5600   61.2080 N   0  0  0  0  0  0  0  0  0  0  0  0
  133.0660  120.3370   61.2000 C   0  0  0  0  0  0  0  0  0  0  0  0
  133.5040  119.2090   60.2430 C   0  0  0  0  0  0  0  0  0  0  0  0
  132.8110  118.0100   60.5540 O   0  0  0  0  0  0  0  0  0  0  0  0
  131.4060  118.1690   60.4280 C   0  0  0  0  0  0  0  0  0  0  0  0
  130.9120  119.2710   61.3890 C   0  0  0  0  0  0  0  0  0  0  0  0
  129.7150  121.9680   61.7730 C   0  0  0  0  0  0  0  0  0  0  0  0
  129.1860  123.1280   62.3310 C   0  0  0  0  0  0  0  0  0  0  0  0
  129.4900  125.4550   64.8940 C   0  0  0  0  0  0  0  0  0  0  0  0
  129.0050  126.6100   65.5170 C   0  0  0  0  0  0  0  0  0  0  0  0
  129.0240  126.7900   67.0010 C   0  0  0  0  0  0  0  0  0  0  0  0
  129.0360  128.0690   67.5650 C   0  0  0  0  0  0  0  0  0  0  0  0
  129.0480  128.2430   68.9470 C   0  0  0  0  0  0  0  0  0  0  0  0
  129.0610  127.1420   69.8170 C   0  0  0  0  0  0  0  0  0  0  0  0
  129.0480  127.2990   71.2070 N   0  0  0  0  0  0  0  0  0  0  0  0
  128.6770  126.1610   72.0730 C   0  0  0  0  0  0  0  0  0  0  0  0
  128.3330  126.5710   73.5200 C   0  0  0  0  0  0  0  0  0  0  0  0
  129.4060  127.3050   74.0850 O   0  0  0  0  0  0  0  0  0  0  0  0
  129.6680  128.4910   73.3520 C   0  0  0  0  0  0  0  0  0  0  0  0
  130.0470  128.1410   71.8970 C   0  0  0  0  0  0  0  0  0  0  0  0
  129.0370  125.8610   69.2470 C   0  0  0  0  0  0  0  0  0  0  0  0
  129.0230  125.6880   67.8650 C   0  0  0  0  0  0  0  0  0  0  0  0
  128.4810  127.6290   64.7900 N   0  0  0  0  0  0  0  0  0  0  0  0
  128.4180  127.5270   63.4410 C   0  0  0  0  0  0  0  0  0  0  0  0
  127.6930  128.9460   62.6520 S   0  0  0  0  0  0  0  0  0  0  0  0
  128.6480  130.4050   63.1700 C   0  0  0  0  0  0  0  0  0  0  0  0
  129.5410  130.9340   62.0470 C   0  0  0  0  0  0  0  0  0  0  0  0
  129.2590  132.0040   61.5040 O   0  0  0  0  0  0  0  0  0  0  0  0
  130.5980  130.1570   61.7270 N   0  0  0  0  0  0  0  0  0  0  0  0
  131.5600  130.4200   60.7640 C   0  0  0  0  0  0  0  0  0  0  0  0
  131.4100  130.4440   59.4570 N   0  0  0  0  0  0  0  0  0  0  0  0
  132.5390  130.7360   58.8440 C   0  0  0  0  0  0  0  0  0  0  0  0
  133.6440  130.9580   59.6620 C   0  0  0  0  0  0  0  0  0  0  0  0
  133.1640  130.7700   61.3220 S   0  0  0  0  0  0  0  0  0  0  0  0
  1  2  3  0
  2  3  1  0
  3  4  2  0
  4  5  1  0
  5  6  2  0
  6  7  1  0
  7  8  2  0
  8  9  1  0
  9 10  1  0
 10 11  1  0
 11 12  1  0
 12 13  1  0
 13 14  1  0
  8 15  1  0
 15 16  2  0
  4 17  1  0
 17 18  2  0
 18 19  1  0
 19 20  2  0
 20 21  1  0
 21 22  2  0
 22 23  1  0
 23 24  1  0
 24 25  1  0
 25 26  1  0
 26 27  1  0
 27 28  1  0
 22 29  1  0
 29 30  2  0
 18 31  1  0
 31 32  2  0
 32 33  1  0
 33 34  1  0
 34 35  1  0
 35 36  2  0
 35 37  1  0
 37 38  1  0
 38 39  2  0
 39 40  1  0
 40 41  2  0
 41 42  1  0
 32  3  1  0
 42 38  1  0
 16  5  1  0
 30 19  1  0
 14  9  1  0
 28 23  1  0
M  END
>  <Binding energies>  (11) 
[-9.66]

>  <Ligand effiencies>  (11) 
[-0.2246511627906977]

>  <Interactions>  (11) 
["V-A:ASN:362:CB:3175, V-A:ALA:541:CB:4892, V-A:PRO:540:CA:4883, V-A:GLU:543:CD:4908, V-A:PRO:540:CB:4885, V-A:ASP:366:CG:3212, H-A:GLU:543:OE2:4910, H-A:GLU:543:OE1:4909, H-A:ASP:366:OD2:3214, V-A:ILE:369:CG2:3236, V-B:TYR:539:CD2:9846, H-A:SER:385:OG:3409, V-A:LEU:475:CD1:4257, H-A:HIS:383:NE2:3393, V-A:PRO:482:CG:4326, V-B:GLU:543:CG:9879, V-B:ALA:541:CB:9864, V-B:GLU:543:CD:9880, V-A:HIS:456:CE1:4069, V-A:GLU:543:CG:4907, V-B:HIS:456:CE1:9041, V-A:GLU:543:CB:4906, V-B:GLU:543:C:9874, V-B:GLU:543:CB:9878, H-A:ALA:541:N:4891, V-A:SER:385:CA:3406, V-B:HIS:456:CD2:9039, V-A:LYS:547:CE:4950, V-A:ASN:362:C:3171, V-A:LEU:363:CB:3186, V-A:LEU:363:CA:3184"]

$$$$
2j_Grossjean_2025
     RDKit          3D

 23 24  0  0  0  0  0  0  0  0999 V2000
  129.0560  123.1070   61.8140 C   0  0  0  0  0  0  0  0  0  0  0  0
  130.0990  122.0790   61.4170 C   0  0  0  0  0  0  0  0  0  0  0  0
  129.8100  120.7170   61.3970 C   0  0  0  0  0  0  0  0  0  0  0  0
  130.8070  119.8050   61.0200 C   0  0  0  0  0  0  0  0  0  0  0  0
  130.4700  118.3010   61.0020 C   0  0  0  0  0  0  0  0  0  0  0  0
  131.2480  117.6500   61.8670 F   0  0  0  0  0  0  0  0  0  0  0  0
  129.1940  118.1150   61.3430 F   0  0  0  0  0  0  0  0  0  0  0  0
  130.6500  117.7460   59.8020 F   0  0  0  0  0  0  0  0  0  0  0  0
  132.0860  120.3070   60.6700 C   0  0  0  0  0  0  0  0  0  0  0  0
  133.1650  119.4000   60.2680 C   0  0  0  0  0  0  0  0  0  0  0  0
  134.0170  118.6830   59.9500 N   0  0  0  0  0  0  0  0  0  0  0  0
  132.2920  121.7060   60.7190 C   0  0  0  0  0  0  0  0  0  0  0  0
  133.8610  122.4500   60.2980 S   0  0  0  0  0  0  0  0  0  0  0  0
  134.0080  124.0310   61.1980 C   0  0  0  0  0  0  0  0  0  0  0  0
  133.7160  123.9470   62.7030 C   0  0  0  0  0  0  0  0  0  0  0  0
  133.5020  122.8590   63.2430 O   0  0  0  0  0  0  0  0  0  0  0  0
  133.7060  125.1360   63.3450 N   0  0  0  0  0  0  0  0  0  0  0  0
  133.4730  125.3460   64.6980 C   0  0  0  0  0  0  0  0  0  0  0  0
  134.3190  125.2040   65.6950 N   0  0  0  0  0  0  0  0  0  0  0  0
  133.7580  125.4920   66.8530 C   0  0  0  0  0  0  0  0  0  0  0  0
  132.4220  125.8790   66.8100 C   0  0  0  0  0  0  0  0  0  0  0  0
  131.8820  125.8620   65.1580 S   0  0  0  0  0  0  0  0  0  0  0  0
  131.3130  122.5720   61.0840 N   0  0  0  0  0  0  0  0  0  0  0  0
  1  2  1  0
  2  3  2  0
  3  4  1  0
  4  5  1  0
  5  6  1  0
  5  7  1  0
  5  8  1  0
  4  9  2  0
  9 10  1  0
 10 11  3  0
  9 12  1  0
 12 13  1  0
 13 14  1  0
 14 15  1  0
 15 16  2  0
 15 17  1  0
 17 18  1  0
 18 19  2  0
 19 20  1  0
 20 21  2  0
 21 22  1  0
 12 23  2  0
 23  2  1  0
 22 18  1  0
M  END
>  <Binding energies>  (12) 
[-6.42]

>  <Ligand effiencies>  (12) 
[-0.2675]

>  <Interactions>  (12) 
["V-A:ASP:366:CG:3212, V-A:ARG:545:CD:4923, V-A:ARG:545:CG:4922, H-A:TYR:484:OH:4347, V-A:TYR:484:CZ:4346, V-A:ILE:369:CD1:3238, V-A:ARG:545:CZ:4926, H-A:GLY:454:N:4049, H-A:ASP:366:OD2:3214, H-A:ASP:366:OD1:3213, H-A:ARG:545:NE:4924, V-A:ILE:369:CG2:3236, V-B:TYR:539:CD2:9846, H-A:SER:385:OG:3409, V-B:TYR:539:CE2:9848, V-A:LEU:475:CD1:4257, V-A:PRO:482:CB:4325, H-A:HIS:383:NE2:3393, V-A:PRO:482:CG:4326, V-B:PRO:540:CA:9855, V-B:TYR:539:CG:9844, V-B:ALA:541:CB:9864, V-B:TYR:539:C:9839, V-A:HIS:456:CE1:4069, V-B:ALA:541:CA:9862, V-A:GLY:453:CA:4043, V-B:PRO:540:C:9853, V-B:TYR:539:CB:9843, V-A:PRO:482:CD:4327"]

$$$$
3ab_Grossjean_2025
     RDKit          3D

 33 35  0  0  0  0  0  0  0  0999 V2000
  128.6300  127.8240   67.4770 C   0  0  0  0  0  0  0  0  0  0  0  0
  129.4220  127.0500   68.3670 O   0  0  0  0  0  0  0  0  0  0  0  0
  129.6820  125.7420   68.1130 C   0  0  0  0  0  0  0  0  0  0  0  0
  129.3540  124.8240   68.8690 O   0  0  0  0  0  0  0  0  0  0  0  0
  130.4070  125.5220   66.8160 C   0  0  0  0  0  0  0  0  0  0  0  0
  131.6680  126.0840   66.5650 C   0  0  0  0  0  0  0  0  0  0  0  0
  132.3170  125.8620   65.3540 C   0  0  0  0  0  0  0  0  0  0  0  0
  131.7110  125.0710   64.3660 C   0  0  0  0  0  0  0  0  0  0  0  0
  132.2770  124.7760   63.1100 N   0  0  0  0  0  0  0  0  0  0  0  0
  133.5690  124.7740   62.7210 C   0  0  0  0  0  0  0  0  0  0  0  0
  134.5310  125.0590   63.4340 O   0  0  0  0  0  0  0  0  0  0  0  0
  133.8140  124.3810   61.2630 C   0  0  0  0  0  0  0  0  0  0  0  0
  134.0600  122.5900   61.0680 S   0  0  0  0  0  0  0  0  0  0  0  0
  132.4540  121.8220   61.1170 C   0  0  0  0  0  0  0  0  0  0  0  0
  131.4370  122.7030   61.2690 N   0  0  0  0  0  0  0  0  0  0  0  0
  130.1560  122.2550   61.3170 C   0  0  0  0  0  0  0  0  0  0  0  0
  129.0880  123.2940   61.4840 C   0  0  0  0  0  0  0  0  0  0  0  0
  127.7350  122.9280   61.5610 C   0  0  0  0  0  0  0  0  0  0  0  0
  126.7390  123.8890   61.7170 C   0  0  0  0  0  0  0  0  0  0  0  0
  127.0840  125.2340   61.7980 C   0  0  0  0  0  0  0  0  0  0  0  0
  128.4170  125.6240   61.7200 C   0  0  0  0  0  0  0  0  0  0  0  0
  129.4090  124.6600   61.5640 C   0  0  0  0  0  0  0  0  0  0  0  0
  129.8720  120.8870   61.2330 C   0  0  0  0  0  0  0  0  0  0  0  0
  130.9100  119.9530   61.0950 C   0  0  0  0  0  0  0  0  0  0  0  0
  130.5550  118.4560   61.0120 C   0  0  0  0  0  0  0  0  0  0  0  0
  131.2850  117.7050   61.8390 F   0  0  0  0  0  0  0  0  0  0  0  0
  129.2740  118.2690   61.3290 F   0  0  0  0  0  0  0  0  0  0  0  0
  130.7640  118.0080   59.7730 F   0  0  0  0  0  0  0  0  0  0  0  0
  132.2450  120.4270   61.0430 C   0  0  0  0  0  0  0  0  0  0  0  0
  133.3690  119.4910   60.9570 C   0  0  0  0  0  0  0  0  0  0  0  0
  134.2550  118.7490   60.8880 N   0  0  0  0  0  0  0  0  0  0  0  0
  130.4590  124.5060   64.6140 C   0  0  0  0  0  0  0  0  0  0  0  0
  129.8120  124.7310   65.8250 C   0  0  0  0  0  0  0  0  0  0  0  0
  1  2  1  0
  2  3  1  0
  3  4  2  0
  3  5  1  0
  5  6  2  0
  6  7  1  0
  7  8  2  0
  8  9  1  0
  9 10  1  0
 10 11  2  0
 10 12  1  0
 12 13  1  0
 13 14  1  0
 14 15  2  0
 15 16  1  0
 16 17  1  0
 17 18  2  0
 18 19  1  0
 19 20  2  0
 20 21  1  0
 21 22  2  0
 16 23  2  0
 23 24  1  0
 24 25  1  0
 25 26  1  0
 25 27  1  0
 25 28  1  0
 24 29  2  0
 29 30  1  0
 30 31  3  0
  8 32  1  0
 32 33  2  0
 33  5  1  0
 29 14  1  0
 22 17  1  0
M  END
>  <Binding energies>  (13) 
[-7.53]

>  <Ligand effiencies>  (13) 
[-0.2214705882352941]

>  <Interactions>  (13) 
["V-A:ASP:366:CG:3212, V-A:TYR:484:CZ:4346, H-A:ARG:545:NH2:4928, H-A:ARG:545:NH1:4927, V-A:ARG:545:CZ:4926, H-A:GLY:454:N:4049, V-A:ILE:369:CG2:3236, V-B:TYR:539:CD2:9846, H-A:SER:385:OG:3409, V-A:LEU:475:CD1:4257, V-A:PRO:482:CB:4325, H-A:HIS:383:NE2:3393, V-A:PRO:482:CG:4326, V-B:PRO:540:CA:9855, V-B:TYR:539:CG:9844, V-B:GLU:543:CG:9879, V-B:ALA:541:CB:9864, V-B:GLU:543:CD:9880, V-B:TYR:539:C:9839, V-A:TYR:484:CE2:4345, V-A:HIS:456:CE1:4069, V-B:ALA:541:CA:9862, V-B:HIS:456:CE1:9041, V-B:GLU:543:CB:9878, V-B:PRO:540:C:9853, V-B:TYR:539:CB:9843, V-A:PRO:482:CD:4327"]

$$$$
3ac_Grossjean_2025
     RDKit          3D

 31 33  0  0  0  0  0  0  0  0999 V2000
  124.1350  130.6080   63.1990 C   0  0  0  0  0  0  0  0  0  0  0  0
  124.3660  130.4140   64.5910 O   0  0  0  0  0  0  0  0  0  0  0  0
  125.4700  129.6910   64.9980 C   0  0  0  0  0  0  0  0  0  0  0  0
  125.3090  128.8920   66.1290 C   0  0  0  0  0  0  0  0  0  0  0  0
  126.3640  128.1240   66.6110 C   0  0  0  0  0  0  0  0  0  0  0  0
  127.6040  128.1510   65.9710 C   0  0  0  0  0  0  0  0  0  0  0  0
  128.6040  127.3260   66.5190 N   0  0  0  0  0  0  0  0  0  0  0  0
  128.5310  126.4870   67.5750 C   0  0  0  0  0  0  0  0  0  0  0  0
  127.5170  126.2640   68.2380 O   0  0  0  0  0  0  0  0  0  0  0  0
  129.8330  125.7740   67.9420 C   0  0  0  0  0  0  0  0  0  0  0  0
  131.2790  126.5240   67.1320 S   0  0  0  0  0  0  0  0  0  0  0  0
  131.4330  125.8430   65.4920 C   0  0  0  0  0  0  0  0  0  0  0  0
  130.2580  125.8080   64.8170 N   0  0  0  0  0  0  0  0  0  0  0  0
  130.2200  125.3200   63.5500 C   0  0  0  0  0  0  0  0  0  0  0  0
  128.8790  125.3090   62.8770 C   0  0  0  0  0  0  0  0  0  0  0  0
  128.3450  124.1180   62.3590 C   0  0  0  0  0  0  0  0  0  0  0  0
  127.1000  124.1000   61.7380 C   0  0  0  0  0  0  0  0  0  0  0  0
  126.3690  125.2780   61.6250 C   0  0  0  0  0  0  0  0  0  0  0  0
  126.8760  126.4730   62.1240 C   0  0  0  0  0  0  0  0  0  0  0  0
  128.1230  126.4860   62.7440 C   0  0  0  0  0  0  0  0  0  0  0  0
  131.3770  124.8350   62.9340 C   0  0  0  0  0  0  0  0  0  0  0  0
  132.6010  124.8400   63.6180 C   0  0  0  0  0  0  0  0  0  0  0  0
  133.8520  124.2900   62.9030 C   0  0  0  0  0  0  0  0  0  0  0  0
  133.7530  124.3450   61.5730 F   0  0  0  0  0  0  0  0  0  0  0  0
  134.9300  124.9960   63.2500 F   0  0  0  0  0  0  0  0  0  0  0  0
  134.0430  123.0150   63.2410 F   0  0  0  0  0  0  0  0  0  0  0  0
  132.6360  125.3440   64.9420 C   0  0  0  0  0  0  0  0  0  0  0  0
  133.8740  125.2980   65.7230 C   0  0  0  0  0  0  0  0  0  0  0  0
  134.8530  125.2610   66.3400 N   0  0  0  0  0  0  0  0  0  0  0  0
  127.7730  128.9470   64.8270 C   0  0  0  0  0  0  0  0  0  0  0  0
  126.7140  129.7130   64.3470 C   0  0  0  0  0  0  0  0  0  0  0  0
  1  2  1  0
  2  3  1  0
  3  4  2  0
  4  5  1  0
  5  6  2  0
  6  7  1  0
  7  8  1  0
  8  9  2  0
  8 10  1  0
 10 11  1  0
 11 12  1  0
 12 13  2  0
 13 14  1  0
 14 15  1  0
 15 16  2  0
 16 17  1  0
 17 18  2  0
 18 19  1  0
 19 20  2  0
 14 21  2  0
 21 22  1  0
 22 23  1  0
 23 24  1  0
 23 25  1  0
 23 26  1  0
 22 27  2  0
 27 28  1  0
 28 29  3  0
  6 30  1  0
 30 31  2  0
 31  3  1  0
 27 12  1  0
 20 15  1  0
M  END
>  <Binding energies>  (14) 
[-7.27]

>  <Ligand effiencies>  (14) 
[-0.2271875]

>  <Interactions>  (14) 
["V-A:GLU:543:CD:4908, V-A:ASP:366:CG:3212, V-A:ARG:545:CD:4923, V-A:ARG:545:CG:4922, V-A:GLY:453:C:4041, H-A:TYR:484:OH:4347, V-A:GLY:454:CA:4048, H-A:GLU:543:OE1:4909, V-A:ARG:545:CZ:4926, H-A:GLY:454:N:4049, H-A:ARG:545:NE:4924, V-B:GLU:543:CG:9879, V-B:GLU:543:CD:9880, V-A:TYR:484:CE2:4345, V-A:HIS:456:CE1:4069, V-A:GLU:543:CG:4907, V-B:HIS:456:CE1:9041, V-A:GLY:453:CA:4043, V-B:GLU:543:CB:9878, H-B:TYR:484:OH:9319, H-B:GLY:454:N:9021, V-B:GLY:454:CA:9020, V-B:ILE:369:CD1:8210, H-B:GLU:543:OE2:9882, V-B:ARG:545:CD:9895, V-B:ARG:545:CZ:9898, H-A:ILE:455:N:4054"]

$$$$
3af_Grossjean_2025
     RDKit          3D

 29 31  0  0  0  0  0  0  0  0999 V2000
  125.6550  129.4960   61.5040 N   0  0  0  0  0  0  0  0  0  0  0  0
  126.0430  129.1900   62.5510 C   0  0  0  0  0  0  0  0  0  0  0  0
  126.5330  128.8030   63.8770 C   0  0  0  0  0  0  0  0  0  0  0  0
  125.8350  129.1900   65.0460 C   0  0  0  0  0  0  0  0  0  0  0  0
  124.5140  129.9840   65.0020 C   0  0  0  0  0  0  0  0  0  0  0  0
  123.6900  129.5680   64.0370 F   0  0  0  0  0  0  0  0  0  0  0  0
  123.8690  129.8590   66.1630 F   0  0  0  0  0  0  0  0  0  0  0  0
  124.7630  131.2760   64.7820 F   0  0  0  0  0  0  0  0  0  0  0  0
  126.3720  128.8430   66.2950 C   0  0  0  0  0  0  0  0  0  0  0  0
  127.5740  128.1320   66.3740 C   0  0  0  0  0  0  0  0  0  0  0  0
  128.2020  127.7520   67.6810 C   0  0  0  0  0  0  0  0  0  0  0  0
  128.7990  128.7240   68.5000 C   0  0  0  0  0  0  0  0  0  0  0  0
  129.3820  128.3770   69.7160 C   0  0  0  0  0  0  0  0  0  0  0  0
  129.3750  127.0500   70.1300 C   0  0  0  0  0  0  0  0  0  0  0  0
  128.7880  126.0680   69.3400 C   0  0  0  0  0  0  0  0  0  0  0  0
  128.2060  126.4180   68.1250 C   0  0  0  0  0  0  0  0  0  0  0  0
  128.2420  127.7660   65.2500 N   0  0  0  0  0  0  0  0  0  0  0  0
  127.7310  128.0700   64.0330 C   0  0  0  0  0  0  0  0  0  0  0  0
  128.7390  127.4950   62.6810 S   0  0  0  0  0  0  0  0  0  0  0  0
  128.7770  125.6780   62.7410 C   0  0  0  0  0  0  0  0  0  0  0  0
  129.9940  125.1600   63.5080 C   0  0  0  0  0  0  0  0  0  0  0  0
  130.3980  124.0180   63.2890 O   0  0  0  0  0  0  0  0  0  0  0  0
  130.5320  126.0260   64.3930 N   0  0  0  0  0  0  0  0  0  0  0  0
  131.6370  125.8630   65.2520 C   0  0  0  0  0  0  0  0  0  0  0  0
  131.6730  126.2040   66.6160 C   0  0  0  0  0  0  0  0  0  0  0  0
  132.8410  125.9880   67.3510 C   0  0  0  0  0  0  0  0  0  0  0  0
  133.9460  125.4360   66.7030 C   0  0  0  0  0  0  0  0  0  0  0  0
  133.9360  125.0980   65.3900 N   0  0  0  0  0  0  0  0  0  0  0  0
  132.7940  125.3130   64.6890 C   0  0  0  0  0  0  0  0  0  0  0  0
  1  2  3  0
  2  3  1  0
  3  4  2  0
  4  5  1  0
  5  6  1  0
  5  7  1  0
  5  8  1  0
  4  9  1  0
  9 10  2  0
 10 11  1  0
 11 12  2  0
 12 13  1  0
 13 14  2  0
 14 15  1  0
 15 16  2  0
 10 17  1  0
 17 18  2  0
 18 19  1  0
 19 20  1  0
 20 21  1  0
 21 22  2  0
 21 23  1  0
 23 24  1  0
 24 25  2  0
 25 26  1  0
 26 27  2  0
 27 28  1  0
 28 29  2  0
 18  3  1  0
 29 24  1  0
 16 11  1  0
M  END
>  <Binding energies>  (15) 
[-7.1]

>  <Ligand effiencies>  (15) 
[-0.23666666666666666]

>  <Interactions>  (15) 
["V-B:LEU:475:CD1:9229, V-A:GLU:543:CD:4908, V-A:ARG:545:CD:4923, V-A:ARG:545:CG:4922, H-A:TYR:484:OH:4347, H-A:GLU:543:OE2:4910, V-A:TYR:484:CZ:4346, H-A:GLU:543:OE1:4909, V-A:ARG:545:CZ:4926, H-A:GLY:454:N:4049, H-A:ARG:545:NE:4924, V-B:GLU:543:CD:9880, V-A:HIS:456:CE1:4069, V-B:HIS:456:CE1:9041, V-A:GLU:543:CB:4906, V-B:GLU:543:C:9874, V-B:GLU:543:CB:9878, V-B:GLY:454:CA:9020, V-A:GLU:543:C:4902, V-B:GLY:454:C:9018, V-B:ARG:545:CD:9895, V-B:GLY:453:C:9013, V-B:GLY:453:CA:9015, V-B:ARG:545:CZ:9898"]

$$$$
3ag_Grossjean_2025
     RDKit          3D

 30 32  0  0  0  0  0  0  0  0999 V2000
  134.3120  119.1350   60.5550 N   0  0  0  0  0  0  0  0  0  0  0  0
  133.3490  119.7650   60.6820 C   0  0  0  0  0  0  0  0  0  0  0  0
  132.1280  120.5590   60.8440 C   0  0  0  0  0  0  0  0  0  0  0  0
  130.8670  119.9280   60.9860 C   0  0  0  0  0  0  0  0  0  0  0  0
  130.7050  118.3960   61.0390 C   0  0  0  0  0  0  0  0  0  0  0  0
  131.2510  117.7810   59.9880 F   0  0  0  0  0  0  0  0  0  0  0  0
  131.2920  117.9160   62.1350 F   0  0  0  0  0  0  0  0  0  0  0  0
  129.4120  118.0720   61.0620 F   0  0  0  0  0  0  0  0  0  0  0  0
  129.7220  120.7320   61.0840 C   0  0  0  0  0  0  0  0  0  0  0  0
  129.8290  122.1260   61.0290 C   0  0  0  0  0  0  0  0  0  0  0  0
  128.6400  123.0320   61.1250 C   0  0  0  0  0  0  0  0  0  0  0  0
  128.6320  124.1110   62.0230 C   0  0  0  0  0  0  0  0  0  0  0  0
  127.5300  124.9570   62.1180 C   0  0  0  0  0  0  0  0  0  0  0  0
  126.4170  124.7340   61.3140 C   0  0  0  0  0  0  0  0  0  0  0  0
  126.3980  123.6690   60.4180 C   0  0  0  0  0  0  0  0  0  0  0  0
  127.5010  122.8260   60.3270 C   0  0  0  0  0  0  0  0  0  0  0  0
  131.0410  122.7270   60.9050 N   0  0  0  0  0  0  0  0  0  0  0  0
  132.1620  121.9710   60.8290 C   0  0  0  0  0  0  0  0  0  0  0  0
  133.6550  122.9270   60.6740 S   0  0  0  0  0  0  0  0  0  0  0  0
  134.3130  123.1800   62.3500 C   0  0  0  0  0  0  0  0  0  0  0  0
  133.6340  124.3480   63.0670 C   0  0  0  0  0  0  0  0  0  0  0  0
  134.2240  124.9390   63.9730 O   0  0  0  0  0  0  0  0  0  0  0  0
  132.3990  124.6710   62.6460 N   0  0  0  0  0  0  0  0  0  0  0  0
  131.5860  125.7700   63.1640 C   0  0  0  0  0  0  0  0  0  0  0  0
  131.2580  125.6550   64.6490 C   0  0  0  0  0  0  0  0  0  0  0  0
  132.1220  126.2120   65.5960 C   0  0  0  0  0  0  0  0  0  0  0  0
  131.8110  126.1350   66.9510 C   0  0  0  0  0  0  0  0  0  0  0  0
  130.6330  125.5090   67.3540 C   0  0  0  0  0  0  0  0  0  0  0  0
  129.7600  124.9650   66.4150 C   0  0  0  0  0  0  0  0  0  0  0  0
  130.0690  125.0430   65.0600 C   0  0  0  0  0  0  0  0  0  0  0  0
  1  2  3  0
  2  3  1  0
  3  4  2  0
  4  5  1  0
  5  6  1  0
  5  7  1  0
  5  8  1  0
  4  9  1  0
  9 10  2  0
 10 11  1  0
 11 12  2  0
 12 13  1  0
 13 14  2  0
 14 15  1  0
 15 16  2  0
 10 17  1  0
 17 18  2  0
 18 19  1  0
 19 20  1  0
 20 21  1  0
 21 22  2  0
 21 23  1  0
 23 24  1  0
 24 25  1  0
 25 26  2  0
 26 27  1  0
 27 28  2  0
 28 29  1  0
 29 30  2  0
 18  3  1  0
 30 25  1  0
 16 11  1  0
M  END
>  <Binding energies>  (16) 
[-7.4]

>  <Ligand effiencies>  (16) 
[-0.23870967741935484]

>  <Interactions>  (16) 
["V-A:GLU:543:CD:4908, V-A:GLY:453:C:4041, V-A:GLY:454:CA:4048, V-A:TYR:484:CZ:4346, H-A:ARG:545:NH2:4928, V-A:ILE:369:CD1:3238, H-A:ARG:545:NH1:4927, V-A:ARG:545:CZ:4926, H-A:GLY:454:N:4049, V-A:ILE:369:CG2:3236, V-B:TYR:539:CD2:9846, H-A:SER:385:OG:3409, V-A:LEU:475:CD1:4257, V-A:HIS:383:CE1:3392, V-A:PRO:482:CB:4325, V-A:PRO:482:CG:4326, V-B:PRO:540:CA:9855, V-B:GLU:543:CG:9879, V-B:ALA:541:CB:9864, V-B:GLU:543:CD:9880, V-B:PRO:540:CB:9857, V-B:TYR:539:C:9839, V-A:TYR:484:CE2:4345, V-A:HIS:456:CE1:4069, V-B:ALA:541:CA:9862, V-B:GLU:543:CB:9878, V-B:PRO:540:C:9853, V-B:TYR:539:CB:9843, V-A:PRO:482:CD:4327"]

$$$$
3bc_Grossjean_2025
     RDKit          3D

 28 30  0  0  0  0  0  0  0  0999 V2000
  128.0140  125.6420   72.6930 C   0  0  0  0  0  0  0  0  0  0  0  0
  129.1500  125.8920   71.8740 O   0  0  0  0  0  0  0  0  0  0  0  0
  128.9900  126.6040   70.6990 C   0  0  0  0  0  0  0  0  0  0  0  0
  128.5750  125.8770   69.5840 C   0  0  0  0  0  0  0  0  0  0  0  0
  128.3870  126.5080   68.3560 C   0  0  0  0  0  0  0  0  0  0  0  0
  128.6210  127.8780   68.2270 C   0  0  0  0  0  0  0  0  0  0  0  0
  128.3920  128.4290   66.9520 N   0  0  0  0  0  0  0  0  0  0  0  0
  127.2210  128.7240   66.3500 C   0  0  0  0  0  0  0  0  0  0  0  0
  126.1100  128.5830   66.8660 O   0  0  0  0  0  0  0  0  0  0  0  0
  127.3560  129.3080   64.9360 C   0  0  0  0  0  0  0  0  0  0  0  0
  127.8800  131.0550   64.8660 S   0  0  0  0  0  0  0  0  0  0  0  0
  127.9110  131.5450   63.1560 C   0  0  0  0  0  0  0  0  0  0  0  0
  129.1130  131.3580   62.5570 N   0  0  0  0  0  0  0  0  0  0  0  0
  129.2760  131.6890   61.2490 C   0  0  0  0  0  0  0  0  0  0  0  0
  130.6410  131.4710   60.6670 C   0  0  0  0  0  0  0  0  0  0  0  0
  130.8070  131.2460   59.2930 C   0  0  0  0  0  0  0  0  0  0  0  0
  132.0710  131.0440   58.7450 C   0  0  0  0  0  0  0  0  0  0  0  0
  133.1900  131.0620   59.5710 C   0  0  0  0  0  0  0  0  0  0  0  0
  133.0540  131.2800   60.9380 C   0  0  0  0  0  0  0  0  0  0  0  0
  131.7870  131.4810   61.4800 C   0  0  0  0  0  0  0  0  0  0  0  0
  128.2180  132.2220   60.5060 C   0  0  0  0  0  0  0  0  0  0  0  0
  126.9650  132.4000   61.1030 C   0  0  0  0  0  0  0  0  0  0  0  0
  125.8330  132.9690   60.2480 C   0  0  0  0  0  0  0  0  0  0  0  0
  126.7890  132.0470   62.4590 C   0  0  0  0  0  0  0  0  0  0  0  0
  125.4750  132.1780   63.0900 C   0  0  0  0  0  0  0  0  0  0  0  0
  124.4350  132.2830   63.5870 N   0  0  0  0  0  0  0  0  0  0  0  0
  129.0250  128.6180   69.3480 C   0  0  0  0  0  0  0  0  0  0  0  0
  129.2120  127.9840   70.5730 C   0  0  0  0  0  0  0  0  0  0  0  0
  1  2  1  0
  2  3  1  0
  3  4  2  0
  4  5  1  0
  5  6  2  0
  6  7  1  0
  7  8  1  0
  8  9  2  0
  8 10  1  0
 10 11  1  0
 11 12  1  0
 12 13  2  0
 13 14  1  0
 14 15  1  0
 15 16  2  0
 16 17  1  0
 17 18  2  0
 18 19  1  0
 19 20  2  0
 14 21  2  0
 21 22  1  0
 22 23  1  0
 22 24  2  0
 24 25  1  0
 25 26  3  0
  6 27  1  0
 27 28  2  0
 28  3  1  0
 24 12  1  0
 20 15  1  0
M  END
>  <Binding energies>  (17) 
[-7.72]

>  <Ligand effiencies>  (17) 
[-0.26620689655172414]

>  <Interactions>  (17) 
["V-A:ASN:362:CB:3175, V-A:ALA:541:CB:4892, V-A:TYR:539:CE1:4875, V-A:PRO:540:CA:4883, V-A:TYR:539:CD1:4873, V-B:LEU:475:CD1:9229, V-A:GLU:543:CD:4908, V-A:PRO:540:CB:4885, V-A:ASP:366:CG:3212, H-A:GLU:543:OE1:4909, V-A:HIS:456:CE1:4069, V-A:GLU:543:CG:4907, V-B:HIS:456:CE1:9041, V-A:GLU:543:CB:4906, V-B:GLU:543:C:9874, V-B:GLU:543:CB:9878, H-B:TYR:484:OH:9319, H-B:GLY:454:N:9021, V-B:ILE:369:CG2:8208, V-A:GLU:543:C:4902, H-B:ARG:545:NE:9896, V-B:HIS:456:CD2:9039, V-A:PRO:540:C:4881, V-B:GLY:544:CA:9886, V-A:LEU:363:CA:3184, V-B:GLY:544:C:9884"]

$$$$
3bd_Grossjean_2025
     RDKit          3D

 26 28  0  0  0  0  0  0  0  0999 V2000
  130.5160  118.4430   61.0060 C   0  0  0  0  0  0  0  0  0  0  0  0
  130.8220  119.9300   61.1690 C   0  0  0  0  0  0  0  0  0  0  0  0
  129.7460  120.8180   61.2860 C   0  0  0  0  0  0  0  0  0  0  0  0
  129.9850  122.1900   61.4330 C   0  0  0  0  0  0  0  0  0  0  0  0
  128.8790  123.1940   61.5670 C   0  0  0  0  0  0  0  0  0  0  0  0
  127.5550  122.8510   61.2500 C   0  0  0  0  0  0  0  0  0  0  0  0
  126.5240  123.7800   61.3710 C   0  0  0  0  0  0  0  0  0  0  0  0
  126.8050  125.0690   61.8120 C   0  0  0  0  0  0  0  0  0  0  0  0
  128.1080  125.4350   62.1290 C   0  0  0  0  0  0  0  0  0  0  0  0
  129.1360  124.5040   62.0070 C   0  0  0  0  0  0  0  0  0  0  0  0
  131.2530  122.6740   61.4790 N   0  0  0  0  0  0  0  0  0  0  0  0
  132.3080  121.8270   61.3660 C   0  0  0  0  0  0  0  0  0  0  0  0
  133.9210  122.5900   61.4290 S   0  0  0  0  0  0  0  0  0  0  0  0
  133.6900  124.3850   61.5960 C   0  0  0  0  0  0  0  0  0  0  0  0
  133.4270  124.7970   63.0450 C   0  0  0  0  0  0  0  0  0  0  0  0
  134.3770  125.1260   63.7550 O   0  0  0  0  0  0  0  0  0  0  0  0
  132.1360  124.7510   63.4410 N   0  0  0  0  0  0  0  0  0  0  0  0
  131.5810  125.0910   64.6890 C   0  0  0  0  0  0  0  0  0  0  0  0
  132.3800  125.8760   65.5250 C   0  0  0  0  0  0  0  0  0  0  0  0
  131.9180  126.2550   66.7830 C   0  0  0  0  0  0  0  0  0  0  0  0
  130.6600  125.8410   67.2100 C   0  0  0  0  0  0  0  0  0  0  0  0
  129.8590  125.0470   66.3920 C   0  0  0  0  0  0  0  0  0  0  0  0
  130.3180  124.6680   65.1330 C   0  0  0  0  0  0  0  0  0  0  0  0
  132.1390  120.4350   61.2070 C   0  0  0  0  0  0  0  0  0  0  0  0
  133.2870  119.5310   61.0890 C   0  0  0  0  0  0  0  0  0  0  0  0
  134.1930  118.8160   60.9960 N   0  0  0  0  0  0  0  0  0  0  0  0
  1  2  1  0
  2  3  2  0
  3  4  1  0
  4  5  1  0
  5  6  2  0
  6  7  1  0
  7  8  2  0
  8  9  1  0
  9 10  2  0
  4 11  2  0
 11 12  1  0
 12 13  1  0
 13 14  1  0
 14 15  1  0
 15 16  2  0
 15 17  1  0
 17 18  1  0
 18 19  2  0
 19 20  1  0
 20 21  2  0
 21 22  1  0
 22 23  2  0
 12 24  2  0
 24 25  1  0
 25 26  3  0
 24  2  1  0
 10  5  1  0
 23 18  1  0
M  END
>  <Binding energies>  (18) 
[-7.52]

>  <Ligand effiencies>  (18) 
[-0.2785185185185185]

>  <Interactions>  (18) 
["V-A:ASP:366:CG:3212, V-A:TYR:484:CZ:4346, H-A:ARG:545:NH2:4928, H-A:ARG:545:NH1:4927, V-A:ARG:545:CZ:4926, H-A:GLY:454:N:4049, H-A:ARG:545:NE:4924, V-A:ILE:369:CG2:3236, H-A:SER:385:OG:3409, V-A:LEU:475:CD1:4257, V-A:PRO:482:CB:4325, H-A:HIS:383:NE2:3393, V-A:PRO:482:CG:4326, V-B:PRO:540:CA:9855, V-B:GLU:543:CG:9879, V-B:ALA:541:CB:9864, V-B:GLU:543:CD:9880, V-A:TYR:484:CE2:4345, V-A:HIS:456:CE1:4069, V-B:GLU:543:CB:9878, V-B:PRO:540:C:9853"]

$$$$
3be_Grossjean_2025
     RDKit          3D

 27 29  0  0  0  0  0  0  0  0999 V2000
  134.1920  125.4590   67.3940 C   0  0  0  0  0  0  0  0  0  0  0  0
  133.2960  125.4850   66.1720 C   0  0  0  0  0  0  0  0  0  0  0  0
  131.9610  125.8890   66.2520 C   0  0  0  0  0  0  0  0  0  0  0  0
  131.1940  125.8850   65.0870 C   0  0  0  0  0  0  0  0  0  0  0  0
  131.7740  125.4830   63.8810 C   0  0  0  0  0  0  0  0  0  0  0  0
  133.1190  125.0940   63.8700 C   0  0  0  0  0  0  0  0  0  0  0  0
  133.6410  124.6910   62.6270 N   0  0  0  0  0  0  0  0  0  0  0  0
  133.7480  123.4430   62.1200 C   0  0  0  0  0  0  0  0  0  0  0  0
  133.3910  122.4180   62.7020 O   0  0  0  0  0  0  0  0  0  0  0  0
  134.3650  123.3720   60.7140 C   0  0  0  0  0  0  0  0  0  0  0  0
  133.2030  122.9290   59.3780 S   0  0  0  0  0  0  0  0  0  0  0  0
  131.9060  121.9340   60.0810 C   0  0  0  0  0  0  0  0  0  0  0  0
  130.6760  122.4950   59.9800 N   0  0  0  0  0  0  0  0  0  0  0  0
  129.5910  121.8410   60.4730 C   0  0  0  0  0  0  0  0  0  0  0  0
  128.2690  122.5370   60.3340 C   0  0  0  0  0  0  0  0  0  0  0  0
  127.5550  122.9550   61.4690 C   0  0  0  0  0  0  0  0  0  0  0  0
  126.3270  123.5980   61.3470 C   0  0  0  0  0  0  0  0  0  0  0  0
  125.7930  123.8340   60.0850 C   0  0  0  0  0  0  0  0  0  0  0  0
  126.4780  123.4290   58.9450 C   0  0  0  0  0  0  0  0  0  0  0  0
  127.7060  122.7840   59.0710 C   0  0  0  0  0  0  0  0  0  0  0  0
  129.7240  120.5930   61.0890 C   0  0  0  0  0  0  0  0  0  0  0  0
  130.9830  119.9890   61.1790 C   0  0  0  0  0  0  0  0  0  0  0  0
  131.0780  118.6170   61.8440 C   0  0  0  0  0  0  0  0  0  0  0  0
  132.1100  120.6590   60.6560 C   0  0  0  0  0  0  0  0  0  0  0  0
  133.4280  120.0210   60.6910 C   0  0  0  0  0  0  0  0  0  0  0  0
  134.4680  119.5150   60.7190 N   0  0  0  0  0  0  0  0  0  0  0  0
  133.8730  125.0930   65.0080 N   0  0  0  0  0  0  0  0  0  0  0  0
  1  2  1  0
  2  3  2  0
  3  4  1  0
  4  5  2  0
  5  6  1  0
  6  7  1  0
  7  8  1  0
  8  9  2  0
  8 10  1  0
 10 11  1  0
 11 12  1  0
 12 13  2  0
 13 14  1  0
 14 15  1  0
 15 16  2  0
 16 17  1  0
 17 18  2  0
 18 19  1  0
 19 20  2  0
 14 21  2  0
 21 22  1  0
 22 23  1  0
 22 24  2  0
 24 25  1  0
 25 26  3  0
  6 27  2  0
 27  2  1  0
 24 12  1  0
 20 15  1  0
M  END
>  <Binding energies>  (19) 
[-8.89]

>  <Ligand effiencies>  (19) 
[-0.3175]

>  <Interactions>  (19) 
["V-A:GLU:543:CD:4908, V-A:ASP:366:CG:3212, V-A:ARG:545:CD:4923, V-A:ARG:545:CG:4922, H-A:TYR:484:OH:4347, V-A:TYR:484:CZ:4346, H-A:ARG:545:NH2:4928, V-A:ILE:369:CD1:3238, H-A:ARG:545:NH1:4927, V-A:ARG:545:CZ:4926, H-A:GLY:454:N:4049, V-A:ILE:369:CB:3235, H-A:ASP:366:OD2:3214, H-A:ASP:366:OD1:3213, H-A:ARG:545:NE:4924, V-A:ILE:369:CG2:3236, V-B:TYR:539:CD2:9846, H-A:SER:385:OG:3409, V-B:TYR:539:CE2:9848, V-A:LEU:475:CD1:4257, V-A:PRO:482:CB:4325, V-A:PRO:482:CG:4326, V-B:PRO:540:CA:9855, V-B:ALA:541:CB:9864, V-B:PRO:540:N:9856, V-B:GLU:543:CD:9880, V-B:PRO:540:CB:9857, V-B:TYR:539:C:9839, V-A:HIS:456:CE1:4069, V-B:PRO:540:C:9853, V-A:ILE:455:C:4051"]

$$$$
3bf_Grossjean_2025
     RDKit          3D

 26 28  0  0  0  0  0  0  0  0999 V2000
  129.7450  122.9020   64.6680 C   0  0  0  0  0  0  0  0  0  0  0  0
  130.1320  123.1960   63.2210 C   0  0  0  0  0  0  0  0  0  0  0  0
  129.1920  122.9280   62.2200 C   0  0  0  0  0  0  0  0  0  0  0  0
  129.4990  123.1970   60.8820 C   0  0  0  0  0  0  0  0  0  0  0  0
  128.5280  122.9530   59.7660 C   0  0  0  0  0  0  0  0  0  0  0  0
  127.1760  123.3020   59.9040 C   0  0  0  0  0  0  0  0  0  0  0  0
  126.2680  123.0790   58.8720 C   0  0  0  0  0  0  0  0  0  0  0  0
  126.7030  122.5010   57.6840 C   0  0  0  0  0  0  0  0  0  0  0  0
  128.0370  122.1450   57.5220 C   0  0  0  0  0  0  0  0  0  0  0  0
  128.9420  122.3680   58.5570 C   0  0  0  0  0  0  0  0  0  0  0  0
  130.7060  123.7170   60.5350 N   0  0  0  0  0  0  0  0  0  0  0  0
  131.6370  123.9590   61.4900 C   0  0  0  0  0  0  0  0  0  0  0  0
  133.1560  124.6330   60.8520 S   0  0  0  0  0  0  0  0  0  0  0  0
  134.4920  123.4360   61.1890 C   0  0  0  0  0  0  0  0  0  0  0  0
  134.0260  121.9980   61.4610 C   0  0  0  0  0  0  0  0  0  0  0  0
  134.6160  121.2900   62.2790 O   0  0  0  0  0  0  0  0  0  0  0  0
  132.9320  121.6190   60.7650 N   0  0  0  0  0  0  0  0  0  0  0  0
  132.2650  120.3800   60.7740 C   0  0  0  0  0  0  0  0  0  0  0  0
  130.9840  120.3480   61.3350 C   0  0  0  0  0  0  0  0  0  0  0  0
  130.2650  119.1520   61.3620 C   0  0  0  0  0  0  0  0  0  0  0  0
  130.8520  118.0100   60.8150 C   0  0  0  0  0  0  0  0  0  0  0  0
  132.0870  118.0140   60.2550 N   0  0  0  0  0  0  0  0  0  0  0  0
  132.7750  119.1850   60.2360 C   0  0  0  0  0  0  0  0  0  0  0  0
  131.3880  123.7300   62.8620 C   0  0  0  0  0  0  0  0  0  0  0  0
  132.3690  124.0650   63.8980 C   0  0  0  0  0  0  0  0  0  0  0  0
  133.1430  124.3270   64.7180 N   0  0  0  0  0  0  0  0  0  0  0  0
  1  2  1  0
  2  3  2  0
  3  4  1  0
  4  5  1  0
  5  6  2  0
  6  7  1  0
  7  8  2  0
  8  9  1  0
  9 10  2  0
  4 11  2  0
 11 12  1  0
 12 13  1  0
 13 14  1  0
 14 15  1  0
 15 16  2  0
 15 17  1  0
 17 18  1  0
 18 19  2  0
 19 20  1  0
 20 21  2  0
 21 22  1  0
 22 23  2  0
 12 24  2  0
 24 25  1  0
 25 26  3  0
 24  2  1  0
 10  5  1  0
 23 18  1  0
M  END
>  <Binding energies>  (20) 
[-7.6]

>  <Ligand effiencies>  (20) 
[-0.28148148148148144]

>  <Interactions>  (20) 
["H-A:TYR:484:OH:4347, V-A:ILE:369:CD1:3238, H-A:GLY:454:N:4049, V-A:ILE:369:CG2:3236, V-B:TYR:539:CD2:9846, H-A:SER:385:OG:3409, V-B:TYR:539:CE2:9848, V-A:LEU:475:CD1:4257, V-A:PRO:482:CB:4325, H-A:HIS:383:NE2:3393, V-A:PRO:482:CG:4326, V-B:PRO:540:CD:9859, V-B:PRO:540:CA:9855, V-B:TYR:539:CG:9844, V-B:GLU:543:CG:9879, V-B:TYR:539:CZ:9849, V-B:ALA:541:CB:9864, V-B:MET:535:CE:9807, V-B:PRO:540:N:9856, V-B:GLU:543:CD:9880, V-B:PRO:540:CB:9857, V-B:TYR:539:C:9839, V-A:TYR:484:CE2:4345, V-B:TYR:539:CA:9841"]

$$$$
3bg_Grossjean_2025
     RDKit          3D

 27 29  0  0  0  0  0  0  0  0999 V2000
  126.1130  123.2460   60.9020 C   0  0  0  0  0  0  0  0  0  0  0  0
  127.5920  123.2720   61.2810 C   0  0  0  0  0  0  0  0  0  0  0  0
  128.3610  122.1330   61.0220 C   0  0  0  0  0  0  0  0  0  0  0  0
  129.7240  122.1160   61.3470 C   0  0  0  0  0  0  0  0  0  0  0  0
  130.6090  120.9290   61.0840 C   0  0  0  0  0  0  0  0  0  0  0  0
  130.1750  119.6250   61.3730 C   0  0  0  0  0  0  0  0  0  0  0  0
  130.9840  118.5220   61.1150 C   0  0  0  0  0  0  0  0  0  0  0  0
  132.2480  118.7070   60.5640 C   0  0  0  0  0  0  0  0  0  0  0  0
  132.7080  119.9870   60.2780 C   0  0  0  0  0  0  0  0  0  0  0  0
  131.8960  121.0870   60.5400 C   0  0  0  0  0  0  0  0  0  0  0  0
  130.3150  123.2090   61.9000 N   0  0  0  0  0  0  0  0  0  0  0  0
  129.5840  124.3240   62.1550 C   0  0  0  0  0  0  0  0  0  0  0  0
  130.4870  125.7000   62.8490 S   0  0  0  0  0  0  0  0  0  0  0  0
  132.2440  125.2280   62.9680 C   0  0  0  0  0  0  0  0  0  0  0  0
  132.7870  125.4050   64.3890 C   0  0  0  0  0  0  0  0  0  0  0  0
  133.7660  124.7560   64.7570 O   0  0  0  0  0  0  0  0  0  0  0  0
  132.1250  126.2680   65.1790 N   0  0  0  0  0  0  0  0  0  0  0  0
  132.3540  126.4560   66.6120 C   0  0  0  0  0  0  0  0  0  0  0  0
  131.0460  126.5560   67.3860 C   0  0  0  0  0  0  0  0  0  0  0  0
  130.1550  125.4770   67.3990 C   0  0  0  0  0  0  0  0  0  0  0  0
  128.9560  125.5710   68.0980 C   0  0  0  0  0  0  0  0  0  0  0  0
  128.6530  126.7410   68.7930 C   0  0  0  0  0  0  0  0  0  0  0  0
  129.5430  127.8120   68.8020 C   0  0  0  0  0  0  0  0  0  0  0  0
  130.7440  127.7170   68.1020 C   0  0  0  0  0  0  0  0  0  0  0  0
  128.2050  124.3990   61.8680 C   0  0  0  0  0  0  0  0  0  0  0  0
  127.4270  125.6100   62.1450 C   0  0  0  0  0  0  0  0  0  0  0  0
  126.8120  126.5650   62.3630 N   0  0  0  0  0  0  0  0  0  0  0  0
  1  2  1  0
  2  3  2  0
  3  4  1  0
  4  5  1  0
  5  6  2  0
  6  7  1  0
  7  8  2  0
  8  9  1  0
  9 10  2  0
  4 11  2  0
 11 12  1  0
 12 13  1  0
 13 14  1  0
 14 15  1  0
 15 16  2  0
 15 17  1  0
 17 18  1  0
 18 19  1  0
 19 20  2  0
 20 21  1  0
 21 22  2  0
 22 23  1  0
 23 24  2  0
 12 25  2  0
 25 26  1  0
 26 27  3  0
 25  2  1  0
 10  5  1  0
 24 19  1  0
M  END
>  <Binding energies>  (21) 
[-8.32]

>  <Ligand effiencies>  (21) 
[-0.29714285714285715]

>  <Interactions>  (21) 
["V-A:GLU:543:CD:4908, V-A:ARG:545:CD:4923, V-A:ARG:545:CG:4922, H-A:TYR:484:OH:4347, H-A:GLU:543:OE2:4910, V-A:TYR:484:CZ:4346, H-A:GLU:543:OE1:4909, V-A:ARG:545:CZ:4926, H-A:GLY:454:N:4049, V-A:ILE:369:CG2:3236, V-B:TYR:539:CD2:9846, V-B:TYR:539:CE2:9848, V-A:LEU:475:CD1:4257, V-A:PRO:482:CG:4326, V-B:PRO:540:CA:9855, V-B:GLU:543:CG:9879, V-B:ALA:541:CB:9864, V-B:GLU:543:CD:9880, V-B:PRO:540:CB:9857, V-A:TYR:484:CE2:4345, V-A:HIS:456:CE1:4069, V-B:GLU:543:CA:9876, V-B:HIS:456:CE1:9041, V-A:GLU:543:CB:4906, V-B:GLU:543:C:9874, V-B:GLU:543:CB:9878, H-B:ARG:545:NH2:9900, V-B:PRO:540:C:9853"]

$$$$
3ca_Grossjean_2025
     RDKit          3D

 31 33  0  0  0  0  0  0  0  0999 V2000
  129.3760  123.3200   72.9860 C   0  0  0  0  0  0  0  0  0  0  0  0
  128.7750  124.7280   72.9950 C   0  0  0  0  0  0  0  0  0  0  0  0
  129.7460  125.6600   72.5350 O   0  0  0  0  0  0  0  0  0  0  0  0
  129.4130  126.9500   72.2740 C   0  0  0  0  0  0  0  0  0  0  0  0
  129.3730  127.8310   73.1390 O   0  0  0  0  0  0  0  0  0  0  0  0
  129.1020  127.2020   70.8260 C   0  0  0  0  0  0  0  0  0  0  0  0
  129.2900  128.4860   70.3000 C   0  0  0  0  0  0  0  0  0  0  0  0
  129.0110  128.7520   68.9620 C   0  0  0  0  0  0  0  0  0  0  0  0
  128.5320  127.7420   68.1260 C   0  0  0  0  0  0  0  0  0  0  0  0
  128.2840  128.1170   66.7920 N   0  0  0  0  0  0  0  0  0  0  0  0
  127.1110  128.2220   66.1300 C   0  0  0  0  0  0  0  0  0  0  0  0
  125.9990  128.0140   66.6140 O   0  0  0  0  0  0  0  0  0  0  0  0
  127.2230  128.6590   64.6660 C   0  0  0  0  0  0  0  0  0  0  0  0
  126.0880  130.0190   64.2340 S   0  0  0  0  0  0  0  0  0  0  0  0
  126.8970  131.1540   63.1140 C   0  0  0  0  0  0  0  0  0  0  0  0
  128.1820  130.8520   62.7990 N   0  0  0  0  0  0  0  0  0  0  0  0
  128.8500  131.6550   61.9420 C   0  0  0  0  0  0  0  0  0  0  0  0
  130.2740  131.2420   61.6270 C   0  0  0  0  0  0  0  0  0  0  0  0
  128.2750  132.7920   61.3790 C   0  0  0  0  0  0  0  0  0  0  0  0
  126.9560  133.1350   61.7020 C   0  0  0  0  0  0  0  0  0  0  0  0
  126.3870  134.3700   61.0840 C   0  0  0  0  0  0  0  0  0  0  0  0
  127.0860  135.5810   61.1600 C   0  0  0  0  0  0  0  0  0  0  0  0
  126.5590  136.7390   60.5960 C   0  0  0  0  0  0  0  0  0  0  0  0
  125.3240  136.6920   59.9540 C   0  0  0  0  0  0  0  0  0  0  0  0
  124.6120  135.4970   59.8750 C   0  0  0  0  0  0  0  0  0  0  0  0
  125.1430  134.3410   60.4420 C   0  0  0  0  0  0  0  0  0  0  0  0
  126.2380  132.2910   62.5880 C   0  0  0  0  0  0  0  0  0  0  0  0
  124.8380  132.5700   62.9230 C   0  0  0  0  0  0  0  0  0  0  0  0
  123.7330  132.7920   63.1860 N   0  0  0  0  0  0  0  0  0  0  0  0
  128.3490  126.4500   68.6430 C   0  0  0  0  0  0  0  0  0  0  0  0
  128.6300  126.1870   69.9810 C   0  0  0  0  0  0  0  0  0  0  0  0
  1  2  1  0
  2  3  1  0
  3  4  1  0
  4  5  2  0
  4  6  1  0
  6  7  2  0
  7  8  1  0
  8  9  2  0
  9 10  1  0
 10 11  1  0
 11 12  2  0
 11 13  1  0
 13 14  1  0
 14 15  1  0
 15 16  2  0
 16 17  1  0
 17 18  1  0
 17 19  2  0
 19 20  1  0
 20 21  1  0
 21 22  2  0
 22 23  1  0
 23 24  2  0
 24 25  1  0
 25 26  2  0
 20 27  2  0
 27 28  1  0
 28 29  3  0
  9 30  1  0
 30 31  2  0
 31  6  1  0
 27 15  1  0
 26 21  1  0
M  END
>  <Binding energies>  (22) 
[-8.23]

>  <Ligand effiencies>  (22) 
[-0.2571875]

>  <Interactions>  (22) 
["V-A:ALA:541:CB:4892, V-A:TYR:539:CE1:4875, V-A:TYR:539:CD1:4873, V-B:LEU:475:CD1:9229, V-A:GLU:543:CD:4908, H-A:GLU:543:OE1:4909, V-A:HIS:456:CE1:4069, V-B:HIS:456:CE1:9041, V-A:GLU:543:CB:4906, V-B:GLU:543:C:9874, V-B:GLU:543:CB:9878, H-B:GLY:454:N:9021, V-B:PRO:482:CB:9297, V-A:TYR:539:CB:4871, V-B:GLY:454:CA:9020, V-B:ILE:369:CG2:8208, V-B:PRO:482:CG:9298, V-A:ALA:541:CA:4890, V-B:LEU:373:CD1:8251, V-B:SER:385:CB:8380, V-A:GLU:543:C:4902, H-B:ARG:545:NE:9896, V-B:HIS:456:CD2:9039, V-A:HIS:456:CD2:4067"]

$$$$
3ce_Grossjean_2025
     RDKit          3D

 27 29  0  0  0  0  0  0  0  0999 V2000
  134.9480  125.1420   66.6670 C   0  0  0  0  0  0  0  0  0  0  0  0
  133.6370  125.2680   65.9140 C   0  0  0  0  0  0  0  0  0  0  0  0
  132.5220  125.8880   66.4850 C   0  0  0  0  0  0  0  0  0  0  0  0
  131.3530  125.9770   65.7300 C   0  0  0  0  0  0  0  0  0  0  0  0
  131.3250  125.4490   64.4370 C   0  0  0  0  0  0  0  0  0  0  0  0
  132.4730  124.8320   63.9300 C   0  0  0  0  0  0  0  0  0  0  0  0
  132.3930  124.3370   62.6170 N   0  0  0  0  0  0  0  0  0  0  0  0
  133.3770  123.7940   61.8670 C   0  0  0  0  0  0  0  0  0  0  0  0
  134.5420  123.6380   62.2360 O   0  0  0  0  0  0  0  0  0  0  0  0
  132.9700  123.3450   60.4640 C   0  0  0  0  0  0  0  0  0  0  0  0
  131.9560  121.8380   60.5010 S   0  0  0  0  0  0  0  0  0  0  0  0
  130.4720  122.2750   61.3760 C   0  0  0  0  0  0  0  0  0  0  0  0
  130.6260  122.3490   62.7210 N   0  0  0  0  0  0  0  0  0  0  0  0
  129.5580  122.6920   63.4760 C   0  0  0  0  0  0  0  0  0  0  0  0
  129.8040  122.7680   64.9710 C   0  0  0  0  0  0  0  0  0  0  0  0
  128.3060  122.9580   62.9280 C   0  0  0  0  0  0  0  0  0  0  0  0
  128.1200  122.8620   61.5430 C   0  0  0  0  0  0  0  0  0  0  0  0
  126.7530  123.1320   61.0040 C   0  0  0  0  0  0  0  0  0  0  0  0
  126.5980  123.7340   59.7500 C   0  0  0  0  0  0  0  0  0  0  0  0
  125.3270  123.9940   59.2440 C   0  0  0  0  0  0  0  0  0  0  0  0
  124.2030  123.6600   59.9950 C   0  0  0  0  0  0  0  0  0  0  0  0
  124.3410  123.0700   61.2490 C   0  0  0  0  0  0  0  0  0  0  0  0
  125.6130  122.8100   61.7520 C   0  0  0  0  0  0  0  0  0  0  0  0
  129.2330  122.5150   60.7360 C   0  0  0  0  0  0  0  0  0  0  0  0
  129.1020  122.4140   59.2790 C   0  0  0  0  0  0  0  0  0  0  0  0
  128.9980  122.3350   58.1290 N   0  0  0  0  0  0  0  0  0  0  0  0
  133.6240  124.7480   64.6600 N   0  0  0  0  0  0  0  0  0  0  0  0
  1  2  1  0
  2  3  2  0
  3  4  1  0
  4  5  2  0
  5  6  1  0
  6  7  1  0
  7  8  1  0
  8  9  2  0
  8 10  1  0
 10 11  1  0
 11 12  1  0
 12 13  2  0
 13 14  1  0
 14 15  1  0
 14 16  2  0
 16 17  1  0
 17 18  1  0
 18 19  2  0
 19 20  1  0
 20 21  2  0
 21 22  1  0
 22 23  2  0
 17 24  2  0
 24 25  1  0
 25 26  3  0
  6 27  2  0
 27  2  1  0
 24 12  1  0
 23 18  1  0
M  END
>  <Binding energies>  (23) 
[-8.16]

>  <Ligand effiencies>  (23) 
[-0.2914285714285714]

>  <Interactions>  (23) 
["V-A:GLU:543:CD:4908, V-A:ARG:545:CD:4923, V-A:ARG:545:CG:4922, V-A:GLY:453:C:4041, H-A:TYR:484:OH:4347, V-A:GLY:454:CA:4048, V-A:TYR:484:CZ:4346, V-A:ARG:545:CZ:4926, H-A:GLY:454:N:4049, V-B:TYR:539:CD2:9846, V-B:TYR:539:CE2:9848, V-B:PRO:540:CA:9855, V-B:GLU:543:CG:9879, V-B:ALA:541:CB:9864, V-B:GLU:543:CD:9880, V-B:PRO:540:CB:9857, V-B:TYR:539:C:9839, V-A:TYR:484:CE2:4345, V-A:HIS:456:CE1:4069, V-A:GLY:453:CA:4043, V-B:ASP:366:CG:8184, V-B:LEU:363:CA:8156, V-B:PRO:540:C:9853, V-B:LEU:363:CB:8158, V-B:ASN:362:CB:8147, V-B:ASN:362:C:8143, V-A:GLY:454:C:4046, V-A:ILE:455:C:4051"]

$$$$
3cj_Grossjean_2025
     RDKit          3D

 25 27  0  0  0  0  0  0  0  0999 V2000
  134.6600  124.3410   62.1480 C   0  0  0  0  0  0  0  0  0  0  0  0
  133.2740  123.7950   61.8650 C   0  0  0  0  0  0  0  0  0  0  0  0
  133.0650  122.4440   61.5940 C   0  0  0  0  0  0  0  0  0  0  0  0
  131.7640  121.9780   61.3610 C   0  0  0  0  0  0  0  0  0  0  0  0
  131.5790  120.5140   61.1390 C   0  0  0  0  0  0  0  0  0  0  0  0
  132.3920  119.8240   60.2320 C   0  0  0  0  0  0  0  0  0  0  0  0
  132.2100  118.4610   60.0160 C   0  0  0  0  0  0  0  0  0  0  0  0
  131.2090  117.7830   60.7040 C   0  0  0  0  0  0  0  0  0  0  0  0
  130.3860  118.4570   61.6030 C   0  0  0  0  0  0  0  0  0  0  0  0
  130.5700  119.8210   61.8170 C   0  0  0  0  0  0  0  0  0  0  0  0
  130.7000  122.9140   61.3760 C   0  0  0  0  0  0  0  0  0  0  0  0
  129.3200  122.4920   61.1110 C   0  0  0  0  0  0  0  0  0  0  0  0
  128.2310  122.1590   60.9030 N   0  0  0  0  0  0  0  0  0  0  0  0
  131.0030  124.2630   61.6640 C   0  0  0  0  0  0  0  0  0  0  0  0
  129.7480  125.5130   61.8470 S   0  0  0  0  0  0  0  0  0  0  0  0
  129.1880  125.3630   63.5730 C   0  0  0  0  0  0  0  0  0  0  0  0
  130.3090  124.8770   64.4970 C   0  0  0  0  0  0  0  0  0  0  0  0
  130.4150  123.6730   64.7420 O   0  0  0  0  0  0  0  0  0  0  0  0
  131.1400  125.8380   64.9540 N   0  0  0  0  0  0  0  0  0  0  0  0
  132.3000  125.6490   65.6880 C   0  0  0  0  0  0  0  0  0  0  0  0
  133.4360  125.1260   65.2820 N   0  0  0  0  0  0  0  0  0  0  0  0
  134.3400  125.1300   66.2420 C   0  0  0  0  0  0  0  0  0  0  0  0
  133.9400  125.6660   67.4620 C   0  0  0  0  0  0  0  0  0  0  0  0
  132.2870  126.1890   67.3360 S   0  0  0  0  0  0  0  0  0  0  0  0
  132.2650  124.6930   61.9140 N   0  0  0  0  0  0  0  0  0  0  0  0
  1  2  1  0
  2  3  2  0
  3  4  1  0
  4  5  1  0
  5  6  2  0
  6  7  1  0
  7  8  2  0
  8  9  1  0
  9 10  2  0
  4 11  2  0
 11 12  1  0
 12 13  3  0
 11 14  1  0
 14 15  1  0
 15 16  1  0
 16 17  1  0
 17 18  2  0
 17 19  1  0
 19 20  1  0
 20 21  2  0
 21 22  1  0
 22 23  2  0
 23 24  1  0
 14 25  2  0
 25  2  1  0
 10  5  1  0
 24 20  1  0
M  END
>  <Binding energies>  (24) 
[-7.65]

>  <Ligand effiencies>  (24) 
[-0.29423076923076924]

>  <Interactions>  (24) 
["V-A:ASP:366:CG:3212, V-A:ARG:545:CD:4923, V-A:ARG:545:CG:4922, V-A:GLY:453:C:4041, H-A:TYR:484:OH:4347, V-A:GLY:454:CA:4048, H-A:GLU:543:OE2:4910, V-A:TYR:484:CZ:4346, V-A:ILE:369:CD1:3238, H-A:GLU:543:OE1:4909, V-A:ARG:545:CZ:4926, H-A:GLY:454:N:4049, H-A:ARG:545:NE:4924, V-A:ILE:369:CG2:3236, V-B:TYR:539:CD2:9846, V-B:TYR:539:CE2:9848, V-A:LEU:475:CD1:4257, H-B:ALA:541:N:9863, V-A:PRO:482:CB:4325, V-A:PRO:482:CG:4326, V-B:ALA:541:CB:9864, V-B:GLU:543:CD:9880, V-A:HIS:383:CD2:3391, V-A:HIS:456:CE1:4069, V-A:GLY:453:CA:4043, V-A:ILE:455:C:4051"]

$$$$
4ba_Grossjean_2025
     RDKit          3D

 28 30  0  0  0  0  0  0  0  0999 V2000
  134.3590  120.6210   61.7560 C   0  0  0  0  0  0  0  0  0  0  0  0
  134.0380  119.3280   60.9820 C   0  0  0  0  0  0  0  0  0  0  0  0
  132.5440  118.9490   60.9320 C   0  0  0  0  0  0  0  0  0  0  0  0
  132.2150  117.7630   61.0050 O   0  0  0  0  0  0  0  0  0  0  0  0
  131.5460  120.0630   60.7980 C   0  0  0  0  0  0  0  0  0  0  0  0
  131.8660  121.1830   60.0210 C   0  0  0  0  0  0  0  0  0  0  0  0
  130.9600  122.2310   59.8810 C   0  0  0  0  0  0  0  0  0  0  0  0
  129.7160  122.1790   60.5100 C   0  0  0  0  0  0  0  0  0  0  0  0
  128.8810  123.2950   60.3080 N   0  0  0  0  0  0  0  0  0  0  0  0
  127.6860  123.6030   60.8690 C   0  0  0  0  0  0  0  0  0  0  0  0
  127.0890  122.8780   61.6660 O   0  0  0  0  0  0  0  0  0  0  0  0
  127.1060  124.8790   60.4430 C   0  0  0  0  0  0  0  0  0  0  0  0
  126.5190  125.0790   58.7940 S   0  0  0  0  0  0  0  0  0  0  0  0
  126.0900  126.7460   59.1000 C   0  0  0  0  0  0  0  0  0  0  0  0
  125.5510  127.5090   58.1500 N   0  0  0  0  0  0  0  0  0  0  0  0
  125.2620  128.7820   58.5050 C   0  0  0  0  0  0  0  0  0  0  0  0
  124.6570  129.6370   57.4050 C   0  0  0  0  0  0  0  0  0  0  0  0
  125.4930  129.3030   59.7750 C   0  0  0  0  0  0  0  0  0  0  0  0
  126.0600  128.5040   60.7800 C   0  0  0  0  0  0  0  0  0  0  0  0
  126.2930  129.1210   62.1630 C   0  0  0  0  0  0  0  0  0  0  0  0
  125.6520  128.4740   63.1380 F   0  0  0  0  0  0  0  0  0  0  0  0
  127.5940  129.0980   62.4560 F   0  0  0  0  0  0  0  0  0  0  0  0
  125.8630  130.3830   62.1710 F   0  0  0  0  0  0  0  0  0  0  0  0
  126.3830  127.1570   60.4360 C   0  0  0  0  0  0  0  0  0  0  0  0
  126.9720  126.0690   61.1780 C   0  0  0  0  0  0  0  0  0  0  0  0
  127.3640  126.1920   62.4870 N   0  0  0  0  0  0  0  0  0  0  0  0
  129.3900  121.0630   61.2950 C   0  0  0  0  0  0  0  0  0  0  0  0
  130.2970  120.0160   61.4340 C   0  0  0  0  0  0  0  0  0  0  0  0
  1  2  1  0
  2  3  1  0
  3  4  2  0
  3  5  1  0
  5  6  2  0
  6  7  1  0
  7  8  2  0
  8  9  1  0
  9 10  1  0
 10 11  2  0
 10 12  1  0
 12 13  1  0
 13 14  1  0
 14 15  2  0
 15 16  1  0
 16 17  1  0
 16 18  2  0
 18 19  1  0
 19 20  1  0
 20 21  1  0
 20 22  1  0
 20 23  1  0
 19 24  2  0
 24 25  1  0
 25 26  1  0
  8 27  1  0
 27 28  2  0
 28  5  1  0
 25 12  2  0
 24 14  1  0
M  END
>  <Binding energies>  (25) 
[-6.43]

>  <Ligand effiencies>  (25) 
[-0.20741935483870966]

>  <Interactions>  (25) 
["V-A:TYR:539:CE1:4875, V-A:ILE:369:CD1:3238, V-A:ILE:369:CG2:3236, V-B:TYR:539:CD2:9846, H-A:SER:385:OG:3409, V-B:TYR:539:CE2:9848, V-A:LEU:475:CD1:4257, H-B:ALA:541:N:9863, H-A:HIS:383:NE2:3393, V-B:PRO:540:CA:9855, H-B:GLU:543:OE1:9881, V-B:ALA:541:CB:9864, V-B:GLU:543:CD:9880, V-A:SER:385:C:3404, V-B:ALA:541:CA:9862, V-B:ASP:366:CG:8184, V-B:ASP:366:CB:8183, H-B:GLU:543:OE2:9882, V-A:SER:385:CA:3406, V-B:ARG:545:CZ:9898, V-B:PRO:540:C:9853, V-A:SER:385:CB:3408, H-B:TYR:531:OH:9767, V-B:TYR:531:CZ:9766, V-B:ASP:366:C:8179, V-B:ASP:366:CA:8181, V-B:TYR:531:CE1:9764"]

$$$$
4bb_Grossjean_2025
     RDKit          3D

 27 29  0  0  0  0  0  0  0  0999 V2000
  133.9930  119.1490   60.8240 C   0  0  0  0  0  0  0  0  0  0  0  0
  132.5030  118.8510   61.0030 C   0  0  0  0  0  0  0  0  0  0  0  0
  132.1680  117.6890   61.2410 O   0  0  0  0  0  0  0  0  0  0  0  0
  131.5310  119.9840   60.8700 C   0  0  0  0  0  0  0  0  0  0  0  0
  131.8910  121.1150   60.1260 C   0  0  0  0  0  0  0  0  0  0  0  0
  131.0070  122.1810   59.9870 C   0  0  0  0  0  0  0  0  0  0  0  0
  129.7450  122.1350   60.5810 C   0  0  0  0  0  0  0  0  0  0  0  0
  128.9320  123.2680   60.3790 N   0  0  0  0  0  0  0  0  0  0  0  0
  127.7000  123.5550   60.8660 C   0  0  0  0  0  0  0  0  0  0  0  0
  127.0490  122.8000   61.5880 O   0  0  0  0  0  0  0  0  0  0  0  0
  127.1490  124.8470   60.4490 C   0  0  0  0  0  0  0  0  0  0  0  0
  126.5600  125.0700   58.8030 S   0  0  0  0  0  0  0  0  0  0  0  0
  126.1630  126.7420   59.1210 C   0  0  0  0  0  0  0  0  0  0  0  0
  125.6280  127.5210   58.1820 N   0  0  0  0  0  0  0  0  0  0  0  0
  125.3650  128.7970   58.5470 C   0  0  0  0  0  0  0  0  0  0  0  0
  124.7540  129.6660   57.4630 C   0  0  0  0  0  0  0  0  0  0  0  0
  125.6220  129.3080   59.8160 C   0  0  0  0  0  0  0  0  0  0  0  0
  126.1860  128.4920   60.8090 C   0  0  0  0  0  0  0  0  0  0  0  0
  126.4510  129.1000   62.1910 C   0  0  0  0  0  0  0  0  0  0  0  0
  126.1920  130.4080   62.2450 F   0  0  0  0  0  0  0  0  0  0  0  0
  125.6810  128.5020   63.1010 F   0  0  0  0  0  0  0  0  0  0  0  0
  127.7320  128.9320   62.5200 F   0  0  0  0  0  0  0  0  0  0  0  0
  126.4760  127.1400   60.4580 C   0  0  0  0  0  0  0  0  0  0  0  0
  127.0420  126.0350   61.1900 C   0  0  0  0  0  0  0  0  0  0  0  0
  127.4350  126.1390   62.5000 N   0  0  0  0  0  0  0  0  0  0  0  0
  129.3800  121.0090   61.3340 C   0  0  0  0  0  0  0  0  0  0  0  0
  130.2660  119.9440   61.4730 C   0  0  0  0  0  0  0  0  0  0  0  0
  1  2  1  0
  2  3  2  0
  2  4  1  0
  4  5  2  0
  5  6  1  0
  6  7  2  0
  7  8  1  0
  8  9  1  0
  9 10  2  0
  9 11  1  0
 11 12  1  0
 12 13  1  0
 13 14  2  0
 14 15  1  0
 15 16  1  0
 15 17  2  0
 17 18  1  0
 18 19  1  0
 19 20  1  0
 19 21  1  0
 19 22  1  0
 18 23  2  0
 23 24  1  0
 24 25  1  0
  7 26  1  0
 26 27  2  0
 27  4  1  0
 24 11  2  0
 23 13  1  0
M  END
>  <Binding energies>  (26) 
[-6.2]

>  <Ligand effiencies>  (26) 
[-0.20666666666666667]

>  <Interactions>  (26) 
["V-A:TYR:539:CE1:4875, V-A:ILE:369:CG2:3236, V-B:TYR:539:CD2:9846, H-A:SER:385:OG:3409, V-B:TYR:539:CE2:9848, V-A:LEU:475:CD1:4257, H-B:ALA:541:N:9863, H-A:HIS:383:NE2:3393, V-B:PRO:540:CA:9855, H-B:GLU:543:OE1:9881, V-B:ALA:541:CB:9864, V-B:GLU:543:CD:9880, V-A:SER:385:C:3404, V-B:ALA:541:CA:9862, V-B:ASP:366:CG:8184, V-B:ASP:366:CB:8183, H-B:GLU:543:OE2:9882, V-A:SER:385:CA:3406, V-B:ARG:545:CZ:9898, V-B:PRO:540:C:9853, V-A:SER:385:CB:3408, H-B:TYR:531:OH:9767, V-B:TYR:531:CZ:9766, V-B:ASP:366:C:8179, V-B:ASP:366:CA:8181, V-B:TYR:531:CE1:9764"]

$$$$
4bd_Grossjean_2025
     RDKit          3D

 24 26  0  0  0  0  0  0  0  0999 V2000
  126.7600  135.0400   61.0150 C   0  0  0  0  0  0  0  0  0  0  0  0
  126.4080  133.6990   61.6350 C   0  0  0  0  0  0  0  0  0  0  0  0
  125.5400  132.8180   60.9950 C   0  0  0  0  0  0  0  0  0  0  0  0
  125.2210  131.5830   61.5810 C   0  0  0  0  0  0  0  0  0  0  0  0
  124.2590  130.6480   60.8410 C   0  0  0  0  0  0  0  0  0  0  0  0
  123.8110  131.1620   59.6920 F   0  0  0  0  0  0  0  0  0  0  0  0
  124.8740  129.5020   60.5520 F   0  0  0  0  0  0  0  0  0  0  0  0
  123.1960  130.3970   61.6050 F   0  0  0  0  0  0  0  0  0  0  0  0
  125.8220  131.2830   62.8390 C   0  0  0  0  0  0  0  0  0  0  0  0
  125.7370  130.1440   63.7210 C   0  0  0  0  0  0  0  0  0  0  0  0
  124.9720  129.0440   63.4350 N   0  0  0  0  0  0  0  0  0  0  0  0
  126.5040  130.2670   64.8920 C   0  0  0  0  0  0  0  0  0  0  0  0
  126.6350  129.3170   66.0010 C   0  0  0  0  0  0  0  0  0  0  0  0
  125.6370  128.8210   66.5240 O   0  0  0  0  0  0  0  0  0  0  0  0
  127.9070  129.0350   66.3770 N   0  0  0  0  0  0  0  0  0  0  0  0
  128.3700  128.2090   67.4180 C   0  0  0  0  0  0  0  0  0  0  0  0
  128.9740  128.8630   68.4960 C   0  0  0  0  0  0  0  0  0  0  0  0
  129.4550  128.1340   69.5800 C   0  0  0  0  0  0  0  0  0  0  0  0
  129.3250  126.7480   69.5920 C   0  0  0  0  0  0  0  0  0  0  0  0
  128.7120  126.0850   68.5310 C   0  0  0  0  0  0  0  0  0  0  0  0
  128.2300  126.8110   67.4450 C   0  0  0  0  0  0  0  0  0  0  0  0
  127.3650  131.8040   64.9330 S   0  0  0  0  0  0  0  0  0  0  0  0
  126.6930  132.2730   63.3890 C   0  0  0  0  0  0  0  0  0  0  0  0
  126.9930  133.4440   62.8280 N   0  0  0  0  0  0  0  0  0  0  0  0
  1  2  1  0
  2  3  2  0
  3  4  1  0
  4  5  1  0
  5  6  1  0
  5  7  1  0
  5  8  1  0
  4  9  2  0
  9 10  1  0
 10 11  1  0
 10 12  2  0
 12 13  1  0
 13 14  2  0
 13 15  1  0
 15 16  1  0
 16 17  2  0
 17 18  1  0
 18 19  2  0
 19 20  1  0
 20 21  2  0
 12 22  1  0
 22 23  1  0
 23 24  2  0
 24  2  1  0
 23  9  1  0
 21 16  1  0
M  END
>  <Binding energies>  (27) 
[-6.13]

>  <Ligand effiencies>  (27) 
[-0.22703703703703704]

>  <Interactions>  (27) 
["V-A:ALA:541:CB:4892, V-A:TYR:539:CE1:4875, V-A:TYR:539:CD1:4873, V-B:LEU:475:CD1:9229, V-A:GLU:543:CD:4908, H-A:GLU:543:OE1:4909, H-B:ASP:366:OD1:8185, V-B:GLU:543:CD:9880, V-A:HIS:456:CE1:4069, V-A:GLU:543:CG:4907, V-B:HIS:456:CE1:9041, V-B:TYR:484:CE2:9317, V-A:GLU:543:CB:4906, V-B:GLU:543:CB:9878, H-B:ASP:366:OD2:8186, H-B:TYR:484:OH:9319, V-B:ILE:369:CG2:8208, V-B:ILE:369:CD1:8210, V-B:ASP:366:CG:8184, V-B:ILE:369:CB:8207, V-B:ASP:366:CB:8183, H-B:GLU:543:OE2:9882, V-A:GLU:543:C:4902, V-A:GLU:543:CA:4904, H-B:ARG:545:NE:9896, V-B:ARG:545:CZ:9898, V-B:ASP:366:CA:8181"]

$$$$
4be_Grossjean_2025
     RDKit          3D

 25 27  0  0  0  0  0  0  0  0999 V2000
  129.4320  128.1280   70.9640 C   0  0  0  0  0  0  0  0  0  0  0  0
  129.1510  127.6060   69.5670 C   0  0  0  0  0  0  0  0  0  0  0  0
  129.3560  126.2640   69.2340 C   0  0  0  0  0  0  0  0  0  0  0  0
  129.0790  125.8550   67.9300 C   0  0  0  0  0  0  0  0  0  0  0  0
  128.6090  126.7850   66.9990 C   0  0  0  0  0  0  0  0  0  0  0  0
  128.4210  128.1120   67.4010 C   0  0  0  0  0  0  0  0  0  0  0  0
  127.9530  129.0000   66.4160 N   0  0  0  0  0  0  0  0  0  0  0  0
  126.6740  129.2890   66.0670 C   0  0  0  0  0  0  0  0  0  0  0  0
  125.6860  128.7840   66.6040 O   0  0  0  0  0  0  0  0  0  0  0  0
  126.5230  130.2460   64.9670 C   0  0  0  0  0  0  0  0  0  0  0  0
  127.5020  131.7110   64.9290 S   0  0  0  0  0  0  0  0  0  0  0  0
  126.7310  132.2420   63.4520 C   0  0  0  0  0  0  0  0  0  0  0  0
  127.0710  133.3870   62.8640 N   0  0  0  0  0  0  0  0  0  0  0  0
  126.4050  133.6900   61.7250 C   0  0  0  0  0  0  0  0  0  0  0  0
  126.8050  135.0000   61.0720 C   0  0  0  0  0  0  0  0  0  0  0  0
  125.4190  132.8820   61.1670 C   0  0  0  0  0  0  0  0  0  0  0  0
  125.0570  131.6730   61.7820 C   0  0  0  0  0  0  0  0  0  0  0  0
  123.9690  130.8150   61.1280 C   0  0  0  0  0  0  0  0  0  0  0  0
  123.4010  131.4070   60.0740 F   0  0  0  0  0  0  0  0  0  0  0  0
  124.4940  129.6660   60.7030 F   0  0  0  0  0  0  0  0  0  0  0  0
  123.0040  130.5590   62.0110 F   0  0  0  0  0  0  0  0  0  0  0  0
  125.7370  131.3260   62.9870 C   0  0  0  0  0  0  0  0  0  0  0  0
  125.6350  130.1990   63.8820 C   0  0  0  0  0  0  0  0  0  0  0  0
  124.7490  129.1710   63.6800 N   0  0  0  0  0  0  0  0  0  0  0  0
  128.6940  128.5210   68.6750 N   0  0  0  0  0  0  0  0  0  0  0  0
  1  2  1  0
  2  3  2  0
  3  4  1  0
  4  5  2  0
  5  6  1  0
  6  7  1  0
  7  8  1  0
  8  9  2  0
  8 10  1  0
 10 11  1  0
 11 12  1  0
 12 13  2  0
 13 14  1  0
 14 15  1  0
 14 16  2  0
 16 17  1  0
 17 18  1  0
 18 19  1  0
 18 20  1  0
 18 21  1  0
 17 22  2  0
 22 23  1  0
 23 24  1  0
  6 25  2  0
 25  2  1  0
 23 10  2  0
 22 12  1  0
M  END
>  <Binding energies>  (28) 
[-6.13]

>  <Ligand effiencies>  (28) 
[-0.21892857142857142]

>  <Interactions>  (28) 
["V-A:ALA:541:CB:4892, V-A:TYR:539:CD1:4873, V-B:LEU:475:CD1:9229, V-A:GLU:543:CD:4908, H-A:GLU:543:OE1:4909, V-B:GLU:543:CG:9879, H-B:ASP:366:OD1:8185, V-B:GLU:543:CD:9880, V-A:HIS:456:CE1:4069, V-A:GLU:543:CG:4907, V-B:HIS:456:CE1:9041, V-B:TYR:484:CE2:9317, V-B:GLU:543:CB:9878, H-B:ASP:366:OD2:8186, H-B:TYR:484:OH:9319, V-B:ILE:369:CG2:8208, V-B:ILE:369:CD1:8210, V-B:ILE:369:CG1:8209, V-B:ASP:366:CG:8184, V-B:ILE:369:CB:8207, V-B:ASP:366:CB:8183, H-B:GLU:543:OE2:9882, H-B:ARG:545:NE:9896, V-B:GLY:453:CA:9015, V-B:ARG:545:CZ:9898, V-B:HIS:456:CD2:9039, V-B:ASP:366:CA:8181"]

$$$$
4bg_Grossjean_2025
     RDKit          3D

 25 27  0  0  0  0  0  0  0  0999 V2000
  133.5130  123.6250   57.8080 C   0  0  0  0  0  0  0  0  0  0  0  0
  132.9600  124.1940   59.1020 C   0  0  0  0  0  0  0  0  0  0  0  0
  131.7250  124.8360   59.1330 C   0  0  0  0  0  0  0  0  0  0  0  0
  131.2270  125.3630   60.3360 C   0  0  0  0  0  0  0  0  0  0  0  0
  129.8640  126.0610   60.3210 C   0  0  0  0  0  0  0  0  0  0  0  0
  128.9710  125.4810   61.1270 F   0  0  0  0  0  0  0  0  0  0  0  0
  130.0010  127.3250   60.7210 F   0  0  0  0  0  0  0  0  0  0  0  0
  129.3590  126.0420   59.0880 F   0  0  0  0  0  0  0  0  0  0  0  0
  132.0370  125.2060   61.5000 C   0  0  0  0  0  0  0  0  0  0  0  0
  131.8670  125.6090   62.8750 C   0  0  0  0  0  0  0  0  0  0  0  0
  130.7670  126.3000   63.3170 N   0  0  0  0  0  0  0  0  0  0  0  0
  132.9220  125.2240   63.7180 C   0  0  0  0  0  0  0  0  0  0  0  0
  133.0910  125.4910   65.1460 C   0  0  0  0  0  0  0  0  0  0  0  0
  133.8680  124.8290   65.8360 O   0  0  0  0  0  0  0  0  0  0  0  0
  132.3770  126.5220   65.6430 N   0  0  0  0  0  0  0  0  0  0  0  0
  132.3760  126.9590   67.0390 C   0  0  0  0  0  0  0  0  0  0  0  0
  131.0180  126.8330   67.7170 C   0  0  0  0  0  0  0  0  0  0  0  0
  130.3110  125.6280   67.6520 C   0  0  0  0  0  0  0  0  0  0  0  0
  129.0880  125.5030   68.3040 C   0  0  0  0  0  0  0  0  0  0  0  0
  128.5810  126.5780   69.0330 C   0  0  0  0  0  0  0  0  0  0  0  0
  129.2880  127.7750   69.1160 C   0  0  0  0  0  0  0  0  0  0  0  0
  130.5110  127.9010   68.4620 C   0  0  0  0  0  0  0  0  0  0  0  0
  134.1820  124.3800   62.8230 S   0  0  0  0  0  0  0  0  0  0  0  0
  133.2800  124.5210   61.3340 C   0  0  0  0  0  0  0  0  0  0  0  0
  133.7480  124.0250   60.1880 N   0  0  0  0  0  0  0  0  0  0  0  0
  1  2  1  0
  2  3  2  0
  3  4  1  0
  4  5  1  0
  5  6  1  0
  5  7  1  0
  5  8  1  0
  4  9  2  0
  9 10  1  0
 10 11  1  0
 10 12  2  0
 12 13  1  0
 13 14  2  0
 13 15  1  0
 15 16  1  0
 16 17  1  0
 17 18  2  0
 18 19  1  0
 19 20  2  0
 20 21  1  0
 21 22  2  0
 12 23  1  0
 23 24  1  0
 24 25  2  0
 25  2  1  0
 24  9  1  0
 22 17  1  0
M  END
>  <Binding energies>  (29) 
[-6.65]

>  <Ligand effiencies>  (29) 
[-0.23750000000000002]

>  <Interactions>  (29) 
["V-A:GLU:543:CD:4908, V-A:ASP:366:CG:3212, V-A:ARG:545:CD:4923, V-A:ARG:545:CG:4922, V-A:GLY:453:C:4041, H-A:TYR:484:OH:4347, H-A:GLU:543:OE2:4910, V-A:ASP:366:CA:3209, V-A:ASP:366:CB:3211, V-A:TYR:484:CZ:4346, H-A:GLU:543:OE1:4909, V-A:ARG:545:CZ:4926, H-A:GLY:454:N:4049, V-A:ILE:369:CB:3235, V-A:ILE:369:CG2:3236, V-B:TYR:539:CE2:9848, V-B:GLU:543:CG:9879, V-B:TYR:539:CZ:9849, V-A:TYR:484:CE2:4345, V-A:HIS:456:CE1:4069, V-B:GLU:543:CA:9876, V-B:HIS:456:CE1:9041, V-A:GLY:453:CA:4043, V-A:GLU:543:CB:4906, V-B:GLU:543:C:9874, V-B:GLU:543:CB:9878, V-A:GLU:543:C:4902, V-A:ASP:366:C:3207"]

$$$$
4ca_Grossjean_2025
     RDKit          3D

 34 37  0  0  0  0  0  0  0  0999 V2000
  125.7360  136.4570   60.1970 C   0  0  0  0  0  0  0  0  0  0  0  0
  125.8970  135.1470   60.9740 C   0  0  0  0  0  0  0  0  0  0  0  0
  124.7640  134.3200   60.7460 O   0  0  0  0  0  0  0  0  0  0  0  0
  124.2580  133.5350   61.7320 C   0  0  0  0  0  0  0  0  0  0  0  0
  123.4460  133.9370   62.5720 O   0  0  0  0  0  0  0  0  0  0  0  0
  124.7820  132.1290   61.6980 C   0  0  0  0  0  0  0  0  0  0  0  0
  125.4960  131.6920   60.5740 C   0  0  0  0  0  0  0  0  0  0  0  0
  125.9980  130.3950   60.5150 C   0  0  0  0  0  0  0  0  0  0  0  0
  125.7910  129.5070   61.5700 C   0  0  0  0  0  0  0  0  0  0  0  0
  126.3490  128.2240   61.4090 N   0  0  0  0  0  0  0  0  0  0  0  0
  126.7710  127.3320   62.3390 C   0  0  0  0  0  0  0  0  0  0  0  0
  126.6790  127.5060   63.5540 O   0  0  0  0  0  0  0  0  0  0  0  0
  127.3470  126.0960   61.8040 C   0  0  0  0  0  0  0  0  0  0  0  0
  128.6300  125.2650   62.6810 S   0  0  0  0  0  0  0  0  0  0  0  0
  128.6850  123.9940   61.4830 C   0  0  0  0  0  0  0  0  0  0  0  0
  129.5310  122.9720   61.5950 N   0  0  0  0  0  0  0  0  0  0  0  0
  129.4920  122.0240   60.6240 C   0  0  0  0  0  0  0  0  0  0  0  0
  130.4510  120.8800   60.7830 C   0  0  0  0  0  0  0  0  0  0  0  0
  130.0420  119.6760   61.3800 C   0  0  0  0  0  0  0  0  0  0  0  0
  130.9280  118.6140   61.5360 C   0  0  0  0  0  0  0  0  0  0  0  0
  132.2420  118.7400   61.0960 C   0  0  0  0  0  0  0  0  0  0  0  0
  132.6740  119.9210   60.5040 C   0  0  0  0  0  0  0  0  0  0  0  0
  131.7850  120.9820   60.3500 C   0  0  0  0  0  0  0  0  0  0  0  0
  128.6200  122.1180   59.5330 C   0  0  0  0  0  0  0  0  0  0  0  0
  127.7280  123.1940   59.4040 C   0  0  0  0  0  0  0  0  0  0  0  0
  126.7980  123.2320   58.1860 C   0  0  0  0  0  0  0  0  0  0  0  0
  126.9960  122.2160   57.3440 F   0  0  0  0  0  0  0  0  0  0  0  0
  125.5280  123.1780   58.5850 F   0  0  0  0  0  0  0  0  0  0  0  0
  126.9970  124.3590   57.5020 F   0  0  0  0  0  0  0  0  0  0  0  0
  127.7490  124.1850   60.4270 C   0  0  0  0  0  0  0  0  0  0  0  0
  126.9940  125.3960   60.6380 C   0  0  0  0  0  0  0  0  0  0  0  0
  126.0200  125.8230   59.7720 N   0  0  0  0  0  0  0  0  0  0  0  0
  125.0810  129.9360   62.7010 C   0  0  0  0  0  0  0  0  0  0  0  0
  124.5820  131.2350   62.7600 C   0  0  0  0  0  0  0  0  0  0  0  0
  1  2  1  0
  2  3  1  0
  3  4  1  0
  4  5  2  0
  4  6  1  0
  6  7  2  0
  7  8  1  0
  8  9  2  0
  9 10  1  0
 10 11  1  0
 11 12  2  0
 11 13  1  0
 13 14  1  0
 14 15  1  0
 15 16  2  0
 16 17  1  0
 17 18  1  0
 18 19  2  0
 19 20  1  0
 20 21  2  0
 21 22  1  0
 22 23  2  0
 17 24  2  0
 24 25  1  0
 25 26  1  0
 26 27  1  0
 26 28  1  0
 26 29  1  0
 25 30  2  0
 30 31  1  0
 31 32  1  0
  9 33  1  0
 33 34  2  0
 34  6  1  0
 31 13  2  0
 30 15  1  0
 23 18  1  0
M  END
>  <Binding energies>  (30) 
[-7.04]

>  <Ligand effiencies>  (30) 
[-0.19027027027027027]

>  <Interactions>  (30) 
["V-A:TYR:539:CE1:4875, V-A:TYR:539:CD1:4873, V-B:LEU:475:CD1:9229, V-A:ILE:369:CG2:3236, V-B:TYR:539:CD2:9846, V-B:TYR:539:CE2:9848, V-A:LEU:475:CD1:4257, V-A:PRO:482:CB:4325, V-A:PRO:482:CG:4326, V-B:PRO:540:CD:9859, V-B:PRO:540:CA:9855, H-B:ASP:366:OD1:8185, V-B:ALA:541:CB:9864, V-B:MET:535:CE:9807, V-B:PRO:540:N:9856, V-B:GLU:543:CD:9880, V-B:PRO:540:CB:9857, V-B:TYR:539:C:9839, V-B:ALA:541:CA:9862, H-B:ARG:545:NH2:9900, V-A:TYR:539:CB:4871, V-B:ILE:369:CG2:8208, V-B:ILE:369:CD1:8210, V-B:ASP:366:CG:8184, V-B:LEU:373:CD1:8251, V-B:ASP:366:CB:8183, V-B:SER:385:CB:8380, V-B:PRO:540:C:9853, V-A:TYR:539:CG:4872, H-B:TYR:531:OH:9767, H-B:SER:385:OG:8381"]

$$$$
4cb_Grossjean_2025
     RDKit          3D

 33 36  0  0  0  0  0  0  0  0999 V2000
  130.8600  117.4880   60.1690 C   0  0  0  0  0  0  0  0  0  0  0  0
  132.0670  117.9980   60.7180 O   0  0  0  0  0  0  0  0  0  0  0  0
  132.5270  119.2280   60.3730 C   0  0  0  0  0  0  0  0  0  0  0  0
  133.2210  119.4400   59.3740 O   0  0  0  0  0  0  0  0  0  0  0  0
  132.1060  120.3080   61.3290 C   0  0  0  0  0  0  0  0  0  0  0  0
  130.8400  120.2380   61.9260 C   0  0  0  0  0  0  0  0  0  0  0  0
  130.4240  121.2190   62.8210 C   0  0  0  0  0  0  0  0  0  0  0  0
  131.2600  122.2930   63.1330 C   0  0  0  0  0  0  0  0  0  0  0  0
  130.7440  123.2180   64.0610 N   0  0  0  0  0  0  0  0  0  0  0  0
  129.9940  124.3290   63.8600 C   0  0  0  0  0  0  0  0  0  0  0  0
  129.5810  124.6960   62.7590 O   0  0  0  0  0  0  0  0  0  0  0  0
  129.6680  125.0900   65.0690 C   0  0  0  0  0  0  0  0  0  0  0  0
  130.1170  124.4690   66.6560 S   0  0  0  0  0  0  0  0  0  0  0  0
  129.4610  125.8830   67.4460 C   0  0  0  0  0  0  0  0  0  0  0  0
  129.5030  126.0230   68.7690 N   0  0  0  0  0  0  0  0  0  0  0  0
  128.9770  127.1620   69.2910 C   0  0  0  0  0  0  0  0  0  0  0  0
  129.0440  127.2930   70.7850 C   0  0  0  0  0  0  0  0  0  0  0  0
  128.6640  126.2270   71.6160 C   0  0  0  0  0  0  0  0  0  0  0  0
  128.7200  126.3430   73.0030 C   0  0  0  0  0  0  0  0  0  0  0  0
  129.1580  127.5310   73.5800 C   0  0  0  0  0  0  0  0  0  0  0  0
  129.5370  128.6040   72.7790 C   0  0  0  0  0  0  0  0  0  0  0  0
  129.4780  128.4840   71.3930 C   0  0  0  0  0  0  0  0  0  0  0  0
  128.3930  128.1440   68.4830 C   0  0  0  0  0  0  0  0  0  0  0  0
  128.3410  128.0050   67.0880 C   0  0  0  0  0  0  0  0  0  0  0  0
  127.6880  129.1210   66.2620 C   0  0  0  0  0  0  0  0  0  0  0  0
  128.2190  129.2480   65.0440 F   0  0  0  0  0  0  0  0  0  0  0  0
  126.3900  128.8640   66.1060 F   0  0  0  0  0  0  0  0  0  0  0  0
  127.8350  130.2890   66.8860 F   0  0  0  0  0  0  0  0  0  0  0  0
  128.9040  126.8220   66.5290 C   0  0  0  0  0  0  0  0  0  0  0  0
  129.0420  126.3430   65.1740 C   0  0  0  0  0  0  0  0  0  0  0  0
  128.5970  127.0540   64.0890 N   0  0  0  0  0  0  0  0  0  0  0  0
  132.5300  122.3690   62.5420 C   0  0  0  0  0  0  0  0  0  0  0  0
  132.9450  121.3860   61.6480 C   0  0  0  0  0  0  0  0  0  0  0  0
  1  2  1  0
  2  3  1  0
  3  4  2  0
  3  5  1  0
  5  6  2  0
  6  7  1  0
  7  8  2  0
  8  9  1  0
  9 10  1  0
 10 11  2  0
 10 12  1  0
 12 13  1  0
 13 14  1  0
 14 15  2  0
 15 16  1  0
 16 17  1  0
 17 18  2  0
 18 19  1  0
 19 20  2  0
 20 21  1  0
 21 22  2  0
 16 23  2  0
 23 24  1  0
 24 25  1  0
 25 26  1  0
 25 27  1  0
 25 28  1  0
 24 29  2  0
 29 30  1  0
 30 31  1  0
  8 32  1  0
 32 33  2  0
 33  5  1  0
 30 12  2  0
 29 14  1  0
 22 17  1  0
M  END
>  <Binding energies>  (31) 
[-6.89]

>  <Ligand effiencies>  (31) 
[-0.1913888888888889]

>  <Interactions>  (31) 
["V-A:GLU:543:CD:4908, H-A:TYR:484:OH:4347, H-A:GLU:543:OE2:4910, V-A:TYR:484:CZ:4346, H-A:GLU:543:OE1:4909, V-B:TYR:539:CD2:9846, H-A:SER:385:OG:3409, V-A:LEU:475:CD1:4257, V-A:HIS:383:CE1:3392, H-A:HIS:383:NE2:3393, V-A:PRO:482:CG:4326, V-B:GLU:543:CG:9879, V-B:ALA:541:CB:9864, V-B:GLU:543:CD:9880, V-A:TYR:484:CE2:4345, V-A:HIS:456:CE1:4069, V-A:GLU:543:CG:4907, V-B:HIS:456:CE1:9041, V-B:TYR:484:CE2:9317, V-A:GLU:543:CB:4906, V-B:GLU:543:CB:9878, H-B:GLU:543:OE2:9882, V-B:HIS:456:CD2:9039, V-B:TYR:484:CZ:9318, V-B:TYR:539:CB:9843"]

$$$$
4cc_Grossjean_2025
     RDKit          3D

 31 34  0  0  0  0  0  0  0  0999 V2000
  134.1160  121.8160   62.0480 C   0  0  0  0  0  0  0  0  0  0  0  0
  134.4060  122.9650   62.8370 O   0  0  0  0  0  0  0  0  0  0  0  0
  133.4660  123.9740   62.9300 C   0  0  0  0  0  0  0  0  0  0  0  0
  132.9310  124.4390   61.7290 C   0  0  0  0  0  0  0  0  0  0  0  0
  131.9760  125.4520   61.7230 C   0  0  0  0  0  0  0  0  0  0  0  0
  131.5500  126.0230   62.9240 C   0  0  0  0  0  0  0  0  0  0  0  0
  130.5710  127.0290   62.8200 N   0  0  0  0  0  0  0  0  0  0  0  0
  129.3960  127.0140   62.1450 C   0  0  0  0  0  0  0  0  0  0  0  0
  128.9740  126.0410   61.5180 O   0  0  0  0  0  0  0  0  0  0  0  0
  128.6220  128.2580   62.2020 C   0  0  0  0  0  0  0  0  0  0  0  0
  128.9770  129.5770   61.0880 S   0  0  0  0  0  0  0  0  0  0  0  0
  127.7070  130.5610   61.7780 C   0  0  0  0  0  0  0  0  0  0  0  0
  127.4520  131.7850   61.3210 N   0  0  0  0  0  0  0  0  0  0  0  0
  126.4390  132.4690   61.9130 C   0  0  0  0  0  0  0  0  0  0  0  0
  126.1760  133.8470   61.3790 C   0  0  0  0  0  0  0  0  0  0  0  0
  124.9690  134.1460   60.7250 C   0  0  0  0  0  0  0  0  0  0  0  0
  124.7190  135.4220   60.2260 C   0  0  0  0  0  0  0  0  0  0  0  0
  125.6750  136.4200   60.3740 C   0  0  0  0  0  0  0  0  0  0  0  0
  126.8810  136.1510   61.0140 C   0  0  0  0  0  0  0  0  0  0  0  0
  127.1270  134.8740   61.5110 C   0  0  0  0  0  0  0  0  0  0  0  0
  125.7000  131.9290   62.9700 C   0  0  0  0  0  0  0  0  0  0  0  0
  125.9630  130.6390   63.4600 C   0  0  0  0  0  0  0  0  0  0  0  0
  125.1090  130.1080   64.6170 C   0  0  0  0  0  0  0  0  0  0  0  0
  125.8220  129.4490   65.5340 F   0  0  0  0  0  0  0  0  0  0  0  0
  124.5050  131.1220   65.2350 F   0  0  0  0  0  0  0  0  0  0  0  0
  124.1880  129.2670   64.1480 F   0  0  0  0  0  0  0  0  0  0  0  0
  127.0170  129.9090   62.8410 C   0  0  0  0  0  0  0  0  0  0  0  0
  127.5650  128.5930   63.0640 C   0  0  0  0  0  0  0  0  0  0  0  0
  127.0900  127.7470   64.0340 N   0  0  0  0  0  0  0  0  0  0  0  0
  132.0740  125.5510   64.1370 C   0  0  0  0  0  0  0  0  0  0  0  0
  133.0270  124.5380   64.1380 C   0  0  0  0  0  0  0  0  0  0  0  0
  1  2  1  0
  2  3  1  0
  3  4  2  0
  4  5  1  0
  5  6  2  0
  6  7  1  0
  7  8  1  0
  8  9  2  0
  8 10  1  0
 10 11  1  0
 11 12  1  0
 12 13  2  0
 13 14  1  0
 14 15  1  0
 15 16  2  0
 16 17  1  0
 17 18  2  0
 18 19  1  0
 19 20  2  0
 14 21  2  0
 21 22  1  0
 22 23  1  0
 23 24  1  0
 23 25  1  0
 23 26  1  0
 22 27  2  0
 27 28  1  0
 28 29  1  0
  6 30  1  0
 30 31  2  0
 31  3  1  0
 28 10  2  0
 27 12  1  0
 20 15  1  0
M  END
>  <Binding energies>  (32) 
[-6.82]

>  <Ligand effiencies>  (32) 
[-0.20058823529411765]

>  <Interactions>  (32) 
["V-A:ALA:541:CB:4892, V-A:TYR:539:CE1:4875, V-A:TYR:539:CD1:4873, V-B:LEU:475:CD1:9229, V-A:GLU:543:CD:4908, V-A:ASP:366:CG:3212, V-A:GLY:454:CA:4048, H-A:GLU:543:OE2:4910, V-A:ILE:369:CD1:3238, H-A:GLU:543:OE1:4909, V-A:ARG:545:CZ:4926, H-A:GLY:454:N:4049, V-A:LEU:475:CD1:4257, H-B:GLU:543:OE1:9881, V-B:GLU:543:CD:9880, V-B:PRO:482:CB:9297, V-A:TYR:539:CB:4871, V-B:GLY:454:CA:9020, V-B:ILE:369:CG2:8208, V-B:PRO:482:CG:9298, V-B:LEU:373:CD1:8251, H-B:GLU:543:OE2:9882, V-B:SER:385:CB:8380, V-B:GLY:454:C:9018, V-B:GLY:453:C:9013, V-B:ARG:545:CZ:9898, V-B:TYR:484:CZ:9318"]

$$$$
4ce_Grossjean_2025
     RDKit          3D

 30 33  0  0  0  0  0  0  0  0999 V2000
  129.4250  128.1290   71.2180 C   0  0  0  0  0  0  0  0  0  0  0  0
  129.1460  127.4490   69.8910 C   0  0  0  0  0  0  0  0  0  0  0  0
  129.3020  126.0700   69.7290 C   0  0  0  0  0  0  0  0  0  0  0  0
  129.0190  125.5110   68.4820 C   0  0  0  0  0  0  0  0  0  0  0  0
  128.5900  126.3340   67.4390 C   0  0  0  0  0  0  0  0  0  0  0  0
  128.4590  127.7090   67.6680 C   0  0  0  0  0  0  0  0  0  0  0  0
  128.0000  128.4820   66.5860 N   0  0  0  0  0  0  0  0  0  0  0  0
  126.7290  128.6530   66.1440 C   0  0  0  0  0  0  0  0  0  0  0  0
  125.7440  128.1350   66.6740 O   0  0  0  0  0  0  0  0  0  0  0  0
  126.5810  129.5130   64.9680 C   0  0  0  0  0  0  0  0  0  0  0  0
  126.3900  131.2540   65.1620 S   0  0  0  0  0  0  0  0  0  0  0  0
  126.3360  131.4860   63.4310 C   0  0  0  0  0  0  0  0  0  0  0  0
  126.1980  132.6970   62.8970 N   0  0  0  0  0  0  0  0  0  0  0  0
  126.1820  132.7790   61.5400 C   0  0  0  0  0  0  0  0  0  0  0  0
  126.0300  134.1580   60.9700 C   0  0  0  0  0  0  0  0  0  0  0  0
  127.0340  135.1230   61.1510 C   0  0  0  0  0  0  0  0  0  0  0  0
  126.8970  136.4080   60.6310 C   0  0  0  0  0  0  0  0  0  0  0  0
  125.7510  136.7450   59.9190 C   0  0  0  0  0  0  0  0  0  0  0  0
  124.7410  135.8090   59.7260 C   0  0  0  0  0  0  0  0  0  0  0  0
  124.8800  134.5260   60.2500 C   0  0  0  0  0  0  0  0  0  0  0  0
  126.2830  131.6450   60.7290 C   0  0  0  0  0  0  0  0  0  0  0  0
  126.4240  130.3620   61.2820 C   0  0  0  0  0  0  0  0  0  0  0  0
  126.5320  129.1620   60.3350 C   0  0  0  0  0  0  0  0  0  0  0  0
  126.2560  129.4700   59.0660 F   0  0  0  0  0  0  0  0  0  0  0  0
  127.7720  128.6730   60.3660 F   0  0  0  0  0  0  0  0  0  0  0  0
  125.6760  128.2130   60.7110 F   0  0  0  0  0  0  0  0  0  0  0  0
  126.4580  130.2650   62.7030 C   0  0  0  0  0  0  0  0  0  0  0  0
  126.5950  129.1520   63.6100 C   0  0  0  0  0  0  0  0  0  0  0  0
  126.7290  127.8570   63.1800 N   0  0  0  0  0  0  0  0  0  0  0  0
  128.7300  128.2620   68.8860 N   0  0  0  0  0  0  0  0  0  0  0  0
  1  2  1  0
  2  3  2  0
  3  4  1  0
  4  5  2  0
  5  6  1  0
  6  7  1  0
  7  8  1  0
  8  9  2  0
  8 10  1  0
 10 11  1  0
 11 12  1  0
 12 13  2  0
 13 14  1  0
 14 15  1  0
 15 16  2  0
 16 17  1  0
 17 18  2  0
 18 19  1  0
 19 20  2  0
 14 21  2  0
 21 22  1  0
 22 23  1  0
 23 24  1  0
 23 25  1  0
 23 26  1  0
 22 27  2  0
 27 28  1  0
 28 29  1  0
  6 30  2  0
 30  2  1  0
 28 10  2  0
 27 12  1  0
 20 15  1  0
M  END
>  <Binding energies>  (33) 
[-7.35]

>  <Ligand effiencies>  (33) 
[-0.22272727272727272]

>  <Interactions>  (33) 
["V-A:ALA:541:CB:4892, V-A:TYR:539:CE1:4875, V-A:TYR:539:CD1:4873, V-B:LEU:475:CD1:9229, V-A:GLU:543:CD:4908, V-A:TYR:539:C:4867, H-A:GLU:543:OE1:4909, H-B:GLU:543:OE1:9881, V-B:GLU:543:CG:9879, V-B:GLU:543:CD:9880, V-A:TYR:484:CE2:4345, V-A:HIS:456:CE1:4069, V-B:GLU:543:CA:9876, V-B:HIS:456:CE1:9041, V-B:TYR:484:CE2:9317, V-B:GLU:543:C:9874, V-B:GLU:543:CB:9878, V-B:PRO:482:CB:9297, V-A:TYR:539:CB:4871, V-B:ILE:369:CG2:8208, V-B:PRO:482:CG:9298, V-B:ASP:366:CG:8184, V-B:LEU:373:CD1:8251, V-B:ASP:366:CB:8183, H-B:GLU:543:OE2:9882, V-B:SER:385:CB:8380, H-B:ARG:545:NE:9896, V-B:HIS:456:CD2:9039, V-B:TYR:484:CZ:9318, V-A:TYR:539:CG:4872"]

$$$$
4cf_Grossjean_2025
     RDKit          3D

 29 32  0  0  0  0  0  0  0  0999 V2000
  128.2310  127.7290   64.2630 N   0  0  0  0  0  0  0  0  0  0  0  0
  128.4510  128.5260   63.1680 C   0  0  0  0  0  0  0  0  0  0  0  0
  129.3260  128.1770   62.1260 C   0  0  0  0  0  0  0  0  0  0  0  0
  130.1710  126.9860   62.0020 C   0  0  0  0  0  0  0  0  0  0  0  0
  130.4310  126.5150   60.8940 O   0  0  0  0  0  0  0  0  0  0  0  0
  130.6310  126.4760   63.1700 N   0  0  0  0  0  0  0  0  0  0  0  0
  131.4120  125.3280   63.4030 C   0  0  0  0  0  0  0  0  0  0  0  0
  131.0470  124.0100   63.0680 C   0  0  0  0  0  0  0  0  0  0  0  0
  131.9120  122.9560   63.3700 C   0  0  0  0  0  0  0  0  0  0  0  0
  133.1220  123.2440   64.0000 C   0  0  0  0  0  0  0  0  0  0  0  0
  133.4950  124.5040   64.3400 N   0  0  0  0  0  0  0  0  0  0  0  0
  132.6430  125.5180   64.0410 C   0  0  0  0  0  0  0  0  0  0  0  0
  129.3620  129.4250   60.8820 S   0  0  0  0  0  0  0  0  0  0  0  0
  128.2160  130.4040   61.7670 C   0  0  0  0  0  0  0  0  0  0  0  0
  127.8080  131.5840   61.3060 N   0  0  0  0  0  0  0  0  0  0  0  0
  126.9280  132.2800   62.0730 C   0  0  0  0  0  0  0  0  0  0  0  0
  126.4920  133.6100   61.5310 C   0  0  0  0  0  0  0  0  0  0  0  0
  127.2680  134.7600   61.7430 C   0  0  0  0  0  0  0  0  0  0  0  0
  126.8720  135.9980   61.2440 C   0  0  0  0  0  0  0  0  0  0  0  0
  125.6890  136.1020   60.5200 C   0  0  0  0  0  0  0  0  0  0  0  0
  124.9020  134.9780   60.2920 C   0  0  0  0  0  0  0  0  0  0  0  0
  125.3030  133.7430   60.7930 C   0  0  0  0  0  0  0  0  0  0  0  0
  126.4440  131.7760   63.2840 C   0  0  0  0  0  0  0  0  0  0  0  0
  126.8640  130.5310   63.7760 C   0  0  0  0  0  0  0  0  0  0  0  0
  126.2960  130.0420   65.1140 C   0  0  0  0  0  0  0  0  0  0  0  0
  126.0280  128.7340   65.1230 F   0  0  0  0  0  0  0  0  0  0  0  0
  127.1750  130.2750   66.0890 F   0  0  0  0  0  0  0  0  0  0  0  0
  125.1590  130.6830   65.3840 F   0  0  0  0  0  0  0  0  0  0  0  0
  127.8010  129.8000   62.9900 C   0  0  0  0  0  0  0  0  0  0  0  0
  1  2  1  0
  2  3  2  0
  3  4  1  0
  4  5  2  0
  4  6  1  0
  6  7  1  0
  7  8  2  0
  8  9  1  0
  9 10  2  0
 10 11  1  0
 11 12  2  0
  3 13  1  0
 13 14  1  0
 14 15  2  0
 15 16  1  0
 16 17  1  0
 17 18  2  0
 18 19  1  0
 19 20  2  0
 20 21  1  0
 21 22  2  0
 16 23  2  0
 23 24  1  0
 24 25  1  0
 25 26  1  0
 25 27  1  0
 25 28  1  0
 24 29  2  0
 29  2  1  0
 12  7  1  0
 29 14  1  0
 22 17  1  0
M  END
>  <Binding energies>  (34) 
[-7.08]

>  <Ligand effiencies>  (34) 
[-0.22125]

>  <Interactions>  (34) 
["V-A:ALA:541:CB:4892, V-A:TYR:539:CE1:4875, V-A:TYR:539:CD1:4873, V-B:LEU:475:CD1:9229, V-A:GLU:543:CD:4908, H-A:TYR:484:OH:4347, V-A:GLY:454:CA:4048, H-A:GLU:543:OE2:4910, H-A:GLU:543:OE1:4909, V-A:ARG:545:CZ:4926, H-A:GLY:454:N:4049, V-A:LEU:475:CD1:4257, V-A:GLU:543:CG:4907, V-B:TYR:484:CE2:9317, V-B:PRO:482:CB:9297, V-B:GLY:454:CA:9020, V-B:ILE:369:CG2:8208, V-B:PRO:482:CG:9298, H-B:GLU:543:OE2:9882, V-B:SER:385:CB:8380, V-B:ARG:545:CZ:9898, V-B:TYR:484:CZ:9318"]

$$$$
4ci_Grossjean_2025
     RDKit          3D

 28 31  0  0  0  0  0  0  0  0999 V2000
  128.5040  127.2830   65.7200 N   0  0  0  0  0  0  0  0  0  0  0  0
  128.6240  127.1230   64.3630 C   0  0  0  0  0  0  0  0  0  0  0  0
  129.6110  126.3210   63.7680 C   0  0  0  0  0  0  0  0  0  0  0  0
  130.6540  125.5220   64.4180 C   0  0  0  0  0  0  0  0  0  0  0  0
  130.5920  124.2910   64.4210 O   0  0  0  0  0  0  0  0  0  0  0  0
  131.6500  126.2300   65.0060 N   0  0  0  0  0  0  0  0  0  0  0  0
  132.7520  125.7320   65.6890 C   0  0  0  0  0  0  0  0  0  0  0  0
  132.9280  125.8810   67.0640 C   0  0  0  0  0  0  0  0  0  0  0  0
  134.1230  125.2590   67.3420 C   0  0  0  0  0  0  0  0  0  0  0  0
  134.6410  124.7610   66.1930 O   0  0  0  0  0  0  0  0  0  0  0  0
  133.7630  125.0680   65.1520 N   0  0  0  0  0  0  0  0  0  0  0  0
  129.4680  126.3340   62.0120 S   0  0  0  0  0  0  0  0  0  0  0  0
  128.0970  127.4160   62.0860 C   0  0  0  0  0  0  0  0  0  0  0  0
  127.4820  127.8370   60.9830 N   0  0  0  0  0  0  0  0  0  0  0  0
  126.4240  128.6740   61.1410 C   0  0  0  0  0  0  0  0  0  0  0  0
  125.7540  129.1350   59.8790 C   0  0  0  0  0  0  0  0  0  0  0  0
  124.8680  130.2250   59.8900 C   0  0  0  0  0  0  0  0  0  0  0  0
  124.2450  130.6580   58.7220 C   0  0  0  0  0  0  0  0  0  0  0  0
  124.4990  130.0040   57.5220 C   0  0  0  0  0  0  0  0  0  0  0  0
  125.3680  128.9190   57.4820 C   0  0  0  0  0  0  0  0  0  0  0  0
  125.9880  128.4890   58.6520 C   0  0  0  0  0  0  0  0  0  0  0  0
  126.0000  129.0970   62.4050 C   0  0  0  0  0  0  0  0  0  0  0  0
  126.6410  128.6590   63.5760 C   0  0  0  0  0  0  0  0  0  0  0  0
  126.1230  129.1620   64.9280 C   0  0  0  0  0  0  0  0  0  0  0  0
  125.7480  128.1760   65.7450 F   0  0  0  0  0  0  0  0  0  0  0  0
  127.0810  129.8510   65.5470 F   0  0  0  0  0  0  0  0  0  0  0  0
  125.0650  129.9510   64.7410 F   0  0  0  0  0  0  0  0  0  0  0  0
  127.7440  127.7710   63.4210 C   0  0  0  0  0  0  0  0  0  0  0  0
  1  2  1  0
  2  3  2  0
  3  4  1  0
  4  5  2  0
  4  6  1  0
  6  7  1  0
  7  8  1  0
  8  9  2  0
  9 10  1  0
 10 11  1  0
  3 12  1  0
 12 13  1  0
 13 14  2  0
 14 15  1  0
 15 16  1  0
 16 17  2  0
 17 18  1  0
 18 19  2  0
 19 20  1  0
 20 21  2  0
 15 22  2  0
 22 23  1  0
 23 24  1  0
 24 25  1  0
 24 26  1  0
 24 27  1  0
 23 28  2  0
 28  2  1  0
 11  7  2  0
 28 13  1  0
 21 16  1  0
M  END
>  <Binding energies>  (35) 
[-7.47]

>  <Ligand effiencies>  (35) 
[-0.24096774193548387]

>  <Interactions>  (35) 
["V-A:TYR:539:CE1:4875, V-A:GLU:543:CD:4908, V-A:ARG:545:CD:4923, V-A:ARG:545:CG:4922, H-A:TYR:484:OH:4347, H-A:GLU:543:OE2:4910, V-A:TYR:484:CZ:4346, H-A:ARG:545:NH2:4928, H-A:GLU:543:OE1:4909, V-A:ARG:545:CZ:4926, H-A:GLY:454:N:4049, H-A:ARG:545:NE:4924, V-B:GLU:543:CD:9880, V-A:HIS:456:CE1:4069, V-B:ILE:369:CG2:8208, V-B:ASP:366:CG:8184, V-B:ILE:369:CB:8207, V-B:ASP:366:CB:8183, H-B:GLU:543:OE2:9882, V-B:ARG:545:CD:9895, V-B:ARG:545:CZ:9898, H-A:ILE:455:N:4054, V-B:TYR:531:CZ:9766, V-B:ASP:366:C:8179, V-B:ASP:366:CA:8181, V-B:TYR:531:CE1:9764, V-A:ILE:455:C:4051, V-A:TYR:539:CZ:4877"]

$$$$
8a_Ghoteimi_2023
     RDKit          3D

 40 44  0  0  0  0  0  0  0  0999 V2000
  130.6780  117.5520   60.1170 C   0  0  0  0  0  0  0  0  0  0  0  0
  131.6220  117.4930   61.3210 C   0  0  0  0  0  0  0  0  0  0  0  0
  132.8380  118.1580   61.0030 O   0  0  0  0  0  0  0  0  0  0  0  0
  132.8340  119.4000   60.4530 C   0  0  0  0  0  0  0  0  0  0  0  0
  133.1280  119.6230   59.2740 O   0  0  0  0  0  0  0  0  0  0  0  0
  132.4410  120.4770   61.4220 C   0  0  0  0  0  0  0  0  0  0  0  0
  131.0910  120.6390   61.7550 C   0  0  0  0  0  0  0  0  0  0  0  0
  130.6950  121.6290   62.6500 C   0  0  0  0  0  0  0  0  0  0  0  0
  131.6380  122.4780   63.2300 C   0  0  0  0  0  0  0  0  0  0  0  0
  131.1220  123.4450   64.1160 N   0  0  0  0  0  0  0  0  0  0  0  0
  130.6150  124.6780   63.8690 C   0  0  0  0  0  0  0  0  0  0  0  0
  130.5240  125.1800   62.7490 O   0  0  0  0  0  0  0  0  0  0  0  0
  130.1550  125.4120   65.0520 C   0  0  0  0  0  0  0  0  0  0  0  0
  130.9020  125.1270   66.6240 S   0  0  0  0  0  0  0  0  0  0  0  0
  129.8430  126.2870   67.3900 C   0  0  0  0  0  0  0  0  0  0  0  0
  129.9010  126.5310   68.6990 N   0  0  0  0  0  0  0  0  0  0  0  0
  129.0290  127.4480   69.1960 C   0  0  0  0  0  0  0  0  0  0  0  0
  129.0990  127.6900   70.6690 C   0  0  0  0  0  0  0  0  0  0  0  0
  129.2720  126.6300   71.5700 C   0  0  0  0  0  0  0  0  0  0  0  0
  129.3240  126.8610   72.9420 C   0  0  0  0  0  0  0  0  0  0  0  0
  129.2080  128.1540   73.4470 C   0  0  0  0  0  0  0  0  0  0  0  0
  129.2690  128.2880   74.8220 O   0  0  0  0  0  0  0  0  0  0  0  0
  128.2100  127.7660   75.6160 C   0  0  0  0  0  0  0  0  0  0  0  0
  129.0410  129.2220   72.5550 C   0  0  0  0  0  0  0  0  0  0  0  0
  128.9860  128.9880   71.1830 C   0  0  0  0  0  0  0  0  0  0  0  0
  128.1120  128.1200   68.3850 C   0  0  0  0  0  0  0  0  0  0  0  0
  128.0580  127.8790   67.0080 C   0  0  0  0  0  0  0  0  0  0  0  0
  127.0850  128.6450   66.1870 C   0  0  0  0  0  0  0  0  0  0  0  0
  125.7130  128.4820   66.3900 C   0  0  0  0  0  0  0  0  0  0  0  0
  124.7980  129.2120   65.6370 C   0  0  0  0  0  0  0  0  0  0  0  0
  125.2370  130.1220   64.6740 C   0  0  0  0  0  0  0  0  0  0  0  0
  124.2580  130.8020   63.9760 O   0  0  0  0  0  0  0  0  0  0  0  0
  123.9690  130.4210   62.6370 C   0  0  0  0  0  0  0  0  0  0  0  0
  126.6160  130.2930   64.4750 C   0  0  0  0  0  0  0  0  0  0  0  0
  127.5290  129.5620   65.2310 C   0  0  0  0  0  0  0  0  0  0  0  0
  128.9470  126.9070   66.4700 C   0  0  0  0  0  0  0  0  0  0  0  0
  129.1350  126.3730   65.1430 C   0  0  0  0  0  0  0  0  0  0  0  0
  128.3680  126.7650   64.0750 N   0  0  0  0  0  0  0  0  0  0  0  0
  132.9940  122.3210   62.9060 C   0  0  0  0  0  0  0  0  0  0  0  0
  133.3880  121.3300   62.0100 C   0  0  0  0  0  0  0  0  0  0  0  0
  1  2  1  0
  2  3  1  0
  3  4  1  0
  4  5  2  0
  4  6  1  0
  6  7  2  0
  7  8  1  0
  8  9  2  0
  9 10  1  0
 10 11  1  0
 11 12  2  0
 11 13  1  0
 13 14  1  0
 14 15  1  0
 15 16  2  0
 16 17  1  0
 17 18  1  0
 18 19  2  0
 19 20  1  0
 20 21  2  0
 21 22  1  0
 22 23  1  0
 21 24  1  0
 24 25  2  0
 17 26  2  0
 26 27  1  0
 27 28  1  0
 28 29  2  0
 29 30  1  0
 30 31  2  0
 31 32  1  0
 32 33  1  0
 31 34  1  0
 34 35  2  0
 27 36  2  0
 36 37  1  0
 37 38  1  0
  9 39  1  0
 39 40  2  0
 40  6  1  0
 37 13  2  0
 36 15  1  0
 25 18  1  0
 35 28  1  0
M  END
>  <Binding energies>  (36) 
[-8.61]

>  <Ligand effiencies>  (36) 
[-0.20023255813953486]

>  <Interactions>  (36) 
["V-A:GLU:543:CD:4908, H-A:TYR:484:OH:4347, V-A:GLY:454:CA:4048, V-A:TYR:484:CZ:4346, H-A:GLU:543:OE1:4909, V-A:ILE:369:CG2:3236, V-B:TYR:539:CD2:9846, H-A:SER:385:OG:3409, V-A:LEU:475:CD1:4257, V-A:HIS:383:CE1:3392, V-A:PRO:482:CB:4325, H-A:HIS:383:NE2:3393, V-A:PRO:482:CG:4326, H-B:GLU:543:OE1:9881, V-B:GLU:543:CG:9879, V-B:ALA:541:CB:9864, V-B:GLU:543:CD:9880, V-B:TYR:539:C:9839, V-A:TYR:484:CE2:4345, V-A:HIS:456:CE1:4069, V-A:GLU:543:CG:4907, V-B:HIS:456:CE1:9041, H-B:GLY:454:N:9021, V-B:ILE:369:CD1:8210, V-B:ASP:366:CG:8184, H-B:GLU:543:OE2:9882, V-A:GLU:543:C:4902, V-B:ARG:545:CG:9894, V-B:ARG:545:CD:9895, V-B:ARG:545:CZ:9898, V-B:HIS:456:CD2:9039, H-A:LYS:547:NZ:4951, V-B:TYR:539:CB:9843"]

$$$$
8c_Ghoteimi_2023
     RDKit          3D

 34 38  0  0  0  0  0  0  0  0999 V2000
  130.0890  126.6710   75.6490 C   0  0  0  0  0  0  0  0  0  0  0  0
  129.8230  127.7820   74.8000 O   0  0  0  0  0  0  0  0  0  0  0  0
  129.6500  127.5690   73.4450 C   0  0  0  0  0  0  0  0  0  0  0  0
  130.0110  128.6160   72.5990 C   0  0  0  0  0  0  0  0  0  0  0  0
  129.8690  128.4910   71.2200 C   0  0  0  0  0  0  0  0  0  0  0  0
  129.3610  127.3140   70.6510 C   0  0  0  0  0  0  0  0  0  0  0  0
  129.2030  127.1760   69.1700 C   0  0  0  0  0  0  0  0  0  0  0  0
  128.2300  127.8880   68.4630 C   0  0  0  0  0  0  0  0  0  0  0  0
  128.1040  127.7420   67.0770 C   0  0  0  0  0  0  0  0  0  0  0  0
  127.0570  128.5050   66.3590 C   0  0  0  0  0  0  0  0  0  0  0  0
  127.4120  129.4480   65.3920 C   0  0  0  0  0  0  0  0  0  0  0  0
  126.4270  130.1570   64.7120 C   0  0  0  0  0  0  0  0  0  0  0  0
  125.0760  129.9380   64.9880 C   0  0  0  0  0  0  0  0  0  0  0  0
  124.1690  130.6850   64.2620 O   0  0  0  0  0  0  0  0  0  0  0  0
  124.0330  130.4480   62.8650 C   0  0  0  0  0  0  0  0  0  0  0  0
  124.7220  128.9930   65.9630 C   0  0  0  0  0  0  0  0  0  0  0  0
  125.7080  128.2830   66.6430 C   0  0  0  0  0  0  0  0  0  0  0  0
  128.9950  126.8560   66.4150 C   0  0  0  0  0  0  0  0  0  0  0  0
  129.1480  126.4760   65.0360 C   0  0  0  0  0  0  0  0  0  0  0  0
  128.3500  126.9840   64.0410 N   0  0  0  0  0  0  0  0  0  0  0  0
  130.1780  125.5490   64.8110 C   0  0  0  0  0  0  0  0  0  0  0  0
  130.6100  124.9550   63.5440 C   0  0  0  0  0  0  0  0  0  0  0  0
  130.2230  125.4140   62.4680 O   0  0  0  0  0  0  0  0  0  0  0  0
  131.4440  123.8910   63.6560 N   0  0  0  0  0  0  0  0  0  0  0  0
  131.9970  123.1530   62.6200 C   0  0  0  0  0  0  0  0  0  0  0  0
  131.4230  122.2120   61.9010 N   0  0  0  0  0  0  0  0  0  0  0  0
  132.2470  121.7230   60.9960 C   0  0  0  0  0  0  0  0  0  0  0  0
  133.5250  122.2700   60.9670 C   0  0  0  0  0  0  0  0  0  0  0  0
  133.6460  123.4900   62.2000 S   0  0  0  0  0  0  0  0  0  0  0  0
  130.9930  125.1260   66.3180 S   0  0  0  0  0  0  0  0  0  0  0  0
  129.9500  126.1870   67.2350 C   0  0  0  0  0  0  0  0  0  0  0  0
  130.0690  126.3240   68.5560 N   0  0  0  0  0  0  0  0  0  0  0  0
  129.0040  126.2650   71.5080 C   0  0  0  0  0  0  0  0  0  0  0  0
  129.1440  126.3870   72.8880 C   0  0  0  0  0  0  0  0  0  0  0  0
  1  2  1  0
  2  3  1  0
  3  4  2  0
  4  5  1  0
  5  6  2  0
  6  7  1  0
  7  8  2  0
  8  9  1  0
  9 10  1  0
 10 11  2  0
 11 12  1  0
 12 13  2  0
 13 14  1  0
 14 15  1  0
 13 16  1  0
 16 17  2  0
  9 18  2  0
 18 19  1  0
 19 20  1  0
 19 21  2  0
 21 22  1  0
 22 23  2  0
 22 24  1  0
 24 25  1  0
 25 26  2  0
 26 27  1  0
 27 28  2  0
 28 29  1  0
 21 30  1  0
 30 31  1  0
 31 32  2  0
  6 33  1  0
 33 34  2  0
 34  3  1  0
 32  7  1  0
 17 10  1  0
 31 18  1  0
 29 25  1  0
M  END
>  <Binding energies>  (37) 
[-6.82]

>  <Ligand effiencies>  (37) 
[-0.18432432432432433]

>  <Interactions>  (37) 
["V-A:GLU:543:CD:4908, H-A:TYR:484:OH:4347, V-A:TYR:484:CZ:4346, V-A:ILE:369:CD1:3238, H-A:GLU:543:OE1:4909, V-A:ILE:369:CG2:3236, V-B:GLU:543:CD:9880, V-A:TYR:484:CE2:4345, V-A:HIS:456:CE1:4069, V-A:GLU:543:CG:4907, V-B:HIS:456:CE1:9041, H-B:TYR:484:OH:9319, H-B:GLY:454:N:9021, V-B:ILE:369:CD1:8210, H-B:GLU:543:OE2:9882, V-A:GLU:543:C:4902, V-B:ARG:545:CG:9894, V-B:ARG:545:CD:9895, V-B:ARG:545:CZ:9898, V-B:HIS:456:CD2:9039, H-A:LYS:547:NZ:4951"]

$$$$
8d_Ghoteimi_2023
     RDKit          3D

 30 33  0  0  0  0  0  0  0  0999 V2000
  131.1080  117.7820   60.5010 C   0  0  0  0  0  0  0  0  0  0  0  0
  132.0210  118.5590   59.7390 O   0  0  0  0  0  0  0  0  0  0  0  0
  132.9910  119.2900   60.3490 C   0  0  0  0  0  0  0  0  0  0  0  0
  134.1970  119.0460   60.2600 O   0  0  0  0  0  0  0  0  0  0  0  0
  132.4510  120.4180   61.1380 C   0  0  0  0  0  0  0  0  0  0  0  0
  133.3810  121.0730   62.4870 S   0  0  0  0  0  0  0  0  0  0  0  0
  132.1340  122.2510   62.8250 C   0  0  0  0  0  0  0  0  0  0  0  0
  132.2470  123.1290   63.8230 N   0  0  0  0  0  0  0  0  0  0  0  0
  131.2200  124.0030   63.9970 C   0  0  0  0  0  0  0  0  0  0  0  0
  131.3700  124.9730   65.1260 C   0  0  0  0  0  0  0  0  0  0  0  0
  130.2720  125.3400   65.9170 C   0  0  0  0  0  0  0  0  0  0  0  0
  130.4160  126.2440   66.9650 C   0  0  0  0  0  0  0  0  0  0  0  0
  131.6600  126.8050   67.2510 C   0  0  0  0  0  0  0  0  0  0  0  0
  131.7100  127.6910   68.3100 O   0  0  0  0  0  0  0  0  0  0  0  0
  130.4950  128.1120   68.9210 C   0  0  0  0  0  0  0  0  0  0  0  0
  132.7660  126.4430   66.4680 C   0  0  0  0  0  0  0  0  0  0  0  0
  132.6170  125.5380   65.4200 C   0  0  0  0  0  0  0  0  0  0  0  0
  130.0850  123.9930   63.1820 C   0  0  0  0  0  0  0  0  0  0  0  0
  129.9680  123.0750   62.1340 C   0  0  0  0  0  0  0  0  0  0  0  0
  128.7560  123.0950   61.2820 C   0  0  0  0  0  0  0  0  0  0  0  0
  128.8690  123.3060   59.9060 C   0  0  0  0  0  0  0  0  0  0  0  0
  127.7290  123.3340   59.1060 C   0  0  0  0  0  0  0  0  0  0  0  0
  126.4650  123.1470   59.6670 C   0  0  0  0  0  0  0  0  0  0  0  0
  125.3930  123.1920   58.7980 O   0  0  0  0  0  0  0  0  0  0  0  0
  124.2610  123.9870   59.1310 C   0  0  0  0  0  0  0  0  0  0  0  0
  126.3550  122.9310   61.0510 C   0  0  0  0  0  0  0  0  0  0  0  0
  127.4950  122.9050   61.8490 C   0  0  0  0  0  0  0  0  0  0  0  0
  131.0300  122.1540   61.9310 C   0  0  0  0  0  0  0  0  0  0  0  0
  131.2380  121.0990   60.9790 C   0  0  0  0  0  0  0  0  0  0  0  0
  130.3210  120.7890   60.0070 N   0  0  0  0  0  0  0  0  0  0  0  0
  1  2  1  0
  2  3  1  0
  3  4  2  0
  3  5  1  0
  5  6  1  0
  6  7  1  0
  7  8  2  0
  8  9  1  0
  9 10  1  0
 10 11  2  0
 11 12  1  0
 12 13  2  0
 13 14  1  0
 14 15  1  0
 13 16  1  0
 16 17  2  0
  9 18  2  0
 18 19  1  0
 19 20  1  0
 20 21  2  0
 21 22  1  0
 22 23  2  0
 23 24  1  0
 24 25  1  0
 23 26  1  0
 26 27  2  0
 19 28  2  0
 28 29  1  0
 29 30  1  0
 29  5  2  0
 28  7  1  0
 17 10  1  0
 27 20  1  0
M  END
>  <Binding energies>  (38) 
[-6.83]

>  <Ligand effiencies>  (38) 
[-0.2134375]

>  <Interactions>  (38) 
["V-A:GLU:543:CD:4908, V-A:ARG:545:CD:4923, V-A:ARG:545:CG:4922, H-A:TYR:484:OH:4347, V-A:GLY:454:CA:4048, V-A:ARG:545:CZ:4926, V-A:ILE:369:CG2:3236, V-B:TYR:539:CD2:9846, H-A:SER:385:OG:3409, V-B:TYR:539:CE2:9848, V-A:LEU:475:CD1:4257, V-A:HIS:383:CE1:3392, H-A:HIS:383:NE2:3393, H-B:TYR:539:O:9840, V-A:PRO:482:CG:4326, V-B:PRO:540:CA:9855, V-B:LEU:363:CD1:8160, V-B:ALA:541:CB:9864, V-B:GLU:543:CD:9880, V-B:PRO:540:CB:9857, V-B:TYR:539:C:9839, V-A:HIS:456:CE1:4069, V-A:GLU:543:CB:4906, H-A:HIS:456:ND1:4066, V-B:ASP:366:CG:8184, V-B:ASP:366:CB:8183, V-A:GLU:543:C:4902, V-A:GLU:543:CA:4904, V-B:LEU:363:CA:8156, V-B:PRO:540:C:9853, V-B:LEU:363:CB:8158"]

$$$$
9a_Ghoteimi_2023
     RDKit          3D

 48 54  0  0  0  0  0  0  0  0999 V2000
  130.4600  133.7300   73.4020 C   0  0  0  0  0  0  0  0  0  0  0  0
  129.4490  133.7960   74.5520 C   0  0  0  0  0  0  0  0  0  0  0  0
  129.3810  132.5290   75.1960 O   0  0  0  0  0  0  0  0  0  0  0  0
  128.3330  131.6920   74.9880 C   0  0  0  0  0  0  0  0  0  0  0  0
  127.3980  131.5610   75.7850 O   0  0  0  0  0  0  0  0  0  0  0  0
  128.4260  130.9340   73.6950 C   0  0  0  0  0  0  0  0  0  0  0  0
  128.9380  129.6310   73.7000 C   0  0  0  0  0  0  0  0  0  0  0  0
  129.0380  128.9030   72.5180 C   0  0  0  0  0  0  0  0  0  0  0  0
  128.6270  129.4610   71.3070 C   0  0  0  0  0  0  0  0  0  0  0  0
  128.7750  128.6340   70.1770 N   0  0  0  0  0  0  0  0  0  0  0  0
  128.7830  127.2810   70.0720 C   0  0  0  0  0  0  0  0  0  0  0  0
  128.6500  126.5130   71.0250 O   0  0  0  0  0  0  0  0  0  0  0  0
  128.9570  126.7600   68.7130 C   0  0  0  0  0  0  0  0  0  0  0  0
  129.7410  125.2020   68.4510 S   0  0  0  0  0  0  0  0  0  0  0  0
  129.5350  125.3380   66.7210 C   0  0  0  0  0  0  0  0  0  0  0  0
  129.9410  124.3770   65.8910 N   0  0  0  0  0  0  0  0  0  0  0  0
  129.7230  124.5750   64.5640 C   0  0  0  0  0  0  0  0  0  0  0  0
  130.1770  123.4810   63.6530 C   0  0  0  0  0  0  0  0  0  0  0  0
  129.2740  122.8580   62.7850 C   0  0  0  0  0  0  0  0  0  0  0  0
  129.6880  121.8380   61.9330 C   0  0  0  0  0  0  0  0  0  0  0  0
  131.0250  121.4120   61.9070 C   0  0  0  0  0  0  0  0  0  0  0  0
  131.4530  120.3760   61.0700 N   0  0  0  0  0  0  0  0  0  0  0  0
  132.8750  120.2120   60.7090 C   0  0  0  0  0  0  0  0  0  0  0  0
  133.1090  119.2650   59.5140 C   0  0  0  0  0  0  0  0  0  0  0  0
  132.4990  118.0090   59.7620 O   0  0  0  0  0  0  0  0  0  0  0  0
  131.0980  118.1390   59.9470 C   0  0  0  0  0  0  0  0  0  0  0  0
  130.8090  119.0490   61.1580 C   0  0  0  0  0  0  0  0  0  0  0  0
  131.9240  122.0300   62.7900 C   0  0  0  0  0  0  0  0  0  0  0  0
  131.5080  123.0470   63.6430 C   0  0  0  0  0  0  0  0  0  0  0  0
  129.1280  125.7390   64.0720 C   0  0  0  0  0  0  0  0  0  0  0  0
  128.7180  126.7590   64.9380 C   0  0  0  0  0  0  0  0  0  0  0  0
  128.1240  127.9910   64.3600 C   0  0  0  0  0  0  0  0  0  0  0  0
  128.7140  128.6160   63.2580 C   0  0  0  0  0  0  0  0  0  0  0  0
  128.1480  129.7620   62.7090 C   0  0  0  0  0  0  0  0  0  0  0  0
  126.9640  130.3050   63.2350 C   0  0  0  0  0  0  0  0  0  0  0  0
  126.3840  131.4610   62.7080 N   0  0  0  0  0  0  0  0  0  0  0  0
  124.9430  131.4610   62.3870 C   0  0  0  0  0  0  0  0  0  0  0  0
  124.3620  132.8760   62.1820 C   0  0  0  0  0  0  0  0  0  0  0  0
  125.1020  133.5650   61.1860 O   0  0  0  0  0  0  0  0  0  0  0  0
  126.4680  133.7020   61.5480 C   0  0  0  0  0  0  0  0  0  0  0  0
  127.1050  132.3080   61.7360 C   0  0  0  0  0  0  0  0  0  0  0  0
  126.3790  129.6680   64.3380 C   0  0  0  0  0  0  0  0  0  0  0  0
  126.9470  128.5240   64.8910 C   0  0  0  0  0  0  0  0  0  0  0  0
  128.9040  126.5560   66.3360 C   0  0  0  0  0  0  0  0  0  0  0  0
  128.5630  127.3400   67.4980 C   0  0  0  0  0  0  0  0  0  0  0  0
  127.8990  128.5370   67.4110 N   0  0  0  0  0  0  0  0  0  0  0  0
  128.1090  130.7650   71.2920 C   0  0  0  0  0  0  0  0  0  0  0  0
  128.0100  131.4920   72.4760 C   0  0  0  0  0  0  0  0  0  0  0  0
  1  2  1  0
  2  3  1  0
  3  4  1  0
  4  5  2  0
  4  6  1  0
  6  7  2  0
  7  8  1  0
  8  9  2  0
  9 10  1  0
 10 11  1  0
 11 12  2  0
 11 13  1  0
 13 14  1  0
 14 15  1  0
 15 16  2  0
 16 17  1  0
 17 18  1  0
 18 19  2  0
 19 20  1  0
 20 21  2  0
 21 22  1  0
 22 23  1  0
 23 24  1  0
 24 25  1  0
 25 26  1  0
 26 27  1  0
 21 28  1  0
 28 29  2  0
 17 30  2  0
 30 31  1  0
 31 32  1  0
 32 33  2  0
 33 34  1  0
 34 35  2  0
 35 36  1  0
 36 37  1  0
 37 38  1  0
 38 39  1  0
 39 40  1  0
 40 41  1  0
 35 42  1  0
 42 43  2  0
 31 44  2  0
 44 45  1  0
 45 46  1  0
  9 47  1  0
 47 48  2  0
 48  6  1  0
 45 13  2  0
 44 15  1  0
 29 18  1  0
 43 32  1  0
 27 22  1  0
 41 36  1  0
M  END
>  <Binding energies>  (39) 
[-8.25]

>  <Ligand effiencies>  (39) 
[-0.16176470588235295]

>  <Interactions>  (39) 
["V-A:ALA:541:CB:4892, V-B:LEU:475:CD1:9229, V-A:GLU:543:CD:4908, H-A:TYR:484:OH:4347, V-A:TYR:484:CZ:4346, H-A:GLU:543:OE1:4909, V-A:ILE:369:CG2:3236, V-B:TYR:539:CD2:9846, H-A:SER:385:OG:3409, V-B:TYR:539:CE2:9848, V-A:LEU:475:CD1:4257, H-A:HIS:383:NE2:3393, V-A:PRO:482:CG:4326, V-B:GLU:543:CG:9879, V-B:ALA:541:CB:9864, V-B:GLU:543:CD:9880, V-A:TYR:484:CE2:4345, V-A:HIS:456:CE1:4069, V-B:HIS:456:CE1:9041, V-B:TYR:484:CE2:9317, V-B:GLU:543:CB:9878, H-B:TYR:484:OH:9319, V-B:ILE:369:CG2:8208, V-B:ILE:369:CD1:8210, V-A:GLU:543:C:4902, V-B:TYR:484:CD2:9315, V-B:HIS:456:CG:9037, V-B:HIS:456:CD2:9039, H-A:GLU:543:O:4903, H-B:HIS:456:NE2:9042, H-A:LYS:547:NZ:4951, V-B:TYR:539:CB:9843, V-B:TYR:484:CB:9312, V-B:TYR:484:CG:9313, H-B:LYS:471:NZ:9192"]

$$$$
9b_Ghoteimi_2023
     RDKit          3D

 42 48  0  0  0  0  0  0  0  0999 V2000
  127.3000  129.5080   66.8570 N   0  0  0  0  0  0  0  0  0  0  0  0
  127.5270  128.9790   65.6110 C   0  0  0  0  0  0  0  0  0  0  0  0
  127.0850  129.5810   64.4230 C   0  0  0  0  0  0  0  0  0  0  0  0
  126.3520  130.8380   64.2530 C   0  0  0  0  0  0  0  0  0  0  0  0
  126.0400  131.5210   65.2300 O   0  0  0  0  0  0  0  0  0  0  0  0
  126.0540  131.1700   62.9720 N   0  0  0  0  0  0  0  0  0  0  0  0
  125.3630  132.2890   62.5260 C   0  0  0  0  0  0  0  0  0  0  0  0
  125.8850  133.1830   61.5920 C   0  0  0  0  0  0  0  0  0  0  0  0
  124.9050  134.1340   61.4200 C   0  0  0  0  0  0  0  0  0  0  0  0
  123.8480  133.8270   62.2110 O   0  0  0  0  0  0  0  0  0  0  0  0
  124.1510  132.6570   62.9060 N   0  0  0  0  0  0  0  0  0  0  0  0
  127.5250  128.6120   63.0160 S   0  0  0  0  0  0  0  0  0  0  0  0
  128.2800  127.4040   64.0280 C   0  0  0  0  0  0  0  0  0  0  0  0
  128.8270  126.3040   63.5120 N   0  0  0  0  0  0  0  0  0  0  0  0
  129.3720  125.4180   64.3860 C   0  0  0  0  0  0  0  0  0  0  0  0
  129.9600  124.1840   63.7830 C   0  0  0  0  0  0  0  0  0  0  0  0
  129.1830  123.3170   63.0060 C   0  0  0  0  0  0  0  0  0  0  0  0
  129.7320  122.1610   62.4590 C   0  0  0  0  0  0  0  0  0  0  0  0
  131.0760  121.8220   62.6810 C   0  0  0  0  0  0  0  0  0  0  0  0
  131.6440  120.6650   62.1360 N   0  0  0  0  0  0  0  0  0  0  0  0
  132.8870  120.7200   61.3410 C   0  0  0  0  0  0  0  0  0  0  0  0
  133.5460  119.3430   61.1190 C   0  0  0  0  0  0  0  0  0  0  0  0
  132.6130  118.4460   60.5400 O   0  0  0  0  0  0  0  0  0  0  0  0
  131.4860  118.2540   61.3790 C   0  0  0  0  0  0  0  0  0  0  0  0
  130.7630  119.5980   61.6140 C   0  0  0  0  0  0  0  0  0  0  0  0
  131.8540  122.7040   63.4440 C   0  0  0  0  0  0  0  0  0  0  0  0
  131.3060  123.8620   63.9880 C   0  0  0  0  0  0  0  0  0  0  0  0
  129.3920  125.6460   65.7650 C   0  0  0  0  0  0  0  0  0  0  0  0
  128.8360  126.8090   66.3090 C   0  0  0  0  0  0  0  0  0  0  0  0
  128.9100  127.0180   67.7780 C   0  0  0  0  0  0  0  0  0  0  0  0
  128.3620  126.0790   68.6510 C   0  0  0  0  0  0  0  0  0  0  0  0
  128.4460  126.2620   70.0280 C   0  0  0  0  0  0  0  0  0  0  0  0
  129.0810  127.3900   70.5690 C   0  0  0  0  0  0  0  0  0  0  0  0
  129.1910  127.5860   71.9480 N   0  0  0  0  0  0  0  0  0  0  0  0
  130.1250  126.7480   72.7250 C   0  0  0  0  0  0  0  0  0  0  0  0
  129.8580  126.7880   74.2450 C   0  0  0  0  0  0  0  0  0  0  0  0
  129.8850  128.1300   74.7070 O   0  0  0  0  0  0  0  0  0  0  0  0
  128.9000  128.9270   74.0660 C   0  0  0  0  0  0  0  0  0  0  0  0
  129.1390  128.9370   72.5410 C   0  0  0  0  0  0  0  0  0  0  0  0
  129.6450  128.3180   69.6810 C   0  0  0  0  0  0  0  0  0  0  0  0
  129.5600  128.1350   68.3040 C   0  0  0  0  0  0  0  0  0  0  0  0
  128.2290  127.7350   65.4150 C   0  0  0  0  0  0  0  0  0  0  0  0
  1  2  1  0
  2  3  2  0
  3  4  1  0
  4  5  2  0
  4  6  1  0
  6  7  1  0
  7  8  1  0
  8  9  2  0
  9 10  1  0
 10 11  1  0
  3 12  1  0
 12 13  1  0
 13 14  2  0
 14 15  1  0
 15 16  1  0
 16 17  2  0
 17 18  1  0
 18 19  2  0
 19 20  1  0
 20 21  1  0
 21 22  1  0
 22 23  1  0
 23 24  1  0
 24 25  1  0
 19 26  1  0
 26 27  2  0
 15 28  2  0
 28 29  1  0
 29 30  1  0
 30 31  2  0
 31 32  1  0
 32 33  2  0
 33 34  1  0
 34 35  1  0
 35 36  1  0
 36 37  1  0
 37 38  1  0
 38 39  1  0
 33 40  1  0
 40 41  2  0
 29 42  2  0
 42  2  1  0
 11  7  2  0
 42 13  1  0
 27 16  1  0
 41 30  1  0
 25 20  1  0
 39 34  1  0
M  END
>  <Binding energies>  (40) 
[-8.98]

>  <Ligand effiencies>  (40) 
[-0.19955555555555557]

>  <Interactions>  (40) 
["V-B:LEU:475:CD1:9229, V-A:GLU:543:CD:4908, V-A:ILE:369:CG2:3236, H-A:SER:385:OG:3409, V-A:LEU:475:CD1:4257, V-A:PRO:482:CB:4325, H-A:HIS:383:NE2:3393, V-A:PRO:482:CG:4326, V-B:GLU:543:CG:9879, V-B:ALA:541:CB:9864, V-B:GLU:543:CD:9880, V-A:SER:385:C:3404, V-A:HIS:456:CE1:4069, V-B:GLU:543:CA:9876, V-B:HIS:456:CE1:9041, V-B:TYR:484:CE2:9317, V-A:GLU:543:CB:4906, V-B:GLU:543:C:9874, V-B:GLU:543:CB:9878, H-B:TYR:484:OH:9319, H-B:GLY:454:N:9021, V-B:ILE:369:CG2:8208, V-A:SER:385:CA:3406, V-A:GLU:543:C:4902, V-B:HIS:456:CD2:9039, V-B:TYR:484:CZ:9318, H-B:HIS:456:NE2:9042, H-A:LYS:547:NZ:4951, H-B:SER:385:OG:8381, V-A:HIS:456:CD2:4067"]

$$$$
9c_Ghoteimi_2023
     RDKit          3D

 42 48  0  0  0  0  0  0  0  0999 V2000
  127.2830  129.4960   66.7870 N   0  0  0  0  0  0  0  0  0  0  0  0
  127.5240  128.9570   65.5490 C   0  0  0  0  0  0  0  0  0  0  0  0
  127.0940  129.5470   64.3510 C   0  0  0  0  0  0  0  0  0  0  0  0
  126.3580  130.8000   64.1630 C   0  0  0  0  0  0  0  0  0  0  0  0
  125.8410  131.3790   65.1210 O   0  0  0  0  0  0  0  0  0  0  0  0
  126.2910  131.2500   62.8860 N   0  0  0  0  0  0  0  0  0  0  0  0
  125.6460  132.3940   62.4360 C   0  0  0  0  0  0  0  0  0  0  0  0
  124.3980  132.7530   62.6440 N   0  0  0  0  0  0  0  0  0  0  0  0
  124.1220  133.9040   62.0610 C   0  0  0  0  0  0  0  0  0  0  0  0
  125.1620  134.5040   61.3580 C   0  0  0  0  0  0  0  0  0  0  0  0
  126.5760  133.4990   61.4740 S   0  0  0  0  0  0  0  0  0  0  0  0
  127.5520  128.5690   62.9580 S   0  0  0  0  0  0  0  0  0  0  0  0
  128.2980  127.3700   63.9870 C   0  0  0  0  0  0  0  0  0  0  0  0
  128.8550  126.2680   63.4860 N   0  0  0  0  0  0  0  0  0  0  0  0
  129.3920  125.3900   64.3730 C   0  0  0  0  0  0  0  0  0  0  0  0
  129.9900  124.1530   63.7860 C   0  0  0  0  0  0  0  0  0  0  0  0
  131.3360  123.8310   63.9930 C   0  0  0  0  0  0  0  0  0  0  0  0
  131.8910  122.6830   63.4370 C   0  0  0  0  0  0  0  0  0  0  0  0
  131.1210  121.8190   62.6400 C   0  0  0  0  0  0  0  0  0  0  0  0
  131.6630  120.6570   62.0790 N   0  0  0  0  0  0  0  0  0  0  0  0
  132.8530  120.7070   61.2050 C   0  0  0  0  0  0  0  0  0  0  0  0
  133.5110  119.3310   60.9690 C   0  0  0  0  0  0  0  0  0  0  0  0
  132.5510  118.4170   60.4650 O   0  0  0  0  0  0  0  0  0  0  0  0
  131.4810  118.2320   61.3770 C   0  0  0  0  0  0  0  0  0  0  0  0
  130.7620  119.5740   61.6320 C   0  0  0  0  0  0  0  0  0  0  0  0
  129.7690  122.1370   62.4520 C   0  0  0  0  0  0  0  0  0  0  0  0
  129.2140  123.2840   63.0130 C   0  0  0  0  0  0  0  0  0  0  0  0
  129.3960  125.6290   65.7500 C   0  0  0  0  0  0  0  0  0  0  0  0
  128.8320  126.7960   66.2780 C   0  0  0  0  0  0  0  0  0  0  0  0
  128.8900  127.0180   67.7450 C   0  0  0  0  0  0  0  0  0  0  0  0
  128.3480  126.0770   68.6220 C   0  0  0  0  0  0  0  0  0  0  0  0
  128.4150  126.2740   69.9990 C   0  0  0  0  0  0  0  0  0  0  0  0
  129.0240  127.4190   70.5340 C   0  0  0  0  0  0  0  0  0  0  0  0
  129.1130  127.6320   71.9130 N   0  0  0  0  0  0  0  0  0  0  0  0
  130.0790  126.8420   72.7030 C   0  0  0  0  0  0  0  0  0  0  0  0
  129.8050  126.8870   74.2220 C   0  0  0  0  0  0  0  0  0  0  0  0
  129.7730  128.2340   74.6700 O   0  0  0  0  0  0  0  0  0  0  0  0
  128.7570  128.9790   74.0170 C   0  0  0  0  0  0  0  0  0  0  0  0
  128.9990  128.9840   72.4920 C   0  0  0  0  0  0  0  0  0  0  0  0
  129.5840  128.3470   69.6440 C   0  0  0  0  0  0  0  0  0  0  0  0
  129.5170  128.1510   68.2670 C   0  0  0  0  0  0  0  0  0  0  0  0
  128.2310  127.7130   65.3700 C   0  0  0  0  0  0  0  0  0  0  0  0
  1  2  1  0
  2  3  2  0
  3  4  1  0
  4  5  2  0
  4  6  1  0
  6  7  1  0
  7  8  2  0
  8  9  1  0
  9 10  2  0
 10 11  1  0
  3 12  1  0
 12 13  1  0
 13 14  2  0
 14 15  1  0
 15 16  1  0
 16 17  2  0
 17 18  1  0
 18 19  2  0
 19 20  1  0
 20 21  1  0
 21 22  1  0
 22 23  1  0
 23 24  1  0
 24 25  1  0
 19 26  1  0
 26 27  2  0
 15 28  2  0
 28 29  1  0
 29 30  1  0
 30 31  2  0
 31 32  1  0
 32 33  2  0
 33 34  1  0
 34 35  1  0
 35 36  1  0
 36 37  1  0
 37 38  1  0
 38 39  1  0
 33 40  1  0
 40 41  2  0
 29 42  2  0
 42  2  1  0
 11  7  1  0
 42 13  1  0
 27 16  1  0
 41 30  1  0
 25 20  1  0
 39 34  1  0
M  END
>  <Binding energies>  (41) 
[-9.16]

>  <Ligand effiencies>  (41) 
[-0.20355555555555555]

>  <Interactions>  (41) 
["V-B:LEU:475:CD1:9229, V-A:GLU:543:CD:4908, V-A:ILE:369:CG2:3236, H-A:SER:385:OG:3409, V-A:LEU:475:CD1:4257, V-A:PRO:482:CB:4325, H-A:HIS:383:NE2:3393, V-A:PRO:482:CG:4326, V-B:GLU:543:CG:9879, V-B:ALA:541:CB:9864, V-B:GLU:543:CD:9880, V-A:SER:385:C:3404, V-A:HIS:456:CE1:4069, V-B:GLU:543:CA:9876, V-B:HIS:456:CE1:9041, V-B:TYR:484:CE2:9317, V-A:GLU:543:CB:4906, V-B:GLU:543:C:9874, V-B:GLU:543:CB:9878, H-B:TYR:484:OH:9319, V-B:ILE:369:CG2:8208, V-B:ILE:369:CD1:8210, V-A:SER:385:CA:3406, V-A:GLU:543:C:4902, V-B:HIS:456:CD2:9039, V-B:TYR:484:CZ:9318, H-B:HIS:456:NE2:9042, H-A:LYS:547:NZ:4951, V-A:HIS:456:CD2:4067"]

$$$$
RR11_Rahimova_2017
     RDKit          3D

 33 38  0  0  0  0  0  0  0  0999 V2000
  133.7450  123.6420   57.9160 N   0  0  0  0  0  0  0  0  0  0  0  0
  133.2470  124.0270   59.1600 C   0  0  0  0  0  0  0  0  0  0  0  0
  134.0350  123.8740   60.2990 C   0  0  0  0  0  0  0  0  0  0  0  0
  133.5380  124.2620   61.5400 C   0  0  0  0  0  0  0  0  0  0  0  0
  132.2520  124.8050   61.6540 C   0  0  0  0  0  0  0  0  0  0  0  0
  131.7200  125.2270   62.9920 C   0  0  0  0  0  0  0  0  0  0  0  0
  130.4710  125.5690   63.2210 N   0  0  0  0  0  0  0  0  0  0  0  0
  130.4160  125.8660   64.5570 C   0  0  0  0  0  0  0  0  0  0  0  0
  129.3210  126.2800   65.3290 C   0  0  0  0  0  0  0  0  0  0  0  0
  129.5180  126.5070   66.6960 C   0  0  0  0  0  0  0  0  0  0  0  0
  128.3480  126.9620   67.5580 C   0  0  0  0  0  0  0  0  0  0  0  0
  127.3900  127.8850   66.8190 C   0  0  0  0  0  0  0  0  0  0  0  0
  126.0120  127.7600   67.0310 C   0  0  0  0  0  0  0  0  0  0  0  0
  125.0940  128.5880   66.3840 C   0  0  0  0  0  0  0  0  0  0  0  0
  125.5880  129.5660   65.5100 C   0  0  0  0  0  0  0  0  0  0  0  0
  124.9030  130.4850   64.7580 N   0  0  0  0  0  0  0  0  0  0  0  0
  125.8270  131.1620   64.1100 C   0  0  0  0  0  0  0  0  0  0  0  0
  125.5430  132.2750   63.1430 C   0  0  0  0  0  0  0  0  0  0  0  0
  126.5890  132.9010   62.4530 C   0  0  0  0  0  0  0  0  0  0  0  0
  126.3260  133.9400   61.5640 C   0  0  0  0  0  0  0  0  0  0  0  0
  125.0140  134.3610   61.3590 C   0  0  0  0  0  0  0  0  0  0  0  0
  124.7510  135.4050   60.4720 N   0  0  0  0  0  0  0  0  0  0  0  0
  123.9640  133.7450   62.0350 C   0  0  0  0  0  0  0  0  0  0  0  0
  124.2280  132.7060   62.9230 C   0  0  0  0  0  0  0  0  0  0  0  0
  127.0980  130.7230   64.4160 N   0  0  0  0  0  0  0  0  0  0  0  0
  126.9840  129.6890   65.3150 C   0  0  0  0  0  0  0  0  0  0  0  0
  127.9090  128.8670   65.9640 C   0  0  0  0  0  0  0  0  0  0  0  0
  130.7850  126.3490   67.2700 C   0  0  0  0  0  0  0  0  0  0  0  0
  131.8960  125.9440   66.5270 C   0  0  0  0  0  0  0  0  0  0  0  0
  131.6820  125.7050   65.1680 C   0  0  0  0  0  0  0  0  0  0  0  0
  132.4920  125.2980   64.1330 N   0  0  0  0  0  0  0  0  0  0  0  0
  131.4700  124.9510   60.5000 C   0  0  0  0  0  0  0  0  0  0  0  0
  131.9650  124.5650   59.2570 C   0  0  0  0  0  0  0  0  0  0  0  0
  1  2  1  0
  2  3  2  0
  3  4  1  0
  4  5  2  0
  5  6  1  0
  6  7  2  0
  7  8  1  0
  8  9  2  0
  9 10  1  0
 10 11  1  0
 11 12  1  0
 12 13  2  0
 13 14  1  0
 14 15  2  0
 15 16  1  0
 16 17  2  0
 17 18  1  0
 18 19  2  0
 19 20  1  0
 20 21  2  0
 21 22  1  0
 21 23  1  0
 23 24  2  0
 17 25  1  0
 25 26  1  0
 26 27  2  0
 10 28  2  0
 28 29  1  0
 29 30  2  0
 30 31  1  0
  5 32  1  0
 32 33  2  0
 33  2  1  0
 31  6  1  0
 30  8  1  0
 27 12  1  0
 26 15  1  0
 24 18  1  0
M  END
>  <Binding energies>  (42) 
[-8.86]

>  <Ligand effiencies>  (42) 
[-0.22717948717948716]

>  <Interactions>  (42) 
["V-A:ALA:541:CB:4892, V-A:TYR:539:CD1:4873, V-B:LEU:475:CD1:9229, V-A:GLU:543:CD:4908, V-A:ASP:366:CG:3212, H-A:TYR:484:OH:4347, V-A:ASP:366:CA:3209, V-A:ASP:366:CB:3211, V-A:TYR:484:CZ:4346, V-A:ILE:369:CD1:3238, V-A:ARG:545:CZ:4926, V-A:ILE:369:CB:3235, V-A:ILE:369:CG2:3236, V-B:TYR:539:CE2:9848, V-B:GLU:543:CG:9879, V-B:TYR:539:CZ:9849, V-B:GLU:543:CD:9880, V-A:HIS:456:CE1:4069, V-A:GLU:543:CG:4907, V-B:HIS:456:CE1:9041, V-B:GLU:543:CB:9878, H-B:TYR:484:OH:9319, H-B:GLY:454:N:9021, V-B:GLY:454:CA:9020, V-B:ILE:369:CG2:8208, V-B:ILE:369:CD1:8210, V-B:LEU:373:CD1:8251, V-B:SER:385:CB:8380, V-B:ARG:545:CG:9894, V-B:ARG:545:CD:9895, V-B:ARG:545:CZ:9898, H-B:TYR:539:OH:9850, H-B:SER:385:OG:8381, V-A:ASP:366:C:3207, H-A:ASP:366:O:3208"]

$$$$
RR16_Rahimova_2017
     RDKit          3D

 44 49  0  0  0  0  0  0  0  0999 V2000
  123.7360  130.0160   63.8970 O   0  0  0  0  0  0  0  0  0  0  0  0
  124.9390  130.8390   64.0660 S   0  0  0  0  0  0  0  0  0  0  0  0
  124.8380  132.2440   64.4790 O   0  0  0  0  0  0  0  0  0  0  0  0
  125.8450  130.7750   62.5530 N   0  0  0  0  0  0  0  0  0  0  0  0
  125.3370  131.4470   61.3330 C   0  0  0  0  0  0  0  0  0  0  0  0
  124.5660  132.7290   61.7420 C   0  0  0  0  0  0  0  0  0  0  0  0
  124.8690  134.0180   60.9530 C   0  0  0  0  0  0  0  0  0  0  0  0
  126.2290  134.6520   61.2910 C   0  0  0  0  0  0  0  0  0  0  0  0
  127.3050  133.6870   61.8260 C   0  0  0  0  0  0  0  0  0  0  0  0
  127.6860  132.4890   60.9330 C   0  0  0  0  0  0  0  0  0  0  0  0
  126.5210  131.6580   60.3610 C   0  0  0  0  0  0  0  0  0  0  0  0
  125.9840  129.9930   65.2460 C   0  0  0  0  0  0  0  0  0  0  0  0
  127.3290  130.3460   65.3770 C   0  0  0  0  0  0  0  0  0  0  0  0
  128.1600  129.6000   66.2090 C   0  0  0  0  0  0  0  0  0  0  0  0
  127.6420  128.5050   66.9050 C   0  0  0  0  0  0  0  0  0  0  0  0
  128.7370  127.4600   67.8630 S   0  0  0  0  0  0  0  0  0  0  0  0
  127.9000  126.4850   68.5760 O   0  0  0  0  0  0  0  0  0  0  0  0
  129.6460  128.3400   68.6080 O   0  0  0  0  0  0  0  0  0  0  0  0
  129.6860  126.5910   66.6420 N   0  0  0  0  0  0  0  0  0  0  0  0
  131.1350  126.4830   66.9520 C   0  0  0  0  0  0  0  0  0  0  0  0
  131.9170  126.0010   65.7130 C   0  0  0  0  0  0  0  0  0  0  0  0
  131.3240  124.6940   65.1310 C   0  0  0  0  0  0  0  0  0  0  0  0
  132.0580  124.2240   63.8720 C   0  0  0  0  0  0  0  0  0  0  0  0
  133.3640  124.6680   63.6220 C   0  0  0  0  0  0  0  0  0  0  0  0
  134.0730  124.2580   62.4920 C   0  0  0  0  0  0  0  0  0  0  0  0
  135.3520  124.7000   62.2660 O   0  0  0  0  0  0  0  0  0  0  0  0
  133.4440  123.3790   61.5980 C   0  0  0  0  0  0  0  0  0  0  0  0
  133.8890  122.8070   60.4410 N   0  0  0  0  0  0  0  0  0  0  0  0
  132.8810  121.9960   59.9660 N   0  0  0  0  0  0  0  0  0  0  0  0
  131.8220  122.1040   60.7920 N   0  0  0  0  0  0  0  0  0  0  0  0
  130.6370  121.2840   60.5760 C   0  0  0  0  0  0  0  0  0  0  0  0
  129.4530  122.0890   60.0580 C   0  0  0  0  0  0  0  0  0  0  0  0
  129.4630  122.5880   58.7510 C   0  0  0  0  0  0  0  0  0  0  0  0
  128.3690  123.3070   58.2660 C   0  0  0  0  0  0  0  0  0  0  0  0
  127.2600  123.5280   59.0840 C   0  0  0  0  0  0  0  0  0  0  0  0
  127.2440  123.0300   60.3870 C   0  0  0  0  0  0  0  0  0  0  0  0
  125.8700  123.2930   61.3970 Cl  0  0  0  0  0  0  0  0  0  0  0  0
  128.3400  122.3150   60.8740 C   0  0  0  0  0  0  0  0  0  0  0  0
  132.1230  122.9420   61.8530 C   0  0  0  0  0  0  0  0  0  0  0  0
  131.4100  123.3550   62.9830 C   0  0  0  0  0  0  0  0  0  0  0  0
  129.7880  124.7820   64.9330 C   0  0  0  0  0  0  0  0  0  0  0  0
  129.0750  125.3130   66.1930 C   0  0  0  0  0  0  0  0  0  0  0  0
  126.2880  128.1790   66.8050 C   0  0  0  0  0  0  0  0  0  0  0  0
  125.4590  128.9220   65.9720 C   0  0  0  0  0  0  0  0  0  0  0  0
  1  2  2  0
  2  3  2  0
  2  4  1  0
  4  5  1  0
  5  6  1  0
  6  7  1  0
  7  8  1  0
  8  9  1  0
  9 10  1  0
 10 11  1  0
  2 12  1  0
 12 13  2  0
 13 14  1  0
 14 15  2  0
 15 16  1  0
 16 17  2  0
 16 18  2  0
 16 19  1  0
 19 20  1  0
 20 21  1  0
 21 22  1  0
 22 23  1  0
 23 24  2  0
 24 25  1  0
 25 26  1  0
 25 27  2  0
 27 28  1  0
 28 29  2  0
 29 30  1  0
 30 31  1  0
 31 32  1  0
 32 33  2  0
 33 34  1  0
 34 35  2  0
 35 36  1  0
 36 37  1  0
 36 38  2  0
 30 39  1  0
 39 40  2  0
 22 41  1  0
 41 42  1  0
 15 43  1  0
 43 44  2  0
 11  5  1  0
 44 12  1  0
 42 19  1  0
 40 23  1  0
 39 27  1  0
 38 32  1  0
M  END
>  <Binding energies>  (43) 
[-10.46]

>  <Ligand effiencies>  (43) 
[-0.21791666666666668]

>  <Interactions>  (43) 
["V-A:ALA:541:CB:4892, V-A:TYR:539:CE1:4875, V-A:TYR:539:CD1:4873, V-B:LEU:475:CD1:9229, V-A:GLU:543:CD:4908, V-A:GLY:453:C:4041, V-A:TYR:484:CZ:4346, H-A:ARG:545:NH1:4927, V-A:ARG:545:CZ:4926, H-A:GLY:454:N:4049, H-A:ASP:366:OD2:3214, H-A:ASP:366:OD1:3213, V-B:TYR:539:CD2:9846, V-B:TYR:539:CE2:9848, V-B:PRO:540:CA:9855, V-B:GLU:543:CG:9879, V-B:TYR:539:CZ:9849, V-B:GLU:543:CD:9880, V-B:PRO:540:CB:9857, V-A:HIS:456:CE1:4069, V-A:GLU:543:CG:4907, V-B:HIS:456:CE1:9041, V-B:TYR:484:CE2:9317, V-A:GLY:453:CA:4043, V-A:GLU:543:CB:4906, V-B:GLU:543:CB:9878, H-B:TYR:484:OH:9319, H-B:ARG:545:NH2:9900, H-B:GLY:454:N:9021, V-B:GLY:454:CA:9020, V-B:ILE:369:CG2:8208, V-B:ILE:369:CD1:8210, H-B:ARG:545:NH1:9899, V-B:ARG:545:CG:9894, V-B:ARG:545:CZ:9898, V-B:PRO:540:C:9853"]

$$$$
RR18_Rahimova_2017
     RDKit          3D

 36 41  0  0  0  0  0  0  0  0999 V2000
  129.8270  131.9280   58.4250 C   0  0  0  0  0  0  0  0  0  0  0  0
  129.3410  131.0030   59.5120 C   0  0  0  0  0  0  0  0  0  0  0  0
  129.8950  130.5190   60.6870 C   0  0  0  0  0  0  0  0  0  0  0  0
  128.9390  129.6880   61.2700 C   0  0  0  0  0  0  0  0  0  0  0  0
  127.8360  129.6950   60.4320 C   0  0  0  0  0  0  0  0  0  0  0  0
  126.4680  129.0180   60.4780 C   0  0  1  0  0  0  0  0  0  0  0  0
  125.4070  129.8190   59.6660 C   0  0  0  0  0  0  0  0  0  0  0  0
  125.0090  131.1580   60.0890 C   0  0  0  0  0  0  0  0  0  0  0  0
  123.8320  131.4450   60.3160 O   0  0  0  0  0  0  0  0  0  0  0  0
  126.0380  132.0270   60.2190 N   0  0  0  0  0  0  0  0  0  0  0  0
  126.0410  133.3910   60.5840 C   0  0  0  0  0  0  0  0  0  0  0  0
  125.0260  134.2940   60.2160 C   0  0  0  0  0  0  0  0  0  0  0  0
  125.0920  135.6310   60.6030 C   0  0  0  0  0  0  0  0  0  0  0  0
  126.1700  136.0890   61.3540 C   0  0  0  0  0  0  0  0  0  0  0  0
  127.1880  135.2090   61.7150 C   0  0  0  0  0  0  0  0  0  0  0  0
  127.1350  133.8640   61.3350 C   0  0  0  0  0  0  0  0  0  0  0  0
  128.2780  132.9430   61.7530 C   0  0  0  0  0  0  0  0  0  0  0  0
  124.9430  129.2860   58.5050 C   0  0  0  0  0  0  0  0  0  0  0  0
  125.2450  128.0390   58.0480 N   0  0  0  0  0  0  0  0  0  0  0  0
  125.9520  127.2550   58.7740 C   0  0  0  0  0  0  0  0  0  0  0  0
  126.2930  125.5850   58.3900 S   0  0  0  0  0  0  0  0  0  0  0  0
  127.2290  125.3730   59.9030 C   0  0  0  0  0  0  0  0  0  0  0  0
  127.8590  124.2270   60.3390 C   0  0  0  0  0  0  0  0  0  0  0  0
  127.7360  122.9760   59.5750 C   0  0  0  0  0  0  0  0  0  0  0  0
  127.1470  122.7470   58.5200 O   0  0  0  0  0  0  0  0  0  0  0  0
  128.3950  122.0300   60.2520 N   0  0  0  0  0  0  0  0  0  0  0  0
  128.9890  122.5020   61.3830 C   0  0  0  0  0  0  0  0  0  0  0  0
  129.7590  121.7920   62.3040 C   0  0  0  0  0  0  0  0  0  0  0  0
  130.3080  122.4720   63.3880 C   0  0  0  0  0  0  0  0  0  0  0  0
  130.0860  123.8410   63.5260 C   0  0  0  0  0  0  0  0  0  0  0  0
  129.3100  124.5300   62.5910 C   0  0  0  0  0  0  0  0  0  0  0  0
  128.7270  123.8560   61.5010 C   0  0  0  0  0  0  0  0  0  0  0  0
  127.2060  126.6420   60.6300 C   0  0  0  0  0  0  0  0  0  0  0  0
  127.6970  126.8610   61.7330 O   0  0  0  0  0  0  0  0  0  0  0  0
  126.5340  127.6100   59.9480 N   0  0  0  0  0  0  0  0  0  0  0  0
  128.0900  130.4960   59.3630 O   0  0  0  0  0  0  0  0  0  0  0  0
  1  2  1  0
  2  3  2  0
  3  4  1  0
  4  5  2  0
  6  5  1  6
  6  7  1  0
  7  8  1  0
  8  9  2  0
  8 10  1  0
 10 11  1  0
 11 12  2  0
 12 13  1  0
 13 14  2  0
 14 15  1  0
 15 16  2  0
 16 17  1  0
  7 18  2  0
 18 19  1  0
 19 20  2  0
 20 21  1  0
 21 22  1  0
 22 23  2  0
 23 24  1  0
 24 25  2  0
 24 26  1  0
 26 27  1  0
 27 28  2  0
 28 29  1  0
 29 30  2  0
 30 31  1  0
 31 32  2  0
 22 33  1  0
 33 34  2  0
 33 35  1  0
  5 36  1  0
 36  2  1  0
 35  6  1  0
 16 11  1  0
 35 20  1  0
 32 23  1  0
 32 27  1  0
M  END
>  <Binding energies>  (44) 
[-8.22]

>  <Ligand effiencies>  (44) 
[-0.21631578947368424]

>  <Interactions>  (44) 
["V-A:ALA:541:CB:4892, V-A:TYR:539:CE1:4875, V-A:PRO:540:N:4884, V-A:PRO:540:CA:4883, V-A:TYR:539:CD1:4873, V-B:LEU:475:CD1:9229, V-A:TYR:539:C:4867, H-B:TYR:539:O:9840, V-B:PRO:540:CA:9855, V-B:ALA:541:CB:9864, V-B:PRO:540:N:9856, V-B:TYR:539:C:9839, V-B:PRO:482:CB:9297, V-B:ILE:369:CG2:8208, V-B:PRO:482:CG:9298, V-B:ASP:366:CG:8184, V-A:ALA:541:CA:4890, V-B:ASP:366:CB:8183, V-B:SER:385:CB:8380, V-B:PRO:540:C:9853, H-B:TYR:531:OH:9767, V-B:ASP:366:CA:8181"]

$$$$
RR20_Rahimova_2017
     RDKit          3D

 38 43  0  0  0  0  0  0  0  0999 V2000
  126.4160  136.0450   60.8130 C   0  0  0  0  0  0  0  0  0  0  0  0
  125.9280  134.7030   61.3280 C   0  0  0  0  0  0  0  0  0  0  0  0
  124.5700  134.3900   61.2720 C   0  0  0  0  0  0  0  0  0  0  0  0
  124.1210  133.1570   61.7350 C   0  0  0  0  0  0  0  0  0  0  0  0
  125.0240  132.2310   62.2710 C   0  0  0  0  0  0  0  0  0  0  0  0
  124.5180  130.8890   62.7510 C   0  0  0  0  0  0  0  0  0  0  0  0
  123.3050  130.7680   62.9360 O   0  0  0  0  0  0  0  0  0  0  0  0
  125.4060  129.8700   62.9440 N   0  0  0  0  0  0  0  0  0  0  0  0
  126.2080  129.3240   61.8370 C   0  0  0  0  0  0  0  0  0  0  0  0
  127.1740  128.3290   62.4570 C   0  0  0  0  0  0  0  0  0  0  0  0
  127.1050  128.6630   63.9170 C   0  0  0  0  0  0  0  0  0  0  0  0
  127.8450  128.1340   64.9750 C   0  0  0  0  0  0  0  0  0  0  0  0
  127.5230  128.4540   66.3000 C   0  0  0  0  0  0  0  0  0  0  0  0
  128.3250  127.8920   67.4410 C   0  0  0  0  0  0  0  0  0  0  0  0
  128.5070  128.6460   68.5130 N   0  0  0  0  0  0  0  0  0  0  0  0
  129.2010  128.0500   69.4490 C   0  0  0  0  0  0  0  0  0  0  0  0
  129.5650  128.5480   70.6910 N   0  0  0  0  0  0  0  0  0  0  0  0
  129.6920  127.8480   71.8440 C   0  0  0  0  0  0  0  0  0  0  0  0
  129.5150  126.6320   71.9350 O   0  0  0  0  0  0  0  0  0  0  0  0
  130.1120  128.6180   73.1190 C   0  0  0  0  0  0  0  0  0  0  0  0
  128.9770  129.2730   73.7960 N   0  0  0  0  0  0  0  0  0  0  0  0
  128.3570  130.3180   72.9670 C   0  0  0  0  0  0  0  0  0  0  0  0
  127.3610  131.1460   73.8110 C   0  0  0  0  0  0  0  0  0  0  0  0
  126.4410  130.2790   74.6710 C   0  0  0  0  0  0  0  0  0  0  0  0
  125.3100  130.8210   75.2900 C   0  0  0  0  0  0  0  0  0  0  0  0
  124.4940  130.0400   76.1040 C   0  0  0  0  0  0  0  0  0  0  0  0
  124.8000  128.6980   76.3070 C   0  0  0  0  0  0  0  0  0  0  0  0
  125.9180  128.1430   75.6890 C   0  0  0  0  0  0  0  0  0  0  0  0
  126.7480  128.9170   74.8700 C   0  0  0  0  0  0  0  0  0  0  0  0
  127.9410  128.2930   74.1460 C   0  0  0  0  0  0  0  0  0  0  0  0
  129.7090  126.4560   69.0510 S   0  0  0  0  0  0  0  0  0  0  0  0
  128.9280  126.6170   67.4970 C   0  0  0  0  0  0  0  0  0  0  0  0
  129.0020  125.4980   66.4820 C   0  0  0  0  0  0  0  0  0  0  0  0
  126.4080  129.2730   66.5390 C   0  0  0  0  0  0  0  0  0  0  0  0
  125.6560  129.7870   65.4840 C   0  0  0  0  0  0  0  0  0  0  0  0
  126.0390  129.5280   64.1610 C   0  0  0  0  0  0  0  0  0  0  0  0
  126.3900  132.5410   62.2980 C   0  0  0  0  0  0  0  0  0  0  0  0
  126.8400  133.7740   61.8330 C   0  0  0  0  0  0  0  0  0  0  0  0
  1  2  1  0
  2  3  2  0
  3  4  1  0
  4  5  2  0
  5  6  1  0
  6  7  2  0
  6  8  1  0
  8  9  1  0
  9 10  1  0
 10 11  1  0
 11 12  2  0
 12 13  1  0
 13 14  1  0
 14 15  1  0
 15 16  2  0
 16 17  1  0
 17 18  1  0
 18 19  2  0
 18 20  1  0
 20 21  1  0
 21 22  1  0
 22 23  1  0
 23 24  1  0
 24 25  2  0
 25 26  1  0
 26 27  2  0
 27 28  1  0
 28 29  2  0
 29 30  1  0
 16 31  1  0
 31 32  1  0
 32 33  1  0
 13 34  2  0
 34 35  1  0
 35 36  2  0
  5 37  1  0
 37 38  2  0
 38  2  1  0
 36  8  1  0
 36 11  1  0
 32 14  2  0
 30 21  1  0
 29 24  1  0
M  END
>  <Binding energies>  (45) 
[-10.23]

>  <Ligand effiencies>  (45) 
[-0.2623076923076923]

>  <Interactions>  (45) 
["V-A:ALA:541:CB:4892, V-A:TYR:539:CD1:4873, V-B:LEU:475:CD1:9229, V-A:GLU:543:CD:4908, V-B:GLU:543:CG:9879, V-B:GLU:543:CD:9880, V-A:HIS:456:CE1:4069, V-B:HIS:456:CE1:9041, V-B:TYR:484:CE2:9317, V-B:GLU:543:CB:9878, H-B:GLY:454:N:9021, V-B:PRO:482:CB:9297, V-B:ILE:369:CG2:8208, V-B:ILE:369:CD1:8210, V-B:PRO:482:CG:9298, V-A:GLU:543:C:4902, V-B:HIS:456:CG:9037, V-B:HIS:456:CD2:9039, V-B:TYR:484:CZ:9318, H-A:GLU:543:O:4903, H-A:LYS:547:NZ:4951, V-B:ASP:473:CG:9211, V-B:HIS:456:C:9032, V-B:LYS:471:CE:9191, V-A:LYS:547:CE:4950, V-B:VAL:458:CG2:9058, V-B:HIS:456:CB:9036, V-B:ASP:473:CB:9210"]

$$$$
RR21_Rahimova_2017
     RDKit          3D

 40 45  0  0  0  0  0  0  0  0999 V2000
  124.5960  129.9770   62.6800 C   0  0  0  0  0  0  0  0  0  0  0  0
  124.5380  130.1730   64.0890 O   0  0  0  0  0  0  0  0  0  0  0  0
  125.4560  129.5320   64.8990 C   0  0  0  0  0  0  0  0  0  0  0  0
  126.8130  129.3640   64.5760 C   0  0  0  0  0  0  0  0  0  0  0  0
  127.6750  128.7060   65.4520 C   0  0  0  0  0  0  0  0  0  0  0  0
  127.2070  128.2020   66.6710 C   0  0  0  0  0  0  0  0  0  0  0  0
  128.1370  127.4990   67.6120 C   0  0  0  0  0  0  0  0  0  0  0  0
  128.1950  127.8720   68.8760 N   0  0  0  0  0  0  0  0  0  0  0  0
  129.0980  127.0770   69.4710 N   0  0  0  0  0  0  0  0  0  0  0  0
  129.3930  127.1960   70.8540 C   0  0  0  0  0  0  0  0  0  0  0  0
  130.0800  128.3160   71.3470 C   0  0  0  0  0  0  0  0  0  0  0  0
  130.3600  128.4240   72.7070 C   0  0  0  0  0  0  0  0  0  0  0  0
  129.9560  127.4140   73.5770 C   0  0  0  0  0  0  0  0  0  0  0  0
  129.2760  126.2960   73.1000 C   0  0  0  0  0  0  0  0  0  0  0  0
  128.9950  126.1850   71.7400 C   0  0  0  0  0  0  0  0  0  0  0  0
  129.6050  126.1770   68.5670 C   0  0  0  0  0  0  0  0  0  0  0  0
  129.0160  126.4270   67.3370 C   0  0  0  0  0  0  0  0  0  0  0  0
  129.2020  125.7040   66.0880 C   0  0  0  0  0  0  0  0  0  0  0  0
  130.3540  125.4740   65.4170 C   0  0  0  0  0  0  0  0  0  0  0  0
  131.9960  125.9970   65.8550 S   0  0  0  0  0  0  0  0  0  0  0  0
  132.6200  125.1860   64.4270 C   0  0  0  0  0  0  0  0  0  0  0  0
  133.8540  125.1000   64.0360 N   0  0  0  0  0  0  0  0  0  0  0  0
  134.2290  124.3990   62.8580 C   0  0  0  0  0  0  0  0  0  0  0  0
  135.3750  124.2540   62.4320 O   0  0  0  0  0  0  0  0  0  0  0  0
  133.0690  123.7930   62.1150 C   0  0  0  0  0  0  0  0  0  0  0  0
  133.3500  123.0280   60.8160 C   0  0  0  0  0  0  0  0  0  0  0  0
  132.7820  121.6100   60.7860 C   0  0  0  0  0  0  0  0  0  0  0  0
  131.4060  121.4100   60.6490 C   0  0  0  0  0  0  0  0  0  0  0  0
  130.8900  120.1170   60.6050 C   0  0  0  0  0  0  0  0  0  0  0  0
  131.7500  119.0210   60.6940 C   0  0  0  0  0  0  0  0  0  0  0  0
  131.1840  117.6140   60.6330 C   0  0  0  0  0  0  0  0  0  0  0  0
  133.1270  119.2180   60.8190 C   0  0  0  0  0  0  0  0  0  0  0  0
  133.6420  120.5110   60.8640 C   0  0  0  0  0  0  0  0  0  0  0  0
  131.8430  123.8920   62.5140 N   0  0  0  0  0  0  0  0  0  0  0  0
  131.6170  124.6020   63.7000 N   0  0  0  0  0  0  0  0  0  0  0  0
  130.3510  124.7200   64.1710 C   0  0  0  0  0  0  0  0  0  0  0  0
  129.3480  124.2480   63.6230 O   0  0  0  0  0  0  0  0  0  0  0  0
  125.8550  128.3620   66.9900 C   0  0  0  0  0  0  0  0  0  0  0  0
  124.9900  129.0200   66.1150 C   0  0  0  0  0  0  0  0  0  0  0  0
  123.6870  129.1600   66.4550 F   0  0  0  0  0  0  0  0  0  0  0  0
  1  2  1  0
  2  3  1  0
  3  4  2  0
  4  5  1  0
  5  6  2  0
  6  7  1  0
  7  8  2  0
  8  9  1  0
  9 10  1  0
 10 11  2  0
 11 12  1  0
 12 13  2  0
 13 14  1  0
 14 15  2  0
  9 16  1  0
 16 17  2  0
 17 18  1  0
 18 19  2  0
 19 20  1  0
 20 21  1  0
 21 22  2  0
 22 23  1  0
 23 24  2  0
 23 25  1  0
 25 26  1  0
 26 27  1  0
 27 28  2  0
 28 29  1  0
 29 30  2  0
 30 31  1  0
 30 32  1  0
 32 33  2  0
 25 34  2  0
 34 35  1  0
 35 36  1  0
 36 37  2  0
  6 38  1  0
 38 39  2  0
 39 40  1  0
 39  3  1  0
 17  7  1  0
 36 19  1  0
 15 10  1  0
 35 21  1  0
 33 27  1  0
M  END
>  <Binding energies>  (46) 
[-11.01]

>  <Ligand effiencies>  (46) 
[-0.27525]

>  <Interactions>  (46) 
["V-A:GLU:543:CD:4908, V-A:GLY:453:C:4041, V-A:GLY:454:CA:4048, H-A:ARG:545:NH2:4928, H-A:ARG:545:NH1:4927, V-A:ARG:545:CZ:4926, H-A:GLY:454:N:4049, H-A:ARG:545:NE:4924, V-A:ILE:369:CG2:3236, V-B:TYR:539:CD2:9846, V-B:TYR:539:CE2:9848, V-A:LEU:475:CD1:4257, V-A:HIS:383:CE1:3392, V-A:PRO:482:CG:4326, V-B:GLU:543:CG:9879, V-B:GLU:543:CD:9880, V-A:HIS:456:CE1:4069, V-B:HIS:456:CE1:9041, V-A:GLY:453:CA:4043, V-B:GLU:543:CB:9878, H-B:GLY:454:N:9021, V-B:ASP:366:CG:8184, V-A:GLU:543:C:4902, V-B:ARG:545:CG:9894, V-B:ARG:545:CD:9895, V-B:ARG:545:CZ:9898, V-B:HIS:456:CD2:9039, V-A:LYS:547:CE:4950"]

$$$$
RR23_Rahimova_2017
     RDKit          3D

 39 44  0  0  0  0  0  0  0  0999 V2000
  127.6080  123.4110   57.6340 C   0  0  0  0  0  0  0  0  0  0  0  0
  128.8650  123.1310   58.4370 C   0  0  0  0  0  0  0  0  0  0  0  0
  130.0230  123.8720   58.2020 C   0  0  0  0  0  0  0  0  0  0  0  0
  131.1730  123.6200   58.9470 C   0  0  0  0  0  0  0  0  0  0  0  0
  131.1770  122.6180   59.9240 C   0  0  0  0  0  0  0  0  0  0  0  0
  132.4290  122.3750   60.7360 C   0  0  0  0  0  0  0  0  0  0  0  0
  133.1260  121.4040   60.4330 O   0  0  0  0  0  0  0  0  0  0  0  0
  132.7480  123.2330   61.7500 N   0  0  0  0  0  0  0  0  0  0  0  0
  133.7990  124.2510   61.5950 C   0  0  0  0  0  0  0  0  0  0  0  0
  133.7640  125.0980   62.8570 C   0  0  0  0  0  0  0  0  0  0  0  0
  132.4460  124.7310   63.4680 C   0  0  0  0  0  0  0  0  0  0  0  0
  131.8260  125.2570   64.6020 C   0  0  0  0  0  0  0  0  0  0  0  0
  130.6590  124.6670   65.1110 C   0  0  0  0  0  0  0  0  0  0  0  0
  129.9450  125.2150   66.3560 C   0  0  2  0  0  0  0  0  0  0  0  0
  128.9290  126.1890   66.0180 N   0  0  0  0  0  0  0  0  0  0  0  0
  128.8060  127.0770   66.9210 C   0  0  0  0  0  0  0  0  0  0  0  0
  127.9740  128.1530   66.9310 N   0  0  0  0  0  0  0  0  0  0  0  0
  127.1850  128.6170   65.9320 C   0  0  0  0  0  0  0  0  0  0  0  0
  127.0560  128.0960   64.8210 O   0  0  0  0  0  0  0  0  0  0  0  0
  126.4060  129.9040   66.2460 C   0  0  0  0  0  0  0  0  0  0  0  0
  125.9090  130.4910   64.9810 N   0  0  0  0  0  0  0  0  0  0  0  0
  124.6350  130.0930   64.5990 N   0  0  0  0  0  0  0  0  0  0  0  0
  124.0860  130.5340   63.5110 N   0  0  0  0  0  0  0  0  0  0  0  0
  124.7820  131.4310   62.6970 C   0  0  0  0  0  0  0  0  0  0  0  0
  124.1620  131.8860   61.5310 C   0  0  0  0  0  0  0  0  0  0  0  0
  124.8320  132.7830   60.6970 C   0  0  0  0  0  0  0  0  0  0  0  0
  126.1160  133.2240   61.0250 C   0  0  0  0  0  0  0  0  0  0  0  0
  126.7370  132.7700   62.1910 C   0  0  0  0  0  0  0  0  0  0  0  0
  126.0640  131.8720   63.0280 C   0  0  0  0  0  0  0  0  0  0  0  0
  126.7200  131.3660   64.2920 C   0  0  0  0  0  0  0  0  0  0  0  0
  127.8540  131.6920   64.6550 O   0  0  0  0  0  0  0  0  0  0  0  0
  129.8550  126.9210   68.3600 S   0  0  0  0  0  0  0  0  0  0  0  0
  130.8950  125.7730   67.4410 C   0  0  2  0  0  0  0  0  0  0  0  0
  132.1510  126.5190   66.9450 C   0  0  0  0  0  0  0  0  0  0  0  0
  130.1590  123.5170   64.4910 C   0  0  0  0  0  0  0  0  0  0  0  0
  130.7900  122.9770   63.3690 C   0  0  0  0  0  0  0  0  0  0  0  0
  131.9080  123.6180   62.8190 C   0  0  0  0  0  0  0  0  0  0  0  0
  130.0010  121.8970   60.1740 C   0  0  0  0  0  0  0  0  0  0  0  0
  128.8520  122.1500   59.4300 C   0  0  0  0  0  0  0  0  0  0  0  0
  1  2  1  0
  2  3  2  0
  3  4  1  0
  4  5  2  0
  5  6  1  0
  6  7  2  0
  6  8  1  0
  8  9  1  0
  9 10  1  0
 10 11  1  0
 11 12  2  0
 12 13  1  0
 14 13  1  6
 14 15  1  0
 15 16  2  0
 16 17  1  0
 17 18  1  0
 18 19  2  0
 18 20  1  0
 20 21  1  0
 21 22  1  0
 22 23  2  0
 23 24  1  0
 24 25  2  0
 25 26  1  0
 26 27  2  0
 27 28  1  0
 28 29  2  0
 29 30  1  0
 30 31  2  0
 16 32  1  0
 32 33  1  0
 33 34  1  6
 13 35  2  0
 35 36  1  0
 36 37  2  0
  5 38  1  0
 38 39  2  0
 39  2  1  0
 37  8  1  0
 37 11  1  0
 33 14  1  0
 30 21  1  0
 29 24  1  0
M  END
>  <Binding energies>  (47) 
[-10.07]

>  <Ligand effiencies>  (47) 
[-0.25175000000000003]

>  <Interactions>  (47) 
["V-A:ALA:541:CB:4892, V-A:TYR:539:CE1:4875, V-A:TYR:539:CD1:4873, V-B:LEU:475:CD1:9229, V-A:ASP:366:CG:3212, V-A:ARG:545:CG:4922, V-A:TYR:484:CZ:4346, H-A:GLU:543:OE1:4909, V-A:ARG:545:CZ:4926, V-B:TYR:539:CD2:9846, V-B:TYR:539:CE2:9848, V-B:PRO:540:CA:9855, V-B:GLU:543:CG:9879, V-B:TYR:539:CZ:9849, V-B:MET:535:CE:9807, V-B:PRO:540:N:9856, V-B:TYR:539:C:9839, V-A:TYR:484:CE2:4345, V-A:HIS:456:CE1:4069, V-B:HIS:456:CE1:9041, V-B:TYR:484:CE2:9317, V-B:GLU:543:CB:9878, H-B:TYR:484:OH:9319, H-B:ARG:545:NH2:9900, H-B:GLY:454:N:9021, V-B:ILE:369:CG2:8208, V-B:ILE:369:CD1:8210, V-B:TYR:484:CZ:9318, H-B:HIS:456:NE2:9042"]

$$$$
RR26_Rahimova_2017
     RDKit          3D

 38 44  0  0  0  0  0  0  0  0999 V2000
  133.5970  121.5170   61.4460 C   0  0  0  0  0  0  0  0  0  0  0  0
  132.5080  120.4770   61.2140 C   0  0  0  0  0  0  0  0  0  0  0  0
  132.8170  119.3580   60.4320 C   0  0  0  0  0  0  0  0  0  0  0  0
  131.8720  118.3570   60.2200 C   0  0  0  0  0  0  0  0  0  0  0  0
  130.6090  118.4620   60.7950 C   0  0  0  0  0  0  0  0  0  0  0  0
  130.2900  119.5710   61.5760 C   0  0  0  0  0  0  0  0  0  0  0  0
  131.2260  120.5940   61.7930 C   0  0  0  0  0  0  0  0  0  0  0  0
  130.7960  121.7620   62.6340 C   0  0  0  0  0  0  0  0  0  0  0  0
  130.5620  121.6500   63.9390 N   0  0  0  0  0  0  0  0  0  0  0  0
  130.2360  122.8730   64.2600 C   0  0  0  0  0  0  0  0  0  0  0  0
  129.7670  123.6900   65.7050 S   0  0  0  0  0  0  0  0  0  0  0  0
  129.6380  125.2250   64.7690 C   0  0  0  0  0  0  0  0  0  0  0  0
  129.2810  126.4460   65.2260 C   0  0  0  0  0  0  0  0  0  0  0  0
  128.9200  126.8250   66.5830 C   0  0  0  0  0  0  0  0  0  0  0  0
  129.5570  126.4830   67.7660 C   0  0  0  0  0  0  0  0  0  0  0  0
  128.8930  127.0990   68.7960 N   0  0  0  0  0  0  0  0  0  0  0  0
  129.1840  127.0470   70.1840 C   0  0  0  0  0  0  0  0  0  0  0  0
  129.8260  128.1180   70.8230 C   0  0  0  0  0  0  0  0  0  0  0  0
  130.1100  128.0530   72.1850 C   0  0  0  0  0  0  0  0  0  0  0  0
  129.7500  126.9210   72.9120 C   0  0  0  0  0  0  0  0  0  0  0  0
  129.1090  125.8520   72.2890 C   0  0  0  0  0  0  0  0  0  0  0  0
  128.8270  125.9130   70.9280 C   0  0  0  0  0  0  0  0  0  0  0  0
  127.8800  127.8390   68.3200 N   0  0  0  0  0  0  0  0  0  0  0  0
  127.8810  127.6820   67.0110 C   0  0  0  0  0  0  0  0  0  0  0  0
  126.8520  128.3790   66.1760 C   0  0  0  0  0  0  0  0  0  0  0  0
  125.5620  128.6050   66.6790 C   0  0  0  0  0  0  0  0  0  0  0  0
  124.5950  129.2510   65.9070 C   0  0  0  0  0  0  0  0  0  0  0  0
  124.9130  129.6770   64.6190 C   0  0  0  0  0  0  0  0  0  0  0  0
  126.2040  129.4740   64.1110 C   0  0  0  0  0  0  0  0  0  0  0  0
  127.1660  128.8230   64.8820 C   0  0  0  0  0  0  0  0  0  0  0  0
  126.5510  129.8390   62.8250 O   0  0  0  0  0  0  0  0  0  0  0  0
  125.6740  130.8030   62.2340 C   0  0  0  0  0  0  0  0  0  0  0  0
  124.1960  130.4290   62.5010 C   0  0  0  0  0  0  0  0  0  0  0  0
  123.9420  130.3540   63.9080 O   0  0  0  0  0  0  0  0  0  0  0  0
  129.9600  125.0430   63.3570 C   0  0  0  0  0  0  0  0  0  0  0  0
  129.9660  125.8740   62.4470 O   0  0  0  0  0  0  0  0  0  0  0  0
  130.2810  123.6870   63.1900 N   0  0  0  0  0  0  0  0  0  0  0  0
  130.6500  122.9740   62.1220 N   0  0  0  0  0  0  0  0  0  0  0  0
  1  2  1  0
  2  3  2  0
  3  4  1  0
  4  5  2  0
  5  6  1  0
  6  7  2  0
  7  8  1  0
  8  9  1  0
  9 10  2  0
 10 11  1  0
 11 12  1  0
 12 13  2  0
 13 14  1  0
 14 15  2  0
 15 16  1  0
 16 17  1  0
 17 18  2  0
 18 19  1  0
 19 20  2  0
 20 21  1  0
 21 22  2  0
 16 23  1  0
 23 24  2  0
 24 25  1  0
 25 26  2  0
 26 27  1  0
 27 28  2  0
 28 29  1  0
 29 30  2  0
 29 31  1  0
 31 32  1  0
 32 33  1  0
 33 34  1  0
 12 35  1  0
 35 36  2  0
 35 37  1  0
 37 38  1  0
  7  2  1  0
 38  8  2  0
 37 10  1  0
 24 14  1  0
 30 25  1  0
 22 17  1  0
 34 28  1  0
M  END
>  <Binding energies>  (48) 
[-9.73]

>  <Ligand effiencies>  (48) 
[-0.25605263157894737]

>  <Interactions>  (48) 
["V-A:GLU:543:CD:4908, H-A:TYR:484:OH:4347, V-A:TYR:484:CZ:4346, V-A:ILE:369:CD1:3238, V-A:ILE:369:CG2:3236, V-B:TYR:539:CD2:9846, V-A:LEU:475:CD1:4257, V-A:PRO:482:CG:4326, V-B:GLU:543:CG:9879, V-B:ALA:541:CB:9864, V-B:GLU:543:CD:9880, V-B:TYR:539:C:9839, V-A:TYR:484:CE2:4345, V-A:HIS:456:CE1:4069, V-B:HIS:456:CE1:9041, V-B:GLU:543:C:9874, V-B:GLU:543:CB:9878, H-B:GLY:454:N:9021, V-B:ILE:369:CD1:8210, V-B:ASP:366:CG:8184, V-A:GLU:543:C:4902, V-B:ARG:545:CG:9894, V-B:ARG:545:CD:9895, V-B:ARG:545:CZ:9898"]

$$$$
RR2_Rahimova_2017
     RDKit          3D

 46 50  0  0  0  0  0  0  0  0999 V2000
  129.6520  121.5510   61.0700 C   0  0  0  0  0  0  0  0  0  0  0  0
  128.6570  121.9270   62.0150 O   0  0  0  0  0  0  0  0  0  0  0  0
  128.1640  123.2180   61.9980 C   0  0  0  0  0  0  0  0  0  0  0  0
  128.8260  124.3260   62.5450 C   0  0  0  0  0  0  0  0  0  0  0  0
  128.2490  125.5910   62.4830 C   0  0  0  0  0  0  0  0  0  0  0  0
  126.9990  125.7790   61.8770 C   0  0  0  0  0  0  0  0  0  0  0  0
  126.3890  127.1670   61.8290 C   0  0  0  0  0  0  0  0  0  0  0  0
  126.1730  127.7890   62.8750 O   0  0  0  0  0  0  0  0  0  0  0  0
  126.1000  127.6420   60.5950 N   0  0  0  0  0  0  0  0  0  0  0  0
  125.4540  128.8700   60.4990 N   0  0  0  0  0  0  0  0  0  0  0  0
  124.9860  129.2520   59.2940 C   0  0  0  0  0  0  0  0  0  0  0  0
  125.2380  128.6840   58.2270 O   0  0  0  0  0  0  0  0  0  0  0  0
  124.0580  130.4740   59.3020 C   0  0  0  0  0  0  0  0  0  0  0  0
  124.6860  131.9170   60.2360 S   0  0  0  0  0  0  0  0  0  0  0  0
  124.7660  131.2410   61.8660 C   0  0  0  0  0  0  0  0  0  0  0  0
  123.7020  130.9690   62.5790 N   0  0  0  0  0  0  0  0  0  0  0  0
  124.1340  130.5260   63.8210 N   0  0  0  0  0  0  0  0  0  0  0  0
  125.4460  130.5180   63.8020 C   0  0  0  0  0  0  0  0  0  0  0  0
  126.2820  130.0820   64.9620 C   0  0  0  0  0  0  0  0  0  0  0  0
  126.0670  128.8280   65.5400 C   0  0  0  0  0  0  0  0  0  0  0  0
  126.8350  128.4160   66.6250 C   0  0  0  0  0  0  0  0  0  0  0  0
  127.8380  129.2490   67.1320 C   0  0  0  0  0  0  0  0  0  0  0  0
  128.6350  128.8910   68.2300 N   0  0  0  0  0  0  0  0  0  0  0  0
  129.0020  127.2190   68.7120 S   0  0  0  0  0  0  0  0  0  0  0  0
  127.7400  126.4800   68.5970 O   0  0  0  0  0  0  0  0  0  0  0  0
  129.7360  127.2620   69.9820 O   0  0  0  0  0  0  0  0  0  0  0  0
  130.0870  126.5900   67.4330 C   0  0  0  0  0  0  0  0  0  0  0  0
  129.5890  125.7670   66.4190 C   0  0  0  0  0  0  0  0  0  0  0  0
  130.4520  125.2760   65.4440 C   0  0  0  0  0  0  0  0  0  0  0  0
  131.8080  125.6110   65.4770 C   0  0  0  0  0  0  0  0  0  0  0  0
  132.7490  125.0620   64.4210 C   0  0  0  0  0  0  0  0  0  0  0  0
  132.3030  126.4300   66.4940 C   0  0  0  0  0  0  0  0  0  0  0  0
  131.4420  126.9210   67.4710 C   0  0  0  0  0  0  0  0  0  0  0  0
  128.0540  130.4990   66.5530 C   0  0  0  0  0  0  0  0  0  0  0  0
  127.2820  130.9150   65.4710 C   0  0  0  0  0  0  0  0  0  0  0  0
  125.9180  130.9690   62.5810 N   0  0  0  0  0  0  0  0  0  0  0  0
  127.2550  131.1530   62.1720 C   0  0  0  0  0  0  0  0  0  0  0  0
  127.6230  132.3180   61.4980 C   0  0  0  0  0  0  0  0  0  0  0  0
  128.9460  132.4960   61.1010 C   0  0  0  0  0  0  0  0  0  0  0  0
  129.9060  131.5190   61.3700 C   0  0  0  0  0  0  0  0  0  0  0  0
  131.1900  131.7850   60.9360 O   0  0  0  0  0  0  0  0  0  0  0  0
  132.1650  130.7470   60.9720 C   0  0  0  0  0  0  0  0  0  0  0  0
  129.5260  130.3500   62.0480 C   0  0  0  0  0  0  0  0  0  0  0  0
  128.2060  130.1680   62.4490 C   0  0  0  0  0  0  0  0  0  0  0  0
  126.3450  124.6670   61.3260 C   0  0  0  0  0  0  0  0  0  0  0  0
  126.9250  123.4030   61.3880 C   0  0  0  0  0  0  0  0  0  0  0  0
  1  2  1  0
  2  3  1  0
  3  4  2  0
  4  5  1  0
  5  6  2  0
  6  7  1  0
  7  8  2  0
  7  9  1  0
  9 10  1  0
 10 11  1  0
 11 12  2  0
 11 13  1  0
 13 14  1  0
 14 15  1  0
 15 16  2  0
 16 17  1  0
 17 18  2  0
 18 19  1  0
 19 20  2  0
 20 21  1  0
 21 22  2  0
 22 23  1  0
 23 24  1  0
 24 25  2  0
 24 26  2  0
 24 27  1  0
 27 28  2  0
 28 29  1  0
 29 30  2  0
 30 31  1  0
 30 32  1  0
 32 33  2  0
 22 34  1  0
 34 35  2  0
 18 36  1  0
 36 37  1  0
 37 38  2  0
 38 39  1  0
 39 40  2  0
 40 41  1  0
 41 42  1  0
 40 43  1  0
 43 44  2  0
  6 45  1  0
 45 46  2  0
 46  3  1  0
 36 15  1  0
 44 37  1  0
 35 19  1  0
 33 27  1  0
M  END
>  <Binding energies>  (49) 
[-10.69]

>  <Ligand effiencies>  (49) 
[-0.21816326530612243]

>  <Interactions>  (49) 
["V-A:ALA:541:CB:4892, V-A:TYR:539:CE1:4875, V-A:PRO:540:CA:4883, V-A:GLU:543:CD:4908, V-A:PRO:540:CB:4885, V-A:ARG:545:CD:4923, V-A:ARG:545:CG:4922, V-A:ARG:545:CZ:4926, H-B:ALA:541:N:9863, V-B:PRO:540:CA:9855, V-B:GLU:543:CG:9879, H-B:ASP:366:OD1:8185, V-B:ALA:541:CB:9864, V-B:GLU:543:CD:9880, V-A:HIS:456:CE1:4069, V-A:GLU:543:CG:4907, V-B:HIS:456:CE1:9041, V-B:TYR:484:CE2:9317, V-A:GLU:543:CB:4906, V-B:GLU:543:CB:9878, H-B:ASP:366:OD2:8186, H-B:ARG:545:NH2:9900, H-B:GLY:454:N:9021, V-B:ILE:369:CG2:8208, H-A:ALA:541:N:4891, V-B:ASP:366:CG:8184, V-A:ALA:541:CA:4890, V-B:ILE:369:CB:8207, V-B:ASP:366:CB:8183, V-B:ARG:545:CZ:9898, V-B:TYR:484:CZ:9318, H-A:GLU:543:O:4903, H-B:TYR:531:OH:9767, V-A:PRO:540:C:4881, V-B:ASP:366:C:8179, V-B:ASP:366:CA:8181"]

$$$$
RR33_Rahimova_2017
     RDKit          3D

 18 19  0  0  0  0  0  0  0  0999 V2000
  124.1390  132.2180   62.6560 C   0  0  0  0  0  0  0  0  0  0  0  0
  123.8860  130.7290   62.3980 C   0  0  0  0  0  0  0  0  0  0  0  0
  123.5120  130.1090   63.6260 O   0  0  0  0  0  0  0  0  0  0  0  0
  124.4930  129.6020   64.4560 C   0  0  0  0  0  0  0  0  0  0  0  0
  125.7140  129.2930   63.8580 C   0  0  0  0  0  0  0  0  0  0  0  0
  126.7620  128.7730   64.6140 C   0  0  0  0  0  0  0  0  0  0  0  0
  126.6010  128.5560   65.9860 C   0  0  0  0  0  0  0  0  0  0  0  0
  127.7260  127.9970   66.7970 C   0  0  0  0  0  0  0  0  0  0  0  0
  128.6290  127.1180   66.4200 N   0  0  0  0  0  0  0  0  0  0  0  0
  129.4070  126.9410   67.4760 C   0  0  0  0  0  0  0  0  0  0  0  0
  130.5860  125.9940   67.4240 C   0  0  0  0  0  0  0  0  0  0  0  0
  131.1320  125.9280   66.0760 N   0  0  0  0  0  0  0  0  0  0  0  0
  132.5620  126.1880   66.0890 C   0  0  0  0  0  0  0  0  0  0  0  0
  128.9600  127.7370   68.5240 C   0  0  0  0  0  0  0  0  0  0  0  0
  129.4020  127.9880   69.9450 C   0  0  0  0  0  0  0  0  0  0  0  0
  127.8760  128.4150   68.0810 O   0  0  0  0  0  0  0  0  0  0  0  0
  125.3800  128.8690   66.5900 C   0  0  0  0  0  0  0  0  0  0  0  0
  124.3320  129.3870   65.8340 C   0  0  0  0  0  0  0  0  0  0  0  0
  1  2  1  0
  2  3  1  0
  3  4  1  0
  4  5  2  0
  5  6  1  0
  6  7  2  0
  7  8  1  0
  8  9  2  0
  9 10  1  0
 10 11  1  0
 11 12  1  0
 12 13  1  0
 10 14  2  0
 14 15  1  0
 14 16  1  0
  7 17  1  0
 17 18  2  0
 18  4  1  0
 16  8  1  0
M  END
>  <Binding energies>  (50) 
[-5.09]

>  <Ligand effiencies>  (50) 
[-0.26789473684210524]

>  <Interactions>  (50) 
["V-B:LEU:475:CD1:9229, V-A:ARG:545:CD:4923, V-A:ARG:545:CG:4922, H-A:TYR:484:OH:4347, H-A:GLU:543:OE1:4909, V-A:ARG:545:CZ:4926, V-A:HIS:456:CE1:4069, V-B:HIS:456:CE1:9041, H-B:GLY:454:N:9021, V-B:GLY:454:CA:9020, V-B:ILE:369:CD1:8210, H-B:ARG:545:NH1:9899, V-B:ARG:545:CG:9894, V-B:ARG:545:CD:9895, V-B:ARG:545:CZ:9898"]

$$$$
RR3_Rahimova_2017
     RDKit          3D

 38 44  0  0  0  0  0  0  0  0999 V2000
  133.9530  122.7630   62.1430 C   0  0  0  0  0  0  0  0  0  0  0  0
  132.9790  122.1740   62.9430 C   0  0  0  0  0  0  0  0  0  0  0  0
  132.3130  122.9410   63.8950 C   0  0  0  0  0  0  0  0  0  0  0  0
  132.6110  124.3020   64.0600 C   0  0  0  0  0  0  0  0  0  0  0  0
  131.8930  125.1260   65.0830 C   0  0  0  0  0  0  0  0  0  0  0  0
  130.4940  125.1140   65.1650 C   0  0  0  0  0  0  0  0  0  0  0  0
  129.8270  125.8830   66.1150 C   0  0  0  0  0  0  0  0  0  0  0  0
  130.5460  126.6890   67.0020 C   0  0  0  0  0  0  0  0  0  0  0  0
  129.8350  127.5220   68.0220 C   0  0  0  0  0  0  0  0  0  0  0  0
  130.1230  127.3830   69.3110 N   0  0  0  0  0  0  0  0  0  0  0  0
  129.3900  128.2590   69.9560 C   0  0  0  0  0  0  0  0  0  0  0  0
  129.3890  128.4530   71.4030 C   0  0  0  0  0  0  0  0  0  0  0  0
  130.0090  127.6340   72.3310 C   0  0  0  0  0  0  0  0  0  0  0  0
  129.8110  128.1190   73.5980 N   0  0  0  0  0  0  0  0  0  0  0  0
  129.0550  129.2690   73.5460 C   0  0  0  0  0  0  0  0  0  0  0  0
  128.6010  130.1100   74.5680 C   0  0  0  0  0  0  0  0  0  0  0  0
  127.8410  131.2160   74.1870 C   0  0  0  0  0  0  0  0  0  0  0  0
  127.5430  131.4770   72.8540 C   0  0  0  0  0  0  0  0  0  0  0  0
  127.9960  130.6400   71.8360 C   0  0  0  0  0  0  0  0  0  0  0  0
  128.7660  129.5100   72.1660 C   0  0  0  0  0  0  0  0  0  0  0  0
  128.6100  128.9750   69.0900 N   0  0  0  0  0  0  0  0  0  0  0  0
  128.8540  128.5080   67.8240 C   0  0  0  0  0  0  0  0  0  0  0  0
  128.1320  129.0170   66.6200 C   0  0  0  0  0  0  0  0  0  0  0  0
  127.8750  130.3820   66.4820 C   0  0  0  0  0  0  0  0  0  0  0  0
  127.1920  130.8580   65.3680 C   0  0  0  0  0  0  0  0  0  0  0  0
  126.7530  129.9840   64.3630 C   0  0  0  0  0  0  0  0  0  0  0  0
  126.0010  130.4970   63.1760 C   0  0  0  0  0  0  0  0  0  0  0  0
  124.6310  130.2330   63.0220 C   0  0  0  0  0  0  0  0  0  0  0  0
  123.9310  130.7150   61.9190 C   0  0  0  0  0  0  0  0  0  0  0  0
  124.5950  131.4680   60.9550 C   0  0  0  0  0  0  0  0  0  0  0  0
  125.9510  131.7430   61.0880 C   0  0  0  0  0  0  0  0  0  0  0  0
  126.6490  131.2590   62.1910 C   0  0  0  0  0  0  0  0  0  0  0  0
  127.0330  128.6170   64.5050 C   0  0  0  0  0  0  0  0  0  0  0  0
  127.7160  128.1370   65.6180 C   0  0  0  0  0  0  0  0  0  0  0  0
  131.9410  126.6970   66.9370 C   0  0  0  0  0  0  0  0  0  0  0  0
  132.6050  125.9270   65.9860 C   0  0  0  0  0  0  0  0  0  0  0  0
  133.5970  124.8730   63.2420 C   0  0  0  0  0  0  0  0  0  0  0  0
  134.2650  124.1100   62.2890 C   0  0  0  0  0  0  0  0  0  0  0  0
  1  2  2  0
  2  3  1  0
  3  4  2  0
  4  5  1  0
  5  6  2  0
  6  7  1  0
  7  8  2  0
  8  9  1  0
  9 10  1  0
 10 11  2  0
 11 12  1  0
 12 13  2  0
 13 14  1  0
 14 15  1  0
 15 16  2  0
 16 17  1  0
 17 18  2  0
 18 19  1  0
 19 20  2  0
 11 21  1  0
 21 22  1  0
 22 23  1  0
 23 24  2  0
 24 25  1  0
 25 26  2  0
 26 27  1  0
 27 28  2  0
 28 29  1  0
 29 30  2  0
 30 31  1  0
 31 32  2  0
 26 33  1  0
 33 34  2  0
  8 35  1  0
 35 36  2  0
  4 37  1  0
 37 38  2  0
 38  1  1  0
 36  5  1  0
 22  9  2  0
 34 23  1  0
 20 12  1  0
 32 27  1  0
 20 15  1  0
M  END
>  <Binding energies>  (51) 
[-9.6]

>  <Ligand effiencies>  (51) 
[-0.24]

>  <Interactions>  (51) 
["V-A:GLU:543:CD:4908, V-A:ASP:366:CG:3212, V-A:ARG:545:CD:4923, V-A:ARG:545:CG:4922, V-A:GLY:453:C:4041, V-A:GLY:454:CA:4048, V-A:ILE:369:CD1:3238, V-A:ARG:545:CZ:4926, V-A:LEU:475:CD1:4257, V-A:HIS:456:CE1:4069, V-A:GLU:543:CG:4907, V-B:HIS:456:CE1:9041, V-B:TYR:484:CE2:9317, V-A:GLY:453:CA:4043, V-A:GLU:543:CB:4906, V-B:ILE:369:CG2:8208, V-B:ILE:369:CD1:8210, V-B:ASP:366:CG:8184, V-A:GLU:543:C:4902, V-B:TYR:484:CD2:9315, V-B:HIS:456:CG:9037, V-B:HIS:456:CD2:9039, V-B:TYR:484:CZ:9318, H-A:GLU:543:O:4903, H-B:HIS:456:NE2:9042, V-B:TYR:484:CB:9312, V-A:LYS:547:CE:4950, V-B:TYR:484:CG:9313"]

$$$$
RR4_Rahimova_2017
     RDKit          3D

 40 44  0  0  0  0  0  0  0  0999 V2000
  128.1790  127.1960   75.2560 C   0  0  0  0  0  0  0  0  0  0  0  0
  129.3680  127.3030   74.4810 O   0  0  0  0  0  0  0  0  0  0  0  0
  129.2720  127.3610   73.1040 C   0  0  0  0  0  0  0  0  0  0  0  0
  128.8380  126.2060   72.4580 C   0  0  0  0  0  0  0  0  0  0  0  0
  128.7100  126.1730   71.0730 C   0  0  0  0  0  0  0  0  0  0  0  0
  129.0160  127.2960   70.2900 C   0  0  0  0  0  0  0  0  0  0  0  0
  128.8780  127.2560   68.7950 C   0  0  0  0  0  0  0  0  0  0  0  0
  128.0810  128.1580   68.0840 C   0  0  0  0  0  0  0  0  0  0  0  0
  127.9880  128.0830   66.6880 C   0  0  0  0  0  0  0  0  0  0  0  0
  127.1390  129.0980   65.9940 C   0  0  0  0  0  0  0  0  0  0  0  0
  127.7030  130.2980   65.5490 C   0  0  0  0  0  0  0  0  0  0  0  0
  126.9220  131.2440   64.8910 C   0  0  0  0  0  0  0  0  0  0  0  0
  125.5670  131.0080   64.6600 C   0  0  0  0  0  0  0  0  0  0  0  0
  124.8730  132.0040   63.9990 O   0  0  0  0  0  0  0  0  0  0  0  0
  124.2490  131.7060   62.7540 C   0  0  0  0  0  0  0  0  0  0  0  0
  124.9990  129.8040   65.1000 C   0  0  0  0  0  0  0  0  0  0  0  0
  125.7820  128.8580   65.7570 C   0  0  0  0  0  0  0  0  0  0  0  0
  128.6960  127.0540   66.0190 C   0  0  0  0  0  0  0  0  0  0  0  0
  128.6340  126.9300   64.5600 C   0  0  0  0  0  0  0  0  0  0  0  0
  128.5860  126.8320   63.4080 N   0  0  0  0  0  0  0  0  0  0  0  0
  129.4590  126.1590   66.8030 C   0  0  0  0  0  0  0  0  0  0  0  0
  130.4000  124.8030   66.1350 S   0  0  0  0  0  0  0  0  0  0  0  0
  131.7770  125.5060   65.1670 C   0  0  0  0  0  0  0  0  0  0  0  0
  132.5010  124.4980   64.2650 C   0  0  0  0  0  0  0  0  0  0  0  0
  133.7030  124.6260   64.0210 O   0  0  0  0  0  0  0  0  0  0  0  0
  131.7160  123.5100   63.7750 N   0  0  0  0  0  0  0  0  0  0  0  0
  132.0730  122.4510   62.9370 C   0  0  0  0  0  0  0  0  0  0  0  0
  133.7200  121.9120   62.7390 S   0  0  0  0  0  0  0  0  0  0  0  0
  133.2390  120.6790   61.6130 C   0  0  0  0  0  0  0  0  0  0  0  0
  131.8530  120.6900   61.3970 C   0  0  0  0  0  0  0  0  0  0  0  0
  131.1920  121.6840   62.1600 C   0  0  0  0  0  0  0  0  0  0  0  0
  129.7480  121.8910   62.1320 C   0  0  0  0  0  0  0  0  0  0  0  0
  128.6020  122.0550   62.1090 N   0  0  0  0  0  0  0  0  0  0  0  0
  131.1770  119.6710   60.4720 C   0  0  0  0  0  0  0  0  0  0  0  0
  132.1230  118.4820   60.1880 C   0  0  0  0  0  0  0  0  0  0  0  0
  133.5470  118.9440   59.8370 C   0  0  0  0  0  0  0  0  0  0  0  0
  134.2220  119.6830   61.0120 C   0  0  0  0  0  0  0  0  0  0  0  0
  129.5570  126.2740   68.1480 N   0  0  0  0  0  0  0  0  0  0  0  0
  129.4490  128.4560   70.9510 C   0  0  0  0  0  0  0  0  0  0  0  0
  129.5780  128.4930   72.3360 C   0  0  0  0  0  0  0  0  0  0  0  0
  1  2  1  0
  2  3  1  0
  3  4  2  0
  4  5  1  0
  5  6  2  0
  6  7  1  0
  7  8  2  0
  8  9  1  0
  9 10  1  0
 10 11  2  0
 11 12  1  0
 12 13  2  0
 13 14  1  0
 14 15  1  0
 13 16  1  0
 16 17  2  0
  9 18  2  0
 18 19  1  0
 19 20  3  0
 18 21  1  0
 21 22  1  0
 22 23  1  0
 23 24  1  0
 24 25  2  0
 24 26  1  0
 26 27  1  0
 27 28  1  0
 28 29  1  0
 29 30  2  0
 30 31  1  0
 31 32  1  0
 32 33  3  0
 30 34  1  0
 34 35  1  0
 35 36  1  0
 36 37  1  0
 21 38  2  0
  6 39  1  0
 39 40  2  0
 40  3  1  0
 38  7  1  0
 17 10  1  0
 31 27  2  0
 37 29  1  0
M  END
>  <Binding energies>  (52) 
[-10.24]

>  <Ligand effiencies>  (52) 
[-0.2497560975609756]

>  <Interactions>  (52) 
["V-A:GLU:543:CD:4908, H-A:TYR:484:OH:4347, V-A:GLY:454:CA:4048, H-A:ARG:545:NH2:4928, H-A:GLY:454:N:4049, V-A:ILE:369:CG2:3236, V-B:TYR:539:CD2:9846, V-B:TYR:539:CE2:9848, V-A:LEU:475:CD1:4257, H-B:ALA:541:N:9863, V-B:ALA:541:CB:9864, V-B:GLU:543:CD:9880, V-A:SER:385:C:3404, V-A:HIS:383:CD2:3391, V-A:HIS:456:CE1:4069, V-A:GLU:543:CG:4907, V-B:HIS:456:CE1:9041, V-B:TYR:484:CE2:9317, V-B:GLU:543:CB:9878, H-B:TYR:484:OH:9319, H-B:GLY:454:N:9021, V-B:GLY:454:CA:9020, V-B:ILE:369:CD1:8210, V-A:SER:385:CA:3406, V-A:GLU:543:C:4902, V-B:ARG:545:CZ:9898, V-B:HIS:456:CD2:9039"]

$$$$
RR6_Rahimova_2017
     RDKit          3D

 38 41  0  0  0  0  0  0  0  0999 V2000
  134.2500  123.6690   60.6530 C   0  0  0  0  0  0  0  0  0  0  0  0
  133.9790  124.3720   59.4480 O   0  0  0  0  0  0  0  0  0  0  0  0
  133.3190  123.7730   58.4230 C   0  0  0  0  0  0  0  0  0  0  0  0
  133.8850  123.3040   57.4310 O   0  0  0  0  0  0  0  0  0  0  0  0
  131.8300  123.7380   58.6170 C   0  0  0  0  0  0  0  0  0  0  0  0
  130.9730  124.6270   57.9510 C   0  0  0  0  0  0  0  0  0  0  0  0
  129.5960  124.5740   58.1580 C   0  0  0  0  0  0  0  0  0  0  0  0
  129.0530  123.6280   59.0400 C   0  0  0  0  0  0  0  0  0  0  0  0
  127.6840  123.5070   59.3430 N   0  0  0  0  0  0  0  0  0  0  0  0
  126.6160  124.0300   58.7020 C   0  0  0  0  0  0  0  0  0  0  0  0
  126.6620  124.7280   57.6890 O   0  0  0  0  0  0  0  0  0  0  0  0
  125.2560  123.7620   59.3550 C   0  0  0  0  0  0  0  0  0  0  0  0
  125.3250  123.6510   61.1750 S   0  0  0  0  0  0  0  0  0  0  0  0
  126.4720  124.8980   61.7220 C   0  0  0  0  0  0  0  0  0  0  0  0
  126.0020  126.1650   61.6350 N   0  0  0  0  0  0  0  0  0  0  0  0
  126.7750  127.2000   62.0500 C   0  0  0  0  0  0  0  0  0  0  0  0
  126.1570  128.5660   61.9770 C   0  0  0  0  0  0  0  0  0  0  0  0
  125.7560  129.2400   63.1410 C   0  0  0  0  0  0  0  0  0  0  0  0
  125.1700  130.5010   63.0720 C   0  0  0  0  0  0  0  0  0  0  0  0
  124.9800  131.1160   61.8350 C   0  0  0  0  0  0  0  0  0  0  0  0
  124.3330  132.4870   61.7640 C   0  0  0  0  0  0  0  0  0  0  0  0
  125.3730  130.4640   60.6690 C   0  0  0  0  0  0  0  0  0  0  0  0
  125.9580  129.2040   60.7430 C   0  0  0  0  0  0  0  0  0  0  0  0
  128.0590  126.9750   62.5560 C   0  0  0  0  0  0  0  0  0  0  0  0
  128.5700  125.6730   62.6530 C   0  0  0  0  0  0  0  0  0  0  0  0
  129.9410  125.5040   63.2200 C   0  0  0  0  0  0  0  0  0  0  0  0
  130.1290  125.4690   64.6050 C   0  0  0  0  0  0  0  0  0  0  0  0
  131.4020  125.2950   65.1420 C   0  0  0  0  0  0  0  0  0  0  0  0
  132.5090  125.1470   64.3070 C   0  0  0  0  0  0  0  0  0  0  0  0
  133.7310  124.9780   64.9280 O   0  0  0  0  0  0  0  0  0  0  0  0
  133.9140  125.4760   66.2490 C   0  0  0  0  0  0  0  0  0  0  0  0
  132.3250  125.1760   62.9170 C   0  0  0  0  0  0  0  0  0  0  0  0
  131.0500  125.3490   62.3830 C   0  0  0  0  0  0  0  0  0  0  0  0
  127.7570  124.5970   62.2180 C   0  0  0  0  0  0  0  0  0  0  0  0
  128.2410  123.2140   62.2640 C   0  0  0  0  0  0  0  0  0  0  0  0
  128.6220  122.1220   62.3020 N   0  0  0  0  0  0  0  0  0  0  0  0
  129.9010  122.7310   59.6910 C   0  0  0  0  0  0  0  0  0  0  0  0
  131.2770  122.7880   59.4850 C   0  0  0  0  0  0  0  0  0  0  0  0
  1  2  1  0
  2  3  1  0
  3  4  2  0
  3  5  1  0
  5  6  2  0
  6  7  1  0
  7  8  2  0
  8  9  1  0
  9 10  1  0
 10 11  2  0
 10 12  1  0
 12 13  1  0
 13 14  1  0
 14 15  2  0
 15 16  1  0
 16 17  1  0
 17 18  2  0
 18 19  1  0
 19 20  2  0
 20 21  1  0
 20 22  1  0
 22 23  2  0
 16 24  2  0
 24 25  1  0
 25 26  1  0
 26 27  2  0
 27 28  1  0
 28 29  2  0
 29 30  1  0
 30 31  1  0
 29 32  1  0
 32 33  2  0
 25 34  2  0
 34 35  1  0
 35 36  3  0
  8 37  1  0
 37 38  2  0
 38  5  1  0
 34 14  1  0
 23 17  1  0
 33 26  1  0
M  END
>  <Binding energies>  (53) 
[-8.24]

>  <Ligand effiencies>  (53) 
[-0.2112820512820513]

>  <Interactions>  (53) 
["V-A:ASP:366:CG:3212, V-A:ARG:545:CD:4923, V-A:ARG:545:CG:4922, H-A:TYR:484:OH:4347, V-A:ASP:366:CA:3209, V-A:ASP:366:CB:3211, H-A:ARG:545:NH2:4928, V-A:ILE:369:CD1:3238, V-A:ARG:545:CZ:4926, H-A:GLY:454:N:4049, V-A:ILE:369:CB:3235, H-A:ARG:545:NE:4924, V-A:ILE:369:CG2:3236, V-B:TYR:539:CD2:9846, V-B:TYR:539:CE2:9848, H-B:ALA:541:N:9863, V-B:PRO:540:CA:9855, V-B:TYR:539:CZ:9849, V-B:ALA:541:CB:9864, V-B:GLU:543:CD:9880, V-B:PRO:540:CB:9857, H-B:ARG:545:NH2:9900, V-B:ILE:369:CG2:8208, V-B:ILE:369:CD1:8210, V-B:ASP:366:CG:8184, H-B:TYR:539:OH:9850, H-B:TYR:531:OH:9767, V-A:ASP:366:C:3207, H-A:ASN:370:N:3243"]

$$$$
RR7_Rahimova_2017
     RDKit          3D

 47 53  0  0  0  0  0  0  0  0999 V2000
  132.9700  125.8980   66.8610 C   0  0  0  0  0  0  0  0  0  0  0  0
  133.7250  125.8080   65.6570 O   0  0  0  0  0  0  0  0  0  0  0  0
  133.1870  125.1400   64.5740 C   0  0  0  0  0  0  0  0  0  0  0  0
  133.9590  125.1090   63.4140 C   0  0  0  0  0  0  0  0  0  0  0  0
  133.5030  124.4550   62.2750 C   0  0  0  0  0  0  0  0  0  0  0  0
  132.2500  123.8230   62.2640 C   0  0  0  0  0  0  0  0  0  0  0  0
  131.7270  123.0540   61.0110 C   0  0  0  0  0  0  0  0  0  0  0  0
  130.2840  123.1160   61.0690 O   0  0  0  0  0  0  0  0  0  0  0  0
  129.6270  124.3730   61.2620 C   0  0  0  0  0  0  0  0  0  0  0  0
  128.3110  124.1400   62.0210 C   0  0  1  0  0  0  0  0  0  0  0  0
  127.9000  125.4040   62.5330 O   0  0  0  0  0  0  0  0  0  0  0  0
  126.6360  125.7740   62.0630 C   0  0  1  0  0  0  0  0  0  0  0  0
  126.5600  127.2150   61.9120 N   0  0  0  0  0  0  0  0  0  0  0  0
  126.3220  127.9400   60.7580 C   0  0  0  0  0  0  0  0  0  0  0  0
  126.3540  129.2420   60.8970 N   0  0  0  0  0  0  0  0  0  0  0  0
  126.6780  129.4220   62.2140 C   0  0  0  0  0  0  0  0  0  0  0  0
  126.8790  130.5830   62.9860 C   0  0  0  0  0  0  0  0  0  0  0  0
  126.7260  131.8390   62.3680 N   0  0  0  0  0  0  0  0  0  0  0  0
  125.6020  132.5740   62.1990 C   0  0  0  0  0  0  0  0  0  0  0  0
  124.4790  132.2210   62.5670 O   0  0  0  0  0  0  0  0  0  0  0  0
  125.7840  133.8930   61.4770 C   0  0  0  0  0  0  0  0  0  0  0  0
  124.7740  134.3620   60.6230 C   0  0  0  0  0  0  0  0  0  0  0  0
  124.9180  135.5740   59.9550 C   0  0  0  0  0  0  0  0  0  0  0  0
  126.0710  136.3300   60.1380 C   0  0  0  0  0  0  0  0  0  0  0  0
  127.0830  135.8850   60.9840 C   0  0  0  0  0  0  0  0  0  0  0  0
  126.9400  134.6710   61.6530 C   0  0  0  0  0  0  0  0  0  0  0  0
  127.2190  130.4590   64.3040 N   0  0  0  0  0  0  0  0  0  0  0  0
  127.3480  129.2040   64.8090 C   0  0  0  0  0  0  0  0  0  0  0  0
  127.1750  128.0220   64.1600 N   0  0  0  0  0  0  0  0  0  0  0  0
  126.8350  128.1760   62.8730 C   0  0  0  0  0  0  0  0  0  0  0  0
  126.4390  124.9810   60.7760 C   0  0  0  0  0  0  0  0  0  0  0  0
  127.1320  123.6820   61.1500 C   0  0  2  0  0  0  0  0  0  0  0  0
  126.2640  122.7960   61.8360 O   0  0  0  0  0  0  0  0  0  0  0  0
  132.1560  123.7310   59.6810 C   0  0  0  0  0  0  0  0  0  0  0  0
  131.5770  124.9480   59.2870 C   0  0  0  0  0  0  0  0  0  0  0  0
  131.9430  125.5560   58.0910 C   0  0  0  0  0  0  0  0  0  0  0  0
  132.8940  124.9520   57.2740 C   0  0  0  0  0  0  0  0  0  0  0  0
  133.4800  123.7450   57.6440 C   0  0  0  0  0  0  0  0  0  0  0  0
  133.1120  123.1370   58.8410 C   0  0  0  0  0  0  0  0  0  0  0  0
  132.1780  121.5710   60.8890 C   0  0  0  0  0  0  0  0  0  0  0  0
  133.4760  121.1900   61.2660 C   0  0  0  0  0  0  0  0  0  0  0  0
  133.8920  119.8680   61.1530 C   0  0  0  0  0  0  0  0  0  0  0  0
  133.0150  118.9100   60.6500 C   0  0  0  0  0  0  0  0  0  0  0  0
  131.7290  119.2680   60.2580 C   0  0  0  0  0  0  0  0  0  0  0  0
  131.3150  120.5910   60.3730 C   0  0  0  0  0  0  0  0  0  0  0  0
  131.4830  123.8450   63.4380 C   0  0  0  0  0  0  0  0  0  0  0  0
  131.9400  124.4990   64.5790 C   0  0  0  0  0  0  0  0  0  0  0  0
  1  2  1  0
  2  3  1  0
  3  4  2  0
  4  5  1  0
  5  6  2  0
  6  7  1  0
  7  8  1  0
  8  9  1  0
 10  9  1  6
 10 11  1  0
 11 12  1  0
 12 13  1  6
 13 14  1  0
 14 15  2  0
 15 16  1  0
 16 17  2  0
 17 18  1  0
 18 19  1  0
 19 20  2  0
 19 21  1  0
 21 22  2  0
 22 23  1  0
 23 24  2  0
 24 25  1  0
 25 26  2  0
 17 27  1  0
 27 28  2  0
 28 29  1  0
 29 30  2  0
 12 31  1  0
 31 32  1  0
 32 33  1  1
  7 34  1  0
 34 35  2  0
 35 36  1  0
 36 37  2  0
 37 38  1  0
 38 39  2  0
  7 40  1  0
 40 41  2  0
 41 42  1  0
 42 43  2  0
 43 44  1  0
 44 45  2  0
  6 46  1  0
 46 47  2  0
 47  3  1  0
 32 10  1  0
 39 34  1  0
 45 40  1  0
 30 13  1  0
 30 16  1  0
 26 21  1  0
M  END
>  <Binding energies>  (54) 
[-10.03]

>  <Ligand effiencies>  (54) 
[-0.2046938775510204]

>  <Interactions>  (54) 
["V-A:ALA:541:CB:4892, V-A:TYR:539:CE1:4875, V-A:TYR:539:CD1:4873, V-B:LEU:475:CD1:9229, V-A:GLU:543:CD:4908, V-A:TYR:539:C:4867, V-A:ASP:366:CG:3212, V-A:ARG:545:CD:4923, V-A:ARG:545:CG:4922, V-A:GLY:453:C:4041, H-A:TYR:484:OH:4347, V-A:ASP:366:CA:3209, V-A:ASP:366:CB:3211, V-A:TYR:484:CZ:4346, H-A:ARG:545:NH2:4928, H-A:ARG:545:NH1:4927, V-A:ARG:545:CZ:4926, H-A:GLY:454:N:4049, V-A:ILE:369:CB:3235, H-A:ARG:545:NE:4924, V-A:ILE:369:CG2:3236, V-B:TYR:539:CD2:9846, V-B:TYR:539:CE2:9848, V-A:LEU:475:CD1:4257, H-B:ALA:541:N:9863, H-B:ALA:541:O:9861, H-B:GLU:543:OE1:9881, V-B:TYR:539:CZ:9849, V-B:GLU:543:CD:9880, V-A:SER:385:C:3404, V-A:HIS:456:CE1:4069, V-A:GLY:453:CA:4043, H-B:ARG:545:NH2:9900, V-B:PRO:482:CB:9297, V-A:TYR:539:CB:4871, V-B:ILE:369:CG2:8208, V-B:PRO:482:CG:9298, V-B:ASP:366:CG:8184, V-B:LEU:373:CD1:8251, H-B:GLU:543:OE2:9882, V-A:SER:385:CA:3406, V-A:TYR:539:CG:4872, V-A:ASP:366:C:3207"]

$$$$
RR8_A_Rahimova_2017
     RDKit          3D

 42 46  0  0  0  0  0  0  0  0999 V2000
  127.9070  126.8860   68.6060 O   0  0  0  0  0  0  0  0  0  0  0  0
  129.1090  127.1420   68.7410 C   0  0  0  0  0  0  0  0  0  0  0  0
  129.6340  127.8540   69.7860 O   0  0  0  0  0  0  0  0  0  0  0  0
  129.0930  127.6340   71.0590 C   0  0  1  0  0  0  0  0  0  0  0  0
  129.0350  126.2710   71.3660 O   0  0  0  0  0  0  0  0  0  0  0  0
  129.3460  126.0220   72.7340 C   0  0  2  0  0  0  0  0  0  0  0  0
  128.1800  125.2440   73.3680 C   0  0  0  0  0  0  0  0  0  0  0  0
  127.8380  125.8570   74.6030 O   0  0  0  0  0  0  0  0  0  0  0  0
  126.4400  125.9070   74.8570 C   0  0  0  0  0  0  0  0  0  0  0  0
  126.0360  127.3240   75.2370 C   0  0  0  0  0  0  0  0  0  0  0  0
  127.0000  128.3340   75.2880 C   0  0  0  0  0  0  0  0  0  0  0  0
  126.6310  129.6330   75.6300 C   0  0  0  0  0  0  0  0  0  0  0  0
  125.2970  129.9190   75.9180 C   0  0  0  0  0  0  0  0  0  0  0  0
  124.3290  128.9190   75.8640 C   0  0  0  0  0  0  0  0  0  0  0  0
  124.6980  127.6200   75.5210 C   0  0  0  0  0  0  0  0  0  0  0  0
  129.5970  127.4210   73.3110 C   0  0  1  0  0  0  0  0  0  0  0  0
  130.6690  127.4560   74.2510 O   0  0  0  0  0  0  0  0  0  0  0  0
  130.8170  126.2960   75.0610 C   0  0  0  0  0  0  0  0  0  0  0  0
  132.2940  125.9850   75.2590 C   0  0  0  0  0  0  0  0  0  0  0  0
  132.6780  124.7420   75.7720 C   0  0  0  0  0  0  0  0  0  0  0  0
  134.0260  124.4540   75.9640 C   0  0  0  0  0  0  0  0  0  0  0  0
  134.9890  125.4100   75.6450 C   0  0  0  0  0  0  0  0  0  0  0  0
  134.6150  126.6530   75.1400 C   0  0  0  0  0  0  0  0  0  0  0  0
  133.2660  126.9420   74.9490 C   0  0  0  0  0  0  0  0  0  0  0  0
  130.0320  128.2270   72.1000 C   0  0  2  0  0  0  0  0  0  0  0  0
  129.8310  129.6200   72.3250 O   0  0  0  0  0  0  0  0  0  0  0  0
  128.5830  130.1420   71.8840 C   0  0  0  0  0  0  0  0  0  0  0  0
  128.1450  131.2780   72.7970 C   0  0  0  0  0  0  0  0  0  0  0  0
  129.0960  132.0120   73.5130 C   0  0  0  0  0  0  0  0  0  0  0  0
  128.6910  133.0570   74.3390 C   0  0  0  0  0  0  0  0  0  0  0  0
  127.3370  133.3680   74.4450 C   0  0  0  0  0  0  0  0  0  0  0  0
  126.3840  132.6460   73.7310 C   0  0  0  0  0  0  0  0  0  0  0  0
  126.7890  131.6000   72.9040 C   0  0  0  0  0  0  0  0  0  0  0  0
  130.1550  126.6850   67.7670 C   0  0  0  0  0  0  0  0  0  0  0  0
  131.4380  127.2540   67.7350 C   0  0  0  0  0  0  0  0  0  0  0  0
  132.3870  126.8090   66.8190 C   0  0  0  0  0  0  0  0  0  0  0  0
  132.0790  125.7880   65.9110 C   0  0  0  0  0  0  0  0  0  0  0  0
  133.0920  125.3140   64.9360 N   0  0  0  0  0  0  0  0  0  0  0  0
  134.2800  125.4790   65.1950 O   0  0  0  0  0  0  0  0  0  0  0  0
  132.7060  124.7720   63.9040 O   0  0  0  0  0  0  0  0  0  0  0  0
  130.7980  125.2230   65.9420 C   0  0  0  0  0  0  0  0  0  0  0  0
  129.8480  125.6660   66.8570 C   0  0  0  0  0  0  0  0  0  0  0  0
  1  2  2  0
  2  3  1  0
  4  3  1  6
  4  5  1  0
  5  6  1  0
  6  7  1  1
  7  8  1  0
  8  9  1  0
  9 10  1  0
 10 11  2  0
 11 12  1  0
 12 13  2  0
 13 14  1  0
 14 15  2  0
  6 16  1  0
 16 17  1  1
 17 18  1  0
 18 19  1  0
 19 20  2  0
 20 21  1  0
 21 22  2  0
 22 23  1  0
 23 24  2  0
 16 25  1  0
 25 26  1  1
 26 27  1  0
 27 28  1  0
 28 29  2  0
 29 30  1  0
 30 31  2  0
 31 32  1  0
 32 33  2  0
  2 34  1  0
 34 35  2  0
 35 36  1  0
 36 37  2  0
 37 38  1  0
 38 39  2  0
 38 40  1  0
 37 41  1  0
 41 42  2  0
 25  4  1  0
 33 28  1  0
 42 34  1  0
 15 10  1  0
 24 19  1  0
M  CHG  2  38   1  40  -1
M  END
>  <Binding energies>  (55) 
[-9.97]

>  <Ligand effiencies>  (55) 
[-0.2373809523809524]

>  <Interactions>  (55) 
["V-A:GLU:543:CD:4908, V-A:ARG:545:CD:4923, V-A:ARG:545:CG:4922, H-A:TYR:484:OH:4347, V-A:TYR:484:CZ:4346, H-A:ARG:545:NH2:4928, H-A:ARG:545:NH1:4927, V-A:ARG:545:CZ:4926, H-A:GLY:454:N:4049, H-A:ARG:545:NE:4924, V-B:GLU:543:CG:9879, V-A:TYR:484:CE2:4345, V-A:HIS:456:CE1:4069, V-B:HIS:456:CE1:9041, V-A:GLU:543:CB:4906, V-B:GLU:543:CB:9878, V-A:GLU:543:C:4902, V-B:TYR:484:CD2:9315, V-B:HIS:456:CG:9037, V-B:HIS:456:CD2:9039, H-A:LYS:547:NZ:4951, H-B:LYS:547:NZ:9923, V-A:HIS:456:CB:4064, V-A:HIS:456:CG:4065, V-A:LYS:471:CD:4218, V-B:ASP:473:CG:9211, V-B:HIS:456:C:9032, V-B:TYR:484:CB:9312, V-A:LYS:547:CE:4950, V-B:VAL:458:CG2:9058, V-B:HIS:456:CB:9036, V-B:TYR:484:CG:9313, V-A:VAL:458:CG2:4086, V-A:HIS:456:C:4060, V-A:LYS:547:CD:4949, V-A:HIS:456:CA:4062, V-B:GLY:544:CA:9886, V-B:LYS:547:CE:9922, V-B:GLY:544:C:9884, V-B:TYR:484:CD1:9314, V-B:LYS:547:CD:9921, V-B:ASP:473:CB:9210, V-A:VAL:457:C:4072"]

$$$$
RR8_B_Rahimova_2017
     RDKit          3D

 42 46  0  0  0  0  0  0  0  0999 V2000
  128.8690  126.9340   63.7140 O   0  0  0  0  0  0  0  0  0  0  0  0
  129.5460  125.9050   63.8060 C   0  0  0  0  0  0  0  0  0  0  0  0
  129.2830  124.7440   63.1320 O   0  0  0  0  0  0  0  0  0  0  0  0
  129.0090  123.5870   63.8830 C   0  0  2  0  0  0  0  0  0  0  0  0
  130.1510  123.1020   64.5300 O   0  0  0  0  0  0  0  0  0  0  0  0
  130.8380  122.1420   63.7280 C   0  0  2  0  0  0  0  0  0  0  0  0
  132.2820  122.6160   63.4830 C   0  0  0  0  0  0  0  0  0  0  0  0
  132.2660  123.7190   62.5860 O   0  0  0  0  0  0  0  0  0  0  0  0
  133.4420  123.8730   61.8060 C   0  0  0  0  0  0  0  0  0  0  0  0
  133.0540  124.0470   60.3450 C   0  0  0  0  0  0  0  0  0  0  0  0
  131.8530  124.6820   60.0170 C   0  0  0  0  0  0  0  0  0  0  0  0
  131.4810  124.8230   58.6820 C   0  0  0  0  0  0  0  0  0  0  0  0
  132.3130  124.3300   57.6800 C   0  0  0  0  0  0  0  0  0  0  0  0
  133.5150  123.7020   57.9990 C   0  0  0  0  0  0  0  0  0  0  0  0
  133.8860  123.5570   59.3330 C   0  0  0  0  0  0  0  0  0  0  0  0
  129.9670  122.0030   62.4740 C   0  0  1  0  0  0  0  0  0  0  0  0
  129.9920  120.6490   62.0130 O   0  0  0  0  0  0  0  0  0  0  0  0
  130.4840  120.4210   60.6900 C   0  0  0  0  0  0  0  0  0  0  0  0
  131.9360  119.9520   60.6860 C   0  0  0  0  0  0  0  0  0  0  0  0
  132.3070  118.8270   59.9450 C   0  0  0  0  0  0  0  0  0  0  0  0
  133.6380  118.4200   59.9180 C   0  0  0  0  0  0  0  0  0  0  0  0
  134.5930  119.1380   60.6350 C   0  0  0  0  0  0  0  0  0  0  0  0
  134.2300  120.2580   61.3800 C   0  0  0  0  0  0  0  0  0  0  0  0
  132.8980  120.6670   61.4050 C   0  0  0  0  0  0  0  0  0  0  0  0
  128.5900  122.4580   62.9430 C   0  0  2  0  0  0  0  0  0  0  0  0
  127.8060  122.8930   61.8350 O   0  0  0  0  0  0  0  0  0  0  0  0
  128.5360  123.2930   60.6860 C   0  0  0  0  0  0  0  0  0  0  0  0
  127.6070  123.2330   59.4860 C   0  0  0  0  0  0  0  0  0  0  0  0
  126.4070  123.9500   59.4870 C   0  0  0  0  0  0  0  0  0  0  0  0
  125.5530  123.8720   58.3890 C   0  0  0  0  0  0  0  0  0  0  0  0
  125.9000  123.0790   57.2980 C   0  0  0  0  0  0  0  0  0  0  0  0
  127.0960  122.3630   57.2910 C   0  0  0  0  0  0  0  0  0  0  0  0
  127.9500  122.4410   58.3870 C   0  0  0  0  0  0  0  0  0  0  0  0
  130.7380  125.7840   64.7120 C   0  0  0  0  0  0  0  0  0  0  0  0
  130.6020  125.6890   66.1050 C   0  0  0  0  0  0  0  0  0  0  0  0
  131.7240  125.5860   66.9190 C   0  0  0  0  0  0  0  0  0  0  0  0
  133.0100  125.5870   66.3650 C   0  0  0  0  0  0  0  0  0  0  0  0
  134.2070  125.5050   67.2380 N   0  0  0  0  0  0  0  0  0  0  0  0
  135.2660  125.1200   66.7500 O   0  0  0  0  0  0  0  0  0  0  0  0
  134.0970  125.8290   68.4190 O   0  0  0  0  0  0  0  0  0  0  0  0
  133.1450  125.6760   64.9740 C   0  0  0  0  0  0  0  0  0  0  0  0
  132.0230  125.7710   64.1570 C   0  0  0  0  0  0  0  0  0  0  0  0
  1  2  2  0
  2  3  1  0
  4  3  1  6
  4  5  1  0
  5  6  1  0
  6  7  1  6
  7  8  1  0
  8  9  1  0
  9 10  1  0
 10 11  2  0
 11 12  1  0
 12 13  2  0
 13 14  1  0
 14 15  2  0
  6 16  1  0
 16 17  1  1
 17 18  1  0
 18 19  1  0
 19 20  2  0
 20 21  1  0
 21 22  2  0
 22 23  1  0
 23 24  2  0
 16 25  1  0
 25 26  1  6
 26 27  1  0
 27 28  1  0
 28 29  2  0
 29 30  1  0
 30 31  2  0
 31 32  1  0
 32 33  2  0
  2 34  1  0
 34 35  2  0
 35 36  1  0
 36 37  2  0
 37 38  1  0
 38 39  2  0
 38 40  1  0
 37 41  1  0
 41 42  2  0
 25  4  1  0
 33 28  1  0
 42 34  1  0
 15 10  1  0
 24 19  1  0
M  CHG  2  38   1  40  -1
M  END
>  <Binding energies>  (56) 
[-9.64]

>  <Ligand effiencies>  (56) 
[-0.22952380952380955]

>  <Interactions>  (56) 
["V-A:ASP:366:CG:3212, V-A:ARG:545:CD:4923, V-A:ARG:545:CG:4922, H-A:TYR:484:OH:4347, V-A:GLY:454:CA:4048, V-A:ASP:366:CA:3209, V-A:ASP:366:CB:3211, V-A:TYR:484:CZ:4346, V-A:ILE:369:CD1:3238, V-A:ARG:545:CZ:4926, H-A:GLY:454:N:4049, V-A:ILE:369:CB:3235, H-A:ARG:545:NE:4924, V-A:ILE:369:CG2:3236, V-B:TYR:539:CD2:9846, V-B:TYR:539:CE2:9848, V-A:LEU:475:CD1:4257, H-B:ALA:541:N:9863, V-B:PRO:540:CA:9855, V-B:LEU:363:CD1:8160, V-B:GLU:543:CG:9879, V-B:TYR:539:CZ:9849, V-B:ALA:541:CB:9864, V-B:MET:535:CE:9807, V-B:PRO:540:N:9856, V-B:GLU:543:CD:9880, V-B:PRO:540:CB:9857, V-B:TYR:539:C:9839, V-A:SER:385:C:3404, V-A:TYR:484:CE2:4345, V-A:HIS:383:CD2:3391, V-A:HIS:456:CE1:4069, V-B:ALA:541:CA:9862, H-A:HIS:456:ND1:4066, V-A:SER:385:CA:3406, H-A:ILE:455:N:4054, V-A:SER:385:CB:3408, V-A:ILE:455:C:4051, V-A:ASP:366:C:3207"]

$$$$
RR9_Rahimova_2017
     RDKit          3D

 36 40  0  0  0  0  0  0  0  0999 V2000
  131.2100  127.3390   73.4060 C   0  0  0  0  0  0  0  0  0  0  0  0
  129.9470  127.7270   72.6310 C   0  0  0  0  0  0  0  0  0  0  0  0
  129.7450  126.7830   71.5830 O   0  0  0  0  0  0  0  0  0  0  0  0
  129.1860  127.2020   70.3910 C   0  0  0  0  0  0  0  0  0  0  0  0
  128.4060  126.2720   69.7070 C   0  0  0  0  0  0  0  0  0  0  0  0
  127.8050  126.6040   68.4970 C   0  0  0  0  0  0  0  0  0  0  0  0
  127.9690  127.8790   67.9350 C   0  0  0  0  0  0  0  0  0  0  0  0
  127.3280  128.2410   66.6280 C   0  0  0  0  0  0  0  0  0  0  0  0
  127.9210  127.9080   65.4000 C   0  0  0  0  0  0  0  0  0  0  0  0
  127.3090  128.2380   64.1780 C   0  0  0  0  0  0  0  0  0  0  0  0
  127.9440  127.7640   62.8980 C   0  0  0  0  0  0  0  0  0  0  0  0
  128.6320  128.5310   62.2240 O   0  0  0  0  0  0  0  0  0  0  0  0
  127.6840  126.4880   62.5530 N   0  0  0  0  0  0  0  0  0  0  0  0
  128.0770  125.8400   61.2970 C   0  0  0  0  0  0  0  0  0  0  0  0
  127.6860  124.3450   61.2390 C   0  0  0  0  0  0  0  0  0  0  0  0
  126.3230  124.0670   60.6150 C   0  0  0  0  0  0  0  0  0  0  0  0
  125.3000  123.5030   61.3840 C   0  0  0  0  0  0  0  0  0  0  0  0
  124.0460  123.2830   60.8210 C   0  0  0  0  0  0  0  0  0  0  0  0
  123.8200  123.6220   59.4890 C   0  0  0  0  0  0  0  0  0  0  0  0
  124.8350  124.1800   58.7140 C   0  0  0  0  0  0  0  0  0  0  0  0
  126.0900  124.4020   59.2780 C   0  0  0  0  0  0  0  0  0  0  0  0
  126.0880  128.9500   64.2600 C   0  0  0  0  0  0  0  0  0  0  0  0
  125.1110  129.5390   63.3730 C   0  0  0  0  0  0  0  0  0  0  0  0
  125.1290  129.6550   61.8850 C   0  0  0  0  0  0  0  0  0  0  0  0
  125.7230  128.6550   61.1080 C   0  0  0  0  0  0  0  0  0  0  0  0
  125.7530  128.7730   59.7210 C   0  0  0  0  0  0  0  0  0  0  0  0
  125.1850  129.8900   59.1050 C   0  0  0  0  0  0  0  0  0  0  0  0
  125.2340  130.0280   57.5940 C   0  0  0  0  0  0  0  0  0  0  0  0
  124.5930  130.8900   59.8770 C   0  0  0  0  0  0  0  0  0  0  0  0
  124.5620  130.7700   61.2630 C   0  0  0  0  0  0  0  0  0  0  0  0
  124.1080  130.0400   64.0600 N   0  0  0  0  0  0  0  0  0  0  0  0
  124.3770  129.8750   65.3650 N   0  0  0  0  0  0  0  0  0  0  0  0
  125.5760  129.2270   65.5500 C   0  0  0  0  0  0  0  0  0  0  0  0
  126.1440  128.9090   66.7120 N   0  0  0  0  0  0  0  0  0  0  0  0
  128.7570  128.8080   68.6280 C   0  0  0  0  0  0  0  0  0  0  0  0
  129.3590  128.4790   69.8410 C   0  0  0  0  0  0  0  0  0  0  0  0
  1  2  1  0
  2  3  1  0
  3  4  1  0
  4  5  2  0
  5  6  1  0
  6  7  2  0
  7  8  1  0
  8  9  2  0
  9 10  1  0
 10 11  1  0
 11 12  2  0
 11 13  1  0
 13 14  1  0
 14 15  1  0
 15 16  1  0
 16 17  2  0
 17 18  1  0
 18 19  2  0
 19 20  1  0
 20 21  2  0
 10 22  2  0
 22 23  1  0
 23 24  1  0
 24 25  2  0
 25 26  1  0
 26 27  2  0
 27 28  1  0
 27 29  1  0
 29 30  2  0
 23 31  2  0
 31 32  1  0
 32 33  1  0
 33 34  2  0
  7 35  1  0
 35 36  2  0
 36  4  1  0
 34  8  1  0
 21 16  1  0
 33 22  1  0
 30 24  1  0
M  END
>  <Binding energies>  (57) 
[-8.62]

>  <Ligand effiencies>  (57) 
[-0.22684210526315787]

>  <Interactions>  (57) 
["V-A:TYR:539:CE1:4875, V-A:GLU:543:CD:4908, V-B:PRO:540:CA:9855, V-B:LEU:363:CD1:8160, H-B:GLU:543:OE1:9881, V-B:GLU:543:CD:9880, V-B:PRO:540:CB:9857, V-A:HIS:456:CE1:4069, V-B:HIS:456:CE1:9041, V-A:GLU:543:CB:4906, V-B:GLU:543:C:9874, H-A:HIS:456:ND1:4066, V-B:GLU:543:CB:9878, H-B:TYR:484:OH:9319, H-B:ARG:545:NH2:9900, H-B:GLY:454:N:9021, V-B:GLY:454:CA:9020, V-B:ILE:369:CG2:8208, V-B:ILE:369:CD1:8210, H-B:ARG:545:NH1:9899, V-B:ASP:366:CG:8184, V-B:ASP:366:CB:8183, H-B:GLU:543:OE2:9882, V-A:GLU:543:C:4902, V-B:ARG:545:CZ:9898, V-B:LEU:363:CA:8156, V-B:LEU:363:CB:8158, V-A:HIS:456:CG:4065, V-A:LYS:547:CE:4950, V-B:ASN:362:CB:8147, V-B:ASN:362:C:8143, V-A:TYR:539:CZ:4877"]

$$$$
