1a_Grossjean_2025
     RDKit          3D

 26 27  0  0  0  0  0  0  0  0999 V2000
  129.4410  124.2460   72.3980 C   0  0  0  0  0  0  0  0  0  0  0  0
  129.5390  125.3970   71.3930 C   0  0  0  0  0  0  0  0  0  0  0  0
  128.5200  126.3510   71.6640 O   0  0  0  0  0  0  0  0  0  0  0  0
  128.1340  127.2500   70.7210 C   0  0  0  0  0  0  0  0  0  0  0  0
  127.2410  128.0830   70.9030 O   0  0  0  0  0  0  0  0  0  0  0  0
  128.8890  127.1180   69.4310 C   0  0  0  0  0  0  0  0  0  0  0  0
  128.3790  126.2910   68.4210 C   0  0  0  0  0  0  0  0  0  0  0  0
  129.0590  126.1450   67.2150 C   0  0  0  0  0  0  0  0  0  0  0  0
  130.2600  126.8190   66.9930 C   0  0  0  0  0  0  0  0  0  0  0  0
  130.8620  126.5950   65.7390 N   0  0  0  0  0  0  0  0  0  0  0  0
  131.9270  125.8340   65.4120 C   0  0  0  0  0  0  0  0  0  0  0  0
  132.5950  125.1610   66.1980 O   0  0  0  0  0  0  0  0  0  0  0  0
  132.3020  125.8350   63.9280 C   0  0  0  0  0  0  0  0  0  0  0  0
  133.5320  124.5560   63.5310 S   0  0  0  0  0  0  0  0  0  0  0  0
  132.8790  123.5850   62.1910 C   0  0  0  0  0  0  0  0  0  0  0  0
  133.5490  123.7440   61.0220 N   0  0  0  0  0  0  0  0  0  0  0  0
  133.1320  123.0550   59.9340 C   0  0  0  0  0  0  0  0  0  0  0  0
  133.9220  123.2930   58.6600 C   0  0  0  0  0  0  0  0  0  0  0  0
  132.0490  122.1800   59.9670 C   0  0  0  0  0  0  0  0  0  0  0  0
  131.3640  121.9920   61.1730 C   0  0  0  0  0  0  0  0  0  0  0  0
  130.1890  121.0160   61.1900 C   0  0  0  0  0  0  0  0  0  0  0  0
  131.7830  122.6990   62.3240 C   0  0  0  0  0  0  0  0  0  0  0  0
  131.1120  122.4820   63.6080 C   0  0  0  0  0  0  0  0  0  0  0  0
  130.5810  122.3090   64.6210 N   0  0  0  0  0  0  0  0  0  0  0  0
  130.7740  127.6560   67.9950 C   0  0  0  0  0  0  0  0  0  0  0  0
  130.0940  127.8010   69.2010 C   0  0  0  0  0  0  0  0  0  0  0  0
  1  2  1  0
  2  3  1  0
  3  4  1  0
  4  5  2  0
  4  6  1  0
  6  7  2  0
  7  8  1  0
  8  9  2  0
  9 10  1  0
 10 11  1  0
 11 12  2  0
 11 13  1  0
 13 14  1  0
 14 15  1  0
 15 16  2  0
 16 17  1  0
 17 18  1  0
 17 19  2  0
 19 20  1  0
 20 21  1  0
 20 22  2  0
 22 23  1  0
 23 24  3  0
  9 25  1  0
 25 26  2  0
 26  6  1  0
 22 15  1  0
M  END
>  <Binding energies>  (1) 
[-7.18]

>  <Ligand effiencies>  (1) 
[-0.2659259259259259]

>  <Interactions>  (1) 
["H-A:GLU:543:OE1:4904, V-A:GLU:543:CD:4903, V-A:ASP:366:CG:3208, V-A:HIS:456:CE1:4064, V-A:ARG:545:CZ:4921, V-A:GLU:543:CB:4901, V-B:GLU:543:CG:9875, H-A:GLU:543:OE2:4905, V-B:GLU:543:CB:9874, V-A:ILE:369:CD1:3234, V-B:TYR:539:CE2:9844, V-B:ALA:541:CB:9860, V-A:LEU:475:CD2:4254, H-B:LYS:547:NZ:9919, V-B:GLU:543:C:9870, H-A:HIS:456:NE2:4065, H-A:TYR:484:OH:4343, H-A:GLY:454:N:4045, V-A:ASP:366:CB:3207, V-B:GLU:543:CA:9872, V-A:ASP:366:CA:3205, V-A:ILE:369:CB:3231, V-A:ILE:369:CG2:3232, V-A:ILE:369:CG1:3233, H-B:HIS:456:ND1:9034"]

$$$$
1aa_Ghoteimi_2023
     RDKit          3D

 40 43  0  0  0  0  0  0  0  0999 V2000
  130.7340  132.2940   57.3950 C   0  0  0  0  0  0  0  0  0  0  0  0
  131.5260  131.0520   57.8160 C   0  0  0  0  0  0  0  0  0  0  0  0
  132.6890  131.4520   58.5310 O   0  0  0  0  0  0  0  0  0  0  0  0
  133.0090  130.8840   59.7220 C   0  0  0  0  0  0  0  0  0  0  0  0
  134.1500  130.5120   60.0130 O   0  0  0  0  0  0  0  0  0  0  0  0
  131.8370  130.7530   60.6510 C   0  0  0  0  0  0  0  0  0  0  0  0
  131.3250  131.8500   61.3600 C   0  0  0  0  0  0  0  0  0  0  0  0
  130.2360  131.6980   62.2150 C   0  0  0  0  0  0  0  0  0  0  0  0
  129.6360  130.4400   62.3740 C   0  0  0  0  0  0  0  0  0  0  0  0
  128.5360  130.1670   63.2080 N   0  0  0  0  0  0  0  0  0  0  0  0
  128.1470  130.7510   64.3650 C   0  0  0  0  0  0  0  0  0  0  0  0
  128.7310  131.6850   64.9120 O   0  0  0  0  0  0  0  0  0  0  0  0
  126.8790  130.2020   65.0390 C   0  0  0  0  0  0  0  0  0  0  0  0
  126.9580  128.7760   65.1710 O   0  0  0  0  0  0  0  0  0  0  0  0
  128.0100  128.1930   65.8630 C   0  0  0  0  0  0  0  0  0  0  0  0
  128.0820  128.3950   67.2080 N   0  0  0  0  0  0  0  0  0  0  0  0
  129.1050  127.8520   67.9190 C   0  0  0  0  0  0  0  0  0  0  0  0
  129.1120  128.1190   69.3970 C   0  0  0  0  0  0  0  0  0  0  0  0
  128.0330  127.7310   70.2050 C   0  0  0  0  0  0  0  0  0  0  0  0
  128.0350  127.9790   71.5750 C   0  0  0  0  0  0  0  0  0  0  0  0
  129.1140  128.6190   72.1790 C   0  0  0  0  0  0  0  0  0  0  0  0
  129.0290  128.8240   73.5430 O   0  0  0  0  0  0  0  0  0  0  0  0
  128.2310  129.8950   74.0360 C   0  0  0  0  0  0  0  0  0  0  0  0
  130.2020  129.0080   71.3860 C   0  0  0  0  0  0  0  0  0  0  0  0
  130.1980  128.7580   70.0170 C   0  0  0  0  0  0  0  0  0  0  0  0
  130.0780  127.0700   67.2850 C   0  0  0  0  0  0  0  0  0  0  0  0
  130.0210  126.8380   65.9040 C   0  0  0  0  0  0  0  0  0  0  0  0
  131.0830  125.9860   65.2900 C   0  0  0  0  0  0  0  0  0  0  0  0
  130.7570  125.0770   64.2780 C   0  0  0  0  0  0  0  0  0  0  0  0
  131.7420  124.2860   63.6940 C   0  0  0  0  0  0  0  0  0  0  0  0
  133.0720  124.3910   64.1020 C   0  0  0  0  0  0  0  0  0  0  0  0
  133.9800  123.5670   63.4660 O   0  0  0  0  0  0  0  0  0  0  0  0
  134.0790  123.6070   62.0470 C   0  0  0  0  0  0  0  0  0  0  0  0
  133.4040  125.3070   65.1110 C   0  0  0  0  0  0  0  0  0  0  0  0
  132.4170  126.0970   65.6950 C   0  0  0  0  0  0  0  0  0  0  0  0
  128.9620  127.4240   65.1730 C   0  0  0  0  0  0  0  0  0  0  0  0
  128.8450  127.2740   63.7220 C   0  0  0  0  0  0  0  0  0  0  0  0
  128.7500  127.1560   62.5740 N   0  0  0  0  0  0  0  0  0  0  0  0
  130.1440  129.3460   61.6710 C   0  0  0  0  0  0  0  0  0  0  0  0
  131.2330  129.5000   60.8180 C   0  0  0  0  0  0  0  0  0  0  0  0
  1  2  1  0
  2  3  1  0
  3  4  1  0
  4  5  2  0
  4  6  1  0
  6  7  2  0
  7  8  1  0
  8  9  2  0
  9 10  1  0
 10 11  1  0
 11 12  2  0
 11 13  1  0
 13 14  1  0
 14 15  1  0
 15 16  2  0
 16 17  1  0
 17 18  1  0
 18 19  2  0
 19 20  1  0
 20 21  2  0
 21 22  1  0
 22 23  1  0
 21 24  1  0
 24 25  2  0
 17 26  2  0
 26 27  1  0
 27 28  1  0
 28 29  2  0
 29 30  1  0
 30 31  2  0
 31 32  1  0
 32 33  1  0
 31 34  1  0
 34 35  2  0
 27 36  2  0
 36 37  1  0
 37 38  3  0
  9 39  1  0
 39 40  2  0
 40  6  1  0
 36 15  1  0
 25 18  1  0
 35 28  1  0
M  END
>  <Binding energies>  (2) 
[-7.99]

>  <Ligand effiencies>  (2) 
[-0.1948780487804878]

>  <Interactions>  (2) 
["V-A:GLU:543:CD:4903, V-A:ASP:366:CG:3208, V-A:HIS:456:CE1:4064, V-A:ARG:545:CZ:4921, V-B:HIS:456:CD2:9035, V-A:ILE:369:CD1:3234, H-A:ARG:545:NH2:4923, V-B:HIS:456:CE1:9037, V-B:GLU:543:CD:9876, V-A:PRO:540:CA:4878, V-A:PRO:540:N:4879, V-A:PRO:540:CB:4880, V-A:PRO:540:C:4876, V-A:GLU:543:CG:4902, H-B:LYS:547:NZ:9919, H-B:TYR:484:OH:9315, H-A:TYR:484:OH:4343, V-A:ARG:545:CD:4918, H-A:GLY:454:N:4045, V-B:TYR:484:CZ:9314, H-A:LYS:547:NZ:4946, V-A:GLU:543:C:4897, V-A:GLY:544:C:4907, H-A:LEU:363:N:3181, V-A:PRO:540:CD:4882"]

$$$$
1b_Grossjean_2025
     RDKit          3D

 25 26  0  0  0  0  0  0  0  0999 V2000
  126.4670  126.9740   69.5040 C   0  0  0  0  0  0  0  0  0  0  0  0
  127.2700  127.1740   70.6600 O   0  0  0  0  0  0  0  0  0  0  0  0
  128.5320  126.6780   70.7270 C   0  0  0  0  0  0  0  0  0  0  0  0
  129.0700  126.3270   71.7820 O   0  0  0  0  0  0  0  0  0  0  0  0
  129.2070  126.5910   69.3880 C   0  0  0  0  0  0  0  0  0  0  0  0
  129.4840  125.3590   68.7750 C   0  0  0  0  0  0  0  0  0  0  0  0
  130.1120  125.3130   67.5350 C   0  0  0  0  0  0  0  0  0  0  0  0
  130.4760  126.4900   66.8810 C   0  0  0  0  0  0  0  0  0  0  0  0
  131.1070  126.3230   65.6330 N   0  0  0  0  0  0  0  0  0  0  0  0
  132.2550  125.6860   65.3160 C   0  0  0  0  0  0  0  0  0  0  0  0
  132.9900  125.1000   66.1090 O   0  0  0  0  0  0  0  0  0  0  0  0
  132.6290  125.7090   63.8330 C   0  0  0  0  0  0  0  0  0  0  0  0
  133.7680  124.3620   63.3920 S   0  0  0  0  0  0  0  0  0  0  0  0
  133.0110  123.4390   62.0710 C   0  0  0  0  0  0  0  0  0  0  0  0
  133.6170  123.6080   60.8690 N   0  0  0  0  0  0  0  0  0  0  0  0
  133.1240  122.9500   59.7940 C   0  0  0  0  0  0  0  0  0  0  0  0
  133.8610  123.1760   58.4870 C   0  0  0  0  0  0  0  0  0  0  0  0
  132.0120  122.1140   59.8690 C   0  0  0  0  0  0  0  0  0  0  0  0
  131.3670  121.9510   61.0990 C   0  0  0  0  0  0  0  0  0  0  0  0
  130.1400  121.0430   61.1540 C   0  0  0  0  0  0  0  0  0  0  0  0
  131.8640  122.6280   62.2360 C   0  0  0  0  0  0  0  0  0  0  0  0
  131.1790  122.5070   63.5260 C   0  0  0  0  0  0  0  0  0  0  0  0
  130.6360  122.4090   64.5420 N   0  0  0  0  0  0  0  0  0  0  0  0
  130.2030  127.7260   67.4870 C   0  0  0  0  0  0  0  0  0  0  0  0
  129.5740  127.7710   68.7280 C   0  0  0  0  0  0  0  0  0  0  0  0
  1  2  1  0
  2  3  1  0
  3  4  2  0
  3  5  1  0
  5  6  2  0
  6  7  1  0
  7  8  2  0
  8  9  1  0
  9 10  1  0
 10 11  2  0
 10 12  1  0
 12 13  1  0
 13 14  1  0
 14 15  2  0
 15 16  1  0
 16 17  1  0
 16 18  2  0
 18 19  1  0
 19 20  1  0
 19 21  2  0
 21 22  1  0
 22 23  3  0
  8 24  1  0
 24 25  2  0
 25  5  1  0
 21 14  1  0
M  END
>  <Binding energies>  (3) 
[-7.5]

>  <Ligand effiencies>  (3) 
[-0.28846153846153844]

>  <Interactions>  (3) 
["H-A:GLU:543:OE1:4904, V-A:GLU:543:CD:4903, V-A:HIS:456:CE1:4064, V-A:ARG:545:CZ:4921, V-A:GLU:543:CB:4901, V-B:GLU:543:CB:9874, V-A:ILE:369:CD1:3234, V-B:HIS:456:CE1:9037, V-B:TYR:539:CE2:9844, V-B:ALA:541:CB:9860, V-A:LEU:475:CD2:4254, V-B:ARG:545:CG:9890, H-B:LYS:547:NZ:9919, V-B:GLY:544:C:9880, V-B:GLU:543:C:9870, H-A:HIS:456:NE2:4065, H-A:TYR:484:OH:4343, H-A:GLY:454:N:4045, V-A:ASP:366:CB:3207, V-B:GLU:543:CA:9872, V-A:ASP:366:CA:3205, V-A:ILE:369:CB:3231, V-A:ILE:369:CG2:3232, V-A:ILE:369:CG1:3233, V-B:ARG:545:CA:9887"]

$$$$
1c_Grossjean_2025
     RDKit          3D

 23 24  0  0  0  0  0  0  0  0999 V2000
  135.1350  124.8910   66.7700 C   0  0  0  0  0  0  0  0  0  0  0  0
  134.8320  125.4640   65.5030 O   0  0  0  0  0  0  0  0  0  0  0  0
  133.6610  125.1040   64.8640 C   0  0  0  0  0  0  0  0  0  0  0  0
  132.4710  125.4670   65.4940 C   0  0  0  0  0  0  0  0  0  0  0  0
  131.2400  125.1510   64.9280 C   0  0  0  0  0  0  0  0  0  0  0  0
  131.1860  124.4650   63.7050 C   0  0  0  0  0  0  0  0  0  0  0  0
  129.9980  124.0860   63.0500 N   0  0  0  0  0  0  0  0  0  0  0  0
  129.5250  122.8510   62.7790 C   0  0  0  0  0  0  0  0  0  0  0  0
  130.0710  121.7930   63.0900 O   0  0  0  0  0  0  0  0  0  0  0  0
  128.1920  122.8100   62.0280 C   0  0  0  0  0  0  0  0  0  0  0  0
  128.4170  122.3920   60.2740 S   0  0  0  0  0  0  0  0  0  0  0  0
  130.1620  122.2410   59.9500 C   0  0  0  0  0  0  0  0  0  0  0  0
  130.6980  123.3380   59.3570 N   0  0  0  0  0  0  0  0  0  0  0  0
  132.0190  123.3390   59.0620 C   0  0  0  0  0  0  0  0  0  0  0  0
  132.5470  124.6030   58.4110 C   0  0  0  0  0  0  0  0  0  0  0  0
  132.8500  122.2550   59.3320 C   0  0  0  0  0  0  0  0  0  0  0  0
  132.3040  121.1100   59.9200 C   0  0  0  0  0  0  0  0  0  0  0  0
  133.2320  119.9270   60.1910 C   0  0  0  0  0  0  0  0  0  0  0  0
  130.9250  121.0850   60.2360 C   0  0  0  0  0  0  0  0  0  0  0  0
  130.3240  119.8740   60.8020 C   0  0  0  0  0  0  0  0  0  0  0  0
  129.8510  118.9180   61.2490 N   0  0  0  0  0  0  0  0  0  0  0  0
  132.3750  124.0900   63.0760 C   0  0  0  0  0  0  0  0  0  0  0  0
  133.6040  124.4080   63.6470 C   0  0  0  0  0  0  0  0  0  0  0  0
  1  2  1  0
  2  3  1  0
  3  4  2  0
  4  5  1  0
  5  6  2  0
  6  7  1  0
  7  8  1  0
  8  9  2  0
  8 10  1  0
 10 11  1  0
 11 12  1  0
 12 13  2  0
 13 14  1  0
 14 15  1  0
 14 16  2  0
 16 17  1  0
 17 18  1  0
 17 19  2  0
 19 20  1  0
 20 21  3  0
  6 22  1  0
 22 23  2  0
 23  3  1  0
 19 12  1  0
M  END
>  <Binding energies>  (4) 
[-6.82]

>  <Ligand effiencies>  (4) 
[-0.2841666666666667]

>  <Interactions>  (4) 
["V-A:ASP:366:CG:3208, V-A:ARG:545:CZ:4921, V-B:GLU:543:CG:9875, V-A:ILE:369:CD1:3234, V-B:GLU:543:CD:9876, V-B:TYR:539:CE2:9844, V-B:ALA:541:CB:9860, V-A:TRP:381:CZ2:3365, V-B:TYR:539:CD2:9842, V-A:TRP:381:CH2:3367, V-A:LEU:475:CD2:4254, V-A:GLY:454:CA:4044, H-B:ALA:541:N:9859, H-B:GLU:543:OE2:9878, V-A:GLY:453:C:4037, V-B:ALA:541:CA:9858, V-A:GLY:453:CA:4039, V-A:ARG:545:CD:4918, H-A:GLY:454:N:4045, V-A:HIS:456:CD2:4063, V-A:ASP:366:CB:3207, V-A:ARG:545:CG:4917, V-A:ILE:369:CG2:3232, H-A:ARG:545:NE:4919, H-A:ARG:545:NH1:4922, V-A:ILE:455:C:4047"]

$$$$
1d_Grossjean_2025
     RDKit          3D

 21 22  0  0  0  0  0  0  0  0999 V2000
  132.8350  124.6280   59.0400 C   0  0  0  0  0  0  0  0  0  0  0  0
  132.3140  123.3070   59.5690 C   0  0  0  0  0  0  0  0  0  0  0  0
  133.1580  122.2170   59.7700 C   0  0  0  0  0  0  0  0  0  0  0  0
  132.6230  121.0250   60.2700 C   0  0  0  0  0  0  0  0  0  0  0  0
  133.5710  119.8490   60.4970 C   0  0  0  0  0  0  0  0  0  0  0  0
  131.2390  120.9520   60.5510 C   0  0  0  0  0  0  0  0  0  0  0  0
  130.6650  119.7310   61.1200 C   0  0  0  0  0  0  0  0  0  0  0  0
  130.2150  118.7640   61.5710 N   0  0  0  0  0  0  0  0  0  0  0  0
  130.4530  122.1000   60.2940 C   0  0  0  0  0  0  0  0  0  0  0  0
  128.7000  122.1860   60.5860 S   0  0  0  0  0  0  0  0  0  0  0  0
  128.4620  122.5270   62.3570 C   0  0  0  0  0  0  0  0  0  0  0  0
  129.7890  122.7440   63.0860 C   0  0  0  0  0  0  0  0  0  0  0  0
  130.5210  121.7780   63.3000 O   0  0  0  0  0  0  0  0  0  0  0  0
  130.0610  124.0240   63.4210 N   0  0  0  0  0  0  0  0  0  0  0  0
  131.1690  124.5610   64.1030 C   0  0  0  0  0  0  0  0  0  0  0  0
  130.8850  125.1930   65.3170 C   0  0  0  0  0  0  0  0  0  0  0  0
  131.9090  125.7530   66.0750 C   0  0  0  0  0  0  0  0  0  0  0  0
  133.2240  125.6770   65.6220 C   0  0  0  0  0  0  0  0  0  0  0  0
  133.5220  125.0420   64.4180 C   0  0  0  0  0  0  0  0  0  0  0  0
  132.5000  124.4820   63.6580 C   0  0  0  0  0  0  0  0  0  0  0  0
  130.9860  123.2590   59.8280 N   0  0  0  0  0  0  0  0  0  0  0  0
  1  2  1  0
  2  3  2  0
  3  4  1  0
  4  5  1  0
  4  6  2  0
  6  7  1  0
  7  8  3  0
  6  9  1  0
  9 10  1  0
 10 11  1  0
 11 12  1  0
 12 13  2  0
 12 14  1  0
 14 15  1  0
 15 16  2  0
 16 17  1  0
 17 18  2  0
 18 19  1  0
 19 20  2  0
  9 21  2  0
 21  2  1  0
 20 15  1  0
M  END
>  <Binding energies>  (5) 
[-6.36]

>  <Ligand effiencies>  (5) 
[-0.2890909090909091]

>  <Interactions>  (5) 
["V-A:ASP:366:CG:3208, V-A:ARG:545:CZ:4921, V-B:GLU:543:CG:9875, V-A:ILE:369:CD1:3234, V-B:GLU:543:CD:9876, V-B:TYR:539:CE2:9844, V-B:ALA:541:CB:9860, V-A:TRP:381:CZ2:3365, V-B:TYR:539:CD2:9842, V-A:TRP:381:CH2:3367, V-A:LEU:475:CD2:4254, H-B:ALA:541:N:9859, H-B:GLU:543:OE2:9878, V-B:ALA:541:CA:9858, V-A:ARG:545:CD:4918, V-A:ASP:366:CB:3207, V-A:ARG:545:CG:4917, V-A:ILE:369:CG2:3232"]

$$$$
1e_Grossjean_2025
     RDKit          3D

 22 23  0  0  0  0  0  0  0  0999 V2000
  135.1120  125.0640   66.7900 C   0  0  0  0  0  0  0  0  0  0  0  0
  134.0000  125.2330   65.7720 C   0  0  0  0  0  0  0  0  0  0  0  0
  132.7380  125.7060   66.1390 C   0  0  0  0  0  0  0  0  0  0  0  0
  131.7640  125.8340   65.1490 C   0  0  0  0  0  0  0  0  0  0  0  0
  132.0690  125.4880   63.8310 C   0  0  0  0  0  0  0  0  0  0  0  0
  133.3550  125.0260   63.5300 C   0  0  0  0  0  0  0  0  0  0  0  0
  133.6000  124.6820   62.1880 N   0  0  0  0  0  0  0  0  0  0  0  0
  133.2420  123.5590   61.5290 C   0  0  0  0  0  0  0  0  0  0  0  0
  132.6270  122.6140   62.0260 O   0  0  0  0  0  0  0  0  0  0  0  0
  133.6760  123.4800   60.0640 C   0  0  0  0  0  0  0  0  0  0  0  0
  132.2550  123.3150   58.9410 S   0  0  0  0  0  0  0  0  0  0  0  0
  131.0020  122.3370   59.7470 C   0  0  0  0  0  0  0  0  0  0  0  0
  129.8240  122.9920   59.9030 N   0  0  0  0  0  0  0  0  0  0  0  0
  128.7950  122.3510   60.5050 C   0  0  0  0  0  0  0  0  0  0  0  0
  127.5090  123.1440   60.6370 C   0  0  0  0  0  0  0  0  0  0  0  0
  128.9000  121.0470   60.9840 C   0  0  0  0  0  0  0  0  0  0  0  0
  130.1160  120.3700   60.8510 C   0  0  0  0  0  0  0  0  0  0  0  0
  130.2110  118.9480   61.4010 C   0  0  0  0  0  0  0  0  0  0  0  0
  131.2060  121.0210   60.2280 C   0  0  0  0  0  0  0  0  0  0  0  0
  132.5030  120.3480   60.1340 C   0  0  0  0  0  0  0  0  0  0  0  0
  133.5280  119.8140   60.0600 N   0  0  0  0  0  0  0  0  0  0  0  0
  134.3130  124.8940   64.4950 N   0  0  0  0  0  0  0  0  0  0  0  0
  1  2  1  0
  2  3  2  0
  3  4  1  0
  4  5  2  0
  5  6  1  0
  6  7  1  0
  7  8  1  0
  8  9  2  0
  8 10  1  0
 10 11  1  0
 11 12  1  0
 12 13  2  0
 13 14  1  0
 14 15  1  0
 14 16  2  0
 16 17  1  0
 17 18  1  0
 17 19  2  0
 19 20  1  0
 20 21  3  0
  6 22  2  0
 22  2  1  0
 19 12  1  0
M  END
>  <Binding energies>  (6) 
[-7.43]

>  <Ligand effiencies>  (6) 
[-0.32304347826086954]

>  <Interactions>  (6) 
["V-A:ASP:366:CG:3208, V-A:HIS:456:CE1:4064, V-A:ARG:545:CZ:4921, V-A:ILE:369:CD1:3234, V-B:TYR:539:CE2:9844, V-B:ALA:541:CB:9860, V-A:TRP:381:CZ2:3365, V-A:LEU:475:CD1:4253, V-B:TYR:539:CD2:9842, V-A:TRP:381:CH2:3367, V-A:LEU:475:CD2:4254, V-A:PRO:482:CB:4321, V-B:TYR:539:C:9835, V-B:PRO:540:CA:9851, V-B:PRO:540:C:9849, H-A:TYR:484:OH:4343, V-A:GLY:453:C:4037, V-B:ALA:541:CA:9858, V-A:GLY:453:CA:4039, V-A:ARG:545:CD:4918, H-A:GLY:454:N:4045, V-A:HIS:456:CD2:4063, V-A:ASP:366:CB:3207, V-A:ARG:545:CG:4917, H-A:ASP:366:OD2:3210, V-A:ILE:369:CG2:3232, H-A:ARG:545:NE:4919, H-A:ARG:545:NH1:4922, H-A:ASP:366:OD1:3209, V-A:ILE:455:C:4047, V-A:ARG:545:CB:4916"]

$$$$
1f_Grossjean_2025
     RDKit          3D

 21 22  0  0  0  0  0  0  0  0999 V2000
  132.7320  124.3770   58.4620 C   0  0  0  0  0  0  0  0  0  0  0  0
  132.2530  123.1360   59.1900 C   0  0  0  0  0  0  0  0  0  0  0  0
  133.1220  122.0950   59.5080 C   0  0  0  0  0  0  0  0  0  0  0  0
  132.6200  120.9700   60.1700 C   0  0  0  0  0  0  0  0  0  0  0  0
  133.5890  119.8330   60.4900 C   0  0  0  0  0  0  0  0  0  0  0  0
  131.2480  120.9200   60.5080 C   0  0  0  0  0  0  0  0  0  0  0  0
  130.6940  119.7260   61.1510 C   0  0  0  0  0  0  0  0  0  0  0  0
  130.2570  118.7820   61.6590 N   0  0  0  0  0  0  0  0  0  0  0  0
  130.4450  122.0350   60.1720 C   0  0  0  0  0  0  0  0  0  0  0  0
  128.7010  122.1520   60.5160 S   0  0  0  0  0  0  0  0  0  0  0  0
  128.4900  122.6220   62.2670 C   0  0  0  0  0  0  0  0  0  0  0  0
  129.7950  122.7390   63.0670 C   0  0  0  0  0  0  0  0  0  0  0  0
  130.4340  121.7300   63.3700 O   0  0  0  0  0  0  0  0  0  0  0  0
  130.1340  124.0000   63.4080 N   0  0  0  0  0  0  0  0  0  0  0  0
  131.2530  124.4680   64.1240 C   0  0  0  0  0  0  0  0  0  0  0  0
  131.2120  125.3340   65.2330 C   0  0  0  0  0  0  0  0  0  0  0  0
  132.4040  125.7170   65.8540 C   0  0  0  0  0  0  0  0  0  0  0  0
  133.6080  125.2230   65.3530 C   0  0  0  0  0  0  0  0  0  0  0  0
  133.6740  124.3840   64.2890 N   0  0  0  0  0  0  0  0  0  0  0  0
  132.5080  124.0200   63.6960 C   0  0  0  0  0  0  0  0  0  0  0  0
  130.9370  123.1110   59.5080 N   0  0  0  0  0  0  0  0  0  0  0  0
  1  2  1  0
  2  3  2  0
  3  4  1  0
  4  5  1  0
  4  6  2  0
  6  7  1  0
  7  8  3  0
  6  9  1  0
  9 10  1  0
 10 11  1  0
 11 12  1  0
 12 13  2  0
 12 14  1  0
 14 15  1  0
 15 16  2  0
 16 17  1  0
 17 18  2  0
 18 19  1  0
 19 20  2  0
  9 21  2  0
 21  2  1  0
 20 15  1  0
M  END
>  <Binding energies>  (7) 
[-6.75]

>  <Ligand effiencies>  (7) 
[-0.3068181818181818]

>  <Interactions>  (7) 
["V-A:ASP:366:CG:3208, V-A:ARG:545:CZ:4921, V-B:GLU:543:CG:9875, V-A:ILE:369:CD1:3234, V-B:GLU:543:CD:9876, V-B:TYR:539:CE2:9844, V-B:ALA:541:CB:9860, V-A:TRP:381:CZ2:3365, V-B:TYR:539:CD2:9842, V-A:TRP:381:CH2:3367, V-A:LEU:475:CD2:4254, H-A:TYR:484:OH:4343, H-B:ALA:541:N:9859, H-B:GLU:543:OE2:9878, V-B:ALA:541:CA:9858, V-A:ARG:545:CD:4918, H-A:GLY:454:N:4045, V-A:ASP:366:CB:3207, V-A:ILE:369:CB:3231, V-A:ILE:369:CG2:3232"]

$$$$
1g_Grossjean_2025
     RDKit          3D

 22 23  0  0  0  0  0  0  0  0999 V2000
  133.2310  124.4720   57.5310 C   0  0  0  0  0  0  0  0  0  0  0  0
  132.5100  123.4170   58.3480 C   0  0  0  0  0  0  0  0  0  0  0  0
  133.2000  122.5510   59.1930 C   0  0  0  0  0  0  0  0  0  0  0  0
  132.4830  121.5870   59.9100 C   0  0  0  0  0  0  0  0  0  0  0  0
  133.2630  120.6370   60.8190 C   0  0  0  0  0  0  0  0  0  0  0  0
  131.0780  121.5210   59.7670 C   0  0  0  0  0  0  0  0  0  0  0  0
  130.3130  120.4870   60.4680 C   0  0  0  0  0  0  0  0  0  0  0  0
  129.7110  119.6680   61.0210 N   0  0  0  0  0  0  0  0  0  0  0  0
  130.4580  122.4580   58.9070 C   0  0  0  0  0  0  0  0  0  0  0  0
  128.7040  122.5240   58.6180 S   0  0  0  0  0  0  0  0  0  0  0  0
  128.0070  123.7140   59.8030 C   0  0  0  0  0  0  0  0  0  0  0  0
  128.2670  123.2990   61.2520 C   0  0  0  0  0  0  0  0  0  0  0  0
  127.3490  122.8470   61.9380 O   0  0  0  0  0  0  0  0  0  0  0  0
  129.5220  123.4640   61.7020 N   0  0  0  0  0  0  0  0  0  0  0  0
  130.0040  123.0830   63.0290 C   0  0  0  0  0  0  0  0  0  0  0  0
  131.2870  123.7890   63.4590 C   0  0  0  0  0  0  0  0  0  0  0  0
  132.4750  123.5680   62.7550 C   0  0  0  0  0  0  0  0  0  0  0  0
  133.6450  124.2130   63.1460 C   0  0  0  0  0  0  0  0  0  0  0  0
  133.6230  125.0810   64.2360 C   0  0  0  0  0  0  0  0  0  0  0  0
  132.4420  125.3100   64.9380 C   0  0  0  0  0  0  0  0  0  0  0  0
  131.2710  124.6640   64.5490 C   0  0  0  0  0  0  0  0  0  0  0  0
  131.1650  123.3750   58.1980 N   0  0  0  0  0  0  0  0  0  0  0  0
  1  2  1  0
  2  3  2  0
  3  4  1  0
  4  5  1  0
  4  6  2  0
  6  7  1  0
  7  8  3  0
  6  9  1  0
  9 10  1  0
 10 11  1  0
 11 12  1  0
 12 13  2  0
 12 14  1  0
 14 15  1  0
 15 16  1  0
 16 17  2  0
 17 18  1  0
 18 19  2  0
 19 20  1  0
 20 21  2  0
  9 22  2  0
 22  2  1  0
 21 16  1  0
M  END
>  <Binding energies>  (8) 
[-6.11]

>  <Ligand effiencies>  (8) 
[-0.26565217391304347]

>  <Interactions>  (8) 
["H-B:TYR:539:OH:9846, V-A:ASP:366:CG:3208, V-B:TYR:539:CZ:9845, V-A:ARG:545:CZ:4921, V-A:ILE:369:CD1:3234, V-B:GLU:543:CD:9876, V-B:TYR:539:CE2:9844, V-B:ALA:541:CB:9860, V-B:TYR:539:CD2:9842, V-A:TRP:381:CH2:3367, V-A:LEU:475:CD2:4254, H-B:ALA:541:N:9859, V-A:TYR:531:CZ:4789, V-A:ASP:366:CB:3207, V-A:ASP:366:CA:3205, V-A:ILE:369:CB:3231, V-A:ILE:369:CG2:3232, V-A:ASP:366:C:3203, V-A:TYR:531:CE1:4787"]

$$$$
1h_Grossjean_2025
     RDKit          3D

 28 29  0  0  0  0  0  0  0  0999 V2000
  129.6600  124.2470   71.8430 C   0  0  0  0  0  0  0  0  0  0  0  0
  128.8150  125.3460   72.1670 O   0  0  0  0  0  0  0  0  0  0  0  0
  129.1320  126.6070   71.6980 C   0  0  0  0  0  0  0  0  0  0  0  0
  129.1220  126.9640   70.3400 C   0  0  0  0  0  0  0  0  0  0  0  0
  129.4680  128.2540   69.9370 C   0  0  0  0  0  0  0  0  0  0  0  0
  129.4310  128.6350   68.4600 C   0  0  0  0  0  0  0  0  0  0  0  0
  130.2290  127.7610   67.6010 N   0  0  0  0  0  0  0  0  0  0  0  0
  129.9250  126.4890   67.2890 C   0  0  0  0  0  0  0  0  0  0  0  0
  128.9090  125.9140   67.6790 O   0  0  0  0  0  0  0  0  0  0  0  0
  130.9270  125.7460   66.4050 C   0  0  0  0  0  0  0  0  0  0  0  0
  130.7060  126.1430   64.6440 S   0  0  0  0  0  0  0  0  0  0  0  0
  130.9760  124.6510   63.7010 C   0  0  0  0  0  0  0  0  0  0  0  0
  129.8740  124.1180   63.1130 N   0  0  0  0  0  0  0  0  0  0  0  0
  130.0090  122.9880   62.3790 C   0  0  0  0  0  0  0  0  0  0  0  0
  128.7350  122.4560   61.7510 C   0  0  0  0  0  0  0  0  0  0  0  0
  131.2330  122.3470   62.2040 C   0  0  0  0  0  0  0  0  0  0  0  0
  132.3750  122.8850   62.8060 C   0  0  0  0  0  0  0  0  0  0  0  0
  133.7070  122.1680   62.5990 C   0  0  0  0  0  0  0  0  0  0  0  0
  132.2570  124.0650   63.5770 C   0  0  0  0  0  0  0  0  0  0  0  0
  133.4360  124.6500   64.2220 C   0  0  0  0  0  0  0  0  0  0  0  0
  134.3670  125.1110   64.7310 N   0  0  0  0  0  0  0  0  0  0  0  0
  129.7910  129.2130   70.8990 C   0  0  0  0  0  0  0  0  0  0  0  0
  129.8040  128.8860   72.2640 C   0  0  0  0  0  0  0  0  0  0  0  0
  130.1160  129.7820   73.2700 O   0  0  0  0  0  0  0  0  0  0  0  0
  129.9800  131.1790   73.0290 C   0  0  0  0  0  0  0  0  0  0  0  0
  129.4830  127.5760   72.6500 C   0  0  0  0  0  0  0  0  0  0  0  0
  129.4850  127.2430   73.9830 O   0  0  0  0  0  0  0  0  0  0  0  0
  130.5710  126.4140   74.3700 C   0  0  0  0  0  0  0  0  0  0  0  0
  1  2  1  0
  2  3  1  0
  3  4  2  0
  4  5  1  0
  5  6  1  0
  6  7  1  0
  7  8  1  0
  8  9  2  0
  8 10  1  0
 10 11  1  0
 11 12  1  0
 12 13  2  0
 13 14  1  0
 14 15  1  0
 14 16  2  0
 16 17  1  0
 17 18  1  0
 17 19  2  0
 19 20  1  0
 20 21  3  0
  5 22  2  0
 22 23  1  0
 23 24  1  0
 24 25  1  0
 23 26  2  0
 26 27  1  0
 27 28  1  0
 26  3  1  0
 19 12  1  0
M  END
>  <Binding energies>  (9) 
[-7.44]

>  <Ligand effiencies>  (9) 
[-0.25655172413793104]

>  <Interactions>  (9) 
["H-A:GLU:543:OE1:4904, V-A:GLU:543:CD:4903, V-A:HIS:456:CE1:4064, V-A:ARG:545:CZ:4921, V-A:GLU:543:CB:4901, V-A:ILE:369:CD1:3234, H-A:ARG:545:NH2:4923, V-B:ALA:541:CB:9860, V-A:LEU:475:CD2:4254, H-B:LYS:547:NZ:9919, H-A:TYR:484:OH:4343, V-A:GLY:454:CA:4044, V-B:ALA:541:CA:9858, H-A:GLY:454:N:4045, V-A:GLY:544:CA:4909, V-A:LYS:547:CE:4945, H-A:LYS:547:NZ:4946, V-A:GLU:543:C:4897, V-B:LYS:547:CE:9918, H-A:ARG:545:NE:4919, H-A:ARG:545:NH1:4922"]

$$$$
1i_Grossjean_2025
     RDKit          3D

 20 21  0  0  0  0  0  0  0  0999 V2000
  129.7930  124.8890   72.5980 C   0  0  0  0  0  0  0  0  0  0  0  0
  129.6170  126.0780   71.6730 C   0  0  0  0  0  0  0  0  0  0  0  0
  129.6080  127.3840   72.1580 C   0  0  0  0  0  0  0  0  0  0  0  0
  129.4520  128.4430   71.2560 C   0  0  0  0  0  0  0  0  0  0  0  0
  129.4620  129.8670   71.8100 C   0  0  0  0  0  0  0  0  0  0  0  0
  129.3010  128.1610   69.8790 C   0  0  0  0  0  0  0  0  0  0  0  0
  129.1880  129.2560   68.9120 C   0  0  0  0  0  0  0  0  0  0  0  0
  129.0990  130.1230   68.1500 N   0  0  0  0  0  0  0  0  0  0  0  0
  129.2990  126.8040   69.4800 C   0  0  0  0  0  0  0  0  0  0  0  0
  129.1200  126.2700   67.7920 S   0  0  0  0  0  0  0  0  0  0  0  0
  130.5210  126.9440   66.8500 C   0  0  0  0  0  0  0  0  0  0  0  0
  131.3440  125.8440   66.1750 C   0  0  0  0  0  0  0  0  0  0  0  0
  131.3940  124.7260   66.6900 O   0  0  0  0  0  0  0  0  0  0  0  0
  131.9650  126.2010   65.0300 N   0  0  0  0  0  0  0  0  0  0  0  0
  132.7710  125.4060   64.2270 C   0  0  0  0  0  0  0  0  0  0  0  0
  132.5030  125.1670   62.8810 C   0  0  0  0  0  0  0  0  0  0  0  0
  133.5210  124.3460   62.4540 C   0  0  0  0  0  0  0  0  0  0  0  0
  134.3570  124.1010   63.4900 O   0  0  0  0  0  0  0  0  0  0  0  0
  133.8700  124.7770   64.6100 N   0  0  0  0  0  0  0  0  0  0  0  0
  129.4710  125.7850   70.3590 N   0  0  0  0  0  0  0  0  0  0  0  0
  1  2  1  0
  2  3  2  0
  3  4  1  0
  4  5  1  0
  4  6  2  0
  6  7  1  0
  7  8  3  0
  6  9  1  0
  9 10  1  0
 10 11  1  0
 11 12  1  0
 12 13  2  0
 12 14  1  0
 14 15  1  0
 15 16  1  0
 16 17  2  0
 17 18  1  0
 18 19  1  0
  9 20  2  0
 20  2  1  0
 19 15  2  0
M  END
>  <Binding energies>  (10) 
[-6.54]

>  <Ligand effiencies>  (10) 
[-0.31142857142857144]

>  <Interactions>  (10) 
["H-A:GLU:543:OE1:4904, V-A:GLU:543:CD:4903, V-A:ASP:366:CG:3208, V-A:HIS:456:CE1:4064, V-A:ARG:545:CZ:4921, V-A:GLU:543:CB:4901, V-B:HIS:456:CD2:9035, H-A:GLU:543:OE2:4905, V-B:HIS:456:CE1:9037, H-A:HIS:456:NE2:4065, H-A:TYR:484:OH:4343, H-A:GLY:454:N:4045, V-A:GLU:543:C:4897, V-B:LYS:547:CE:9918"]

$$$$
1k_Grossjean_2025
     RDKit          3D

 25 25  0  0  0  0  0  0  0  0999 V2000
  130.3610  125.4120   66.4340 C   0  0  0  0  0  0  0  0  0  0  0  0
  131.7400  125.0880   66.5130 O   0  0  0  0  0  0  0  0  0  0  0  0
  132.5500  125.8370   65.6170 C   0  0  0  0  0  0  0  0  0  0  0  0
  133.9880  125.3020   65.6570 C   0  0  0  0  0  0  0  0  0  0  0  0
  134.3180  124.7410   64.3920 O   0  0  0  0  0  0  0  0  0  0  0  0
  133.3080  123.8930   63.8620 C   0  0  0  0  0  0  0  0  0  0  0  0
  132.9380  124.3630   62.4490 C   0  0  0  0  0  0  0  0  0  0  0  0
  131.5620  124.1000   62.2070 O   0  0  0  0  0  0  0  0  0  0  0  0
  130.8710  123.5860   63.3380 C   0  0  0  0  0  0  0  0  0  0  0  0
  129.5390  122.9580   62.8870 C   0  0  0  0  0  0  0  0  0  0  0  0
  129.1740  123.2650   61.5030 N   0  0  0  0  0  0  0  0  0  0  0  0
  127.9320  123.1880   60.9940 C   0  0  0  0  0  0  0  0  0  0  0  0
  126.9510  122.8490   61.6600 O   0  0  0  0  0  0  0  0  0  0  0  0
  127.8020  123.5490   59.5060 C   0  0  0  0  0  0  0  0  0  0  0  0
  128.7210  122.4740   58.3490 S   0  0  0  0  0  0  0  0  0  0  0  0
  130.4660  122.5650   58.7250 C   0  0  0  0  0  0  0  0  0  0  0  0
  131.1690  123.5150   58.0550 N   0  0  0  0  0  0  0  0  0  0  0  0
  132.4960  123.6310   58.2850 C   0  0  0  0  0  0  0  0  0  0  0  0
  133.2110  124.7080   57.4930 C   0  0  0  0  0  0  0  0  0  0  0  0
  133.1760  122.8190   59.1910 C   0  0  0  0  0  0  0  0  0  0  0  0
  132.4630  121.8410   59.8930 C   0  0  0  0  0  0  0  0  0  0  0  0
  133.2260  120.9610   60.8800 C   0  0  0  0  0  0  0  0  0  0  0  0
  131.0760  121.7010   59.6630 C   0  0  0  0  0  0  0  0  0  0  0  0
  130.3050  120.6820   60.3820 C   0  0  0  0  0  0  0  0  0  0  0  0
  129.6970  119.8770   60.9500 N   0  0  0  0  0  0  0  0  0  0  0  0
  1  2  1  0
  2  3  1  0
  3  4  1  0
  4  5  1  0
  5  6  1  0
  6  7  1  0
  7  8  1  0
  8  9  1  0
  9 10  1  0
 10 11  1  0
 11 12  1  0
 12 13  2  0
 12 14  1  0
 14 15  1  0
 15 16  1  0
 16 17  2  0
 17 18  1  0
 18 19  1  0
 18 20  2  0
 20 21  1  0
 21 22  1  0
 21 23  2  0
 23 24  1  0
 24 25  3  0
 23 16  1  0
M  END
>  <Binding energies>  (11) 
[-5.65]

>  <Ligand effiencies>  (11) 
[-0.2173076923076923]

>  <Interactions>  (11) 
["H-B:TYR:539:OH:9846, V-A:ASP:366:CG:3208, V-B:TYR:539:CZ:9845, V-A:ARG:545:CZ:4921, V-B:GLU:543:CG:9875, V-A:ILE:369:CD1:3234, V-B:GLU:543:CD:9876, V-B:TYR:539:CE2:9844, V-B:ALA:541:CB:9860, V-B:TYR:539:CD2:9842, V-A:LEU:475:CD2:4254, V-B:PRO:540:CA:9851, H-A:HIS:456:NE2:4065, H-A:TYR:484:OH:4343, V-A:GLY:454:CA:4044, H-B:ALA:541:N:9859, V-A:TYR:531:CZ:4789, V-A:ARG:545:CD:4918, H-A:GLY:454:N:4045, V-A:ASP:366:CB:3207, V-A:ASP:366:CA:3205, V-A:ARG:545:CG:4917, V-A:ILE:369:CG2:3232, H-A:ARG:545:NH1:4922, V-A:ASP:366:C:3203, V-A:TYR:531:CE1:4787"]

$$$$
1l_Grossjean_2025
     RDKit          3D

 17 17  0  0  0  0  0  0  0  0999 V2000
  130.8510  126.3330   66.8860 C   0  0  0  0  0  0  0  0  0  0  0  0
  132.2230  126.2090   66.5410 O   0  0  0  0  0  0  0  0  0  0  0  0
  132.3560  126.0690   65.1600 N   0  0  0  0  0  0  0  0  0  0  0  0
  133.3330  125.2800   64.6750 C   0  0  0  0  0  0  0  0  0  0  0  0
  133.9810  124.4900   65.3660 O   0  0  0  0  0  0  0  0  0  0  0  0
  133.5890  125.4130   63.1670 C   0  0  0  0  0  0  0  0  0  0  0  0
  134.3510  123.9520   62.3810 S   0  0  0  0  0  0  0  0  0  0  0  0
  133.2380  123.3550   61.1200 C   0  0  0  0  0  0  0  0  0  0  0  0
  133.6620  123.5100   59.8380 N   0  0  0  0  0  0  0  0  0  0  0  0
  132.8650  123.0810   58.8310 C   0  0  0  0  0  0  0  0  0  0  0  0
  133.4070  123.2890   57.4290 C   0  0  0  0  0  0  0  0  0  0  0  0
  131.6270  122.4830   59.0540 C   0  0  0  0  0  0  0  0  0  0  0  0
  131.1810  122.3170   60.3690 C   0  0  0  0  0  0  0  0  0  0  0  0
  129.8200  121.6580   60.5900 C   0  0  0  0  0  0  0  0  0  0  0  0
  131.9960  122.7590   61.4350 C   0  0  0  0  0  0  0  0  0  0  0  0
  131.5530  122.5970   62.8240 C   0  0  0  0  0  0  0  0  0  0  0  0
  131.2020  122.4680   63.9190 N   0  0  0  0  0  0  0  0  0  0  0  0
  1  2  1  0
  2  3  1  0
  3  4  1  0
  4  5  2  0
  4  6  1  0
  6  7  1  0
  7  8  1  0
  8  9  2  0
  9 10  1  0
 10 11  1  0
 10 12  2  0
 12 13  1  0
 13 14  1  0
 13 15  2  0
 15 16  1  0
 16 17  3  0
 15  8  1  0
M  END
>  <Binding energies>  (12) 
[-5.92]

>  <Ligand effiencies>  (12) 
[-0.3288888888888889]

>  <Interactions>  (12) 
["H-A:GLU:543:OE1:4904, V-A:GLU:543:CD:4903, V-A:ASP:366:CG:3208, V-B:TYR:539:CZ:9845, V-A:HIS:456:CE1:4064, V-A:ARG:545:CZ:4921, H-A:GLU:543:OE2:4905, V-A:ILE:369:CD1:3234, V-B:TYR:539:CE2:9844, V-B:TYR:539:CD2:9842, V-A:LEU:475:CD2:4254, H-A:HIS:456:NE2:4065, H-A:TYR:484:OH:4343, H-A:GLY:454:N:4045, V-A:ILE:369:CB:3231, V-A:ILE:369:CG2:3232"]

$$$$
1m_Grossjean_2025
     RDKit          3D

 20 20  0  0  0  0  0  0  0  0999 V2000
  129.6630  122.9860   63.9890 C   0  0  0  0  0  0  0  0  0  0  0  0
  130.6050  123.2540   65.0180 O   0  0  0  0  0  0  0  0  0  0  0  0
  130.9930  124.5190   65.2790 C   0  0  0  0  0  0  0  0  0  0  0  0
  131.1720  124.9970   66.4040 O   0  0  0  0  0  0  0  0  0  0  0  0
  131.2050  125.3260   63.9810 C   0  0  0  0  0  0  0  0  0  0  0  0
  132.0350  124.6140   62.9970 N   0  0  0  0  0  0  0  0  0  0  0  0
  133.3320  124.2860   63.1540 C   0  0  0  0  0  0  0  0  0  0  0  0
  133.9800  124.5720   64.1630 O   0  0  0  0  0  0  0  0  0  0  0  0
  133.9690  123.5310   61.9800 C   0  0  0  0  0  0  0  0  0  0  0  0
  133.0210  123.6040   60.4220 S   0  0  0  0  0  0  0  0  0  0  0  0
  131.6070  122.5340   60.5870 C   0  0  0  0  0  0  0  0  0  0  0  0
  130.4330  123.2030   60.7160 N   0  0  0  0  0  0  0  0  0  0  0  0
  129.2890  122.4920   60.8420 C   0  0  0  0  0  0  0  0  0  0  0  0
  128.0160  123.3080   60.9620 C   0  0  0  0  0  0  0  0  0  0  0  0
  129.2670  121.0990   60.8580 C   0  0  0  0  0  0  0  0  0  0  0  0
  130.4740  120.3990   60.7520 C   0  0  0  0  0  0  0  0  0  0  0  0
  130.4280  118.8730   60.7870 C   0  0  0  0  0  0  0  0  0  0  0  0
  131.6830  121.1210   60.6200 C   0  0  0  0  0  0  0  0  0  0  0  0
  132.9620  120.4100   60.5580 C   0  0  0  0  0  0  0  0  0  0  0  0
  133.9720  119.8480   60.5080 N   0  0  0  0  0  0  0  0  0  0  0  0
  1  2  1  0
  2  3  1  0
  3  4  2  0
  3  5  1  0
  5  6  1  0
  6  7  1  0
  7  8  2  0
  7  9  1  0
  9 10  1  0
 10 11  1  0
 11 12  2  0
 12 13  1  0
 13 14  1  0
 13 15  2  0
 15 16  1  0
 16 17  1  0
 16 18  2  0
 18 19  1  0
 19 20  3  0
 18 11  1  0
M  END
>  <Binding energies>  (13) 
[-5.65]

>  <Ligand effiencies>  (13) 
[-0.2690476190476191]

>  <Interactions>  (13) 
["V-A:ASP:366:CG:3208, V-B:GLU:543:CG:9875, V-A:ILE:369:CD1:3234, V-B:GLU:543:CD:9876, V-B:ALA:541:CB:9860, V-A:TRP:381:CZ2:3365, V-B:TYR:539:CD2:9842, V-A:TRP:381:CH2:3367, V-A:LEU:475:CD2:4254, V-A:TRP:381:CZ3:3366, V-B:PRO:540:C:9849, H-A:HIS:456:NE2:4065, H-A:TYR:484:OH:4343, V-A:TYR:484:CZ:4342, H-A:GLY:454:N:4045, V-A:ILE:369:CG2:3232"]

$$$$
1n_Grossjean_2025
     RDKit          3D

 27 28  0  0  0  0  0  0  0  0999 V2000
  129.8850  123.8710   71.5390 C   0  0  0  0  0  0  0  0  0  0  0  0
  130.2290  124.9940   72.5220 C   0  0  0  0  0  0  0  0  0  0  0  0
  129.1840  125.9590   72.5210 O   0  0  0  0  0  0  0  0  0  0  0  0
  129.4510  127.2820   72.3660 C   0  0  0  0  0  0  0  0  0  0  0  0
  129.7100  128.0380   73.3070 O   0  0  0  0  0  0  0  0  0  0  0  0
  129.4130  127.7300   70.9340 C   0  0  0  0  0  0  0  0  0  0  0  0
  130.4560  128.4730   70.3600 C   0  0  0  0  0  0  0  0  0  0  0  0
  130.3880  128.8750   69.0290 C   0  0  0  0  0  0  0  0  0  0  0  0
  129.2770  128.5540   68.2480 C   0  0  0  0  0  0  0  0  0  0  0  0
  129.3100  129.0160   66.9180 N   0  0  0  0  0  0  0  0  0  0  0  0
  128.3210  129.5370   66.1600 C   0  0  0  0  0  0  0  0  0  0  0  0
  127.1590  129.7130   66.5260 O   0  0  0  0  0  0  0  0  0  0  0  0
  128.7180  129.9330   64.7320 C   0  0  0  0  0  0  0  0  0  0  0  0
  127.8340  131.0550   64.1470 C   0  0  0  0  0  0  0  0  0  0  0  0
  128.7290  132.5840   63.7380 S   0  0  0  0  0  0  0  0  0  0  0  0
  129.3750  132.4070   62.0890 C   0  0  0  0  0  0  0  0  0  0  0  0
  130.6150  131.8570   62.0480 N   0  0  0  0  0  0  0  0  0  0  0  0
  131.1990  131.6600   60.8430 C   0  0  0  0  0  0  0  0  0  0  0  0
  132.5790  131.0320   60.8740 C   0  0  0  0  0  0  0  0  0  0  0  0
  130.5810  132.0040   59.6420 C   0  0  0  0  0  0  0  0  0  0  0  0
  129.3110  132.5900   59.6750 C   0  0  0  0  0  0  0  0  0  0  0  0
  128.6590  132.9710   58.3480 C   0  0  0  0  0  0  0  0  0  0  0  0
  128.6840  132.8110   60.9230 C   0  0  0  0  0  0  0  0  0  0  0  0
  127.3780  133.4700   60.9840 C   0  0  0  0  0  0  0  0  0  0  0  0
  126.3460  133.9920   61.0300 N   0  0  0  0  0  0  0  0  0  0  0  0
  128.2350  127.8040   68.8120 C   0  0  0  0  0  0  0  0  0  0  0  0
  128.3060  127.3990   70.1420 C   0  0  0  0  0  0  0  0  0  0  0  0
  1  2  1  0
  2  3  1  0
  3  4  1  0
  4  5  2  0
  4  6  1  0
  6  7  2  0
  7  8  1  0
  8  9  2  0
  9 10  1  0
 10 11  1  0
 11 12  2  0
 11 13  1  0
 13 14  1  0
 14 15  1  0
 15 16  1  0
 16 17  2  0
 17 18  1  0
 18 19  1  0
 18 20  2  0
 20 21  1  0
 21 22  1  0
 21 23  2  0
 23 24  1  0
 24 25  3  0
  9 26  1  0
 26 27  2  0
 27  6  1  0
 23 16  1  0
M  END
>  <Binding energies>  (14) 
[-7.49]

>  <Ligand effiencies>  (14) 
[-0.2675]

>  <Interactions>  (14) 
["H-A:GLU:543:OE1:4904, V-A:GLU:543:CD:4903, V-A:HIS:456:CE1:4064, V-A:GLU:543:CB:4901, H-A:GLU:543:OE2:4905, V-B:HIS:456:CE1:9037, H-A:ALA:541:N:4886, V-A:TYR:539:C:4862, V-A:PRO:540:CA:4878, V-A:PRO:540:N:4879, V-A:PRO:540:CB:4880, V-A:TYR:539:CZ:4872, V-A:TYR:539:CD2:4869, V-A:TYR:539:CE2:4871, V-A:GLU:543:CG:4902, H-B:LYS:547:NZ:9919, H-B:TYR:484:OH:9315, H-A:LYS:547:NZ:4946, V-A:GLU:543:CA:4899, V-A:GLU:543:C:4897, V-A:GLY:544:C:4907, V-A:ALA:541:CB:4887, V-A:TYR:539:CE1:4870, V-A:TYR:539:CD1:4868, V-A:TYR:539:CG:4867"]

$$$$
1q_Grossjean_2025
     RDKit          3D

 21 21  0  0  0  0  0  0  0  0999 V2000
  133.2470  125.3790   65.0250 C   0  0  0  0  0  0  0  0  0  0  0  0
  134.0460  124.6730   64.0870 O   0  0  0  0  0  0  0  0  0  0  0  0
  133.4680  123.9660   63.0850 C   0  0  0  0  0  0  0  0  0  0  0  0
  133.7930  122.8320   62.7300 O   0  0  0  0  0  0  0  0  0  0  0  0
  132.3370  124.7200   62.3550 C   0  0  0  0  0  0  0  0  0  0  0  0
  131.1090  123.9230   62.2200 N   0  0  0  0  0  0  0  0  0  0  0  0
  130.5050  123.2300   63.2040 C   0  0  0  0  0  0  0  0  0  0  0  0
  130.9320  123.1920   64.3600 O   0  0  0  0  0  0  0  0  0  0  0  0
  129.2210  122.4850   62.8130 C   0  0  0  0  0  0  0  0  0  0  0  0
  128.4580  123.1150   61.6310 C   0  0  0  0  0  0  0  0  0  0  0  0
  128.7780  122.3000   60.0390 S   0  0  0  0  0  0  0  0  0  0  0  0
  130.5390  122.1180   59.8390 C   0  0  0  0  0  0  0  0  0  0  0  0
  131.1250  123.1820   59.2340 N   0  0  0  0  0  0  0  0  0  0  0  0
  132.4610  123.1590   59.0240 C   0  0  0  0  0  0  0  0  0  0  0  0
  133.0410  124.3760   58.3280 C   0  0  0  0  0  0  0  0  0  0  0  0
  133.2650  122.0900   59.4150 C   0  0  0  0  0  0  0  0  0  0  0  0
  132.6770  121.0000   60.0620 C   0  0  0  0  0  0  0  0  0  0  0  0
  133.5820  119.8480   60.4970 C   0  0  0  0  0  0  0  0  0  0  0  0
  131.2830  121.0020   60.2940 C   0  0  0  0  0  0  0  0  0  0  0  0
  130.6580  119.8950   61.0210 C   0  0  0  0  0  0  0  0  0  0  0  0
  130.1690  119.0170   61.5960 N   0  0  0  0  0  0  0  0  0  0  0  0
  1  2  1  0
  2  3  1  0
  3  4  2  0
  3  5  1  0
  5  6  1  0
  6  7  1  0
  7  8  2  0
  7  9  1  0
  9 10  1  0
 10 11  1  0
 11 12  1  0
 12 13  2  0
 13 14  1  0
 14 15  1  0
 14 16  2  0
 16 17  1  0
 17 18  1  0
 17 19  2  0
 19 20  1  0
 20 21  3  0
 19 12  1  0
M  END
>  <Binding energies>  (15) 
[-5.58]

>  <Ligand effiencies>  (15) 
[-0.25363636363636366]

>  <Interactions>  (15) 
["V-A:ASP:366:CG:3208, V-A:ARG:545:CZ:4921, V-B:GLU:543:CG:9875, V-A:ILE:369:CD1:3234, V-B:GLU:543:CD:9876, V-B:TYR:539:CE2:9844, V-B:ALA:541:CB:9860, V-A:TRP:381:CZ2:3365, V-B:TYR:539:CD2:9842, V-A:TRP:381:CH2:3367, V-A:LEU:475:CD2:4254, H-A:TYR:484:OH:4343, H-A:GLY:454:N:4045, V-A:ASP:366:CB:3207, V-A:ASP:366:CA:3205, V-A:ILE:369:CB:3231, V-A:ILE:369:CG2:3232"]

$$$$
2a_Grossjean_2025
     RDKit          3D

 29 30  0  0  0  0  0  0  0  0999 V2000
  129.9730  128.7400   71.8710 C   0  0  0  0  0  0  0  0  0  0  0  0
  130.1260  127.2450   72.1680 C   0  0  0  0  0  0  0  0  0  0  0  0
  128.9350  126.5660   71.7860 O   0  0  0  0  0  0  0  0  0  0  0  0
  128.1990  126.9860   70.7250 C   0  0  0  0  0  0  0  0  0  0  0  0
  127.0810  127.4980   70.8310 O   0  0  0  0  0  0  0  0  0  0  0  0
  128.8940  126.7840   69.4080 C   0  0  0  0  0  0  0  0  0  0  0  0
  128.9740  127.8040   68.4480 C   0  0  0  0  0  0  0  0  0  0  0  0
  129.6240  127.5840   67.2370 C   0  0  0  0  0  0  0  0  0  0  0  0
  130.1980  126.3430   66.9560 C   0  0  0  0  0  0  0  0  0  0  0  0
  130.8150  126.2290   65.6970 N   0  0  0  0  0  0  0  0  0  0  0  0
  131.9890  125.6560   65.3540 C   0  0  0  0  0  0  0  0  0  0  0  0
  132.7800  125.1250   66.1340 O   0  0  0  0  0  0  0  0  0  0  0  0
  132.3310  125.6930   63.8610 C   0  0  0  0  0  0  0  0  0  0  0  0
  133.5850  124.4600   63.3770 S   0  0  0  0  0  0  0  0  0  0  0  0
  132.9670  123.4720   62.0190 C   0  0  0  0  0  0  0  0  0  0  0  0
  133.5970  123.6460   60.8300 N   0  0  0  0  0  0  0  0  0  0  0  0
  133.1750  122.9400   59.7570 C   0  0  0  0  0  0  0  0  0  0  0  0
  133.9100  123.2100   58.4570 C   0  0  0  0  0  0  0  0  0  0  0  0
  132.1220  122.0320   59.8220 C   0  0  0  0  0  0  0  0  0  0  0  0
  131.4610  121.8290   61.0440 C   0  0  0  0  0  0  0  0  0  0  0  0
  130.2990  120.8200   61.1000 C   0  0  0  0  0  0  0  0  0  0  0  0
  130.2370  120.1290   59.9610 F   0  0  0  0  0  0  0  0  0  0  0  0
  130.4810  119.9710   62.1130 F   0  0  0  0  0  0  0  0  0  0  0  0
  129.1140  121.4090   61.2780 F   0  0  0  0  0  0  0  0  0  0  0  0
  131.8920  122.5660   62.1760 C   0  0  0  0  0  0  0  0  0  0  0  0
  131.2360  122.3950   63.4770 C   0  0  0  0  0  0  0  0  0  0  0  0
  130.7170  122.2610   64.5030 N   0  0  0  0  0  0  0  0  0  0  0  0
  130.1280  125.3220   67.9140 C   0  0  0  0  0  0  0  0  0  0  0  0
  129.4820  125.5450   69.1270 C   0  0  0  0  0  0  0  0  0  0  0  0
  1  2  1  0
  2  3  1  0
  3  4  1  0
  4  5  2  0
  4  6  1  0
  6  7  2  0
  7  8  1  0
  8  9  2  0
  9 10  1  0
 10 11  1  0
 11 12  2  0
 11 13  1  0
 13 14  1  0
 14 15  1  0
 15 16  2  0
 16 17  1  0
 17 18  1  0
 17 19  2  0
 19 20  1  0
 20 21  1  0
 21 22  1  0
 21 23  1  0
 21 24  1  0
 20 25  2  0
 25 26  1  0
 26 27  3  0
  9 28  1  0
 28 29  2  0
 29  6  1  0
 25 15  1  0
M  END
>  <Binding energies>  (16) 
[-7.29]

>  <Ligand effiencies>  (16) 
[-0.243]

>  <Interactions>  (16) 
["H-A:GLU:543:OE1:4904, V-A:GLU:543:CD:4903, V-A:HIS:456:CE1:4064, V-A:ARG:545:CZ:4921, V-B:GLU:543:CB:9874, V-A:ILE:369:CD1:3234, V-B:TYR:539:CE2:9844, V-B:ALA:541:CB:9860, V-A:LEU:475:CD1:4253, V-A:LEU:475:CG:4252, V-B:TYR:539:CD2:9842, V-A:LEU:475:CD2:4254, V-B:TYR:539:C:9835, H-B:LYS:547:NZ:9919, V-B:GLU:543:C:9870, V-B:PRO:540:C:9849, H-A:HIS:456:NE2:4065, H-A:TYR:484:OH:4343, H-B:GLU:543:OE2:9878, V-B:ALA:541:CA:9858, H-A:GLY:454:N:4045, V-A:ASP:366:CB:3207, V-A:ASP:366:CA:3205, V-A:ILE:369:CB:3231, V-A:ILE:369:CG2:3232, V-A:ILE:369:CG1:3233"]

$$$$
2b_Grossjean_2025
     RDKit          3D

 28 29  0  0  0  0  0  0  0  0999 V2000
  130.2200  127.0140   72.2910 C   0  0  0  0  0  0  0  0  0  0  0  0
  129.0830  126.3460   71.7630 O   0  0  0  0  0  0  0  0  0  0  0  0
  128.3580  126.8910   70.7530 C   0  0  0  0  0  0  0  0  0  0  0  0
  127.2490  127.4100   70.9150 O   0  0  0  0  0  0  0  0  0  0  0  0
  129.0370  126.7960   69.4170 C   0  0  0  0  0  0  0  0  0  0  0  0
  129.4770  125.5720   68.8930 C   0  0  0  0  0  0  0  0  0  0  0  0
  130.1050  125.5190   67.6520 C   0  0  0  0  0  0  0  0  0  0  0  0
  130.3010  126.6820   66.9090 C   0  0  0  0  0  0  0  0  0  0  0  0
  130.9520  126.5160   65.6710 N   0  0  0  0  0  0  0  0  0  0  0  0
  132.0410  125.7810   65.3620 C   0  0  0  0  0  0  0  0  0  0  0  0
  132.7020  125.1150   66.1600 O   0  0  0  0  0  0  0  0  0  0  0  0
  132.4620  125.8250   63.8890 C   0  0  0  0  0  0  0  0  0  0  0  0
  133.6410  124.5090   63.4410 S   0  0  0  0  0  0  0  0  0  0  0  0
  132.9900  123.5410   62.0860 C   0  0  0  0  0  0  0  0  0  0  0  0
  133.6260  123.6910   60.8960 N   0  0  0  0  0  0  0  0  0  0  0  0
  133.1830  122.9930   59.8270 C   0  0  0  0  0  0  0  0  0  0  0  0
  133.9390  123.2250   58.5320 C   0  0  0  0  0  0  0  0  0  0  0  0
  132.1040  122.1170   59.8960 C   0  0  0  0  0  0  0  0  0  0  0  0
  131.4360  121.9410   61.1170 C   0  0  0  0  0  0  0  0  0  0  0  0
  130.2460  120.9640   61.1780 C   0  0  0  0  0  0  0  0  0  0  0  0
  130.3940  120.1290   62.2070 F   0  0  0  0  0  0  0  0  0  0  0  0
  129.1060  121.6400   61.3290 F   0  0  0  0  0  0  0  0  0  0  0  0
  130.1290  120.2230   60.0740 F   0  0  0  0  0  0  0  0  0  0  0  0
  131.8860  122.6720   62.2460 C   0  0  0  0  0  0  0  0  0  0  0  0
  131.2210  122.5320   63.5460 C   0  0  0  0  0  0  0  0  0  0  0  0
  130.6970  122.4200   64.5720 N   0  0  0  0  0  0  0  0  0  0  0  0
  129.8720  127.9120   67.4280 C   0  0  0  0  0  0  0  0  0  0  0  0
  129.2450  127.9640   68.6700 C   0  0  0  0  0  0  0  0  0  0  0  0
  1  2  1  0
  2  3  1  0
  3  4  2  0
  3  5  1  0
  5  6  2  0
  6  7  1  0
  7  8  2  0
  8  9  1  0
  9 10  1  0
 10 11  2  0
 10 12  1  0
 12 13  1  0
 13 14  1  0
 14 15  2  0
 15 16  1  0
 16 17  1  0
 16 18  2  0
 18 19  1  0
 19 20  1  0
 20 21  1  0
 20 22  1  0
 20 23  1  0
 19 24  2  0
 24 25  1  0
 25 26  3  0
  8 27  1  0
 27 28  2  0
 28  5  1  0
 24 14  1  0
M  END
>  <Binding energies>  (17) 
[-7.28]

>  <Ligand effiencies>  (17) 
[-0.2510344827586207]

>  <Interactions>  (17) 
["H-A:GLU:543:OE1:4904, V-A:GLU:543:CD:4903, V-A:HIS:456:CE1:4064, V-A:ARG:545:CZ:4921, V-A:GLU:543:CB:4901, H-A:GLU:543:OE2:4905, V-B:GLU:543:CB:9874, V-A:ILE:369:CD1:3234, V-B:TYR:539:CE2:9844, V-B:ALA:541:CB:9860, V-A:LEU:475:CD1:4253, V-A:LEU:475:CG:4252, V-B:TYR:539:CD2:9842, V-A:LEU:475:CD2:4254, V-B:TYR:539:C:9835, H-B:LYS:547:NZ:9919, V-B:GLU:543:C:9870, V-B:PRO:540:C:9849, H-A:HIS:456:NE2:4065, H-A:TYR:484:OH:4343, V-B:ALA:541:CA:9858, H-A:GLY:454:N:4045, V-A:ASP:366:CB:3207, V-B:GLU:543:CA:9872, V-A:ASP:366:CA:3205, V-A:ILE:369:CB:3231, V-A:ILE:369:CG2:3232, V-A:ILE:369:CG1:3233"]

$$$$
2c_Grossjean_2025
     RDKit          3D

 26 27  0  0  0  0  0  0  0  0999 V2000
  127.4430  127.3990   70.8310 C   0  0  0  0  0  0  0  0  0  0  0  0
  126.9860  127.2080   69.4960 O   0  0  0  0  0  0  0  0  0  0  0  0
  127.9110  127.0390   68.4850 C   0  0  0  0  0  0  0  0  0  0  0  0
  127.4720  127.3040   67.1880 C   0  0  0  0  0  0  0  0  0  0  0  0
  128.3310  127.1610   66.1020 C   0  0  0  0  0  0  0  0  0  0  0  0
  129.6520  126.7350   66.3070 C   0  0  0  0  0  0  0  0  0  0  0  0
  130.5970  126.5790   65.2760 N   0  0  0  0  0  0  0  0  0  0  0  0
  131.6910  125.7880   65.2490 C   0  0  0  0  0  0  0  0  0  0  0  0
  132.0740  125.0880   66.1880 O   0  0  0  0  0  0  0  0  0  0  0  0
  132.4920  125.8370   63.9390 C   0  0  0  0  0  0  0  0  0  0  0  0
  133.5670  124.3940   63.6210 S   0  0  0  0  0  0  0  0  0  0  0  0
  132.9610  123.5030   62.1940 C   0  0  0  0  0  0  0  0  0  0  0  0
  133.6140  123.7480   61.0280 N   0  0  0  0  0  0  0  0  0  0  0  0
  133.2040  123.1170   59.9060 C   0  0  0  0  0  0  0  0  0  0  0  0
  133.9720  123.4560   58.6430 C   0  0  0  0  0  0  0  0  0  0  0  0
  132.1420  122.2150   59.8960 C   0  0  0  0  0  0  0  0  0  0  0  0
  131.4590  121.9410   61.0890 C   0  0  0  0  0  0  0  0  0  0  0  0
  130.2880  120.9400   61.0630 C   0  0  0  0  0  0  0  0  0  0  0  0
  129.1340  121.5820   61.2470 F   0  0  0  0  0  0  0  0  0  0  0  0
  130.2510  120.3100   59.8880 F   0  0  0  0  0  0  0  0  0  0  0  0
  130.3850  120.0080   62.0150 F   0  0  0  0  0  0  0  0  0  0  0  0
  131.8750  122.6000   62.2740 C   0  0  0  0  0  0  0  0  0  0  0  0
  131.1950  122.3540   63.5510 C   0  0  0  0  0  0  0  0  0  0  0  0
  130.6590  122.1590   64.5570 N   0  0  0  0  0  0  0  0  0  0  0  0
  130.1020  126.4840   67.6040 C   0  0  0  0  0  0  0  0  0  0  0  0
  129.2390  126.6290   68.6860 C   0  0  0  0  0  0  0  0  0  0  0  0
  1  2  1  0
  2  3  1  0
  3  4  2  0
  4  5  1  0
  5  6  2  0
  6  7  1  0
  7  8  1  0
  8  9  2  0
  8 10  1  0
 10 11  1  0
 11 12  1  0
 12 13  2  0
 13 14  1  0
 14 15  1  0
 14 16  2  0
 16 17  1  0
 17 18  1  0
 18 19  1  0
 18 20  1  0
 18 21  1  0
 17 22  2  0
 22 23  1  0
 23 24  3  0
  6 25  1  0
 25 26  2  0
 26  3  1  0
 22 12  1  0
M  END
>  <Binding energies>  (18) 
[-6.47]

>  <Ligand effiencies>  (18) 
[-0.2396296296296296]

>  <Interactions>  (18) 
["H-A:GLU:543:OE1:4904, V-A:GLU:543:CD:4903, V-A:ASP:366:CG:3208, V-A:HIS:456:CE1:4064, V-A:ARG:545:CZ:4921, V-B:GLU:543:CG:9875, V-B:HIS:456:CD2:9035, H-A:GLU:543:OE2:4905, V-B:GLU:543:CB:9874, V-A:ILE:369:CD1:3234, V-B:HIS:456:CE1:9037, V-B:GLU:543:CD:9876, V-B:TYR:539:CE2:9844, V-B:ALA:541:CB:9860, V-A:LEU:475:CD1:4253, V-B:TYR:539:CD2:9842, V-A:LEU:475:CD2:4254, V-B:TYR:539:C:9835, V-B:GLY:544:C:9880, V-B:GLU:543:C:9870, V-B:PRO:540:C:9849, H-A:HIS:456:NE2:4065, H-A:TYR:484:OH:4343, V-B:ALA:541:CA:9858, H-A:GLY:454:N:4045, V-A:ASP:366:CB:3207, V-A:ASP:366:CA:3205, V-A:ILE:369:CB:3231, V-A:ILE:369:CG2:3232, V-A:ASP:366:C:3203, V-A:ILE:369:CG1:3233"]

$$$$
2d_Ghoteimi_2023
     RDKit          3D

 38 42  0  0  0  0  0  0  0  0999 V2000
  128.7430  129.8670   73.2550 C   0  0  0  0  0  0  0  0  0  0  0  0
  129.1750  128.5600   73.5980 O   0  0  0  0  0  0  0  0  0  0  0  0
  129.5060  127.6720   72.6370 C   0  0  0  0  0  0  0  0  0  0  0  0
  129.4550  126.4440   72.7480 O   0  0  0  0  0  0  0  0  0  0  0  0
  129.9570  128.3840   71.3520 C   0  0  0  0  0  0  0  0  0  0  0  0
  128.8550  127.9840   69.9530 S   0  0  0  0  0  0  0  0  0  0  0  0
  129.4010  126.4510   69.2300 C   0  0  0  0  0  0  0  0  0  0  0  0
  129.4870  125.4380   70.1250 N   0  0  0  0  0  0  0  0  0  0  0  0
  129.8980  124.2120   69.7130 C   0  0  0  0  0  0  0  0  0  0  0  0
  129.9860  123.1490   70.7600 C   0  0  0  0  0  0  0  0  0  0  0  0
  129.0920  122.0720   70.7590 C   0  0  0  0  0  0  0  0  0  0  0  0
  129.1670  121.0780   71.7310 C   0  0  0  0  0  0  0  0  0  0  0  0
  130.1480  121.1190   72.7340 C   0  0  0  0  0  0  0  0  0  0  0  0
  130.2270  120.1380   73.7290 N   0  0  0  0  0  0  0  0  0  0  0  0
  129.0140  119.5760   74.3560 C   0  0  0  0  0  0  0  0  0  0  0  0
  129.2950  118.8050   75.6630 C   0  0  0  0  0  0  0  0  0  0  0  0
  130.2590  117.7910   75.4280 O   0  0  0  0  0  0  0  0  0  0  0  0
  131.4870  118.3340   74.9730 C   0  0  0  0  0  0  0  0  0  0  0  0
  131.2710  119.0970   73.6490 C   0  0  0  0  0  0  0  0  0  0  0  0
  131.0330  122.2070   72.7390 C   0  0  0  0  0  0  0  0  0  0  0  0
  130.9560  123.2020   71.7690 C   0  0  0  0  0  0  0  0  0  0  0  0
  130.2310  123.9740   68.3770 C   0  0  0  0  0  0  0  0  0  0  0  0
  130.1180  124.9950   67.4250 C   0  0  0  0  0  0  0  0  0  0  0  0
  130.4630  124.6620   66.0110 C   0  0  0  0  0  0  0  0  0  0  0  0
  131.3920  125.4360   65.3130 C   0  0  0  0  0  0  0  0  0  0  0  0
  131.7300  125.1270   63.9990 C   0  0  0  0  0  0  0  0  0  0  0  0
  131.1450  124.0320   63.3430 C   0  0  0  0  0  0  0  0  0  0  0  0
  131.4790  123.6950   62.0280 N   0  0  0  0  0  0  0  0  0  0  0  0
  131.1240  122.3810   61.4570 C   0  0  0  0  0  0  0  0  0  0  0  0
  131.2460  122.3250   59.9190 C   0  0  0  0  0  0  0  0  0  0  0  0
  132.5510  122.7160   59.5210 O   0  0  0  0  0  0  0  0  0  0  0  0
  132.8530  124.0380   59.9400 C   0  0  0  0  0  0  0  0  0  0  0  0
  132.7760  124.1360   61.4790 C   0  0  0  0  0  0  0  0  0  0  0  0
  130.2270  123.2490   64.0570 C   0  0  0  0  0  0  0  0  0  0  0  0
  129.8900  123.5590   65.3720 C   0  0  0  0  0  0  0  0  0  0  0  0
  129.6860  126.2740   67.8560 C   0  0  0  0  0  0  0  0  0  0  0  0
  129.5330  127.3700   66.8940 C   0  0  0  0  0  0  0  0  0  0  0  0
  129.4140  128.2330   66.1310 N   0  0  0  0  0  0  0  0  0  0  0  0
  1  2  1  0
  2  3  1  0
  3  4  2  0
  3  5  1  0
  5  6  1  0
  6  7  1  0
  7  8  2  0
  8  9  1  0
  9 10  1  0
 10 11  2  0
 11 12  1  0
 12 13  2  0
 13 14  1  0
 14 15  1  0
 15 16  1  0
 16 17  1  0
 17 18  1  0
 18 19  1  0
 13 20  1  0
 20 21  2  0
  9 22  2  0
 22 23  1  0
 23 24  1  0
 24 25  2  0
 25 26  1  0
 26 27  2  0
 27 28  1  0
 28 29  1  0
 29 30  1  0
 30 31  1  0
 31 32  1  0
 32 33  1  0
 27 34  1  0
 34 35  2  0
 23 36  2  0
 36 37  1  0
 37 38  3  0
 36  7  1  0
 21 10  1  0
 35 24  1  0
 19 14  1  0
 33 28  1  0
M  END
>  <Binding energies>  (19) 
[-8.06]

>  <Ligand effiencies>  (19) 
[-0.21210526315789474]

>  <Interactions>  (19) 
["V-A:GLU:543:CD:4903, V-A:ASP:366:CG:3208, V-A:HIS:456:CE1:4064, V-B:GLU:543:CG:9875, V-B:HIS:456:CD2:9035, V-B:GLU:543:CB:9874, V-B:GLU:543:CD:9876, V-B:TYR:539:CE2:9844, H-B:LYS:547:NZ:9919, V-B:GLU:543:C:9870, H-A:HIS:456:NE2:4065, V-A:TYR:484:CZ:4342, V-A:HIS:456:CD2:4063, V-A:ASP:366:CB:3207, V-B:GLU:543:CA:9872, H-A:LYS:547:NZ:4946, V-A:TYR:484:CE1:4340, V-A:HIS:456:CG:4061, V-A:ASP:473:CG:4235, V-A:TYR:484:CD1:4338, V-A:TYR:484:CG:4337, V-A:TYR:484:CB:4336, V-A:ASP:473:CB:4234, V-A:TYR:484:CA:4334, V-A:TYR:484:C:4332, V-A:ASP:485:CA:4348, V-A:ASP:485:C:4346, V-A:PRO:486:N:4358, V-A:PRO:486:CD:4361"]

$$$$
2d_Grossjean_2025
     RDKit          3D

 24 25  0  0  0  0  0  0  0  0999 V2000
  133.5790  122.8520   58.0330 C   0  0  0  0  0  0  0  0  0  0  0  0
  132.8770  122.7470   59.3740 C   0  0  0  0  0  0  0  0  0  0  0  0
  132.0380  121.6770   59.6760 C   0  0  0  0  0  0  0  0  0  0  0  0
  131.4160  121.6230   60.9320 C   0  0  0  0  0  0  0  0  0  0  0  0
  130.4990  120.4260   61.2530 C   0  0  0  0  0  0  0  0  0  0  0  0
  130.8540  119.3700   60.5200 F   0  0  0  0  0  0  0  0  0  0  0  0
  130.5980  120.1080   62.5450 F   0  0  0  0  0  0  0  0  0  0  0  0
  129.2140  120.6780   60.9990 F   0  0  0  0  0  0  0  0  0  0  0  0
  131.6590  122.6720   61.8550 C   0  0  0  0  0  0  0  0  0  0  0  0
  131.0700  122.6380   63.1970 C   0  0  0  0  0  0  0  0  0  0  0  0
  130.6050  122.6100   64.2560 N   0  0  0  0  0  0  0  0  0  0  0  0
  132.5060  123.7310   61.4510 C   0  0  0  0  0  0  0  0  0  0  0  0
  132.8930  125.1410   62.4720 S   0  0  0  0  0  0  0  0  0  0  0  0
  133.6020  124.5490   64.0440 C   0  0  0  0  0  0  0  0  0  0  0  0
  132.8850  125.1150   65.2740 C   0  0  0  0  0  0  0  0  0  0  0  0
  133.5560  125.4880   66.2370 O   0  0  0  0  0  0  0  0  0  0  0  0
  131.5370  125.1290   65.2090 N   0  0  0  0  0  0  0  0  0  0  0  0
  130.6070  125.5840   66.1620 C   0  0  0  0  0  0  0  0  0  0  0  0
  130.4200  124.7640   67.2770 C   0  0  0  0  0  0  0  0  0  0  0  0
  129.5160  125.1260   68.2720 C   0  0  0  0  0  0  0  0  0  0  0  0
  128.7900  126.3080   68.1470 C   0  0  0  0  0  0  0  0  0  0  0  0
  128.9580  127.1280   67.0340 C   0  0  0  0  0  0  0  0  0  0  0  0
  129.8620  126.7690   66.0380 C   0  0  0  0  0  0  0  0  0  0  0  0
  133.1160  123.7570   60.2410 N   0  0  0  0  0  0  0  0  0  0  0  0
  1  2  1  0
  2  3  2  0
  3  4  1  0
  4  5  1  0
  5  6  1  0
  5  7  1  0
  5  8  1  0
  4  9  2  0
  9 10  1  0
 10 11  3  0
  9 12  1  0
 12 13  1  0
 13 14  1  0
 14 15  1  0
 15 16  2  0
 15 17  1  0
 17 18  1  0
 18 19  2  0
 19 20  1  0
 20 21  2  0
 21 22  1  0
 22 23  2  0
 12 24  2  0
 24  2  1  0
 23 18  1  0
M  END
>  <Binding energies>  (20) 
[-6.06]

>  <Ligand effiencies>  (20) 
[-0.24239999999999998]

>  <Interactions>  (20) 
["V-A:GLU:543:CD:4903, V-B:TYR:539:CZ:9845, V-A:HIS:456:CE1:4064, V-A:ARG:545:CZ:4921, V-B:GLU:543:CG:9875, V-B:GLU:543:CB:9874, V-A:ILE:369:CD1:3234, H-A:ARG:545:NH2:4923, V-B:TYR:539:CE2:9844, V-B:ALA:541:CB:9860, V-A:TRP:381:CZ2:3365, V-A:LEU:475:CD1:4253, V-A:LEU:475:CG:4252, V-B:TYR:539:CD2:9842, V-A:TRP:381:CH2:3367, V-A:LEU:475:CD2:4254, V-A:TRP:381:CZ3:3366, V-B:TYR:539:C:9835, V-B:GLU:543:C:9870, V-B:PRO:540:C:9849, H-A:HIS:456:NE2:4065, H-A:TYR:484:OH:4343, V-B:ALA:541:CA:9858, V-A:TYR:484:CZ:4342, V-B:GLU:543:CA:9872, V-A:TYR:484:CE1:4340, V-A:ILE:369:CB:3231, V-A:ILE:369:CG2:3232, H-A:ARG:545:NE:4919"]

$$$$
2e_Grossjean_2025
     RDKit          3D

 25 26  0  0  0  0  0  0  0  0999 V2000
  129.9010  123.6310   68.8730 C   0  0  0  0  0  0  0  0  0  0  0  0
  129.8410  124.8970   68.0390 C   0  0  0  0  0  0  0  0  0  0  0  0
  129.0050  125.9620   68.3840 C   0  0  0  0  0  0  0  0  0  0  0  0
  129.0120  127.0990   67.5750 C   0  0  0  0  0  0  0  0  0  0  0  0
  129.8430  127.1450   66.4540 C   0  0  0  0  0  0  0  0  0  0  0  0
  130.6490  126.0380   66.1600 C   0  0  0  0  0  0  0  0  0  0  0  0
  131.4970  126.1540   65.0460 N   0  0  0  0  0  0  0  0  0  0  0  0
  131.3500  125.5960   63.8240 C   0  0  0  0  0  0  0  0  0  0  0  0
  130.3760  124.9330   63.4630 O   0  0  0  0  0  0  0  0  0  0  0  0
  132.5230  125.7870   62.8580 C   0  0  0  0  0  0  0  0  0  0  0  0
  133.6310  124.3420   62.8330 S   0  0  0  0  0  0  0  0  0  0  0  0
  132.9640  123.2530   61.5930 C   0  0  0  0  0  0  0  0  0  0  0  0
  133.4770  123.4300   60.3510 N   0  0  0  0  0  0  0  0  0  0  0  0
  132.9930  122.6740   59.3390 C   0  0  0  0  0  0  0  0  0  0  0  0
  133.6110  122.9230   57.9770 C   0  0  0  0  0  0  0  0  0  0  0  0
  131.9850  121.7280   59.5220 C   0  0  0  0  0  0  0  0  0  0  0  0
  131.4380  121.5400   60.7990 C   0  0  0  0  0  0  0  0  0  0  0  0
  130.3110  120.5060   60.9810 C   0  0  0  0  0  0  0  0  0  0  0  0
  129.1420  121.1270   61.1450 F   0  0  0  0  0  0  0  0  0  0  0  0
  130.2370  119.7200   59.9070 F   0  0  0  0  0  0  0  0  0  0  0  0
  130.4990  119.7200   62.0430 F   0  0  0  0  0  0  0  0  0  0  0  0
  131.9380  122.3210   61.8710 C   0  0  0  0  0  0  0  0  0  0  0  0
  131.3870  122.1930   63.2240 C   0  0  0  0  0  0  0  0  0  0  0  0
  130.9510  122.0920   64.2910 N   0  0  0  0  0  0  0  0  0  0  0  0
  130.6540  124.9250   66.9510 N   0  0  0  0  0  0  0  0  0  0  0  0
  1  2  1  0
  2  3  2  0
  3  4  1  0
  4  5  2  0
  5  6  1  0
  6  7  1  0
  7  8  1  0
  8  9  2  0
  8 10  1  0
 10 11  1  0
 11 12  1  0
 12 13  2  0
 13 14  1  0
 14 15  1  0
 14 16  2  0
 16 17  1  0
 17 18  1  0
 18 19  1  0
 18 20  1  0
 18 21  1  0
 17 22  2  0
 22 23  1  0
 23 24  3  0
  6 25  2  0
 25  2  1  0
 22 12  1  0
M  END
>  <Binding energies>  (21) 
[-6.65]

>  <Ligand effiencies>  (21) 
[-0.2557692307692308]

>  <Interactions>  (21) 
["H-A:GLU:543:OE1:4904, V-A:GLU:543:CD:4903, V-A:ASP:366:CG:3208, V-B:TYR:539:CZ:9845, V-A:HIS:456:CE1:4064, V-A:ARG:545:CZ:4921, V-B:GLU:543:CG:9875, H-A:GLU:543:OE2:4905, V-B:GLU:543:CB:9874, V-A:ILE:369:CD1:3234, V-B:TYR:539:CE2:9844, V-B:ALA:541:CB:9860, V-A:LEU:475:CD1:4253, V-A:LEU:475:CG:4252, V-B:TYR:539:CD2:9842, V-A:TRP:381:CH2:3367, V-A:LEU:475:CD2:4254, V-B:TYR:539:CG:9840, V-B:TYR:539:C:9835, V-B:GLU:543:C:9870, V-B:PRO:540:C:9849, H-A:HIS:456:NE2:4065, H-A:TYR:484:OH:4343, V-B:ALA:541:CA:9858, V-A:TYR:484:CZ:4342, H-A:GLY:454:N:4045, V-B:GLU:543:CA:9872, V-A:TYR:484:CE1:4340, V-A:ILE:369:CB:3231, V-A:ILE:369:CG2:3232, V-A:TYR:484:CD1:4338"]

$$$$
2f_Grossjean_2025
     RDKit          3D

 24 25  0  0  0  0  0  0  0  0999 V2000
  133.2460  120.0990   60.4920 C   0  0  0  0  0  0  0  0  0  0  0  0
  132.4070  121.2330   59.9330 C   0  0  0  0  0  0  0  0  0  0  0  0
  132.9510  122.1920   59.0810 C   0  0  0  0  0  0  0  0  0  0  0  0
  132.1360  123.2270   58.5970 C   0  0  0  0  0  0  0  0  0  0  0  0
  132.7590  124.2850   57.6660 C   0  0  0  0  0  0  0  0  0  0  0  0
  133.9840  123.9050   57.2960 F   0  0  0  0  0  0  0  0  0  0  0  0
  132.0050  124.4330   56.5770 F   0  0  0  0  0  0  0  0  0  0  0  0
  132.8700  125.4820   58.2450 F   0  0  0  0  0  0  0  0  0  0  0  0
  130.7730  123.2570   58.9890 C   0  0  0  0  0  0  0  0  0  0  0  0
  129.8960  124.3480   58.5560 C   0  0  0  0  0  0  0  0  0  0  0  0
  129.2040  125.2100   58.2130 N   0  0  0  0  0  0  0  0  0  0  0  0
  130.3010  122.2260   59.8360 C   0  0  0  0  0  0  0  0  0  0  0  0
  128.6220  122.0990   60.4170 S   0  0  0  0  0  0  0  0  0  0  0  0
  128.5840  122.6340   62.1620 C   0  0  0  0  0  0  0  0  0  0  0  0
  129.9580  122.7360   62.8410 C   0  0  0  0  0  0  0  0  0  0  0  0
  130.6930  121.7510   62.9220 O   0  0  0  0  0  0  0  0  0  0  0  0
  130.2490  123.9590   63.3340 N   0  0  0  0  0  0  0  0  0  0  0  0
  131.4070  124.4030   64.0000 C   0  0  0  0  0  0  0  0  0  0  0  0
  131.4290  125.1910   65.1650 C   0  0  0  0  0  0  0  0  0  0  0  0
  132.6520  125.5600   65.7290 C   0  0  0  0  0  0  0  0  0  0  0  0
  133.8270  125.1260   65.1140 C   0  0  0  0  0  0  0  0  0  0  0  0
  133.8340  124.3590   63.9950 N   0  0  0  0  0  0  0  0  0  0  0  0
  132.6370  124.0080   63.4600 C   0  0  0  0  0  0  0  0  0  0  0  0
  131.1090  121.2470   60.3120 N   0  0  0  0  0  0  0  0  0  0  0  0
  1  2  1  0
  2  3  2  0
  3  4  1  0
  4  5  1  0
  5  6  1  0
  5  7  1  0
  5  8  1  0
  4  9  2  0
  9 10  1  0
 10 11  3  0
  9 12  1  0
 12 13  1  0
 13 14  1  0
 14 15  1  0
 15 16  2  0
 15 17  1  0
 17 18  1  0
 18 19  2  0
 19 20  1  0
 20 21  2  0
 21 22  1  0
 22 23  2  0
 12 24  2  0
 24  2  1  0
 23 18  1  0
M  END
>  <Binding energies>  (22) 
[-5.89]

>  <Ligand effiencies>  (22) 
[-0.23559999999999998]

>  <Interactions>  (22) 
["V-A:ASP:366:CG:3208, V-B:TYR:539:CZ:9845, V-A:ARG:545:CZ:4921, V-A:ILE:369:CD1:3234, V-B:GLU:543:CD:9876, V-B:TYR:539:CE2:9844, V-B:ALA:541:CB:9860, V-A:TRP:381:CZ2:3365, V-B:TYR:539:CD2:9842, V-A:TRP:381:CH2:3367, V-A:LEU:475:CD2:4254, H-A:TYR:484:OH:4343, H-B:ALA:541:N:9859, H-B:GLU:543:OE2:9878, V-A:TYR:531:CZ:4789, V-B:ALA:541:CA:9858, V-A:ARG:545:CD:4918, H-A:GLY:454:N:4045, V-A:ASP:366:CB:3207, V-A:ASP:366:CA:3205, V-A:ILE:369:CB:3231, V-A:ILE:369:CG2:3232, V-A:ASP:366:C:3203, V-A:TYR:531:CE1:4787"]

$$$$
2g_Grossjean_2025
     RDKit          3D

 25 26  0  0  0  0  0  0  0  0999 V2000
  133.9830  123.2100   58.3740 C   0  0  0  0  0  0  0  0  0  0  0  0
  133.2160  122.9650   59.6600 C   0  0  0  0  0  0  0  0  0  0  0  0
  132.1930  122.0230   59.7300 C   0  0  0  0  0  0  0  0  0  0  0  0
  131.5080  121.8390   60.9410 C   0  0  0  0  0  0  0  0  0  0  0  0
  130.3710  120.7990   60.9980 C   0  0  0  0  0  0  0  0  0  0  0  0
  129.1950  121.4080   61.1540 F   0  0  0  0  0  0  0  0  0  0  0  0
  130.3470  120.0950   59.8660 F   0  0  0  0  0  0  0  0  0  0  0  0
  130.5110  119.9360   62.0070 F   0  0  0  0  0  0  0  0  0  0  0  0
  131.8900  122.6180   62.0630 C   0  0  0  0  0  0  0  0  0  0  0  0
  131.1700  122.5060   63.3340 C   0  0  0  0  0  0  0  0  0  0  0  0
  130.6010  122.4160   64.3380 N   0  0  0  0  0  0  0  0  0  0  0  0
  132.9630  123.5290   61.9050 C   0  0  0  0  0  0  0  0  0  0  0  0
  133.5870  124.5640   63.2120 S   0  0  0  0  0  0  0  0  0  0  0  0
  132.2070  125.6120   63.7870 C   0  0  0  0  0  0  0  0  0  0  0  0
  131.8000  125.3910   65.2500 C   0  0  0  0  0  0  0  0  0  0  0  0
  132.6390  125.3480   66.1510 O   0  0  0  0  0  0  0  0  0  0  0  0
  130.4800  125.2440   65.4660 N   0  0  0  0  0  0  0  0  0  0  0  0
  129.8510  125.0310   66.7710 C   0  0  0  0  0  0  0  0  0  0  0  0
  129.6090  126.3080   67.5680 C   0  0  0  0  0  0  0  0  0  0  0  0
  130.6100  127.2820   67.6430 C   0  0  0  0  0  0  0  0  0  0  0  0
  130.3770  128.4660   68.3390 C   0  0  0  0  0  0  0  0  0  0  0  0
  129.1430  128.6770   68.9480 C   0  0  0  0  0  0  0  0  0  0  0  0
  128.1370  127.7150   68.8660 C   0  0  0  0  0  0  0  0  0  0  0  0
  128.3680  126.5320   68.1710 C   0  0  0  0  0  0  0  0  0  0  0  0
  133.5980  123.7110   60.7210 N   0  0  0  0  0  0  0  0  0  0  0  0
  1  2  1  0
  2  3  2  0
  3  4  1  0
  4  5  1  0
  5  6  1  0
  5  7  1  0
  5  8  1  0
  4  9  2  0
  9 10  1  0
 10 11  3  0
  9 12  1  0
 12 13  1  0
 13 14  1  0
 14 15  1  0
 15 16  2  0
 15 17  1  0
 17 18  1  0
 18 19  1  0
 19 20  2  0
 20 21  1  0
 21 22  2  0
 22 23  1  0
 23 24  2  0
 12 25  2  0
 25  2  1  0
 24 19  1  0
M  END
>  <Binding energies>  (23) 
[-6.76]

>  <Ligand effiencies>  (23) 
[-0.26]

>  <Interactions>  (23) 
["V-A:GLU:543:CD:4903, V-A:HIS:456:CE1:4064, V-A:ARG:545:CZ:4921, V-A:GLU:543:CB:4901, V-B:GLU:543:CG:9875, V-B:GLU:543:CB:9874, V-A:ILE:369:CD1:3234, V-B:HIS:456:CE1:9037, V-B:TYR:539:CE2:9844, V-B:ALA:541:CB:9860, V-A:LEU:475:CD1:4253, V-A:LEU:475:CG:4252, V-B:TYR:539:CD2:9842, V-A:LEU:475:CD2:4254, V-B:TYR:539:CG:9840, V-B:TYR:539:C:9835, V-A:GLU:543:CG:4902, V-B:GLU:543:C:9870, V-B:PRO:540:C:9849, H-A:HIS:456:NE2:4065, H-A:TYR:484:OH:4343, H-B:GLU:543:OE2:9878, V-B:ALA:541:CA:9858, H-A:GLY:454:N:4045, V-A:ASP:366:CB:3207, V-A:ASP:366:CA:3205, V-A:ILE:369:CB:3231, V-A:ILE:369:CG2:3232, V-A:ASP:366:C:3203, V-A:ILE:369:CG1:3233"]

$$$$
2h_Grossjean_2025
     RDKit          3D

 31 32  0  0  0  0  0  0  0  0999 V2000
  128.2930  127.6800   70.2480 C   0  0  0  0  0  0  0  0  0  0  0  0
  127.5880  126.9640   69.2410 O   0  0  0  0  0  0  0  0  0  0  0  0
  128.0220  127.0320   67.9290 C   0  0  0  0  0  0  0  0  0  0  0  0
  127.3680  127.7620   66.9240 C   0  0  0  0  0  0  0  0  0  0  0  0
  127.8700  127.7900   65.6250 C   0  0  0  0  0  0  0  0  0  0  0  0
  129.0340  127.0910   65.3010 C   0  0  0  0  0  0  0  0  0  0  0  0
  129.5770  127.1530   63.8740 C   0  0  0  0  0  0  0  0  0  0  0  0
  130.9760  126.7390   63.7600 N   0  0  0  0  0  0  0  0  0  0  0  0
  131.4900  126.0360   62.7360 C   0  0  0  0  0  0  0  0  0  0  0  0
  130.8070  125.5900   61.8120 O   0  0  0  0  0  0  0  0  0  0  0  0
  133.0100  125.8210   62.7770 C   0  0  0  0  0  0  0  0  0  0  0  0
  133.5370  124.1100   63.1270 S   0  0  0  0  0  0  0  0  0  0  0  0
  132.8660  123.0900   61.8320 C   0  0  0  0  0  0  0  0  0  0  0  0
  133.4660  123.2690   60.6290 N   0  0  0  0  0  0  0  0  0  0  0  0
  133.0210  122.5580   59.5700 C   0  0  0  0  0  0  0  0  0  0  0  0
  133.7340  122.8150   58.2560 C   0  0  0  0  0  0  0  0  0  0  0  0
  131.9740  121.6430   59.6650 C   0  0  0  0  0  0  0  0  0  0  0  0
  131.3540  121.4280   60.9050 C   0  0  0  0  0  0  0  0  0  0  0  0
  130.2050  120.4060   60.9920 C   0  0  0  0  0  0  0  0  0  0  0  0
  130.2480  119.5830   59.9440 F   0  0  0  0  0  0  0  0  0  0  0  0
  130.2640  119.6540   62.0940 F   0  0  0  0  0  0  0  0  0  0  0  0
  129.0300  121.0360   60.9990 F   0  0  0  0  0  0  0  0  0  0  0  0
  131.8150  122.1620   62.0280 C   0  0  0  0  0  0  0  0  0  0  0  0
  131.2410  121.9320   63.3570 C   0  0  0  0  0  0  0  0  0  0  0  0
  130.7880  121.7470   64.4050 N   0  0  0  0  0  0  0  0  0  0  0  0
  129.6850  126.3380   66.2890 C   0  0  0  0  0  0  0  0  0  0  0  0
  130.8310  125.6440   65.9770 O   0  0  0  0  0  0  0  0  0  0  0  0
  132.0210  126.2060   66.5140 C   0  0  0  0  0  0  0  0  0  0  0  0
  129.1880  126.3270   67.6030 C   0  0  0  0  0  0  0  0  0  0  0  0
  129.8340  125.6050   68.5780 O   0  0  0  0  0  0  0  0  0  0  0  0
  129.8500  124.2030   68.3480 C   0  0  0  0  0  0  0  0  0  0  0  0
  1  2  1  0
  2  3  1  0
  3  4  2  0
  4  5  1  0
  5  6  2  0
  6  7  1  0
  7  8  1  0
  8  9  1  0
  9 10  2  0
  9 11  1  0
 11 12  1  0
 12 13  1  0
 13 14  2  0
 14 15  1  0
 15 16  1  0
 15 17  2  0
 17 18  1  0
 18 19  1  0
 19 20  1  0
 19 21  1  0
 19 22  1  0
 18 23  2  0
 23 24  1  0
 24 25  3  0
  6 26  1  0
 26 27  1  0
 27 28  1  0
 26 29  2  0
 29 30  1  0
 30 31  1  0
 29  3  1  0
 23 13  1  0
M  END
>  <Binding energies>  (24) 
[-5.47]

>  <Ligand effiencies>  (24) 
[-0.1709375]

>  <Interactions>  (24) 
["H-A:GLU:543:OE1:4904, V-A:GLU:543:CD:4903, V-A:ASP:366:CG:3208, V-A:HIS:456:CE1:4064, V-A:ARG:545:CZ:4921, V-B:GLU:543:CG:9875, V-B:HIS:456:CD2:9035, H-A:GLU:543:OE2:4905, V-B:GLU:543:CB:9874, V-A:ILE:369:CD1:3234, V-B:HIS:456:CE1:9037, V-B:GLU:543:CD:9876, V-B:TYR:539:CE2:9844, V-B:ALA:541:CB:9860, V-A:LEU:475:CD1:4253, V-A:LEU:475:CG:4252, V-B:TYR:539:CD2:9842, V-A:TRP:381:CH2:3367, V-A:LEU:475:CD2:4254, V-B:TYR:539:CG:9840, V-B:TYR:539:C:9835, V-B:GLU:543:C:9870, V-B:PRO:540:CA:9851, V-B:PRO:540:C:9849, H-A:HIS:456:NE2:4065, H-A:TYR:484:OH:4343, V-B:ALA:541:CA:9858, V-A:TYR:484:CZ:4342, H-A:GLY:454:N:4045, V-B:GLU:543:CA:9872, V-A:TYR:484:CE1:4340, V-A:ARG:545:CG:4917, V-A:ILE:369:CB:3231, V-A:ILE:369:CG2:3232"]

$$$$
2i_Grossjean_2025
     RDKit          3D

 23 24  0  0  0  0  0  0  0  0999 V2000
  126.8390  129.7450   64.8060 C   0  0  0  0  0  0  0  0  0  0  0  0
  127.8000  128.6370   65.1940 C   0  0  0  0  0  0  0  0  0  0  0  0
  128.6650  128.0630   64.2670 C   0  0  0  0  0  0  0  0  0  0  0  0
  129.5360  127.0420   64.6760 C   0  0  0  0  0  0  0  0  0  0  0  0
  130.4860  126.4170   63.6360 C   0  0  0  0  0  0  0  0  0  0  0  0
  130.3340  127.0230   62.4580 F   0  0  0  0  0  0  0  0  0  0  0  0
  131.7520  126.5520   64.0330 F   0  0  0  0  0  0  0  0  0  0  0  0
  130.2620  125.1140   63.4500 F   0  0  0  0  0  0  0  0  0  0  0  0
  129.5050  126.6280   66.0320 C   0  0  0  0  0  0  0  0  0  0  0  0
  130.3950  125.5670   66.5140 C   0  0  0  0  0  0  0  0  0  0  0  0
  131.0970  124.7300   66.8950 N   0  0  0  0  0  0  0  0  0  0  0  0
  128.5930  127.2650   66.9060 C   0  0  0  0  0  0  0  0  0  0  0  0
  128.4600  126.8220   68.6300 S   0  0  0  0  0  0  0  0  0  0  0  0
  129.6770  127.8010   69.5610 C   0  0  0  0  0  0  0  0  0  0  0  0
  129.2300  128.0650   71.0010 C   0  0  0  0  0  0  0  0  0  0  0  0
  128.6820  127.1600   71.6330 O   0  0  0  0  0  0  0  0  0  0  0  0
  129.4540  129.3120   71.4660 N   0  0  0  0  0  0  0  0  0  0  0  0
  129.1270  129.7980   72.7210 C   0  0  0  0  0  0  0  0  0  0  0  0
  128.8100  131.1010   73.1310 C   0  0  0  0  0  0  0  0  0  0  0  0
  128.5700  130.9950   74.4810 C   0  0  0  0  0  0  0  0  0  0  0  0
  128.7250  129.7030   74.8590 O   0  0  0  0  0  0  0  0  0  0  0  0
  129.0730  128.9570   73.7310 N   0  0  0  0  0  0  0  0  0  0  0  0
  127.7590  128.2520   66.4890 N   0  0  0  0  0  0  0  0  0  0  0  0
  1  2  1  0
  2  3  2  0
  3  4  1  0
  4  5  1  0
  5  6  1  0
  5  7  1  0
  5  8  1  0
  4  9  2  0
  9 10  1  0
 10 11  3  0
  9 12  1  0
 12 13  1  0
 13 14  1  0
 14 15  1  0
 15 16  2  0
 15 17  1  0
 17 18  1  0
 18 19  1  0
 19 20  2  0
 20 21  1  0
 21 22  1  0
 12 23  2  0
 23  2  1  0
 22 18  2  0
M  END
>  <Binding energies>  (25) 
[-5.92]

>  <Ligand effiencies>  (25) 
[-0.24666666666666667]

>  <Interactions>  (25) 
["V-A:GLU:543:CD:4903, V-A:HIS:456:CE1:4064, V-A:ARG:545:CZ:4921, V-B:GLU:543:CG:9875, V-B:HIS:456:CD2:9035, V-B:GLU:543:CB:9874, V-B:GLU:543:CD:9876, H-B:HIS:456:NE2:9038, H-B:LYS:547:NZ:9919, H-A:HIS:456:NE2:4065, H-A:TYR:484:OH:4343, H-A:LYS:547:NZ:4946, H-A:GLU:543:O:4898"]

$$$$
2k_Grossjean_2025
     RDKit          3D

 28 28  0  0  0  0  0  0  0  0999 V2000
  129.5530  124.6670   71.9990 C   0  0  0  0  0  0  0  0  0  0  0  0
  128.7600  125.8440   72.0170 O   0  0  0  0  0  0  0  0  0  0  0  0
  129.2930  126.8990   71.2280 C   0  0  0  0  0  0  0  0  0  0  0  0
  128.7370  126.8110   69.8010 C   0  0  0  0  0  0  0  0  0  0  0  0
  129.4880  125.8530   69.0690 O   0  0  0  0  0  0  0  0  0  0  0  0
  129.4280  126.0170   67.6580 C   0  0  0  0  0  0  0  0  0  0  0  0
  130.7830  126.5480   67.1730 C   0  0  0  0  0  0  0  0  0  0  0  0
  131.4590  125.4830   66.5220 O   0  0  0  0  0  0  0  0  0  0  0  0
  131.5690  125.6100   65.1120 C   0  0  0  0  0  0  0  0  0  0  0  0
  130.9810  124.3490   64.4500 C   0  0  0  0  0  0  0  0  0  0  0  0
  131.7850  123.8670   63.3240 N   0  0  0  0  0  0  0  0  0  0  0  0
  133.1300  123.8000   63.2930 C   0  0  0  0  0  0  0  0  0  0  0  0
  133.8460  124.1180   64.2440 O   0  0  0  0  0  0  0  0  0  0  0  0
  133.7420  123.3150   61.9710 C   0  0  0  0  0  0  0  0  0  0  0  0
  132.7020  123.5610   60.4900 S   0  0  0  0  0  0  0  0  0  0  0  0
  131.2040  122.5980   60.6490 C   0  0  0  0  0  0  0  0  0  0  0  0
  130.0530  123.3110   60.7400 N   0  0  0  0  0  0  0  0  0  0  0  0
  128.8820  122.6470   60.8680 C   0  0  0  0  0  0  0  0  0  0  0  0
  127.6430  123.5140   60.9750 C   0  0  0  0  0  0  0  0  0  0  0  0
  128.8060  121.2580   60.8980 C   0  0  0  0  0  0  0  0  0  0  0  0
  129.9830  120.5000   60.7970 C   0  0  0  0  0  0  0  0  0  0  0  0
  129.8800  118.9630   60.8260 C   0  0  0  0  0  0  0  0  0  0  0  0
  130.3310  118.3930   59.7070 F   0  0  0  0  0  0  0  0  0  0  0  0
  130.5960  118.4760   61.8410 F   0  0  0  0  0  0  0  0  0  0  0  0
  128.6080  118.5930   60.9790 F   0  0  0  0  0  0  0  0  0  0  0  0
  131.2190  121.1830   60.6700 C   0  0  0  0  0  0  0  0  0  0  0  0
  132.4800  120.4420   60.5650 C   0  0  0  0  0  0  0  0  0  0  0  0
  133.4750  119.8560   60.4810 N   0  0  0  0  0  0  0  0  0  0  0  0
  1  2  1  0
  2  3  1  0
  3  4  1  0
  4  5  1  0
  5  6  1  0
  6  7  1  0
  7  8  1  0
  8  9  1  0
  9 10  1  0
 10 11  1  0
 11 12  1  0
 12 13  2  0
 12 14  1  0
 14 15  1  0
 15 16  1  0
 16 17  2  0
 17 18  1  0
 18 19  1  0
 18 20  2  0
 20 21  1  0
 21 22  1  0
 22 23  1  0
 22 24  1  0
 22 25  1  0
 21 26  2  0
 26 27  1  0
 27 28  3  0
 26 16  1  0
M  END
>  <Binding energies>  (26) 
[-5.46]

>  <Ligand effiencies>  (26) 
[-0.18827586206896552]

>  <Interactions>  (26) 
["V-A:HIS:456:CE1:4064, V-B:GLU:543:CG:9875, V-B:GLU:543:CB:9874, V-A:ILE:369:CD1:3234, V-B:GLU:543:CD:9876, V-B:TYR:539:CE2:9844, V-B:ALA:541:CB:9860, V-A:TRP:381:CZ2:3365, V-A:LEU:475:CD1:4253, V-A:LEU:475:CG:4252, V-B:TYR:539:CD2:9842, V-A:PRO:482:CG:4322, V-A:TRP:381:CH2:3367, V-A:LEU:475:CD2:4254, V-A:PRO:482:CB:4321, V-A:TRP:381:CE2:3362, V-B:TYR:539:CG:9840, V-A:TRP:381:CZ3:3366, V-B:TYR:539:C:9835, H-B:LYS:547:NZ:9919, V-B:PRO:540:CA:9851, V-B:PRO:540:C:9849, H-A:HIS:456:NE2:4065, H-A:TYR:484:OH:4343, V-B:ALA:541:CA:9858, V-A:TRP:381:CE3:3363, H-A:GLY:454:N:4045, V-B:TYR:539:CB:9839, V-A:TRP:381:CD2:3360"]

$$$$
3aa_Grossjean_2025
     RDKit          3D

 34 36  0  0  0  0  0  0  0  0999 V2000
  130.3280  132.6630   72.9960 C   0  0  0  0  0  0  0  0  0  0  0  0
  129.2930  131.5360   72.9130 C   0  0  0  0  0  0  0  0  0  0  0  0
  129.8400  130.3490   73.4750 O   0  0  0  0  0  0  0  0  0  0  0  0
  129.2470  129.1440   73.2740 C   0  0  0  0  0  0  0  0  0  0  0  0
  128.7040  128.4950   74.1720 O   0  0  0  0  0  0  0  0  0  0  0  0
  129.3330  128.6700   71.8510 C   0  0  0  0  0  0  0  0  0  0  0  0
  130.4450  128.9460   71.0410 C   0  0  0  0  0  0  0  0  0  0  0  0
  130.4940  128.4870   69.7270 C   0  0  0  0  0  0  0  0  0  0  0  0
  129.4390  127.7410   69.1990 C   0  0  0  0  0  0  0  0  0  0  0  0
  129.5910  127.3230   67.8620 N   0  0  0  0  0  0  0  0  0  0  0  0
  128.6910  127.3180   66.8540 C   0  0  0  0  0  0  0  0  0  0  0  0
  127.5160  127.6780   66.9440 O   0  0  0  0  0  0  0  0  0  0  0  0
  129.2090  126.8070   65.5090 C   0  0  0  0  0  0  0  0  0  0  0  0
  130.8960  126.1420   65.6450 S   0  0  0  0  0  0  0  0  0  0  0  0
  131.2340  125.2650   64.1350 C   0  0  0  0  0  0  0  0  0  0  0  0
  130.1410  125.0870   63.3540 N   0  0  0  0  0  0  0  0  0  0  0  0
  130.2590  124.4300   62.1710 C   0  0  0  0  0  0  0  0  0  0  0  0
  129.0080  124.2870   61.3580 C   0  0  0  0  0  0  0  0  0  0  0  0
  128.4960  123.0160   61.0520 C   0  0  0  0  0  0  0  0  0  0  0  0
  127.3330  122.8750   60.2980 C   0  0  0  0  0  0  0  0  0  0  0  0
  126.6670  124.0060   59.8390 C   0  0  0  0  0  0  0  0  0  0  0  0
  127.1520  125.2760   60.1310 C   0  0  0  0  0  0  0  0  0  0  0  0
  128.3130  125.4140   60.8870 C   0  0  0  0  0  0  0  0  0  0  0  0
  131.4960  123.9390   61.7420 C   0  0  0  0  0  0  0  0  0  0  0  0
  132.6380  124.0960   62.5420 C   0  0  0  0  0  0  0  0  0  0  0  0
  133.9800  123.5310   62.0390 C   0  0  0  0  0  0  0  0  0  0  0  0
  134.2430  122.3130   62.5210 F   0  0  0  0  0  0  0  0  0  0  0  0
  133.9720  123.4390   60.7090 F   0  0  0  0  0  0  0  0  0  0  0  0
  134.9780  124.3330   62.4100 F   0  0  0  0  0  0  0  0  0  0  0  0
  132.5070  124.7670   63.7820 C   0  0  0  0  0  0  0  0  0  0  0  0
  133.6540  124.9090   64.6840 C   0  0  0  0  0  0  0  0  0  0  0  0
  134.5590  125.0200   65.3970 N   0  0  0  0  0  0  0  0  0  0  0  0
  128.3180  127.4730   69.9980 C   0  0  0  0  0  0  0  0  0  0  0  0
  128.2700  127.9340   71.3100 C   0  0  0  0  0  0  0  0  0  0  0  0
  1  2  1  0
  2  3  1  0
  3  4  1  0
  4  5  2  0
  4  6  1  0
  6  7  2  0
  7  8  1  0
  8  9  2  0
  9 10  1  0
 10 11  1  0
 11 12  2  0
 11 13  1  0
 13 14  1  0
 14 15  1  0
 15 16  2  0
 16 17  1  0
 17 18  1  0
 18 19  2  0
 19 20  1  0
 20 21  2  0
 21 22  1  0
 22 23  2  0
 17 24  2  0
 24 25  1  0
 25 26  1  0
 26 27  1  0
 26 28  1  0
 26 29  1  0
 25 30  2  0
 30 31  1  0
 31 32  3  0
  9 33  1  0
 33 34  2  0
 34  6  1  0
 30 15  1  0
 23 18  1  0
M  END
>  <Binding energies>  (27) 
[-6.98]

>  <Ligand effiencies>  (27) 
[-0.19942857142857143]

>  <Interactions>  (27) 
["H-A:GLU:543:OE1:4904, V-A:ASP:366:CG:3208, V-A:HIS:456:CE1:4064, V-A:ARG:545:CZ:4921, V-A:GLU:543:CB:4901, V-B:GLU:543:CG:9875, V-B:HIS:456:CD2:9035, V-B:GLU:543:CB:9874, V-A:ILE:369:CD1:3234, V-B:HIS:456:CE1:9037, V-B:GLU:543:CD:9876, V-A:LEU:475:CD2:4254, H-B:LYS:547:NZ:9919, V-B:PRO:540:CA:9851, V-B:PRO:540:C:9849, H-A:TYR:484:OH:4343, V-A:GLY:454:CA:4044, V-A:GLY:453:C:4037, V-A:GLY:453:CA:4039, H-A:GLY:454:N:4045, V-A:GLY:544:CA:4909, V-A:LYS:547:CE:4945, H-A:LYS:547:NZ:4946, V-A:GLU:543:C:4897, V-A:GLY:544:C:4907, H-A:ARG:545:NE:4919, H-A:ARG:545:NH1:4922"]

$$$$
3ad_Grossjean_2025
     RDKit          3D

 29 31  0  0  0  0  0  0  0  0999 V2000
  130.7590  128.0180   61.0690 N   0  0  0  0  0  0  0  0  0  0  0  0
  130.3480  127.9050   62.1440 C   0  0  0  0  0  0  0  0  0  0  0  0
  129.8290  127.7570   63.5080 C   0  0  0  0  0  0  0  0  0  0  0  0
  130.2600  126.6910   64.3350 C   0  0  0  0  0  0  0  0  0  0  0  0
  131.3140  125.6610   63.8840 C   0  0  0  0  0  0  0  0  0  0  0  0
  132.4770  126.2230   63.5480 F   0  0  0  0  0  0  0  0  0  0  0  0
  131.5550  124.7960   64.8710 F   0  0  0  0  0  0  0  0  0  0  0  0
  130.8730  124.9900   62.8190 F   0  0  0  0  0  0  0  0  0  0  0  0
  129.6980  126.5680   65.6150 C   0  0  0  0  0  0  0  0  0  0  0  0
  128.7330  127.4790   66.0550 C   0  0  0  0  0  0  0  0  0  0  0  0
  128.0900  127.3850   67.4070 C   0  0  0  0  0  0  0  0  0  0  0  0
  126.7300  127.0610   67.5330 C   0  0  0  0  0  0  0  0  0  0  0  0
  126.1270  126.9700   68.7840 C   0  0  0  0  0  0  0  0  0  0  0  0
  126.8800  127.2040   69.9320 C   0  0  0  0  0  0  0  0  0  0  0  0
  128.2290  127.5250   69.8340 C   0  0  0  0  0  0  0  0  0  0  0  0
  128.8290  127.6130   68.5800 C   0  0  0  0  0  0  0  0  0  0  0  0
  128.3190  128.4960   65.2570 N   0  0  0  0  0  0  0  0  0  0  0  0
  128.8620  128.6480   64.0250 C   0  0  0  0  0  0  0  0  0  0  0  0
  128.2110  130.0370   63.1250 S   0  0  0  0  0  0  0  0  0  0  0  0
  129.3640  131.4230   63.3650 C   0  0  0  0  0  0  0  0  0  0  0  0
  130.1000  131.7910   62.0750 C   0  0  0  0  0  0  0  0  0  0  0  0
  129.8850  132.8860   61.5540 O   0  0  0  0  0  0  0  0  0  0  0  0
  130.9490  130.8520   61.6040 N   0  0  0  0  0  0  0  0  0  0  0  0
  131.7790  130.8760   60.4680 C   0  0  0  0  0  0  0  0  0  0  0  0
  131.1290  131.0890   59.2480 C   0  0  0  0  0  0  0  0  0  0  0  0
  131.8560  131.1270   58.0610 C   0  0  0  0  0  0  0  0  0  0  0  0
  133.2360  130.9470   58.0920 C   0  0  0  0  0  0  0  0  0  0  0  0
  133.8950  130.7280   59.2980 C   0  0  0  0  0  0  0  0  0  0  0  0
  133.1720  130.6890   60.4880 C   0  0  0  0  0  0  0  0  0  0  0  0
  1  2  3  0
  2  3  1  0
  3  4  2  0
  4  5  1  0
  5  6  1  0
  5  7  1  0
  5  8  1  0
  4  9  1  0
  9 10  2  0
 10 11  1  0
 11 12  2  0
 12 13  1  0
 13 14  2  0
 14 15  1  0
 15 16  2  0
 10 17  1  0
 17 18  2  0
 18 19  1  0
 19 20  1  0
 20 21  1  0
 21 22  2  0
 21 23  1  0
 23 24  1  0
 24 25  2  0
 25 26  1  0
 26 27  2  0
 27 28  1  0
 28 29  2  0
 18  3  1  0
 29 24  1  0
 16 11  1  0
M  END
>  <Binding energies>  (28) 
[-6.71]

>  <Ligand effiencies>  (28) 
[-0.22366666666666665]

>  <Interactions>  (28) 
["V-A:GLU:543:CD:4903, V-A:ARG:545:CZ:4921, V-B:GLU:543:CG:9875, V-B:HIS:456:CD2:9035, H-A:GLU:543:OE2:4905, V-B:GLU:543:CB:9874, V-B:HIS:456:CE1:9037, V-B:GLU:543:CD:9876, H-A:ALA:541:N:4886, V-A:PRO:540:CA:4878, V-A:PRO:540:CB:4880, V-A:GLU:543:CG:4902, V-B:ARG:545:CG:9890, V-B:GLY:544:C:9880, V-B:GLU:543:C:9870, V-A:TYR:531:CE2:4788, V-A:LEU:363:CA:3180, V-A:LEU:363:CD1:3184, V-A:ASN:362:C:3167, V-A:LEU:363:CB:3182, V-B:ARG:545:CA:9887"]

$$$$
3ai_Grossjean_2025
     RDKit          3D

 28 30  0  0  0  0  0  0  0  0999 V2000
  129.0980  126.8430   63.4430 N   0  0  0  0  0  0  0  0  0  0  0  0
  129.1000  127.1220   64.5660 C   0  0  0  0  0  0  0  0  0  0  0  0
  129.1000  127.4770   65.9890 C   0  0  0  0  0  0  0  0  0  0  0  0
  128.7580  128.7860   66.4090 C   0  0  0  0  0  0  0  0  0  0  0  0
  128.3290  129.8900   65.4230 C   0  0  0  0  0  0  0  0  0  0  0  0
  129.0320  129.8730   64.2890 F   0  0  0  0  0  0  0  0  0  0  0  0
  127.0430  129.7360   65.1010 F   0  0  0  0  0  0  0  0  0  0  0  0
  128.4960  131.0910   65.9770 F   0  0  0  0  0  0  0  0  0  0  0  0
  128.8200  129.0890   67.7770 C   0  0  0  0  0  0  0  0  0  0  0  0
  129.2140  128.1150   68.7000 C   0  0  0  0  0  0  0  0  0  0  0  0
  129.3080  128.3860   70.1720 C   0  0  0  0  0  0  0  0  0  0  0  0
  130.5130  128.8280   70.7430 C   0  0  0  0  0  0  0  0  0  0  0  0
  130.6060  129.0860   72.1080 C   0  0  0  0  0  0  0  0  0  0  0  0
  129.4930  128.9070   72.9220 C   0  0  0  0  0  0  0  0  0  0  0  0
  128.2870  128.4730   72.3800 C   0  0  0  0  0  0  0  0  0  0  0  0
  128.1970  128.2160   71.0150 C   0  0  0  0  0  0  0  0  0  0  0  0
  129.5480  126.8640   68.2930 N   0  0  0  0  0  0  0  0  0  0  0  0
  129.4730  126.5400   66.9790 C   0  0  0  0  0  0  0  0  0  0  0  0
  129.9270  124.8520   66.6380 S   0  0  0  0  0  0  0  0  0  0  0  0
  130.9490  124.8430   65.1260 C   0  0  0  0  0  0  0  0  0  0  0  0
  130.6550  123.6920   64.1510 C   0  0  0  0  0  0  0  0  0  0  0  0
  131.2570  122.6200   64.2420 O   0  0  0  0  0  0  0  0  0  0  0  0
  129.7100  123.9670   63.2240 N   0  0  0  0  0  0  0  0  0  0  0  0
  129.2400  123.1220   62.2270 C   0  0  0  0  0  0  0  0  0  0  0  0
  130.0790  122.4430   61.3450 C   0  0  0  0  0  0  0  0  0  0  0  0
  129.2360  121.7270   60.5260 C   0  0  0  0  0  0  0  0  0  0  0  0
  127.9550  121.9620   60.8970 O   0  0  0  0  0  0  0  0  0  0  0  0
  127.9700  122.8470   61.9760 N   0  0  0  0  0  0  0  0  0  0  0  0
  1  2  3  0
  2  3  1  0
  3  4  2  0
  4  5  1  0
  5  6  1  0
  5  7  1  0
  5  8  1  0
  4  9  1  0
  9 10  2  0
 10 11  1  0
 11 12  2  0
 12 13  1  0
 13 14  2  0
 14 15  1  0
 15 16  2  0
 10 17  1  0
 17 18  2  0
 18 19  1  0
 19 20  1  0
 20 21  1  0
 21 22  2  0
 21 23  1  0
 23 24  1  0
 24 25  1  0
 25 26  2  0
 26 27  1  0
 27 28  1  0
 18  3  1  0
 28 24  2  0
 16 11  1  0
M  END
>  <Binding energies>  (29) 
[-6.58]

>  <Ligand effiencies>  (29) 
[-0.22689655172413795]

>  <Interactions>  (29) 
["V-A:GLU:543:CD:4903, V-A:HIS:456:CE1:4064, V-A:GLU:543:CB:4901, V-B:GLU:543:CG:9875, V-B:HIS:456:CD2:9035, V-B:GLU:543:CB:9874, V-B:HIS:456:CE1:9037, V-B:GLU:543:CD:9876, V-B:ALA:541:CB:9860, V-A:GLU:543:CG:4902, H-A:TYR:484:OH:4343, H-B:ALA:541:N:9859, H-B:GLU:543:OE2:9878, V-A:GLY:544:CA:4909, V-B:TYR:484:CZ:9314, V-A:LYS:547:CE:4945, V-A:GLU:543:C:4897, V-A:GLY:544:C:4907, V-B:TYR:484:CE1:9312"]

$$$$
3aj_Grossjean_2025
     RDKit          3D

 28 30  0  0  0  0  0  0  0  0999 V2000
  133.2530  119.8340   59.5610 N   0  0  0  0  0  0  0  0  0  0  0  0
  132.3440  120.5110   59.7950 C   0  0  0  0  0  0  0  0  0  0  0  0
  131.1910  121.3660   60.0940 C   0  0  0  0  0  0  0  0  0  0  0  0
  130.0050  120.8170   60.6400 C   0  0  0  0  0  0  0  0  0  0  0  0
  129.8650  119.3230   60.9910 C   0  0  0  0  0  0  0  0  0  0  0  0
  128.6040  118.9700   61.2540 F   0  0  0  0  0  0  0  0  0  0  0  0
  130.2900  118.5730   59.9740 F   0  0  0  0  0  0  0  0  0  0  0  0
  130.5920  119.0380   62.0720 F   0  0  0  0  0  0  0  0  0  0  0  0
  128.9130  121.6700   60.8630 C   0  0  0  0  0  0  0  0  0  0  0  0
  129.0010  123.0300   60.5460 C   0  0  0  0  0  0  0  0  0  0  0  0
  127.8630  123.9810   60.7540 C   0  0  0  0  0  0  0  0  0  0  0  0
  128.0690  125.3680   60.6960 C   0  0  0  0  0  0  0  0  0  0  0  0
  127.0150  126.2590   60.8850 C   0  0  0  0  0  0  0  0  0  0  0  0
  125.7370  125.7710   61.1370 C   0  0  0  0  0  0  0  0  0  0  0  0
  125.5060  124.4010   61.1980 C   0  0  0  0  0  0  0  0  0  0  0  0
  126.5620  123.5150   61.0070 C   0  0  0  0  0  0  0  0  0  0  0  0
  130.1380  123.5490   60.0150 N   0  0  0  0  0  0  0  0  0  0  0  0
  131.2130  122.7510   59.8130 C   0  0  0  0  0  0  0  0  0  0  0  0
  132.6160  123.6100   59.1340 S   0  0  0  0  0  0  0  0  0  0  0  0
  133.9110  123.6710   60.4200 C   0  0  0  0  0  0  0  0  0  0  0  0
  133.3900  123.7160   61.8640 C   0  0  0  0  0  0  0  0  0  0  0  0
  132.6700  122.8160   62.3030 O   0  0  0  0  0  0  0  0  0  0  0  0
  133.7870  124.7960   62.5730 N   0  0  0  0  0  0  0  0  0  0  0  0
  133.4700  125.0810   63.8950 C   0  0  0  0  0  0  0  0  0  0  0  0
  134.2790  125.1040   64.9320 N   0  0  0  0  0  0  0  0  0  0  0  0
  133.6380  125.4200   66.0410 C   0  0  0  0  0  0  0  0  0  0  0  0
  132.2720  125.6610   65.9140 C   0  0  0  0  0  0  0  0  0  0  0  0
  131.8150  125.4600   64.2500 S   0  0  0  0  0  0  0  0  0  0  0  0
  1  2  3  0
  2  3  1  0
  3  4  2  0
  4  5  1  0
  5  6  1  0
  5  7  1  0
  5  8  1  0
  4  9  1  0
  9 10  2  0
 10 11  1  0
 11 12  2  0
 12 13  1  0
 13 14  2  0
 14 15  1  0
 15 16  2  0
 10 17  1  0
 17 18  2  0
 18 19  1  0
 19 20  1  0
 20 21  1  0
 21 22  2  0
 21 23  1  0
 23 24  1  0
 24 25  2  0
 25 26  1  0
 26 27  2  0
 27 28  1  0
 18  3  1  0
 28 24  1  0
 16 11  1  0
M  END
>  <Binding energies>  (30) 
[-6.75]

>  <Ligand effiencies>  (30) 
[-0.23275862068965517]

>  <Interactions>  (30) 
["V-A:ASP:366:CG:3208, V-A:ARG:545:CZ:4921, V-A:ILE:369:CD1:3234, V-B:GLU:543:CD:9876, V-B:TYR:539:CE2:9844, V-B:ALA:541:CB:9860, V-A:TRP:381:CZ2:3365, V-A:LEU:475:CD1:4253, V-A:LEU:475:CG:4252, V-B:TYR:539:CD2:9842, V-A:PRO:482:CG:4322, V-A:TRP:381:CH2:3367, V-A:LEU:475:CD2:4254, V-A:PRO:482:CB:4321, V-A:TRP:381:CE2:3362, V-B:TYR:539:CG:9840, V-A:TRP:381:CZ3:3366, V-B:TYR:539:C:9835, V-B:ASP:366:CG:8180, V-B:PRO:540:CA:9851, V-B:PRO:540:C:9849, H-A:TYR:484:OH:4343, V-B:ALA:541:CA:9858, V-A:TRP:381:CE3:3363, V-A:ARG:545:CD:4918, H-A:GLY:454:N:4045, V-B:TYR:539:CB:9839, V-A:HIS:456:CD2:4063, V-A:ASP:366:CB:3207, V-A:ASP:366:CA:3205, V-A:ARG:545:CG:4917, H-A:ASP:366:OD2:3210, V-A:ILE:369:CG2:3232, H-A:ARG:545:NE:4919, H-A:ARG:545:NH1:4922, H-A:ASP:366:OD1:3209"]

$$$$
3ak_Grossjean_2025
     RDKit          3D

 33 34  0  0  0  0  0  0  0  0999 V2000
  127.3170  129.8330   74.4630 C   0  0  0  0  0  0  0  0  0  0  0  0
  128.3640  128.8770   74.4060 O   0  0  0  0  0  0  0  0  0  0  0  0
  129.1680  128.9870   73.2400 C   0  0  0  0  0  0  0  0  0  0  0  0
  128.3800  128.4540   72.0370 C   0  0  0  0  0  0  0  0  0  0  0  0
  128.6900  127.0760   71.8550 O   0  0  0  0  0  0  0  0  0  0  0  0
  128.6510  126.6100   70.5090 C   0  0  0  0  0  0  0  0  0  0  0  0
  128.6370  127.7390   69.4620 C   0  0  0  0  0  0  0  0  0  0  0  0
  129.9750  128.0960   69.1430 O   0  0  0  0  0  0  0  0  0  0  0  0
  130.4830  127.4500   67.9840 C   0  0  0  0  0  0  0  0  0  0  0  0
  129.4190  126.5090   67.3900 C   0  0  0  0  0  0  0  0  0  0  0  0
  129.7470  126.0250   66.0480 N   0  0  0  0  0  0  0  0  0  0  0  0
  130.8720  125.3720   65.6970 C   0  0  0  0  0  0  0  0  0  0  0  0
  131.7590  125.0920   66.5030 O   0  0  0  0  0  0  0  0  0  0  0  0
  131.0590  124.9570   64.2280 C   0  0  0  0  0  0  0  0  0  0  0  0
  130.2700  123.3860   63.7150 S   0  0  0  0  0  0  0  0  0  0  0  0
  130.4560  123.2020   61.9480 C   0  0  0  0  0  0  0  0  0  0  0  0
  129.3070  123.2510   61.2300 N   0  0  0  0  0  0  0  0  0  0  0  0
  129.3440  123.1140   59.8800 C   0  0  0  0  0  0  0  0  0  0  0  0
  128.0280  123.1810   59.1650 C   0  0  0  0  0  0  0  0  0  0  0  0
  127.9160  122.7720   57.8270 C   0  0  0  0  0  0  0  0  0  0  0  0
  126.6950  122.8290   57.1600 C   0  0  0  0  0  0  0  0  0  0  0  0
  125.5660  123.2960   57.8240 C   0  0  0  0  0  0  0  0  0  0  0  0
  125.6490  123.7050   59.1500 C   0  0  0  0  0  0  0  0  0  0  0  0
  126.8710  123.6460   59.8150 C   0  0  0  0  0  0  0  0  0  0  0  0
  130.5610  122.9380   59.2110 C   0  0  0  0  0  0  0  0  0  0  0  0
  131.7640  122.8850   59.9290 C   0  0  0  0  0  0  0  0  0  0  0  0
  133.0830  122.6880   59.1570 C   0  0  0  0  0  0  0  0  0  0  0  0
  133.5740  121.4720   59.3960 F   0  0  0  0  0  0  0  0  0  0  0  0
  132.8700  122.8190   57.8470 F   0  0  0  0  0  0  0  0  0  0  0  0
  134.0210  123.5740   59.5000 F   0  0  0  0  0  0  0  0  0  0  0  0
  131.7160  123.0190   61.3380 C   0  0  0  0  0  0  0  0  0  0  0  0
  132.9420  122.9710   62.1410 C   0  0  0  0  0  0  0  0  0  0  0  0
  133.9100  122.9330   62.7760 N   0  0  0  0  0  0  0  0  0  0  0  0
  1  2  1  0
  2  3  1  0
  3  4  1  0
  4  5  1  0
  5  6  1  0
  6  7  1  0
  7  8  1  0
  8  9  1  0
  9 10  1  0
 10 11  1  0
 11 12  1  0
 12 13  2  0
 12 14  1  0
 14 15  1  0
 15 16  1  0
 16 17  2  0
 17 18  1  0
 18 19  1  0
 19 20  2  0
 20 21  1  0
 21 22  2  0
 22 23  1  0
 23 24  2  0
 18 25  2  0
 25 26  1  0
 26 27  1  0
 27 28  1  0
 27 29  1  0
 27 30  1  0
 26 31  2  0
 31 32  1  0
 32 33  3  0
 31 16  1  0
 24 19  1  0
M  END
>  <Binding energies>  (31) 
[-6.21]

>  <Ligand effiencies>  (31) 
[-0.1826470588235294]

>  <Interactions>  (31) 
["V-A:ASP:366:CG:3208, V-B:TYR:539:CZ:9845, V-A:HIS:456:CE1:4064, V-A:GLU:543:CB:4901, V-B:GLU:543:CG:9875, V-B:HIS:456:CD2:9035, V-B:GLU:543:CB:9874, V-A:ILE:369:CD1:3234, V-B:HIS:456:CE1:9037, V-B:GLU:543:CD:9876, V-B:TYR:539:CE2:9844, V-B:TYR:539:C:9835, H-B:LYS:547:NZ:9919, V-B:GLU:543:C:9870, V-B:PRO:540:CA:9851, H-A:HIS:456:NE2:4065, H-A:TYR:484:OH:4343, H-B:GLU:543:OE2:9878, H-A:GLY:454:N:4045, V-A:ASP:366:CB:3207, V-A:LYS:547:CE:4945, H-A:LYS:547:NZ:4946, V-A:ASP:366:CA:3205, V-B:PRO:540:N:9852, V-B:PRO:540:CB:9853, V-B:MET:535:CE:9803, V-A:ILE:369:CB:3231, V-A:ILE:369:CG2:3232, V-A:ILE:369:CG1:3233"]

$$$$
3bk_Grossjean_2025
     RDKit          3D

 30 31  0  0  0  0  0  0  0  0999 V2000
  125.4490  129.2940   75.0740 C   0  0  0  0  0  0  0  0  0  0  0  0
  126.6960  129.0840   74.4310 O   0  0  0  0  0  0  0  0  0  0  0  0
  127.3370  130.2890   74.0320 C   0  0  0  0  0  0  0  0  0  0  0  0
  128.6620  129.9600   73.3310 C   0  0  0  0  0  0  0  0  0  0  0  0
  129.1300  128.6940   73.7760 O   0  0  0  0  0  0  0  0  0  0  0  0
  129.8610  127.9730   72.7930 C   0  0  0  0  0  0  0  0  0  0  0  0
  128.9490  127.6870   71.5920 C   0  0  0  0  0  0  0  0  0  0  0  0
  129.7460  127.3600   70.4620 O   0  0  0  0  0  0  0  0  0  0  0  0
  130.3200  128.4890   69.8160 C   0  0  0  0  0  0  0  0  0  0  0  0
  129.8010  128.5710   68.3730 C   0  0  0  0  0  0  0  0  0  0  0  0
  130.4560  127.6040   67.4900 N   0  0  0  0  0  0  0  0  0  0  0  0
  129.9030  126.4690   67.0280 C   0  0  0  0  0  0  0  0  0  0  0  0
  128.7510  126.1160   67.2860 O   0  0  0  0  0  0  0  0  0  0  0  0
  130.7760  125.6090   66.1120 C   0  0  0  0  0  0  0  0  0  0  0  0
  130.8350  126.2650   64.4150 S   0  0  0  0  0  0  0  0  0  0  0  0
  131.2360  124.9370   63.2920 C   0  0  0  0  0  0  0  0  0  0  0  0
  130.2830  124.6250   62.3770 N   0  0  0  0  0  0  0  0  0  0  0  0
  130.4990  123.6240   61.4830 C   0  0  0  0  0  0  0  0  0  0  0  0
  129.4040  123.3600   60.4940 C   0  0  0  0  0  0  0  0  0  0  0  0
  128.0560  123.4790   60.8680 C   0  0  0  0  0  0  0  0  0  0  0  0
  127.0340  123.2290   59.9540 C   0  0  0  0  0  0  0  0  0  0  0  0
  127.3480  122.8560   58.6520 C   0  0  0  0  0  0  0  0  0  0  0  0
  128.6760  122.7350   58.2550 C   0  0  0  0  0  0  0  0  0  0  0  0
  129.6950  122.9870   59.1700 C   0  0  0  0  0  0  0  0  0  0  0  0
  131.7010  122.9080   61.4860 C   0  0  0  0  0  0  0  0  0  0  0  0
  132.6940  123.2140   62.4230 C   0  0  0  0  0  0  0  0  0  0  0  0
  133.9910  122.4070   62.3920 C   0  0  0  0  0  0  0  0  0  0  0  0
  132.4680  124.2510   63.3530 C   0  0  0  0  0  0  0  0  0  0  0  0
  133.4910  124.5960   64.3440 C   0  0  0  0  0  0  0  0  0  0  0  0
  134.2990  124.8680   65.1280 N   0  0  0  0  0  0  0  0  0  0  0  0
  1  2  1  0
  2  3  1  0
  3  4  1  0
  4  5  1  0
  5  6  1  0
  6  7  1  0
  7  8  1  0
  8  9  1  0
  9 10  1  0
 10 11  1  0
 11 12  1  0
 12 13  2  0
 12 14  1  0
 14 15  1  0
 15 16  1  0
 16 17  2  0
 17 18  1  0
 18 19  1  0
 19 20  2  0
 20 21  1  0
 21 22  2  0
 22 23  1  0
 23 24  2  0
 18 25  2  0
 25 26  1  0
 26 27  1  0
 26 28  2  0
 28 29  1  0
 29 30  3  0
 28 16  1  0
 24 19  1  0
M  END
>  <Binding energies>  (32) 
[-6.45]

>  <Ligand effiencies>  (32) 
[-0.20806451612903226]

>  <Interactions>  (32) 
["H-A:GLU:543:OE1:4904, V-A:GLU:543:CD:4903, V-A:HIS:456:CE1:4064, V-A:ARG:545:CZ:4921, V-A:GLU:543:CB:4901, V-B:HIS:456:CD2:9035, V-A:ILE:369:CD1:3234, V-B:TYR:539:CE2:9844, V-B:TYR:539:CD2:9842, V-A:LEU:475:CD2:4254, V-B:TYR:539:C:9835, H-B:LYS:547:NZ:9919, V-B:PRO:540:CA:9851, H-A:TYR:484:OH:4343, V-A:GLY:454:CA:4044, H-A:GLY:454:N:4045, V-A:LYS:547:CE:4945, H-A:LYS:547:NZ:4946, V-A:GLU:543:C:4897, V-B:PRO:540:N:9852, V-B:PRO:540:CB:9853, V-B:HIS:456:CB:9032, V-B:HIS:456:CG:9033, H-A:ARG:545:NE:4919, V-B:LYS:547:CD:9917"]

$$$$
3cb_Grossjean_2025
     RDKit          3D

 30 32  0  0  0  0  0  0  0  0999 V2000
  130.6140  126.0320   73.2670 C   0  0  0  0  0  0  0  0  0  0  0  0
  129.5010  126.9120   73.2150 O   0  0  0  0  0  0  0  0  0  0  0  0
  129.5720  128.0900   72.5420 C   0  0  0  0  0  0  0  0  0  0  0  0
  129.6010  129.1910   73.1000 O   0  0  0  0  0  0  0  0  0  0  0  0
  129.6110  127.9200   71.0500 C   0  0  0  0  0  0  0  0  0  0  0  0
  130.5300  128.6120   70.2460 C   0  0  0  0  0  0  0  0  0  0  0  0
  130.5410  128.4300   68.8670 C   0  0  0  0  0  0  0  0  0  0  0  0
  129.6350  127.5590   68.2600 C   0  0  0  0  0  0  0  0  0  0  0  0
  129.7370  127.4480   66.8590 N   0  0  0  0  0  0  0  0  0  0  0  0
  128.7800  127.5350   65.9090 C   0  0  0  0  0  0  0  0  0  0  0  0
  127.5880  127.7580   66.1270 O   0  0  0  0  0  0  0  0  0  0  0  0
  129.2900  127.3500   64.4720 C   0  0  0  0  0  0  0  0  0  0  0  0
  130.8860  126.4750   64.3290 S   0  0  0  0  0  0  0  0  0  0  0  0
  130.9110  125.6420   62.7550 C   0  0  0  0  0  0  0  0  0  0  0  0
  130.9450  126.4890   61.6970 N   0  0  0  0  0  0  0  0  0  0  0  0
  130.9670  125.9670   60.4500 C   0  0  0  0  0  0  0  0  0  0  0  0
  131.0170  126.9730   59.3160 C   0  0  0  0  0  0  0  0  0  0  0  0
  130.9510  124.5960   60.2100 C   0  0  0  0  0  0  0  0  0  0  0  0
  130.9000  123.7030   61.2880 C   0  0  0  0  0  0  0  0  0  0  0  0
  130.8780  122.2400   60.9780 C   0  0  0  0  0  0  0  0  0  0  0  0
  132.0330  121.6030   60.5100 C   0  0  0  0  0  0  0  0  0  0  0  0
  132.0260  120.2390   60.2290 C   0  0  0  0  0  0  0  0  0  0  0  0
  130.8600  119.5030   60.4200 C   0  0  0  0  0  0  0  0  0  0  0  0
  129.7040  120.1190   60.8920 C   0  0  0  0  0  0  0  0  0  0  0  0
  129.7150  121.4820   61.1740 C   0  0  0  0  0  0  0  0  0  0  0  0
  130.8630  124.2340   62.6030 C   0  0  0  0  0  0  0  0  0  0  0  0
  130.7150  123.3500   63.7630 C   0  0  0  0  0  0  0  0  0  0  0  0
  130.5990  122.6520   64.6790 N   0  0  0  0  0  0  0  0  0  0  0  0
  128.7160  126.8600   69.0570 C   0  0  0  0  0  0  0  0  0  0  0  0
  128.7060  127.0420   70.4370 C   0  0  0  0  0  0  0  0  0  0  0  0
  1  2  1  0
  2  3  1  0
  3  4  2  0
  3  5  1  0
  5  6  2  0
  6  7  1  0
  7  8  2  0
  8  9  1  0
  9 10  1  0
 10 11  2  0
 10 12  1  0
 12 13  1  0
 13 14  1  0
 14 15  2  0
 15 16  1  0
 16 17  1  0
 16 18  2  0
 18 19  1  0
 19 20  1  0
 20 21  2  0
 21 22  1  0
 22 23  2  0
 23 24  1  0
 24 25  2  0
 19 26  2  0
 26 27  1  0
 27 28  3  0
  8 29  1  0
 29 30  2  0
 30  5  1  0
 26 14  1  0
 25 20  1  0
M  END
>  <Binding energies>  (33) 
[-7.57]

>  <Ligand effiencies>  (33) 
[-0.24419354838709678]

>  <Interactions>  (33) 
["H-A:GLU:543:OE1:4904, V-A:GLU:543:CD:4903, V-A:HIS:456:CE1:4064, V-A:GLU:543:CB:4901, V-B:GLU:543:CD:9876, V-B:TYR:539:CE2:9844, V-B:ALA:541:CB:9860, V-A:TRP:381:CZ2:3365, V-B:TYR:539:CD2:9842, V-A:TRP:381:CH2:3367, V-A:LEU:475:CD2:4254, V-A:TRP:381:CZ3:3366, H-B:LYS:547:NZ:9919, H-A:TYR:484:OH:4343, H-A:LYS:547:NZ:4946, V-A:GLU:543:C:4897, V-A:GLY:544:C:4907"]

$$$$
3ch_Grossjean_2025
     RDKit          3D

 32 34  0  0  0  0  0  0  0  0999 V2000
  129.8590  124.5070   71.7760 C   0  0  0  0  0  0  0  0  0  0  0  0
  129.1230  125.5370   72.4280 O   0  0  0  0  0  0  0  0  0  0  0  0
  129.2590  126.8460   72.0020 C   0  0  0  0  0  0  0  0  0  0  0  0
  129.2110  127.2430   70.6560 C   0  0  0  0  0  0  0  0  0  0  0  0
  129.3470  128.5930   70.2990 C   0  0  0  0  0  0  0  0  0  0  0  0
  129.3070  129.0870   68.9810 N   0  0  0  0  0  0  0  0  0  0  0  0
  128.4340  128.8190   67.9860 C   0  0  0  0  0  0  0  0  0  0  0  0
  127.4640  128.0660   68.0700 O   0  0  0  0  0  0  0  0  0  0  0  0
  128.6820  129.5630   66.6740 C   0  0  0  0  0  0  0  0  0  0  0  0
  128.4370  128.4970   65.2230 S   0  0  0  0  0  0  0  0  0  0  0  0
  129.4260  127.0450   65.5040 C   0  0  0  0  0  0  0  0  0  0  0  0
  129.2050  126.4530   66.7050 N   0  0  0  0  0  0  0  0  0  0  0  0
  129.9130  125.3450   67.0190 C   0  0  0  0  0  0  0  0  0  0  0  0
  129.6210  124.7380   68.3780 C   0  0  0  0  0  0  0  0  0  0  0  0
  130.8590  124.7900   66.1600 C   0  0  0  0  0  0  0  0  0  0  0  0
  131.0960  125.3820   64.9120 C   0  0  0  0  0  0  0  0  0  0  0  0
  132.1270  124.7580   64.0280 C   0  0  0  0  0  0  0  0  0  0  0  0
  133.4190  125.2920   63.9680 C   0  0  0  0  0  0  0  0  0  0  0  0
  134.3830  124.7210   63.1410 C   0  0  0  0  0  0  0  0  0  0  0  0
  134.0540  123.6120   62.3650 C   0  0  0  0  0  0  0  0  0  0  0  0
  132.7720  123.0720   62.4080 C   0  0  0  0  0  0  0  0  0  0  0  0
  131.8110  123.6470   63.2360 C   0  0  0  0  0  0  0  0  0  0  0  0
  130.3470  126.5340   64.5600 C   0  0  0  0  0  0  0  0  0  0  0  0
  130.4850  127.1390   63.2310 C   0  0  0  0  0  0  0  0  0  0  0  0
  130.5950  127.6180   62.1840 N   0  0  0  0  0  0  0  0  0  0  0  0
  129.5520  129.5430   71.3010 C   0  0  0  0  0  0  0  0  0  0  0  0
  129.6050  129.1710   72.6530 C   0  0  0  0  0  0  0  0  0  0  0  0
  129.7980  130.0640   73.6940 O   0  0  0  0  0  0  0  0  0  0  0  0
  129.8580  131.4590   73.4180 C   0  0  0  0  0  0  0  0  0  0  0  0
  129.4600  127.8190   72.9900 C   0  0  0  0  0  0  0  0  0  0  0  0
  129.4930  127.4440   74.3120 O   0  0  0  0  0  0  0  0  0  0  0  0
  130.5310  126.5260   74.6280 C   0  0  0  0  0  0  0  0  0  0  0  0
  1  2  1  0
  2  3  1  0
  3  4  2  0
  4  5  1  0
  5  6  1  0
  6  7  1  0
  7  8  2  0
  7  9  1  0
  9 10  1  0
 10 11  1  0
 11 12  2  0
 12 13  1  0
 13 14  1  0
 13 15  2  0
 15 16  1  0
 16 17  1  0
 17 18  2  0
 18 19  1  0
 19 20  2  0
 20 21  1  0
 21 22  2  0
 16 23  2  0
 23 24  1  0
 24 25  3  0
  5 26  2  0
 26 27  1  0
 27 28  1  0
 28 29  1  0
 27 30  2  0
 30 31  1  0
 31 32  1  0
 30  3  1  0
 23 11  1  0
 22 17  1  0
M  END
>  <Binding energies>  (34) 
[-7.42]

>  <Ligand effiencies>  (34) 
[-0.22484848484848485]

>  <Interactions>  (34) 
["V-A:GLU:543:CD:4903, V-A:ASP:366:CG:3208, V-A:HIS:456:CE1:4064, V-A:ARG:545:CZ:4921, V-A:GLU:543:CB:4901, V-B:GLU:543:CG:9875, V-B:HIS:456:CD2:9035, V-B:GLU:543:CB:9874, V-A:ILE:369:CD1:3234, V-B:HIS:456:CE1:9037, V-B:GLU:543:CD:9876, V-A:GLU:543:CG:4902, H-B:HIS:456:NE2:9038, H-B:LYS:547:NZ:9919, V-B:GLU:543:C:9870, V-A:GLY:454:CA:4044, V-A:GLY:453:C:4037, V-A:TYR:484:CZ:4342, V-A:GLY:453:CA:4039, V-B:GLU:543:CA:9872, V-A:LYS:547:CE:4945, H-A:LYS:547:NZ:4946, V-A:TYR:484:CE1:4340, V-A:GLU:543:C:4897, H-A:GLU:543:O:4898, V-B:LYS:547:CE:9918"]

$$$$
3ci_Grossjean_2025
     RDKit          3D

 25 27  0  0  0  0  0  0  0  0999 V2000
  129.5600  122.1450   65.0100 C   0  0  0  0  0  0  0  0  0  0  0  0
  130.0150  122.4250   63.5900 C   0  0  0  0  0  0  0  0  0  0  0  0
  129.1050  122.6090   62.5530 C   0  0  0  0  0  0  0  0  0  0  0  0
  129.5740  122.8810   61.2600 C   0  0  0  0  0  0  0  0  0  0  0  0
  128.5610  123.0870   60.1820 C   0  0  0  0  0  0  0  0  0  0  0  0
  128.7660  122.5690   58.8970 C   0  0  0  0  0  0  0  0  0  0  0  0
  127.8230  122.7710   57.8930 C   0  0  0  0  0  0  0  0  0  0  0  0
  126.6700  123.5000   58.1700 C   0  0  0  0  0  0  0  0  0  0  0  0
  126.4550  124.0300   59.4390 C   0  0  0  0  0  0  0  0  0  0  0  0
  127.4000  123.8260   60.4400 C   0  0  0  0  0  0  0  0  0  0  0  0
  130.9760  122.9480   61.0520 C   0  0  0  0  0  0  0  0  0  0  0  0
  131.5260  123.1870   59.7130 C   0  0  0  0  0  0  0  0  0  0  0  0
  131.9580  123.3770   58.6560 N   0  0  0  0  0  0  0  0  0  0  0  0
  131.8310  122.7530   62.1630 C   0  0  0  0  0  0  0  0  0  0  0  0
  133.6110  122.8380   62.0190 S   0  0  0  0  0  0  0  0  0  0  0  0
  134.2060  124.4040   62.7370 C   0  0  0  0  0  0  0  0  0  0  0  0
  133.5930  124.7170   64.1070 C   0  0  0  0  0  0  0  0  0  0  0  0
  134.3340  124.8330   65.0850 O   0  0  0  0  0  0  0  0  0  0  0  0
  132.2470  124.8290   64.1350 N   0  0  0  0  0  0  0  0  0  0  0  0
  131.4510  125.1320   65.2310 C   0  0  0  0  0  0  0  0  0  0  0  0
  130.1280  125.5580   65.1160 C   0  0  0  0  0  0  0  0  0  0  0  0
  129.7010  125.7540   66.4100 C   0  0  0  0  0  0  0  0  0  0  0  0
  130.7150  125.4590   67.2590 O   0  0  0  0  0  0  0  0  0  0  0  0
  131.8190  125.0680   66.5000 N   0  0  0  0  0  0  0  0  0  0  0  0
  131.3520  122.4900   63.4060 N   0  0  0  0  0  0  0  0  0  0  0  0
  1  2  1  0
  2  3  2  0
  3  4  1  0
  4  5  1  0
  5  6  2  0
  6  7  1  0
  7  8  2  0
  8  9  1  0
  9 10  2  0
  4 11  2  0
 11 12  1  0
 12 13  3  0
 11 14  1  0
 14 15  1  0
 15 16  1  0
 16 17  1  0
 17 18  2  0
 17 19  1  0
 19 20  1  0
 20 21  1  0
 21 22  2  0
 22 23  1  0
 23 24  1  0
 14 25  2  0
 25  2  1  0
 10  5  1  0
 24 20  2  0
M  END
>  <Binding energies>  (35) 
[-6.91]

>  <Ligand effiencies>  (35) 
[-0.26576923076923076]

>  <Interactions>  (35) 
["V-A:ASP:366:CG:3208, V-A:ARG:545:CZ:4921, V-B:GLU:543:CG:9875, V-B:GLU:543:CB:9874, V-A:ILE:369:CD1:3234, V-B:GLU:543:CD:9876, V-B:ALA:541:CB:9860, V-B:TYR:539:C:9835, V-B:PRO:540:CA:9851, H-A:HIS:456:NE2:4065, H-A:TYR:484:OH:4343, V-A:GLY:453:C:4037, V-A:TYR:484:CZ:4342, V-A:GLY:453:CA:4039, H-A:GLY:454:N:4045, V-A:TYR:484:CE1:4340, V-B:PRO:540:N:9852, H-A:ARG:545:NE:4919"]

$$$$
3ck_Grossjean_2025
     RDKit          3D

 30 31  0  0  0  0  0  0  0  0999 V2000
  126.2630  117.9540   70.9950 C   0  0  0  0  0  0  0  0  0  0  0  0
  127.4950  118.3780   70.4340 O   0  0  0  0  0  0  0  0  0  0  0  0
  127.5960  119.7880   70.2900 C   0  0  0  0  0  0  0  0  0  0  0  0
  126.6670  120.4750   71.2990 C   0  0  0  0  0  0  0  0  0  0  0  0
  127.1340  120.2190   72.6180 O   0  0  0  0  0  0  0  0  0  0  0  0
  128.3010  120.9510   72.9690 C   0  0  0  0  0  0  0  0  0  0  0  0
  128.3780  122.2150   72.1030 C   0  0  0  0  0  0  0  0  0  0  0  0
  129.4790  122.0840   71.2160 O   0  0  0  0  0  0  0  0  0  0  0  0
  130.4300  123.1340   71.2870 C   0  0  0  0  0  0  0  0  0  0  0  0
  129.8320  124.3200   72.0680 C   0  0  0  0  0  0  0  0  0  0  0  0
  129.4120  125.4360   71.2150 N   0  0  0  0  0  0  0  0  0  0  0  0
  129.2980  126.7190   71.6030 C   0  0  0  0  0  0  0  0  0  0  0  0
  129.5670  127.1080   72.7420 O   0  0  0  0  0  0  0  0  0  0  0  0
  128.8090  127.6970   70.5220 C   0  0  0  0  0  0  0  0  0  0  0  0
  127.6810  126.9840   69.2750 S   0  0  0  0  0  0  0  0  0  0  0  0
  128.3980  127.1890   67.6520 C   0  0  0  0  0  0  0  0  0  0  0  0
  127.9700  128.2710   66.9540 N   0  0  0  0  0  0  0  0  0  0  0  0
  128.4680  128.4860   65.7160 C   0  0  0  0  0  0  0  0  0  0  0  0
  127.9400  129.7130   64.9970 C   0  0  0  0  0  0  0  0  0  0  0  0
  129.4030  127.6400   65.1260 C   0  0  0  0  0  0  0  0  0  0  0  0
  129.8550  126.5130   65.8250 C   0  0  0  0  0  0  0  0  0  0  0  0
  130.8410  125.6210   65.1440 C   0  0  0  0  0  0  0  0  0  0  0  0
  130.3960  124.5380   64.3760 C   0  0  0  0  0  0  0  0  0  0  0  0
  131.3100  123.6960   63.7460 C   0  0  0  0  0  0  0  0  0  0  0  0
  132.6740  123.9310   63.8880 C   0  0  0  0  0  0  0  0  0  0  0  0
  133.1330  124.9990   64.6560 C   0  0  0  0  0  0  0  0  0  0  0  0
  132.2170  125.8390   65.2840 C   0  0  0  0  0  0  0  0  0  0  0  0
  129.3500  126.2820   67.1310 C   0  0  0  0  0  0  0  0  0  0  0  0
  129.8190  125.1410   67.9250 C   0  0  0  0  0  0  0  0  0  0  0  0
  130.1890  124.2410   68.5520 N   0  0  0  0  0  0  0  0  0  0  0  0
  1  2  1  0
  2  3  1  0
  3  4  1  0
  4  5  1  0
  5  6  1  0
  6  7  1  0
  7  8  1  0
  8  9  1  0
  9 10  1  0
 10 11  1  0
 11 12  1  0
 12 13  2  0
 12 14  1  0
 14 15  1  0
 15 16  1  0
 16 17  2  0
 17 18  1  0
 18 19  1  0
 18 20  2  0
 20 21  1  0
 21 22  1  0
 22 23  2  0
 23 24  1  0
 24 25  2  0
 25 26  1  0
 26 27  2  0
 21 28  2  0
 28 29  1  0
 29 30  3  0
 28 16  1  0
 27 22  1  0
M  END
>  <Binding energies>  (36) 
[-6.24]

>  <Ligand effiencies>  (36) 
[-0.20129032258064516]

>  <Interactions>  (36) 
["V-A:GLU:543:CD:4903, V-A:HIS:456:CE1:4064, V-A:ARG:545:CZ:4921, V-B:GLU:543:CG:9875, V-B:GLU:543:CB:9874, V-B:GLU:543:CD:9876, V-A:GLU:543:CG:4902, H-B:LYS:547:NZ:9919, V-B:GLU:543:C:9870, H-A:HIS:456:NE2:4065, V-A:HIS:456:CD2:4063, V-B:GLU:543:CA:9872, H-B:GLU:543:O:9871, V-A:HIS:456:CG:4061, V-A:TYR:484:CD1:4338, V-A:TYR:484:CB:4336, V-B:GLY:544:CA:9882, V-B:VAL:542:C:9862, V-B:VAL:542:CG1:9867, H-A:TYR:484:N:4335, V-A:SER:483:CB:4328, V-B:VAL:542:CB:9866"]

$$$$
4aa_Grossjean_2025
     RDKit          3D

 26 28  0  0  0  0  0  0  0  0999 V2000
  130.8960  128.8460   70.4860 C   0  0  0  0  0  0  0  0  0  0  0  0
  129.4330  129.2210   70.7420 C   0  0  0  0  0  0  0  0  0  0  0  0
  128.7120  128.0640   71.1450 O   0  0  0  0  0  0  0  0  0  0  0  0
  127.7510  127.5240   70.3510 C   0  0  0  0  0  0  0  0  0  0  0  0
  126.5590  127.4680   70.6680 O   0  0  0  0  0  0  0  0  0  0  0  0
  128.2830  126.9990   69.0490 C   0  0  0  0  0  0  0  0  0  0  0  0
  129.3080  126.0430   69.0650 C   0  0  0  0  0  0  0  0  0  0  0  0
  129.8260  125.5400   67.8740 C   0  0  0  0  0  0  0  0  0  0  0  0
  129.3250  125.9740   66.6460 C   0  0  0  0  0  0  0  0  0  0  0  0
  129.9270  125.4070   65.5060 N   0  0  0  0  0  0  0  0  0  0  0  0
  131.2040  125.0050   65.3010 C   0  0  0  0  0  0  0  0  0  0  0  0
  132.1080  125.1240   66.1280 O   0  0  0  0  0  0  0  0  0  0  0  0
  131.4720  124.4230   63.9850 C   0  0  0  0  0  0  0  0  0  0  0  0
  132.9030  124.9080   63.0710 S   0  0  0  0  0  0  0  0  0  0  0  0
  132.4610  123.8690   61.7360 C   0  0  0  0  0  0  0  0  0  0  0  0
  133.2080  123.7780   60.6350 N   0  0  0  0  0  0  0  0  0  0  0  0
  132.7500  122.9390   59.6730 C   0  0  0  0  0  0  0  0  0  0  0  0
  133.6120  122.8540   58.4270 C   0  0  0  0  0  0  0  0  0  0  0  0
  131.5780  122.1950   59.7870 C   0  0  0  0  0  0  0  0  0  0  0  0
  130.7970  122.2920   60.9440 C   0  0  0  0  0  0  0  0  0  0  0  0
  129.5260  121.4600   61.0220 C   0  0  0  0  0  0  0  0  0  0  0  0
  131.2420  123.1650   61.9740 C   0  0  0  0  0  0  0  0  0  0  0  0
  130.6970  123.5030   63.2620 C   0  0  0  0  0  0  0  0  0  0  0  0
  129.5250  122.9600   63.7250 N   0  0  0  0  0  0  0  0  0  0  0  0
  128.3040  126.9340   66.6200 C   0  0  0  0  0  0  0  0  0  0  0  0
  127.7890  127.4390   67.8120 C   0  0  0  0  0  0  0  0  0  0  0  0
  1  2  1  0
  2  3  1  0
  3  4  1  0
  4  5  2  0
  4  6  1  0
  6  7  2  0
  7  8  1  0
  8  9  2  0
  9 10  1  0
 10 11  1  0
 11 12  2  0
 11 13  1  0
 13 14  1  0
 14 15  1  0
 15 16  2  0
 16 17  1  0
 17 18  1  0
 17 19  2  0
 19 20  1  0
 20 21  1  0
 20 22  2  0
 22 23  1  0
 23 24  1  0
  9 25  1  0
 25 26  2  0
 26  6  1  0
 23 13  2  0
 22 15  1  0
M  END
>  <Binding energies>  (37) 
[-6.88]

>  <Ligand effiencies>  (37) 
[-0.23724137931034484]

>  <Interactions>  (37) 
["V-A:HIS:456:CE1:4064, V-B:GLU:543:CG:9875, V-B:HIS:456:CD2:9035, V-B:GLU:543:CB:9874, V-A:ILE:369:CD1:3234, V-B:HIS:456:CE1:9037, V-B:GLU:543:CD:9876, V-B:TYR:539:CE2:9844, V-B:ALA:541:CB:9860, H-B:LYS:547:NZ:9919, V-B:GLU:543:C:9870, H-A:HIS:456:NE2:4065, H-A:TYR:484:OH:4343, H-B:GLU:543:OE2:9878, V-A:GLY:544:CA:4909, V-A:GLU:543:C:4897, V-A:GLY:544:C:4907, V-A:ILE:369:CB:3231, V-A:ILE:369:CG2:3232, H-B:ARG:545:N:9888, H-B:HIS:456:ND1:9034"]

$$$$
4ab_Grossjean_2025
     RDKit          3D

 25 27  0  0  0  0  0  0  0  0999 V2000
  129.7210  128.8520   70.7390 C   0  0  0  0  0  0  0  0  0  0  0  0
  128.7310  127.9450   71.2020 O   0  0  0  0  0  0  0  0  0  0  0  0
  127.7640  127.4810   70.3710 C   0  0  0  0  0  0  0  0  0  0  0  0
  126.5620  127.4790   70.6590 O   0  0  0  0  0  0  0  0  0  0  0  0
  128.3010  126.9640   69.0670 C   0  0  0  0  0  0  0  0  0  0  0  0
  129.3200  126.0030   69.0810 C   0  0  0  0  0  0  0  0  0  0  0  0
  129.8400  125.5050   67.8890 C   0  0  0  0  0  0  0  0  0  0  0  0
  129.3480  125.9500   66.6630 C   0  0  0  0  0  0  0  0  0  0  0  0
  129.9500  125.3860   65.5220 N   0  0  0  0  0  0  0  0  0  0  0  0
  131.2300  124.9900   65.3160 C   0  0  0  0  0  0  0  0  0  0  0  0
  132.1340  125.1090   66.1430 O   0  0  0  0  0  0  0  0  0  0  0  0
  131.5000  124.4110   63.9980 C   0  0  0  0  0  0  0  0  0  0  0  0
  132.9360  124.8930   63.0920 S   0  0  0  0  0  0  0  0  0  0  0  0
  132.4940  123.8610   61.7510 C   0  0  0  0  0  0  0  0  0  0  0  0
  133.2430  123.7710   60.6510 N   0  0  0  0  0  0  0  0  0  0  0  0
  132.7870  122.9370   59.6860 C   0  0  0  0  0  0  0  0  0  0  0  0
  133.6510  122.8540   58.4410 C   0  0  0  0  0  0  0  0  0  0  0  0
  131.6130  122.1950   59.7940 C   0  0  0  0  0  0  0  0  0  0  0  0
  130.8290  122.2910   60.9490 C   0  0  0  0  0  0  0  0  0  0  0  0
  129.5550  121.4620   61.0190 C   0  0  0  0  0  0  0  0  0  0  0  0
  131.2730  123.1600   61.9830 C   0  0  0  0  0  0  0  0  0  0  0  0
  130.7240  123.4970   63.2690 C   0  0  0  0  0  0  0  0  0  0  0  0
  129.5470  122.9590   63.7260 N   0  0  0  0  0  0  0  0  0  0  0  0
  128.3310  126.9160   66.6380 C   0  0  0  0  0  0  0  0  0  0  0  0
  127.8140  127.4150   67.8310 C   0  0  0  0  0  0  0  0  0  0  0  0
  1  2  1  0
  2  3  1  0
  3  4  2  0
  3  5  1  0
  5  6  2  0
  6  7  1  0
  7  8  2  0
  8  9  1  0
  9 10  1  0
 10 11  2  0
 10 12  1  0
 12 13  1  0
 13 14  1  0
 14 15  2  0
 15 16  1  0
 16 17  1  0
 16 18  2  0
 18 19  1  0
 19 20  1  0
 19 21  2  0
 21 22  1  0
 22 23  1  0
  8 24  1  0
 24 25  2  0
 25  5  1  0
 22 12  2  0
 21 14  1  0
M  END
>  <Binding energies>  (38) 
[-6.78]

>  <Ligand effiencies>  (38) 
[-0.24214285714285716]

>  <Interactions>  (38) 
["V-A:HIS:456:CE1:4064, V-B:GLU:543:CG:9875, V-B:HIS:456:CD2:9035, V-B:GLU:543:CB:9874, V-A:ILE:369:CD1:3234, V-B:HIS:456:CE1:9037, V-B:GLU:543:CD:9876, V-B:TYR:539:CE2:9844, V-B:ALA:541:CB:9860, H-B:LYS:547:NZ:9919, V-B:GLU:543:C:9870, H-A:HIS:456:NE2:4065, H-A:TYR:484:OH:4343, H-B:GLU:543:OE2:9878, V-A:ILE:369:CB:3231, V-A:ILE:369:CG2:3232, H-B:ARG:545:N:9888, H-B:HIS:456:ND1:9034"]

$$$$
4ac_Grossjean_2025
     RDKit          3D

 23 25  0  0  0  0  0  0  0  0999 V2000
  129.7220  118.0570   60.2570 C   0  0  0  0  0  0  0  0  0  0  0  0
  130.2460  119.3160   59.8470 O   0  0  0  0  0  0  0  0  0  0  0  0
  130.0900  120.4130   60.6720 C   0  0  0  0  0  0  0  0  0  0  0  0
  130.6100  120.3000   61.9610 C   0  0  0  0  0  0  0  0  0  0  0  0
  130.5010  121.3540   62.8640 C   0  0  0  0  0  0  0  0  0  0  0  0
  129.8780  122.5430   62.4830 C   0  0  0  0  0  0  0  0  0  0  0  0
  129.8030  123.5480   63.4660 N   0  0  0  0  0  0  0  0  0  0  0  0
  130.7780  124.0330   64.2710 C   0  0  0  0  0  0  0  0  0  0  0  0
  131.9360  123.6120   64.2810 O   0  0  0  0  0  0  0  0  0  0  0  0
  130.3690  125.1170   65.1690 C   0  0  0  0  0  0  0  0  0  0  0  0
  130.6270  124.9790   66.9080 S   0  0  0  0  0  0  0  0  0  0  0  0
  129.9140  126.5520   67.1870 C   0  0  0  0  0  0  0  0  0  0  0  0
  129.8050  127.0720   68.4100 N   0  0  0  0  0  0  0  0  0  0  0  0
  129.2340  128.2980   68.4870 C   0  0  0  0  0  0  0  0  0  0  0  0
  129.1200  128.8710   69.8870 C   0  0  0  0  0  0  0  0  0  0  0  0
  128.7710  129.0090   67.3810 C   0  0  0  0  0  0  0  0  0  0  0  0
  128.8870  128.4600   66.0980 C   0  0  0  0  0  0  0  0  0  0  0  0
  128.3680  129.2740   64.9230 C   0  0  0  0  0  0  0  0  0  0  0  0
  129.4840  127.1770   65.9780 C   0  0  0  0  0  0  0  0  0  0  0  0
  129.7570  126.3370   64.8420 C   0  0  0  0  0  0  0  0  0  0  0  0
  129.4380  126.7130   63.5620 N   0  0  0  0  0  0  0  0  0  0  0  0
  129.3410  122.6600   61.1930 C   0  0  0  0  0  0  0  0  0  0  0  0
  129.4520  121.6030   60.2930 C   0  0  0  0  0  0  0  0  0  0  0  0
  1  2  1  0
  2  3  1  0
  3  4  2  0
  4  5  1  0
  5  6  2  0
  6  7  1  0
  7  8  1  0
  8  9  2  0
  8 10  1  0
 10 11  1  0
 11 12  1  0
 12 13  2  0
 13 14  1  0
 14 15  1  0
 14 16  2  0
 16 17  1  0
 17 18  1  0
 17 19  2  0
 19 20  1  0
 20 21  1  0
  6 22  1  0
 22 23  2  0
 23  3  1  0
 20 10  2  0
 19 12  1  0
M  END
>  <Binding energies>  (39) 
[-6.3]

>  <Ligand effiencies>  (39) 
[-0.2423076923076923]

>  <Interactions>  (39) 
["H-A:GLU:543:OE1:4904, V-A:GLU:543:CD:4903, V-A:HIS:456:CE1:4064, V-A:GLU:543:CB:4901, V-B:GLU:543:CG:9875, V-B:HIS:456:CD2:9035, H-A:GLU:543:OE2:4905, V-B:HIS:456:CE1:9037, V-B:GLU:543:CD:9876, V-B:ALA:541:CB:9860, V-A:TRP:381:CZ2:3365, V-A:LEU:475:CD1:4253, V-B:TYR:539:CD2:9842, V-A:PRO:482:CG:4322, V-A:TRP:381:CH2:3367, V-A:LEU:475:CD2:4254, V-A:PRO:482:CB:4321, V-A:TRP:381:CE2:3362, V-A:TRP:381:CZ3:3366, V-B:TYR:539:C:9835, V-A:GLU:543:CG:4902, H-A:TYR:484:OH:4343, H-B:GLU:543:OE2:9878, V-A:TRP:381:CE3:3363, V-A:TYR:484:CZ:4342, V-B:TYR:539:CB:9839, V-A:TYR:484:CE1:4340, V-A:TRP:381:CD2:3360"]

$$$$
4ad_Grossjean_2025
     RDKit          3D

 21 23  0  0  0  0  0  0  0  0999 V2000
  135.1030  125.1820   66.3140 C   0  0  0  0  0  0  0  0  0  0  0  0
  133.8860  125.0900   65.4120 C   0  0  0  0  0  0  0  0  0  0  0  0
  132.6180  125.4240   65.8820 C   0  0  0  0  0  0  0  0  0  0  0  0
  131.5090  125.3290   65.0320 C   0  0  0  0  0  0  0  0  0  0  0  0
  130.1440  125.7020   65.5910 C   0  0  0  0  0  0  0  0  0  0  0  0
  131.7300  124.8860   63.7000 C   0  0  0  0  0  0  0  0  0  0  0  0
  130.8440  124.6770   62.5880 C   0  0  0  0  0  0  0  0  0  0  0  0
  129.4940  124.9130   62.6740 N   0  0  0  0  0  0  0  0  0  0  0  0
  131.4840  124.2180   61.4250 C   0  0  0  0  0  0  0  0  0  0  0  0
  130.8910  123.8890   60.1280 C   0  0  0  0  0  0  0  0  0  0  0  0
  131.5790  123.8900   59.1050 O   0  0  0  0  0  0  0  0  0  0  0  0
  129.5700  123.5840   60.1530 N   0  0  0  0  0  0  0  0  0  0  0  0
  128.7040  123.2700   59.0880 C   0  0  0  0  0  0  0  0  0  0  0  0
  127.3480  123.5330   59.3060 C   0  0  0  0  0  0  0  0  0  0  0  0
  126.4130  123.2660   58.3100 C   0  0  0  0  0  0  0  0  0  0  0  0
  126.8340  122.7420   57.0900 C   0  0  0  0  0  0  0  0  0  0  0  0
  128.1830  122.4880   56.8560 C   0  0  0  0  0  0  0  0  0  0  0  0
  129.1200  122.7540   57.8510 C   0  0  0  0  0  0  0  0  0  0  0  0
  133.2190  124.0370   61.6850 S   0  0  0  0  0  0  0  0  0  0  0  0
  133.0770  124.5730   63.3430 C   0  0  0  0  0  0  0  0  0  0  0  0
  134.1350  124.6640   64.1510 N   0  0  0  0  0  0  0  0  0  0  0  0
  1  2  1  0
  2  3  2  0
  3  4  1  0
  4  5  1  0
  4  6  2  0
  6  7  1  0
  7  8  1  0
  7  9  2  0
  9 10  1  0
 10 11  2  0
 10 12  1  0
 12 13  1  0
 13 14  2  0
 14 15  1  0
 15 16  2  0
 16 17  1  0
 17 18  2  0
  9 19  1  0
 19 20  1  0
 20 21  2  0
 21  2  1  0
 20  6  1  0
 18 13  1  0
M  END
>  <Binding energies>  (40) 
[-6.55]

>  <Ligand effiencies>  (40) 
[-0.27291666666666664]

>  <Interactions>  (40) 
["V-A:ASP:366:CG:3208, V-B:TYR:539:CZ:9845, V-A:ARG:545:CZ:4921, V-B:GLU:543:CG:9875, V-A:ILE:369:CD1:3234, V-B:GLU:543:CD:9876, V-B:TYR:539:CE2:9844, V-B:TYR:539:CD2:9842, V-B:TYR:539:CG:9840, V-B:TYR:539:C:9835, V-B:PRO:540:CA:9851, H-A:TYR:484:OH:4343, H-B:GLU:543:OE2:9878, V-A:GLY:453:C:4037, V-A:GLY:453:CA:4039, V-A:ARG:545:CD:4918, H-A:GLY:454:N:4045, V-A:HIS:456:CD2:4063, V-B:PRO:540:N:9852, V-B:TYR:539:CD1:9841, V-A:ARG:545:CG:4917, V-B:PRO:540:CB:9853, V-B:TYR:539:CE1:9843, V-B:MET:535:CE:9803"]

$$$$
4ae_Grossjean_2025
     RDKit          3D

 22 24  0  0  0  0  0  0  0  0999 V2000
  130.1560  119.4660   61.1130 C   0  0  0  0  0  0  0  0  0  0  0  0
  130.0050  120.9650   60.9410 C   0  0  0  0  0  0  0  0  0  0  0  0
  129.9680  121.5560   59.6750 C   0  0  0  0  0  0  0  0  0  0  0  0
  129.8350  122.9420   59.5940 C   0  0  0  0  0  0  0  0  0  0  0  0
  129.7450  123.6960   60.7660 C   0  0  0  0  0  0  0  0  0  0  0  0
  129.7800  123.0410   62.0010 C   0  0  0  0  0  0  0  0  0  0  0  0
  129.7060  123.8550   63.1440 N   0  0  0  0  0  0  0  0  0  0  0  0
  130.2790  123.6660   64.3590 C   0  0  0  0  0  0  0  0  0  0  0  0
  130.9790  122.6920   64.6430 O   0  0  0  0  0  0  0  0  0  0  0  0
  130.0100  124.7110   65.3490 C   0  0  0  0  0  0  0  0  0  0  0  0
  130.1110  124.3510   67.0740 S   0  0  0  0  0  0  0  0  0  0  0  0
  129.6440  125.9840   67.4900 C   0  0  0  0  0  0  0  0  0  0  0  0
  129.5240  126.3820   68.7570 N   0  0  0  0  0  0  0  0  0  0  0  0
  129.1500  127.6700   68.9440 C   0  0  0  0  0  0  0  0  0  0  0  0
  129.0130  128.1000   70.3930 C   0  0  0  0  0  0  0  0  0  0  0  0
  128.8970  128.5630   67.9030 C   0  0  0  0  0  0  0  0  0  0  0  0
  129.0250  128.1420   66.5740 C   0  0  0  0  0  0  0  0  0  0  0  0
  128.7360  129.1510   65.4730 C   0  0  0  0  0  0  0  0  0  0  0  0
  129.4140  126.7950   66.3390 C   0  0  0  0  0  0  0  0  0  0  0  0
  129.6320  126.0450   65.1310 C   0  0  0  0  0  0  0  0  0  0  0  0
  129.4780  126.6010   63.8850 N   0  0  0  0  0  0  0  0  0  0  0  0
  129.9170  121.6850   62.0890 N   0  0  0  0  0  0  0  0  0  0  0  0
  1  2  1  0
  2  3  2  0
  3  4  1  0
  4  5  2  0
  5  6  1  0
  6  7  1  0
  7  8  1  0
  8  9  2  0
  8 10  1  0
 10 11  1  0
 11 12  1  0
 12 13  2  0
 13 14  1  0
 14 15  1  0
 14 16  2  0
 16 17  1  0
 17 18  1  0
 17 19  2  0
 19 20  1  0
 20 21  1  0
  6 22  2  0
 22  2  1  0
 20 10  2  0
 19 12  1  0
M  END
>  <Binding energies>  (41) 
[-6.76]

>  <Ligand effiencies>  (41) 
[-0.2704]

>  <Interactions>  (41) 
["H-A:GLU:543:OE1:4904, V-A:GLU:543:CD:4903, V-A:HIS:456:CE1:4064, V-A:GLU:543:CB:4901, V-B:GLU:543:CG:9875, H-A:GLU:543:OE2:4905, V-B:GLU:543:CB:9874, V-B:HIS:456:CE1:9037, V-B:GLU:543:CD:9876, V-B:TYR:539:CE2:9844, V-B:ALA:541:CB:9860, V-B:TYR:539:CD2:9842, V-A:LEU:475:CD2:4254, V-A:GLU:543:CG:4902, H-A:HIS:456:NE2:4065, H-A:TYR:484:OH:4343, H-B:GLU:543:OE2:9878, V-A:TYR:484:CZ:4342, V-B:GLU:543:CA:9872, V-A:TYR:484:CE1:4340"]

$$$$
4af_Grossjean_2025
     RDKit          3D

 21 23  0  0  0  0  0  0  0  0999 V2000
  135.3110  125.0980   66.5170 C   0  0  0  0  0  0  0  0  0  0  0  0
  134.0850  125.1030   65.6230 C   0  0  0  0  0  0  0  0  0  0  0  0
  132.8370  125.4750   66.1190 C   0  0  0  0  0  0  0  0  0  0  0  0
  131.7190  125.4690   65.2760 C   0  0  0  0  0  0  0  0  0  0  0  0
  130.3780  125.8810   65.8630 C   0  0  0  0  0  0  0  0  0  0  0  0
  131.9100  125.0760   63.9240 C   0  0  0  0  0  0  0  0  0  0  0  0
  131.0040  124.9560   62.8120 C   0  0  0  0  0  0  0  0  0  0  0  0
  129.6670  125.2440   62.9220 N   0  0  0  0  0  0  0  0  0  0  0  0
  131.6140  124.5240   61.6240 C   0  0  0  0  0  0  0  0  0  0  0  0
  130.9950  124.2670   60.3220 C   0  0  0  0  0  0  0  0  0  0  0  0
  131.5830  124.5560   59.2800 O   0  0  0  0  0  0  0  0  0  0  0  0
  129.7700  123.6890   60.3670 N   0  0  0  0  0  0  0  0  0  0  0  0
  128.8960  123.3580   59.3140 C   0  0  0  0  0  0  0  0  0  0  0  0
  127.5030  123.5510   59.3190 C   0  0  0  0  0  0  0  0  0  0  0  0
  126.7470  123.1610   58.2120 C   0  0  0  0  0  0  0  0  0  0  0  0
  127.4040  122.5820   57.1250 C   0  0  0  0  0  0  0  0  0  0  0  0
  128.7450  122.3780   57.0980 N   0  0  0  0  0  0  0  0  0  0  0  0
  129.4650  122.7620   58.1820 C   0  0  0  0  0  0  0  0  0  0  0  0
  133.3430  124.2500   61.8580 S   0  0  0  0  0  0  0  0  0  0  0  0
  133.2370  124.7190   63.5400 C   0  0  0  0  0  0  0  0  0  0  0  0
  134.3040  124.7230   64.3400 N   0  0  0  0  0  0  0  0  0  0  0  0
  1  2  1  0
  2  3  2  0
  3  4  1  0
  4  5  1  0
  4  6  2  0
  6  7  1  0
  7  8  1  0
  7  9  2  0
  9 10  1  0
 10 11  2  0
 10 12  1  0
 12 13  1  0
 13 14  2  0
 14 15  1  0
 15 16  2  0
 16 17  1  0
 17 18  2  0
  9 19  1  0
 19 20  1  0
 20 21  2  0
 21  2  1  0
 20  6  1  0
 18 13  1  0
M  END
>  <Binding energies>  (42) 
[-6.25]

>  <Ligand effiencies>  (42) 
[-0.2604166666666667]

>  <Interactions>  (42) 
["V-A:ASP:366:CG:3208, V-B:TYR:539:CZ:9845, V-A:HIS:456:CE1:4064, V-A:ARG:545:CZ:4921, V-B:GLU:543:CD:9876, V-B:TYR:539:CE2:9844, V-B:TYR:539:CD2:9842, V-B:TYR:539:C:9835, V-B:PRO:540:CA:9851, H-A:TYR:484:OH:4343, H-B:GLU:543:OE2:9878, V-A:GLY:453:C:4037, V-A:GLY:453:CA:4039, V-A:ARG:545:CD:4918, H-A:GLY:454:N:4045, V-A:HIS:456:CD2:4063, V-B:PRO:540:N:9852, V-A:ARG:545:CG:4917, V-B:PRO:540:CB:9853, V-B:MET:535:CE:9803, H-A:ARG:545:NH1:4922"]

$$$$
4ag_Grossjean_2025
     RDKit          3D

 22 24  0  0  0  0  0  0  0  0999 V2000
  134.8420  125.0600   66.3680 C   0  0  0  0  0  0  0  0  0  0  0  0
  133.7000  125.0610   65.3690 C   0  0  0  0  0  0  0  0  0  0  0  0
  132.4530  125.5830   65.7070 C   0  0  0  0  0  0  0  0  0  0  0  0
  131.4130  125.5760   64.7700 C   0  0  0  0  0  0  0  0  0  0  0  0
  130.0700  126.1570   65.1860 C   0  0  0  0  0  0  0  0  0  0  0  0
  131.6810  125.0250   63.4880 C   0  0  0  0  0  0  0  0  0  0  0  0
  130.8650  124.8610   62.3150 C   0  0  0  0  0  0  0  0  0  0  0  0
  129.5540  125.2650   62.2690 N   0  0  0  0  0  0  0  0  0  0  0  0
  131.5310  124.2530   61.2400 C   0  0  0  0  0  0  0  0  0  0  0  0
  131.0130  123.9460   59.9070 C   0  0  0  0  0  0  0  0  0  0  0  0
  131.3690  124.5870   58.9160 O   0  0  0  0  0  0  0  0  0  0  0  0
  130.1160  122.9400   59.8360 N   0  0  0  0  0  0  0  0  0  0  0  0
  129.4910  122.4470   58.6090 C   0  0  0  0  0  0  0  0  0  0  0  0
  128.0250  122.8390   58.4610 C   0  0  0  0  0  0  0  0  0  0  0  0
  127.3870  123.5460   59.4840 C   0  0  0  0  0  0  0  0  0  0  0  0
  126.0550  123.9260   59.3410 C   0  0  0  0  0  0  0  0  0  0  0  0
  125.3680  123.6080   58.1710 C   0  0  0  0  0  0  0  0  0  0  0  0
  126.0020  122.9180   57.1410 C   0  0  0  0  0  0  0  0  0  0  0  0
  127.3340  122.5380   57.2830 C   0  0  0  0  0  0  0  0  0  0  0  0
  133.2030  123.8760   61.6540 S   0  0  0  0  0  0  0  0  0  0  0  0
  132.9990  124.5240   63.2660 C   0  0  0  0  0  0  0  0  0  0  0  0
  133.9920  124.5310   64.1560 N   0  0  0  0  0  0  0  0  0  0  0  0
  1  2  1  0
  2  3  2  0
  3  4  1  0
  4  5  1  0
  4  6  2  0
  6  7  1  0
  7  8  1  0
  7  9  2  0
  9 10  1  0
 10 11  2  0
 10 12  1  0
 12 13  1  0
 13 14  1  0
 14 15  2  0
 15 16  1  0
 16 17  2  0
 17 18  1  0
 18 19  2  0
  9 20  1  0
 20 21  1  0
 21 22  2  0
 22  2  1  0
 21  6  1  0
 19 14  1  0
M  END
>  <Binding energies>  (43) 
[-6.61]

>  <Ligand effiencies>  (43) 
[-0.2644]

>  <Interactions>  (43) 
["V-A:ASP:366:CG:3208, V-A:ARG:545:CZ:4921, V-A:ILE:369:CD1:3234, V-B:GLU:543:CD:9876, V-B:TYR:539:CE2:9844, V-B:TYR:539:CD2:9842, V-B:TYR:539:C:9835, V-B:PRO:540:CA:9851, H-A:TYR:484:OH:4343, H-B:GLU:543:OE2:9878, V-A:GLY:453:C:4037, V-A:GLY:453:CA:4039, V-A:ARG:545:CD:4918, H-A:GLY:454:N:4045, V-A:HIS:456:CD2:4063, V-B:PRO:540:N:9852, V-A:ARG:545:CG:4917, V-B:PRO:540:CB:9853, V-B:MET:535:CE:9803, V-B:PRO:540:CD:9855"]

$$$$
4ah_Grossjean_2025
     RDKit          3D

 28 30  0  0  0  0  0  0  0  0999 V2000
  129.9090  124.4940   71.3490 C   0  0  0  0  0  0  0  0  0  0  0  0
  129.2610  125.4970   72.1220 O   0  0  0  0  0  0  0  0  0  0  0  0
  129.4590  126.8300   71.8070 C   0  0  0  0  0  0  0  0  0  0  0  0
  129.5490  127.3200   70.4940 C   0  0  0  0  0  0  0  0  0  0  0  0
  129.7510  128.6790   70.2510 C   0  0  0  0  0  0  0  0  0  0  0  0
  129.8000  129.1990   68.8190 C   0  0  0  0  0  0  0  0  0  0  0  0
  129.9980  128.1480   67.8210 N   0  0  0  0  0  0  0  0  0  0  0  0
  129.1310  127.1490   67.5550 C   0  0  0  0  0  0  0  0  0  0  0  0
  128.0760  127.0030   68.1740 O   0  0  0  0  0  0  0  0  0  0  0  0
  129.5350  126.2110   66.5080 C   0  0  0  0  0  0  0  0  0  0  0  0
  129.7750  124.5050   66.8910 S   0  0  0  0  0  0  0  0  0  0  0  0
  130.2450  124.1560   65.2420 C   0  0  0  0  0  0  0  0  0  0  0  0
  130.5760  122.9260   64.8480 N   0  0  0  0  0  0  0  0  0  0  0  0
  130.9180  122.7900   63.5440 C   0  0  0  0  0  0  0  0  0  0  0  0
  131.2940  121.3830   63.1180 C   0  0  0  0  0  0  0  0  0  0  0  0
  130.9370  123.8450   62.6350 C   0  0  0  0  0  0  0  0  0  0  0  0
  130.5920  125.1360   63.0510 C   0  0  0  0  0  0  0  0  0  0  0  0
  130.6280  126.2550   62.0210 C   0  0  0  0  0  0  0  0  0  0  0  0
  130.2280  125.3180   64.4130 C   0  0  0  0  0  0  0  0  0  0  0  0
  129.8310  126.4790   65.1640 C   0  0  0  0  0  0  0  0  0  0  0  0
  129.7460  127.7260   64.5980 N   0  0  0  0  0  0  0  0  0  0  0  0
  129.8350  129.5650   71.3250 C   0  0  0  0  0  0  0  0  0  0  0  0
  129.7540  129.1030   72.6480 C   0  0  0  0  0  0  0  0  0  0  0  0
  129.8450  129.9230   73.7590 O   0  0  0  0  0  0  0  0  0  0  0  0
  129.7180  131.3320   73.5990 C   0  0  0  0  0  0  0  0  0  0  0  0
  129.5720  127.7320   72.8750 C   0  0  0  0  0  0  0  0  0  0  0  0
  129.4720  127.2680   74.1650 O   0  0  0  0  0  0  0  0  0  0  0  0
  130.5350  126.4100   74.5550 C   0  0  0  0  0  0  0  0  0  0  0  0
  1  2  1  0
  2  3  1  0
  3  4  2  0
  4  5  1  0
  5  6  1  0
  6  7  1  0
  7  8  1  0
  8  9  2  0
  8 10  1  0
 10 11  1  0
 11 12  1  0
 12 13  2  0
 13 14  1  0
 14 15  1  0
 14 16  2  0
 16 17  1  0
 17 18  1  0
 17 19  2  0
 19 20  1  0
 20 21  1  0
  5 22  2  0
 22 23  1  0
 23 24  1  0
 24 25  1  0
 23 26  2  0
 26 27  1  0
 27 28  1  0
 26  3  1  0
 20 10  2  0
 19 12  1  0
M  END
>  <Binding energies>  (44) 
[-6.64]

>  <Ligand effiencies>  (44) 
[-0.21419354838709675]

>  <Interactions>  (44) 
["H-A:GLU:543:OE1:4904, V-A:GLU:543:CD:4903, V-A:HIS:456:CE1:4064, V-A:GLU:543:CB:4901, V-B:GLU:543:CG:9875, V-B:HIS:456:CD2:9035, H-A:GLU:543:OE2:4905, V-B:GLU:543:CB:9874, V-B:GLU:543:CD:9876, V-B:ALA:541:CB:9860, V-A:LEU:475:CD1:4253, V-A:LEU:475:CG:4252, V-A:LEU:475:CD2:4254, V-A:GLU:543:CG:4902, H-B:LYS:547:NZ:9919, H-A:TYR:484:OH:4343, V-A:TYR:484:CZ:4342, V-B:GLU:543:CA:9872, V-A:LYS:547:CE:4945, H-A:LYS:547:NZ:4946, V-A:TYR:484:CE1:4340, V-A:GLU:543:CA:4899, V-A:GLU:543:C:4897, V-B:LYS:547:CE:9918"]

$$$$
4ai_Grossjean_2025
     RDKit          3D

 20 22  0  0  0  0  0  0  0  0999 V2000
  126.5240  122.4850   57.0800 C   0  0  0  0  0  0  0  0  0  0  0  0
  127.7880  122.8110   57.8530 C   0  0  0  0  0  0  0  0  0  0  0  0
  128.9460  123.2210   57.1940 C   0  0  0  0  0  0  0  0  0  0  0  0
  130.0990  123.5230   57.9270 C   0  0  0  0  0  0  0  0  0  0  0  0
  131.3370  123.9680   57.1620 C   0  0  0  0  0  0  0  0  0  0  0  0
  130.0380  123.3970   59.3410 C   0  0  0  0  0  0  0  0  0  0  0  0
  131.0100  123.6200   60.3770 C   0  0  0  0  0  0  0  0  0  0  0  0
  132.2900  124.0320   60.1030 N   0  0  0  0  0  0  0  0  0  0  0  0
  130.5260  123.3860   61.6740 C   0  0  0  0  0  0  0  0  0  0  0  0
  131.2390  123.5040   62.9480 C   0  0  0  0  0  0  0  0  0  0  0  0
  130.9900  122.7400   63.8810 O   0  0  0  0  0  0  0  0  0  0  0  0
  132.1760  124.4840   63.0000 N   0  0  0  0  0  0  0  0  0  0  0  0
  132.9990  124.8090   64.0710 C   0  0  0  0  0  0  0  0  0  0  0  0
  132.5130  125.2860   65.2880 C   0  0  0  0  0  0  0  0  0  0  0  0
  133.6300  125.4860   66.0660 C   0  0  0  0  0  0  0  0  0  0  0  0
  134.7310  125.1460   65.3550 O   0  0  0  0  0  0  0  0  0  0  0  0
  134.3190  124.7170   64.0930 N   0  0  0  0  0  0  0  0  0  0  0  0
  128.8440  122.8530   61.6390 S   0  0  0  0  0  0  0  0  0  0  0  0
  128.7940  122.9680   59.8940 C   0  0  0  0  0  0  0  0  0  0  0  0
  127.6930  122.6780   59.1980 N   0  0  0  0  0  0  0  0  0  0  0  0
  1  2  1  0
  2  3  2  0
  3  4  1  0
  4  5  1  0
  4  6  2  0
  6  7  1  0
  7  8  1  0
  7  9  2  0
  9 10  1  0
 10 11  2  0
 10 12  1  0
 12 13  1  0
 13 14  1  0
 14 15  2  0
 15 16  1  0
 16 17  1  0
  9 18  1  0
 18 19  1  0
 19 20  2  0
 20  2  1  0
 19  6  1  0
 17 13  2  0
M  END
>  <Binding energies>  (45) 
[-5.96]

>  <Ligand effiencies>  (45) 
[-0.2591304347826087]

>  <Interactions>  (45) 
["V-A:ASP:366:CG:3208, V-B:TYR:539:CZ:9845, V-A:ARG:545:CZ:4921, V-B:TYR:539:CE2:9844, V-B:ALA:541:CB:9860, V-B:TYR:539:C:9835, V-B:PRO:540:CA:9851, H-A:TYR:484:OH:4343, V-A:ARG:545:CD:4918, H-A:GLY:454:N:4045, V-A:HIS:456:CD2:4063, V-B:PRO:540:N:9852, V-A:ARG:545:CG:4917, V-B:PRO:540:CB:9853, H-A:ASP:366:OD2:3210, V-B:MET:535:CE:9803, H-A:ARG:545:NE:4919, H-A:ARG:545:NH1:4922, H-A:ASP:366:OD1:3209, V-B:PRO:540:CD:9855"]

$$$$
4aj_Grossjean_2025
     RDKit          3D

 20 22  0  0  0  0  0  0  0  0999 V2000
  129.3740  128.3080   70.3800 C   0  0  0  0  0  0  0  0  0  0  0  0
  129.4000  127.8330   68.9390 C   0  0  0  0  0  0  0  0  0  0  0  0
  129.0720  128.6930   67.8940 C   0  0  0  0  0  0  0  0  0  0  0  0
  129.0980  128.2310   66.5730 C   0  0  0  0  0  0  0  0  0  0  0  0
  128.7320  129.2100   65.4670 C   0  0  0  0  0  0  0  0  0  0  0  0
  129.4650  126.8770   66.3500 C   0  0  0  0  0  0  0  0  0  0  0  0
  129.5910  126.0910   65.1520 C   0  0  0  0  0  0  0  0  0  0  0  0
  129.3380  126.6080   63.9070 N   0  0  0  0  0  0  0  0  0  0  0  0
  129.9960  124.7670   65.3800 C   0  0  0  0  0  0  0  0  0  0  0  0
  130.2110  123.6990   64.4000 C   0  0  0  0  0  0  0  0  0  0  0  0
  130.9810  122.7670   64.6440 O   0  0  0  0  0  0  0  0  0  0  0  0
  129.5050  123.8140   63.2490 N   0  0  0  0  0  0  0  0  0  0  0  0
  129.5180  122.9380   62.1720 C   0  0  0  0  0  0  0  0  0  0  0  0
  128.4870  122.4570   61.5110 N   0  0  0  0  0  0  0  0  0  0  0  0
  128.8690  121.6520   60.5380 C   0  0  0  0  0  0  0  0  0  0  0  0
  130.2410  121.4660   60.3960 C   0  0  0  0  0  0  0  0  0  0  0  0
  131.0670  122.4020   61.6070 S   0  0  0  0  0  0  0  0  0  0  0  0
  130.2170  124.4550   67.1020 S   0  0  0  0  0  0  0  0  0  0  0  0
  129.7800  126.1000   67.5050 C   0  0  0  0  0  0  0  0  0  0  0  0
  129.7560  126.5360   68.7650 N   0  0  0  0  0  0  0  0  0  0  0  0
  1  2  1  0
  2  3  2  0
  3  4  1  0
  4  5  1  0
  4  6  2  0
  6  7  1  0
  7  8  1  0
  7  9  2  0
  9 10  1  0
 10 11  2  0
 10 12  1  0
 12 13  1  0
 13 14  2  0
 14 15  1  0
 15 16  2  0
 16 17  1  0
  9 18  1  0
 18 19  1  0
 19 20  2  0
 20  2  1  0
 19  6  1  0
 17 13  1  0
M  END
>  <Binding energies>  (46) 
[-6.01]

>  <Ligand effiencies>  (46) 
[-0.26130434782608697]

>  <Interactions>  (46) 
["H-A:GLU:543:OE1:4904, V-A:GLU:543:CD:4903, V-A:HIS:456:CE1:4064, V-A:GLU:543:CB:4901, V-B:GLU:543:CG:9875, H-A:GLU:543:OE2:4905, V-B:GLU:543:CB:9874, V-B:HIS:456:CE1:9037, V-B:GLU:543:CD:9876, V-B:ALA:541:CB:9860, V-B:TYR:539:CD2:9842, V-B:TYR:539:C:9835, V-A:GLU:543:CG:4902, V-B:PRO:540:CA:9851, V-B:PRO:540:C:9849, H-A:HIS:456:NE2:4065, H-A:TYR:484:OH:4343, H-B:ALA:541:N:9859, H-B:GLU:543:OE2:9878, V-A:TYR:484:CZ:4342, V-A:TYR:484:CE1:4340"]

$$$$
4ak_Grossjean_2025
     RDKit          3D

 25 26  0  0  0  0  0  0  0  0999 V2000
  135.4700  124.7670   66.9030 C   0  0  0  0  0  0  0  0  0  0  0  0
  135.0660  125.0980   65.5840 O   0  0  0  0  0  0  0  0  0  0  0  0
  133.6820  125.4100   65.4780 C   0  0  0  0  0  0  0  0  0  0  0  0
  133.2130  125.1740   64.0360 C   0  0  0  0  0  0  0  0  0  0  0  0
  133.6160  123.8780   63.6160 O   0  0  0  0  0  0  0  0  0  0  0  0
  134.2780  123.8620   62.3580 C   0  0  0  0  0  0  0  0  0  0  0  0
  133.2330  123.8520   61.2360 C   0  0  0  0  0  0  0  0  0  0  0  0
  132.1990  122.9340   61.5640 O   0  0  0  0  0  0  0  0  0  0  0  0
  130.9350  123.2670   61.0060 C   0  0  0  0  0  0  0  0  0  0  0  0
  129.8230  122.8870   62.0010 C   0  0  0  0  0  0  0  0  0  0  0  0
  129.7040  123.8120   63.1280 N   0  0  0  0  0  0  0  0  0  0  0  0
  130.2700  123.6410   64.3400 C   0  0  0  0  0  0  0  0  0  0  0  0
  130.9780  122.6690   64.6080 O   0  0  0  0  0  0  0  0  0  0  0  0
  130.0030  124.6860   65.3270 C   0  0  0  0  0  0  0  0  0  0  0  0
  130.1690  124.3460   67.0500 S   0  0  0  0  0  0  0  0  0  0  0  0
  129.7200  125.9850   67.4630 C   0  0  0  0  0  0  0  0  0  0  0  0
  129.6480  126.3990   68.7290 N   0  0  0  0  0  0  0  0  0  0  0  0
  129.2860  127.6930   68.9120 C   0  0  0  0  0  0  0  0  0  0  0  0
  129.2100  128.1450   70.3590 C   0  0  0  0  0  0  0  0  0  0  0  0
  128.9990  128.5720   67.8700 C   0  0  0  0  0  0  0  0  0  0  0  0
  129.0770  128.1350   66.5430 C   0  0  0  0  0  0  0  0  0  0  0  0
  128.7510  129.1310   65.4410 C   0  0  0  0  0  0  0  0  0  0  0  0
  129.4520  126.7840   66.3110 C   0  0  0  0  0  0  0  0  0  0  0  0
  129.6260  126.0200   65.1060 C   0  0  0  0  0  0  0  0  0  0  0  0
  129.4340  126.5610   63.8600 N   0  0  0  0  0  0  0  0  0  0  0  0
  1  2  1  0
  2  3  1  0
  3  4  1  0
  4  5  1  0
  5  6  1  0
  6  7  1  0
  7  8  1  0
  8  9  1  0
  9 10  1  0
 10 11  1  0
 11 12  1  0
 12 13  2  0
 12 14  1  0
 14 15  1  0
 15 16  1  0
 16 17  2  0
 17 18  1  0
 18 19  1  0
 18 20  2  0
 20 21  1  0
 21 22  1  0
 21 23  2  0
 23 24  1  0
 24 25  1  0
 24 14  2  0
 23 16  1  0
M  END
>  <Binding energies>  (47) 
[-5.98]

>  <Ligand effiencies>  (47) 
[-0.21357142857142858]

>  <Interactions>  (47) 
["H-A:GLU:543:OE1:4904, V-A:GLU:543:CD:4903, V-A:ASP:366:CG:3208, V-A:HIS:456:CE1:4064, V-A:ARG:545:CZ:4921, V-A:GLU:543:CB:4901, V-B:GLU:543:CG:9875, H-A:GLU:543:OE2:4905, V-B:GLU:543:CB:9874, V-A:ILE:369:CD1:3234, V-B:HIS:456:CE1:9037, V-B:GLU:543:CD:9876, V-B:ALA:541:CB:9860, V-A:GLU:543:CG:4902, H-A:HIS:456:NE2:4065, H-A:TYR:484:OH:4343, V-A:GLY:454:CA:4044, H-B:GLU:543:OE2:9878, V-A:GLY:453:C:4037, V-A:TYR:484:CZ:4342, V-A:GLY:453:CA:4039, V-A:ARG:545:CD:4918, H-A:GLY:454:N:4045, V-A:HIS:456:CD2:4063, V-B:GLU:543:CA:9872, V-A:TYR:484:CE1:4340, V-A:ARG:545:CG:4917, H-A:ARG:545:NE:4919, H-A:ARG:545:NH1:4922, V-A:ILE:455:C:4047, V-A:GLY:454:C:4042, V-A:ILE:455:CA:4049"]

$$$$
4al_Grossjean_2025
     RDKit          3D

 16 17  0  0  0  0  0  0  0  0999 V2000
  134.3070  125.0740   65.7540 C   0  0  0  0  0  0  0  0  0  0  0  0
  133.9740  124.6920   64.4280 O   0  0  0  0  0  0  0  0  0  0  0  0
  132.8150  125.1060   63.8530 C   0  0  0  0  0  0  0  0  0  0  0  0
  132.4010  126.2670   63.8940 O   0  0  0  0  0  0  0  0  0  0  0  0
  132.0910  124.0150   63.1660 C   0  0  0  0  0  0  0  0  0  0  0  0
  132.8890  122.4640   62.8910 S   0  0  0  0  0  0  0  0  0  0  0  0
  131.4640  121.8240   62.1040 C   0  0  0  0  0  0  0  0  0  0  0  0
  131.4230  120.5820   61.6230 N   0  0  0  0  0  0  0  0  0  0  0  0
  130.2590  120.2080   61.0360 C   0  0  0  0  0  0  0  0  0  0  0  0
  130.2340  118.7900   60.4950 C   0  0  0  0  0  0  0  0  0  0  0  0
  129.1470  121.0400   60.9220 C   0  0  0  0  0  0  0  0  0  0  0  0
  129.1930  122.3430   61.4280 C   0  0  0  0  0  0  0  0  0  0  0  0
  127.9560  123.2140   61.2800 C   0  0  0  0  0  0  0  0  0  0  0  0
  130.3980  122.7700   62.0500 C   0  0  0  0  0  0  0  0  0  0  0  0
  130.7850  124.0100   62.6640 C   0  0  0  0  0  0  0  0  0  0  0  0
  129.9420  125.0890   62.7450 N   0  0  0  0  0  0  0  0  0  0  0  0
  1  2  1  0
  2  3  1  0
  3  4  2  0
  3  5  1  0
  5  6  1  0
  6  7  1  0
  7  8  2  0
  8  9  1  0
  9 10  1  0
  9 11  2  0
 11 12  1  0
 12 13  1  0
 12 14  2  0
 14 15  1  0
 15 16  1  0
 15  5  2  0
 14  7  1  0
M  END
>  <Binding energies>  (48) 
[-4.93]

>  <Ligand effiencies>  (48) 
[-0.27388888888888885]

>  <Interactions>  (48) 
["V-A:ARG:545:CZ:4921, H-A:ARG:545:NH2:4923, V-B:GLU:543:CD:9876, V-B:ALA:541:CB:9860, V-A:TRP:381:CZ2:3365, V-B:TYR:539:CD2:9842, V-A:TRP:381:CH2:3367, V-A:LEU:475:CD2:4254, V-A:TRP:381:CZ3:3366, V-B:TYR:539:C:9835, V-B:PRO:540:CA:9851, V-B:PRO:540:C:9849, H-A:TYR:484:OH:4343, V-A:GLY:454:CA:4044, H-B:GLU:543:OE2:9878, V-A:GLY:453:C:4037, V-B:ALA:541:CA:9858, V-A:GLY:453:CA:4039, V-A:ARG:545:CD:4918, H-A:GLY:454:N:4045, V-A:ARG:545:CG:4917, H-A:ARG:545:NE:4919"]

$$$$
4bc_Grossjean_2025
     RDKit          3D

 26 28  0  0  0  0  0  0  0  0999 V2000
  128.4320  128.0910   71.0320 C   0  0  0  0  0  0  0  0  0  0  0  0
  127.5350  127.5130   70.0890 O   0  0  0  0  0  0  0  0  0  0  0  0
  128.0270  127.0750   68.8740 C   0  0  0  0  0  0  0  0  0  0  0  0
  129.1030  126.1900   68.9200 C   0  0  0  0  0  0  0  0  0  0  0  0
  129.6660  125.6950   67.7470 C   0  0  0  0  0  0  0  0  0  0  0  0
  129.1510  126.0740   66.5060 C   0  0  0  0  0  0  0  0  0  0  0  0
  129.7930  125.5360   65.3760 N   0  0  0  0  0  0  0  0  0  0  0  0
  131.0660  125.0890   65.2440 C   0  0  0  0  0  0  0  0  0  0  0  0
  131.9040  125.1270   66.1470 O   0  0  0  0  0  0  0  0  0  0  0  0
  131.4100  124.5480   63.9260 C   0  0  0  0  0  0  0  0  0  0  0  0
  132.8090  125.1660   63.0510 S   0  0  0  0  0  0  0  0  0  0  0  0
  132.5100  124.0800   61.7150 C   0  0  0  0  0  0  0  0  0  0  0  0
  133.3010  124.0640   60.6420 N   0  0  0  0  0  0  0  0  0  0  0  0
  132.9680  123.1820   59.6720 C   0  0  0  0  0  0  0  0  0  0  0  0
  133.8840  123.1760   58.4610 C   0  0  0  0  0  0  0  0  0  0  0  0
  131.8730  122.3240   59.7470 C   0  0  0  0  0  0  0  0  0  0  0  0
  131.0370  122.3370   60.8750 C   0  0  0  0  0  0  0  0  0  0  0  0
  129.8430  121.3760   60.9110 C   0  0  0  0  0  0  0  0  0  0  0  0
  128.6670  122.0060   60.9240 F   0  0  0  0  0  0  0  0  0  0  0  0
  129.8650  120.5910   59.8340 F   0  0  0  0  0  0  0  0  0  0  0  0
  129.9040  120.6210   62.0080 F   0  0  0  0  0  0  0  0  0  0  0  0
  131.3610  123.2550   61.9180 C   0  0  0  0  0  0  0  0  0  0  0  0
  130.7550  123.5450   63.1950 C   0  0  0  0  0  0  0  0  0  0  0  0
  129.6370  122.8930   63.6470 N   0  0  0  0  0  0  0  0  0  0  0  0
  128.0760  126.9750   66.4500 C   0  0  0  0  0  0  0  0  0  0  0  0
  127.5170  127.4680   67.6250 C   0  0  0  0  0  0  0  0  0  0  0  0
  1  2  1  0
  2  3  1  0
  3  4  2  0
  4  5  1  0
  5  6  2  0
  6  7  1  0
  7  8  1  0
  8  9  2  0
  8 10  1  0
 10 11  1  0
 11 12  1  0
 12 13  2  0
 13 14  1  0
 14 15  1  0
 14 16  2  0
 16 17  1  0
 17 18  1  0
 18 19  1  0
 18 20  1  0
 18 21  1  0
 17 22  2  0
 22 23  1  0
 23 24  1  0
  6 25  1  0
 25 26  2  0
 26  3  1  0
 23 10  2  0
 22 12  1  0
M  END
>  <Binding energies>  (49) 
[-5.88]

>  <Ligand effiencies>  (49) 
[-0.20275862068965517]

>  <Interactions>  (49) 
["V-A:ASP:366:CG:3208, V-A:HIS:456:CE1:4064, V-A:ARG:545:CZ:4921, V-B:GLU:543:CG:9875, V-B:HIS:456:CD2:9035, V-B:GLU:543:CB:9874, V-A:ILE:369:CD1:3234, V-B:HIS:456:CE1:9037, V-B:GLU:543:CD:9876, V-B:TYR:539:CE2:9844, V-B:ALA:541:CB:9860, V-B:TYR:539:CD2:9842, V-A:LEU:475:CD2:4254, V-B:TYR:539:C:9835, V-B:GLU:543:C:9870, V-B:PRO:540:CA:9851, V-B:PRO:540:C:9849, H-A:HIS:456:NE2:4065, H-A:TYR:484:OH:4343, H-B:GLU:543:OE2:9878, V-B:ALA:541:CA:9858, V-A:ASP:366:CB:3207, V-A:ASP:366:CA:3205, V-A:ILE:369:CB:3231, V-A:ILE:369:CG2:3232, V-A:ILE:369:CG1:3233"]

$$$$
4bf_Grossjean_2025
     RDKit          3D

 24 26  0  0  0  0  0  0  0  0999 V2000
  135.3820  125.0910   66.5170 C   0  0  0  0  0  0  0  0  0  0  0  0
  134.1500  125.1090   65.6290 C   0  0  0  0  0  0  0  0  0  0  0  0
  132.9130  125.5090   66.1270 C   0  0  0  0  0  0  0  0  0  0  0  0
  131.7820  125.5170   65.2960 C   0  0  0  0  0  0  0  0  0  0  0  0
  130.4400  125.9620   65.8890 C   0  0  0  0  0  0  0  0  0  0  0  0
  129.7610  126.7840   65.0850 F   0  0  0  0  0  0  0  0  0  0  0  0
  129.6700  124.8980   66.1140 F   0  0  0  0  0  0  0  0  0  0  0  0
  130.6460  126.6080   67.0370 F   0  0  0  0  0  0  0  0  0  0  0  0
  131.9620  125.1030   63.9430 C   0  0  0  0  0  0  0  0  0  0  0  0
  131.0600  124.9810   62.8240 C   0  0  0  0  0  0  0  0  0  0  0  0
  129.7260  125.2910   62.9140 N   0  0  0  0  0  0  0  0  0  0  0  0
  131.6670  124.5240   61.6430 C   0  0  0  0  0  0  0  0  0  0  0  0
  131.0470  124.2590   60.3410 C   0  0  0  0  0  0  0  0  0  0  0  0
  131.6440  124.5210   59.2970 O   0  0  0  0  0  0  0  0  0  0  0  0
  129.8100  123.7050   60.3890 N   0  0  0  0  0  0  0  0  0  0  0  0
  128.9340  123.3760   59.3370 C   0  0  0  0  0  0  0  0  0  0  0  0
  127.5410  123.5650   59.3480 C   0  0  0  0  0  0  0  0  0  0  0  0
  126.7830  123.1790   58.2400 C   0  0  0  0  0  0  0  0  0  0  0  0
  127.4380  122.6080   57.1480 C   0  0  0  0  0  0  0  0  0  0  0  0
  128.7790  122.4090   57.1160 N   0  0  0  0  0  0  0  0  0  0  0  0
  129.5030  122.7890   58.2010 C   0  0  0  0  0  0  0  0  0  0  0  0
  133.3860  124.2250   61.8850 S   0  0  0  0  0  0  0  0  0  0  0  0
  133.2840  124.7170   63.5590 C   0  0  0  0  0  0  0  0  0  0  0  0
  134.3550  124.7120   64.3510 N   0  0  0  0  0  0  0  0  0  0  0  0
  1  2  1  0
  2  3  2  0
  3  4  1  0
  4  5  1  0
  5  6  1  0
  5  7  1  0
  5  8  1  0
  4  9  2  0
  9 10  1  0
 10 11  1  0
 10 12  2  0
 12 13  1  0
 13 14  2  0
 13 15  1  0
 15 16  1  0
 16 17  2  0
 17 18  1  0
 18 19  2  0
 19 20  1  0
 20 21  2  0
 12 22  1  0
 22 23  1  0
 23 24  2  0
 24  2  1  0
 23  9  1  0
 21 16  1  0
M  END
>  <Binding energies>  (50) 
[-5.93]

>  <Ligand effiencies>  (50) 
[-0.21962962962962962]

>  <Interactions>  (50) 
["V-A:GLU:543:CD:4903, V-A:ASP:366:CG:3208, V-B:TYR:539:CZ:9845, V-A:HIS:456:CE1:4064, V-A:ARG:545:CZ:4921, V-B:GLU:543:CG:9875, V-B:GLU:543:CB:9874, V-B:GLU:543:CD:9876, V-B:TYR:539:CE2:9844, V-B:TYR:539:CD2:9842, V-B:TYR:539:C:9835, V-B:PRO:540:CA:9851, H-A:TYR:484:OH:4343, H-B:GLU:543:OE2:9878, V-A:GLY:453:C:4037, V-A:GLY:453:CA:4039, V-A:ARG:545:CD:4918, H-A:GLY:454:N:4045, V-A:HIS:456:CD2:4063, V-B:PRO:540:N:9852, V-A:ARG:545:CG:4917, V-B:PRO:540:CB:9853, V-B:MET:535:CE:9803, H-A:ARG:545:NH1:4922, V-A:ILE:455:C:4047"]

$$$$
4bh_Grossjean_2025
     RDKit          3D

 31 33  0  0  0  0  0  0  0  0999 V2000
  129.8550  124.4480   71.5200 C   0  0  0  0  0  0  0  0  0  0  0  0
  128.9730  125.4450   72.0240 O   0  0  0  0  0  0  0  0  0  0  0  0
  129.1940  126.7720   71.7020 C   0  0  0  0  0  0  0  0  0  0  0  0
  129.1710  127.2750   70.3920 C   0  0  0  0  0  0  0  0  0  0  0  0
  129.4040  128.6270   70.1400 C   0  0  0  0  0  0  0  0  0  0  0  0
  129.3300  129.1630   68.7150 C   0  0  0  0  0  0  0  0  0  0  0  0
  129.6680  128.1670   67.6980 N   0  0  0  0  0  0  0  0  0  0  0  0
  128.8660  127.1600   67.2930 C   0  0  0  0  0  0  0  0  0  0  0  0
  127.7560  126.9580   67.7870 O   0  0  0  0  0  0  0  0  0  0  0  0
  129.4100  126.2840   66.2550 C   0  0  0  0  0  0  0  0  0  0  0  0
  129.8610  124.6280   66.6470 S   0  0  0  0  0  0  0  0  0  0  0  0
  130.4070  124.3430   65.0100 C   0  0  0  0  0  0  0  0  0  0  0  0
  130.9020  123.1640   64.6380 N   0  0  0  0  0  0  0  0  0  0  0  0
  131.2880  123.0640   63.3450 C   0  0  0  0  0  0  0  0  0  0  0  0
  131.8510  121.7120   62.9420 C   0  0  0  0  0  0  0  0  0  0  0  0
  131.1910  124.1030   62.4240 C   0  0  0  0  0  0  0  0  0  0  0  0
  130.6720  125.3490   62.8110 C   0  0  0  0  0  0  0  0  0  0  0  0
  130.5810  126.4630   61.7620 C   0  0  0  0  0  0  0  0  0  0  0  0
  131.3180  127.5330   62.0700 F   0  0  0  0  0  0  0  0  0  0  0  0
  131.0100  126.0100   60.5850 F   0  0  0  0  0  0  0  0  0  0  0  0
  129.3170  126.8690   61.6440 F   0  0  0  0  0  0  0  0  0  0  0  0
  130.2570  125.4890   64.1690 C   0  0  0  0  0  0  0  0  0  0  0  0
  129.6960  126.5890   64.9150 C   0  0  0  0  0  0  0  0  0  0  0  0
  129.4570  127.8190   64.3580 N   0  0  0  0  0  0  0  0  0  0  0  0
  129.6360  129.4950   71.2080 C   0  0  0  0  0  0  0  0  0  0  0  0
  129.6720  129.0190   72.5280 C   0  0  0  0  0  0  0  0  0  0  0  0
  129.9100  129.8190   73.6310 O   0  0  0  0  0  0  0  0  0  0  0  0
  129.8940  131.2350   73.4830 C   0  0  0  0  0  0  0  0  0  0  0  0
  129.4550  127.6530   72.7610 C   0  0  0  0  0  0  0  0  0  0  0  0
  129.4700  127.1770   74.0510 O   0  0  0  0  0  0  0  0  0  0  0  0
  130.5860  126.3480   74.3470 C   0  0  0  0  0  0  0  0  0  0  0  0
  1  2  1  0
  2  3  1  0
  3  4  2  0
  4  5  1  0
  5  6  1  0
  6  7  1  0
  7  8  1  0
  8  9  2  0
  8 10  1  0
 10 11  1  0
 11 12  1  0
 12 13  2  0
 13 14  1  0
 14 15  1  0
 14 16  2  0
 16 17  1  0
 17 18  1  0
 18 19  1  0
 18 20  1  0
 18 21  1  0
 17 22  2  0
 22 23  1  0
 23 24  1  0
  5 25  2  0
 25 26  1  0
 26 27  1  0
 27 28  1  0
 26 29  2  0
 29 30  1  0
 30 31  1  0
 29  3  1  0
 23 10  2  0
 22 12  1  0
M  END
>  <Binding energies>  (51) 
[-6.33]

>  <Ligand effiencies>  (51) 
[-0.1861764705882353]

>  <Interactions>  (51) 
["H-A:GLU:543:OE1:4904, V-A:GLU:543:CD:4903, V-A:HIS:456:CE1:4064, V-A:GLU:543:CB:4901, V-B:GLU:543:CG:9875, V-B:HIS:456:CD2:9035, H-A:GLU:543:OE2:4905, V-B:GLU:543:CB:9874, V-B:HIS:456:CE1:9037, V-B:GLU:543:CD:9876, V-A:LEU:475:CD2:4254, H-B:LYS:547:NZ:9919, H-A:TYR:484:OH:4343, H-B:GLU:543:OE2:9878, V-A:TYR:484:CZ:4342, V-B:GLU:543:CA:9872, V-A:LYS:547:CE:4945, H-A:LYS:547:NZ:4946, V-A:TYR:484:CE1:4340, V-A:GLU:543:C:4897, V-B:LYS:547:CE:9918"]

$$$$
4bi_Grossjean_2025
     RDKit          3D

 23 25  0  0  0  0  0  0  0  0999 V2000
  134.2340  125.9060   75.3480 C   0  0  0  0  0  0  0  0  0  0  0  0
  132.9450  125.5140   74.6500 C   0  0  0  0  0  0  0  0  0  0  0  0
  132.1980  126.4530   73.9430 C   0  0  0  0  0  0  0  0  0  0  0  0
  131.0090  126.0750   73.2980 C   0  0  0  0  0  0  0  0  0  0  0  0
  130.2250  127.1410   72.5250 C   0  0  0  0  0  0  0  0  0  0  0  0
  129.8380  126.7300   71.3160 F   0  0  0  0  0  0  0  0  0  0  0  0
  129.1280  127.4760   73.2030 F   0  0  0  0  0  0  0  0  0  0  0  0
  130.9840  128.2240   72.3540 F   0  0  0  0  0  0  0  0  0  0  0  0
  130.6130  124.7090   73.4080 C   0  0  0  0  0  0  0  0  0  0  0  0
  129.4830  123.9710   72.8990 C   0  0  0  0  0  0  0  0  0  0  0  0
  128.4960  124.5530   72.1450 N   0  0  0  0  0  0  0  0  0  0  0  0
  129.4870  122.6070   73.2370 C   0  0  0  0  0  0  0  0  0  0  0  0
  128.4980  121.5800   72.9020 C   0  0  0  0  0  0  0  0  0  0  0  0
  127.4640  121.4620   73.5630 O   0  0  0  0  0  0  0  0  0  0  0  0
  128.8000  120.8090   71.8270 N   0  0  0  0  0  0  0  0  0  0  0  0
  128.0430  119.7780   71.2860 C   0  0  0  0  0  0  0  0  0  0  0  0
  127.2580  118.9230   72.0590 C   0  0  0  0  0  0  0  0  0  0  0  0
  126.6800  118.0570   71.1590 C   0  0  0  0  0  0  0  0  0  0  0  0
  127.0950  118.3740   69.9090 O   0  0  0  0  0  0  0  0  0  0  0  0
  127.9590  119.4670   70.0040 N   0  0  0  0  0  0  0  0  0  0  0  0
  130.8890  122.2010   74.2240 S   0  0  0  0  0  0  0  0  0  0  0  0
  131.4680  123.8490   74.1620 C   0  0  0  0  0  0  0  0  0  0  0  0
  132.5970  124.2120   74.7710 N   0  0  0  0  0  0  0  0  0  0  0  0
  1  2  1  0
  2  3  2  0
  3  4  1  0
  4  5  1  0
  5  6  1  0
  5  7  1  0
  5  8  1  0
  4  9  2  0
  9 10  1  0
 10 11  1  0
 10 12  2  0
 12 13  1  0
 13 14  2  0
 13 15  1  0
 15 16  1  0
 16 17  1  0
 17 18  2  0
 18 19  1  0
 19 20  1  0
 12 21  1  0
 21 22  1  0
 22 23  2  0
 23  2  1  0
 22  9  1  0
 20 16  2  0
M  END
>  <Binding energies>  (52) 
[-5.6]

>  <Ligand effiencies>  (52) 
[-0.21538461538461537]

>  <Interactions>  (52) 
["V-A:HIS:456:CE1:4064, V-B:GLU:543:C:9870, V-A:LYS:547:CE:4945, H-B:GLU:543:O:9871, V-B:LYS:547:CE:9918, V-A:GLY:544:C:4907, V-A:HIS:456:CG:4061, V-A:HIS:456:CB:4060, V-A:VAL:458:CG2:4082, V-A:LYS:547:CD:4944, V-A:ASP:473:CG:4235, V-A:TYR:484:CD1:4338, V-A:TYR:484:CG:4337, V-A:TYR:484:CB:4336, V-B:GLY:544:CA:9882, V-B:VAL:542:CG1:9867, H-A:TYR:484:N:4335, V-A:SER:483:CB:4328, H-B:GLY:544:O:9881, V-A:TYR:484:CA:4334"]

$$$$
4bj_Grossjean_2025
     RDKit          3D

 23 25  0  0  0  0  0  0  0  0999 V2000
  135.3430  125.0980   66.5260 C   0  0  0  0  0  0  0  0  0  0  0  0
  134.1300  125.1010   65.6140 C   0  0  0  0  0  0  0  0  0  0  0  0
  132.8760  125.4760   66.0900 C   0  0  0  0  0  0  0  0  0  0  0  0
  131.7610  125.4680   65.2370 C   0  0  0  0  0  0  0  0  0  0  0  0
  130.4000  125.8860   65.8060 C   0  0  0  0  0  0  0  0  0  0  0  0
  129.7810  126.8010   65.0580 F   0  0  0  0  0  0  0  0  0  0  0  0
  129.5990  124.8240   65.8850 F   0  0  0  0  0  0  0  0  0  0  0  0
  130.5630  126.4070   67.0230 F   0  0  0  0  0  0  0  0  0  0  0  0
  131.9770  125.0660   63.8850 C   0  0  0  0  0  0  0  0  0  0  0  0
  131.0980  124.9320   62.7480 C   0  0  0  0  0  0  0  0  0  0  0  0
  129.7550  125.2030   62.8140 N   0  0  0  0  0  0  0  0  0  0  0  0
  131.7400  124.5090   61.5740 C   0  0  0  0  0  0  0  0  0  0  0  0
  131.1570  124.2620   60.2530 C   0  0  0  0  0  0  0  0  0  0  0  0
  131.7510  124.6030   59.2270 O   0  0  0  0  0  0  0  0  0  0  0  0
  129.9550  123.6350   60.2550 N   0  0  0  0  0  0  0  0  0  0  0  0
  129.2000  123.2760   59.1470 C   0  0  0  0  0  0  0  0  0  0  0  0
  129.6300  122.8440   57.9810 N   0  0  0  0  0  0  0  0  0  0  0  0
  128.6310  122.5910   57.1590 C   0  0  0  0  0  0  0  0  0  0  0  0
  127.3520  122.8200   57.6560 C   0  0  0  0  0  0  0  0  0  0  0  0
  127.4760  123.4020   59.2900 S   0  0  0  0  0  0  0  0  0  0  0  0
  133.4600  124.2410   61.8470 S   0  0  0  0  0  0  0  0  0  0  0  0
  133.3130  124.7110   63.5250 C   0  0  0  0  0  0  0  0  0  0  0  0
  134.3680  124.7170   64.3390 N   0  0  0  0  0  0  0  0  0  0  0  0
  1  2  1  0
  2  3  2  0
  3  4  1  0
  4  5  1  0
  5  6  1  0
  5  7  1  0
  5  8  1  0
  4  9  2  0
  9 10  1  0
 10 11  1  0
 10 12  2  0
 12 13  1  0
 13 14  2  0
 13 15  1  0
 15 16  1  0
 16 17  2  0
 17 18  1  0
 18 19  2  0
 19 20  1  0
 12 21  1  0
 21 22  1  0
 22 23  2  0
 23  2  1  0
 22  9  1  0
 20 16  1  0
M  END
>  <Binding energies>  (53) 
[-5.6]

>  <Ligand effiencies>  (53) 
[-0.21538461538461537]

>  <Interactions>  (53) 
["V-A:GLU:543:CD:4903, V-A:ASP:366:CG:3208, V-B:TYR:539:CZ:9845, V-A:HIS:456:CE1:4064, V-A:ARG:545:CZ:4921, V-B:GLU:543:CG:9875, V-B:GLU:543:CB:9874, V-A:ILE:369:CD1:3234, V-B:GLU:543:CD:9876, V-B:TYR:539:CE2:9844, V-B:TYR:539:CD2:9842, V-B:TYR:539:CG:9840, V-B:TYR:539:C:9835, V-B:PRO:540:CA:9851, H-A:TYR:484:OH:4343, H-B:GLU:543:OE2:9878, V-A:GLY:453:C:4037, V-A:GLY:453:CA:4039, V-A:ARG:545:CD:4918, H-A:GLY:454:N:4045, V-A:HIS:456:CD2:4063, V-B:PRO:540:N:9852, V-B:TYR:539:CD1:9841, V-A:ARG:545:CG:4917, V-B:TYR:539:CE1:9843, H-A:ARG:545:NH1:4922, V-A:ILE:455:C:4047"]

$$$$
4bk_Grossjean_2025
     RDKit          3D

 28 29  0  0  0  0  0  0  0  0999 V2000
  127.8820  129.6940   74.8210 C   0  0  0  0  0  0  0  0  0  0  0  0
  128.7390  128.8710   74.0450 O   0  0  0  0  0  0  0  0  0  0  0  0
  128.7160  129.1790   72.6570 C   0  0  0  0  0  0  0  0  0  0  0  0
  130.1400  129.4850   72.1770 C   0  0  0  0  0  0  0  0  0  0  0  0
  130.5780  128.4490   71.3090 O   0  0  0  0  0  0  0  0  0  0  0  0
  129.5570  127.9410   70.4610 C   0  0  0  0  0  0  0  0  0  0  0  0
  129.6150  128.6580   69.1060 C   0  0  0  0  0  0  0  0  0  0  0  0
  128.9580  127.8660   68.1260 O   0  0  0  0  0  0  0  0  0  0  0  0
  129.8450  127.1820   67.2490 C   0  0  0  0  0  0  0  0  0  0  0  0
  129.1950  125.8660   66.7910 C   0  0  0  0  0  0  0  0  0  0  0  0
  129.7570  125.3340   65.5480 N   0  0  0  0  0  0  0  0  0  0  0  0
  131.0570  125.0330   65.3470 C   0  0  0  0  0  0  0  0  0  0  0  0
  131.9090  125.1640   66.2270 O   0  0  0  0  0  0  0  0  0  0  0  0
  131.4030  124.5270   64.0180 C   0  0  0  0  0  0  0  0  0  0  0  0
  132.8150  125.1550   63.1730 S   0  0  0  0  0  0  0  0  0  0  0  0
  132.5310  124.0900   61.8170 C   0  0  0  0  0  0  0  0  0  0  0  0
  133.3330  124.0910   60.7520 N   0  0  0  0  0  0  0  0  0  0  0  0
  133.0130  123.2210   59.7660 C   0  0  0  0  0  0  0  0  0  0  0  0
  133.9410  123.2380   58.5650 C   0  0  0  0  0  0  0  0  0  0  0  0
  131.9200  122.3600   59.8180 C   0  0  0  0  0  0  0  0  0  0  0  0
  131.0700  122.3560   60.9350 C   0  0  0  0  0  0  0  0  0  0  0  0
  129.8780  121.3930   60.9450 C   0  0  0  0  0  0  0  0  0  0  0  0
  128.7010  122.0200   61.0090 F   0  0  0  0  0  0  0  0  0  0  0  0
  129.8810  120.6610   59.8310 F   0  0  0  0  0  0  0  0  0  0  0  0
  129.9580  120.5870   62.0020 F   0  0  0  0  0  0  0  0  0  0  0  0
  131.3810  123.2600   61.9940 C   0  0  0  0  0  0  0  0  0  0  0  0
  130.7590  123.5310   63.2670 C   0  0  0  0  0  0  0  0  0  0  0  0
  129.6360  122.8740   63.7000 N   0  0  0  0  0  0  0  0  0  0  0  0
  1  2  1  0
  2  3  1  0
  3  4  1  0
  4  5  1  0
  5  6  1  0
  6  7  1  0
  7  8  1  0
  8  9  1  0
  9 10  1  0
 10 11  1  0
 11 12  1  0
 12 13  2  0
 12 14  1  0
 14 15  1  0
 15 16  1  0
 16 17  2  0
 17 18  1  0
 18 19  1  0
 18 20  2  0
 20 21  1  0
 21 22  1  0
 22 23  1  0
 22 24  1  0
 22 25  1  0
 21 26  2  0
 26 27  1  0
 27 28  1  0
 27 14  2  0
 26 16  1  0
M  END
>  <Binding energies>  (54) 
[-5.0]

>  <Ligand effiencies>  (54) 
[-0.16129032258064516]

>  <Interactions>  (54) 
["V-A:HIS:456:CE1:4064, V-A:ARG:545:CZ:4921, V-A:GLU:543:CB:4901, V-B:GLU:543:CG:9875, V-B:HIS:456:CD2:9035, V-B:GLU:543:CB:9874, V-A:ILE:369:CD1:3234, V-B:GLU:543:CD:9876, V-B:TYR:539:CE2:9844, V-B:ALA:541:CB:9860, V-B:TYR:539:CD2:9842, V-A:LEU:475:CD2:4254, V-B:TYR:539:C:9835, H-B:LYS:547:NZ:9919, V-B:PRO:540:CA:9851, V-B:PRO:540:C:9849, H-A:HIS:456:NE2:4065, H-A:TYR:484:OH:4343, H-B:GLU:543:OE2:9878, V-B:ALA:541:CA:9858, V-A:ASP:366:CB:3207, V-A:LYS:547:CE:4945, H-A:LYS:547:NZ:4946, V-A:ASP:366:CA:3205, V-A:GLY:544:C:4907, V-A:ILE:369:CB:3231, V-A:ILE:369:CG2:3232, V-A:ILE:369:CG1:3233"]

$$$$
4cd_Grossjean_2025
     RDKit          3D

 29 32  0  0  0  0  0  0  0  0999 V2000
  129.2930  126.5900   63.7190 N   0  0  0  0  0  0  0  0  0  0  0  0
  129.5960  126.0960   64.9620 C   0  0  0  0  0  0  0  0  0  0  0  0
  130.0610  124.7880   65.1780 C   0  0  0  0  0  0  0  0  0  0  0  0
  130.2920  123.7270   64.1930 C   0  0  0  0  0  0  0  0  0  0  0  0
  130.9760  122.7440   64.4790 O   0  0  0  0  0  0  0  0  0  0  0  0
  129.7000  123.9140   62.9880 N   0  0  0  0  0  0  0  0  0  0  0  0
  129.7630  123.1230   61.8260 C   0  0  0  0  0  0  0  0  0  0  0  0
  129.4860  123.7790   60.6230 C   0  0  0  0  0  0  0  0  0  0  0  0
  129.5360  123.0860   59.4180 C   0  0  0  0  0  0  0  0  0  0  0  0
  129.8710  121.7340   59.4120 C   0  0  0  0  0  0  0  0  0  0  0  0
  130.1630  121.0710   60.6010 C   0  0  0  0  0  0  0  0  0  0  0  0
  130.1130  121.7620   61.8100 C   0  0  0  0  0  0  0  0  0  0  0  0
  130.3580  124.4940   66.8900 S   0  0  0  0  0  0  0  0  0  0  0  0
  129.8520  126.1140   67.3030 C   0  0  0  0  0  0  0  0  0  0  0  0
  129.8470  126.5400   68.5640 N   0  0  0  0  0  0  0  0  0  0  0  0
  129.4230  127.8110   68.7890 C   0  0  0  0  0  0  0  0  0  0  0  0
  129.4260  128.2620   70.2210 C   0  0  0  0  0  0  0  0  0  0  0  0
  130.5710  128.8460   70.7880 C   0  0  0  0  0  0  0  0  0  0  0  0
  130.5810  129.2670   72.1150 C   0  0  0  0  0  0  0  0  0  0  0  0
  129.4410  129.1100   72.8960 C   0  0  0  0  0  0  0  0  0  0  0  0
  128.2930  128.5390   72.3590 C   0  0  0  0  0  0  0  0  0  0  0  0
  128.2870  128.1210   71.0310 C   0  0  0  0  0  0  0  0  0  0  0  0
  129.0260  128.6530   67.7460 C   0  0  0  0  0  0  0  0  0  0  0  0
  129.0320  128.2150   66.4120 C   0  0  0  0  0  0  0  0  0  0  0  0
  128.5800  129.1890   65.3170 C   0  0  0  0  0  0  0  0  0  0  0  0
  129.3390  129.1340   64.2200 F   0  0  0  0  0  0  0  0  0  0  0  0
  127.3290  128.9100   64.9520 F   0  0  0  0  0  0  0  0  0  0  0  0
  128.6360  130.4400   65.7770 F   0  0  0  0  0  0  0  0  0  0  0  0
  129.4620  126.8800   66.1660 C   0  0  0  0  0  0  0  0  0  0  0  0
  1  2  1  0
  2  3  2  0
  3  4  1  0
  4  5  2  0
  4  6  1  0
  6  7  1  0
  7  8  2  0
  8  9  1  0
  9 10  2  0
 10 11  1  0
 11 12  2  0
  3 13  1  0
 13 14  1  0
 14 15  2  0
 15 16  1  0
 16 17  1  0
 17 18  2  0
 18 19  1  0
 19 20  2  0
 20 21  1  0
 21 22  2  0
 16 23  2  0
 23 24  1  0
 24 25  1  0
 25 26  1  0
 25 27  1  0
 25 28  1  0
 24 29  2  0
 29  2  1  0
 12  7  1  0
 29 14  1  0
 22 17  1  0
M  END
>  <Binding energies>  (55) 
[-7.15]

>  <Ligand effiencies>  (55) 
[-0.2234375]

>  <Interactions>  (55) 
["H-A:GLU:543:OE1:4904, V-A:GLU:543:CD:4903, V-A:HIS:456:CE1:4064, V-A:GLU:543:CB:4901, V-B:GLU:543:CG:9875, V-B:HIS:456:CD2:9035, H-A:GLU:543:OE2:4905, V-B:GLU:543:CB:9874, V-B:HIS:456:CE1:9037, V-B:GLU:543:CD:9876, V-B:TYR:539:CE2:9844, V-B:ALA:541:CB:9860, V-B:TYR:539:CD2:9842, V-A:GLU:543:CG:4902, H-A:HIS:456:NE2:4065, H-A:TYR:484:OH:4343, H-B:GLU:543:OE2:9878, V-A:TYR:484:CZ:4342, V-A:GLY:544:CA:4909, V-B:TYR:484:CZ:9314, V-A:LYS:547:CE:4945, V-A:TYR:484:CE1:4340, V-A:GLU:543:C:4897, V-A:GLY:544:C:4907, V-B:TYR:484:CE1:9312"]

$$$$
4cg_Grossjean_2025
     RDKit          3D

 30 33  0  0  0  0  0  0  0  0999 V2000
  129.4250  126.4530   63.5710 N   0  0  0  0  0  0  0  0  0  0  0  0
  129.6790  125.9680   64.8280 C   0  0  0  0  0  0  0  0  0  0  0  0
  130.1010  124.6530   65.0720 C   0  0  0  0  0  0  0  0  0  0  0  0
  130.3920  123.5940   64.1060 C   0  0  0  0  0  0  0  0  0  0  0  0
  131.3420  122.8240   64.2640 O   0  0  0  0  0  0  0  0  0  0  0  0
  129.5870  123.5430   63.0240 N   0  0  0  0  0  0  0  0  0  0  0  0
  129.6780  122.5590   61.9460 C   0  0  0  0  0  0  0  0  0  0  0  0
  128.6940  122.8130   60.8090 C   0  0  0  0  0  0  0  0  0  0  0  0
  127.4230  123.3220   61.0920 C   0  0  0  0  0  0  0  0  0  0  0  0
  126.5330  123.5850   60.0540 C   0  0  0  0  0  0  0  0  0  0  0  0
  126.9190  123.3460   58.7370 C   0  0  0  0  0  0  0  0  0  0  0  0
  128.1900  122.8530   58.4480 C   0  0  0  0  0  0  0  0  0  0  0  0
  129.0820  122.5930   59.4850 C   0  0  0  0  0  0  0  0  0  0  0  0
  130.3550  124.3680   66.7920 S   0  0  0  0  0  0  0  0  0  0  0  0
  129.8730  126.0050   67.1750 C   0  0  0  0  0  0  0  0  0  0  0  0
  129.8510  126.4450   68.4300 N   0  0  0  0  0  0  0  0  0  0  0  0
  129.4670  127.7330   68.6310 C   0  0  0  0  0  0  0  0  0  0  0  0
  129.4510  128.1990   70.0590 C   0  0  0  0  0  0  0  0  0  0  0  0
  128.2980  128.0610   70.8490 C   0  0  0  0  0  0  0  0  0  0  0  0
  128.2770  128.4930   72.1720 C   0  0  0  0  0  0  0  0  0  0  0  0
  129.4130  129.0740   72.7270 C   0  0  0  0  0  0  0  0  0  0  0  0
  130.5670  129.2260   71.9670 C   0  0  0  0  0  0  0  0  0  0  0  0
  130.5840  128.7930   70.6440 C   0  0  0  0  0  0  0  0  0  0  0  0
  129.0900  128.5650   67.5710 C   0  0  0  0  0  0  0  0  0  0  0  0
  129.1100  128.1100   66.2430 C   0  0  0  0  0  0  0  0  0  0  0  0
  128.6840  129.0740   65.1300 C   0  0  0  0  0  0  0  0  0  0  0  0
  129.4720  129.0130   64.0550 F   0  0  0  0  0  0  0  0  0  0  0  0
  127.4440  128.7850   64.7330 F   0  0  0  0  0  0  0  0  0  0  0  0
  128.7200  130.3270   65.5800 F   0  0  0  0  0  0  0  0  0  0  0  0
  129.5250  126.7650   66.0200 C   0  0  0  0  0  0  0  0  0  0  0  0
  1  2  1  0
  2  3  2  0
  3  4  1  0
  4  5  2  0
  4  6  1  0
  6  7  1  0
  7  8  1  0
  8  9  2  0
  9 10  1  0
 10 11  2  0
 11 12  1  0
 12 13  2  0
  3 14  1  0
 14 15  1  0
 15 16  2  0
 16 17  1  0
 17 18  1  0
 18 19  2  0
 19 20  1  0
 20 21  2  0
 21 22  1  0
 22 23  2  0
 17 24  2  0
 24 25  1  0
 25 26  1  0
 26 27  1  0
 26 28  1  0
 26 29  1  0
 25 30  2  0
 30  2  1  0
 13  8  1  0
 30 15  1  0
 23 18  1  0
M  END
>  <Binding energies>  (56) 
[-7.38]

>  <Ligand effiencies>  (56) 
[-0.22363636363636363]

>  <Interactions>  (56) 
["H-A:GLU:543:OE1:4904, V-A:GLU:543:CD:4903, V-A:HIS:456:CE1:4064, V-A:GLU:543:CB:4901, V-B:GLU:543:CG:9875, V-B:HIS:456:CD2:9035, H-A:GLU:543:OE2:4905, V-B:GLU:543:CB:9874, V-B:HIS:456:CE1:9037, V-B:GLU:543:CD:9876, V-B:ALA:541:CB:9860, V-B:TYR:539:C:9835, V-A:GLU:543:CG:4902, V-B:PRO:540:CA:9851, H-A:HIS:456:NE2:4065, H-A:TYR:484:OH:4343, H-B:GLU:543:OE2:9878, V-A:TYR:484:CZ:4342, V-A:GLY:544:CA:4909, V-A:LYS:547:CE:4945, V-A:TYR:484:CE1:4340, V-A:GLU:543:C:4897, V-B:PRO:540:N:9852, V-B:PRO:540:CB:9853, V-A:GLY:544:C:4907"]

$$$$
4ch_Grossjean_2025
     RDKit          3D

 36 39  0  0  0  0  0  0  0  0999 V2000
  125.6810  123.9950   61.1550 C   0  0  0  0  0  0  0  0  0  0  0  0
  126.4520  122.8280   60.8840 O   0  0  0  0  0  0  0  0  0  0  0  0
  127.7610  122.9640   60.4610 C   0  0  0  0  0  0  0  0  0  0  0  0
  128.8390  123.2290   61.3220 C   0  0  0  0  0  0  0  0  0  0  0  0
  130.1380  123.3520   60.8250 C   0  0  0  0  0  0  0  0  0  0  0  0
  131.2910  123.6670   61.7700 C   0  0  0  0  0  0  0  0  0  0  0  0
  130.9140  124.4750   62.9300 N   0  0  0  0  0  0  0  0  0  0  0  0
  130.5590  123.9930   64.1400 C   0  0  0  0  0  0  0  0  0  0  0  0
  130.5460  122.7870   64.3950 O   0  0  0  0  0  0  0  0  0  0  0  0
  130.2210  124.9920   65.1540 C   0  0  0  0  0  0  0  0  0  0  0  0
  130.6070  124.6960   66.8460 S   0  0  0  0  0  0  0  0  0  0  0  0
  129.9560  126.2490   67.3120 C   0  0  0  0  0  0  0  0  0  0  0  0
  129.9490  126.6470   68.5810 N   0  0  0  0  0  0  0  0  0  0  0  0
  129.4280  127.8740   68.8460 C   0  0  0  0  0  0  0  0  0  0  0  0
  129.4290  128.2910   70.2890 C   0  0  0  0  0  0  0  0  0  0  0  0
  128.2800  128.1410   71.0820 C   0  0  0  0  0  0  0  0  0  0  0  0
  128.2740  128.5270   72.4200 C   0  0  0  0  0  0  0  0  0  0  0  0
  129.4220  129.0700   72.9860 C   0  0  0  0  0  0  0  0  0  0  0  0
  130.5740  129.2320   72.2230 C   0  0  0  0  0  0  0  0  0  0  0  0
  130.5740  128.8470   70.8850 C   0  0  0  0  0  0  0  0  0  0  0  0
  128.9000  128.6850   67.8370 C   0  0  0  0  0  0  0  0  0  0  0  0
  128.9000  128.2750   66.4940 C   0  0  0  0  0  0  0  0  0  0  0  0
  128.3060  129.2140   65.4390 C   0  0  0  0  0  0  0  0  0  0  0  0
  129.0720  129.3320   64.3510 F   0  0  0  0  0  0  0  0  0  0  0  0
  127.1200  128.7550   65.0430 F   0  0  0  0  0  0  0  0  0  0  0  0
  128.1550  130.4340   65.9540 F   0  0  0  0  0  0  0  0  0  0  0  0
  129.4570  126.9960   66.2040 C   0  0  0  0  0  0  0  0  0  0  0  0
  129.6330  126.2550   64.9790 C   0  0  0  0  0  0  0  0  0  0  0  0
  129.2500  126.7390   63.7540 N   0  0  0  0  0  0  0  0  0  0  0  0
  130.3650  123.2270   59.4540 C   0  0  0  0  0  0  0  0  0  0  0  0
  129.3050  122.9640   58.5700 C   0  0  0  0  0  0  0  0  0  0  0  0
  129.4580  122.8260   57.2020 O   0  0  0  0  0  0  0  0  0  0  0  0
  129.9210  123.9330   56.4360 C   0  0  0  0  0  0  0  0  0  0  0  0
  128.0090  122.8280   59.0880 C   0  0  0  0  0  0  0  0  0  0  0  0
  126.9620  122.5860   58.2330 O   0  0  0  0  0  0  0  0  0  0  0  0
  126.3630  123.7610   57.7030 C   0  0  0  0  0  0  0  0  0  0  0  0
  1  2  1  0
  2  3  1  0
  3  4  2  0
  4  5  1  0
  5  6  1  0
  6  7  1  0
  7  8  1  0
  8  9  2  0
  8 10  1  0
 10 11  1  0
 11 12  1  0
 12 13  2  0
 13 14  1  0
 14 15  1  0
 15 16  2  0
 16 17  1  0
 17 18  2  0
 18 19  1  0
 19 20  2  0
 14 21  2  0
 21 22  1  0
 22 23  1  0
 23 24  1  0
 23 25  1  0
 23 26  1  0
 22 27  2  0
 27 28  1  0
 28 29  1  0
  5 30  2  0
 30 31  1  0
 31 32  1  0
 32 33  1  0
 31 34  2  0
 34 35  1  0
 35 36  1  0
 34  3  1  0
 28 10  2  0
 27 12  1  0
 20 15  1  0
M  END
>  <Binding energies>  (57) 
[-7.03]

>  <Ligand effiencies>  (57) 
[-0.18025641025641026]

>  <Interactions>  (57) 
["H-B:TYR:539:OH:9846, H-A:GLU:543:OE1:4904, V-A:GLU:543:CD:4903, V-B:TYR:539:CZ:9845, V-A:HIS:456:CE1:4064, V-A:GLU:543:CB:4901, V-B:GLU:543:CG:9875, V-B:HIS:456:CD2:9035, H-A:GLU:543:OE2:4905, V-B:HIS:456:CE1:9037, V-B:GLU:543:CD:9876, V-B:TYR:539:CE2:9844, V-B:TYR:539:C:9835, V-A:GLU:543:CG:4902, V-B:PRO:540:CA:9851, V-B:PRO:540:C:9849, H-A:HIS:456:NE2:4065, H-A:TYR:484:OH:4343, H-B:ALA:541:N:9859, H-B:GLU:543:OE2:9878, V-A:TYR:484:CZ:4342, V-A:GLY:544:CA:4909, V-B:TYR:484:CZ:9314, V-A:LYS:547:CE:4945, V-A:TYR:484:CE1:4340, V-A:GLU:543:C:4897, V-B:PRO:540:N:9852, V-B:PRO:540:CB:9853, V-B:TYR:539:CE1:9843, V-B:MET:535:CE:9803, V-A:GLY:544:C:4907, V-B:TYR:484:CE1:9312"]

$$$$
4cj_Grossjean_2025
     RDKit          3D

 28 31  0  0  0  0  0  0  0  0999 V2000
  129.4920  126.4700   63.5470 N   0  0  0  0  0  0  0  0  0  0  0  0
  129.7240  125.9810   64.8070 C   0  0  0  0  0  0  0  0  0  0  0  0
  130.1740  124.6740   65.0540 C   0  0  0  0  0  0  0  0  0  0  0  0
  130.4840  123.6170   64.0890 C   0  0  0  0  0  0  0  0  0  0  0  0
  131.4450  122.8640   64.2640 O   0  0  0  0  0  0  0  0  0  0  0  0
  129.6560  123.5470   63.0160 N   0  0  0  0  0  0  0  0  0  0  0  0
  129.7290  122.6440   61.9650 C   0  0  0  0  0  0  0  0  0  0  0  0
  129.2780  122.7950   60.7380 N   0  0  0  0  0  0  0  0  0  0  0  0
  129.5220  121.7330   59.9970 C   0  0  0  0  0  0  0  0  0  0  0  0
  130.1900  120.6850   60.6240 C   0  0  0  0  0  0  0  0  0  0  0  0
  130.5100  121.1270   62.2750 S   0  0  0  0  0  0  0  0  0  0  0  0
  130.3780  124.3870   66.7810 S   0  0  0  0  0  0  0  0  0  0  0  0
  129.8580  126.0120   67.1580 C   0  0  0  0  0  0  0  0  0  0  0  0
  129.7970  126.4470   68.4140 N   0  0  0  0  0  0  0  0  0  0  0  0
  129.3890  127.7280   68.6090 C   0  0  0  0  0  0  0  0  0  0  0  0
  129.3430  128.1910   70.0370 C   0  0  0  0  0  0  0  0  0  0  0  0
  128.1800  128.0310   70.8070 C   0  0  0  0  0  0  0  0  0  0  0  0
  128.1290  128.4640   72.1300 C   0  0  0  0  0  0  0  0  0  0  0  0
  129.2450  129.0670   72.7030 C   0  0  0  0  0  0  0  0  0  0  0  0
  130.4080  129.2390   71.9610 C   0  0  0  0  0  0  0  0  0  0  0  0
  130.4550  128.8040   70.6400 C   0  0  0  0  0  0  0  0  0  0  0  0
  129.0210  128.5560   67.5440 C   0  0  0  0  0  0  0  0  0  0  0  0
  129.0800  128.1070   66.2150 C   0  0  0  0  0  0  0  0  0  0  0  0
  128.6660  129.0690   65.0960 C   0  0  0  0  0  0  0  0  0  0  0  0
  129.4670  129.0090   64.0300 F   0  0  0  0  0  0  0  0  0  0  0  0
  127.4320  128.7770   64.6850 F   0  0  0  0  0  0  0  0  0  0  0  0
  128.6940  130.3240   65.5450 F   0  0  0  0  0  0  0  0  0  0  0  0
  129.5250  126.7720   65.9980 C   0  0  0  0  0  0  0  0  0  0  0  0
  1  2  1  0
  2  3  2  0
  3  4  1  0
  4  5  2  0
  4  6  1  0
  6  7  1  0
  7  8  2  0
  8  9  1  0
  9 10  2  0
 10 11  1  0
  3 12  1  0
 12 13  1  0
 13 14  2  0
 14 15  1  0
 15 16  1  0
 16 17  2  0
 17 18  1  0
 18 19  2  0
 19 20  1  0
 20 21  2  0
 15 22  2  0
 22 23  1  0
 23 24  1  0
 24 25  1  0
 24 26  1  0
 24 27  1  0
 23 28  2  0
 28  2  1  0
 11  7  1  0
 28 13  1  0
 21 16  1  0
M  END
>  <Binding energies>  (58) 
[-6.85]

>  <Ligand effiencies>  (58) 
[-0.22096774193548385]

>  <Interactions>  (58) 
["H-A:GLU:543:OE1:4904, V-A:GLU:543:CD:4903, V-A:HIS:456:CE1:4064, V-A:GLU:543:CB:4901, V-B:GLU:543:CG:9875, V-B:HIS:456:CD2:9035, H-A:GLU:543:OE2:4905, V-B:GLU:543:CB:9874, V-B:HIS:456:CE1:9037, V-B:GLU:543:CD:9876, V-B:ALA:541:CB:9860, V-B:TYR:539:CD2:9842, V-A:LEU:475:CD2:4254, V-A:GLU:543:CG:4902, H-A:HIS:456:NE2:4065, H-A:TYR:484:OH:4343, H-B:GLU:543:OE2:9878, V-A:TYR:484:CZ:4342, V-A:GLY:544:CA:4909, V-A:LYS:547:CE:4945, V-A:TYR:484:CE1:4340, V-A:GLU:543:C:4897, V-A:GLY:544:C:4907"]

$$$$
4ck_Grossjean_2025
     RDKit          3D

 33 35  0  0  0  0  0  0  0  0999 V2000
  133.2330  124.3290   56.7660 C   0  0  0  0  0  0  0  0  0  0  0  0
  133.7410  123.2080   57.4730 O   0  0  0  0  0  0  0  0  0  0  0  0
  133.8330  123.4200   58.8750 C   0  0  0  0  0  0  0  0  0  0  0  0
  132.4540  123.1930   59.5080 C   0  0  0  0  0  0  0  0  0  0  0  0
  132.1160  121.8180   59.4020 O   0  0  0  0  0  0  0  0  0  0  0  0
  132.4340  121.0640   60.5650 C   0  0  0  0  0  0  0  0  0  0  0  0
  131.4280  119.9150   60.7100 C   0  0  0  0  0  0  0  0  0  0  0  0
  130.1650  120.4550   61.0730 O   0  0  0  0  0  0  0  0  0  0  0  0
  130.2230  121.3750   62.1550 C   0  0  0  0  0  0  0  0  0  0  0  0
  129.7490  122.7580   61.6820 C   0  0  0  0  0  0  0  0  0  0  0  0
  129.6380  123.7100   62.7880 N   0  0  0  0  0  0  0  0  0  0  0  0
  130.5010  123.8280   63.8190 C   0  0  0  0  0  0  0  0  0  0  0  0
  131.5190  123.1390   63.9170 O   0  0  0  0  0  0  0  0  0  0  0  0
  130.1660  124.8400   64.8210 C   0  0  0  0  0  0  0  0  0  0  0  0
  130.4620  124.5240   66.5290 S   0  0  0  0  0  0  0  0  0  0  0  0
  129.8900  126.1170   66.9660 C   0  0  0  0  0  0  0  0  0  0  0  0
  129.8640  126.5230   68.2320 N   0  0  0  0  0  0  0  0  0  0  0  0
  129.4020  127.7770   68.4750 C   0  0  0  0  0  0  0  0  0  0  0  0
  129.4020  128.2110   69.9130 C   0  0  0  0  0  0  0  0  0  0  0  0
  130.5290  128.8300   70.4770 C   0  0  0  0  0  0  0  0  0  0  0  0
  130.5360  129.2320   71.8110 C   0  0  0  0  0  0  0  0  0  0  0  0
  129.4120  129.0200   72.6020 C   0  0  0  0  0  0  0  0  0  0  0  0
  128.2800  128.4140   72.0670 C   0  0  0  0  0  0  0  0  0  0  0  0
  128.2770  128.0140   70.7330 C   0  0  0  0  0  0  0  0  0  0  0  0
  128.9780  128.6210   67.4440 C   0  0  0  0  0  0  0  0  0  0  0  0
  129.0000  128.2030   66.1040 C   0  0  0  0  0  0  0  0  0  0  0  0
  128.5170  129.1780   65.0230 C   0  0  0  0  0  0  0  0  0  0  0  0
  129.3100  129.2060   63.9510 F   0  0  0  0  0  0  0  0  0  0  0  0
  127.3000  128.8260   64.6110 F   0  0  0  0  0  0  0  0  0  0  0  0
  128.4730  130.4140   65.5200 F   0  0  0  0  0  0  0  0  0  0  0  0
  129.4800  126.8890   65.8380 C   0  0  0  0  0  0  0  0  0  0  0  0
  129.6570  126.1330   64.6220 C   0  0  0  0  0  0  0  0  0  0  0  0
  129.3500  126.6350   63.3830 N   0  0  0  0  0  0  0  0  0  0  0  0
  1  2  1  0
  2  3  1  0
  3  4  1  0
  4  5  1  0
  5  6  1  0
  6  7  1  0
  7  8  1  0
  8  9  1  0
  9 10  1  0
 10 11  1  0
 11 12  1  0
 12 13  2  0
 12 14  1  0
 14 15  1  0
 15 16  1  0
 16 17  2  0
 17 18  1  0
 18 19  1  0
 19 20  2  0
 20 21  1  0
 21 22  2  0
 22 23  1  0
 23 24  2  0
 18 25  2  0
 25 26  1  0
 26 27  1  0
 27 28  1  0
 27 29  1  0
 27 30  1  0
 26 31  2  0
 31 32  1  0
 32 33  1  0
 32 14  2  0
 31 16  1  0
 24 19  1  0
M  END
>  <Binding energies>  (59) 
[-5.92]

>  <Ligand effiencies>  (59) 
[-0.16444444444444445]

>  <Interactions>  (59) 
["H-B:TYR:539:OH:9846, H-A:GLU:543:OE1:4904, V-A:GLU:543:CD:4903, V-A:ASP:366:CG:3208, V-A:HIS:456:CE1:4064, V-A:GLU:543:CB:4901, V-B:GLU:543:CG:9875, V-B:HIS:456:CD2:9035, H-A:GLU:543:OE2:4905, V-B:GLU:543:CB:9874, V-A:ILE:369:CD1:3234, V-B:HIS:456:CE1:9037, V-B:GLU:543:CD:9876, V-B:ALA:541:CB:9860, V-A:TRP:381:CZ2:3365, V-B:TYR:539:CD2:9842, V-A:TRP:381:CH2:3367, V-A:LEU:475:CD2:4254, V-A:GLU:543:CG:4902, H-A:HIS:456:NE2:4065, H-A:TYR:484:OH:4343, H-B:GLU:543:OE2:9878, V-A:TYR:531:CZ:4789, V-A:TYR:484:CZ:4342, V-A:ASP:366:CB:3207, V-A:GLY:544:CA:4909, V-B:TYR:484:CZ:9314, V-A:LYS:547:CE:4945, V-A:TYR:484:CE1:4340, V-A:GLU:543:C:4897, V-A:ASP:366:CA:3205, V-A:GLY:544:C:4907, V-A:ILE:369:CB:3231, V-A:ILE:369:CG2:3232, V-A:ASP:366:C:3203, V-A:TYR:531:CE1:4787"]

$$$$
4dd_Grossjean_2025
     RDKit          3D

 26 29  0  0  0  0  0  0  0  0999 V2000
  128.7320  129.1590   65.3550 C   0  0  0  0  0  0  0  0  0  0  0  0
  129.0810  128.1820   66.4680 C   0  0  0  0  0  0  0  0  0  0  0  0
  129.0110  128.6360   67.7900 C   0  0  0  0  0  0  0  0  0  0  0  0
  129.3200  127.7870   68.8600 C   0  0  0  0  0  0  0  0  0  0  0  0
  129.2590  128.2480   70.2860 C   0  0  0  0  0  0  0  0  0  0  0  0
  128.0890  128.0880   71.0450 C   0  0  0  0  0  0  0  0  0  0  0  0
  128.0270  128.5100   72.3700 C   0  0  0  0  0  0  0  0  0  0  0  0
  129.1390  129.1040   72.9570 C   0  0  0  0  0  0  0  0  0  0  0  0
  130.3120  129.2740   72.2300 C   0  0  0  0  0  0  0  0  0  0  0  0
  130.3700  128.8470   70.9050 C   0  0  0  0  0  0  0  0  0  0  0  0
  129.7090  126.4970   68.6640 N   0  0  0  0  0  0  0  0  0  0  0  0
  129.7690  126.0620   67.4070 C   0  0  0  0  0  0  0  0  0  0  0  0
  130.2370  124.4230   67.0130 S   0  0  0  0  0  0  0  0  0  0  0  0
  130.0430  124.7320   65.2860 C   0  0  0  0  0  0  0  0  0  0  0  0
  130.2870  123.6680   64.3110 C   0  0  0  0  0  0  0  0  0  0  0  0
  130.9760  122.6910   64.6070 O   0  0  0  0  0  0  0  0  0  0  0  0
  129.7020  123.8440   63.1010 N   0  0  0  0  0  0  0  0  0  0  0  0
  129.7800  123.0480   61.9430 C   0  0  0  0  0  0  0  0  0  0  0  0
  130.2330  121.7390   62.1310 C   0  0  0  0  0  0  0  0  0  0  0  0
  130.3320  120.8680   61.0490 C   0  0  0  0  0  0  0  0  0  0  0  0
  129.9690  121.3050   59.7770 C   0  0  0  0  0  0  0  0  0  0  0  0
  129.5050  122.6020   59.5780 C   0  0  0  0  0  0  0  0  0  0  0  0
  129.4050  123.4750   60.6580 C   0  0  0  0  0  0  0  0  0  0  0  0
  129.6390  126.0560   65.0520 C   0  0  0  0  0  0  0  0  0  0  0  0
  129.4160  126.5770   63.8020 N   0  0  0  0  0  0  0  0  0  0  0  0
  129.4730  126.8360   66.2500 C   0  0  0  0  0  0  0  0  0  0  0  0
  1  2  1  0
  2  3  2  0
  3  4  1  0
  4  5  1  0
  5  6  2  0
  6  7  1  0
  7  8  2  0
  8  9  1  0
  9 10  2  0
  4 11  2  0
 11 12  1  0
 12 13  1  0
 13 14  1  0
 14 15  1  0
 15 16  2  0
 15 17  1  0
 17 18  1  0
 18 19  2  0
 19 20  1  0
 20 21  2  0
 21 22  1  0
 22 23  2  0
 14 24  2  0
 24 25  1  0
 24 26  1  0
 26  2  1  0
 10  5  1  0
 26 12  2  0
 23 18  1  0
M  END
>  <Binding energies>  (60) 
[-7.63]

>  <Ligand effiencies>  (60) 
[-0.2631034482758621]

>  <Interactions>  (60) 
["H-A:GLU:543:OE1:4904, V-A:GLU:543:CD:4903, V-A:HIS:456:CE1:4064, V-A:GLU:543:CB:4901, V-B:GLU:543:CG:9875, V-B:HIS:456:CD2:9035, H-A:GLU:543:OE2:4905, V-B:GLU:543:CB:9874, V-B:HIS:456:CE1:9037, V-B:GLU:543:CD:9876, V-B:TYR:539:CE2:9844, V-B:ALA:541:CB:9860, V-B:TYR:539:CD2:9842, V-B:TYR:539:C:9835, V-A:GLU:543:CG:4902, H-A:HIS:456:NE2:4065, H-A:TYR:484:OH:4343, H-B:GLU:543:OE2:9878, V-A:TYR:484:CZ:4342, V-A:LYS:547:CE:4945, V-A:TYR:484:CE1:4340, V-A:GLU:543:C:4897, V-A:GLY:544:C:4907"]

$$$$
4dg_Grossjean_2025
     RDKit          3D

 27 30  0  0  0  0  0  0  0  0999 V2000
  128.7320  129.0580   65.1090 C   0  0  0  0  0  0  0  0  0  0  0  0
  129.0970  128.0960   66.2290 C   0  0  0  0  0  0  0  0  0  0  0  0
  129.0290  128.5610   67.5480 C   0  0  0  0  0  0  0  0  0  0  0  0
  129.3520  127.7250   68.6230 C   0  0  0  0  0  0  0  0  0  0  0  0
  129.2860  128.1950   70.0490 C   0  0  0  0  0  0  0  0  0  0  0  0
  128.1180  128.0270   70.8100 C   0  0  0  0  0  0  0  0  0  0  0  0
  128.0510  128.4650   72.1310 C   0  0  0  0  0  0  0  0  0  0  0  0
  129.1550  129.0780   72.7120 C   0  0  0  0  0  0  0  0  0  0  0  0
  130.3240  129.2610   71.9800 C   0  0  0  0  0  0  0  0  0  0  0  0
  130.3870  128.8230   70.6600 C   0  0  0  0  0  0  0  0  0  0  0  0
  129.7260  126.4290   68.4390 N   0  0  0  0  0  0  0  0  0  0  0  0
  129.7930  125.9850   67.1840 C   0  0  0  0  0  0  0  0  0  0  0  0
  130.2660  124.3460   66.8060 S   0  0  0  0  0  0  0  0  0  0  0  0
  130.0780  124.6430   65.0780 C   0  0  0  0  0  0  0  0  0  0  0  0
  130.3880  123.5900   64.1130 C   0  0  0  0  0  0  0  0  0  0  0  0
  131.3550  122.8420   64.2670 O   0  0  0  0  0  0  0  0  0  0  0  0
  129.5760  123.5190   63.0380 N   0  0  0  0  0  0  0  0  0  0  0  0
  129.6820  122.5350   61.9610 C   0  0  0  0  0  0  0  0  0  0  0  0
  128.7290  122.8020   60.8010 C   0  0  0  0  0  0  0  0  0  0  0  0
  127.4540  123.3190   61.0540 C   0  0  0  0  0  0  0  0  0  0  0  0
  126.5930  123.5930   59.9960 C   0  0  0  0  0  0  0  0  0  0  0  0
  127.0120  123.3620   58.6870 C   0  0  0  0  0  0  0  0  0  0  0  0
  128.2870  122.8630   58.4270 C   0  0  0  0  0  0  0  0  0  0  0  0
  129.1490  122.5900   59.4850 C   0  0  0  0  0  0  0  0  0  0  0  0
  129.6820  125.9660   64.8290 C   0  0  0  0  0  0  0  0  0  0  0  0
  129.4750  126.4770   63.5730 N   0  0  0  0  0  0  0  0  0  0  0  0
  129.5000  126.7510   66.0200 C   0  0  0  0  0  0  0  0  0  0  0  0
  1  2  1  0
  2  3  2  0
  3  4  1  0
  4  5  1  0
  5  6  2  0
  6  7  1  0
  7  8  2  0
  8  9  1  0
  9 10  2  0
  4 11  2  0
 11 12  1  0
 12 13  1  0
 13 14  1  0
 14 15  1  0
 15 16  2  0
 15 17  1  0
 17 18  1  0
 18 19  1  0
 19 20  2  0
 20 21  1  0
 21 22  2  0
 22 23  1  0
 23 24  2  0
 14 25  2  0
 25 26  1  0
 25 27  1  0
 27  2  1  0
 10  5  1  0
 27 12  2  0
 24 19  1  0
M  END
>  <Binding energies>  (61) 
[-7.76]

>  <Ligand effiencies>  (61) 
[-0.25866666666666666]

>  <Interactions>  (61) 
["H-A:GLU:543:OE1:4904, V-A:GLU:543:CD:4903, V-A:HIS:456:CE1:4064, V-A:GLU:543:CB:4901, V-B:GLU:543:CG:9875, V-B:HIS:456:CD2:9035, H-A:GLU:543:OE2:4905, V-B:GLU:543:CB:9874, V-B:HIS:456:CE1:9037, V-B:GLU:543:CD:9876, V-B:ALA:541:CB:9860, V-B:TYR:539:C:9835, V-A:GLU:543:CG:4902, V-B:PRO:540:CA:9851, H-A:HIS:456:NE2:4065, H-A:TYR:484:OH:4343, H-B:GLU:543:OE2:9878, V-A:TYR:484:CZ:4342, V-A:LYS:547:CE:4945, V-A:TYR:484:CE1:4340, V-A:GLU:543:C:4897, V-B:PRO:540:N:9852, V-B:PRO:540:CB:9853, V-A:GLY:544:C:4907"]

$$$$
4dj_Grossjean_2025
     RDKit          3D

 25 28  0  0  0  0  0  0  0  0999 V2000
  128.7500  129.1930   65.4860 C   0  0  0  0  0  0  0  0  0  0  0  0
  129.1330  128.2150   66.5850 C   0  0  0  0  0  0  0  0  0  0  0  0
  129.1270  128.6730   67.9080 C   0  0  0  0  0  0  0  0  0  0  0  0
  129.4720  127.8230   68.9660 C   0  0  0  0  0  0  0  0  0  0  0  0
  129.4690  128.2860   70.3950 C   0  0  0  0  0  0  0  0  0  0  0  0
  128.3150  128.1690   71.1880 C   0  0  0  0  0  0  0  0  0  0  0  0
  128.3050  128.5960   72.5130 C   0  0  0  0  0  0  0  0  0  0  0  0
  129.4540  129.1530   73.0660 C   0  0  0  0  0  0  0  0  0  0  0  0
  130.6090  129.2840   72.3040 C   0  0  0  0  0  0  0  0  0  0  0  0
  130.6150  128.8550   70.9800 C   0  0  0  0  0  0  0  0  0  0  0  0
  129.8080  126.5210   68.7600 N   0  0  0  0  0  0  0  0  0  0  0  0
  129.8150  126.0830   67.5020 C   0  0  0  0  0  0  0  0  0  0  0  0
  130.2370  124.4350   67.0950 S   0  0  0  0  0  0  0  0  0  0  0  0
  129.9900  124.7470   65.3750 C   0  0  0  0  0  0  0  0  0  0  0  0
  130.2050  123.6840   64.3920 C   0  0  0  0  0  0  0  0  0  0  0  0
  130.9800  122.7540   64.6290 O   0  0  0  0  0  0  0  0  0  0  0  0
  129.5100  123.8100   63.2350 N   0  0  0  0  0  0  0  0  0  0  0  0
  129.5350  122.9480   62.1480 C   0  0  0  0  0  0  0  0  0  0  0  0
  128.5120  122.4550   61.4840 N   0  0  0  0  0  0  0  0  0  0  0  0
  128.9050  121.6660   60.5030 C   0  0  0  0  0  0  0  0  0  0  0  0
  130.2790  121.5070   60.3540 C   0  0  0  0  0  0  0  0  0  0  0  0
  131.0920  122.4450   61.5720 S   0  0  0  0  0  0  0  0  0  0  0  0
  129.6030  126.0770   65.1540 C   0  0  0  0  0  0  0  0  0  0  0  0
  129.3460  126.6000   63.9110 N   0  0  0  0  0  0  0  0  0  0  0  0
  129.4930  126.8620   66.3540 C   0  0  0  0  0  0  0  0  0  0  0  0
  1  2  1  0
  2  3  2  0
  3  4  1  0
  4  5  1  0
  5  6  2  0
  6  7  1  0
  7  8  2  0
  8  9  1  0
  9 10  2  0
  4 11  2  0
 11 12  1  0
 12 13  1  0
 13 14  1  0
 14 15  1  0
 15 16  2  0
 15 17  1  0
 17 18  1  0
 18 19  2  0
 19 20  1  0
 20 21  2  0
 21 22  1  0
 14 23  2  0
 23 24  1  0
 23 25  1  0
 25  2  1  0
 10  5  1  0
 25 12  2  0
 22 18  1  0
M  END
>  <Binding energies>  (62) 
[-7.25]

>  <Ligand effiencies>  (62) 
[-0.25892857142857145]

>  <Interactions>  (62) 
["H-A:GLU:543:OE1:4904, V-A:GLU:543:CD:4903, V-A:HIS:456:CE1:4064, V-A:GLU:543:CB:4901, V-B:GLU:543:CG:9875, V-B:HIS:456:CD2:9035, H-A:GLU:543:OE2:4905, V-B:GLU:543:CB:9874, V-B:HIS:456:CE1:9037, V-B:GLU:543:CD:9876, V-B:ALA:541:CB:9860, V-B:TYR:539:CD2:9842, V-B:TYR:539:C:9835, V-A:GLU:543:CG:4902, V-B:PRO:540:CA:9851, V-B:PRO:540:C:9849, H-A:HIS:456:NE2:4065, H-A:TYR:484:OH:4343, H-B:ALA:541:N:9859, H-B:GLU:543:OE2:9878, V-A:TYR:484:CZ:4342, V-A:GLY:544:CA:4909, V-A:LYS:547:CE:4945, V-A:TYR:484:CE1:4340, V-A:GLU:543:C:4897, V-A:GLY:544:C:4907"]

$$$$
4ea_Grossjean_2025
     RDKit          3D

 31 34  0  0  0  0  0  0  0  0999 V2000
  130.9550  128.7300   71.1540 C   0  0  0  0  0  0  0  0  0  0  0  0
  129.5190  129.2610   71.1470 C   0  0  0  0  0  0  0  0  0  0  0  0
  128.8420  128.7780   69.9940 O   0  0  0  0  0  0  0  0  0  0  0  0
  129.0910  129.2980   68.7640 C   0  0  0  0  0  0  0  0  0  0  0  0
  129.1680  130.5110   68.5430 O   0  0  0  0  0  0  0  0  0  0  0  0
  129.2630  128.2520   67.7010 C   0  0  0  0  0  0  0  0  0  0  0  0
  130.3020  127.3200   67.8220 C   0  0  0  0  0  0  0  0  0  0  0  0
  130.4880  126.3370   66.8540 C   0  0  0  0  0  0  0  0  0  0  0  0
  129.6420  126.2660   65.7460 C   0  0  0  0  0  0  0  0  0  0  0  0
  129.9250  125.2320   64.8320 N   0  0  0  0  0  0  0  0  0  0  0  0
  131.1120  124.7840   64.3530 C   0  0  0  0  0  0  0  0  0  0  0  0
  132.2070  125.2490   64.6690 O   0  0  0  0  0  0  0  0  0  0  0  0
  131.0210  123.6730   63.4020 C   0  0  0  0  0  0  0  0  0  0  0  0
  130.3300  122.1260   63.8990 S   0  0  0  0  0  0  0  0  0  0  0  0
  130.5870  121.4460   62.3080 C   0  0  0  0  0  0  0  0  0  0  0  0
  130.2420  120.1910   62.0150 N   0  0  0  0  0  0  0  0  0  0  0  0
  130.4950  119.7850   60.7460 C   0  0  0  0  0  0  0  0  0  0  0  0
  130.0950  118.3550   60.4330 C   0  0  0  0  0  0  0  0  0  0  0  0
  131.0770  120.5960   59.7740 C   0  0  0  0  0  0  0  0  0  0  0  0
  131.4360  121.9110   60.0870 C   0  0  0  0  0  0  0  0  0  0  0  0
  132.0540  122.7610   59.0440 C   0  0  0  0  0  0  0  0  0  0  0  0
  131.2540  123.5740   58.2340 C   0  0  0  0  0  0  0  0  0  0  0  0
  131.8350  124.3750   57.2550 C   0  0  0  0  0  0  0  0  0  0  0  0
  133.2170  124.3600   57.0820 C   0  0  0  0  0  0  0  0  0  0  0  0
  134.0230  123.5500   57.8790 C   0  0  0  0  0  0  0  0  0  0  0  0
  133.4400  122.7500   58.8580 C   0  0  0  0  0  0  0  0  0  0  0  0
  131.1880  122.3760   61.4080 C   0  0  0  0  0  0  0  0  0  0  0  0
  131.4250  123.6390   62.0580 C   0  0  0  0  0  0  0  0  0  0  0  0
  131.9960  124.7020   61.4060 N   0  0  0  0  0  0  0  0  0  0  0  0
  128.5990  127.1960   65.6170 C   0  0  0  0  0  0  0  0  0  0  0  0
  128.4140  128.1780   66.5860 C   0  0  0  0  0  0  0  0  0  0  0  0
  1  2  1  0
  2  3  1  0
  3  4  1  0
  4  5  2  0
  4  6  1  0
  6  7  2  0
  7  8  1  0
  8  9  2  0
  9 10  1  0
 10 11  1  0
 11 12  2  0
 11 13  1  0
 13 14  1  0
 14 15  1  0
 15 16  2  0
 16 17  1  0
 17 18  1  0
 17 19  2  0
 19 20  1  0
 20 21  1  0
 21 22  2  0
 22 23  1  0
 23 24  2  0
 24 25  1  0
 25 26  2  0
 20 27  2  0
 27 28  1  0
 28 29  1  0
  9 30  1  0
 30 31  2  0
 31  6  1  0
 28 13  2  0
 27 15  1  0
 26 21  1  0
M  END
>  <Binding energies>  (63) 
[-7.79]

>  <Ligand effiencies>  (63) 
[-0.22911764705882354]

>  <Interactions>  (63) 
["V-A:ASP:366:CG:3208, V-B:TYR:539:CZ:9845, V-A:HIS:456:CE1:4064, V-A:GLU:543:CB:4901, V-B:GLU:543:CG:9875, V-B:HIS:456:CD2:9035, V-A:ILE:369:CD1:3234, V-B:HIS:456:CE1:9037, V-B:GLU:543:CD:9876, V-B:TYR:539:CE2:9844, V-B:ALA:541:CB:9860, V-A:TRP:381:CZ2:3365, V-B:TYR:539:CD2:9842, V-A:PRO:482:CG:4322, V-A:TRP:381:CH2:3367, V-A:LEU:475:CD2:4254, V-A:PRO:482:CB:4321, V-A:TRP:381:CE2:3362, V-A:TRP:381:CZ3:3366, H-A:TYR:484:OH:4343, H-B:GLU:543:OE2:9878, V-A:TYR:531:CZ:4789, V-A:TRP:381:CE3:3363, V-A:ASP:366:CB:3207, V-A:GLY:544:CA:4909, V-A:TYR:484:CE1:4340, V-A:GLU:543:C:4897, V-A:ASP:366:CA:3205, H-A:ASP:366:OD2:3210, V-A:GLY:544:C:4907, V-A:ILE:369:CB:3231, V-A:ILE:369:CG2:3232, H-A:ASP:366:OD1:3209, V-A:ASP:366:C:3203, V-A:TYR:531:CE1:4787"]

$$$$
4eb_Grossjean_2025
     RDKit          3D

 30 33  0  0  0  0  0  0  0  0999 V2000
  130.3700  128.8480   70.7020 C   0  0  0  0  0  0  0  0  0  0  0  0
  129.1880  128.8940   69.9160 O   0  0  0  0  0  0  0  0  0  0  0  0
  129.2060  129.4030   68.6560 C   0  0  0  0  0  0  0  0  0  0  0  0
  129.0890  130.6060   68.4080 O   0  0  0  0  0  0  0  0  0  0  0  0
  129.3820  128.3540   67.5960 C   0  0  0  0  0  0  0  0  0  0  0  0
  130.1930  127.2420   67.8620 C   0  0  0  0  0  0  0  0  0  0  0  0
  130.3760  126.2540   66.9000 C   0  0  0  0  0  0  0  0  0  0  0  0
  129.7560  126.3540   65.6540 C   0  0  0  0  0  0  0  0  0  0  0  0
  130.0130  125.2960   64.7610 N   0  0  0  0  0  0  0  0  0  0  0  0
  131.1890  124.7750   64.3330 C   0  0  0  0  0  0  0  0  0  0  0  0
  132.2970  125.1780   64.6880 O   0  0  0  0  0  0  0  0  0  0  0  0
  131.0710  123.6610   63.3880 C   0  0  0  0  0  0  0  0  0  0  0  0
  130.3720  122.1240   63.9020 S   0  0  0  0  0  0  0  0  0  0  0  0
  130.5970  121.4340   62.3110 C   0  0  0  0  0  0  0  0  0  0  0  0
  130.2340  120.1820   62.0280 N   0  0  0  0  0  0  0  0  0  0  0  0
  130.4620  119.7680   60.7580 C   0  0  0  0  0  0  0  0  0  0  0  0
  130.0420  118.3400   60.4580 C   0  0  0  0  0  0  0  0  0  0  0  0
  131.0380  120.5680   59.7740 C   0  0  0  0  0  0  0  0  0  0  0  0
  131.4170  121.8810   60.0750 C   0  0  0  0  0  0  0  0  0  0  0  0
  132.0280  122.7190   59.0180 C   0  0  0  0  0  0  0  0  0  0  0  0
  133.4000  122.6360   58.7620 C   0  0  0  0  0  0  0  0  0  0  0  0
  133.9760  123.4230   57.7670 C   0  0  0  0  0  0  0  0  0  0  0  0
  133.1780  124.2950   57.0300 C   0  0  0  0  0  0  0  0  0  0  0  0
  131.8100  124.3870   57.2800 C   0  0  0  0  0  0  0  0  0  0  0  0
  131.2370  123.6000   58.2750 C   0  0  0  0  0  0  0  0  0  0  0  0
  131.1940  122.3540   61.3970 C   0  0  0  0  0  0  0  0  0  0  0  0
  131.4540  123.6160   62.0380 C   0  0  0  0  0  0  0  0  0  0  0  0
  132.0270  124.6710   61.3730 N   0  0  0  0  0  0  0  0  0  0  0  0
  128.9420  127.4640   65.3780 C   0  0  0  0  0  0  0  0  0  0  0  0
  128.7600  128.4520   66.3420 C   0  0  0  0  0  0  0  0  0  0  0  0
  1  2  1  0
  2  3  1  0
  3  4  2  0
  3  5  1  0
  5  6  2  0
  6  7  1  0
  7  8  2  0
  8  9  1  0
  9 10  1  0
 10 11  2  0
 10 12  1  0
 12 13  1  0
 13 14  1  0
 14 15  2  0
 15 16  1  0
 16 17  1  0
 16 18  2  0
 18 19  1  0
 19 20  1  0
 20 21  2  0
 21 22  1  0
 22 23  2  0
 23 24  1  0
 24 25  2  0
 19 26  2  0
 26 27  1  0
 27 28  1  0
  8 29  1  0
 29 30  2  0
 30  5  1  0
 27 12  2  0
 26 14  1  0
 25 20  1  0
M  END
>  <Binding energies>  (64) 
[-7.89]

>  <Ligand effiencies>  (64) 
[-0.23909090909090908]

>  <Interactions>  (64) 
["V-A:GLU:543:CD:4903, V-A:ASP:366:CG:3208, V-B:TYR:539:CZ:9845, V-A:HIS:456:CE1:4064, V-A:GLU:543:CB:4901, V-B:GLU:543:CG:9875, V-A:ILE:369:CD1:3234, V-B:HIS:456:CE1:9037, V-B:GLU:543:CD:9876, V-B:TYR:539:CE2:9844, V-B:ALA:541:CB:9860, V-A:TRP:381:CZ2:3365, V-B:TYR:539:CD2:9842, V-A:PRO:482:CG:4322, V-A:TRP:381:CH2:3367, V-A:LEU:475:CD2:4254, V-A:PRO:482:CB:4321, V-A:TRP:381:CE2:3362, V-A:TRP:381:CZ3:3366, V-A:GLU:543:CG:4902, H-A:TYR:484:OH:4343, H-B:GLU:543:OE2:9878, V-A:TYR:531:CZ:4789, V-A:TRP:381:CE3:3363, V-A:ASP:366:CB:3207, V-A:TYR:484:CE1:4340, V-A:GLU:543:CA:4899, V-A:GLU:543:C:4897, V-A:ASP:366:CA:3205, H-A:ASP:366:OD2:3210, V-A:GLY:544:C:4907, V-A:ILE:369:CB:3231, V-A:ILE:369:CG2:3232, H-A:ASP:366:OD1:3209, V-A:ASP:366:C:3203, V-A:TYR:531:CE1:4787"]

$$$$
8b_Ghoteimi_2023
     RDKit          3D

 34 38  0  0  0  0  0  0  0  0999 V2000
  128.4120  130.7250   74.4690 C   0  0  0  0  0  0  0  0  0  0  0  0
  128.9170  129.4320   74.1510 O   0  0  0  0  0  0  0  0  0  0  0  0
  129.0410  129.0650   72.8250 C   0  0  0  0  0  0  0  0  0  0  0  0
  127.9220  128.4820   72.2320 C   0  0  0  0  0  0  0  0  0  0  0  0
  127.9550  128.0800   70.9010 C   0  0  0  0  0  0  0  0  0  0  0  0
  129.1110  128.2500   70.1250 C   0  0  0  0  0  0  0  0  0  0  0  0
  129.1530  127.8170   68.6940 C   0  0  0  0  0  0  0  0  0  0  0  0
  128.5860  128.5890   67.6740 C   0  0  0  0  0  0  0  0  0  0  0  0
  128.6390  128.1620   66.3440 C   0  0  0  0  0  0  0  0  0  0  0  0
  128.0190  128.9970   65.2890 C   0  0  0  0  0  0  0  0  0  0  0  0
  126.7650  128.6650   64.7750 C   0  0  0  0  0  0  0  0  0  0  0  0
  126.1800  129.4560   63.7910 C   0  0  0  0  0  0  0  0  0  0  0  0
  126.8380  130.5870   63.3050 C   0  0  0  0  0  0  0  0  0  0  0  0
  126.1810  131.3140   62.3310 O   0  0  0  0  0  0  0  0  0  0  0  0
  125.7550  132.6410   62.6220 C   0  0  0  0  0  0  0  0  0  0  0  0
  128.1010  130.9170   63.8210 C   0  0  0  0  0  0  0  0  0  0  0  0
  128.6850  130.1250   64.8060 C   0  0  0  0  0  0  0  0  0  0  0  0
  129.2910  126.9320   66.0620 C   0  0  0  0  0  0  0  0  0  0  0  0
  129.5310  126.2120   64.8380 C   0  0  0  0  0  0  0  0  0  0  0  0
  129.1080  126.6760   63.6190 N   0  0  0  0  0  0  0  0  0  0  0  0
  130.2310  125.0080   65.0150 C   0  0  0  0  0  0  0  0  0  0  0  0
  130.6450  124.0370   64.0000 C   0  0  0  0  0  0  0  0  0  0  0  0
  131.8200  123.6710   63.9210 O   0  0  0  0  0  0  0  0  0  0  0  0
  129.6570  123.5940   63.1810 N   0  0  0  0  0  0  0  0  0  0  0  0
  129.7660  122.6780   62.1440 C   0  0  0  0  0  0  0  0  0  0  0  0
  129.1930  122.8760   60.8890 C   0  0  0  0  0  0  0  0  0  0  0  0
  129.5220  121.7550   60.1630 C   0  0  0  0  0  0  0  0  0  0  0  0
  130.2590  120.9250   60.9390 O   0  0  0  0  0  0  0  0  0  0  0  0
  130.4090  121.5220   62.1930 N   0  0  0  0  0  0  0  0  0  0  0  0
  130.6140  124.7380   66.7160 S   0  0  0  0  0  0  0  0  0  0  0  0
  129.8370  126.2340   67.1780 C   0  0  0  0  0  0  0  0  0  0  0  0
  129.7840  126.6380   68.4460 N   0  0  0  0  0  0  0  0  0  0  0  0
  130.2320  128.8390   70.7260 C   0  0  0  0  0  0  0  0  0  0  0  0
  130.2020  129.2420   72.0590 C   0  0  0  0  0  0  0  0  0  0  0  0
  1  2  1  0
  2  3  1  0
  3  4  2  0
  4  5  1  0
  5  6  2  0
  6  7  1  0
  7  8  2  0
  8  9  1  0
  9 10  1  0
 10 11  2  0
 11 12  1  0
 12 13  2  0
 13 14  1  0
 14 15  1  0
 13 16  1  0
 16 17  2  0
  9 18  2  0
 18 19  1  0
 19 20  1  0
 19 21  2  0
 21 22  1  0
 22 23  2  0
 22 24  1  0
 24 25  1  0
 25 26  1  0
 26 27  2  0
 27 28  1  0
 28 29  1  0
 21 30  1  0
 30 31  1  0
 31 32  2  0
  6 33  1  0
 33 34  2  0
 34  3  1  0
 32  7  1  0
 17 10  1  0
 31 18  1  0
 29 25  2  0
M  END
>  <Binding energies>  (65) 
[-7.78]

>  <Ligand effiencies>  (65) 
[-0.2102702702702703]

>  <Interactions>  (65) 
["H-A:GLU:543:OE1:4904, V-A:GLU:543:CD:4903, V-A:HIS:456:CE1:4064, V-B:GLU:543:CG:9875, V-B:HIS:456:CD2:9035, H-A:GLU:543:OE2:4905, V-B:GLU:543:CB:9874, V-B:HIS:456:CE1:9037, V-B:GLU:543:CD:9876, V-B:ALA:541:CB:9860, V-A:GLU:543:CG:4902, H-A:HIS:456:NE2:4065, H-A:TYR:484:OH:4343, H-B:GLU:543:OE2:9878, V-A:TYR:484:CZ:4342, V-A:LYS:547:CE:4945, H-A:LYS:547:NZ:4946, V-A:TYR:484:CE1:4340, V-A:GLU:543:C:4897, H-B:GLU:543:OE1:9877, V-A:GLY:544:C:4907, V-B:HIS:456:CG:9033, V-B:LEU:475:CD2:9226"]

$$$$
9d_Ghoteimi_2023
     RDKit          3D

 38 43  0  0  0  0  0  0  0  0999 V2000
  133.5880  124.0240   56.7350 C   0  0  0  0  0  0  0  0  0  0  0  0
  132.5260  123.4520   57.4850 O   0  0  0  0  0  0  0  0  0  0  0  0
  132.7650  122.8390   58.6740 C   0  0  0  0  0  0  0  0  0  0  0  0
  133.3460  121.7570   58.7870 O   0  0  0  0  0  0  0  0  0  0  0  0
  132.2510  123.6040   59.8310 C   0  0  0  0  0  0  0  0  0  0  0  0
  132.0130  122.7980   61.3810 S   0  0  0  0  0  0  0  0  0  0  0  0
  131.4710  124.2870   62.1170 C   0  0  0  0  0  0  0  0  0  0  0  0
  131.1410  124.3480   63.4070 N   0  0  0  0  0  0  0  0  0  0  0  0
  130.7490  125.5570   63.8870 C   0  0  0  0  0  0  0  0  0  0  0  0
  130.4080  125.6070   65.3420 C   0  0  0  0  0  0  0  0  0  0  0  0
  130.2710  124.4270   66.0800 C   0  0  0  0  0  0  0  0  0  0  0  0
  129.9520  124.4630   67.4350 C   0  0  0  0  0  0  0  0  0  0  0  0
  129.7700  125.6830   68.1050 C   0  0  0  0  0  0  0  0  0  0  0  0
  129.4320  125.7350   69.4620 N   0  0  0  0  0  0  0  0  0  0  0  0
  129.8580  124.6770   70.4000 C   0  0  0  0  0  0  0  0  0  0  0  0
  129.1180  124.7090   71.7540 C   0  0  0  0  0  0  0  0  0  0  0  0
  129.2410  125.9920   72.3440 O   0  0  0  0  0  0  0  0  0  0  0  0
  128.6770  126.9990   71.5200 C   0  0  0  0  0  0  0  0  0  0  0  0
  129.4010  127.0380   70.1580 C   0  0  0  0  0  0  0  0  0  0  0  0
  129.8940  126.8630   67.3570 C   0  0  0  0  0  0  0  0  0  0  0  0
  130.2100  126.8270   66.0010 C   0  0  0  0  0  0  0  0  0  0  0  0
  130.6550  126.6890   63.0730 C   0  0  0  0  0  0  0  0  0  0  0  0
  130.9820  126.6250   61.7130 C   0  0  0  0  0  0  0  0  0  0  0  0
  130.8380  127.8520   60.8860 C   0  0  0  0  0  0  0  0  0  0  0  0
  131.5850  128.9970   61.1730 C   0  0  0  0  0  0  0  0  0  0  0  0
  131.4610  130.1380   60.3840 C   0  0  0  0  0  0  0  0  0  0  0  0
  130.5980  130.1570   59.2760 C   0  0  0  0  0  0  0  0  0  0  0  0
  130.4490  131.2910   58.4750 N   0  0  0  0  0  0  0  0  0  0  0  0
  129.1160  131.9130   58.3520 C   0  0  0  0  0  0  0  0  0  0  0  0
  129.1630  133.3450   57.7770 C   0  0  0  0  0  0  0  0  0  0  0  0
  129.8390  133.3460   56.5290 O   0  0  0  0  0  0  0  0  0  0  0  0
  131.1750  132.8790   56.6560 C   0  0  0  0  0  0  0  0  0  0  0  0
  131.1760  131.4340   57.1990 C   0  0  0  0  0  0  0  0  0  0  0  0
  129.8530  129.0020   58.9990 C   0  0  0  0  0  0  0  0  0  0  0  0
  129.9760  127.8630   59.7890 C   0  0  0  0  0  0  0  0  0  0  0  0
  131.4350  125.3780   61.1990 C   0  0  0  0  0  0  0  0  0  0  0  0
  131.9060  124.9600   59.9040 C   0  0  0  0  0  0  0  0  0  0  0  0
  132.0280  125.8190   58.8430 N   0  0  0  0  0  0  0  0  0  0  0  0
  1  2  1  0
  2  3  1  0
  3  4  2  0
  3  5  1  0
  5  6  1  0
  6  7  1  0
  7  8  2  0
  8  9  1  0
  9 10  1  0
 10 11  2  0
 11 12  1  0
 12 13  2  0
 13 14  1  0
 14 15  1  0
 15 16  1  0
 16 17  1  0
 17 18  1  0
 18 19  1  0
 13 20  1  0
 20 21  2  0
  9 22  2  0
 22 23  1  0
 23 24  1  0
 24 25  2  0
 25 26  1  0
 26 27  2  0
 27 28  1  0
 28 29  1  0
 29 30  1  0
 30 31  1  0
 31 32  1  0
 32 33  1  0
 27 34  1  0
 34 35  2  0
 23 36  2  0
 36 37  1  0
 37 38  1  0
 37  5  2  0
 36  7  1  0
 21 10  1  0
 35 24  1  0
 19 14  1  0
 33 28  1  0
M  END
>  <Binding energies>  (66) 
[-7.47]

>  <Ligand effiencies>  (66) 
[-0.18675]

>  <Interactions>  (66) 
["H-B:TYR:539:OH:9846, V-A:GLU:543:CD:4903, V-A:ASP:366:CG:3208, V-A:HIS:456:CE1:4064, V-B:GLU:543:CG:9875, V-B:GLU:543:CB:9874, H-A:TYR:531:OH:4790, V-B:TYR:539:CE2:9844, V-A:TYR:539:C:4862, V-A:PRO:540:CA:4878, V-A:PRO:540:N:4879, V-A:PRO:540:CB:4880, V-A:TYR:539:CZ:4872, V-A:TYR:539:CD2:4869, V-A:TYR:539:CE2:4871, H-B:LYS:547:NZ:9919, V-B:GLU:543:C:9870, V-A:TYR:531:CZ:4789, V-A:TYR:484:CZ:4342, V-A:ASP:366:CB:3207, V-B:GLU:543:CA:9872, V-A:TYR:484:CE1:4340, V-A:ASP:366:CA:3205, H-A:ASP:366:OD2:3210, V-A:TYR:539:CE1:4870, V-A:TYR:539:CD1:4868, V-A:PRO:540:CD:4882, V-A:ASP:366:C:3203, H-A:TYR:539:N:4865, V-A:TYR:539:CA:4864, V-A:TYR:539:CG:4867, V-A:TYR:531:CE1:4787, V-A:PRO:540:CG:4881, V-A:ASN:370:CB:3240"]

$$$$
RR10_Rahimova_2017
     RDKit          3D

 34 38  0  0  0  0  0  0  0  0999 V2000
  125.4930  119.6890   73.3040 C   0  0  0  0  0  0  0  0  0  0  0  0
  126.8430  119.7120   72.5650 C   0  0  1  0  0  0  0  0  0  0  0  0
  126.8460  120.7310   71.4020 C   0  0  0  0  0  0  0  0  0  0  0  0
  128.1980  120.7120   70.6530 C   0  0  0  0  0  0  0  0  0  0  0  0
  129.3920  121.0130   71.5950 C   0  0  1  0  0  0  0  0  0  0  0  0
  129.3510  122.4070   72.0590 N   0  0  0  0  0  0  0  0  0  0  0  0
  130.1620  122.9440   72.9890 C   0  0  0  0  0  0  0  0  0  0  0  0
  131.0600  122.3070   73.5460 O   0  0  0  0  0  0  0  0  0  0  0  0
  129.9130  124.4220   73.3560 C   0  0  1  0  0  0  0  0  0  0  0  0
  131.2130  125.0310   73.9420 C   0  0  0  0  0  0  0  0  0  0  0  0
  130.9960  126.5370   74.2260 C   0  0  0  0  0  0  0  0  0  0  0  0
  130.4430  127.2970   72.9980 C   0  0  0  0  0  0  0  0  0  0  0  0
  129.2370  126.6140   72.4570 N   0  0  0  0  0  0  0  0  0  0  0  0
  128.3460  127.5490   71.2440 S   0  0  0  0  0  0  0  0  0  0  0  0
  128.4910  128.9740   71.5690 O   0  0  0  0  0  0  0  0  0  0  0  0
  127.0110  126.9540   71.1070 O   0  0  0  0  0  0  0  0  0  0  0  0
  129.2300  127.2790   69.7070 C   0  0  0  0  0  0  0  0  0  0  0  0
  130.0770  128.2790   69.2200 C   0  0  0  0  0  0  0  0  0  0  0  0
  130.7920  128.1320   68.0270 C   0  0  0  0  0  0  0  0  0  0  0  0
  130.6200  126.9270   67.3420 C   0  0  0  0  0  0  0  0  0  0  0  0
  131.1270  126.4180   66.1700 N   0  0  0  0  0  0  0  0  0  0  0  0
  130.5930  125.1580   65.9880 C   0  0  0  0  0  0  0  0  0  0  0  0
  130.9060  124.2860   64.8060 C   0  0  0  0  0  0  0  0  0  0  0  0
  130.2160  123.0810   64.6120 C   0  0  0  0  0  0  0  0  0  0  0  0
  130.5020  122.2730   63.5140 C   0  0  0  0  0  0  0  0  0  0  0  0
  131.4820  122.6650   62.6050 C   0  0  0  0  0  0  0  0  0  0  0  0
  132.1750  123.8590   62.7840 C   0  0  0  0  0  0  0  0  0  0  0  0
  131.8880  124.6670   63.8820 C   0  0  0  0  0  0  0  0  0  0  0  0
  129.7830  124.8210   66.9670 N   0  0  0  0  0  0  0  0  0  0  0  0
  129.7770  125.8950   67.8180 C   0  0  0  0  0  0  0  0  0  0  0  0
  129.0740  126.0700   69.0190 C   0  0  0  0  0  0  0  0  0  0  0  0
  129.4750  125.1960   72.0890 C   0  0  0  0  0  0  0  0  0  0  0  0
  129.3660  119.9950   72.7670 C   0  0  0  0  0  0  0  0  0  0  0  0
  128.0190  120.0160   73.5230 C   0  0  0  0  0  0  0  0  0  0  0  0
  2  1  1  1
  2  3  1  0
  3  4  1  0
  4  5  1  0
  5  6  1  1
  6  7  1  0
  7  8  2  0
  9  7  1  6
  9 10  1  0
 10 11  1  0
 11 12  1  0
 12 13  1  0
 13 14  1  0
 14 15  2  0
 14 16  2  0
 14 17  1  0
 17 18  2  0
 18 19  1  0
 19 20  2  0
 20 21  1  0
 21 22  1  0
 22 23  1  0
 23 24  2  0
 24 25  1  0
 25 26  2  0
 26 27  1  0
 27 28  2  0
 22 29  2  0
 29 30  1  0
 30 31  2  0
 13 32  1  0
  5 33  1  0
 33 34  1  0
 34  2  1  0
 32  9  1  0
 31 17  1  0
 30 20  1  0
 28 23  1  0
M  END
>  <Binding energies>  (67) 
[-8.7]

>  <Ligand effiencies>  (67) 
[-0.24166666666666664]

>  <Interactions>  (67) 
["H-A:GLU:543:OE1:4904, V-A:GLU:543:CD:4903, V-A:HIS:456:CE1:4064, V-A:GLU:543:CB:4901, V-B:GLU:543:CG:9875, H-A:GLU:543:OE2:4905, V-B:GLU:543:CB:9874, V-B:ALA:541:CB:9860, V-A:GLU:543:CG:4902, H-B:LYS:547:NZ:9919, V-B:GLU:543:C:9870, V-A:TYR:484:CZ:4342, V-B:GLU:543:CA:9872, V-A:LYS:547:CE:4945, V-A:TYR:484:CE1:4340, H-B:GLU:543:O:9871, V-B:LYS:547:CE:9918, V-A:TYR:484:CD1:4338, V-A:TYR:484:CG:4337, V-A:TYR:484:CB:4336, V-B:GLY:544:CA:9882"]

$$$$
RR12_Rahimova_2017
     RDKit          3D

 26 28  0  0  0  0  0  0  0  0999 V2000
  130.1810  118.7020   61.4040 C   0  0  0  0  0  0  0  0  0  0  0  0
  130.7760  119.4330   60.1920 C   0  0  0  0  0  0  0  0  0  0  0  0
  131.8830  120.4270   60.5860 C   0  0  0  0  0  0  0  0  0  0  0  0
  131.5740  121.7680   60.0960 N   0  0  0  0  0  0  0  0  0  0  0  0
  130.5300  122.5900   60.4900 C   0  0  0  0  0  0  0  0  0  0  0  0
  129.4720  122.1900   61.5040 C   0  0  0  0  0  0  0  0  0  0  0  0
  129.7160  122.8230   62.8870 C   0  0  0  0  0  0  0  0  0  0  0  0
  131.2080  123.0840   63.1680 C   0  0  0  0  0  0  0  0  0  0  0  0
  131.4470  124.0170   64.2680 N   0  0  0  0  0  0  0  0  0  0  0  0
  132.6290  124.5970   64.5460 C   0  0  0  0  0  0  0  0  0  0  0  0
  133.6520  124.3930   63.8890 O   0  0  0  0  0  0  0  0  0  0  0  0
  132.6350  125.5490   65.7480 C   0  0  0  0  0  0  0  0  0  0  0  0
  131.5360  125.2400   66.6070 O   0  0  0  0  0  0  0  0  0  0  0  0
  130.5670  126.1980   66.8380 C   0  0  0  0  0  0  0  0  0  0  0  0
  130.9220  127.2460   67.6900 C   0  0  0  0  0  0  0  0  0  0  0  0
  130.0130  128.2600   67.9800 C   0  0  0  0  0  0  0  0  0  0  0  0
  128.7410  128.2280   67.4150 C   0  0  0  0  0  0  0  0  0  0  0  0
  128.3700  127.1880   66.5650 C   0  0  0  0  0  0  0  0  0  0  0  0
  129.2800  126.1740   66.2760 C   0  0  0  0  0  0  0  0  0  0  0  0
  130.5290  123.7530   59.8870 N   0  0  0  0  0  0  0  0  0  0  0  0
  131.6270  123.7280   59.0730 C   0  0  0  0  0  0  0  0  0  0  0  0
  132.1090  124.7240   58.2100 C   0  0  0  0  0  0  0  0  0  0  0  0
  133.2680  124.4560   57.4810 C   0  0  0  0  0  0  0  0  0  0  0  0
  133.9350  123.2370   57.6020 C   0  0  0  0  0  0  0  0  0  0  0  0
  133.4800  122.2260   58.4520 C   0  0  0  0  0  0  0  0  0  0  0  0
  132.3160  122.4940   59.1820 C   0  0  0  0  0  0  0  0  0  0  0  0
  1  2  1  0
  2  3  1  0
  3  4  1  0
  4  5  1  0
  5  6  1  0
  6  7  1  0
  7  8  1  0
  8  9  1  0
  9 10  1  0
 10 11  2  0
 10 12  1  0
 12 13  1  0
 13 14  1  0
 14 15  2  0
 15 16  1  0
 16 17  2  0
 17 18  1  0
 18 19  2  0
  5 20  2  0
 20 21  1  0
 21 22  2  0
 22 23  1  0
 23 24  2  0
 24 25  1  0
 25 26  2  0
 26  4  1  0
 19 14  1  0
 26 21  1  0
M  END
>  <Binding energies>  (68) 
[-6.31]

>  <Ligand effiencies>  (68) 
[-0.2337037037037037]

>  <Interactions>  (68) 
["V-A:GLU:543:CD:4903, V-A:ASP:366:CG:3208, V-B:TYR:539:CZ:9845, V-A:HIS:456:CE1:4064, V-A:GLU:543:CB:4901, V-B:GLU:543:CG:9875, V-B:GLU:543:CB:9874, V-A:ILE:369:CD1:3234, V-B:HIS:456:CE1:9037, V-B:GLU:543:CD:9876, V-B:TYR:539:CE2:9844, V-B:ALA:541:CB:9860, V-A:TRP:381:CZ2:3365, V-A:LEU:475:CD1:4253, V-B:TYR:539:CD2:9842, V-A:PRO:482:CG:4322, V-A:TRP:381:CH2:3367, V-A:LEU:475:CD2:4254, V-A:PRO:482:CB:4321, V-A:TRP:381:CZ3:3366, V-A:GLU:543:CG:4902, H-A:HIS:456:NE2:4065, H-A:TYR:484:OH:4343, H-B:GLU:543:OE2:9878, V-A:TYR:531:CZ:4789, H-A:GLY:454:N:4045, V-A:ASP:366:CB:3207, V-A:ASP:366:CA:3205, V-A:ILE:369:CB:3231, V-A:ILE:369:CG2:3232, V-A:ASP:366:C:3203, V-A:TYR:531:CE1:4787"]

$$$$
RR13_Rahimova_2017
     RDKit          3D

 48 54  0  0  0  0  0  0  0  0999 V2000
  132.8740  131.4560   57.4650 Cl  0  0  0  0  0  0  0  0  0  0  0  0
  131.1470  131.5420   57.5420 C   0  0  0  0  0  0  0  0  0  0  0  0
  130.4780  132.1530   56.4800 C   0  0  0  0  0  0  0  0  0  0  0  0
  129.0910  132.2730   56.4920 C   0  0  0  0  0  0  0  0  0  0  0  0
  128.3620  131.7820   57.5720 C   0  0  0  0  0  0  0  0  0  0  0  0
  129.0220  131.1700   58.6360 C   0  0  0  0  0  0  0  0  0  0  0  0
  130.4200  131.0300   58.6360 C   0  0  0  0  0  0  0  0  0  0  0  0
  131.1300  130.3700   59.8390 C   0  0  1  0  0  0  0  0  0  0  0  0
  131.0410  131.2610   61.0880 C   0  0  0  0  0  0  0  0  0  0  0  0
  132.0220  131.9420   61.6370 N   0  0  0  0  0  0  0  0  0  0  0  0
  131.4730  132.5680   62.7520 N   0  0  0  0  0  0  0  0  0  0  0  0
  130.1390  132.2330   62.8750 N   0  0  0  0  0  0  0  0  0  0  0  0
  129.9020  131.4060   61.8510 N   0  0  0  0  0  0  0  0  0  0  0  0
  128.5650  130.8680   61.6310 C   0  0  0  0  0  0  0  0  0  0  0  0
  128.4960  129.4020   62.0990 C   0  0  0  0  0  0  0  0  0  0  0  0
  128.4870  129.2840   63.6150 C   0  0  0  0  0  0  0  0  0  0  0  0
  128.2660  130.4170   64.4030 C   0  0  0  0  0  0  0  0  0  0  0  0
  128.2660  130.3090   65.7910 C   0  0  0  0  0  0  0  0  0  0  0  0
  128.4860  129.0680   66.3860 C   0  0  0  0  0  0  0  0  0  0  0  0
  128.7070  127.9350   65.6070 C   0  0  0  0  0  0  0  0  0  0  0  0
  128.7080  128.0420   64.2180 C   0  0  0  0  0  0  0  0  0  0  0  0
  130.6800  128.9820   60.1020 N   0  0  0  0  0  0  0  0  0  0  0  0
  131.3720  128.4290   61.2800 C   0  0  0  0  0  0  0  0  0  0  0  0
  130.8120  127.0330   61.6400 C   0  0  0  0  0  0  0  0  0  0  0  0
  131.0170  126.0890   60.5280 N   0  0  0  0  0  0  0  0  0  0  0  0
  130.5690  124.7160   60.8610 C   0  0  1  0  0  0  0  0  0  0  0  0
  129.5810  124.0780   59.8600 C   0  0  0  0  0  0  0  0  0  0  0  0
  128.2860  123.8080   60.3220 C   0  0  0  0  0  0  0  0  0  0  0  0
  127.3230  123.2480   59.4840 C   0  0  0  0  0  0  0  0  0  0  0  0
  127.6450  122.9420   58.1640 C   0  0  0  0  0  0  0  0  0  0  0  0
  128.9300  123.1870   57.6900 C   0  0  0  0  0  0  0  0  0  0  0  0
  129.9040  123.7440   58.5230 C   0  0  0  0  0  0  0  0  0  0  0  0
  131.4900  123.9460   57.8600 Cl  0  0  0  0  0  0  0  0  0  0  0  0
  131.7280  123.7570   61.1400 C   0  0  0  0  0  0  0  0  0  0  0  0
  132.8780  123.7470   60.5070 N   0  0  0  0  0  0  0  0  0  0  0  0
  133.6290  122.7330   61.0940 N   0  0  0  0  0  0  0  0  0  0  0  0
  132.9090  122.1390   62.1100 N   0  0  0  0  0  0  0  0  0  0  0  0
  131.7460  122.8020   62.1350 N   0  0  0  0  0  0  0  0  0  0  0  0
  130.7100  122.4240   63.0890 C   0  0  0  0  0  0  0  0  0  0  0  0
  130.0280  123.6770   63.6670 C   0  0  0  0  0  0  0  0  0  0  0  0
  130.9750  124.5000   64.5280 C   0  0  0  0  0  0  0  0  0  0  0  0
  130.5120  125.0870   65.7090 C   0  0  0  0  0  0  0  0  0  0  0  0
  131.3810  125.8340   66.5000 C   0  0  0  0  0  0  0  0  0  0  0  0
  132.7090  125.9920   66.1070 C   0  0  0  0  0  0  0  0  0  0  0  0
  133.1760  125.4080   64.9310 C   0  0  0  0  0  0  0  0  0  0  0  0
  132.3090  124.6600   64.1400 C   0  0  0  0  0  0  0  0  0  0  0  0
  130.3190  126.6430   59.3540 C   0  0  0  0  0  0  0  0  0  0  0  0
  130.8900  128.0350   58.9930 C   0  0  0  0  0  0  0  0  0  0  0  0
  1  2  1  0
  2  3  2  0
  3  4  1  0
  4  5  2  0
  5  6  1  0
  6  7  2  0
  7  8  1  0
  8  9  1  0
  9 10  2  0
 10 11  1  0
 11 12  2  0
 12 13  1  0
 13 14  1  0
 14 15  1  0
 15 16  1  0
 16 17  2  0
 17 18  1  0
 18 19  2  0
 19 20  1  0
 20 21  2  0
  8 22  1  1
 22 23  1  0
 23 24  1  0
 24 25  1  0
 26 25  1  6
 26 27  1  0
 27 28  2  0
 28 29  1  0
 29 30  2  0
 30 31  1  0
 31 32  2  0
 32 33  1  0
 26 34  1  0
 34 35  2  0
 35 36  1  0
 36 37  2  0
 37 38  1  0
 38 39  1  0
 39 40  1  0
 40 41  1  0
 41 42  2  0
 42 43  1  0
 43 44  2  0
 44 45  1  0
 45 46  2  0
 25 47  1  0
 47 48  1  0
  7  2  1  0
 13  9  1  0
 21 16  1  0
 48 22  1  0
 32 27  1  0
 38 34  1  0
 46 41  1  0
M  END
>  <Binding energies>  (69) 
[-10.02]

>  <Ligand effiencies>  (69) 
[-0.20875]

>  <Interactions>  (69) 
["V-A:GLU:543:CD:4903, V-B:TYR:539:CZ:9845, V-A:HIS:456:CE1:4064, V-A:ARG:545:CZ:4921, V-A:GLU:543:CB:4901, V-B:GLU:543:CG:9875, V-B:GLU:543:CD:9876, V-B:TYR:539:CE2:9844, V-B:ALA:541:CB:9860, H-A:ALA:541:N:4886, V-A:PRO:540:CA:4878, V-A:PRO:540:CB:4880, V-A:TYR:539:CZ:4872, V-B:TYR:539:C:9835, V-A:TYR:539:CE2:4871, V-A:GLU:543:CG:4902, V-B:PRO:540:CA:9851, V-A:TYR:531:CE2:4788, V-A:ARG:545:CD:4918, V-A:LEU:363:CD1:3184, V-B:TYR:484:CZ:9314, V-B:PRO:540:N:9852, V-A:ARG:545:CG:4917, V-B:TYR:484:CE1:9312, V-A:TYR:539:CE1:4870, V-A:TYR:539:CD1:4868, V-A:PRO:540:CG:4881"]

$$$$
RR14_Rahimova_2017
     RDKit          3D

 39 43  0  0  0  0  0  0  0  0999 V2000
  129.8190  118.1420   60.5400 C   0  0  0  0  0  0  0  0  0  0  0  0
  129.4080  119.4390   60.9560 O   0  0  0  0  0  0  0  0  0  0  0  0
  130.3600  120.4280   61.1150 C   0  0  0  0  0  0  0  0  0  0  0  0
  130.8550  121.0080   59.9460 C   0  0  0  0  0  0  0  0  0  0  0  0
  131.8340  121.9950   60.0060 C   0  0  0  0  0  0  0  0  0  0  0  0
  132.3330  122.4100   61.2430 C   0  0  0  0  0  0  0  0  0  0  0  0
  133.4510  123.4430   61.3090 C   0  0  0  0  0  0  0  0  0  0  0  0
  133.4100  124.2640   62.5190 N   0  0  0  0  0  0  0  0  0  0  0  0
  134.3520  124.1300   63.4590 N   0  0  0  0  0  0  0  0  0  0  0  0
  133.9880  125.0200   64.4500 N   0  0  0  0  0  0  0  0  0  0  0  0
  132.8160  125.6790   64.0940 N   0  0  0  0  0  0  0  0  0  0  0  0
  132.4800  125.1980   62.9200 C   0  0  0  0  0  0  0  0  0  0  0  0
  131.2420  125.6000   62.1290 C   0  0  0  0  0  0  0  0  0  0  0  0
  130.0080  125.0180   62.6810 N   0  0  0  0  0  0  0  0  0  0  0  0
  129.5440  123.8680   61.8940 C   0  0  0  0  0  0  0  0  0  0  0  0
  128.4000  124.2150   60.9170 C   0  0  0  0  0  0  0  0  0  0  0  0
  128.8830  124.8670   59.6040 C   0  0  0  0  0  0  0  0  0  0  0  0
  128.2870  124.2670   58.4050 N   0  0  0  0  0  0  0  0  0  0  0  0
  126.8820  123.9200   58.6530 C   0  0  0  0  0  0  0  0  0  0  0  0
  126.2390  123.2380   57.4260 C   0  0  0  0  0  0  0  0  0  0  0  0
  127.0130  122.1100   57.0320 O   0  0  0  0  0  0  0  0  0  0  0  0
  128.3460  122.4650   56.6830 C   0  0  0  0  0  0  0  0  0  0  0  0
  129.0530  123.1220   57.8880 C   0  0  0  0  0  0  0  0  0  0  0  0
  130.2140  124.6310   64.0840 C   0  0  0  0  0  0  0  0  0  0  0  0
  129.9610  125.7210   65.1240 C   0  0  0  0  0  0  0  0  0  0  0  0
  129.3560  126.8850   64.7840 C   0  0  0  0  0  0  0  0  0  0  0  0
  129.1350  127.9710   65.7610 C   0  0  0  0  0  0  0  0  0  0  0  0
  128.4940  129.1810   65.4480 C   0  0  0  0  0  0  0  0  0  0  0  0
  127.9690  129.4680   64.0480 C   0  0  0  0  0  0  0  0  0  0  0  0
  128.3330  130.1440   66.4490 C   0  0  0  0  0  0  0  0  0  0  0  0
  128.7990  129.9110   67.7420 C   0  0  0  0  0  0  0  0  0  0  0  0
  129.4360  128.7090   68.0640 C   0  0  0  0  0  0  0  0  0  0  0  0
  129.9320  128.4840   69.4860 C   0  0  0  0  0  0  0  0  0  0  0  0
  129.6030  127.7350   67.0670 C   0  0  0  0  0  0  0  0  0  0  0  0
  130.2420  126.5090   67.3440 N   0  0  0  0  0  0  0  0  0  0  0  0
  130.4660  125.4870   66.4810 C   0  0  0  0  0  0  0  0  0  0  0  0
  131.0530  124.4710   66.8550 O   0  0  0  0  0  0  0  0  0  0  0  0
  131.8220  121.8570   62.4190 C   0  0  0  0  0  0  0  0  0  0  0  0
  130.8440  120.8690   62.3570 C   0  0  0  0  0  0  0  0  0  0  0  0
  1  2  1  0
  2  3  1  0
  3  4  2  0
  4  5  1  0
  5  6  2  0
  6  7  1  0
  7  8  1  0
  8  9  1  0
  9 10  2  0
 10 11  1  0
 11 12  2  0
 12 13  1  0
 13 14  1  0
 14 15  1  0
 15 16  1  0
 16 17  1  0
 17 18  1  0
 18 19  1  0
 19 20  1  0
 20 21  1  0
 21 22  1  0
 22 23  1  0
 14 24  1  0
 24 25  1  0
 25 26  2  0
 26 27  1  0
 27 28  2  0
 28 29  1  0
 28 30  1  0
 30 31  2  0
 31 32  1  0
 32 33  1  0
 32 34  2  0
 34 35  1  0
 35 36  1  0
 36 37  2  0
  6 38  1  0
 38 39  2  0
 39  3  1  0
 12  8  1  0
 23 18  1  0
 36 25  1  0
 34 27  1  0
M  END
>  <Binding energies>  (70) 
[-8.9]

>  <Ligand effiencies>  (70) 
[-0.2225]

>  <Interactions>  (70) 
["V-A:GLU:543:CD:4903, V-A:ASP:366:CG:3208, V-B:TYR:539:CZ:9845, V-A:HIS:456:CE1:4064, V-A:GLU:543:CB:4901, V-B:GLU:543:CG:9875, V-A:ILE:369:CD1:3234, H-A:ARG:545:NH2:4923, V-B:HIS:456:CE1:9037, V-B:GLU:543:CD:9876, V-B:TYR:539:CE2:9844, V-B:ALA:541:CB:9860, V-A:TRP:381:CZ2:3365, V-A:LEU:475:CD1:4253, V-B:TYR:539:CD2:9842, V-A:PRO:482:CG:4322, V-A:TRP:381:CH2:3367, V-A:LEU:475:CD2:4254, V-A:PRO:482:CB:4321, V-A:TRP:381:CE2:3362, V-B:TYR:539:CG:9840, V-A:TRP:381:CZ3:3366, V-B:TYR:539:C:9835, V-A:GLU:543:CG:4902, V-B:PRO:540:CA:9851, H-A:HIS:456:NE2:4065, H-A:TYR:484:OH:4343, H-B:ALA:541:N:9859, V-A:TRP:381:CE3:3363, H-A:GLY:454:N:4045, V-B:TYR:484:CZ:9314, V-A:GLU:543:CA:4899, V-B:PRO:540:N:9852, V-B:TYR:539:CD1:9841, V-B:TYR:539:CE1:9843, V-B:MET:535:CE:9803, H-A:ARG:545:NE:4919, H-A:ARG:545:NH1:4922, V-B:TYR:484:CE1:9312, H-B:TYR:539:N:9838, V-A:TRP:381:CD2:3360"]

$$$$
RR15_Rahimova_2017
     RDKit          3D

 45 49  0  0  0  0  0  0  0  0999 V2000
  131.2180  118.3170   74.5070 C   0  0  0  0  0  0  0  0  0  0  0  0
  129.9920  118.8940   74.0700 O   0  0  0  0  0  0  0  0  0  0  0  0
  130.0170  119.9900   73.2260 C   0  0  0  0  0  0  0  0  0  0  0  0
  131.0640  120.9250   73.1960 C   0  0  0  0  0  0  0  0  0  0  0  0
  131.0260  122.0090   72.3220 C   0  0  0  0  0  0  0  0  0  0  0  0
  129.9440  122.1920   71.4560 C   0  0  0  0  0  0  0  0  0  0  0  0
  129.9000  123.3660   70.5160 C   0  0  0  0  0  0  0  0  0  0  0  0
  129.8510  124.6230   70.9360 N   0  0  0  0  0  0  0  0  0  0  0  0
  129.8130  125.4030   69.7990 N   0  0  0  0  0  0  0  0  0  0  0  0
  129.8850  124.5160   68.8060 N   0  0  0  0  0  0  0  0  0  0  0  0
  129.7110  124.9030   67.4070 C   0  0  0  0  0  0  0  0  0  0  0  0
  130.1590  126.3480   67.0730 C   0  0  0  0  0  0  0  0  0  0  0  0
  131.3220  126.6710   67.3270 O   0  0  0  0  0  0  0  0  0  0  0  0
  129.2760  127.2120   66.4850 N   0  0  0  0  0  0  0  0  0  0  0  0
  129.2580  127.4130   65.0220 C   0  0  0  0  0  0  0  0  0  0  0  0
  129.7650  126.1910   64.2250 C   0  0  0  0  0  0  0  0  0  0  0  0
  130.7790  126.5240   63.1040 C   0  0  0  0  0  0  0  0  0  0  0  0
  132.1350  126.0350   63.3720 N   0  0  0  0  0  0  0  0  0  0  0  0
  132.3770  125.7160   64.7870 C   0  0  0  0  0  0  0  0  0  0  0  0
  133.7870  125.1260   65.0000 C   0  0  0  0  0  0  0  0  0  0  0  0
  133.9810  123.9990   64.1530 O   0  0  0  0  0  0  0  0  0  0  0  0
  133.8500  124.3270   62.7740 C   0  0  0  0  0  0  0  0  0  0  0  0
  132.4400  124.8920   62.5000 C   0  0  0  0  0  0  0  0  0  0  0  0
  128.1500  127.8650   67.2210 C   0  0  2  0  0  0  0  0  0  0  0  0
  127.6160  129.1650   66.5420 C   0  0  0  0  0  0  0  0  0  0  0  0
  127.9890  130.2770   66.9160 O   0  0  0  0  0  0  0  0  0  0  0  0
  126.7680  128.9790   65.5150 N   0  0  0  0  0  0  0  0  0  0  0  0
  126.2220  130.0350   64.6690 C   0  0  0  0  0  0  0  0  0  0  0  0
  127.1880  130.3820   63.5210 C   0  0  2  0  0  0  0  0  0  0  0  0
  128.6460  130.6410   63.9390 C   0  0  0  0  0  0  0  0  0  0  0  0
  128.7780  132.1450   63.9380 C   0  0  0  0  0  0  0  0  0  0  0  0
  127.8440  132.5270   62.8020 C   0  0  0  0  0  0  0  0  0  0  0  0
  126.7470  131.6420   62.9960 O   0  0  0  0  0  0  0  0  0  0  0  0
  128.4470  127.9240   68.7150 C   0  0  0  0  0  0  0  0  0  0  0  0
  127.5490  127.3030   69.5900 C   0  0  0  0  0  0  0  0  0  0  0  0
  127.7680  127.3250   70.9650 C   0  0  0  0  0  0  0  0  0  0  0  0
  128.8910  127.9700   71.4750 C   0  0  0  0  0  0  0  0  0  0  0  0
  129.1050  127.9910   72.8090 F   0  0  0  0  0  0  0  0  0  0  0  0
  129.7960  128.5920   70.6190 C   0  0  0  0  0  0  0  0  0  0  0  0
  129.5750  128.5700   69.2450 C   0  0  0  0  0  0  0  0  0  0  0  0
  129.8990  123.2380   69.2030 N   0  0  0  0  0  0  0  0  0  0  0  0
  128.9010  121.2560   71.4860 C   0  0  0  0  0  0  0  0  0  0  0  0
  128.9270  120.1560   72.3600 C   0  0  0  0  0  0  0  0  0  0  0  0
  127.9240  119.2040   72.4240 O   0  0  0  0  0  0  0  0  0  0  0  0
  127.2040  118.8600   71.2450 C   0  0  0  0  0  0  0  0  0  0  0  0
  1  2  1  0
  2  3  1  0
  3  4  2  0
  4  5  1  0
  5  6  2  0
  6  7  1  0
  7  8  1  0
  8  9  2  0
  9 10  1  0
 10 11  1  0
 11 12  1  0
 12 13  2  0
 12 14  1  0
 14 15  1  0
 15 16  1  0
 16 17  1  0
 17 18  1  0
 18 19  1  0
 19 20  1  0
 20 21  1  0
 21 22  1  0
 22 23  1  0
 24 14  1  6
 24 25  1  0
 25 26  2  0
 25 27  1  0
 27 28  1  0
 29 28  1  1
 29 30  1  0
 30 31  1  0
 31 32  1  0
 32 33  1  0
 24 34  1  0
 34 35  2  0
 35 36  1  0
 36 37  2  0
 37 38  1  0
 37 39  1  0
 39 40  2  0
 10 41  1  0
  6 42  1  0
 42 43  2  0
 43 44  1  0
 44 45  1  0
 43  3  1  0
 41  7  2  0
 23 18  1  0
 33 29  1  0
 40 34  1  0
M  END
>  <Binding energies>  (71) 
[-7.94]

>  <Ligand effiencies>  (71) 
[-0.17260869565217393]

>  <Interactions>  (71) 
["V-A:GLU:543:CD:4903, V-A:ASP:366:CG:3208, V-A:HIS:456:CE1:4064, V-A:ARG:545:CZ:4921, V-A:GLU:543:CB:4901, V-B:GLU:543:CG:9875, V-B:HIS:456:CD2:9035, V-B:GLU:543:CB:9874, H-A:ARG:545:NH2:4923, V-B:HIS:456:CE1:9037, V-B:GLU:543:CD:9876, V-A:GLU:543:CG:4902, H-B:TYR:484:OH:9315, V-B:GLU:543:C:9870, H-A:HIS:456:NE2:4065, H-A:TYR:484:OH:4343, H-B:GLU:543:OE2:9878, V-A:ARG:545:CD:4918, H-A:GLY:454:N:4045, V-B:GLU:543:CA:9872, V-A:TYR:484:CE1:4340, H-B:GLU:543:OE1:9877, V-A:ASP:473:CG:4235, V-A:ALA:541:CB:4887, V-A:TYR:484:CD1:4338, V-A:TYR:484:CG:4337, V-A:TYR:484:CB:4336, V-A:TYR:484:CD2:4339, V-A:ASP:473:CB:4234, V-A:TYR:484:C:4332, V-A:ASP:485:CA:4348, V-A:ASP:485:C:4346, V-A:PRO:486:CD:4361"]

$$$$
RR17_Rahimova_2017
     RDKit          3D

 38 41  0  0  0  0  0  0  0  0999 V2000
  126.9120  122.8530   57.4730 C   0  0  0  0  0  0  0  0  0  0  0  0
  128.3580  122.4620   57.1530 C   0  0  0  0  0  0  0  0  0  0  0  0
  129.2320  123.4200   57.7430 O   0  0  0  0  0  0  0  0  0  0  0  0
  130.2530  122.9870   58.5690 C   0  0  0  0  0  0  0  0  0  0  0  0
  129.9890  121.8610   59.3470 C   0  0  0  0  0  0  0  0  0  0  0  0
  130.9540  121.3520   60.2100 C   0  0  0  0  0  0  0  0  0  0  0  0
  132.2110  121.9650   60.3140 C   0  0  0  0  0  0  0  0  0  0  0  0
  133.2340  121.3930   61.2530 C   0  0  0  0  0  0  0  0  0  0  0  0
  133.9100  120.4000   60.9690 O   0  0  0  0  0  0  0  0  0  0  0  0
  133.4020  122.0940   62.6190 C   0  0  0  0  0  0  0  0  0  0  0  0
  133.9930  123.8160   62.4410 S   0  0  0  0  0  0  0  0  0  0  0  0
  133.3590  124.5120   63.9410 C   0  0  0  0  0  0  0  0  0  0  0  0
  134.0820  125.0490   64.8950 N   0  0  0  0  0  0  0  0  0  0  0  0
  133.2160  125.4840   65.8920 N   0  0  0  0  0  0  0  0  0  0  0  0
  132.0010  125.1960   65.4990 C   0  0  0  0  0  0  0  0  0  0  0  0
  130.7400  125.5120   66.2910 C   0  0  0  0  0  0  0  0  0  0  0  0
  130.6950  126.8780   66.8070 N   0  0  0  0  0  0  0  0  0  0  0  0
  130.1220  127.2260   68.0440 C   0  0  0  0  0  0  0  0  0  0  0  0
  130.6930  128.2930   68.7380 C   0  0  0  0  0  0  0  0  0  0  0  0
  130.1800  128.6870   69.9700 C   0  0  0  0  0  0  0  0  0  0  0  0
  129.0830  128.0190   70.5220 C   0  0  0  0  0  0  0  0  0  0  0  0
  128.5350  128.4600   71.8790 C   0  0  0  0  0  0  0  0  0  0  0  0
  128.7660  129.7520   72.1210 F   0  0  0  0  0  0  0  0  0  0  0  0
  127.2170  128.2600   71.9360 F   0  0  0  0  0  0  0  0  0  0  0  0
  129.1180  127.7430   72.8390 F   0  0  0  0  0  0  0  0  0  0  0  0
  128.5040  126.9540   69.8230 C   0  0  0  0  0  0  0  0  0  0  0  0
  129.0170  126.5620   68.5910 C   0  0  0  0  0  0  0  0  0  0  0  0
  132.0200  124.5660   64.2720 N   0  0  0  0  0  0  0  0  0  0  0  0
  130.9250  124.1140   63.5200 C   0  0  0  0  0  0  0  0  0  0  0  0
  130.2640  122.9470   63.9020 C   0  0  0  0  0  0  0  0  0  0  0  0
  129.1790  122.4970   63.1530 C   0  0  0  0  0  0  0  0  0  0  0  0
  128.7540  123.2130   62.0230 C   0  0  0  0  0  0  0  0  0  0  0  0
  127.6900  122.8430   61.2220 O   0  0  0  0  0  0  0  0  0  0  0  0
  126.6840  123.8030   60.9160 C   0  0  0  0  0  0  0  0  0  0  0  0
  129.4300  124.3790   61.6550 C   0  0  0  0  0  0  0  0  0  0  0  0
  130.5140  124.8350   62.3990 C   0  0  0  0  0  0  0  0  0  0  0  0
  132.4770  123.0970   59.5300 C   0  0  0  0  0  0  0  0  0  0  0  0
  131.5090  123.6030   58.6660 C   0  0  0  0  0  0  0  0  0  0  0  0
  1  2  1  0
  2  3  1  0
  3  4  1  0
  4  5  2  0
  5  6  1  0
  6  7  2  0
  7  8  1  0
  8  9  2  0
  8 10  1  0
 10 11  1  0
 11 12  1  0
 12 13  2  0
 13 14  1  0
 14 15  2  0
 15 16  1  0
 16 17  1  0
 17 18  1  0
 18 19  2  0
 19 20  1  0
 20 21  2  0
 21 22  1  0
 22 23  1  0
 22 24  1  0
 22 25  1  0
 21 26  1  0
 26 27  2  0
 15 28  1  0
 28 29  1  0
 29 30  2  0
 30 31  1  0
 31 32  2  0
 32 33  1  0
 33 34  1  0
 32 35  1  0
 35 36  2  0
  7 37  1  0
 37 38  2  0
 38  4  1  0
 28 12  1  0
 36 29  1  0
 27 18  1  0
M  END
>  <Binding energies>  (72) 
[-8.2]

>  <Ligand effiencies>  (72) 
[-0.21025641025641023]

>  <Interactions>  (72) 
["H-A:GLU:543:OE1:4904, V-A:GLU:543:CD:4903, V-B:TYR:539:CZ:9845, V-A:HIS:456:CE1:4064, V-A:GLU:543:CB:4901, V-B:GLU:543:CG:9875, V-B:HIS:456:CD2:9035, H-A:GLU:543:OE2:4905, V-B:GLU:543:CB:9874, V-A:ILE:369:CD1:3234, V-B:HIS:456:CE1:9037, V-B:GLU:543:CD:9876, V-B:TYR:539:CE2:9844, V-B:ALA:541:CB:9860, V-B:TYR:539:CD2:9842, V-A:LEU:475:CD2:4254, V-B:TYR:539:CG:9840, V-B:TYR:539:C:9835, V-B:PRO:540:CA:9851, H-A:HIS:456:NE2:4065, H-A:TYR:484:OH:4343, V-A:GLY:454:CA:4044, H-B:ALA:541:N:9859, H-A:GLY:454:N:4045, V-A:GLU:543:C:4897, V-B:LYS:547:CE:9918, V-B:PRO:540:N:9852, V-B:TYR:539:CD1:9841, V-B:TYR:539:CE1:9843, V-B:MET:535:CE:9803, V-B:HIS:456:CG:9033, H-A:ARG:545:NE:4919, H-A:ARG:545:NH1:4922"]

$$$$
RR19_Rahimova_2017
     RDKit          3D

 46 51  0  0  0  0  0  0  0  0999 V2000
  133.4400  123.7000   59.8070 O   0  0  0  0  0  0  0  0  0  0  0  0
  133.0200  124.2780   60.8140 C   0  0  0  0  0  0  0  0  0  0  0  0
  132.1040  125.2790   60.8340 N   0  0  0  0  0  0  0  0  0  0  0  0
  131.2490  125.7850   59.8860 C   0  0  0  0  0  0  0  0  0  0  0  0
  130.9210  125.0840   58.3800 S   0  0  0  0  0  0  0  0  0  0  0  0
  130.7050  126.9510   60.3630 N   0  0  0  0  0  0  0  0  0  0  0  0
  129.7180  127.7650   59.9080 C   0  0  0  0  0  0  0  0  0  0  0  0
  128.9290  127.5170   58.9930 O   0  0  0  0  0  0  0  0  0  0  0  0
  129.6430  129.1300   60.6370 C   0  0  2  0  0  0  0  0  0  0  0  0
  131.0200  129.8070   60.8970 C   0  0  0  0  0  0  0  0  0  0  0  0
  131.6770  130.4290   59.6750 C   0  0  0  0  0  0  0  0  0  0  0  0
  133.0570  130.2630   59.4320 C   0  0  0  0  0  0  0  0  0  0  0  0
  133.6240  130.7710   58.2710 C   0  0  0  0  0  0  0  0  0  0  0  0
  132.8350  131.4280   57.3350 C   0  0  0  0  0  0  0  0  0  0  0  0
  131.4690  131.5730   57.5470 C   0  0  0  0  0  0  0  0  0  0  0  0
  130.8830  131.0710   58.7000 C   0  0  0  0  0  0  0  0  0  0  0  0
  128.8370  129.0340   61.8850 N   0  0  0  0  0  0  0  0  0  0  0  0
  127.7010  129.7690   62.0530 C   0  0  0  0  0  0  0  0  0  0  0  0
  127.2190  130.5890   61.2700 O   0  0  0  0  0  0  0  0  0  0  0  0
  127.1650  129.3710   63.3780 C   0  0  0  0  0  0  0  0  0  0  0  0
  126.0320  129.7980   64.0720 C   0  0  0  0  0  0  0  0  0  0  0  0
  125.7610  129.2350   65.3240 C   0  0  0  0  0  0  0  0  0  0  0  0
  126.6150  128.2620   65.8600 C   0  0  0  0  0  0  0  0  0  0  0  0
  127.7460  127.8470   65.1480 C   0  0  0  0  0  0  0  0  0  0  0  0
  127.9990  128.4220   63.9020 C   0  0  0  0  0  0  0  0  0  0  0  0
  129.0920  128.1860   62.9260 C   0  0  0  0  0  0  0  0  0  0  0  0
  130.0230  127.3870   63.0320 O   0  0  0  0  0  0  0  0  0  0  0  0
  133.5630  123.8740   62.2110 C   0  0  2  0  0  0  0  0  0  0  0  0
  133.7540  122.3410   62.3940 C   0  0  0  0  0  0  0  0  0  0  0  0
  132.6870  121.5020   61.7150 C   0  0  0  0  0  0  0  0  0  0  0  0
  131.3820  121.4470   62.2500 C   0  0  0  0  0  0  0  0  0  0  0  0
  130.3820  120.7610   61.5720 C   0  0  0  0  0  0  0  0  0  0  0  0
  130.6530  120.1520   60.3540 C   0  0  0  0  0  0  0  0  0  0  0  0
  131.9230  120.2310   59.7950 C   0  0  0  0  0  0  0  0  0  0  0  0
  132.9370  120.9100   60.4580 C   0  0  0  0  0  0  0  0  0  0  0  0
  132.7910  124.4680   63.3390 N   0  0  0  0  0  0  0  0  0  0  0  0
  133.4100  125.0700   64.3930 C   0  0  0  0  0  0  0  0  0  0  0  0
  134.6210  125.1940   64.5750 O   0  0  0  0  0  0  0  0  0  0  0  0
  132.3140  125.5450   65.2740 C   0  0  0  0  0  0  0  0  0  0  0  0
  132.3490  126.2230   66.4930 C   0  0  0  0  0  0  0  0  0  0  0  0
  131.1380  126.5540   67.1110 C   0  0  0  0  0  0  0  0  0  0  0  0
  129.9210  126.2100   66.5090 C   0  0  0  0  0  0  0  0  0  0  0  0
  129.9060  125.5320   65.2840 C   0  0  0  0  0  0  0  0  0  0  0  0
  131.1250  125.2090   64.6860 C   0  0  0  0  0  0  0  0  0  0  0  0
  131.4270  124.5100   63.4130 C   0  0  0  0  0  0  0  0  0  0  0  0
  130.6200  124.0640   62.5970 O   0  0  0  0  0  0  0  0  0  0  0  0
  1  2  2  0
  2  3  1  0
  3  4  1  0
  4  5  2  0
  4  6  1  0
  6  7  1  0
  7  8  2  0
  7  9  1  0
  9 10  1  1
 10 11  1  0
 11 12  2  0
 12 13  1  0
 13 14  2  0
 14 15  1  0
 15 16  2  0
  9 17  1  0
 17 18  1  0
 18 19  2  0
 18 20  1  0
 20 21  2  0
 21 22  1  0
 22 23  2  0
 23 24  1  0
 24 25  2  0
 25 26  1  0
 26 27  2  0
  2 28  1  0
 28 29  1  1
 29 30  1  0
 30 31  2  0
 31 32  1  0
 32 33  2  0
 33 34  1  0
 34 35  2  0
 28 36  1  0
 36 37  1  0
 37 38  2  0
 37 39  1  0
 39 40  2  0
 40 41  1  0
 41 42  2  0
 42 43  1  0
 43 44  2  0
 44 45  1  0
 45 46  2  0
 16 11  1  0
 26 17  1  0
 35 30  1  0
 45 36  1  0
 25 20  1  0
 44 39  1  0
M  END
>  <Binding energies>  (73) 
[-9.73]

>  <Ligand effiencies>  (73) 
[-0.20270833333333335]

>  <Interactions>  (73) 
["V-A:GLU:543:CD:4903, V-A:ASP:366:CG:3208, V-A:HIS:456:CE1:4064, V-A:ARG:545:CZ:4921, V-B:GLU:543:CG:9875, V-A:ILE:369:CD1:3234, H-A:ARG:545:NH2:4923, V-B:HIS:456:CE1:9037, V-B:GLU:543:CD:9876, V-B:TYR:539:CE2:9844, V-B:ALA:541:CB:9860, V-A:PRO:540:CA:4878, V-B:TYR:539:CD2:9842, V-A:TRP:381:CH2:3367, V-A:PRO:540:CB:4880, V-A:LEU:475:CD2:4254, V-A:GLY:454:CA:4044, V-A:TYR:531:CE2:4788, V-A:LEU:363:CA:3180, H-A:GLY:454:N:4045, V-A:LEU:363:CD1:3184, V-A:ASP:366:CB:3207, V-A:ARG:545:CG:4917, H-A:ASP:366:OD2:3210, V-A:ILE:369:CG2:3232, H-A:ARG:545:NE:4919, H-A:ARG:545:NH1:4922, V-A:PRO:540:CG:4881, V-A:LEU:363:CB:3182"]

$$$$
RR1_Rahimova_2017
     RDKit          3D

 41 44  0  0  0  0  0  0  0  0999 V2000
  129.3710  118.0040   60.4560 C   0  0  0  0  0  0  0  0  0  0  0  0
  130.6290  118.6230   60.2100 O   0  0  0  0  0  0  0  0  0  0  0  0
  130.9070  119.8410   60.7980 C   0  0  0  0  0  0  0  0  0  0  0  0
  130.2560  120.3370   61.9380 C   0  0  0  0  0  0  0  0  0  0  0  0
  130.5990  121.5820   62.4570 C   0  0  0  0  0  0  0  0  0  0  0  0
  131.5990  122.3470   61.8540 C   0  0  0  0  0  0  0  0  0  0  0  0
  131.8420  123.6110   62.4260 N   0  0  0  0  0  0  0  0  0  0  0  0
  132.8860  124.0240   63.1750 C   0  0  0  0  0  0  0  0  0  0  0  0
  133.8070  123.3000   63.5540 O   0  0  0  0  0  0  0  0  0  0  0  0
  132.8540  125.5140   63.5500 C   0  0  0  0  0  0  0  0  0  0  0  0
  131.2860  126.1060   64.2780 S   0  0  0  0  0  0  0  0  0  0  0  0
  130.8790  127.2910   63.0410 C   0  0  0  0  0  0  0  0  0  0  0  0
  131.7160  127.7240   62.1320 N   0  0  0  0  0  0  0  0  0  0  0  0
  130.9930  128.5800   61.4160 C   0  0  0  0  0  0  0  0  0  0  0  0
  131.5580  129.3170   60.2350 C   0  0  0  0  0  0  0  0  0  0  0  0
  132.7840  129.9980   60.3120 C   0  0  0  0  0  0  0  0  0  0  0  0
  133.2820  130.6770   59.1990 C   0  0  0  0  0  0  0  0  0  0  0  0
  132.5360  130.6600   58.0220 C   0  0  0  0  0  0  0  0  0  0  0  0
  131.3480  130.0130   57.9120 N   0  0  0  0  0  0  0  0  0  0  0  0
  130.8820  129.3580   59.0060 C   0  0  0  0  0  0  0  0  0  0  0  0
  129.7430  128.7340   61.8120 N   0  0  0  0  0  0  0  0  0  0  0  0
  129.6670  127.9070   62.8580 N   0  0  0  0  0  0  0  0  0  0  0  0
  128.4120  127.7520   63.5940 C   0  0  0  0  0  0  0  0  0  0  0  0
  128.4600  128.2030   65.0640 C   0  0  0  0  0  0  0  0  0  0  0  0
  128.3660  129.3990   65.3620 O   0  0  0  0  0  0  0  0  0  0  0  0
  128.6130  127.2090   65.9590 N   0  0  0  0  0  0  0  0  0  0  0  0
  128.5170  127.5220   67.3070 N   0  0  0  0  0  0  0  0  0  0  0  0
  129.6600  127.5740   68.0250 C   0  0  0  0  0  0  0  0  0  0  0  0
  130.7900  127.4620   67.5370 O   0  0  0  0  0  0  0  0  0  0  0  0
  129.4910  127.8120   69.5120 C   0  0  0  0  0  0  0  0  0  0  0  0
  129.4150  129.1190   70.0060 C   0  0  0  0  0  0  0  0  0  0  0  0
  129.2720  129.3620   71.3680 C   0  0  0  0  0  0  0  0  0  0  0  0
  129.2070  128.2990   72.2830 C   0  0  0  0  0  0  0  0  0  0  0  0
  129.0790  128.4710   73.6500 O   0  0  0  0  0  0  0  0  0  0  0  0
  128.3280  129.5710   74.1510 C   0  0  0  0  0  0  0  0  0  0  0  0
  129.2880  126.9820   71.8100 C   0  0  0  0  0  0  0  0  0  0  0  0
  129.2390  125.9710   72.7550 O   0  0  0  0  0  0  0  0  0  0  0  0
  129.2350  124.6120   72.3320 C   0  0  0  0  0  0  0  0  0  0  0  0
  129.4260  126.7510   70.4290 C   0  0  0  0  0  0  0  0  0  0  0  0
  132.2530  121.8540   60.7150 C   0  0  0  0  0  0  0  0  0  0  0  0
  131.9070  120.6090   60.1990 C   0  0  0  0  0  0  0  0  0  0  0  0
  1  2  1  0
  2  3  1  0
  3  4  2  0
  4  5  1  0
  5  6  2  0
  6  7  1  0
  7  8  1  0
  8  9  2  0
  8 10  1  0
 10 11  1  0
 11 12  1  0
 12 13  2  0
 13 14  1  0
 14 15  1  0
 15 16  2  0
 16 17  1  0
 17 18  2  0
 18 19  1  0
 19 20  2  0
 14 21  2  0
 21 22  1  0
 22 23  1  0
 23 24  1  0
 24 25  2  0
 24 26  1  0
 26 27  1  0
 27 28  1  0
 28 29  2  0
 28 30  1  0
 30 31  2  0
 31 32  1  0
 32 33  2  0
 33 34  1  0
 34 35  1  0
 33 36  1  0
 36 37  1  0
 37 38  1  0
 36 39  2  0
  6 40  1  0
 40 41  2  0
 41  3  1  0
 22 12  1  0
 39 30  1  0
 20 15  1  0
M  END
>  <Binding energies>  (74) 
[-7.69]

>  <Ligand effiencies>  (74) 
[-0.17477272727272727]

>  <Interactions>  (74) 
["V-A:GLU:543:CD:4903, V-A:ASP:366:CG:3208, V-A:HIS:456:CE1:4064, V-A:ARG:545:CZ:4921, V-B:GLU:543:CG:9875, V-B:HIS:456:CD2:9035, V-B:GLU:543:CB:9874, H-A:ARG:545:NH2:4923, V-B:GLU:543:CD:9876, H-A:TYR:531:OH:4790, V-B:TYR:539:CE2:9844, V-B:ALA:541:CB:9860, V-A:TRP:381:CZ2:3365, V-A:LEU:475:CD1:4253, V-B:TYR:539:CD2:9842, V-A:PRO:482:CG:4322, V-A:TRP:381:CH2:3367, V-A:PRO:540:CB:4880, V-A:LEU:475:CD2:4254, V-A:PRO:482:CB:4321, V-A:TRP:381:CE2:3362, V-A:TRP:381:CZ3:3366, V-B:TYR:539:C:9835, H-B:LYS:547:NZ:9919, H-A:HIS:456:NE2:4065, H-A:TYR:484:OH:4343, H-B:GLU:543:OE2:9878, V-A:TYR:531:CE2:4788, V-A:LEU:363:CA:3180, H-A:GLY:454:N:4045, V-B:TYR:539:CB:9839, V-A:LEU:363:CD1:3184, H-A:LYS:547:NZ:4946, V-A:GLU:543:C:4897, H-B:GLU:543:OE1:9877, V-B:LYS:547:CE:9918"]

$$$$
RR22_Rahimova_2017
     RDKit          3D

 31 36  0  0  0  0  0  0  0  0999 V2000
  134.8110  125.2170   64.8080 O   0  0  0  0  0  0  0  0  0  0  0  0
  133.6170  125.1640   64.5240 C   0  0  0  0  0  0  0  0  0  0  0  0
  132.5920  125.9440   65.0310 N   0  0  0  0  0  0  0  0  0  0  0  0
  131.2540  125.7940   64.5470 C   0  0  1  0  0  0  0  0  0  0  0  0
  130.4620  125.5300   65.7080 O   0  0  0  0  0  0  0  0  0  0  0  0
  129.4260  126.4110   66.0180 C   0  0  0  0  0  0  0  0  0  0  0  0
  128.9230  126.3470   67.3180 C   0  0  0  0  0  0  0  0  0  0  0  0
  127.8590  127.1690   67.6910 C   0  0  0  0  0  0  0  0  0  0  0  0
  127.2950  128.0450   66.7630 C   0  0  0  0  0  0  0  0  0  0  0  0
  127.7970  128.1080   65.4620 C   0  0  0  0  0  0  0  0  0  0  0  0
  128.8790  127.3080   65.0810 C   0  0  0  0  0  0  0  0  0  0  0  0
  129.4680  127.2710   63.6890 C   0  0  1  0  0  0  0  0  0  0  0  0
  129.4940  128.4850   62.7830 C   0  0  0  0  0  0  0  0  0  0  0  0
  130.7610  128.1830   61.9770 C   0  0  0  0  0  0  0  0  0  0  0  0
  131.0610  128.8360   60.6880 C   0  0  0  0  0  0  0  0  0  0  0  0
  130.3200  128.5220   59.5390 C   0  0  0  0  0  0  0  0  0  0  0  0
  130.6070  129.1430   58.3260 C   0  0  0  0  0  0  0  0  0  0  0  0
  131.6350  130.0790   58.2540 C   0  0  0  0  0  0  0  0  0  0  0  0
  132.3790  130.4020   59.3850 C   0  0  0  0  0  0  0  0  0  0  0  0
  132.0930  129.7830   60.5990 C   0  0  0  0  0  0  0  0  0  0  0  0
  131.5000  127.3300   62.5810 N   0  0  0  0  0  0  0  0  0  0  0  0
  130.8690  126.9950   63.7910 N   0  0  0  0  0  0  0  0  0  0  0  0
  131.2380  124.5310   63.6980 C   0  0  0  0  0  0  0  0  0  0  0  0
  130.0970  123.8860   63.3580 C   0  0  0  0  0  0  0  0  0  0  0  0
  129.9370  122.6740   62.5320 C   0  0  0  0  0  0  0  0  0  0  0  0
  130.8220  121.5880   62.5830 C   0  0  0  0  0  0  0  0  0  0  0  0
  130.6070  120.4740   61.7700 C   0  0  0  0  0  0  0  0  0  0  0  0
  129.5060  120.4780   60.9140 C   0  0  0  0  0  0  0  0  0  0  0  0
  128.6380  121.5170   60.8370 N   0  0  0  0  0  0  0  0  0  0  0  0
  128.8630  122.5910   61.6360 C   0  0  0  0  0  0  0  0  0  0  0  0
  132.8860  124.0040   63.3290 S   0  0  0  0  0  0  0  0  0  0  0  0
  1  2  2  0
  2  3  1  0
  4  3  1  1
  4  5  1  0
  5  6  1  0
  6  7  2  0
  7  8  1  0
  8  9  2  0
  9 10  1  0
 10 11  2  0
 11 12  1  0
 12 13  1  1
 13 14  1  0
 14 15  1  0
 15 16  2  0
 16 17  1  0
 17 18  2  0
 18 19  1  0
 19 20  2  0
 14 21  2  0
 21 22  1  0
  4 23  1  0
 23 24  2  0
 24 25  1  0
 25 26  2  0
 26 27  1  0
 27 28  2  0
 28 29  1  0
 29 30  2  0
 23 31  1  0
 31  2  1  0
 22  4  1  0
 30 25  1  0
 11  6  1  0
 22 12  1  0
 20 15  1  0
M  END
>  <Binding energies>  (75) 
[-8.46]

>  <Ligand effiencies>  (75) 
[-0.264375]

>  <Interactions>  (75) 
["H-A:GLU:543:OE1:4904, V-A:GLU:543:CD:4903, V-A:ARG:545:CZ:4921, V-B:GLU:543:CG:9875, V-B:GLU:543:CB:9874, H-A:ARG:545:NH2:4923, V-B:HIS:456:CE1:9037, V-B:GLU:543:CD:9876, V-B:ALA:541:CB:9860, V-A:PRO:540:CB:4880, V-A:LEU:475:CD2:4254, V-B:TYR:539:C:9835, V-B:PRO:540:C:9849, H-A:TYR:484:OH:4343, H-B:ALA:541:N:9859, H-A:GLY:454:N:4045, H-A:ARG:545:NE:4919, H-A:ARG:545:NH1:4922"]

$$$$
RR24_Rahimova_2017
     RDKit          3D

 43 49  0  0  0  0  0  0  0  0999 V2000
  128.1680  134.0650   61.8980 C   0  0  0  0  0  0  0  0  0  0  0  0
  128.3240  132.5420   62.0260 C   0  0  2  0  0  0  0  0  0  0  0  0
  128.1750  132.0310   63.4890 C   0  0  0  0  0  0  0  0  0  0  0  0
  128.7150  132.6030   64.4420 O   0  0  0  0  0  0  0  0  0  0  0  0
  127.4220  130.8960   63.5720 O   0  0  0  0  0  0  0  0  0  0  0  0
  128.0040  129.6740   63.3240 C   0  0  0  0  0  0  0  0  0  0  0  0
  128.5450  129.4170   62.0620 C   0  0  0  0  0  0  0  0  0  0  0  0
  129.1450  128.1880   61.8020 C   0  0  0  0  0  0  0  0  0  0  0  0
  129.2140  127.2150   62.8030 C   0  0  0  0  0  0  0  0  0  0  0  0
  129.8590  125.8560   62.5050 C   0  0  1  0  0  0  0  0  0  0  0  0
  129.8860  125.5500   60.9890 C   0  0  0  0  0  0  0  0  0  0  0  0
  131.0030  125.1700   60.3430 C   0  0  0  0  0  0  0  0  0  0  0  0
  132.2090  125.0270   60.9850 N   0  0  0  0  0  0  0  0  0  0  0  0
  132.3330  125.2700   62.3330 C   0  0  0  0  0  0  0  0  0  0  0  0
  133.5870  125.0750   62.8160 N   0  0  0  0  0  0  0  0  0  0  0  0
  133.9180  125.3400   64.1090 C   0  0  0  0  0  0  0  0  0  0  0  0
  135.1070  125.4540   64.4150 O   0  0  0  0  0  0  0  0  0  0  0  0
  132.8330  125.6220   64.9240 N   0  0  0  0  0  0  0  0  0  0  0  0
  133.1280  125.8280   66.3570 C   0  0  0  0  0  0  0  0  0  0  0  0
  131.5220  125.8420   64.5390 C   0  0  0  0  0  0  0  0  0  0  0  0
  130.6120  126.1420   65.3180 O   0  0  0  0  0  0  0  0  0  0  0  0
  131.2850  125.6660   63.1030 C   0  0  0  0  0  0  0  0  0  0  0  0
  130.7360  124.9510   58.9310 C   0  0  0  0  0  0  0  0  0  0  0  0
  131.5400  124.5620   57.8590 C   0  0  0  0  0  0  0  0  0  0  0  0
  130.9700  124.4390   56.5890 C   0  0  0  0  0  0  0  0  0  0  0  0
  129.6100  124.7000   56.3990 C   0  0  0  0  0  0  0  0  0  0  0  0
  128.8100  125.0890   57.4770 C   0  0  0  0  0  0  0  0  0  0  0  0
  129.3850  125.2120   58.7430 C   0  0  0  0  0  0  0  0  0  0  0  0
  128.7820  125.5970   60.0360 C   0  0  0  0  0  0  0  0  0  0  0  0
  127.6200  125.8990   60.3040 O   0  0  0  0  0  0  0  0  0  0  0  0
  128.6880  127.4820   64.0720 C   0  0  0  0  0  0  0  0  0  0  0  0
  128.0900  128.7110   64.3330 C   0  0  0  0  0  0  0  0  0  0  0  0
  129.5740  132.0500   61.3760 N   0  0  0  0  0  0  0  0  0  0  0  0
  130.7800  132.1180   62.0070 C   0  0  0  0  0  0  0  0  0  0  0  0
  131.0130  132.5720   63.1290 O   0  0  0  0  0  0  0  0  0  0  0  0
  131.7570  131.5290   61.0570 C   0  0  0  0  0  0  0  0  0  0  0  0
  133.1350  131.3390   61.1640 C   0  0  0  0  0  0  0  0  0  0  0  0
  133.8140  130.7450   60.0940 C   0  0  0  0  0  0  0  0  0  0  0  0
  133.1160  130.3520   58.9460 C   0  0  0  0  0  0  0  0  0  0  0  0
  131.7330  130.5510   58.8570 C   0  0  0  0  0  0  0  0  0  0  0  0
  131.0740  131.1460   59.9340 C   0  0  0  0  0  0  0  0  0  0  0  0
  129.6420  131.4790   60.1340 C   0  0  0  0  0  0  0  0  0  0  0  0
  128.7140  131.2790   59.3510 O   0  0  0  0  0  0  0  0  0  0  0  0
  2  1  1  1
  2  3  1  0
  3  4  2  0
  3  5  1  0
  5  6  1  0
  6  7  2  0
  7  8  1  0
  8  9  2  0
 10  9  1  6
 10 11  1  0
 11 12  2  0
 12 13  1  0
 13 14  1  0
 14 15  1  0
 15 16  1  0
 16 17  2  0
 16 18  1  0
 18 19  1  0
 18 20  1  0
 20 21  2  0
 20 22  1  0
 12 23  1  0
 23 24  2  0
 24 25  1  0
 25 26  2  0
 26 27  1  0
 27 28  2  0
 28 29  1  0
 29 30  2  0
  9 31  1  0
 31 32  2  0
  2 33  1  0
 33 34  1  0
 34 35  2  0
 34 36  1  0
 36 37  2  0
 37 38  1  0
 38 39  2  0
 39 40  1  0
 40 41  2  0
 41 42  1  0
 42 43  2  0
 32  6  1  0
 42 33  1  0
 22 10  1  0
 28 23  1  0
 41 36  1  0
 29 11  1  0
 22 14  2  0
M  END
>  <Binding energies>  (76) 
[-9.13]

>  <Ligand effiencies>  (76) 
[-0.2028888888888889]

>  <Interactions>  (76) 
["V-A:GLU:543:CD:4903, V-A:ASP:366:CG:3208, V-B:TYR:539:CZ:9845, V-A:HIS:456:CE1:4064, V-A:ARG:545:CZ:4921, H-A:ARG:545:NH2:4923, V-B:GLU:543:CD:9876, V-B:TYR:539:CE2:9844, H-A:ALA:541:N:4886, V-A:PRO:540:CA:4878, V-A:PRO:540:CB:4880, V-A:PRO:540:C:4876, V-A:GLU:543:CG:4902, H-B:TYR:484:OH:9315, V-A:LEU:363:CA:3180, V-A:GLY:453:CA:4039, V-A:ARG:545:CD:4918, H-A:GLY:454:N:4045, V-A:HIS:456:CD2:4063, V-A:ARG:545:CG:4917, H-A:ASP:366:OD2:3210, H-A:ARG:545:NE:4919, V-A:ALA:541:CB:4887, H-A:ARG:545:NH1:4922, V-A:ASN:362:CB:3171, V-A:ASN:362:C:3167, H-A:ASP:366:OD1:3209, V-A:TYR:531:CE1:4787, V-A:ALA:541:CA:4885"]

$$$$
RR25_Rahimova_2017
     RDKit          3D

 39 44  0  0  0  0  0  0  0  0999 V2000
  125.9470  127.4120   65.3960 O   0  0  0  0  0  0  0  0  0  0  0  0
  126.8070  127.3900   66.2780 C   0  0  0  0  0  0  0  0  0  0  0  0
  126.3750  127.6550   67.5540 O   0  0  0  0  0  0  0  0  0  0  0  0
  127.1800  127.4180   68.6520 C   0  0  0  0  0  0  0  0  0  0  0  0
  126.5340  127.1770   69.8640 C   0  0  0  0  0  0  0  0  0  0  0  0
  127.2850  126.9390   71.0130 C   0  0  0  0  0  0  0  0  0  0  0  0
  128.6870  126.9440   70.9700 C   0  0  0  0  0  0  0  0  0  0  0  0
  129.4840  126.6830   72.1940 N   0  0  0  0  0  0  0  0  0  0  0  0
  130.1460  127.6010   72.6710 O   0  0  0  0  0  0  0  0  0  0  0  0
  129.4530  125.5590   72.6860 O   0  0  0  0  0  0  0  0  0  0  0  0
  129.3180  127.2020   69.7430 C   0  0  0  0  0  0  0  0  0  0  0  0
  128.5800  127.4500   68.5820 C   0  0  0  0  0  0  0  0  0  0  0  0
  129.2150  127.7220   67.2300 C   0  0  0  0  0  0  0  0  0  0  0  0
  128.3300  127.1170   66.1040 C   0  0  2  0  0  0  0  0  0  0  0  0
  128.8990  127.4620   64.6970 C   0  0  0  0  0  0  0  0  0  0  0  0
  129.4100  126.5270   64.0750 O   0  0  0  0  0  0  0  0  0  0  0  0
  128.7310  128.6930   64.1270 N   0  0  0  0  0  0  0  0  0  0  0  0
  128.4210  129.9050   64.9140 C   0  0  0  0  0  0  0  0  0  0  0  0
  127.4550  130.7960   64.1040 C   0  0  0  0  0  0  0  0  0  0  0  0
  127.9970  131.1030   62.7770 N   0  0  0  0  0  0  0  0  0  0  0  0
  127.1440  132.0570   62.0560 C   0  0  0  0  0  0  0  0  0  0  0  0
  127.9470  132.9850   61.1060 C   0  0  0  0  0  0  0  0  0  0  0  0
  129.1460  132.3800   60.4570 N   0  0  0  0  0  0  0  0  0  0  0  0
  128.9970  132.0620   59.1230 C   0  0  0  0  0  0  0  0  0  0  0  0
  127.9390  132.2270   58.5030 O   0  0  0  0  0  0  0  0  0  0  0  0
  130.2440  131.5090   58.4620 C   0  0  0  0  0  0  0  0  0  0  0  0
  130.2110  131.1770   57.1010 C   0  0  0  0  0  0  0  0  0  0  0  0
  131.3420  130.6730   56.4590 C   0  0  0  0  0  0  0  0  0  0  0  0
  132.5370  130.4890   57.1520 C   0  0  0  0  0  0  0  0  0  0  0  0
  132.6170  130.8100   58.5290 C   0  0  0  0  0  0  0  0  0  0  0  0
  133.7980  130.6500   59.2920 C   0  0  0  0  0  0  0  0  0  0  0  0
  133.8090  130.9890   60.6430 C   0  0  0  0  0  0  0  0  0  0  0  0
  132.6670  131.4880   61.2660 C   0  0  0  0  0  0  0  0  0  0  0  0
  131.4750  131.6640   60.5500 C   0  0  0  0  0  0  0  0  0  0  0  0
  131.4560  131.3220   59.1740 C   0  0  0  0  0  0  0  0  0  0  0  0
  130.2550  132.2180   61.2610 C   0  0  0  0  0  0  0  0  0  0  0  0
  130.2740  132.5130   62.4610 O   0  0  0  0  0  0  0  0  0  0  0  0
  128.1850  129.8650   62.0180 C   0  0  0  0  0  0  0  0  0  0  0  0
  129.1690  128.9040   62.7280 C   0  0  0  0  0  0  0  0  0  0  0  0
  1  2  2  0
  2  3  1  0
  3  4  1  0
  4  5  2  0
  5  6  1  0
  6  7  2  0
  7  8  1  0
  8  9  2  0
  8 10  1  0
  7 11  1  0
 11 12  2  0
 12 13  1  0
 13 14  1  0
 14 15  1  6
 15 16  2  0
 15 17  1  0
 17 18  1  0
 18 19  1  0
 19 20  1  0
 20 21  1  0
 21 22  1  0
 22 23  1  0
 23 24  1  0
 24 25  2  0
 24 26  1  0
 26 27  2  0
 27 28  1  0
 28 29  2  0
 29 30  1  0
 30 31  2  0
 31 32  1  0
 32 33  2  0
 33 34  1  0
 34 35  2  0
 34 36  1  0
 36 37  2  0
 20 38  1  0
 38 39  1  0
 14  2  1  0
 39 17  1  0
 12  4  1  0
 36 23  1  0
 35 26  1  0
 35 30  1  0
M  CHG  2   8   1  10  -1
M  END
>  <Binding energies>  (77) 
[-9.88]

>  <Ligand effiencies>  (77) 
[-0.25333333333333335]

>  <Interactions>  (77) 
["V-A:GLU:543:CD:4903, V-A:HIS:456:CE1:4064, V-B:GLU:543:CG:9875, V-B:HIS:456:CD2:9035, V-B:GLU:543:CB:9874, V-B:HIS:456:CE1:9037, V-B:GLU:543:CD:9876, H-A:ALA:541:N:4886, V-A:PRO:540:CA:4878, V-A:PRO:540:CB:4880, V-A:PRO:540:C:4876, V-A:GLU:543:CG:4902, H-B:LYS:547:NZ:9919, V-B:GLY:544:C:9880, V-B:GLU:543:C:9870, V-A:TYR:531:CZ:4789, V-A:TYR:531:CE2:4788, V-A:LEU:363:CA:3180, V-A:LEU:363:CD1:3184, H-B:ARG:545:NE:9892, H-B:ARG:545:NH2:9896, V-A:ASN:362:CB:3171, V-B:GLY:544:CA:9882, V-A:ASN:362:C:3167, V-A:LEU:363:CB:3182, V-B:ARG:545:CA:9887"]

$$$$
RR27_Rahimova_2017
     RDKit          3D

 39 44  0  0  0  0  0  0  0  0999 V2000
  129.0900  128.3450   57.9910 O   0  0  0  0  0  0  0  0  0  0  0  0
  129.1270  129.0860   58.9780 C   0  0  0  0  0  0  0  0  0  0  0  0
  129.7920  130.4850   58.8260 C   0  0  0  0  0  0  0  0  0  0  0  0
  131.2880  130.4860   59.1890 C   0  0  0  0  0  0  0  0  0  0  0  0
  132.2880  130.4160   58.2070 C   0  0  0  0  0  0  0  0  0  0  0  0
  133.6320  130.4210   58.5700 C   0  0  0  0  0  0  0  0  0  0  0  0
  133.9830  130.4950   59.9150 C   0  0  0  0  0  0  0  0  0  0  0  0
  133.0020  130.5620   60.9000 C   0  0  0  0  0  0  0  0  0  0  0  0
  131.6580  130.5570   60.5370 C   0  0  0  0  0  0  0  0  0  0  0  0
  128.9590  131.5900   59.5040 C   0  0  0  0  0  0  0  0  0  0  0  0
  129.5510  132.5610   60.3230 C   0  0  0  0  0  0  0  0  0  0  0  0
  128.7670  133.5400   60.9300 C   0  0  0  0  0  0  0  0  0  0  0  0
  127.3900  133.5470   60.7250 C   0  0  0  0  0  0  0  0  0  0  0  0
  126.7870  132.5810   59.9230 C   0  0  0  0  0  0  0  0  0  0  0  0
  127.5710  131.6040   59.3180 C   0  0  0  0  0  0  0  0  0  0  0  0
  128.4740  128.7710   60.1330 N   0  0  0  0  0  0  0  0  0  0  0  0
  128.6890  129.4780   61.4040 C   0  0  0  0  0  0  0  0  0  0  0  0
  129.8760  128.7840   62.1080 C   0  0  0  0  0  0  0  0  0  0  0  0
  129.6570  127.2480   62.2870 C   0  0  0  0  0  0  0  0  0  0  0  0
  130.8580  126.4900   62.8820 C   0  0  0  0  0  0  0  0  0  0  0  0
  131.1100  126.6960   64.2080 N   0  0  0  0  0  0  0  0  0  0  0  0
  132.1450  126.0280   64.7900 C   0  0  0  0  0  0  0  0  0  0  0  0
  132.4930  126.1490   66.1090 O   0  0  0  0  0  0  0  0  0  0  0  0
  132.9140  125.1530   63.9990 C   0  0  0  0  0  0  0  0  0  0  0  0
  133.9840  124.3480   64.2550 N   0  0  0  0  0  0  0  0  0  0  0  0
  134.3200  123.7200   63.0710 N   0  0  0  0  0  0  0  0  0  0  0  0
  133.4670  124.1250   62.1060 N   0  0  0  0  0  0  0  0  0  0  0  0
  133.6070  123.6330   60.7380 C   0  0  0  0  0  0  0  0  0  0  0  0
  132.3430  122.9880   60.1860 C   0  0  0  0  0  0  0  0  0  0  0  0
  131.6110  123.6230   59.1780 C   0  0  0  0  0  0  0  0  0  0  0  0
  130.4590  123.0260   58.6640 C   0  0  0  0  0  0  0  0  0  0  0  0
  130.0360  121.7900   59.1520 C   0  0  0  0  0  0  0  0  0  0  0  0
  130.7670  121.1460   60.1510 C   0  0  0  0  0  0  0  0  0  0  0  0
  130.2600  119.6030   60.7370 Cl  0  0  0  0  0  0  0  0  0  0  0  0
  131.9150  121.7460   60.6700 C   0  0  0  0  0  0  0  0  0  0  0  0
  132.5640  125.0310   62.6370 C   0  0  0  0  0  0  0  0  0  0  0  0
  131.5600  125.6790   62.0400 N   0  0  0  0  0  0  0  0  0  0  0  0
  129.0860  126.5870   60.9950 C   0  0  0  0  0  0  0  0  0  0  0  0
  127.9500  127.4110   60.3390 C   0  0  0  0  0  0  0  0  0  0  0  0
  1  2  2  0
  2  3  1  0
  3  4  1  0
  4  5  2  0
  5  6  1  0
  6  7  2  0
  7  8  1  0
  8  9  2  0
  3 10  1  0
 10 11  2  0
 11 12  1  0
 12 13  2  0
 13 14  1  0
 14 15  2  0
  2 16  1  0
 16 17  1  0
 17 18  1  0
 18 19  1  0
 19 20  1  0
 20 21  2  0
 21 22  1  0
 22 23  1  0
 22 24  2  0
 24 25  1  0
 25 26  2  0
 26 27  1  0
 27 28  1  0
 28 29  1  0
 29 30  2  0
 30 31  1  0
 31 32  2  0
 32 33  1  0
 33 34  1  0
 33 35  2  0
 27 36  1  0
 36 37  2  0
 19 38  1  0
 38 39  1  0
  9  4  1  0
 15 10  1  0
 39 16  1  0
 37 20  1  0
 36 24  1  0
 35 29  1  0
M  END
>  <Binding energies>  (78) 
[-9.51]

>  <Ligand effiencies>  (78) 
[-0.23775]

>  <Interactions>  (78) 
["H-A:GLU:543:OE1:4904, V-A:GLU:543:CD:4903, V-A:ASP:366:CG:3208, V-A:ARG:545:CZ:4921, V-A:ILE:369:CD1:3234, V-B:TYR:539:CE2:9844, V-B:ALA:541:CB:9860, V-A:TYR:539:C:4862, V-A:PRO:540:CA:4878, V-B:TYR:539:CD2:9842, V-A:PRO:540:N:4879, V-A:TRP:381:CH2:3367, V-A:PRO:540:CB:4880, V-A:PRO:540:C:4876, V-A:TYR:539:CZ:4872, V-A:LEU:475:CD2:4254, V-A:TYR:539:CD2:4869, V-A:TYR:539:CE2:4871, H-A:HIS:456:NE2:4065, H-A:TYR:484:OH:4343, V-A:TYR:531:CE2:4788, V-A:LEU:363:CA:3180, H-A:GLY:454:N:4045, V-A:LEU:363:CD1:3184, H-A:ARG:545:NE:4919, V-A:ASN:362:CB:3171, V-A:ASN:362:C:3167"]

$$$$
RR28_Rahimova_2017
     RDKit          3D

 46 49  0  0  0  0  0  0  0  0999 V2000
  127.3780  127.3000   57.1590 C   0  0  0  0  0  0  0  0  0  0  0  0
  127.1040  126.6020   58.4860 C   0  0  0  0  0  0  0  0  0  0  0  0
  126.1760  125.8000   58.5700 O   0  0  0  0  0  0  0  0  0  0  0  0
  127.9230  126.9200   59.5090 N   0  0  0  0  0  0  0  0  0  0  0  0
  127.8920  126.4130   60.8990 C   0  0  0  0  0  0  0  0  0  0  0  0
  128.3840  124.9370   60.8890 C   0  0  0  0  0  0  0  0  0  0  0  0
  129.7300  124.6580   61.1690 C   0  0  0  0  0  0  0  0  0  0  0  0
  130.2060  123.3510   61.1650 C   0  0  0  0  0  0  0  0  0  0  0  0
  129.3450  122.2900   60.8790 C   0  0  0  0  0  0  0  0  0  0  0  0
  129.8860  120.8610   60.8750 C   0  0  0  0  0  0  0  0  0  0  0  0
  128.9130  119.9500   60.9360 F   0  0  0  0  0  0  0  0  0  0  0  0
  130.5910  120.6360   59.7650 F   0  0  0  0  0  0  0  0  0  0  0  0
  130.6830  120.6900   61.9300 F   0  0  0  0  0  0  0  0  0  0  0  0
  128.0020  122.5540   60.5970 C   0  0  0  0  0  0  0  0  0  0  0  0
  127.5270  123.8630   60.6010 C   0  0  0  0  0  0  0  0  0  0  0  0
  126.4620  126.5990   61.5210 C   0  0  0  0  0  0  0  0  0  0  0  0
  126.0590  128.0840   61.7000 C   0  0  0  0  0  0  0  0  0  0  0  0
  127.0780  128.6900   62.5730 N   0  0  0  0  0  0  0  0  0  0  0  0
  126.8820  128.7510   63.9190 C   0  0  0  0  0  0  0  0  0  0  0  0
  125.7990  128.4670   64.4360 O   0  0  0  0  0  0  0  0  0  0  0  0
  127.9960  129.3510   64.8100 C   0  0  0  0  0  0  0  0  0  0  0  0
  128.6380  128.3810   65.8390 C   0  0  0  0  0  0  0  0  0  0  0  0
  127.7140  127.9560   67.0050 C   0  0  0  0  0  0  0  0  0  0  0  0
  126.5230  128.2720   66.9440 O   0  0  0  0  0  0  0  0  0  0  0  0
  128.1950  127.1400   67.9860 N   0  0  0  0  0  0  0  0  0  0  0  0
  129.6250  126.9940   68.2850 C   0  0  0  0  0  0  0  0  0  0  0  0
  129.9920  128.1400   69.2540 C   0  0  0  0  0  0  0  0  0  0  0  0
  129.1400  128.1840   70.5700 C   0  0  0  0  0  0  0  0  0  0  0  0
  129.2940  129.5100   71.2040 N   0  0  0  0  0  0  0  0  0  0  0  0
  128.8380  129.9160   72.4060 C   0  0  0  0  0  0  0  0  0  0  0  0
  129.1370  131.3620   72.7880 C   0  0  0  0  0  0  0  0  0  0  0  0
  128.2100  129.1990   73.1830 O   0  0  0  0  0  0  0  0  0  0  0  0
  129.7360  127.1220   71.5500 C   0  0  0  0  0  0  0  0  0  0  0  0
  130.6450  127.4520   72.5690 C   0  0  0  0  0  0  0  0  0  0  0  0
  131.1520  126.4750   73.4220 C   0  0  0  0  0  0  0  0  0  0  0  0
  130.7670  125.1410   73.2750 C   0  0  0  0  0  0  0  0  0  0  0  0
  131.3120  124.0570   74.2050 C   0  0  0  0  0  0  0  0  0  0  0  0
  131.4900  122.9140   73.5410 F   0  0  0  0  0  0  0  0  0  0  0  0
  132.4860  124.4530   74.6950 F   0  0  0  0  0  0  0  0  0  0  0  0
  130.4910  123.8140   75.2290 F   0  0  0  0  0  0  0  0  0  0  0  0
  129.8710  124.7950   72.2610 C   0  0  0  0  0  0  0  0  0  0  0  0
  129.3660  125.7740   71.4110 C   0  0  0  0  0  0  0  0  0  0  0  0
  127.6260  127.9170   70.2120 C   0  0  0  0  0  0  0  0  0  0  0  0
  127.3610  126.8170   69.1500 C   0  0  0  0  0  0  0  0  0  0  0  0
  128.4150  128.7340   61.9640 C   0  0  0  0  0  0  0  0  0  0  0  0
  128.8740  127.2660   61.7680 C   0  0  0  0  0  0  0  0  0  0  0  0
  1  2  1  0
  2  3  2  0
  2  4  1  0
  4  5  1  0
  5  6  1  0
  6  7  2  0
  7  8  1  0
  8  9  2  0
  9 10  1  0
 10 11  1  0
 10 12  1  0
 10 13  1  0
  9 14  1  0
 14 15  2  0
  5 16  1  0
 16 17  1  0
 17 18  1  0
 18 19  1  0
 19 20  2  0
 19 21  1  0
 21 22  1  0
 22 23  1  0
 23 24  2  0
 23 25  1  0
 25 26  1  0
 26 27  1  0
 27 28  1  0
 28 29  1  0
 29 30  1  0
 30 31  1  0
 30 32  2  0
 28 33  1  0
 33 34  2  0
 34 35  1  0
 35 36  2  0
 36 37  1  0
 37 38  1  0
 37 39  1  0
 37 40  1  0
 36 41  1  0
 41 42  2  0
 28 43  1  0
 43 44  1  0
 18 45  1  0
 45 46  1  0
 46  5  1  0
 15  6  1  0
 44 25  1  0
 42 33  1  0
M  END
>  <Binding energies>  (79) 
[-6.91]

>  <Ligand effiencies>  (79) 
[-0.14395833333333333]

>  <Interactions>  (79) 
["V-A:GLU:543:CD:4903, V-A:HIS:456:CE1:4064, V-B:HIS:456:CD2:9035, V-B:GLU:543:CB:9874, V-B:HIS:456:CE1:9037, V-B:GLU:543:CD:9876, V-B:TYR:539:CE2:9844, V-B:ALA:541:CB:9860, V-B:TYR:539:CD2:9842, V-A:LEU:475:CD2:4254, V-B:TYR:539:C:9835, V-B:ASP:366:CG:8180, V-A:GLU:543:CG:4902, H-B:HIS:456:NE2:9038, H-B:LYS:547:NZ:9919, V-B:GLU:543:C:9870, V-B:PRO:540:CA:9851, V-B:PRO:540:C:9849, V-B:ALA:541:CA:9858, V-A:LYS:547:CE:4945, H-A:GLU:543:O:4898, V-B:LYS:547:CE:9918, V-A:HIS:456:CG:4061, V-A:HIS:456:CB:4060, V-B:HIS:456:CG:9033, H-B:ARG:545:NE:9892, H-B:ARG:545:NH2:9896"]

$$$$
RR29_Rahimova_2017
     RDKit          3D

 18 19  0  0  0  0  0  0  0  0999 V2000
  129.8580  124.3930   68.4020 C   0  0  0  0  0  0  0  0  0  0  0  0
  130.2600  125.5100   67.4500 C   0  0  0  0  0  0  0  0  0  0  0  0
  129.7180  126.8920   67.8790 C   0  0  0  0  0  0  0  0  0  0  0  0
  128.5670  126.7620   68.8980 C   0  0  0  0  0  0  0  0  0  0  0  0
  128.8250  127.5640   70.1650 C   0  0  0  0  0  0  0  0  0  0  0  0
  130.1080  128.0900   70.4150 C   0  0  0  0  0  0  0  0  0  0  0  0
  130.3670  128.8340   71.5760 C   0  0  0  0  0  0  0  0  0  0  0  0
  129.3170  129.0190   72.4680 C   0  0  0  0  0  0  0  0  0  0  0  0
  128.0710  128.5090   72.2310 C   0  0  0  0  0  0  0  0  0  0  0  0
  127.7830  127.7770   71.0840 C   0  0  0  0  0  0  0  0  0  0  0  0
  127.2390  128.8690   73.2430 O   0  0  0  0  0  0  0  0  0  0  0  0
  128.0610  129.4390   74.2260 C   0  0  0  0  0  0  0  0  0  0  0  0
  129.3040  129.7150   73.6350 O   0  0  0  0  0  0  0  0  0  0  0  0
  130.9680  125.2160   66.4230 N   0  0  0  0  0  0  0  0  0  0  0  0
  131.2610  126.2100   65.5150 N   0  0  0  0  0  0  0  0  0  0  0  0
  130.6700  126.3300   64.3150 C   0  0  0  0  0  0  0  0  0  0  0  0
  129.7150  125.5220   63.8520 N   0  0  0  0  0  0  0  0  0  0  0  0
  131.0610  127.3230   63.5310 N   0  0  0  0  0  0  0  0  0  0  0  0
  1  2  1  0
  2  3  1  0
  3  4  1  0
  4  5  1  0
  5  6  2  0
  6  7  1  0
  7  8  2  0
  8  9  1  0
  9 10  2  0
  9 11  1  0
 11 12  1  0
 12 13  1  0
  2 14  2  0
 14 15  1  0
 15 16  1  0
 16 17  1  0
 16 18  2  0
 10  5  1  0
 13  8  1  0
M  CHG  1  18   1
M  END
>  <Binding energies>  (80) 
[-7.27]

>  <Ligand effiencies>  (80) 
[-0.3160869565217391]

>  <Interactions>  (80) 
["H-A:GLU:543:OE1:4904, V-A:GLU:543:CD:4903, V-A:HIS:456:CE1:4064, V-B:GLU:543:CG:9875, V-B:HIS:456:CD2:9035, H-A:GLU:543:OE2:4905, V-B:GLU:543:CB:9874, V-B:HIS:456:CE1:9037, V-B:GLU:543:CD:9876, H-B:LYS:547:NZ:9919, V-B:GLU:543:C:9870, H-A:HIS:456:NE2:4065, H-A:TYR:484:OH:4343, H-B:GLU:543:OE2:9878, V-A:TYR:484:CZ:4342, V-B:GLU:543:CA:9872, H-A:LYS:547:NZ:4946, V-A:TYR:484:CE1:4340, V-A:GLY:544:C:4907"]

$$$$
RR30_Rahimova_2017
     RDKit          3D

 18 19  0  0  0  0  0  0  0  0999 V2000
  133.2390  122.8060   60.7030 C   0  0  0  0  0  0  0  0  0  0  0  0
  133.1780  124.2960   61.0670 C   0  0  0  0  0  0  0  0  0  0  0  0
  133.3130  124.5290   62.5560 C   0  0  0  0  0  0  0  0  0  0  0  0
  134.3830  124.4040   63.3010 N   0  0  0  0  0  0  0  0  0  0  0  0
  133.9840  124.7200   64.5970 N   0  0  0  0  0  0  0  0  0  0  0  0
  132.7070  124.9980   64.5250 C   0  0  0  0  0  0  0  0  0  0  0  0
  131.6370  125.4850   65.8400 S   0  0  0  0  0  0  0  0  0  0  0  0
  130.0280  125.0360   65.1160 C   0  0  0  0  0  0  0  0  0  0  0  0
  130.0640  123.6660   64.4310 C   0  0  0  0  0  0  0  0  0  0  0  0
  130.5960  122.7170   65.0110 O   0  0  0  0  0  0  0  0  0  0  0  0
  129.5230  123.6100   63.1940 N   0  0  0  0  0  0  0  0  0  0  0  0
  129.4410  122.4890   62.3810 C   0  0  0  0  0  0  0  0  0  0  0  0
  128.4790  122.1530   61.5520 N   0  0  0  0  0  0  0  0  0  0  0  0
  128.7380  120.9550   60.8990 N   0  0  0  0  0  0  0  0  0  0  0  0
  129.8830  120.4110   61.2440 C   0  0  0  0  0  0  0  0  0  0  0  0
  130.3830  119.1040   60.6730 C   0  0  0  0  0  0  0  0  0  0  0  0
  130.7540  121.3530   62.4230 S   0  0  0  0  0  0  0  0  0  0  0  0
  132.2170  124.9020   63.2630 O   0  0  0  0  0  0  0  0  0  0  0  0
  1  2  1  0
  2  3  1  0
  3  4  2  0
  4  5  1  0
  5  6  2  0
  6  7  1  0
  7  8  1  0
  8  9  1  0
  9 10  2  0
  9 11  1  0
 11 12  1  0
 12 13  2  0
 13 14  1  0
 14 15  2  0
 15 16  1  0
 15 17  1  0
  6 18  1  0
 18  3  1  0
 17 12  1  0
M  END
>  <Binding energies>  (81) 
[-6.57]

>  <Ligand effiencies>  (81) 
[-0.34578947368421054]

>  <Interactions>  (81) 
["V-A:ASP:366:CG:3208, V-B:GLU:543:CG:9875, V-A:ILE:369:CD1:3234, V-B:GLU:543:CD:9876, V-B:ALA:541:CB:9860, V-A:TRP:381:CZ2:3365, V-B:TYR:539:CD2:9842, V-A:TRP:381:CH2:3367, V-A:LEU:475:CD2:4254, H-A:HIS:456:NE2:4065, H-A:TYR:484:OH:4343, H-B:ALA:541:N:9859, H-B:GLU:543:OE2:9878, H-A:GLY:454:N:4045, V-A:ASP:366:CB:3207"]

$$$$
RR31_Rahimova_2017
     RDKit          3D

 18 19  0  0  0  0  0  0  0  0999 V2000
  128.2190  128.2820   72.1340 C   0  0  0  0  0  0  0  0  0  0  0  0
  128.5340  127.9520   70.6820 C   0  0  0  0  0  0  0  0  0  0  0  0
  127.5450  127.3750   69.8850 C   0  0  0  0  0  0  0  0  0  0  0  0
  127.8010  127.0640   68.5510 C   0  0  0  0  0  0  0  0  0  0  0  0
  129.0520  127.3290   67.9710 C   0  0  0  0  0  0  0  0  0  0  0  0
  129.3270  127.0140   66.6380 N   0  0  0  0  0  0  0  0  0  0  0  0
  129.1010  127.9780   65.5440 C   0  0  0  0  0  0  0  0  0  0  0  0
  129.0640  127.3380   64.1360 C   0  0  0  0  0  0  0  0  0  0  0  0
  130.2890  126.5780   63.8750 N   0  0  0  0  0  0  0  0  0  0  0  0
  130.2980  125.9870   62.5320 C   0  0  0  0  0  0  0  0  0  0  0  0
  129.6260  126.8850   61.4740 C   0  0  0  0  0  0  0  0  0  0  0  0
  130.6170  127.8690   60.8310 C   0  0  0  0  0  0  0  0  0  0  0  0
  131.7230  128.2270   61.8290 N   0  0  0  0  0  0  0  0  0  0  0  0
  130.3690  125.5180   64.8790 C   0  0  0  0  0  0  0  0  0  0  0  0
  130.4500  126.1160   66.3020 C   0  0  0  0  0  0  0  0  0  0  0  0
  130.0400  127.9010   68.7850 C   0  0  0  0  0  0  0  0  0  0  0  0
  129.7960  128.2170   70.1270 C   0  0  0  0  0  0  0  0  0  0  0  0
  130.9130  128.8340   70.9600 C   0  0  0  0  0  0  0  0  0  0  0  0
  1  2  1  0
  2  3  2  0
  3  4  1  0
  4  5  2  0
  5  6  1  0
  6  7  1  0
  7  8  1  0
  8  9  1  0
  9 10  1  0
 10 11  1  0
 11 12  1  0
 12 13  1  0
  9 14  1  0
 14 15  1  0
  5 16  1  0
 16 17  2  0
 17 18  1  0
 17  2  1  0
 15  6  1  0
M  CHG  1  13   1
M  END
>  <Binding energies>  (82) 
[-5.42]

>  <Ligand effiencies>  (82) 
[-0.2580952380952381]

>  <Interactions>  (82) 
["H-A:GLU:543:OE1:4904, V-A:GLU:543:CD:4903, V-A:ASP:366:CG:3208, V-A:HIS:456:CE1:4064, V-A:GLU:543:CB:4901, V-B:GLU:543:CG:9875, V-B:HIS:456:CD2:9035, H-A:GLU:543:OE2:4905, V-B:GLU:543:CB:9874, V-B:HIS:456:CE1:9037, V-B:GLU:543:CD:9876, V-A:GLU:543:CG:4902, V-B:GLU:543:C:9870, V-A:GLY:544:CA:4909, V-A:GLU:543:C:4897, H-A:ASP:366:OD2:3210, V-A:GLY:544:C:4907, H-A:ASP:366:OD1:3209"]

$$$$
RR32_Rahimova_2017
     RDKit          3D

 18 20  0  0  0  0  0  0  0  0999 V2000
  134.3840  124.8180   63.1440 C   0  0  0  0  0  0  0  0  0  0  0  0
  133.0160  124.3740   63.6500 C   0  0  0  0  0  0  0  0  0  0  0  0
  132.4420  125.0820   64.7080 C   0  0  0  0  0  0  0  0  0  0  0  0
  131.1930  124.7070   65.1940 C   0  0  0  0  0  0  0  0  0  0  0  0
  130.6280  125.4110   66.2430 N   0  0  0  0  0  0  0  0  0  0  0  0
  129.8140  126.5920   65.9030 C   0  0  0  0  0  0  0  0  0  0  0  0
  129.3790  127.4110   67.1410 C   0  0  0  0  0  0  0  0  0  0  0  0
  128.6170  126.5690   68.0630 N   0  0  0  0  0  0  0  0  0  0  0  0
  128.1800  127.3500   69.2150 C   0  0  0  0  0  0  0  0  0  0  0  0
  129.4830  125.4730   68.4920 C   0  0  0  0  0  0  0  0  0  0  0  0
  129.9220  124.6260   67.2740 C   0  0  0  0  0  0  0  0  0  0  0  0
  130.4910  123.6640   64.6820 N   0  0  0  0  0  0  0  0  0  0  0  0
  131.0250  122.9530   63.6520 C   0  0  0  0  0  0  0  0  0  0  0  0
  130.2720  121.8690   63.1390 C   0  0  0  0  0  0  0  0  0  0  0  0
  130.7680  121.1070   62.0870 C   0  0  0  0  0  0  0  0  0  0  0  0
  132.0050  121.4000   61.5270 C   0  0  0  0  0  0  0  0  0  0  0  0
  132.7710  122.4580   62.0070 C   0  0  0  0  0  0  0  0  0  0  0  0
  132.3030  123.2660   63.0850 C   0  0  0  0  0  0  0  0  0  0  0  0
  1  2  1  0
  2  3  2  0
  3  4  1  0
  4  5  1  0
  5  6  1  0
  6  7  1  0
  7  8  1  0
  8  9  1  0
  8 10  1  0
 10 11  1  0
  4 12  2  0
 12 13  1  0
 13 14  2  0
 14 15  1  0
 15 16  2  0
 16 17  1  0
 17 18  2  0
 18  2  1  0
 11  5  1  0
 18 13  1  0
M  END
>  <Binding energies>  (83) 
[-5.31]

>  <Ligand effiencies>  (83) 
[-0.295]

>  <Interactions>  (83) 
["V-A:ASP:366:CG:3208, V-A:HIS:456:CE1:4064, V-A:ARG:545:CZ:4921, V-B:GLU:543:CG:9875, V-B:GLU:543:CB:9874, V-B:HIS:456:CE1:9037, V-B:ALA:541:CB:9860, V-A:LEU:475:CD2:4254, V-B:GLU:543:C:9870, H-A:TYR:484:OH:4343, V-A:GLY:453:C:4037, V-A:TYR:484:CZ:4342, V-A:GLY:453:CA:4039, V-B:GLU:543:CA:9872, V-A:TYR:484:CE1:4340"]

$$$$
RR5_Rahimova_2017
     RDKit          3D

 45 50  0  0  0  0  0  0  0  0999 V2000
  131.9060  124.5780   61.2580 O   0  0  0  0  0  0  0  0  0  0  0  0
  130.6930  124.4890   61.4460 C   0  0  0  0  0  0  0  0  0  0  0  0
  130.0370  125.2940   62.5840 C   0  0  0  0  0  0  0  0  0  0  0  0
  130.9480  126.4290   63.1720 C   0  0  2  0  0  0  0  0  0  0  0  0
  130.8950  126.5720   64.6410 N   0  0  0  0  0  0  0  0  0  0  0  0
  130.8300  125.4670   65.4780 C   0  0  0  0  0  0  0  0  0  0  0  0
  130.8550  124.2820   65.1360 O   0  0  0  0  0  0  0  0  0  0  0  0
  130.7190  125.9010   66.7460 O   0  0  0  0  0  0  0  0  0  0  0  0
  129.8280  125.2800   67.6680 C   0  0  0  0  0  0  0  0  0  0  0  0
  128.7680  126.2850   68.1690 C   0  0  0  0  0  0  0  0  0  0  0  0
  129.1440  126.9680   69.4720 C   0  0  0  0  0  0  0  0  0  0  0  0
  129.4430  126.4070   70.7170 C   0  0  0  0  0  0  0  0  0  0  0  0
  129.7900  127.2330   71.7870 C   0  0  0  0  0  0  0  0  0  0  0  0
  129.8380  128.6180   71.6170 C   0  0  0  0  0  0  0  0  0  0  0  0
  129.5370  129.1810   70.3750 C   0  0  0  0  0  0  0  0  0  0  0  0
  129.1900  128.3530   69.3070 C   0  0  0  0  0  0  0  0  0  0  0  0
  128.8230  128.6680   67.9170 C   0  0  0  0  0  0  0  0  0  0  0  0
  128.7060  129.8910   67.2520 C   0  0  0  0  0  0  0  0  0  0  0  0
  128.3130  129.9130   65.9130 C   0  0  0  0  0  0  0  0  0  0  0  0
  128.0430  128.7190   65.2410 C   0  0  0  0  0  0  0  0  0  0  0  0
  128.1660  127.5000   65.9080 C   0  0  0  0  0  0  0  0  0  0  0  0
  128.5610  127.4720   67.2480 C   0  0  0  0  0  0  0  0  0  0  0  0
  130.6330  127.7900   62.5040 C   0  0  0  0  0  0  0  0  0  0  0  0
  129.8840  128.6290   62.9630 O   0  0  0  0  0  0  0  0  0  0  0  0
  131.3370  127.9040   61.3400 O   0  0  0  0  0  0  0  0  0  0  0  0
  129.8490  123.7450   60.6970 N   0  0  0  0  0  0  0  0  0  0  0  0
  130.0420  122.8380   59.5260 C   0  0  0  0  0  0  0  0  0  0  0  0
  128.6730  122.9740   58.7780 C   0  0  0  0  0  0  0  0  0  0  0  0
  128.5010  122.4890   57.4710 C   0  0  0  0  0  0  0  0  0  0  0  0
  127.2790  122.6140   56.8160 C   0  0  0  0  0  0  0  0  0  0  0  0
  126.2110  123.2360   57.4530 C   0  0  0  0  0  0  0  0  0  0  0  0
  126.3530  123.7250   58.7470 C   0  0  0  0  0  0  0  0  0  0  0  0
  127.5720  123.5900   59.4040 C   0  0  0  0  0  0  0  0  0  0  0  0
  131.2420  123.4000   58.6930 C   0  0  0  0  0  0  0  0  0  0  0  0
  132.5750  123.1690   59.0700 C   0  0  0  0  0  0  0  0  0  0  0  0
  133.6270  123.6960   58.3240 C   0  0  0  0  0  0  0  0  0  0  0  0
  133.3600  124.4610   57.1940 C   0  0  0  0  0  0  0  0  0  0  0  0
  132.0480  124.7010   56.7980 C   0  0  0  0  0  0  0  0  0  0  0  0
  130.9990  124.1670   57.5390 C   0  0  0  0  0  0  0  0  0  0  0  0
  130.2720  121.4070   60.1180 C   0  0  0  0  0  0  0  0  0  0  0  0
  131.5060  120.7480   59.9630 C   0  0  0  0  0  0  0  0  0  0  0  0
  131.7140  119.4730   60.4800 C   0  0  0  0  0  0  0  0  0  0  0  0
  130.6900  118.8330   61.1700 C   0  0  0  0  0  0  0  0  0  0  0  0
  129.4650  119.4630   61.3520 C   0  0  0  0  0  0  0  0  0  0  0  0
  129.2610  120.7390   60.8330 C   0  0  0  0  0  0  0  0  0  0  0  0
  1  2  2  0
  2  3  1  0
  4  3  1  6
  4  5  1  0
  5  6  1  0
  6  7  2  0
  6  8  1  0
  8  9  1  0
  9 10  1  0
 10 11  1  0
 11 12  2  0
 12 13  1  0
 13 14  2  0
 14 15  1  0
 15 16  2  0
 16 17  1  0
 17 18  2  0
 18 19  1  0
 19 20  2  0
 20 21  1  0
 21 22  2  0
  4 23  1  0
 23 24  2  0
 23 25  1  0
  2 26  1  0
 26 27  1  0
 27 28  1  0
 28 29  2  0
 29 30  1  0
 30 31  2  0
 31 32  1  0
 32 33  2  0
 27 34  1  0
 34 35  2  0
 35 36  1  0
 36 37  2  0
 37 38  1  0
 38 39  2  0
 27 40  1  0
 40 41  2  0
 41 42  1  0
 42 43  2  0
 43 44  1  0
 44 45  2  0
 22 10  1  0
 33 28  1  0
 39 34  1  0
 45 40  1  0
 16 11  1  0
 22 17  1  0
M  END
>  <Binding energies>  (84) 
[-10.4]

>  <Ligand effiencies>  (84) 
[-0.21666666666666667]

>  <Interactions>  (84) 
["H-A:GLU:543:OE1:4904, V-A:GLU:543:CD:4903, V-A:ASP:366:CG:3208, V-B:TYR:539:CZ:9845, V-A:HIS:456:CE1:4064, V-A:GLU:543:CB:4901, V-B:GLU:543:CG:9875, V-B:HIS:456:CD2:9035, H-A:GLU:543:OE2:4905, V-B:GLU:543:CB:9874, V-A:ILE:369:CD1:3234, H-A:ARG:545:NH2:4923, V-B:HIS:456:CE1:9037, V-B:GLU:543:CD:9876, V-B:TYR:539:CE2:9844, V-B:ALA:541:CB:9860, V-A:TRP:381:CZ2:3365, V-B:TYR:539:CD2:9842, V-A:TRP:381:CH2:3367, V-A:LEU:475:CD2:4254, V-A:PRO:482:CB:4321, V-A:TRP:381:CE2:3362, V-B:TYR:539:CG:9840, V-A:TRP:381:CZ3:3366, V-B:TYR:539:C:9835, V-A:GLU:543:CG:4902, V-B:GLU:543:C:9870, V-B:PRO:540:CA:9851, V-B:PRO:540:C:9849, H-A:HIS:456:NE2:4065, H-A:TYR:484:OH:4343, H-B:GLU:543:OE2:9878, V-A:TYR:531:CZ:4789, V-B:ALA:541:CA:9858, V-A:ASP:366:CB:3207, V-A:GLU:543:C:4897, V-A:ASP:366:CA:3205, V-B:PRO:540:N:9852, V-B:PRO:540:CB:9853, H-A:ASP:366:OD2:3210, V-B:MET:535:CE:9803, V-A:ILE:369:CB:3231, V-B:TYR:484:CE1:9312, V-A:ASP:366:C:3203, V-A:TYR:531:CE1:4787"]

$$$$
