1a_Ghoteimi_2023
     RDKit          3D

 40 43  0  0  0  0  0  0  0  0999 V2000
  132.4140  131.8700   56.8500 C   0  0  0  0  0  0  0  0  0  0  0  0
  131.9880  131.0100   58.0430 C   0  0  0  0  0  0  0  0  0  0  0  0
  133.1450  130.5640   58.7400 O   0  0  0  0  0  0  0  0  0  0  0  0
  133.2530  130.7110   60.0850 C   0  0  0  0  0  0  0  0  0  0  0  0
  134.3340  130.8200   60.6730 O   0  0  0  0  0  0  0  0  0  0  0  0
  131.9260  130.7340   60.7880 C   0  0  0  0  0  0  0  0  0  0  0  0
  131.4700  131.8680   61.4760 C   0  0  0  0  0  0  0  0  0  0  0  0
  130.2360  131.8580   62.1210 C   0  0  0  0  0  0  0  0  0  0  0  0
  129.4310  130.7090   62.0850 C   0  0  0  0  0  0  0  0  0  0  0  0
  128.1720  130.5870   62.7040 N   0  0  0  0  0  0  0  0  0  0  0  0
  127.8300  130.7270   64.0030 C   0  0  0  0  0  0  0  0  0  0  0  0
  128.5990  131.0160   64.9190 O   0  0  0  0  0  0  0  0  0  0  0  0
  126.3510  130.5050   64.3200 C   0  0  0  0  0  0  0  0  0  0  0  0
  125.9960  128.7620   64.6900 S   0  0  0  0  0  0  0  0  0  0  0  0
  127.4550  128.1150   65.4730 C   0  0  0  0  0  0  0  0  0  0  0  0
  127.4730  128.2730   66.8180 N   0  0  0  0  0  0  0  0  0  0  0  0
  128.5310  127.8160   67.5380 C   0  0  0  0  0  0  0  0  0  0  0  0
  128.4670  128.0110   69.0250 C   0  0  0  0  0  0  0  0  0  0  0  0
  127.4840  127.3760   69.8020 C   0  0  0  0  0  0  0  0  0  0  0  0
  127.4280  127.5580   71.1810 C   0  0  0  0  0  0  0  0  0  0  0  0
  128.3490  128.3800   71.8260 C   0  0  0  0  0  0  0  0  0  0  0  0
  128.2190  128.5000   73.1970 O   0  0  0  0  0  0  0  0  0  0  0  0
  127.9360  129.7770   73.7580 C   0  0  0  0  0  0  0  0  0  0  0  0
  129.3330  129.0230   71.0640 C   0  0  0  0  0  0  0  0  0  0  0  0
  129.3870  128.8400   69.6860 C   0  0  0  0  0  0  0  0  0  0  0  0
  129.6060  127.1840   66.9000 C   0  0  0  0  0  0  0  0  0  0  0  0
  129.6210  127.0310   65.5080 C   0  0  0  0  0  0  0  0  0  0  0  0
  130.8150  126.3760   64.8940 C   0  0  0  0  0  0  0  0  0  0  0  0
  131.5810  125.4560   65.6190 C   0  0  0  0  0  0  0  0  0  0  0  0
  132.6830  124.8390   65.0340 C   0  0  0  0  0  0  0  0  0  0  0  0
  133.0380  125.1200   63.7150 C   0  0  0  0  0  0  0  0  0  0  0  0
  134.1450  124.4600   63.2200 O   0  0  0  0  0  0  0  0  0  0  0  0
  134.0440  123.7680   61.9800 C   0  0  0  0  0  0  0  0  0  0  0  0
  132.2670  126.0360   62.9820 C   0  0  0  0  0  0  0  0  0  0  0  0
  131.1650  126.6530   63.5690 C   0  0  0  0  0  0  0  0  0  0  0  0
  128.5130  127.5050   64.7650 C   0  0  0  0  0  0  0  0  0  0  0  0
  128.4650  127.3600   63.3070 C   0  0  0  0  0  0  0  0  0  0  0  0
  128.4280  127.2450   62.1560 N   0  0  0  0  0  0  0  0  0  0  0  0
  129.8840  129.5780   61.4050 C   0  0  0  0  0  0  0  0  0  0  0  0
  131.1190  129.5890   60.7610 C   0  0  0  0  0  0  0  0  0  0  0  0
  1  2  1  0
  2  3  1  0
  3  4  1  0
  4  5  2  0
  4  6  1  0
  6  7  2  0
  7  8  1  0
  8  9  2  0
  9 10  1  0
 10 11  1  0
 11 12  2  0
 11 13  1  0
 13 14  1  0
 14 15  1  0
 15 16  2  0
 16 17  1  0
 17 18  1  0
 18 19  2  0
 19 20  1  0
 20 21  2  0
 21 22  1  0
 22 23  1  0
 21 24  1  0
 24 25  2  0
 17 26  2  0
 26 27  1  0
 27 28  1  0
 28 29  2  0
 29 30  1  0
 30 31  2  0
 31 32  1  0
 32 33  1  0
 31 34  1  0
 34 35  2  0
 27 36  2  0
 36 37  1  0
 37 38  3  0
  9 39  1  0
 39 40  2  0
 40  6  1  0
 36 15  1  0
 25 18  1  0
 35 28  1  0
M  END
>  <Binding energies>  (1) 
[-7.88]

>  <Ligand effiencies>  (1) 
[-0.19219512195121952]

>  <Interactions>  (1) 
["V-A:GLU:543:CD:4903, V-A:ASP:366:CG:3208, V-A:ARG:545:CZ:4921, V-B:HIS:456:CD2:9035, V-A:ILE:369:CD1:3234, H-A:ARG:545:NH2:4923, V-B:HIS:456:CE1:9037, V-B:GLU:543:CD:9876, V-A:PRO:540:CA:4878, V-A:PRO:540:CB:4880, V-A:PRO:540:C:4876, V-A:GLU:543:CG:4902, H-B:LYS:547:NZ:9919, V-B:GLY:544:C:9880, H-B:TYR:484:OH:9315, H-A:GLY:454:N:4045, V-A:LEU:363:CD1:3184, H-A:LEU:363:N:3181, V-A:PRO:540:CD:4882, V-A:PRO:540:CG:4881"]

$$$$
1b_Ghoteimi_2023
     RDKit          3D

 34 37  0  0  0  0  0  0  0  0999 V2000
  128.3260  129.9870   74.3270 C   0  0  0  0  0  0  0  0  0  0  0  0
  129.0860  128.9050   73.8020 O   0  0  0  0  0  0  0  0  0  0  0  0
  129.0280  128.6360   72.4480 C   0  0  0  0  0  0  0  0  0  0  0  0
  130.1490  128.9760   71.6940 C   0  0  0  0  0  0  0  0  0  0  0  0
  130.1800  128.7430   70.3230 C   0  0  0  0  0  0  0  0  0  0  0  0
  129.0900  128.1580   69.6620 C   0  0  0  0  0  0  0  0  0  0  0  0
  129.1260  127.9090   68.1800 C   0  0  0  0  0  0  0  0  0  0  0  0
  128.4160  128.6880   67.2600 C   0  0  0  0  0  0  0  0  0  0  0  0
  128.4870  128.4160   65.8880 C   0  0  0  0  0  0  0  0  0  0  0  0
  127.6980  129.2860   64.9640 C   0  0  0  0  0  0  0  0  0  0  0  0
  126.3770  128.9600   64.6450 C   0  0  0  0  0  0  0  0  0  0  0  0
  125.6400  129.7620   63.7780 C   0  0  0  0  0  0  0  0  0  0  0  0
  126.2100  130.9020   63.2100 C   0  0  0  0  0  0  0  0  0  0  0  0
  125.4040  131.6370   62.3620 O   0  0  0  0  0  0  0  0  0  0  0  0
  125.8310  132.9300   61.9470 C   0  0  0  0  0  0  0  0  0  0  0  0
  127.5380  131.2280   63.5220 C   0  0  0  0  0  0  0  0  0  0  0  0
  128.2720  130.4240   64.3880 C   0  0  0  0  0  0  0  0  0  0  0  0
  129.3040  127.3440   65.4540 C   0  0  0  0  0  0  0  0  0  0  0  0
  129.4880  127.0800   64.0240 C   0  0  0  0  0  0  0  0  0  0  0  0
  129.6330  126.8720   62.8940 N   0  0  0  0  0  0  0  0  0  0  0  0
  129.9790  126.5850   66.4360 C   0  0  0  0  0  0  0  0  0  0  0  0
  131.0390  125.2000   66.0770 S   0  0  0  0  0  0  0  0  0  0  0  0
  129.9800  123.7480   65.7620 C   0  0  0  0  0  0  0  0  0  0  0  0
  130.2220  123.0460   64.4190 C   0  0  0  0  0  0  0  0  0  0  0  0
  131.2930  122.4800   64.1880 O   0  0  0  0  0  0  0  0  0  0  0  0
  129.1860  123.1120   63.5530 N   0  0  0  0  0  0  0  0  0  0  0  0
  129.1220  122.5700   62.2750 C   0  0  0  0  0  0  0  0  0  0  0  0
  130.2320  122.0480   61.6130 C   0  0  0  0  0  0  0  0  0  0  0  0
  129.7540  121.6200   60.3950 C   0  0  0  0  0  0  0  0  0  0  0  0
  128.4240  121.8680   60.3300 O   0  0  0  0  0  0  0  0  0  0  0  0
  128.0350  122.4700   61.5270 N   0  0  0  0  0  0  0  0  0  0  0  0
  129.9030  126.8780   67.7570 N   0  0  0  0  0  0  0  0  0  0  0  0
  127.9640  127.8210   70.4310 C   0  0  0  0  0  0  0  0  0  0  0  0
  127.9290  128.0540   71.8020 C   0  0  0  0  0  0  0  0  0  0  0  0
  1  2  1  0
  2  3  1  0
  3  4  2  0
  4  5  1  0
  5  6  2  0
  6  7  1  0
  7  8  2  0
  8  9  1  0
  9 10  1  0
 10 11  2  0
 11 12  1  0
 12 13  2  0
 13 14  1  0
 14 15  1  0
 13 16  1  0
 16 17  2  0
  9 18  2  0
 18 19  1  0
 19 20  3  0
 18 21  1  0
 21 22  1  0
 22 23  1  0
 23 24  1  0
 24 25  2  0
 24 26  1  0
 26 27  1  0
 27 28  1  0
 28 29  2  0
 29 30  1  0
 30 31  1  0
 21 32  2  0
  6 33  1  0
 33 34  2  0
 34  3  1  0
 32  7  1  0
 17 10  1  0
 31 27  2  0
M  END
>  <Binding energies>  (2) 
[-8.0]

>  <Ligand effiencies>  (2) 
[-0.22857142857142856]

>  <Interactions>  (2) 
["V-A:GLU:543:CD:4903, V-A:HIS:456:CE1:4064, V-B:GLU:543:CG:9875, V-B:HIS:456:CD2:9035, V-B:GLU:543:CB:9874, V-B:HIS:456:CE1:9037, V-B:GLU:543:CD:9876, V-B:ALA:541:CB:9860, V-A:GLU:543:CG:4902, H-B:LYS:547:NZ:9919, H-A:HIS:456:NE2:4065, H-A:TYR:484:OH:4343, H-B:ALA:541:N:9859, H-B:GLU:543:OE2:9878, V-A:TYR:484:CZ:4342, H-A:LYS:547:NZ:4946, V-A:TYR:484:CE1:4340, V-A:GLU:543:C:4897, H-B:GLU:543:OE1:9877, V-A:GLY:544:C:4907, V-B:LEU:475:CD2:9226"]

$$$$
1c_Ghoteimi_2023
     RDKit          3D

 34 37  0  0  0  0  0  0  0  0999 V2000
  126.5780  133.6200   61.8410 C   0  0  0  0  0  0  0  0  0  0  0  0
  125.7120  132.8990   62.7100 O   0  0  0  0  0  0  0  0  0  0  0  0
  126.2050  131.8090   63.4040 C   0  0  0  0  0  0  0  0  0  0  0  0
  127.5890  131.7190   63.5240 C   0  0  0  0  0  0  0  0  0  0  0  0
  128.1720  130.6540   64.2040 C   0  0  0  0  0  0  0  0  0  0  0  0
  127.3870  129.6440   64.7830 C   0  0  0  0  0  0  0  0  0  0  0  0
  128.0130  128.4910   65.5130 C   0  0  0  0  0  0  0  0  0  0  0  0
  129.0960  127.7690   65.0000 C   0  0  0  0  0  0  0  0  0  0  0  0
  129.6630  126.7170   65.7290 C   0  0  0  0  0  0  0  0  0  0  0  0
  130.8580  126.0350   65.1520 C   0  0  0  0  0  0  0  0  0  0  0  0
  130.8290  125.5310   63.8480 C   0  0  0  0  0  0  0  0  0  0  0  0
  131.9370  124.8770   63.3190 C   0  0  0  0  0  0  0  0  0  0  0  0
  133.0920  124.7090   64.0820 C   0  0  0  0  0  0  0  0  0  0  0  0
  134.1420  124.0470   63.4750 O   0  0  0  0  0  0  0  0  0  0  0  0
  134.1120  123.8410   62.0670 C   0  0  0  0  0  0  0  0  0  0  0  0
  133.1230  125.2080   65.3940 C   0  0  0  0  0  0  0  0  0  0  0  0
  132.0130  125.8620   65.9210 C   0  0  0  0  0  0  0  0  0  0  0  0
  129.0960  126.3840   66.9820 C   0  0  0  0  0  0  0  0  0  0  0  0
  129.6230  125.2720   67.7800 C   0  0  0  0  0  0  0  0  0  0  0  0
  130.0400  124.3940   68.4080 N   0  0  0  0  0  0  0  0  0  0  0  0
  128.0160  127.1640   67.4470 C   0  0  0  0  0  0  0  0  0  0  0  0
  127.3180  126.9680   69.0720 S   0  0  0  0  0  0  0  0  0  0  0  0
  128.4650  127.8480   70.1820 C   0  0  0  0  0  0  0  0  0  0  0  0
  128.9550  126.9590   71.3300 C   0  0  0  0  0  0  0  0  0  0  0  0
  129.0660  127.4340   72.4620 O   0  0  0  0  0  0  0  0  0  0  0  0
  129.1920  125.6700   71.0000 N   0  0  0  0  0  0  0  0  0  0  0  0
  129.4910  124.6340   71.8700 C   0  0  0  0  0  0  0  0  0  0  0  0
  129.1770  124.5330   73.1440 N   0  0  0  0  0  0  0  0  0  0  0  0
  129.5890  123.3880   73.6530 C   0  0  0  0  0  0  0  0  0  0  0  0
  130.2520  122.5290   72.7810 C   0  0  0  0  0  0  0  0  0  0  0  0
  130.3390  123.2720   71.2120 S   0  0  0  0  0  0  0  0  0  0  0  0
  127.4980  128.1920   66.7350 N   0  0  0  0  0  0  0  0  0  0  0  0
  125.9940  129.7490   64.6610 C   0  0  0  0  0  0  0  0  0  0  0  0
  125.4060  130.8120   63.9810 C   0  0  0  0  0  0  0  0  0  0  0  0
  1  2  1  0
  2  3  1  0
  3  4  2  0
  4  5  1  0
  5  6  2  0
  6  7  1  0
  7  8  2  0
  8  9  1  0
  9 10  1  0
 10 11  2  0
 11 12  1  0
 12 13  2  0
 13 14  1  0
 14 15  1  0
 13 16  1  0
 16 17  2  0
  9 18  2  0
 18 19  1  0
 19 20  3  0
 18 21  1  0
 21 22  1  0
 22 23  1  0
 23 24  1  0
 24 25  2  0
 24 26  1  0
 26 27  1  0
 27 28  2  0
 28 29  1  0
 29 30  2  0
 30 31  1  0
 21 32  2  0
  6 33  1  0
 33 34  2  0
 34  3  1  0
 32  7  1  0
 17 10  1  0
 31 27  1  0
M  END
>  <Binding energies>  (3) 
[-8.3]

>  <Ligand effiencies>  (3) 
[-0.23714285714285716]

>  <Interactions>  (3) 
["V-A:GLU:543:CD:4903, V-A:ASP:366:CG:3208, V-A:HIS:456:CE1:4064, V-A:ARG:545:CZ:4921, V-B:GLU:543:CG:9875, V-B:HIS:456:CD2:9035, V-B:GLU:543:CB:9874, V-A:ILE:369:CD1:3234, V-B:HIS:456:CE1:9037, V-B:GLU:543:CD:9876, V-A:GLU:543:CG:4902, H-B:LYS:547:NZ:9919, V-B:GLU:543:C:9870, H-A:HIS:456:NE2:4065, H-A:TYR:484:OH:4343, H-A:GLY:454:N:4045, V-A:HIS:456:CD2:4063, V-B:GLU:543:CA:9872, H-B:GLU:543:O:9871, V-B:LYS:547:CE:9918, V-A:HIS:456:CG:4061, V-B:LEU:475:CD2:9226"]

$$$$
1d_Ghoteimi_2023
     RDKit          3D

 30 32  0  0  0  0  0  0  0  0999 V2000
  133.6020  124.7080   62.7040 C   0  0  0  0  0  0  0  0  0  0  0  0
  133.7630  124.2230   64.0290 O   0  0  0  0  0  0  0  0  0  0  0  0
  133.8220  125.0800   65.0690 C   0  0  0  0  0  0  0  0  0  0  0  0
  134.6960  125.1130   65.9370 O   0  0  0  0  0  0  0  0  0  0  0  0
  132.6490  126.0560   65.0850 C   0  0  0  0  0  0  0  0  0  0  0  0
  131.3830  125.3710   66.1960 S   0  0  0  0  0  0  0  0  0  0  0  0
  130.2340  126.6830   66.5480 C   0  0  0  0  0  0  0  0  0  0  0  0
  130.1100  126.9610   67.8670 N   0  0  0  0  0  0  0  0  0  0  0  0
  129.2620  127.9390   68.2780 C   0  0  0  0  0  0  0  0  0  0  0  0
  129.1880  128.1870   69.7560 C   0  0  0  0  0  0  0  0  0  0  0  0
  128.0620  127.8080   70.5030 C   0  0  0  0  0  0  0  0  0  0  0  0
  127.9920  128.0450   71.8730 C   0  0  0  0  0  0  0  0  0  0  0  0
  129.0440  128.6690   72.5390 C   0  0  0  0  0  0  0  0  0  0  0  0
  128.8870  128.8670   73.8970 O   0  0  0  0  0  0  0  0  0  0  0  0
  128.3210  130.0890   74.3590 C   0  0  0  0  0  0  0  0  0  0  0  0
  130.1760  129.0540   71.8070 C   0  0  0  0  0  0  0  0  0  0  0  0
  130.2420  128.8150   70.4370 C   0  0  0  0  0  0  0  0  0  0  0  0
  128.5190  128.6740   67.3470 C   0  0  0  0  0  0  0  0  0  0  0  0
  128.6170  128.3990   65.9770 C   0  0  0  0  0  0  0  0  0  0  0  0
  127.7890  129.2180   65.0390 C   0  0  0  0  0  0  0  0  0  0  0  0
  126.4680  128.8530   64.7650 C   0  0  0  0  0  0  0  0  0  0  0  0
  125.6910  129.6110   63.8930 C   0  0  0  0  0  0  0  0  0  0  0  0
  126.2170  130.7490   63.2820 C   0  0  0  0  0  0  0  0  0  0  0  0
  125.3770  131.4350   62.4270 O   0  0  0  0  0  0  0  0  0  0  0  0
  125.7160  132.7600   62.0330 C   0  0  0  0  0  0  0  0  0  0  0  0
  127.5390  131.1260   63.5640 C   0  0  0  0  0  0  0  0  0  0  0  0
  128.3130  130.3670   64.4370 C   0  0  0  0  0  0  0  0  0  0  0  0
  129.4830  127.3590   65.5590 C   0  0  0  0  0  0  0  0  0  0  0  0
  129.5450  126.9580   64.1500 C   0  0  0  0  0  0  0  0  0  0  0  0
  129.5940  126.6430   63.0370 N   0  0  0  0  0  0  0  0  0  0  0  0
  1  2  1  0
  2  3  1  0
  3  4  2  0
  3  5  1  0
  5  6  1  0
  6  7  1  0
  7  8  2  0
  8  9  1  0
  9 10  1  0
 10 11  2  0
 11 12  1  0
 12 13  2  0
 13 14  1  0
 14 15  1  0
 13 16  1  0
 16 17  2  0
  9 18  2  0
 18 19  1  0
 19 20  1  0
 20 21  2  0
 21 22  1  0
 22 23  2  0
 23 24  1  0
 24 25  1  0
 23 26  1  0
 26 27  2  0
 19 28  2  0
 28 29  1  0
 29 30  3  0
 28  7  1  0
 17 10  1  0
 27 20  1  0
M  END
>  <Binding energies>  (4) 
[-7.15]

>  <Ligand effiencies>  (4) 
[-0.23833333333333334]

>  <Interactions>  (4) 
["V-A:GLU:543:CD:4903, V-A:ASP:366:CG:3208, V-A:HIS:456:CE1:4064, V-A:ARG:545:CZ:4921, V-B:HIS:456:CD2:9035, V-B:HIS:456:CE1:9037, V-B:GLU:543:CD:9876, V-A:GLU:543:CG:4902, H-B:LYS:547:NZ:9919, H-A:HIS:456:NE2:4065, H-A:TYR:484:OH:4343, V-A:ARG:545:CD:4918, H-A:GLY:454:N:4045, H-A:LYS:547:NZ:4946, V-A:GLU:543:C:4897, V-A:GLY:544:C:4907, H-A:ARG:545:NE:4919, V-B:LEU:475:CD2:9226"]

$$$$
1j_Grossjean_2025
     RDKit          3D

 20 21  0  0  0  0  0  0  0  0999 V2000
  133.6180  122.9050   58.0300 C   0  0  0  0  0  0  0  0  0  0  0  0
  132.9140  122.7630   59.3670 C   0  0  0  0  0  0  0  0  0  0  0  0
  132.2110  121.6070   59.7010 C   0  0  0  0  0  0  0  0  0  0  0  0
  131.5930  121.5270   60.9530 C   0  0  0  0  0  0  0  0  0  0  0  0
  130.8430  120.2420   61.3040 C   0  0  0  0  0  0  0  0  0  0  0  0
  131.6880  122.6200   61.8430 C   0  0  0  0  0  0  0  0  0  0  0  0
  131.0930  122.5370   63.1790 C   0  0  0  0  0  0  0  0  0  0  0  0
  130.6220  122.4670   64.2340 N   0  0  0  0  0  0  0  0  0  0  0  0
  132.3990  123.7640   61.4090 C   0  0  0  0  0  0  0  0  0  0  0  0
  132.6160  125.2290   62.3960 S   0  0  0  0  0  0  0  0  0  0  0  0
  133.6490  124.7860   63.8240 C   0  0  0  0  0  0  0  0  0  0  0  0
  132.9600  125.1060   65.1520 C   0  0  0  0  0  0  0  0  0  0  0  0
  133.6350  125.5030   66.1020 O   0  0  0  0  0  0  0  0  0  0  0  0
  131.6210  124.9240   65.1730 N   0  0  0  0  0  0  0  0  0  0  0  0
  130.7730  125.1360   66.2500 C   0  0  0  0  0  0  0  0  0  0  0  0
  130.5890  124.3600   67.2980 N   0  0  0  0  0  0  0  0  0  0  0  0
  129.7060  124.8740   68.1310 C   0  0  0  0  0  0  0  0  0  0  0  0
  129.1530  126.0980   67.7640 C   0  0  0  0  0  0  0  0  0  0  0  0
  129.8330  126.5930   66.2440 S   0  0  0  0  0  0  0  0  0  0  0  0
  133.0140  123.8240   60.2010 N   0  0  0  0  0  0  0  0  0  0  0  0
  1  2  1  0
  2  3  2  0
  3  4  1  0
  4  5  1  0
  4  6  2  0
  6  7  1  0
  7  8  3  0
  6  9  1  0
  9 10  1  0
 10 11  1  0
 11 12  1  0
 12 13  2  0
 12 14  1  0
 14 15  1  0
 15 16  2  0
 16 17  1  0
 17 18  2  0
 18 19  1  0
  9 20  2  0
 20  2  1  0
 19 15  1  0
M  END
>  <Binding energies>  (5) 
[-5.96]

>  <Ligand effiencies>  (5) 
[-0.2838095238095238]

>  <Interactions>  (5) 
["V-A:HIS:456:CE1:4064, V-A:ARG:545:CZ:4921, V-B:GLU:543:CG:9875, V-B:GLU:543:CB:9874, V-A:ILE:369:CD1:3234, H-A:ARG:545:NH2:4923, V-B:TYR:539:CE2:9844, V-B:ALA:541:CB:9860, V-B:TYR:539:CD2:9842, V-A:LEU:475:CD2:4254, V-B:GLU:543:C:9870, H-A:HIS:456:NE2:4065, H-A:TYR:484:OH:4343, V-B:GLU:543:CA:9872, V-A:ILE:369:CB:3231, V-A:ILE:369:CG2:3232, H-A:ARG:545:NE:4919"]

$$$$
1o_Grossjean_2025
     RDKit          3D

 26 27  0  0  0  0  0  0  0  0999 V2000
  129.3870  129.2060   71.6510 C   0  0  0  0  0  0  0  0  0  0  0  0
  128.4540  128.2590   71.1510 O   0  0  0  0  0  0  0  0  0  0  0  0
  128.8260  126.9780   70.8970 C   0  0  0  0  0  0  0  0  0  0  0  0
  128.7470  126.0690   71.7290 O   0  0  0  0  0  0  0  0  0  0  0  0
  129.3410  126.7740   69.5010 C   0  0  0  0  0  0  0  0  0  0  0  0
  129.6870  127.8520   68.6730 C   0  0  0  0  0  0  0  0  0  0  0  0
  130.1630  127.6290   67.3840 C   0  0  0  0  0  0  0  0  0  0  0  0
  130.2980  126.3290   66.8940 C   0  0  0  0  0  0  0  0  0  0  0  0
  130.7980  126.2180   65.5820 N   0  0  0  0  0  0  0  0  0  0  0  0
  130.8920  125.1340   64.7800 C   0  0  0  0  0  0  0  0  0  0  0  0
  130.4930  124.0050   65.0640 O   0  0  0  0  0  0  0  0  0  0  0  0
  131.5250  125.3830   63.4030 C   0  0  0  0  0  0  0  0  0  0  0  0
  133.0650  125.4540   63.4440 C   0  0  0  0  0  0  0  0  0  0  0  0
  133.8850  123.8610   63.1400 S   0  0  0  0  0  0  0  0  0  0  0  0
  133.0650  123.0550   61.7790 C   0  0  0  0  0  0  0  0  0  0  0  0
  133.5430  123.4250   60.5640 N   0  0  0  0  0  0  0  0  0  0  0  0
  133.0020  122.8710   59.4540 C   0  0  0  0  0  0  0  0  0  0  0  0
  133.5980  123.3230   58.1340 C   0  0  0  0  0  0  0  0  0  0  0  0
  131.9640  121.9440   59.5080 C   0  0  0  0  0  0  0  0  0  0  0  0
  131.4460  121.5730   60.7530 C   0  0  0  0  0  0  0  0  0  0  0  0
  130.2980  120.5660   60.7840 C   0  0  0  0  0  0  0  0  0  0  0  0
  131.9920  122.1420   61.9260 C   0  0  0  0  0  0  0  0  0  0  0  0
  131.4230  121.8120   63.2350 C   0  0  0  0  0  0  0  0  0  0  0  0
  130.9730  121.5490   64.2680 N   0  0  0  0  0  0  0  0  0  0  0  0
  129.9590  125.2460   67.7190 C   0  0  0  0  0  0  0  0  0  0  0  0
  129.4840  125.4710   69.0080 C   0  0  0  0  0  0  0  0  0  0  0  0
  1  2  1  0
  2  3  1  0
  3  4  2  0
  3  5  1  0
  5  6  2  0
  6  7  1  0
  7  8  2  0
  8  9  1  0
  9 10  1  0
 10 11  2  0
 10 12  1  0
 12 13  1  0
 13 14  1  0
 14 15  1  0
 15 16  2  0
 16 17  1  0
 17 18  1  0
 17 19  2  0
 19 20  1  0
 20 21  1  0
 20 22  2  0
 22 23  1  0
 23 24  3  0
  8 25  1  0
 25 26  2  0
 26  5  1  0
 22 15  1  0
M  END
>  <Binding energies>  (6) 
[-7.2]

>  <Ligand effiencies>  (6) 
[-0.26666666666666666]

>  <Interactions>  (6) 
["H-A:GLU:543:OE1:4904, V-A:GLU:543:CD:4903, V-A:HIS:456:CE1:4064, V-A:ARG:545:CZ:4921, V-A:GLU:543:CB:4901, V-B:GLU:543:CG:9875, V-B:HIS:456:CD2:9035, H-A:GLU:543:OE2:4905, V-B:GLU:543:CB:9874, V-A:ILE:369:CD1:3234, V-B:TYR:539:CE2:9844, V-B:ALA:541:CB:9860, V-A:LEU:475:CD1:4253, V-B:TYR:539:CD2:9842, V-A:LEU:475:CD2:4254, H-B:LYS:547:NZ:9919, V-B:GLU:543:C:9870, H-A:TYR:484:OH:4343, H-A:GLY:454:N:4045, V-A:ASP:366:CB:3207, V-B:GLU:543:CA:9872, V-A:ASP:366:CA:3205, V-A:ILE:369:CB:3231, V-A:ILE:369:CG2:3232"]

$$$$
1p_Grossjean_2025
     RDKit          3D

 21 22  0  0  0  0  0  0  0  0999 V2000
  133.1390  124.1570   57.8980 C   0  0  0  0  0  0  0  0  0  0  0  0
  132.5340  123.0580   58.7520 C   0  0  0  0  0  0  0  0  0  0  0  0
  133.3040  122.0000   59.2300 C   0  0  0  0  0  0  0  0  0  0  0  0
  132.6910  121.0070   60.0020 C   0  0  0  0  0  0  0  0  0  0  0  0
  133.5510  119.8490   60.5030 C   0  0  0  0  0  0  0  0  0  0  0  0
  131.3100  121.1070   60.2850 C   0  0  0  0  0  0  0  0  0  0  0  0
  130.6350  120.0570   61.0500 C   0  0  0  0  0  0  0  0  0  0  0  0
  130.1030  119.2270   61.6550 N   0  0  0  0  0  0  0  0  0  0  0  0
  130.6110  122.2290   59.7780 C   0  0  0  0  0  0  0  0  0  0  0  0
  128.8770  122.5130   60.0480 S   0  0  0  0  0  0  0  0  0  0  0  0
  128.7290  123.4020   61.6260 C   0  0  0  0  0  0  0  0  0  0  0  0
  128.9290  122.5070   62.8640 C   0  0  0  0  0  0  0  0  0  0  0  0
  130.1710  122.8720   63.6910 C   0  0  0  0  0  0  0  0  0  0  0  0
  131.0250  122.0120   63.9160 O   0  0  0  0  0  0  0  0  0  0  0  0
  130.2390  124.1560   64.1080 N   0  0  0  0  0  0  0  0  0  0  0  0
  131.2460  124.7420   64.8640 C   0  0  0  0  0  0  0  0  0  0  0  0
  132.3520  125.3770   64.2970 C   0  0  0  0  0  0  0  0  0  0  0  0
  133.0990  125.8160   65.3660 C   0  0  0  0  0  0  0  0  0  0  0  0
  132.4790  125.4620   66.5150 O   0  0  0  0  0  0  0  0  0  0  0  0
  131.3050  124.7810   66.1840 N   0  0  0  0  0  0  0  0  0  0  0  0
  131.2110  123.1750   59.0120 N   0  0  0  0  0  0  0  0  0  0  0  0
  1  2  1  0
  2  3  2  0
  3  4  1  0
  4  5  1  0
  4  6  2  0
  6  7  1  0
  7  8  3  0
  6  9  1  0
  9 10  1  0
 10 11  1  0
 11 12  1  0
 12 13  1  0
 13 14  2  0
 13 15  1  0
 15 16  1  0
 16 17  1  0
 17 18  2  0
 18 19  1  0
 19 20  1  0
  9 21  2  0
 21  2  1  0
 20 16  2  0
M  END
>  <Binding energies>  (7) 
[-6.89]

>  <Ligand effiencies>  (7) 
[-0.3131818181818182]

>  <Interactions>  (7) 
["V-A:ASP:366:CG:3208, V-A:ARG:545:CZ:4921, V-B:GLU:543:CG:9875, V-A:ILE:369:CD1:3234, V-B:GLU:543:CD:9876, V-B:TYR:539:CE2:9844, V-B:ALA:541:CB:9860, V-A:TRP:381:CZ2:3365, V-B:TYR:539:CD2:9842, V-A:TRP:381:CH2:3367, V-A:LEU:475:CD2:4254, H-A:HIS:456:NE2:4065, H-A:TYR:484:OH:4343, H-B:GLU:543:OE2:9878, V-B:ALA:541:CA:9858, V-A:ARG:545:CD:4918, V-A:ASP:366:CB:3207, V-A:ASP:366:CA:3205, V-A:ILE:369:CB:3231, V-A:ILE:369:CG2:3232"]

$$$$
2a_Ghoteimi_2023
     RDKit          3D

 48 53  0  0  0  0  0  0  0  0999 V2000
  131.0310  132.5690   56.7110 C   0  0  0  0  0  0  0  0  0  0  0  0
  129.6110  132.9580   57.1330 C   0  0  0  0  0  0  0  0  0  0  0  0
  129.4230  132.6390   58.5060 O   0  0  0  0  0  0  0  0  0  0  0  0
  128.3250  131.9590   58.9240 C   0  0  0  0  0  0  0  0  0  0  0  0
  127.3250  131.7830   58.2210 O   0  0  0  0  0  0  0  0  0  0  0  0
  128.4500  131.4360   60.3270 C   0  0  0  0  0  0  0  0  0  0  0  0
  129.1990  130.2890   60.6270 C   0  0  0  0  0  0  0  0  0  0  0  0
  129.2960  129.8320   61.9380 C   0  0  0  0  0  0  0  0  0  0  0  0
  128.6520  130.5110   62.9750 C   0  0  0  0  0  0  0  0  0  0  0  0
  128.8140  129.9590   64.2600 N   0  0  0  0  0  0  0  0  0  0  0  0
  128.7330  130.5490   65.4720 C   0  0  0  0  0  0  0  0  0  0  0  0
  128.5390  131.7500   65.6630 O   0  0  0  0  0  0  0  0  0  0  0  0
  128.9470  129.6140   66.6690 C   0  0  0  0  0  0  0  0  0  0  0  0
  127.7530  128.2420   66.7760 S   0  0  0  0  0  0  0  0  0  0  0  0
  128.7240  126.7830   67.0770 C   0  0  0  0  0  0  0  0  0  0  0  0
  129.3500  126.3050   65.9760 N   0  0  0  0  0  0  0  0  0  0  0  0
  130.1140  125.1880   66.0760 C   0  0  0  0  0  0  0  0  0  0  0  0
  130.7670  124.7120   64.8190 C   0  0  0  0  0  0  0  0  0  0  0  0
  130.1970  123.6920   64.0470 C   0  0  0  0  0  0  0  0  0  0  0  0
  130.8160  123.2440   62.8830 C   0  0  0  0  0  0  0  0  0  0  0  0
  132.0220  123.8050   62.4410 C   0  0  0  0  0  0  0  0  0  0  0  0
  132.6470  123.3250   61.2860 N   0  0  0  0  0  0  0  0  0  0  0  0
  132.9520  124.2160   60.1480 C   0  0  0  0  0  0  0  0  0  0  0  0
  133.9480  123.6130   59.1340 C   0  0  0  0  0  0  0  0  0  0  0  0
  133.4780  122.3540   58.6810 O   0  0  0  0  0  0  0  0  0  0  0  0
  133.3430  121.4350   59.7530 C   0  0  0  0  0  0  0  0  0  0  0  0
  132.3300  121.9700   60.7870 C   0  0  0  0  0  0  0  0  0  0  0  0
  132.5950  124.8200   63.2250 C   0  0  0  0  0  0  0  0  0  0  0  0
  131.9760  125.2690   64.3870 C   0  0  0  0  0  0  0  0  0  0  0  0
  130.2780  124.5320   67.2990 C   0  0  0  0  0  0  0  0  0  0  0  0
  129.6400  125.0090   68.4520 C   0  0  0  0  0  0  0  0  0  0  0  0
  129.8540  124.2550   69.7250 C   0  0  0  0  0  0  0  0  0  0  0  0
  129.9810  122.8640   69.7040 C   0  0  0  0  0  0  0  0  0  0  0  0
  130.1600  122.1510   70.8860 C   0  0  0  0  0  0  0  0  0  0  0  0
  130.2200  122.8080   72.1240 C   0  0  0  0  0  0  0  0  0  0  0  0
  130.3810  122.1100   73.3240 N   0  0  0  0  0  0  0  0  0  0  0  0
  130.4370  120.6340   73.3000 C   0  0  0  0  0  0  0  0  0  0  0  0
  130.9990  120.0240   74.6010 C   0  0  0  0  0  0  0  0  0  0  0  0
  130.2500  120.4820   75.7160 O   0  0  0  0  0  0  0  0  0  0  0  0
  130.3000  121.8950   75.8380 C   0  0  0  0  0  0  0  0  0  0  0  0
  129.7240  122.5550   74.5680 C   0  0  0  0  0  0  0  0  0  0  0  0
  130.0790  124.2040   72.1370 C   0  0  0  0  0  0  0  0  0  0  0  0
  129.8980  124.9170   70.9550 C   0  0  0  0  0  0  0  0  0  0  0  0
  128.8410  126.1740   68.3460 C   0  0  0  0  0  0  0  0  0  0  0  0
  128.1950  126.7530   69.5280 C   0  0  0  0  0  0  0  0  0  0  0  0
  127.6840  127.2070   70.4620 N   0  0  0  0  0  0  0  0  0  0  0  0
  127.8940  131.6540   62.6800 C   0  0  0  0  0  0  0  0  0  0  0  0
  127.8000  132.1110   61.3680 C   0  0  0  0  0  0  0  0  0  0  0  0
  1  2  1  0
  2  3  1  0
  3  4  1  0
  4  5  2  0
  4  6  1  0
  6  7  2  0
  7  8  1  0
  8  9  2  0
  9 10  1  0
 10 11  1  0
 11 12  2  0
 11 13  1  0
 13 14  1  0
 14 15  1  0
 15 16  2  0
 16 17  1  0
 17 18  1  0
 18 19  2  0
 19 20  1  0
 20 21  2  0
 21 22  1  0
 22 23  1  0
 23 24  1  0
 24 25  1  0
 25 26  1  0
 26 27  1  0
 21 28  1  0
 28 29  2  0
 17 30  2  0
 30 31  1  0
 31 32  1  0
 32 33  2  0
 33 34  1  0
 34 35  2  0
 35 36  1  0
 36 37  1  0
 37 38  1  0
 38 39  1  0
 39 40  1  0
 40 41  1  0
 35 42  1  0
 42 43  2  0
 31 44  2  0
 44 45  1  0
 45 46  3  0
  9 47  1  0
 47 48  2  0
 48  6  1  0
 44 15  1  0
 29 18  1  0
 43 32  1  0
 27 22  1  0
 41 36  1  0
M  END
>  <Binding energies>  (8) 
[-7.08]

>  <Ligand effiencies>  (8) 
[-0.14448979591836736]

>  <Interactions>  (8) 
["H-A:GLU:543:OE1:4904, V-A:GLU:543:CD:4903, V-A:ASP:366:CG:3208, V-A:HIS:456:CE1:4064, V-A:GLU:543:CB:4901, V-B:GLU:543:CG:9875, H-A:GLU:543:OE2:4905, V-B:GLU:543:CB:9874, V-A:ILE:369:CD1:3234, V-B:GLU:543:CD:9876, V-B:TYR:539:CE2:9844, V-A:TYR:539:C:4862, V-A:PRO:540:CA:4878, V-A:PRO:540:N:4879, V-A:PRO:540:CB:4880, V-A:GLU:543:CG:4902, H-B:TYR:484:OH:9315, V-B:GLU:543:C:9870, V-A:TYR:484:CZ:4342, V-A:HIS:456:CD2:4063, V-A:ASP:366:CB:3207, V-B:GLU:543:CA:9872, V-A:TYR:484:CE1:4340, V-A:ASP:366:CA:3205, V-A:ASP:473:CG:4235, V-A:ILE:369:CB:3231, V-A:ILE:369:CG2:3232, V-A:TYR:484:CD1:4338, V-A:TYR:484:CG:4337, V-A:TYR:484:CB:4336, V-A:TYR:484:CD2:4339, V-A:TYR:484:CE2:4341, V-A:ASP:473:CB:4234, V-A:TYR:539:CE1:4870, V-A:TYR:539:CD1:4868, V-A:PRO:540:CD:4882, V-A:TYR:539:CA:4864, V-A:TYR:539:CG:4867, V-A:ILE:369:CG1:3233, H-A:TYR:539:OH:4873"]

$$$$
2aa_Ghoteimi_2023
     RDKit          3D

 48 53  0  0  0  0  0  0  0  0999 V2000
  133.2620  130.1380   58.6270 C   0  0  0  0  0  0  0  0  0  0  0  0
  133.1130  131.4500   57.8490 C   0  0  0  0  0  0  0  0  0  0  0  0
  131.9360  131.3950   57.0540 O   0  0  0  0  0  0  0  0  0  0  0  0
  130.9830  132.3590   57.1430 C   0  0  0  0  0  0  0  0  0  0  0  0
  130.9580  133.3600   56.4200 O   0  0  0  0  0  0  0  0  0  0  0  0
  129.9520  132.0770   58.1980 C   0  0  0  0  0  0  0  0  0  0  0  0
  129.9820  130.9050   58.9680 C   0  0  0  0  0  0  0  0  0  0  0  0
  129.0150  130.6740   59.9420 C   0  0  0  0  0  0  0  0  0  0  0  0
  127.9950  131.6030   60.1610 C   0  0  0  0  0  0  0  0  0  0  0  0
  127.0730  131.2710   61.1720 N   0  0  0  0  0  0  0  0  0  0  0  0
  126.9050  131.8070   62.4000 C   0  0  0  0  0  0  0  0  0  0  0  0
  127.5530  132.7510   62.8550 O   0  0  0  0  0  0  0  0  0  0  0  0
  125.7900  131.1600   63.2320 C   0  0  0  0  0  0  0  0  0  0  0  0
  125.8000  129.7420   63.0310 O   0  0  0  0  0  0  0  0  0  0  0  0
  126.9030  128.9920   63.4170 C   0  0  0  0  0  0  0  0  0  0  0  0
  127.2480  128.9910   64.7350 N   0  0  0  0  0  0  0  0  0  0  0  0
  128.3180  128.2660   65.1460 C   0  0  0  0  0  0  0  0  0  0  0  0
  128.6390  128.3160   66.6070 C   0  0  0  0  0  0  0  0  0  0  0  0
  128.7450  127.1400   67.3560 C   0  0  0  0  0  0  0  0  0  0  0  0
  129.0500  127.1810   68.7140 C   0  0  0  0  0  0  0  0  0  0  0  0
  129.2760  128.4010   69.3710 C   0  0  0  0  0  0  0  0  0  0  0  0
  129.5710  128.4610   70.7370 N   0  0  0  0  0  0  0  0  0  0  0  0
  129.1630  129.6160   71.5630 C   0  0  0  0  0  0  0  0  0  0  0  0
  129.8690  129.6810   72.9340 C   0  0  0  0  0  0  0  0  0  0  0  0
  129.6790  128.4630   73.6360 O   0  0  0  0  0  0  0  0  0  0  0  0
  130.2200  127.3620   72.9220 C   0  0  0  0  0  0  0  0  0  0  0  0
  129.5240  127.2280   71.5500 C   0  0  0  0  0  0  0  0  0  0  0  0
  129.1480  129.5780   68.6190 C   0  0  0  0  0  0  0  0  0  0  0  0
  128.8390  129.5370   67.2620 C   0  0  0  0  0  0  0  0  0  0  0  0
  129.0850  127.5300   64.2370 C   0  0  0  0  0  0  0  0  0  0  0  0
  128.7580  127.5230   62.8750 C   0  0  0  0  0  0  0  0  0  0  0  0
  129.6300  126.7390   61.9490 C   0  0  0  0  0  0  0  0  0  0  0  0
  130.1990  127.3500   60.8280 C   0  0  0  0  0  0  0  0  0  0  0  0
  130.9950  126.6210   59.9500 C   0  0  0  0  0  0  0  0  0  0  0  0
  131.2360  125.2540   60.1590 C   0  0  0  0  0  0  0  0  0  0  0  0
  132.0350  124.5030   59.2930 N   0  0  0  0  0  0  0  0  0  0  0  0
  133.0770  123.5920   59.8040 C   0  0  0  0  0  0  0  0  0  0  0  0
  133.6020  122.6010   58.7430 C   0  0  0  0  0  0  0  0  0  0  0  0
  134.0640  123.3110   57.6040 O   0  0  0  0  0  0  0  0  0  0  0  0
  133.0290  124.0810   57.0130 C   0  0  0  0  0  0  0  0  0  0  0  0
  132.4910  125.1110   58.0270 C   0  0  0  0  0  0  0  0  0  0  0  0
  130.6670  124.6510   61.2900 C   0  0  0  0  0  0  0  0  0  0  0  0
  129.8710  125.3800   62.1680 C   0  0  0  0  0  0  0  0  0  0  0  0
  127.6280  128.2630   62.4570 C   0  0  0  0  0  0  0  0  0  0  0  0
  127.1830  128.2740   61.0620 C   0  0  0  0  0  0  0  0  0  0  0  0
  126.8320  128.2810   59.9590 N   0  0  0  0  0  0  0  0  0  0  0  0
  127.9630  132.7800   59.4000 C   0  0  0  0  0  0  0  0  0  0  0  0
  128.9340  133.0100   58.4290 C   0  0  0  0  0  0  0  0  0  0  0  0
  1  2  1  0
  2  3  1  0
  3  4  1  0
  4  5  2  0
  4  6  1  0
  6  7  2  0
  7  8  1  0
  8  9  2  0
  9 10  1  0
 10 11  1  0
 11 12  2  0
 11 13  1  0
 13 14  1  0
 14 15  1  0
 15 16  2  0
 16 17  1  0
 17 18  1  0
 18 19  2  0
 19 20  1  0
 20 21  2  0
 21 22  1  0
 22 23  1  0
 23 24  1  0
 24 25  1  0
 25 26  1  0
 26 27  1  0
 21 28  1  0
 28 29  2  0
 17 30  2  0
 30 31  1  0
 31 32  1  0
 32 33  2  0
 33 34  1  0
 34 35  2  0
 35 36  1  0
 36 37  1  0
 37 38  1  0
 38 39  1  0
 39 40  1  0
 40 41  1  0
 35 42  1  0
 42 43  2  0
 31 44  2  0
 44 45  1  0
 45 46  3  0
  9 47  1  0
 47 48  2  0
 48  6  1  0
 44 15  1  0
 29 18  1  0
 43 32  1  0
 27 22  1  0
 41 36  1  0
M  END
>  <Binding energies>  (9) 
[-8.65]

>  <Ligand effiencies>  (9) 
[-0.17653061224489797]

>  <Interactions>  (9) 
["H-B:TYR:539:OH:9846, V-A:GLU:543:CD:4903, V-A:ASP:366:CG:3208, V-B:TYR:539:CZ:9845, V-A:HIS:456:CE1:4064, V-A:GLU:543:CB:4901, V-B:HIS:456:CD2:9035, V-B:GLU:543:CB:9874, V-A:ILE:369:CD1:3234, V-B:HIS:456:CE1:9037, V-B:GLU:543:CD:9876, V-B:TYR:539:CE2:9844, V-A:TYR:539:C:4862, V-A:PRO:540:CA:4878, V-A:PRO:540:N:4879, V-A:PRO:540:CB:4880, V-A:TYR:539:CZ:4872, V-A:TYR:539:CD2:4869, V-A:TYR:539:CE2:4871, V-A:GLU:543:CG:4902, H-B:LYS:547:NZ:9919, V-A:TYR:531:CZ:4789, V-A:TYR:531:CE2:4788, V-A:LEU:363:CA:3180, V-A:LEU:363:CD1:3184, V-A:ASP:366:CB:3207, V-A:LYS:547:CE:4945, H-A:LYS:547:NZ:4946, V-A:GLU:543:CA:4899, V-A:GLU:543:C:4897, V-A:ILE:369:CB:3231, V-A:ILE:369:CG2:3232, V-A:TYR:539:CD1:4868, V-A:PRO:540:CD:4882, H-A:TYR:539:N:4865, V-A:TYR:539:CG:4867, V-A:ILE:369:CG1:3233, V-A:TYR:531:CE1:4787, V-A:PRO:540:CG:4881, V-A:LEU:363:CB:3182"]

$$$$
2b_Ghoteimi_2023
     RDKit          3D

 42 47  0  0  0  0  0  0  0  0999 V2000
  129.8320  123.5750   68.4240 N   0  0  0  0  0  0  0  0  0  0  0  0
  129.8620  124.2620   67.4940 C   0  0  0  0  0  0  0  0  0  0  0  0
  129.9000  125.1380   66.3190 C   0  0  0  0  0  0  0  0  0  0  0  0
  129.7830  126.5430   66.4640 C   0  0  0  0  0  0  0  0  0  0  0  0
  129.6190  127.2310   67.7790 C   0  0  0  0  0  0  0  0  0  0  0  0
  130.6140  128.0860   68.2560 C   0  0  0  0  0  0  0  0  0  0  0  0
  130.4660  128.7290   69.4810 C   0  0  0  0  0  0  0  0  0  0  0  0
  129.3250  128.5210   70.2720 C   0  0  0  0  0  0  0  0  0  0  0  0
  129.1490  129.1650   71.4980 N   0  0  0  0  0  0  0  0  0  0  0  0
  128.2160  128.5860   72.4860 C   0  0  0  0  0  0  0  0  0  0  0  0
  127.8290  129.5700   73.6110 C   0  0  0  0  0  0  0  0  0  0  0  0
  128.9960  130.0730   74.2430 O   0  0  0  0  0  0  0  0  0  0  0  0
  129.8340  130.7600   73.3270 C   0  0  0  0  0  0  0  0  0  0  0  0
  130.2790  129.8030   72.2030 C   0  0  0  0  0  0  0  0  0  0  0  0
  128.3330  127.6590   69.7860 C   0  0  0  0  0  0  0  0  0  0  0  0
  128.4790  127.0190   68.5590 C   0  0  0  0  0  0  0  0  0  0  0  0
  129.8300  127.3390   65.3130 C   0  0  0  0  0  0  0  0  0  0  0  0
  130.0200  126.7560   64.0570 C   0  0  0  0  0  0  0  0  0  0  0  0
  130.1080  127.5630   62.8010 C   0  0  0  0  0  0  0  0  0  0  0  0
  130.8590  127.1090   61.7110 C   0  0  0  0  0  0  0  0  0  0  0  0
  130.9320  127.8470   60.5330 C   0  0  0  0  0  0  0  0  0  0  0  0
  130.2650  129.0760   60.4040 C   0  0  0  0  0  0  0  0  0  0  0  0
  130.3040  129.8140   59.2160 N   0  0  0  0  0  0  0  0  0  0  0  0
  129.4870  131.0380   59.0830 C   0  0  0  0  0  0  0  0  0  0  0  0
  129.3260  131.5170   57.6240 C   0  0  0  0  0  0  0  0  0  0  0  0
  130.6010  131.6890   57.0250 O   0  0  0  0  0  0  0  0  0  0  0  0
  131.3320  130.4740   57.0010 C   0  0  0  0  0  0  0  0  0  0  0  0
  131.5510  129.9600   58.4400 C   0  0  0  0  0  0  0  0  0  0  0  0
  129.5080  129.5240   61.4960 C   0  0  0  0  0  0  0  0  0  0  0  0
  129.4330  128.7840   62.6720 C   0  0  0  0  0  0  0  0  0  0  0  0
  130.1330  125.4100   63.9200 N   0  0  0  0  0  0  0  0  0  0  0  0
  130.0570  124.6170   65.0150 C   0  0  0  0  0  0  0  0  0  0  0  0
  130.2200  122.8830   64.6510 S   0  0  0  0  0  0  0  0  0  0  0  0
  130.8460  122.7350   62.9500 C   0  0  0  0  0  0  0  0  0  0  0  0
  129.7160  122.5560   61.9350 C   0  0  0  0  0  0  0  0  0  0  0  0
  129.7800  121.6370   61.1160 O   0  0  0  0  0  0  0  0  0  0  0  0
  128.7100  123.4530   62.0200 N   0  0  0  0  0  0  0  0  0  0  0  0
  127.5670  123.5130   61.2360 C   0  0  0  0  0  0  0  0  0  0  0  0
  127.5760  123.9470   59.9110 C   0  0  0  0  0  0  0  0  0  0  0  0
  126.2670  123.8580   59.4970 C   0  0  0  0  0  0  0  0  0  0  0  0
  125.5100  123.3950   60.5190 O   0  0  0  0  0  0  0  0  0  0  0  0
  126.3460  123.1780   61.6170 N   0  0  0  0  0  0  0  0  0  0  0  0
  1  2  3  0
  2  3  1  0
  3  4  2  0
  4  5  1  0
  5  6  2  0
  6  7  1  0
  7  8  2  0
  8  9  1  0
  9 10  1  0
 10 11  1  0
 11 12  1  0
 12 13  1  0
 13 14  1  0
  8 15  1  0
 15 16  2  0
  4 17  1  0
 17 18  2  0
 18 19  1  0
 19 20  2  0
 20 21  1  0
 21 22  2  0
 22 23  1  0
 23 24  1  0
 24 25  1  0
 25 26  1  0
 26 27  1  0
 27 28  1  0
 22 29  1  0
 29 30  2  0
 18 31  1  0
 31 32  2  0
 32 33  1  0
 33 34  1  0
 34 35  1  0
 35 36  2  0
 35 37  1  0
 37 38  1  0
 38 39  1  0
 39 40  2  0
 40 41  1  0
 41 42  1  0
 32  3  1  0
 42 38  2  0
 16  5  1  0
 30 19  1  0
 14  9  1  0
 28 23  1  0
M  END
>  <Binding energies>  (10) 
[-9.09]

>  <Ligand effiencies>  (10) 
[-0.2113953488372093]

>  <Interactions>  (10) 
["V-A:GLU:543:CD:4903, V-A:HIS:456:CE1:4064, V-A:GLU:543:CB:4901, V-B:GLU:543:CG:9875, V-B:HIS:456:CD2:9035, V-B:GLU:543:CB:9874, V-B:HIS:456:CE1:9037, V-B:GLU:543:CD:9876, V-B:ALA:541:CB:9860, V-B:PRO:540:CA:9851, H-A:HIS:456:NE2:4065, H-A:TYR:484:OH:4343, H-B:ALA:541:N:9859, H-B:GLU:543:OE2:9878, V-A:TYR:531:CZ:4789, V-A:TYR:484:CZ:4342, V-B:GLU:543:CA:9872, V-A:GLY:544:CA:4909, V-A:LYS:547:CE:4945, H-A:LYS:547:NZ:4946, V-A:TYR:484:CE1:4340, V-A:GLU:543:C:4897, V-B:PRO:540:CB:9853, V-A:GLY:544:C:4907"]

$$$$
2c_Ghoteimi_2023
     RDKit          3D

 42 47  0  0  0  0  0  0  0  0999 V2000
  129.5830  128.3960   66.8900 N   0  0  0  0  0  0  0  0  0  0  0  0
  129.6430  127.4600   67.5680 C   0  0  0  0  0  0  0  0  0  0  0  0
  129.7230  126.2710   68.4220 C   0  0  0  0  0  0  0  0  0  0  0  0
  130.1690  125.0330   67.8950 C   0  0  0  0  0  0  0  0  0  0  0  0
  130.5810  124.8340   66.4730 C   0  0  0  0  0  0  0  0  0  0  0  0
  131.6840  125.5180   65.9590 C   0  0  0  0  0  0  0  0  0  0  0  0
  132.0770  125.3350   64.6360 C   0  0  0  0  0  0  0  0  0  0  0  0
  131.3690  124.4720   63.7850 C   0  0  0  0  0  0  0  0  0  0  0  0
  131.7580  124.2570   62.4610 N   0  0  0  0  0  0  0  0  0  0  0  0
  132.0120  125.4180   61.5850 C   0  0  0  0  0  0  0  0  0  0  0  0
  132.0480  125.0550   60.0860 C   0  0  0  0  0  0  0  0  0  0  0  0
  133.0020  124.0290   59.8570 O   0  0  0  0  0  0  0  0  0  0  0  0
  132.6910  122.8510   60.5850 C   0  0  0  0  0  0  0  0  0  0  0  0
  132.6710  123.1570   62.0970 C   0  0  0  0  0  0  0  0  0  0  0  0
  130.2600  123.7920   64.3100 C   0  0  0  0  0  0  0  0  0  0  0  0
  129.8690  123.9740   65.6330 C   0  0  0  0  0  0  0  0  0  0  0  0
  130.2300  123.9280   68.7530 C   0  0  0  0  0  0  0  0  0  0  0  0
  129.8830  124.0570   70.1010 C   0  0  0  0  0  0  0  0  0  0  0  0
  129.9480  122.9120   71.0600 C   0  0  0  0  0  0  0  0  0  0  0  0
  131.0150  122.7890   71.9560 C   0  0  0  0  0  0  0  0  0  0  0  0
  131.0780  121.7280   72.8550 C   0  0  0  0  0  0  0  0  0  0  0  0
  130.0800  120.7410   72.8850 C   0  0  0  0  0  0  0  0  0  0  0  0
  130.1160  119.6830   73.7980 N   0  0  0  0  0  0  0  0  0  0  0  0
  128.9180  118.8400   73.9950 C   0  0  0  0  0  0  0  0  0  0  0  0
  128.9680  117.9830   75.2780 C   0  0  0  0  0  0  0  0  0  0  0  0
  130.1460  117.1950   75.2900 O   0  0  0  0  0  0  0  0  0  0  0  0
  131.3120  118.0030   75.2650 C   0  0  0  0  0  0  0  0  0  0  0  0
  131.3320  118.8650   73.9850 C   0  0  0  0  0  0  0  0  0  0  0  0
  129.0060  120.8750   71.9940 C   0  0  0  0  0  0  0  0  0  0  0  0
  128.9430  121.9380   71.0960 C   0  0  0  0  0  0  0  0  0  0  0  0
  129.4580  125.2440   70.6030 N   0  0  0  0  0  0  0  0  0  0  0  0
  129.3600  126.3200   69.7870 C   0  0  0  0  0  0  0  0  0  0  0  0
  128.7770  127.7860   70.6080 S   0  0  0  0  0  0  0  0  0  0  0  0
  129.8720  128.0880   72.0280 C   0  0  0  0  0  0  0  0  0  0  0  0
  129.4000  129.2710   72.8750 C   0  0  0  0  0  0  0  0  0  0  0  0
  128.9890  129.0690   74.0190 O   0  0  0  0  0  0  0  0  0  0  0  0
  129.4720  130.4800   72.2790 N   0  0  0  0  0  0  0  0  0  0  0  0
  129.1240  131.7020   72.8350 C   0  0  0  0  0  0  0  0  0  0  0  0
  129.7150  132.8640   72.6670 N   0  0  0  0  0  0  0  0  0  0  0  0
  129.1100  133.8190   73.3460 C   0  0  0  0  0  0  0  0  0  0  0  0
  127.9980  133.4350   74.0880 C   0  0  0  0  0  0  0  0  0  0  0  0
  127.7390  131.7290   73.8790 S   0  0  0  0  0  0  0  0  0  0  0  0
  1  2  3  0
  2  3  1  0
  3  4  2  0
  4  5  1  0
  5  6  2  0
  6  7  1  0
  7  8  2  0
  8  9  1  0
  9 10  1  0
 10 11  1  0
 11 12  1  0
 12 13  1  0
 13 14  1  0
  8 15  1  0
 15 16  2  0
  4 17  1  0
 17 18  2  0
 18 19  1  0
 19 20  2  0
 20 21  1  0
 21 22  2  0
 22 23  1  0
 23 24  1  0
 24 25  1  0
 25 26  1  0
 26 27  1  0
 27 28  1  0
 22 29  1  0
 29 30  2  0
 18 31  1  0
 31 32  2  0
 32 33  1  0
 33 34  1  0
 34 35  1  0
 35 36  2  0
 35 37  1  0
 37 38  1  0
 38 39  2  0
 39 40  1  0
 40 41  2  0
 41 42  1  0
 32  3  1  0
 42 38  1  0
 16  5  1  0
 30 19  1  0
 14  9  1  0
 28 23  1  0
M  END
>  <Binding energies>  (11) 
[-9.21]

>  <Ligand effiencies>  (11) 
[-0.21418604651162793]

>  <Interactions>  (11) 
["V-A:ASP:366:CG:3208, V-A:HIS:456:CE1:4064, V-B:GLU:543:CG:9875, V-B:HIS:456:CD2:9035, V-B:GLU:543:CB:9874, V-A:ILE:369:CD1:3234, V-B:GLU:543:CD:9876, H-B:HIS:456:NE2:9038, H-B:LYS:547:NZ:9919, V-B:GLU:543:C:9870, H-A:HIS:456:NE2:4065, V-A:TYR:484:CZ:4342, V-A:HIS:456:CD2:4063, V-A:ASP:366:CB:3207, V-B:GLU:543:CA:9872, V-A:LYS:547:CE:4945, H-A:LYS:547:NZ:4946, V-A:TYR:484:CE1:4340, H-A:GLU:543:O:4898, V-A:HIS:456:CG:4061, V-B:ASP:473:CB:9206, V-B:ASP:473:CG:9207, V-A:ASP:473:CG:4235, V-A:TYR:484:CD1:4338, V-A:TYR:484:CG:4337, V-A:TYR:484:CB:4336, V-A:ASP:473:CB:4234, V-B:TYR:484:CB:9308, V-A:TYR:484:C:4332, V-A:ASP:485:CA:4348, V-A:ASP:485:C:4346, V-A:PRO:486:N:4358, V-A:PRO:486:CD:4361, V-A:PRO:486:CG:4360"]

$$$$
2j_Grossjean_2025
     RDKit          3D

 23 24  0  0  0  0  0  0  0  0999 V2000
  133.6270  123.0970   58.1480 C   0  0  0  0  0  0  0  0  0  0  0  0
  132.9990  122.6920   59.4680 C   0  0  0  0  0  0  0  0  0  0  0  0
  132.0240  121.7000   59.5380 C   0  0  0  0  0  0  0  0  0  0  0  0
  131.4740  121.3570   60.7820 C   0  0  0  0  0  0  0  0  0  0  0  0
  130.3970  120.2580   60.8410 C   0  0  0  0  0  0  0  0  0  0  0  0
  129.1830  120.8090   60.8630 F   0  0  0  0  0  0  0  0  0  0  0  0
  130.4930  119.4660   59.7720 F   0  0  0  0  0  0  0  0  0  0  0  0
  130.5070  119.4850   61.9230 F   0  0  0  0  0  0  0  0  0  0  0  0
  131.9350  122.0400   61.9360 C   0  0  0  0  0  0  0  0  0  0  0  0
  131.3960  121.7230   63.2620 C   0  0  0  0  0  0  0  0  0  0  0  0
  130.9710  121.4720   64.3090 N   0  0  0  0  0  0  0  0  0  0  0  0
  132.9290  123.0350   61.7730 C   0  0  0  0  0  0  0  0  0  0  0  0
  133.5840  123.9570   63.1560 S   0  0  0  0  0  0  0  0  0  0  0  0
  132.4620  125.3550   63.5000 C   0  0  0  0  0  0  0  0  0  0  0  0
  131.4460  125.1060   64.6240 C   0  0  0  0  0  0  0  0  0  0  0  0
  130.7810  124.0680   64.6540 O   0  0  0  0  0  0  0  0  0  0  0  0
  131.3510  126.1020   65.5320 N   0  0  0  0  0  0  0  0  0  0  0  0
  130.5190  126.1360   66.6440 C   0  0  0  0  0  0  0  0  0  0  0  0
  130.3460  125.1990   67.5510 N   0  0  0  0  0  0  0  0  0  0  0  0
  129.4790  125.5690   68.4730 C   0  0  0  0  0  0  0  0  0  0  0  0
  128.9250  126.8370   68.3220 C   0  0  0  0  0  0  0  0  0  0  0  0
  129.5830  127.5750   66.8920 S   0  0  0  0  0  0  0  0  0  0  0  0
  133.4490  123.3500   60.5600 N   0  0  0  0  0  0  0  0  0  0  0  0
  1  2  1  0
  2  3  2  0
  3  4  1  0
  4  5  1  0
  5  6  1  0
  5  7  1  0
  5  8  1  0
  4  9  2  0
  9 10  1  0
 10 11  3  0
  9 12  1  0
 12 13  1  0
 13 14  1  0
 14 15  1  0
 15 16  2  0
 15 17  1  0
 17 18  1  0
 18 19  2  0
 19 20  1  0
 20 21  2  0
 21 22  1  0
 12 23  2  0
 23  2  1  0
 22 18  1  0
M  END
>  <Binding energies>  (12) 
[-6.12]

>  <Ligand effiencies>  (12) 
[-0.255]

>  <Interactions>  (12) 
["H-A:GLU:543:OE1:4904, V-A:GLU:543:CD:4903, V-A:HIS:456:CE1:4064, V-A:ARG:545:CZ:4921, H-A:GLU:543:OE2:4905, V-B:GLU:543:CB:9874, V-A:ILE:369:CD1:3234, V-B:TYR:539:CE2:9844, V-B:ALA:541:CB:9860, V-A:TRP:381:CZ2:3365, V-A:LEU:475:CD1:4253, V-A:LEU:475:CG:4252, V-B:TYR:539:CD2:9842, V-A:TRP:381:CH2:3367, V-A:LEU:475:CD2:4254, V-B:TYR:539:CG:9840, V-A:TRP:381:CZ3:3366, V-B:TYR:539:C:9835, V-B:GLU:543:C:9870, V-B:PRO:540:CA:9851, V-B:PRO:540:C:9849, H-A:HIS:456:NE2:4065, H-A:TYR:484:OH:4343, V-B:ALA:541:CA:9858, H-A:GLY:454:N:4045, V-B:GLU:543:CA:9872, V-A:ILE:369:CB:3231, V-A:ILE:369:CG2:3232"]

$$$$
3ab_Grossjean_2025
     RDKit          3D

 33 35  0  0  0  0  0  0  0  0999 V2000
  130.2080  118.6180   60.9130 C   0  0  0  0  0  0  0  0  0  0  0  0
  130.6310  119.5620   59.9390 O   0  0  0  0  0  0  0  0  0  0  0  0
  131.8510  120.1510   60.0200 C   0  0  0  0  0  0  0  0  0  0  0  0
  132.8010  119.8530   59.2900 O   0  0  0  0  0  0  0  0  0  0  0  0
  131.9300  121.2060   61.0860 C   0  0  0  0  0  0  0  0  0  0  0  0
  133.1570  121.7300   61.5230 C   0  0  0  0  0  0  0  0  0  0  0  0
  133.2000  122.7080   62.5120 C   0  0  0  0  0  0  0  0  0  0  0  0
  132.0100  123.1810   63.0870 C   0  0  0  0  0  0  0  0  0  0  0  0
  131.9350  124.1690   64.0870 N   0  0  0  0  0  0  0  0  0  0  0  0
  132.9220  124.8390   64.7190 C   0  0  0  0  0  0  0  0  0  0  0  0
  134.1280  124.6830   64.5290 O   0  0  0  0  0  0  0  0  0  0  0  0
  132.4580  125.8670   65.7530 C   0  0  0  0  0  0  0  0  0  0  0  0
  130.9390  125.3450   66.6040 S   0  0  0  0  0  0  0  0  0  0  0  0
  130.0530  126.8180   67.0690 C   0  0  0  0  0  0  0  0  0  0  0  0
  130.0260  127.0350   68.4050 N   0  0  0  0  0  0  0  0  0  0  0  0
  129.3880  128.1270   68.9000 C   0  0  0  0  0  0  0  0  0  0  0  0
  129.4070  128.2950   70.3910 C   0  0  0  0  0  0  0  0  0  0  0  0
  129.4780  127.1790   71.2390 C   0  0  0  0  0  0  0  0  0  0  0  0
  129.4960  127.3290   72.6230 C   0  0  0  0  0  0  0  0  0  0  0  0
  129.4420  128.6030   73.1800 C   0  0  0  0  0  0  0  0  0  0  0  0
  129.3660  129.7260   72.3620 C   0  0  0  0  0  0  0  0  0  0  0  0
  129.3490  129.5700   70.9790 C   0  0  0  0  0  0  0  0  0  0  0  0
  128.7380  129.0250   68.0460 C   0  0  0  0  0  0  0  0  0  0  0  0
  128.7350  128.8120   66.6600 C   0  0  0  0  0  0  0  0  0  0  0  0
  128.0030  129.8210   65.7550 C   0  0  0  0  0  0  0  0  0  0  0  0
  128.2740  129.6470   64.4600 F   0  0  0  0  0  0  0  0  0  0  0  0
  126.6830  129.7000   65.9060 F   0  0  0  0  0  0  0  0  0  0  0  0
  128.3620  131.0650   66.0770 F   0  0  0  0  0  0  0  0  0  0  0  0
  129.4040  127.6720   66.1490 C   0  0  0  0  0  0  0  0  0  0  0  0
  129.3840  127.3720   64.7140 C   0  0  0  0  0  0  0  0  0  0  0  0
  129.3660  127.1380   63.5810 N   0  0  0  0  0  0  0  0  0  0  0  0
  130.7890  122.6660   62.6500 C   0  0  0  0  0  0  0  0  0  0  0  0
  130.7480  121.6870   61.6620 C   0  0  0  0  0  0  0  0  0  0  0  0
  1  2  1  0
  2  3  1  0
  3  4  2  0
  3  5  1  0
  5  6  2  0
  6  7  1  0
  7  8  2  0
  8  9  1  0
  9 10  1  0
 10 11  2  0
 10 12  1  0
 12 13  1  0
 13 14  1  0
 14 15  2  0
 15 16  1  0
 16 17  1  0
 17 18  2  0
 18 19  1  0
 19 20  2  0
 20 21  1  0
 21 22  2  0
 16 23  2  0
 23 24  1  0
 24 25  1  0
 25 26  1  0
 25 27  1  0
 25 28  1  0
 24 29  2  0
 29 30  1  0
 30 31  3  0
  8 32  1  0
 32 33  2  0
 33  5  1  0
 29 14  1  0
 22 17  1  0
M  END
>  <Binding energies>  (13) 
[-7.02]

>  <Ligand effiencies>  (13) 
[-0.2064705882352941]

>  <Interactions>  (13) 
["V-A:GLU:543:CD:4903, V-A:HIS:456:CE1:4064, V-A:ARG:545:CZ:4921, V-A:GLU:543:CB:4901, V-B:HIS:456:CD2:9035, V-A:ILE:369:CD1:3234, V-B:HIS:456:CE1:9037, V-B:TYR:539:CE2:9844, V-B:ALA:541:CB:9860, V-A:TRP:381:CZ2:3365, V-B:TYR:539:CD2:9842, V-A:PRO:482:CG:4322, V-A:TRP:381:CH2:3367, V-A:LEU:475:CD2:4254, V-A:PRO:482:CB:4321, V-A:TRP:381:CE2:3362, V-A:TRP:381:CZ3:3366, V-A:GLU:543:CG:4902, H-A:HIS:456:NE2:4065, H-A:TYR:484:OH:4343, V-A:GLY:454:CA:4044, H-A:GLY:454:N:4045, V-B:TYR:484:CZ:9314, V-A:LYS:547:CE:4945, V-A:GLU:543:C:4897, V-B:TYR:484:CE1:9312"]

$$$$
3ac_Grossjean_2025
     RDKit          3D

 31 33  0  0  0  0  0  0  0  0999 V2000
  133.5580  124.4130   62.2770 C   0  0  0  0  0  0  0  0  0  0  0  0
  133.6560  124.0720   63.6560 O   0  0  0  0  0  0  0  0  0  0  0  0
  132.8880  124.7580   64.5780 C   0  0  0  0  0  0  0  0  0  0  0  0
  133.5790  125.4990   65.5360 C   0  0  0  0  0  0  0  0  0  0  0  0
  132.8900  126.2250   66.5020 C   0  0  0  0  0  0  0  0  0  0  0  0
  131.4950  126.2140   66.5290 C   0  0  0  0  0  0  0  0  0  0  0  0
  130.8880  126.9950   67.5300 N   0  0  0  0  0  0  0  0  0  0  0  0
  129.8690  126.6770   68.3580 C   0  0  0  0  0  0  0  0  0  0  0  0
  129.3050  125.5830   68.4040 O   0  0  0  0  0  0  0  0  0  0  0  0
  129.4130  127.7910   69.3000 C   0  0  0  0  0  0  0  0  0  0  0  0
  128.3950  127.1600   70.6700 S   0  0  0  0  0  0  0  0  0  0  0  0
  129.4250  126.1750   71.7400 C   0  0  0  0  0  0  0  0  0  0  0  0
  129.1090  124.8570   71.7190 N   0  0  0  0  0  0  0  0  0  0  0  0
  129.8120  123.9800   72.4800 C   0  0  0  0  0  0  0  0  0  0  0  0
  129.3940  122.5420   72.4040 C   0  0  0  0  0  0  0  0  0  0  0  0
  128.7550  122.0390   71.2590 C   0  0  0  0  0  0  0  0  0  0  0  0
  128.3700  120.7040   71.1800 C   0  0  0  0  0  0  0  0  0  0  0  0
  128.6170  119.8500   72.2500 C   0  0  0  0  0  0  0  0  0  0  0  0
  129.2440  120.3230   73.3980 C   0  0  0  0  0  0  0  0  0  0  0  0
  129.6280  121.6590   73.4730 C   0  0  0  0  0  0  0  0  0  0  0  0
  130.8520  124.4210   73.3040 C   0  0  0  0  0  0  0  0  0  0  0  0
  131.1850  125.7820   73.3620 C   0  0  0  0  0  0  0  0  0  0  0  0
  132.3340  126.2250   74.2890 C   0  0  0  0  0  0  0  0  0  0  0  0
  133.2230  125.2550   74.5120 F   0  0  0  0  0  0  0  0  0  0  0  0
  132.9950  127.2500   73.7470 F   0  0  0  0  0  0  0  0  0  0  0  0
  131.8440  126.6030   75.4700 F   0  0  0  0  0  0  0  0  0  0  0  0
  130.4440  126.6950   72.5710 C   0  0  0  0  0  0  0  0  0  0  0  0
  130.7040  128.1330   72.6560 C   0  0  0  0  0  0  0  0  0  0  0  0
  130.9090  129.2710   72.7240 N   0  0  0  0  0  0  0  0  0  0  0  0
  130.7920  125.4770   65.5640 C   0  0  0  0  0  0  0  0  0  0  0  0
  131.4840  124.7520   64.5980 C   0  0  0  0  0  0  0  0  0  0  0  0
  1  2  1  0
  2  3  1  0
  3  4  2  0
  4  5  1  0
  5  6  2  0
  6  7  1  0
  7  8  1  0
  8  9  2  0
  8 10  1  0
 10 11  1  0
 11 12  1  0
 12 13  2  0
 13 14  1  0
 14 15  1  0
 15 16  2  0
 16 17  1  0
 17 18  2  0
 18 19  1  0
 19 20  2  0
 14 21  2  0
 21 22  1  0
 22 23  1  0
 23 24  1  0
 23 25  1  0
 23 26  1  0
 22 27  2  0
 27 28  1  0
 28 29  3  0
  6 30  1  0
 30 31  2  0
 31  3  1  0
 27 12  1  0
 20 15  1  0
M  END
>  <Binding energies>  (14) 
[-6.56]

>  <Ligand effiencies>  (14) 
[-0.205]

>  <Interactions>  (14) 
["H-A:GLU:543:OE1:4904, V-A:ASP:366:CG:3208, V-A:HIS:456:CE1:4064, V-A:ARG:545:CZ:4921, H-B:LYS:547:NZ:9919, V-B:GLU:543:C:9870, H-A:HIS:456:NE2:4065, H-A:TYR:484:OH:4343, V-A:ARG:545:CD:4918, H-A:GLY:454:N:4045, V-A:HIS:456:CD2:4063, V-B:GLU:543:CA:9872, V-A:LYS:547:CE:4945, H-A:LYS:547:NZ:4946, V-A:ARG:545:CG:4917, V-A:GLY:544:C:4907, V-A:HIS:456:CG:4061, V-A:HIS:456:CB:4060, V-A:LYS:547:CD:4944, V-A:TYR:484:CD1:4338, V-A:TYR:484:CG:4337, V-A:TYR:484:CB:4336, V-A:LYS:547:CG:4943"]

$$$$
3af_Grossjean_2025
     RDKit          3D

 29 31  0  0  0  0  0  0  0  0999 V2000
  128.7700  128.3200   67.3450 N   0  0  0  0  0  0  0  0  0  0  0  0
  129.0410  127.4130   68.0110 C   0  0  0  0  0  0  0  0  0  0  0  0
  129.3840  126.2640   68.8530 C   0  0  0  0  0  0  0  0  0  0  0  0
  129.8300  125.0520   68.2740 C   0  0  0  0  0  0  0  0  0  0  0  0
  130.0300  124.8790   66.7550 C   0  0  0  0  0  0  0  0  0  0  0  0
  131.2250  125.3030   66.3370 F   0  0  0  0  0  0  0  0  0  0  0  0
  129.9230  123.5910   66.4250 F   0  0  0  0  0  0  0  0  0  0  0  0
  129.1070  125.5740   66.0890 F   0  0  0  0  0  0  0  0  0  0  0  0
  130.0940  123.9620   69.1170 C   0  0  0  0  0  0  0  0  0  0  0  0
  129.9150  124.0780   70.4990 C   0  0  0  0  0  0  0  0  0  0  0  0
  130.1640  122.9410   71.4440 C   0  0  0  0  0  0  0  0  0  0  0  0
  129.1790  121.9640   71.6670 C   0  0  0  0  0  0  0  0  0  0  0  0
  129.4050  120.9040   72.5410 C   0  0  0  0  0  0  0  0  0  0  0  0
  130.6220  120.8070   73.2060 C   0  0  0  0  0  0  0  0  0  0  0  0
  131.6160  121.7590   73.0020 C   0  0  0  0  0  0  0  0  0  0  0  0
  131.3860  122.8170   72.1260 C   0  0  0  0  0  0  0  0  0  0  0  0
  129.4830  125.2410   71.0510 N   0  0  0  0  0  0  0  0  0  0  0  0
  129.2440  126.3140   70.2590 C   0  0  0  0  0  0  0  0  0  0  0  0
  128.7000  127.7500   71.1620 S   0  0  0  0  0  0  0  0  0  0  0  0
  130.0820  128.3190   72.1990 C   0  0  0  0  0  0  0  0  0  0  0  0
  130.6440  127.1920   73.0650 C   0  0  0  0  0  0  0  0  0  0  0  0
  129.8770  126.3370   73.5070 O   0  0  0  0  0  0  0  0  0  0  0  0
  131.9770  127.2390   73.2820 N   0  0  0  0  0  0  0  0  0  0  0  0
  132.7960  126.3710   74.0300 C   0  0  0  0  0  0  0  0  0  0  0  0
  132.3700  125.2000   74.6840 C   0  0  0  0  0  0  0  0  0  0  0  0
  133.2940  124.4320   75.3960 C   0  0  0  0  0  0  0  0  0  0  0  0
  134.6230  124.8540   75.4370 C   0  0  0  0  0  0  0  0  0  0  0  0
  135.0590  125.9770   74.8160 N   0  0  0  0  0  0  0  0  0  0  0  0
  134.1490  126.7130   74.1280 C   0  0  0  0  0  0  0  0  0  0  0  0
  1  2  3  0
  2  3  1  0
  3  4  2  0
  4  5  1  0
  5  6  1  0
  5  7  1  0
  5  8  1  0
  4  9  1  0
  9 10  2  0
 10 11  1  0
 11 12  2  0
 12 13  1  0
 13 14  2  0
 14 15  1  0
 15 16  2  0
 10 17  1  0
 17 18  2  0
 18 19  1  0
 19 20  1  0
 20 21  1  0
 21 22  2  0
 21 23  1  0
 23 24  1  0
 24 25  2  0
 25 26  1  0
 26 27  2  0
 27 28  1  0
 28 29  2  0
 18  3  1  0
 29 24  1  0
 16 11  1  0
M  END
>  <Binding energies>  (15) 
[-6.88]

>  <Ligand effiencies>  (15) 
[-0.22933333333333333]

>  <Interactions>  (15) 
["V-A:HIS:456:CE1:4064, V-B:GLU:543:CG:9875, V-B:GLU:543:CB:9874, V-B:GLU:543:CD:9876, H-B:LYS:547:NZ:9919, V-B:GLU:543:C:9870, V-A:TYR:484:CZ:4342, V-A:HIS:456:CD2:4063, V-B:GLU:543:CA:9872, V-A:LYS:547:CE:4945, V-A:TYR:484:CE1:4340, V-A:HIS:456:CG:4061, V-A:HIS:456:CB:4060, V-A:VAL:458:CG2:4082, V-A:LYS:547:CD:4944, V-A:ASP:473:CG:4235, V-A:HIS:456:C:4056, V-A:TYR:484:CD1:4338, H-A:GLY:544:O:4908, V-A:TYR:484:CG:4337, V-A:TYR:484:CB:4336, V-A:TYR:484:CD2:4339, H-A:HIS:456:ND1:4062, V-A:ASP:473:CB:4234, V-A:LYS:547:CG:4943, V-A:ARG:545:C:4912, H-A:VAL:457:N:4071"]

$$$$
3ag_Grossjean_2025
     RDKit          3D

 30 32  0  0  0  0  0  0  0  0999 V2000
  129.4780  125.2060   72.5280 N   0  0  0  0  0  0  0  0  0  0  0  0
  129.3740  125.8210   71.5530 C   0  0  0  0  0  0  0  0  0  0  0  0
  129.2410  126.6030   70.3200 C   0  0  0  0  0  0  0  0  0  0  0  0
  128.8890  127.9740   70.3670 C   0  0  0  0  0  0  0  0  0  0  0  0
  128.6830  128.7360   71.6910 C   0  0  0  0  0  0  0  0  0  0  0  0
  129.5740  128.3990   72.6250 F   0  0  0  0  0  0  0  0  0  0  0  0
  128.7970  130.0470   71.4810 F   0  0  0  0  0  0  0  0  0  0  0  0
  127.4710  128.4790   72.1850 F   0  0  0  0  0  0  0  0  0  0  0  0
  128.7220  128.6650   69.1570 C   0  0  0  0  0  0  0  0  0  0  0  0
  128.8900  128.0040   67.9360 C   0  0  0  0  0  0  0  0  0  0  0  0
  128.7220  128.6920   66.6150 C   0  0  0  0  0  0  0  0  0  0  0  0
  128.5140  130.0790   66.5500 C   0  0  0  0  0  0  0  0  0  0  0  0
  128.3570  130.7250   65.3270 C   0  0  0  0  0  0  0  0  0  0  0  0
  128.4050  129.9890   64.1470 C   0  0  0  0  0  0  0  0  0  0  0  0
  128.6060  128.6120   64.1840 C   0  0  0  0  0  0  0  0  0  0  0  0
  128.7620  127.9710   65.4090 C   0  0  0  0  0  0  0  0  0  0  0  0
  129.2400  126.6920   67.8950 N   0  0  0  0  0  0  0  0  0  0  0  0
  129.4260  126.0100   69.0510 C   0  0  0  0  0  0  0  0  0  0  0  0
  129.8830  124.3080   68.8060 S   0  0  0  0  0  0  0  0  0  0  0  0
  129.6320  123.9270   67.0460 C   0  0  0  0  0  0  0  0  0  0  0  0
  130.5100  124.7890   66.1380 C   0  0  0  0  0  0  0  0  0  0  0  0
  131.6120  125.1720   66.5320 O   0  0  0  0  0  0  0  0  0  0  0  0
  130.0100  125.0780   64.9230 N   0  0  0  0  0  0  0  0  0  0  0  0
  130.6920  125.8530   63.8870 C   0  0  0  0  0  0  0  0  0  0  0  0
  131.9590  125.1960   63.3520 C   0  0  0  0  0  0  0  0  0  0  0  0
  133.1900  125.4710   63.9530 C   0  0  0  0  0  0  0  0  0  0  0  0
  134.3460  124.8510   63.4870 C   0  0  0  0  0  0  0  0  0  0  0  0
  134.2660  123.9500   62.4270 C   0  0  0  0  0  0  0  0  0  0  0  0
  133.0400  123.6590   61.8330 C   0  0  0  0  0  0  0  0  0  0  0  0
  131.8830  124.2790   62.2990 C   0  0  0  0  0  0  0  0  0  0  0  0
  1  2  3  0
  2  3  1  0
  3  4  2  0
  4  5  1  0
  5  6  1  0
  5  7  1  0
  5  8  1  0
  4  9  1  0
  9 10  2  0
 10 11  1  0
 11 12  2  0
 12 13  1  0
 13 14  2  0
 14 15  1  0
 15 16  2  0
 10 17  1  0
 17 18  2  0
 18 19  1  0
 19 20  1  0
 20 21  1  0
 21 22  2  0
 21 23  1  0
 23 24  1  0
 24 25  1  0
 25 26  2  0
 26 27  1  0
 27 28  2  0
 28 29  1  0
 29 30  2  0
 18  3  1  0
 30 25  1  0
 16 11  1  0
M  END
>  <Binding energies>  (16) 
[-6.65]

>  <Ligand effiencies>  (16) 
[-0.21451612903225808]

>  <Interactions>  (16) 
["V-A:GLU:543:CD:4903, V-A:ASP:366:CG:3208, V-A:HIS:456:CE1:4064, V-A:ARG:545:CZ:4921, V-A:GLU:543:CB:4901, V-B:GLU:543:CG:9875, V-B:HIS:456:CD2:9035, V-B:GLU:543:CB:9874, V-A:ILE:369:CD1:3234, V-B:HIS:456:CE1:9037, V-B:GLU:543:CD:9876, V-A:GLU:543:CG:4902, H-B:LYS:547:NZ:9919, V-B:GLU:543:C:9870, H-A:HIS:456:NE2:4065, H-A:TYR:484:OH:4343, H-B:GLU:543:OE2:9878, V-A:GLY:453:C:4037, V-A:TYR:484:CZ:4342, V-A:GLY:453:CA:4039, V-B:GLU:543:CA:9872, V-B:TYR:484:CZ:9314, V-A:TYR:484:CE1:4340, V-B:HIS:456:CG:9033, V-B:TYR:484:CE1:9312"]

$$$$
3bc_Grossjean_2025
     RDKit          3D

 28 30  0  0  0  0  0  0  0  0999 V2000
  128.6940  130.8230   73.8230 C   0  0  0  0  0  0  0  0  0  0  0  0
  129.1440  129.4800   73.6810 O   0  0  0  0  0  0  0  0  0  0  0  0
  129.2260  128.9280   72.4170 C   0  0  0  0  0  0  0  0  0  0  0  0
  128.1650  128.1130   72.0240 C   0  0  0  0  0  0  0  0  0  0  0  0
  128.1590  127.5120   70.7680 C   0  0  0  0  0  0  0  0  0  0  0  0
  129.2240  127.7130   69.8880 C   0  0  0  0  0  0  0  0  0  0  0  0
  129.1240  127.0750   68.6370 N   0  0  0  0  0  0  0  0  0  0  0  0
  128.9100  127.6170   67.4190 C   0  0  0  0  0  0  0  0  0  0  0  0
  128.8000  128.8250   67.1980 O   0  0  0  0  0  0  0  0  0  0  0  0
  128.8480  126.6030   66.2680 C   0  0  0  0  0  0  0  0  0  0  0  0
  129.5360  124.9570   66.6460 S   0  0  0  0  0  0  0  0  0  0  0  0
  130.8050  124.6090   65.4490 C   0  0  0  0  0  0  0  0  0  0  0  0
  130.4190  123.7420   64.4810 N   0  0  0  0  0  0  0  0  0  0  0  0
  131.2900  123.3910   63.5000 C   0  0  0  0  0  0  0  0  0  0  0  0
  130.7920  122.4100   62.4800 C   0  0  0  0  0  0  0  0  0  0  0  0
  131.6330  121.4020   61.9850 C   0  0  0  0  0  0  0  0  0  0  0  0
  131.1770  120.4880   61.0380 C   0  0  0  0  0  0  0  0  0  0  0  0
  129.8700  120.5730   60.5710 C   0  0  0  0  0  0  0  0  0  0  0  0
  129.0170  121.5650   61.0430 C   0  0  0  0  0  0  0  0  0  0  0  0
  129.4770  122.4770   61.9890 C   0  0  0  0  0  0  0  0  0  0  0  0
  132.5880  123.9110   63.4710 C   0  0  0  0  0  0  0  0  0  0  0  0
  132.9950  124.8260   64.4490 C   0  0  0  0  0  0  0  0  0  0  0  0
  134.4160  125.3820   64.3690 C   0  0  0  0  0  0  0  0  0  0  0  0
  132.0880  125.2010   65.4640 C   0  0  0  0  0  0  0  0  0  0  0  0
  132.4760  126.1930   66.4690 C   0  0  0  0  0  0  0  0  0  0  0  0
  132.7850  126.9770   67.2630 N   0  0  0  0  0  0  0  0  0  0  0  0
  130.2880  128.5420   70.2700 C   0  0  0  0  0  0  0  0  0  0  0  0
  130.2900  129.1420   71.5270 C   0  0  0  0  0  0  0  0  0  0  0  0
  1  2  1  0
  2  3  1  0
  3  4  2  0
  4  5  1  0
  5  6  2  0
  6  7  1  0
  7  8  1  0
  8  9  2  0
  8 10  1  0
 10 11  1  0
 11 12  1  0
 12 13  2  0
 13 14  1  0
 14 15  1  0
 15 16  2  0
 16 17  1  0
 17 18  2  0
 18 19  1  0
 19 20  2  0
 14 21  2  0
 21 22  1  0
 22 23  1  0
 22 24  2  0
 24 25  1  0
 25 26  3  0
  6 27  1  0
 27 28  2  0
 28  3  1  0
 24 12  1  0
 20 15  1  0
M  END
>  <Binding energies>  (17) 
[-6.65]

>  <Ligand effiencies>  (17) 
[-0.22931034482758622]

>  <Interactions>  (17) 
["V-A:HIS:456:CE1:4064, V-A:ARG:545:CZ:4921, V-B:GLU:543:CG:9875, V-B:HIS:456:CD2:9035, V-B:GLU:543:CB:9874, V-B:HIS:456:CE1:9037, V-B:GLU:543:CD:9876, V-B:ALA:541:CB:9860, V-B:TYR:539:CD2:9842, V-A:LEU:475:CD2:4254, V-B:PRO:540:C:9849, H-A:HIS:456:NE2:4065, H-A:TYR:484:OH:4343, V-A:GLY:453:C:4037, V-B:ALA:541:CA:9858, V-A:TYR:484:CZ:4342, V-A:GLY:453:CA:4039, V-A:ARG:545:CD:4918, V-A:HIS:456:CD2:4063, H-A:LYS:547:NZ:4946, V-A:GLU:543:C:4897, H-B:GLU:543:O:9871, V-A:ARG:545:CG:4917, V-A:GLY:544:C:4907, H-A:ARG:545:NE:4919"]

$$$$
3bd_Grossjean_2025
     RDKit          3D

 26 28  0  0  0  0  0  0  0  0999 V2000
  129.9230  124.8280   66.7280 C   0  0  0  0  0  0  0  0  0  0  0  0
  129.7510  125.0150   68.2340 C   0  0  0  0  0  0  0  0  0  0  0  0
  130.0240  123.9280   69.0710 C   0  0  0  0  0  0  0  0  0  0  0  0
  129.8740  124.0570   70.4570 C   0  0  0  0  0  0  0  0  0  0  0  0
  130.1540  122.9340   71.4110 C   0  0  0  0  0  0  0  0  0  0  0  0
  131.3880  122.8470   72.0740 C   0  0  0  0  0  0  0  0  0  0  0  0
  131.6550  121.8050   72.9600 C   0  0  0  0  0  0  0  0  0  0  0  0
  130.6870  120.8330   73.1940 C   0  0  0  0  0  0  0  0  0  0  0  0
  129.4580  120.8950   72.5470 C   0  0  0  0  0  0  0  0  0  0  0  0
  129.1950  121.9370   71.6620 C   0  0  0  0  0  0  0  0  0  0  0  0
  129.4790  125.2350   71.0060 N   0  0  0  0  0  0  0  0  0  0  0  0
  129.2090  126.3000   70.2090 C   0  0  0  0  0  0  0  0  0  0  0  0
  128.6870  127.7850   71.0530 S   0  0  0  0  0  0  0  0  0  0  0  0
  130.0700  128.3640   72.0820 C   0  0  0  0  0  0  0  0  0  0  0  0
  130.6160  127.2560   72.9840 C   0  0  0  0  0  0  0  0  0  0  0  0
  129.8440  126.3980   73.4120 O   0  0  0  0  0  0  0  0  0  0  0  0
  131.9380  127.3200   73.2550 N   0  0  0  0  0  0  0  0  0  0  0  0
  132.7280  126.4430   74.0220 C   0  0  0  0  0  0  0  0  0  0  0  0
  134.0970  126.7200   74.0550 C   0  0  0  0  0  0  0  0  0  0  0  0
  134.9600  125.9020   74.7800 C   0  0  0  0  0  0  0  0  0  0  0  0
  134.4550  124.8000   75.4650 C   0  0  0  0  0  0  0  0  0  0  0  0
  133.0930  124.5060   75.4280 C   0  0  0  0  0  0  0  0  0  0  0  0
  132.2280  125.3230   74.7050 C   0  0  0  0  0  0  0  0  0  0  0  0
  129.3310  126.2360   68.8050 C   0  0  0  0  0  0  0  0  0  0  0  0
  129.0380  127.3940   67.9550 C   0  0  0  0  0  0  0  0  0  0  0  0
  128.8090  128.3080   67.2830 N   0  0  0  0  0  0  0  0  0  0  0  0
  1  2  1  0
  2  3  2  0
  3  4  1  0
  4  5  1  0
  5  6  2  0
  6  7  1  0
  7  8  2  0
  8  9  1  0
  9 10  2  0
  4 11  2  0
 11 12  1  0
 12 13  1  0
 13 14  1  0
 14 15  1  0
 15 16  2  0
 15 17  1  0
 17 18  1  0
 18 19  2  0
 19 20  1  0
 20 21  2  0
 21 22  1  0
 22 23  2  0
 12 24  2  0
 24 25  1  0
 25 26  3  0
 24  2  1  0
 10  5  1  0
 23 18  1  0
M  END
>  <Binding energies>  (18) 
[-7.64]

>  <Ligand effiencies>  (18) 
[-0.28296296296296297]

>  <Interactions>  (18) 
["V-A:HIS:456:CE1:4064, V-B:GLU:543:CG:9875, V-B:GLU:543:CB:9874, H-B:LYS:547:NZ:9919, V-B:GLU:543:C:9870, V-A:TYR:484:CZ:4342, V-A:HIS:456:CD2:4063, V-B:GLU:543:CA:9872, V-A:LYS:547:CE:4945, V-A:TYR:484:CE1:4340, V-A:GLY:544:C:4907, V-A:HIS:456:CG:4061, V-A:HIS:456:CB:4060, V-A:VAL:457:C:4068, V-A:VAL:458:CG2:4082, V-A:LYS:547:CD:4944, V-A:ASP:473:CG:4235, V-A:HIS:456:C:4056, V-A:TYR:484:CD1:4338, H-A:GLY:544:O:4908, V-A:TYR:484:CG:4337, V-A:TYR:484:CB:4336, V-A:TYR:484:CD2:4339, H-A:HIS:456:ND1:4062, V-A:ASP:473:CB:4234, V-A:LYS:547:CG:4943, V-A:ARG:545:C:4912, V-A:HIS:456:CA:4058"]

$$$$
3be_Grossjean_2025
     RDKit          3D

 27 29  0  0  0  0  0  0  0  0999 V2000
  131.2820  132.0390   56.7840 C   0  0  0  0  0  0  0  0  0  0  0  0
  131.9160  131.4530   58.0300 C   0  0  0  0  0  0  0  0  0  0  0  0
  133.2200  130.9520   58.0210 C   0  0  0  0  0  0  0  0  0  0  0  0
  133.7370  130.4240   59.2040 C   0  0  0  0  0  0  0  0  0  0  0  0
  132.9470  130.4120   60.3570 C   0  0  0  0  0  0  0  0  0  0  0  0
  131.6500  130.9340   60.2980 C   0  0  0  0  0  0  0  0  0  0  0  0
  130.9020  130.8830   61.4890 N   0  0  0  0  0  0  0  0  0  0  0  0
  130.0910  131.8240   62.0190 C   0  0  0  0  0  0  0  0  0  0  0  0
  129.8780  132.9280   61.5150 O   0  0  0  0  0  0  0  0  0  0  0  0
  129.4180  131.4220   63.3410 C   0  0  0  0  0  0  0  0  0  0  0  0
  128.2070  130.0620   63.2130 S   0  0  0  0  0  0  0  0  0  0  0  0
  128.8590  128.6570   64.0900 C   0  0  0  0  0  0  0  0  0  0  0  0
  128.3160  128.4850   65.3200 N   0  0  0  0  0  0  0  0  0  0  0  0
  128.7190  127.4470   66.1000 C   0  0  0  0  0  0  0  0  0  0  0  0
  128.0790  127.3360   67.4520 C   0  0  0  0  0  0  0  0  0  0  0  0
  126.7060  127.0740   67.5770 C   0  0  0  0  0  0  0  0  0  0  0  0
  126.1060  126.9720   68.8280 C   0  0  0  0  0  0  0  0  0  0  0  0
  126.8730  127.1320   69.9770 C   0  0  0  0  0  0  0  0  0  0  0  0
  128.2350  127.3940   69.8820 C   0  0  0  0  0  0  0  0  0  0  0  0
  128.8320  127.4960   68.6280 C   0  0  0  0  0  0  0  0  0  0  0  0
  129.6940  126.5500   65.6510 C   0  0  0  0  0  0  0  0  0  0  0  0
  130.2470  126.6990   64.3750 C   0  0  0  0  0  0  0  0  0  0  0  0
  131.2960  125.6850   63.9210 C   0  0  0  0  0  0  0  0  0  0  0  0
  129.8200  127.7680   63.5580 C   0  0  0  0  0  0  0  0  0  0  0  0
  130.3450  127.9110   62.1980 C   0  0  0  0  0  0  0  0  0  0  0  0
  130.7610  128.0220   61.1240 N   0  0  0  0  0  0  0  0  0  0  0  0
  131.1370  131.4480   59.1420 N   0  0  0  0  0  0  0  0  0  0  0  0
  1  2  1  0
  2  3  2  0
  3  4  1  0
  4  5  2  0
  5  6  1  0
  6  7  1  0
  7  8  1  0
  8  9  2  0
  8 10  1  0
 10 11  1  0
 11 12  1  0
 12 13  2  0
 13 14  1  0
 14 15  1  0
 15 16  2  0
 16 17  1  0
 17 18  2  0
 18 19  1  0
 19 20  2  0
 14 21  2  0
 21 22  1  0
 22 23  1  0
 22 24  2  0
 24 25  1  0
 25 26  3  0
  6 27  2  0
 27  2  1  0
 24 12  1  0
 20 15  1  0
M  END
>  <Binding energies>  (19) 
[-7.18]

>  <Ligand effiencies>  (19) 
[-0.2564285714285714]

>  <Interactions>  (19) 
["V-A:GLU:543:CD:4903, V-A:ASP:366:CG:3208, V-B:GLU:543:CG:9875, H-A:GLU:543:OE2:4905, V-B:GLU:543:CB:9874, V-B:HIS:456:CE1:9037, V-B:GLU:543:CD:9876, H-A:ALA:541:N:4886, V-A:PRO:540:CA:4878, V-A:PRO:540:CB:4880, V-A:GLU:543:CG:4902, V-B:ARG:545:CG:9890, V-B:GLY:544:C:9880, V-B:GLU:543:C:9870, V-A:TYR:531:CE2:4788, V-A:LEU:363:CA:3180, V-A:LEU:363:CD1:3184, V-A:ASN:362:C:3167, V-A:PRO:540:CD:4882, V-B:ARG:545:CA:9887, V-B:ARG:545:CB:9889"]

$$$$
3bf_Grossjean_2025
     RDKit          3D

 26 28  0  0  0  0  0  0  0  0999 V2000
  130.4670  118.8220   61.5840 C   0  0  0  0  0  0  0  0  0  0  0  0
  130.4200  120.1810   60.8890 C   0  0  0  0  0  0  0  0  0  0  0  0
  129.1850  120.8280   60.7880 C   0  0  0  0  0  0  0  0  0  0  0  0
  129.1000  122.0820   60.1710 C   0  0  0  0  0  0  0  0  0  0  0  0
  127.8100  122.8370   60.0510 C   0  0  0  0  0  0  0  0  0  0  0  0
  127.1130  123.2500   61.1970 C   0  0  0  0  0  0  0  0  0  0  0  0
  125.9150  123.9520   61.0930 C   0  0  0  0  0  0  0  0  0  0  0  0
  125.3960  124.2490   59.8370 C   0  0  0  0  0  0  0  0  0  0  0  0
  126.0670  123.8490   58.6860 C   0  0  0  0  0  0  0  0  0  0  0  0
  127.2640  123.1470   58.7940 C   0  0  0  0  0  0  0  0  0  0  0  0
  130.2080  122.6860   59.6640 N   0  0  0  0  0  0  0  0  0  0  0  0
  131.4090  122.0600   59.7320 C   0  0  0  0  0  0  0  0  0  0  0  0
  132.7410  122.9950   59.0140 S   0  0  0  0  0  0  0  0  0  0  0  0
  133.2860  124.2360   60.2360 C   0  0  0  0  0  0  0  0  0  0  0  0
  132.2870  124.5170   61.3690 C   0  0  0  0  0  0  0  0  0  0  0  0
  131.1160  124.8060   61.1170 O   0  0  0  0  0  0  0  0  0  0  0  0
  132.7960  124.3900   62.6130 N   0  0  0  0  0  0  0  0  0  0  0  0
  132.1590  124.5860   63.8520 C   0  0  0  0  0  0  0  0  0  0  0  0
  130.8690  124.0640   63.9970 C   0  0  0  0  0  0  0  0  0  0  0  0
  130.1890  124.2140   65.2070 C   0  0  0  0  0  0  0  0  0  0  0  0
  130.8280  124.8830   66.2510 C   0  0  0  0  0  0  0  0  0  0  0  0
  132.0820  125.3900   66.1440 N   0  0  0  0  0  0  0  0  0  0  0  0
  132.7310  125.2360   64.9600 C   0  0  0  0  0  0  0  0  0  0  0  0
  131.5710  120.8030   60.3570 C   0  0  0  0  0  0  0  0  0  0  0  0
  132.8830  120.1660   60.4960 C   0  0  0  0  0  0  0  0  0  0  0  0
  133.9180  119.6600   60.6060 N   0  0  0  0  0  0  0  0  0  0  0  0
  1  2  1  0
  2  3  2  0
  3  4  1  0
  4  5  1  0
  5  6  2  0
  6  7  1  0
  7  8  2  0
  8  9  1  0
  9 10  2  0
  4 11  2  0
 11 12  1  0
 12 13  1  0
 13 14  1  0
 14 15  1  0
 15 16  2  0
 15 17  1  0
 17 18  1  0
 18 19  2  0
 19 20  1  0
 20 21  2  0
 21 22  1  0
 22 23  2  0
 12 24  2  0
 24 25  1  0
 25 26  3  0
 24  2  1  0
 10  5  1  0
 23 18  1  0
M  END
>  <Binding energies>  (20) 
[-6.84]

>  <Ligand effiencies>  (20) 
[-0.25333333333333335]

>  <Interactions>  (20) 
["V-A:ASP:366:CG:3208, V-A:ARG:545:CZ:4921, V-B:GLU:543:CG:9875, V-A:ILE:369:CD1:3234, V-B:GLU:543:CD:9876, V-B:TYR:539:CE2:9844, V-B:ALA:541:CB:9860, V-A:TRP:381:CZ2:3365, V-A:LEU:475:CD1:4253, V-A:LEU:475:CG:4252, V-B:TYR:539:CD2:9842, V-A:TRP:381:CH2:3367, V-A:LEU:475:CD2:4254, V-A:PRO:482:CB:4321, V-B:TYR:539:C:9835, V-B:PRO:540:CA:9851, V-B:PRO:540:C:9849, H-A:HIS:456:NE2:4065, H-A:TYR:484:OH:4343, V-B:ALA:541:CA:9858, V-A:TYR:484:CZ:4342, V-A:ASP:366:CB:3207, V-A:TYR:484:CE1:4340, V-B:PRO:540:N:9852, V-B:PRO:540:CB:9853, V-A:ILE:369:CG2:3232, H-A:ASP:366:OD1:3209"]

$$$$
3bg_Grossjean_2025
     RDKit          3D

 27 29  0  0  0  0  0  0  0  0999 V2000
  130.0970  124.4270   66.5960 C   0  0  0  0  0  0  0  0  0  0  0  0
  129.8530  124.7620   68.0660 C   0  0  0  0  0  0  0  0  0  0  0  0
  130.1320  123.7810   69.0230 C   0  0  0  0  0  0  0  0  0  0  0  0
  129.9300  124.0490   70.3840 C   0  0  0  0  0  0  0  0  0  0  0  0
  130.2210  123.0430   71.4630 C   0  0  0  0  0  0  0  0  0  0  0  0
  131.3950  123.1250   72.2310 C   0  0  0  0  0  0  0  0  0  0  0  0
  131.6590  122.2070   73.2430 C   0  0  0  0  0  0  0  0  0  0  0  0
  130.7520  121.1850   73.5030 C   0  0  0  0  0  0  0  0  0  0  0  0
  129.5880  121.0730   72.7520 C   0  0  0  0  0  0  0  0  0  0  0  0
  129.3290  121.9920   71.7390 C   0  0  0  0  0  0  0  0  0  0  0  0
  129.4790  125.2660   70.7880 N   0  0  0  0  0  0  0  0  0  0  0  0
  129.2060  126.2310   69.8720 C   0  0  0  0  0  0  0  0  0  0  0  0
  128.6540  127.7940   70.5360 S   0  0  0  0  0  0  0  0  0  0  0  0
  129.9530  128.4360   71.6430 C   0  0  0  0  0  0  0  0  0  0  0  0
  129.9420  127.7310   73.0030 C   0  0  0  0  0  0  0  0  0  0  0  0
  129.4430  128.2910   73.9800 O   0  0  0  0  0  0  0  0  0  0  0  0
  130.5170  126.5170   73.0520 N   0  0  0  0  0  0  0  0  0  0  0  0
  130.7800  125.7510   74.2710 C   0  0  0  0  0  0  0  0  0  0  0  0
  132.2710  125.6650   74.5750 C   0  0  0  0  0  0  0  0  0  0  0  0
  132.7680  124.6140   75.3530 C   0  0  0  0  0  0  0  0  0  0  0  0
  134.1270  124.5410   75.6390 C   0  0  0  0  0  0  0  0  0  0  0  0
  134.9910  125.5130   75.1350 C   0  0  0  0  0  0  0  0  0  0  0  0
  134.5080  126.5510   74.3420 C   0  0  0  0  0  0  0  0  0  0  0  0
  133.1460  126.6240   74.0570 C   0  0  0  0  0  0  0  0  0  0  0  0
  129.3710  126.0190   68.4880 C   0  0  0  0  0  0  0  0  0  0  0  0
  129.0770  127.0690   67.5090 C   0  0  0  0  0  0  0  0  0  0  0  0
  128.8450  127.8980   66.7360 N   0  0  0  0  0  0  0  0  0  0  0  0
  1  2  1  0
  2  3  2  0
  3  4  1  0
  4  5  1  0
  5  6  2  0
  6  7  1  0
  7  8  2  0
  8  9  1  0
  9 10  2  0
  4 11  2  0
 11 12  1  0
 12 13  1  0
 13 14  1  0
 14 15  1  0
 15 16  2  0
 15 17  1  0
 17 18  1  0
 18 19  1  0
 19 20  2  0
 20 21  1  0
 21 22  2  0
 22 23  1  0
 23 24  2  0
 12 25  2  0
 25 26  1  0
 26 27  3  0
 25  2  1  0
 10  5  1  0
 24 19  1  0
M  END
>  <Binding energies>  (21) 
[-7.28]

>  <Ligand effiencies>  (21) 
[-0.26]

>  <Interactions>  (21) 
["V-A:HIS:456:CE1:4064, V-B:GLU:543:CG:9875, V-B:GLU:543:CB:9874, H-B:LYS:547:NZ:9919, V-B:GLU:543:C:9870, V-A:TYR:484:CZ:4342, V-A:HIS:456:CD2:4063, V-B:GLU:543:CA:9872, V-A:LYS:547:CE:4945, H-A:LYS:547:NZ:4946, V-A:TYR:484:CE1:4340, V-B:LYS:547:CE:9918, V-A:HIS:456:CG:4061, V-A:HIS:456:CB:4060, V-A:VAL:457:C:4068, V-A:VAL:458:CG2:4082, V-A:LYS:547:CD:4944, V-A:VAL:457:CA:4070, V-A:ASP:473:CG:4235, V-A:HIS:456:C:4056, V-A:TYR:484:CD1:4338, V-A:TYR:484:CG:4337, V-A:TYR:484:CB:4336, H-A:HIS:456:ND1:4062, V-A:ASP:473:CB:4234, V-A:LYS:547:CG:4943, V-A:ARG:545:C:4912"]

$$$$
3ca_Grossjean_2025
     RDKit          3D

 31 33  0  0  0  0  0  0  0  0999 V2000
  128.8340  131.5310   72.9450 C   0  0  0  0  0  0  0  0  0  0  0  0
  130.0350  130.6230   73.2220 C   0  0  0  0  0  0  0  0  0  0  0  0
  129.5990  129.2700   73.2910 O   0  0  0  0  0  0  0  0  0  0  0  0
  128.5800  128.8220   72.5150 C   0  0  0  0  0  0  0  0  0  0  0  0
  127.4000  128.8100   72.8820 O   0  0  0  0  0  0  0  0  0  0  0  0
  129.0280  128.3450   71.1630 C   0  0  0  0  0  0  0  0  0  0  0  0
  130.2210  128.8410   70.6240 C   0  0  0  0  0  0  0  0  0  0  0  0
  130.6630  128.4190   69.3730 C   0  0  0  0  0  0  0  0  0  0  0  0
  129.9170  127.4990   68.6330 C   0  0  0  0  0  0  0  0  0  0  0  0
  130.4540  127.1390   67.3820 N   0  0  0  0  0  0  0  0  0  0  0  0
  130.7250  125.9150   66.8810 C   0  0  0  0  0  0  0  0  0  0  0  0
  130.5200  124.8480   67.4580 O   0  0  0  0  0  0  0  0  0  0  0  0
  131.3160  125.9030   65.4670 C   0  0  0  0  0  0  0  0  0  0  0  0
  130.1490  126.4920   64.1960 S   0  0  0  0  0  0  0  0  0  0  0  0
  130.4590  125.6500   62.6500 C   0  0  0  0  0  0  0  0  0  0  0  0
  130.6220  126.4510   61.5670 N   0  0  0  0  0  0  0  0  0  0  0  0
  130.8800  125.8840   60.3680 C   0  0  0  0  0  0  0  0  0  0  0  0
  131.0680  126.8450   59.2110 C   0  0  0  0  0  0  0  0  0  0  0  0
  130.9700  124.5050   60.1960 C   0  0  0  0  0  0  0  0  0  0  0  0
  130.7880  123.6550   61.2950 C   0  0  0  0  0  0  0  0  0  0  0  0
  130.8800  122.1830   61.0590 C   0  0  0  0  0  0  0  0  0  0  0  0
  132.0890  121.6120   60.6420 C   0  0  0  0  0  0  0  0  0  0  0  0
  132.1820  120.2430   60.4110 C   0  0  0  0  0  0  0  0  0  0  0  0
  131.0620  119.4360   60.5930 C   0  0  0  0  0  0  0  0  0  0  0  0
  129.8500  119.9880   61.0010 C   0  0  0  0  0  0  0  0  0  0  0  0
  129.7610  121.3590   61.2310 C   0  0  0  0  0  0  0  0  0  0  0  0
  130.5330  124.2390   62.5620 C   0  0  0  0  0  0  0  0  0  0  0  0
  130.3850  123.4030   63.7580 C   0  0  0  0  0  0  0  0  0  0  0  0
  130.2680  122.7420   64.7010 N   0  0  0  0  0  0  0  0  0  0  0  0
  128.7240  126.9910   69.1690 C   0  0  0  0  0  0  0  0  0  0  0  0
  128.2860  127.4140   70.4220 C   0  0  0  0  0  0  0  0  0  0  0  0
  1  2  1  0
  2  3  1  0
  3  4  1  0
  4  5  2  0
  4  6  1  0
  6  7  2  0
  7  8  1  0
  8  9  2  0
  9 10  1  0
 10 11  1  0
 11 12  2  0
 11 13  1  0
 13 14  1  0
 14 15  1  0
 15 16  2  0
 16 17  1  0
 17 18  1  0
 17 19  2  0
 19 20  1  0
 20 21  1  0
 21 22  2  0
 22 23  1  0
 23 24  2  0
 24 25  1  0
 25 26  2  0
 20 27  2  0
 27 28  1  0
 28 29  3  0
  9 30  1  0
 30 31  2  0
 31  6  1  0
 27 15  1  0
 26 21  1  0
M  END
>  <Binding energies>  (22) 
[-8.26]

>  <Ligand effiencies>  (22) 
[-0.258125]

>  <Interactions>  (22) 
["H-A:GLU:543:OE1:4904, V-A:GLU:543:CD:4903, V-A:HIS:456:CE1:4064, V-A:GLU:543:CB:4901, V-B:GLU:543:CG:9875, V-B:HIS:456:CD2:9035, V-B:HIS:456:CE1:9037, V-B:TYR:539:CE2:9844, V-B:ALA:541:CB:9860, V-A:TRP:381:CZ2:3365, V-B:TYR:539:CD2:9842, V-A:TRP:381:CH2:3367, V-A:LEU:475:CD2:4254, V-A:TRP:381:CZ3:3366, H-B:LYS:547:NZ:9919, H-A:HIS:456:NE2:4065, H-A:TYR:484:OH:4343, V-A:LYS:547:CE:4945, H-A:LYS:547:NZ:4946, V-A:GLU:543:C:4897"]

$$$$
3ce_Grossjean_2025
     RDKit          3D

 27 29  0  0  0  0  0  0  0  0999 V2000
  129.0020  126.8390   69.9440 C   0  0  0  0  0  0  0  0  0  0  0  0
  128.7510  127.0440   68.4630 C   0  0  0  0  0  0  0  0  0  0  0  0
  127.9490  128.0880   67.9950 C   0  0  0  0  0  0  0  0  0  0  0  0
  127.7710  128.2220   66.6180 C   0  0  0  0  0  0  0  0  0  0  0  0
  128.3910  127.3200   65.7510 C   0  0  0  0  0  0  0  0  0  0  0  0
  129.1720  126.2900   66.2860 C   0  0  0  0  0  0  0  0  0  0  0  0
  129.7860  125.4240   65.3660 N   0  0  0  0  0  0  0  0  0  0  0  0
  131.0310  124.8990   65.4150 C   0  0  0  0  0  0  0  0  0  0  0  0
  131.8490  125.1030   66.3130 O   0  0  0  0  0  0  0  0  0  0  0  0
  131.4100  123.9820   64.2530 C   0  0  0  0  0  0  0  0  0  0  0  0
  130.0490  122.8680   63.7960 S   0  0  0  0  0  0  0  0  0  0  0  0
  130.5020  122.1700   62.2250 C   0  0  0  0  0  0  0  0  0  0  0  0
  130.2330  120.8460   62.1120 N   0  0  0  0  0  0  0  0  0  0  0  0
  130.5260  120.2240   60.9470 C   0  0  0  0  0  0  0  0  0  0  0  0
  130.1880  118.7470   60.8840 C   0  0  0  0  0  0  0  0  0  0  0  0
  131.1040  120.8870   59.8670 C   0  0  0  0  0  0  0  0  0  0  0  0
  131.4120  122.2490   59.9740 C   0  0  0  0  0  0  0  0  0  0  0  0
  132.0540  122.9110   58.7980 C   0  0  0  0  0  0  0  0  0  0  0  0
  131.3140  123.7850   57.9930 C   0  0  0  0  0  0  0  0  0  0  0  0
  131.9040  124.4000   56.8920 C   0  0  0  0  0  0  0  0  0  0  0  0
  133.2370  124.1390   56.5870 C   0  0  0  0  0  0  0  0  0  0  0  0
  133.9840  123.2640   57.3720 C   0  0  0  0  0  0  0  0  0  0  0  0
  133.3920  122.6510   58.4730 C   0  0  0  0  0  0  0  0  0  0  0  0
  131.1010  122.9190   61.1840 C   0  0  0  0  0  0  0  0  0  0  0  0
  131.3870  124.3470   61.3490 C   0  0  0  0  0  0  0  0  0  0  0  0
  131.6130  125.4750   61.4770 N   0  0  0  0  0  0  0  0  0  0  0  0
  129.3570  126.1570   67.6330 N   0  0  0  0  0  0  0  0  0  0  0  0
  1  2  1  0
  2  3  2  0
  3  4  1  0
  4  5  2  0
  5  6  1  0
  6  7  1  0
  7  8  1  0
  8  9  2  0
  8 10  1  0
 10 11  1  0
 11 12  1  0
 12 13  2  0
 13 14  1  0
 14 15  1  0
 14 16  2  0
 16 17  1  0
 17 18  1  0
 18 19  2  0
 19 20  1  0
 20 21  2  0
 21 22  1  0
 22 23  2  0
 17 24  2  0
 24 25  1  0
 25 26  3  0
  6 27  2  0
 27  2  1  0
 24 12  1  0
 23 18  1  0
M  END
>  <Binding energies>  (23) 
[-7.92]

>  <Ligand effiencies>  (23) 
[-0.28285714285714286]

>  <Interactions>  (23) 
["V-B:TYR:539:CZ:9845, V-A:HIS:456:CE1:4064, V-B:GLU:543:CG:9875, V-B:GLU:543:CB:9874, V-A:ILE:369:CD1:3234, V-B:HIS:456:CE1:9037, V-B:GLU:543:CD:9876, V-B:TYR:539:CE2:9844, V-B:ALA:541:CB:9860, V-A:TRP:381:CZ2:3365, V-B:TYR:539:CD2:9842, V-A:TRP:381:CH2:3367, V-A:LEU:475:CD2:4254, V-A:PRO:482:CB:4321, H-A:HIS:456:NE2:4065, H-A:TYR:484:OH:4343, H-B:GLU:543:OE2:9878, V-A:TYR:531:CZ:4789, V-A:ASP:366:CB:3207, V-A:ASP:366:CA:3205, V-A:ILE:369:CB:3231, V-A:ILE:369:CG2:3232, V-A:ASP:366:C:3203, V-A:TYR:531:CE1:4787, V-A:ASN:370:CB:3240"]

$$$$
3cj_Grossjean_2025
     RDKit          3D

 25 27  0  0  0  0  0  0  0  0999 V2000
  130.2710  118.8040   61.1450 C   0  0  0  0  0  0  0  0  0  0  0  0
  130.5830  120.2880   61.1480 C   0  0  0  0  0  0  0  0  0  0  0  0
  131.2080  120.9030   60.0650 C   0  0  0  0  0  0  0  0  0  0  0  0
  131.4560  122.2820   60.1010 C   0  0  0  0  0  0  0  0  0  0  0  0
  132.0680  122.9100   58.8930 C   0  0  0  0  0  0  0  0  0  0  0  0
  133.4010  122.6490   58.5540 C   0  0  0  0  0  0  0  0  0  0  0  0
  133.9740  123.2460   57.4340 C   0  0  0  0  0  0  0  0  0  0  0  0
  133.2160  124.1110   56.6510 C   0  0  0  0  0  0  0  0  0  0  0  0
  131.8920  124.3870   56.9800 C   0  0  0  0  0  0  0  0  0  0  0  0
  131.3200  123.7890   58.1010 C   0  0  0  0  0  0  0  0  0  0  0  0
  131.0900  123.0030   61.2640 C   0  0  0  0  0  0  0  0  0  0  0  0
  131.3500  124.4430   61.3730 C   0  0  0  0  0  0  0  0  0  0  0  0
  131.5540  125.5790   61.4580 N   0  0  0  0  0  0  0  0  0  0  0  0
  130.4570  122.2990   62.3130 C   0  0  0  0  0  0  0  0  0  0  0  0
  129.8260  123.1060   63.7690 S   0  0  0  0  0  0  0  0  0  0  0  0
  131.1940  124.1590   64.3490 C   0  0  0  0  0  0  0  0  0  0  0  0
  130.7870  125.0110   65.5560 C   0  0  0  0  0  0  0  0  0  0  0  0
  131.5500  125.1020   66.5200 O   0  0  0  0  0  0  0  0  0  0  0  0
  129.5990  125.6430   65.4430 N   0  0  0  0  0  0  0  0  0  0  0  0
  129.0670  126.5690   66.3260 C   0  0  0  0  0  0  0  0  0  0  0  0
  128.9210  126.4520   67.6280 N   0  0  0  0  0  0  0  0  0  0  0  0
  128.4070  127.5450   68.1560 C   0  0  0  0  0  0  0  0  0  0  0  0
  128.1230  128.5820   67.2730 C   0  0  0  0  0  0  0  0  0  0  0  0
  128.5560  128.0880   65.6630 S   0  0  0  0  0  0  0  0  0  0  0  0
  130.2000  120.9690   62.2510 N   0  0  0  0  0  0  0  0  0  0  0  0
  1  2  1  0
  2  3  2  0
  3  4  1  0
  4  5  1  0
  5  6  2  0
  6  7  1  0
  7  8  2  0
  8  9  1  0
  9 10  2  0
  4 11  2  0
 11 12  1  0
 12 13  3  0
 11 14  1  0
 14 15  1  0
 15 16  1  0
 16 17  1  0
 17 18  2  0
 17 19  1  0
 19 20  1  0
 20 21  2  0
 21 22  1  0
 22 23  2  0
 23 24  1  0
 14 25  2  0
 25  2  1  0
 10  5  1  0
 24 20  1  0
M  END
>  <Binding energies>  (24) 
[-7.17]

>  <Ligand effiencies>  (24) 
[-0.27576923076923077]

>  <Interactions>  (24) 
["V-A:GLU:543:CD:4903, V-B:TYR:539:CZ:9845, V-B:GLU:543:CG:9875, V-B:GLU:543:CB:9874, V-A:ILE:369:CD1:3234, V-B:HIS:456:CE1:9037, V-B:GLU:543:CD:9876, V-B:TYR:539:CE2:9844, V-B:ALA:541:CB:9860, V-A:TRP:381:CZ2:3365, V-B:TYR:539:CD2:9842, V-A:TRP:381:CH2:3367, V-A:LEU:475:CD2:4254, V-A:PRO:482:CB:4321, H-A:HIS:456:NE2:4065, H-A:TYR:484:OH:4343, H-B:GLU:543:OE2:9878, V-A:TYR:531:CZ:4789, V-A:ASP:366:CB:3207, V-A:ASP:366:CA:3205, V-A:ILE:369:CB:3231, V-A:ILE:369:CG2:3232, V-A:ASP:366:C:3203, V-A:TYR:531:CE1:4787, V-A:ASN:370:CB:3240"]

$$$$
4ba_Grossjean_2025
     RDKit          3D

 28 30  0  0  0  0  0  0  0  0999 V2000
  129.8650  128.8430   70.6600 C   0  0  0  0  0  0  0  0  0  0  0  0
  128.6430  128.1350   71.2740 C   0  0  0  0  0  0  0  0  0  0  0  0
  127.6910  127.4720   70.2570 C   0  0  0  0  0  0  0  0  0  0  0  0
  126.4920  127.3660   70.5260 O   0  0  0  0  0  0  0  0  0  0  0  0
  128.2810  126.9830   68.9660 C   0  0  0  0  0  0  0  0  0  0  0  0
  129.2360  125.9590   68.9900 C   0  0  0  0  0  0  0  0  0  0  0  0
  129.8000  125.4890   67.8080 C   0  0  0  0  0  0  0  0  0  0  0  0
  129.4190  126.0280   66.5780 C   0  0  0  0  0  0  0  0  0  0  0  0
  130.0590  125.4840   65.4470 N   0  0  0  0  0  0  0  0  0  0  0  0
  131.3420  125.0810   65.2810 C   0  0  0  0  0  0  0  0  0  0  0  0
  132.2150  125.1750   66.1460 O   0  0  0  0  0  0  0  0  0  0  0  0
  131.6580  124.5290   63.9620 C   0  0  0  0  0  0  0  0  0  0  0  0
  133.0890  125.0750   63.0920 S   0  0  0  0  0  0  0  0  0  0  0  0
  132.7090  124.0500   61.7280 C   0  0  0  0  0  0  0  0  0  0  0  0
  133.4870  124.0160   60.6470 N   0  0  0  0  0  0  0  0  0  0  0  0
  133.0900  123.1860   59.6560 C   0  0  0  0  0  0  0  0  0  0  0  0
  133.9850  123.1690   58.4300 C   0  0  0  0  0  0  0  0  0  0  0  0
  131.9470  122.3930   59.7210 C   0  0  0  0  0  0  0  0  0  0  0  0
  131.1230  122.4250   60.8580 C   0  0  0  0  0  0  0  0  0  0  0  0
  129.8770  121.5330   60.8840 C   0  0  0  0  0  0  0  0  0  0  0  0
  128.7380  122.2250   60.8270 F   0  0  0  0  0  0  0  0  0  0  0  0
  129.8920  120.7030   59.8410 F   0  0  0  0  0  0  0  0  0  0  0  0
  129.8560  120.8220   62.0120 F   0  0  0  0  0  0  0  0  0  0  0  0
  131.5110  123.2950   61.9200 C   0  0  0  0  0  0  0  0  0  0  0  0
  130.9280  123.5980   63.2040 C   0  0  0  0  0  0  0  0  0  0  0  0
  129.7620  123.0220   63.6410 N   0  0  0  0  0  0  0  0  0  0  0  0
  128.4680  127.0580   66.5460 C   0  0  0  0  0  0  0  0  0  0  0  0
  127.9050  127.5280   67.7300 C   0  0  0  0  0  0  0  0  0  0  0  0
  1  2  1  0
  2  3  1  0
  3  4  2  0
  3  5  1  0
  5  6  2  0
  6  7  1  0
  7  8  2  0
  8  9  1  0
  9 10  1  0
 10 11  2  0
 10 12  1  0
 12 13  1  0
 13 14  1  0
 14 15  2  0
 15 16  1  0
 16 17  1  0
 16 18  2  0
 18 19  1  0
 19 20  1  0
 20 21  1  0
 20 22  1  0
 20 23  1  0
 19 24  2  0
 24 25  1  0
 25 26  1  0
  8 27  1  0
 27 28  2  0
 28  5  1  0
 25 12  2  0
 24 14  1  0
M  END
>  <Binding energies>  (25) 
[-6.83]

>  <Ligand effiencies>  (25) 
[-0.2203225806451613]

>  <Interactions>  (25) 
["V-A:ASP:366:CG:3208, V-A:HIS:456:CE1:4064, V-A:ARG:545:CZ:4921, V-B:GLU:543:CG:9875, V-B:HIS:456:CD2:9035, V-B:GLU:543:CB:9874, V-A:ILE:369:CD1:3234, V-B:HIS:456:CE1:9037, V-B:GLU:543:CD:9876, V-B:TYR:539:CE2:9844, V-B:ALA:541:CB:9860, V-B:TYR:539:CD2:9842, V-A:LEU:475:CD2:4254, V-B:TYR:539:C:9835, H-B:LYS:547:NZ:9919, V-B:GLU:543:C:9870, V-B:PRO:540:CA:9851, H-A:HIS:456:NE2:4065, H-A:TYR:484:OH:4343, H-B:GLU:543:OE2:9878, V-B:ALA:541:CA:9858, V-A:ASP:366:CB:3207, V-A:ASP:366:CA:3205, V-A:ILE:369:CB:3231, V-A:ILE:369:CG2:3232, V-A:ASP:366:C:3203, V-A:ILE:369:CG1:3233, H-B:ARG:545:N:9888, H-B:HIS:456:ND1:9034"]

$$$$
4bb_Grossjean_2025
     RDKit          3D

 27 29  0  0  0  0  0  0  0  0999 V2000
  128.6350  128.0740   71.3440 C   0  0  0  0  0  0  0  0  0  0  0  0
  127.6860  127.4380   70.3270 C   0  0  0  0  0  0  0  0  0  0  0  0
  126.4940  127.3440   70.6250 O   0  0  0  0  0  0  0  0  0  0  0  0
  128.2570  126.9550   69.0270 C   0  0  0  0  0  0  0  0  0  0  0  0
  129.3000  126.0210   69.0400 C   0  0  0  0  0  0  0  0  0  0  0  0
  129.8480  125.5570   67.8480 C   0  0  0  0  0  0  0  0  0  0  0  0
  129.3600  126.0110   66.6210 C   0  0  0  0  0  0  0  0  0  0  0  0
  129.9890  125.4780   65.4780 N   0  0  0  0  0  0  0  0  0  0  0  0
  131.2720  125.0820   65.2940 C   0  0  0  0  0  0  0  0  0  0  0  0
  132.1490  125.1600   66.1540 O   0  0  0  0  0  0  0  0  0  0  0  0
  131.5800  124.5640   63.9590 C   0  0  0  0  0  0  0  0  0  0  0  0
  133.1180  124.9520   63.1900 S   0  0  0  0  0  0  0  0  0  0  0  0
  132.6780  124.0590   61.7530 C   0  0  0  0  0  0  0  0  0  0  0  0
  133.5040  123.9650   60.7120 N   0  0  0  0  0  0  0  0  0  0  0  0
  133.0530  123.2480   59.6580 C   0  0  0  0  0  0  0  0  0  0  0  0
  134.0100  123.1530   58.4840 C   0  0  0  0  0  0  0  0  0  0  0  0
  131.8060  122.6290   59.6190 C   0  0  0  0  0  0  0  0  0  0  0  0
  130.9320  122.7240   60.7120 C   0  0  0  0  0  0  0  0  0  0  0  0
  129.5700  122.0250   60.6230 C   0  0  0  0  0  0  0  0  0  0  0  0
  128.5670  122.7790   61.0790 F   0  0  0  0  0  0  0  0  0  0  0  0
  129.3000  121.7250   59.3520 F   0  0  0  0  0  0  0  0  0  0  0  0
  129.5890  120.9060   61.3450 F   0  0  0  0  0  0  0  0  0  0  0  0
  131.3770  123.4740   61.8420 C   0  0  0  0  0  0  0  0  0  0  0  0
  130.7730  123.7850   63.1130 C   0  0  0  0  0  0  0  0  0  0  0  0
  129.5210  123.3490   63.4650 N   0  0  0  0  0  0  0  0  0  0  0  0
  128.3200  126.9520   66.6010 C   0  0  0  0  0  0  0  0  0  0  0  0
  127.7740  127.4160   67.7950 C   0  0  0  0  0  0  0  0  0  0  0  0
  1  2  1  0
  2  3  2  0
  2  4  1  0
  4  5  2  0
  5  6  1  0
  6  7  2  0
  7  8  1  0
  8  9  1  0
  9 10  2  0
  9 11  1  0
 11 12  1  0
 12 13  1  0
 13 14  2  0
 14 15  1  0
 15 16  1  0
 15 17  2  0
 17 18  1  0
 18 19  1  0
 19 20  1  0
 19 21  1  0
 19 22  1  0
 18 23  2  0
 23 24  1  0
 24 25  1  0
  7 26  1  0
 26 27  2  0
 27  4  1  0
 24 11  2  0
 23 13  1  0
M  END
>  <Binding energies>  (26) 
[-6.7]

>  <Ligand effiencies>  (26) 
[-0.22333333333333333]

>  <Interactions>  (26) 
["V-A:ASP:366:CG:3208, V-A:HIS:456:CE1:4064, V-A:ARG:545:CZ:4921, V-B:GLU:543:CG:9875, V-B:HIS:456:CD2:9035, V-B:GLU:543:CB:9874, V-A:ILE:369:CD1:3234, V-B:HIS:456:CE1:9037, V-B:GLU:543:CD:9876, V-B:TYR:539:CE2:9844, V-B:ALA:541:CB:9860, V-B:TYR:539:CD2:9842, V-B:TYR:539:C:9835, H-B:LYS:547:NZ:9919, V-B:GLU:543:C:9870, H-A:HIS:456:NE2:4065, H-A:TYR:484:OH:4343, H-B:GLU:543:OE2:9878, V-B:ALA:541:CA:9858, V-A:ASP:366:CB:3207, V-A:ASP:366:CA:3205, V-A:ILE:369:CB:3231, V-A:ILE:369:CG2:3232, V-A:ASP:366:C:3203, V-A:ILE:369:CG1:3233, H-B:ARG:545:N:9888, H-B:HIS:456:ND1:9034"]

$$$$
4bd_Grossjean_2025
     RDKit          3D

 24 26  0  0  0  0  0  0  0  0999 V2000
  135.2060  125.2440   66.1530 C   0  0  0  0  0  0  0  0  0  0  0  0
  133.9590  125.0260   65.3160 C   0  0  0  0  0  0  0  0  0  0  0  0
  132.7050  125.4150   65.7800 C   0  0  0  0  0  0  0  0  0  0  0  0
  131.5600  125.2060   64.9960 C   0  0  0  0  0  0  0  0  0  0  0  0
  130.2010  125.6480   65.5500 C   0  0  0  0  0  0  0  0  0  0  0  0
  129.4860  126.3560   64.6740 F   0  0  0  0  0  0  0  0  0  0  0  0
  129.4790  124.5790   65.8830 F   0  0  0  0  0  0  0  0  0  0  0  0
  130.3810  126.4120   66.6270 F   0  0  0  0  0  0  0  0  0  0  0  0
  131.7440  124.5870   63.7240 C   0  0  0  0  0  0  0  0  0  0  0  0
  130.8310  124.2200   62.6690 C   0  0  0  0  0  0  0  0  0  0  0  0
  129.4820  124.4490   62.7470 N   0  0  0  0  0  0  0  0  0  0  0  0
  131.4460  123.6100   61.5630 C   0  0  0  0  0  0  0  0  0  0  0  0
  130.8240  123.1020   60.3370 C   0  0  0  0  0  0  0  0  0  0  0  0
  131.4540  122.3760   59.5670 O   0  0  0  0  0  0  0  0  0  0  0  0
  129.5350  123.4770   60.1400 N   0  0  0  0  0  0  0  0  0  0  0  0
  128.6780  123.1990   59.0600 C   0  0  0  0  0  0  0  0  0  0  0  0
  127.3190  123.4490   59.2770 C   0  0  0  0  0  0  0  0  0  0  0  0
  126.3920  123.2160   58.2650 C   0  0  0  0  0  0  0  0  0  0  0  0
  126.8230  122.7400   57.0300 C   0  0  0  0  0  0  0  0  0  0  0  0
  128.1750  122.5000   56.7970 C   0  0  0  0  0  0  0  0  0  0  0  0
  129.1050  122.7310   57.8060 C   0  0  0  0  0  0  0  0  0  0  0  0
  133.1880  123.4780   61.7950 S   0  0  0  0  0  0  0  0  0  0  0  0
  133.0820  124.2350   63.3670 C   0  0  0  0  0  0  0  0  0  0  0  0
  134.1660  124.4370   64.1150 N   0  0  0  0  0  0  0  0  0  0  0  0
  1  2  1  0
  2  3  2  0
  3  4  1  0
  4  5  1  0
  5  6  1  0
  5  7  1  0
  5  8  1  0
  4  9  2  0
  9 10  1  0
 10 11  1  0
 10 12  2  0
 12 13  1  0
 13 14  2  0
 13 15  1  0
 15 16  1  0
 16 17  2  0
 17 18  1  0
 18 19  2  0
 19 20  1  0
 20 21  2  0
 12 22  1  0
 22 23  1  0
 23 24  2  0
 24  2  1  0
 23  9  1  0
 21 16  1  0
M  END
>  <Binding energies>  (27) 
[-6.15]

>  <Ligand effiencies>  (27) 
[-0.2277777777777778]

>  <Interactions>  (27) 
["V-B:TYR:539:CZ:9845, V-A:ARG:545:CZ:4921, V-B:GLU:543:CG:9875, V-B:GLU:543:CB:9874, V-A:ILE:369:CD1:3234, V-B:GLU:543:CD:9876, V-B:TYR:539:CE2:9844, V-B:TYR:539:CD2:9842, V-B:TYR:539:CG:9840, V-B:TYR:539:C:9835, V-B:PRO:540:CA:9851, H-A:TYR:484:OH:4343, H-B:GLU:543:OE2:9878, V-A:GLY:453:C:4037, V-A:GLY:453:CA:4039, V-A:ARG:545:CD:4918, H-A:GLY:454:N:4045, V-A:HIS:456:CD2:4063, V-B:GLU:543:CA:9872, V-B:PRO:540:N:9852, V-B:TYR:539:CD1:9841, V-A:ARG:545:CG:4917, V-B:PRO:540:CB:9853, V-B:TYR:539:CE1:9843, V-B:MET:535:CE:9803"]

$$$$
4be_Grossjean_2025
     RDKit          3D

 25 27  0  0  0  0  0  0  0  0999 V2000
  130.1990  119.4550   61.2430 C   0  0  0  0  0  0  0  0  0  0  0  0
  130.0020  120.9410   61.0120 C   0  0  0  0  0  0  0  0  0  0  0  0
  129.8900  121.4720   59.7250 C   0  0  0  0  0  0  0  0  0  0  0  0
  129.7130  122.8500   59.5880 C   0  0  0  0  0  0  0  0  0  0  0  0
  129.6530  123.6540   60.7280 C   0  0  0  0  0  0  0  0  0  0  0  0
  129.7650  123.0560   61.9880 C   0  0  0  0  0  0  0  0  0  0  0  0
  129.7030  123.9220   63.0950 N   0  0  0  0  0  0  0  0  0  0  0  0
  130.2750  123.7840   64.3180 C   0  0  0  0  0  0  0  0  0  0  0  0
  130.9760  122.8230   64.6430 O   0  0  0  0  0  0  0  0  0  0  0  0
  129.9900  124.8600   65.2710 C   0  0  0  0  0  0  0  0  0  0  0  0
  130.2330  124.6000   66.9970 S   0  0  0  0  0  0  0  0  0  0  0  0
  129.6730  126.2150   67.3650 C   0  0  0  0  0  0  0  0  0  0  0  0
  129.6200  126.6630   68.6180 N   0  0  0  0  0  0  0  0  0  0  0  0
  129.1720  127.9300   68.7770 C   0  0  0  0  0  0  0  0  0  0  0  0
  129.1160  128.4210   70.2120 C   0  0  0  0  0  0  0  0  0  0  0  0
  128.7820  128.7500   67.7230 C   0  0  0  0  0  0  0  0  0  0  0  0
  128.8360  128.2840   66.4000 C   0  0  0  0  0  0  0  0  0  0  0  0
  128.4000  129.2260   65.2720 C   0  0  0  0  0  0  0  0  0  0  0  0
  129.2060  129.1760   64.2090 F   0  0  0  0  0  0  0  0  0  0  0  0
  127.1760  128.8970   64.8580 F   0  0  0  0  0  0  0  0  0  0  0  0
  128.3930  130.4840   65.7110 F   0  0  0  0  0  0  0  0  0  0  0  0
  129.3000  126.9500   66.1980 C   0  0  0  0  0  0  0  0  0  0  0  0
  129.4830  126.1430   65.0160 C   0  0  0  0  0  0  0  0  0  0  0  0
  129.1920  126.5990   63.7560 N   0  0  0  0  0  0  0  0  0  0  0  0
  129.9440  121.7100   62.1300 N   0  0  0  0  0  0  0  0  0  0  0  0
  1  2  1  0
  2  3  2  0
  3  4  1  0
  4  5  2  0
  5  6  1  0
  6  7  1  0
  7  8  1  0
  8  9  2  0
  8 10  1  0
 10 11  1  0
 11 12  1  0
 12 13  2  0
 13 14  1  0
 14 15  1  0
 14 16  2  0
 16 17  1  0
 17 18  1  0
 18 19  1  0
 18 20  1  0
 18 21  1  0
 17 22  2  0
 22 23  1  0
 23 24  1  0
  6 25  2  0
 25  2  1  0
 23 10  2  0
 22 12  1  0
M  END
>  <Binding energies>  (28) 
[-6.34]

>  <Ligand effiencies>  (28) 
[-0.22642857142857142]

>  <Interactions>  (28) 
["H-A:GLU:543:OE1:4904, V-A:GLU:543:CD:4903, V-A:HIS:456:CE1:4064, V-A:GLU:543:CB:4901, V-B:GLU:543:CG:9875, V-B:HIS:456:CD2:9035, H-A:GLU:543:OE2:4905, V-B:GLU:543:CB:9874, V-B:HIS:456:CE1:9037, V-B:GLU:543:CD:9876, V-B:TYR:539:CE2:9844, V-B:ALA:541:CB:9860, V-B:TYR:539:CD2:9842, V-A:LEU:475:CD2:4254, V-B:TYR:539:C:9835, V-A:GLU:543:CG:4902, H-A:HIS:456:NE2:4065, H-A:TYR:484:OH:4343, H-B:GLU:543:OE2:9878, V-A:TYR:484:CZ:4342, V-B:TYR:484:CZ:9314, V-A:TYR:484:CE1:4340, H-B:GLU:543:OE1:9877, V-B:TYR:484:CE1:9312"]

$$$$
4bg_Grossjean_2025
     RDKit          3D

 25 27  0  0  0  0  0  0  0  0999 V2000
  135.3450  125.1250   66.5430 C   0  0  0  0  0  0  0  0  0  0  0  0
  134.1230  125.0990   65.6440 C   0  0  0  0  0  0  0  0  0  0  0  0
  132.8700  125.4670   66.1260 C   0  0  0  0  0  0  0  0  0  0  0  0
  131.7460  125.4330   65.2850 C   0  0  0  0  0  0  0  0  0  0  0  0
  130.3870  125.8480   65.8600 C   0  0  0  0  0  0  0  0  0  0  0  0
  129.7560  126.7520   65.1080 F   0  0  0  0  0  0  0  0  0  0  0  0
  129.5930  124.7810   65.9530 F   0  0  0  0  0  0  0  0  0  0  0  0
  130.5530  126.3800   67.0700 F   0  0  0  0  0  0  0  0  0  0  0  0
  131.9520  125.0110   63.9380 C   0  0  0  0  0  0  0  0  0  0  0  0
  131.0640  124.8470   62.8130 C   0  0  0  0  0  0  0  0  0  0  0  0
  129.7160  125.0930   62.8890 N   0  0  0  0  0  0  0  0  0  0  0  0
  131.7020  124.4220   61.6380 C   0  0  0  0  0  0  0  0  0  0  0  0
  131.1080  124.1280   60.3340 C   0  0  0  0  0  0  0  0  0  0  0  0
  131.2390  124.8960   59.3800 O   0  0  0  0  0  0  0  0  0  0  0  0
  130.4510  122.9540   60.2350 N   0  0  0  0  0  0  0  0  0  0  0  0
  129.7690  122.4600   59.0390 C   0  0  0  0  0  0  0  0  0  0  0  0
  128.3160  122.9070   58.9370 C   0  0  0  0  0  0  0  0  0  0  0  0
  127.6540  122.8660   57.7070 C   0  0  0  0  0  0  0  0  0  0  0  0
  126.3150  123.2380   57.6240 C   0  0  0  0  0  0  0  0  0  0  0  0
  125.6370  123.6360   58.7740 C   0  0  0  0  0  0  0  0  0  0  0  0
  126.2850  123.6630   60.0070 C   0  0  0  0  0  0  0  0  0  0  0  0
  127.6250  123.2920   60.0900 C   0  0  0  0  0  0  0  0  0  0  0  0
  133.4260  124.1740   61.8970 S   0  0  0  0  0  0  0  0  0  0  0  0
  133.2890  124.6670   63.5680 C   0  0  0  0  0  0  0  0  0  0  0  0
  134.3520  124.6990   64.3720 N   0  0  0  0  0  0  0  0  0  0  0  0
  1  2  1  0
  2  3  2  0
  3  4  1  0
  4  5  1  0
  5  6  1  0
  5  7  1  0
  5  8  1  0
  4  9  2  0
  9 10  1  0
 10 11  1  0
 10 12  2  0
 12 13  1  0
 13 14  2  0
 13 15  1  0
 15 16  1  0
 16 17  1  0
 17 18  2  0
 18 19  1  0
 19 20  2  0
 20 21  1  0
 21 22  2  0
 12 23  1  0
 23 24  1  0
 24 25  2  0
 25  2  1  0
 24  9  1  0
 22 17  1  0
M  END
>  <Binding energies>  (29) 
[-6.3]

>  <Ligand effiencies>  (29) 
[-0.225]

>  <Interactions>  (29) 
["V-A:GLU:543:CD:4903, V-A:ASP:366:CG:3208, V-A:HIS:456:CE1:4064, V-A:ARG:545:CZ:4921, V-B:GLU:543:CG:9875, V-B:GLU:543:CB:9874, V-A:ILE:369:CD1:3234, V-B:GLU:543:CD:9876, V-B:TYR:539:CE2:9844, V-B:TYR:539:CD2:9842, V-B:TYR:539:C:9835, V-B:PRO:540:CA:9851, H-A:TYR:484:OH:4343, H-B:GLU:543:OE2:9878, V-A:GLY:453:C:4037, V-A:GLY:453:CA:4039, V-A:ARG:545:CD:4918, H-A:GLY:454:N:4045, V-A:HIS:456:CD2:4063, V-B:PRO:540:N:9852, V-A:ARG:545:CG:4917, V-B:PRO:540:CB:9853, V-B:MET:535:CE:9803, H-A:ARG:545:NH1:4922, V-A:ILE:455:C:4047"]

$$$$
4ca_Grossjean_2025
     RDKit          3D

 34 37  0  0  0  0  0  0  0  0999 V2000
  129.8580  124.3340   71.7690 C   0  0  0  0  0  0  0  0  0  0  0  0
  130.2460  125.4720   72.7190 C   0  0  0  0  0  0  0  0  0  0  0  0
  129.1690  126.3940   72.8170 O   0  0  0  0  0  0  0  0  0  0  0  0
  129.3260  127.6970   72.4650 C   0  0  0  0  0  0  0  0  0  0  0  0
  129.5050  128.6050   73.2840 O   0  0  0  0  0  0  0  0  0  0  0  0
  129.2640  127.9220   70.9830 C   0  0  0  0  0  0  0  0  0  0  0  0
  130.3050  128.6170   70.3520 C   0  0  0  0  0  0  0  0  0  0  0  0
  130.2780  128.8380   68.9780 C   0  0  0  0  0  0  0  0  0  0  0  0
  129.2100  128.3770   68.2080 C   0  0  0  0  0  0  0  0  0  0  0  0
  129.2890  128.6480   66.8280 N   0  0  0  0  0  0  0  0  0  0  0  0
  128.3070  128.9200   65.9340 C   0  0  0  0  0  0  0  0  0  0  0  0
  127.1150  129.0250   66.2270 O   0  0  0  0  0  0  0  0  0  0  0  0
  128.7530  129.1090   64.5520 C   0  0  0  0  0  0  0  0  0  0  0  0
  128.5460  130.6690   63.7600 S   0  0  0  0  0  0  0  0  0  0  0  0
  129.3180  130.0840   62.3060 C   0  0  0  0  0  0  0  0  0  0  0  0
  129.4820  130.8680   61.2430 N   0  0  0  0  0  0  0  0  0  0  0  0
  130.1060  130.3300   60.1640 C   0  0  0  0  0  0  0  0  0  0  0  0
  130.2840  131.2420   58.9850 C   0  0  0  0  0  0  0  0  0  0  0  0
  129.2710  132.1390   58.6100 C   0  0  0  0  0  0  0  0  0  0  0  0
  129.4280  132.9840   57.5140 C   0  0  0  0  0  0  0  0  0  0  0  0
  130.6050  132.9430   56.7740 C   0  0  0  0  0  0  0  0  0  0  0  0
  131.6240  132.0630   57.1220 C   0  0  0  0  0  0  0  0  0  0  0  0
  131.4630  131.2200   58.2180 C   0  0  0  0  0  0  0  0  0  0  0  0
  130.5420  129.0010   60.1490 C   0  0  0  0  0  0  0  0  0  0  0  0
  130.3700  128.1640   61.2620 C   0  0  0  0  0  0  0  0  0  0  0  0
  130.8750  126.7190   61.1790 C   0  0  0  0  0  0  0  0  0  0  0  0
  131.8390  126.4490   62.0620 F   0  0  0  0  0  0  0  0  0  0  0  0
  129.8710  125.8750   61.4150 F   0  0  0  0  0  0  0  0  0  0  0  0
  131.3710  126.4840   59.9640 F   0  0  0  0  0  0  0  0  0  0  0  0
  129.7320  128.7240   62.4060 C   0  0  0  0  0  0  0  0  0  0  0  0
  129.3980  128.1920   63.7050 C   0  0  0  0  0  0  0  0  0  0  0  0
  129.6840  126.9030   64.0740 N   0  0  0  0  0  0  0  0  0  0  0  0
  128.1660  127.6760   68.8290 C   0  0  0  0  0  0  0  0  0  0  0  0
  128.1960  127.4540   70.2040 C   0  0  0  0  0  0  0  0  0  0  0  0
  1  2  1  0
  2  3  1  0
  3  4  1  0
  4  5  2  0
  4  6  1  0
  6  7  2  0
  7  8  1  0
  8  9  2  0
  9 10  1  0
 10 11  1  0
 11 12  2  0
 11 13  1  0
 13 14  1  0
 14 15  1  0
 15 16  2  0
 16 17  1  0
 17 18  1  0
 18 19  2  0
 19 20  1  0
 20 21  2  0
 21 22  1  0
 22 23  2  0
 17 24  2  0
 24 25  1  0
 25 26  1  0
 26 27  1  0
 26 28  1  0
 26 29  1  0
 25 30  2  0
 30 31  1  0
 31 32  1  0
  9 33  1  0
 33 34  2  0
 34  6  1  0
 31 13  2  0
 30 15  1  0
 23 18  1  0
M  END
>  <Binding energies>  (30) 
[-7.3]

>  <Ligand effiencies>  (30) 
[-0.19729729729729728]

>  <Interactions>  (30) 
["H-A:GLU:543:OE1:4904, V-A:GLU:543:CD:4903, V-A:ASP:366:CG:3208, V-A:HIS:456:CE1:4064, V-A:GLU:543:CB:4901, H-A:GLU:543:OE2:4905, V-B:HIS:456:CE1:9037, V-A:TYR:539:C:4862, V-A:PRO:540:CA:4878, V-A:PRO:540:N:4879, V-A:PRO:540:CB:4880, V-A:GLU:543:CG:4902, H-B:LYS:547:NZ:9919, H-B:TYR:484:OH:9315, H-B:GLU:543:OE2:9878, H-A:LYS:547:NZ:4946, V-A:GLU:543:CA:4899, V-A:GLU:543:C:4897, V-A:TYR:539:CE1:4870, V-A:TYR:539:CD1:4868, V-A:PRO:540:CD:4882, V-A:TYR:539:CA:4864, V-A:TYR:539:CG:4867, V-A:PRO:540:CG:4881"]

$$$$
4cb_Grossjean_2025
     RDKit          3D

 33 36  0  0  0  0  0  0  0  0999 V2000
  129.8570  125.3760   72.1500 C   0  0  0  0  0  0  0  0  0  0  0  0
  129.1370  126.4080   72.8090 O   0  0  0  0  0  0  0  0  0  0  0  0
  129.3080  127.7100   72.4630 C   0  0  0  0  0  0  0  0  0  0  0  0
  129.4970  128.6140   73.2820 O   0  0  0  0  0  0  0  0  0  0  0  0
  129.2430  127.9420   70.9790 C   0  0  0  0  0  0  0  0  0  0  0  0
  130.2950  128.6180   70.3470 C   0  0  0  0  0  0  0  0  0  0  0  0
  130.2680  128.8420   68.9730 C   0  0  0  0  0  0  0  0  0  0  0  0
  129.1890  128.4020   68.2060 C   0  0  0  0  0  0  0  0  0  0  0  0
  129.2730  128.6680   66.8250 N   0  0  0  0  0  0  0  0  0  0  0  0
  128.2950  128.9490   65.9300 C   0  0  0  0  0  0  0  0  0  0  0  0
  127.1030  129.0660   66.2210 O   0  0  0  0  0  0  0  0  0  0  0  0
  128.7460  129.1310   64.5480 C   0  0  0  0  0  0  0  0  0  0  0  0
  128.5470  130.6900   63.7490 S   0  0  0  0  0  0  0  0  0  0  0  0
  129.3200  130.0960   62.2980 C   0  0  0  0  0  0  0  0  0  0  0  0
  129.4890  130.8740   61.2320 N   0  0  0  0  0  0  0  0  0  0  0  0
  130.1100  130.3270   60.1540 C   0  0  0  0  0  0  0  0  0  0  0  0
  130.2900  131.2310   58.9700 C   0  0  0  0  0  0  0  0  0  0  0  0
  131.4780  131.2050   58.2210 C   0  0  0  0  0  0  0  0  0  0  0  0
  131.6540  132.0440   57.1230 C   0  0  0  0  0  0  0  0  0  0  0  0
  130.6400  132.9230   56.7570 C   0  0  0  0  0  0  0  0  0  0  0  0
  129.4540  132.9710   57.4830 C   0  0  0  0  0  0  0  0  0  0  0  0
  129.2840  132.1330   58.5810 C   0  0  0  0  0  0  0  0  0  0  0  0
  130.5380  128.9950   60.1460 C   0  0  0  0  0  0  0  0  0  0  0  0
  130.3620  128.1660   61.2640 C   0  0  0  0  0  0  0  0  0  0  0  0
  130.8580  126.7160   61.1880 C   0  0  0  0  0  0  0  0  0  0  0  0
  129.8930  125.8210   61.4150 F   0  0  0  0  0  0  0  0  0  0  0  0
  131.3500  126.4720   59.9730 F   0  0  0  0  0  0  0  0  0  0  0  0
  131.8100  126.5160   62.0980 F   0  0  0  0  0  0  0  0  0  0  0  0
  129.7270  128.7340   62.4050 C   0  0  0  0  0  0  0  0  0  0  0  0
  129.3900  128.2090   63.7060 C   0  0  0  0  0  0  0  0  0  0  0  0
  129.6740  126.9210   64.0820 N   0  0  0  0  0  0  0  0  0  0  0  0
  128.1340  127.7210   68.8310 C   0  0  0  0  0  0  0  0  0  0  0  0
  128.1630  127.4970   70.2040 C   0  0  0  0  0  0  0  0  0  0  0  0
  1  2  1  0
  2  3  1  0
  3  4  2  0
  3  5  1  0
  5  6  2  0
  6  7  1  0
  7  8  2  0
  8  9  1  0
  9 10  1  0
 10 11  2  0
 10 12  1  0
 12 13  1  0
 13 14  1  0
 14 15  2  0
 15 16  1  0
 16 17  1  0
 17 18  2  0
 18 19  1  0
 19 20  2  0
 20 21  1  0
 21 22  2  0
 16 23  2  0
 23 24  1  0
 24 25  1  0
 25 26  1  0
 25 27  1  0
 25 28  1  0
 24 29  2  0
 29 30  1  0
 30 31  1  0
  8 32  1  0
 32 33  2  0
 33  5  1  0
 30 12  2  0
 29 14  1  0
 22 17  1  0
M  END
>  <Binding energies>  (31) 
[-7.23]

>  <Ligand effiencies>  (31) 
[-0.20083333333333334]

>  <Interactions>  (31) 
["H-A:GLU:543:OE1:4904, V-A:GLU:543:CD:4903, V-A:ASP:366:CG:3208, V-A:HIS:456:CE1:4064, V-A:GLU:543:CB:4901, H-A:GLU:543:OE2:4905, V-B:HIS:456:CE1:9037, V-A:TYR:539:C:4862, V-A:PRO:540:CA:4878, V-A:PRO:540:N:4879, V-A:PRO:540:CB:4880, V-A:GLU:543:CG:4902, H-B:LYS:547:NZ:9919, H-B:TYR:484:OH:9315, H-B:GLU:543:OE2:9878, H-A:LYS:547:NZ:4946, V-A:GLU:543:CA:4899, V-A:GLU:543:C:4897, V-A:TYR:539:CE1:4870, V-A:TYR:539:CD1:4868, V-A:PRO:540:CD:4882, V-A:TYR:539:CA:4864, V-A:TYR:539:CG:4867, V-A:PRO:540:CG:4881"]

$$$$
4cc_Grossjean_2025
     RDKit          3D

 31 34  0  0  0  0  0  0  0  0999 V2000
  129.8510  118.0090   60.2400 C   0  0  0  0  0  0  0  0  0  0  0  0
  130.2790  119.2980   59.8130 O   0  0  0  0  0  0  0  0  0  0  0  0
  130.1030  120.3800   60.6540 C   0  0  0  0  0  0  0  0  0  0  0  0
  130.5990  120.2470   61.9500 C   0  0  0  0  0  0  0  0  0  0  0  0
  130.4700  121.2860   62.8690 C   0  0  0  0  0  0  0  0  0  0  0  0
  129.8300  122.4720   62.5030 C   0  0  0  0  0  0  0  0  0  0  0  0
  129.7610  123.4710   63.4930 N   0  0  0  0  0  0  0  0  0  0  0  0
  130.7540  123.9970   64.2500 C   0  0  0  0  0  0  0  0  0  0  0  0
  131.9400  123.6810   64.1460 O   0  0  0  0  0  0  0  0  0  0  0  0
  130.3320  124.9980   65.2340 C   0  0  0  0  0  0  0  0  0  0  0  0
  130.6170  124.7300   66.9530 S   0  0  0  0  0  0  0  0  0  0  0  0
  129.8850  126.2640   67.3590 C   0  0  0  0  0  0  0  0  0  0  0  0
  129.7910  126.6760   68.6220 N   0  0  0  0  0  0  0  0  0  0  0  0
  129.2150  127.8860   68.8390 C   0  0  0  0  0  0  0  0  0  0  0  0
  129.1210  128.3230   70.2720 C   0  0  0  0  0  0  0  0  0  0  0  0
  130.1970  128.9740   70.8960 C   0  0  0  0  0  0  0  0  0  0  0  0
  130.1180  129.3800   72.2260 C   0  0  0  0  0  0  0  0  0  0  0  0
  128.9570  129.1400   72.9530 C   0  0  0  0  0  0  0  0  0  0  0  0
  127.8770  128.4950   72.3590 C   0  0  0  0  0  0  0  0  0  0  0  0
  127.9610  128.0890   71.0300 C   0  0  0  0  0  0  0  0  0  0  0  0
  128.7210  128.6680   67.7900 C   0  0  0  0  0  0  0  0  0  0  0  0
  128.8130  128.2420   66.4550 C   0  0  0  0  0  0  0  0  0  0  0  0
  128.2560  129.1530   65.3550 C   0  0  0  0  0  0  0  0  0  0  0  0
  127.0880  128.7290   64.8650 F   0  0  0  0  0  0  0  0  0  0  0  0
  128.0620  130.3790   65.8400 F   0  0  0  0  0  0  0  0  0  0  0  0
  129.1170  129.2120   64.3400 F   0  0  0  0  0  0  0  0  0  0  0  0
  129.4240  126.9780   66.2150 C   0  0  0  0  0  0  0  0  0  0  0  0
  129.6890  126.2270   65.0130 C   0  0  0  0  0  0  0  0  0  0  0  0
  129.3450  126.6800   63.7640 N   0  0  0  0  0  0  0  0  0  0  0  0
  129.3400  122.6180   61.1970 C   0  0  0  0  0  0  0  0  0  0  0  0
  129.4720  121.5770   60.2820 C   0  0  0  0  0  0  0  0  0  0  0  0
  1  2  1  0
  2  3  1  0
  3  4  2  0
  4  5  1  0
  5  6  2  0
  6  7  1  0
  7  8  1  0
  8  9  2  0
  8 10  1  0
 10 11  1  0
 11 12  1  0
 12 13  2  0
 13 14  1  0
 14 15  1  0
 15 16  2  0
 16 17  1  0
 17 18  2  0
 18 19  1  0
 19 20  2  0
 14 21  2  0
 21 22  1  0
 22 23  1  0
 23 24  1  0
 23 25  1  0
 23 26  1  0
 22 27  2  0
 27 28  1  0
 28 29  1  0
  6 30  1  0
 30 31  2  0
 31  3  1  0
 28 10  2  0
 27 12  1  0
 20 15  1  0
M  END
>  <Binding energies>  (32) 
[-7.13]

>  <Ligand effiencies>  (32) 
[-0.2097058823529412]

>  <Interactions>  (32) 
["H-A:GLU:543:OE1:4904, V-A:GLU:543:CD:4903, V-A:HIS:456:CE1:4064, V-A:GLU:543:CB:4901, V-B:GLU:543:CG:9875, V-B:HIS:456:CD2:9035, H-A:GLU:543:OE2:4905, V-B:HIS:456:CE1:9037, V-B:GLU:543:CD:9876, V-B:ALA:541:CB:9860, V-A:TRP:381:CZ2:3365, V-A:LEU:475:CD1:4253, V-B:TYR:539:CD2:9842, V-A:PRO:482:CG:4322, V-A:TRP:381:CH2:3367, V-A:LEU:475:CD2:4254, V-A:PRO:482:CB:4321, V-A:TRP:381:CE2:3362, V-A:TRP:381:CZ3:3366, V-B:TYR:539:C:9835, V-A:GLU:543:CG:4902, H-A:HIS:456:NE2:4065, H-A:TYR:484:OH:4343, H-B:GLU:543:OE2:9878, V-A:TRP:381:CE3:3363, V-A:TYR:484:CZ:4342, V-B:TYR:539:CB:9839, V-B:TYR:484:CZ:9314, V-A:LYS:547:CE:4945, V-A:TYR:484:CE1:4340, V-A:GLU:543:C:4897, V-A:GLY:544:C:4907, V-B:HIS:456:CG:9033, V-B:TYR:484:CE1:9312, V-A:TRP:381:CD2:3360"]

$$$$
4ce_Grossjean_2025
     RDKit          3D

 30 33  0  0  0  0  0  0  0  0999 V2000
  130.1200  119.5430   61.0720 C   0  0  0  0  0  0  0  0  0  0  0  0
  129.9600  121.0400   60.8890 C   0  0  0  0  0  0  0  0  0  0  0  0
  129.8550  121.6140   59.6190 C   0  0  0  0  0  0  0  0  0  0  0  0
  129.7010  122.9970   59.5260 C   0  0  0  0  0  0  0  0  0  0  0  0
  129.6550  123.7660   60.6910 C   0  0  0  0  0  0  0  0  0  0  0  0
  129.7720  123.1280   61.9310 C   0  0  0  0  0  0  0  0  0  0  0  0
  129.6940  123.9530   63.0680 N   0  0  0  0  0  0  0  0  0  0  0  0
  130.2540  123.7690   64.2900 C   0  0  0  0  0  0  0  0  0  0  0  0
  130.9630  122.8040   64.5800 O   0  0  0  0  0  0  0  0  0  0  0  0
  129.9650  124.8110   65.2780 C   0  0  0  0  0  0  0  0  0  0  0  0
  130.2580  124.5150   66.9900 S   0  0  0  0  0  0  0  0  0  0  0  0
  129.7390  126.1310   67.4040 C   0  0  0  0  0  0  0  0  0  0  0  0
  129.7350  126.5570   68.6640 N   0  0  0  0  0  0  0  0  0  0  0  0
  129.3290  127.8350   68.8870 C   0  0  0  0  0  0  0  0  0  0  0  0
  129.3420  128.2860   70.3180 C   0  0  0  0  0  0  0  0  0  0  0  0
  130.4990  128.8450   70.8820 C   0  0  0  0  0  0  0  0  0  0  0  0
  130.5200  129.2600   72.2120 C   0  0  0  0  0  0  0  0  0  0  0  0
  129.3810  129.1210   72.9960 C   0  0  0  0  0  0  0  0  0  0  0  0
  128.2210  128.5690   72.4620 C   0  0  0  0  0  0  0  0  0  0  0  0
  128.2050  128.1540   71.1330 C   0  0  0  0  0  0  0  0  0  0  0  0
  128.9090  128.6700   67.8460 C   0  0  0  0  0  0  0  0  0  0  0  0
  128.9040  128.2280   66.5130 C   0  0  0  0  0  0  0  0  0  0  0  0
  128.4340  129.1950   65.4220 C   0  0  0  0  0  0  0  0  0  0  0  0
  129.1880  129.1510   64.3220 F   0  0  0  0  0  0  0  0  0  0  0  0
  127.1850  128.8950   65.0620 F   0  0  0  0  0  0  0  0  0  0  0  0
  128.4700  130.4450   65.8820 F   0  0  0  0  0  0  0  0  0  0  0  0
  129.3430  126.8950   66.2670 C   0  0  0  0  0  0  0  0  0  0  0  0
  129.4820  126.1120   65.0630 C   0  0  0  0  0  0  0  0  0  0  0  0
  129.1690  126.6010   63.8210 N   0  0  0  0  0  0  0  0  0  0  0  0
  129.9180  121.7740   62.0300 N   0  0  0  0  0  0  0  0  0  0  0  0
  1  2  1  0
  2  3  2  0
  3  4  1  0
  4  5  2  0
  5  6  1  0
  6  7  1  0
  7  8  1  0
  8  9  2  0
  8 10  1  0
 10 11  1  0
 11 12  1  0
 12 13  2  0
 13 14  1  0
 14 15  1  0
 15 16  2  0
 16 17  1  0
 17 18  2  0
 18 19  1  0
 19 20  2  0
 14 21  2  0
 21 22  1  0
 22 23  1  0
 23 24  1  0
 23 25  1  0
 23 26  1  0
 22 27  2  0
 27 28  1  0
 28 29  1  0
  6 30  2  0
 30  2  1  0
 28 10  2  0
 27 12  1  0
 20 15  1  0
M  END
>  <Binding energies>  (33) 
[-7.51]

>  <Ligand effiencies>  (33) 
[-0.22757575757575757]

>  <Interactions>  (33) 
["H-A:GLU:543:OE1:4904, V-A:GLU:543:CD:4903, V-A:HIS:456:CE1:4064, V-A:GLU:543:CB:4901, V-B:GLU:543:CG:9875, V-B:HIS:456:CD2:9035, H-A:GLU:543:OE2:4905, V-B:GLU:543:CB:9874, V-B:HIS:456:CE1:9037, V-B:GLU:543:CD:9876, V-B:TYR:539:CE2:9844, V-B:ALA:541:CB:9860, V-B:TYR:539:CD2:9842, V-A:LEU:475:CD2:4254, V-B:TYR:539:C:9835, V-A:GLU:543:CG:4902, H-A:HIS:456:NE2:4065, H-A:TYR:484:OH:4343, H-B:GLU:543:OE2:9878, V-A:TYR:484:CZ:4342, V-A:GLY:544:CA:4909, V-B:TYR:484:CZ:9314, V-A:LYS:547:CE:4945, V-A:TYR:484:CE1:4340, V-A:GLU:543:C:4897, H-B:GLU:543:OE1:9877, V-A:GLY:544:C:4907, V-B:TYR:484:CE1:9312"]

$$$$
4cf_Grossjean_2025
     RDKit          3D

 29 32  0  0  0  0  0  0  0  0999 V2000
  129.3540  126.5760   63.7450 N   0  0  0  0  0  0  0  0  0  0  0  0
  129.6100  126.0830   64.9990 C   0  0  0  0  0  0  0  0  0  0  0  0
  130.0570  124.7730   65.2340 C   0  0  0  0  0  0  0  0  0  0  0  0
  130.2960  123.7000   64.2640 C   0  0  0  0  0  0  0  0  0  0  0  0
  130.9760  122.7200   64.5680 O   0  0  0  0  0  0  0  0  0  0  0  0
  129.7120  123.8730   63.0530 N   0  0  0  0  0  0  0  0  0  0  0  0
  129.7820  123.0680   61.8990 C   0  0  0  0  0  0  0  0  0  0  0  0
  130.0890  121.6940   61.8790 C   0  0  0  0  0  0  0  0  0  0  0  0
  130.1400  121.0160   60.6590 C   0  0  0  0  0  0  0  0  0  0  0  0
  129.8850  121.7280   59.4870 C   0  0  0  0  0  0  0  0  0  0  0  0
  129.5940  123.0540   59.4790 N   0  0  0  0  0  0  0  0  0  0  0  0
  129.5490  123.7000   60.6730 C   0  0  0  0  0  0  0  0  0  0  0  0
  130.2910  124.4800   66.9560 S   0  0  0  0  0  0  0  0  0  0  0  0
  129.7830  126.1060   67.3470 C   0  0  0  0  0  0  0  0  0  0  0  0
  129.7320  126.5340   68.6070 N   0  0  0  0  0  0  0  0  0  0  0  0
  129.3090  127.8090   68.8120 C   0  0  0  0  0  0  0  0  0  0  0  0
  129.2550  128.2620   70.2430 C   0  0  0  0  0  0  0  0  0  0  0  0
  128.0870  128.1000   71.0030 C   0  0  0  0  0  0  0  0  0  0  0  0
  128.0290  128.5160   72.3310 C   0  0  0  0  0  0  0  0  0  0  0  0
  129.1460  129.1000   72.9190 C   0  0  0  0  0  0  0  0  0  0  0  0
  130.3180  129.2700   72.1900 C   0  0  0  0  0  0  0  0  0  0  0  0
  130.3710  128.8520   70.8630 C   0  0  0  0  0  0  0  0  0  0  0  0
  128.9630  128.6530   67.7530 C   0  0  0  0  0  0  0  0  0  0  0  0
  129.0170  128.2130   66.4220 C   0  0  0  0  0  0  0  0  0  0  0  0
  128.6180  129.1890   65.3090 C   0  0  0  0  0  0  0  0  0  0  0  0
  129.4030  129.1060   64.2320 F   0  0  0  0  0  0  0  0  0  0  0  0
  127.3710  128.9380   64.9140 F   0  0  0  0  0  0  0  0  0  0  0  0
  128.6930  130.4420   65.7590 F   0  0  0  0  0  0  0  0  0  0  0  0
  129.4420  126.8720   66.1950 C   0  0  0  0  0  0  0  0  0  0  0  0
  1  2  1  0
  2  3  2  0
  3  4  1  0
  4  5  2  0
  4  6  1  0
  6  7  1  0
  7  8  2  0
  8  9  1  0
  9 10  2  0
 10 11  1  0
 11 12  2  0
  3 13  1  0
 13 14  1  0
 14 15  2  0
 15 16  1  0
 16 17  1  0
 17 18  2  0
 18 19  1  0
 19 20  2  0
 20 21  1  0
 21 22  2  0
 16 23  2  0
 23 24  1  0
 24 25  1  0
 25 26  1  0
 25 27  1  0
 25 28  1  0
 24 29  2  0
 29  2  1  0
 12  7  1  0
 29 14  1  0
 22 17  1  0
M  END
>  <Binding energies>  (34) 
[-6.88]

>  <Ligand effiencies>  (34) 
[-0.215]

>  <Interactions>  (34) 
["H-A:GLU:543:OE1:4904, V-A:GLU:543:CD:4903, V-A:HIS:456:CE1:4064, V-A:GLU:543:CB:4901, V-B:GLU:543:CG:9875, V-B:HIS:456:CD2:9035, H-A:GLU:543:OE2:4905, V-B:GLU:543:CB:9874, V-B:HIS:456:CE1:9037, V-B:GLU:543:CD:9876, V-B:TYR:539:CE2:9844, V-B:ALA:541:CB:9860, V-B:TYR:539:CD2:9842, V-A:GLU:543:CG:4902, H-A:HIS:456:NE2:4065, H-A:TYR:484:OH:4343, H-B:GLU:543:OE2:9878, V-A:TYR:484:CZ:4342, V-B:TYR:484:CZ:9314, V-A:LYS:547:CE:4945, V-A:TYR:484:CE1:4340, V-A:GLU:543:C:4897, V-A:GLY:544:C:4907, V-B:TYR:484:CE1:9312"]

$$$$
4ci_Grossjean_2025
     RDKit          3D

 28 31  0  0  0  0  0  0  0  0999 V2000
  129.3250  126.4170   63.8060 N   0  0  0  0  0  0  0  0  0  0  0  0
  129.5770  125.9430   65.0680 C   0  0  0  0  0  0  0  0  0  0  0  0
  129.9650  124.6190   65.3290 C   0  0  0  0  0  0  0  0  0  0  0  0
  130.1830  123.5270   64.3770 C   0  0  0  0  0  0  0  0  0  0  0  0
  130.9670  122.6110   64.6390 O   0  0  0  0  0  0  0  0  0  0  0  0
  129.4840  123.6130   63.2180 N   0  0  0  0  0  0  0  0  0  0  0  0
  129.5030  122.7260   62.1500 C   0  0  0  0  0  0  0  0  0  0  0  0
  130.6800  122.2700   61.5580 C   0  0  0  0  0  0  0  0  0  0  0  0
  130.2720  121.4240   60.5530 C   0  0  0  0  0  0  0  0  0  0  0  0
  128.9180  121.3730   60.5400 O   0  0  0  0  0  0  0  0  0  0  0  0
  128.4430  122.2020   61.5570 N   0  0  0  0  0  0  0  0  0  0  0  0
  130.2150  124.3570   67.0530 S   0  0  0  0  0  0  0  0  0  0  0  0
  129.7910  126.0150   67.4120 C   0  0  0  0  0  0  0  0  0  0  0  0
  129.7910  126.4780   68.6600 N   0  0  0  0  0  0  0  0  0  0  0  0
  129.4510  127.7800   68.8410 C   0  0  0  0  0  0  0  0  0  0  0  0
  129.4550  128.2720   70.2600 C   0  0  0  0  0  0  0  0  0  0  0  0
  128.3060  128.1690   71.0610 C   0  0  0  0  0  0  0  0  0  0  0  0
  128.3030  128.6220   72.3780 C   0  0  0  0  0  0  0  0  0  0  0  0
  129.4550  129.1890   72.9140 C   0  0  0  0  0  0  0  0  0  0  0  0
  130.6050  129.3080   72.1430 C   0  0  0  0  0  0  0  0  0  0  0  0
  130.6030  128.8540   70.8260 C   0  0  0  0  0  0  0  0  0  0  0  0
  129.0970  128.6060   67.7690 C   0  0  0  0  0  0  0  0  0  0  0  0
  129.0940  128.1280   66.4480 C   0  0  0  0  0  0  0  0  0  0  0  0
  128.6960  129.0880   65.3210 C   0  0  0  0  0  0  0  0  0  0  0  0
  129.4850  128.9940   64.2490 F   0  0  0  0  0  0  0  0  0  0  0  0
  127.4510  128.8230   64.9250 F   0  0  0  0  0  0  0  0  0  0  0  0
  128.7610  130.3470   65.7570 F   0  0  0  0  0  0  0  0  0  0  0  0
  129.4620  126.7670   66.2470 C   0  0  0  0  0  0  0  0  0  0  0  0
  1  2  1  0
  2  3  2  0
  3  4  1  0
  4  5  2  0
  4  6  1  0
  6  7  1  0
  7  8  1  0
  8  9  2  0
  9 10  1  0
 10 11  1  0
  3 12  1  0
 12 13  1  0
 13 14  2  0
 14 15  1  0
 15 16  1  0
 16 17  2  0
 17 18  1  0
 18 19  2  0
 19 20  1  0
 20 21  2  0
 15 22  2  0
 22 23  1  0
 23 24  1  0
 24 25  1  0
 24 26  1  0
 24 27  1  0
 23 28  2  0
 28  2  1  0
 11  7  2  0
 28 13  1  0
 21 16  1  0
M  END
>  <Binding energies>  (35) 
[-6.84]

>  <Ligand effiencies>  (35) 
[-0.22064516129032258]

>  <Interactions>  (35) 
["H-A:GLU:543:OE1:4904, V-A:GLU:543:CD:4903, V-A:HIS:456:CE1:4064, V-A:GLU:543:CB:4901, V-B:GLU:543:CG:9875, V-B:HIS:456:CD2:9035, H-A:GLU:543:OE2:4905, V-B:GLU:543:CB:9874, V-B:HIS:456:CE1:9037, V-B:GLU:543:CD:9876, V-B:ALA:541:CB:9860, V-A:GLU:543:CG:4902, H-A:HIS:456:NE2:4065, H-A:TYR:484:OH:4343, H-B:ALA:541:N:9859, H-B:GLU:543:OE2:9878, V-A:TYR:484:CZ:4342, V-A:GLY:544:CA:4909, V-A:LYS:547:CE:4945, V-A:TYR:484:CE1:4340, V-A:GLU:543:C:4897, V-A:GLY:544:C:4907"]

$$$$
8a_Ghoteimi_2023
     RDKit          3D

 40 44  0  0  0  0  0  0  0  0999 V2000
  130.5780  117.9860   61.8660 C   0  0  0  0  0  0  0  0  0  0  0  0
  129.5520  118.1290   60.7390 C   0  0  0  0  0  0  0  0  0  0  0  0
  130.0900  118.9510   59.7110 O   0  0  0  0  0  0  0  0  0  0  0  0
  131.1360  119.7840   59.9540 C   0  0  0  0  0  0  0  0  0  0  0  0
  132.2430  119.6570   59.4230 O   0  0  0  0  0  0  0  0  0  0  0  0
  130.8120  120.8710   60.9380 C   0  0  0  0  0  0  0  0  0  0  0  0
  131.8060  121.3110   61.8220 C   0  0  0  0  0  0  0  0  0  0  0  0
  131.5370  122.3160   62.7460 C   0  0  0  0  0  0  0  0  0  0  0  0
  130.2710  122.9020   62.8090 C   0  0  0  0  0  0  0  0  0  0  0  0
  130.1140  123.9040   63.7860 N   0  0  0  0  0  0  0  0  0  0  0  0
  130.9480  124.9080   64.1550 C   0  0  0  0  0  0  0  0  0  0  0  0
  132.0540  125.1090   63.6560 O   0  0  0  0  0  0  0  0  0  0  0  0
  130.4410  125.7810   65.2180 C   0  0  0  0  0  0  0  0  0  0  0  0
  130.9590  125.5460   66.8870 S   0  0  0  0  0  0  0  0  0  0  0  0
  129.9610  126.8740   67.4330 C   0  0  0  0  0  0  0  0  0  0  0  0
  129.8930  127.2160   68.7200 N   0  0  0  0  0  0  0  0  0  0  0  0
  129.0820  128.2600   69.0380 C   0  0  0  0  0  0  0  0  0  0  0  0
  129.0050  128.6130   70.4890 C   0  0  0  0  0  0  0  0  0  0  0  0
  127.8420  128.3680   71.2330 C   0  0  0  0  0  0  0  0  0  0  0  0
  127.7730  128.7100   72.5800 C   0  0  0  0  0  0  0  0  0  0  0  0
  128.8610  129.3010   73.2180 C   0  0  0  0  0  0  0  0  0  0  0  0
  128.7010  129.6070   74.5570 O   0  0  0  0  0  0  0  0  0  0  0  0
  127.7020  130.5470   74.9370 C   0  0  0  0  0  0  0  0  0  0  0  0
  130.0310  129.5440   72.4850 C   0  0  0  0  0  0  0  0  0  0  0  0
  130.0970  129.2040   71.1360 C   0  0  0  0  0  0  0  0  0  0  0  0
  128.3520  128.9590   68.0750 C   0  0  0  0  0  0  0  0  0  0  0  0
  128.4330  128.6140   66.7210 C   0  0  0  0  0  0  0  0  0  0  0  0
  127.6610  129.4110   65.7340 C   0  0  0  0  0  0  0  0  0  0  0  0
  128.3170  130.3060   64.8860 C   0  0  0  0  0  0  0  0  0  0  0  0
  127.6000  131.0400   63.9460 C   0  0  0  0  0  0  0  0  0  0  0  0
  126.2170  130.8880   63.8320 C   0  0  0  0  0  0  0  0  0  0  0  0
  125.5900  131.6570   62.8710 O   0  0  0  0  0  0  0  0  0  0  0  0
  126.1000  132.9510   62.5750 C   0  0  0  0  0  0  0  0  0  0  0  0
  125.5570  129.9830   64.6780 C   0  0  0  0  0  0  0  0  0  0  0  0
  126.2780  129.2490   65.6170 C   0  0  0  0  0  0  0  0  0  0  0  0
  129.2590  127.5090   66.3670 C   0  0  0  0  0  0  0  0  0  0  0  0
  129.5380  126.8520   65.1140 C   0  0  0  0  0  0  0  0  0  0  0  0
  128.9540  127.2370   63.9330 N   0  0  0  0  0  0  0  0  0  0  0  0
  129.2710  122.4700   61.9240 C   0  0  0  0  0  0  0  0  0  0  0  0
  129.5420  121.4650   61.0000 C   0  0  0  0  0  0  0  0  0  0  0  0
  1  2  1  0
  2  3  1  0
  3  4  1  0
  4  5  2  0
  4  6  1  0
  6  7  2  0
  7  8  1  0
  8  9  2  0
  9 10  1  0
 10 11  1  0
 11 12  2  0
 11 13  1  0
 13 14  1  0
 14 15  1  0
 15 16  2  0
 16 17  1  0
 17 18  1  0
 18 19  2  0
 19 20  1  0
 20 21  2  0
 21 22  1  0
 22 23  1  0
 21 24  1  0
 24 25  2  0
 17 26  2  0
 26 27  1  0
 27 28  1  0
 28 29  2  0
 29 30  1  0
 30 31  2  0
 31 32  1  0
 32 33  1  0
 31 34  1  0
 34 35  2  0
 27 36  2  0
 36 37  1  0
 37 38  1  0
  9 39  1  0
 39 40  2  0
 40  6  1  0
 37 13  2  0
 36 15  1  0
 25 18  1  0
 35 28  1  0
M  END
>  <Binding energies>  (36) 
[-7.79]

>  <Ligand effiencies>  (36) 
[-0.1811627906976744]

>  <Interactions>  (36) 
["H-A:GLU:543:OE1:4904, V-A:GLU:543:CD:4903, V-A:HIS:456:CE1:4064, V-B:GLU:543:CG:9875, V-B:HIS:456:CD2:9035, H-A:GLU:543:OE2:4905, V-B:HIS:456:CE1:9037, V-B:GLU:543:CD:9876, V-B:TYR:539:CE2:9844, V-B:ALA:541:CB:9860, V-A:TRP:381:CZ2:3365, V-A:LEU:475:CD1:4253, V-A:LEU:475:CG:4252, V-B:TYR:539:CD2:9842, V-A:PRO:482:CG:4322, V-A:TRP:381:CH2:3367, V-A:LEU:475:CD2:4254, V-A:PRO:482:CB:4321, V-A:TRP:381:CE2:3362, V-A:TRP:381:CZ3:3366, V-B:TYR:539:C:9835, V-A:GLU:543:CG:4902, H-B:TYR:484:OH:9315, H-B:GLU:543:OE2:9878, V-A:LYS:547:CE:4945, H-A:LYS:547:NZ:4946, V-A:GLU:543:C:4897, H-B:GLU:543:OE1:9877, V-A:GLY:544:C:4907, V-B:HIS:456:CG:9033, V-B:LEU:475:CD2:9226"]

$$$$
8c_Ghoteimi_2023
     RDKit          3D

 34 38  0  0  0  0  0  0  0  0999 V2000
  128.0090  130.4270   74.4660 C   0  0  0  0  0  0  0  0  0  0  0  0
  128.9580  129.4290   74.1080 O   0  0  0  0  0  0  0  0  0  0  0  0
  129.0800  129.0600   72.7820 C   0  0  0  0  0  0  0  0  0  0  0  0
  127.9590  128.4830   72.1890 C   0  0  0  0  0  0  0  0  0  0  0  0
  127.9910  128.0780   70.8580 C   0  0  0  0  0  0  0  0  0  0  0  0
  129.1490  128.2410   70.0830 C   0  0  0  0  0  0  0  0  0  0  0  0
  129.1910  127.8050   68.6530 C   0  0  0  0  0  0  0  0  0  0  0  0
  128.6470  128.5840   67.6280 C   0  0  0  0  0  0  0  0  0  0  0  0
  128.7020  128.1540   66.2980 C   0  0  0  0  0  0  0  0  0  0  0  0
  128.1080  128.9990   65.2370 C   0  0  0  0  0  0  0  0  0  0  0  0
  128.7110  130.2080   64.8810 C   0  0  0  0  0  0  0  0  0  0  0  0
  128.1560  130.9960   63.8770 C   0  0  0  0  0  0  0  0  0  0  0  0
  126.9940  130.5930   63.2180 C   0  0  0  0  0  0  0  0  0  0  0  0
  126.5170  131.4370   62.2330 O   0  0  0  0  0  0  0  0  0  0  0  0
  127.1080  132.7220   62.0740 C   0  0  0  0  0  0  0  0  0  0  0  0
  126.3880  129.3800   63.5800 C   0  0  0  0  0  0  0  0  0  0  0  0
  126.9440  128.5910   64.5840 C   0  0  0  0  0  0  0  0  0  0  0  0
  129.3310  126.9110   66.0240 C   0  0  0  0  0  0  0  0  0  0  0  0
  129.5630  126.1830   64.8040 C   0  0  0  0  0  0  0  0  0  0  0  0
  129.1570  126.6510   63.5800 N   0  0  0  0  0  0  0  0  0  0  0  0
  130.2370  124.9650   64.9880 C   0  0  0  0  0  0  0  0  0  0  0  0
  130.6370  123.9820   63.9780 C   0  0  0  0  0  0  0  0  0  0  0  0
  131.7940  123.5590   63.9340 O   0  0  0  0  0  0  0  0  0  0  0  0
  129.6580  123.5950   63.1230 N   0  0  0  0  0  0  0  0  0  0  0  0
  129.7700  122.6820   62.0850 C   0  0  0  0  0  0  0  0  0  0  0  0
  129.3090  122.7940   60.8580 N   0  0  0  0  0  0  0  0  0  0  0  0
  129.6020  121.7330   60.1320 C   0  0  0  0  0  0  0  0  0  0  0  0
  130.3170  120.7270   60.7720 C   0  0  0  0  0  0  0  0  0  0  0  0
  130.6160  121.2050   62.4170 S   0  0  0  0  0  0  0  0  0  0  0  0
  130.6060  124.6910   66.6910 S   0  0  0  0  0  0  0  0  0  0  0  0
  129.8550  126.2040   67.1450 C   0  0  0  0  0  0  0  0  0  0  0  0
  129.8010  126.6120   68.4130 N   0  0  0  0  0  0  0  0  0  0  0  0
  130.2720  128.8250   70.6850 C   0  0  0  0  0  0  0  0  0  0  0  0
  130.2430  129.2300   72.0160 C   0  0  0  0  0  0  0  0  0  0  0  0
  1  2  1  0
  2  3  1  0
  3  4  2  0
  4  5  1  0
  5  6  2  0
  6  7  1  0
  7  8  2  0
  8  9  1  0
  9 10  1  0
 10 11  2  0
 11 12  1  0
 12 13  2  0
 13 14  1  0
 14 15  1  0
 13 16  1  0
 16 17  2  0
  9 18  2  0
 18 19  1  0
 19 20  1  0
 19 21  2  0
 21 22  1  0
 22 23  2  0
 22 24  1  0
 24 25  1  0
 25 26  2  0
 26 27  1  0
 27 28  2  0
 28 29  1  0
 21 30  1  0
 30 31  1  0
 31 32  2  0
  6 33  1  0
 33 34  2  0
 34  3  1  0
 32  7  1  0
 17 10  1  0
 31 18  1  0
 29 25  1  0
M  END
>  <Binding energies>  (37) 
[-8.02]

>  <Ligand effiencies>  (37) 
[-0.21675675675675674]

>  <Interactions>  (37) 
["H-A:GLU:543:OE1:4904, V-A:GLU:543:CD:4903, V-A:HIS:456:CE1:4064, V-B:GLU:543:CG:9875, V-B:HIS:456:CD2:9035, H-A:GLU:543:OE2:4905, V-B:GLU:543:CB:9874, V-B:HIS:456:CE1:9037, V-B:GLU:543:CD:9876, V-B:ALA:541:CB:9860, V-B:TYR:539:CD2:9842, V-A:LEU:475:CD2:4254, V-A:GLU:543:CG:4902, H-A:HIS:456:NE2:4065, H-A:TYR:484:OH:4343, H-B:GLU:543:OE2:9878, V-A:TYR:484:CZ:4342, V-A:LYS:547:CE:4945, H-A:LYS:547:NZ:4946, V-A:TYR:484:CE1:4340, V-A:GLU:543:C:4897, H-B:GLU:543:OE1:9877, V-A:GLY:544:C:4907, V-B:HIS:456:CG:9033"]

$$$$
8d_Ghoteimi_2023
     RDKit          3D

 30 33  0  0  0  0  0  0  0  0999 V2000
  126.2760  126.3380   61.1660 C   0  0  0  0  0  0  0  0  0  0  0  0
  127.0200  127.4880   61.5450 O   0  0  0  0  0  0  0  0  0  0  0  0
  126.5650  128.3240   62.5140 C   0  0  0  0  0  0  0  0  0  0  0  0
  125.6810  129.1660   62.3390 O   0  0  0  0  0  0  0  0  0  0  0  0
  127.2410  128.1210   63.8140 C   0  0  0  0  0  0  0  0  0  0  0  0
  126.5870  128.8690   65.2720 S   0  0  0  0  0  0  0  0  0  0  0  0
  127.8690  128.1860   66.2450 C   0  0  0  0  0  0  0  0  0  0  0  0
  127.9470  128.4010   67.5580 N   0  0  0  0  0  0  0  0  0  0  0  0
  128.9840  127.8200   68.2200 C   0  0  0  0  0  0  0  0  0  0  0  0
  129.0500  128.0810   69.6920 C   0  0  0  0  0  0  0  0  0  0  0  0
  127.9400  127.8580   70.5180 C   0  0  0  0  0  0  0  0  0  0  0  0
  128.0070  128.1030   71.8870 C   0  0  0  0  0  0  0  0  0  0  0  0
  129.1830  128.5780   72.4650 C   0  0  0  0  0  0  0  0  0  0  0  0
  129.1590  128.7930   73.8290 O   0  0  0  0  0  0  0  0  0  0  0  0
  128.2580  129.7570   74.3650 C   0  0  0  0  0  0  0  0  0  0  0  0
  130.3010  128.8030   71.6480 C   0  0  0  0  0  0  0  0  0  0  0  0
  130.2300  128.5560   70.2790 C   0  0  0  0  0  0  0  0  0  0  0  0
  129.9400  127.0360   67.5680 C   0  0  0  0  0  0  0  0  0  0  0  0
  129.8560  126.8070   66.1910 C   0  0  0  0  0  0  0  0  0  0  0  0
  130.8790  125.9640   65.5310 C   0  0  0  0  0  0  0  0  0  0  0  0
  132.2370  126.2200   65.7330 C   0  0  0  0  0  0  0  0  0  0  0  0
  133.1990  125.4330   65.1050 C   0  0  0  0  0  0  0  0  0  0  0  0
  132.8200  124.3800   64.2730 C   0  0  0  0  0  0  0  0  0  0  0  0
  133.8420  123.6540   63.6930 O   0  0  0  0  0  0  0  0  0  0  0  0
  134.2310  123.9490   62.3560 C   0  0  0  0  0  0  0  0  0  0  0  0
  131.4530  124.1220   64.0750 C   0  0  0  0  0  0  0  0  0  0  0  0
  130.4930  124.9100   64.7020 C   0  0  0  0  0  0  0  0  0  0  0  0
  128.7800  127.4020   65.4810 C   0  0  0  0  0  0  0  0  0  0  0  0
  128.3970  127.3830   64.0960 C   0  0  0  0  0  0  0  0  0  0  0  0
  129.1090  126.7040   63.1410 N   0  0  0  0  0  0  0  0  0  0  0  0
  1  2  1  0
  2  3  1  0
  3  4  2  0
  3  5  1  0
  5  6  1  0
  6  7  1  0
  7  8  2  0
  8  9  1  0
  9 10  1  0
 10 11  2  0
 11 12  1  0
 12 13  2  0
 13 14  1  0
 14 15  1  0
 13 16  1  0
 16 17  2  0
  9 18  2  0
 18 19  1  0
 19 20  1  0
 20 21  2  0
 21 22  1  0
 22 23  2  0
 23 24  1  0
 24 25  1  0
 23 26  1  0
 26 27  2  0
 19 28  2  0
 28 29  1  0
 29 30  1  0
 29  5  2  0
 28  7  1  0
 17 10  1  0
 27 20  1  0
M  END
>  <Binding energies>  (38) 
[-6.56]

>  <Ligand effiencies>  (38) 
[-0.205]

>  <Interactions>  (38) 
["V-A:GLU:543:CD:4903, V-A:ASP:366:CG:3208, V-A:HIS:456:CE1:4064, V-A:ARG:545:CZ:4921, V-B:GLU:543:CG:9875, V-B:HIS:456:CD2:9035, V-A:ILE:369:CD1:3234, V-B:HIS:456:CE1:9037, V-B:GLU:543:CD:9876, V-B:ASP:366:CG:8180, H-B:LYS:547:NZ:9919, H-A:TYR:484:OH:4343, H-B:GLU:543:OE2:9878, H-A:GLY:454:N:4045, H-A:LYS:547:NZ:4946, V-A:GLU:543:C:4897, V-A:GLY:544:C:4907, H-B:ARG:545:NH2:9896"]

$$$$
9a_Ghoteimi_2023
     RDKit          3D

 48 54  0  0  0  0  0  0  0  0999 V2000
  129.0740  132.9650   57.9950 C   0  0  0  0  0  0  0  0  0  0  0  0
  128.9160  132.9450   59.5190 C   0  0  0  0  0  0  0  0  0  0  0  0
  127.9490  133.9120   59.9080 O   0  0  0  0  0  0  0  0  0  0  0  0
  126.9500  133.5970   60.7720 C   0  0  0  0  0  0  0  0  0  0  0  0
  125.8150  134.0800   60.7050 O   0  0  0  0  0  0  0  0  0  0  0  0
  127.3640  132.6070   61.8220 C   0  0  0  0  0  0  0  0  0  0  0  0
  127.1490  131.2410   61.5970 C   0  0  0  0  0  0  0  0  0  0  0  0
  127.5200  130.2980   62.5520 C   0  0  0  0  0  0  0  0  0  0  0  0
  128.1130  130.7000   63.7490 C   0  0  0  0  0  0  0  0  0  0  0  0
  128.4460  129.6610   64.6400 N   0  0  0  0  0  0  0  0  0  0  0  0
  128.5770  129.6700   65.9900 C   0  0  0  0  0  0  0  0  0  0  0  0
  128.4110  130.6650   66.6950 O   0  0  0  0  0  0  0  0  0  0  0  0
  128.9340  128.3820   66.5930 C   0  0  0  0  0  0  0  0  0  0  0  0
  128.7410  128.1270   68.3280 S   0  0  0  0  0  0  0  0  0  0  0  0
  129.3280  126.4850   68.1970 C   0  0  0  0  0  0  0  0  0  0  0  0
  129.4080  125.6850   69.2600 N   0  0  0  0  0  0  0  0  0  0  0  0
  129.8660  124.4230   69.0480 C   0  0  0  0  0  0  0  0  0  0  0  0
  129.9370  123.5400   70.2520 C   0  0  0  0  0  0  0  0  0  0  0  0
  129.3180  122.2860   70.2520 C   0  0  0  0  0  0  0  0  0  0  0  0
  129.3800  121.4560   71.3690 C   0  0  0  0  0  0  0  0  0  0  0  0
  130.0770  121.8460   72.5240 C   0  0  0  0  0  0  0  0  0  0  0  0
  130.1320  121.0320   73.6600 N   0  0  0  0  0  0  0  0  0  0  0  0
  128.9370  120.7880   74.4930 C   0  0  0  0  0  0  0  0  0  0  0  0
  129.2560  120.1810   75.8760 C   0  0  0  0  0  0  0  0  0  0  0  0
  130.0200  118.9970   75.7240 O   0  0  0  0  0  0  0  0  0  0  0  0
  131.2510  119.2540   75.0660 C   0  0  0  0  0  0  0  0  0  0  0  0
  130.9880  119.8270   73.6590 C   0  0  0  0  0  0  0  0  0  0  0  0
  130.6840  123.1100   72.5240 C   0  0  0  0  0  0  0  0  0  0  0  0
  130.6180  123.9400   71.4080 C   0  0  0  0  0  0  0  0  0  0  0  0
  130.2660  123.9760   67.7870 C   0  0  0  0  0  0  0  0  0  0  0  0
  130.2020  124.8190   66.6720 C   0  0  0  0  0  0  0  0  0  0  0  0
  130.6740  124.3050   65.3610 C   0  0  0  0  0  0  0  0  0  0  0  0
  131.8170  124.8370   64.7580 C   0  0  0  0  0  0  0  0  0  0  0  0
  132.2660  124.3450   63.5360 C   0  0  0  0  0  0  0  0  0  0  0  0
  131.5930  123.2940   62.8920 C   0  0  0  0  0  0  0  0  0  0  0  0
  132.0180  122.7910   61.6600 N   0  0  0  0  0  0  0  0  0  0  0  0
  132.0030  121.3320   61.4340 C   0  0  0  0  0  0  0  0  0  0  0  0
  132.1240  120.9430   59.9460 C   0  0  0  0  0  0  0  0  0  0  0  0
  133.2870  121.5300   59.3830 O   0  0  0  0  0  0  0  0  0  0  0  0
  133.2510  122.9460   59.4620 C   0  0  0  0  0  0  0  0  0  0  0  0
  133.1590  123.3890   60.9380 C   0  0  0  0  0  0  0  0  0  0  0  0
  130.4490  122.7660   63.5080 C   0  0  0  0  0  0  0  0  0  0  0  0
  129.9980  123.2610   64.7270 C   0  0  0  0  0  0  0  0  0  0  0  0
  129.6910  126.1350   66.8640 C   0  0  0  0  0  0  0  0  0  0  0  0
  129.4330  127.2310   65.9630 C   0  0  0  0  0  0  0  0  0  0  0  0
  129.6450  127.1410   64.6110 N   0  0  0  0  0  0  0  0  0  0  0  0
  128.3360  132.0660   63.9820 C   0  0  0  0  0  0  0  0  0  0  0  0
  127.9630  133.0070   63.0260 C   0  0  0  0  0  0  0  0  0  0  0  0
  1  2  1  0
  2  3  1  0
  3  4  1  0
  4  5  2  0
  4  6  1  0
  6  7  2  0
  7  8  1  0
  8  9  2  0
  9 10  1  0
 10 11  1  0
 11 12  2  0
 11 13  1  0
 13 14  1  0
 14 15  1  0
 15 16  2  0
 16 17  1  0
 17 18  1  0
 18 19  2  0
 19 20  1  0
 20 21  2  0
 21 22  1  0
 22 23  1  0
 23 24  1  0
 24 25  1  0
 25 26  1  0
 26 27  1  0
 21 28  1  0
 28 29  2  0
 17 30  2  0
 30 31  1  0
 31 32  1  0
 32 33  2  0
 33 34  1  0
 34 35  2  0
 35 36  1  0
 36 37  1  0
 37 38  1  0
 38 39  1  0
 39 40  1  0
 40 41  1  0
 35 42  1  0
 42 43  2  0
 31 44  2  0
 44 45  1  0
 45 46  1  0
  9 47  1  0
 47 48  2  0
 48  6  1  0
 45 13  2  0
 44 15  1  0
 29 18  1  0
 43 32  1  0
 27 22  1  0
 41 36  1  0
M  END
>  <Binding energies>  (39) 
[-8.81]

>  <Ligand effiencies>  (39) 
[-0.1727450980392157]

>  <Interactions>  (39) 
["H-A:GLU:543:OE1:4904, V-A:GLU:543:CD:4903, V-A:ASP:366:CG:3208, V-A:HIS:456:CE1:4064, V-A:GLU:543:CB:4901, V-B:GLU:543:CG:9875, H-A:GLU:543:OE2:4905, V-B:GLU:543:CB:9874, V-A:ILE:369:CD1:3234, V-B:HIS:456:CE1:9037, V-B:GLU:543:CD:9876, V-B:TYR:539:CE2:9844, V-B:ALA:541:CB:9860, V-A:TYR:539:C:4862, V-A:PRO:540:CA:4878, V-B:TYR:539:CD2:9842, V-A:PRO:540:N:4879, V-A:TYR:539:CZ:4872, V-A:LEU:475:CD2:4254, V-A:TYR:539:CD2:4869, V-A:TYR:539:CE2:4871, V-A:GLU:543:CG:4902, H-B:TYR:484:OH:9315, V-B:GLU:543:C:9870, H-A:HIS:456:NE2:4065, H-B:GLU:543:OE2:9878, V-A:TYR:484:CZ:4342, V-A:HIS:456:CD2:4063, V-B:GLU:543:CA:9872, V-A:TYR:484:CE1:4340, V-A:HIS:456:CG:4061, V-A:ASP:473:CG:4235, V-A:ILE:369:CG2:3232, V-A:ALA:541:CB:4887, V-A:TYR:484:CD1:4338, V-A:TYR:484:CG:4337, V-A:TYR:484:CB:4336, V-A:ASP:473:CB:4234, V-A:TYR:539:CE1:4870, V-A:TYR:539:CD1:4868, V-A:TYR:539:CG:4867"]

$$$$
9b_Ghoteimi_2023
     RDKit          3D

 42 48  0  0  0  0  0  0  0  0999 V2000
  129.8550  127.3500   65.2350 N   0  0  0  0  0  0  0  0  0  0  0  0
  129.5330  127.3050   66.5680 C   0  0  0  0  0  0  0  0  0  0  0  0
  129.0410  128.4080   67.2830 C   0  0  0  0  0  0  0  0  0  0  0  0
  128.7540  129.7590   66.7940 C   0  0  0  0  0  0  0  0  0  0  0  0
  128.6440  130.7030   67.5800 O   0  0  0  0  0  0  0  0  0  0  0  0
  128.6180  129.8760   65.4490 N   0  0  0  0  0  0  0  0  0  0  0  0
  128.3360  131.0260   64.7230 C   0  0  0  0  0  0  0  0  0  0  0  0
  127.5710  131.0220   63.5580 C   0  0  0  0  0  0  0  0  0  0  0  0
  127.5250  132.3370   63.1550 C   0  0  0  0  0  0  0  0  0  0  0  0
  128.2270  133.0930   64.0330 O   0  0  0  0  0  0  0  0  0  0  0  0
  128.7360  132.2510   65.0220 N   0  0  0  0  0  0  0  0  0  0  0  0
  128.7670  128.0000   68.9760 S   0  0  0  0  0  0  0  0  0  0  0  0
  129.3290  126.3660   68.7210 C   0  0  0  0  0  0  0  0  0  0  0  0
  129.3940  125.4860   69.7180 N   0  0  0  0  0  0  0  0  0  0  0  0
  129.8630  124.2460   69.4170 C   0  0  0  0  0  0  0  0  0  0  0  0
  129.9450  123.2850   70.5590 C   0  0  0  0  0  0  0  0  0  0  0  0
  130.8310  123.4980   71.6220 C   0  0  0  0  0  0  0  0  0  0  0  0
  130.9140  122.5920   72.6750 C   0  0  0  0  0  0  0  0  0  0  0  0
  130.1250  121.4320   72.6960 C   0  0  0  0  0  0  0  0  0  0  0  0
  130.1960  120.5130   73.7500 N   0  0  0  0  0  0  0  0  0  0  0  0
  131.0480  119.3100   73.6650 C   0  0  0  0  0  0  0  0  0  0  0  0
  131.2720  118.6080   75.0210 C   0  0  0  0  0  0  0  0  0  0  0  0
  130.0240  118.3050   75.6220 O   0  0  0  0  0  0  0  0  0  0  0  0
  129.2640  119.4780   75.8640 C   0  0  0  0  0  0  0  0  0  0  0  0
  128.9810  120.2110   74.5360 C   0  0  0  0  0  0  0  0  0  0  0  0
  129.2260  121.2330   71.6390 C   0  0  0  0  0  0  0  0  0  0  0  0
  129.1400  122.1420   70.5880 C   0  0  0  0  0  0  0  0  0  0  0  0
  130.2370  123.8840   68.1210 C   0  0  0  0  0  0  0  0  0  0  0  0
  130.1500  124.7990   67.0660 C   0  0  0  0  0  0  0  0  0  0  0  0
  130.5320  124.3550   65.7010 C   0  0  0  0  0  0  0  0  0  0  0  0
  131.5850  124.9750   65.0270 C   0  0  0  0  0  0  0  0  0  0  0  0
  131.9570  124.5490   63.7560 C   0  0  0  0  0  0  0  0  0  0  0  0
  131.2850  123.4910   63.1230 C   0  0  0  0  0  0  0  0  0  0  0  0
  131.6520  123.0370   61.8540 N   0  0  0  0  0  0  0  0  0  0  0  0
  132.9190  123.5040   61.2580 C   0  0  0  0  0  0  0  0  0  0  0  0
  133.0040  123.2560   59.7360 C   0  0  0  0  0  0  0  0  0  0  0  0
  132.7950  121.8800   59.4570 O   0  0  0  0  0  0  0  0  0  0  0  0
  131.5210  121.4400   59.9040 C   0  0  0  0  0  0  0  0  0  0  0  0
  131.3960  121.6470   61.4280 C   0  0  0  0  0  0  0  0  0  0  0  0
  130.2400  122.8650   63.8170 C   0  0  0  0  0  0  0  0  0  0  0  0
  129.8680  123.2910   65.0890 C   0  0  0  0  0  0  0  0  0  0  0  0
  129.6950  126.1140   67.3650 C   0  0  0  0  0  0  0  0  0  0  0  0
  1  2  1  0
  2  3  2  0
  3  4  1  0
  4  5  2  0
  4  6  1  0
  6  7  1  0
  7  8  1  0
  8  9  2  0
  9 10  1  0
 10 11  1  0
  3 12  1  0
 12 13  1  0
 13 14  2  0
 14 15  1  0
 15 16  1  0
 16 17  2  0
 17 18  1  0
 18 19  2  0
 19 20  1  0
 20 21  1  0
 21 22  1  0
 22 23  1  0
 23 24  1  0
 24 25  1  0
 19 26  1  0
 26 27  2  0
 15 28  2  0
 28 29  1  0
 29 30  1  0
 30 31  2  0
 31 32  1  0
 32 33  2  0
 33 34  1  0
 34 35  1  0
 35 36  1  0
 36 37  1  0
 37 38  1  0
 38 39  1  0
 33 40  1  0
 40 41  2  0
 29 42  2  0
 42  2  1  0
 11  7  2  0
 42 13  1  0
 27 16  1  0
 41 30  1  0
 25 20  1  0
 39 34  1  0
M  END
>  <Binding energies>  (40) 
[-9.01]

>  <Ligand effiencies>  (40) 
[-0.20022222222222222]

>  <Interactions>  (40) 
["H-A:GLU:543:OE1:4904, V-A:GLU:543:CD:4903, V-A:HIS:456:CE1:4064, V-A:GLU:543:CB:4901, V-B:GLU:543:CG:9875, H-A:GLU:543:OE2:4905, V-B:GLU:543:CB:9874, V-A:ILE:369:CD1:3234, V-B:HIS:456:CE1:9037, V-B:GLU:543:CD:9876, V-B:TYR:539:CE2:9844, V-B:ALA:541:CB:9860, V-B:TYR:539:CD2:9842, V-A:LEU:475:CD2:4254, V-A:GLU:543:CG:4902, H-B:TYR:484:OH:9315, V-B:GLU:543:C:9870, H-A:HIS:456:NE2:4065, H-B:GLU:543:OE2:9878, V-A:TYR:484:CZ:4342, V-A:HIS:456:CD2:4063, V-B:GLU:543:CA:9872, V-A:TYR:484:CE1:4340, V-A:HIS:456:CG:4061, V-A:ASP:473:CG:4235, V-A:TYR:484:CD1:4338, V-A:TYR:484:CG:4337, V-A:TYR:484:CB:4336, V-A:ASP:473:CB:4234, V-A:TYR:484:C:4332, V-A:ASP:485:CA:4348, V-A:PRO:486:CD:4361"]

$$$$
9c_Ghoteimi_2023
     RDKit          3D

 42 48  0  0  0  0  0  0  0  0999 V2000
  129.8620  127.3910   64.9610 N   0  0  0  0  0  0  0  0  0  0  0  0
  129.4980  127.3370   66.2830 C   0  0  0  0  0  0  0  0  0  0  0  0
  128.9340  128.4200   66.9740 C   0  0  0  0  0  0  0  0  0  0  0  0
  128.6080  129.7570   66.4680 C   0  0  0  0  0  0  0  0  0  0  0  0
  128.5220  130.7180   67.2350 O   0  0  0  0  0  0  0  0  0  0  0  0
  128.4110  129.8400   65.1290 N   0  0  0  0  0  0  0  0  0  0  0  0
  128.0790  130.9750   64.4040 C   0  0  0  0  0  0  0  0  0  0  0  0
  128.6570  132.1560   64.4410 N   0  0  0  0  0  0  0  0  0  0  0  0
  128.0750  133.0070   63.6180 C   0  0  0  0  0  0  0  0  0  0  0  0
  126.9950  132.5180   62.8890 C   0  0  0  0  0  0  0  0  0  0  0  0
  126.7380  130.8520   63.3110 S   0  0  0  0  0  0  0  0  0  0  0  0
  128.6190  128.0070   68.6590 S   0  0  0  0  0  0  0  0  0  0  0  0
  129.2600  126.3980   68.4320 C   0  0  0  0  0  0  0  0  0  0  0  0
  129.3280  125.5250   69.4360 N   0  0  0  0  0  0  0  0  0  0  0  0
  129.8590  124.3060   69.1580 C   0  0  0  0  0  0  0  0  0  0  0  0
  129.9430  123.3540   70.3070 C   0  0  0  0  0  0  0  0  0  0  0  0
  130.8240  123.5770   71.3710 C   0  0  0  0  0  0  0  0  0  0  0  0
  130.9050  122.6840   72.4340 C   0  0  0  0  0  0  0  0  0  0  0  0
  130.1140  121.5230   72.4660 C   0  0  0  0  0  0  0  0  0  0  0  0
  130.1780  120.6180   73.5320 N   0  0  0  0  0  0  0  0  0  0  0  0
  129.7900  121.0130   74.9010 C   0  0  0  0  0  0  0  0  0  0  0  0
  129.5870  119.8210   75.8600 C   0  0  0  0  0  0  0  0  0  0  0  0
  130.7520  119.0110   75.8770 O   0  0  0  0  0  0  0  0  0  0  0  0
  131.0380  118.4860   74.5910 C   0  0  0  0  0  0  0  0  0  0  0  0
  131.2810  119.6360   73.5900 C   0  0  0  0  0  0  0  0  0  0  0  0
  129.2190  121.3140   71.4070 C   0  0  0  0  0  0  0  0  0  0  0  0
  129.1360  122.2120   70.3460 C   0  0  0  0  0  0  0  0  0  0  0  0
  130.2940  123.9550   67.8780 C   0  0  0  0  0  0  0  0  0  0  0  0
  130.2040  124.8610   66.8160 C   0  0  0  0  0  0  0  0  0  0  0  0
  130.6500  124.4300   65.4670 C   0  0  0  0  0  0  0  0  0  0  0  0
  129.9360  123.4560   64.7670 C   0  0  0  0  0  0  0  0  0  0  0  0
  130.3410  123.0610   63.4950 C   0  0  0  0  0  0  0  0  0  0  0  0
  131.4730  123.6290   62.8900 C   0  0  0  0  0  0  0  0  0  0  0  0
  131.8910  123.2560   61.6090 N   0  0  0  0  0  0  0  0  0  0  0  0
  132.8340  124.1270   60.8780 C   0  0  0  0  0  0  0  0  0  0  0  0
  132.9020  123.8160   59.3670 C   0  0  0  0  0  0  0  0  0  0  0  0
  133.2240  122.4470   59.1670 O   0  0  0  0  0  0  0  0  0  0  0  0
  132.2540  121.5900   59.7480 C   0  0  0  0  0  0  0  0  0  0  0  0
  132.1630  121.8460   61.2680 C   0  0  0  0  0  0  0  0  0  0  0  0
  132.1700  124.6220   63.5940 C   0  0  0  0  0  0  0  0  0  0  0  0
  131.7650  125.0170   64.8660 C   0  0  0  0  0  0  0  0  0  0  0  0
  129.6830  126.1580   67.0910 C   0  0  0  0  0  0  0  0  0  0  0  0
  1  2  1  0
  2  3  2  0
  3  4  1  0
  4  5  2  0
  4  6  1  0
  6  7  1  0
  7  8  2  0
  8  9  1  0
  9 10  2  0
 10 11  1  0
  3 12  1  0
 12 13  1  0
 13 14  2  0
 14 15  1  0
 15 16  1  0
 16 17  2  0
 17 18  1  0
 18 19  2  0
 19 20  1  0
 20 21  1  0
 21 22  1  0
 22 23  1  0
 23 24  1  0
 24 25  1  0
 19 26  1  0
 26 27  2  0
 15 28  2  0
 28 29  1  0
 29 30  1  0
 30 31  2  0
 31 32  1  0
 32 33  2  0
 33 34  1  0
 34 35  1  0
 35 36  1  0
 36 37  1  0
 37 38  1  0
 38 39  1  0
 33 40  1  0
 40 41  2  0
 29 42  2  0
 42  2  1  0
 11  7  1  0
 42 13  1  0
 27 16  1  0
 41 30  1  0
 25 20  1  0
 39 34  1  0
M  END
>  <Binding energies>  (41) 
[-8.59]

>  <Ligand effiencies>  (41) 
[-0.19088888888888889]

>  <Interactions>  (41) 
["H-A:GLU:543:OE1:4904, V-A:GLU:543:CD:4903, V-A:ASP:366:CG:3208, V-A:HIS:456:CE1:4064, V-A:GLU:543:CB:4901, V-B:GLU:543:CG:9875, H-A:GLU:543:OE2:4905, V-B:GLU:543:CB:9874, V-B:HIS:456:CE1:9037, V-B:GLU:543:CD:9876, V-B:TYR:539:CE2:9844, V-B:TYR:539:CD2:9842, V-A:LEU:475:CD2:4254, V-A:GLU:543:CG:4902, H-B:TYR:484:OH:9315, V-B:GLU:543:C:9870, H-A:HIS:456:NE2:4065, H-B:GLU:543:OE2:9878, V-A:TYR:484:CZ:4342, V-A:HIS:456:CD2:4063, V-A:ASP:366:CB:3207, V-B:GLU:543:CA:9872, V-A:TYR:484:CE1:4340, V-A:HIS:456:CG:4061, V-A:ASP:473:CG:4235, V-A:ALA:541:CB:4887, V-A:TYR:484:CD1:4338, V-A:TYR:484:CG:4337, V-A:TYR:484:CB:4336, V-A:ASP:473:CB:4234, H-A:LYS:471:NZ:4216, V-A:TYR:484:C:4332, V-A:ASP:485:CA:4348"]

$$$$
RR11_Rahimova_2017
     RDKit          3D

 33 38  0  0  0  0  0  0  0  0999 V2000
  133.9720  121.1980   61.6530 N   0  0  0  0  0  0  0  0  0  0  0  0
  133.2490  122.1240   62.4020 C   0  0  0  0  0  0  0  0  0  0  0  0
  133.8390  123.3330   62.7680 C   0  0  0  0  0  0  0  0  0  0  0  0
  133.1140  124.2580   63.5140 C   0  0  0  0  0  0  0  0  0  0  0  0
  131.7950  123.9850   63.9010 C   0  0  0  0  0  0  0  0  0  0  0  0
  131.0140  124.9860   64.7000 C   0  0  0  0  0  0  0  0  0  0  0  0
  131.3040  125.3410   65.9320 N   0  0  0  0  0  0  0  0  0  0  0  0
  130.3580  126.2730   66.2720 C   0  0  0  0  0  0  0  0  0  0  0  0
  130.2040  126.9830   67.4710 C   0  0  0  0  0  0  0  0  0  0  0  0
  129.1560  127.9050   67.5690 C   0  0  0  0  0  0  0  0  0  0  0  0
  128.9600  128.6870   68.8610 C   0  0  0  0  0  0  0  0  0  0  0  0
  129.2760  127.8670   70.1040 C   0  0  0  0  0  0  0  0  0  0  0  0
  129.6300  128.5220   71.2890 C   0  0  0  0  0  0  0  0  0  0  0  0
  129.9190  127.8150   72.4570 C   0  0  0  0  0  0  0  0  0  0  0  0
  129.8410  126.4160   72.4200 C   0  0  0  0  0  0  0  0  0  0  0  0
  130.0800  125.5060   73.4160 N   0  0  0  0  0  0  0  0  0  0  0  0
  129.8720  124.3280   72.8670 C   0  0  0  0  0  0  0  0  0  0  0  0
  130.0310  123.0180   73.5840 C   0  0  0  0  0  0  0  0  0  0  0  0
  129.5180  122.8480   74.8760 C   0  0  0  0  0  0  0  0  0  0  0  0
  129.6740  121.6360   75.5450 C   0  0  0  0  0  0  0  0  0  0  0  0
  130.3470  120.5850   74.9250 C   0  0  0  0  0  0  0  0  0  0  0  0
  130.5080  119.3740   75.5950 N   0  0  0  0  0  0  0  0  0  0  0  0
  130.8590  120.7390   73.6390 C   0  0  0  0  0  0  0  0  0  0  0  0
  130.7020  121.9510   72.9710 C   0  0  0  0  0  0  0  0  0  0  0  0
  129.4970  124.4340   71.5450 N   0  0  0  0  0  0  0  0  0  0  0  0
  129.4690  125.7690   71.2180 C   0  0  0  0  0  0  0  0  0  0  0  0
  129.1720  126.4710   70.0470 C   0  0  0  0  0  0  0  0  0  0  0  0
  128.2680  128.0910   66.5030 C   0  0  0  0  0  0  0  0  0  0  0  0
  128.3920  127.3960   65.2970 C   0  0  0  0  0  0  0  0  0  0  0  0
  129.4520  126.4910   65.2070 C   0  0  0  0  0  0  0  0  0  0  0  0
  129.9030  125.6470   64.2200 N   0  0  0  0  0  0  0  0  0  0  0  0
  131.2150  122.7650   63.5260 C   0  0  0  0  0  0  0  0  0  0  0  0
  131.9380  121.8380   62.7800 C   0  0  0  0  0  0  0  0  0  0  0  0
  1  2  1  0
  2  3  2  0
  3  4  1  0
  4  5  2  0
  5  6  1  0
  6  7  2  0
  7  8  1  0
  8  9  2  0
  9 10  1  0
 10 11  1  0
 11 12  1  0
 12 13  2  0
 13 14  1  0
 14 15  2  0
 15 16  1  0
 16 17  2  0
 17 18  1  0
 18 19  2  0
 19 20  1  0
 20 21  2  0
 21 22  1  0
 21 23  1  0
 23 24  2  0
 17 25  1  0
 25 26  1  0
 26 27  2  0
 10 28  2  0
 28 29  1  0
 29 30  2  0
 30 31  1  0
  5 32  1  0
 32 33  2  0
 33  2  1  0
 31  6  1  0
 30  8  1  0
 27 12  1  0
 26 15  1  0
 24 18  1  0
M  END
>  <Binding energies>  (42) 
[-7.15]

>  <Ligand effiencies>  (42) 
[-0.18333333333333335]

>  <Interactions>  (42) 
["V-A:HIS:456:CE1:4064, V-B:GLU:543:CG:9875, V-A:ILE:369:CD1:3234, V-B:HIS:456:CE1:9037, V-B:GLU:543:CD:9876, V-A:LEU:475:CD2:4254, H-B:LYS:547:NZ:9919, V-B:GLU:543:C:9870, H-A:HIS:456:NE2:4065, H-A:TYR:484:OH:4343, V-A:GLY:454:CA:4044, H-B:GLU:543:OE2:9878, H-B:GLU:543:O:9871, V-B:LYS:547:CE:9918, V-A:ASP:473:CG:4235, V-A:TYR:484:CB:4336, V-A:ASP:473:CB:4234, H-A:ASP:473:OD1:4236, H-A:ASP:473:OD2:4237, H-A:SER:385:O:3401"]

$$$$
RR16_Rahimova_2017
     RDKit          3D

 44 49  0  0  0  0  0  0  0  0999 V2000
  132.8290  127.0050   74.1670 O   0  0  0  0  0  0  0  0  0  0  0  0
  131.6130  126.1850   74.1840 S   0  0  0  0  0  0  0  0  0  0  0  0
  130.7630  126.1240   75.3790 O   0  0  0  0  0  0  0  0  0  0  0  0
  132.0760  124.5360   73.7580 N   0  0  0  0  0  0  0  0  0  0  0  0
  131.2590  123.3790   74.1920 C   0  0  0  0  0  0  0  0  0  0  0  0
  129.7690  123.8040   74.2580 C   0  0  0  0  0  0  0  0  0  0  0  0
  128.7100  122.6880   74.1650 C   0  0  0  0  0  0  0  0  0  0  0  0
  128.5840  122.0610   72.7660 C   0  0  0  0  0  0  0  0  0  0  0  0
  129.5280  122.6330   71.6880 C   0  0  0  0  0  0  0  0  0  0  0  0
  131.0290  122.3150   71.8290 C   0  0  0  0  0  0  0  0  0  0  0  0
  131.5740  122.1810   73.2650 C   0  0  0  0  0  0  0  0  0  0  0  0
  130.6000  126.7310   72.8150 C   0  0  0  0  0  0  0  0  0  0  0  0
  129.7980  125.8200   72.1240 C   0  0  0  0  0  0  0  0  0  0  0  0
  129.1100  126.2320   70.9860 C   0  0  0  0  0  0  0  0  0  0  0  0
  129.2260  127.5520   70.5450 C   0  0  0  0  0  0  0  0  0  0  0  0
  128.4580  128.0480   69.0050 S   0  0  0  0  0  0  0  0  0  0  0  0
  128.7360  129.4780   68.8160 O   0  0  0  0  0  0  0  0  0  0  0  0
  127.0730  127.5600   69.0270 O   0  0  0  0  0  0  0  0  0  0  0  0
  129.3440  127.1410   67.7650 N   0  0  0  0  0  0  0  0  0  0  0  0
  129.3840  125.6720   67.9870 C   0  0  0  0  0  0  0  0  0  0  0  0
  130.4200  125.0120   67.0550 C   0  0  0  0  0  0  0  0  0  0  0  0
  130.1840  125.3940   65.5720 C   0  0  0  0  0  0  0  0  0  0  0  0
  131.2300  124.7860   64.6350 C   0  0  0  0  0  0  0  0  0  0  0  0
  132.5470  125.2670   64.6570 C   0  0  0  0  0  0  0  0  0  0  0  0
  133.5350  124.7370   63.8250 C   0  0  0  0  0  0  0  0  0  0  0  0
  134.8190  125.2180   63.8630 O   0  0  0  0  0  0  0  0  0  0  0  0
  133.1800  123.6960   62.9550 C   0  0  0  0  0  0  0  0  0  0  0  0
  133.9230  122.9850   62.0570 N   0  0  0  0  0  0  0  0  0  0  0  0
  133.0910  122.0500   61.4790 N   0  0  0  0  0  0  0  0  0  0  0  0
  131.8520  122.2150   61.9810 N   0  0  0  0  0  0  0  0  0  0  0  0
  130.7820  121.3000   61.6060 C   0  0  0  0  0  0  0  0  0  0  0  0
  129.6570  121.9900   60.8480 C   0  0  0  0  0  0  0  0  0  0  0  0
  128.5830  122.5550   61.5460 C   0  0  0  0  0  0  0  0  0  0  0  0
  127.5620  123.2080   60.8550 C   0  0  0  0  0  0  0  0  0  0  0  0
  127.6090  123.3010   59.4640 C   0  0  0  0  0  0  0  0  0  0  0  0
  128.6770  122.7430   58.7620 C   0  0  0  0  0  0  0  0  0  0  0  0
  128.7430  122.8660   57.0420 Cl  0  0  0  0  0  0  0  0  0  0  0  0
  129.6970  122.0850   59.4530 C   0  0  0  0  0  0  0  0  0  0  0  0
  131.8470  123.2210   62.9330 C   0  0  0  0  0  0  0  0  0  0  0  0
  130.8550  123.7540   63.7630 C   0  0  0  0  0  0  0  0  0  0  0  0
  130.0190  126.9240   65.3770 C   0  0  0  0  0  0  0  0  0  0  0  0
  129.0040  127.5240   66.3700 C   0  0  0  0  0  0  0  0  0  0  0  0
  129.9950  128.4720   71.2620 C   0  0  0  0  0  0  0  0  0  0  0  0
  130.6860  128.0590   72.3960 C   0  0  0  0  0  0  0  0  0  0  0  0
  1  2  2  0
  2  3  2  0
  2  4  1  0
  4  5  1  0
  5  6  1  0
  6  7  1  0
  7  8  1  0
  8  9  1  0
  9 10  1  0
 10 11  1  0
  2 12  1  0
 12 13  2  0
 13 14  1  0
 14 15  2  0
 15 16  1  0
 16 17  2  0
 16 18  2  0
 16 19  1  0
 19 20  1  0
 20 21  1  0
 21 22  1  0
 22 23  1  0
 23 24  2  0
 24 25  1  0
 25 26  1  0
 25 27  2  0
 27 28  1  0
 28 29  2  0
 29 30  1  0
 30 31  1  0
 31 32  1  0
 32 33  2  0
 33 34  1  0
 34 35  2  0
 35 36  1  0
 36 37  1  0
 36 38  2  0
 30 39  1  0
 39 40  2  0
 22 41  1  0
 41 42  1  0
 15 43  1  0
 43 44  2  0
 11  5  1  0
 44 12  1  0
 42 19  1  0
 40 23  1  0
 39 27  1  0
 38 32  1  0
M  END
>  <Binding energies>  (43) 
[-9.53]

>  <Ligand effiencies>  (43) 
[-0.19854166666666664]

>  <Interactions>  (43) 
["V-A:GLU:543:CD:4903, V-B:TYR:539:CZ:9845, V-A:HIS:456:CE1:4064, V-A:ARG:545:CZ:4921, V-B:GLU:543:CG:9875, V-B:GLU:543:CB:9874, H-A:ARG:545:NH2:4923, V-B:HIS:456:CE1:9037, V-B:GLU:543:CD:9876, V-B:TYR:539:CE2:9844, V-B:ALA:541:CB:9860, V-B:TYR:539:CD2:9842, V-A:LEU:475:CD2:4254, V-B:TYR:539:C:9835, V-B:GLU:543:C:9870, V-B:PRO:540:CA:9851, V-A:TYR:484:CZ:4342, H-A:GLY:454:N:4045, V-A:HIS:456:CD2:4063, V-B:GLU:543:CA:9872, V-A:LYS:547:CE:4945, H-A:LYS:547:NZ:4946, V-A:TYR:484:CE1:4340, V-B:LYS:547:CE:9918, V-B:TYR:539:CE1:9843, H-A:ASP:366:OD2:3210, V-A:HIS:456:CG:4061, V-A:ASP:473:CG:4235, H-A:ARG:545:NE:4919, H-A:ARG:545:NH1:4922, V-A:TYR:484:CD1:4338, V-A:TYR:484:CG:4337, V-A:TYR:484:CB:4336, V-A:TYR:484:CD2:4339, H-A:HIS:456:ND1:4062, V-A:ASP:473:CB:4234, H-A:ASP:366:OD1:3209, H-B:HIS:456:ND1:9034"]

$$$$
RR18_Rahimova_2017
     RDKit          3D

 36 41  0  0  0  0  0  0  0  0999 V2000
  125.9820  128.4090   65.9170 C   0  0  0  0  0  0  0  0  0  0  0  0
  127.2710  128.0560   65.2170 C   0  0  0  0  0  0  0  0  0  0  0  0
  127.8110  128.3600   63.9780 C   0  0  0  0  0  0  0  0  0  0  0  0
  129.0520  127.7280   63.9140 C   0  0  0  0  0  0  0  0  0  0  0  0
  129.2270  127.0630   65.1160 C   0  0  0  0  0  0  0  0  0  0  0  0
  130.3450  126.2000   65.6950 C   0  0  1  0  0  0  0  0  0  0  0  0
  130.1400  125.9450   67.2190 C   0  0  0  0  0  0  0  0  0  0  0  0
  130.1980  127.0530   68.1670 C   0  0  0  0  0  0  0  0  0  0  0  0
  130.8280  128.0840   67.9240 O   0  0  0  0  0  0  0  0  0  0  0  0
  129.4960  126.8460   69.3050 N   0  0  0  0  0  0  0  0  0  0  0  0
  129.3360  127.6680   70.4420 C   0  0  0  0  0  0  0  0  0  0  0  0
  130.3940  128.3740   71.0420 C   0  0  0  0  0  0  0  0  0  0  0  0
  130.1700  129.1640   72.1690 C   0  0  0  0  0  0  0  0  0  0  0  0
  128.8940  129.2560   72.7150 C   0  0  0  0  0  0  0  0  0  0  0  0
  127.8390  128.5530   72.1380 C   0  0  0  0  0  0  0  0  0  0  0  0
  128.0470  127.7570   71.0070 C   0  0  0  0  0  0  0  0  0  0  0  0
  126.8590  127.0040   70.4160 C   0  0  0  0  0  0  0  0  0  0  0  0
  129.8060  124.6930   67.6260 C   0  0  0  0  0  0  0  0  0  0  0  0
  129.7490  123.6010   66.8140 N   0  0  0  0  0  0  0  0  0  0  0  0
  130.1050  123.7080   65.5870 C   0  0  0  0  0  0  0  0  0  0  0  0
  130.2290  122.3700   64.4690 S   0  0  0  0  0  0  0  0  0  0  0  0
  130.7890  123.4520   63.1550 C   0  0  0  0  0  0  0  0  0  0  0  0
  131.1200  123.0930   61.8660 C   0  0  0  0  0  0  0  0  0  0  0  0
  131.1130  121.6790   61.4640 C   0  0  0  0  0  0  0  0  0  0  0  0
  130.8190  120.6740   62.1090 O   0  0  0  0  0  0  0  0  0  0  0  0
  131.5220  121.6240   60.1920 N   0  0  0  0  0  0  0  0  0  0  0  0
  131.7790  122.8530   59.6640 C   0  0  0  0  0  0  0  0  0  0  0  0
  132.2060  123.1550   58.3710 C   0  0  0  0  0  0  0  0  0  0  0  0
  132.3830  124.4890   58.0150 C   0  0  0  0  0  0  0  0  0  0  0  0
  132.1220  125.4910   58.9480 C   0  0  0  0  0  0  0  0  0  0  0  0
  131.6960  125.1630   60.2380 C   0  0  0  0  0  0  0  0  0  0  0  0
  131.5340  123.8190   60.6240 C   0  0  0  0  0  0  0  0  0  0  0  0
  130.8550  124.8130   63.6880 C   0  0  0  0  0  0  0  0  0  0  0  0
  131.2470  125.8120   63.0920 O   0  0  0  0  0  0  0  0  0  0  0  0
  130.4420  124.8770   64.9830 N   0  0  0  0  0  0  0  0  0  0  0  0
  128.1370  127.2670   65.9040 O   0  0  0  0  0  0  0  0  0  0  0  0
  1  2  1  0
  2  3  2  0
  3  4  1  0
  4  5  2  0
  6  5  1  6
  6  7  1  0
  7  8  1  0
  8  9  2  0
  8 10  1  0
 10 11  1  0
 11 12  2  0
 12 13  1  0
 13 14  2  0
 14 15  1  0
 15 16  2  0
 16 17  1  0
  7 18  2  0
 18 19  1  0
 19 20  2  0
 20 21  1  0
 21 22  1  0
 22 23  2  0
 23 24  1  0
 24 25  2  0
 24 26  1  0
 26 27  1  0
 27 28  2  0
 28 29  1  0
 29 30  2  0
 30 31  1  0
 31 32  2  0
 22 33  1  0
 33 34  2  0
 33 35  1  0
  5 36  1  0
 36  2  1  0
 35  6  1  0
 16 11  1  0
 35 20  1  0
 32 23  1  0
 32 27  1  0
M  END
>  <Binding energies>  (44) 
[-7.83]

>  <Ligand effiencies>  (44) 
[-0.20605263157894738]

>  <Interactions>  (44) 
["V-A:GLU:543:CD:4903, V-A:ASP:366:CG:3208, V-B:TYR:539:CZ:9845, V-A:HIS:456:CE1:4064, V-B:GLU:543:CG:9875, V-B:HIS:456:CD2:9035, V-B:GLU:543:CB:9874, V-B:HIS:456:CE1:9037, V-B:GLU:543:CD:9876, V-B:TYR:539:CE2:9844, V-B:ALA:541:CB:9860, V-B:TYR:539:CD2:9842, V-A:LEU:475:CD2:4254, V-B:ARG:545:CG:9890, V-B:GLY:544:C:9880, V-B:GLU:543:C:9870, H-A:TYR:484:OH:4343, V-A:TYR:484:CZ:4342, V-A:ASP:366:CB:3207, V-B:GLU:543:CA:9872, V-A:LYS:547:CE:4945, V-A:TYR:484:CE1:4340, H-B:GLU:543:O:9871, V-A:GLY:544:C:4907, V-B:HIS:456:CG:9033, V-B:GLY:544:CA:9882"]

$$$$
RR20_Rahimova_2017
     RDKit          3D

 38 43  0  0  0  0  0  0  0  0999 V2000
  129.8720  118.4230   60.6290 C   0  0  0  0  0  0  0  0  0  0  0  0
  130.5840  119.7580   60.7510 C   0  0  0  0  0  0  0  0  0  0  0  0
  129.8710  120.8910   61.1460 C   0  0  0  0  0  0  0  0  0  0  0  0
  130.5230  122.1150   61.2670 C   0  0  0  0  0  0  0  0  0  0  0  0
  131.8900  122.2200   60.9830 C   0  0  0  0  0  0  0  0  0  0  0  0
  132.5840  123.5540   61.1410 C   0  0  0  0  0  0  0  0  0  0  0  0
  132.8570  124.1810   60.1140 O   0  0  0  0  0  0  0  0  0  0  0  0
  132.8670  124.0170   62.3930 N   0  0  0  0  0  0  0  0  0  0  0  0
  134.2240  124.4450   62.7700 C   0  0  0  0  0  0  0  0  0  0  0  0
  134.1160  125.0320   64.1670 C   0  0  0  0  0  0  0  0  0  0  0  0
  132.6400  125.2380   64.3290 C   0  0  0  0  0  0  0  0  0  0  0  0
  131.9460  125.8320   65.3840 C   0  0  0  0  0  0  0  0  0  0  0  0
  130.5470  125.7860   65.4330 C   0  0  0  0  0  0  0  0  0  0  0  0
  129.7990  126.4340   66.5640 C   0  0  0  0  0  0  0  0  0  0  0  0
  129.9320  125.9250   67.7790 N   0  0  0  0  0  0  0  0  0  0  0  0
  129.2530  126.5780   68.6880 C   0  0  0  0  0  0  0  0  0  0  0  0
  129.1760  126.3180   70.0470 N   0  0  0  0  0  0  0  0  0  0  0  0
  129.7420  127.0370   71.0480 C   0  0  0  0  0  0  0  0  0  0  0  0
  130.4040  128.0620   70.8710 O   0  0  0  0  0  0  0  0  0  0  0  0
  129.5230  126.5560   72.5020 C   0  0  0  0  0  0  0  0  0  0  0  0
  129.4370  125.0890   72.6170 N   0  0  0  0  0  0  0  0  0  0  0  0
  130.2230  124.3980   71.5830 C   0  0  0  0  0  0  0  0  0  0  0  0
  129.8900  122.8890   71.5800 C   0  0  0  0  0  0  0  0  0  0  0  0
  129.8650  122.2800   72.9830 C   0  0  0  0  0  0  0  0  0  0  0  0
  129.8480  120.8930   73.1660 C   0  0  0  0  0  0  0  0  0  0  0  0
  129.7870  120.3390   74.4430 C   0  0  0  0  0  0  0  0  0  0  0  0
  129.7430  121.1710   75.5570 C   0  0  0  0  0  0  0  0  0  0  0  0
  129.7680  122.5540   75.3890 C   0  0  0  0  0  0  0  0  0  0  0  0
  129.8290  123.1240   74.1120 C   0  0  0  0  0  0  0  0  0  0  0  0
  129.9140  124.6390   73.9300 C   0  0  0  0  0  0  0  0  0  0  0  0
  128.3550  127.9140   68.0810 S   0  0  0  0  0  0  0  0  0  0  0  0
  128.9410  127.5510   66.4750 C   0  0  0  0  0  0  0  0  0  0  0  0
  128.4870  128.3740   65.2890 C   0  0  0  0  0  0  0  0  0  0  0  0
  129.8650  125.0830   64.4280 C   0  0  0  0  0  0  0  0  0  0  0  0
  130.5570  124.4720   63.3830 C   0  0  0  0  0  0  0  0  0  0  0  0
  131.9500  124.5980   63.3000 C   0  0  0  0  0  0  0  0  0  0  0  0
  132.6050  121.0720   60.6160 C   0  0  0  0  0  0  0  0  0  0  0  0
  131.9530  119.8470   60.4950 C   0  0  0  0  0  0  0  0  0  0  0  0
  1  2  1  0
  2  3  2  0
  3  4  1  0
  4  5  2  0
  5  6  1  0
  6  7  2  0
  6  8  1  0
  8  9  1  0
  9 10  1  0
 10 11  1  0
 11 12  2  0
 12 13  1  0
 13 14  1  0
 14 15  1  0
 15 16  2  0
 16 17  1  0
 17 18  1  0
 18 19  2  0
 18 20  1  0
 20 21  1  0
 21 22  1  0
 22 23  1  0
 23 24  1  0
 24 25  2  0
 25 26  1  0
 26 27  2  0
 27 28  1  0
 28 29  2  0
 29 30  1  0
 16 31  1  0
 31 32  1  0
 32 33  1  0
 13 34  2  0
 34 35  1  0
 35 36  2  0
  5 37  1  0
 37 38  2  0
 38  2  1  0
 36  8  1  0
 36 11  1  0
 32 14  2  0
 30 21  1  0
 29 24  1  0
M  END
>  <Binding energies>  (45) 
[-9.47]

>  <Ligand effiencies>  (45) 
[-0.24282051282051284]

>  <Interactions>  (45) 
["V-A:GLU:543:CD:4903, V-A:ASP:366:CG:3208, V-A:HIS:456:CE1:4064, V-A:ARG:545:CZ:4921, V-B:GLU:543:CG:9875, V-A:ILE:369:CD1:3234, V-B:HIS:456:CE1:9037, V-B:GLU:543:CD:9876, V-B:TYR:539:CE2:9844, V-B:ALA:541:CB:9860, V-A:TRP:381:CZ2:3365, V-B:TYR:539:CD2:9842, V-A:PRO:482:CG:4322, V-A:TRP:381:CH2:3367, V-A:LEU:475:CD2:4254, V-A:PRO:482:CB:4321, V-A:TRP:381:CE2:3362, V-A:TRP:381:CZ3:3366, H-B:LYS:547:NZ:9919, V-B:GLU:543:C:9870, H-A:HIS:456:NE2:4065, V-A:GLY:453:C:4037, V-A:GLY:453:CA:4039, H-B:GLU:543:O:9871, V-B:LYS:547:CE:9918, V-A:HIS:456:CG:4061, V-A:TYR:484:CB:4336"]

$$$$
RR21_Rahimova_2017
     RDKit          3D

 40 45  0  0  0  0  0  0  0  0999 V2000
  125.3700  129.8270   62.7600 C   0  0  0  0  0  0  0  0  0  0  0  0
  126.0440  130.4140   63.8690 O   0  0  0  0  0  0  0  0  0  0  0  0
  126.6210  129.5940   64.8210 C   0  0  0  0  0  0  0  0  0  0  0  0
  126.0220  128.4280   65.3270 C   0  0  0  0  0  0  0  0  0  0  0  0
  126.6730  127.6530   66.2850 C   0  0  0  0  0  0  0  0  0  0  0  0
  127.9380  128.0190   66.7600 C   0  0  0  0  0  0  0  0  0  0  0  0
  128.6390  127.1820   67.7860 C   0  0  0  0  0  0  0  0  0  0  0  0
  128.6650  127.5740   69.0440 N   0  0  0  0  0  0  0  0  0  0  0  0
  129.3500  126.6420   69.7240 N   0  0  0  0  0  0  0  0  0  0  0  0
  129.5510  126.7440   71.1250 C   0  0  0  0  0  0  0  0  0  0  0  0
  129.7700  125.5980   71.9050 C   0  0  0  0  0  0  0  0  0  0  0  0
  129.9710  125.7120   73.2780 C   0  0  0  0  0  0  0  0  0  0  0  0
  129.9530  126.9700   73.8760 C   0  0  0  0  0  0  0  0  0  0  0  0
  129.7340  128.1150   73.1140 C   0  0  0  0  0  0  0  0  0  0  0  0
  129.5320  128.0040   71.7410 C   0  0  0  0  0  0  0  0  0  0  0  0
  129.7460  125.6360   68.8800 C   0  0  0  0  0  0  0  0  0  0  0  0
  129.3150  125.9550   67.6010 C   0  0  0  0  0  0  0  0  0  0  0  0
  129.4590  125.1730   66.3820 C   0  0  0  0  0  0  0  0  0  0  0  0
  130.5680  124.9940   65.6280 C   0  0  0  0  0  0  0  0  0  0  0  0
  132.1900  125.6730   65.8920 S   0  0  0  0  0  0  0  0  0  0  0  0
  132.7620  124.8260   64.4620 C   0  0  0  0  0  0  0  0  0  0  0  0
  133.9620  124.8150   63.9710 N   0  0  0  0  0  0  0  0  0  0  0  0
  134.2980  124.0730   62.8050 C   0  0  0  0  0  0  0  0  0  0  0  0
  135.4120  123.9940   62.2900 O   0  0  0  0  0  0  0  0  0  0  0  0
  133.1360  123.3320   62.2010 C   0  0  0  0  0  0  0  0  0  0  0  0
  133.3730  122.5120   60.9270 C   0  0  0  0  0  0  0  0  0  0  0  0
  132.4680  122.8910   59.7570 C   0  0  0  0  0  0  0  0  0  0  0  0
  131.1950  122.3240   59.6440 C   0  0  0  0  0  0  0  0  0  0  0  0
  130.3640  122.6830   58.5860 C   0  0  0  0  0  0  0  0  0  0  0  0
  130.8010  123.6110   57.6390 C   0  0  0  0  0  0  0  0  0  0  0  0
  129.8870  124.0080   56.4950 C   0  0  0  0  0  0  0  0  0  0  0  0
  132.0690  124.1880   57.7560 C   0  0  0  0  0  0  0  0  0  0  0  0
  132.9000  123.8290   58.8130 C   0  0  0  0  0  0  0  0  0  0  0  0
  131.9430  123.3570   62.6990 N   0  0  0  0  0  0  0  0  0  0  0  0
  131.7550  124.1200   63.8580 N   0  0  0  0  0  0  0  0  0  0  0  0
  130.5270  124.1660   64.4310 C   0  0  0  0  0  0  0  0  0  0  0  0
  129.5260  123.5820   63.9990 O   0  0  0  0  0  0  0  0  0  0  0  0
  128.5330  129.1830   66.2610 C   0  0  0  0  0  0  0  0  0  0  0  0
  127.8820  129.9600   65.3020 C   0  0  0  0  0  0  0  0  0  0  0  0
  128.4850  131.0800   64.8400 F   0  0  0  0  0  0  0  0  0  0  0  0
  1  2  1  0
  2  3  1  0
  3  4  2  0
  4  5  1  0
  5  6  2  0
  6  7  1  0
  7  8  2  0
  8  9  1  0
  9 10  1  0
 10 11  2  0
 11 12  1  0
 12 13  2  0
 13 14  1  0
 14 15  2  0
  9 16  1  0
 16 17  2  0
 17 18  1  0
 18 19  2  0
 19 20  1  0
 20 21  1  0
 21 22  2  0
 22 23  1  0
 23 24  2  0
 23 25  1  0
 25 26  1  0
 26 27  1  0
 27 28  2  0
 28 29  1  0
 29 30  2  0
 30 31  1  0
 30 32  1  0
 32 33  2  0
 25 34  2  0
 34 35  1  0
 35 36  1  0
 36 37  2  0
  6 38  1  0
 38 39  2  0
 39 40  1  0
 39  3  1  0
 17  7  1  0
 36 19  1  0
 15 10  1  0
 35 21  1  0
 33 27  1  0
M  END
>  <Binding energies>  (46) 
[-8.43]

>  <Ligand effiencies>  (46) 
[-0.21075]

>  <Interactions>  (46) 
["V-A:GLU:543:CD:4903, V-A:ASP:366:CG:3208, V-B:TYR:539:CZ:9845, V-A:HIS:456:CE1:4064, V-A:GLU:543:CB:4901, V-B:GLU:543:CG:9875, V-B:GLU:543:CB:9874, V-A:ILE:369:CD1:3234, H-A:ARG:545:NH2:4923, V-B:HIS:456:CE1:9037, V-B:GLU:543:CD:9876, V-B:TYR:539:CE2:9844, V-B:TYR:539:CD2:9842, V-A:GLU:543:CG:4902, H-B:TYR:484:OH:9315, V-B:GLU:543:C:9870, H-A:TYR:484:OH:4343, V-A:GLY:454:CA:4044, V-A:GLY:453:C:4037, V-A:GLY:453:CA:4039, H-A:GLY:454:N:4045, V-A:ASP:366:CB:3207, V-B:TYR:484:CZ:9314, V-A:LYS:547:CE:4945, V-B:LYS:547:CE:9918, V-B:ARG:545:CZ:9894"]

$$$$
RR23_Rahimova_2017
     RDKit          3D

 39 44  0  0  0  0  0  0  0  0999 V2000
  131.0080  121.8210   73.8570 C   0  0  0  0  0  0  0  0  0  0  0  0
  130.6450  123.2710   73.5890 C   0  0  0  0  0  0  0  0  0  0  0  0
  131.0980  124.2740   74.4460 C   0  0  0  0  0  0  0  0  0  0  0  0
  130.7720  125.6050   74.1940 C   0  0  0  0  0  0  0  0  0  0  0  0
  129.9810  125.9400   73.0890 C   0  0  0  0  0  0  0  0  0  0  0  0
  129.6550  127.3920   72.8210 C   0  0  0  0  0  0  0  0  0  0  0  0
  129.1120  128.0320   73.7250 O   0  0  0  0  0  0  0  0  0  0  0  0
  129.9830  127.9410   71.6140 N   0  0  0  0  0  0  0  0  0  0  0  0
  131.3280  128.4780   71.3510 C   0  0  0  0  0  0  0  0  0  0  0  0
  131.3570  128.8580   69.8800 C   0  0  0  0  0  0  0  0  0  0  0  0
  130.1500  128.1600   69.3310 C   0  0  0  0  0  0  0  0  0  0  0  0
  129.7100  128.0730   68.0100 C   0  0  0  0  0  0  0  0  0  0  0  0
  128.4610  127.5070   67.7140 C   0  0  0  0  0  0  0  0  0  0  0  0
  127.9390  127.3910   66.2740 C   0  0  2  0  0  0  0  0  0  0  0  0
  128.8850  126.7290   65.4010 N   0  0  0  0  0  0  0  0  0  0  0  0
  128.8210  127.1700   64.2100 C   0  0  0  0  0  0  0  0  0  0  0  0
  129.5720  126.8020   63.1370 N   0  0  0  0  0  0  0  0  0  0  0  0
  130.6530  125.9870   63.1070 C   0  0  0  0  0  0  0  0  0  0  0  0
  131.1290  125.3910   64.0760 O   0  0  0  0  0  0  0  0  0  0  0  0
  131.3200  125.8210   61.7310 C   0  0  0  0  0  0  0  0  0  0  0  0
  131.4610  124.3780   61.4320 N   0  0  0  0  0  0  0  0  0  0  0  0
  132.7520  123.9520   61.1450 N   0  0  0  0  0  0  0  0  0  0  0  0
  133.0090  122.7150   60.8660 N   0  0  0  0  0  0  0  0  0  0  0  0
  131.9740  121.7770   60.8510 C   0  0  0  0  0  0  0  0  0  0  0  0
  132.2850  120.4500   60.5440 C   0  0  0  0  0  0  0  0  0  0  0  0
  131.2730  119.4900   60.5200 C   0  0  0  0  0  0  0  0  0  0  0  0
  129.9530  119.8520   60.8010 C   0  0  0  0  0  0  0  0  0  0  0  0
  129.6400  121.1780   61.1080 C   0  0  0  0  0  0  0  0  0  0  0  0
  130.6560  122.1410   61.1330 C   0  0  0  0  0  0  0  0  0  0  0  0
  130.3380  123.5810   61.4590 C   0  0  0  0  0  0  0  0  0  0  0  0
  129.2010  123.9940   61.7080 O   0  0  0  0  0  0  0  0  0  0  0  0
  127.6100  128.4440   63.8820 S   0  0  0  0  0  0  0  0  0  0  0  0
  127.4740  128.7300   65.6550 C   0  0  2  0  0  0  0  0  0  0  0  0
  128.2920  129.9850   66.0260 C   0  0  0  0  0  0  0  0  0  0  0  0
  127.6480  127.0770   68.7690 C   0  0  0  0  0  0  0  0  0  0  0  0
  128.0780  127.1830   70.0920 C   0  0  0  0  0  0  0  0  0  0  0  0
  129.3590  127.6760   70.3740 C   0  0  0  0  0  0  0  0  0  0  0  0
  129.5530  124.9300   72.2180 C   0  0  0  0  0  0  0  0  0  0  0  0
  129.8800  123.6010   72.4700 C   0  0  0  0  0  0  0  0  0  0  0  0
  1  2  1  0
  2  3  2  0
  3  4  1  0
  4  5  2  0
  5  6  1  0
  6  7  2  0
  6  8  1  0
  8  9  1  0
  9 10  1  0
 10 11  1  0
 11 12  2  0
 12 13  1  0
 14 13  1  1
 14 15  1  0
 15 16  2  0
 16 17  1  0
 17 18  1  0
 18 19  2  0
 18 20  1  0
 20 21  1  0
 21 22  1  0
 22 23  2  0
 23 24  1  0
 24 25  2  0
 25 26  1  0
 26 27  2  0
 27 28  1  0
 28 29  2  0
 29 30  1  0
 30 31  2  0
 16 32  1  0
 32 33  1  0
 33 34  1  1
 13 35  2  0
 35 36  1  0
 36 37  2  0
  5 38  1  0
 38 39  2  0
 39  2  1  0
 37  8  1  0
 37 11  1  0
 33 14  1  0
 30 21  1  0
 29 24  1  0
M  END
>  <Binding energies>  (47) 
[-8.78]

>  <Ligand effiencies>  (47) 
[-0.21949999999999997]

>  <Interactions>  (47) 
["V-A:GLU:543:CD:4903, V-A:HIS:456:CE1:4064, V-A:GLU:543:CB:4901, V-B:GLU:543:CG:9875, V-B:GLU:543:CB:9874, V-B:HIS:456:CE1:9037, V-B:GLU:543:CD:9876, V-B:ALA:541:CB:9860, V-A:TRP:381:CZ2:3365, V-B:TYR:539:CD2:9842, V-A:TRP:381:CH2:3367, V-A:LEU:475:CD2:4254, V-A:TRP:381:CZ3:3366, V-A:GLU:543:CG:4902, H-B:LYS:547:NZ:9919, V-B:GLU:543:C:9870, H-B:GLU:543:OE2:9878, V-A:GLY:544:CA:4909, H-A:LYS:547:NZ:4946, V-A:GLU:543:C:4897, V-B:LYS:547:CE:9918, V-A:GLY:544:C:4907, V-A:ASP:473:CG:4235, V-A:ASP:473:CB:4234, V-A:ARG:545:CA:4914"]

$$$$
RR26_Rahimova_2017
     RDKit          3D

 38 44  0  0  0  0  0  0  0  0999 V2000
  126.3630  126.9160   69.1600 C   0  0  0  0  0  0  0  0  0  0  0  0
  127.4130  127.5470   70.0650 C   0  0  0  0  0  0  0  0  0  0  0  0
  127.0500  127.8710   71.3760 C   0  0  0  0  0  0  0  0  0  0  0  0
  127.9800  128.4140   72.2590 C   0  0  0  0  0  0  0  0  0  0  0  0
  129.2890  128.6320   71.8400 C   0  0  0  0  0  0  0  0  0  0  0  0
  129.6640  128.3130   70.5360 C   0  0  0  0  0  0  0  0  0  0  0  0
  128.7380  127.7740   69.6300 C   0  0  0  0  0  0  0  0  0  0  0  0
  129.2200  127.4730   68.2400 C   0  0  0  0  0  0  0  0  0  0  0  0
  128.7440  128.1030   67.1700 N   0  0  0  0  0  0  0  0  0  0  0  0
  129.4310  127.5540   66.2050 C   0  0  0  0  0  0  0  0  0  0  0  0
  129.5030  127.7170   64.4890 S   0  0  0  0  0  0  0  0  0  0  0  0
  130.7910  126.4550   64.4460 C   0  0  0  0  0  0  0  0  0  0  0  0
  131.4310  125.9630   63.3620 C   0  0  0  0  0  0  0  0  0  0  0  0
  131.2470  126.3320   61.9680 C   0  0  0  0  0  0  0  0  0  0  0  0
  131.0970  127.6010   61.4300 C   0  0  0  0  0  0  0  0  0  0  0  0
  130.9950  127.4730   60.0680 N   0  0  0  0  0  0  0  0  0  0  0  0
  130.8360  128.4970   59.1000 C   0  0  0  0  0  0  0  0  0  0  0  0
  129.7540  128.4800   58.2070 C   0  0  0  0  0  0  0  0  0  0  0  0
  129.6120  129.4900   57.2590 C   0  0  0  0  0  0  0  0  0  0  0  0
  130.5460  130.5210   57.2030 C   0  0  0  0  0  0  0  0  0  0  0  0
  131.6230  130.5520   58.0860 C   0  0  0  0  0  0  0  0  0  0  0  0
  131.7700  129.5420   59.0330 C   0  0  0  0  0  0  0  0  0  0  0  0
  131.1020  126.1830   59.7130 N   0  0  0  0  0  0  0  0  0  0  0  0
  131.2460  125.4960   60.8290 C   0  0  0  0  0  0  0  0  0  0  0  0
  131.3830  124.0050   60.7740 C   0  0  0  0  0  0  0  0  0  0  0  0
  132.6420  123.4140   60.5890 C   0  0  0  0  0  0  0  0  0  0  0  0
  132.7800  122.0260   60.5320 C   0  0  0  0  0  0  0  0  0  0  0  0
  131.6530  121.2160   60.6600 C   0  0  0  0  0  0  0  0  0  0  0  0
  130.3920  121.7940   60.8640 C   0  0  0  0  0  0  0  0  0  0  0  0
  130.2560  123.1800   60.9130 C   0  0  0  0  0  0  0  0  0  0  0  0
  129.2430  121.0320   60.9510 O   0  0  0  0  0  0  0  0  0  0  0  0
  129.4770  119.6540   61.2590 C   0  0  0  0  0  0  0  0  0  0  0  0
  130.6450  119.0970   60.4100 C   0  0  0  0  0  0  0  0  0  0  0  0
  131.8410  119.8480   60.6470 O   0  0  0  0  0  0  0  0  0  0  0  0
  131.1140  125.9460   65.7760 C   0  0  0  0  0  0  0  0  0  0  0  0
  131.9340  125.0860   66.1010 O   0  0  0  0  0  0  0  0  0  0  0  0
  130.2910  126.6350   66.6810 N   0  0  0  0  0  0  0  0  0  0  0  0
  130.1670  126.5760   68.0090 N   0  0  0  0  0  0  0  0  0  0  0  0
  1  2  1  0
  2  3  2  0
  3  4  1  0
  4  5  2  0
  5  6  1  0
  6  7  2  0
  7  8  1  0
  8  9  1  0
  9 10  2  0
 10 11  1  0
 11 12  1  0
 12 13  2  0
 13 14  1  0
 14 15  2  0
 15 16  1  0
 16 17  1  0
 17 18  2  0
 18 19  1  0
 19 20  2  0
 20 21  1  0
 21 22  2  0
 16 23  1  0
 23 24  2  0
 24 25  1  0
 25 26  2  0
 26 27  1  0
 27 28  2  0
 28 29  1  0
 29 30  2  0
 29 31  1  0
 31 32  1  0
 32 33  1  0
 33 34  1  0
 12 35  1  0
 35 36  2  0
 35 37  1  0
 37 38  1  0
  7  2  1  0
 38  8  2  0
 37 10  1  0
 24 14  1  0
 30 25  1  0
 22 17  1  0
 34 28  1  0
M  END
>  <Binding energies>  (48) 
[-8.16]

>  <Ligand effiencies>  (48) 
[-0.21473684210526317]

>  <Interactions>  (48) 
["V-A:GLU:543:CD:4903, V-A:HIS:456:CE1:4064, V-B:HIS:456:CD2:9035, V-B:GLU:543:CB:9874, V-A:ILE:369:CD1:3234, V-B:HIS:456:CE1:9037, H-A:TYR:531:OH:4790, V-B:ALA:541:CB:9860, V-A:TRP:381:CZ2:3365, V-B:TYR:539:CD2:9842, V-A:TRP:381:CH2:3367, V-A:LEU:475:CD2:4254, V-A:TRP:381:CZ3:3366, V-B:ARG:545:CG:9890, V-B:GLY:544:C:9880, V-B:GLU:543:C:9870, V-B:PRO:540:C:9849, H-A:HIS:456:NE2:4065, H-A:TYR:484:OH:4343, H-B:ALA:541:N:9859, V-B:ALA:541:CA:9858, V-B:HIS:456:CG:9033, V-B:ARG:545:CA:9887"]

$$$$
RR2_Rahimova_2017
     RDKit          3D

 46 50  0  0  0  0  0  0  0  0999 V2000
  130.7480  117.7900   75.5550 C   0  0  0  0  0  0  0  0  0  0  0  0
  130.9740  119.1550   75.8880 O   0  0  0  0  0  0  0  0  0  0  0  0
  130.6910  120.1330   74.9530 C   0  0  0  0  0  0  0  0  0  0  0  0
  130.5590  121.4960   75.2500 C   0  0  0  0  0  0  0  0  0  0  0  0
  130.2690  122.4100   74.2410 C   0  0  0  0  0  0  0  0  0  0  0  0
  130.1010  121.9850   72.9160 C   0  0  0  0  0  0  0  0  0  0  0  0
  129.7790  123.0000   71.8360 C   0  0  0  0  0  0  0  0  0  0  0  0
  129.9420  122.7160   70.6450 O   0  0  0  0  0  0  0  0  0  0  0  0
  129.3290  124.2010   72.2700 N   0  0  0  0  0  0  0  0  0  0  0  0
  129.1070  125.1990   71.3270 N   0  0  0  0  0  0  0  0  0  0  0  0
  129.1480  126.4830   71.7360 C   0  0  0  0  0  0  0  0  0  0  0  0
  129.1890  126.8470   72.9150 O   0  0  0  0  0  0  0  0  0  0  0  0
  129.1640  127.5330   70.6170 C   0  0  0  0  0  0  0  0  0  0  0  0
  128.0060  127.2110   69.2360 S   0  0  0  0  0  0  0  0  0  0  0  0
  129.0520  126.2990   68.1410 C   0  0  0  0  0  0  0  0  0  0  0  0
  129.8950  125.3870   68.5540 N   0  0  0  0  0  0  0  0  0  0  0  0
  130.5960  124.9340   67.4450 N   0  0  0  0  0  0  0  0  0  0  0  0
  130.1280  125.5690   66.3970 C   0  0  0  0  0  0  0  0  0  0  0  0
  130.6250  125.3380   65.0060 C   0  0  0  0  0  0  0  0  0  0  0  0
  131.5650  126.2100   64.4510 C   0  0  0  0  0  0  0  0  0  0  0  0
  132.0280  126.0070   63.1540 C   0  0  0  0  0  0  0  0  0  0  0  0
  131.5670  124.9180   62.4060 C   0  0  0  0  0  0  0  0  0  0  0  0
  131.9910  124.6700   61.0910 N   0  0  0  0  0  0  0  0  0  0  0  0
  133.0450  123.3250   60.6040 S   0  0  0  0  0  0  0  0  0  0  0  0
  133.9900  123.1310   61.7100 O   0  0  0  0  0  0  0  0  0  0  0  0
  133.5250  123.5920   59.2430 O   0  0  0  0  0  0  0  0  0  0  0  0
  131.9820  121.8830   60.5750 C   0  0  0  0  0  0  0  0  0  0  0  0
  130.5930  122.0230   60.6110 C   0  0  0  0  0  0  0  0  0  0  0  0
  129.7850  120.8890   60.6030 C   0  0  0  0  0  0  0  0  0  0  0  0
  130.3640  119.6190   60.5540 C   0  0  0  0  0  0  0  0  0  0  0  0
  129.4820  118.3840   60.5600 C   0  0  0  0  0  0  0  0  0  0  0  0
  131.7540  119.4830   60.5220 C   0  0  0  0  0  0  0  0  0  0  0  0
  132.5630  120.6150   60.5310 C   0  0  0  0  0  0  0  0  0  0  0  0
  130.6320  124.0460   62.9630 C   0  0  0  0  0  0  0  0  0  0  0  0
  130.1630  124.2520   64.2570 C   0  0  0  0  0  0  0  0  0  0  0  0
  129.1390  126.4640   66.7710 N   0  0  0  0  0  0  0  0  0  0  0  0
  128.4190  127.3650   65.9590 C   0  0  0  0  0  0  0  0  0  0  0  0
  129.0940  128.1530   65.0260 C   0  0  0  0  0  0  0  0  0  0  0  0
  128.3760  129.0370   64.2240 C   0  0  0  0  0  0  0  0  0  0  0  0
  126.9900  129.1420   64.3470 C   0  0  0  0  0  0  0  0  0  0  0  0
  126.3670  130.0470   63.5100 O   0  0  0  0  0  0  0  0  0  0  0  0
  126.7930  131.4060   63.5130 C   0  0  0  0  0  0  0  0  0  0  0  0
  126.3200  128.3450   65.2890 C   0  0  0  0  0  0  0  0  0  0  0  0
  127.0320  127.4580   66.0910 C   0  0  0  0  0  0  0  0  0  0  0  0
  130.2410  120.6190   72.6250 C   0  0  0  0  0  0  0  0  0  0  0  0
  130.5320  119.7070   73.6360 C   0  0  0  0  0  0  0  0  0  0  0  0
  1  2  1  0
  2  3  1  0
  3  4  2  0
  4  5  1  0
  5  6  2  0
  6  7  1  0
  7  8  2  0
  7  9  1  0
  9 10  1  0
 10 11  1  0
 11 12  2  0
 11 13  1  0
 13 14  1  0
 14 15  1  0
 15 16  2  0
 16 17  1  0
 17 18  2  0
 18 19  1  0
 19 20  2  0
 20 21  1  0
 21 22  2  0
 22 23  1  0
 23 24  1  0
 24 25  2  0
 24 26  2  0
 24 27  1  0
 27 28  2  0
 28 29  1  0
 29 30  2  0
 30 31  1  0
 30 32  1  0
 32 33  2  0
 22 34  1  0
 34 35  2  0
 18 36  1  0
 36 37  1  0
 37 38  2  0
 38 39  1  0
 39 40  2  0
 40 41  1  0
 41 42  1  0
 40 43  1  0
 43 44  2  0
  6 45  1  0
 45 46  2  0
 46  3  1  0
 36 15  1  0
 44 37  1  0
 35 19  1  0
 33 27  1  0
M  END
>  <Binding energies>  (49) 
[-9.2]

>  <Ligand effiencies>  (49) 
[-0.1877551020408163]

>  <Interactions>  (49) 
["V-A:GLU:543:CD:4903, V-A:ASP:366:CG:3208, V-A:HIS:456:CE1:4064, V-A:ARG:545:CZ:4921, V-B:GLU:543:CG:9875, V-B:GLU:543:CB:9874, V-A:ILE:369:CD1:3234, V-B:GLU:543:CD:9876, V-B:ALA:541:CB:9860, V-A:TRP:381:CZ2:3365, V-B:TYR:539:CD2:9842, V-A:PRO:482:CG:4322, V-A:TRP:381:CH2:3367, V-A:LEU:475:CD2:4254, V-A:PRO:482:CB:4321, V-A:TRP:381:CZ3:3366, V-B:TYR:539:C:9835, V-A:GLU:543:CG:4902, H-B:LYS:547:NZ:9919, V-B:GLU:543:C:9870, V-B:PRO:540:C:9849, H-A:HIS:456:NE2:4065, H-A:TYR:484:OH:4343, H-B:GLU:543:O:9871, H-A:ASP:366:OD2:3210, V-A:ASP:473:CG:4235, V-A:TYR:484:CG:4337, V-A:TYR:484:CB:4336, V-A:ASP:473:CB:4234, H-A:LYS:471:NZ:4216, V-A:ASP:485:CA:4348, V-A:PRO:486:CD:4361"]

$$$$
RR33_Rahimova_2017
     RDKit          3D

 18 19  0  0  0  0  0  0  0  0999 V2000
  126.6320  129.9530   74.5320 C   0  0  0  0  0  0  0  0  0  0  0  0
  128.0860  130.2470   74.1530 C   0  0  0  0  0  0  0  0  0  0  0  0
  128.7420  129.0160   73.8630 O   0  0  0  0  0  0  0  0  0  0  0  0
  128.9870  128.6710   72.5480 C   0  0  0  0  0  0  0  0  0  0  0  0
  127.9250  128.1010   71.8470 C   0  0  0  0  0  0  0  0  0  0  0  0
  128.0780  127.7180   70.5170 C   0  0  0  0  0  0  0  0  0  0  0  0
  129.3020  127.9020   69.8660 C   0  0  0  0  0  0  0  0  0  0  0  0
  129.4660  127.4900   68.4380 C   0  0  0  0  0  0  0  0  0  0  0  0
  130.2610  126.5600   67.9570 N   0  0  0  0  0  0  0  0  0  0  0  0
  130.0520  126.5640   66.6500 C   0  0  0  0  0  0  0  0  0  0  0  0
  130.7920  125.6050   65.7420 C   0  0  0  0  0  0  0  0  0  0  0  0
  132.1010  125.2850   66.2900 N   0  0  0  0  0  0  0  0  0  0  0  0
  133.1360  125.4670   65.2850 C   0  0  0  0  0  0  0  0  0  0  0  0
  129.1020  127.5260   66.3320 C   0  0  0  0  0  0  0  0  0  0  0  0
  128.4460  128.0070   65.0610 C   0  0  0  0  0  0  0  0  0  0  0  0
  128.7280  128.1210   67.4880 O   0  0  0  0  0  0  0  0  0  0  0  0
  130.3680  128.4780   70.5640 C   0  0  0  0  0  0  0  0  0  0  0  0
  130.2150  128.8600   71.8950 C   0  0  0  0  0  0  0  0  0  0  0  0
  1  2  1  0
  2  3  1  0
  3  4  1  0
  4  5  2  0
  5  6  1  0
  6  7  2  0
  7  8  1  0
  8  9  2  0
  9 10  1  0
 10 11  1  0
 11 12  1  0
 12 13  1  0
 10 14  2  0
 14 15  1  0
 14 16  1  0
  7 17  1  0
 17 18  2  0
 18  4  1  0
 16  8  1  0
M  END
>  <Binding energies>  (50) 
[-5.28]

>  <Ligand effiencies>  (50) 
[-0.27789473684210525]

>  <Interactions>  (50) 
["V-A:GLU:543:CD:4903, V-A:HIS:456:CE1:4064, V-A:ARG:545:CZ:4921, V-B:HIS:456:CD2:9035, V-B:HIS:456:CE1:9037, V-B:GLU:543:CD:9876, H-B:LYS:547:NZ:9919, H-A:HIS:456:NE2:4065, H-A:TYR:484:OH:4343, V-A:ARG:545:CD:4918, H-A:LYS:547:NZ:4946, V-A:GLY:544:C:4907, V-B:HIS:456:CB:9032, V-B:HIS:456:CG:9033"]

$$$$
RR3_Rahimova_2017
     RDKit          3D

 38 44  0  0  0  0  0  0  0  0999 V2000
  128.0750  128.3580   71.8410 C   0  0  0  0  0  0  0  0  0  0  0  0
  129.3620  128.6140   71.3800 C   0  0  0  0  0  0  0  0  0  0  0  0
  129.7520  128.1480   70.1280 C   0  0  0  0  0  0  0  0  0  0  0  0
  128.8640  127.4210   69.3210 C   0  0  0  0  0  0  0  0  0  0  0  0
  129.2850  126.9210   67.9750 C   0  0  0  0  0  0  0  0  0  0  0  0
  129.8580  125.6510   67.8250 C   0  0  0  0  0  0  0  0  0  0  0  0
  130.2520  125.1880   66.5730 C   0  0  0  0  0  0  0  0  0  0  0  0
  130.0890  125.9890   65.4400 C   0  0  0  0  0  0  0  0  0  0  0  0
  130.5150  125.5000   64.0920 C   0  0  0  0  0  0  0  0  0  0  0  0
  131.0330  124.2830   63.9600 N   0  0  0  0  0  0  0  0  0  0  0  0
  131.2680  124.1130   62.6810 C   0  0  0  0  0  0  0  0  0  0  0  0
  131.8410  122.9090   62.0840 C   0  0  0  0  0  0  0  0  0  0  0  0
  133.1900  122.6640   61.8910 C   0  0  0  0  0  0  0  0  0  0  0  0
  133.3700  121.4340   61.3140 N   0  0  0  0  0  0  0  0  0  0  0  0
  132.1490  120.8310   61.1060 C   0  0  0  0  0  0  0  0  0  0  0  0
  131.8260  119.5880   60.5520 C   0  0  0  0  0  0  0  0  0  0  0  0
  130.4730  119.2590   60.4770 C   0  0  0  0  0  0  0  0  0  0  0  0
  129.4820  120.1240   60.9310 C   0  0  0  0  0  0  0  0  0  0  0  0
  129.8030  121.3620   61.4840 C   0  0  0  0  0  0  0  0  0  0  0  0
  131.1540  121.7420   61.5820 C   0  0  0  0  0  0  0  0  0  0  0  0
  130.9110  125.2220   61.9660 N   0  0  0  0  0  0  0  0  0  0  0  0
  130.4380  126.1560   62.8510 C   0  0  0  0  0  0  0  0  0  0  0  0
  130.0080  127.5240   62.4340 C   0  0  0  0  0  0  0  0  0  0  0  0
  130.8440  128.3080   61.6380 C   0  0  0  0  0  0  0  0  0  0  0  0
  130.4520  129.5880   61.2580 C   0  0  0  0  0  0  0  0  0  0  0  0
  129.2160  130.1130   61.6610 C   0  0  0  0  0  0  0  0  0  0  0  0
  128.8070  131.4970   61.2670 C   0  0  0  0  0  0  0  0  0  0  0  0
  128.6380  132.5000   62.2340 C   0  0  0  0  0  0  0  0  0  0  0  0
  128.2610  133.7900   61.8660 C   0  0  0  0  0  0  0  0  0  0  0  0
  128.0500  134.0910   60.5240 C   0  0  0  0  0  0  0  0  0  0  0  0
  128.2130  133.1130   59.5500 C   0  0  0  0  0  0  0  0  0  0  0  0
  128.5880  131.8240   59.9200 C   0  0  0  0  0  0  0  0  0  0  0  0
  128.3780  129.3090   62.4460 C   0  0  0  0  0  0  0  0  0  0  0  0
  128.7670  128.0280   62.8280 C   0  0  0  0  0  0  0  0  0  0  0  0
  129.5060  127.2510   65.5770 C   0  0  0  0  0  0  0  0  0  0  0  0
  129.1130  127.7120   66.8310 C   0  0  0  0  0  0  0  0  0  0  0  0
  127.5720  127.1730   69.8070 C   0  0  0  0  0  0  0  0  0  0  0  0
  127.1770  127.6390   71.0590 C   0  0  0  0  0  0  0  0  0  0  0  0
  1  2  2  0
  2  3  1  0
  3  4  2  0
  4  5  1  0
  5  6  2  0
  6  7  1  0
  7  8  2  0
  8  9  1  0
  9 10  1  0
 10 11  2  0
 11 12  1  0
 12 13  2  0
 13 14  1  0
 14 15  1  0
 15 16  2  0
 16 17  1  0
 17 18  2  0
 18 19  1  0
 19 20  2  0
 11 21  1  0
 21 22  1  0
 22 23  1  0
 23 24  2  0
 24 25  1  0
 25 26  2  0
 26 27  1  0
 27 28  2  0
 28 29  1  0
 29 30  2  0
 30 31  1  0
 31 32  2  0
 26 33  1  0
 33 34  2  0
  8 35  1  0
 35 36  2  0
  4 37  1  0
 37 38  2  0
 38  1  1  0
 36  5  1  0
 22  9  2  0
 34 23  1  0
 20 12  1  0
 32 27  1  0
 20 15  1  0
M  END
>  <Binding energies>  (51) 
[-8.98]

>  <Ligand effiencies>  (51) 
[-0.2245]

>  <Interactions>  (51) 
["V-A:GLU:543:CD:4903, V-A:HIS:456:CE1:4064, V-B:GLU:543:CG:9875, V-B:HIS:456:CD2:9035, V-B:GLU:543:CB:9874, V-A:ILE:369:CD1:3234, V-B:HIS:456:CE1:9037, V-B:GLU:543:CD:9876, V-B:ALA:541:CB:9860, V-A:TRP:381:CZ2:3365, V-A:TYR:539:C:4862, V-A:PRO:540:CA:4878, V-B:TYR:539:CD2:9842, V-A:TRP:381:CH2:3367, V-A:LEU:475:CD2:4254, V-A:TRP:381:CZ3:3366, V-B:TYR:539:C:9835, V-A:TYR:539:CD2:4869, V-A:TYR:539:CE2:4871, V-B:GLY:544:C:9880, V-B:GLU:543:C:9870, V-B:PRO:540:C:9849, H-A:TYR:484:OH:4343, V-B:ALA:541:CA:9858, H-A:ASP:366:OD2:3210, V-B:HIS:456:CG:9033, V-A:ALA:541:CB:4887, H-A:SER:385:O:3401"]

$$$$
RR4_Rahimova_2017
     RDKit          3D

 40 44  0  0  0  0  0  0  0  0999 V2000
  129.9500  119.0730   73.7820 C   0  0  0  0  0  0  0  0  0  0  0  0
  130.9590  120.0610   73.6030 O   0  0  0  0  0  0  0  0  0  0  0  0
  130.6390  121.2430   72.9630 C   0  0  0  0  0  0  0  0  0  0  0  0
  131.3420  122.3780   73.3590 C   0  0  0  0  0  0  0  0  0  0  0  0
  131.0880  123.6120   72.7690 C   0  0  0  0  0  0  0  0  0  0  0  0
  130.1180  123.7490   71.7650 C   0  0  0  0  0  0  0  0  0  0  0  0
  129.8450  125.0820   71.1310 C   0  0  0  0  0  0  0  0  0  0  0  0
  129.7800  126.2710   71.8650 C   0  0  0  0  0  0  0  0  0  0  0  0
  129.5270  127.4920   71.2260 C   0  0  0  0  0  0  0  0  0  0  0  0
  129.5000  128.7240   72.0710 C   0  0  0  0  0  0  0  0  0  0  0  0
  128.3740  129.0210   72.8440 C   0  0  0  0  0  0  0  0  0  0  0  0
  128.3450  130.1600   73.6440 C   0  0  0  0  0  0  0  0  0  0  0  0
  129.4420  131.0200   73.6910 C   0  0  0  0  0  0  0  0  0  0  0  0
  129.3240  132.1250   74.5120 O   0  0  0  0  0  0  0  0  0  0  0  0
  128.7000  133.3020   74.0080 C   0  0  0  0  0  0  0  0  0  0  0  0
  130.5770  130.7230   72.9210 C   0  0  0  0  0  0  0  0  0  0  0  0
  130.6030  129.5830   72.1220 C   0  0  0  0  0  0  0  0  0  0  0  0
  129.3100  127.4890   69.8260 C   0  0  0  0  0  0  0  0  0  0  0  0
  129.0420  128.7380   69.1080 C   0  0  0  0  0  0  0  0  0  0  0  0
  128.8300  129.7240   68.5410 N   0  0  0  0  0  0  0  0  0  0  0  0
  129.3610  126.2480   69.1520 C   0  0  0  0  0  0  0  0  0  0  0  0
  129.1010  126.0540   67.4010 S   0  0  0  0  0  0  0  0  0  0  0  0
  130.6770  126.4230   66.5600 C   0  0  0  0  0  0  0  0  0  0  0  0
  131.2740  125.2440   65.7800 C   0  0  0  0  0  0  0  0  0  0  0  0
  132.3410  124.7350   66.1330 O   0  0  0  0  0  0  0  0  0  0  0  0
  130.5500  124.8500   64.7070 N   0  0  0  0  0  0  0  0  0  0  0  0
  130.8220  123.8170   63.8070 C   0  0  0  0  0  0  0  0  0  0  0  0
  129.5900  122.7530   63.1830 S   0  0  0  0  0  0  0  0  0  0  0  0
  130.7510  121.8700   62.2390 C   0  0  0  0  0  0  0  0  0  0  0  0
  132.0480  122.3810   62.4070 C   0  0  0  0  0  0  0  0  0  0  0  0
  132.0830  123.4930   63.2830 C   0  0  0  0  0  0  0  0  0  0  0  0
  133.3070  124.2200   63.6110 C   0  0  0  0  0  0  0  0  0  0  0  0
  134.2770  124.7950   63.8710 N   0  0  0  0  0  0  0  0  0  0  0  0
  133.2450  121.7960   61.6490 C   0  0  0  0  0  0  0  0  0  0  0  0
  132.7680  120.9250   60.4640 C   0  0  0  0  0  0  0  0  0  0  0  0
  131.6300  119.9710   60.8670 C   0  0  0  0  0  0  0  0  0  0  0  0
  130.3610  120.7350   61.3020 C   0  0  0  0  0  0  0  0  0  0  0  0
  129.6390  125.0860   69.7890 N   0  0  0  0  0  0  0  0  0  0  0  0
  129.4170  122.5980   71.3700 C   0  0  0  0  0  0  0  0  0  0  0  0
  129.6690  121.3620   71.9580 C   0  0  0  0  0  0  0  0  0  0  0  0
  1  2  1  0
  2  3  1  0
  3  4  2  0
  4  5  1  0
  5  6  2  0
  6  7  1  0
  7  8  2  0
  8  9  1  0
  9 10  1  0
 10 11  2  0
 11 12  1  0
 12 13  2  0
 13 14  1  0
 14 15  1  0
 13 16  1  0
 16 17  2  0
  9 18  2  0
 18 19  1  0
 19 20  3  0
 18 21  1  0
 21 22  1  0
 22 23  1  0
 23 24  1  0
 24 25  2  0
 24 26  1  0
 26 27  1  0
 27 28  1  0
 28 29  1  0
 29 30  2  0
 30 31  1  0
 31 32  1  0
 32 33  3  0
 30 34  1  0
 34 35  1  0
 35 36  1  0
 36 37  1  0
 21 38  2  0
  6 39  1  0
 39 40  2  0
 40  3  1  0
 38  7  1  0
 17 10  1  0
 31 27  2  0
 37 29  1  0
M  END
>  <Binding energies>  (52) 
[-9.25]

>  <Ligand effiencies>  (52) 
[-0.22560975609756098]

>  <Interactions>  (52) 
["V-A:HIS:456:CE1:4064, V-B:GLU:543:CG:9875, V-B:HIS:456:CD2:9035, V-A:ILE:369:CD1:3234, H-A:ARG:545:NH2:4923, V-B:HIS:456:CE1:9037, V-B:GLU:543:CD:9876, V-B:ALA:541:CB:9860, V-A:TRP:381:CZ2:3365, V-A:TRP:381:CH2:3367, V-A:LEU:475:CD2:4254, V-B:GLU:543:C:9870, H-A:HIS:456:NE2:4065, H-A:TYR:484:OH:4343, H-B:GLU:543:OE2:9878, H-A:GLY:454:N:4045, V-A:GLY:544:CA:4909, V-A:LYS:547:CE:4945, V-A:GLU:543:C:4897, V-A:GLY:544:C:4907, V-A:HIS:456:CG:4061, V-A:HIS:456:CB:4060, V-A:ASP:473:CG:4235, V-A:ILE:369:CG2:3232, H-A:ARG:545:NH1:4922, V-A:TYR:484:CD1:4338, V-A:TYR:484:CG:4337, V-A:TYR:484:CB:4336, V-A:ASP:473:CB:4234, V-A:TYR:484:C:4332"]

$$$$
RR6_Rahimova_2017
     RDKit          3D

 38 41  0  0  0  0  0  0  0  0999 V2000
  127.9300  132.5970   58.6330 C   0  0  0  0  0  0  0  0  0  0  0  0
  128.8400  133.3550   57.8470 O   0  0  0  0  0  0  0  0  0  0  0  0
  130.0630  132.8620   57.5230 C   0  0  0  0  0  0  0  0  0  0  0  0
  130.7760  133.3410   56.6360 O   0  0  0  0  0  0  0  0  0  0  0  0
  130.4620  131.6740   58.3510 C   0  0  0  0  0  0  0  0  0  0  0  0
  130.6150  130.3960   57.7940 C   0  0  0  0  0  0  0  0  0  0  0  0
  130.9790  129.3130   58.5900 C   0  0  0  0  0  0  0  0  0  0  0  0
  131.1940  129.4920   59.9650 C   0  0  0  0  0  0  0  0  0  0  0  0
  131.5370  128.4640   60.8630 N   0  0  0  0  0  0  0  0  0  0  0  0
  130.7590  127.4930   61.3900 C   0  0  0  0  0  0  0  0  0  0  0  0
  129.5620  127.3290   61.1520 O   0  0  0  0  0  0  0  0  0  0  0  0
  131.4440  126.5770   62.4100 C   0  0  0  0  0  0  0  0  0  0  0  0
  130.2880  125.7840   63.5770 S   0  0  0  0  0  0  0  0  0  0  0  0
  129.7040  127.0630   64.6700 C   0  0  0  0  0  0  0  0  0  0  0  0
  129.2670  128.1800   64.0390 N   0  0  0  0  0  0  0  0  0  0  0  0
  128.7710  129.2130   64.7660 C   0  0  0  0  0  0  0  0  0  0  0  0
  128.2510  130.3860   63.9880 C   0  0  0  0  0  0  0  0  0  0  0  0
  129.1280  131.3310   63.4330 C   0  0  0  0  0  0  0  0  0  0  0  0
  128.6450  132.4260   62.7230 C   0  0  0  0  0  0  0  0  0  0  0  0
  127.2720  132.5950   62.5500 C   0  0  0  0  0  0  0  0  0  0  0  0
  126.7490  133.7960   61.7830 C   0  0  0  0  0  0  0  0  0  0  0  0
  126.3850  131.6680   63.0920 C   0  0  0  0  0  0  0  0  0  0  0  0
  126.8730  130.5750   63.8000 C   0  0  0  0  0  0  0  0  0  0  0  0
  128.7180  129.1450   66.1620 C   0  0  0  0  0  0  0  0  0  0  0  0
  129.1690  128.0020   66.8380 C   0  0  0  0  0  0  0  0  0  0  0  0
  129.0660  127.9890   68.3280 C   0  0  0  0  0  0  0  0  0  0  0  0
  127.9710  127.3830   68.9510 C   0  0  0  0  0  0  0  0  0  0  0  0
  127.8750  127.3520   70.3400 C   0  0  0  0  0  0  0  0  0  0  0  0
  128.8720  127.9210   71.1310 C   0  0  0  0  0  0  0  0  0  0  0  0
  128.6940  127.8410   72.4990 O   0  0  0  0  0  0  0  0  0  0  0  0
  128.6130  129.0430   73.2590 C   0  0  0  0  0  0  0  0  0  0  0  0
  129.9760  128.5250   70.5110 C   0  0  0  0  0  0  0  0  0  0  0  0
  130.0690  128.5540   69.1220 C   0  0  0  0  0  0  0  0  0  0  0  0
  129.6850  126.9270   66.0730 C   0  0  0  0  0  0  0  0  0  0  0  0
  130.2000  125.7150   66.7180 C   0  0  0  0  0  0  0  0  0  0  0  0
  130.6040  124.7580   67.2270 N   0  0  0  0  0  0  0  0  0  0  0  0
  131.0610  130.7650   60.5200 C   0  0  0  0  0  0  0  0  0  0  0  0
  130.6930  131.8450   59.7220 C   0  0  0  0  0  0  0  0  0  0  0  0
  1  2  1  0
  2  3  1  0
  3  4  2  0
  3  5  1  0
  5  6  2  0
  6  7  1  0
  7  8  2  0
  8  9  1  0
  9 10  1  0
 10 11  2  0
 10 12  1  0
 12 13  1  0
 13 14  1  0
 14 15  2  0
 15 16  1  0
 16 17  1  0
 17 18  2  0
 18 19  1  0
 19 20  2  0
 20 21  1  0
 20 22  1  0
 22 23  2  0
 16 24  2  0
 24 25  1  0
 25 26  1  0
 26 27  2  0
 27 28  1  0
 28 29  2  0
 29 30  1  0
 30 31  1  0
 29 32  1  0
 32 33  2  0
 25 34  2  0
 34 35  1  0
 35 36  3  0
  8 37  1  0
 37 38  2  0
 38  5  1  0
 34 14  1  0
 23 17  1  0
 33 26  1  0
M  END
>  <Binding energies>  (53) 
[-8.58]

>  <Ligand effiencies>  (53) 
[-0.22]

>  <Interactions>  (53) 
["V-A:GLU:543:CD:4903, V-A:ASP:366:CG:3208, V-A:HIS:456:CE1:4064, V-A:GLU:543:CB:4901, V-B:GLU:543:CG:9875, V-B:HIS:456:CD2:9035, H-A:GLU:543:OE2:4905, V-B:HIS:456:CE1:9037, V-A:TYR:539:C:4862, V-A:PRO:540:CA:4878, V-A:PRO:540:N:4879, V-A:PRO:540:CB:4880, V-A:TYR:539:CZ:4872, V-A:TYR:539:CD2:4869, V-A:TYR:539:CE2:4871, V-A:GLU:543:CG:4902, H-B:LYS:547:NZ:9919, H-A:HIS:456:NE2:4065, H-A:TYR:484:OH:4343, V-A:GLU:543:C:4897, H-A:ASP:366:OD2:3210, V-A:ALA:541:CB:4887, V-A:TYR:539:CE1:4870, V-A:PRO:540:CD:4882, H-A:TYR:539:N:4865, V-A:TYR:539:CG:4867, V-B:LEU:475:CD2:9226"]

$$$$
RR7_Rahimova_2017
     RDKit          3D

 47 53  0  0  0  0  0  0  0  0999 V2000
  130.2370  124.3080   65.8650 C   0  0  0  0  0  0  0  0  0  0  0  0
  130.5600  123.2520   64.9650 O   0  0  0  0  0  0  0  0  0  0  0  0
  130.4560  123.4710   63.6050 C   0  0  0  0  0  0  0  0  0  0  0  0
  131.0170  124.6510   63.1200 C   0  0  0  0  0  0  0  0  0  0  0  0
  130.9660  124.9550   61.7630 C   0  0  0  0  0  0  0  0  0  0  0  0
  130.3380  124.0880   60.8570 C   0  0  0  0  0  0  0  0  0  0  0  0
  130.2940  124.3880   59.3260 C   0  0  0  0  0  0  0  0  0  0  0  0
  130.1820  125.8240   59.1960 O   0  0  0  0  0  0  0  0  0  0  0  0
  129.1030  126.3940   58.4480 C   0  0  0  0  0  0  0  0  0  0  0  0
  129.2830  127.9200   58.3940 C   0  0  1  0  0  0  0  0  0  0  0  0
  128.6940  128.4470   59.5800 O   0  0  0  0  0  0  0  0  0  0  0  0
  129.6160  129.1650   60.3480 C   0  0  1  0  0  0  0  0  0  0  0  0
  129.3110  129.0200   61.7580 N   0  0  0  0  0  0  0  0  0  0  0  0
  129.0650  127.8540   62.4620 C   0  0  0  0  0  0  0  0  0  0  0  0
  128.7690  128.0150   63.7280 N   0  0  0  0  0  0  0  0  0  0  0  0
  128.7660  129.3740   63.8930 C   0  0  0  0  0  0  0  0  0  0  0  0
  128.5070  130.1870   65.0130 C   0  0  0  0  0  0  0  0  0  0  0  0
  128.1970  129.5680   66.2390 N   0  0  0  0  0  0  0  0  0  0  0  0
  128.7560  128.4730   66.8070 C   0  0  0  0  0  0  0  0  0  0  0  0
  129.6600  127.8090   66.2930 O   0  0  0  0  0  0  0  0  0  0  0  0
  128.1780  128.0610   68.1440 C   0  0  0  0  0  0  0  0  0  0  0  0
  128.8490  128.4080   69.3270 C   0  0  0  0  0  0  0  0  0  0  0  0
  128.3320  128.0440   70.5670 C   0  0  0  0  0  0  0  0  0  0  0  0
  127.1370  127.3350   70.6360 C   0  0  0  0  0  0  0  0  0  0  0  0
  126.4540  126.9850   69.4740 C   0  0  0  0  0  0  0  0  0  0  0  0
  126.9710  127.3470   68.2330 C   0  0  0  0  0  0  0  0  0  0  0  0
  128.5610  131.5460   64.8780 N   0  0  0  0  0  0  0  0  0  0  0  0
  128.8640  132.0500   63.6540 C   0  0  0  0  0  0  0  0  0  0  0  0
  129.1330  131.3610   62.5120 N   0  0  0  0  0  0  0  0  0  0  0  0
  129.0800  130.0330   62.6770 C   0  0  0  0  0  0  0  0  0  0  0  0
  130.9830  128.6400   59.9270 C   0  0  0  0  0  0  0  0  0  0  0  0
  130.7390  128.4040   58.4470 C   0  0  2  0  0  0  0  0  0  0  0  0
  130.9470  129.5780   57.6800 O   0  0  0  0  0  0  0  0  0  0  0  0
  131.6020  123.9690   58.6040 C   0  0  0  0  0  0  0  0  0  0  0  0
  132.0550  124.6860   57.4860 C   0  0  0  0  0  0  0  0  0  0  0  0
  133.2190  124.3100   56.8230 C   0  0  0  0  0  0  0  0  0  0  0  0
  133.9430  123.2100   57.2710 C   0  0  0  0  0  0  0  0  0  0  0  0
  133.5120  122.4840   58.3780 C   0  0  0  0  0  0  0  0  0  0  0  0
  132.3470  122.8600   59.0400 C   0  0  0  0  0  0  0  0  0  0  0  0
  129.1430  123.7050   58.5350 C   0  0  0  0  0  0  0  0  0  0  0  0
  129.3850  123.1430   57.2720 C   0  0  0  0  0  0  0  0  0  0  0  0
  128.3590  122.5380   56.5520 C   0  0  0  0  0  0  0  0  0  0  0  0
  127.0750  122.4950   57.0860 C   0  0  0  0  0  0  0  0  0  0  0  0
  126.8090  123.0570   58.3310 C   0  0  0  0  0  0  0  0  0  0  0  0
  127.8360  123.6620   59.0490 C   0  0  0  0  0  0  0  0  0  0  0  0
  129.7870  122.8960   61.3490 C   0  0  0  0  0  0  0  0  0  0  0  0
  129.8390  122.5910   62.7060 C   0  0  0  0  0  0  0  0  0  0  0  0
  1  2  1  0
  2  3  1  0
  3  4  2  0
  4  5  1  0
  5  6  2  0
  6  7  1  0
  7  8  1  0
  8  9  1  0
 10  9  1  1
 10 11  1  0
 11 12  1  0
 12 13  1  1
 13 14  1  0
 14 15  2  0
 15 16  1  0
 16 17  2  0
 17 18  1  0
 18 19  1  0
 19 20  2  0
 19 21  1  0
 21 22  2  0
 22 23  1  0
 23 24  2  0
 24 25  1  0
 25 26  2  0
 17 27  1  0
 27 28  2  0
 28 29  1  0
 29 30  2  0
 12 31  1  0
 31 32  1  0
 32 33  1  6
  7 34  1  0
 34 35  2  0
 35 36  1  0
 36 37  2  0
 37 38  1  0
 38 39  2  0
  7 40  1  0
 40 41  2  0
 41 42  1  0
 42 43  2  0
 43 44  1  0
 44 45  2  0
  6 46  1  0
 46 47  2  0
 47  3  1  0
 32 10  1  0
 39 34  1  0
 45 40  1  0
 30 13  1  0
 30 16  1  0
 26 21  1  0
M  END
>  <Binding energies>  (54) 
[-8.58]

>  <Ligand effiencies>  (54) 
[-0.17510204081632652]

>  <Interactions>  (54) 
["V-A:GLU:543:CD:4903, V-B:TYR:539:CZ:9845, V-B:GLU:543:CG:9875, V-B:HIS:456:CD2:9035, V-B:GLU:543:CB:9874, V-A:ILE:369:CD1:3234, V-B:HIS:456:CE1:9037, V-B:GLU:543:CD:9876, H-A:TYR:531:OH:4790, V-B:TYR:539:CE2:9844, V-B:ALA:541:CB:9860, V-B:TYR:539:CD2:9842, V-B:TYR:539:CG:9840, V-B:TYR:539:C:9835, V-A:GLU:543:CG:4902, H-B:HIS:456:NE2:9038, V-B:ARG:545:CG:9890, V-B:GLY:544:C:9880, H-B:TYR:484:OH:9315, V-B:GLU:543:C:9870, V-B:PRO:540:CA:9851, H-A:TYR:484:OH:4343, V-A:TYR:531:CZ:4789, V-A:TYR:484:CZ:4342, V-A:ASP:366:CB:3207, V-A:TYR:484:CE1:4340, V-A:ASP:366:CA:3205, V-B:PRO:540:N:9852, V-B:TYR:539:CD1:9841, V-B:PRO:540:CB:9853, V-B:TYR:539:CE1:9843, V-B:MET:535:CE:9803, V-A:ILE:369:CB:3231, V-A:ILE:369:CG2:3232, V-A:ALA:541:CB:4887, V-A:ASP:366:C:3203, V-A:TYR:531:CE1:4787, V-B:ARG:545:CA:9887"]

$$$$
RR8_A_Rahimova_2017
     RDKit          3D

 42 46  0  0  0  0  0  0  0  0999 V2000
  127.2730  128.0130   66.1450 O   0  0  0  0  0  0  0  0  0  0  0  0
  128.0140  128.7380   66.8180 C   0  0  0  0  0  0  0  0  0  0  0  0
  128.5650  129.9090   66.3710 O   0  0  0  0  0  0  0  0  0  0  0  0
  128.0800  130.4340   65.1660 C   0  0  1  0  0  0  0  0  0  0  0  0
  128.4150  131.7840   65.0190 O   0  0  0  0  0  0  0  0  0  0  0  0
  128.7520  132.1030   63.6720 C   0  0  2  0  0  0  0  0  0  0  0  0
  127.8490  133.2550   63.2010 C   0  0  0  0  0  0  0  0  0  0  0  0
  126.9270  132.7540   62.2420 O   0  0  0  0  0  0  0  0  0  0  0  0
  126.8130  133.5570   61.0750 C   0  0  0  0  0  0  0  0  0  0  0  0
  127.4840  132.8600   59.9010 C   0  0  0  0  0  0  0  0  0  0  0  0
  128.7020  133.3380   59.4110 C   0  0  0  0  0  0  0  0  0  0  0  0
  129.3220  132.6980   58.3400 C   0  0  0  0  0  0  0  0  0  0  0  0
  128.7230  131.5790   57.7640 C   0  0  0  0  0  0  0  0  0  0  0  0
  127.5110  131.0930   58.2500 C   0  0  0  0  0  0  0  0  0  0  0  0
  126.8920  131.7320   59.3220 C   0  0  0  0  0  0  0  0  0  0  0  0
  128.5700  130.7740   62.9250 C   0  0  1  0  0  0  0  0  0  0  0  0
  129.5620  130.5520   61.9260 O   0  0  0  0  0  0  0  0  0  0  0  0
  130.5700  131.5520   61.8240 C   0  0  0  0  0  0  0  0  0  0  0  0
  131.6570  131.0970   60.8610 C   0  0  0  0  0  0  0  0  0  0  0  0
  132.9950  131.3970   61.1340 C   0  0  0  0  0  0  0  0  0  0  0  0
  133.9940  130.9920   60.2530 C   0  0  0  0  0  0  0  0  0  0  0  0
  133.6530  130.2900   59.0970 C   0  0  0  0  0  0  0  0  0  0  0  0
  132.3230  129.9940   58.8140 C   0  0  0  0  0  0  0  0  0  0  0  0
  131.3230  130.4000   59.6940 C   0  0  0  0  0  0  0  0  0  0  0  0
  128.7800  129.7330   64.0090 C   0  0  2  0  0  0  0  0  0  0  0  0
  128.1760  128.4950   63.6400 O   0  0  0  0  0  0  0  0  0  0  0  0
  128.9800  127.6300   62.8460 C   0  0  0  0  0  0  0  0  0  0  0  0
  130.0010  126.9210   63.7240 C   0  0  0  0  0  0  0  0  0  0  0  0
  129.6690  126.5500   65.0310 C   0  0  0  0  0  0  0  0  0  0  0  0
  130.6030  125.8930   65.8270 C   0  0  0  0  0  0  0  0  0  0  0  0
  131.8660  125.6040   65.3140 C   0  0  0  0  0  0  0  0  0  0  0  0
  132.2030  125.9650   64.0110 C   0  0  0  0  0  0  0  0  0  0  0  0
  131.2680  126.6230   63.2140 C   0  0  0  0  0  0  0  0  0  0  0  0
  128.3960  128.4230   68.2360 C   0  0  0  0  0  0  0  0  0  0  0  0
  129.5090  129.0150   68.8530 C   0  0  0  0  0  0  0  0  0  0  0  0
  129.8390  128.7020   70.1680 C   0  0  0  0  0  0  0  0  0  0  0  0
  129.0670  127.7890   70.9000 C   0  0  0  0  0  0  0  0  0  0  0  0
  129.4180  127.4580   72.3020 N   0  0  0  0  0  0  0  0  0  0  0  0
  129.6220  128.3760   73.0910 O   0  0  0  0  0  0  0  0  0  0  0  0
  129.4910  126.2760   72.6270 O   0  0  0  0  0  0  0  0  0  0  0  0
  127.9580  127.1980   70.2830 C   0  0  0  0  0  0  0  0  0  0  0  0
  127.6270  127.5100   68.9680 C   0  0  0  0  0  0  0  0  0  0  0  0
  1  2  2  0
  2  3  1  0
  4  3  1  1
  4  5  1  0
  5  6  1  0
  6  7  1  6
  7  8  1  0
  8  9  1  0
  9 10  1  0
 10 11  2  0
 11 12  1  0
 12 13  2  0
 13 14  1  0
 14 15  2  0
  6 16  1  0
 16 17  1  6
 17 18  1  0
 18 19  1  0
 19 20  2  0
 20 21  1  0
 21 22  2  0
 22 23  1  0
 23 24  2  0
 16 25  1  0
 25 26  1  6
 26 27  1  0
 27 28  1  0
 28 29  2  0
 29 30  1  0
 30 31  2  0
 31 32  1  0
 32 33  2  0
  2 34  1  0
 34 35  2  0
 35 36  1  0
 36 37  2  0
 37 38  1  0
 38 39  2  0
 38 40  1  0
 37 41  1  0
 41 42  2  0
 25  4  1  0
 33 28  1  0
 42 34  1  0
 15 10  1  0
 24 19  1  0
M  CHG  2  38   1  40  -1
M  END
>  <Binding energies>  (55) 
[-8.96]

>  <Ligand effiencies>  (55) 
[-0.21333333333333335]

>  <Interactions>  (55) 
["V-A:GLU:543:CD:4903, V-A:ASP:366:CG:3208, V-A:HIS:456:CE1:4064, V-A:ARG:545:CZ:4921, V-A:GLU:543:CB:4901, V-B:HIS:456:CE1:9037, V-B:GLU:543:CD:9876, V-A:TYR:539:C:4862, V-A:PRO:540:CA:4878, V-A:PRO:540:N:4879, V-A:PRO:540:CB:4880, V-A:TYR:539:CZ:4872, V-A:TYR:539:CD2:4869, V-A:TYR:539:CE2:4871, V-A:GLU:543:CG:4902, H-B:LYS:547:NZ:9919, H-B:TYR:484:OH:9315, V-A:LEU:363:CA:3180, V-B:TYR:484:CZ:9314, H-A:LYS:547:NZ:4946, V-A:GLU:543:C:4897, V-A:ALA:541:CB:4887, V-A:ASN:362:CB:3171, V-A:ASN:362:C:3167"]

$$$$
RR8_B_Rahimova_2017
     RDKit          3D

 42 46  0  0  0  0  0  0  0  0999 V2000
  133.9490  124.4590   64.2630 O   0  0  0  0  0  0  0  0  0  0  0  0
  132.8200  124.0650   63.9560 C   0  0  0  0  0  0  0  0  0  0  0  0
  131.6650  124.4880   64.5530 O   0  0  0  0  0  0  0  0  0  0  0  0
  131.6940  125.6940   65.2750 C   0  0  2  0  0  0  0  0  0  0  0  0
  131.5850  125.4790   66.6540 O   0  0  0  0  0  0  0  0  0  0  0  0
  130.2250  125.5200   67.0840 C   0  0  2  0  0  0  0  0  0  0  0  0
  129.8590  124.1870   67.7610 C   0  0  0  0  0  0  0  0  0  0  0  0
  130.1790  124.2630   69.1450 O   0  0  0  0  0  0  0  0  0  0  0  0
  129.9460  123.0690   69.8780 C   0  0  0  0  0  0  0  0  0  0  0  0
  130.4290  123.2580   71.3080 C   0  0  0  0  0  0  0  0  0  0  0  0
  129.9820  124.3540   72.0520 C   0  0  0  0  0  0  0  0  0  0  0  0
  130.4390  124.5470   73.3540 C   0  0  0  0  0  0  0  0  0  0  0  0
  131.3410  123.6400   73.9080 C   0  0  0  0  0  0  0  0  0  0  0  0
  131.7850  122.5420   73.1750 C   0  0  0  0  0  0  0  0  0  0  0  0
  131.3310  122.3510   71.8720 C   0  0  0  0  0  0  0  0  0  0  0  0
  129.4360  125.8520   65.8120 C   0  0  1  0  0  0  0  0  0  0  0  0
  128.3240  126.6920   66.1360 O   0  0  0  0  0  0  0  0  0  0  0  0
  128.6180  127.9720   66.6980 C   0  0  0  0  0  0  0  0  0  0  0  0
  128.7300  127.9230   68.2190 C   0  0  0  0  0  0  0  0  0  0  0  0
  127.7370  127.2950   68.9750 C   0  0  0  0  0  0  0  0  0  0  0  0
  127.8580  127.2230   70.3610 C   0  0  0  0  0  0  0  0  0  0  0  0
  128.9700  127.7840   70.9850 C   0  0  0  0  0  0  0  0  0  0  0  0
  129.9620  128.4160   70.2380 C   0  0  0  0  0  0  0  0  0  0  0  0
  129.8430  128.4850   68.8520 C   0  0  0  0  0  0  0  0  0  0  0  0
  130.4670  126.5320   64.9180 C   0  0  2  0  0  0  0  0  0  0  0  0
  130.0810  126.4330   63.5500 O   0  0  0  0  0  0  0  0  0  0  0  0
  131.1360  126.5340   62.6060 C   0  0  0  0  0  0  0  0  0  0  0  0
  130.8680  125.5450   61.4850 C   0  0  0  0  0  0  0  0  0  0  0  0
  131.7260  125.4760   60.3840 C   0  0  0  0  0  0  0  0  0  0  0  0
  131.4590  124.5790   59.3530 C   0  0  0  0  0  0  0  0  0  0  0  0
  130.3370  123.7560   59.4250 C   0  0  0  0  0  0  0  0  0  0  0  0
  129.4780  123.8190   60.5210 C   0  0  0  0  0  0  0  0  0  0  0  0
  129.7450  124.7150   61.5520 C   0  0  0  0  0  0  0  0  0  0  0  0
  132.5720  123.0290   62.8980 C   0  0  0  0  0  0  0  0  0  0  0  0
  131.4710  122.1620   62.9550 C   0  0  0  0  0  0  0  0  0  0  0  0
  131.2710  121.2060   61.9650 C   0  0  0  0  0  0  0  0  0  0  0  0
  132.1700  121.0840   60.8990 C   0  0  0  0  0  0  0  0  0  0  0  0
  131.9700  120.0460   59.8580 N   0  0  0  0  0  0  0  0  0  0  0  0
  130.9110  119.4240   59.8440 O   0  0  0  0  0  0  0  0  0  0  0  0
  132.8680  119.8490   59.0430 O   0  0  0  0  0  0  0  0  0  0  0  0
  133.2670  121.9540   60.8390 C   0  0  0  0  0  0  0  0  0  0  0  0
  133.4640  122.9160   61.8240 C   0  0  0  0  0  0  0  0  0  0  0  0
  1  2  2  0
  2  3  1  0
  4  3  1  6
  4  5  1  0
  5  6  1  0
  6  7  1  6
  7  8  1  0
  8  9  1  0
  9 10  1  0
 10 11  2  0
 11 12  1  0
 12 13  2  0
 13 14  1  0
 14 15  2  0
  6 16  1  0
 16 17  1  1
 17 18  1  0
 18 19  1  0
 19 20  2  0
 20 21  1  0
 21 22  2  0
 22 23  1  0
 23 24  2  0
 16 25  1  0
 25 26  1  6
 26 27  1  0
 27 28  1  0
 28 29  2  0
 29 30  1  0
 30 31  2  0
 31 32  1  0
 32 33  2  0
  2 34  1  0
 34 35  2  0
 35 36  1  0
 36 37  2  0
 37 38  1  0
 38 39  2  0
 38 40  1  0
 37 41  1  0
 41 42  2  0
 25  4  1  0
 33 28  1  0
 42 34  1  0
 15 10  1  0
 24 19  1  0
M  CHG  2  38   1  40  -1
M  END
>  <Binding energies>  (56) 
[-8.25]

>  <Ligand effiencies>  (56) 
[-0.19642857142857142]

>  <Interactions>  (56) 
["V-A:GLU:543:CD:4903, V-A:ASP:366:CG:3208, V-A:HIS:456:CE1:4064, V-A:GLU:543:CB:4901, V-B:GLU:543:CG:9875, V-B:GLU:543:CB:9874, V-A:ILE:369:CD1:3234, V-B:HIS:456:CE1:9037, V-B:GLU:543:CD:9876, V-B:TYR:539:CE2:9844, V-A:TRP:381:CZ2:3365, V-B:TYR:539:CD2:9842, V-A:TRP:381:CH2:3367, V-A:LEU:475:CD2:4254, V-A:TRP:381:CZ3:3366, V-B:GLU:543:C:9870, H-A:HIS:456:NE2:4065, H-A:TYR:484:OH:4343, V-A:TYR:484:CZ:4342, H-A:GLY:454:N:4045, V-A:HIS:456:CD2:4063, V-B:GLU:543:CA:9872, V-A:TYR:484:CE1:4340, V-A:HIS:456:CG:4061, V-A:HIS:456:CB:4060, V-A:ASP:473:CG:4235, V-A:TYR:484:CD1:4338, V-A:TYR:484:CG:4337, V-A:TYR:484:CB:4336, V-A:TYR:484:CD2:4339, V-A:ASP:473:CB:4234"]

$$$$
RR9_Rahimova_2017
     RDKit          3D

 36 40  0  0  0  0  0  0  0  0999 V2000
  130.3850  128.5610   72.5030 C   0  0  0  0  0  0  0  0  0  0  0  0
  129.1370  129.1650   71.8500 C   0  0  0  0  0  0  0  0  0  0  0  0
  128.5090  128.1660   71.0520 O   0  0  0  0  0  0  0  0  0  0  0  0
  129.1070  127.7640   69.8740 C   0  0  0  0  0  0  0  0  0  0  0  0
  128.6370  126.5800   69.3080 C   0  0  0  0  0  0  0  0  0  0  0  0
  129.1810  126.0960   68.1220 C   0  0  0  0  0  0  0  0  0  0  0  0
  130.2140  126.7840   67.4680 C   0  0  0  0  0  0  0  0  0  0  0  0
  130.8080  126.2640   66.1920 C   0  0  0  0  0  0  0  0  0  0  0  0
  130.2070  126.5100   64.9470 C   0  0  0  0  0  0  0  0  0  0  0  0
  130.7750  126.0310   63.7530 C   0  0  0  0  0  0  0  0  0  0  0  0
  130.1400  126.4140   62.4440 C   0  0  0  0  0  0  0  0  0  0  0  0
  130.5080  127.4240   61.8450 O   0  0  0  0  0  0  0  0  0  0  0  0
  129.1550  125.6020   62.0120 N   0  0  0  0  0  0  0  0  0  0  0  0
  128.3020  125.8330   60.8410 C   0  0  0  0  0  0  0  0  0  0  0  0
  127.6750  124.5340   60.2820 C   0  0  0  0  0  0  0  0  0  0  0  0
  128.5810  123.3090   60.3500 C   0  0  0  0  0  0  0  0  0  0  0  0
  129.2490  122.8660   59.2040 C   0  0  0  0  0  0  0  0  0  0  0  0
  130.1020  121.7680   59.2780 C   0  0  0  0  0  0  0  0  0  0  0  0
  130.2820  121.1150   60.4950 C   0  0  0  0  0  0  0  0  0  0  0  0
  129.6170  121.5480   61.6400 C   0  0  0  0  0  0  0  0  0  0  0  0
  128.7640  122.6470   61.5670 C   0  0  0  0  0  0  0  0  0  0  0  0
  131.9590  125.2650   63.8840 C   0  0  0  0  0  0  0  0  0  0  0  0
  132.8840  124.5420   63.0440 C   0  0  0  0  0  0  0  0  0  0  0  0
  132.8290  124.2850   61.5740 C   0  0  0  0  0  0  0  0  0  0  0  0
  133.4990  123.1870   61.0260 C   0  0  0  0  0  0  0  0  0  0  0  0
  133.4600  122.9580   59.6530 C   0  0  0  0  0  0  0  0  0  0  0  0
  132.7460  123.8240   58.8230 C   0  0  0  0  0  0  0  0  0  0  0  0
  132.7180  123.5860   57.3240 C   0  0  0  0  0  0  0  0  0  0  0  0
  132.0780  124.9220   59.3660 C   0  0  0  0  0  0  0  0  0  0  0  0
  132.1160  125.1480   60.7390 C   0  0  0  0  0  0  0  0  0  0  0  0
  133.8730  124.0550   63.7590 N   0  0  0  0  0  0  0  0  0  0  0  0
  133.6410  124.3580   65.0460 N   0  0  0  0  0  0  0  0  0  0  0  0
  132.4820  125.0850   65.1870 C   0  0  0  0  0  0  0  0  0  0  0  0
  131.9570  125.5440   66.3220 N   0  0  0  0  0  0  0  0  0  0  0  0
  130.6830  127.9720   68.0450 C   0  0  0  0  0  0  0  0  0  0  0  0
  130.1390  128.4600   69.2310 C   0  0  0  0  0  0  0  0  0  0  0  0
  1  2  1  0
  2  3  1  0
  3  4  1  0
  4  5  2  0
  5  6  1  0
  6  7  2  0
  7  8  1  0
  8  9  2  0
  9 10  1  0
 10 11  1  0
 11 12  2  0
 11 13  1  0
 13 14  1  0
 14 15  1  0
 15 16  1  0
 16 17  2  0
 17 18  1  0
 18 19  2  0
 19 20  1  0
 20 21  2  0
 10 22  2  0
 22 23  1  0
 23 24  1  0
 24 25  2  0
 25 26  1  0
 26 27  2  0
 27 28  1  0
 27 29  1  0
 29 30  2  0
 23 31  2  0
 31 32  1  0
 32 33  1  0
 33 34  2  0
  7 35  1  0
 35 36  2  0
 36  4  1  0
 34  8  1  0
 21 16  1  0
 33 22  1  0
 30 24  1  0
M  END
>  <Binding energies>  (57) 
[-8.82]

>  <Ligand effiencies>  (57) 
[-0.23210526315789473]

>  <Interactions>  (57) 
["V-A:GLU:543:CD:4903, V-A:ASP:366:CG:3208, V-B:TYR:539:CZ:9845, V-A:HIS:456:CE1:4064, V-A:GLU:543:CB:4901, V-B:HIS:456:CD2:9035, V-B:GLU:543:CB:9874, V-A:ILE:369:CD1:3234, V-B:GLU:543:CD:9876, V-B:TYR:539:CE2:9844, V-B:ALA:541:CB:9860, V-B:TYR:539:CD2:9842, V-B:GLU:543:C:9870, H-A:HIS:456:NE2:4065, H-A:TYR:484:OH:4343, V-A:GLY:454:CA:4044, H-B:GLU:543:OE2:9878, V-A:TYR:484:CZ:4342, H-A:GLY:454:N:4045, V-A:ASP:366:CB:3207, V-A:LYS:547:CE:4945, V-A:ILE:369:CB:3231, V-A:ILE:369:CG2:3232"]

$$$$
