1a_Grossjean_2025
     RDKit          3D

 26 27  0  0  0  0  0  0  0  0999 V2000
  131.1510  125.5110   73.2350 C   0  0  0  0  0  0  0  0  0  0  0  0
  130.6090  126.9400   73.3230 C   0  0  0  0  0  0  0  0  0  0  0  0
  129.2780  126.9740   72.8220 O   0  0  0  0  0  0  0  0  0  0  0  0
  128.8730  127.9550   71.9740 C   0  0  0  0  0  0  0  0  0  0  0  0
  128.3040  128.9850   72.3490 O   0  0  0  0  0  0  0  0  0  0  0  0
  129.1730  127.6560   70.5340 C   0  0  0  0  0  0  0  0  0  0  0  0
  130.5050  127.6380   70.1020 C   0  0  0  0  0  0  0  0  0  0  0  0
  130.8150  127.3680   68.7720 C   0  0  0  0  0  0  0  0  0  0  0  0
  129.8020  127.1120   67.8470 C   0  0  0  0  0  0  0  0  0  0  0  0
  130.2290  126.8540   66.5300 N   0  0  0  0  0  0  0  0  0  0  0  0
  130.5810  125.6900   65.9440 C   0  0  0  0  0  0  0  0  0  0  0  0
  130.5880  124.5870   66.4910 O   0  0  0  0  0  0  0  0  0  0  0  0
  130.9990  125.7960   64.4760 C   0  0  0  0  0  0  0  0  0  0  0  0
  132.6060  125.0060   64.1620 S   0  0  0  0  0  0  0  0  0  0  0  0
  132.4210  123.9680   62.7290 C   0  0  0  0  0  0  0  0  0  0  0  0
  133.2820  124.2640   61.7240 N   0  0  0  0  0  0  0  0  0  0  0  0
  133.2240  123.5380   60.5830 C   0  0  0  0  0  0  0  0  0  0  0  0
  134.2080  123.9340   59.4980 C   0  0  0  0  0  0  0  0  0  0  0  0
  132.3220  122.4910   60.4020 C   0  0  0  0  0  0  0  0  0  0  0  0
  131.4440  122.1640   61.4410 C   0  0  0  0  0  0  0  0  0  0  0  0
  130.4750  121.0030   61.2260 C   0  0  0  0  0  0  0  0  0  0  0  0
  131.4890  122.9060   62.6440 C   0  0  0  0  0  0  0  0  0  0  0  0
  130.6120  122.5500   63.7630 C   0  0  0  0  0  0  0  0  0  0  0  0
  129.9200  122.2670   64.6450 N   0  0  0  0  0  0  0  0  0  0  0  0
  128.4650  127.1190   68.2730 C   0  0  0  0  0  0  0  0  0  0  0  0
  128.1560  127.3900   69.6030 C   0  0  0  0  0  0  0  0  0  0  0  0
  1  2  1  0
  2  3  1  0
  3  4  1  0
  4  5  2  0
  4  6  1  0
  6  7  2  0
  7  8  1  0
  8  9  2  0
  9 10  1  0
 10 11  1  0
 11 12  2  0
 11 13  1  0
 13 14  1  0
 14 15  1  0
 15 16  2  0
 16 17  1  0
 17 18  1  0
 17 19  2  0
 19 20  1  0
 20 21  1  0
 20 22  2  0
 22 23  1  0
 23 24  3  0
  9 25  1  0
 25 26  2  0
 26  6  1  0
 22 15  1  0
M  END
>  <Binding energies>  (1) 
[-7.61]

>  <Ligand effiencies>  (1) 
[-0.28185185185185185]

>  <Interactions>  (1) 
["H-A:TYR:484:OH:4346, V-A:ASP:366:CG:3211, V-A:ASP:366:CA:3208, V-B:TYR:539:CE2:9848, V-A:ASP:366:CB:3210, V-A:ILE:369:CD1:3237, V-B:ALA:541:CB:9864, V-A:ILE:369:CG2:3235, V-A:LEU:475:CD2:4257, V-A:TYR:484:CZ:4345, V-B:GLU:543:CD:9880, V-B:GLU:543:CB:9878, V-A:TYR:484:CE1:4343, V-A:GLU:543:CD:4906, V-A:HIS:456:CE1:4068, V-A:ARG:545:CG:4920, V-B:GLU:543:CG:9879, V-A:ILE:369:CB:3234, H-A:GLU:543:OE1:4907, H-A:GLU:543:OE2:4908, H-B:GLU:543:OE2:9882, H-A:ARG:545:NE:4922, V-A:HIS:456:CB:4063, V-A:HIS:456:CG:4064, V-A:LYS:547:CE:4948, V-A:HIS:456:CD2:4066, H-A:LYS:547:NZ:4949, V-B:HIS:456:CE1:9042, H-B:LYS:547:NZ:9923, V-B:GLY:544:C:9884, V-A:GLY:544:C:4910, V-A:GLU:543:CG:4905, V-A:GLY:544:CA:4912, V-A:GLU:543:C:4900, V-B:GLU:543:C:9874"]

$$$$
1aa_Ghoteimi_2023
     RDKit          3D

 40 43  0  0  0  0  0  0  0  0999 V2000
  132.1580  125.8760   73.2610 C   0  0  0  0  0  0  0  0  0  0  0  0
  130.9200  126.7530   73.0510 C   0  0  0  0  0  0  0  0  0  0  0  0
  130.5000  126.6640   71.6950 O   0  0  0  0  0  0  0  0  0  0  0  0
  129.1900  126.5140   71.3750 C   0  0  0  0  0  0  0  0  0  0  0  0
  128.3570  126.0100   72.1350 O   0  0  0  0  0  0  0  0  0  0  0  0
  128.8510  127.0220   70.0030 C   0  0  0  0  0  0  0  0  0  0  0  0
  127.5230  127.1840   69.5790 C   0  0  0  0  0  0  0  0  0  0  0  0
  127.2390  127.6580   68.3000 C   0  0  0  0  0  0  0  0  0  0  0  0
  128.2830  127.9810   67.4210 C   0  0  0  0  0  0  0  0  0  0  0  0
  128.1170  128.4660   66.1100 N   0  0  0  0  0  0  0  0  0  0  0  0
  127.0230  128.9690   65.4940 C   0  0  0  0  0  0  0  0  0  0  0  0
  125.9170  129.1000   66.0180 O   0  0  0  0  0  0  0  0  0  0  0  0
  127.1800  129.4110   64.0300 C   0  0  0  0  0  0  0  0  0  0  0  0
  127.0300  128.2900   63.1490 O   0  0  0  0  0  0  0  0  0  0  0  0
  128.0750  127.9000   62.3240 C   0  0  0  0  0  0  0  0  0  0  0  0
  128.4340  126.5870   62.3210 N   0  0  0  0  0  0  0  0  0  0  0  0
  129.4630  126.1690   61.5380 C   0  0  0  0  0  0  0  0  0  0  0  0
  129.7950  124.7050   61.5910 C   0  0  0  0  0  0  0  0  0  0  0  0
  129.1210  123.7820   60.7770 C   0  0  0  0  0  0  0  0  0  0  0  0
  129.4260  122.4250   60.8260 C   0  0  0  0  0  0  0  0  0  0  0  0
  130.4120  121.9480   61.6860 C   0  0  0  0  0  0  0  0  0  0  0  0
  130.6460  120.5860   61.6670 O   0  0  0  0  0  0  0  0  0  0  0  0
  130.2510  119.8300   60.5270 C   0  0  0  0  0  0  0  0  0  0  0  0
  131.0980  122.8580   62.5010 C   0  0  0  0  0  0  0  0  0  0  0  0
  130.7920  124.2150   62.4500 C   0  0  0  0  0  0  0  0  0  0  0  0
  130.1460  127.0730   60.7150 C   0  0  0  0  0  0  0  0  0  0  0  0
  129.7900  128.4280   60.6900 C   0  0  0  0  0  0  0  0  0  0  0  0
  130.5500  129.3390   59.7840 C   0  0  0  0  0  0  0  0  0  0  0  0
  130.3520  129.2810   58.4010 C   0  0  0  0  0  0  0  0  0  0  0  0
  131.0500  130.1340   57.5510 C   0  0  0  0  0  0  0  0  0  0  0  0
  131.9540  131.0630   58.0630 C   0  0  0  0  0  0  0  0  0  0  0  0
  132.6010  131.8670   57.1440 O   0  0  0  0  0  0  0  0  0  0  0  0
  133.9360  131.5520   56.7640 C   0  0  0  0  0  0  0  0  0  0  0  0
  132.1500  131.1300   59.4510 C   0  0  0  0  0  0  0  0  0  0  0  0
  131.4520  130.2760   60.3000 C   0  0  0  0  0  0  0  0  0  0  0  0
  128.7300  128.8530   61.5250 C   0  0  0  0  0  0  0  0  0  0  0  0
  128.3160  130.2550   61.6000 C   0  0  0  0  0  0  0  0  0  0  0  0
  127.9870  131.3630   61.6600 N   0  0  0  0  0  0  0  0  0  0  0  0
  129.6040  127.8180   67.8400 C   0  0  0  0  0  0  0  0  0  0  0  0
  129.8870  127.3440   69.1170 C   0  0  0  0  0  0  0  0  0  0  0  0
  1  2  1  0
  2  3  1  0
  3  4  1  0
  4  5  2  0
  4  6  1  0
  6  7  2  0
  7  8  1  0
  8  9  2  0
  9 10  1  0
 10 11  1  0
 11 12  2  0
 11 13  1  0
 13 14  1  0
 14 15  1  0
 15 16  2  0
 16 17  1  0
 17 18  1  0
 18 19  2  0
 19 20  1  0
 20 21  2  0
 21 22  1  0
 22 23  1  0
 21 24  1  0
 24 25  2  0
 17 26  2  0
 26 27  1  0
 27 28  1  0
 28 29  2  0
 29 30  1  0
 30 31  2  0
 31 32  1  0
 32 33  1  0
 31 34  1  0
 34 35  2  0
 27 36  2  0
 36 37  1  0
 37 38  3  0
  9 39  1  0
 39 40  2  0
 40  6  1  0
 36 15  1  0
 25 18  1  0
 35 28  1  0
M  END
>  <Binding energies>  (2) 
[-6.65]

>  <Ligand effiencies>  (2) 
[-0.16219512195121952]

>  <Interactions>  (2) 
["V-B:TYR:539:CD2:9846, V-B:ALA:541:CB:9864, V-A:LEU:475:CD2:4257, V-A:TRP:381:CH2:3370, V-B:GLU:543:CD:9880, V-A:GLU:543:CD:4906, V-A:HIS:456:CE1:4068, V-B:GLU:543:CG:9879, V-A:TRP:381:CZ2:3368, V-A:PRO:540:CB:4883, V-A:PRO:540:CA:4881, H-A:GLU:543:OE1:4907, H-A:GLU:543:OE2:4908, H-B:GLU:543:OE2:9882, H-B:ARG:545:NH2:9900, V-A:HIS:456:CB:4063, V-A:HIS:456:CG:4064, V-A:LYS:547:CE:4948, V-A:HIS:456:CD2:4066, V-B:HIS:456:CE1:9042, H-B:LYS:547:NZ:9923, V-B:GLY:544:C:9884, V-A:GLY:544:C:4910, V-A:GLU:543:CG:4905, V-B:ARG:545:CG:9894, V-A:GLU:543:C:4900, V-B:GLU:543:C:9874, V-A:PRO:482:CB:4324, V-A:GLU:543:CB:4904, V-B:GLY:544:CA:9886, H-B:TYR:484:OH:9320, H-B:ARG:545:NE:9896, V-A:TYR:531:CZ:4792, V-A:LEU:363:CA:3183, V-A:TYR:531:CE2:4791, V-A:LEU:363:CB:3185, V-A:LEU:363:CD1:3187"]

$$$$
1b_Grossjean_2025
     RDKit          3D

 25 26  0  0  0  0  0  0  0  0999 V2000
  129.1090  125.6210   72.1920 C   0  0  0  0  0  0  0  0  0  0  0  0
  128.6270  126.8790   72.6480 O   0  0  0  0  0  0  0  0  0  0  0  0
  128.7470  127.9920   71.8800 C   0  0  0  0  0  0  0  0  0  0  0  0
  128.5670  129.1360   72.3080 O   0  0  0  0  0  0  0  0  0  0  0  0
  129.1280  127.6940   70.4580 C   0  0  0  0  0  0  0  0  0  0  0  0
  130.4680  127.6300   70.0460 C   0  0  0  0  0  0  0  0  0  0  0  0
  130.7870  127.3530   68.7210 C   0  0  0  0  0  0  0  0  0  0  0  0
  129.7800  127.1340   67.7800 C   0  0  0  0  0  0  0  0  0  0  0  0
  130.2190  126.8640   66.4700 N   0  0  0  0  0  0  0  0  0  0  0  0
  130.6320  125.7050   65.9110 C   0  0  0  0  0  0  0  0  0  0  0  0
  130.6930  124.6180   66.4840 O   0  0  0  0  0  0  0  0  0  0  0  0
  131.0360  125.7950   64.4390 C   0  0  0  0  0  0  0  0  0  0  0  0
  132.6540  125.0290   64.1240 S   0  0  0  0  0  0  0  0  0  0  0  0
  132.4720  123.9650   62.7090 C   0  0  0  0  0  0  0  0  0  0  0  0
  133.2770  124.2960   61.6690 N   0  0  0  0  0  0  0  0  0  0  0  0
  133.2200  123.5510   60.5400 C   0  0  0  0  0  0  0  0  0  0  0  0
  134.1600  123.9700   59.4250 C   0  0  0  0  0  0  0  0  0  0  0  0
  132.3600  122.4630   60.4000 C   0  0  0  0  0  0  0  0  0  0  0  0
  131.5110  122.1280   61.4580 C   0  0  0  0  0  0  0  0  0  0  0  0
  130.5650  120.9420   61.2750 C   0  0  0  0  0  0  0  0  0  0  0  0
  131.5520  122.8920   62.6470 C   0  0  0  0  0  0  0  0  0  0  0  0
  130.6400  122.5870   63.7520 C   0  0  0  0  0  0  0  0  0  0  0  0
  129.9190  122.3430   64.6230 N   0  0  0  0  0  0  0  0  0  0  0  0
  128.4380  127.1970   68.1840 C   0  0  0  0  0  0  0  0  0  0  0  0
  128.1200  127.4730   69.5100 C   0  0  0  0  0  0  0  0  0  0  0  0
  1  2  1  0
  2  3  1  0
  3  4  2  0
  3  5  1  0
  5  6  2  0
  6  7  1  0
  7  8  2  0
  8  9  1  0
  9 10  1  0
 10 11  2  0
 10 12  1  0
 12 13  1  0
 13 14  1  0
 14 15  2  0
 15 16  1  0
 16 17  1  0
 16 18  2  0
 18 19  1  0
 19 20  1  0
 19 21  2  0
 21 22  1  0
 22 23  3  0
  8 24  1  0
 24 25  2  0
 25  5  1  0
 21 14  1  0
M  END
>  <Binding energies>  (3) 
[-7.62]

>  <Ligand effiencies>  (3) 
[-0.29307692307692307]

>  <Interactions>  (3) 
["H-A:TYR:484:OH:4346, V-A:ASP:366:CG:3211, V-A:ASP:366:CA:3208, V-B:TYR:539:CE2:9848, V-A:ASP:366:CB:3210, V-A:ILE:369:CD1:3237, V-B:ALA:541:CB:9864, V-A:ILE:369:CG2:3235, V-A:LEU:475:CD2:4257, V-A:TYR:484:CZ:4345, V-B:GLU:543:CD:9880, H-A:ARG:545:NH2:4926, V-B:GLU:543:CB:9878, V-A:TYR:484:CE1:4343, V-A:GLU:543:CD:4906, V-A:HIS:456:CE1:4068, V-A:ARG:545:CG:4920, V-B:GLU:543:CG:9879, V-A:ILE:369:CB:3234, H-A:GLU:543:OE1:4907, H-A:GLU:543:OE2:4908, H-B:GLU:543:OE2:9882, H-A:ARG:545:NE:4922, V-B:HIS:456:CD2:9040, V-A:HIS:456:CD2:4066, H-A:LYS:547:NZ:4949, V-B:HIS:456:CE1:9042, V-B:LYS:547:CE:9922, H-B:LYS:547:NZ:9923, V-B:GLY:544:C:9884, V-A:GLY:544:C:4910, V-A:GLU:543:CG:4905, V-A:GLY:544:CA:4912, V-A:GLU:543:C:4900, V-B:GLU:543:C:9874, V-B:GLY:544:CA:9886"]

$$$$
1c_Grossjean_2025
     RDKit          3D

 23 24  0  0  0  0  0  0  0  0999 V2000
  127.2010  128.5080   73.7600 C   0  0  0  0  0  0  0  0  0  0  0  0
  128.5170  128.3700   73.2350 O   0  0  0  0  0  0  0  0  0  0  0  0
  128.6800  127.9340   71.9340 C   0  0  0  0  0  0  0  0  0  0  0  0
  129.9800  127.6110   71.5440 C   0  0  0  0  0  0  0  0  0  0  0  0
  130.2460  127.1610   70.2540 C   0  0  0  0  0  0  0  0  0  0  0  0
  129.1990  127.0230   69.3310 C   0  0  0  0  0  0  0  0  0  0  0  0
  129.3560  126.5880   68.0000 N   0  0  0  0  0  0  0  0  0  0  0  0
  130.3360  126.8730   67.1160 C   0  0  0  0  0  0  0  0  0  0  0  0
  131.3170  127.5820   67.3400 O   0  0  0  0  0  0  0  0  0  0  0  0
  130.1790  126.2330   65.7350 C   0  0  0  0  0  0  0  0  0  0  0  0
  130.6170  124.4690   65.7520 S   0  0  0  0  0  0  0  0  0  0  0  0
  131.2500  124.0310   64.1460 C   0  0  0  0  0  0  0  0  0  0  0  0
  130.3480  123.3770   63.3700 N   0  0  0  0  0  0  0  0  0  0  0  0
  130.7170  122.9930   62.1260 C   0  0  0  0  0  0  0  0  0  0  0  0
  129.6530  122.2770   61.3150 C   0  0  0  0  0  0  0  0  0  0  0  0
  131.9890  123.2320   61.6110 C   0  0  0  0  0  0  0  0  0  0  0  0
  132.9340  123.8830   62.4100 C   0  0  0  0  0  0  0  0  0  0  0  0
  134.3270  124.1180   61.8300 C   0  0  0  0  0  0  0  0  0  0  0  0
  132.5720  124.2920   63.7150 C   0  0  0  0  0  0  0  0  0  0  0  0
  133.5650  124.9270   64.5860 C   0  0  0  0  0  0  0  0  0  0  0  0
  134.3490  125.4280   65.2730 N   0  0  0  0  0  0  0  0  0  0  0  0
  127.8980  127.3570   69.7130 C   0  0  0  0  0  0  0  0  0  0  0  0
  127.6370  127.8060   71.0040 C   0  0  0  0  0  0  0  0  0  0  0  0
  1  2  1  0
  2  3  1  0
  3  4  2  0
  4  5  1  0
  5  6  2  0
  6  7  1  0
  7  8  1  0
  8  9  2  0
  8 10  1  0
 10 11  1  0
 11 12  1  0
 12 13  2  0
 13 14  1  0
 14 15  1  0
 14 16  2  0
 16 17  1  0
 17 18  1  0
 17 19  2  0
 19 20  1  0
 20 21  3  0
  6 22  1  0
 22 23  2  0
 23  3  1  0
 19 12  1  0
M  END
>  <Binding energies>  (4) 
[-7.03]

>  <Ligand effiencies>  (4) 
[-0.29291666666666666]

>  <Interactions>  (4) 
["H-A:TYR:484:OH:4346, H-A:GLY:454:N:4048, V-A:GLY:454:CA:4047, V-A:ILE:369:CD1:3237, V-B:ALA:541:CB:9864, H-A:ARG:545:NH1:4925, V-A:GLY:453:C:4040, V-A:ARG:545:CZ:4924, V-A:TYR:484:CZ:4345, V-B:GLU:543:CD:9880, V-B:GLU:543:CB:9878, V-A:ARG:545:CD:4921, V-A:GLY:453:CA:4042, V-A:GLU:543:CD:4906, V-A:HIS:456:CE1:4068, V-B:GLU:543:CG:9879, H-B:GLU:543:OE2:9882, H-A:ARG:545:NE:4922, V-B:HIS:456:CD2:9040, V-A:HIS:456:CD2:4066, H-A:LYS:547:NZ:4949, V-B:HIS:456:CE1:9042, V-B:LYS:547:CE:9922, V-B:HIS:456:CG:9038, V-B:GLY:544:C:9884, V-A:GLY:544:C:4910, V-A:GLU:543:CG:4905, V-A:GLY:544:CA:4912, V-B:GLU:543:C:9874, H-A:HIS:456:NE2:4069, H-B:GLU:543:O:9875"]

$$$$
1d_Grossjean_2025
     RDKit          3D

 21 22  0  0  0  0  0  0  0  0999 V2000
  129.9550  122.2060   73.5610 C   0  0  0  0  0  0  0  0  0  0  0  0
  130.9560  123.2950   73.8950 C   0  0  0  0  0  0  0  0  0  0  0  0
  132.1550  123.0100   74.5440 C   0  0  0  0  0  0  0  0  0  0  0  0
  133.0450  124.0540   74.8180 C   0  0  0  0  0  0  0  0  0  0  0  0
  134.3610  123.7140   75.5160 C   0  0  0  0  0  0  0  0  0  0  0  0
  132.7030  125.3720   74.4380 C   0  0  0  0  0  0  0  0  0  0  0  0
  133.6400  126.4730   74.6710 C   0  0  0  0  0  0  0  0  0  0  0  0
  134.3820  127.3410   74.8570 N   0  0  0  0  0  0  0  0  0  0  0  0
  131.4530  125.5720   73.8050 C   0  0  0  0  0  0  0  0  0  0  0  0
  130.8620  127.1600   73.2620 S   0  0  0  0  0  0  0  0  0  0  0  0
  129.0450  127.0850   73.2420 C   0  0  0  0  0  0  0  0  0  0  0  0
  128.4670  127.4790   71.8810 C   0  0  0  0  0  0  0  0  0  0  0  0
  127.3850  128.0630   71.8350 O   0  0  0  0  0  0  0  0  0  0  0  0
  129.2330  127.1610   70.8150 N   0  0  0  0  0  0  0  0  0  0  0  0
  128.9940  127.3610   69.4420 C   0  0  0  0  0  0  0  0  0  0  0  0
  130.1270  127.3530   68.6230 C   0  0  0  0  0  0  0  0  0  0  0  0
  130.0020  127.5370   67.2490 C   0  0  0  0  0  0  0  0  0  0  0  0
  128.7410  127.7220   66.6890 C   0  0  0  0  0  0  0  0  0  0  0  0
  127.6030  127.7230   67.4920 C   0  0  0  0  0  0  0  0  0  0  0  0
  127.7250  127.5410   68.8670 C   0  0  0  0  0  0  0  0  0  0  0  0
  130.6060  124.5490   73.5250 N   0  0  0  0  0  0  0  0  0  0  0  0
  1  2  1  0
  2  3  2  0
  3  4  1  0
  4  5  1  0
  4  6  2  0
  6  7  1  0
  7  8  3  0
  6  9  1  0
  9 10  1  0
 10 11  1  0
 11 12  1  0
 12 13  2  0
 12 14  1  0
 14 15  1  0
 15 16  2  0
 16 17  1  0
 17 18  2  0
 18 19  1  0
 19 20  2  0
  9 21  2  0
 21  2  1  0
 20 15  1  0
M  END
>  <Binding energies>  (5) 
[-7.17]

>  <Ligand effiencies>  (5) 
[-0.3259090909090909]

>  <Interactions>  (5) 
["V-B:GLU:543:CD:9880, V-A:GLU:543:CD:4906, V-A:HIS:456:CE1:4068, V-B:GLU:543:CG:9879, V-A:HIS:456:CB:4063, V-A:ASP:473:CG:4238, V-A:HIS:456:CG:4064, V-A:LYS:547:CE:4948, V-A:HIS:456:CD2:4066, H-A:LYS:547:NZ:4949, V-A:VAL:458:CG2:4085, V-B:HIS:456:CE1:9042, V-A:LYS:471:CE:4218, V-B:LYS:547:CE:9922, H-B:LYS:547:NZ:9923, V-A:HIS:456:C:4059, V-B:GLY:544:C:9884, V-A:LYS:471:CD:4217, V-A:LYS:471:CG:4216, V-A:GLU:543:CG:4905, V-B:ARG:545:CG:9894, V-A:GLU:543:C:4900, V-B:GLU:543:C:9874, H-A:GLY:544:O:4911, H-A:HIS:456:NE2:4069, V-A:LYS:547:CD:4947, V-A:LYS:547:CG:4946, H-B:GLU:543:O:9875"]

$$$$
1e_Grossjean_2025
     RDKit          3D

 22 23  0  0  0  0  0  0  0  0999 V2000
  134.4740  125.0940   66.5320 C   0  0  0  0  0  0  0  0  0  0  0  0
  133.4250  125.1810   65.4390 C   0  0  0  0  0  0  0  0  0  0  0  0
  132.0930  125.4900   65.7270 C   0  0  0  0  0  0  0  0  0  0  0  0
  131.1830  125.5500   64.6710 C   0  0  0  0  0  0  0  0  0  0  0  0
  131.6200  125.3020   63.3680 C   0  0  0  0  0  0  0  0  0  0  0  0
  132.9700  125.0030   63.1490 C   0  0  0  0  0  0  0  0  0  0  0  0
  133.3470  124.7510   61.8180 N   0  0  0  0  0  0  0  0  0  0  0  0
  133.8620  123.6190   61.2900 C   0  0  0  0  0  0  0  0  0  0  0  0
  134.1010  122.5890   61.9230 O   0  0  0  0  0  0  0  0  0  0  0  0
  134.1860  123.6690   59.7950 C   0  0  0  0  0  0  0  0  0  0  0  0
  132.6860  123.8130   58.7780 S   0  0  0  0  0  0  0  0  0  0  0  0
  131.3510  122.9740   59.6090 C   0  0  0  0  0  0  0  0  0  0  0  0
  130.2550  123.7540   59.7910 N   0  0  0  0  0  0  0  0  0  0  0  0
  129.1750  123.2260   60.4140 C   0  0  0  0  0  0  0  0  0  0  0  0
  127.9860  124.1540   60.5740 C   0  0  0  0  0  0  0  0  0  0  0  0
  129.1470  121.9170   60.8890 C   0  0  0  0  0  0  0  0  0  0  0  0
  130.2800  121.1120   60.7290 C   0  0  0  0  0  0  0  0  0  0  0  0
  130.2300  119.6860   61.2740 C   0  0  0  0  0  0  0  0  0  0  0  0
  131.4200  121.6430   60.0840 C   0  0  0  0  0  0  0  0  0  0  0  0
  132.6350  120.8330   59.9610 C   0  0  0  0  0  0  0  0  0  0  0  0
  133.5930  120.1910   59.8650 N   0  0  0  0  0  0  0  0  0  0  0  0
  133.8640  124.9380   64.1780 N   0  0  0  0  0  0  0  0  0  0  0  0
  1  2  1  0
  2  3  2  0
  3  4  1  0
  4  5  2  0
  5  6  1  0
  6  7  1  0
  7  8  1  0
  8  9  2  0
  8 10  1  0
 10 11  1  0
 11 12  1  0
 12 13  2  0
 13 14  1  0
 14 15  1  0
 14 16  2  0
 16 17  1  0
 17 18  1  0
 17 19  2  0
 19 20  1  0
 20 21  3  0
  6 22  2  0
 22  2  1  0
 19 12  1  0
M  END
>  <Binding energies>  (6) 
[-7.41]

>  <Ligand effiencies>  (6) 
[-0.32217391304347825]

>  <Interactions>  (6) 
["H-A:TYR:484:OH:4346, V-A:ASP:366:CG:3211, H-A:GLY:454:N:4048, V-B:TYR:539:CE2:9848, V-B:TYR:539:CD2:9846, V-A:ILE:369:CD1:3237, V-B:ALA:541:CB:9864, V-A:ILE:369:CG2:3235, V-A:LEU:475:CD2:4257, H-A:ASP:366:OD1:3212, H-A:ARG:545:NH1:4925, V-A:TRP:381:CH2:3370, V-A:ARG:545:CZ:4924, V-B:GLU:543:CD:9880, V-B:ALA:541:CA:9862, V-A:ARG:545:CD:4921, V-A:HIS:456:CE1:4068, V-A:ARG:545:CG:4920, V-A:ILE:369:CB:3234, H-A:ARG:545:NE:4922, H-B:TYR:539:OH:9850, V-A:ARG:545:CB:4919, V-A:ILE:455:C:4050, V-A:PRO:482:CG:4325, V-A:PRO:482:CB:4324, H-A:ASP:366:OD2:3213"]

$$$$
1f_Grossjean_2025
     RDKit          3D

 21 22  0  0  0  0  0  0  0  0999 V2000
  134.2950  123.9180   59.5470 C   0  0  0  0  0  0  0  0  0  0  0  0
  133.3340  123.4800   60.6370 C   0  0  0  0  0  0  0  0  0  0  0  0
  132.4550  122.4170   60.4510 C   0  0  0  0  0  0  0  0  0  0  0  0
  131.5840  122.0660   61.4880 C   0  0  0  0  0  0  0  0  0  0  0  0
  130.6160  120.9090   61.2530 C   0  0  0  0  0  0  0  0  0  0  0  0
  131.6230  122.7930   62.7000 C   0  0  0  0  0  0  0  0  0  0  0  0
  130.6810  122.4770   63.7760 C   0  0  0  0  0  0  0  0  0  0  0  0
  129.9360  122.2260   64.6250 N   0  0  0  0  0  0  0  0  0  0  0  0
  132.5680  123.8400   62.8110 C   0  0  0  0  0  0  0  0  0  0  0  0
  132.7640  124.8620   64.2570 S   0  0  0  0  0  0  0  0  0  0  0  0
  131.2130  125.7870   64.5230 C   0  0  0  0  0  0  0  0  0  0  0  0
  130.6090  125.6470   65.9280 C   0  0  0  0  0  0  0  0  0  0  0  0
  130.5760  124.5500   66.4870 O   0  0  0  0  0  0  0  0  0  0  0  0
  130.1180  126.7940   66.4450 N   0  0  0  0  0  0  0  0  0  0  0  0
  129.5100  127.0290   67.6930 C   0  0  0  0  0  0  0  0  0  0  0  0
  130.1860  127.1780   68.9190 C   0  0  0  0  0  0  0  0  0  0  0  0
  129.4540  127.4120   70.0870 C   0  0  0  0  0  0  0  0  0  0  0  0
  128.0650  127.4960   70.0000 C   0  0  0  0  0  0  0  0  0  0  0  0
  127.3910  127.3610   68.8310 N   0  0  0  0  0  0  0  0  0  0  0  0
  128.1150  127.1340   67.7040 C   0  0  0  0  0  0  0  0  0  0  0  0
  133.3920  124.1870   61.7900 N   0  0  0  0  0  0  0  0  0  0  0  0
  1  2  1  0
  2  3  2  0
  3  4  1  0
  4  5  1  0
  4  6  2  0
  6  7  1  0
  7  8  3  0
  6  9  1  0
  9 10  1  0
 10 11  1  0
 11 12  1  0
 12 13  2  0
 12 14  1  0
 14 15  1  0
 15 16  2  0
 16 17  1  0
 17 18  2  0
 18 19  1  0
 19 20  2  0
  9 21  2  0
 21  2  1  0
 20 15  1  0
M  END
>  <Binding energies>  (7) 
[-6.84]

>  <Ligand effiencies>  (7) 
[-0.3109090909090909]

>  <Interactions>  (7) 
["H-A:TYR:484:OH:4346, V-A:ASP:366:CG:3211, H-A:GLY:454:N:4048, V-A:ASP:366:CA:3208, V-B:TYR:539:CE2:9848, V-A:ASP:366:CB:3210, V-A:ILE:369:CD1:3237, V-B:ALA:541:CB:9864, V-A:ILE:369:CG2:3235, V-A:LEU:475:CD2:4257, V-A:ARG:545:CZ:4924, V-A:TYR:484:CZ:4345, V-B:GLU:543:CD:9880, V-B:GLU:543:CB:9878, V-A:TYR:484:CE1:4343, V-A:GLU:543:CD:4906, V-A:HIS:456:CE1:4068, V-B:GLU:543:CG:9879, V-A:ILE:369:CB:3234, H-A:GLU:543:OE1:4907, H-A:GLU:543:OE2:4908, H-B:GLU:543:OE2:9882, H-A:ARG:545:NE:4922, V-B:HIS:456:CE1:9042, V-B:GLY:544:C:9884, V-A:GLU:543:CG:4905, V-B:GLU:543:C:9874"]

$$$$
1g_Grossjean_2025
     RDKit          3D

 22 23  0  0  0  0  0  0  0  0999 V2000
  134.1770  121.7200   61.9530 C   0  0  0  0  0  0  0  0  0  0  0  0
  133.2650  122.9330   61.9910 C   0  0  0  0  0  0  0  0  0  0  0  0
  132.5230  123.3230   60.8780 C   0  0  0  0  0  0  0  0  0  0  0  0
  131.7120  124.4590   60.9670 C   0  0  0  0  0  0  0  0  0  0  0  0
  130.9190  124.8760   59.7290 C   0  0  0  0  0  0  0  0  0  0  0  0
  131.6580  125.1770   62.1820 C   0  0  0  0  0  0  0  0  0  0  0  0
  130.8560  126.3990   62.2830 C   0  0  0  0  0  0  0  0  0  0  0  0
  130.2230  127.3650   62.3590 N   0  0  0  0  0  0  0  0  0  0  0  0
  132.4250  124.6940   63.2680 C   0  0  0  0  0  0  0  0  0  0  0  0
  132.4670  125.4670   64.8700 S   0  0  0  0  0  0  0  0  0  0  0  0
  130.7590  125.5210   65.4890 C   0  0  0  0  0  0  0  0  0  0  0  0
  130.5590  126.6300   66.5220 C   0  0  0  0  0  0  0  0  0  0  0  0
  131.5350  127.1820   67.0320 O   0  0  0  0  0  0  0  0  0  0  0  0
  129.2860  126.9390   66.8250 N   0  0  0  0  0  0  0  0  0  0  0  0
  128.8650  128.0010   67.7380 C   0  0  0  0  0  0  0  0  0  0  0  0
  129.0400  127.6640   69.2160 C   0  0  0  0  0  0  0  0  0  0  0  0
  127.9300  127.6630   70.0680 C   0  0  0  0  0  0  0  0  0  0  0  0
  128.0890  127.3550   71.4160 C   0  0  0  0  0  0  0  0  0  0  0  0
  129.3560  127.0440   71.9080 C   0  0  0  0  0  0  0  0  0  0  0  0
  130.4640  127.0390   71.0640 C   0  0  0  0  0  0  0  0  0  0  0  0
  130.3060  127.3480   69.7160 C   0  0  0  0  0  0  0  0  0  0  0  0
  133.2270  123.6040   63.1660 N   0  0  0  0  0  0  0  0  0  0  0  0
  1  2  1  0
  2  3  2  0
  3  4  1  0
  4  5  1  0
  4  6  2  0
  6  7  1  0
  7  8  3  0
  6  9  1  0
  9 10  1  0
 10 11  1  0
 11 12  1  0
 12 13  2  0
 12 14  1  0
 14 15  1  0
 15 16  1  0
 16 17  2  0
 17 18  1  0
 18 19  2  0
 19 20  1  0
 20 21  2  0
  9 22  2  0
 22  2  1  0
 21 16  1  0
M  END
>  <Binding energies>  (8) 
[-6.67]

>  <Ligand effiencies>  (8) 
[-0.29]

>  <Interactions>  (8) 
["H-B:GLU:543:OE1:9881, H-A:TYR:484:OH:4346, H-A:GLY:454:N:4048, V-A:GLY:454:CA:4047, V-A:ILE:369:CD1:3237, V-A:LEU:475:CD2:4257, V-A:ARG:545:CZ:4924, V-B:GLU:543:CD:9880, H-A:ARG:545:NH2:4926, V-B:GLU:543:CB:9878, V-A:GLU:543:CD:4906, V-A:HIS:456:CE1:4068, V-B:GLU:543:CG:9879, H-A:GLU:543:OE2:4908, H-B:GLU:543:OE2:9882, H-A:ARG:545:NE:4922, V-B:HIS:456:CD2:9040, V-A:HIS:456:CD2:4066, V-B:HIS:456:CE1:9042, V-B:GLY:544:C:9884, V-A:GLY:544:C:4910, V-A:GLU:543:CG:4905, V-A:GLU:543:C:4900, V-A:GLU:543:CB:4904, V-B:GLY:544:CA:9886, H-B:GLU:543:O:9875"]

$$$$
1h_Grossjean_2025
     RDKit          3D

 28 29  0  0  0  0  0  0  0  0999 V2000
  133.2840  125.1280   65.4650 C   0  0  0  0  0  0  0  0  0  0  0  0
  133.5900  124.6480   64.1610 O   0  0  0  0  0  0  0  0  0  0  0  0
  132.7180  124.9080   63.1190 C   0  0  0  0  0  0  0  0  0  0  0  0
  131.6330  125.7940   63.2090 C   0  0  0  0  0  0  0  0  0  0  0  0
  130.7840  125.9980   62.1200 C   0  0  0  0  0  0  0  0  0  0  0  0
  129.6220  126.9820   62.2240 C   0  0  0  0  0  0  0  0  0  0  0  0
  128.3170  126.3930   61.9270 N   0  0  0  0  0  0  0  0  0  0  0  0
  127.4550  126.8410   60.9970 C   0  0  0  0  0  0  0  0  0  0  0  0
  127.6840  127.7990   60.2590 O   0  0  0  0  0  0  0  0  0  0  0  0
  126.1250  126.0960   60.8840 C   0  0  0  0  0  0  0  0  0  0  0  0
  126.2480  124.3870   61.4950 S   0  0  0  0  0  0  0  0  0  0  0  0
  127.5210  123.5560   60.5590 C   0  0  0  0  0  0  0  0  0  0  0  0
  128.4590  122.9010   61.2920 N   0  0  0  0  0  0  0  0  0  0  0  0
  129.4510  122.2450   60.6460 C   0  0  0  0  0  0  0  0  0  0  0  0
  130.4570  121.5350   61.5320 C   0  0  0  0  0  0  0  0  0  0  0  0
  129.5530  122.2160   59.2570 C   0  0  0  0  0  0  0  0  0  0  0  0
  128.5950  122.8880   58.4910 C   0  0  0  0  0  0  0  0  0  0  0  0
  128.7240  122.8420   56.9700 C   0  0  0  0  0  0  0  0  0  0  0  0
  127.5500  123.5790   59.1460 C   0  0  0  0  0  0  0  0  0  0  0  0
  126.5330  124.2940   58.3690 C   0  0  0  0  0  0  0  0  0  0  0  0
  125.7310  124.8600   57.7550 N   0  0  0  0  0  0  0  0  0  0  0  0
  131.0390  125.3410   60.9160 C   0  0  0  0  0  0  0  0  0  0  0  0
  132.1200  124.4530   60.7960 C   0  0  0  0  0  0  0  0  0  0  0  0
  132.4310  123.7670   59.6360 O   0  0  0  0  0  0  0  0  0  0  0  0
  132.8170  124.4940   58.4750 C   0  0  0  0  0  0  0  0  0  0  0  0
  132.9460  124.2370   61.9090 C   0  0  0  0  0  0  0  0  0  0  0  0
  134.0110  123.3760   61.8040 O   0  0  0  0  0  0  0  0  0  0  0  0
  133.6480  122.0030   61.8160 C   0  0  0  0  0  0  0  0  0  0  0  0
  1  2  1  0
  2  3  1  0
  3  4  2  0
  4  5  1  0
  5  6  1  0
  6  7  1  0
  7  8  1  0
  8  9  2  0
  8 10  1  0
 10 11  1  0
 11 12  1  0
 12 13  2  0
 13 14  1  0
 14 15  1  0
 14 16  2  0
 16 17  1  0
 17 18  1  0
 17 19  2  0
 19 20  1  0
 20 21  3  0
  5 22  2  0
 22 23  1  0
 23 24  1  0
 24 25  1  0
 23 26  2  0
 26 27  1  0
 27 28  1  0
 26  3  1  0
 19 12  1  0
M  END
>  <Binding energies>  (9) 
[-5.35]

>  <Ligand effiencies>  (9) 
[-0.18448275862068964]

>  <Interactions>  (9) 
["H-B:GLU:543:OE1:9881, H-A:TYR:484:OH:4346, V-A:ASP:366:CG:3211, V-B:TYR:539:CZ:9849, H-A:GLY:454:N:4048, V-B:TYR:539:CE2:9848, V-B:TYR:539:CD2:9846, V-A:ASP:366:CB:3210, V-A:GLY:454:CA:4047, V-A:ILE:369:CD1:3237, V-B:ALA:541:CB:9864, V-A:LEU:475:CD2:4257, V-B:PRO:540:CA:9855, V-B:TYR:539:C:9839, V-B:TYR:539:CG:9844, V-B:TYR:539:CA:9841, V-B:TYR:539:CE1:9847, V-B:TYR:539:CD1:9845, V-A:ARG:545:CZ:4924, V-A:TYR:484:CZ:4345, V-B:GLU:543:CD:9880, V-A:ARG:545:CD:4921, V-A:GLU:543:CD:4906, V-A:HIS:456:CE1:4068, V-A:ARG:545:CG:4920, H-B:ALA:541:N:9863, H-B:GLU:543:OE2:9882, H-A:ARG:545:NE:4922, H-B:ARG:545:NH2:9900, V-B:ASP:366:CG:8185, H-B:TYR:531:OH:9767"]

$$$$
1i_Grossjean_2025
     RDKit          3D

 20 21  0  0  0  0  0  0  0  0999 V2000
  129.9840  121.9220   73.8120 C   0  0  0  0  0  0  0  0  0  0  0  0
  130.9540  123.0730   74.0000 C   0  0  0  0  0  0  0  0  0  0  0  0
  132.1610  122.9070   74.6760 C   0  0  0  0  0  0  0  0  0  0  0  0
  133.0210  124.0030   74.8100 C   0  0  0  0  0  0  0  0  0  0  0  0
  134.3460  123.7920   75.5410 C   0  0  0  0  0  0  0  0  0  0  0  0
  132.6420  125.2500   74.2630 C   0  0  0  0  0  0  0  0  0  0  0  0
  133.5500  126.3970   74.3480 C   0  0  0  0  0  0  0  0  0  0  0  0
  134.2690  127.3010   74.4160 N   0  0  0  0  0  0  0  0  0  0  0  0
  131.3870  125.3320   73.6140 C   0  0  0  0  0  0  0  0  0  0  0  0
  130.7530  126.8190   72.8710 S   0  0  0  0  0  0  0  0  0  0  0  0
  130.7920  126.5930   71.0680 C   0  0  0  0  0  0  0  0  0  0  0  0
  129.6380  127.3190   70.3720 C   0  0  0  0  0  0  0  0  0  0  0  0
  129.0480  128.2220   70.9660 O   0  0  0  0  0  0  0  0  0  0  0  0
  129.3560  126.8970   69.1200 N   0  0  0  0  0  0  0  0  0  0  0  0
  128.3650  127.3760   68.2750 C   0  0  0  0  0  0  0  0  0  0  0  0
  128.6110  128.3030   67.2630 C   0  0  0  0  0  0  0  0  0  0  0  0
  127.3890  128.5140   66.6660 C   0  0  0  0  0  0  0  0  0  0  0  0
  126.4560  127.7550   67.2870 O   0  0  0  0  0  0  0  0  0  0  0  0
  127.0860  127.0390   68.3060 N   0  0  0  0  0  0  0  0  0  0  0  0
  130.5700  124.2590   73.4720 N   0  0  0  0  0  0  0  0  0  0  0  0
  1  2  1  0
  2  3  2  0
  3  4  1  0
  4  5  1  0
  4  6  2  0
  6  7  1  0
  7  8  3  0
  6  9  1  0
  9 10  1  0
 10 11  1  0
 11 12  1  0
 12 13  2  0
 12 14  1  0
 14 15  1  0
 15 16  1  0
 16 17  2  0
 17 18  1  0
 18 19  1  0
  9 20  2  0
 20  2  1  0
 19 15  2  0
M  END
>  <Binding energies>  (10) 
[-7.26]

>  <Ligand effiencies>  (10) 
[-0.3457142857142857]

>  <Interactions>  (10) 
["V-B:GLU:543:CD:9880, V-A:GLU:543:CD:4906, V-A:HIS:456:CE1:4068, V-B:GLU:543:CG:9879, V-A:HIS:456:CB:4063, V-A:ASP:473:CG:4238, V-A:HIS:456:CG:4064, V-A:HIS:456:CD2:4066, V-A:VAL:458:CG2:4085, V-B:HIS:456:CE1:9042, V-A:LYS:471:CE:4218, H-B:LYS:547:NZ:9923, V-A:HIS:456:C:4059, V-A:LYS:471:CD:4217, V-A:GLY:544:C:4910, V-A:LYS:471:CG:4216, V-A:GLU:543:CG:4905, V-B:GLU:543:C:9874, H-B:ARG:545:N:9892, V-A:GLU:543:CB:4904, H-A:HIS:456:NE2:4069, H-B:ARG:545:NE:9896, V-A:LYS:547:CD:4947, V-A:LYS:547:CG:4946, H-B:GLU:543:O:9875"]

$$$$
1k_Grossjean_2025
     RDKit          3D

 25 25  0  0  0  0  0  0  0  0999 V2000
  130.2790  126.6460   71.6150 C   0  0  0  0  0  0  0  0  0  0  0  0
  129.0020  127.1380   71.9870 O   0  0  0  0  0  0  0  0  0  0  0  0
  128.2450  127.6360   70.8910 C   0  0  0  0  0  0  0  0  0  0  0  0
  129.0070  127.3800   69.5840 C   0  0  0  0  0  0  0  0  0  0  0  0
  128.0900  127.3590   68.4980 O   0  0  0  0  0  0  0  0  0  0  0  0
  128.6960  127.5900   67.2330 C   0  0  0  0  0  0  0  0  0  0  0  0
  130.1520  127.1110   67.2710 C   0  0  0  0  0  0  0  0  0  0  0  0
  130.2780  125.9140   66.5140 O   0  0  0  0  0  0  0  0  0  0  0  0
  131.4190  125.8900   65.6670 C   0  0  0  0  0  0  0  0  0  0  0  0
  130.9720  125.6990   64.2050 C   0  0  0  0  0  0  0  0  0  0  0  0
  131.4300  124.4460   63.6020 N   0  0  0  0  0  0  0  0  0  0  0  0
  132.6860  123.9710   63.6620 C   0  0  0  0  0  0  0  0  0  0  0  0
  133.5990  124.5540   64.2490 O   0  0  0  0  0  0  0  0  0  0  0  0
  132.9240  122.6360   62.9370 C   0  0  0  0  0  0  0  0  0  0  0  0
  133.2740  122.7590   61.1490 S   0  0  0  0  0  0  0  0  0  0  0  0
  131.8140  123.3530   60.3050 C   0  0  0  0  0  0  0  0  0  0  0  0
  130.6550  123.2890   61.0090 N   0  0  0  0  0  0  0  0  0  0  0  0
  129.5110  123.7130   60.4260 C   0  0  0  0  0  0  0  0  0  0  0  0
  128.2580  123.6020   61.2730 C   0  0  0  0  0  0  0  0  0  0  0  0
  129.4730  124.2220   59.1290 C   0  0  0  0  0  0  0  0  0  0  0  0
  130.6610  124.3000   58.3950 C   0  0  0  0  0  0  0  0  0  0  0  0
  130.5970  124.8600   56.9760 C   0  0  0  0  0  0  0  0  0  0  0  0
  131.8660  123.8580   58.9850 C   0  0  0  0  0  0  0  0  0  0  0  0
  133.1250  123.9240   58.2380 C   0  0  0  0  0  0  0  0  0  0  0  0
  134.1190  123.9770   57.6470 N   0  0  0  0  0  0  0  0  0  0  0  0
  1  2  1  0
  2  3  1  0
  3  4  1  0
  4  5  1  0
  5  6  1  0
  6  7  1  0
  7  8  1  0
  8  9  1  0
  9 10  1  0
 10 11  1  0
 11 12  1  0
 12 13  2  0
 12 14  1  0
 14 15  1  0
 15 16  1  0
 16 17  2  0
 17 18  1  0
 18 19  1  0
 18 20  2  0
 20 21  1  0
 21 22  1  0
 21 23  2  0
 23 24  1  0
 24 25  3  0
 23 16  1  0
M  END
>  <Binding energies>  (11) 
[-5.69]

>  <Ligand effiencies>  (11) 
[-0.21884615384615386]

>  <Interactions>  (11) 
["H-B:GLU:543:OE1:9881, H-A:TYR:484:OH:4346, V-A:ASP:366:CG:3211, V-B:TYR:539:CZ:9849, H-A:GLY:454:N:4048, V-B:TYR:539:CE2:9848, V-A:ASP:366:CB:3210, V-A:GLY:454:CA:4047, V-B:ALA:541:CB:9864, V-A:ILE:369:CG2:3235, V-A:LEU:475:CD2:4257, V-B:GLU:543:CD:9880, V-A:GLU:543:CD:4906, V-A:HIS:456:CE1:4068, V-A:ARG:545:CG:4920, V-B:GLU:543:CG:9879, H-B:TYR:539:OH:9850, V-A:HIS:456:CG:4064, V-B:HIS:456:CD2:9040, V-A:HIS:456:CD2:4066, V-B:HIS:456:CE1:9042, V-B:GLY:544:C:9884, V-A:GLY:544:C:4910, V-A:GLU:543:CG:4905"]

$$$$
1l_Grossjean_2025
     RDKit          3D

 17 17  0  0  0  0  0  0  0  0999 V2000
  129.1980  127.2190   67.2510 C   0  0  0  0  0  0  0  0  0  0  0  0
  129.0270  127.9250   68.4720 O   0  0  0  0  0  0  0  0  0  0  0  0
  129.0510  127.0330   69.5440 N   0  0  0  0  0  0  0  0  0  0  0  0
  129.0240  127.5190   70.7990 C   0  0  0  0  0  0  0  0  0  0  0  0
  128.7530  128.6920   71.0730 O   0  0  0  0  0  0  0  0  0  0  0  0
  129.3460  126.4990   71.9000 C   0  0  0  0  0  0  0  0  0  0  0  0
  130.8550  126.8530   72.8640 S   0  0  0  0  0  0  0  0  0  0  0  0
  131.4310  125.3210   73.5770 C   0  0  0  0  0  0  0  0  0  0  0  0
  130.6000  124.2560   73.4350 N   0  0  0  0  0  0  0  0  0  0  0  0
  130.9740  123.0620   73.9540 C   0  0  0  0  0  0  0  0  0  0  0  0
  129.9950  121.9210   73.7560 C   0  0  0  0  0  0  0  0  0  0  0  0
  132.1800  122.8800   74.6270 C   0  0  0  0  0  0  0  0  0  0  0  0
  133.0440  123.9690   74.7780 C   0  0  0  0  0  0  0  0  0  0  0  0
  134.3620  123.7460   75.5190 C   0  0  0  0  0  0  0  0  0  0  0  0
  132.6730  125.2240   74.2450 C   0  0  0  0  0  0  0  0  0  0  0  0
  133.5600  126.3830   74.3890 C   0  0  0  0  0  0  0  0  0  0  0  0
  134.2610  127.2960   74.5030 N   0  0  0  0  0  0  0  0  0  0  0  0
  1  2  1  0
  2  3  1  0
  3  4  1  0
  4  5  2  0
  4  6  1  0
  6  7  1  0
  7  8  1  0
  8  9  2  0
  9 10  1  0
 10 11  1  0
 10 12  2  0
 12 13  1  0
 13 14  1  0
 13 15  2  0
 15 16  1  0
 16 17  3  0
 15  8  1  0
M  END
>  <Binding energies>  (12) 
[-6.4]

>  <Ligand effiencies>  (12) 
[-0.35555555555555557]

>  <Interactions>  (12) 
["V-B:GLU:543:CD:9880, V-A:GLU:543:CD:4906, V-A:HIS:456:CE1:4068, V-B:GLU:543:CG:9879, V-A:HIS:456:CB:4063, V-A:ASP:473:CG:4238, V-A:HIS:456:CG:4064, V-A:HIS:456:CD2:4066, V-A:VAL:458:CG2:4085, V-A:LYS:471:CE:4218, H-B:LYS:547:NZ:9923, V-A:HIS:456:C:4059, V-A:LYS:471:CD:4217, V-A:LYS:471:CG:4216, V-A:GLU:543:CG:4905, V-B:GLU:543:C:9874, H-A:HIS:456:NE2:4069, V-A:LYS:547:CD:4947, V-A:LYS:547:CG:4946, H-B:GLU:543:O:9875"]

$$$$
1m_Grossjean_2025
     RDKit          3D

 20 20  0  0  0  0  0  0  0  0999 V2000
  130.3710  126.0940   66.1490 C   0  0  0  0  0  0  0  0  0  0  0  0
  129.4580  126.4140   67.1890 O   0  0  0  0  0  0  0  0  0  0  0  0
  128.7120  127.5370   67.1260 C   0  0  0  0  0  0  0  0  0  0  0  0
  128.3400  128.0930   66.0880 O   0  0  0  0  0  0  0  0  0  0  0  0
  128.3560  128.0600   68.5330 C   0  0  0  0  0  0  0  0  0  0  0  0
  128.8110  127.1630   69.6060 N   0  0  0  0  0  0  0  0  0  0  0  0
  128.9410  127.4950   70.9040 C   0  0  0  0  0  0  0  0  0  0  0  0
  128.7000  128.6240   71.3370 O   0  0  0  0  0  0  0  0  0  0  0  0
  129.4230  126.3700   71.8290 C   0  0  0  0  0  0  0  0  0  0  0  0
  130.8360  126.8130   72.8970 S   0  0  0  0  0  0  0  0  0  0  0  0
  131.4620  125.3170   73.6310 C   0  0  0  0  0  0  0  0  0  0  0  0
  130.5960  124.2740   73.5600 N   0  0  0  0  0  0  0  0  0  0  0  0
  130.9670  123.0820   74.0810 C   0  0  0  0  0  0  0  0  0  0  0  0
  129.9560  121.9590   73.9470 C   0  0  0  0  0  0  0  0  0  0  0  0
  132.2000  122.8820   74.6990 C   0  0  0  0  0  0  0  0  0  0  0  0
  133.0900  123.9570   74.8020 C   0  0  0  0  0  0  0  0  0  0  0  0
  134.4290  123.7200   75.4970 C   0  0  0  0  0  0  0  0  0  0  0  0
  132.7230  125.2130   74.2650 C   0  0  0  0  0  0  0  0  0  0  0  0
  133.6190  126.3630   74.4060 C   0  0  0  0  0  0  0  0  0  0  0  0
  134.3270  127.2710   74.5160 N   0  0  0  0  0  0  0  0  0  0  0  0
  1  2  1  0
  2  3  1  0
  3  4  2  0
  3  5  1  0
  5  6  1  0
  6  7  1  0
  7  8  2  0
  7  9  1  0
  9 10  1  0
 10 11  1  0
 11 12  2  0
 12 13  1  0
 13 14  1  0
 13 15  2  0
 15 16  1  0
 16 17  1  0
 16 18  2  0
 18 19  1  0
 19 20  3  0
 18 11  1  0
M  END
>  <Binding energies>  (13) 
[-6.26]

>  <Ligand effiencies>  (13) 
[-0.2980952380952381]

>  <Interactions>  (13) 
["V-B:GLU:543:CD:9880, V-B:GLU:543:CB:9878, V-A:GLU:543:CD:4906, V-A:HIS:456:CE1:4068, V-B:GLU:543:CG:9879, V-A:HIS:456:CB:4063, V-A:ASP:473:CG:4238, V-A:HIS:456:CG:4064, V-A:HIS:456:CD2:4066, V-A:VAL:458:CG2:4085, V-B:HIS:456:CE1:9042, V-A:VAL:457:C:4071, V-A:LYS:471:CE:4218, V-B:LYS:547:CE:9922, H-B:LYS:547:NZ:9923, V-A:HIS:456:C:4059, V-A:LYS:471:CD:4217, V-A:LYS:471:CG:4216, V-A:GLU:543:CG:4905, V-B:GLU:543:C:9874, H-A:HIS:456:NE2:4069, V-A:LYS:547:CD:4947, V-A:LYS:547:CG:4946, H-B:GLU:543:O:9875"]

$$$$
1n_Grossjean_2025
     RDKit          3D

 27 28  0  0  0  0  0  0  0  0999 V2000
  131.0190  126.0370   73.0040 C   0  0  0  0  0  0  0  0  0  0  0  0
  129.6090  125.7720   72.4660 C   0  0  0  0  0  0  0  0  0  0  0  0
  128.7920  126.9130   72.6980 O   0  0  0  0  0  0  0  0  0  0  0  0
  128.8810  128.0110   71.9050 C   0  0  0  0  0  0  0  0  0  0  0  0
  128.7140  129.1630   72.3170 O   0  0  0  0  0  0  0  0  0  0  0  0
  129.2150  127.6860   70.4770 C   0  0  0  0  0  0  0  0  0  0  0  0
  128.2200  127.4150   69.5250 C   0  0  0  0  0  0  0  0  0  0  0  0
  128.5630  127.1150   68.2100 C   0  0  0  0  0  0  0  0  0  0  0  0
  129.9030  127.0700   67.8210 C   0  0  0  0  0  0  0  0  0  0  0  0
  130.1370  126.7510   66.4690 N   0  0  0  0  0  0  0  0  0  0  0  0
  130.4610  125.5670   65.9050 C   0  0  0  0  0  0  0  0  0  0  0  0
  130.6090  124.5050   66.5100 O   0  0  0  0  0  0  0  0  0  0  0  0
  130.6500  125.5880   64.3820 C   0  0  0  0  0  0  0  0  0  0  0  0
  132.1090  125.8590   63.9570 C   0  0  0  0  0  0  0  0  0  0  0  0
  133.1580  124.3770   63.8750 S   0  0  0  0  0  0  0  0  0  0  0  0
  132.7610  123.5180   62.3680 C   0  0  0  0  0  0  0  0  0  0  0  0
  133.4750  123.9440   61.2960 N   0  0  0  0  0  0  0  0  0  0  0  0
  133.2680  123.3490   60.0980 C   0  0  0  0  0  0  0  0  0  0  0  0
  134.1090  123.8700   58.9480 C   0  0  0  0  0  0  0  0  0  0  0  0
  132.3460  122.3200   59.9180 C   0  0  0  0  0  0  0  0  0  0  0  0
  131.5900  121.8870   61.0140 C   0  0  0  0  0  0  0  0  0  0  0  0
  130.5760  120.7670   60.7910 C   0  0  0  0  0  0  0  0  0  0  0  0
  131.7860  122.4970   62.2730 C   0  0  0  0  0  0  0  0  0  0  0  0
  130.9700  122.0960   63.4210 C   0  0  0  0  0  0  0  0  0  0  0  0
  130.3230  121.7780   64.3260 N   0  0  0  0  0  0  0  0  0  0  0  0
  130.9020  127.3500   68.7640 C   0  0  0  0  0  0  0  0  0  0  0  0
  130.5570  127.6540   70.0780 C   0  0  0  0  0  0  0  0  0  0  0  0
  1  2  1  0
  2  3  1  0
  3  4  1  0
  4  5  2  0
  4  6  1  0
  6  7  2  0
  7  8  1  0
  8  9  2  0
  9 10  1  0
 10 11  1  0
 11 12  2  0
 11 13  1  0
 13 14  1  0
 14 15  1  0
 15 16  1  0
 16 17  2  0
 17 18  1  0
 18 19  1  0
 18 20  2  0
 20 21  1  0
 21 22  1  0
 21 23  2  0
 23 24  1  0
 24 25  3  0
  9 26  1  0
 26 27  2  0
 27  6  1  0
 23 16  1  0
M  END
>  <Binding energies>  (14) 
[-7.6]

>  <Ligand effiencies>  (14) 
[-0.2714285714285714]

>  <Interactions>  (14) 
["H-A:TYR:484:OH:4346, V-A:ASP:366:CG:3211, H-A:GLY:454:N:4048, V-A:ASP:366:CA:3208, V-B:TYR:539:CE2:9848, V-B:TYR:539:CD2:9846, V-A:ASP:366:CB:3210, V-A:ILE:369:CD1:3237, V-B:ALA:541:CB:9864, V-A:ILE:369:CG2:3235, V-A:LEU:475:CD2:4257, V-A:ARG:545:CZ:4924, V-A:TYR:484:CZ:4345, V-B:GLU:543:CD:9880, V-B:GLU:543:CB:9878, V-A:TYR:484:CE1:4343, V-A:GLU:543:CD:4906, V-A:HIS:456:CE1:4068, V-A:ARG:545:CG:4920, V-B:GLU:543:CG:9879, V-A:ILE:369:CB:3234, H-A:GLU:543:OE1:4907, H-A:GLU:543:OE2:4908, H-B:GLU:543:OE2:9882, V-A:HIS:456:CG:4064, V-A:HIS:456:CD2:4066, H-A:LYS:547:NZ:4949, V-B:HIS:456:CE1:9042, V-B:LYS:547:CE:9922, H-B:LYS:547:NZ:9923, V-A:GLY:544:C:4910, V-A:GLU:543:CG:4905, V-A:GLY:544:CA:4912, V-A:GLU:543:C:4900, V-B:GLU:543:C:9874"]

$$$$
1q_Grossjean_2025
     RDKit          3D

 21 21  0  0  0  0  0  0  0  0999 V2000
  126.4410  128.7590   73.6530 C   0  0  0  0  0  0  0  0  0  0  0  0
  127.8440  128.5350   73.6480 O   0  0  0  0  0  0  0  0  0  0  0  0
  128.5560  128.6630   72.5010 C   0  0  0  0  0  0  0  0  0  0  0  0
  129.5170  129.4170   72.3360 O   0  0  0  0  0  0  0  0  0  0  0  0
  128.0450  127.7810   71.3420 C   0  0  0  0  0  0  0  0  0  0  0  0
  128.7420  128.0410   70.0730 N   0  0  0  0  0  0  0  0  0  0  0  0
  128.2900  127.7210   68.8450 C   0  0  0  0  0  0  0  0  0  0  0  0
  127.2090  127.1620   68.6490 O   0  0  0  0  0  0  0  0  0  0  0  0
  129.2000  128.1110   67.6710 C   0  0  0  0  0  0  0  0  0  0  0  0
  129.3100  127.0380   66.5700 C   0  0  0  0  0  0  0  0  0  0  0  0
  130.9320  126.2210   66.5090 S   0  0  0  0  0  0  0  0  0  0  0  0
  131.3160  125.8490   64.8100 C   0  0  0  0  0  0  0  0  0  0  0  0
  130.3020  126.1310   63.9540 N   0  0  0  0  0  0  0  0  0  0  0  0
  130.4750  125.8890   62.6340 C   0  0  0  0  0  0  0  0  0  0  0  0
  129.2900  126.2130   61.7430 C   0  0  0  0  0  0  0  0  0  0  0  0
  131.6590  125.3700   62.1140 C   0  0  0  0  0  0  0  0  0  0  0  0
  132.7200  125.1000   62.9830 C   0  0  0  0  0  0  0  0  0  0  0  0
  134.0150  124.5490   62.3850 C   0  0  0  0  0  0  0  0  0  0  0  0
  132.5640  125.3480   64.3650 C   0  0  0  0  0  0  0  0  0  0  0  0
  133.6840  125.1240   65.2810 C   0  0  0  0  0  0  0  0  0  0  0  0
  134.5720  124.9470   66.0020 N   0  0  0  0  0  0  0  0  0  0  0  0
  1  2  1  0
  2  3  1  0
  3  4  2  0
  3  5  1  0
  5  6  1  0
  6  7  1  0
  7  8  2  0
  7  9  1  0
  9 10  1  0
 10 11  1  0
 11 12  1  0
 12 13  2  0
 13 14  1  0
 14 15  1  0
 14 16  2  0
 16 17  1  0
 17 18  1  0
 17 19  2  0
 19 20  1  0
 20 21  3  0
 19 12  1  0
M  END
>  <Binding energies>  (15) 
[-6.29]

>  <Ligand effiencies>  (15) 
[-0.2859090909090909]

>  <Interactions>  (15) 
["H-A:TYR:484:OH:4346, H-A:GLY:454:N:4048, V-A:GLY:453:C:4040, V-A:ARG:545:CZ:4924, V-B:GLU:543:CD:9880, V-B:GLU:543:CB:9878, V-A:ARG:545:CD:4921, V-A:GLY:453:CA:4042, V-A:GLU:543:CD:4906, V-A:HIS:456:CE1:4068, V-A:ARG:545:CG:4920, V-B:GLU:543:CG:9879, H-A:ARG:545:NE:4922, V-A:LYS:547:CE:4948, V-B:HIS:456:CD2:9040, V-B:HIS:456:CB:9037, H-A:LYS:547:NZ:4949, V-B:HIS:456:CE1:9042, V-B:HIS:456:CG:9038, V-B:GLY:544:C:9884, V-A:GLU:543:CG:4905, V-A:GLU:543:C:4900, H-B:ARG:545:N:9892, H-B:HIS:456:NE2:9043, V-A:GLU:543:CB:4904, H-A:GLU:543:O:4901, H-A:ILE:455:N:4053"]

$$$$
2a_Grossjean_2025
     RDKit          3D

 29 30  0  0  0  0  0  0  0  0999 V2000
  130.9730  126.0550   73.0090 C   0  0  0  0  0  0  0  0  0  0  0  0
  129.5660  125.7620   72.4810 C   0  0  0  0  0  0  0  0  0  0  0  0
  128.7290  126.8870   72.7210 O   0  0  0  0  0  0  0  0  0  0  0  0
  128.8000  127.9930   71.9350 C   0  0  0  0  0  0  0  0  0  0  0  0
  128.5960  129.1380   72.3510 O   0  0  0  0  0  0  0  0  0  0  0  0
  129.1730  127.6850   70.5130 C   0  0  0  0  0  0  0  0  0  0  0  0
  130.5090  127.6430   70.0890 C   0  0  0  0  0  0  0  0  0  0  0  0
  130.8210  127.3560   68.7640 C   0  0  0  0  0  0  0  0  0  0  0  0
  129.8080  127.1120   67.8350 C   0  0  0  0  0  0  0  0  0  0  0  0
  130.2380  126.8470   66.5220 N   0  0  0  0  0  0  0  0  0  0  0  0
  130.5960  125.6790   65.9450 C   0  0  0  0  0  0  0  0  0  0  0  0
  130.6340  124.5850   66.5090 O   0  0  0  0  0  0  0  0  0  0  0  0
  130.9830  125.7660   64.4640 C   0  0  0  0  0  0  0  0  0  0  0  0
  132.6060  125.0180   64.0990 S   0  0  0  0  0  0  0  0  0  0  0  0
  132.4810  123.9860   62.6420 C   0  0  0  0  0  0  0  0  0  0  0  0
  133.3370  124.2860   61.6320 N   0  0  0  0  0  0  0  0  0  0  0  0
  133.2900  123.5550   60.4960 C   0  0  0  0  0  0  0  0  0  0  0  0
  134.2580  123.9690   59.4040 C   0  0  0  0  0  0  0  0  0  0  0  0
  132.4020  122.4980   60.3200 C   0  0  0  0  0  0  0  0  0  0  0  0
  131.5130  122.1640   61.3530 C   0  0  0  0  0  0  0  0  0  0  0  0
  130.5380  120.9900   61.1430 C   0  0  0  0  0  0  0  0  0  0  0  0
  129.3180  121.4530   60.8680 F   0  0  0  0  0  0  0  0  0  0  0  0
  130.9530  120.2300   60.1290 F   0  0  0  0  0  0  0  0  0  0  0  0
  130.4370  120.2050   62.2190 F   0  0  0  0  0  0  0  0  0  0  0  0
  131.5500  122.9250   62.5500 C   0  0  0  0  0  0  0  0  0  0  0  0
  130.6420  122.6210   63.6610 C   0  0  0  0  0  0  0  0  0  0  0  0
  129.9250  122.3820   64.5370 N   0  0  0  0  0  0  0  0  0  0  0  0
  128.4700  127.1440   68.2530 C   0  0  0  0  0  0  0  0  0  0  0  0
  128.1600  127.4270   69.5810 C   0  0  0  0  0  0  0  0  0  0  0  0
  1  2  1  0
  2  3  1  0
  3  4  1  0
  4  5  2  0
  4  6  1  0
  6  7  2  0
  7  8  1  0
  8  9  2  0
  9 10  1  0
 10 11  1  0
 11 12  2  0
 11 13  1  0
 13 14  1  0
 14 15  1  0
 15 16  2  0
 16 17  1  0
 17 18  1  0
 17 19  2  0
 19 20  1  0
 20 21  1  0
 21 22  1  0
 21 23  1  0
 21 24  1  0
 20 25  2  0
 25 26  1  0
 26 27  3  0
  9 28  1  0
 28 29  2  0
 29  6  1  0
 25 15  1  0
M  END
>  <Binding energies>  (16) 
[-7.45]

>  <Ligand effiencies>  (16) 
[-0.24833333333333335]

>  <Interactions>  (16) 
["H-A:TYR:484:OH:4346, V-A:ASP:366:CG:3211, V-A:ASP:366:CA:3208, V-B:TYR:539:CE2:9848, V-B:TYR:539:CD2:9846, V-A:ASP:366:CB:3210, V-A:ILE:369:CD1:3237, V-B:ALA:541:CB:9864, V-A:ILE:369:CG2:3235, V-A:LEU:475:CD2:4257, V-A:TRP:381:CH2:3370, V-A:TYR:484:CZ:4345, V-B:GLU:543:CD:9880, H-A:ARG:545:NH2:4926, V-B:GLU:543:CB:9878, V-B:ALA:541:CA:9862, V-A:TYR:484:CE1:4343, V-A:GLU:543:CD:4906, V-A:HIS:456:CE1:4068, V-A:ARG:545:CG:4920, V-B:GLU:543:CG:9879, V-A:TRP:381:CZ2:3368, V-A:ILE:369:CB:3234, H-A:GLU:543:OE1:4907, H-A:GLU:543:OE2:4908, H-B:GLU:543:OE2:9882, H-A:ARG:545:NE:4922, V-A:HIS:456:CG:4064, V-B:HIS:456:CD2:9040, V-A:HIS:456:CD2:4066, H-A:LYS:547:NZ:4949, V-B:HIS:456:CE1:9042, V-B:LYS:547:CE:9922, H-B:LYS:547:NZ:9923, V-B:GLY:544:C:9884, V-A:GLY:544:C:4910, V-A:GLU:543:CG:4905, V-A:GLY:544:CA:4912, V-A:GLU:543:C:4900, V-B:GLU:543:C:9874, V-A:PRO:482:CB:4324, V-B:GLY:544:CA:9886, V-A:LEU:475:CD1:4256, V-A:LEU:475:CG:4255"]

$$$$
2b_Grossjean_2025
     RDKit          3D

 28 29  0  0  0  0  0  0  0  0999 V2000
  129.1110  125.5730   72.2130 C   0  0  0  0  0  0  0  0  0  0  0  0
  128.7300  126.8460   72.7150 O   0  0  0  0  0  0  0  0  0  0  0  0
  128.7950  127.9540   71.9340 C   0  0  0  0  0  0  0  0  0  0  0  0
  128.5120  129.0880   72.3350 O   0  0  0  0  0  0  0  0  0  0  0  0
  129.2420  127.6640   70.5300 C   0  0  0  0  0  0  0  0  0  0  0  0
  130.5990  127.6300   70.1750 C   0  0  0  0  0  0  0  0  0  0  0  0
  130.9800  127.3600   68.8640 C   0  0  0  0  0  0  0  0  0  0  0  0
  130.0180  127.1130   67.8840 C   0  0  0  0  0  0  0  0  0  0  0  0
  130.5130  126.8570   66.5910 N   0  0  0  0  0  0  0  0  0  0  0  0
  130.7600  125.6780   65.9800 C   0  0  0  0  0  0  0  0  0  0  0  0
  130.6100  124.5670   66.4890 O   0  0  0  0  0  0  0  0  0  0  0  0
  131.2840  125.7840   64.5450 C   0  0  0  0  0  0  0  0  0  0  0  0
  132.7660  124.7650   64.2460 S   0  0  0  0  0  0  0  0  0  0  0  0
  132.5780  123.8460   62.7240 C   0  0  0  0  0  0  0  0  0  0  0  0
  133.4420  124.1710   61.7290 N   0  0  0  0  0  0  0  0  0  0  0  0
  133.3540  123.5200   60.5480 C   0  0  0  0  0  0  0  0  0  0  0  0
  134.3470  123.9490   59.4850 C   0  0  0  0  0  0  0  0  0  0  0  0
  132.4150  122.5200   60.3100 C   0  0  0  0  0  0  0  0  0  0  0  0
  131.5150  122.1630   61.3260 C   0  0  0  0  0  0  0  0  0  0  0  0
  130.4860  121.0520   61.0480 C   0  0  0  0  0  0  0  0  0  0  0  0
  129.2730  121.5830   60.8890 F   0  0  0  0  0  0  0  0  0  0  0  0
  130.8150  120.3880   59.9390 F   0  0  0  0  0  0  0  0  0  0  0  0
  130.4070  120.1600   62.0390 F   0  0  0  0  0  0  0  0  0  0  0  0
  131.5930  122.8430   62.5690 C   0  0  0  0  0  0  0  0  0  0  0  0
  130.6740  122.5150   63.6640 C   0  0  0  0  0  0  0  0  0  0  0  0
  129.9490  122.2550   64.5280 N   0  0  0  0  0  0  0  0  0  0  0  0
  128.6590  127.1530   68.2290 C   0  0  0  0  0  0  0  0  0  0  0  0
  128.2800  127.4240   69.5400 C   0  0  0  0  0  0  0  0  0  0  0  0
  1  2  1  0
  2  3  1  0
  3  4  2  0
  3  5  1  0
  5  6  2  0
  6  7  1  0
  7  8  2  0
  8  9  1  0
  9 10  1  0
 10 11  2  0
 10 12  1  0
 12 13  1  0
 13 14  1  0
 14 15  2  0
 15 16  1  0
 16 17  1  0
 16 18  2  0
 18 19  1  0
 19 20  1  0
 20 21  1  0
 20 22  1  0
 20 23  1  0
 19 24  2  0
 24 25  1  0
 25 26  3  0
  8 27  1  0
 27 28  2  0
 28  5  1  0
 24 14  1  0
M  END
>  <Binding energies>  (17) 
[-7.31]

>  <Ligand effiencies>  (17) 
[-0.25206896551724134]

>  <Interactions>  (17) 
["H-A:TYR:484:OH:4346, V-A:ASP:366:CG:3211, H-A:GLY:454:N:4048, V-A:ASP:366:CA:3208, V-B:TYR:539:CE2:9848, V-B:TYR:539:CD2:9846, V-A:ASP:366:CB:3210, V-A:ILE:369:CD1:3237, V-B:ALA:541:CB:9864, V-A:ILE:369:CG2:3235, V-A:LEU:475:CD2:4257, V-A:TRP:381:CH2:3370, V-A:ARG:545:CZ:4924, V-A:TYR:484:CZ:4345, V-B:GLU:543:CD:9880, V-B:GLU:543:CB:9878, V-B:ALA:541:CA:9862, V-A:TYR:484:CE1:4343, V-A:GLU:543:CD:4906, V-A:HIS:456:CE1:4068, V-A:ARG:545:CG:4920, V-B:GLU:543:CG:9879, V-A:ILE:369:CB:3234, H-A:GLU:543:OE1:4907, H-A:GLU:543:OE2:4908, V-A:HIS:456:CD2:4066, H-A:LYS:547:NZ:4949, V-B:HIS:456:CE1:9042, V-B:LYS:547:CE:9922, H-B:LYS:547:NZ:9923, V-B:GLY:544:C:9884, V-A:GLY:544:C:4910, V-A:GLU:543:CG:4905, V-A:GLY:544:CA:4912, V-A:GLU:543:C:4900, V-B:GLU:543:C:9874, V-A:PRO:482:CB:4324, V-A:ILE:369:CG1:3236, V-B:GLY:544:CA:9886, V-A:ARG:545:CA:4917, V-A:LEU:475:CD1:4256, V-A:LEU:475:CG:4255"]

$$$$
2c_Grossjean_2025
     RDKit          3D

 26 27  0  0  0  0  0  0  0  0999 V2000
  128.0720  128.1950   72.2350 C   0  0  0  0  0  0  0  0  0  0  0  0
  127.4160  127.7710   71.0450 O   0  0  0  0  0  0  0  0  0  0  0  0
  128.1640  127.5540   69.9040 C   0  0  0  0  0  0  0  0  0  0  0  0
  129.5500  127.5500   70.0590 C   0  0  0  0  0  0  0  0  0  0  0  0
  130.3880  127.3410   68.9670 C   0  0  0  0  0  0  0  0  0  0  0  0
  129.8390  127.1420   67.6920 C   0  0  0  0  0  0  0  0  0  0  0  0
  130.6020  126.9050   66.5350 N   0  0  0  0  0  0  0  0  0  0  0  0
  130.8800  125.7270   65.9350 C   0  0  0  0  0  0  0  0  0  0  0  0
  130.5330  124.6240   66.3610 O   0  0  0  0  0  0  0  0  0  0  0  0
  131.7220  125.8360   64.6550 C   0  0  0  0  0  0  0  0  0  0  0  0
  130.7760  126.0420   63.1060 S   0  0  0  0  0  0  0  0  0  0  0  0
  130.8750  124.5380   62.1440 C   0  0  0  0  0  0  0  0  0  0  0  0
  129.6940  124.0670   61.6660 N   0  0  0  0  0  0  0  0  0  0  0  0
  129.6910  122.9290   60.9390 C   0  0  0  0  0  0  0  0  0  0  0  0
  128.3320  122.4590   60.4560 C   0  0  0  0  0  0  0  0  0  0  0  0
  130.8550  122.2200   60.6480 C   0  0  0  0  0  0  0  0  0  0  0  0
  132.0860  122.6920   61.1240 C   0  0  0  0  0  0  0  0  0  0  0  0
  133.3650  121.8980   60.7930 C   0  0  0  0  0  0  0  0  0  0  0  0
  134.0630  121.6720   61.9060 F   0  0  0  0  0  0  0  0  0  0  0  0
  133.0460  120.7280   60.2360 F   0  0  0  0  0  0  0  0  0  0  0  0
  134.1660  122.5430   59.9410 F   0  0  0  0  0  0  0  0  0  0  0  0
  132.1030  123.8820   61.8940 C   0  0  0  0  0  0  0  0  0  0  0  0
  133.3630  124.4210   62.4190 C   0  0  0  0  0  0  0  0  0  0  0  0
  134.3570  124.8450   62.8330 N   0  0  0  0  0  0  0  0  0  0  0  0
  128.4520  127.1290   67.5330 C   0  0  0  0  0  0  0  0  0  0  0  0
  127.6180  127.3380   68.6280 C   0  0  0  0  0  0  0  0  0  0  0  0
  1  2  1  0
  2  3  1  0
  3  4  2  0
  4  5  1  0
  5  6  2  0
  6  7  1  0
  7  8  1  0
  8  9  2  0
  8 10  1  0
 10 11  1  0
 11 12  1  0
 12 13  2  0
 13 14  1  0
 14 15  1  0
 14 16  2  0
 16 17  1  0
 17 18  1  0
 18 19  1  0
 18 20  1  0
 18 21  1  0
 17 22  2  0
 22 23  1  0
 23 24  3  0
  6 25  1  0
 25 26  2  0
 26  3  1  0
 22 12  1  0
M  END
>  <Binding energies>  (18) 
[-6.58]

>  <Ligand effiencies>  (18) 
[-0.2437037037037037]

>  <Interactions>  (18) 
["H-A:TYR:484:OH:4346, H-A:GLY:454:N:4048, V-B:TYR:539:CE2:9848, V-B:TYR:539:CD2:9846, V-A:GLY:454:CA:4047, V-A:ILE:369:CD1:3237, V-B:ALA:541:CB:9864, V-A:ILE:369:CG2:3235, V-A:LEU:475:CD2:4257, V-B:PRO:540:C:9853, H-A:ARG:545:NH1:4925, V-A:TRP:381:CH2:3370, V-B:PRO:540:CA:9855, V-B:TYR:539:C:9839, V-A:ARG:545:CZ:4924, V-B:GLU:543:CD:9880, H-A:ARG:545:NH2:4926, V-B:GLU:543:CB:9878, V-B:ALA:541:CA:9862, V-A:GLU:543:CD:4906, V-A:HIS:456:CE1:4068, V-A:ARG:545:CG:4920, V-B:GLU:543:CG:9879, V-A:ILE:369:CB:3234, H-A:GLU:543:OE2:4908, V-B:HIS:456:CD2:9040, V-B:HIS:456:CE1:9042, V-B:GLY:544:C:9884, V-A:GLY:544:C:4910, V-A:GLU:543:CG:4905, V-A:GLU:543:C:4900, V-B:GLU:543:C:9874, V-A:ILE:369:CG1:3236, H-B:HIS:456:ND1:9039"]

$$$$
2d_Ghoteimi_2023
     RDKit          3D

 38 42  0  0  0  0  0  0  0  0999 V2000
  128.7170  132.9410   60.7830 C   0  0  0  0  0  0  0  0  0  0  0  0
  127.3850  132.4640   60.8990 O   0  0  0  0  0  0  0  0  0  0  0  0
  126.4730  133.1480   61.6200 C   0  0  0  0  0  0  0  0  0  0  0  0
  125.7600  134.0600   61.1930 O   0  0  0  0  0  0  0  0  0  0  0  0
  126.4160  132.6430   63.0700 C   0  0  0  0  0  0  0  0  0  0  0  0
  125.5920  131.0170   63.1710 S   0  0  0  0  0  0  0  0  0  0  0  0
  126.8440  129.7660   63.3740 C   0  0  0  0  0  0  0  0  0  0  0  0
  127.0300  129.4000   64.6650 N   0  0  0  0  0  0  0  0  0  0  0  0
  127.9600  128.4590   64.9690 C   0  0  0  0  0  0  0  0  0  0  0  0
  128.1220  128.1200   66.4150 C   0  0  0  0  0  0  0  0  0  0  0  0
  127.0160  127.7490   67.1880 C   0  0  0  0  0  0  0  0  0  0  0  0
  127.1590  127.4320   68.5360 C   0  0  0  0  0  0  0  0  0  0  0  0
  128.4160  127.4640   69.1580 C   0  0  0  0  0  0  0  0  0  0  0  0
  128.5750  127.1660   70.5160 N   0  0  0  0  0  0  0  0  0  0  0  0
  129.6410  126.2600   70.9880 C   0  0  0  0  0  0  0  0  0  0  0  0
  129.4330  125.7610   72.4340 C   0  0  0  0  0  0  0  0  0  0  0  0
  129.2850  126.8670   73.3100 O   0  0  0  0  0  0  0  0  0  0  0  0
  128.1640  127.6630   72.9610 C   0  0  0  0  0  0  0  0  0  0  0  0
  128.3310  128.2130   71.5280 C   0  0  0  0  0  0  0  0  0  0  0  0
  129.5190  127.8490   68.3830 C   0  0  0  0  0  0  0  0  0  0  0  0
  129.3760  128.1690   67.0360 C   0  0  0  0  0  0  0  0  0  0  0  0
  128.7280  127.8560   63.9690 C   0  0  0  0  0  0  0  0  0  0  0  0
  128.5320  128.1920   62.6240 C   0  0  0  0  0  0  0  0  0  0  0  0
  129.3690  127.4870   61.6070 C   0  0  0  0  0  0  0  0  0  0  0  0
  129.7070  128.1230   60.4120 C   0  0  0  0  0  0  0  0  0  0  0  0
  130.4960  127.4800   59.4640 C   0  0  0  0  0  0  0  0  0  0  0  0
  130.9690  126.1750   59.6840 C   0  0  0  0  0  0  0  0  0  0  0  0
  131.7740  125.5150   58.7510 N   0  0  0  0  0  0  0  0  0  0  0  0
  132.8730  124.6270   59.1760 C   0  0  0  0  0  0  0  0  0  0  0  0
  133.4050  123.7210   58.0450 C   0  0  0  0  0  0  0  0  0  0  0  0
  133.7930  124.5120   56.9320 O   0  0  0  0  0  0  0  0  0  0  0  0
  132.7040  125.2650   56.4190 C   0  0  0  0  0  0  0  0  0  0  0  0
  132.1570  126.2120   57.5090 C   0  0  0  0  0  0  0  0  0  0  0  0
  130.6390  125.5510   60.8940 C   0  0  0  0  0  0  0  0  0  0  0  0
  129.8500  126.1950   61.8430 C   0  0  0  0  0  0  0  0  0  0  0  0
  127.5580  129.1720   62.3080 C   0  0  0  0  0  0  0  0  0  0  0  0
  127.3030  129.5430   60.9120 C   0  0  0  0  0  0  0  0  0  0  0  0
  127.1040  129.8340   59.8090 N   0  0  0  0  0  0  0  0  0  0  0  0
  1  2  1  0
  2  3  1  0
  3  4  2  0
  3  5  1  0
  5  6  1  0
  6  7  1  0
  7  8  2  0
  8  9  1  0
  9 10  1  0
 10 11  2  0
 11 12  1  0
 12 13  2  0
 13 14  1  0
 14 15  1  0
 15 16  1  0
 16 17  1  0
 17 18  1  0
 18 19  1  0
 13 20  1  0
 20 21  2  0
  9 22  2  0
 22 23  1  0
 23 24  1  0
 24 25  2  0
 25 26  1  0
 26 27  2  0
 27 28  1  0
 28 29  1  0
 29 30  1  0
 30 31  1  0
 31 32  1  0
 32 33  1  0
 27 34  1  0
 34 35  2  0
 23 36  2  0
 36 37  1  0
 37 38  3  0
 36  7  1  0
 21 10  1  0
 35 24  1  0
 19 14  1  0
 33 28  1  0
M  END
>  <Binding energies>  (19) 
[-1.38]

>  <Ligand effiencies>  (19) 
[-0.03631578947368421]

>  <Interactions>  (19) 
["V-A:ASP:366:CG:3211, V-B:TYR:539:CZ:9849, V-A:ASP:366:CA:3208, V-B:TYR:539:CE2:9848, V-A:ASP:366:CB:3210, V-A:ILE:369:CG2:3235, V-B:GLU:543:CD:9880, V-A:GLU:543:CD:4906, V-A:HIS:456:CE1:4068, V-B:GLU:543:CG:9879, V-A:ILE:369:CB:3234, V-A:PRO:540:C:4879, V-A:PRO:540:CA:4881, V-A:TYR:539:C:4865, H-B:TYR:539:OH:9850, V-B:HIS:456:CD2:9040, V-A:HIS:456:CD2:4066, H-A:LYS:547:NZ:4949, V-B:HIS:456:CE1:9042, V-B:LYS:547:CE:9922, H-B:LYS:547:NZ:9923, V-B:GLY:544:C:9884, V-A:GLU:543:CG:4905, V-B:ARG:545:CG:9894, V-A:GLU:543:C:4900, V-B:GLU:543:C:9874, V-A:GLU:543:CB:4904, V-B:GLY:544:CA:9886, V-A:ALA:541:CB:4890, V-A:TYR:531:CE1:4790, V-A:ALA:541:CA:4888, V-B:LEU:475:CD2:9231"]

$$$$
2d_Grossjean_2025
     RDKit          3D

 24 25  0  0  0  0  0  0  0  0999 V2000
  127.7930  124.2990   60.1030 C   0  0  0  0  0  0  0  0  0  0  0  0
  128.9840  123.3590   60.0850 C   0  0  0  0  0  0  0  0  0  0  0  0
  128.8800  122.0420   60.5250 C   0  0  0  0  0  0  0  0  0  0  0  0
  130.0090  121.2100   60.4840 C   0  0  0  0  0  0  0  0  0  0  0  0
  129.8720  119.7530   60.9650 C   0  0  0  0  0  0  0  0  0  0  0  0
  130.6320  118.9520   60.2170 F   0  0  0  0  0  0  0  0  0  0  0  0
  130.2620  119.6530   62.2370 F   0  0  0  0  0  0  0  0  0  0  0  0
  128.6190  119.3000   60.8930 F   0  0  0  0  0  0  0  0  0  0  0  0
  131.2290  121.7460   59.9980 C   0  0  0  0  0  0  0  0  0  0  0  0
  132.4240  120.9060   59.8920 C   0  0  0  0  0  0  0  0  0  0  0  0
  133.3680  120.2410   59.8070 N   0  0  0  0  0  0  0  0  0  0  0  0
  131.2460  123.1030   59.5960 C   0  0  0  0  0  0  0  0  0  0  0  0
  132.6980  123.9440   58.9930 S   0  0  0  0  0  0  0  0  0  0  0  0
  134.0870  123.5960   60.1200 C   0  0  0  0  0  0  0  0  0  0  0  0
  133.6820  123.6260   61.5970 C   0  0  0  0  0  0  0  0  0  0  0  0
  133.8550  122.6190   62.2850 O   0  0  0  0  0  0  0  0  0  0  0  0
  133.1250  124.7770   62.0270 N   0  0  0  0  0  0  0  0  0  0  0  0
  132.6580  125.1140   63.3110 C   0  0  0  0  0  0  0  0  0  0  0  0
  131.3160  125.4920   63.3960 C   0  0  0  0  0  0  0  0  0  0  0  0
  130.7640  125.8490   64.6230 C   0  0  0  0  0  0  0  0  0  0  0  0
  131.5580  125.8350   65.7680 C   0  0  0  0  0  0  0  0  0  0  0  0
  132.9010  125.4730   65.6930 C   0  0  0  0  0  0  0  0  0  0  0  0
  133.4550  125.1150   64.4680 C   0  0  0  0  0  0  0  0  0  0  0  0
  130.1410  123.8860   59.6230 N   0  0  0  0  0  0  0  0  0  0  0  0
  1  2  1  0
  2  3  2  0
  3  4  1  0
  4  5  1  0
  5  6  1  0
  5  7  1  0
  5  8  1  0
  4  9  2  0
  9 10  1  0
 10 11  3  0
  9 12  1  0
 12 13  1  0
 13 14  1  0
 14 15  1  0
 15 16  2  0
 15 17  1  0
 17 18  1  0
 18 19  2  0
 19 20  1  0
 20 21  2  0
 21 22  1  0
 22 23  2  0
 12 24  2  0
 24  2  1  0
 23 18  1  0
M  END
>  <Binding energies>  (20) 
[-5.7]

>  <Ligand effiencies>  (20) 
[-0.228]

>  <Interactions>  (20) 
["H-A:GLY:454:N:4048, V-B:TYR:539:CE2:9848, V-B:TYR:539:CD2:9846, V-A:ILE:369:CD1:3237, V-B:ALA:541:CB:9864, V-A:ILE:369:CG2:3235, V-A:LEU:475:CD2:4257, V-B:PRO:540:C:9853, H-A:ASP:366:OD1:3212, V-A:TRP:381:CH2:3370, V-B:PRO:540:CA:9855, V-B:TYR:539:C:9839, V-A:ARG:545:CZ:4924, V-B:GLU:543:CD:9880, V-B:ALA:541:CA:9862, V-A:ARG:545:CD:4921, V-A:GLY:453:CA:4042, V-A:HIS:456:CE1:4068, V-A:ARG:545:CG:4920, V-A:TRP:381:CZ2:3368, V-A:ILE:369:CB:3234, V-A:TRP:381:CZ3:3369, V-A:PRO:482:CG:4325, V-A:PRO:482:CB:4324, V-A:TRP:381:CE2:3365, H-A:ASP:366:OD2:3213, V-A:LEU:475:CD1:4256, V-A:LEU:475:CG:4255"]

$$$$
2e_Grossjean_2025
     RDKit          3D

 25 26  0  0  0  0  0  0  0  0999 V2000
  130.5560  127.2020   71.0240 C   0  0  0  0  0  0  0  0  0  0  0  0
  129.6250  127.1660   69.8270 C   0  0  0  0  0  0  0  0  0  0  0  0
  128.2510  127.3830   69.9620 C   0  0  0  0  0  0  0  0  0  0  0  0
  127.4570  127.3460   68.8150 C   0  0  0  0  0  0  0  0  0  0  0  0
  128.0480  127.0950   67.5740 C   0  0  0  0  0  0  0  0  0  0  0  0
  129.4290  126.8760   67.5120 C   0  0  0  0  0  0  0  0  0  0  0  0
  129.9770  126.6710   66.2340 N   0  0  0  0  0  0  0  0  0  0  0  0
  130.5990  125.5680   65.7610 C   0  0  0  0  0  0  0  0  0  0  0  0
  130.7220  124.5070   66.3760 O   0  0  0  0  0  0  0  0  0  0  0  0
  131.2230  125.7000   64.3680 C   0  0  0  0  0  0  0  0  0  0  0  0
  132.7720  124.7530   64.2200 S   0  0  0  0  0  0  0  0  0  0  0  0
  132.6000  123.7920   62.7320 C   0  0  0  0  0  0  0  0  0  0  0  0
  133.4510  124.1390   61.7350 N   0  0  0  0  0  0  0  0  0  0  0  0
  133.3580  123.4900   60.5520 C   0  0  0  0  0  0  0  0  0  0  0  0
  134.3390  123.9270   59.4820 C   0  0  0  0  0  0  0  0  0  0  0  0
  132.4210  122.4850   60.3170 C   0  0  0  0  0  0  0  0  0  0  0  0
  131.5280  122.1210   61.3360 C   0  0  0  0  0  0  0  0  0  0  0  0
  130.4840  121.0240   61.0530 C   0  0  0  0  0  0  0  0  0  0  0  0
  130.4380  120.1630   62.0700 F   0  0  0  0  0  0  0  0  0  0  0  0
  129.2790  121.5720   60.8950 F   0  0  0  0  0  0  0  0  0  0  0  0
  130.7570  120.3260   59.9490 F   0  0  0  0  0  0  0  0  0  0  0  0
  131.6160  122.7890   62.5820 C   0  0  0  0  0  0  0  0  0  0  0  0
  130.6920  122.4750   63.6770 C   0  0  0  0  0  0  0  0  0  0  0  0
  129.9620  122.2280   64.5400 N   0  0  0  0  0  0  0  0  0  0  0  0
  130.2130  126.9190   68.6290 N   0  0  0  0  0  0  0  0  0  0  0  0
  1  2  1  0
  2  3  2  0
  3  4  1  0
  4  5  2  0
  5  6  1  0
  6  7  1  0
  7  8  1  0
  8  9  2  0
  8 10  1  0
 10 11  1  0
 11 12  1  0
 12 13  2  0
 13 14  1  0
 14 15  1  0
 14 16  2  0
 16 17  1  0
 17 18  1  0
 18 19  1  0
 18 20  1  0
 18 21  1  0
 17 22  2  0
 22 23  1  0
 23 24  3  0
  6 25  2  0
 25  2  1  0
 22 12  1  0
M  END
>  <Binding energies>  (21) 
[-6.79]

>  <Ligand effiencies>  (21) 
[-0.2611538461538462]

>  <Interactions>  (21) 
["H-A:TYR:484:OH:4346, V-A:ASP:366:CG:3211, H-A:GLY:454:N:4048, V-A:ASP:366:CA:3208, V-B:TYR:539:CE2:9848, V-B:TYR:539:CD2:9846, V-A:ASP:366:CB:3210, V-A:ILE:369:CD1:3237, V-B:ALA:541:CB:9864, V-A:ILE:369:CG2:3235, V-A:LEU:475:CD2:4257, V-A:TRP:381:CH2:3370, V-B:TYR:539:CG:9844, V-A:ARG:545:CZ:4924, V-A:TYR:484:CZ:4345, V-B:GLU:543:CD:9880, V-B:GLU:543:CB:9878, V-B:ALA:541:CA:9862, V-A:TYR:484:CE1:4343, V-A:GLU:543:CD:4906, V-A:HIS:456:CE1:4068, V-B:GLU:543:CG:9879, V-A:ILE:369:CB:3234, H-A:GLU:543:OE1:4907, H-A:GLU:543:OE2:4908, H-B:GLU:543:OE2:9882, V-A:HIS:456:CD2:4066, V-B:HIS:456:CE1:9042, V-B:GLY:544:C:9884, V-A:GLY:544:C:4910, V-A:GLU:543:CG:4905, V-A:GLY:544:CA:4912, V-B:ARG:545:CG:9894, V-B:GLU:543:C:9874, V-A:PRO:482:CB:4324, V-A:ILE:369:CG1:3236, V-A:LEU:475:CD1:4256, V-A:LEU:475:CG:4255"]

$$$$
2f_Grossjean_2025
     RDKit          3D

 24 25  0  0  0  0  0  0  0  0999 V2000
  133.4260  124.3570   58.2940 C   0  0  0  0  0  0  0  0  0  0  0  0
  132.1510  124.0440   59.0550 C   0  0  0  0  0  0  0  0  0  0  0  0
  131.9940  122.8510   59.7560 C   0  0  0  0  0  0  0  0  0  0  0  0
  130.7920  122.6040   60.4380 C   0  0  0  0  0  0  0  0  0  0  0  0
  130.6330  121.2730   61.1970 C   0  0  0  0  0  0  0  0  0  0  0  0
  131.6440  120.4530   60.9020 F   0  0  0  0  0  0  0  0  0  0  0  0
  130.6280  121.4980   62.5120 F   0  0  0  0  0  0  0  0  0  0  0  0
  129.5000  120.6360   60.8940 F   0  0  0  0  0  0  0  0  0  0  0  0
  129.7730  123.5900   60.3940 C   0  0  0  0  0  0  0  0  0  0  0  0
  128.4800  123.3550   61.0420 C   0  0  0  0  0  0  0  0  0  0  0  0
  127.4590  123.1690   61.5540 N   0  0  0  0  0  0  0  0  0  0  0  0
  130.0320  124.7840   59.6780 C   0  0  0  0  0  0  0  0  0  0  0  0
  128.8740  126.1290   59.5290 S   0  0  0  0  0  0  0  0  0  0  0  0
  128.6420  126.8630   61.1840 C   0  0  0  0  0  0  0  0  0  0  0  0
  129.9180  126.9800   62.0290 C   0  0  0  0  0  0  0  0  0  0  0  0
  130.5890  128.0130   62.0130 O   0  0  0  0  0  0  0  0  0  0  0  0
  130.2210  125.8740   62.7420 N   0  0  0  0  0  0  0  0  0  0  0  0
  131.2980  125.6420   63.6190 C   0  0  0  0  0  0  0  0  0  0  0  0
  131.2700  125.8250   65.0140 C   0  0  0  0  0  0  0  0  0  0  0  0
  132.4110  125.5520   65.7700 C   0  0  0  0  0  0  0  0  0  0  0  0
  133.5540  125.0970   65.1130 C   0  0  0  0  0  0  0  0  0  0  0  0
  133.6060  124.9040   63.7710 N   0  0  0  0  0  0  0  0  0  0  0  0
  132.4880  125.1740   63.0490 C   0  0  0  0  0  0  0  0  0  0  0  0
  131.1900  124.9940   59.0070 N   0  0  0  0  0  0  0  0  0  0  0  0
  1  2  1  0
  2  3  2  0
  3  4  1  0
  4  5  1  0
  5  6  1  0
  5  7  1  0
  5  8  1  0
  4  9  2  0
  9 10  1  0
 10 11  3  0
  9 12  1  0
 12 13  1  0
 13 14  1  0
 14 15  1  0
 15 16  2  0
 15 17  1  0
 17 18  1  0
 18 19  2  0
 19 20  1  0
 20 21  2  0
 21 22  1  0
 22 23  2  0
 12 24  2  0
 24  2  1  0
 23 18  1  0
M  END
>  <Binding energies>  (22) 
[-5.84]

>  <Ligand effiencies>  (22) 
[-0.2336]

>  <Interactions>  (22) 
["H-B:GLU:543:OE1:9881, H-A:TYR:484:OH:4346, V-A:ASP:366:CG:3211, H-A:GLY:454:N:4048, V-A:ASP:366:CA:3208, V-B:TYR:539:CE2:9848, V-B:TYR:539:CD2:9846, V-A:ASP:366:CB:3210, V-B:ALA:541:CB:9864, V-A:LEU:475:CD2:4257, V-B:PRO:540:C:9853, H-A:ARG:545:NH1:4925, V-A:TRP:381:CH2:3370, V-B:TYR:539:C:9839, V-A:ARG:545:CZ:4924, V-B:GLU:543:CD:9880, H-A:ARG:545:NH2:4926, V-B:ALA:541:CA:9862, V-A:ARG:545:CD:4921, V-A:HIS:456:CE1:4068, V-A:ARG:545:CG:4920, H-B:ALA:541:N:9863, H-B:GLU:543:OE2:9882, H-A:ARG:545:NE:4922"]

$$$$
2g_Grossjean_2025
     RDKit          3D

 25 26  0  0  0  0  0  0  0  0999 V2000
  134.1340  121.6810   61.9370 C   0  0  0  0  0  0  0  0  0  0  0  0
  133.2310  122.8990   61.9780 C   0  0  0  0  0  0  0  0  0  0  0  0
  132.4440  123.2600   60.8880 C   0  0  0  0  0  0  0  0  0  0  0  0
  131.6310  124.4010   60.9720 C   0  0  0  0  0  0  0  0  0  0  0  0
  130.7740  124.7910   59.7520 C   0  0  0  0  0  0  0  0  0  0  0  0
  131.0100  123.9590   58.7360 F   0  0  0  0  0  0  0  0  0  0  0  0
  129.4800  124.7280   60.0700 F   0  0  0  0  0  0  0  0  0  0  0  0
  131.0240  126.0280   59.3200 F   0  0  0  0  0  0  0  0  0  0  0  0
  131.6310  125.1470   62.1790 C   0  0  0  0  0  0  0  0  0  0  0  0
  130.8440  126.3770   62.2990 C   0  0  0  0  0  0  0  0  0  0  0  0
  130.2220  127.3480   62.3940 N   0  0  0  0  0  0  0  0  0  0  0  0
  132.4400  124.6860   63.2460 C   0  0  0  0  0  0  0  0  0  0  0  0
  132.5400  125.4850   64.8330 S   0  0  0  0  0  0  0  0  0  0  0  0
  130.8640  125.4810   65.5550 C   0  0  0  0  0  0  0  0  0  0  0  0
  130.5850  126.6280   66.5360 C   0  0  0  0  0  0  0  0  0  0  0  0
  131.4910  127.3560   66.9470 O   0  0  0  0  0  0  0  0  0  0  0  0
  129.3000  126.7710   66.9080 N   0  0  0  0  0  0  0  0  0  0  0  0
  128.7890  127.7930   67.8230 C   0  0  0  0  0  0  0  0  0  0  0  0
  129.0450  127.5010   69.2980 C   0  0  0  0  0  0  0  0  0  0  0  0
  130.3540  127.3170   69.7530 C   0  0  0  0  0  0  0  0  0  0  0  0
  130.5940  127.0890   71.1070 C   0  0  0  0  0  0  0  0  0  0  0  0
  129.5260  127.0550   72.0000 C   0  0  0  0  0  0  0  0  0  0  0  0
  128.2200  127.2510   71.5540 C   0  0  0  0  0  0  0  0  0  0  0  0
  127.9800  127.4800   70.2020 C   0  0  0  0  0  0  0  0  0  0  0  0
  133.2380  123.5950   63.1380 N   0  0  0  0  0  0  0  0  0  0  0  0
  1  2  1  0
  2  3  2  0
  3  4  1  0
  4  5  1  0
  5  6  1  0
  5  7  1  0
  5  8  1  0
  4  9  2  0
  9 10  1  0
 10 11  3  0
  9 12  1  0
 12 13  1  0
 13 14  1  0
 14 15  1  0
 15 16  2  0
 15 17  1  0
 17 18  1  0
 18 19  1  0
 19 20  2  0
 20 21  1  0
 21 22  2  0
 22 23  1  0
 23 24  2  0
 12 25  2  0
 25  2  1  0
 24 19  1  0
M  END
>  <Binding energies>  (23) 
[-6.25]

>  <Ligand effiencies>  (23) 
[-0.2403846153846154]

>  <Interactions>  (23) 
["H-B:GLU:543:OE1:9881, H-A:TYR:484:OH:4346, V-A:ASP:366:CG:3211, V-B:TYR:539:CZ:9849, H-A:GLY:454:N:4048, V-B:TYR:539:CE2:9848, V-B:TYR:539:CD2:9846, V-A:GLY:454:CA:4047, V-A:ILE:369:CD1:3237, V-A:LEU:475:CD2:4257, V-A:ARG:545:CZ:4924, V-B:GLU:543:CD:9880, H-A:ARG:545:NH2:4926, V-B:GLU:543:CB:9878, V-A:GLU:543:CD:4906, V-A:HIS:456:CE1:4068, V-B:GLU:543:CG:9879, H-B:GLU:543:OE2:9882, H-A:ARG:545:NE:4922, V-A:HIS:456:CG:4064, V-B:HIS:456:CD2:9040, V-A:HIS:456:CD2:4066, V-B:HIS:456:CE1:9042, V-B:GLY:544:C:9884, V-A:GLY:544:C:4910, V-A:GLU:543:CG:4905, V-A:GLY:544:CA:4912, V-A:GLU:543:C:4900, V-B:GLY:544:CA:9886, H-B:GLU:543:O:9875"]

$$$$
2h_Grossjean_2025
     RDKit          3D

 31 32  0  0  0  0  0  0  0  0999 V2000
  132.6540  125.4710   65.2130 C   0  0  0  0  0  0  0  0  0  0  0  0
  133.2310  124.6390   64.2120 O   0  0  0  0  0  0  0  0  0  0  0  0
  132.4050  123.8800   63.4020 C   0  0  0  0  0  0  0  0  0  0  0  0
  131.0180  123.7640   63.5860 C   0  0  0  0  0  0  0  0  0  0  0  0
  130.2500  122.9870   62.7230 C   0  0  0  0  0  0  0  0  0  0  0  0
  130.8470  122.3090   61.6590 C   0  0  0  0  0  0  0  0  0  0  0  0
  129.9800  121.4790   60.7130 C   0  0  0  0  0  0  0  0  0  0  0  0
  129.0670  122.2810   59.8980 N   0  0  0  0  0  0  0  0  0  0  0  0
  127.9890  122.9340   60.3660 C   0  0  0  0  0  0  0  0  0  0  0  0
  127.6080  122.8580   61.5360 O   0  0  0  0  0  0  0  0  0  0  0  0
  127.2480  123.8080   59.3440 C   0  0  0  0  0  0  0  0  0  0  0  0
  127.9940  123.8460   57.6790 S   0  0  0  0  0  0  0  0  0  0  0  0
  129.4370  124.8820   57.7860 C   0  0  0  0  0  0  0  0  0  0  0  0
  130.5840  124.1980   58.0170 N   0  0  0  0  0  0  0  0  0  0  0  0
  131.7390  124.8890   58.1340 C   0  0  0  0  0  0  0  0  0  0  0  0
  132.9810  124.0590   58.4000 C   0  0  0  0  0  0  0  0  0  0  0  0
  131.8000  126.2770   58.0220 C   0  0  0  0  0  0  0  0  0  0  0  0
  130.6260  127.0010   57.7630 C   0  0  0  0  0  0  0  0  0  0  0  0
  130.7140  128.5340   57.6330 C   0  0  0  0  0  0  0  0  0  0  0  0
  130.1680  129.1130   58.7030 F   0  0  0  0  0  0  0  0  0  0  0  0
  131.9710  128.9730   57.5390 F   0  0  0  0  0  0  0  0  0  0  0  0
  130.0640  128.9400   56.5420 F   0  0  0  0  0  0  0  0  0  0  0  0
  129.4070  126.2880   57.6290 C   0  0  0  0  0  0  0  0  0  0  0  0
  128.1640  126.9910   57.3000 C   0  0  0  0  0  0  0  0  0  0  0  0
  127.1840  127.5480   57.0370 N   0  0  0  0  0  0  0  0  0  0  0  0
  132.2350  122.3970   61.4760 C   0  0  0  0  0  0  0  0  0  0  0  0
  132.8310  121.7300   60.4320 O   0  0  0  0  0  0  0  0  0  0  0  0
  133.7780  120.7460   60.8290 C   0  0  0  0  0  0  0  0  0  0  0  0
  133.0060  123.1970   62.3370 C   0  0  0  0  0  0  0  0  0  0  0  0
  134.3640  123.3000   62.1500 O   0  0  0  0  0  0  0  0  0  0  0  0
  134.7510  124.3480   61.2720 C   0  0  0  0  0  0  0  0  0  0  0  0
  1  2  1  0
  2  3  1  0
  3  4  2  0
  4  5  1  0
  5  6  2  0
  6  7  1  0
  7  8  1  0
  8  9  1  0
  9 10  2  0
  9 11  1  0
 11 12  1  0
 12 13  1  0
 13 14  2  0
 14 15  1  0
 15 16  1  0
 15 17  2  0
 17 18  1  0
 18 19  1  0
 19 20  1  0
 19 21  1  0
 19 22  1  0
 18 23  2  0
 23 24  1  0
 24 25  3  0
  6 26  1  0
 26 27  1  0
 27 28  1  0
 26 29  2  0
 29 30  1  0
 30 31  1  0
 29  3  1  0
 23 13  1  0
M  END
>  <Binding energies>  (24) 
[-4.54]

>  <Ligand effiencies>  (24) 
[-0.141875]

>  <Interactions>  (24) 
["H-A:TYR:484:OH:4346, V-A:ASP:366:CG:3211, V-B:TYR:539:CZ:9849, H-A:GLY:454:N:4048, V-B:TYR:539:CE2:9848, V-B:TYR:539:CD2:9846, V-A:ASP:366:CB:3210, V-A:GLY:454:CA:4047, V-A:ILE:369:CD1:3237, V-B:ALA:541:CB:9864, V-A:ILE:369:CG2:3235, V-A:LEU:475:CD2:4257, V-B:PRO:540:C:9853, V-B:PRO:540:CA:9855, V-A:GLY:453:C:4040, V-B:TYR:539:C:9839, V-A:ARG:545:CZ:4924, V-A:ARG:545:CD:4921, V-A:GLY:453:CA:4042, V-A:HIS:456:CE1:4068, V-A:ARG:545:CG:4920, H-B:ALA:541:N:9863, H-B:TYR:539:OH:9850, V-A:TYR:531:CZ:4792, H-B:TYR:531:OH:9767, H-B:TYR:539:O:9840"]

$$$$
2i_Grossjean_2025
     RDKit          3D

 23 24  0  0  0  0  0  0  0  0999 V2000
  130.4540  119.9700   60.8310 C   0  0  0  0  0  0  0  0  0  0  0  0
  130.2650  121.4290   60.4570 C   0  0  0  0  0  0  0  0  0  0  0  0
  129.0940  122.1160   60.7650 C   0  0  0  0  0  0  0  0  0  0  0  0
  128.9700  123.4640   60.4000 C   0  0  0  0  0  0  0  0  0  0  0  0
  127.6670  124.2100   60.7480 C   0  0  0  0  0  0  0  0  0  0  0  0
  126.9330  124.3850   59.6480 F   0  0  0  0  0  0  0  0  0  0  0  0
  126.9590  123.5060   61.6320 F   0  0  0  0  0  0  0  0  0  0  0  0
  127.8870  125.4140   61.2790 F   0  0  0  0  0  0  0  0  0  0  0  0
  130.0500  124.0850   59.7230 C   0  0  0  0  0  0  0  0  0  0  0  0
  129.9740  125.4930   59.3190 C   0  0  0  0  0  0  0  0  0  0  0  0
  129.9150  126.6040   59.0000 N   0  0  0  0  0  0  0  0  0  0  0  0
  131.2010  123.3120   59.4480 C   0  0  0  0  0  0  0  0  0  0  0  0
  132.6190  123.9840   58.5950 S   0  0  0  0  0  0  0  0  0  0  0  0
  134.1040  123.5890   59.5680 C   0  0  0  0  0  0  0  0  0  0  0  0
  133.8120  123.5230   61.0690 C   0  0  0  0  0  0  0  0  0  0  0  0
  133.9690  122.4540   61.6620 O   0  0  0  0  0  0  0  0  0  0  0  0
  133.3690  124.6670   61.6330 N   0  0  0  0  0  0  0  0  0  0  0  0
  133.0230  124.8540   62.9610 C   0  0  0  0  0  0  0  0  0  0  0  0
  131.7580  124.9440   63.5610 C   0  0  0  0  0  0  0  0  0  0  0  0
  132.0190  125.1270   64.8990 C   0  0  0  0  0  0  0  0  0  0  0  0
  133.3590  125.1370   65.0930 O   0  0  0  0  0  0  0  0  0  0  0  0
  133.9810  124.9580   63.8560 N   0  0  0  0  0  0  0  0  0  0  0  0
  131.3020  122.0080   59.8120 N   0  0  0  0  0  0  0  0  0  0  0  0
  1  2  1  0
  2  3  2  0
  3  4  1  0
  4  5  1  0
  5  6  1  0
  5  7  1  0
  5  8  1  0
  4  9  2  0
  9 10  1  0
 10 11  3  0
  9 12  1  0
 12 13  1  0
 13 14  1  0
 14 15  1  0
 15 16  2  0
 15 17  1  0
 17 18  1  0
 18 19  1  0
 19 20  2  0
 20 21  1  0
 21 22  1  0
 12 23  2  0
 23  2  1  0
 22 18  2  0
M  END
>  <Binding energies>  (25) 
[-5.85]

>  <Ligand effiencies>  (25) 
[-0.24375]

>  <Interactions>  (25) 
["H-A:TYR:484:OH:4346, V-A:ASP:366:CG:3211, H-A:GLY:454:N:4048, V-B:TYR:539:CE2:9848, V-B:TYR:539:CD2:9846, V-A:ILE:369:CD1:3237, V-B:ALA:541:CB:9864, V-A:ILE:369:CG2:3235, V-A:LEU:475:CD2:4257, V-B:PRO:540:C:9853, H-A:ASP:366:OD1:3212, H-A:ARG:545:NH1:4925, V-A:TRP:381:CH2:3370, V-B:PRO:540:CA:9855, V-A:ARG:545:CZ:4924, V-B:GLU:543:CD:9880, H-A:ARG:545:NH2:4926, V-B:ALA:541:CA:9862, V-A:HIS:456:CE1:4068, V-A:ILE:369:CB:3234, H-A:ARG:545:NE:4922, H-B:TYR:539:OH:9850, H-A:ASP:366:OD2:3213"]

$$$$
2k_Grossjean_2025
     RDKit          3D

 28 28  0  0  0  0  0  0  0  0999 V2000
  130.2590  126.9120   71.3410 C   0  0  0  0  0  0  0  0  0  0  0  0
  128.9080  126.6350   71.0060 O   0  0  0  0  0  0  0  0  0  0  0  0
  128.2560  127.7130   70.3470 C   0  0  0  0  0  0  0  0  0  0  0  0
  128.0200  127.3530   68.8740 C   0  0  0  0  0  0  0  0  0  0  0  0
  128.9050  128.1120   68.0640 O   0  0  0  0  0  0  0  0  0  0  0  0
  130.1510  127.4760   67.8040 C   0  0  0  0  0  0  0  0  0  0  0  0
  129.9790  126.5510   66.5920 C   0  0  0  0  0  0  0  0  0  0  0  0
  131.2690  126.2770   66.0680 O   0  0  0  0  0  0  0  0  0  0  0  0
  131.3560  125.1210   65.2500 C   0  0  0  0  0  0  0  0  0  0  0  0
  131.1150  125.5260   63.7840 C   0  0  0  0  0  0  0  0  0  0  0  0
  131.9350  124.7660   62.8380 N   0  0  0  0  0  0  0  0  0  0  0  0
  133.2660  124.5770   62.9300 C   0  0  0  0  0  0  0  0  0  0  0  0
  133.9490  125.0110   63.8600 O   0  0  0  0  0  0  0  0  0  0  0  0
  133.9090  123.7920   61.7770 C   0  0  0  0  0  0  0  0  0  0  0  0
  133.0030  123.8480   60.1920 S   0  0  0  0  0  0  0  0  0  0  0  0
  131.4550  122.9690   60.3610 C   0  0  0  0  0  0  0  0  0  0  0  0
  130.3440  123.7450   60.4460 N   0  0  0  0  0  0  0  0  0  0  0  0
  129.1390  123.1480   60.5800 C   0  0  0  0  0  0  0  0  0  0  0  0
  127.9490  124.0820   60.6800 C   0  0  0  0  0  0  0  0  0  0  0  0
  128.9870  121.7650   60.6220 C   0  0  0  0  0  0  0  0  0  0  0  0
  130.1210  120.9430   60.5270 C   0  0  0  0  0  0  0  0  0  0  0  0
  129.9340  119.4140   60.5700 C   0  0  0  0  0  0  0  0  0  0  0  0
  130.7250  118.8220   61.4670 F   0  0  0  0  0  0  0  0  0  0  0  0
  128.6730  119.1170   60.8900 F   0  0  0  0  0  0  0  0  0  0  0  0
  130.2130  118.8860   59.3780 F   0  0  0  0  0  0  0  0  0  0  0  0
  131.3930  121.5560   60.3940 C   0  0  0  0  0  0  0  0  0  0  0  0
  132.6110  120.7460   60.2950 C   0  0  0  0  0  0  0  0  0  0  0  0
  133.5720  120.1060   60.2160 N   0  0  0  0  0  0  0  0  0  0  0  0
  1  2  1  0
  2  3  1  0
  3  4  1  0
  4  5  1  0
  5  6  1  0
  6  7  1  0
  7  8  1  0
  8  9  1  0
  9 10  1  0
 10 11  1  0
 11 12  1  0
 12 13  2  0
 12 14  1  0
 14 15  1  0
 15 16  1  0
 16 17  2  0
 17 18  1  0
 18 19  1  0
 18 20  2  0
 20 21  1  0
 21 22  1  0
 22 23  1  0
 22 24  1  0
 22 25  1  0
 21 26  2  0
 26 27  1  0
 27 28  3  0
 26 16  1  0
M  END
>  <Binding energies>  (26) 
[-5.48]

>  <Ligand effiencies>  (26) 
[-0.18896551724137933]

>  <Interactions>  (26) 
["H-A:TYR:484:OH:4346, H-A:GLY:454:N:4048, V-B:TYR:539:CE2:9848, V-B:TYR:539:CD2:9846, V-A:ILE:369:CD1:3237, V-B:ALA:541:CB:9864, V-A:ILE:369:CG2:3235, V-A:LEU:475:CD2:4257, V-B:PRO:540:C:9853, H-A:ARG:545:NH1:4925, V-A:TRP:381:CH2:3370, V-B:PRO:540:CA:9855, V-A:GLY:453:C:4040, V-B:TYR:539:C:9839, V-B:TYR:539:CG:9844, V-B:TYR:539:CB:9843, V-A:ARG:545:CZ:4924, V-B:GLU:543:CD:9880, H-A:ARG:545:NH2:4926, V-B:GLU:543:CB:9878, V-B:ALA:541:CA:9862, V-A:GLU:543:CD:4906, V-A:HIS:456:CE1:4068, V-B:GLU:543:CG:9879, V-A:TRP:381:CZ2:3368, H-A:ARG:545:NE:4922, V-B:HIS:456:CD2:9040, V-A:HIS:456:CD2:4066, V-B:HIS:456:CE1:9042, V-B:GLY:544:C:9884, V-A:GLY:544:C:4910, V-A:GLU:543:CG:4905, V-B:GLU:543:C:9874, V-A:TRP:381:CZ3:3369, V-A:PRO:482:CG:4325, V-A:PRO:482:CB:4324, V-A:TRP:381:CE2:3365, V-A:TRP:381:CE3:3366, V-A:LEU:475:CD1:4256, V-A:LEU:475:CG:4255, V-A:PRO:482:CD:4326"]

$$$$
3aa_Grossjean_2025
     RDKit          3D

 34 36  0  0  0  0  0  0  0  0999 V2000
  130.7870  126.2330   72.6340 C   0  0  0  0  0  0  0  0  0  0  0  0
  129.4320  125.6980   72.1580 C   0  0  0  0  0  0  0  0  0  0  0  0
  128.5010  126.7710   72.0770 O   0  0  0  0  0  0  0  0  0  0  0  0
  128.7600  127.8640   71.3140 C   0  0  0  0  0  0  0  0  0  0  0  0
  128.7440  129.0180   71.7520 O   0  0  0  0  0  0  0  0  0  0  0  0
  129.0500  127.5310   69.8780 C   0  0  0  0  0  0  0  0  0  0  0  0
  130.3610  127.3850   69.4000 C   0  0  0  0  0  0  0  0  0  0  0  0
  130.5940  127.0710   68.0640 C   0  0  0  0  0  0  0  0  0  0  0  0
  129.5270  126.8910   67.1820 C   0  0  0  0  0  0  0  0  0  0  0  0
  129.8730  126.5730   65.8540 N   0  0  0  0  0  0  0  0  0  0  0  0
  130.8540  125.7680   65.3890 C   0  0  0  0  0  0  0  0  0  0  0  0
  131.6690  125.1600   66.0840 O   0  0  0  0  0  0  0  0  0  0  0  0
  130.9320  125.6350   63.8680 C   0  0  0  0  0  0  0  0  0  0  0  0
  131.0690  123.8980   63.3470 S   0  0  0  0  0  0  0  0  0  0  0  0
  131.1330  123.8900   61.5690 C   0  0  0  0  0  0  0  0  0  0  0  0
  129.9150  123.8080   60.9820 N   0  0  0  0  0  0  0  0  0  0  0  0
  129.8210  123.7910   59.6280 C   0  0  0  0  0  0  0  0  0  0  0  0
  128.4380  123.7130   59.0540 C   0  0  0  0  0  0  0  0  0  0  0  0
  127.3200  124.0430   59.8360 C   0  0  0  0  0  0  0  0  0  0  0  0
  126.0320  123.9740   59.3100 C   0  0  0  0  0  0  0  0  0  0  0  0
  125.8460  123.5740   57.9910 C   0  0  0  0  0  0  0  0  0  0  0  0
  126.9380  123.2450   57.1950 C   0  0  0  0  0  0  0  0  0  0  0  0
  128.2240  123.3170   57.7230 C   0  0  0  0  0  0  0  0  0  0  0  0
  130.9650  123.8650   58.8270 C   0  0  0  0  0  0  0  0  0  0  0  0
  132.2390  123.9330   59.4120 C   0  0  0  0  0  0  0  0  0  0  0  0
  133.4750  124.0010   58.4960 C   0  0  0  0  0  0  0  0  0  0  0  0
  133.3460  124.9010   57.5190 F   0  0  0  0  0  0  0  0  0  0  0  0
  134.5540  124.3340   59.2050 F   0  0  0  0  0  0  0  0  0  0  0  0
  133.6830  122.8140   57.9250 F   0  0  0  0  0  0  0  0  0  0  0  0
  132.3330  123.9330   60.8250 C   0  0  0  0  0  0  0  0  0  0  0  0
  133.6380  123.9450   61.4910 C   0  0  0  0  0  0  0  0  0  0  0  0
  134.6700  123.9530   62.0170 N   0  0  0  0  0  0  0  0  0  0  0  0
  128.2140  127.0490   67.6510 C   0  0  0  0  0  0  0  0  0  0  0  0
  127.9830  127.3640   68.9860 C   0  0  0  0  0  0  0  0  0  0  0  0
  1  2  1  0
  2  3  1  0
  3  4  1  0
  4  5  2  0
  4  6  1  0
  6  7  2  0
  7  8  1  0
  8  9  2  0
  9 10  1  0
 10 11  1  0
 11 12  2  0
 11 13  1  0
 13 14  1  0
 14 15  1  0
 15 16  2  0
 16 17  1  0
 17 18  1  0
 18 19  2  0
 19 20  1  0
 20 21  2  0
 21 22  1  0
 22 23  2  0
 17 24  2  0
 24 25  1  0
 25 26  1  0
 26 27  1  0
 26 28  1  0
 26 29  1  0
 25 30  2  0
 30 31  1  0
 31 32  3  0
  9 33  1  0
 33 34  2  0
 34  6  1  0
 30 15  1  0
 23 18  1  0
M  END
>  <Binding energies>  (27) 
[-7.98]

>  <Ligand effiencies>  (27) 
[-0.228]

>  <Interactions>  (27) 
["H-B:GLU:543:OE1:9881, H-A:TYR:484:OH:4346, V-A:ASP:366:CG:3211, V-B:TYR:539:CZ:9849, H-A:GLY:454:N:4048, V-A:ASP:366:CA:3208, V-B:TYR:539:CE2:9848, V-B:TYR:539:CD2:9846, V-A:ASP:366:CB:3210, V-A:ILE:369:CD1:3237, V-A:ILE:369:CG2:3235, V-B:PRO:540:CA:9855, V-B:TYR:539:C:9839, V-B:PRO:540:N:9856, V-B:GLU:543:CD:9880, V-B:GLU:543:CB:9878, V-A:GLU:543:CD:4906, V-A:HIS:456:CE1:4068, V-A:ARG:545:CG:4920, V-B:GLU:543:CG:9879, V-A:ASP:366:C:3206, V-A:ILE:369:CB:3234, H-A:GLU:543:OE1:4907, H-A:GLU:543:OE2:4908, H-B:GLU:543:OE2:9882, V-A:HIS:456:CG:4064, V-B:HIS:456:CD2:9040, V-A:HIS:456:CD2:4066, V-B:HIS:456:CE1:9042, V-B:LYS:547:CE:9922, V-A:GLY:544:C:4910, V-A:GLU:543:CG:4905, V-A:GLU:543:C:4900, V-B:GLU:543:C:9874, V-B:PRO:540:CB:9857, V-B:GLY:544:CA:9886, V-B:PRO:540:CD:9859"]

$$$$
3ad_Grossjean_2025
     RDKit          3D

 29 31  0  0  0  0  0  0  0  0999 V2000
  126.8460  133.0310   64.6390 N   0  0  0  0  0  0  0  0  0  0  0  0
  126.8790  132.0660   64.0020 C   0  0  0  0  0  0  0  0  0  0  0  0
  126.9220  130.8440   63.1910 C   0  0  0  0  0  0  0  0  0  0  0  0
  127.0930  130.9130   61.7870 C   0  0  0  0  0  0  0  0  0  0  0  0
  127.2870  132.2440   61.0360 C   0  0  0  0  0  0  0  0  0  0  0  0
  126.4410  133.1950   61.4390 F   0  0  0  0  0  0  0  0  0  0  0  0
  128.5260  132.7000   61.2310 F   0  0  0  0  0  0  0  0  0  0  0  0
  127.0920  132.0660   59.7290 F   0  0  0  0  0  0  0  0  0  0  0  0
  127.0800  129.7180   61.0520 C   0  0  0  0  0  0  0  0  0  0  0  0
  126.8980  128.4910   61.6980 C   0  0  0  0  0  0  0  0  0  0  0  0
  126.8610  127.1860   60.9600 C   0  0  0  0  0  0  0  0  0  0  0  0
  126.5420  127.1440   59.5930 C   0  0  0  0  0  0  0  0  0  0  0  0
  126.5060  125.9370   58.9010 C   0  0  0  0  0  0  0  0  0  0  0  0
  126.7920  124.7500   59.5700 C   0  0  0  0  0  0  0  0  0  0  0  0
  127.1130  124.7650   60.9220 C   0  0  0  0  0  0  0  0  0  0  0  0
  127.1490  125.9750   61.6110 C   0  0  0  0  0  0  0  0  0  0  0  0
  126.7290  128.4310   63.0440 N   0  0  0  0  0  0  0  0  0  0  0  0
  126.7590  129.5690   63.7770 C   0  0  0  0  0  0  0  0  0  0  0  0
  126.5330  129.3000   65.5210 S   0  0  0  0  0  0  0  0  0  0  0  0
  128.0390  128.4920   66.1410 C   0  0  0  0  0  0  0  0  0  0  0  0
  127.8450  127.9070   67.5420 C   0  0  0  0  0  0  0  0  0  0  0  0
  126.7720  127.3750   67.8260 O   0  0  0  0  0  0  0  0  0  0  0  0
  128.9030  128.0300   68.3720 N   0  0  0  0  0  0  0  0  0  0  0  0
  129.0600  127.5960   69.7020 C   0  0  0  0  0  0  0  0  0  0  0  0
  127.9450  127.7630   70.5290 C   0  0  0  0  0  0  0  0  0  0  0  0
  127.9950  127.3710   71.8640 C   0  0  0  0  0  0  0  0  0  0  0  0
  129.1630  126.8150   72.3770 C   0  0  0  0  0  0  0  0  0  0  0  0
  130.2830  126.6500   71.5660 C   0  0  0  0  0  0  0  0  0  0  0  0
  130.2380  127.0410   70.2300 C   0  0  0  0  0  0  0  0  0  0  0  0
  1  2  3  0
  2  3  1  0
  3  4  2  0
  4  5  1  0
  5  6  1  0
  5  7  1  0
  5  8  1  0
  4  9  1  0
  9 10  2  0
 10 11  1  0
 11 12  2  0
 12 13  1  0
 13 14  2  0
 14 15  1  0
 15 16  2  0
 10 17  1  0
 17 18  2  0
 18 19  1  0
 19 20  1  0
 20 21  1  0
 21 22  2  0
 21 23  1  0
 23 24  1  0
 24 25  2  0
 25 26  1  0
 26 27  2  0
 27 28  1  0
 28 29  2  0
 18  3  1  0
 29 24  1  0
 16 11  1  0
M  END
>  <Binding energies>  (28) 
[-6.48]

>  <Ligand effiencies>  (28) 
[-0.21600000000000003]

>  <Interactions>  (28) 
["V-B:GLU:543:CD:9880, V-A:GLU:543:CD:4906, V-A:HIS:456:CE1:4068, V-B:GLU:543:CG:9879, H-A:GLU:543:OE2:4908, V-A:TYR:539:CE2:4874, H-B:ARG:545:NH2:9900, V-B:ASP:366:CG:8185, V-A:HIS:456:CG:4064, V-B:HIS:456:CD2:9040, V-A:HIS:456:CD2:4066, V-B:HIS:456:CE1:9042, V-B:LYS:547:CE:9922, V-B:GLY:544:C:9884, V-A:GLY:544:C:4910, V-A:GLU:543:CG:4905, V-A:GLU:543:C:4900, V-A:GLU:543:CB:4904, V-B:GLY:544:CA:9886, H-B:TYR:484:OH:9320, H-A:GLU:543:O:4901, V-A:ALA:541:CB:4890, V-A:TYR:539:CD2:4872, V-B:LEU:475:CD2:9231, V-B:TYR:484:CZ:9319, V-B:TYR:484:CE1:9317"]

$$$$
3ai_Grossjean_2025
     RDKit          3D

 28 30  0  0  0  0  0  0  0  0999 V2000
  133.9290  124.5480   63.1630 N   0  0  0  0  0  0  0  0  0  0  0  0
  132.9730  124.3750   62.5350 C   0  0  0  0  0  0  0  0  0  0  0  0
  131.7620  124.1560   61.7390 C   0  0  0  0  0  0  0  0  0  0  0  0
  131.7310  123.1680   60.7240 C   0  0  0  0  0  0  0  0  0  0  0  0
  132.9290  122.2460   60.4260 C   0  0  0  0  0  0  0  0  0  0  0  0
  133.5510  121.8300   61.5310 F   0  0  0  0  0  0  0  0  0  0  0  0
  132.5150  121.1620   59.7660 F   0  0  0  0  0  0  0  0  0  0  0  0
  133.8290  122.8880   59.6810 F   0  0  0  0  0  0  0  0  0  0  0  0
  130.5640  123.0290   59.9580 C   0  0  0  0  0  0  0  0  0  0  0  0
  129.4600  123.8540   60.1960 C   0  0  0  0  0  0  0  0  0  0  0  0
  128.1920  123.7570   59.4010 C   0  0  0  0  0  0  0  0  0  0  0  0
  128.2130  123.3050   58.0720 C   0  0  0  0  0  0  0  0  0  0  0  0
  127.0390  123.2080   57.3300 C   0  0  0  0  0  0  0  0  0  0  0  0
  125.8250  123.5610   57.9090 C   0  0  0  0  0  0  0  0  0  0  0  0
  125.7770  124.0100   59.2250 C   0  0  0  0  0  0  0  0  0  0  0  0
  126.9520  124.1050   59.9640 C   0  0  0  0  0  0  0  0  0  0  0  0
  129.4960  124.8050   61.1630 N   0  0  0  0  0  0  0  0  0  0  0  0
  130.6030  124.9420   61.9320 C   0  0  0  0  0  0  0  0  0  0  0  0
  130.4590  126.2230   63.1610 S   0  0  0  0  0  0  0  0  0  0  0  0
  131.3960  125.6920   64.6350 C   0  0  0  0  0  0  0  0  0  0  0  0
  130.5770  125.6220   65.9330 C   0  0  0  0  0  0  0  0  0  0  0  0
  130.4160  124.5480   66.5190 O   0  0  0  0  0  0  0  0  0  0  0  0
  130.0740  126.8060   66.3470 N   0  0  0  0  0  0  0  0  0  0  0  0
  129.3060  127.0440   67.4800 C   0  0  0  0  0  0  0  0  0  0  0  0
  129.8580  127.2780   68.7390 C   0  0  0  0  0  0  0  0  0  0  0  0
  128.7810  127.4610   69.5740 C   0  0  0  0  0  0  0  0  0  0  0  0
  127.6390  127.3440   68.8570 O   0  0  0  0  0  0  0  0  0  0  0  0
  127.9850  127.0800   67.5300 N   0  0  0  0  0  0  0  0  0  0  0  0
  1  2  3  0
  2  3  1  0
  3  4  2  0
  4  5  1  0
  5  6  1  0
  5  7  1  0
  5  8  1  0
  4  9  1  0
  9 10  2  0
 10 11  1  0
 11 12  2  0
 12 13  1  0
 13 14  2  0
 14 15  1  0
 15 16  2  0
 10 17  1  0
 17 18  2  0
 18 19  1  0
 19 20  1  0
 20 21  1  0
 21 22  2  0
 21 23  1  0
 23 24  1  0
 24 25  1  0
 25 26  2  0
 26 27  1  0
 27 28  1  0
 18  3  1  0
 28 24  2  0
 16 11  1  0
M  END
>  <Binding energies>  (29) 
[-7.01]

>  <Ligand effiencies>  (29) 
[-0.24172413793103448]

>  <Interactions>  (29) 
["H-A:TYR:484:OH:4346, H-A:GLY:454:N:4048, V-B:TYR:539:CE2:9848, V-B:TYR:539:CD2:9846, V-A:GLY:454:CA:4047, V-A:ILE:369:CD1:3237, V-A:ILE:369:CG2:3235, V-A:LEU:475:CD2:4257, V-A:TRP:381:CH2:3370, V-B:PRO:540:CA:9855, V-B:TYR:539:C:9839, V-B:PRO:540:N:9856, V-A:ARG:545:CZ:4924, V-B:GLU:543:CD:9880, H-A:ARG:545:NH2:4926, V-B:GLU:543:CB:9878, V-A:GLU:543:CD:4906, V-A:HIS:456:CE1:4068, V-B:GLU:543:CG:9879, V-A:ILE:369:CB:3234, H-A:GLU:543:OE1:4907, H-A:GLU:543:OE2:4908, H-B:GLU:543:OE2:9882, V-B:HIS:456:CE1:9042, V-A:GLU:543:CG:4905, V-B:PRO:540:CB:9857, V-B:PRO:540:CD:9859"]

$$$$
3aj_Grossjean_2025
     RDKit          3D

 28 30  0  0  0  0  0  0  0  0999 V2000
  130.8000  122.1220   64.1660 N   0  0  0  0  0  0  0  0  0  0  0  0
  130.7300  123.0960   63.5460 C   0  0  0  0  0  0  0  0  0  0  0  0
  130.6400  124.3290   62.7580 C   0  0  0  0  0  0  0  0  0  0  0  0
  130.2300  124.2930   61.4030 C   0  0  0  0  0  0  0  0  0  0  0  0
  129.8170  122.9890   60.6930 C   0  0  0  0  0  0  0  0  0  0  0  0
  129.5250  123.1730   59.4030 F   0  0  0  0  0  0  0  0  0  0  0  0
  130.8090  122.1010   60.7580 F   0  0  0  0  0  0  0  0  0  0  0  0
  128.7350  122.4740   61.2770 F   0  0  0  0  0  0  0  0  0  0  0  0
  130.2050  125.4950   60.6780 C   0  0  0  0  0  0  0  0  0  0  0  0
  130.5830  126.6960   61.2870 C   0  0  0  0  0  0  0  0  0  0  0  0
  130.5850  128.0050   60.5580 C   0  0  0  0  0  0  0  0  0  0  0  0
  130.5680  129.2180   61.2630 C   0  0  0  0  0  0  0  0  0  0  0  0
  130.5740  130.4380   60.5910 C   0  0  0  0  0  0  0  0  0  0  0  0
  130.5950  130.4600   59.2000 C   0  0  0  0  0  0  0  0  0  0  0  0
  130.6140  129.2710   58.4780 C   0  0  0  0  0  0  0  0  0  0  0  0
  130.6100  128.0540   59.1540 C   0  0  0  0  0  0  0  0  0  0  0  0
  130.9830  126.7240   62.5850 N   0  0  0  0  0  0  0  0  0  0  0  0
  130.9920  125.5810   63.3120 C   0  0  0  0  0  0  0  0  0  0  0  0
  131.5210  125.8150   64.9950 S   0  0  0  0  0  0  0  0  0  0  0  0
  130.0470  126.2110   65.9950 C   0  0  0  0  0  0  0  0  0  0  0  0
  130.3370  126.9180   67.3270 C   0  0  0  0  0  0  0  0  0  0  0  0
  131.2960  127.6860   67.4390 O   0  0  0  0  0  0  0  0  0  0  0  0
  129.4680  126.6270   68.3210 N   0  0  0  0  0  0  0  0  0  0  0  0
  129.4920  127.1280   69.6160 C   0  0  0  0  0  0  0  0  0  0  0  0
  130.5280  127.2440   70.4190 N   0  0  0  0  0  0  0  0  0  0  0  0
  130.1860  127.7680   71.5790 C   0  0  0  0  0  0  0  0  0  0  0  0
  128.8410  128.0900   71.7370 C   0  0  0  0  0  0  0  0  0  0  0  0
  127.9870  127.6790   70.2810 S   0  0  0  0  0  0  0  0  0  0  0  0
  1  2  3  0
  2  3  1  0
  3  4  2  0
  4  5  1  0
  5  6  1  0
  5  7  1  0
  5  8  1  0
  4  9  1  0
  9 10  2  0
 10 11  1  0
 11 12  2  0
 12 13  1  0
 13 14  2  0
 14 15  1  0
 15 16  2  0
 10 17  1  0
 17 18  2  0
 18 19  1  0
 19 20  1  0
 20 21  1  0
 21 22  2  0
 21 23  1  0
 23 24  1  0
 24 25  2  0
 25 26  1  0
 26 27  2  0
 27 28  1  0
 18  3  1  0
 28 24  1  0
 16 11  1  0
M  END
>  <Binding energies>  (30) 
[-6.03]

>  <Ligand effiencies>  (30) 
[-0.20793103448275863]

>  <Interactions>  (30) 
["H-A:TYR:484:OH:4346, V-A:ASP:366:CG:3211, V-B:TYR:539:CE2:9848, V-B:TYR:539:CD2:9846, V-B:ALA:541:CB:9864, V-B:GLU:543:CD:9880, H-A:ARG:545:NH2:4926, V-B:GLU:543:CB:9878, V-B:ALA:541:CA:9862, V-A:GLU:543:CD:4906, V-A:HIS:456:CE1:4068, V-B:GLU:543:CG:9879, H-A:ARG:545:NE:4922, V-B:HIS:456:CD2:9040, V-B:HIS:456:CE1:9042, V-B:GLY:544:C:9884, V-A:GLY:544:C:4910, V-A:GLU:543:CG:4905, V-A:GLY:544:CA:4912, V-B:GLU:543:C:9874, H-A:HIS:456:NE2:4069, H-B:GLU:543:O:9875"]

$$$$
3ak_Grossjean_2025
     RDKit          3D

 33 34  0  0  0  0  0  0  0  0999 V2000
  130.2120  123.1670   73.3910 C   0  0  0  0  0  0  0  0  0  0  0  0
  130.2290  124.5790   73.2480 O   0  0  0  0  0  0  0  0  0  0  0  0
  131.5280  125.1430   73.3630 C   0  0  0  0  0  0  0  0  0  0  0  0
  131.4000  126.6120   73.7830 C   0  0  0  0  0  0  0  0  0  0  0  0
  130.1720  127.1310   73.2830 O   0  0  0  0  0  0  0  0  0  0  0  0
  130.1720  127.4910   71.9040 C   0  0  0  0  0  0  0  0  0  0  0  0
  129.1530  126.7050   71.0580 C   0  0  0  0  0  0  0  0  0  0  0  0
  129.6600  126.5530   69.7390 O   0  0  0  0  0  0  0  0  0  0  0  0
  129.4770  127.6980   68.9170 C   0  0  0  0  0  0  0  0  0  0  0  0
  130.5410  127.7280   67.8050 C   0  0  0  0  0  0  0  0  0  0  0  0
  130.2420  126.8380   66.6820 N   0  0  0  0  0  0  0  0  0  0  0  0
  131.1430  126.1430   65.9620 C   0  0  0  0  0  0  0  0  0  0  0  0
  132.3520  126.1770   66.1950 O   0  0  0  0  0  0  0  0  0  0  0  0
  130.6470  125.2710   64.7970 C   0  0  0  0  0  0  0  0  0  0  0  0
  130.3870  126.1170   63.1940 S   0  0  0  0  0  0  0  0  0  0  0  0
  130.6940  124.9520   61.8750 C   0  0  0  0  0  0  0  0  0  0  0  0
  129.6620  124.7500   61.0190 N   0  0  0  0  0  0  0  0  0  0  0  0
  129.7970  123.8780   59.9870 C   0  0  0  0  0  0  0  0  0  0  0  0
  128.6060  123.7170   59.0900 C   0  0  0  0  0  0  0  0  0  0  0  0
  128.7630  123.3070   57.7570 C   0  0  0  0  0  0  0  0  0  0  0  0
  127.6600  123.1520   56.9200 C   0  0  0  0  0  0  0  0  0  0  0  0
  126.3830  123.4040   57.4080 C   0  0  0  0  0  0  0  0  0  0  0  0
  126.1990  123.8080   58.7260 C   0  0  0  0  0  0  0  0  0  0  0  0
  127.3040  123.9620   59.5600 C   0  0  0  0  0  0  0  0  0  0  0  0
  130.9980  123.1910   59.7810 C   0  0  0  0  0  0  0  0  0  0  0  0
  132.0820  123.3830   60.6510 C   0  0  0  0  0  0  0  0  0  0  0  0
  133.3880  122.6070   60.3930 C   0  0  0  0  0  0  0  0  0  0  0  0
  134.3410  123.4420   59.9790 F   0  0  0  0  0  0  0  0  0  0  0  0
  133.7940  122.0090   61.5140 F   0  0  0  0  0  0  0  0  0  0  0  0
  133.2530  121.6600   59.4620 F   0  0  0  0  0  0  0  0  0  0  0  0
  131.9310  124.2860   61.7300 C   0  0  0  0  0  0  0  0  0  0  0  0
  133.0300  124.5260   62.6710 C   0  0  0  0  0  0  0  0  0  0  0  0
  133.8970  124.7150   63.4150 N   0  0  0  0  0  0  0  0  0  0  0  0
  1  2  1  0
  2  3  1  0
  3  4  1  0
  4  5  1  0
  5  6  1  0
  6  7  1  0
  7  8  1  0
  8  9  1  0
  9 10  1  0
 10 11  1  0
 11 12  1  0
 12 13  2  0
 12 14  1  0
 14 15  1  0
 15 16  1  0
 16 17  2  0
 17 18  1  0
 18 19  1  0
 19 20  2  0
 20 21  1  0
 21 22  2  0
 22 23  1  0
 23 24  2  0
 18 25  2  0
 25 26  1  0
 26 27  1  0
 27 28  1  0
 27 29  1  0
 27 30  1  0
 26 31  2  0
 31 32  1  0
 32 33  3  0
 31 16  1  0
 24 19  1  0
M  END
>  <Binding energies>  (31) 
[-6.17]

>  <Ligand effiencies>  (31) 
[-0.1814705882352941]

>  <Interactions>  (31) 
["H-B:GLU:543:OE1:9881, H-A:TYR:484:OH:4346, V-B:TYR:539:CZ:9849, H-A:GLY:454:N:4048, V-B:TYR:539:CE2:9848, V-B:TYR:539:CD2:9846, V-A:GLY:454:CA:4047, V-A:ILE:369:CD1:3237, V-A:ILE:369:CG2:3235, V-A:LEU:475:CD2:4257, H-A:ARG:545:NH1:4925, V-B:PRO:540:CA:9855, V-B:TYR:539:C:9839, V-B:PRO:540:N:9856, V-B:TYR:539:CG:9844, V-A:ARG:545:CZ:4924, V-B:GLU:543:CD:9880, H-A:ARG:545:NH2:4926, V-B:GLU:543:CB:9878, V-A:GLU:543:CD:4906, V-A:HIS:456:CE1:4068, V-A:ARG:545:CG:4920, V-A:ILE:369:CB:3234, H-A:GLU:543:OE2:4908, H-B:GLU:543:OE2:9882, H-A:ARG:545:NE:4922, V-A:HIS:456:CB:4063, V-A:HIS:456:CG:4064, V-A:LYS:547:CE:4948, V-A:HIS:456:CD2:4066, H-A:LYS:547:NZ:4949, V-B:LYS:547:CE:9922, H-B:LYS:547:NZ:9923, V-A:GLY:544:C:4910, V-A:GLU:543:CG:4905, V-A:GLY:544:CA:4912, V-A:GLU:543:C:4900, V-A:ILE:369:CG1:3236, V-B:PRO:540:CB:9857, V-A:GLU:543:CB:4904, V-A:LYS:547:CD:4947"]

$$$$
3bk_Grossjean_2025
     RDKit          3D

 30 31  0  0  0  0  0  0  0  0999 V2000
  130.7260  122.5150   73.6590 C   0  0  0  0  0  0  0  0  0  0  0  0
  130.6120  123.8810   74.0280 O   0  0  0  0  0  0  0  0  0  0  0  0
  131.8580  124.5630   74.0660 C   0  0  0  0  0  0  0  0  0  0  0  0
  131.6570  126.0260   73.6470 C   0  0  0  0  0  0  0  0  0  0  0  0
  130.2790  126.2570   73.3880 O   0  0  0  0  0  0  0  0  0  0  0  0
  130.0300  126.9140   72.1520 C   0  0  0  0  0  0  0  0  0  0  0  0
  128.6170  127.5130   72.1730 C   0  0  0  0  0  0  0  0  0  0  0  0
  128.1240  127.6050   70.8430 O   0  0  0  0  0  0  0  0  0  0  0  0
  129.1080  127.3580   69.8470 C   0  0  0  0  0  0  0  0  0  0  0  0
  128.4470  127.3770   68.4610 C   0  0  0  0  0  0  0  0  0  0  0  0
  129.3470  126.9050   67.4070 N   0  0  0  0  0  0  0  0  0  0  0  0
  130.6630  127.1670   67.3290 C   0  0  0  0  0  0  0  0  0  0  0  0
  131.2770  127.8340   68.1630 O   0  0  0  0  0  0  0  0  0  0  0  0
  131.4090  126.5640   66.1370 C   0  0  0  0  0  0  0  0  0  0  0  0
  130.5800  125.0750   65.4970 S   0  0  0  0  0  0  0  0  0  0  0  0
  131.2440  124.6880   63.8860 C   0  0  0  0  0  0  0  0  0  0  0  0
  130.3350  124.3740   62.9290 N   0  0  0  0  0  0  0  0  0  0  0  0
  130.7490  124.0620   61.6720 C   0  0  0  0  0  0  0  0  0  0  0  0
  129.6780  123.7490   60.6710 C   0  0  0  0  0  0  0  0  0  0  0  0
  128.3330  123.6580   61.0630 C   0  0  0  0  0  0  0  0  0  0  0  0
  127.3350  123.3620   60.1380 C   0  0  0  0  0  0  0  0  0  0  0  0
  127.6700  123.1540   58.8050 C   0  0  0  0  0  0  0  0  0  0  0  0
  128.9940  123.2420   58.3890 C   0  0  0  0  0  0  0  0  0  0  0  0
  129.9890  123.5400   59.3170 C   0  0  0  0  0  0  0  0  0  0  0  0
  132.1100  124.0650   61.3450 C   0  0  0  0  0  0  0  0  0  0  0  0
  133.0620  124.3840   62.3200 C   0  0  0  0  0  0  0  0  0  0  0  0
  134.5360  124.3740   61.9200 C   0  0  0  0  0  0  0  0  0  0  0  0
  132.6310  124.7050   63.6240 C   0  0  0  0  0  0  0  0  0  0  0  0
  133.6050  125.0460   64.6650 C   0  0  0  0  0  0  0  0  0  0  0  0
  134.3750  125.3150   65.4870 N   0  0  0  0  0  0  0  0  0  0  0  0
  1  2  1  0
  2  3  1  0
  3  4  1  0
  4  5  1  0
  5  6  1  0
  6  7  1  0
  7  8  1  0
  8  9  1  0
  9 10  1  0
 10 11  1  0
 11 12  1  0
 12 13  2  0
 12 14  1  0
 14 15  1  0
 15 16  1  0
 16 17  2  0
 17 18  1  0
 18 19  1  0
 19 20  2  0
 20 21  1  0
 21 22  2  0
 22 23  1  0
 23 24  2  0
 18 25  2  0
 25 26  1  0
 26 27  1  0
 26 28  2  0
 28 29  1  0
 29 30  3  0
 28 16  1  0
 24 19  1  0
M  END
>  <Binding energies>  (32) 
[-6.88]

>  <Ligand effiencies>  (32) 
[-0.22193548387096773]

>  <Interactions>  (32) 
["H-B:GLU:543:OE1:9881, H-A:TYR:484:OH:4346, H-A:GLY:454:N:4048, V-B:TYR:539:CE2:9848, V-B:TYR:539:CD2:9846, V-A:GLY:454:CA:4047, V-A:ILE:369:CD1:3237, V-B:ALA:541:CB:9864, V-B:PRO:540:C:9853, V-B:PRO:540:CA:9855, V-A:GLY:453:C:4040, V-B:TYR:539:C:9839, V-B:PRO:540:N:9856, V-A:ARG:545:CZ:4924, V-B:GLU:543:CD:9880, V-B:GLU:543:CB:9878, V-A:ARG:545:CD:4921, V-A:GLY:453:CA:4042, V-A:GLU:543:CD:4906, V-A:HIS:456:CE1:4068, V-A:ARG:545:CG:4920, V-B:GLU:543:CG:9879, H-A:GLU:543:OE2:4908, H-B:GLU:543:OE2:9882, H-A:ARG:545:NE:4922, V-A:HIS:456:CB:4063, V-A:HIS:456:CG:4064, V-A:HIS:456:CD2:4066, V-B:HIS:456:CE1:9042, H-B:LYS:547:NZ:9923, V-A:GLU:543:CG:4905, V-B:GLU:543:C:9874, H-A:ARG:545:N:4918, H-B:GLU:543:O:9875"]

$$$$
3cb_Grossjean_2025
     RDKit          3D

 30 32  0  0  0  0  0  0  0  0999 V2000
  129.2200  125.6050   72.2010 C   0  0  0  0  0  0  0  0  0  0  0  0
  128.9270  126.8830   72.7470 O   0  0  0  0  0  0  0  0  0  0  0  0
  128.9190  127.9920   71.9640 C   0  0  0  0  0  0  0  0  0  0  0  0
  128.6640  129.1230   72.3900 O   0  0  0  0  0  0  0  0  0  0  0  0
  129.2490  127.7080   70.5270 C   0  0  0  0  0  0  0  0  0  0  0  0
  130.5730  127.6210   70.0710 C   0  0  0  0  0  0  0  0  0  0  0  0
  130.8440  127.3530   68.7330 C   0  0  0  0  0  0  0  0  0  0  0  0
  129.8040  127.1710   67.8210 C   0  0  0  0  0  0  0  0  0  0  0  0
  130.1920  126.9010   66.4930 N   0  0  0  0  0  0  0  0  0  0  0  0
  130.5450  125.7340   65.9120 C   0  0  0  0  0  0  0  0  0  0  0  0
  130.5680  124.6420   66.4810 O   0  0  0  0  0  0  0  0  0  0  0  0
  130.9150  125.8500   64.4250 C   0  0  0  0  0  0  0  0  0  0  0  0
  132.6530  125.4520   64.0320 S   0  0  0  0  0  0  0  0  0  0  0  0
  132.6700  124.5410   62.5020 C   0  0  0  0  0  0  0  0  0  0  0  0
  133.4080  123.4050   62.5590 N   0  0  0  0  0  0  0  0  0  0  0  0
  133.4930  122.6310   61.4550 C   0  0  0  0  0  0  0  0  0  0  0  0
  134.3240  121.3700   61.5950 C   0  0  0  0  0  0  0  0  0  0  0  0
  132.8570  122.9570   60.2600 C   0  0  0  0  0  0  0  0  0  0  0  0
  132.1030  124.1340   60.1730 C   0  0  0  0  0  0  0  0  0  0  0  0
  131.4450  124.4430   58.8660 C   0  0  0  0  0  0  0  0  0  0  0  0
  132.1190  125.2010   57.9000 C   0  0  0  0  0  0  0  0  0  0  0  0
  131.5200  125.4850   56.6760 C   0  0  0  0  0  0  0  0  0  0  0  0
  130.2390  125.0070   56.4100 C   0  0  0  0  0  0  0  0  0  0  0  0
  129.5570  124.2460   57.3550 C   0  0  0  0  0  0  0  0  0  0  0  0
  130.1610  123.9620   58.5780 C   0  0  0  0  0  0  0  0  0  0  0  0
  132.0150  124.9650   61.3200 C   0  0  0  0  0  0  0  0  0  0  0  0
  131.3170  126.2530   61.2590 C   0  0  0  0  0  0  0  0  0  0  0  0
  130.7670  127.2690   61.2100 N   0  0  0  0  0  0  0  0  0  0  0  0
  128.4770  127.2510   68.2700 C   0  0  0  0  0  0  0  0  0  0  0  0
  128.2060  127.5190   69.6100 C   0  0  0  0  0  0  0  0  0  0  0  0
  1  2  1  0
  2  3  1  0
  3  4  2  0
  3  5  1  0
  5  6  2  0
  6  7  1  0
  7  8  2  0
  8  9  1  0
  9 10  1  0
 10 11  2  0
 10 12  1  0
 12 13  1  0
 13 14  1  0
 14 15  2  0
 15 16  1  0
 16 17  1  0
 16 18  2  0
 18 19  1  0
 19 20  1  0
 20 21  2  0
 21 22  1  0
 22 23  2  0
 23 24  1  0
 24 25  2  0
 19 26  2  0
 26 27  1  0
 27 28  3  0
  8 29  1  0
 29 30  2  0
 30  5  1  0
 26 14  1  0
 25 20  1  0
M  END
>  <Binding energies>  (33) 
[-8.27]

>  <Ligand effiencies>  (33) 
[-0.2667741935483871]

>  <Interactions>  (33) 
["H-A:TYR:484:OH:4346, V-A:ASP:366:CG:3211, V-B:TYR:539:CZ:9849, H-A:GLY:454:N:4048, V-B:TYR:539:CE2:9848, V-B:TYR:539:CD2:9846, V-A:ASP:366:CB:3210, V-A:GLY:454:CA:4047, V-A:ILE:369:CD1:3237, V-A:ILE:369:CG2:3235, V-A:LEU:475:CD2:4257, V-B:GLU:543:CD:9880, H-A:ARG:545:NH2:4926, V-B:GLU:543:CB:9878, V-A:GLU:543:CD:4906, V-A:HIS:456:CE1:4068, V-A:ARG:545:CG:4920, V-B:GLU:543:CG:9879, H-A:GLU:543:OE1:4907, H-A:GLU:543:OE2:4908, H-B:GLU:543:OE2:9882, H-A:ARG:545:NE:4922, V-A:SER:385:C:3403, V-A:HIS:456:CD2:4066, H-A:LYS:547:NZ:4949, V-B:HIS:456:CE1:9042, V-B:LYS:547:CE:9922, H-B:LYS:547:NZ:9923, V-A:GLY:544:C:4910, V-A:GLU:543:CG:4905, V-A:GLY:544:CA:4912, V-A:GLU:543:C:4900, V-B:GLU:543:C:9874, V-B:GLY:544:CA:9886"]

$$$$
3ch_Grossjean_2025
     RDKit          3D

 32 34  0  0  0  0  0  0  0  0999 V2000
  133.6310  125.1020   65.7680 C   0  0  0  0  0  0  0  0  0  0  0  0
  133.7080  124.8620   64.3660 O   0  0  0  0  0  0  0  0  0  0  0  0
  132.5510  124.8750   63.6070 C   0  0  0  0  0  0  0  0  0  0  0  0
  131.5990  125.9070   63.6450 C   0  0  0  0  0  0  0  0  0  0  0  0
  130.4530  125.8570   62.8390 C   0  0  0  0  0  0  0  0  0  0  0  0
  129.4480  126.8420   62.8040 N   0  0  0  0  0  0  0  0  0  0  0  0
  128.3590  126.9360   62.0090 C   0  0  0  0  0  0  0  0  0  0  0  0
  128.0360  126.1260   61.1410 O   0  0  0  0  0  0  0  0  0  0  0  0
  127.4560  128.1420   62.2680 C   0  0  0  0  0  0  0  0  0  0  0  0
  126.7930  128.8460   60.7300 S   0  0  0  0  0  0  0  0  0  0  0  0
  127.8520  130.2150   60.3160 C   0  0  0  0  0  0  0  0  0  0  0  0
  127.4050  131.4130   60.7680 N   0  0  0  0  0  0  0  0  0  0  0  0
  128.1350  132.5180   60.4980 C   0  0  0  0  0  0  0  0  0  0  0  0
  127.5750  133.8240   61.0280 C   0  0  0  0  0  0  0  0  0  0  0  0
  129.3250  132.4750   59.7760 C   0  0  0  0  0  0  0  0  0  0  0  0
  129.8080  131.2450   59.3060 C   0  0  0  0  0  0  0  0  0  0  0  0
  131.0830  131.2480   58.5270 C   0  0  0  0  0  0  0  0  0  0  0  0
  132.3090  131.0810   59.1830 C   0  0  0  0  0  0  0  0  0  0  0  0
  133.5020  131.0910   58.4640 C   0  0  0  0  0  0  0  0  0  0  0  0
  133.4730  131.2720   57.0840 C   0  0  0  0  0  0  0  0  0  0  0  0
  132.2630  131.4460   56.4180 C   0  0  0  0  0  0  0  0  0  0  0  0
  131.0720  131.4370   57.1400 C   0  0  0  0  0  0  0  0  0  0  0  0
  129.0630  130.0730   59.5980 C   0  0  0  0  0  0  0  0  0  0  0  0
  129.5680  128.7520   59.2140 C   0  0  0  0  0  0  0  0  0  0  0  0
  129.9650  127.7080   58.9110 N   0  0  0  0  0  0  0  0  0  0  0  0
  130.2550  124.7540   62.0060 C   0  0  0  0  0  0  0  0  0  0  0  0
  131.1920  123.7100   61.9520 C   0  0  0  0  0  0  0  0  0  0  0  0
  131.0600  122.5950   61.1420 O   0  0  0  0  0  0  0  0  0  0  0  0
  129.8040  121.9280   61.0670 C   0  0  0  0  0  0  0  0  0  0  0  0
  132.3340  123.7820   62.7590 C   0  0  0  0  0  0  0  0  0  0  0  0
  133.2670  122.7740   62.7030 O   0  0  0  0  0  0  0  0  0  0  0  0
  133.8760  122.6190   61.4280 C   0  0  0  0  0  0  0  0  0  0  0  0
  1  2  1  0
  2  3  1  0
  3  4  2  0
  4  5  1  0
  5  6  1  0
  6  7  1  0
  7  8  2  0
  7  9  1  0
  9 10  1  0
 10 11  1  0
 11 12  2  0
 12 13  1  0
 13 14  1  0
 13 15  2  0
 15 16  1  0
 16 17  1  0
 17 18  2  0
 18 19  1  0
 19 20  2  0
 20 21  1  0
 21 22  2  0
 16 23  2  0
 23 24  1  0
 24 25  3  0
  5 26  2  0
 26 27  1  0
 27 28  1  0
 28 29  1  0
 27 30  2  0
 30 31  1  0
 31 32  1  0
 30  3  1  0
 23 11  1  0
 22 17  1  0
M  END
>  <Binding energies>  (34) 
[-6.9]

>  <Ligand effiencies>  (34) 
[-0.2090909090909091]

>  <Interactions>  (34) 
["H-B:GLU:543:OE1:9881, H-A:TYR:484:OH:4346, V-A:ASP:366:CG:3211, H-A:GLY:454:N:4048, V-A:GLY:454:CA:4047, V-A:ILE:369:CD1:3237, V-B:ALA:541:CB:9864, V-A:ARG:545:CZ:4924, V-A:TYR:484:CZ:4345, V-B:GLU:543:CD:9880, V-A:ARG:545:CD:4921, V-A:GLU:543:CD:4906, V-A:HIS:456:CE1:4068, V-A:ARG:545:CG:4920, V-A:PRO:540:C:4879, V-A:PRO:540:CB:4883, V-A:PRO:540:CA:4881, H-A:GLU:543:OE1:4907, V-A:TYR:539:C:4865, H-A:GLU:543:OE2:4908, H-B:GLU:543:OE2:9882, H-A:ARG:545:NE:4922, V-A:PRO:540:N:4882, V-A:ALA:541:CB:4890, V-A:TYR:531:CZ:4792, V-A:TYR:539:CD2:4872, V-A:LEU:363:CA:3183, V-A:TYR:531:CE2:4791, V-A:LEU:363:CD1:3187"]

$$$$
3ci_Grossjean_2025
     RDKit          3D

 25 27  0  0  0  0  0  0  0  0999 V2000
  130.9520  119.4690   60.8730 C   0  0  0  0  0  0  0  0  0  0  0  0
  130.7040  120.8820   60.3810 C   0  0  0  0  0  0  0  0  0  0  0  0
  129.4570  121.4900   60.4980 C   0  0  0  0  0  0  0  0  0  0  0  0
  129.2820  122.8040   60.0430 C   0  0  0  0  0  0  0  0  0  0  0  0
  127.9310  123.4200   60.2030 C   0  0  0  0  0  0  0  0  0  0  0  0
  127.1860  123.8140   59.0840 C   0  0  0  0  0  0  0  0  0  0  0  0
  125.9300  124.3960   59.2390 C   0  0  0  0  0  0  0  0  0  0  0  0
  125.4160  124.5930   60.5170 C   0  0  0  0  0  0  0  0  0  0  0  0
  126.1470  124.2160   61.6400 C   0  0  0  0  0  0  0  0  0  0  0  0
  127.4020  123.6340   61.4820 C   0  0  0  0  0  0  0  0  0  0  0  0
  130.3920  123.4700   59.4630 C   0  0  0  0  0  0  0  0  0  0  0  0
  130.2570  124.8310   58.9310 C   0  0  0  0  0  0  0  0  0  0  0  0
  130.1490  125.9050   58.5120 N   0  0  0  0  0  0  0  0  0  0  0  0
  131.6260  122.7810   59.3880 C   0  0  0  0  0  0  0  0  0  0  0  0
  133.0940  123.5320   58.6970 S   0  0  0  0  0  0  0  0  0  0  0  0
  134.2520  123.9510   60.0410 C   0  0  0  0  0  0  0  0  0  0  0  0
  133.6510  123.7740   61.4390 C   0  0  0  0  0  0  0  0  0  0  0  0
  133.4050  122.6380   61.8490 O   0  0  0  0  0  0  0  0  0  0  0  0
  133.4180  124.9140   62.1270 N   0  0  0  0  0  0  0  0  0  0  0  0
  132.9100  125.0310   63.4140 C   0  0  0  0  0  0  0  0  0  0  0  0
  131.5450  125.1050   63.6880 C   0  0  0  0  0  0  0  0  0  0  0  0
  131.4610  125.2160   65.0580 C   0  0  0  0  0  0  0  0  0  0  0  0
  132.7120  125.2080   65.5790 O   0  0  0  0  0  0  0  0  0  0  0  0
  133.6210  125.0920   64.5270 N   0  0  0  0  0  0  0  0  0  0  0  0
  131.7710  121.5070   59.8350 N   0  0  0  0  0  0  0  0  0  0  0  0
  1  2  1  0
  2  3  2  0
  3  4  1  0
  4  5  1  0
  5  6  2  0
  6  7  1  0
  7  8  2  0
  8  9  1  0
  9 10  2  0
  4 11  2  0
 11 12  1  0
 12 13  3  0
 11 14  1  0
 14 15  1  0
 15 16  1  0
 16 17  1  0
 17 18  2  0
 17 19  1  0
 19 20  1  0
 20 21  1  0
 21 22  2  0
 22 23  1  0
 23 24  1  0
 14 25  2  0
 25  2  1  0
 10  5  1  0
 24 20  2  0
M  END
>  <Binding energies>  (35) 
[-7.4]

>  <Ligand effiencies>  (35) 
[-0.2846153846153846]

>  <Interactions>  (35) 
["H-A:TYR:484:OH:4346, V-A:ASP:366:CG:3211, V-B:TYR:539:CZ:9849, H-A:GLY:454:N:4048, V-A:ASP:366:CA:3208, V-B:TYR:539:CE2:9848, V-B:TYR:539:CD2:9846, V-A:ILE:369:CD1:3237, V-B:ALA:541:CB:9864, V-A:ILE:369:CG2:3235, V-A:LEU:475:CD2:4257, H-A:ASP:366:OD1:3212, V-A:TRP:381:CH2:3370, V-B:PRO:540:CA:9855, V-B:TYR:539:C:9839, V-A:ARG:545:CZ:4924, V-B:GLU:543:CD:9880, V-A:HIS:456:CE1:4068, V-A:TRP:381:CZ2:3368, V-A:ILE:369:CB:3234, H-A:ARG:545:NE:4922, H-B:TYR:539:OH:9850, V-A:PRO:482:CB:4324, H-A:ASP:366:OD2:3213"]

$$$$
3ck_Grossjean_2025
     RDKit          3D

 30 31  0  0  0  0  0  0  0  0999 V2000
  132.1170  123.8650   74.4890 C   0  0  0  0  0  0  0  0  0  0  0  0
  131.1310  124.7920   74.0610 O   0  0  0  0  0  0  0  0  0  0  0  0
  131.6570  125.8580   73.2820 C   0  0  0  0  0  0  0  0  0  0  0  0
  130.6460  126.2450   72.1950 C   0  0  0  0  0  0  0  0  0  0  0  0
  129.3270  126.0550   72.6890 O   0  0  0  0  0  0  0  0  0  0  0  0
  128.3790  126.9810   72.1750 C   0  0  0  0  0  0  0  0  0  0  0  0
  128.7580  127.3360   70.7320 C   0  0  0  0  0  0  0  0  0  0  0  0
  127.6120  127.1600   69.9120 O   0  0  0  0  0  0  0  0  0  0  0  0
  127.8350  127.3600   68.5250 C   0  0  0  0  0  0  0  0  0  0  0  0
  129.3490  127.3460   68.2390 C   0  0  0  0  0  0  0  0  0  0  0  0
  129.7510  126.3540   67.2380 N   0  0  0  0  0  0  0  0  0  0  0  0
  130.8690  126.4020   66.4910 C   0  0  0  0  0  0  0  0  0  0  0  0
  131.7090  127.2980   66.5900 O   0  0  0  0  0  0  0  0  0  0  0  0
  131.0450  125.2490   65.4890 C   0  0  0  0  0  0  0  0  0  0  0  0
  132.5110  125.3700   64.4060 S   0  0  0  0  0  0  0  0  0  0  0  0
  132.3100  124.2570   63.0240 C   0  0  0  0  0  0  0  0  0  0  0  0
  133.2450  123.2790   62.9190 N   0  0  0  0  0  0  0  0  0  0  0  0
  133.1580  122.4020   61.8940 C   0  0  0  0  0  0  0  0  0  0  0  0
  134.2380  121.3400   61.8410 C   0  0  0  0  0  0  0  0  0  0  0  0
  132.1460  122.4640   60.9390 C   0  0  0  0  0  0  0  0  0  0  0  0
  131.1740  123.4690   61.0230 C   0  0  0  0  0  0  0  0  0  0  0  0
  130.1210  123.5090   59.9640 C   0  0  0  0  0  0  0  0  0  0  0  0
  128.8230  123.0670   60.2450 C   0  0  0  0  0  0  0  0  0  0  0  0
  127.8390  123.0930   59.2580 C   0  0  0  0  0  0  0  0  0  0  0  0
  128.1530  123.5570   57.9840 C   0  0  0  0  0  0  0  0  0  0  0  0
  129.4430  123.9920   57.6870 C   0  0  0  0  0  0  0  0  0  0  0  0
  130.4230  123.9650   58.6740 C   0  0  0  0  0  0  0  0  0  0  0  0
  131.2460  124.3870   62.1020 C   0  0  0  0  0  0  0  0  0  0  0  0
  130.2320  125.4350   62.2640 C   0  0  0  0  0  0  0  0  0  0  0  0
  129.4310  126.2610   62.3920 N   0  0  0  0  0  0  0  0  0  0  0  0
  1  2  1  0
  2  3  1  0
  3  4  1  0
  4  5  1  0
  5  6  1  0
  6  7  1  0
  7  8  1  0
  8  9  1  0
  9 10  1  0
 10 11  1  0
 11 12  1  0
 12 13  2  0
 12 14  1  0
 14 15  1  0
 15 16  1  0
 16 17  2  0
 17 18  1  0
 18 19  1  0
 18 20  2  0
 20 21  1  0
 21 22  1  0
 22 23  2  0
 23 24  1  0
 24 25  2  0
 25 26  1  0
 26 27  2  0
 21 28  2  0
 28 29  1  0
 29 30  3  0
 28 16  1  0
 27 22  1  0
M  END
>  <Binding energies>  (36) 
[-6.97]

>  <Ligand effiencies>  (36) 
[-0.22483870967741934]

>  <Interactions>  (36) 
["H-B:GLU:543:OE1:9881, H-A:TYR:484:OH:4346, V-B:TYR:539:CZ:9849, H-A:GLY:454:N:4048, V-B:TYR:539:CE2:9848, V-B:TYR:539:CD2:9846, V-A:GLY:454:CA:4047, V-A:ILE:369:CD1:3237, V-A:LEU:475:CD2:4257, V-B:PRO:540:CA:9855, V-B:TYR:539:C:9839, V-B:PRO:540:N:9856, V-B:GLU:543:CD:9880, H-A:ARG:545:NH2:4926, V-B:GLU:543:CB:9878, V-A:GLU:543:CD:4906, V-A:HIS:456:CE1:4068, V-A:ARG:545:CG:4920, V-B:GLU:543:CG:9879, H-B:GLU:543:OE2:9882, H-A:ARG:545:NE:4922, V-A:HIS:456:CB:4063, V-A:HIS:456:CG:4064, V-A:HIS:456:CD2:4066, V-B:HIS:456:CE1:9042, V-B:LYS:547:CE:9922, H-B:LYS:547:NZ:9923, V-B:GLY:544:C:9884, V-B:GLU:543:C:9874, H-B:ARG:545:N:9892, V-B:GLY:544:CA:9886, H-A:HIS:456:NE2:4069, H-B:GLU:543:O:9875"]

$$$$
4aa_Grossjean_2025
     RDKit          3D

 26 28  0  0  0  0  0  0  0  0999 V2000
  129.5740  125.9130   72.1880 C   0  0  0  0  0  0  0  0  0  0  0  0
  129.9400  127.3160   72.6840 C   0  0  0  0  0  0  0  0  0  0  0  0
  129.4440  128.2850   71.7700 O   0  0  0  0  0  0  0  0  0  0  0  0
  128.4010  128.0040   70.9470 C   0  0  0  0  0  0  0  0  0  0  0  0
  127.2180  128.0870   71.2950 O   0  0  0  0  0  0  0  0  0  0  0  0
  128.8270  127.5760   69.5730 C   0  0  0  0  0  0  0  0  0  0  0  0
  130.1890  127.3760   69.3100 C   0  0  0  0  0  0  0  0  0  0  0  0
  130.6160  126.9850   68.0440 C   0  0  0  0  0  0  0  0  0  0  0  0
  129.6930  126.7760   67.0190 C   0  0  0  0  0  0  0  0  0  0  0  0
  130.2340  126.3900   65.7780 N   0  0  0  0  0  0  0  0  0  0  0  0
  131.4850  125.9750   65.4610 C   0  0  0  0  0  0  0  0  0  0  0  0
  132.4160  125.9080   66.2650 O   0  0  0  0  0  0  0  0  0  0  0  0
  131.6880  125.6200   64.0560 C   0  0  0  0  0  0  0  0  0  0  0  0
  133.1230  124.7160   63.5640 S   0  0  0  0  0  0  0  0  0  0  0  0
  132.6340  124.7620   61.8860 C   0  0  0  0  0  0  0  0  0  0  0  0
  133.3660  124.1990   60.9220 N   0  0  0  0  0  0  0  0  0  0  0  0
  132.8770  124.3110   59.6630 C   0  0  0  0  0  0  0  0  0  0  0  0
  133.7260  123.6680   58.5810 C   0  0  0  0  0  0  0  0  0  0  0  0
  131.6850  124.9610   59.3480 C   0  0  0  0  0  0  0  0  0  0  0  0
  130.9200  125.5490   60.3620 C   0  0  0  0  0  0  0  0  0  0  0  0
  129.6270  126.2480   59.9690 C   0  0  0  0  0  0  0  0  0  0  0  0
  131.4020  125.4570   61.6950 C   0  0  0  0  0  0  0  0  0  0  0  0
  130.8870  125.9390   62.9490 C   0  0  0  0  0  0  0  0  0  0  0  0
  129.7120  126.6440   63.0330 N   0  0  0  0  0  0  0  0  0  0  0  0
  128.3280  126.9790   67.2710 C   0  0  0  0  0  0  0  0  0  0  0  0
  127.9020  127.3740   68.5370 C   0  0  0  0  0  0  0  0  0  0  0  0
  1  2  1  0
  2  3  1  0
  3  4  1  0
  4  5  2  0
  4  6  1  0
  6  7  2  0
  7  8  1  0
  8  9  2  0
  9 10  1  0
 10 11  1  0
 11 12  2  0
 11 13  1  0
 13 14  1  0
 14 15  1  0
 15 16  2  0
 16 17  1  0
 17 18  1  0
 17 19  2  0
 19 20  1  0
 20 21  1  0
 20 22  2  0
 22 23  1  0
 23 24  1  0
  9 25  1  0
 25 26  2  0
 26  6  1  0
 23 13  2  0
 22 15  1  0
M  END
>  <Binding energies>  (37) 
[-7.06]

>  <Ligand effiencies>  (37) 
[-0.24344827586206896]

>  <Interactions>  (37) 
["H-B:GLU:543:OE1:9881, H-A:TYR:484:OH:4346, V-A:ASP:366:CG:3211, V-A:ASP:366:CA:3208, V-B:TYR:539:CE2:9848, V-A:ASP:366:CB:3210, V-A:ILE:369:CD1:3237, V-A:ILE:369:CG2:3235, V-A:ARG:545:CZ:4924, V-B:GLU:543:CD:9880, V-B:GLU:543:CB:9878, V-A:GLU:543:CD:4906, V-A:HIS:456:CE1:4068, V-A:ARG:545:CG:4920, V-B:GLU:543:CG:9879, V-A:ILE:369:CB:3234, H-A:GLU:543:OE1:4907, H-A:GLU:543:OE2:4908, H-B:GLU:543:OE2:9882, H-A:ARG:545:NE:4922, V-A:LYS:547:CE:4948, V-B:HIS:456:CD2:9040, V-A:HIS:456:CD2:4066, V-B:HIS:456:CE1:9042, V-B:LYS:547:CE:9922, V-A:GLY:544:C:4910, V-A:GLU:543:CG:4905, V-A:GLU:543:C:4900, V-B:GLU:543:C:9874, H-B:HIS:456:ND1:9039, H-A:HIS:456:ND1:4065, V-B:GLY:544:CA:9886"]

$$$$
4ab_Grossjean_2025
     RDKit          3D

 25 27  0  0  0  0  0  0  0  0999 V2000
  130.1110  127.4390   72.4760 C   0  0  0  0  0  0  0  0  0  0  0  0
  129.4040  128.4350   71.7510 O   0  0  0  0  0  0  0  0  0  0  0  0
  128.4880  128.0960   70.8100 C   0  0  0  0  0  0  0  0  0  0  0  0
  127.2680  128.1110   71.0100 O   0  0  0  0  0  0  0  0  0  0  0  0
  129.1030  127.6940   69.5010 C   0  0  0  0  0  0  0  0  0  0  0  0
  128.2700  127.2860   68.4500 C   0  0  0  0  0  0  0  0  0  0  0  0
  128.8110  126.9040   67.2250 C   0  0  0  0  0  0  0  0  0  0  0  0
  130.1900  126.9310   67.0220 C   0  0  0  0  0  0  0  0  0  0  0  0
  130.6280  126.5190   65.7490 N   0  0  0  0  0  0  0  0  0  0  0  0
  131.7650  125.8800   65.3800 C   0  0  0  0  0  0  0  0  0  0  0  0
  132.6720  125.5780   66.1560 O   0  0  0  0  0  0  0  0  0  0  0  0
  131.8760  125.5780   63.9520 C   0  0  0  0  0  0  0  0  0  0  0  0
  133.2880  124.7190   63.3310 S   0  0  0  0  0  0  0  0  0  0  0  0
  132.6840  124.8130   61.6920 C   0  0  0  0  0  0  0  0  0  0  0  0
  133.3560  124.3000   60.6610 N   0  0  0  0  0  0  0  0  0  0  0  0
  132.7780  124.4420   59.4440 C   0  0  0  0  0  0  0  0  0  0  0  0
  133.5620  123.8560   58.2840 C   0  0  0  0  0  0  0  0  0  0  0  0
  131.5550  125.0760   59.2350 C   0  0  0  0  0  0  0  0  0  0  0  0
  130.8530  125.6140   60.3200 C   0  0  0  0  0  0  0  0  0  0  0  0
  129.5230  126.2980   60.0410 C   0  0  0  0  0  0  0  0  0  0  0  0
  131.4290  125.4880   61.6130 C   0  0  0  0  0  0  0  0  0  0  0  0
  130.9950  125.9190   62.9140 C   0  0  0  0  0  0  0  0  0  0  0  0
  129.8180  126.5980   63.1050 N   0  0  0  0  0  0  0  0  0  0  0  0
  131.0330  127.3330   68.0690 C   0  0  0  0  0  0  0  0  0  0  0  0
  130.4910  127.7120   69.2950 C   0  0  0  0  0  0  0  0  0  0  0  0
  1  2  1  0
  2  3  1  0
  3  4  2  0
  3  5  1  0
  5  6  2  0
  6  7  1  0
  7  8  2  0
  8  9  1  0
  9 10  1  0
 10 11  2  0
 10 12  1  0
 12 13  1  0
 13 14  1  0
 14 15  2  0
 15 16  1  0
 16 17  1  0
 16 18  2  0
 18 19  1  0
 19 20  1  0
 19 21  2  0
 21 22  1  0
 22 23  1  0
  8 24  1  0
 24 25  2  0
 25  5  1  0
 22 12  2  0
 21 14  1  0
M  END
>  <Binding energies>  (38) 
[-6.92]

>  <Ligand effiencies>  (38) 
[-0.24714285714285714]

>  <Interactions>  (38) 
["H-B:GLU:543:OE1:9881, H-A:TYR:484:OH:4346, V-A:ASP:366:CG:3211, V-B:TYR:539:CZ:9849, V-A:ASP:366:CA:3208, V-B:TYR:539:CE2:9848, V-A:ASP:366:CB:3210, V-A:ILE:369:CG2:3235, V-A:ARG:545:CZ:4924, V-B:GLU:543:CD:9880, V-B:GLU:543:CB:9878, V-A:ARG:545:CD:4921, V-A:GLU:543:CD:4906, V-A:HIS:456:CE1:4068, V-A:ARG:545:CG:4920, V-B:GLU:543:CG:9879, V-A:ILE:369:CB:3234, H-A:GLU:543:OE1:4907, H-A:GLU:543:OE2:4908, H-B:GLU:543:OE2:9882, H-A:ARG:545:NE:4922, V-A:LYS:547:CE:4948, V-B:HIS:456:CD2:9040, V-B:HIS:456:CE1:9042, V-A:GLY:544:C:4910, V-A:GLU:543:CG:4905, V-A:GLY:544:CA:4912, V-A:GLU:543:C:4900, V-B:GLU:543:C:9874, H-B:HIS:456:ND1:9039, H-A:HIS:456:ND1:4065"]

$$$$
4ac_Grossjean_2025
     RDKit          3D

 23 25  0  0  0  0  0  0  0  0999 V2000
  128.3590  127.5150   72.2190 C   0  0  0  0  0  0  0  0  0  0  0  0
  127.9380  128.0910   70.9870 O   0  0  0  0  0  0  0  0  0  0  0  0
  128.5830  127.7320   69.8190 C   0  0  0  0  0  0  0  0  0  0  0  0
  127.7700  127.3570   68.7500 C   0  0  0  0  0  0  0  0  0  0  0  0
  128.3300  126.9790   67.5320 C   0  0  0  0  0  0  0  0  0  0  0  0
  129.7150  126.9820   67.3660 C   0  0  0  0  0  0  0  0  0  0  0  0
  130.1910  126.5730   66.1060 N   0  0  0  0  0  0  0  0  0  0  0  0
  130.5860  125.3430   65.6960 C   0  0  0  0  0  0  0  0  0  0  0  0
  130.6180  124.3510   66.4270 O   0  0  0  0  0  0  0  0  0  0  0  0
  130.9960  125.2500   64.2930 C   0  0  0  0  0  0  0  0  0  0  0  0
  132.2860  124.1480   63.8110 S   0  0  0  0  0  0  0  0  0  0  0  0
  132.1420  124.6340   62.1370 C   0  0  0  0  0  0  0  0  0  0  0  0
  132.9130  124.1140   61.1820 N   0  0  0  0  0  0  0  0  0  0  0  0
  132.6990  124.5770   59.9270 C   0  0  0  0  0  0  0  0  0  0  0  0
  133.5870  123.9730   58.8550 C   0  0  0  0  0  0  0  0  0  0  0  0
  131.7430  125.5400   59.6080 C   0  0  0  0  0  0  0  0  0  0  0  0
  130.9350  126.0840   60.6130 C   0  0  0  0  0  0  0  0  0  0  0  0
  129.9070  127.1310   60.2150 C   0  0  0  0  0  0  0  0  0  0  0  0
  131.1290  125.6200   61.9420 C   0  0  0  0  0  0  0  0  0  0  0  0
  130.4900  125.9520   63.1870 C   0  0  0  0  0  0  0  0  0  0  0  0
  129.4790  126.8770   63.2670 N   0  0  0  0  0  0  0  0  0  0  0  0
  130.5410  127.3450   68.4400 C   0  0  0  0  0  0  0  0  0  0  0  0
  129.9770  127.7220   69.6570 C   0  0  0  0  0  0  0  0  0  0  0  0
  1  2  1  0
  2  3  1  0
  3  4  2  0
  4  5  1  0
  5  6  2  0
  6  7  1  0
  7  8  1  0
  8  9  2  0
  8 10  1  0
 10 11  1  0
 11 12  1  0
 12 13  2  0
 13 14  1  0
 14 15  1  0
 14 16  2  0
 16 17  1  0
 17 18  1  0
 17 19  2  0
 19 20  1  0
 20 21  1  0
  6 22  1  0
 22 23  2  0
 23  3  1  0
 20 10  2  0
 19 12  1  0
M  END
>  <Binding energies>  (39) 
[-6.52]

>  <Ligand effiencies>  (39) 
[-0.25076923076923074]

>  <Interactions>  (39) 
["H-B:GLU:543:OE1:9881, H-A:TYR:484:OH:4346, V-A:ASP:366:CG:3211, V-A:ASP:366:CA:3208, V-B:TYR:539:CE2:9848, V-A:ASP:366:CB:3210, V-A:ILE:369:CG2:3235, V-B:GLU:543:CD:9880, V-B:GLU:543:CB:9878, V-A:GLU:543:CD:4906, V-A:HIS:456:CE1:4068, V-A:ARG:545:CG:4920, V-B:GLU:543:CG:9879, H-A:GLU:543:OE1:4907, H-A:GLU:543:OE2:4908, H-B:GLU:543:OE2:9882, V-B:HIS:456:CE1:9042, V-B:LYS:547:CE:9922, V-B:GLY:544:C:9884, V-A:GLY:544:C:4910, V-A:GLU:543:CG:4905, V-A:GLU:543:C:4900, V-B:GLU:543:C:9874"]

$$$$
4ad_Grossjean_2025
     RDKit          3D

 21 23  0  0  0  0  0  0  0  0999 V2000
  125.9270  116.8770   70.6560 C   0  0  0  0  0  0  0  0  0  0  0  0
  126.7140  117.7660   71.6000 C   0  0  0  0  0  0  0  0  0  0  0  0
  126.9360  117.3890   72.9230 C   0  0  0  0  0  0  0  0  0  0  0  0
  127.6640  118.2270   73.7770 C   0  0  0  0  0  0  0  0  0  0  0  0
  127.8780  117.7740   75.2130 C   0  0  0  0  0  0  0  0  0  0  0  0
  128.1540  119.4500   73.2460 C   0  0  0  0  0  0  0  0  0  0  0  0
  128.9200  120.5210   73.8240 C   0  0  0  0  0  0  0  0  0  0  0  0
  129.3360  120.4990   75.1320 N   0  0  0  0  0  0  0  0  0  0  0  0
  129.1950  121.5720   72.9350 C   0  0  0  0  0  0  0  0  0  0  0  0
  129.9270  122.8140   73.1900 C   0  0  0  0  0  0  0  0  0  0  0  0
  129.4400  123.9050   72.8850 O   0  0  0  0  0  0  0  0  0  0  0  0
  131.1390  122.6630   73.7790 N   0  0  0  0  0  0  0  0  0  0  0  0
  132.0980  123.6370   74.1160 C   0  0  0  0  0  0  0  0  0  0  0  0
  131.8030  124.9470   73.7260 C   0  0  0  0  0  0  0  0  0  0  0  0
  132.6840  125.9830   74.0220 C   0  0  0  0  0  0  0  0  0  0  0  0
  133.8600  125.7120   74.7170 C   0  0  0  0  0  0  0  0  0  0  0  0
  134.1590  124.4140   75.1230 C   0  0  0  0  0  0  0  0  0  0  0  0
  133.2800  123.3760   74.8280 C   0  0  0  0  0  0  0  0  0  0  0  0
  128.5080  121.2530   71.3410 S   0  0  0  0  0  0  0  0  0  0  0  0
  127.8580  119.7200   71.8750 C   0  0  0  0  0  0  0  0  0  0  0  0
  127.1650  118.9230   71.0600 N   0  0  0  0  0  0  0  0  0  0  0  0
  1  2  1  0
  2  3  2  0
  3  4  1  0
  4  5  1  0
  4  6  2  0
  6  7  1  0
  7  8  1  0
  7  9  2  0
  9 10  1  0
 10 11  2  0
 10 12  1  0
 12 13  1  0
 13 14  2  0
 14 15  1  0
 15 16  2  0
 16 17  1  0
 17 18  2  0
  9 19  1  0
 19 20  1  0
 20 21  2  0
 21  2  1  0
 20  6  1  0
 18 13  1  0
M  END
>  <Binding energies>  (40) 
[-7.15]

>  <Ligand effiencies>  (40) 
[-0.29791666666666666]

>  <Interactions>  (40) 
["V-A:HIS:456:CB:4063, V-A:ASP:473:CG:4238, V-A:HIS:456:CG:4064, V-A:HIS:456:CD2:4066, H-A:ASP:473:OD2:4240, V-A:VAL:458:CG2:4085, V-A:VAL:457:C:4071, V-A:LYS:471:CE:4218, V-A:HIS:456:CA:4061, V-B:LYS:547:CE:9922, H-B:LYS:547:NZ:9923, V-A:HIS:456:C:4059, V-A:TYR:484:CG:4340, V-A:TYR:484:CB:4339, V-B:GLU:543:C:9874, V-B:GLY:544:CA:9886, V-A:TYR:484:CD1:4341, V-B:GLU:543:CA:9876, H-A:TYR:484:N:4338, V-B:VAL:542:CG1:9871, V-A:SER:483:CB:4331"]

$$$$
4ae_Grossjean_2025
     RDKit          3D

 22 24  0  0  0  0  0  0  0  0999 V2000
  130.5880  127.3160   70.7210 C   0  0  0  0  0  0  0  0  0  0  0  0
  129.7290  127.3330   69.4720 C   0  0  0  0  0  0  0  0  0  0  0  0
  128.3930  127.7380   69.5090 C   0  0  0  0  0  0  0  0  0  0  0  0
  127.6610  127.7200   68.3210 C   0  0  0  0  0  0  0  0  0  0  0  0
  128.2760  127.3030   67.1380 C   0  0  0  0  0  0  0  0  0  0  0  0
  129.6210  126.9180   67.1700 C   0  0  0  0  0  0  0  0  0  0  0  0
  130.1780  126.4890   65.9530 N   0  0  0  0  0  0  0  0  0  0  0  0
  131.4640  126.1530   65.6810 C   0  0  0  0  0  0  0  0  0  0  0  0
  132.3730  126.1890   66.5120 O   0  0  0  0  0  0  0  0  0  0  0  0
  131.7250  125.7380   64.3010 C   0  0  0  0  0  0  0  0  0  0  0  0
  133.1980  124.8530   63.9000 S   0  0  0  0  0  0  0  0  0  0  0  0
  132.7640  124.8020   62.2070 C   0  0  0  0  0  0  0  0  0  0  0  0
  133.5440  124.2200   61.2960 N   0  0  0  0  0  0  0  0  0  0  0  0
  133.0950  124.2540   60.0180 C   0  0  0  0  0  0  0  0  0  0  0  0
  134.0020  123.5910   58.9970 C   0  0  0  0  0  0  0  0  0  0  0  0
  131.8950  124.8500   59.6340 C   0  0  0  0  0  0  0  0  0  0  0  0
  131.0780  125.4600   60.5930 C   0  0  0  0  0  0  0  0  0  0  0  0
  129.7800  126.1000   60.1240 C   0  0  0  0  0  0  0  0  0  0  0  0
  131.5170  125.4450   61.9450 C   0  0  0  0  0  0  0  0  0  0  0  0
  130.9440  125.9690   63.1560 C   0  0  0  0  0  0  0  0  0  0  0  0
  129.7430  126.6320   63.1720 N   0  0  0  0  0  0  0  0  0  0  0  0
  130.3410  126.9260   68.3300 N   0  0  0  0  0  0  0  0  0  0  0  0
  1  2  1  0
  2  3  2  0
  3  4  1  0
  4  5  2  0
  5  6  1  0
  6  7  1  0
  7  8  1  0
  8  9  2  0
  8 10  1  0
 10 11  1  0
 11 12  1  0
 12 13  2  0
 13 14  1  0
 14 15  1  0
 14 16  2  0
 16 17  1  0
 17 18  1  0
 17 19  2  0
 19 20  1  0
 20 21  1  0
  6 22  2  0
 22  2  1  0
 20 10  2  0
 19 12  1  0
M  END
>  <Binding energies>  (41) 
[-6.84]

>  <Ligand effiencies>  (41) 
[-0.2736]

>  <Interactions>  (41) 
["H-B:GLU:543:OE1:9881, H-A:TYR:484:OH:4346, V-A:ASP:366:CG:3211, V-A:ASP:366:CA:3208, V-B:TYR:539:CE2:9848, V-A:ILE:369:CD1:3237, V-A:ILE:369:CG2:3235, V-A:ARG:545:CZ:4924, V-B:GLU:543:CD:9880, V-B:GLU:543:CB:9878, V-A:ARG:545:CD:4921, V-A:GLU:543:CD:4906, V-A:HIS:456:CE1:4068, V-A:ARG:545:CG:4920, V-B:GLU:543:CG:9879, V-A:ILE:369:CB:3234, H-A:GLU:543:OE1:4907, H-A:GLU:543:OE2:4908, H-B:GLU:543:OE2:9882, H-A:ARG:545:NE:4922, V-A:HIS:456:CD2:4066, V-B:HIS:456:CE1:9042, V-A:GLY:544:C:4910, V-A:GLU:543:CG:4905, V-A:GLY:544:CA:4912, H-A:HIS:456:ND1:4065"]

$$$$
4af_Grossjean_2025
     RDKit          3D

 21 23  0  0  0  0  0  0  0  0999 V2000
  133.9770  123.3800   59.0670 C   0  0  0  0  0  0  0  0  0  0  0  0
  133.0890  124.0850   60.0760 C   0  0  0  0  0  0  0  0  0  0  0  0
  131.9040  124.7020   59.6810 C   0  0  0  0  0  0  0  0  0  0  0  0
  131.1020  125.3480   60.6290 C   0  0  0  0  0  0  0  0  0  0  0  0
  129.8190  126.0090   60.1500 C   0  0  0  0  0  0  0  0  0  0  0  0
  131.5420  125.3480   61.9800 C   0  0  0  0  0  0  0  0  0  0  0  0
  130.9810  125.9050   63.1830 C   0  0  0  0  0  0  0  0  0  0  0  0
  129.7960  126.5970   63.1850 N   0  0  0  0  0  0  0  0  0  0  0  0
  131.7520  125.6740   64.3320 C   0  0  0  0  0  0  0  0  0  0  0  0
  131.4990  126.1190   65.7040 C   0  0  0  0  0  0  0  0  0  0  0  0
  132.4200  126.1910   66.5190 O   0  0  0  0  0  0  0  0  0  0  0  0
  130.2140  126.4470   65.9800 N   0  0  0  0  0  0  0  0  0  0  0  0
  129.6350  126.8590   67.1950 C   0  0  0  0  0  0  0  0  0  0  0  0
  128.2560  126.9740   67.4440 C   0  0  0  0  0  0  0  0  0  0  0  0
  127.8140  127.4130   68.6930 C   0  0  0  0  0  0  0  0  0  0  0  0
  128.7630  127.7320   69.6650 C   0  0  0  0  0  0  0  0  0  0  0  0
  130.0990  127.6380   69.4470 N   0  0  0  0  0  0  0  0  0  0  0  0
  130.5130  127.2100   68.2280 C   0  0  0  0  0  0  0  0  0  0  0  0
  133.2090  124.7530   63.9470 S   0  0  0  0  0  0  0  0  0  0  0  0
  132.7730  124.6810   62.2550 C   0  0  0  0  0  0  0  0  0  0  0  0
  133.5390  124.0640   61.3550 N   0  0  0  0  0  0  0  0  0  0  0  0
  1  2  1  0
  2  3  2  0
  3  4  1  0
  4  5  1  0
  4  6  2  0
  6  7  1  0
  7  8  1  0
  7  9  2  0
  9 10  1  0
 10 11  2  0
 10 12  1  0
 12 13  1  0
 13 14  2  0
 14 15  1  0
 15 16  2  0
 16 17  1  0
 17 18  2  0
  9 19  1  0
 19 20  1  0
 20 21  2  0
 21  2  1  0
 20  6  1  0
 18 13  1  0
M  END
>  <Binding energies>  (42) 
[-6.27]

>  <Ligand effiencies>  (42) 
[-0.26125]

>  <Interactions>  (42) 
["H-B:GLU:543:OE1:9881, H-A:TYR:484:OH:4346, V-A:ASP:366:CG:3211, V-B:TYR:539:CE2:9848, V-A:ILE:369:CD1:3237, V-A:ILE:369:CG2:3235, V-A:ARG:545:CZ:4924, V-B:GLU:543:CD:9880, V-B:GLU:543:CB:9878, V-A:ARG:545:CD:4921, V-A:GLU:543:CD:4906, V-A:HIS:456:CE1:4068, V-A:ARG:545:CG:4920, V-B:GLU:543:CG:9879, V-A:ILE:369:CB:3234, H-A:GLU:543:OE1:4907, H-A:GLU:543:OE2:4908, H-B:GLU:543:OE2:9882, H-A:ARG:545:NE:4922, V-B:HIS:456:CE1:9042, V-A:GLU:543:CG:4905, V-B:GLU:543:C:9874, H-A:HIS:456:ND1:4065"]

$$$$
4ag_Grossjean_2025
     RDKit          3D

 22 24  0  0  0  0  0  0  0  0999 V2000
  133.9550  123.5950   59.1580 C   0  0  0  0  0  0  0  0  0  0  0  0
  133.0290  124.2420   60.1710 C   0  0  0  0  0  0  0  0  0  0  0  0
  131.8980  124.9460   59.7620 C   0  0  0  0  0  0  0  0  0  0  0  0
  131.0570  125.5340   60.7130 C   0  0  0  0  0  0  0  0  0  0  0  0
  129.8340  126.2920   60.2180 C   0  0  0  0  0  0  0  0  0  0  0  0
  131.3990  125.3840   62.0840 C   0  0  0  0  0  0  0  0  0  0  0  0
  130.7760  125.8460   63.2950 C   0  0  0  0  0  0  0  0  0  0  0  0
  129.6190  126.5850   63.2890 N   0  0  0  0  0  0  0  0  0  0  0  0
  131.4570  125.4740   64.4630 C   0  0  0  0  0  0  0  0  0  0  0  0
  131.1020  125.7620   65.8520 C   0  0  0  0  0  0  0  0  0  0  0  0
  130.4410  124.9660   66.5240 O   0  0  0  0  0  0  0  0  0  0  0  0
  131.5230  126.9480   66.3400 N   0  0  0  0  0  0  0  0  0  0  0  0
  131.3050  127.4290   67.7040 C   0  0  0  0  0  0  0  0  0  0  0  0
  129.8500  127.3750   68.1540 C   0  0  0  0  0  0  0  0  0  0  0  0
  129.5450  127.3460   69.5180 C   0  0  0  0  0  0  0  0  0  0  0  0
  128.2160  127.3220   69.9330 C   0  0  0  0  0  0  0  0  0  0  0  0
  127.1960  127.3380   68.9840 C   0  0  0  0  0  0  0  0  0  0  0  0
  127.4930  127.3830   67.6240 C   0  0  0  0  0  0  0  0  0  0  0  0
  128.8220  127.4080   67.2080 C   0  0  0  0  0  0  0  0  0  0  0  0
  132.8960  124.5250   64.0900 S   0  0  0  0  0  0  0  0  0  0  0  0
  132.5820  124.6400   62.3730 C   0  0  0  0  0  0  0  0  0  0  0  0
  133.3850  124.0770   61.4680 N   0  0  0  0  0  0  0  0  0  0  0  0
  1  2  1  0
  2  3  2  0
  3  4  1  0
  4  5  1  0
  4  6  2  0
  6  7  1  0
  7  8  1  0
  7  9  2  0
  9 10  1  0
 10 11  2  0
 10 12  1  0
 12 13  1  0
 13 14  1  0
 14 15  2  0
 15 16  1  0
 16 17  2  0
 17 18  1  0
 18 19  2  0
  9 20  1  0
 20 21  1  0
 21 22  2  0
 22  2  1  0
 21  6  1  0
 19 14  1  0
M  END
>  <Binding energies>  (43) 
[-7.1]

>  <Ligand effiencies>  (43) 
[-0.284]

>  <Interactions>  (43) 
["H-B:GLU:543:OE1:9881, H-A:TYR:484:OH:4346, V-A:ASP:366:CG:3211, V-A:ASP:366:CA:3208, V-A:ILE:369:CD1:3237, V-A:ILE:369:CG2:3235, V-A:ARG:545:CZ:4924, V-B:GLU:543:CD:9880, V-A:ARG:545:CD:4921, V-A:GLU:543:CD:4906, V-A:HIS:456:CE1:4068, V-A:ARG:545:CG:4920, V-B:GLU:543:CG:9879, V-A:ILE:369:CB:3234, H-A:GLU:543:OE1:4907, H-A:GLU:543:OE2:4908, H-B:GLU:543:OE2:9882, V-B:HIS:456:CE1:9042, V-B:GLY:544:C:9884, V-A:GLU:543:CG:4905, V-B:ARG:545:CG:9894, V-B:GLU:543:C:9874, V-B:ARG:545:CA:9891"]

$$$$
4ah_Grossjean_2025
     RDKit          3D

 28 30  0  0  0  0  0  0  0  0999 V2000
  132.2540  131.0960   61.9490 C   0  0  0  0  0  0  0  0  0  0  0  0
  131.3890  131.5110   60.8980 O   0  0  0  0  0  0  0  0  0  0  0  0
  130.1470  130.9160   60.7660 C   0  0  0  0  0  0  0  0  0  0  0  0
  129.6860  129.8740   61.5870 C   0  0  0  0  0  0  0  0  0  0  0  0
  128.4200  129.3200   61.3940 C   0  0  0  0  0  0  0  0  0  0  0  0
  127.9170  128.2210   62.3250 C   0  0  0  0  0  0  0  0  0  0  0  0
  128.4600  126.8990   62.0150 N   0  0  0  0  0  0  0  0  0  0  0  0
  129.1170  126.5680   60.8840 C   0  0  0  0  0  0  0  0  0  0  0  0
  129.2930  127.3660   59.9610 O   0  0  0  0  0  0  0  0  0  0  0  0
  129.5780  125.1840   60.7910 C   0  0  0  0  0  0  0  0  0  0  0  0
  128.4230  123.8550   60.9090 S   0  0  0  0  0  0  0  0  0  0  0  0
  129.7020  122.6710   60.7610 C   0  0  0  0  0  0  0  0  0  0  0  0
  129.4560  121.3610   60.7740 N   0  0  0  0  0  0  0  0  0  0  0  0
  130.5350  120.5510   60.6480 C   0  0  0  0  0  0  0  0  0  0  0  0
  130.2330  119.0640   60.6680 C   0  0  0  0  0  0  0  0  0  0  0  0
  131.8410  121.0160   60.5100 C   0  0  0  0  0  0  0  0  0  0  0  0
  132.0970  122.3920   60.4990 C   0  0  0  0  0  0  0  0  0  0  0  0
  133.5390  122.8510   60.3470 C   0  0  0  0  0  0  0  0  0  0  0  0
  130.9900  123.2730   60.6300 C   0  0  0  0  0  0  0  0  0  0  0  0
  130.8910  124.7080   60.6630 C   0  0  0  0  0  0  0  0  0  0  0  0
  131.9910  125.5220   60.5670 N   0  0  0  0  0  0  0  0  0  0  0  0
  127.5920  129.8260   60.3910 C   0  0  0  0  0  0  0  0  0  0  0  0
  128.0280  130.8630   59.5520 C   0  0  0  0  0  0  0  0  0  0  0  0
  127.2680  131.4010   58.5300 O   0  0  0  0  0  0  0  0  0  0  0  0
  126.2870  130.5920   57.8890 C   0  0  0  0  0  0  0  0  0  0  0  0
  129.3110  131.3950   59.7460 C   0  0  0  0  0  0  0  0  0  0  0  0
  129.7450  132.4230   58.9440 O   0  0  0  0  0  0  0  0  0  0  0  0
  130.2100  132.0040   57.6680 C   0  0  0  0  0  0  0  0  0  0  0  0
  1  2  1  0
  2  3  1  0
  3  4  2  0
  4  5  1  0
  5  6  1  0
  6  7  1  0
  7  8  1  0
  8  9  2  0
  8 10  1  0
 10 11  1  0
 11 12  1  0
 12 13  2  0
 13 14  1  0
 14 15  1  0
 14 16  2  0
 16 17  1  0
 17 18  1  0
 17 19  2  0
 19 20  1  0
 20 21  1  0
  5 22  2  0
 22 23  1  0
 23 24  1  0
 24 25  1  0
 23 26  2  0
 26 27  1  0
 27 28  1  0
 26  3  1  0
 20 10  2  0
 19 12  1  0
M  END
>  <Binding energies>  (44) 
[-5.38]

>  <Ligand effiencies>  (44) 
[-0.1735483870967742]

>  <Interactions>  (44) 
["H-B:GLU:543:OE1:9881, V-A:ASP:366:CG:3211, V-B:TYR:539:CE2:9848, V-B:TYR:539:CD2:9846, V-A:ILE:369:CD1:3237, V-B:ALA:541:CB:9864, V-A:ILE:369:CG2:3235, V-A:LEU:475:CD2:4257, H-A:ASP:366:OD1:3212, V-A:TRP:381:CH2:3370, V-A:ARG:545:CZ:4924, V-B:GLU:543:CD:9880, V-A:GLU:543:CD:4906, H-B:ALA:541:N:9863, V-A:TRP:381:CZ2:3368, V-A:PRO:540:CA:4881, V-A:ASN:362:CB:3174, V-A:TYR:539:C:4865, H-B:GLU:543:OE2:9882, H-A:ALA:541:N:4889, V-A:TYR:539:CE2:4874, V-A:TRP:381:CZ3:3369, V-A:PRO:482:CG:4325, V-A:PRO:482:CB:4324, V-A:PRO:540:N:4882, V-A:TYR:539:CZ:4875, H-A:ASP:366:OD2:3213"]

$$$$
4ai_Grossjean_2025
     RDKit          3D

 20 22  0  0  0  0  0  0  0  0999 V2000
  130.4390  119.3510   60.3340 C   0  0  0  0  0  0  0  0  0  0  0  0
  131.0620  120.6330   60.8560 C   0  0  0  0  0  0  0  0  0  0  0  0
  132.0470  121.2990   60.1290 C   0  0  0  0  0  0  0  0  0  0  0  0
  132.6040  122.4830   60.6260 C   0  0  0  0  0  0  0  0  0  0  0  0
  133.6750  123.1740   59.7950 C   0  0  0  0  0  0  0  0  0  0  0  0
  132.1300  122.9640   61.8770 C   0  0  0  0  0  0  0  0  0  0  0  0
  132.4720  124.1190   62.6630 C   0  0  0  0  0  0  0  0  0  0  0  0
  133.4250  125.0220   62.2620 N   0  0  0  0  0  0  0  0  0  0  0  0
  131.7410  124.2340   63.8560 C   0  0  0  0  0  0  0  0  0  0  0  0
  131.8370  125.2690   64.8870 C   0  0  0  0  0  0  0  0  0  0  0  0
  132.9050  125.8460   65.1020 O   0  0  0  0  0  0  0  0  0  0  0  0
  130.6840  125.5380   65.5500 N   0  0  0  0  0  0  0  0  0  0  0  0
  130.4880  126.4710   66.5600 C   0  0  0  0  0  0  0  0  0  0  0  0
  129.2800  126.6130   67.2420 C   0  0  0  0  0  0  0  0  0  0  0  0
  129.4950  127.6290   68.1440 C   0  0  0  0  0  0  0  0  0  0  0  0
  130.7680  128.0750   68.0140 O   0  0  0  0  0  0  0  0  0  0  0  0
  131.3880  127.3320   67.0080 N   0  0  0  0  0  0  0  0  0  0  0  0
  130.6190  122.8850   64.0470 S   0  0  0  0  0  0  0  0  0  0  0  0
  131.1190  122.1900   62.5210 C   0  0  0  0  0  0  0  0  0  0  0  0
  130.5870  121.0610   62.0510 N   0  0  0  0  0  0  0  0  0  0  0  0
  1  2  1  0
  2  3  2  0
  3  4  1  0
  4  5  1  0
  4  6  2  0
  6  7  1  0
  7  8  1  0
  7  9  2  0
  9 10  1  0
 10 11  2  0
 10 12  1  0
 12 13  1  0
 13 14  1  0
 14 15  2  0
 15 16  1  0
 16 17  1  0
  9 18  1  0
 18 19  1  0
 19 20  2  0
 20  2  1  0
 19  6  1  0
 17 13  2  0
M  END
>  <Binding energies>  (45) 
[-6.55]

>  <Ligand effiencies>  (45) 
[-0.28478260869565214]

>  <Interactions>  (45) 
["H-B:GLU:543:OE1:9881, H-A:TYR:484:OH:4346, V-B:TYR:539:CE2:9848, V-B:TYR:539:CD2:9846, V-A:ILE:369:CD1:3237, V-B:ALA:541:CB:9864, V-A:ILE:369:CG2:3235, V-A:LEU:475:CD2:4257, H-A:ASP:366:OD1:3212, V-A:TRP:381:CH2:3370, V-A:ARG:545:CZ:4924, V-A:TYR:484:CZ:4345, V-B:GLU:543:CD:9880, H-A:ARG:545:NH2:4926, V-B:GLU:543:CB:9878, V-A:TYR:484:CE1:4343, V-A:GLU:543:CD:4906, V-A:HIS:456:CE1:4068, V-B:GLU:543:CG:9879, V-A:TRP:381:CZ2:3368, V-A:ILE:369:CB:3234, H-B:GLU:543:OE2:9882, H-A:ARG:545:NE:4922, V-A:GLU:543:CG:4905, V-A:GLU:543:C:4900, V-A:TRP:381:CZ3:3369, V-A:PRO:482:CG:4325, V-A:PRO:482:CB:4324"]

$$$$
4aj_Grossjean_2025
     RDKit          3D

 20 22  0  0  0  0  0  0  0  0999 V2000
  125.9650  116.9770   70.6580 C   0  0  0  0  0  0  0  0  0  0  0  0
  126.7830  117.8410   71.6000 C   0  0  0  0  0  0  0  0  0  0  0  0
  127.0600  117.4220   72.8990 C   0  0  0  0  0  0  0  0  0  0  0  0
  127.8120  118.2380   73.7530 C   0  0  0  0  0  0  0  0  0  0  0  0
  128.0870  117.7350   75.1620 C   0  0  0  0  0  0  0  0  0  0  0  0
  128.2700  119.4830   73.2460 C   0  0  0  0  0  0  0  0  0  0  0  0
  129.0460  120.5420   73.8340 C   0  0  0  0  0  0  0  0  0  0  0  0
  129.5020  120.4850   75.1260 N   0  0  0  0  0  0  0  0  0  0  0  0
  129.2900  121.6180   72.9670 C   0  0  0  0  0  0  0  0  0  0  0  0
  130.0280  122.8550   73.2340 C   0  0  0  0  0  0  0  0  0  0  0  0
  129.5660  123.9480   72.9010 O   0  0  0  0  0  0  0  0  0  0  0  0
  131.2150  122.6980   73.8710 N   0  0  0  0  0  0  0  0  0  0  0  0
  132.0970  123.7010   74.2490 C   0  0  0  0  0  0  0  0  0  0  0  0
  133.1820  123.5870   74.9850 N   0  0  0  0  0  0  0  0  0  0  0  0
  133.7850  124.7500   75.1420 C   0  0  0  0  0  0  0  0  0  0  0  0
  133.1840  125.8440   74.5260 C   0  0  0  0  0  0  0  0  0  0  0  0
  131.7520  125.3080   73.6960 S   0  0  0  0  0  0  0  0  0  0  0  0
  128.5430  121.3490   71.3910 S   0  0  0  0  0  0  0  0  0  0  0  0
  127.9210  119.7950   71.8980 C   0  0  0  0  0  0  0  0  0  0  0  0
  127.2040  119.0210   71.0820 N   0  0  0  0  0  0  0  0  0  0  0  0
  1  2  1  0
  2  3  2  0
  3  4  1  0
  4  5  1  0
  4  6  2  0
  6  7  1  0
  7  8  1  0
  7  9  2  0
  9 10  1  0
 10 11  2  0
 10 12  1  0
 12 13  1  0
 13 14  2  0
 14 15  1  0
 15 16  2  0
 16 17  1  0
  9 18  1  0
 18 19  1  0
 19 20  2  0
 20  2  1  0
 19  6  1  0
 17 13  1  0
M  END
>  <Binding energies>  (46) 
[-6.59]

>  <Ligand effiencies>  (46) 
[-0.28652173913043477]

>  <Interactions>  (46) 
["V-A:HIS:456:CB:4063, V-A:ASP:473:CG:4238, V-A:HIS:456:CG:4064, V-A:HIS:456:CD2:4066, H-A:ASP:473:OD2:4240, V-A:VAL:458:CG2:4085, V-B:LYS:547:CE:9922, H-B:LYS:547:NZ:9923, V-A:HIS:456:C:4059, V-A:TYR:484:CG:4340, V-A:TYR:484:CB:4339, V-B:GLU:543:C:9874, V-B:GLY:544:CA:9886, V-A:TYR:484:CD1:4341, V-B:GLU:543:CA:9876, H-A:TYR:484:N:4338, V-B:VAL:542:CG1:9871, V-A:SER:483:CA:4329, V-A:SER:483:CB:4331"]

$$$$
4ak_Grossjean_2025
     RDKit          3D

 25 26  0  0  0  0  0  0  0  0999 V2000
  131.8380  124.5120   74.1520 C   0  0  0  0  0  0  0  0  0  0  0  0
  130.6450  125.0460   73.5990 O   0  0  0  0  0  0  0  0  0  0  0  0
  130.8520  126.2330   72.8440 C   0  0  0  0  0  0  0  0  0  0  0  0
  129.9430  126.2190   71.6090 C   0  0  0  0  0  0  0  0  0  0  0  0
  128.9700  127.2480   71.7280 O   0  0  0  0  0  0  0  0  0  0  0  0
  128.4800  127.7210   70.4800 C   0  0  0  0  0  0  0  0  0  0  0  0
  129.4530  127.3160   69.3660 C   0  0  0  0  0  0  0  0  0  0  0  0
  129.0250  127.8890   68.1380 O   0  0  0  0  0  0  0  0  0  0  0  0
  129.0790  126.9920   67.0360 C   0  0  0  0  0  0  0  0  0  0  0  0
  130.5490  126.6570   66.7240 C   0  0  0  0  0  0  0  0  0  0  0  0
  130.7110  125.6680   65.6580 N   0  0  0  0  0  0  0  0  0  0  0  0
  131.8830  125.3170   65.0920 C   0  0  0  0  0  0  0  0  0  0  0  0
  132.9600  125.7980   65.4490 O   0  0  0  0  0  0  0  0  0  0  0  0
  131.8090  124.3180   64.0260 C   0  0  0  0  0  0  0  0  0  0  0  0
  130.6200  123.0180   64.1070 S   0  0  0  0  0  0  0  0  0  0  0  0
  131.1660  122.3620   62.5800 C   0  0  0  0  0  0  0  0  0  0  0  0
  130.6180  121.2710   62.0440 N   0  0  0  0  0  0  0  0  0  0  0  0
  131.1360  120.8660   60.8590 C   0  0  0  0  0  0  0  0  0  0  0  0
  130.4980  119.6230   60.2650 C   0  0  0  0  0  0  0  0  0  0  0  0
  132.1770  121.5210   60.2030 C   0  0  0  0  0  0  0  0  0  0  0  0
  132.7500  122.6670   60.7680 C   0  0  0  0  0  0  0  0  0  0  0  0
  133.8860  123.3440   60.0170 C   0  0  0  0  0  0  0  0  0  0  0  0
  132.2340  123.1200   62.0120 C   0  0  0  0  0  0  0  0  0  0  0  0
  132.5760  124.2340   62.8550 C   0  0  0  0  0  0  0  0  0  0  0  0
  133.5700  125.1230   62.5280 N   0  0  0  0  0  0  0  0  0  0  0  0
  1  2  1  0
  2  3  1  0
  3  4  1  0
  4  5  1  0
  5  6  1  0
  6  7  1  0
  7  8  1  0
  8  9  1  0
  9 10  1  0
 10 11  1  0
 11 12  1  0
 12 13  2  0
 12 14  1  0
 14 15  1  0
 15 16  1  0
 16 17  2  0
 17 18  1  0
 18 19  1  0
 18 20  2  0
 20 21  1  0
 21 22  1  0
 21 23  2  0
 23 24  1  0
 24 25  1  0
 24 14  2  0
 23 16  1  0
M  END
>  <Binding energies>  (47) 
[-6.51]

>  <Ligand effiencies>  (47) 
[-0.23249999999999998]

>  <Interactions>  (47) 
["H-B:GLU:543:OE1:9881, H-A:TYR:484:OH:4346, V-B:TYR:539:CE2:9848, V-B:TYR:539:CD2:9846, V-A:ILE:369:CD1:3237, V-B:ALA:541:CB:9864, V-A:ILE:369:CG2:3235, V-A:LEU:475:CD2:4257, H-A:ASP:366:OD1:3212, V-A:TRP:381:CH2:3370, V-A:ARG:545:CZ:4924, V-A:TYR:484:CZ:4345, V-B:GLU:543:CD:9880, V-B:GLU:543:CB:9878, V-A:GLY:453:CA:4042, V-A:TYR:484:CE1:4343, V-A:GLU:543:CD:4906, V-A:HIS:456:CE1:4068, V-B:GLU:543:CG:9879, V-A:TRP:381:CZ2:3368, V-A:ILE:369:CB:3234, H-A:GLU:543:OE2:4908, H-B:GLU:543:OE2:9882, H-A:ARG:545:NE:4922, V-A:HIS:456:CB:4063, V-A:HIS:456:CG:4064, V-B:HIS:456:CD2:9040, V-A:HIS:456:CD2:4066, V-B:HIS:456:CE1:9042, H-B:LYS:547:NZ:9923, V-A:GLU:543:CG:4905, V-A:TRP:381:CZ3:3369"]

$$$$
4al_Grossjean_2025
     RDKit          3D

 16 17  0  0  0  0  0  0  0  0999 V2000
  130.7790  125.7360   65.7430 C   0  0  0  0  0  0  0  0  0  0  0  0
  131.7350  125.9820   64.7230 O   0  0  0  0  0  0  0  0  0  0  0  0
  132.7610  125.1180   64.5070 C   0  0  0  0  0  0  0  0  0  0  0  0
  133.8520  125.1870   65.0780 O   0  0  0  0  0  0  0  0  0  0  0  0
  132.4360  124.0760   63.5090 C   0  0  0  0  0  0  0  0  0  0  0  0
  131.2460  122.8290   63.8920 S   0  0  0  0  0  0  0  0  0  0  0  0
  131.4540  122.0900   62.3210 C   0  0  0  0  0  0  0  0  0  0  0  0
  130.7720  121.0040   61.9570 N   0  0  0  0  0  0  0  0  0  0  0  0
  131.0260  120.5300   60.7120 C   0  0  0  0  0  0  0  0  0  0  0  0
  130.2390  119.2940   60.3180 C   0  0  0  0  0  0  0  0  0  0  0  0
  131.9370  121.1120   59.8320 C   0  0  0  0  0  0  0  0  0  0  0  0
  132.6510  122.2520   60.2170 C   0  0  0  0  0  0  0  0  0  0  0  0
  133.6330  122.8510   59.2240 C   0  0  0  0  0  0  0  0  0  0  0  0
  132.4110  122.7770   61.5160 C   0  0  0  0  0  0  0  0  0  0  0  0
  132.9540  123.9050   62.2200 C   0  0  0  0  0  0  0  0  0  0  0  0
  133.8960  124.7360   61.6690 N   0  0  0  0  0  0  0  0  0  0  0  0
  1  2  1  0
  2  3  1  0
  3  4  2  0
  3  5  1  0
  5  6  1  0
  6  7  1  0
  7  8  2  0
  8  9  1  0
  9 10  1  0
  9 11  2  0
 11 12  1  0
 12 13  1  0
 12 14  2  0
 14 15  1  0
 15 16  1  0
 15  5  2  0
 14  7  1  0
M  END
>  <Binding energies>  (48) 
[-5.16]

>  <Ligand effiencies>  (48) 
[-0.2866666666666667]

>  <Interactions>  (48) 
["H-A:TYR:484:OH:4346, V-A:ASP:366:CG:3211, H-A:GLY:454:N:4048, V-B:TYR:539:CE2:9848, V-B:TYR:539:CD2:9846, V-A:ILE:369:CD1:3237, V-B:ALA:541:CB:9864, V-A:ILE:369:CG2:3235, V-A:LEU:475:CD2:4257, H-A:ASP:366:OD1:3212, V-A:TRP:381:CH2:3370, V-A:ARG:545:CZ:4924, V-A:TYR:484:CZ:4345, V-B:GLU:543:CD:9880, H-A:ARG:545:NH2:4926, V-B:GLU:543:CB:9878, V-A:ARG:545:CD:4921, V-A:GLY:453:CA:4042, V-A:TYR:484:CE1:4343, V-A:HIS:456:CE1:4068, V-A:TRP:381:CZ2:3368, V-A:ILE:369:CB:3234, H-A:ARG:545:NE:4922, V-A:TRP:381:CZ3:3369, V-A:PRO:482:CG:4325, V-A:PRO:482:CB:4324"]

$$$$
4bc_Grossjean_2025
     RDKit          3D

 26 28  0  0  0  0  0  0  0  0999 V2000
  128.5180  127.6760   72.2810 C   0  0  0  0  0  0  0  0  0  0  0  0
  127.9580  128.0690   71.0320 O   0  0  0  0  0  0  0  0  0  0  0  0
  128.6060  127.7190   69.8630 C   0  0  0  0  0  0  0  0  0  0  0  0
  127.7970  127.3530   68.7890 C   0  0  0  0  0  0  0  0  0  0  0  0
  128.3590  126.9830   67.5700 C   0  0  0  0  0  0  0  0  0  0  0  0
  129.7460  126.9840   67.4070 C   0  0  0  0  0  0  0  0  0  0  0  0
  130.2230  126.5820   66.1460 N   0  0  0  0  0  0  0  0  0  0  0  0
  130.6070  125.3510   65.7270 C   0  0  0  0  0  0  0  0  0  0  0  0
  130.6250  124.3540   66.4500 O   0  0  0  0  0  0  0  0  0  0  0  0
  131.0220  125.2650   64.3240 C   0  0  0  0  0  0  0  0  0  0  0  0
  132.3150  124.1670   63.8470 S   0  0  0  0  0  0  0  0  0  0  0  0
  132.1760  124.6560   62.1750 C   0  0  0  0  0  0  0  0  0  0  0  0
  132.9570  124.1320   61.2300 N   0  0  0  0  0  0  0  0  0  0  0  0
  132.7570  124.5900   59.9730 C   0  0  0  0  0  0  0  0  0  0  0  0
  133.6520  123.9760   58.9120 C   0  0  0  0  0  0  0  0  0  0  0  0
  131.8060  125.5520   59.6410 C   0  0  0  0  0  0  0  0  0  0  0  0
  130.9820  126.1080   60.6320 C   0  0  0  0  0  0  0  0  0  0  0  0
  129.9510  127.1650   60.2180 C   0  0  0  0  0  0  0  0  0  0  0  0
  128.6990  126.8180   60.5210 F   0  0  0  0  0  0  0  0  0  0  0  0
  130.2110  128.3130   60.8420 F   0  0  0  0  0  0  0  0  0  0  0  0
  130.0050  127.3560   58.9000 F   0  0  0  0  0  0  0  0  0  0  0  0
  131.1650  125.6440   61.9690 C   0  0  0  0  0  0  0  0  0  0  0  0
  130.5210  125.9700   63.2190 C   0  0  0  0  0  0  0  0  0  0  0  0
  129.5060  126.8890   63.3100 N   0  0  0  0  0  0  0  0  0  0  0  0
  130.5680  127.3390   68.4870 C   0  0  0  0  0  0  0  0  0  0  0  0
  130.0020  127.7070   69.7040 C   0  0  0  0  0  0  0  0  0  0  0  0
  1  2  1  0
  2  3  1  0
  3  4  2  0
  4  5  1  0
  5  6  2  0
  6  7  1  0
  7  8  1  0
  8  9  2  0
  8 10  1  0
 10 11  1  0
 11 12  1  0
 12 13  2  0
 13 14  1  0
 14 15  1  0
 14 16  2  0
 16 17  1  0
 17 18  1  0
 18 19  1  0
 18 20  1  0
 18 21  1  0
 17 22  2  0
 22 23  1  0
 23 24  1  0
  6 25  1  0
 25 26  2  0
 26  3  1  0
 23 10  2  0
 22 12  1  0
M  END
>  <Binding energies>  (49) 
[-6.14]

>  <Ligand effiencies>  (49) 
[-0.21172413793103448]

>  <Interactions>  (49) 
["H-B:GLU:543:OE1:9881, H-A:TYR:484:OH:4346, V-A:ASP:366:CG:3211, V-A:ASP:366:CA:3208, V-B:TYR:539:CE2:9848, V-A:ASP:366:CB:3210, V-A:ILE:369:CD1:3237, V-A:ILE:369:CG2:3235, V-B:GLU:543:CD:9880, V-B:GLU:543:CB:9878, V-A:GLU:543:CD:4906, V-A:HIS:456:CE1:4068, V-A:ARG:545:CG:4920, V-B:GLU:543:CG:9879, H-A:GLU:543:OE1:4907, H-A:GLU:543:OE2:4908, H-B:GLU:543:OE2:9882, V-B:HIS:456:CE1:9042, V-A:GLY:544:C:4910, V-A:GLU:543:CG:4905, V-A:GLU:543:C:4900, V-B:GLU:543:C:9874"]

$$$$
4bf_Grossjean_2025
     RDKit          3D

 24 26  0  0  0  0  0  0  0  0999 V2000
  126.0630  117.0800   70.3320 C   0  0  0  0  0  0  0  0  0  0  0  0
  126.7590  117.9750   71.3420 C   0  0  0  0  0  0  0  0  0  0  0  0
  126.7840  117.6460   72.6940 C   0  0  0  0  0  0  0  0  0  0  0  0
  127.4280  118.4840   73.6180 C   0  0  0  0  0  0  0  0  0  0  0  0
  127.4270  118.0820   75.0960 C   0  0  0  0  0  0  0  0  0  0  0  0
  126.8700  119.0030   75.8880 F   0  0  0  0  0  0  0  0  0  0  0  0
  126.7420  116.9510   75.2570 F   0  0  0  0  0  0  0  0  0  0  0  0
  128.6800  117.9020   75.5160 F   0  0  0  0  0  0  0  0  0  0  0  0
  128.0410  119.6670   73.1080 C   0  0  0  0  0  0  0  0  0  0  0  0
  128.7730  120.7410   73.7340 C   0  0  0  0  0  0  0  0  0  0  0  0
  129.0190  120.7800   75.0830 N   0  0  0  0  0  0  0  0  0  0  0  0
  129.2120  121.7330   72.8420 C   0  0  0  0  0  0  0  0  0  0  0  0
  129.9480  122.9670   73.1380 C   0  0  0  0  0  0  0  0  0  0  0  0
  129.4710  124.0650   72.8510 O   0  0  0  0  0  0  0  0  0  0  0  0
  131.1470  122.7960   73.7460 N   0  0  0  0  0  0  0  0  0  0  0  0
  132.1100  123.7550   74.1150 C   0  0  0  0  0  0  0  0  0  0  0  0
  133.3040  123.4860   74.8070 C   0  0  0  0  0  0  0  0  0  0  0  0
  134.1680  124.5350   75.1270 C   0  0  0  0  0  0  0  0  0  0  0  0
  133.8130  125.8310   74.7510 C   0  0  0  0  0  0  0  0  0  0  0  0
  132.6640  126.1180   74.0910 N   0  0  0  0  0  0  0  0  0  0  0  0
  131.8340  125.0870   73.7860 C   0  0  0  0  0  0  0  0  0  0  0  0
  128.7240  121.3660   71.1900 S   0  0  0  0  0  0  0  0  0  0  0  0
  127.9430  119.8870   71.6990 C   0  0  0  0  0  0  0  0  0  0  0  0
  127.3310  119.0880   70.8270 N   0  0  0  0  0  0  0  0  0  0  0  0
  1  2  1  0
  2  3  2  0
  3  4  1  0
  4  5  1  0
  5  6  1  0
  5  7  1  0
  5  8  1  0
  4  9  2  0
  9 10  1  0
 10 11  1  0
 10 12  2  0
 12 13  1  0
 13 14  2  0
 13 15  1  0
 15 16  1  0
 16 17  2  0
 17 18  1  0
 18 19  2  0
 19 20  1  0
 20 21  2  0
 12 22  1  0
 22 23  1  0
 23 24  2  0
 24  2  1  0
 23  9  1  0
 21 16  1  0
M  END
>  <Binding energies>  (50) 
[-5.98]

>  <Ligand effiencies>  (50) 
[-0.2214814814814815]

>  <Interactions>  (50) 
["V-A:HIS:456:CB:4063, V-A:ASP:473:CG:4238, V-A:HIS:456:CG:4064, V-A:HIS:456:CD2:4066, H-A:ASP:473:OD2:4240, V-A:VAL:458:CG2:4085, V-A:VAL:457:C:4071, V-A:LYS:471:CE:4218, V-B:LYS:547:CE:9922, H-B:LYS:547:NZ:9923, V-A:HIS:456:C:4059, V-A:TYR:484:CG:4340, V-A:TYR:484:CB:4339, V-B:GLU:543:C:9874, V-B:GLY:544:CA:9886, V-A:TYR:484:CD1:4341, V-B:GLU:543:CA:9876, H-A:TYR:484:N:4338, V-B:VAL:542:CG1:9871, V-A:SER:483:CA:4329, V-A:SER:483:CB:4331, V-B:VAL:542:CB:9870"]

$$$$
4bh_Grossjean_2025
     RDKit          3D

 31 33  0  0  0  0  0  0  0  0999 V2000
  126.3810  131.4660   59.1010 C   0  0  0  0  0  0  0  0  0  0  0  0
  127.5940  132.1140   58.7330 O   0  0  0  0  0  0  0  0  0  0  0  0
  128.8000  131.4790   58.9650 C   0  0  0  0  0  0  0  0  0  0  0  0
  129.3050  130.4400   58.1680 C   0  0  0  0  0  0  0  0  0  0  0  0
  130.5310  129.8420   58.4630 C   0  0  0  0  0  0  0  0  0  0  0  0
  131.0840  128.7460   57.5600 C   0  0  0  0  0  0  0  0  0  0  0  0
  131.0980  127.4240   58.1870 N   0  0  0  0  0  0  0  0  0  0  0  0
  130.2410  126.4190   57.9110 C   0  0  0  0  0  0  0  0  0  0  0  0
  129.3140  126.5400   57.1080 O   0  0  0  0  0  0  0  0  0  0  0  0
  130.4450  125.1770   58.6580 C   0  0  0  0  0  0  0  0  0  0  0  0
  129.5150  123.7390   58.2480 S   0  0  0  0  0  0  0  0  0  0  0  0
  130.2740  122.8300   59.5340 C   0  0  0  0  0  0  0  0  0  0  0  0
  129.9670  121.5530   59.7570 N   0  0  0  0  0  0  0  0  0  0  0  0
  130.6220  120.9540   60.7790 C   0  0  0  0  0  0  0  0  0  0  0  0
  130.2550  119.5000   61.0170 C   0  0  0  0  0  0  0  0  0  0  0  0
  131.5680  121.5950   61.5740 C   0  0  0  0  0  0  0  0  0  0  0  0
  131.8950  122.9410   61.3450 C   0  0  0  0  0  0  0  0  0  0  0  0
  132.9440  123.6030   62.2440 C   0  0  0  0  0  0  0  0  0  0  0  0
  134.0900  123.8620   61.6080 F   0  0  0  0  0  0  0  0  0  0  0  0
  132.4760  124.7610   62.7070 F   0  0  0  0  0  0  0  0  0  0  0  0
  133.2290  122.8010   63.2700 F   0  0  0  0  0  0  0  0  0  0  0  0
  131.2200  123.6030   60.2770 C   0  0  0  0  0  0  0  0  0  0  0  0
  131.2850  124.9470   59.7590 C   0  0  0  0  0  0  0  0  0  0  0  0
  132.1030  125.9100   60.2920 N   0  0  0  0  0  0  0  0  0  0  0  0
  131.2780  130.3050   59.5480 C   0  0  0  0  0  0  0  0  0  0  0  0
  130.7950  131.3370   60.3660 C   0  0  0  0  0  0  0  0  0  0  0  0
  131.4740  131.8350   61.4640 O   0  0  0  0  0  0  0  0  0  0  0  0
  132.8360  131.4720   61.6640 C   0  0  0  0  0  0  0  0  0  0  0  0
  129.5510  131.9120   60.0670 C   0  0  0  0  0  0  0  0  0  0  0  0
  129.0740  132.9370   60.8500 O   0  0  0  0  0  0  0  0  0  0  0  0
  128.0890  132.5340   61.7910 C   0  0  0  0  0  0  0  0  0  0  0  0
  1  2  1  0
  2  3  1  0
  3  4  2  0
  4  5  1  0
  5  6  1  0
  6  7  1  0
  7  8  1  0
  8  9  2  0
  8 10  1  0
 10 11  1  0
 11 12  1  0
 12 13  2  0
 13 14  1  0
 14 15  1  0
 14 16  2  0
 16 17  1  0
 17 18  1  0
 18 19  1  0
 18 20  1  0
 18 21  1  0
 17 22  2  0
 22 23  1  0
 23 24  1  0
  5 25  2  0
 25 26  1  0
 26 27  1  0
 27 28  1  0
 26 29  2  0
 29 30  1  0
 30 31  1  0
 29  3  1  0
 23 10  2  0
 22 12  1  0
M  END
>  <Binding energies>  (51) 
[-4.96]

>  <Ligand effiencies>  (51) 
[-0.14588235294117646]

>  <Interactions>  (51) 
["V-A:ASP:366:CG:3211, V-B:TYR:539:CZ:9849, V-B:TYR:539:CE2:9848, V-B:TYR:539:CD2:9846, V-A:GLY:454:CA:4047, V-A:ILE:369:CD1:3237, V-B:ALA:541:CB:9864, V-A:LEU:475:CD2:4257, H-A:ASP:366:OD1:3212, V-A:TRP:381:CH2:3370, V-A:GLY:453:C:4040, V-A:ARG:545:CZ:4924, V-A:GLY:453:CA:4042, V-A:TRP:381:CZ2:3368, V-A:PRO:540:C:4879, V-A:PRO:540:CB:4883, V-A:PRO:540:CA:4881, V-A:ASN:362:CB:3174, H-A:ALA:541:N:4889, V-A:ALA:541:C:4886, V-A:TYR:539:CE2:4874, V-A:PRO:482:CG:4325, V-A:PRO:482:CB:4324, V-A:TYR:539:CZ:4875, V-A:ALA:541:CB:4890, V-A:TYR:539:CD2:4872, H-A:ASP:366:OD2:3213"]

$$$$
4bi_Grossjean_2025
     RDKit          3D

 23 25  0  0  0  0  0  0  0  0999 V2000
  130.3500  119.4710   60.3390 C   0  0  0  0  0  0  0  0  0  0  0  0
  130.9390  120.7740   60.8490 C   0  0  0  0  0  0  0  0  0  0  0  0
  131.8210  121.5160   60.0680 C   0  0  0  0  0  0  0  0  0  0  0  0
  132.3550  122.7220   60.5510 C   0  0  0  0  0  0  0  0  0  0  0  0
  133.3150  123.5090   59.6530 C   0  0  0  0  0  0  0  0  0  0  0  0
  133.6390  122.8540   58.5360 F   0  0  0  0  0  0  0  0  0  0  0  0
  132.7530  124.6620   59.2910 F   0  0  0  0  0  0  0  0  0  0  0  0
  134.4480  123.7590   60.3120 F   0  0  0  0  0  0  0  0  0  0  0  0
  131.9570  123.1350   61.8580 C   0  0  0  0  0  0  0  0  0  0  0  0
  132.2900  124.2800   62.6690 C   0  0  0  0  0  0  0  0  0  0  0  0
  133.1530  125.2600   62.2500 N   0  0  0  0  0  0  0  0  0  0  0  0
  131.6480  124.3050   63.9180 C   0  0  0  0  0  0  0  0  0  0  0  0
  131.7650  125.3030   64.9860 C   0  0  0  0  0  0  0  0  0  0  0  0
  132.8520  125.8250   65.2430 O   0  0  0  0  0  0  0  0  0  0  0  0
  130.6110  125.6040   65.6300 N   0  0  0  0  0  0  0  0  0  0  0  0
  130.4320  126.5150   66.6640 C   0  0  0  0  0  0  0  0  0  0  0  0
  129.2220  126.6750   67.3360 C   0  0  0  0  0  0  0  0  0  0  0  0
  129.4580  127.6570   68.2710 C   0  0  0  0  0  0  0  0  0  0  0  0
  130.7450  128.0660   68.1670 O   0  0  0  0  0  0  0  0  0  0  0  0
  131.3520  127.3340   67.1440 N   0  0  0  0  0  0  0  0  0  0  0  0
  130.6250  122.8880   64.1370 S   0  0  0  0  0  0  0  0  0  0  0  0
  131.0460  122.2820   62.5530 C   0  0  0  0  0  0  0  0  0  0  0  0
  130.5410  121.1390   62.0890 N   0  0  0  0  0  0  0  0  0  0  0  0
  1  2  1  0
  2  3  2  0
  3  4  1  0
  4  5  1  0
  5  6  1  0
  5  7  1  0
  5  8  1  0
  4  9  2  0
  9 10  1  0
 10 11  1  0
 10 12  2  0
 12 13  1  0
 13 14  2  0
 13 15  1  0
 15 16  1  0
 16 17  1  0
 17 18  2  0
 18 19  1  0
 19 20  1  0
 12 21  1  0
 21 22  1  0
 22 23  2  0
 23  2  1  0
 22  9  1  0
 20 16  2  0
M  END
>  <Binding energies>  (52) 
[-6.13]

>  <Ligand effiencies>  (52) 
[-0.23576923076923076]

>  <Interactions>  (52) 
["H-B:GLU:543:OE1:9881, H-A:TYR:484:OH:4346, V-A:ASP:366:CG:3211, V-B:TYR:539:CZ:9849, V-B:TYR:539:CE2:9848, V-B:TYR:539:CD2:9846, V-A:ASP:366:CB:3210, V-A:ILE:369:CD1:3237, V-B:ALA:541:CB:9864, V-A:ILE:369:CG2:3235, V-A:LEU:475:CD2:4257, H-A:ASP:366:OD1:3212, V-A:TRP:381:CH2:3370, V-A:ARG:545:CZ:4924, V-A:TYR:484:CZ:4345, V-B:GLU:543:CD:9880, H-A:ARG:545:NH2:4926, V-B:GLU:543:CB:9878, V-A:TYR:484:CE1:4343, V-A:GLU:543:CD:4906, V-A:HIS:456:CE1:4068, V-B:GLU:543:CG:9879, V-A:TRP:381:CZ2:3368, V-A:ILE:369:CB:3234, H-B:GLU:543:OE2:9882, H-A:ARG:545:NE:4922, V-A:GLU:543:CG:4905, V-A:GLU:543:C:4900, V-A:TRP:381:CZ3:3369, V-A:PRO:482:CG:4325, V-A:PRO:482:CB:4324, V-A:ILE:369:CG1:3236, H-A:ASP:366:OD2:3213"]

$$$$
4bj_Grossjean_2025
     RDKit          3D

 23 25  0  0  0  0  0  0  0  0999 V2000
  133.7700  123.8030   58.9790 C   0  0  0  0  0  0  0  0  0  0  0  0
  132.8530  124.4350   60.0100 C   0  0  0  0  0  0  0  0  0  0  0  0
  131.9150  125.3970   59.6430 C   0  0  0  0  0  0  0  0  0  0  0  0
  131.0770  125.9780   60.6080 C   0  0  0  0  0  0  0  0  0  0  0  0
  130.0620  127.0340   60.1550 C   0  0  0  0  0  0  0  0  0  0  0  0
  130.2200  128.2070   60.7720 F   0  0  0  0  0  0  0  0  0  0  0  0
  130.1880  127.2500   58.8460 F   0  0  0  0  0  0  0  0  0  0  0  0
  128.8250  126.6090   60.4150 F   0  0  0  0  0  0  0  0  0  0  0  0
  131.2320  125.5380   61.9560 C   0  0  0  0  0  0  0  0  0  0  0  0
  130.5730  125.8990   63.1880 C   0  0  0  0  0  0  0  0  0  0  0  0
  129.5770  126.8400   63.2480 N   0  0  0  0  0  0  0  0  0  0  0  0
  131.0370  125.1970   64.3120 C   0  0  0  0  0  0  0  0  0  0  0  0
  130.6020  125.3180   65.7060 C   0  0  0  0  0  0  0  0  0  0  0  0
  130.6210  124.3420   66.4600 O   0  0  0  0  0  0  0  0  0  0  0  0
  130.2060  126.5570   66.0880 N   0  0  0  0  0  0  0  0  0  0  0  0
  129.7630  126.9410   67.3460 C   0  0  0  0  0  0  0  0  0  0  0  0
  130.4490  126.9810   68.4670 N   0  0  0  0  0  0  0  0  0  0  0  0
  129.7100  127.4010   69.4740 C   0  0  0  0  0  0  0  0  0  0  0  0
  128.3870  127.7130   69.1780 C   0  0  0  0  0  0  0  0  0  0  0  0
  128.1050  127.4340   67.4850 S   0  0  0  0  0  0  0  0  0  0  0  0
  132.3270  124.0790   63.8800 S   0  0  0  0  0  0  0  0  0  0  0  0
  132.2280  124.5430   62.1980 C   0  0  0  0  0  0  0  0  0  0  0  0
  133.0230  123.9970   61.2790 N   0  0  0  0  0  0  0  0  0  0  0  0
  1  2  1  0
  2  3  2  0
  3  4  1  0
  4  5  1  0
  5  6  1  0
  5  7  1  0
  5  8  1  0
  4  9  2  0
  9 10  1  0
 10 11  1  0
 10 12  2  0
 12 13  1  0
 13 14  2  0
 13 15  1  0
 15 16  1  0
 16 17  2  0
 17 18  1  0
 18 19  2  0
 19 20  1  0
 12 21  1  0
 21 22  1  0
 22 23  2  0
 23  2  1  0
 22  9  1  0
 20 16  1  0
M  END
>  <Binding energies>  (53) 
[-5.78]

>  <Ligand effiencies>  (53) 
[-0.22230769230769232]

>  <Interactions>  (53) 
["H-B:GLU:543:OE1:9881, H-A:TYR:484:OH:4346, V-A:ASP:366:CG:3211, V-A:ASP:366:CA:3208, V-B:TYR:539:CE2:9848, V-A:ASP:366:CB:3210, V-A:ILE:369:CD1:3237, V-A:ILE:369:CG2:3235, V-B:GLU:543:CD:9880, V-B:GLU:543:CB:9878, V-A:GLU:543:CD:4906, V-A:HIS:456:CE1:4068, V-B:GLU:543:CG:9879, V-A:ILE:369:CB:3234, H-A:GLU:543:OE1:4907, H-A:GLU:543:OE2:4908, H-B:GLU:543:OE2:9882, V-B:HIS:456:CE1:9042, V-A:GLU:543:CG:4905, V-A:GLU:543:C:4900"]

$$$$
4bk_Grossjean_2025
     RDKit          3D

 28 29  0  0  0  0  0  0  0  0999 V2000
  131.9160  124.8360   74.2300 C   0  0  0  0  0  0  0  0  0  0  0  0
  130.7040  125.2600   73.6260 O   0  0  0  0  0  0  0  0  0  0  0  0
  130.8910  126.2250   72.5980 C   0  0  0  0  0  0  0  0  0  0  0  0
  129.6990  126.1810   71.6330 C   0  0  0  0  0  0  0  0  0  0  0  0
  129.0460  127.4430   71.6320 O   0  0  0  0  0  0  0  0  0  0  0  0
  128.4060  127.7570   70.4030 C   0  0  0  0  0  0  0  0  0  0  0  0
  129.3040  127.3260   69.2350 C   0  0  0  0  0  0  0  0  0  0  0  0
  128.4930  126.9780   68.1220 O   0  0  0  0  0  0  0  0  0  0  0  0
  129.1030  127.2350   66.8630 C   0  0  0  0  0  0  0  0  0  0  0  0
  130.4800  126.5490   66.8150 C   0  0  0  0  0  0  0  0  0  0  0  0
  130.6120  125.5720   65.7330 N   0  0  0  0  0  0  0  0  0  0  0  0
  131.7510  125.3020   65.0610 C   0  0  0  0  0  0  0  0  0  0  0  0
  132.8190  125.8580   65.3230 O   0  0  0  0  0  0  0  0  0  0  0  0
  131.6510  124.2960   64.0030 C   0  0  0  0  0  0  0  0  0  0  0  0
  130.6120  122.8900   64.2150 S   0  0  0  0  0  0  0  0  0  0  0  0
  131.0240  122.2910   62.6260 C   0  0  0  0  0  0  0  0  0  0  0  0
  130.5130  121.1530   62.1570 N   0  0  0  0  0  0  0  0  0  0  0  0
  130.9040  120.7930   60.9130 C   0  0  0  0  0  0  0  0  0  0  0  0
  130.3070  119.4960   60.3980 C   0  0  0  0  0  0  0  0  0  0  0  0
  131.7870  121.5370   60.1340 C   0  0  0  0  0  0  0  0  0  0  0  0
  132.3310  122.7350   60.6220 C   0  0  0  0  0  0  0  0  0  0  0  0
  133.3010  123.5160   59.7300 C   0  0  0  0  0  0  0  0  0  0  0  0
  132.8020  124.6800   59.3090 F   0  0  0  0  0  0  0  0  0  0  0  0
  134.4200  123.7820   60.4050 F   0  0  0  0  0  0  0  0  0  0  0  0
  133.6000  122.7970   58.6490 F   0  0  0  0  0  0  0  0  0  0  0  0
  131.9370  123.1450   61.9310 C   0  0  0  0  0  0  0  0  0  0  0  0
  132.2730  124.2860   62.7450 C   0  0  0  0  0  0  0  0  0  0  0  0
  133.1290  125.2720   62.3240 N   0  0  0  0  0  0  0  0  0  0  0  0
  1  2  1  0
  2  3  1  0
  3  4  1  0
  4  5  1  0
  5  6  1  0
  6  7  1  0
  7  8  1  0
  8  9  1  0
  9 10  1  0
 10 11  1  0
 11 12  1  0
 12 13  2  0
 12 14  1  0
 14 15  1  0
 15 16  1  0
 16 17  2  0
 17 18  1  0
 18 19  1  0
 18 20  2  0
 20 21  1  0
 21 22  1  0
 22 23  1  0
 22 24  1  0
 22 25  1  0
 21 26  2  0
 26 27  1  0
 27 28  1  0
 27 14  2  0
 26 16  1  0
M  END
>  <Binding energies>  (54) 
[-6.1]

>  <Ligand effiencies>  (54) 
[-0.19677419354838707]

>  <Interactions>  (54) 
["H-B:GLU:543:OE1:9881, H-A:TYR:484:OH:4346, V-A:ASP:366:CG:3211, V-B:TYR:539:CZ:9849, V-B:TYR:539:CE2:9848, V-B:TYR:539:CD2:9846, V-A:ASP:366:CB:3210, V-A:ILE:369:CD1:3237, V-B:ALA:541:CB:9864, V-A:ILE:369:CG2:3235, V-A:LEU:475:CD2:4257, H-A:ASP:366:OD1:3212, V-A:TRP:381:CH2:3370, V-A:ARG:545:CZ:4924, V-A:TYR:484:CZ:4345, V-B:GLU:543:CD:9880, H-A:ARG:545:NH2:4926, V-B:GLU:543:CB:9878, V-A:TYR:484:CE1:4343, V-A:GLU:543:CD:4906, V-A:HIS:456:CE1:4068, V-B:GLU:543:CG:9879, V-A:TRP:381:CZ2:3368, V-A:ILE:369:CB:3234, H-B:GLU:543:OE2:9882, H-A:ARG:545:NE:4922, V-A:HIS:456:CB:4063, V-A:HIS:456:CG:4064, V-B:HIS:456:CD2:9040, V-A:HIS:456:CD2:4066, V-B:HIS:456:CE1:9042, H-B:LYS:547:NZ:9923, V-A:GLU:543:CG:4905, V-A:TRP:381:CZ3:3369, V-A:PRO:482:CG:4325, V-A:PRO:482:CB:4324, V-A:ILE:369:CG1:3236, H-A:ASP:366:OD2:3213"]

$$$$
4cd_Grossjean_2025
     RDKit          3D

 29 32  0  0  0  0  0  0  0  0999 V2000
  126.1170  126.6320   60.5080 N   0  0  0  0  0  0  0  0  0  0  0  0
  127.3750  126.5050   61.0410 C   0  0  0  0  0  0  0  0  0  0  0  0
  127.9530  127.4640   61.8880 C   0  0  0  0  0  0  0  0  0  0  0  0
  127.3880  128.7370   62.3460 C   0  0  0  0  0  0  0  0  0  0  0  0
  126.5370  128.7630   63.2350 O   0  0  0  0  0  0  0  0  0  0  0  0
  127.8750  129.8430   61.7310 N   0  0  0  0  0  0  0  0  0  0  0  0
  127.5140  131.1930   61.8960 C   0  0  0  0  0  0  0  0  0  0  0  0
  127.8800  132.0560   60.8590 C   0  0  0  0  0  0  0  0  0  0  0  0
  127.5560  133.4080   60.9230 C   0  0  0  0  0  0  0  0  0  0  0  0
  126.8570  133.8980   62.0230 C   0  0  0  0  0  0  0  0  0  0  0  0
  126.4740  133.0480   63.0570 C   0  0  0  0  0  0  0  0  0  0  0  0
  126.7970  131.6940   62.9960 C   0  0  0  0  0  0  0  0  0  0  0  0
  129.5690  126.9750   62.3940 S   0  0  0  0  0  0  0  0  0  0  0  0
  129.4630  125.5000   61.4630 C   0  0  0  0  0  0  0  0  0  0  0  0
  130.4650  124.6250   61.4310 N   0  0  0  0  0  0  0  0  0  0  0  0
  130.2960  123.5140   60.6690 C   0  0  0  0  0  0  0  0  0  0  0  0
  131.4440  122.5470   60.6500 C   0  0  0  0  0  0  0  0  0  0  0  0
  131.2730  121.2360   60.1760 C   0  0  0  0  0  0  0  0  0  0  0  0
  132.3330  120.3350   60.1550 C   0  0  0  0  0  0  0  0  0  0  0  0
  133.5860  120.7330   60.6100 C   0  0  0  0  0  0  0  0  0  0  0  0
  133.7840  122.0260   61.0820 C   0  0  0  0  0  0  0  0  0  0  0  0
  132.7210  122.9250   61.0990 C   0  0  0  0  0  0  0  0  0  0  0  0
  129.1150  123.2770   59.9590 C   0  0  0  0  0  0  0  0  0  0  0  0
  128.0500  124.1920   59.9890 C   0  0  0  0  0  0  0  0  0  0  0  0
  126.7850  123.8720   59.1840 C   0  0  0  0  0  0  0  0  0  0  0  0
  126.9360  122.8300   58.3620 F   0  0  0  0  0  0  0  0  0  0  0  0
  125.7820  123.5840   60.0140 F   0  0  0  0  0  0  0  0  0  0  0  0
  126.4490  124.9230   58.4360 F   0  0  0  0  0  0  0  0  0  0  0  0
  128.2210  125.3670   60.7750 C   0  0  0  0  0  0  0  0  0  0  0  0
  1  2  1  0
  2  3  2  0
  3  4  1  0
  4  5  2  0
  4  6  1  0
  6  7  1  0
  7  8  2  0
  8  9  1  0
  9 10  2  0
 10 11  1  0
 11 12  2  0
  3 13  1  0
 13 14  1  0
 14 15  2  0
 15 16  1  0
 16 17  1  0
 17 18  2  0
 18 19  1  0
 19 20  2  0
 20 21  1  0
 21 22  2  0
 16 23  2  0
 23 24  1  0
 24 25  1  0
 25 26  1  0
 25 27  1  0
 25 28  1  0
 24 29  2  0
 29  2  1  0
 12  7  1  0
 29 14  1  0
 22 17  1  0
M  END
>  <Binding energies>  (55) 
[-5.95]

>  <Ligand effiencies>  (55) 
[-0.1859375]

>  <Interactions>  (55) 
["V-B:TYR:539:CE2:9848, V-B:TYR:539:CD2:9846, V-A:ILE:369:CD1:3237, V-A:ILE:369:CG2:3235, V-A:LEU:475:CD2:4257, V-B:PRO:540:C:9853, V-A:TRP:381:CH2:3370, V-B:PRO:540:CA:9855, V-B:TYR:539:C:9839, V-B:PRO:540:N:9856, V-B:GLU:543:CD:9880, V-A:GLU:543:CD:4906, V-A:TRP:381:CZ2:3368, H-A:GLU:543:OE1:4907, H-B:ARG:545:NH2:9900, V-B:ASP:366:CG:8185, V-B:PRO:540:CB:9857, V-A:ALA:541:CB:4890, V-A:TYR:539:CD2:4872, V-B:PRO:540:CD:9859, H-B:ASP:366:OD2:8187, V-B:LEU:475:CD2:9231, H-B:ASP:366:OD1:8186"]

$$$$
4cg_Grossjean_2025
     RDKit          3D

 30 33  0  0  0  0  0  0  0  0999 V2000
  126.1050  126.4610   60.0070 N   0  0  0  0  0  0  0  0  0  0  0  0
  127.2740  126.4400   60.7250 C   0  0  0  0  0  0  0  0  0  0  0  0
  127.6220  127.4320   61.6530 C   0  0  0  0  0  0  0  0  0  0  0  0
  126.8510  128.6020   62.0700 C   0  0  0  0  0  0  0  0  0  0  0  0
  125.7390  128.8430   61.5940 O   0  0  0  0  0  0  0  0  0  0  0  0
  127.4460  129.4130   62.9710 N   0  0  0  0  0  0  0  0  0  0  0  0
  126.8550  130.6210   63.5440 C   0  0  0  0  0  0  0  0  0  0  0  0
  126.9050  131.8240   62.6080 C   0  0  0  0  0  0  0  0  0  0  0  0
  128.0320  132.0340   61.8080 C   0  0  0  0  0  0  0  0  0  0  0  0
  128.0690  133.1140   60.9290 C   0  0  0  0  0  0  0  0  0  0  0  0
  126.9760  133.9730   60.8460 C   0  0  0  0  0  0  0  0  0  0  0  0
  125.8430  133.7590   61.6290 C   0  0  0  0  0  0  0  0  0  0  0  0
  125.8050  132.6790   62.5070 C   0  0  0  0  0  0  0  0  0  0  0  0
  129.1750  127.0870   62.4090 S   0  0  0  0  0  0  0  0  0  0  0  0
  129.3580  125.6290   61.4620 C   0  0  0  0  0  0  0  0  0  0  0  0
  130.4300  124.8510   61.5860 N   0  0  0  0  0  0  0  0  0  0  0  0
  130.4830  123.7360   60.8120 C   0  0  0  0  0  0  0  0  0  0  0  0
  131.7070  122.8800   60.9740 C   0  0  0  0  0  0  0  0  0  0  0  0
  131.8180  121.6470   60.3090 C   0  0  0  0  0  0  0  0  0  0  0  0
  132.9490  120.8500   60.4570 C   0  0  0  0  0  0  0  0  0  0  0  0
  133.9900  121.2730   61.2770 C   0  0  0  0  0  0  0  0  0  0  0  0
  133.9050  122.4870   61.9500 C   0  0  0  0  0  0  0  0  0  0  0  0
  132.7720  123.2820   61.7990 C   0  0  0  0  0  0  0  0  0  0  0  0
  129.4670  123.4190   59.9040 C   0  0  0  0  0  0  0  0  0  0  0  0
  128.3320  124.2330   59.7640 C   0  0  0  0  0  0  0  0  0  0  0  0
  127.2560  123.8270   58.7500 C   0  0  0  0  0  0  0  0  0  0  0  0
  127.0350  124.7580   57.8210 F   0  0  0  0  0  0  0  0  0  0  0  0
  127.6300  122.7130   58.1190 F   0  0  0  0  0  0  0  0  0  0  0  0
  126.1030  123.6090   59.3790 F   0  0  0  0  0  0  0  0  0  0  0  0
  128.2600  125.3970   60.5830 C   0  0  0  0  0  0  0  0  0  0  0  0
  1  2  1  0
  2  3  2  0
  3  4  1  0
  4  5  2  0
  4  6  1  0
  6  7  1  0
  7  8  1  0
  8  9  2  0
  9 10  1  0
 10 11  2  0
 11 12  1  0
 12 13  2  0
  3 14  1  0
 14 15  1  0
 15 16  2  0
 16 17  1  0
 17 18  1  0
 18 19  2  0
 19 20  1  0
 20 21  2  0
 21 22  1  0
 22 23  2  0
 17 24  2  0
 24 25  1  0
 25 26  1  0
 26 27  1  0
 26 28  1  0
 26 29  1  0
 25 30  2  0
 30  2  1  0
 13  8  1  0
 30 15  1  0
 23 18  1  0
M  END
>  <Binding energies>  (56) 
[-6.12]

>  <Ligand effiencies>  (56) 
[-0.18545454545454546]

>  <Interactions>  (56) 
["V-B:TYR:539:CE2:9848, V-B:TYR:539:CD2:9846, V-A:GLY:454:CA:4047, V-A:ILE:369:CD1:3237, V-A:ILE:369:CG2:3235, V-A:LEU:475:CD2:4257, V-B:PRO:540:C:9853, V-A:TRP:381:CH2:3370, V-B:PRO:540:CA:9855, V-A:GLY:453:C:4040, V-B:TYR:539:C:9839, V-B:PRO:540:N:9856, V-B:TYR:539:CA:9841, V-B:GLU:543:CD:9880, V-A:GLU:543:CD:4906, H-A:GLU:543:OE1:4907, H-A:GLU:543:OE2:4908, H-B:GLU:543:OE2:9882, V-A:TYR:539:CE2:4874, H-B:ARG:545:NH2:9900, V-B:ASP:366:CG:8185, V-B:PRO:540:CB:9857, V-A:ALA:541:CB:4890, V-A:TYR:539:CD2:4872, H-B:ASP:366:OD2:8187, V-B:LEU:475:CD2:9231, H-B:ASP:366:OD1:8186"]

$$$$
4ch_Grossjean_2025
     RDKit          3D

 36 39  0  0  0  0  0  0  0  0999 V2000
  126.5680  128.0890   66.6940 C   0  0  0  0  0  0  0  0  0  0  0  0
  127.0010  127.7580   68.0090 O   0  0  0  0  0  0  0  0  0  0  0  0
  128.3540  127.6320   68.2650 C   0  0  0  0  0  0  0  0  0  0  0  0
  129.3260  127.4430   67.2690 C   0  0  0  0  0  0  0  0  0  0  0  0
  130.6770  127.3250   67.6010 C   0  0  0  0  0  0  0  0  0  0  0  0
  131.7150  127.0930   66.5080 C   0  0  0  0  0  0  0  0  0  0  0  0
  131.1990  126.4020   65.3270 N   0  0  0  0  0  0  0  0  0  0  0  0
  131.7760  125.3420   64.7230 C   0  0  0  0  0  0  0  0  0  0  0  0
  132.8140  124.8250   65.1430 O   0  0  0  0  0  0  0  0  0  0  0  0
  131.0780  124.8110   63.5520 C   0  0  0  0  0  0  0  0  0  0  0  0
  129.9600  125.8320   62.6530 S   0  0  0  0  0  0  0  0  0  0  0  0
  129.6330  124.5470   61.5160 C   0  0  0  0  0  0  0  0  0  0  0  0
  128.7820  124.7130   60.5060 N   0  0  0  0  0  0  0  0  0  0  0  0
  128.5960  123.6590   59.6700 C   0  0  0  0  0  0  0  0  0  0  0  0
  127.6250  123.8760   58.5450 C   0  0  0  0  0  0  0  0  0  0  0  0
  126.7340  124.9620   58.5640 C   0  0  0  0  0  0  0  0  0  0  0  0
  125.8300  125.1690   57.5250 C   0  0  0  0  0  0  0  0  0  0  0  0
  125.8040  124.2900   56.4480 C   0  0  0  0  0  0  0  0  0  0  0  0
  126.6720  123.2040   56.4060 C   0  0  0  0  0  0  0  0  0  0  0  0
  127.5730  122.9990   57.4480 C   0  0  0  0  0  0  0  0  0  0  0  0
  129.2520  122.4390   59.8610 C   0  0  0  0  0  0  0  0  0  0  0  0
  130.1510  122.2520   60.9240 C   0  0  0  0  0  0  0  0  0  0  0  0
  130.8360  120.8890   61.0750 C   0  0  0  0  0  0  0  0  0  0  0  0
  130.3070  120.1420   62.0460 F   0  0  0  0  0  0  0  0  0  0  0  0
  130.7300  120.2020   59.9400 F   0  0  0  0  0  0  0  0  0  0  0  0
  132.1260  121.0630   61.3650 F   0  0  0  0  0  0  0  0  0  0  0  0
  130.3640  123.3550   61.7990 C   0  0  0  0  0  0  0  0  0  0  0  0
  131.1920  123.5410   62.9660 C   0  0  0  0  0  0  0  0  0  0  0  0
  132.0100  122.5570   63.4610 N   0  0  0  0  0  0  0  0  0  0  0  0
  131.0640  127.3770   68.9400 C   0  0  0  0  0  0  0  0  0  0  0  0
  130.1130  127.5620   69.9570 C   0  0  0  0  0  0  0  0  0  0  0  0
  130.4250  127.6250   71.3030 O   0  0  0  0  0  0  0  0  0  0  0  0
  130.9900  126.4860   71.9440 C   0  0  0  0  0  0  0  0  0  0  0  0
  128.7620  127.6950   69.6050 C   0  0  0  0  0  0  0  0  0  0  0  0
  127.8200  127.8620   70.5910 O   0  0  0  0  0  0  0  0  0  0  0  0
  127.9380  126.9410   71.6670 C   0  0  0  0  0  0  0  0  0  0  0  0
  1  2  1  0
  2  3  1  0
  3  4  2  0
  4  5  1  0
  5  6  1  0
  6  7  1  0
  7  8  1  0
  8  9  2  0
  8 10  1  0
 10 11  1  0
 11 12  1  0
 12 13  2  0
 13 14  1  0
 14 15  1  0
 15 16  2  0
 16 17  1  0
 17 18  2  0
 18 19  1  0
 19 20  2  0
 14 21  2  0
 21 22  1  0
 22 23  1  0
 23 24  1  0
 23 25  1  0
 23 26  1  0
 22 27  2  0
 27 28  1  0
 28 29  1  0
  5 30  2  0
 30 31  1  0
 31 32  1  0
 32 33  1  0
 31 34  2  0
 34 35  1  0
 35 36  1  0
 34  3  1  0
 28 10  2  0
 27 12  1  0
 20 15  1  0
M  END
>  <Binding energies>  (57) 
[-5.89]

>  <Ligand effiencies>  (57) 
[-0.151025641025641]

>  <Interactions>  (57) 
["H-B:GLU:543:OE1:9881, H-A:TYR:484:OH:4346, V-B:TYR:539:CE2:9848, V-B:TYR:539:CD2:9846, V-A:GLY:454:CA:4047, V-B:ALA:541:CB:9864, V-A:LEU:475:CD2:4257, V-A:TRP:381:CH2:3370, V-B:PRO:540:CA:9855, V-B:TYR:539:C:9839, V-B:PRO:540:N:9856, V-B:TYR:539:CG:9844, V-B:TYR:539:CA:9841, V-A:ARG:545:CZ:4924, V-A:TYR:484:CZ:4345, V-B:GLU:543:CD:9880, V-B:ALA:541:CA:9862, V-A:ARG:545:CD:4921, V-A:GLU:543:CD:4906, V-A:HIS:456:CE1:4068, V-A:ARG:545:CG:4920, V-B:GLU:543:CG:9879, H-A:GLU:543:OE2:4908, H-B:GLU:543:OE2:9882, H-A:ARG:545:NE:4922, V-A:HIS:456:CG:4064, V-A:HIS:456:CD2:4066, V-B:HIS:456:CE1:9042, V-B:LYS:547:CE:9922, V-B:GLY:544:C:9884, V-A:GLY:544:C:4910, V-A:GLU:543:CG:4905, V-A:GLY:544:CA:4912, V-B:ARG:545:CG:9894, V-A:GLU:543:C:4900, V-A:PRO:482:CB:4324, H-B:HIS:456:ND1:9039, V-B:ARG:545:CD:9895, V-B:GLY:544:CA:9886, V-A:ARG:545:CA:4917, V-B:TYR:531:CZ:9766, V-A:LEU:475:CD1:4256, V-A:LEU:475:CG:4255"]

$$$$
4cj_Grossjean_2025
     RDKit          3D

 28 31  0  0  0  0  0  0  0  0999 V2000
  126.1390  126.6490   60.5190 N   0  0  0  0  0  0  0  0  0  0  0  0
  127.4060  126.5810   61.0390 C   0  0  0  0  0  0  0  0  0  0  0  0
  127.9660  127.5930   61.8360 C   0  0  0  0  0  0  0  0  0  0  0  0
  127.3620  128.8550   62.2680 C   0  0  0  0  0  0  0  0  0  0  0  0
  126.5270  128.8770   63.1760 O   0  0  0  0  0  0  0  0  0  0  0  0
  127.7770  129.9590   61.5980 N   0  0  0  0  0  0  0  0  0  0  0  0
  127.3640  131.2670   61.8100 C   0  0  0  0  0  0  0  0  0  0  0  0
  126.4240  131.6940   62.6260 N   0  0  0  0  0  0  0  0  0  0  0  0
  126.2980  133.0060   62.5750 C   0  0  0  0  0  0  0  0  0  0  0  0
  127.1510  133.6730   61.7010 C   0  0  0  0  0  0  0  0  0  0  0  0
  128.1710  132.5090   60.9070 S   0  0  0  0  0  0  0  0  0  0  0  0
  129.6010  127.1730   62.3430 S   0  0  0  0  0  0  0  0  0  0  0  0
  129.5240  125.6520   61.4840 C   0  0  0  0  0  0  0  0  0  0  0  0
  130.5460  124.8010   61.4880 N   0  0  0  0  0  0  0  0  0  0  0  0
  130.3920  123.6410   60.7990 C   0  0  0  0  0  0  0  0  0  0  0  0
  131.5590  122.6960   60.8340 C   0  0  0  0  0  0  0  0  0  0  0  0
  132.7310  123.0290   61.5320 C   0  0  0  0  0  0  0  0  0  0  0  0
  133.8200  122.1600   61.5640 C   0  0  0  0  0  0  0  0  0  0  0  0
  133.7510  120.9430   60.8930 C   0  0  0  0  0  0  0  0  0  0  0  0
  132.6030  120.5900   60.1930 C   0  0  0  0  0  0  0  0  0  0  0  0
  131.5170  121.4610   60.1650 C   0  0  0  0  0  0  0  0  0  0  0  0
  129.2210  123.3530   60.0890 C   0  0  0  0  0  0  0  0  0  0  0  0
  128.1370  124.2450   60.0770 C   0  0  0  0  0  0  0  0  0  0  0  0
  126.8830  123.8660   59.2820 C   0  0  0  0  0  0  0  0  0  0  0  0
  126.4580  124.8410   58.4760 F   0  0  0  0  0  0  0  0  0  0  0  0
  127.1380  122.8020   58.5200 F   0  0  0  0  0  0  0  0  0  0  0  0
  125.8870  123.5780   60.1200 F   0  0  0  0  0  0  0  0  0  0  0  0
  128.2810  125.4560   60.8120 C   0  0  0  0  0  0  0  0  0  0  0  0
  1  2  1  0
  2  3  2  0
  3  4  1  0
  4  5  2  0
  4  6  1  0
  6  7  1  0
  7  8  2  0
  8  9  1  0
  9 10  2  0
 10 11  1  0
  3 12  1  0
 12 13  1  0
 13 14  2  0
 14 15  1  0
 15 16  1  0
 16 17  2  0
 17 18  1  0
 18 19  2  0
 19 20  1  0
 20 21  2  0
 15 22  2  0
 22 23  1  0
 23 24  1  0
 24 25  1  0
 24 26  1  0
 24 27  1  0
 23 28  2  0
 28  2  1  0
 11  7  1  0
 28 13  1  0
 21 16  1  0
M  END
>  <Binding energies>  (58) 
[-5.28]

>  <Ligand effiencies>  (58) 
[-0.1703225806451613]

>  <Interactions>  (58) 
["V-B:TYR:539:CE2:9848, V-B:TYR:539:CD2:9846, V-A:GLY:454:CA:4047, V-A:ILE:369:CD1:3237, V-A:ILE:369:CG2:3235, V-A:LEU:475:CD2:4257, V-B:PRO:540:C:9853, V-A:TRP:381:CH2:3370, V-B:PRO:540:CA:9855, V-B:TYR:539:C:9839, V-B:PRO:540:N:9856, V-B:GLU:543:CD:9880, V-A:GLU:543:CD:4906, H-A:GLU:543:OE1:4907, H-B:ARG:545:NH2:9900, V-B:ASP:366:CG:8185, V-B:PRO:540:CB:9857, V-A:ALA:541:CB:4890, H-B:ASP:366:OD2:8187, V-B:LEU:475:CD2:9231, H-B:ASP:366:OD1:8186"]

$$$$
4ck_Grossjean_2025
     RDKit          3D

 33 35  0  0  0  0  0  0  0  0999 V2000
  132.1970  125.1020   64.2570 C   0  0  0  0  0  0  0  0  0  0  0  0
  131.4430  124.9970   65.4540 O   0  0  0  0  0  0  0  0  0  0  0  0
  131.2520  126.2420   66.1120 C   0  0  0  0  0  0  0  0  0  0  0  0
  129.8510  126.2690   66.7370 C   0  0  0  0  0  0  0  0  0  0  0  0
  129.8000  127.2950   67.7180 O   0  0  0  0  0  0  0  0  0  0  0  0
  128.4780  127.7080   68.0390 C   0  0  0  0  0  0  0  0  0  0  0  0
  128.0680  128.8520   67.1030 C   0  0  0  0  0  0  0  0  0  0  0  0
  126.9280  128.4460   66.3570 O   0  0  0  0  0  0  0  0  0  0  0  0
  126.1370  129.5280   65.8820 C   0  0  0  0  0  0  0  0  0  0  0  0
  126.6080  129.9330   64.4770 C   0  0  0  0  0  0  0  0  0  0  0  0
  127.2190  128.8140   63.7580 N   0  0  0  0  0  0  0  0  0  0  0  0
  127.2300  128.6460   62.4190 C   0  0  0  0  0  0  0  0  0  0  0  0
  126.7320  129.4630   61.6420 O   0  0  0  0  0  0  0  0  0  0  0  0
  127.8840  127.4310   61.9330 C   0  0  0  0  0  0  0  0  0  0  0  0
  129.5070  127.0220   62.4800 S   0  0  0  0  0  0  0  0  0  0  0  0
  129.4930  125.5410   61.5520 C   0  0  0  0  0  0  0  0  0  0  0  0
  130.5330  124.7110   61.5510 N   0  0  0  0  0  0  0  0  0  0  0  0
  130.4300  123.5840   60.7990 C   0  0  0  0  0  0  0  0  0  0  0  0
  131.6130  122.6600   60.8340 C   0  0  0  0  0  0  0  0  0  0  0  0
  132.7600  122.9890   61.5730 C   0  0  0  0  0  0  0  0  0  0  0  0
  133.8620  122.1370   61.6080 C   0  0  0  0  0  0  0  0  0  0  0  0
  133.8310  120.9400   60.9020 C   0  0  0  0  0  0  0  0  0  0  0  0
  132.7050  120.5870   60.1650 C   0  0  0  0  0  0  0  0  0  0  0  0
  131.6050  121.4410   60.1340 C   0  0  0  0  0  0  0  0  0  0  0  0
  129.2800  123.2930   60.0580 C   0  0  0  0  0  0  0  0  0  0  0  0
  128.1770  124.1620   60.0510 C   0  0  0  0  0  0  0  0  0  0  0  0
  126.9500  123.7830   59.2130 C   0  0  0  0  0  0  0  0  0  0  0  0
  126.5830  124.7390   58.3590 F   0  0  0  0  0  0  0  0  0  0  0  0
  127.2120  122.6880   58.4990 F   0  0  0  0  0  0  0  0  0  0  0  0
  125.9130  123.5450   60.0170 F   0  0  0  0  0  0  0  0  0  0  0  0
  128.2750  125.3470   60.8340 C   0  0  0  0  0  0  0  0  0  0  0  0
  127.3690  126.4440   61.0780 C   0  0  0  0  0  0  0  0  0  0  0  0
  126.1190  126.5130   60.5200 N   0  0  0  0  0  0  0  0  0  0  0  0
  1  2  1  0
  2  3  1  0
  3  4  1  0
  4  5  1  0
  5  6  1  0
  6  7  1  0
  7  8  1  0
  8  9  1  0
  9 10  1  0
 10 11  1  0
 11 12  1  0
 12 13  2  0
 12 14  1  0
 14 15  1  0
 15 16  1  0
 16 17  2  0
 17 18  1  0
 18 19  1  0
 19 20  2  0
 20 21  1  0
 21 22  2  0
 22 23  1  0
 23 24  2  0
 18 25  2  0
 25 26  1  0
 26 27  1  0
 27 28  1  0
 27 29  1  0
 27 30  1  0
 26 31  2  0
 31 32  1  0
 32 33  1  0
 32 14  2  0
 31 16  1  0
 24 19  1  0
M  END
>  <Binding energies>  (59) 
[-5.6]

>  <Ligand effiencies>  (59) 
[-0.15555555555555556]

>  <Interactions>  (59) 
["H-A:TYR:484:OH:4346, V-B:TYR:539:CE2:9848, V-B:TYR:539:CD2:9846, V-A:GLY:454:CA:4047, V-A:ILE:369:CD1:3237, V-A:ILE:369:CG2:3235, V-A:LEU:475:CD2:4257, V-B:PRO:540:C:9853, V-A:TRP:381:CH2:3370, V-B:PRO:540:CA:9855, V-B:TYR:539:C:9839, V-B:PRO:540:N:9856, V-A:ARG:545:CZ:4924, V-B:GLU:543:CD:9880, V-B:GLU:543:CB:9878, V-A:GLU:543:CD:4906, V-A:HIS:456:CE1:4068, V-A:ARG:545:CG:4920, V-B:GLU:543:CG:9879, H-A:GLU:543:OE1:4907, H-A:GLU:543:OE2:4908, H-B:GLU:543:OE2:9882, V-B:ASP:366:CG:8185, V-B:HIS:456:CE1:9042, V-A:GLU:543:CG:4905, V-B:PRO:540:CB:9857, V-A:GLU:543:CB:4904, H-B:ASP:366:OD2:8187, H-B:ASP:366:OD1:8186"]

$$$$
4dd_Grossjean_2025
     RDKit          3D

 26 29  0  0  0  0  0  0  0  0999 V2000
  126.8330  123.6520   59.5640 C   0  0  0  0  0  0  0  0  0  0  0  0
  128.1170  124.1080   60.2410 C   0  0  0  0  0  0  0  0  0  0  0  0
  129.2100  123.2320   60.2420 C   0  0  0  0  0  0  0  0  0  0  0  0
  130.4200  123.5920   60.8480 C   0  0  0  0  0  0  0  0  0  0  0  0
  131.6040  122.6720   60.8700 C   0  0  0  0  0  0  0  0  0  0  0  0
  131.5810  121.4530   60.1730 C   0  0  0  0  0  0  0  0  0  0  0  0
  132.6780  120.5950   60.1870 C   0  0  0  0  0  0  0  0  0  0  0  0
  133.8190  120.9460   60.9010 C   0  0  0  0  0  0  0  0  0  0  0  0
  133.8700  122.1480   61.5980 C   0  0  0  0  0  0  0  0  0  0  0  0
  132.7710  123.0040   61.5810 C   0  0  0  0  0  0  0  0  0  0  0  0
  130.5840  124.7930   61.4680 N   0  0  0  0  0  0  0  0  0  0  0  0
  129.5470  125.6300   61.4620 C   0  0  0  0  0  0  0  0  0  0  0  0
  129.6270  127.2110   62.2050 S   0  0  0  0  0  0  0  0  0  0  0  0
  127.9610  127.5650   61.7410 C   0  0  0  0  0  0  0  0  0  0  0  0
  127.3560  128.8550   62.0770 C   0  0  0  0  0  0  0  0  0  0  0  0
  126.3440  128.9100   62.7780 O   0  0  0  0  0  0  0  0  0  0  0  0
  127.9890  129.9420   61.5740 N   0  0  0  0  0  0  0  0  0  0  0  0
  127.6430  131.3030   61.6630 C   0  0  0  0  0  0  0  0  0  0  0  0
  127.9780  132.0920   60.5590 C   0  0  0  0  0  0  0  0  0  0  0  0
  127.6650  133.4490   60.5450 C   0  0  0  0  0  0  0  0  0  0  0  0
  127.0080  134.0160   61.6330 C   0  0  0  0  0  0  0  0  0  0  0  0
  126.6570  133.2390   62.7340 C   0  0  0  0  0  0  0  0  0  0  0  0
  126.9690  131.8820   62.7510 C   0  0  0  0  0  0  0  0  0  0  0  0
  127.3900  126.4860   61.0470 C   0  0  0  0  0  0  0  0  0  0  0  0
  126.1030  126.4810   60.5700 N   0  0  0  0  0  0  0  0  0  0  0  0
  128.2780  125.3680   60.8720 C   0  0  0  0  0  0  0  0  0  0  0  0
  1  2  1  0
  2  3  2  0
  3  4  1  0
  4  5  1  0
  5  6  2  0
  6  7  1  0
  7  8  2  0
  8  9  1  0
  9 10  2  0
  4 11  2  0
 11 12  1  0
 12 13  1  0
 13 14  1  0
 14 15  1  0
 15 16  2  0
 15 17  1  0
 17 18  1  0
 18 19  2  0
 19 20  1  0
 20 21  2  0
 21 22  1  0
 22 23  2  0
 14 24  2  0
 24 25  1  0
 24 26  1  0
 26  2  1  0
 10  5  1  0
 26 12  2  0
 23 18  1  0
M  END
>  <Binding energies>  (60) 
[-6.19]

>  <Ligand effiencies>  (60) 
[-0.213448275862069]

>  <Interactions>  (60) 
["V-B:TYR:539:CE2:9848, V-B:TYR:539:CD2:9846, V-A:GLY:454:CA:4047, V-A:ILE:369:CD1:3237, V-A:ILE:369:CG2:3235, V-A:LEU:475:CD2:4257, V-A:TRP:381:CH2:3370, V-B:PRO:540:CA:9855, V-B:PRO:540:N:9856, V-A:GLU:543:CD:4906, H-A:GLU:543:OE1:4907, V-A:TYR:539:CE2:4874, H-B:ARG:545:NH2:9900, V-B:ASP:366:CG:8185, V-A:ALA:541:CB:4890, V-A:TYR:539:CD2:4872, H-B:ASP:366:OD2:8187, V-B:LEU:475:CD2:9231, H-B:ASP:366:OD1:8186"]

$$$$
4dg_Grossjean_2025
     RDKit          3D

 27 30  0  0  0  0  0  0  0  0999 V2000
  127.3020  123.9440   58.6560 C   0  0  0  0  0  0  0  0  0  0  0  0
  128.3530  124.3190   59.6900 C   0  0  0  0  0  0  0  0  0  0  0  0
  129.4700  123.4870   59.8280 C   0  0  0  0  0  0  0  0  0  0  0  0
  130.4730  123.7770   60.7610 C   0  0  0  0  0  0  0  0  0  0  0  0
  131.6840  122.9040   60.9300 C   0  0  0  0  0  0  0  0  0  0  0  0
  132.4460  122.9480   62.1090 C   0  0  0  0  0  0  0  0  0  0  0  0
  133.5720  122.1440   62.2690 C   0  0  0  0  0  0  0  0  0  0  0  0
  133.9530  121.2800   61.2490 C   0  0  0  0  0  0  0  0  0  0  0  0
  133.2190  121.2180   60.0680 C   0  0  0  0  0  0  0  0  0  0  0  0
  132.0960  122.0240   59.9120 C   0  0  0  0  0  0  0  0  0  0  0  0
  130.4170  124.8800   61.5560 N   0  0  0  0  0  0  0  0  0  0  0  0
  129.3530  125.6730   61.4260 C   0  0  0  0  0  0  0  0  0  0  0  0
  129.1530  127.1180   62.3900 S   0  0  0  0  0  0  0  0  0  0  0  0
  127.6190  127.4830   61.6020 C   0  0  0  0  0  0  0  0  0  0  0  0
  126.8400  128.6500   62.0150 C   0  0  0  0  0  0  0  0  0  0  0  0
  125.6930  128.8350   61.6030 O   0  0  0  0  0  0  0  0  0  0  0  0
  127.4690  129.5170   62.8360 N   0  0  0  0  0  0  0  0  0  0  0  0
  126.8810  130.7350   63.3910 C   0  0  0  0  0  0  0  0  0  0  0  0
  126.7640  131.8680   62.3770 C   0  0  0  0  0  0  0  0  0  0  0  0
  125.5060  132.3900   62.0610 C   0  0  0  0  0  0  0  0  0  0  0  0
  125.3980  133.4450   61.1600 C   0  0  0  0  0  0  0  0  0  0  0  0
  126.5480  133.9830   60.5860 C   0  0  0  0  0  0  0  0  0  0  0  0
  127.8060  133.4790   60.9090 C   0  0  0  0  0  0  0  0  0  0  0  0
  127.9140  132.4240   61.8110 C   0  0  0  0  0  0  0  0  0  0  0  0
  127.2890  126.5070   60.6500 C   0  0  0  0  0  0  0  0  0  0  0  0
  126.1430  126.5310   59.8970 N   0  0  0  0  0  0  0  0  0  0  0  0
  128.2730  125.4650   60.5220 C   0  0  0  0  0  0  0  0  0  0  0  0
  1  2  1  0
  2  3  2  0
  3  4  1  0
  4  5  1  0
  5  6  2  0
  6  7  1  0
  7  8  2  0
  8  9  1  0
  9 10  2  0
  4 11  2  0
 11 12  1  0
 12 13  1  0
 13 14  1  0
 14 15  1  0
 15 16  2  0
 15 17  1  0
 17 18  1  0
 18 19  1  0
 19 20  2  0
 20 21  1  0
 21 22  2  0
 22 23  1  0
 23 24  2  0
 14 25  2  0
 25 26  1  0
 25 27  1  0
 27  2  1  0
 10  5  1  0
 27 12  2  0
 24 19  1  0
M  END
>  <Binding energies>  (61) 
[-6.04]

>  <Ligand effiencies>  (61) 
[-0.20133333333333334]

>  <Interactions>  (61) 
["V-B:TYR:539:CE2:9848, V-B:TYR:539:CD2:9846, V-A:GLY:454:CA:4047, V-A:ILE:369:CD1:3237, V-A:ILE:369:CG2:3235, V-A:LEU:475:CD2:4257, V-B:PRO:540:CA:9855, V-B:GLU:543:CD:9880, V-A:GLU:543:CD:4906, H-A:GLU:543:OE1:4907, H-A:GLU:543:OE2:4908, H-B:GLU:543:OE2:9882, V-A:TYR:539:CE2:4874, H-B:ARG:545:NH2:9900, V-B:ASP:366:CG:8185, V-A:ALA:541:CB:4890, V-A:TYR:539:CD2:4872, H-B:ASP:366:OD2:8187, V-B:LEU:475:CD2:9231, H-B:ASP:366:OD1:8186"]

$$$$
4dj_Grossjean_2025
     RDKit          3D

 25 28  0  0  0  0  0  0  0  0999 V2000
  127.1310  123.2590   59.1410 C   0  0  0  0  0  0  0  0  0  0  0  0
  128.2990  123.8050   59.9490 C   0  0  0  0  0  0  0  0  0  0  0  0
  129.4370  123.0020   60.0900 C   0  0  0  0  0  0  0  0  0  0  0  0
  130.5450  123.4450   60.8230 C   0  0  0  0  0  0  0  0  0  0  0  0
  131.7810  122.6070   60.9860 C   0  0  0  0  0  0  0  0  0  0  0  0
  131.9410  121.4110   60.2680 C   0  0  0  0  0  0  0  0  0  0  0  0
  133.0840  120.6300   60.4150 C   0  0  0  0  0  0  0  0  0  0  0  0
  134.0870  121.0340   61.2890 C   0  0  0  0  0  0  0  0  0  0  0  0
  133.9540  122.2120   62.0160 C   0  0  0  0  0  0  0  0  0  0  0  0
  132.8100  122.9900   61.8650 C   0  0  0  0  0  0  0  0  0  0  0  0
  130.5720  124.6720   61.4110 N   0  0  0  0  0  0  0  0  0  0  0  0
  129.4900  125.4370   61.2790 C   0  0  0  0  0  0  0  0  0  0  0  0
  129.3880  127.0320   61.9900 S   0  0  0  0  0  0  0  0  0  0  0  0
  127.7590  127.2640   61.3510 C   0  0  0  0  0  0  0  0  0  0  0  0
  127.0300  128.5050   61.6170 C   0  0  0  0  0  0  0  0  0  0  0  0
  125.8960  128.6800   61.1630 O   0  0  0  0  0  0  0  0  0  0  0  0
  127.6890  129.4190   62.3710 N   0  0  0  0  0  0  0  0  0  0  0  0
  127.2270  130.6680   62.7620 C   0  0  0  0  0  0  0  0  0  0  0  0
  127.6160  131.8470   62.3260 N   0  0  0  0  0  0  0  0  0  0  0  0
  126.9590  132.8240   62.9190 C   0  0  0  0  0  0  0  0  0  0  0  0
  126.0090  132.4440   63.8620 C   0  0  0  0  0  0  0  0  0  0  0  0
  125.9830  130.7090   63.9710 S   0  0  0  0  0  0  0  0  0  0  0  0
  127.3360  126.1400   60.6250 C   0  0  0  0  0  0  0  0  0  0  0  0
  126.1090  126.0410   60.0180 N   0  0  0  0  0  0  0  0  0  0  0  0
  128.3080  125.0820   60.5670 C   0  0  0  0  0  0  0  0  0  0  0  0
  1  2  1  0
  2  3  2  0
  3  4  1  0
  4  5  1  0
  5  6  2  0
  6  7  1  0
  7  8  2  0
  8  9  1  0
  9 10  2  0
  4 11  2  0
 11 12  1  0
 12 13  1  0
 13 14  1  0
 14 15  1  0
 15 16  2  0
 15 17  1  0
 17 18  1  0
 18 19  2  0
 19 20  1  0
 20 21  2  0
 21 22  1  0
 14 23  2  0
 23 24  1  0
 23 25  1  0
 25  2  1  0
 10  5  1  0
 25 12  2  0
 22 18  1  0
M  END
>  <Binding energies>  (62) 
[-5.6]

>  <Ligand effiencies>  (62) 
[-0.19999999999999998]

>  <Interactions>  (62) 
["V-B:TYR:539:CE2:9848, V-B:TYR:539:CD2:9846, V-A:GLY:454:CA:4047, V-A:ILE:369:CD1:3237, V-A:ILE:369:CG2:3235, V-A:LEU:475:CD2:4257, V-B:PRO:540:C:9853, V-A:TRP:381:CH2:3370, V-B:PRO:540:CA:9855, V-A:GLY:453:C:4040, V-B:TYR:539:C:9839, V-B:PRO:540:N:9856, V-B:GLU:543:CD:9880, V-A:GLU:543:CD:4906, H-A:GLU:543:OE1:4907, H-A:GLU:543:OE2:4908, V-A:SER:385:C:3403, H-B:ARG:545:NH2:9900, V-B:ASP:366:CG:8185, V-A:ALA:541:CB:4890, H-B:ASP:366:OD2:8187, V-B:LEU:475:CD2:9231, V-B:TYR:484:CZ:9319, H-B:ASP:366:OD1:8186"]

$$$$
4ea_Grossjean_2025
     RDKit          3D

 31 34  0  0  0  0  0  0  0  0999 V2000
  129.3160  125.5310   72.1460 C   0  0  0  0  0  0  0  0  0  0  0  0
  130.4440  126.5660   72.1390 C   0  0  0  0  0  0  0  0  0  0  0  0
  129.9020  127.8540   71.8800 O   0  0  0  0  0  0  0  0  0  0  0  0
  128.7950  128.0080   71.1090 C   0  0  0  0  0  0  0  0  0  0  0  0
  127.7140  128.4140   71.5460 O   0  0  0  0  0  0  0  0  0  0  0  0
  129.0160  127.6350   69.6720 C   0  0  0  0  0  0  0  0  0  0  0  0
  130.3270  127.4980   69.1960 C   0  0  0  0  0  0  0  0  0  0  0  0
  130.5660  127.1530   67.8690 C   0  0  0  0  0  0  0  0  0  0  0  0
  129.5030  126.9370   66.9910 C   0  0  0  0  0  0  0  0  0  0  0  0
  129.8640  126.5940   65.6740 N   0  0  0  0  0  0  0  0  0  0  0  0
  130.6110  125.5620   65.2090 C   0  0  0  0  0  0  0  0  0  0  0  0
  131.1280  124.7030   65.9230 O   0  0  0  0  0  0  0  0  0  0  0  0
  130.7810  125.5200   63.7540 C   0  0  0  0  0  0  0  0  0  0  0  0
  130.2060  126.8540   62.7490 S   0  0  0  0  0  0  0  0  0  0  0  0
  130.7580  126.0580   61.2930 C   0  0  0  0  0  0  0  0  0  0  0  0
  130.6010  126.6080   60.0870 N   0  0  0  0  0  0  0  0  0  0  0  0
  131.0730  125.8880   59.0390 C   0  0  0  0  0  0  0  0  0  0  0  0
  130.8850  126.5310   57.6780 C   0  0  0  0  0  0  0  0  0  0  0  0
  131.6900  124.6460   59.1670 C   0  0  0  0  0  0  0  0  0  0  0  0
  131.8520  124.0740   60.4330 C   0  0  0  0  0  0  0  0  0  0  0  0
  132.5100  122.7540   60.5530 C   0  0  0  0  0  0  0  0  0  0  0  0
  131.9030  121.6140   60.0160 C   0  0  0  0  0  0  0  0  0  0  0  0
  132.5220  120.3720   60.1260 C   0  0  0  0  0  0  0  0  0  0  0  0
  133.7490  120.2690   60.7770 C   0  0  0  0  0  0  0  0  0  0  0  0
  134.3610  121.3970   61.3200 C   0  0  0  0  0  0  0  0  0  0  0  0
  133.7400  122.6380   61.2090 C   0  0  0  0  0  0  0  0  0  0  0  0
  131.3710  124.7970   61.5600 C   0  0  0  0  0  0  0  0  0  0  0  0
  131.3700  124.5150   62.9720 C   0  0  0  0  0  0  0  0  0  0  0  0
  131.9040  123.3610   63.4870 N   0  0  0  0  0  0  0  0  0  0  0  0
  128.1870  127.0720   67.4590 C   0  0  0  0  0  0  0  0  0  0  0  0
  127.9500  127.4170   68.7870 C   0  0  0  0  0  0  0  0  0  0  0  0
  1  2  1  0
  2  3  1  0
  3  4  1  0
  4  5  2  0
  4  6  1  0
  6  7  2  0
  7  8  1  0
  8  9  2  0
  9 10  1  0
 10 11  1  0
 11 12  2  0
 11 13  1  0
 13 14  1  0
 14 15  1  0
 15 16  2  0
 16 17  1  0
 17 18  1  0
 17 19  2  0
 19 20  1  0
 20 21  1  0
 21 22  2  0
 22 23  1  0
 23 24  2  0
 24 25  1  0
 25 26  2  0
 20 27  2  0
 27 28  1  0
 28 29  1  0
  9 30  1  0
 30 31  2  0
 31  6  1  0
 28 13  2  0
 27 15  1  0
 26 21  1  0
M  END
>  <Binding energies>  (63) 
[-7.29]

>  <Ligand effiencies>  (63) 
[-0.21441176470588236]

>  <Interactions>  (63) 
["H-B:GLU:543:OE1:9881, H-A:TYR:484:OH:4346, V-A:ASP:366:CG:3211, V-B:TYR:539:CE2:9848, V-B:TYR:539:CD2:9846, V-A:GLY:454:CA:4047, V-A:ILE:369:CD1:3237, V-A:ILE:369:CG2:3235, V-A:LEU:475:CD2:4257, V-A:TRP:381:CH2:3370, V-B:GLU:543:CD:9880, V-B:GLU:543:CB:9878, V-A:GLU:543:CD:4906, V-A:HIS:456:CE1:4068, V-A:ARG:545:CG:4920, V-B:GLU:543:CG:9879, V-A:TRP:381:CZ2:3368, H-A:GLU:543:OE1:4907, H-A:GLU:543:OE2:4908, H-B:GLU:543:OE2:9882, V-A:SER:385:C:3403, V-A:HIS:456:CG:4064, V-B:HIS:456:CD2:9040, V-A:HIS:456:CD2:4066, V-B:HIS:456:CE1:9042, V-B:LYS:547:CE:9922, V-A:GLY:544:C:4910, V-A:GLU:543:CG:4905, V-A:GLU:543:C:4900, V-B:GLU:543:C:9874, V-A:ILE:369:CG1:3236, H-B:HIS:456:ND1:9039, V-B:GLY:544:CA:9886"]

$$$$
4eb_Grossjean_2025
     RDKit          3D

 30 33  0  0  0  0  0  0  0  0999 V2000
  130.4220  126.5960   72.3010 C   0  0  0  0  0  0  0  0  0  0  0  0
  129.9720  127.8250   71.7500 O   0  0  0  0  0  0  0  0  0  0  0  0
  128.8320  127.8840   71.0130 C   0  0  0  0  0  0  0  0  0  0  0  0
  127.7340  128.1900   71.4840 O   0  0  0  0  0  0  0  0  0  0  0  0
  129.0430  127.5400   69.5670 C   0  0  0  0  0  0  0  0  0  0  0  0
  130.3470  127.3440   69.0930 C   0  0  0  0  0  0  0  0  0  0  0  0
  130.5750  127.0250   67.7580 C   0  0  0  0  0  0  0  0  0  0  0  0
  129.5080  126.8940   66.8690 C   0  0  0  0  0  0  0  0  0  0  0  0
  129.8570  126.5680   65.5440 N   0  0  0  0  0  0  0  0  0  0  0  0
  130.6690  125.5940   65.0650 C   0  0  0  0  0  0  0  0  0  0  0  0
  131.2720  124.7830   65.7690 O   0  0  0  0  0  0  0  0  0  0  0  0
  130.8010  125.5520   63.6060 C   0  0  0  0  0  0  0  0  0  0  0  0
  130.3170  126.9380   62.6260 S   0  0  0  0  0  0  0  0  0  0  0  0
  130.7670  126.1130   61.1510 C   0  0  0  0  0  0  0  0  0  0  0  0
  130.6290  126.6860   59.9540 N   0  0  0  0  0  0  0  0  0  0  0  0
  131.0140  125.9410   58.8900 C   0  0  0  0  0  0  0  0  0  0  0  0
  130.8490  126.6110   57.5370 C   0  0  0  0  0  0  0  0  0  0  0  0
  131.5280  124.6500   58.9920 C   0  0  0  0  0  0  0  0  0  0  0  0
  131.6700  124.0530   60.2500 C   0  0  0  0  0  0  0  0  0  0  0  0
  132.2180  122.6800   60.3440 C   0  0  0  0  0  0  0  0  0  0  0  0
  131.3840  121.5770   60.1380 C   0  0  0  0  0  0  0  0  0  0  0  0
  131.8990  120.2850   60.2240 C   0  0  0  0  0  0  0  0  0  0  0  0
  133.2470  120.0980   60.5190 C   0  0  0  0  0  0  0  0  0  0  0  0
  134.0850  121.1920   60.7280 C   0  0  0  0  0  0  0  0  0  0  0  0
  133.5690  122.4820   60.6420 C   0  0  0  0  0  0  0  0  0  0  0  0
  131.2770  124.8030   61.3930 C   0  0  0  0  0  0  0  0  0  0  0  0
  131.2860  124.5090   62.8010 C   0  0  0  0  0  0  0  0  0  0  0  0
  131.7320  123.3090   63.2970 N   0  0  0  0  0  0  0  0  0  0  0  0
  128.1980  127.0880   67.3340 C   0  0  0  0  0  0  0  0  0  0  0  0
  127.9720  127.4080   68.6700 C   0  0  0  0  0  0  0  0  0  0  0  0
  1  2  1  0
  2  3  1  0
  3  4  2  0
  3  5  1  0
  5  6  2  0
  6  7  1  0
  7  8  2  0
  8  9  1  0
  9 10  1  0
 10 11  2  0
 10 12  1  0
 12 13  1  0
 13 14  1  0
 14 15  2  0
 15 16  1  0
 16 17  1  0
 16 18  2  0
 18 19  1  0
 19 20  1  0
 20 21  2  0
 21 22  1  0
 22 23  2  0
 23 24  1  0
 24 25  2  0
 19 26  2  0
 26 27  1  0
 27 28  1  0
  8 29  1  0
 29 30  2  0
 30  5  1  0
 27 12  2  0
 26 14  1  0
 25 20  1  0
M  END
>  <Binding energies>  (64) 
[-7.1]

>  <Ligand effiencies>  (64) 
[-0.21515151515151515]

>  <Interactions>  (64) 
["H-B:GLU:543:OE1:9881, H-A:TYR:484:OH:4346, V-A:ASP:366:CG:3211, V-B:TYR:539:CE2:9848, V-B:TYR:539:CD2:9846, V-A:ILE:369:CD1:3237, V-A:ILE:369:CG2:3235, V-A:LEU:475:CD2:4257, V-A:TRP:381:CH2:3370, V-B:GLU:543:CD:9880, V-B:GLU:543:CB:9878, V-A:GLU:543:CD:4906, V-A:HIS:456:CE1:4068, V-A:ARG:545:CG:4920, V-B:GLU:543:CG:9879, V-A:TRP:381:CZ2:3368, H-A:GLU:543:OE1:4907, H-A:GLU:543:OE2:4908, H-B:GLU:543:OE2:9882, V-B:HIS:456:CD2:9040, V-A:HIS:456:CD2:4066, V-B:HIS:456:CE1:9042, V-A:GLY:544:C:4910, V-A:GLU:543:CG:4905, V-A:GLU:543:C:4900, V-B:GLU:543:C:9874, V-A:ILE:369:CG1:3236"]

$$$$
8b_Ghoteimi_2023
     RDKit          3D

 34 38  0  0  0  0  0  0  0  0999 V2000
  127.1610  128.1260   74.5270 C   0  0  0  0  0  0  0  0  0  0  0  0
  128.4980  128.1040   74.0390 O   0  0  0  0  0  0  0  0  0  0  0  0
  128.7190  127.9280   72.6860 C   0  0  0  0  0  0  0  0  0  0  0  0
  127.5910  127.9060   71.8690 C   0  0  0  0  0  0  0  0  0  0  0  0
  127.7160  127.7330   70.4940 C   0  0  0  0  0  0  0  0  0  0  0  0
  128.9760  127.5770   69.9000 C   0  0  0  0  0  0  0  0  0  0  0  0
  129.1170  127.3880   68.4230 C   0  0  0  0  0  0  0  0  0  0  0  0
  128.3810  128.1510   67.5090 C   0  0  0  0  0  0  0  0  0  0  0  0
  128.5320  127.9560   66.1330 C   0  0  0  0  0  0  0  0  0  0  0  0
  127.7300  128.7730   65.1930 C   0  0  0  0  0  0  0  0  0  0  0  0
  127.9150  128.6430   63.8150 C   0  0  0  0  0  0  0  0  0  0  0  0
  127.1540  129.4050   62.9330 C   0  0  0  0  0  0  0  0  0  0  0  0
  126.2020  130.3060   63.4120 C   0  0  0  0  0  0  0  0  0  0  0  0
  125.4930  131.0180   62.4630 O   0  0  0  0  0  0  0  0  0  0  0  0
  125.7820  132.3990   62.2720 C   0  0  0  0  0  0  0  0  0  0  0  0
  126.0220  130.4380   64.7970 C   0  0  0  0  0  0  0  0  0  0  0  0
  126.7830  129.6750   65.6790 C   0  0  0  0  0  0  0  0  0  0  0  0
  129.4560  126.9700   65.6950 C   0  0  0  0  0  0  0  0  0  0  0  0
  129.8570  126.5200   64.3870 C   0  0  0  0  0  0  0  0  0  0  0  0
  129.3350  127.0520   63.2360 N   0  0  0  0  0  0  0  0  0  0  0  0
  130.8230  125.5020   64.4080 C   0  0  0  0  0  0  0  0  0  0  0  0
  131.4530  124.8200   63.2750 C   0  0  0  0  0  0  0  0  0  0  0  0
  132.5600  125.1760   62.8630 O   0  0  0  0  0  0  0  0  0  0  0  0
  130.7360  123.8020   62.7360 N   0  0  0  0  0  0  0  0  0  0  0  0
  131.0920  122.9900   61.6680 C   0  0  0  0  0  0  0  0  0  0  0  0
  132.4040  122.5860   61.4230 C   0  0  0  0  0  0  0  0  0  0  0  0
  132.3330  121.8090   60.2890 C   0  0  0  0  0  0  0  0  0  0  0  0
  131.0460  121.7460   59.8740 O   0  0  0  0  0  0  0  0  0  0  0  0
  130.2680  122.4970   60.7570 N   0  0  0  0  0  0  0  0  0  0  0  0
  131.2620  125.0740   66.0620 S   0  0  0  0  0  0  0  0  0  0  0  0
  130.1530  126.2580   66.7130 C   0  0  0  0  0  0  0  0  0  0  0  0
  130.0090  126.4410   68.0250 N   0  0  0  0  0  0  0  0  0  0  0  0
  130.1070  127.6030   70.7270 C   0  0  0  0  0  0  0  0  0  0  0  0
  129.9850  127.7750   72.1030 C   0  0  0  0  0  0  0  0  0  0  0  0
  1  2  1  0
  2  3  1  0
  3  4  2  0
  4  5  1  0
  5  6  2  0
  6  7  1  0
  7  8  2  0
  8  9  1  0
  9 10  1  0
 10 11  2  0
 11 12  1  0
 12 13  2  0
 13 14  1  0
 14 15  1  0
 13 16  1  0
 16 17  2  0
  9 18  2  0
 18 19  1  0
 19 20  1  0
 19 21  2  0
 21 22  1  0
 22 23  2  0
 22 24  1  0
 24 25  1  0
 25 26  1  0
 26 27  2  0
 27 28  1  0
 28 29  1  0
 21 30  1  0
 30 31  1  0
 31 32  2  0
  6 33  1  0
 33 34  2  0
 34  3  1  0
 32  7  1  0
 17 10  1  0
 31 18  1  0
 29 25  2  0
M  END
>  <Binding energies>  (65) 
[-3.22]

>  <Ligand effiencies>  (65) 
[-0.08702702702702703]

>  <Interactions>  (65) 
["H-B:GLU:543:OE1:9881, V-B:TYR:539:CE2:9848, V-B:TYR:539:CD2:9846, V-A:LEU:475:CD2:4257, V-A:TYR:484:CZ:4345, V-B:GLU:543:CD:9880, H-A:ARG:545:NH2:4926, V-B:GLU:543:CB:9878, V-A:GLU:543:CD:4906, V-A:HIS:456:CE1:4068, V-B:GLU:543:CG:9879, H-A:GLU:543:OE1:4907, H-A:GLU:543:OE2:4908, H-B:GLU:543:OE2:9882, V-A:LYS:547:CE:4948, V-B:HIS:456:CD2:9040, H-A:LYS:547:NZ:4949, V-B:HIS:456:CE1:9042, V-B:LYS:547:CE:9922, H-B:LYS:547:NZ:9923, V-B:HIS:456:CG:9038, V-B:GLY:544:C:9884, V-A:GLY:544:C:4910, V-A:GLU:543:CG:4905, V-A:GLY:544:CA:4912, V-A:GLU:543:C:4900, V-A:GLU:543:CB:4904, V-B:LYS:547:CD:9921, V-B:LEU:475:CD2:9231, V-B:TYR:484:CZ:9319"]

$$$$
9d_Ghoteimi_2023
     RDKit          3D

 38 43  0  0  0  0  0  0  0  0999 V2000
  133.4170  123.5880   58.7220 C   0  0  0  0  0  0  0  0  0  0  0  0
  132.6810  122.4670   59.1880 O   0  0  0  0  0  0  0  0  0  0  0  0
  132.7650  122.0690   60.4840 C   0  0  0  0  0  0  0  0  0  0  0  0
  133.2840  121.0100   60.8480 O   0  0  0  0  0  0  0  0  0  0  0  0
  132.1620  123.0380   61.4250 C   0  0  0  0  0  0  0  0  0  0  0  0
  132.3520  122.8100   63.1630 S   0  0  0  0  0  0  0  0  0  0  0  0
  131.4530  124.2710   63.4940 C   0  0  0  0  0  0  0  0  0  0  0  0
  131.2580  124.7040   64.7390 N   0  0  0  0  0  0  0  0  0  0  0  0
  130.5600  125.8600   64.8880 C   0  0  0  0  0  0  0  0  0  0  0  0
  130.3760  126.3400   66.2920 C   0  0  0  0  0  0  0  0  0  0  0  0
  131.4150  126.9980   66.9590 C   0  0  0  0  0  0  0  0  0  0  0  0
  131.2550  127.4470   68.2670 C   0  0  0  0  0  0  0  0  0  0  0  0
  130.0430  127.2640   68.9530 C   0  0  0  0  0  0  0  0  0  0  0  0
  129.8730  127.6940   70.2740 N   0  0  0  0  0  0  0  0  0  0  0  0
  128.7440  128.5650   70.6590 C   0  0  0  0  0  0  0  0  0  0  0  0
  128.9030  129.2150   72.0490 C   0  0  0  0  0  0  0  0  0  0  0  0
  129.1320  128.2160   73.0290 O   0  0  0  0  0  0  0  0  0  0  0  0
  130.3150  127.4840   72.7570 C   0  0  0  0  0  0  0  0  0  0  0  0
  130.2030  126.7800   71.3880 C   0  0  0  0  0  0  0  0  0  0  0  0
  129.0100  126.5900   68.2850 C   0  0  0  0  0  0  0  0  0  0  0  0
  129.1720  126.1390   66.9780 C   0  0  0  0  0  0  0  0  0  0  0  0
  130.0330  126.5590   63.7990 C   0  0  0  0  0  0  0  0  0  0  0  0
  130.2180  126.0980   62.4910 C   0  0  0  0  0  0  0  0  0  0  0  0
  129.6120  126.8660   61.3710 C   0  0  0  0  0  0  0  0  0  0  0  0
  128.2410  126.7900   61.1140 C   0  0  0  0  0  0  0  0  0  0  0  0
  127.6750  127.5250   60.0760 C   0  0  0  0  0  0  0  0  0  0  0  0
  128.4640  128.3680   59.2760 C   0  0  0  0  0  0  0  0  0  0  0  0
  127.9220  129.1080   58.2230 N   0  0  0  0  0  0  0  0  0  0  0  0
  128.4680  130.4480   57.9330 C   0  0  0  0  0  0  0  0  0  0  0  0
  128.0670  130.9800   56.5400 C   0  0  0  0  0  0  0  0  0  0  0  0
  126.6530  130.9680   56.4030 O   0  0  0  0  0  0  0  0  0  0  0  0
  126.1250  129.6570   56.5430 C   0  0  0  0  0  0  0  0  0  0  0  0
  126.4750  129.0950   57.9380 C   0  0  0  0  0  0  0  0  0  0  0  0
  129.8400  128.4340   59.5430 C   0  0  0  0  0  0  0  0  0  0  0  0
  130.4050  127.6980   60.5800 C   0  0  0  0  0  0  0  0  0  0  0  0
  130.9820  124.9120   62.3090 C   0  0  0  0  0  0  0  0  0  0  0  0
  131.4210  124.1920   61.1420 C   0  0  0  0  0  0  0  0  0  0  0  0
  131.1550  124.6130   59.8640 N   0  0  0  0  0  0  0  0  0  0  0  0
  1  2  1  0
  2  3  1  0
  3  4  2  0
  3  5  1  0
  5  6  1  0
  6  7  1  0
  7  8  2  0
  8  9  1  0
  9 10  1  0
 10 11  2  0
 11 12  1  0
 12 13  2  0
 13 14  1  0
 14 15  1  0
 15 16  1  0
 16 17  1  0
 17 18  1  0
 18 19  1  0
 13 20  1  0
 20 21  2  0
  9 22  2  0
 22 23  1  0
 23 24  1  0
 24 25  2  0
 25 26  1  0
 26 27  2  0
 27 28  1  0
 28 29  1  0
 29 30  1  0
 30 31  1  0
 31 32  1  0
 32 33  1  0
 27 34  1  0
 34 35  2  0
 23 36  2  0
 36 37  1  0
 37 38  1  0
 37  5  2  0
 36  7  1  0
 21 10  1  0
 35 24  1  0
 19 14  1  0
 33 28  1  0
M  END
>  <Binding energies>  (66) 
[-3.75]

>  <Ligand effiencies>  (66) 
[-0.09375]

>  <Interactions>  (66) 
["H-A:TYR:484:OH:4346, V-B:TYR:539:CE2:9848, V-A:GLY:454:CA:4047, V-A:ILE:369:CG2:3235, V-A:LEU:475:CD2:4257, V-B:GLU:543:CD:9880, V-B:GLU:543:CB:9878, V-A:ARG:545:CD:4921, V-A:GLU:543:CD:4906, V-A:HIS:456:CE1:4068, V-A:ARG:545:CG:4920, V-B:GLU:543:CG:9879, V-A:ILE:369:CB:3234, V-A:TYR:539:CE2:4874, V-A:LYS:547:CE:4948, V-B:HIS:456:CD2:9040, V-A:HIS:456:CD2:4066, H-A:LYS:547:NZ:4949, V-B:HIS:456:CE1:9042, V-A:GLY:544:C:4910, V-A:GLU:543:CG:4905, V-A:GLY:544:CA:4912, V-A:GLU:543:C:4900, V-B:GLU:543:C:9874, V-A:TYR:539:CZ:4875, V-A:ARG:545:CA:4917, H-A:TYR:539:OH:4876, V-A:TYR:539:CE1:4873"]

$$$$
RR10_Rahimova_2017
     RDKit          3D

 34 38  0  0  0  0  0  0  0  0999 V2000
  128.6310  132.5240   60.7180 C   0  0  0  0  0  0  0  0  0  0  0  0
  129.8380  132.2100   59.8160 C   0  0  1  0  0  0  0  0  0  0  0  0
  130.8660  131.2990   60.5260 C   0  0  0  0  0  0  0  0  0  0  0  0
  132.0850  131.0250   59.6140 C   0  0  0  0  0  0  0  0  0  0  0  0
  131.6730  130.3750   58.2680 C   0  0  1  0  0  0  0  0  0  0  0  0
  131.1740  129.0100   58.4810 N   0  0  0  0  0  0  0  0  0  0  0  0
  130.3700  128.3340   57.6400 C   0  0  0  0  0  0  0  0  0  0  0  0
  129.9790  128.7980   56.5660 O   0  0  0  0  0  0  0  0  0  0  0  0
  129.9300  126.9230   58.0840 C   0  0  1  0  0  0  0  0  0  0  0  0
  128.9790  126.3210   57.0160 C   0  0  0  0  0  0  0  0  0  0  0  0
  128.6100  124.8710   57.4120 C   0  0  0  0  0  0  0  0  0  0  0  0
  129.8540  124.0020   57.7080 C   0  0  0  0  0  0  0  0  0  0  0  0
  130.7450  124.6780   58.6900 N   0  0  0  0  0  0  0  0  0  0  0  0
  132.0420  123.6540   59.3280 S   0  0  0  0  0  0  0  0  0  0  0  0
  133.2670  123.9450   58.5720 O   0  0  0  0  0  0  0  0  0  0  0  0
  131.5330  122.2790   59.4100 O   0  0  0  0  0  0  0  0  0  0  0  0
  132.3180  124.2400   61.0000 C   0  0  0  0  0  0  0  0  0  0  0  0
  133.6160  124.2350   61.5220 C   0  0  0  0  0  0  0  0  0  0  0  0
  133.8970  124.6760   62.8180 C   0  0  0  0  0  0  0  0  0  0  0  0
  132.8120  125.1280   63.5730 C   0  0  0  0  0  0  0  0  0  0  0  0
  132.6790  125.6200   64.8490 N   0  0  0  0  0  0  0  0  0  0  0  0
  131.3460  125.9070   65.0570 C   0  0  0  0  0  0  0  0  0  0  0  0
  130.8050  126.4580   66.3460 C   0  0  0  0  0  0  0  0  0  0  0  0
  129.4850  126.1920   66.7330 C   0  0  0  0  0  0  0  0  0  0  0  0
  128.9840  126.6990   67.9290 C   0  0  0  0  0  0  0  0  0  0  0  0
  129.8010  127.4770   68.7440 C   0  0  0  0  0  0  0  0  0  0  0  0
  131.1150  127.7500   68.3750 C   0  0  0  0  0  0  0  0  0  0  0  0
  131.6150  127.2420   67.1780 C   0  0  0  0  0  0  0  0  0  0  0  0
  130.6130  125.6380   63.9990 N   0  0  0  0  0  0  0  0  0  0  0  0
  131.4910  125.1520   63.0660 C   0  0  0  0  0  0  0  0  0  0  0  0
  131.2390  124.7060   61.7610 C   0  0  0  0  0  0  0  0  0  0  0  0
  131.1830  126.0300   58.2600 C   0  0  0  0  0  0  0  0  0  0  0  0
  130.6280  131.2910   57.5760 C   0  0  0  0  0  0  0  0  0  0  0  0
  129.4050  131.5610   58.4810 C   0  0  0  0  0  0  0  0  0  0  0  0
  2  1  1  1
  2  3  1  0
  3  4  1  0
  4  5  1  0
  5  6  1  1
  6  7  1  0
  7  8  2  0
  9  7  1  6
  9 10  1  0
 10 11  1  0
 11 12  1  0
 12 13  1  0
 13 14  1  0
 14 15  2  0
 14 16  2  0
 14 17  1  0
 17 18  2  0
 18 19  1  0
 19 20  2  0
 20 21  1  0
 21 22  1  0
 22 23  1  0
 23 24  2  0
 24 25  1  0
 25 26  2  0
 26 27  1  0
 27 28  2  0
 22 29  2  0
 29 30  1  0
 30 31  2  0
 13 32  1  0
  5 33  1  0
 33 34  1  0
 34  2  1  0
 32  9  1  0
 31 17  1  0
 30 20  1  0
 28 23  1  0
M  END
>  <Binding energies>  (67) 
[-7.56]

>  <Ligand effiencies>  (67) 
[-0.21]

>  <Interactions>  (67) 
["H-A:TYR:484:OH:4346, V-A:ASP:366:CG:3211, V-B:TYR:539:CZ:9849, V-B:TYR:539:CE2:9848, V-B:TYR:539:CD2:9846, V-A:GLY:454:CA:4047, V-A:ILE:369:CD1:3237, V-A:GLY:453:C:4040, V-A:ARG:545:CZ:4924, V-B:GLU:543:CD:9880, V-B:GLU:543:CB:9878, V-A:ARG:545:CD:4921, V-A:GLY:453:CA:4042, V-A:GLU:543:CD:4906, V-A:HIS:456:CE1:4068, V-A:ARG:545:CG:4920, V-B:GLU:543:CG:9879, H-A:TYR:531:OH:4793, V-A:PRO:540:C:4879, V-A:PRO:540:CB:4883, V-A:PRO:540:CA:4881, V-A:TYR:539:C:4865, H-B:TYR:539:OH:9850, V-A:GLY:544:C:4910, V-A:ARG:545:CB:4919, V-A:GLU:543:CG:4905, V-A:GLU:543:C:4900, V-B:GLU:543:C:9874, V-A:PRO:540:N:4882, V-A:ALA:541:CB:4890, V-A:ARG:545:CA:4917, H-A:ASP:366:OD2:3213"]

$$$$
RR12_Rahimova_2017
     RDKit          3D

 26 28  0  0  0  0  0  0  0  0999 V2000
  128.7840  121.3650   71.4160 C   0  0  0  0  0  0  0  0  0  0  0  0
  129.7090  122.1370   72.3660 C   0  0  0  0  0  0  0  0  0  0  0  0
  129.1410  123.5140   72.7560 C   0  0  0  0  0  0  0  0  0  0  0  0
  130.2180  124.4800   72.9590 N   0  0  0  0  0  0  0  0  0  0  0  0
  130.2860  125.7810   72.4850 C   0  0  0  0  0  0  0  0  0  0  0  0
  129.2250  126.4180   71.6040 C   0  0  0  0  0  0  0  0  0  0  0  0
  129.8340  127.2400   70.4540 C   0  0  0  0  0  0  0  0  0  0  0  0
  128.8380  127.4830   69.3040 C   0  0  0  0  0  0  0  0  0  0  0  0
  129.1320  126.7140   68.0950 N   0  0  0  0  0  0  0  0  0  0  0  0
  130.2240  126.8740   67.3260 C   0  0  0  0  0  0  0  0  0  0  0  0
  131.1040  127.7040   67.5650 O   0  0  0  0  0  0  0  0  0  0  0  0
  130.3210  125.9430   66.1100 C   0  0  0  0  0  0  0  0  0  0  0  0
  131.6420  125.9990   65.5710 O   0  0  0  0  0  0  0  0  0  0  0  0
  131.8640  125.5660   64.2770 C   0  0  0  0  0  0  0  0  0  0  0  0
  133.0030  124.7840   64.0710 C   0  0  0  0  0  0  0  0  0  0  0  0
  133.3080  124.3000   62.8020 C   0  0  0  0  0  0  0  0  0  0  0  0
  132.4700  124.5970   61.7310 C   0  0  0  0  0  0  0  0  0  0  0  0
  131.3320  125.3780   61.9180 C   0  0  0  0  0  0  0  0  0  0  0  0
  131.0280  125.8630   63.1880 C   0  0  0  0  0  0  0  0  0  0  0  0
  131.3710  126.4130   72.8570 N   0  0  0  0  0  0  0  0  0  0  0  0
  132.0520  125.5170   73.6320 C   0  0  0  0  0  0  0  0  0  0  0  0
  133.2770  125.6770   74.2990 C   0  0  0  0  0  0  0  0  0  0  0  0
  133.7660  124.6020   75.0410 C   0  0  0  0  0  0  0  0  0  0  0  0
  133.0640  123.4000   75.1250 C   0  0  0  0  0  0  0  0  0  0  0  0
  131.8440  123.2080   74.4720 C   0  0  0  0  0  0  0  0  0  0  0  0
  131.3540  124.2870   73.7260 C   0  0  0  0  0  0  0  0  0  0  0  0
  1  2  1  0
  2  3  1  0
  3  4  1  0
  4  5  1  0
  5  6  1  0
  6  7  1  0
  7  8  1  0
  8  9  1  0
  9 10  1  0
 10 11  2  0
 10 12  1  0
 12 13  1  0
 13 14  1  0
 14 15  2  0
 15 16  1  0
 16 17  2  0
 17 18  1  0
 18 19  2  0
  5 20  2  0
 20 21  1  0
 21 22  2  0
 22 23  1  0
 23 24  2  0
 24 25  1  0
 25 26  2  0
 26  4  1  0
 19 14  1  0
 26 21  1  0
M  END
>  <Binding energies>  (68) 
[-7.11]

>  <Ligand effiencies>  (68) 
[-0.26333333333333336]

>  <Interactions>  (68) 
["H-A:TYR:484:OH:4346, V-A:ARG:545:CZ:4924, V-B:GLU:543:CD:9880, V-B:GLU:543:CB:9878, V-A:GLU:543:CD:4906, V-A:HIS:456:CE1:4068, V-B:GLU:543:CG:9879, H-B:GLU:543:OE2:9882, H-A:ARG:545:NE:4922, V-A:HIS:456:CB:4063, V-A:ASP:473:CG:4238, V-A:HIS:456:CG:4064, V-A:HIS:456:CD2:4066, V-A:VAL:458:CG2:4085, V-B:HIS:456:CE1:9042, V-A:LYS:471:CE:4218, V-B:LYS:547:CE:9922, V-A:HIS:456:C:4059, V-A:TYR:484:CG:4340, V-A:LYS:471:CD:4217, V-A:GLY:544:C:4910, V-A:TYR:484:CB:4339, V-A:LYS:471:CG:4216, V-A:GLU:543:CG:4905, V-B:GLU:543:C:9874, V-B:GLY:544:CA:9886, H-A:HIS:456:NE2:4069, V-A:TYR:484:CD1:4341, V-B:GLU:543:CA:9876, H-B:GLU:543:O:9875"]

$$$$
RR13_Rahimova_2017
     RDKit          3D

 48 54  0  0  0  0  0  0  0  0999 V2000
  131.9270  130.8370   61.6230 Cl  0  0  0  0  0  0  0  0  0  0  0  0
  131.7480  130.6810   59.9080 C   0  0  0  0  0  0  0  0  0  0  0  0
  132.7580  131.2060   59.0990 C   0  0  0  0  0  0  0  0  0  0  0  0
  132.6630  131.1320   57.7120 C   0  0  0  0  0  0  0  0  0  0  0  0
  131.5530  130.5320   57.1240 C   0  0  0  0  0  0  0  0  0  0  0  0
  130.5410  130.0060   57.9240 C   0  0  0  0  0  0  0  0  0  0  0  0
  130.6240  130.0610   59.3250 C   0  0  0  0  0  0  0  0  0  0  0  0
  129.4770  129.4930   60.1900 C   0  0  1  0  0  0  0  0  0  0  0  0
  128.2470  129.1660   59.3300 C   0  0  0  0  0  0  0  0  0  0  0  0
  127.0670  129.7430   59.3950 N   0  0  0  0  0  0  0  0  0  0  0  0
  126.2760  129.1000   58.4490 N   0  0  0  0  0  0  0  0  0  0  0  0
  127.0000  128.1060   57.8210 N   0  0  0  0  0  0  0  0  0  0  0  0
  128.2060  128.1500   58.3990 N   0  0  0  0  0  0  0  0  0  0  0  0
  129.2690  127.2550   57.9580 C   0  0  0  0  0  0  0  0  0  0  0  0
  128.6700  125.9480   57.4040 C   0  0  0  0  0  0  0  0  0  0  0  0
  128.3140  124.9660   58.5100 C   0  0  0  0  0  0  0  0  0  0  0  0
  128.9830  123.7420   58.5980 C   0  0  0  0  0  0  0  0  0  0  0  0
  128.6500  122.8400   59.6050 C   0  0  0  0  0  0  0  0  0  0  0  0
  127.6510  123.1650   60.5210 C   0  0  0  0  0  0  0  0  0  0  0  0
  126.9800  124.3830   60.4370 C   0  0  0  0  0  0  0  0  0  0  0  0
  127.3120  125.2860   59.4300 C   0  0  0  0  0  0  0  0  0  0  0  0
  129.8900  128.3520   61.0420 N   0  0  0  0  0  0  0  0  0  0  0  0
  130.9720  127.5880   60.3940 C   0  0  0  0  0  0  0  0  0  0  0  0
  131.4980  126.4770   61.3340 C   0  0  0  0  0  0  0  0  0  0  0  0
  130.4250  125.5240   61.6630 N   0  0  0  0  0  0  0  0  0  0  0  0
  130.9050  124.3970   62.4960 C   0  0  1  0  0  0  0  0  0  0  0  0
  131.1280  123.0640   61.7470 C   0  0  0  0  0  0  0  0  0  0  0  0
  130.4730  121.9310   62.2480 C   0  0  0  0  0  0  0  0  0  0  0  0
  130.6030  120.6900   61.6270 C   0  0  0  0  0  0  0  0  0  0  0  0
  131.3990  120.5620   60.4930 C   0  0  0  0  0  0  0  0  0  0  0  0
  132.0710  121.6710   59.9880 C   0  0  0  0  0  0  0  0  0  0  0  0
  131.9510  122.9190   60.6060 C   0  0  0  0  0  0  0  0  0  0  0  0
  132.8810  124.2210   59.9440 Cl  0  0  0  0  0  0  0  0  0  0  0  0
  132.1410  124.7460   63.3270 C   0  0  0  0  0  0  0  0  0  0  0  0
  133.3840  124.6790   62.9090 N   0  0  0  0  0  0  0  0  0  0  0  0
  134.1700  125.1000   63.9760 N   0  0  0  0  0  0  0  0  0  0  0  0
  133.3700  125.4400   65.0480 N   0  0  0  0  0  0  0  0  0  0  0  0
  132.1200  125.2340   64.6160 N   0  0  0  0  0  0  0  0  0  0  0  0
  130.9910  125.4730   65.5090 C   0  0  0  0  0  0  0  0  0  0  0  0
  131.3150  126.6120   66.4930 C   0  0  0  0  0  0  0  0  0  0  0  0
  130.1160  126.9920   67.3460 C   0  0  0  0  0  0  0  0  0  0  0  0
  128.8970  127.3040   66.7380 C   0  0  0  0  0  0  0  0  0  0  0  0
  127.7970  127.6460   67.5200 C   0  0  0  0  0  0  0  0  0  0  0  0
  127.9190  127.6750   68.9080 C   0  0  0  0  0  0  0  0  0  0  0  0
  129.1320  127.3640   69.5210 C   0  0  0  0  0  0  0  0  0  0  0  0
  130.2320  127.0210   68.7390 C   0  0  0  0  0  0  0  0  0  0  0  0
  129.3480  126.2910   62.3150 C   0  0  0  0  0  0  0  0  0  0  0  0
  128.8200  127.3930   61.3670 C   0  0  0  0  0  0  0  0  0  0  0  0
  1  2  1  0
  2  3  2  0
  3  4  1  0
  4  5  2  0
  5  6  1  0
  6  7  2  0
  7  8  1  0
  8  9  1  0
  9 10  2  0
 10 11  1  0
 11 12  2  0
 12 13  1  0
 13 14  1  0
 14 15  1  0
 15 16  1  0
 16 17  2  0
 17 18  1  0
 18 19  2  0
 19 20  1  0
 20 21  2  0
  8 22  1  6
 22 23  1  0
 23 24  1  0
 24 25  1  0
 26 25  1  6
 26 27  1  0
 27 28  2  0
 28 29  1  0
 29 30  2  0
 30 31  1  0
 31 32  2  0
 32 33  1  0
 26 34  1  0
 34 35  2  0
 35 36  1  0
 36 37  2  0
 37 38  1  0
 38 39  1  0
 39 40  1  0
 40 41  1  0
 41 42  2  0
 42 43  1  0
 43 44  2  0
 44 45  1  0
 45 46  2  0
 25 47  1  0
 47 48  1  0
  7  2  1  0
 13  9  1  0
 21 16  1  0
 48 22  1  0
 32 27  1  0
 38 34  1  0
 46 41  1  0
M  END
>  <Binding energies>  (69) 
[-11.1]

>  <Ligand effiencies>  (69) 
[-0.23124999999999998]

>  <Interactions>  (69) 
["H-A:TYR:484:OH:4346, V-A:ASP:366:CG:3211, H-A:GLY:454:N:4048, V-B:TYR:539:CE2:9848, V-B:TYR:539:CD2:9846, V-B:ALA:541:CB:9864, V-A:LEU:475:CD2:4257, V-B:PRO:540:C:9853, H-A:ARG:545:NH1:4925, V-A:TRP:381:CH2:3370, V-B:PRO:540:CA:9855, V-B:TYR:539:C:9839, V-A:ARG:545:CZ:4924, V-B:GLU:543:CD:9880, H-A:ARG:545:NH2:4926, V-B:GLU:543:CB:9878, V-A:ARG:545:CD:4921, V-A:GLU:543:CD:4906, V-A:HIS:456:CE1:4068, V-A:ARG:545:CG:4920, V-B:GLU:543:CG:9879, V-A:PRO:540:CB:4883, V-A:PRO:540:CA:4881, H-A:ARG:545:NE:4922, V-B:HIS:456:CE1:9042, V-A:GLU:543:CG:4905"]

$$$$
RR14_Rahimova_2017
     RDKit          3D

 39 43  0  0  0  0  0  0  0  0999 V2000
  133.9060  130.6810   57.1620 C   0  0  0  0  0  0  0  0  0  0  0  0
  133.0400  131.6860   57.6780 O   0  0  0  0  0  0  0  0  0  0  0  0
  131.6740  131.4850   57.6320 C   0  0  0  0  0  0  0  0  0  0  0  0
  131.0390  131.2440   58.8510 C   0  0  0  0  0  0  0  0  0  0  0  0
  129.6690  131.0060   58.9010 C   0  0  0  0  0  0  0  0  0  0  0  0
  128.9180  131.0020   57.7240 C   0  0  0  0  0  0  0  0  0  0  0  0
  127.4290  130.6770   57.7680 C   0  0  0  0  0  0  0  0  0  0  0  0
  127.1100  129.5420   58.6330 N   0  0  0  0  0  0  0  0  0  0  0  0
  126.1240  129.6340   59.5330 N   0  0  0  0  0  0  0  0  0  0  0  0
  126.1240  128.4140   60.1800 N   0  0  0  0  0  0  0  0  0  0  0  0
  127.1240  127.5980   59.6610 N   0  0  0  0  0  0  0  0  0  0  0  0
  127.7140  128.3070   58.7280 C   0  0  0  0  0  0  0  0  0  0  0  0
  128.8960  127.8420   57.8880 C   0  0  0  0  0  0  0  0  0  0  0  0
  129.6220  126.7230   58.5110 N   0  0  0  0  0  0  0  0  0  0  0  0
  130.1690  127.0860   59.8250 C   0  0  0  0  0  0  0  0  0  0  0  0
  129.3990  126.4530   61.0040 C   0  0  0  0  0  0  0  0  0  0  0  0
  130.0520  126.7090   62.3790 C   0  0  0  0  0  0  0  0  0  0  0  0
  130.9860  125.6530   62.7830 N   0  0  0  0  0  0  0  0  0  0  0  0
  131.4020  125.8470   64.1780 C   0  0  0  0  0  0  0  0  0  0  0  0
  132.4270  124.7810   64.6200 C   0  0  0  0  0  0  0  0  0  0  0  0
  133.5330  124.7640   63.7240 O   0  0  0  0  0  0  0  0  0  0  0  0
  133.1420  124.4640   62.3900 C   0  0  0  0  0  0  0  0  0  0  0  0
  132.1390  125.5220   61.8800 C   0  0  0  0  0  0  0  0  0  0  0  0
  128.7430  125.5500   58.6250 C   0  0  0  0  0  0  0  0  0  0  0  0
  129.3950  124.2710   59.1440 C   0  0  0  0  0  0  0  0  0  0  0  0
  130.7430  124.1240   59.1480 C   0  0  0  0  0  0  0  0  0  0  0  0
  131.3980  122.8820   59.6080 C   0  0  0  0  0  0  0  0  0  0  0  0
  132.7910  122.7040   59.6440 C   0  0  0  0  0  0  0  0  0  0  0  0
  133.7480  123.8030   59.2020 C   0  0  0  0  0  0  0  0  0  0  0  0
  133.3090  121.4890   60.1000 C   0  0  0  0  0  0  0  0  0  0  0  0
  132.4600  120.4640   60.5140 C   0  0  0  0  0  0  0  0  0  0  0  0
  131.0730  120.6320   60.4840 C   0  0  0  0  0  0  0  0  0  0  0  0
  130.1710  119.4940   60.9460 C   0  0  0  0  0  0  0  0  0  0  0  0
  130.5410  121.8490   60.0290 C   0  0  0  0  0  0  0  0  0  0  0  0
  129.1480  122.0630   59.9780 N   0  0  0  0  0  0  0  0  0  0  0  0
  128.5050  123.1840   59.5640 C   0  0  0  0  0  0  0  0  0  0  0  0
  127.2750  123.2300   59.5570 O   0  0  0  0  0  0  0  0  0  0  0  0
  129.5380  131.2720   56.5030 C   0  0  0  0  0  0  0  0  0  0  0  0
  130.9090  131.5080   56.4540 C   0  0  0  0  0  0  0  0  0  0  0  0
  1  2  1  0
  2  3  1  0
  3  4  2  0
  4  5  1  0
  5  6  2  0
  6  7  1  0
  7  8  1  0
  8  9  1  0
  9 10  2  0
 10 11  1  0
 11 12  2  0
 12 13  1  0
 13 14  1  0
 14 15  1  0
 15 16  1  0
 16 17  1  0
 17 18  1  0
 18 19  1  0
 19 20  1  0
 20 21  1  0
 21 22  1  0
 22 23  1  0
 14 24  1  0
 24 25  1  0
 25 26  2  0
 26 27  1  0
 27 28  2  0
 28 29  1  0
 28 30  1  0
 30 31  2  0
 31 32  1  0
 32 33  1  0
 32 34  2  0
 34 35  1  0
 35 36  1  0
 36 37  2  0
  6 38  1  0
 38 39  2  0
 39  3  1  0
 12  8  1  0
 23 18  1  0
 36 25  1  0
 34 27  1  0
M  END
>  <Binding energies>  (70) 
[-8.01]

>  <Ligand effiencies>  (70) 
[-0.20024999999999998]

>  <Interactions>  (70) 
["H-A:TYR:484:OH:4346, V-A:ASP:366:CG:3211, H-A:GLY:454:N:4048, V-A:ASP:366:CA:3208, V-B:TYR:539:CE2:9848, V-B:TYR:539:CD2:9846, V-A:ASP:366:CB:3210, V-A:ILE:369:CD1:3237, V-B:ALA:541:CB:9864, V-A:ILE:369:CG2:3235, V-A:LEU:475:CD2:4257, V-A:TRP:381:CH2:3370, V-B:TYR:539:C:9839, V-A:ARG:545:CZ:4924, V-A:TYR:484:CZ:4345, V-B:GLU:543:CD:9880, H-A:ARG:545:NH2:4926, H-B:ALA:541:N:9863, V-A:TRP:381:CZ2:3368, V-A:ILE:369:CB:3234, V-A:PRO:540:CB:4883, V-A:PRO:540:CA:4881, H-A:ARG:545:NE:4922, V-A:TYR:539:CE2:4874, H-B:ARG:545:NH2:9900, V-A:PRO:482:CG:4325, V-A:PRO:482:CB:4324, V-A:PRO:540:N:4882, V-A:TYR:539:CZ:4875, V-A:TYR:531:CZ:4792, V-A:LEU:363:CA:3183, V-A:TYR:531:CE2:4791, V-A:LEU:363:CD1:3187, H-B:TYR:539:O:9840"]

$$$$
RR15_Rahimova_2017
     RDKit          3D

 45 49  0  0  0  0  0  0  0  0999 V2000
  128.0940  129.2940   72.7700 C   0  0  0  0  0  0  0  0  0  0  0  0
  127.6130  128.1600   72.0570 O   0  0  0  0  0  0  0  0  0  0  0  0
  128.2340  127.7820   70.8790 C   0  0  0  0  0  0  0  0  0  0  0  0
  127.5700  127.6850   69.6470 C   0  0  0  0  0  0  0  0  0  0  0  0
  128.2540  127.2960   68.4980 C   0  0  0  0  0  0  0  0  0  0  0  0
  129.6180  126.9890   68.5470 C   0  0  0  0  0  0  0  0  0  0  0  0
  130.3550  126.5620   67.3080 C   0  0  0  0  0  0  0  0  0  0  0  0
  131.3260  127.2820   66.7630 N   0  0  0  0  0  0  0  0  0  0  0  0
  131.7460  126.5790   65.6520 N   0  0  0  0  0  0  0  0  0  0  0  0
  130.9950  125.4770   65.6760 N   0  0  0  0  0  0  0  0  0  0  0  0
  130.9970  124.5150   64.5750 C   0  0  0  0  0  0  0  0  0  0  0  0
  131.7100  125.0010   63.2890 C   0  0  0  0  0  0  0  0  0  0  0  0
  132.9340  125.1490   63.3210 O   0  0  0  0  0  0  0  0  0  0  0  0
  130.9800  125.2230   62.1530 N   0  0  0  0  0  0  0  0  0  0  0  0
  129.6090  124.6970   62.0070 C   0  0  0  0  0  0  0  0  0  0  0  0
  129.5390  123.3550   61.2460 C   0  0  0  0  0  0  0  0  0  0  0  0
  130.3120  122.1910   61.9110 C   0  0  0  0  0  0  0  0  0  0  0  0
  131.6320  121.9460   61.3220 N   0  0  0  0  0  0  0  0  0  0  0  0
  132.7220  121.9320   62.3080 C   0  0  0  0  0  0  0  0  0  0  0  0
  134.0750  121.5850   61.6500 C   0  0  0  0  0  0  0  0  0  0  0  0
  133.9750  120.3560   60.9400 O   0  0  0  0  0  0  0  0  0  0  0  0
  132.9900  120.4000   59.9130 C   0  0  0  0  0  0  0  0  0  0  0  0
  131.6060  120.7110   60.5250 C   0  0  0  0  0  0  0  0  0  0  0  0
  131.4120  126.1560   61.0670 C   0  0  2  0  0  0  0  0  0  0  0  0
  130.3020  127.1490   60.6020 C   0  0  0  0  0  0  0  0  0  0  0  0
  129.7910  127.0550   59.4860 O   0  0  0  0  0  0  0  0  0  0  0  0
  129.9260  128.0680   61.5100 N   0  0  0  0  0  0  0  0  0  0  0  0
  128.8420  129.0290   61.3390 C   0  0  0  0  0  0  0  0  0  0  0  0
  129.1460  130.0130   60.1940 C   0  0  2  0  0  0  0  0  0  0  0  0
  130.6340  130.1620   59.8300 C   0  0  0  0  0  0  0  0  0  0  0  0
  131.0570  131.4550   60.4850 C   0  0  0  0  0  0  0  0  0  0  0  0
  129.7810  132.2740   60.3810 C   0  0  0  0  0  0  0  0  0  0  0  0
  128.7740  131.3120   60.6750 O   0  0  0  0  0  0  0  0  0  0  0  0
  132.1780  125.4040   59.9850 C   0  0  0  0  0  0  0  0  0  0  0  0
  133.1300  124.4590   60.3860 C   0  0  0  0  0  0  0  0  0  0  0  0
  133.8610  123.7430   59.4430 C   0  0  0  0  0  0  0  0  0  0  0  0
  133.6430  123.9660   58.0860 C   0  0  0  0  0  0  0  0  0  0  0  0
  134.3510  123.2700   57.1690 F   0  0  0  0  0  0  0  0  0  0  0  0
  132.6990  124.9010   57.6680 C   0  0  0  0  0  0  0  0  0  0  0  0
  131.9700  125.6180   58.6130 C   0  0  0  0  0  0  0  0  0  0  0  0
  130.0910  125.4420   66.6620 N   0  0  0  0  0  0  0  0  0  0  0  0
  130.2790  127.0880   69.7780 C   0  0  0  0  0  0  0  0  0  0  0  0
  129.6030  127.4830   70.9450 C   0  0  0  0  0  0  0  0  0  0  0  0
  130.2120  127.5990   72.1830 O   0  0  0  0  0  0  0  0  0  0  0  0
  130.9420  126.4980   72.7130 C   0  0  0  0  0  0  0  0  0  0  0  0
  1  2  1  0
  2  3  1  0
  3  4  2  0
  4  5  1  0
  5  6  2  0
  6  7  1  0
  7  8  1  0
  8  9  2  0
  9 10  1  0
 10 11  1  0
 11 12  1  0
 12 13  2  0
 12 14  1  0
 14 15  1  0
 15 16  1  0
 16 17  1  0
 17 18  1  0
 18 19  1  0
 19 20  1  0
 20 21  1  0
 21 22  1  0
 22 23  1  0
 24 14  1  1
 24 25  1  0
 25 26  2  0
 25 27  1  0
 27 28  1  0
 29 28  1  1
 29 30  1  0
 30 31  1  0
 31 32  1  0
 32 33  1  0
 24 34  1  0
 34 35  2  0
 35 36  1  0
 36 37  2  0
 37 38  1  0
 37 39  1  0
 39 40  2  0
 10 41  1  0
  6 42  1  0
 42 43  2  0
 43 44  1  0
 44 45  1  0
 43  3  1  0
 41  7  2  0
 23 18  1  0
 33 29  1  0
 40 34  1  0
M  END
>  <Binding energies>  (71) 
[-7.27]

>  <Ligand effiencies>  (71) 
[-0.15804347826086956]

>  <Interactions>  (71) 
["V-A:ASP:366:CG:3211, V-B:TYR:539:CZ:9849, V-A:ASP:366:CA:3208, V-B:TYR:539:CE2:9848, V-B:TYR:539:CD2:9846, V-A:ASP:366:CB:3210, V-A:GLY:454:CA:4047, V-A:ILE:369:CD1:3237, V-B:ALA:541:CB:9864, V-A:ILE:369:CG2:3235, V-A:LEU:475:CD2:4257, V-A:TRP:381:CH2:3370, V-B:GLU:543:CD:9880, H-A:ARG:545:NH2:4926, V-B:GLU:543:CB:9878, V-A:GLU:543:CD:4906, V-A:HIS:456:CE1:4068, V-B:GLU:543:CG:9879, V-A:ASP:366:C:3206, V-A:TRP:381:CZ2:3368, V-A:ILE:369:CB:3234, V-A:PRO:540:C:4879, V-A:PRO:540:CB:4883, V-A:PRO:540:CA:4881, H-A:GLU:543:OE1:4907, V-A:TYR:539:C:4865, H-A:GLU:543:OE2:4908, H-A:ARG:545:NE:4922, V-A:HIS:456:CG:4064, V-A:LYS:547:CE:4948, V-B:HIS:456:CD2:9040, V-A:HIS:456:CD2:4066, V-B:HIS:456:CE1:9042, V-B:HIS:456:CG:9038, V-B:GLY:544:C:9884, V-A:GLY:544:C:4910, V-B:GLU:543:C:9874, V-A:PRO:540:N:4882, V-A:ALA:541:CB:4890, V-A:ILE:369:CA:3232, V-A:ILE:369:C:3230"]

$$$$
RR17_Rahimova_2017
     RDKit          3D

 38 41  0  0  0  0  0  0  0  0999 V2000
  129.1920  132.2040   59.6000 C   0  0  0  0  0  0  0  0  0  0  0  0
  129.0250  131.9330   58.1020 C   0  0  0  0  0  0  0  0  0  0  0  0
  127.8780  131.1100   57.9110 O   0  0  0  0  0  0  0  0  0  0  0  0
  128.0320  129.7370   57.8460 C   0  0  0  0  0  0  0  0  0  0  0  0
  128.1950  129.1880   56.5760 C   0  0  0  0  0  0  0  0  0  0  0  0
  128.3550  127.8160   56.4110 C   0  0  0  0  0  0  0  0  0  0  0  0
  128.3560  126.9600   57.5220 C   0  0  0  0  0  0  0  0  0  0  0  0
  128.5330  125.4840   57.3140 C   0  0  0  0  0  0  0  0  0  0  0  0
  127.6670  124.6630   57.6320 O   0  0  0  0  0  0  0  0  0  0  0  0
  129.8680  125.0180   56.6920 C   0  0  0  0  0  0  0  0  0  0  0  0
  131.2960  125.9570   57.3430 S   0  0  0  0  0  0  0  0  0  0  0  0
  132.3010  124.6190   57.9220 C   0  0  0  0  0  0  0  0  0  0  0  0
  133.5230  124.3570   57.5200 N   0  0  0  0  0  0  0  0  0  0  0  0
  133.9690  123.2390   58.2140 N   0  0  0  0  0  0  0  0  0  0  0  0
  133.0000  122.8690   59.0130 C   0  0  0  0  0  0  0  0  0  0  0  0
  133.0710  121.6870   59.9670 C   0  0  0  0  0  0  0  0  0  0  0  0
  133.5950  122.0250   61.2880 N   0  0  0  0  0  0  0  0  0  0  0  0
  132.9140  122.8360   62.2140 C   0  0  0  0  0  0  0  0  0  0  0  0
  133.4370  124.1040   62.4650 C   0  0  0  0  0  0  0  0  0  0  0  0
  132.8160  124.9550   63.3740 C   0  0  0  0  0  0  0  0  0  0  0  0
  131.6580  124.5470   64.0420 C   0  0  0  0  0  0  0  0  0  0  0  0
  130.9910  125.4920   65.0420 C   0  0  0  0  0  0  0  0  0  0  0  0
  130.3840  124.8330   66.0320 F   0  0  0  0  0  0  0  0  0  0  0  0
  131.8950  126.3080   65.5850 F   0  0  0  0  0  0  0  0  0  0  0  0
  130.0780  126.2270   64.4070 F   0  0  0  0  0  0  0  0  0  0  0  0
  131.1270  123.2790   63.7860 C   0  0  0  0  0  0  0  0  0  0  0  0
  131.7480  122.4290   62.8760 C   0  0  0  0  0  0  0  0  0  0  0  0
  131.9050  123.6970   58.8690 N   0  0  0  0  0  0  0  0  0  0  0  0
  130.6830  123.6330   59.5540 C   0  0  0  0  0  0  0  0  0  0  0  0
  130.2960  124.6950   60.3710 C   0  0  0  0  0  0  0  0  0  0  0  0
  129.0850  124.6300   61.0540 C   0  0  0  0  0  0  0  0  0  0  0  0
  128.2570  123.5030   60.9220 C   0  0  0  0  0  0  0  0  0  0  0  0
  127.0410  123.3510   61.5590 O   0  0  0  0  0  0  0  0  0  0  0  0
  126.0030  124.2930   61.3090 C   0  0  0  0  0  0  0  0  0  0  0  0
  128.6620  122.4470   60.1010 C   0  0  0  0  0  0  0  0  0  0  0  0
  129.8720  122.5070   59.4150 C   0  0  0  0  0  0  0  0  0  0  0  0
  128.1930  127.5140   58.8000 C   0  0  0  0  0  0  0  0  0  0  0  0
  128.0330  128.8880   58.9620 C   0  0  0  0  0  0  0  0  0  0  0  0
  1  2  1  0
  2  3  1  0
  3  4  1  0
  4  5  2  0
  5  6  1  0
  6  7  2  0
  7  8  1  0
  8  9  2  0
  8 10  1  0
 10 11  1  0
 11 12  1  0
 12 13  2  0
 13 14  1  0
 14 15  2  0
 15 16  1  0
 16 17  1  0
 17 18  1  0
 18 19  2  0
 19 20  1  0
 20 21  2  0
 21 22  1  0
 22 23  1  0
 22 24  1  0
 22 25  1  0
 21 26  1  0
 26 27  2  0
 15 28  1  0
 28 29  1  0
 29 30  2  0
 30 31  1  0
 31 32  2  0
 32 33  1  0
 33 34  1  0
 32 35  1  0
 35 36  2  0
  7 37  1  0
 37 38  2  0
 38  4  1  0
 28 12  1  0
 36 29  1  0
 27 18  1  0
M  END
>  <Binding energies>  (72) 
[-6.25]

>  <Ligand effiencies>  (72) 
[-0.16025641025641027]

>  <Interactions>  (72) 
["V-A:ASP:366:CG:3211, V-B:TYR:539:CZ:9849, V-B:TYR:539:CE2:9848, V-B:TYR:539:CD2:9846, V-A:ASP:366:CB:3210, V-A:GLY:454:CA:4047, V-A:ILE:369:CD1:3237, V-B:ALA:541:CB:9864, V-A:ILE:369:CG2:3235, V-A:LEU:475:CD2:4257, V-B:PRO:540:CA:9855, V-B:TYR:539:C:9839, V-A:ARG:545:CZ:4924, V-A:TYR:484:CZ:4345, V-B:GLU:543:CD:9880, V-B:GLU:543:CB:9878, V-A:ARG:545:CD:4921, V-A:TYR:484:CE1:4343, V-A:GLU:543:CD:4906, V-A:HIS:456:CE1:4068, V-A:ARG:545:CG:4920, V-B:GLU:543:CG:9879, H-B:ALA:541:N:9863, H-A:TYR:531:OH:4793, V-A:PRO:540:CA:4881, V-A:TYR:539:C:4865, H-B:TYR:539:OH:9850, V-A:TYR:539:CD2:4872, H-A:SER:385:O:3404"]

$$$$
RR19_Rahimova_2017
     RDKit          3D

 46 51  0  0  0  0  0  0  0  0999 V2000
  130.7400  124.1320   58.0620 O   0  0  0  0  0  0  0  0  0  0  0  0
  131.0840  124.8460   59.0090 C   0  0  0  0  0  0  0  0  0  0  0  0
  130.4500  125.9690   59.4320 N   0  0  0  0  0  0  0  0  0  0  0  0
  129.2240  126.5160   59.1460 C   0  0  0  0  0  0  0  0  0  0  0  0
  127.9780  125.7500   58.2920 S   0  0  0  0  0  0  0  0  0  0  0  0
  129.1750  127.7850   59.6680 N   0  0  0  0  0  0  0  0  0  0  0  0
  128.1760  128.6940   59.7960 C   0  0  0  0  0  0  0  0  0  0  0  0
  126.9740  128.4900   59.6120 O   0  0  0  0  0  0  0  0  0  0  0  0
  128.6630  130.1100   60.1920 C   0  0  2  0  0  0  0  0  0  0  0  0
  127.5610  131.2100   60.1680 C   0  0  0  0  0  0  0  0  0  0  0  0
  127.1460  131.7410   61.5300 C   0  0  0  0  0  0  0  0  0  0  0  0
  126.8350  130.8580   62.5870 C   0  0  0  0  0  0  0  0  0  0  0  0
  126.5340  131.3610   63.8460 C   0  0  0  0  0  0  0  0  0  0  0  0
  126.5560  132.7310   64.0770 C   0  0  0  0  0  0  0  0  0  0  0  0
  126.8900  133.6100   63.0550 C   0  0  0  0  0  0  0  0  0  0  0  0
  127.1960  133.1270   61.7890 C   0  0  0  0  0  0  0  0  0  0  0  0
  129.8560  130.5140   59.3990 N   0  0  0  0  0  0  0  0  0  0  0  0
  131.1040  130.5200   59.9480 C   0  0  0  0  0  0  0  0  0  0  0  0
  131.4100  130.2410   61.1090 O   0  0  0  0  0  0  0  0  0  0  0  0
  132.0170  130.9280   58.8530 C   0  0  0  0  0  0  0  0  0  0  0  0
  133.4010  131.1080   58.8350 C   0  0  0  0  0  0  0  0  0  0  0  0
  134.0110  131.4960   57.6370 C   0  0  0  0  0  0  0  0  0  0  0  0
  133.2390  131.6950   56.4840 C   0  0  0  0  0  0  0  0  0  0  0  0
  131.8530  131.5080   56.5220 C   0  0  0  0  0  0  0  0  0  0  0  0
  131.2640  131.1220   57.7270 C   0  0  0  0  0  0  0  0  0  0  0  0
  129.8480  130.8430   58.0720 C   0  0  0  0  0  0  0  0  0  0  0  0
  128.8760  130.8890   57.3170 O   0  0  0  0  0  0  0  0  0  0  0  0
  132.3580  124.4830   59.8170 C   0  0  2  0  0  0  0  0  0  0  0  0
  132.8860  123.0440   59.5500 C   0  0  0  0  0  0  0  0  0  0  0  0
  131.9840  121.9470   60.0870 C   0  0  0  0  0  0  0  0  0  0  0  0
  130.6360  122.2280   60.3990 C   0  0  0  0  0  0  0  0  0  0  0  0
  129.7860  121.2020   60.7930 C   0  0  0  0  0  0  0  0  0  0  0  0
  130.2490  119.8940   60.8560 C   0  0  0  0  0  0  0  0  0  0  0  0
  131.5630  119.5970   60.5140 C   0  0  0  0  0  0  0  0  0  0  0  0
  132.4290  120.6080   60.1190 C   0  0  0  0  0  0  0  0  0  0  0  0
  132.2290  124.7550   61.2780 N   0  0  0  0  0  0  0  0  0  0  0  0
  133.3200  124.8530   62.0880 C   0  0  0  0  0  0  0  0  0  0  0  0
  134.5020  124.7230   61.7670 O   0  0  0  0  0  0  0  0  0  0  0  0
  132.7810  125.1500   63.4380 C   0  0  0  0  0  0  0  0  0  0  0  0
  133.4300  125.3470   64.6580 C   0  0  0  0  0  0  0  0  0  0  0  0
  132.6560  125.6200   65.7920 C   0  0  0  0  0  0  0  0  0  0  0  0
  131.2600  125.6930   65.6940 C   0  0  0  0  0  0  0  0  0  0  0  0
  130.6290  125.4950   64.4610 C   0  0  0  0  0  0  0  0  0  0  0  0
  131.4180  125.2220   63.3420 C   0  0  0  0  0  0  0  0  0  0  0  0
  131.0470  124.9730   61.9280 C   0  0  0  0  0  0  0  0  0  0  0  0
  129.9150  124.9650   61.4440 O   0  0  0  0  0  0  0  0  0  0  0  0
  1  2  2  0
  2  3  1  0
  3  4  1  0
  4  5  2  0
  4  6  1  0
  6  7  1  0
  7  8  2  0
  7  9  1  0
  9 10  1  6
 10 11  1  0
 11 12  2  0
 12 13  1  0
 13 14  2  0
 14 15  1  0
 15 16  2  0
  9 17  1  0
 17 18  1  0
 18 19  2  0
 18 20  1  0
 20 21  2  0
 21 22  1  0
 22 23  2  0
 23 24  1  0
 24 25  2  0
 25 26  1  0
 26 27  2  0
  2 28  1  0
 28 29  1  1
 29 30  1  0
 30 31  2  0
 31 32  1  0
 32 33  2  0
 33 34  1  0
 34 35  2  0
 28 36  1  0
 36 37  1  0
 37 38  2  0
 37 39  1  0
 39 40  2  0
 40 41  1  0
 41 42  2  0
 42 43  1  0
 43 44  2  0
 44 45  1  0
 45 46  2  0
 16 11  1  0
 26 17  1  0
 35 30  1  0
 45 36  1  0
 25 20  1  0
 44 39  1  0
M  END
>  <Binding energies>  (73) 
[-9.66]

>  <Ligand effiencies>  (73) 
[-0.20125]

>  <Interactions>  (73) 
["V-A:ASP:366:CG:3211, H-A:GLY:454:N:4048, V-B:TYR:539:CE2:9848, V-B:TYR:539:CD2:9846, V-B:ALA:541:CB:9864, V-A:ILE:369:CG2:3235, V-A:LEU:475:CD2:4257, H-A:ARG:545:NH1:4925, V-A:TRP:381:CH2:3370, V-A:ARG:545:CZ:4924, V-B:GLU:543:CD:9880, H-A:ARG:545:NH2:4926, V-A:ARG:545:CD:4921, V-A:HIS:456:CE1:4068, V-A:ARG:545:CG:4920, V-A:TRP:381:CZ2:3368, V-A:PRO:540:CB:4883, V-A:PRO:540:CA:4881, H-B:TYR:539:OH:9850, V-A:TRP:381:CZ3:3369, V-A:PRO:482:CB:4324, V-A:PRO:540:CD:4885, V-A:ALA:541:CB:4890, V-A:TYR:531:CZ:4792, H-A:ASP:366:OD2:3213, V-A:PRO:540:CG:4884, V-A:LEU:363:CA:3183, V-A:TYR:531:CE2:4791, V-A:LEU:363:CB:3185, V-A:LEU:363:CD1:3187, V-B:LEU:475:CD2:9231, V-B:TYR:484:CZ:9319, V-B:TYR:484:CE1:9317"]

$$$$
RR1_Rahimova_2017
     RDKit          3D

 41 44  0  0  0  0  0  0  0  0999 V2000
  133.3390  120.2530   60.3250 C   0  0  0  0  0  0  0  0  0  0  0  0
  133.2730  121.6640   60.1510 O   0  0  0  0  0  0  0  0  0  0  0  0
  132.8580  122.4540   61.2050 C   0  0  0  0  0  0  0  0  0  0  0  0
  131.7780  122.1470   62.0480 C   0  0  0  0  0  0  0  0  0  0  0  0
  131.4280  123.0100   63.0830 C   0  0  0  0  0  0  0  0  0  0  0  0
  132.1500  124.1850   63.2970 C   0  0  0  0  0  0  0  0  0  0  0  0
  131.6900  125.0140   64.3380 N   0  0  0  0  0  0  0  0  0  0  0  0
  132.3660  125.5160   65.3930 C   0  0  0  0  0  0  0  0  0  0  0  0
  133.5400  125.2590   65.6610 O   0  0  0  0  0  0  0  0  0  0  0  0
  131.5490  126.4660   66.2840 C   0  0  0  0  0  0  0  0  0  0  0  0
  129.7750  126.5990   65.8660 S   0  0  0  0  0  0  0  0  0  0  0  0
  129.1790  127.0030   67.4740 C   0  0  0  0  0  0  0  0  0  0  0  0
  129.8560  126.8150   68.5780 N   0  0  0  0  0  0  0  0  0  0  0  0
  129.0440  127.2650   69.5300 C   0  0  0  0  0  0  0  0  0  0  0  0
  129.4250  127.2560   70.9830 C   0  0  0  0  0  0  0  0  0  0  0  0
  130.5790  126.5960   71.4350 C   0  0  0  0  0  0  0  0  0  0  0  0
  130.9060  126.6030   72.7920 C   0  0  0  0  0  0  0  0  0  0  0  0
  130.0640  127.2770   73.6750 C   0  0  0  0  0  0  0  0  0  0  0  0
  128.9410  127.9240   73.2730 N   0  0  0  0  0  0  0  0  0  0  0  0
  128.6420  127.9070   71.9490 C   0  0  0  0  0  0  0  0  0  0  0  0
  127.8800  127.7240   69.1090 N   0  0  0  0  0  0  0  0  0  0  0  0
  127.9640  127.5550   67.7860 N   0  0  0  0  0  0  0  0  0  0  0  0
  126.8650  127.9680   66.9130 C   0  0  0  0  0  0  0  0  0  0  0  0
  127.2330  129.0320   65.8640 C   0  0  0  0  0  0  0  0  0  0  0  0
  127.9470  129.9950   66.1630 O   0  0  0  0  0  0  0  0  0  0  0  0
  126.7170  128.8220   64.6370 N   0  0  0  0  0  0  0  0  0  0  0  0
  127.1240  129.6570   63.6060 N   0  0  0  0  0  0  0  0  0  0  0  0
  127.0480  129.1830   62.3430 C   0  0  0  0  0  0  0  0  0  0  0  0
  126.5430  128.0960   62.0410 O   0  0  0  0  0  0  0  0  0  0  0  0
  127.6050  130.0910   61.2660 C   0  0  0  0  0  0  0  0  0  0  0  0
  128.6410  130.9810   61.5700 C   0  0  0  0  0  0  0  0  0  0  0  0
  129.1590  131.8330   60.6000 C   0  0  0  0  0  0  0  0  0  0  0  0
  128.6490  131.8250   59.2920 C   0  0  0  0  0  0  0  0  0  0  0  0
  129.1100  132.6550   58.2850 O   0  0  0  0  0  0  0  0  0  0  0  0
  129.9190  132.1140   57.2470 C   0  0  0  0  0  0  0  0  0  0  0  0
  127.6070  130.9470   58.9690 C   0  0  0  0  0  0  0  0  0  0  0  0
  127.1260  130.9930   57.6710 O   0  0  0  0  0  0  0  0  0  0  0  0
  126.1420  130.0540   57.2510 C   0  0  0  0  0  0  0  0  0  0  0  0
  127.0960  130.0860   59.9570 C   0  0  0  0  0  0  0  0  0  0  0  0
  133.2300  124.4950   62.4570 C   0  0  0  0  0  0  0  0  0  0  0  0
  133.5770  123.6290   61.4240 C   0  0  0  0  0  0  0  0  0  0  0  0
  1  2  1  0
  2  3  1  0
  3  4  2  0
  4  5  1  0
  5  6  2  0
  6  7  1  0
  7  8  1  0
  8  9  2  0
  8 10  1  0
 10 11  1  0
 11 12  1  0
 12 13  2  0
 13 14  1  0
 14 15  1  0
 15 16  2  0
 16 17  1  0
 17 18  2  0
 18 19  1  0
 19 20  2  0
 14 21  2  0
 21 22  1  0
 22 23  1  0
 23 24  1  0
 24 25  2  0
 24 26  1  0
 26 27  1  0
 27 28  1  0
 28 29  2  0
 28 30  1  0
 30 31  2  0
 31 32  1  0
 32 33  2  0
 33 34  1  0
 34 35  1  0
 33 36  1  0
 36 37  1  0
 37 38  1  0
 36 39  2  0
  6 40  1  0
 40 41  2  0
 41  3  1  0
 22 12  1  0
 39 30  1  0
 20 15  1  0
M  END
>  <Binding energies>  (74) 
[-8.06]

>  <Ligand effiencies>  (74) 
[-0.1831818181818182]

>  <Interactions>  (74) 
["H-B:GLU:543:OE1:9881, H-A:TYR:484:OH:4346, H-A:GLY:454:N:4048, V-A:ILE:369:CD1:3237, V-A:ILE:369:CG2:3235, V-A:LEU:475:CD2:4257, V-A:TRP:381:CH2:3370, V-A:ARG:545:CZ:4924, V-B:GLU:543:CD:9880, V-B:GLU:543:CB:9878, V-A:ARG:545:CD:4921, V-A:GLU:543:CD:4906, V-A:HIS:456:CE1:4068, V-A:ARG:545:CG:4920, V-B:GLU:543:CG:9879, V-A:TRP:381:CZ2:3368, V-A:PRO:540:CA:4881, H-A:GLU:543:OE1:4907, V-A:TYR:539:C:4865, H-A:GLU:543:OE2:4908, H-B:GLU:543:OE2:9882, H-A:ARG:545:NE:4922, V-B:ARG:545:CZ:9898, V-A:TYR:539:CE2:4874, H-B:ARG:545:NH2:9900, V-A:HIS:456:CG:4064, V-A:LYS:547:CE:4948, V-B:HIS:456:CD2:9040, V-A:HIS:456:CD2:4066, H-A:LYS:547:NZ:4949, V-B:HIS:456:CE1:9042, V-B:LYS:547:CE:9922, H-B:LYS:547:NZ:9923, V-A:GLY:544:C:4910, V-B:ARG:545:CG:9894, V-A:PRO:540:N:4882, V-A:GLU:543:CB:4904, V-A:TYR:539:CZ:4875, H-B:TYR:484:OH:9320, H-A:TYR:539:OH:4876"]

$$$$
RR22_Rahimova_2017
     RDKit          3D

 31 36  0  0  0  0  0  0  0  0999 V2000
  133.6180  124.3240   57.2390 O   0  0  0  0  0  0  0  0  0  0  0  0
  132.5940  124.4850   57.9000 C   0  0  0  0  0  0  0  0  0  0  0  0
  132.4970  124.7730   59.2500 N   0  0  0  0  0  0  0  0  0  0  0  0
  131.2200  124.9920   59.8580 C   0  0  1  0  0  0  0  0  0  0  0  0
  131.1540  124.0560   60.9380 O   0  0  0  0  0  0  0  0  0  0  0  0
  130.9900  124.5490   62.2330 C   0  0  0  0  0  0  0  0  0  0  0  0
  131.2950  123.6730   63.2750 C   0  0  0  0  0  0  0  0  0  0  0  0
  131.1170  124.0810   64.5970 C   0  0  0  0  0  0  0  0  0  0  0  0
  130.6280  125.3570   64.8750 C   0  0  0  0  0  0  0  0  0  0  0  0
  130.3210  126.2330   63.8320 C   0  0  0  0  0  0  0  0  0  0  0  0
  130.5170  125.8470   62.5020 C   0  0  0  0  0  0  0  0  0  0  0  0
  130.1770  126.7030   61.3030 C   0  0  1  0  0  0  0  0  0  0  0  0
  130.2740  128.2150   61.3280 C   0  0  0  0  0  0  0  0  0  0  0  0
  130.6040  128.4810   59.8570 C   0  0  0  0  0  0  0  0  0  0  0  0
  130.4330  129.8050   59.2260 C   0  0  0  0  0  0  0  0  0  0  0  0
  129.3860  130.6520   59.6190 C   0  0  0  0  0  0  0  0  0  0  0  0
  129.2300  131.9000   59.0220 C   0  0  0  0  0  0  0  0  0  0  0  0
  130.1180  132.3090   58.0310 C   0  0  0  0  0  0  0  0  0  0  0  0
  131.1620  131.4800   57.6310 C   0  0  0  0  0  0  0  0  0  0  0  0
  131.3210  130.2320   58.2270 C   0  0  0  0  0  0  0  0  0  0  0  0
  131.0570  127.4270   59.2880 N   0  0  0  0  0  0  0  0  0  0  0  0
  131.0980  126.4040   60.2490 N   0  0  0  0  0  0  0  0  0  0  0  0
  130.1740  124.5700   58.8370 C   0  0  0  0  0  0  0  0  0  0  0  0
  128.8860  124.3120   59.1640 C   0  0  0  0  0  0  0  0  0  0  0  0
  127.7730  123.9170   58.2790 C   0  0  0  0  0  0  0  0  0  0  0  0
  126.4760  124.4370   58.3980 C   0  0  0  0  0  0  0  0  0  0  0  0
  125.4730  124.0160   57.5240 C   0  0  0  0  0  0  0  0  0  0  0  0
  125.7940  123.0730   56.5480 C   0  0  0  0  0  0  0  0  0  0  0  0
  127.0370  122.5460   56.4150 N   0  0  0  0  0  0  0  0  0  0  0  0
  127.9990  122.9700   57.2740 C   0  0  0  0  0  0  0  0  0  0  0  0
  130.9040  124.3760   57.2360 S   0  0  0  0  0  0  0  0  0  0  0  0
  1  2  2  0
  2  3  1  0
  4  3  1  6
  4  5  1  0
  5  6  1  0
  6  7  2  0
  7  8  1  0
  8  9  2  0
  9 10  1  0
 10 11  2  0
 11 12  1  0
 12 13  1  1
 13 14  1  0
 14 15  1  0
 15 16  2  0
 16 17  1  0
 17 18  2  0
 18 19  1  0
 19 20  2  0
 14 21  2  0
 21 22  1  0
  4 23  1  0
 23 24  2  0
 24 25  1  0
 25 26  2  0
 26 27  1  0
 27 28  2  0
 28 29  1  0
 29 30  2  0
 23 31  1  0
 31  2  1  0
 22  4  1  0
 30 25  1  0
 11  6  1  0
 22 12  1  0
 20 15  1  0
M  END
>  <Binding energies>  (75) 
[-7.95]

>  <Ligand effiencies>  (75) 
[-0.2484375]

>  <Interactions>  (75) 
["V-A:ASP:366:CG:3211, V-B:TYR:539:CZ:9849, V-B:TYR:539:CE2:9848, V-B:TYR:539:CD2:9846, V-A:ASP:366:CB:3210, H-A:ASP:366:OD1:3212, V-B:PRO:540:CA:9855, V-B:TYR:539:C:9839, V-B:PRO:540:N:9856, V-B:TYR:539:CG:9844, V-B:TYR:539:CA:9841, V-A:TYR:484:CZ:4345, V-B:GLU:543:CD:9880, V-B:GLU:543:CB:9878, V-A:TYR:484:CE1:4343, V-A:GLU:543:CD:4906, V-A:PRO:540:CB:4883, V-A:PRO:540:CA:4881, V-A:TYR:539:C:4865, H-B:TYR:539:OH:9850, V-B:PRO:540:CB:9857, V-A:PRO:540:N:4882, V-B:PRO:540:CD:9859, H-B:TYR:539:N:9842, V-B:ILE:538:CB:9834"]

$$$$
RR24_Rahimova_2017
     RDKit          3D

 43 49  0  0  0  0  0  0  0  0999 V2000
  128.5700  127.9680   66.4650 C   0  0  0  0  0  0  0  0  0  0  0  0
  129.8110  127.4700   67.2210 C   0  0  2  0  0  0  0  0  0  0  0  0
  130.3340  126.0970   66.7070 C   0  0  0  0  0  0  0  0  0  0  0  0
  129.8600  125.0260   67.1000 O   0  0  0  0  0  0  0  0  0  0  0  0
  131.3630  126.2280   65.8200 O   0  0  0  0  0  0  0  0  0  0  0  0
  131.1090  126.1610   64.4690 C   0  0  0  0  0  0  0  0  0  0  0  0
  132.1080  125.7030   63.6070 C   0  0  0  0  0  0  0  0  0  0  0  0
  131.8590  125.6220   62.2400 C   0  0  0  0  0  0  0  0  0  0  0  0
  130.6100  125.9890   61.7300 C   0  0  0  0  0  0  0  0  0  0  0  0
  130.3490  125.9160   60.2210 C   0  0  1  0  0  0  0  0  0  0  0  0
  130.1040  127.3150   59.6080 C   0  0  0  0  0  0  0  0  0  0  0  0
  130.7660  127.7610   58.5240 C   0  0  0  0  0  0  0  0  0  0  0  0
  131.7130  127.0030   57.8810 N   0  0  0  0  0  0  0  0  0  0  0  0
  132.0350  125.7400   58.3180 C   0  0  0  0  0  0  0  0  0  0  0  0
  132.9820  125.1210   57.5680 N   0  0  0  0  0  0  0  0  0  0  0  0
  133.4840  123.8980   57.8940 C   0  0  0  0  0  0  0  0  0  0  0  0
  134.5430  123.5270   57.3840 O   0  0  0  0  0  0  0  0  0  0  0  0
  132.8040  123.2630   58.9210 N   0  0  0  0  0  0  0  0  0  0  0  0
  133.2510  121.8940   59.2530 C   0  0  0  0  0  0  0  0  0  0  0  0
  131.8300  123.7980   59.7470 C   0  0  0  0  0  0  0  0  0  0  0  0
  131.3010  123.1870   60.6800 O   0  0  0  0  0  0  0  0  0  0  0  0
  131.4470  125.1720   59.4040 C   0  0  0  0  0  0  0  0  0  0  0  0
  130.3350  129.1040   58.1720 C   0  0  0  0  0  0  0  0  0  0  0  0
  130.7090  129.9880   57.1590 C   0  0  0  0  0  0  0  0  0  0  0  0
  130.0940  131.2400   57.0860 C   0  0  0  0  0  0  0  0  0  0  0  0
  129.1150  131.6000   58.0170 C   0  0  0  0  0  0  0  0  0  0  0  0
  128.7450  130.7100   59.0290 C   0  0  0  0  0  0  0  0  0  0  0  0
  129.3640  129.4610   59.0990 C   0  0  0  0  0  0  0  0  0  0  0  0
  129.1670  128.3440   60.0470 C   0  0  0  0  0  0  0  0  0  0  0  0
  128.4020  128.2510   61.0050 O   0  0  0  0  0  0  0  0  0  0  0  0
  129.6060  126.4300   62.5990 C   0  0  0  0  0  0  0  0  0  0  0  0
  129.8530  126.5100   63.9660 C   0  0  0  0  0  0  0  0  0  0  0  0
  129.6090  127.4840   68.7000 N   0  0  0  0  0  0  0  0  0  0  0  0
  128.3630  127.5390   69.2500 C   0  0  0  0  0  0  0  0  0  0  0  0
  127.2850  127.5920   68.6550 O   0  0  0  0  0  0  0  0  0  0  0  0
  128.5780  127.5230   70.7180 C   0  0  0  0  0  0  0  0  0  0  0  0
  127.6670  127.5630   71.7750 C   0  0  0  0  0  0  0  0  0  0  0  0
  128.1600  127.5310   73.0840 C   0  0  0  0  0  0  0  0  0  0  0  0
  129.5390  127.4590   73.3180 C   0  0  0  0  0  0  0  0  0  0  0  0
  130.4360  127.4190   72.2450 C   0  0  0  0  0  0  0  0  0  0  0  0
  129.9250  127.4540   70.9470 C   0  0  0  0  0  0  0  0  0  0  0  0
  130.6100  127.4230   69.6310 C   0  0  0  0  0  0  0  0  0  0  0  0
  131.8220  127.3530   69.4230 O   0  0  0  0  0  0  0  0  0  0  0  0
  2  1  1  6
  2  3  1  0
  3  4  2  0
  3  5  1  0
  5  6  1  0
  6  7  2  0
  7  8  1  0
  8  9  2  0
 10  9  1  1
 10 11  1  0
 11 12  2  0
 12 13  1  0
 13 14  1  0
 14 15  1  0
 15 16  1  0
 16 17  2  0
 16 18  1  0
 18 19  1  0
 18 20  1  0
 20 21  2  0
 20 22  1  0
 12 23  1  0
 23 24  2  0
 24 25  1  0
 25 26  2  0
 26 27  1  0
 27 28  2  0
 28 29  1  0
 29 30  2  0
  9 31  1  0
 31 32  2  0
  2 33  1  0
 33 34  1  0
 34 35  2  0
 34 36  1  0
 36 37  2  0
 37 38  1  0
 38 39  2  0
 39 40  1  0
 40 41  2  0
 41 42  1  0
 42 43  2  0
 32  6  1  0
 42 33  1  0
 22 10  1  0
 28 23  1  0
 41 36  1  0
 29 11  1  0
 22 14  2  0
M  END
>  <Binding energies>  (76) 
[-6.8]

>  <Ligand effiencies>  (76) 
[-0.1511111111111111]

>  <Interactions>  (76) 
["V-A:ASP:366:CG:3211, V-B:TYR:539:CZ:9849, V-A:ASP:366:CA:3208, V-B:TYR:539:CE2:9848, V-B:TYR:539:CD2:9846, V-A:ASP:366:CB:3210, V-A:ILE:369:CD1:3237, V-A:ILE:369:CG2:3235, V-A:ARG:545:CZ:4924, V-B:GLU:543:CD:9880, V-B:GLU:543:CB:9878, V-A:GLU:543:CD:4906, V-A:HIS:456:CE1:4068, V-B:GLU:543:CG:9879, H-A:TYR:531:OH:4793, V-A:ILE:369:CB:3234, H-A:ARG:545:NE:4922, H-B:TYR:539:OH:9850, V-A:LYS:547:CE:4948, V-B:HIS:456:CD2:9040, V-B:HIS:456:CE1:9042, V-B:LYS:547:CE:9922, V-B:GLY:544:C:9884, V-A:GLY:544:C:4910, V-A:GLU:543:CG:4905, V-A:GLY:544:CA:4912, V-A:GLU:543:C:4900, H-B:HIS:456:ND1:9039, H-A:HIS:456:ND1:4065, V-A:GLU:543:CB:4904, H-A:ARG:545:N:4918, V-B:GLY:544:CA:9886, H-A:ASP:366:OD2:3213, H-A:ASP:366:O:3207, H-A:ASN:370:N:3242"]

$$$$
RR25_Rahimova_2017
     RDKit          3D

 39 44  0  0  0  0  0  0  0  0999 V2000
  128.0310  122.6710   58.5100 O   0  0  0  0  0  0  0  0  0  0  0  0
  128.5600  123.3640   59.3800 C   0  0  0  0  0  0  0  0  0  0  0  0
  128.9040  122.7190   60.5420 O   0  0  0  0  0  0  0  0  0  0  0  0
  129.7190  123.3190   61.4850 C   0  0  0  0  0  0  0  0  0  0  0  0
  130.4530  122.4680   62.3110 C   0  0  0  0  0  0  0  0  0  0  0  0
  131.2880  123.0040   63.2890 C   0  0  0  0  0  0  0  0  0  0  0  0
  131.3990  124.3930   63.4580 C   0  0  0  0  0  0  0  0  0  0  0  0
  132.2960  124.9610   64.4940 N   0  0  0  0  0  0  0  0  0  0  0  0
  131.8430  125.8040   65.2650 O   0  0  0  0  0  0  0  0  0  0  0  0
  133.4580  124.5690   64.5450 O   0  0  0  0  0  0  0  0  0  0  0  0
  130.6430  125.2310   62.6230 C   0  0  0  0  0  0  0  0  0  0  0  0
  129.7940  124.7100   61.6430 C   0  0  0  0  0  0  0  0  0  0  0  0
  128.9650  125.5740   60.7100 C   0  0  0  0  0  0  0  0  0  0  0  0
  128.8610  124.8900   59.3170 C   0  0  2  0  0  0  0  0  0  0  0  0
  127.9360  125.6990   58.3630 C   0  0  0  0  0  0  0  0  0  0  0  0
  127.3220  125.0430   57.5160 O   0  0  0  0  0  0  0  0  0  0  0  0
  127.7120  127.0380   58.5280 N   0  0  0  0  0  0  0  0  0  0  0  0
  128.6250  127.9130   59.2930 C   0  0  0  0  0  0  0  0  0  0  0  0
  127.7900  128.9650   60.0540 C   0  0  0  0  0  0  0  0  0  0  0  0
  126.9140  129.7120   59.1460 N   0  0  0  0  0  0  0  0  0  0  0  0
  126.2180  130.8010   59.8440 C   0  0  0  0  0  0  0  0  0  0  0  0
  127.0850  132.0820   59.9760 C   0  0  0  0  0  0  0  0  0  0  0  0
  128.5350  131.9290   59.6610 N   0  0  0  0  0  0  0  0  0  0  0  0
  129.3640  131.7990   60.7550 C   0  0  0  0  0  0  0  0  0  0  0  0
  128.9570  131.8410   61.9220 O   0  0  0  0  0  0  0  0  0  0  0  0
  130.8260  131.5780   60.4170 C   0  0  0  0  0  0  0  0  0  0  0  0
  131.7530  131.4070   61.4530 C   0  0  0  0  0  0  0  0  0  0  0  0
  133.1030  131.1940   61.1780 C   0  0  0  0  0  0  0  0  0  0  0  0
  133.5670  131.1410   59.8650 C   0  0  0  0  0  0  0  0  0  0  0  0
  132.6670  131.3090   58.7860 C   0  0  0  0  0  0  0  0  0  0  0  0
  133.0700  131.2660   57.4300 C   0  0  0  0  0  0  0  0  0  0  0  0
  132.1300  131.4350   56.4150 C   0  0  0  0  0  0  0  0  0  0  0  0
  130.7860  131.6500   56.7120 C   0  0  0  0  0  0  0  0  0  0  0  0
  130.3410  131.7010   58.0400 C   0  0  0  0  0  0  0  0  0  0  0  0
  131.2920  131.5280   59.0790 C   0  0  0  0  0  0  0  0  0  0  0  0
  128.8690  131.9280   58.3220 C   0  0  0  0  0  0  0  0  0  0  0  0
  128.0430  132.0810   57.4160 O   0  0  0  0  0  0  0  0  0  0  0  0
  125.9730  128.7960   58.4990 C   0  0  0  0  0  0  0  0  0  0  0  0
  126.7060  127.7110   57.6740 C   0  0  0  0  0  0  0  0  0  0  0  0
  1  2  2  0
  2  3  1  0
  3  4  1  0
  4  5  2  0
  5  6  1  0
  6  7  2  0
  7  8  1  0
  8  9  2  0
  8 10  1  0
  7 11  1  0
 11 12  2  0
 12 13  1  0
 13 14  1  0
 14 15  1  6
 15 16  2  0
 15 17  1  0
 17 18  1  0
 18 19  1  0
 19 20  1  0
 20 21  1  0
 21 22  1  0
 22 23  1  0
 23 24  1  0
 24 25  2  0
 24 26  1  0
 26 27  2  0
 27 28  1  0
 28 29  2  0
 29 30  1  0
 30 31  2  0
 31 32  1  0
 32 33  2  0
 33 34  1  0
 34 35  2  0
 34 36  1  0
 36 37  2  0
 20 38  1  0
 38 39  1  0
 14  2  1  0
 39 17  1  0
 12  4  1  0
 36 23  1  0
 35 26  1  0
 35 30  1  0
M  CHG  2   8   1  10  -1
M  END
>  <Binding energies>  (77) 
[-9.29]

>  <Ligand effiencies>  (77) 
[-0.23820512820512818]

>  <Interactions>  (77) 
["H-A:TYR:484:OH:4346, V-A:ASP:366:CG:3211, H-A:GLY:454:N:4048, V-B:ALA:541:CB:9864, V-A:ARG:545:CZ:4924, V-B:GLU:543:CD:9880, V-A:GLU:543:CD:4906, V-A:PRO:540:C:4879, V-A:PRO:540:CB:4883, V-A:PRO:540:CA:4881, V-A:ASN:362:CB:3174, V-A:TYR:539:C:4865, V-A:ASN:362:C:3170, H-A:ALA:541:N:4889, H-A:ARG:545:NE:4922, V-A:TYR:539:CE2:4874, V-B:ASP:366:CG:8185, V-B:ASP:366:CB:8184, V-A:PRO:540:N:4882, V-A:ALA:541:CB:4890, V-A:TYR:531:CZ:4792, V-A:TYR:539:CD2:4872, V-A:LEU:363:CA:3183, V-A:TYR:531:CE2:4791"]

$$$$
RR27_Rahimova_2017
     RDKit          3D

 39 44  0  0  0  0  0  0  0  0999 V2000
  129.0790  123.1550   62.0040 O   0  0  0  0  0  0  0  0  0  0  0  0
  129.7180  123.9550   61.3150 C   0  0  0  0  0  0  0  0  0  0  0  0
  131.2610  124.0280   61.5070 C   0  0  0  0  0  0  0  0  0  0  0  0
  131.9780  122.7150   61.1410 C   0  0  0  0  0  0  0  0  0  0  0  0
  133.3780  122.6250   61.0900 C   0  0  0  0  0  0  0  0  0  0  0  0
  133.9930  121.4220   60.7580 C   0  0  0  0  0  0  0  0  0  0  0  0
  133.2140  120.3040   60.4750 C   0  0  0  0  0  0  0  0  0  0  0  0
  131.8250  120.3780   60.5190 C   0  0  0  0  0  0  0  0  0  0  0  0
  131.2090  121.5810   60.8510 C   0  0  0  0  0  0  0  0  0  0  0  0
  131.6390  124.6120   62.8820 C   0  0  0  0  0  0  0  0  0  0  0  0
  132.9360  124.4980   63.4000 C   0  0  0  0  0  0  0  0  0  0  0  0
  133.2400  125.0290   64.6510 C   0  0  0  0  0  0  0  0  0  0  0  0
  132.2490  125.6690   65.3900 C   0  0  0  0  0  0  0  0  0  0  0  0
  130.9540  125.7790   64.8920 C   0  0  0  0  0  0  0  0  0  0  0  0
  130.6500  125.2490   63.6430 C   0  0  0  0  0  0  0  0  0  0  0  0
  129.1310  124.6540   60.3020 N   0  0  0  0  0  0  0  0  0  0  0  0
  129.7710  125.7920   59.6250 C   0  0  0  0  0  0  0  0  0  0  0  0
  129.4230  127.0540   60.4440 C   0  0  0  0  0  0  0  0  0  0  0  0
  127.8840  127.2410   60.6400 C   0  0  0  0  0  0  0  0  0  0  0  0
  127.4870  128.4220   61.5450 C   0  0  0  0  0  0  0  0  0  0  0  0
  126.9850  128.1040   62.7740 N   0  0  0  0  0  0  0  0  0  0  0  0
  126.6430  129.1120   63.6230 C   0  0  0  0  0  0  0  0  0  0  0  0
  126.1350  128.9190   64.8810 O   0  0  0  0  0  0  0  0  0  0  0  0
  126.8200  130.4430   63.1980 C   0  0  0  0  0  0  0  0  0  0  0  0
  126.5940  131.6550   63.7810 N   0  0  0  0  0  0  0  0  0  0  0  0
  126.9570  132.6250   62.8660 N   0  0  0  0  0  0  0  0  0  0  0  0
  127.4070  132.0210   61.7460 N   0  0  0  0  0  0  0  0  0  0  0  0
  127.8370  132.8150   60.5970 C   0  0  0  0  0  0  0  0  0  0  0  0
  129.0640  132.2550   59.8910 C   0  0  0  0  0  0  0  0  0  0  0  0
  129.0950  132.1690   58.4960 C   0  0  0  0  0  0  0  0  0  0  0  0
  130.2250  131.6660   57.8480 C   0  0  0  0  0  0  0  0  0  0  0  0
  131.3290  131.2510   58.5910 C   0  0  0  0  0  0  0  0  0  0  0  0
  131.3080  131.3430   59.9840 C   0  0  0  0  0  0  0  0  0  0  0  0
  132.6850  130.8560   60.9040 Cl  0  0  0  0  0  0  0  0  0  0  0  0
  130.1770  131.8390   60.6320 C   0  0  0  0  0  0  0  0  0  0  0  0
  127.3370  130.6470   61.9010 C   0  0  0  0  0  0  0  0  0  0  0  0
  127.6730  129.6770   61.0450 N   0  0  0  0  0  0  0  0  0  0  0  0
  127.1800  125.9030   61.0250 C   0  0  0  0  0  0  0  0  0  0  0  0
  127.6650  124.6950   60.1840 C   0  0  0  0  0  0  0  0  0  0  0  0
  1  2  2  0
  2  3  1  0
  3  4  1  0
  4  5  2  0
  5  6  1  0
  6  7  2  0
  7  8  1  0
  8  9  2  0
  3 10  1  0
 10 11  2  0
 11 12  1  0
 12 13  2  0
 13 14  1  0
 14 15  2  0
  2 16  1  0
 16 17  1  0
 17 18  1  0
 18 19  1  0
 19 20  1  0
 20 21  2  0
 21 22  1  0
 22 23  1  0
 22 24  2  0
 24 25  1  0
 25 26  2  0
 26 27  1  0
 27 28  1  0
 28 29  1  0
 29 30  2  0
 30 31  1  0
 31 32  2  0
 32 33  1  0
 33 34  1  0
 33 35  2  0
 27 36  1  0
 36 37  2  0
 19 38  1  0
 38 39  1  0
  9  4  1  0
 15 10  1  0
 39 16  1  0
 37 20  1  0
 36 24  1  0
 35 29  1  0
M  END
>  <Binding energies>  (78) 
[-9.35]

>  <Ligand effiencies>  (78) 
[-0.23374999999999999]

>  <Interactions>  (78) 
["V-B:TYR:539:CE2:9848, V-B:TYR:539:CD2:9846, V-A:ILE:369:CD1:3237, V-A:ILE:369:CG2:3235, V-A:LEU:475:CD2:4257, V-A:TRP:381:CH2:3370, V-A:ARG:545:CZ:4924, V-B:GLU:543:CD:9880, V-A:ARG:545:CD:4921, V-A:HIS:456:CE1:4068, V-A:ARG:545:CG:4920, V-A:TRP:381:CZ2:3368, V-A:PRO:540:C:4879, V-A:PRO:540:CB:4883, V-A:PRO:540:CA:4881, V-A:ASN:362:CB:3174, V-A:TYR:539:C:4865, H-B:GLU:543:OE2:9882, V-B:ARG:545:CZ:9898, H-B:ARG:545:NH2:9900, V-A:ILE:369:CG1:3236, V-A:PRO:540:N:4882, H-B:TYR:484:OH:9320, H-B:ARG:545:NE:9896, V-A:ALA:541:CB:4890, V-A:TYR:539:CD2:4872"]

$$$$
RR28_Rahimova_2017
     RDKit          3D

 46 49  0  0  0  0  0  0  0  0999 V2000
  133.9410  123.6840   58.0200 C   0  0  0  0  0  0  0  0  0  0  0  0
  132.6610  124.3450   58.5190 C   0  0  0  0  0  0  0  0  0  0  0  0
  132.4610  125.5350   58.2840 O   0  0  0  0  0  0  0  0  0  0  0  0
  131.8100  123.5570   59.2060 N   0  0  0  0  0  0  0  0  0  0  0  0
  130.5090  123.9220   59.8120 C   0  0  0  0  0  0  0  0  0  0  0  0
  130.7590  124.3270   61.2930 C   0  0  0  0  0  0  0  0  0  0  0  0
  130.7570  123.3360   62.2870 C   0  0  0  0  0  0  0  0  0  0  0  0
  130.9720  123.6620   63.6220 C   0  0  0  0  0  0  0  0  0  0  0  0
  131.1940  124.9880   63.9960 C   0  0  0  0  0  0  0  0  0  0  0  0
  131.4240  125.3280   65.4680 C   0  0  0  0  0  0  0  0  0  0  0  0
  130.8690  124.4320   66.2880 F   0  0  0  0  0  0  0  0  0  0  0  0
  132.7300  125.3740   65.7340 F   0  0  0  0  0  0  0  0  0  0  0  0
  130.8900  126.5210   65.7320 F   0  0  0  0  0  0  0  0  0  0  0  0
  131.1970  125.9850   63.0160 C   0  0  0  0  0  0  0  0  0  0  0  0
  130.9810  125.6580   61.6800 C   0  0  0  0  0  0  0  0  0  0  0  0
  129.4750  122.7530   59.6420 C   0  0  0  0  0  0  0  0  0  0  0  0
  129.0900  122.4830   58.1650 C   0  0  0  0  0  0  0  0  0  0  0  0
  128.5290  123.7410   57.6450 N   0  0  0  0  0  0  0  0  0  0  0  0
  127.1860  123.9590   57.6760 C   0  0  0  0  0  0  0  0  0  0  0  0
  126.3860  123.0700   57.9750 O   0  0  0  0  0  0  0  0  0  0  0  0
  126.6360  125.3130   57.1650 C   0  0  0  0  0  0  0  0  0  0  0  0
  125.8190  126.1450   58.1910 C   0  0  0  0  0  0  0  0  0  0  0  0
  126.4810  126.3090   59.5790 C   0  0  0  0  0  0  0  0  0  0  0  0
  125.9000  125.8320   60.5580 O   0  0  0  0  0  0  0  0  0  0  0  0
  127.7320  126.8420   59.6720 N   0  0  0  0  0  0  0  0  0  0  0  0
  128.3270  127.6910   58.6330 C   0  0  0  0  0  0  0  0  0  0  0  0
  127.8450  129.1320   58.9110 C   0  0  0  0  0  0  0  0  0  0  0  0
  128.1840  129.6720   60.3450 C   0  0  0  0  0  0  0  0  0  0  0  0
  127.3480  130.8570   60.6260 N   0  0  0  0  0  0  0  0  0  0  0  0
  127.3060  132.0250   59.9530 C   0  0  0  0  0  0  0  0  0  0  0  0
  126.3490  133.0830   60.4930 C   0  0  0  0  0  0  0  0  0  0  0  0
  127.9830  132.2700   58.9560 O   0  0  0  0  0  0  0  0  0  0  0  0
  129.6750  130.1400   60.3280 C   0  0  0  0  0  0  0  0  0  0  0  0
  130.3200  130.5880   59.1630 C   0  0  0  0  0  0  0  0  0  0  0  0
  131.6500  130.9980   59.1920 C   0  0  0  0  0  0  0  0  0  0  0  0
  132.3720  130.9660   60.3870 C   0  0  0  0  0  0  0  0  0  0  0  0
  133.8320  131.4160   60.4350 C   0  0  0  0  0  0  0  0  0  0  0  0
  133.9750  132.4630   61.2510 F   0  0  0  0  0  0  0  0  0  0  0  0
  134.5830  130.4150   60.8920 F   0  0  0  0  0  0  0  0  0  0  0  0
  134.2900  131.7680   59.2320 F   0  0  0  0  0  0  0  0  0  0  0  0
  131.7490  130.5160   61.5510 C   0  0  0  0  0  0  0  0  0  0  0  0
  130.4190  130.1070   61.5190 C   0  0  0  0  0  0  0  0  0  0  0  0
  127.9010  128.5350   61.4020 C   0  0  0  0  0  0  0  0  0  0  0  0
  128.3270  127.1000   60.9900 C   0  0  0  0  0  0  0  0  0  0  0  0
  129.5090  124.8350   57.5850 C   0  0  0  0  0  0  0  0  0  0  0  0
  129.9250  125.1530   59.0440 C   0  0  0  0  0  0  0  0  0  0  0  0
  1  2  1  0
  2  3  2  0
  2  4  1  0
  4  5  1  0
  5  6  1  0
  6  7  2  0
  7  8  1  0
  8  9  2  0
  9 10  1  0
 10 11  1  0
 10 12  1  0
 10 13  1  0
  9 14  1  0
 14 15  2  0
  5 16  1  0
 16 17  1  0
 17 18  1  0
 18 19  1  0
 19 20  2  0
 19 21  1  0
 21 22  1  0
 22 23  1  0
 23 24  2  0
 23 25  1  0
 25 26  1  0
 26 27  1  0
 27 28  1  0
 28 29  1  0
 29 30  1  0
 30 31  1  0
 30 32  2  0
 28 33  1  0
 33 34  2  0
 34 35  1  0
 35 36  2  0
 36 37  1  0
 37 38  1  0
 37 39  1  0
 37 40  1  0
 36 41  1  0
 41 42  2  0
 28 43  1  0
 43 44  1  0
 18 45  1  0
 45 46  1  0
 46  5  1  0
 15  6  1  0
 44 25  1  0
 42 33  1  0
M  END
>  <Binding energies>  (79) 
[-5.13]

>  <Ligand effiencies>  (79) 
[-0.106875]

>  <Interactions>  (79) 
["V-A:ASP:366:CG:3211, V-B:TYR:539:CZ:9849, V-A:ASP:366:CA:3208, V-B:TYR:539:CE2:9848, V-B:TYR:539:CD2:9846, V-A:ASP:366:CB:3210, V-A:ILE:369:CG2:3235, V-B:TYR:539:C:9839, V-B:TYR:539:CG:9844, V-A:ARG:545:CZ:4924, V-A:TYR:484:CZ:4345, V-B:GLU:543:CD:9880, V-B:GLU:543:CB:9878, V-A:ARG:545:CD:4921, V-A:TYR:484:CE1:4343, V-A:GLU:543:CD:4906, V-A:HIS:456:CE1:4068, V-A:ARG:545:CG:4920, V-B:GLU:543:CG:9879, V-A:ILE:369:CB:3234, V-A:PRO:540:C:4879, V-A:PRO:540:CB:4883, V-A:PRO:540:CA:4881, V-A:ASN:362:CB:3174, V-A:ASN:362:C:3170, V-A:ALA:541:C:4886, V-A:TYR:539:CE2:4874, H-B:ARG:545:NH2:9900, V-B:ASP:366:CG:8185, V-A:ASN:362:CG:3175, V-A:GLU:543:CG:4905, V-A:TYR:539:CD2:4872, V-A:PRO:540:CG:4884, V-A:LEU:363:CA:3183, V-A:LEU:363:CB:3185, V-A:ASN:362:CA:3172"]

$$$$
RR29_Rahimova_2017
     RDKit          3D

 18 19  0  0  0  0  0  0  0  0999 V2000
  132.9680  125.4250   64.6790 C   0  0  0  0  0  0  0  0  0  0  0  0
  131.5010  125.7580   64.4490 C   0  0  0  0  0  0  0  0  0  0  0  0
  130.6640  125.7230   65.7470 C   0  0  0  0  0  0  0  0  0  0  0  0
  131.0000  126.9080   66.6760 C   0  0  0  0  0  0  0  0  0  0  0  0
  129.9350  127.1290   67.7380 C   0  0  0  0  0  0  0  0  0  0  0  0
  128.5720  127.1320   67.3790 C   0  0  0  0  0  0  0  0  0  0  0  0
  127.5740  127.3330   68.3430 C   0  0  0  0  0  0  0  0  0  0  0  0
  127.9810  127.5400   69.6560 C   0  0  0  0  0  0  0  0  0  0  0  0
  129.3010  127.5400   70.0100 C   0  0  0  0  0  0  0  0  0  0  0  0
  130.3120  127.3330   69.0780 C   0  0  0  0  0  0  0  0  0  0  0  0
  129.4060  127.7300   71.3520 O   0  0  0  0  0  0  0  0  0  0  0  0
  128.1150  128.0620   71.7900 C   0  0  0  0  0  0  0  0  0  0  0  0
  127.2170  127.7280   70.7650 O   0  0  0  0  0  0  0  0  0  0  0  0
  131.1090  126.0160   63.2560 N   0  0  0  0  0  0  0  0  0  0  0  0
  129.7670  126.2330   63.0330 N   0  0  0  0  0  0  0  0  0  0  0  0
  129.2700  127.3480   62.4720 C   0  0  0  0  0  0  0  0  0  0  0  0
  130.0010  128.3770   62.0440 N   0  0  0  0  0  0  0  0  0  0  0  0
  127.9550  127.4340   62.3330 N   0  0  0  0  0  0  0  0  0  0  0  0
  1  2  1  0
  2  3  1  0
  3  4  1  0
  4  5  1  0
  5  6  2  0
  6  7  1  0
  7  8  2  0
  8  9  1  0
  9 10  2  0
  9 11  1  0
 11 12  1  0
 12 13  1  0
  2 14  2  0
 14 15  1  0
 15 16  1  0
 16 17  1  0
 16 18  2  0
 10  5  1  0
 13  8  1  0
M  CHG  1  18   1
M  END
>  <Binding energies>  (80) 
[-7.11]

>  <Ligand effiencies>  (80) 
[-0.3091304347826087]

>  <Interactions>  (80) 
["H-B:GLU:543:OE1:9881, V-A:ARG:545:CZ:4924, V-B:GLU:543:CD:9880, H-A:ARG:545:NH2:4926, V-B:GLU:543:CB:9878, V-A:ARG:545:CD:4921, V-A:GLU:543:CD:4906, V-A:HIS:456:CE1:4068, V-A:ARG:545:CG:4920, V-B:GLU:543:CG:9879, H-A:GLU:543:OE1:4907, H-A:GLU:543:OE2:4908, H-B:GLU:543:OE2:9882, V-B:HIS:456:CD2:9040, V-B:HIS:456:CE1:9042, V-B:GLY:544:C:9884, V-A:GLY:544:C:4910, V-A:GLU:543:CG:4905, V-B:ARG:545:CG:9894, V-A:GLU:543:C:4900, V-B:GLU:543:C:9874, H-B:HIS:456:ND1:9039, H-B:ARG:545:N:9892"]

$$$$
RR30_Rahimova_2017
     RDKit          3D

 18 19  0  0  0  0  0  0  0  0999 V2000
  127.6150  128.3040   73.1540 C   0  0  0  0  0  0  0  0  0  0  0  0
  128.6420  127.3210   72.5740 C   0  0  0  0  0  0  0  0  0  0  0  0
  128.6670  127.3440   71.0610 C   0  0  0  0  0  0  0  0  0  0  0  0
  127.6510  127.3550   70.2340 N   0  0  0  0  0  0  0  0  0  0  0  0
  128.2000  127.3660   68.9540 N   0  0  0  0  0  0  0  0  0  0  0  0
  129.4990  127.3510   69.1180 C   0  0  0  0  0  0  0  0  0  0  0  0
  130.7410  127.3700   67.8650 S   0  0  0  0  0  0  0  0  0  0  0  0
  129.8210  126.5890   66.5010 C   0  0  0  0  0  0  0  0  0  0  0  0
  130.6390  125.5010   65.8000 C   0  0  0  0  0  0  0  0  0  0  0  0
  130.6190  124.3520   66.2460 O   0  0  0  0  0  0  0  0  0  0  0  0
  131.3670  125.9040   64.7350 N   0  0  0  0  0  0  0  0  0  0  0  0
  132.1830  125.1070   63.9460 C   0  0  0  0  0  0  0  0  0  0  0  0
  133.4960  125.0910   63.8900 N   0  0  0  0  0  0  0  0  0  0  0  0
  133.9740  124.1580   62.9790 N   0  0  0  0  0  0  0  0  0  0  0  0
  133.0220  123.4900   62.3690 C   0  0  0  0  0  0  0  0  0  0  0  0
  133.2920  122.4240   61.3320 C   0  0  0  0  0  0  0  0  0  0  0  0
  131.4250  123.9660   62.8790 S   0  0  0  0  0  0  0  0  0  0  0  0
  129.8650  127.3420   70.4250 O   0  0  0  0  0  0  0  0  0  0  0  0
  1  2  1  0
  2  3  1  0
  3  4  2  0
  4  5  1  0
  5  6  2  0
  6  7  1  0
  7  8  1  0
  8  9  1  0
  9 10  2  0
  9 11  1  0
 11 12  1  0
 12 13  2  0
 13 14  1  0
 14 15  2  0
 15 16  1  0
 15 17  1  0
  6 18  1  0
 18  3  1  0
 17 12  1  0
M  END
>  <Binding energies>  (81) 
[-6.75]

>  <Ligand effiencies>  (81) 
[-0.35526315789473684]

>  <Interactions>  (81) 
["H-A:TYR:484:OH:4346, H-A:GLY:454:N:4048, V-A:GLY:454:CA:4047, V-A:ILE:369:CD1:3237, V-A:LEU:475:CD2:4257, H-A:ARG:545:NH1:4925, V-A:ARG:545:CZ:4924, V-B:GLU:543:CD:9880, H-A:ARG:545:NH2:4926, V-B:GLU:543:CB:9878, V-A:GLU:543:CD:4906, V-A:HIS:456:CE1:4068, V-B:GLU:543:CG:9879, H-A:GLU:543:OE2:4908, H-A:ARG:545:NE:4922, V-B:HIS:456:CD2:9040, V-B:LYS:547:CE:9922, V-B:GLY:544:C:9884, H-B:ARG:545:N:9892"]

$$$$
RR31_Rahimova_2017
     RDKit          3D

 18 19  0  0  0  0  0  0  0  0999 V2000
  133.5150  120.0130   60.4650 C   0  0  0  0  0  0  0  0  0  0  0  0
  132.4670  121.1160   60.5180 C   0  0  0  0  0  0  0  0  0  0  0  0
  132.8790  122.4490   60.5030 C   0  0  0  0  0  0  0  0  0  0  0  0
  131.9440  123.4810   60.5460 C   0  0  0  0  0  0  0  0  0  0  0  0
  130.5670  123.2120   60.5970 C   0  0  0  0  0  0  0  0  0  0  0  0
  129.6180  124.2350   60.6510 N   0  0  0  0  0  0  0  0  0  0  0  0
  128.2100  123.9770   61.0100 C   0  0  0  0  0  0  0  0  0  0  0  0
  127.2410  125.1200   60.6230 C   0  0  0  0  0  0  0  0  0  0  0  0
  127.6710  126.3920   61.2090 N   0  0  0  0  0  0  0  0  0  0  0  0
  126.7520  127.4880   60.8890 C   0  0  0  0  0  0  0  0  0  0  0  0
  127.2860  128.8680   61.3230 C   0  0  0  0  0  0  0  0  0  0  0  0
  127.2650  129.0480   62.8490 C   0  0  0  0  0  0  0  0  0  0  0  0
  128.2720  128.0960   63.5030 N   0  0  0  0  0  0  0  0  0  0  0  0
  129.0000  126.6920   60.6770 C   0  0  0  0  0  0  0  0  0  0  0  0
  130.0120  125.5930   61.0760 C   0  0  0  0  0  0  0  0  0  0  0  0
  130.1660  121.8670   60.6200 C   0  0  0  0  0  0  0  0  0  0  0  0
  131.0960  120.8210   60.5790 C   0  0  0  0  0  0  0  0  0  0  0  0
  130.5960  119.3820   60.6100 C   0  0  0  0  0  0  0  0  0  0  0  0
  1  2  1  0
  2  3  2  0
  3  4  1  0
  4  5  2  0
  5  6  1  0
  6  7  1  0
  7  8  1  0
  8  9  1  0
  9 10  1  0
 10 11  1  0
 11 12  1  0
 12 13  1  0
  9 14  1  0
 14 15  1  0
  5 16  1  0
 16 17  2  0
 17 18  1  0
 17  2  1  0
 15  6  1  0
M  CHG  1  13   1
M  END
>  <Binding energies>  (82) 
[-6.29]

>  <Ligand effiencies>  (82) 
[-0.2995238095238095]

>  <Interactions>  (82) 
["H-B:GLU:543:OE1:9881, V-B:TYR:539:CE2:9848, V-B:TYR:539:CD2:9846, V-B:ALA:541:CB:9864, V-A:ILE:369:CG2:3235, V-A:LEU:475:CD2:4257, V-A:TRP:381:CH2:3370, V-B:GLU:543:CD:9880, V-A:GLU:543:CD:4906, V-A:TRP:381:CZ2:3368, H-A:GLU:543:OE1:4907, H-A:GLU:543:OE2:4908, H-B:GLU:543:OE2:9882, H-B:ARG:545:NH2:9900, V-A:TRP:381:CZ3:3369, V-A:PRO:482:CG:4325, V-A:PRO:482:CB:4324"]

$$$$
RR32_Rahimova_2017
     RDKit          3D

 18 20  0  0  0  0  0  0  0  0999 V2000
  129.9510  126.6540   72.4500 C   0  0  0  0  0  0  0  0  0  0  0  0
  130.3240  125.2410   72.8860 C   0  0  0  0  0  0  0  0  0  0  0  0
  129.4830  124.1920   72.5120 C   0  0  0  0  0  0  0  0  0  0  0  0
  129.7930  122.8890   72.8890 C   0  0  0  0  0  0  0  0  0  0  0  0
  128.9570  121.8510   72.5160 N   0  0  0  0  0  0  0  0  0  0  0  0
  128.7310  121.6500   71.0730 C   0  0  0  0  0  0  0  0  0  0  0  0
  127.6470  120.5900   70.7660 C   0  0  0  0  0  0  0  0  0  0  0  0
  128.0110  119.3060   71.3640 N   0  0  0  0  0  0  0  0  0  0  0  0
  127.0050  118.2990   71.0480 C   0  0  0  0  0  0  0  0  0  0  0  0
  128.1040  119.4930   72.8100 C   0  0  0  0  0  0  0  0  0  0  0  0
  129.1930  120.5390   73.1480 C   0  0  0  0  0  0  0  0  0  0  0  0
  130.8950  122.5810   73.6200 N   0  0  0  0  0  0  0  0  0  0  0  0
  131.7330  123.5820   74.0030 C   0  0  0  0  0  0  0  0  0  0  0  0
  132.8730  123.2330   74.7670 C   0  0  0  0  0  0  0  0  0  0  0  0
  133.7630  124.2150   75.1850 C   0  0  0  0  0  0  0  0  0  0  0  0
  133.5470  125.5480   74.8590 C   0  0  0  0  0  0  0  0  0  0  0  0
  132.4370  125.9260   74.1100 C   0  0  0  0  0  0  0  0  0  0  0  0
  131.4960  124.9530   73.6600 C   0  0  0  0  0  0  0  0  0  0  0  0
  1  2  1  0
  2  3  2  0
  3  4  1  0
  4  5  1  0
  5  6  1  0
  6  7  1  0
  7  8  1  0
  8  9  1  0
  8 10  1  0
 10 11  1  0
  4 12  2  0
 12 13  1  0
 13 14  2  0
 14 15  1  0
 15 16  2  0
 16 17  1  0
 17 18  2  0
 18  2  1  0
 11  5  1  0
 18 13  1  0
M  END
>  <Binding energies>  (83) 
[-6.08]

>  <Ligand effiencies>  (83) 
[-0.3377777777777778]

>  <Interactions>  (83) 
["V-A:HIS:456:CB:4063, V-A:ASP:473:CG:4238, V-A:HIS:456:CG:4064, V-A:HIS:456:CD2:4066, V-A:VAL:458:CG2:4085, V-A:LYS:471:CE:4218, V-B:LYS:547:CE:9922, V-A:HIS:456:C:4059, V-A:TYR:484:CG:4340, V-A:LYS:471:CD:4217, V-A:TYR:484:CB:4339, V-B:GLU:543:C:9874, V-B:GLY:544:CA:9886, V-A:TYR:484:CD1:4341, V-B:GLU:543:CA:9876, V-B:VAL:542:C:9866, H-A:TYR:484:N:4338, V-B:VAL:542:CG1:9871, V-A:SER:483:CB:4331"]

$$$$
RR5_Rahimova_2017
     RDKit          3D

 45 50  0  0  0  0  0  0  0  0999 V2000
  129.3350  127.4190   58.9050 O   0  0  0  0  0  0  0  0  0  0  0  0
  130.1820  127.8750   59.6720 C   0  0  0  0  0  0  0  0  0  0  0  0
  130.4600  129.3900   59.6890 C   0  0  0  0  0  0  0  0  0  0  0  0
  130.4900  130.0180   61.1280 C   0  0  2  0  0  0  0  0  0  0  0  0
  129.3810  130.9470   61.4260 N   0  0  0  0  0  0  0  0  0  0  0  0
  129.1130  132.0430   60.6170 C   0  0  0  0  0  0  0  0  0  0  0  0
  129.6960  132.3480   59.5740 O   0  0  0  0  0  0  0  0  0  0  0  0
  128.1050  132.7410   61.1690 O   0  0  0  0  0  0  0  0  0  0  0  0
  126.8710  132.9340   60.4830 C   0  0  0  0  0  0  0  0  0  0  0  0
  125.9090  131.7540   60.7410 C   0  0  0  0  0  0  0  0  0  0  0  0
  126.0040  130.6520   59.7000 C   0  0  0  0  0  0  0  0  0  0  0  0
  125.8200  130.7180   58.3160 C   0  0  0  0  0  0  0  0  0  0  0  0
  125.9810  129.5710   57.5370 C   0  0  0  0  0  0  0  0  0  0  0  0
  126.3240  128.3580   58.1380 C   0  0  0  0  0  0  0  0  0  0  0  0
  126.5050  128.2890   59.5210 C   0  0  0  0  0  0  0  0  0  0  0  0
  126.3430  129.4380   60.2970 C   0  0  0  0  0  0  0  0  0  0  0  0
  126.4620  129.6500   61.7490 C   0  0  0  0  0  0  0  0  0  0  0  0
  126.7650  128.7650   62.7860 C   0  0  0  0  0  0  0  0  0  0  0  0
  126.7910  129.2270   64.1020 C   0  0  0  0  0  0  0  0  0  0  0  0
  126.5200  130.5690   64.3800 C   0  0  0  0  0  0  0  0  0  0  0  0
  126.2220  131.4500   63.3400 C   0  0  0  0  0  0  0  0  0  0  0  0
  126.1970  130.9930   62.0210 C   0  0  0  0  0  0  0  0  0  0  0  0
  131.8440  130.7210   61.3930 C   0  0  0  0  0  0  0  0  0  0  0  0
  132.9050  130.3850   60.9070 O   0  0  0  0  0  0  0  0  0  0  0  0
  131.6550  131.7790   62.2360 O   0  0  0  0  0  0  0  0  0  0  0  0
  130.8950  127.1430   60.5570 N   0  0  0  0  0  0  0  0  0  0  0  0
  130.9470  125.6850   60.8790 C   0  0  0  0  0  0  0  0  0  0  0  0
  129.4460  125.2630   60.7260 C   0  0  0  0  0  0  0  0  0  0  0  0
  128.4190  125.9540   61.3900 C   0  0  0  0  0  0  0  0  0  0  0  0
  127.0890  125.5710   61.2450 C   0  0  0  0  0  0  0  0  0  0  0  0
  126.7640  124.4830   60.4410 C   0  0  0  0  0  0  0  0  0  0  0  0
  127.7600  123.7830   59.7710 C   0  0  0  0  0  0  0  0  0  0  0  0
  129.0880  124.1730   59.9080 C   0  0  0  0  0  0  0  0  0  0  0  0
  131.8750  125.0040   59.8180 C   0  0  0  0  0  0  0  0  0  0  0  0
  132.6050  123.8420   60.1130 C   0  0  0  0  0  0  0  0  0  0  0  0
  133.4400  123.2650   59.1600 C   0  0  0  0  0  0  0  0  0  0  0  0
  133.5570  123.8430   57.9000 C   0  0  0  0  0  0  0  0  0  0  0  0
  132.8410  124.9920   57.5830 C   0  0  0  0  0  0  0  0  0  0  0  0
  132.0000  125.5620   58.5330 C   0  0  0  0  0  0  0  0  0  0  0  0
  131.4590  125.5840   62.3560 C   0  0  0  0  0  0  0  0  0  0  0  0
  130.6120  125.8830   63.4380 C   0  0  0  0  0  0  0  0  0  0  0  0
  131.0650  125.8030   64.7520 C   0  0  0  0  0  0  0  0  0  0  0  0
  132.3740  125.4140   65.0080 C   0  0  0  0  0  0  0  0  0  0  0  0
  133.2310  125.0980   63.9610 C   0  0  0  0  0  0  0  0  0  0  0  0
  132.7750  125.1800   62.6480 C   0  0  0  0  0  0  0  0  0  0  0  0
  1  2  2  0
  2  3  1  0
  4  3  1  6
  4  5  1  0
  5  6  1  0
  6  7  2  0
  6  8  1  0
  8  9  1  0
  9 10  1  0
 10 11  1  0
 11 12  2  0
 12 13  1  0
 13 14  2  0
 14 15  1  0
 15 16  2  0
 16 17  1  0
 17 18  2  0
 18 19  1  0
 19 20  2  0
 20 21  1  0
 21 22  2  0
  4 23  1  0
 23 24  2  0
 23 25  1  0
  2 26  1  0
 26 27  1  0
 27 28  1  0
 28 29  2  0
 29 30  1  0
 30 31  2  0
 31 32  1  0
 32 33  2  0
 27 34  1  0
 34 35  2  0
 35 36  1  0
 36 37  2  0
 37 38  1  0
 38 39  2  0
 27 40  1  0
 40 41  2  0
 41 42  1  0
 42 43  2  0
 43 44  1  0
 44 45  2  0
 22 10  1  0
 33 28  1  0
 39 34  1  0
 45 40  1  0
 16 11  1  0
 22 17  1  0
M  END
>  <Binding energies>  (84) 
[-9.27]

>  <Ligand effiencies>  (84) 
[-0.193125]

>  <Interactions>  (84) 
["V-A:ASP:366:CG:3211, V-B:TYR:539:CZ:9849, V-A:ASP:366:CA:3208, V-B:TYR:539:CE2:9848, V-A:ASP:366:CB:3210, V-A:ILE:369:CD1:3237, V-A:ILE:369:CG2:3235, H-A:ASP:366:OD1:3212, V-B:PRO:540:CA:9855, V-A:ARG:545:CZ:4924, V-B:GLU:543:CD:9880, H-A:ARG:545:NH2:4926, V-A:ARG:545:CD:4921, V-A:GLU:543:CD:4906, V-A:HIS:456:CE1:4068, V-A:ARG:545:CG:4920, V-A:ILE:369:CB:3234, V-A:PRO:540:CA:4881, H-A:GLU:543:OE1:4907, H-A:GLU:543:OE2:4908, H-A:ALA:541:N:4889, V-B:ARG:545:CZ:9898, V-A:TYR:539:CE2:4874, V-B:ASP:366:CG:8185, V-A:TYR:539:CZ:4875, V-A:ALA:541:CB:4890, V-A:TYR:539:CD2:4872, H-A:ASP:366:OD2:3213, H-A:ALA:541:O:4887"]

$$$$
