1a_Ghoteimi_2023
     RDKit          3D

 40 43  0  0  0  0  0  0  0  0999 V2000
  130.0130  131.8070   59.8850 C   0  0  0  0  0  0  0  0  0  0  0  0
  131.4530  131.4110   59.5450 C   0  0  0  0  0  0  0  0  0  0  0  0
  131.6110  131.3820   58.1310 O   0  0  0  0  0  0  0  0  0  0  0  0
  130.5340  131.3440   57.3050 C   0  0  0  0  0  0  0  0  0  0  0  0
  130.1790  132.2970   56.6050 O   0  0  0  0  0  0  0  0  0  0  0  0
  129.8200  130.0240   57.3240 C   0  0  0  0  0  0  0  0  0  0  0  0
  128.6540  129.8000   56.5760 C   0  0  0  0  0  0  0  0  0  0  0  0
  128.0110  128.5650   56.6170 C   0  0  0  0  0  0  0  0  0  0  0  0
  128.5280  127.5270   57.4060 C   0  0  0  0  0  0  0  0  0  0  0  0
  127.9590  126.2440   57.5240 N   0  0  0  0  0  0  0  0  0  0  0  0
  128.4410  125.0440   57.1320 C   0  0  0  0  0  0  0  0  0  0  0  0
  129.5270  124.8520   56.5860 O   0  0  0  0  0  0  0  0  0  0  0  0
  127.5320  123.8480   57.4140 C   0  0  0  0  0  0  0  0  0  0  0  0
  126.5710  124.0780   58.9390 S   0  0  0  0  0  0  0  0  0  0  0  0
  127.5180  125.1840   59.9590 C   0  0  0  0  0  0  0  0  0  0  0  0
  127.0540  126.4560   59.9680 N   0  0  0  0  0  0  0  0  0  0  0  0
  127.6870  127.4010   60.7140 C   0  0  0  0  0  0  0  0  0  0  0  0
  127.1000  128.7830   60.6870 C   0  0  0  0  0  0  0  0  0  0  0  0
  126.4650  129.3280   61.8150 C   0  0  0  0  0  0  0  0  0  0  0  0
  125.9230  130.6090   61.7880 C   0  0  0  0  0  0  0  0  0  0  0  0
  125.9960  131.3850   60.6340 C   0  0  0  0  0  0  0  0  0  0  0  0
  125.4330  132.6460   60.6980 O   0  0  0  0  0  0  0  0  0  0  0  0
  126.2020  133.7230   61.2220 C   0  0  0  0  0  0  0  0  0  0  0  0
  126.6230  130.8540   59.4980 C   0  0  0  0  0  0  0  0  0  0  0  0
  127.1640  129.5730   59.5290 C   0  0  0  0  0  0  0  0  0  0  0  0
  128.8160  127.0700   61.4730 C   0  0  0  0  0  0  0  0  0  0  0  0
  129.3290  125.7660   61.4600 C   0  0  0  0  0  0  0  0  0  0  0  0
  130.5550  125.4930   62.2690 C   0  0  0  0  0  0  0  0  0  0  0  0
  130.5730  125.7340   63.6470 C   0  0  0  0  0  0  0  0  0  0  0  0
  131.7150  125.4630   64.3960 C   0  0  0  0  0  0  0  0  0  0  0  0
  132.8560  124.9410   63.7870 C   0  0  0  0  0  0  0  0  0  0  0  0
  133.9390  124.7040   64.6100 O   0  0  0  0  0  0  0  0  0  0  0  0
  133.8710  125.0930   65.9770 C   0  0  0  0  0  0  0  0  0  0  0  0
  132.8380  124.6910   62.4060 C   0  0  0  0  0  0  0  0  0  0  0  0
  131.6960  124.9640   61.6590 C   0  0  0  0  0  0  0  0  0  0  0  0
  128.6620  124.7870   60.6850 C   0  0  0  0  0  0  0  0  0  0  0  0
  129.1420  123.4020   60.6440 C   0  0  0  0  0  0  0  0  0  0  0  0
  129.5220  122.3090   60.6120 N   0  0  0  0  0  0  0  0  0  0  0  0
  129.6850  127.7480   58.1530 C   0  0  0  0  0  0  0  0  0  0  0  0
  130.3270  128.9830   58.1130 C   0  0  0  0  0  0  0  0  0  0  0  0
  1  2  1  0
  2  3  1  0
  3  4  1  0
  4  5  2  0
  4  6  1  0
  6  7  2  0
  7  8  1  0
  8  9  2  0
  9 10  1  0
 10 11  1  0
 11 12  2  0
 11 13  1  0
 13 14  1  0
 14 15  1  0
 15 16  2  0
 16 17  1  0
 17 18  1  0
 18 19  2  0
 19 20  1  0
 20 21  2  0
 21 22  1  0
 22 23  1  0
 21 24  1  0
 24 25  2  0
 17 26  2  0
 26 27  1  0
 27 28  1  0
 28 29  2  0
 29 30  1  0
 30 31  2  0
 31 32  1  0
 32 33  1  0
 31 34  1  0
 34 35  2  0
 27 36  2  0
 36 37  1  0
 37 38  3  0
  9 39  1  0
 39 40  2  0
 40  6  1  0
 36 15  1  0
 25 18  1  0
 35 28  1  0
M  END
>  <Binding energies>  (1) 
[-6.08]

>  <Ligand effiencies>  (1) 
[-0.14829268292682926]

>  <Interactions>  (1) 
["H-A:TYR:484:OH:4346, H-A:GLY:454:N:4048, V-A:ARG:545:CZ:4924, V-A:TYR:484:CZ:4345, V-B:GLU:543:CD:9880, V-A:ARG:545:CD:4921, V-A:HIS:456:CE1:4068, V-A:ARG:545:CG:4920, V-A:PRO:540:C:4879, V-A:PRO:540:CB:4883, V-A:PRO:540:CA:4881, H-A:ARG:545:NE:4922, V-A:TYR:539:CE2:4874, V-A:PRO:540:N:4882, V-A:TYR:539:CD2:4872, H-A:TYR:539:N:4868, V-B:LEU:475:CD2:9231"]

$$$$
1b_Ghoteimi_2023
     RDKit          3D

 34 37  0  0  0  0  0  0  0  0999 V2000
  126.6890  133.9130   60.9330 C   0  0  0  0  0  0  0  0  0  0  0  0
  125.9170  132.7460   60.6720 O   0  0  0  0  0  0  0  0  0  0  0  0
  126.5130  131.5050   60.7890 C   0  0  0  0  0  0  0  0  0  0  0  0
  125.6630  130.4010   60.7920 C   0  0  0  0  0  0  0  0  0  0  0  0
  126.1730  129.1110   60.9070 C   0  0  0  0  0  0  0  0  0  0  0  0
  127.5530  128.8850   61.0200 C   0  0  0  0  0  0  0  0  0  0  0  0
  128.1000  127.4910   61.1460 C   0  0  0  0  0  0  0  0  0  0  0  0
  129.2240  127.1820   61.9190 C   0  0  0  0  0  0  0  0  0  0  0  0
  129.6920  125.8640   62.0070 C   0  0  0  0  0  0  0  0  0  0  0  0
  130.9000  125.6090   62.8470 C   0  0  0  0  0  0  0  0  0  0  0  0
  132.1030  125.2170   62.2520 C   0  0  0  0  0  0  0  0  0  0  0  0
  133.2290  124.9700   63.0310 C   0  0  0  0  0  0  0  0  0  0  0  0
  133.1750  125.1040   64.4190 C   0  0  0  0  0  0  0  0  0  0  0  0
  134.3410  124.8370   65.1100 O   0  0  0  0  0  0  0  0  0  0  0  0
  134.3830  125.0660   66.5150 C   0  0  0  0  0  0  0  0  0  0  0  0
  131.9680  125.4880   65.0210 C   0  0  0  0  0  0  0  0  0  0  0  0
  130.8430  125.7350   64.2390 C   0  0  0  0  0  0  0  0  0  0  0  0
  128.9920  124.8520   61.3050 C   0  0  0  0  0  0  0  0  0  0  0  0
  129.3830  123.4460   61.4400 C   0  0  0  0  0  0  0  0  0  0  0  0
  129.6930  122.3360   61.5480 N   0  0  0  0  0  0  0  0  0  0  0  0
  127.8780  125.2350   60.5260 C   0  0  0  0  0  0  0  0  0  0  0  0
  126.8870  124.1040   59.5720 S   0  0  0  0  0  0  0  0  0  0  0  0
  127.3930  124.2490   57.8250 C   0  0  0  0  0  0  0  0  0  0  0  0
  128.8460  123.8490   57.5340 C   0  0  0  0  0  0  0  0  0  0  0  0
  129.1030  122.9560   56.7230 O   0  0  0  0  0  0  0  0  0  0  0  0
  129.7720  124.5440   58.2320 N   0  0  0  0  0  0  0  0  0  0  0  0
  131.1530  124.3990   58.1720 C   0  0  0  0  0  0  0  0  0  0  0  0
  131.9100  123.8760   59.2190 C   0  0  0  0  0  0  0  0  0  0  0  0
  133.2100  123.9010   58.7690 C   0  0  0  0  0  0  0  0  0  0  0  0
  133.2340  124.4110   57.5140 O   0  0  0  0  0  0  0  0  0  0  0  0
  131.9250  124.7230   57.1470 N   0  0  0  0  0  0  0  0  0  0  0  0
  127.4380  126.5160   60.4700 N   0  0  0  0  0  0  0  0  0  0  0  0
  128.4010  130.0040   61.0180 C   0  0  0  0  0  0  0  0  0  0  0  0
  127.8940  131.2950   60.9040 C   0  0  0  0  0  0  0  0  0  0  0  0
  1  2  1  0
  2  3  1  0
  3  4  2  0
  4  5  1  0
  5  6  2  0
  6  7  1  0
  7  8  2  0
  8  9  1  0
  9 10  1  0
 10 11  2  0
 11 12  1  0
 12 13  2  0
 13 14  1  0
 14 15  1  0
 13 16  1  0
 16 17  2  0
  9 18  2  0
 18 19  1  0
 19 20  3  0
 18 21  1  0
 21 22  1  0
 22 23  1  0
 23 24  1  0
 24 25  2  0
 24 26  1  0
 26 27  1  0
 27 28  1  0
 28 29  2  0
 29 30  1  0
 30 31  1  0
 21 32  2  0
  6 33  1  0
 33 34  2  0
 34  3  1  0
 32  7  1  0
 17 10  1  0
 31 27  2  0
M  END
>  <Binding energies>  (2) 
[-6.38]

>  <Ligand effiencies>  (2) 
[-0.18228571428571427]

>  <Interactions>  (2) 
["H-A:TYR:484:OH:4346, V-A:ASP:366:CG:3211, V-B:TYR:539:CZ:9849, H-A:GLY:454:N:4048, V-B:TYR:539:CE2:9848, V-B:TYR:539:CD2:9846, V-B:ALA:541:CB:9864, V-A:ILE:369:CG2:3235, V-A:ARG:545:CZ:4924, V-B:GLU:543:CD:9880, V-A:ARG:545:CD:4921, V-A:HIS:456:CE1:4068, V-A:ARG:545:CG:4920, H-A:ARG:545:NE:4922, V-A:TYR:539:CE2:4874, V-B:ASP:366:CG:8185, H-B:TYR:539:OH:9850, V-A:ARG:545:CB:4919, V-A:ILE:455:C:4050, V-A:TYR:539:CD2:4872, V-B:LEU:475:CD2:9231"]

$$$$
1c_Ghoteimi_2023
     RDKit          3D

 34 37  0  0  0  0  0  0  0  0999 V2000
  126.8330  134.0690   60.8740 C   0  0  0  0  0  0  0  0  0  0  0  0
  125.9620  133.0480   60.4010 O   0  0  0  0  0  0  0  0  0  0  0  0
  126.3310  131.7240   60.5480 C   0  0  0  0  0  0  0  0  0  0  0  0
  127.6850  131.4330   60.4050 C   0  0  0  0  0  0  0  0  0  0  0  0
  128.1450  130.1260   60.5330 C   0  0  0  0  0  0  0  0  0  0  0  0
  127.2630  129.0690   60.8080 C   0  0  0  0  0  0  0  0  0  0  0  0
  127.7550  127.6560   60.9420 C   0  0  0  0  0  0  0  0  0  0  0  0
  128.9500  127.3300   61.5920 C   0  0  0  0  0  0  0  0  0  0  0  0
  129.3540  125.9960   61.7160 C   0  0  0  0  0  0  0  0  0  0  0  0
  130.6060  125.7160   62.4800 C   0  0  0  0  0  0  0  0  0  0  0  0
  130.6370  125.8570   63.8710 C   0  0  0  0  0  0  0  0  0  0  0  0
  131.8100  125.6170   64.5790 C   0  0  0  0  0  0  0  0  0  0  0  0
  132.9750  125.2360   63.9120 C   0  0  0  0  0  0  0  0  0  0  0  0
  134.0920  125.0190   64.6960 O   0  0  0  0  0  0  0  0  0  0  0  0
  133.9710  125.0930   66.1130 C   0  0  0  0  0  0  0  0  0  0  0  0
  132.9490  125.1000   62.5160 C   0  0  0  0  0  0  0  0  0  0  0  0
  131.7740  125.3410   61.8090 C   0  0  0  0  0  0  0  0  0  0  0  0
  128.5410  124.9900   61.1430 C   0  0  0  0  0  0  0  0  0  0  0  0
  128.9260  123.5760   61.2090 C   0  0  0  0  0  0  0  0  0  0  0  0
  129.2310  122.4610   61.2630 N   0  0  0  0  0  0  0  0  0  0  0  0
  127.3410  125.3870   60.5180 C   0  0  0  0  0  0  0  0  0  0  0  0
  126.1440  124.2210   59.9060 S   0  0  0  0  0  0  0  0  0  0  0  0
  127.0330  123.2610   58.6370 C   0  0  0  0  0  0  0  0  0  0  0  0
  128.2320  124.0270   58.0680 C   0  0  0  0  0  0  0  0  0  0  0  0
  128.0410  125.0050   57.3440 O   0  0  0  0  0  0  0  0  0  0  0  0
  129.4430  123.5730   58.4580 N   0  0  0  0  0  0  0  0  0  0  0  0
  130.6700  124.1710   58.2150 C   0  0  0  0  0  0  0  0  0  0  0  0
  131.7780  124.0540   58.9140 N   0  0  0  0  0  0  0  0  0  0  0  0
  132.7680  124.7330   58.3680 C   0  0  0  0  0  0  0  0  0  0  0  0
  132.4700  125.4200   57.1960 C   0  0  0  0  0  0  0  0  0  0  0  0
  130.7980  125.1590   56.7960 S   0  0  0  0  0  0  0  0  0  0  0  0
  126.9580  126.6830   60.4290 N   0  0  0  0  0  0  0  0  0  0  0  0
  125.9030  129.3750   60.9560 C   0  0  0  0  0  0  0  0  0  0  0  0
  125.4380  130.6800   60.8270 C   0  0  0  0  0  0  0  0  0  0  0  0
  1  2  1  0
  2  3  1  0
  3  4  2  0
  4  5  1  0
  5  6  2  0
  6  7  1  0
  7  8  2  0
  8  9  1  0
  9 10  1  0
 10 11  2  0
 11 12  1  0
 12 13  2  0
 13 14  1  0
 14 15  1  0
 13 16  1  0
 16 17  2  0
  9 18  2  0
 18 19  1  0
 19 20  3  0
 18 21  1  0
 21 22  1  0
 22 23  1  0
 23 24  1  0
 24 25  2  0
 24 26  1  0
 26 27  1  0
 27 28  2  0
 28 29  1  0
 29 30  2  0
 30 31  1  0
 21 32  2  0
  6 33  1  0
 33 34  2  0
 34  3  1  0
 32  7  1  0
 17 10  1  0
 31 27  1  0
M  END
>  <Binding energies>  (3) 
[-5.86]

>  <Ligand effiencies>  (3) 
[-0.16742857142857143]

>  <Interactions>  (3) 
["H-A:TYR:484:OH:4346, V-A:ASP:366:CG:3211, V-B:TYR:539:CZ:9849, H-A:GLY:454:N:4048, V-A:ASP:366:CA:3208, V-B:TYR:539:CE2:9848, V-B:TYR:539:CD2:9846, V-A:ASP:366:CB:3210, V-B:ALA:541:CB:9864, H-A:ARG:545:NH1:4925, V-B:PRO:540:CA:9855, V-B:TYR:539:C:9839, V-B:PRO:540:N:9856, V-A:ARG:545:CZ:4924, V-A:TYR:484:CZ:4345, V-B:GLU:543:CD:9880, V-A:ARG:545:CD:4921, V-A:HIS:456:CE1:4068, V-A:ARG:545:CG:4920, H-B:ALA:541:N:9863, H-A:ARG:545:NE:4922, V-A:TYR:539:CE2:4874, H-B:ARG:545:NH2:9900, V-B:ASP:366:CG:8185, V-A:ALA:541:CB:4890, V-A:TYR:539:CD2:4872, V-B:LEU:475:CD2:9231, H-B:TYR:539:O:9840"]

$$$$
1d_Ghoteimi_2023
     RDKit          3D

 30 32  0  0  0  0  0  0  0  0999 V2000
  128.8480  123.2190   57.7520 C   0  0  0  0  0  0  0  0  0  0  0  0
  127.9160  123.6880   56.7900 O   0  0  0  0  0  0  0  0  0  0  0  0
  126.5940  123.4690   56.9540 C   0  0  0  0  0  0  0  0  0  0  0  0
  125.9490  122.5260   56.4920 O   0  0  0  0  0  0  0  0  0  0  0  0
  125.9280  124.5500   57.8010 C   0  0  0  0  0  0  0  0  0  0  0  0
  126.0370  124.0270   59.5390 S   0  0  0  0  0  0  0  0  0  0  0  0
  127.1120  125.1800   60.3630 C   0  0  0  0  0  0  0  0  0  0  0  0
  126.6940  126.4660   60.2860 N   0  0  0  0  0  0  0  0  0  0  0  0
  127.4230  127.4520   60.8700 C   0  0  0  0  0  0  0  0  0  0  0  0
  126.8880  128.8490   60.7430 C   0  0  0  0  0  0  0  0  0  0  0  0
  126.5290  129.3810   59.4950 C   0  0  0  0  0  0  0  0  0  0  0  0
  126.0390  130.6780   59.3790 C   0  0  0  0  0  0  0  0  0  0  0  0
  125.8940  131.4850   60.5060 C   0  0  0  0  0  0  0  0  0  0  0  0
  125.4030  132.7590   60.2960 O   0  0  0  0  0  0  0  0  0  0  0  0
  126.0520  133.8630   60.9190 C   0  0  0  0  0  0  0  0  0  0  0  0
  126.2480  130.9680   61.7590 C   0  0  0  0  0  0  0  0  0  0  0  0
  126.7370  129.6690   61.8710 C   0  0  0  0  0  0  0  0  0  0  0  0
  128.6030  127.1510   61.5620 C   0  0  0  0  0  0  0  0  0  0  0  0
  129.0660  125.8320   61.6440 C   0  0  0  0  0  0  0  0  0  0  0  0
  130.3360  125.5830   62.3920 C   0  0  0  0  0  0  0  0  0  0  0  0
  131.4530  125.0640   61.7290 C   0  0  0  0  0  0  0  0  0  0  0  0
  132.6390  124.8300   62.4190 C   0  0  0  0  0  0  0  0  0  0  0  0
  132.7350  125.1140   63.7810 C   0  0  0  0  0  0  0  0  0  0  0  0
  133.9480  124.8430   64.3850 O   0  0  0  0  0  0  0  0  0  0  0  0
  134.1010  125.0900   65.7780 C   0  0  0  0  0  0  0  0  0  0  0  0
  131.6210  125.6480   64.4470 C   0  0  0  0  0  0  0  0  0  0  0  0
  130.4370  125.8820   63.7550 C   0  0  0  0  0  0  0  0  0  0  0  0
  128.3140  124.8120   61.0100 C   0  0  0  0  0  0  0  0  0  0  0  0
  128.8050  123.4310   60.9750 C   0  0  0  0  0  0  0  0  0  0  0  0
  129.1940  122.3420   60.9480 N   0  0  0  0  0  0  0  0  0  0  0  0
  1  2  1  0
  2  3  1  0
  3  4  2  0
  3  5  1  0
  5  6  1  0
  6  7  1  0
  7  8  2  0
  8  9  1  0
  9 10  1  0
 10 11  2  0
 11 12  1  0
 12 13  2  0
 13 14  1  0
 14 15  1  0
 13 16  1  0
 16 17  2  0
  9 18  2  0
 18 19  1  0
 19 20  1  0
 20 21  2  0
 21 22  1  0
 22 23  2  0
 23 24  1  0
 24 25  1  0
 23 26  1  0
 26 27  2  0
 19 28  2  0
 28 29  1  0
 29 30  3  0
 28  7  1  0
 17 10  1  0
 27 20  1  0
M  END
>  <Binding energies>  (4) 
[-6.04]

>  <Ligand effiencies>  (4) 
[-0.20133333333333334]

>  <Interactions>  (4) 
["H-A:TYR:484:OH:4346, V-B:TYR:539:CZ:9849, H-A:GLY:454:N:4048, V-B:TYR:539:CE2:9848, V-B:TYR:539:CD2:9846, V-A:GLY:454:CA:4047, V-B:ALA:541:CB:9864, V-B:PRO:540:CA:9855, V-A:GLY:453:C:4040, V-B:TYR:539:C:9839, V-B:PRO:540:N:9856, V-B:TYR:539:CG:9844, V-A:ARG:545:CZ:4924, V-B:GLU:543:CD:9880, V-A:ARG:545:CD:4921, V-A:GLY:453:CA:4042, V-A:HIS:456:CE1:4068, V-A:ARG:545:CG:4920, H-B:ALA:541:N:9863, H-A:ARG:545:NE:4922, V-A:TYR:539:CE2:4874, H-B:ARG:545:NH2:9900, V-B:ASP:366:CG:8185, V-A:TYR:539:CD2:4872, V-B:LEU:475:CD2:9231, H-B:TYR:539:N:9842"]

$$$$
1j_Grossjean_2025
     RDKit          3D

 20 21  0  0  0  0  0  0  0  0999 V2000
  128.8010  122.4260   72.9570 C   0  0  0  0  0  0  0  0  0  0  0  0
  129.9370  123.3850   73.2630 C   0  0  0  0  0  0  0  0  0  0  0  0
  130.9920  123.0220   74.0970 C   0  0  0  0  0  0  0  0  0  0  0  0
  132.0180  123.9430   74.3330 C   0  0  0  0  0  0  0  0  0  0  0  0
  133.1740  123.5160   75.2380 C   0  0  0  0  0  0  0  0  0  0  0  0
  131.9560  125.2180   73.7280 C   0  0  0  0  0  0  0  0  0  0  0  0
  133.0460  126.1780   73.9190 C   0  0  0  0  0  0  0  0  0  0  0  0
  133.9090  126.9340   74.0710 N   0  0  0  0  0  0  0  0  0  0  0  0
  130.8330  125.5090   72.9170 C   0  0  0  0  0  0  0  0  0  0  0  0
  130.5910  127.0620   72.0820 S   0  0  0  0  0  0  0  0  0  0  0  0
  128.8060  127.4030   72.0560 C   0  0  0  0  0  0  0  0  0  0  0  0
  128.4580  128.7010   72.7870 C   0  0  0  0  0  0  0  0  0  0  0  0
  127.6480  128.6740   73.7140 O   0  0  0  0  0  0  0  0  0  0  0  0
  129.0930  129.8070   72.3420 N   0  0  0  0  0  0  0  0  0  0  0  0
  128.9470  131.0990   72.8290 C   0  0  0  0  0  0  0  0  0  0  0  0
  128.4450  131.4720   73.9870 N   0  0  0  0  0  0  0  0  0  0  0  0
  128.4610  132.7830   74.1210 C   0  0  0  0  0  0  0  0  0  0  0  0
  128.9870  133.5050   73.0530 C   0  0  0  0  0  0  0  0  0  0  0  0
  129.4860  132.3950   71.8120 S   0  0  0  0  0  0  0  0  0  0  0  0
  129.8540  124.6020   72.6770 N   0  0  0  0  0  0  0  0  0  0  0  0
  1  2  1  0
  2  3  2  0
  3  4  1  0
  4  5  1  0
  4  6  2  0
  6  7  1  0
  7  8  3  0
  6  9  1  0
  9 10  1  0
 10 11  1  0
 11 12  1  0
 12 13  2  0
 12 14  1  0
 14 15  1  0
 15 16  2  0
 16 17  1  0
 17 18  2  0
 18 19  1  0
  9 20  2  0
 20  2  1  0
 19 15  1  0
M  END
>  <Binding energies>  (5) 
[-6.88]

>  <Ligand effiencies>  (5) 
[-0.3276190476190476]

>  <Interactions>  (5) 
["V-A:HIS:456:CB:4063, V-A:ASP:473:CG:4238, V-A:HIS:456:CG:4064, V-A:LYS:547:CE:4948, V-B:HIS:456:CD2:9040, V-A:HIS:456:CD2:4066, H-A:LYS:547:NZ:4949, V-A:VAL:458:CG2:4085, V-A:LYS:471:CE:4218, V-B:LYS:547:CE:9922, H-B:LYS:547:NZ:9923, V-A:LYS:471:CD:4217, V-A:LYS:471:CG:4216, V-A:GLY:544:CA:4912, V-A:GLU:543:C:4900, H-B:HIS:456:NE2:9043, V-B:GLY:544:CA:9886, H-A:GLY:544:O:4911, H-A:GLU:543:O:4901, V-A:GLU:543:CA:4902, V-B:TYR:484:CB:9313"]

$$$$
1o_Grossjean_2025
     RDKit          3D

 26 27  0  0  0  0  0  0  0  0999 V2000
  129.1720  125.5860   72.2220 C   0  0  0  0  0  0  0  0  0  0  0  0
  128.9990  126.8820   72.7780 O   0  0  0  0  0  0  0  0  0  0  0  0
  128.9340  127.9810   71.9830 C   0  0  0  0  0  0  0  0  0  0  0  0
  128.6280  129.1030   72.3980 O   0  0  0  0  0  0  0  0  0  0  0  0
  129.2750  127.6980   70.5490 C   0  0  0  0  0  0  0  0  0  0  0  0
  130.6020  127.6300   70.1000 C   0  0  0  0  0  0  0  0  0  0  0  0
  130.8840  127.3620   68.7630 C   0  0  0  0  0  0  0  0  0  0  0  0
  129.8500  127.1640   67.8480 C   0  0  0  0  0  0  0  0  0  0  0  0
  130.2480  126.8910   66.5240 N   0  0  0  0  0  0  0  0  0  0  0  0
  130.6110  125.7220   65.9530 C   0  0  0  0  0  0  0  0  0  0  0  0
  130.6140  124.6270   66.5160 O   0  0  0  0  0  0  0  0  0  0  0  0
  131.0180  125.8070   64.4740 C   0  0  0  0  0  0  0  0  0  0  0  0
  132.3390  125.0770   64.1610 C   0  0  0  0  0  0  0  0  0  0  0  0
  132.6450  124.8340   62.3860 S   0  0  0  0  0  0  0  0  0  0  0  0
  131.4900  123.6240   61.7740 C   0  0  0  0  0  0  0  0  0  0  0  0
  130.2100  124.0730   61.7290 N   0  0  0  0  0  0  0  0  0  0  0  0
  129.2430  123.2430   61.2720 C   0  0  0  0  0  0  0  0  0  0  0  0
  127.8400  123.8200   61.2370 C   0  0  0  0  0  0  0  0  0  0  0  0
  129.5070  121.9390   60.8580 C   0  0  0  0  0  0  0  0  0  0  0  0
  130.8180  121.4570   60.9240 C   0  0  0  0  0  0  0  0  0  0  0  0
  131.0790  120.0190   60.4780 C   0  0  0  0  0  0  0  0  0  0  0  0
  131.8440  122.3050   61.4020 C   0  0  0  0  0  0  0  0  0  0  0  0
  133.2120  121.7980   61.5340 C   0  0  0  0  0  0  0  0  0  0  0  0
  134.2920  121.3960   61.6370 N   0  0  0  0  0  0  0  0  0  0  0  0
  128.5200  127.2250   68.2900 C   0  0  0  0  0  0  0  0  0  0  0  0
  128.2400  127.4920   69.6270 C   0  0  0  0  0  0  0  0  0  0  0  0
  1  2  1  0
  2  3  1  0
  3  4  2  0
  3  5  1  0
  5  6  2  0
  6  7  1  0
  7  8  2  0
  8  9  1  0
  9 10  1  0
 10 11  2  0
 10 12  1  0
 12 13  1  0
 13 14  1  0
 14 15  1  0
 15 16  2  0
 16 17  1  0
 17 18  1  0
 17 19  2  0
 19 20  1  0
 20 21  1  0
 20 22  2  0
 22 23  1  0
 23 24  3  0
  8 25  1  0
 25 26  2  0
 26  5  1  0
 22 15  1  0
M  END
>  <Binding energies>  (6) 
[-7.59]

>  <Ligand effiencies>  (6) 
[-0.2811111111111111]

>  <Interactions>  (6) 
["H-A:TYR:484:OH:4346, H-A:GLY:454:N:4048, V-B:TYR:539:CE2:9848, V-B:TYR:539:CD2:9846, V-A:GLY:454:CA:4047, V-A:ILE:369:CD1:3237, V-B:ALA:541:CB:9864, V-A:LEU:475:CD2:4257, V-A:TRP:381:CH2:3370, V-A:ARG:545:CZ:4924, V-B:GLU:543:CD:9880, H-A:ARG:545:NH2:4926, V-B:GLU:543:CB:9878, V-A:GLU:543:CD:4906, V-A:HIS:456:CE1:4068, V-A:ARG:545:CG:4920, V-B:GLU:543:CG:9879, V-A:TRP:381:CZ2:3368, H-A:GLU:543:OE1:4907, H-A:GLU:543:OE2:4908, H-B:GLU:543:OE2:9882, V-A:HIS:456:CD2:4066, H-A:LYS:547:NZ:4949, V-B:HIS:456:CE1:9042, V-B:LYS:547:CE:9922, H-B:LYS:547:NZ:9923, V-B:GLY:544:C:9884, V-A:GLY:544:C:4910, V-A:GLU:543:CG:4905, V-A:GLY:544:CA:4912, V-A:GLU:543:C:4900, V-B:GLU:543:C:9874, V-B:GLY:544:CA:9886"]

$$$$
1p_Grossjean_2025
     RDKit          3D

 21 22  0  0  0  0  0  0  0  0999 V2000
  129.9860  122.0380   73.8800 C   0  0  0  0  0  0  0  0  0  0  0  0
  130.9990  123.1550   74.0500 C   0  0  0  0  0  0  0  0  0  0  0  0
  132.2300  122.9340   74.6650 C   0  0  0  0  0  0  0  0  0  0  0  0
  133.1200  124.0040   74.8070 C   0  0  0  0  0  0  0  0  0  0  0  0
  134.4580  123.7430   75.4970 C   0  0  0  0  0  0  0  0  0  0  0  0
  132.7530  125.2780   74.3170 C   0  0  0  0  0  0  0  0  0  0  0  0
  133.6470  126.4230   74.4960 C   0  0  0  0  0  0  0  0  0  0  0  0
  134.3540  127.3290   74.6390 N   0  0  0  0  0  0  0  0  0  0  0  0
  131.4920  125.4050   73.6870 C   0  0  0  0  0  0  0  0  0  0  0  0
  130.8810  126.9300   73.0070 S   0  0  0  0  0  0  0  0  0  0  0  0
  129.6550  126.4880   71.7420 C   0  0  0  0  0  0  0  0  0  0  0  0
  128.8580  127.6910   71.2020 C   0  0  0  0  0  0  0  0  0  0  0  0
  128.5660  128.7610   72.2650 C   0  0  0  0  0  0  0  0  0  0  0  0
  127.9050  128.4630   73.2610 O   0  0  0  0  0  0  0  0  0  0  0  0
  129.0880  129.9840   72.0210 N   0  0  0  0  0  0  0  0  0  0  0  0
  128.9750  131.1190   72.8150 C   0  0  0  0  0  0  0  0  0  0  0  0
  129.5680  132.3390   72.4880 C   0  0  0  0  0  0  0  0  0  0  0  0
  129.2230  133.1900   73.5120 C   0  0  0  0  0  0  0  0  0  0  0  0
  128.4650  132.5190   74.4100 O   0  0  0  0  0  0  0  0  0  0  0  0
  128.3150  131.2060   73.9580 N   0  0  0  0  0  0  0  0  0  0  0  0
  130.6270  124.3650   73.5720 N   0  0  0  0  0  0  0  0  0  0  0  0
  1  2  1  0
  2  3  2  0
  3  4  1  0
  4  5  1  0
  4  6  2  0
  6  7  1  0
  7  8  3  0
  6  9  1  0
  9 10  1  0
 10 11  1  0
 11 12  1  0
 12 13  1  0
 13 14  2  0
 13 15  1  0
 15 16  1  0
 16 17  1  0
 17 18  2  0
 18 19  1  0
 19 20  1  0
  9 21  2  0
 21  2  1  0
 20 16  2  0
M  END
>  <Binding energies>  (7) 
[-7.54]

>  <Ligand effiencies>  (7) 
[-0.3427272727272727]

>  <Interactions>  (7) 
["V-A:HIS:456:CB:4063, V-A:ASP:473:CG:4238, V-A:HIS:456:CG:4064, V-A:LYS:547:CE:4948, V-B:HIS:456:CD2:9040, V-A:HIS:456:CD2:4066, H-A:LYS:547:NZ:4949, V-A:VAL:458:CG2:4085, V-A:VAL:457:C:4071, V-A:LYS:471:CE:4218, V-B:LYS:547:CE:9922, H-B:LYS:547:NZ:9923, V-A:HIS:456:C:4059, V-A:LYS:471:CD:4217, V-A:LYS:471:CG:4216, V-A:GLY:544:CA:4912, V-A:GLU:543:C:4900, H-B:HIS:456:NE2:9043, H-A:GLU:543:O:4901, V-A:LYS:547:CD:4947, V-A:LYS:547:CG:4946"]

$$$$
2a_Ghoteimi_2023
     RDKit          3D

 48 53  0  0  0  0  0  0  0  0999 V2000
  127.2070  117.6570   59.6950 C   0  0  0  0  0  0  0  0  0  0  0  0
  127.7040  118.7940   60.5930 C   0  0  0  0  0  0  0  0  0  0  0  0
  129.1010  118.6480   60.8100 O   0  0  0  0  0  0  0  0  0  0  0  0
  129.8220  119.6200   61.4250 C   0  0  0  0  0  0  0  0  0  0  0  0
  130.6190  119.3980   62.3420 O   0  0  0  0  0  0  0  0  0  0  0  0
  129.5580  120.9920   60.8740 C   0  0  0  0  0  0  0  0  0  0  0  0
  130.0100  121.3830   59.6050 C   0  0  0  0  0  0  0  0  0  0  0  0
  129.7470  122.6610   59.1240 C   0  0  0  0  0  0  0  0  0  0  0  0
  129.0240  123.5740   59.8950 C   0  0  0  0  0  0  0  0  0  0  0  0
  128.8200  124.8400   59.3120 N   0  0  0  0  0  0  0  0  0  0  0  0
  129.2070  125.3090   58.1060 C   0  0  0  0  0  0  0  0  0  0  0  0
  129.8830  124.6860   57.2860 O   0  0  0  0  0  0  0  0  0  0  0  0
  128.7780  126.7500   57.8000 C   0  0  0  0  0  0  0  0  0  0  0  0
  128.5290  127.7920   59.2730 S   0  0  0  0  0  0  0  0  0  0  0  0
  129.2970  126.9160   60.6160 C   0  0  0  0  0  0  0  0  0  0  0  0
  130.0530  125.8650   60.2230 N   0  0  0  0  0  0  0  0  0  0  0  0
  130.6850  125.1110   61.1570 C   0  0  0  0  0  0  0  0  0  0  0  0
  131.4940  123.9610   60.6500 C   0  0  0  0  0  0  0  0  0  0  0  0
  132.1040  124.0020   59.3900 C   0  0  0  0  0  0  0  0  0  0  0  0
  132.8470  122.9240   58.9190 C   0  0  0  0  0  0  0  0  0  0  0  0
  133.0150  121.7660   59.6910 C   0  0  0  0  0  0  0  0  0  0  0  0
  133.7390  120.6780   59.1910 N   0  0  0  0  0  0  0  0  0  0  0  0
  133.2370  119.8740   58.0590 C   0  0  0  0  0  0  0  0  0  0  0  0
  134.3070  118.9660   57.4170 C   0  0  0  0  0  0  0  0  0  0  0  0
  134.8990  118.1380   58.4050 O   0  0  0  0  0  0  0  0  0  0  0  0
  135.5330  118.9080   59.4140 C   0  0  0  0  0  0  0  0  0  0  0  0
  134.5020  119.8150   60.1170 C   0  0  0  0  0  0  0  0  0  0  0  0
  132.3910  121.7240   60.9480 C   0  0  0  0  0  0  0  0  0  0  0  0
  131.6510  122.8030   61.4210 C   0  0  0  0  0  0  0  0  0  0  0  0
  130.5790  125.4090   62.5180 C   0  0  0  0  0  0  0  0  0  0  0  0
  129.8020  126.4930   62.9490 C   0  0  0  0  0  0  0  0  0  0  0  0
  129.7280  126.7510   64.4190 C   0  0  0  0  0  0  0  0  0  0  0  0
  128.8050  127.6710   64.9250 C   0  0  0  0  0  0  0  0  0  0  0  0
  128.7420  127.9330   66.2900 C   0  0  0  0  0  0  0  0  0  0  0  0
  129.5970  127.2810   67.1920 C   0  0  0  0  0  0  0  0  0  0  0  0
  129.5610  127.5440   68.5640 N   0  0  0  0  0  0  0  0  0  0  0  0
  130.4420  126.7790   69.4700 C   0  0  0  0  0  0  0  0  0  0  0  0
  130.5900  127.4230   70.8650 C   0  0  0  0  0  0  0  0  0  0  0  0
  129.3110  127.6160   71.4490 O   0  0  0  0  0  0  0  0  0  0  0  0
  128.4950  128.4670   70.6580 C   0  0  0  0  0  0  0  0  0  0  0  0
  128.2950  127.8530   69.2570 C   0  0  0  0  0  0  0  0  0  0  0  0
  130.5270  126.3690   66.6750 C   0  0  0  0  0  0  0  0  0  0  0  0
  130.5920  126.1070   65.3090 C   0  0  0  0  0  0  0  0  0  0  0  0
  129.1420  127.2780   61.9730 C   0  0  0  0  0  0  0  0  0  0  0  0
  128.3610  128.4580   62.3580 C   0  0  0  0  0  0  0  0  0  0  0  0
  127.7430  129.3870   62.6650 N   0  0  0  0  0  0  0  0  0  0  0  0
  128.5760  123.1940   61.1680 C   0  0  0  0  0  0  0  0  0  0  0  0
  128.8390  121.9130   61.6480 C   0  0  0  0  0  0  0  0  0  0  0  0
  1  2  1  0
  2  3  1  0
  3  4  1  0
  4  5  2  0
  4  6  1  0
  6  7  2  0
  7  8  1  0
  8  9  2  0
  9 10  1  0
 10 11  1  0
 11 12  2  0
 11 13  1  0
 13 14  1  0
 14 15  1  0
 15 16  2  0
 16 17  1  0
 17 18  1  0
 18 19  2  0
 19 20  1  0
 20 21  2  0
 21 22  1  0
 22 23  1  0
 23 24  1  0
 24 25  1  0
 25 26  1  0
 26 27  1  0
 21 28  1  0
 28 29  2  0
 17 30  2  0
 30 31  1  0
 31 32  1  0
 32 33  2  0
 33 34  1  0
 34 35  2  0
 35 36  1  0
 36 37  1  0
 37 38  1  0
 38 39  1  0
 39 40  1  0
 40 41  1  0
 35 42  1  0
 42 43  2  0
 31 44  2  0
 44 45  1  0
 45 46  3  0
  9 47  1  0
 47 48  2  0
 48  6  1  0
 44 15  1  0
 29 18  1  0
 43 32  1  0
 27 22  1  0
 41 36  1  0
M  END
>  <Binding energies>  (8) 
[46.99]

>  <Ligand effiencies>  (8) 
[0.9589795918367348]

>  <Interactions>  (8) 
["V-B:TYR:539:CZ:9849, V-B:TYR:539:CE2:9848, V-B:TYR:539:CD2:9846, V-A:ILE:369:CD1:3237, V-B:ALA:541:CB:9864, V-A:ILE:369:CG2:3235, V-A:LEU:475:CD2:4257, V-B:PRO:540:C:9853, V-A:TRP:381:CH2:3370, V-B:PRO:540:CA:9855, V-B:TYR:539:C:9839, V-B:PRO:540:N:9856, V-B:TYR:539:CG:9844, V-B:TYR:539:CA:9841, V-B:TYR:539:CB:9843, V-B:GLU:543:CD:9880, V-B:GLU:543:CB:9878, V-B:ALA:541:CA:9862, V-A:GLU:543:CD:4906, V-A:HIS:456:CE1:4068, V-B:GLU:543:CG:9879, V-A:TRP:381:CZ2:3368, V-A:ILE:369:CB:3234, V-A:SER:385:C:3403, V-A:SER:385:CA:3405, V-A:HIS:456:CG:4064, V-B:HIS:456:CD2:9040, V-A:HIS:456:CD2:4066, V-B:HIS:456:CE1:9042, V-A:GLY:544:C:4910, V-A:GLU:543:CG:4905, V-A:GLY:544:CA:4912, V-A:GLU:543:C:4900, V-A:TRP:381:CZ3:3369, V-A:PRO:482:CG:4325, V-A:PRO:482:CB:4324, V-A:ILE:369:CG1:3236, V-A:GLU:543:CB:4904, V-A:SER:385:CB:3407, V-B:VAL:344:CG1:7973, V-A:PRO:482:CD:4326, V-A:LEU:373:CD2:3279, V-A:VAL:384:C:3395, V-B:VAL:344:CG2:7974, V-B:VAL:344:CB:7972"]

$$$$
2aa_Ghoteimi_2023
     RDKit          3D

 48 53  0  0  0  0  0  0  0  0999 V2000
  132.8890  131.1750   56.5230 C   0  0  0  0  0  0  0  0  0  0  0  0
  134.0190  131.7870   57.3580 C   0  0  0  0  0  0  0  0  0  0  0  0
  134.1730  131.0410   58.5590 O   0  0  0  0  0  0  0  0  0  0  0  0
  133.8640  131.5810   59.7660 C   0  0  0  0  0  0  0  0  0  0  0  0
  134.6720  132.2080   60.4590 O   0  0  0  0  0  0  0  0  0  0  0  0
  132.4350  131.3540   60.1690 C   0  0  0  0  0  0  0  0  0  0  0  0
  131.4490  131.0010   59.2350 C   0  0  0  0  0  0  0  0  0  0  0  0
  130.1340  130.7930   59.6390 C   0  0  0  0  0  0  0  0  0  0  0  0
  129.7750  130.9410   60.9800 C   0  0  0  0  0  0  0  0  0  0  0  0
  128.4190  130.7040   61.2790 N   0  0  0  0  0  0  0  0  0  0  0  0
  127.6380  131.2430   62.2400 C   0  0  0  0  0  0  0  0  0  0  0  0
  127.9980  132.1030   63.0460 O   0  0  0  0  0  0  0  0  0  0  0  0
  126.1970  130.7160   62.2620 C   0  0  0  0  0  0  0  0  0  0  0  0
  126.0290  129.8180   63.3640 O   0  0  0  0  0  0  0  0  0  0  0  0
  127.0640  128.9690   63.7360 C   0  0  0  0  0  0  0  0  0  0  0  0
  127.3270  128.8230   65.0650 N   0  0  0  0  0  0  0  0  0  0  0  0
  128.3280  127.9990   65.4620 C   0  0  0  0  0  0  0  0  0  0  0  0
  128.5620  127.8920   66.9360 C   0  0  0  0  0  0  0  0  0  0  0  0
  127.4860  127.8510   67.8280 C   0  0  0  0  0  0  0  0  0  0  0  0
  127.6980  127.7450   69.2010 C   0  0  0  0  0  0  0  0  0  0  0  0
  128.9950  127.6620   69.7310 C   0  0  0  0  0  0  0  0  0  0  0  0
  129.2260  127.5680   71.1080 N   0  0  0  0  0  0  0  0  0  0  0  0
  128.1090  127.4770   72.0710 C   0  0  0  0  0  0  0  0  0  0  0  0
  128.5260  127.7380   73.5340 C   0  0  0  0  0  0  0  0  0  0  0  0
  129.5840  126.8670   73.9000 O   0  0  0  0  0  0  0  0  0  0  0  0
  130.7270  127.0650   73.0810 C   0  0  0  0  0  0  0  0  0  0  0  0
  130.3750  126.7840   71.6050 C   0  0  0  0  0  0  0  0  0  0  0  0
  130.0700  127.7260   68.8330 C   0  0  0  0  0  0  0  0  0  0  0  0
  129.8580  127.8350   67.4610 C   0  0  0  0  0  0  0  0  0  0  0  0
  129.1080  127.3080   64.5290 C   0  0  0  0  0  0  0  0  0  0  0  0
  128.8660  127.4490   63.1570 C   0  0  0  0  0  0  0  0  0  0  0  0
  129.7480  126.7040   62.2080 C   0  0  0  0  0  0  0  0  0  0  0  0
  129.9510  125.3310   62.3630 C   0  0  0  0  0  0  0  0  0  0  0  0
  130.7880  124.6350   61.4950 C   0  0  0  0  0  0  0  0  0  0  0  0
  131.4580  125.2970   60.4540 C   0  0  0  0  0  0  0  0  0  0  0  0
  132.3000  124.6180   59.5680 N   0  0  0  0  0  0  0  0  0  0  0  0
  132.4720  125.0680   58.1740 C   0  0  0  0  0  0  0  0  0  0  0  0
  133.6850  124.4280   57.4660 C   0  0  0  0  0  0  0  0  0  0  0  0
  133.5940  123.0130   57.5330 O   0  0  0  0  0  0  0  0  0  0  0  0
  133.5750  122.5530   58.8760 C   0  0  0  0  0  0  0  0  0  0  0  0
  132.3590  123.1430   59.6200 C   0  0  0  0  0  0  0  0  0  0  0  0
  131.2430  126.6730   60.3020 C   0  0  0  0  0  0  0  0  0  0  0  0
  130.4060  127.3690   61.1690 C   0  0  0  0  0  0  0  0  0  0  0  0
  127.8050  128.2920   62.7510 C   0  0  0  0  0  0  0  0  0  0  0  0
  127.4480  128.4610   61.3410 C   0  0  0  0  0  0  0  0  0  0  0  0
  127.1660  128.5930   60.2260 N   0  0  0  0  0  0  0  0  0  0  0  0
  130.7550  131.2870   61.9210 C   0  0  0  0  0  0  0  0  0  0  0  0
  132.0710  131.4910   61.5140 C   0  0  0  0  0  0  0  0  0  0  0  0
  1  2  1  0
  2  3  1  0
  3  4  1  0
  4  5  2  0
  4  6  1  0
  6  7  2  0
  7  8  1  0
  8  9  2  0
  9 10  1  0
 10 11  1  0
 11 12  2  0
 11 13  1  0
 13 14  1  0
 14 15  1  0
 15 16  2  0
 16 17  1  0
 17 18  1  0
 18 19  2  0
 19 20  1  0
 20 21  2  0
 21 22  1  0
 22 23  1  0
 23 24  1  0
 24 25  1  0
 25 26  1  0
 26 27  1  0
 21 28  1  0
 28 29  2  0
 17 30  2  0
 30 31  1  0
 31 32  1  0
 32 33  2  0
 33 34  1  0
 34 35  2  0
 35 36  1  0
 36 37  1  0
 37 38  1  0
 38 39  1  0
 39 40  1  0
 40 41  1  0
 35 42  1  0
 42 43  2  0
 31 44  2  0
 44 45  1  0
 45 46  3  0
  9 47  1  0
 47 48  2  0
 48  6  1  0
 44 15  1  0
 29 18  1  0
 43 32  1  0
 27 22  1  0
 41 36  1  0
M  END
>  <Binding energies>  (9) 
[3.23]

>  <Ligand effiencies>  (9) 
[0.06591836734693877]

>  <Interactions>  (9) 
["V-A:ASP:366:CG:3211, V-B:TYR:539:CZ:9849, V-A:ASP:366:CA:3208, V-B:TYR:539:CE2:9848, V-A:ASP:366:CB:3210, V-A:ILE:369:CD1:3237, V-A:ILE:369:CG2:3235, V-B:GLU:543:CD:9880, V-A:GLU:543:CD:4906, V-A:HIS:456:CE1:4068, V-B:GLU:543:CG:9879, V-A:ASP:366:C:3206, V-A:ILE:369:CB:3234, V-A:PRO:540:C:4879, V-A:PRO:540:CB:4883, V-A:PRO:540:CA:4881, V-A:ASN:362:CB:3174, V-A:ASN:362:C:3170, V-A:ALA:541:C:4886, H-B:ARG:545:NH2:9900, H-B:TYR:539:OH:9850, V-A:HIS:456:CG:4064, V-A:LYS:547:CE:4948, V-B:HIS:456:CD2:9040, V-A:HIS:456:CD2:4066, H-A:LYS:547:NZ:4949, V-B:HIS:456:CE1:9042, V-B:LYS:547:CE:9922, H-B:LYS:547:NZ:9923, V-B:GLY:544:C:9884, V-A:GLY:544:C:4910, V-A:GLU:543:CG:4905, V-B:ARG:545:CG:9894, V-A:GLU:543:C:4900, V-A:GLU:543:CB:4904, V-B:GLY:544:CA:9886, V-A:PRO:540:CD:4885, V-A:ALA:541:CB:4890, V-A:TYR:531:CZ:4792, V-A:ALA:541:CA:4888, V-A:PRO:540:CG:4884, V-A:LEU:363:CA:3183, V-A:TYR:531:CE2:4791, V-A:LEU:363:CB:3185, V-A:LEU:363:CD1:3187, H-A:LEU:363:N:3184"]

$$$$
2b_Ghoteimi_2023
     RDKit          3D

 42 47  0  0  0  0  0  0  0  0999 V2000
  127.2760  129.7610   59.6620 N   0  0  0  0  0  0  0  0  0  0  0  0
  127.3980  129.4730   60.7770 C   0  0  0  0  0  0  0  0  0  0  0  0
  127.5590  129.1050   62.1860 C   0  0  0  0  0  0  0  0  0  0  0  0
  128.5590  128.1810   62.5800 C   0  0  0  0  0  0  0  0  0  0  0  0
  129.5040  127.5240   61.6280 C   0  0  0  0  0  0  0  0  0  0  0  0
  130.0390  128.2440   60.5590 C   0  0  0  0  0  0  0  0  0  0  0  0
  130.9200  127.6370   59.6680 C   0  0  0  0  0  0  0  0  0  0  0  0
  131.2750  126.2870   59.8130 C   0  0  0  0  0  0  0  0  0  0  0  0
  132.1660  125.6590   58.9410 N   0  0  0  0  0  0  0  0  0  0  0  0
  132.8930  124.4570   59.3960 C   0  0  0  0  0  0  0  0  0  0  0  0
  134.0980  124.0960   58.5030 C   0  0  0  0  0  0  0  0  0  0  0  0
  133.6830  123.9610   57.1520 O   0  0  0  0  0  0  0  0  0  0  0  0
  133.1130  125.1620   56.6560 C   0  0  0  0  0  0  0  0  0  0  0  0
  131.8770  125.5430   57.4970 C   0  0  0  0  0  0  0  0  0  0  0  0
  130.7300  125.5720   60.8880 C   0  0  0  0  0  0  0  0  0  0  0  0
  129.8520  126.1800   61.7810 C   0  0  0  0  0  0  0  0  0  0  0  0
  128.6770  127.8640   63.9390 C   0  0  0  0  0  0  0  0  0  0  0  0
  127.8460  128.4750   64.8820 C   0  0  0  0  0  0  0  0  0  0  0  0
  127.9520  128.1950   66.3480 C   0  0  0  0  0  0  0  0  0  0  0  0
  126.8430  127.7370   67.0690 C   0  0  0  0  0  0  0  0  0  0  0  0
  126.9390  127.4580   68.4300 C   0  0  0  0  0  0  0  0  0  0  0  0
  128.1450  127.6400   69.1250 C   0  0  0  0  0  0  0  0  0  0  0  0
  128.2640  127.3360   70.4860 N   0  0  0  0  0  0  0  0  0  0  0  0
  129.3790  126.4890   70.9560 C   0  0  0  0  0  0  0  0  0  0  0  0
  129.1690  125.9230   72.3770 C   0  0  0  0  0  0  0  0  0  0  0  0
  128.9140  126.9800   73.2880 O   0  0  0  0  0  0  0  0  0  0  0  0
  127.7450  127.7010   72.9340 C   0  0  0  0  0  0  0  0  0  0  0  0
  127.9090  128.3180   71.5290 C   0  0  0  0  0  0  0  0  0  0  0  0
  129.2550  128.0920   68.3970 C   0  0  0  0  0  0  0  0  0  0  0  0
  129.1590  128.3680   67.0360 C   0  0  0  0  0  0  0  0  0  0  0  0
  126.8900  129.3610   64.5040 N   0  0  0  0  0  0  0  0  0  0  0  0
  126.7340  129.6580   63.1920 C   0  0  0  0  0  0  0  0  0  0  0  0
  125.4340  130.8310   62.8760 S   0  0  0  0  0  0  0  0  0  0  0  0
  126.2160  132.4220   62.4720 C   0  0  0  0  0  0  0  0  0  0  0  0
  127.3790  132.2580   61.4920 C   0  0  0  0  0  0  0  0  0  0  0  0
  127.1780  132.4060   60.2850 O   0  0  0  0  0  0  0  0  0  0  0  0
  128.5700  131.9480   62.0490 N   0  0  0  0  0  0  0  0  0  0  0  0
  129.7800  131.7550   61.3980 C   0  0  0  0  0  0  0  0  0  0  0  0
  129.8810  131.5790   60.0180 C   0  0  0  0  0  0  0  0  0  0  0  0
  131.2250  131.4220   59.7750 C   0  0  0  0  0  0  0  0  0  0  0  0
  131.8990  131.5000   60.9470 O   0  0  0  0  0  0  0  0  0  0  0  0
  130.9720  131.7130   61.9690 N   0  0  0  0  0  0  0  0  0  0  0  0
  1  2  3  0
  2  3  1  0
  3  4  2  0
  4  5  1  0
  5  6  2  0
  6  7  1  0
  7  8  2  0
  8  9  1  0
  9 10  1  0
 10 11  1  0
 11 12  1  0
 12 13  1  0
 13 14  1  0
  8 15  1  0
 15 16  2  0
  4 17  1  0
 17 18  2  0
 18 19  1  0
 19 20  2  0
 20 21  1  0
 21 22  2  0
 22 23  1  0
 23 24  1  0
 24 25  1  0
 25 26  1  0
 26 27  1  0
 27 28  1  0
 22 29  1  0
 29 30  2  0
 18 31  1  0
 31 32  2  0
 32 33  1  0
 33 34  1  0
 34 35  1  0
 35 36  2  0
 35 37  1  0
 37 38  1  0
 38 39  1  0
 39 40  2  0
 40 41  1  0
 41 42  1  0
 32  3  1  0
 42 38  2  0
 16  5  1  0
 30 19  1  0
 14  9  1  0
 28 23  1  0
M  END
>  <Binding energies>  (10) 
[-3.58]

>  <Ligand effiencies>  (10) 
[-0.08325581395348837]

>  <Interactions>  (10) 
["V-A:ASP:366:CG:3211, V-B:TYR:539:CZ:9849, V-A:ASP:366:CA:3208, V-A:ASP:366:CB:3210, V-A:ILE:369:CD1:3237, V-A:ILE:369:CG2:3235, V-B:GLU:543:CD:9880, V-A:GLU:543:CD:4906, V-A:HIS:456:CE1:4068, V-B:GLU:543:CG:9879, V-A:ASP:366:C:3206, V-A:ILE:369:CB:3234, V-A:PRO:540:C:4879, V-A:PRO:540:CB:4883, V-A:PRO:540:CA:4881, H-A:GLU:543:OE1:4907, H-A:ALA:541:N:4889, H-B:TYR:539:OH:9850, V-B:HIS:456:CD2:9040, V-A:HIS:456:CD2:4066, H-A:LYS:547:NZ:4949, V-B:HIS:456:CE1:9042, V-B:LYS:547:CE:9922, H-B:LYS:547:NZ:9923, V-B:HIS:456:CG:9038, V-B:GLY:544:C:9884, V-A:GLU:543:CG:4905, V-B:ARG:545:CG:9894, V-A:GLU:543:C:4900, V-B:GLU:543:C:9874, V-A:GLU:543:CB:4904, V-B:GLY:544:CA:9886, V-A:ALA:541:CB:4890, V-B:ARG:545:CA:9891, V-A:TYR:531:CE1:4790, V-A:ALA:541:CA:4888, V-B:LEU:475:CD2:9231"]

$$$$
2c_Ghoteimi_2023
     RDKit          3D

 42 47  0  0  0  0  0  0  0  0999 V2000
  130.8580  123.9070   59.8450 N   0  0  0  0  0  0  0  0  0  0  0  0
  130.7410  124.3560   60.9050 C   0  0  0  0  0  0  0  0  0  0  0  0
  130.5880  124.9290   62.2460 C   0  0  0  0  0  0  0  0  0  0  0  0
  129.8850  126.1450   62.4350 C   0  0  0  0  0  0  0  0  0  0  0  0
  129.2610  126.9260   61.3250 C   0  0  0  0  0  0  0  0  0  0  0  0
  127.8850  127.1610   61.3200 C   0  0  0  0  0  0  0  0  0  0  0  0
  127.2960  127.8920   60.2920 C   0  0  0  0  0  0  0  0  0  0  0  0
  128.0650  128.3970   59.2320 C   0  0  0  0  0  0  0  0  0  0  0  0
  127.4990  129.1500   58.2010 N   0  0  0  0  0  0  0  0  0  0  0  0
  126.0330  129.1480   58.0270 C   0  0  0  0  0  0  0  0  0  0  0  0
  125.5820  129.6870   56.6520 C   0  0  0  0  0  0  0  0  0  0  0  0
  126.1150  130.9850   56.4390 O   0  0  0  0  0  0  0  0  0  0  0  0
  127.5340  130.9790   56.4620 C   0  0  0  0  0  0  0  0  0  0  0  0
  128.0370  130.4740   57.8310 C   0  0  0  0  0  0  0  0  0  0  0  0
  129.4460  128.1530   59.2450 C   0  0  0  0  0  0  0  0  0  0  0  0
  130.0340  127.4230   60.2740 C   0  0  0  0  0  0  0  0  0  0  0  0
  129.7640  126.6490   63.7360 C   0  0  0  0  0  0  0  0  0  0  0  0
  130.3040  125.9500   64.8200 C   0  0  0  0  0  0  0  0  0  0  0  0
  130.1870  126.4370   66.2280 C   0  0  0  0  0  0  0  0  0  0  0  0
  128.9600  126.3980   66.8980 C   0  0  0  0  0  0  0  0  0  0  0  0
  128.8460  126.8450   68.2130 C   0  0  0  0  0  0  0  0  0  0  0  0
  129.9540  127.3600   68.9020 C   0  0  0  0  0  0  0  0  0  0  0  0
  129.8620  127.7900   70.2300 N   0  0  0  0  0  0  0  0  0  0  0  0
  128.6340  128.4620   70.7030 C   0  0  0  0  0  0  0  0  0  0  0  0
  128.8140  129.2120   72.0390 C   0  0  0  0  0  0  0  0  0  0  0  0
  129.3170  128.3290   73.0280 O   0  0  0  0  0  0  0  0  0  0  0  0
  130.5800  127.8000   72.6570 C   0  0  0  0  0  0  0  0  0  0  0  0
  130.4570  127.0110   71.3360 C   0  0  0  0  0  0  0  0  0  0  0  0
  131.1850  127.3860   68.2310 C   0  0  0  0  0  0  0  0  0  0  0  0
  131.2990  126.9370   66.9180 C   0  0  0  0  0  0  0  0  0  0  0  0
  130.9750  124.7840   64.6360 N   0  0  0  0  0  0  0  0  0  0  0  0
  131.1330  124.2920   63.3840 C   0  0  0  0  0  0  0  0  0  0  0  0
  132.0450  122.7670   63.3290 S   0  0  0  0  0  0  0  0  0  0  0  0
  133.5810  123.0830   62.4090 C   0  0  0  0  0  0  0  0  0  0  0  0
  133.3430  123.1500   60.8990 C   0  0  0  0  0  0  0  0  0  0  0  0
  133.0140  122.1290   60.2940 O   0  0  0  0  0  0  0  0  0  0  0  0
  133.5230  124.3630   60.3350 N   0  0  0  0  0  0  0  0  0  0  0  0
  133.3550  124.6880   58.9970 C   0  0  0  0  0  0  0  0  0  0  0  0
  134.0150  124.2170   57.9620 N   0  0  0  0  0  0  0  0  0  0  0  0
  133.5870  124.7450   56.8320 C   0  0  0  0  0  0  0  0  0  0  0  0
  132.5530  125.6710   56.9390 C   0  0  0  0  0  0  0  0  0  0  0  0
  132.1270  125.8520   58.6140 S   0  0  0  0  0  0  0  0  0  0  0  0
  1  2  3  0
  2  3  1  0
  3  4  2  0
  4  5  1  0
  5  6  2  0
  6  7  1  0
  7  8  2  0
  8  9  1  0
  9 10  1  0
 10 11  1  0
 11 12  1  0
 12 13  1  0
 13 14  1  0
  8 15  1  0
 15 16  2  0
  4 17  1  0
 17 18  2  0
 18 19  1  0
 19 20  2  0
 20 21  1  0
 21 22  2  0
 22 23  1  0
 23 24  1  0
 24 25  1  0
 25 26  1  0
 26 27  1  0
 27 28  1  0
 22 29  1  0
 29 30  2  0
 18 31  1  0
 31 32  2  0
 32 33  1  0
 33 34  1  0
 34 35  1  0
 35 36  2  0
 35 37  1  0
 37 38  1  0
 38 39  2  0
 39 40  1  0
 40 41  2  0
 41 42  1  0
 32  3  1  0
 42 38  1  0
 16  5  1  0
 30 19  1  0
 14  9  1  0
 28 23  1  0
M  END
>  <Binding energies>  (11) 
[-3.33]

>  <Ligand effiencies>  (11) 
[-0.07744186046511628]

>  <Interactions>  (11) 
["H-A:TYR:484:OH:4346, V-A:ASP:366:CG:3211, V-B:TYR:539:CZ:9849, V-A:ASP:366:CA:3208, V-B:TYR:539:CE2:9848, V-A:ASP:366:CB:3210, V-A:GLY:454:CA:4047, V-A:ILE:369:CD1:3237, H-A:ASP:366:OD1:3212, V-A:GLY:453:C:4040, V-B:GLU:543:CD:9880, V-B:GLU:543:CB:9878, V-A:ARG:545:CD:4921, V-A:GLU:543:CD:4906, V-A:HIS:456:CE1:4068, V-A:ARG:545:CG:4920, V-B:GLU:543:CG:9879, V-A:ASP:366:C:3206, V-A:TYR:539:CE2:4874, V-B:ASP:366:CG:8185, H-B:TYR:539:OH:9850, V-A:LYS:547:CE:4948, V-B:HIS:456:CD2:9040, V-A:HIS:456:CD2:4066, H-A:LYS:547:NZ:4949, V-B:HIS:456:CE1:9042, V-A:GLY:544:C:4910, V-A:GLU:543:CG:4905, V-A:GLY:544:CA:4912, V-A:GLU:543:C:4900, V-B:GLU:543:C:9874, V-A:TYR:539:CZ:4875, V-A:ARG:545:CA:4917, H-A:TYR:539:OH:4876, V-A:TYR:539:CE1:4873"]

$$$$
2j_Grossjean_2025
     RDKit          3D

 23 24  0  0  0  0  0  0  0  0999 V2000
  128.4730  122.4500   60.4280 C   0  0  0  0  0  0  0  0  0  0  0  0
  129.8010  122.9700   60.9460 C   0  0  0  0  0  0  0  0  0  0  0  0
  131.0030  122.3410   60.6310 C   0  0  0  0  0  0  0  0  0  0  0  0
  132.2060  122.8610   61.1310 C   0  0  0  0  0  0  0  0  0  0  0  0
  133.5270  122.1530   60.7730 C   0  0  0  0  0  0  0  0  0  0  0  0
  134.2570  122.9300   59.9720 F   0  0  0  0  0  0  0  0  0  0  0  0
  134.2230  121.8980   61.8810 F   0  0  0  0  0  0  0  0  0  0  0  0
  133.3350  120.9930   60.1420 F   0  0  0  0  0  0  0  0  0  0  0  0
  132.1550  124.0190   61.9470 C   0  0  0  0  0  0  0  0  0  0  0  0
  133.3810  124.6060   62.4970 C   0  0  0  0  0  0  0  0  0  0  0  0
  134.3490  125.0700   62.9300 N   0  0  0  0  0  0  0  0  0  0  0  0
  130.8900  124.5940   62.2170 C   0  0  0  0  0  0  0  0  0  0  0  0
  130.7060  126.0540   63.2300 S   0  0  0  0  0  0  0  0  0  0  0  0
  131.6780  125.8200   64.7570 C   0  0  0  0  0  0  0  0  0  0  0  0
  130.8450  125.7230   66.0440 C   0  0  0  0  0  0  0  0  0  0  0  0
  130.4690  124.6290   66.4700 O   0  0  0  0  0  0  0  0  0  0  0  0
  130.5680  126.9100   66.6290 N   0  0  0  0  0  0  0  0  0  0  0  0
  129.8400  127.1100   67.7950 C   0  0  0  0  0  0  0  0  0  0  0  0
  130.2880  127.1450   69.0310 N   0  0  0  0  0  0  0  0  0  0  0  0
  129.3150  127.3590   69.8950 C   0  0  0  0  0  0  0  0  0  0  0  0
  128.0390  127.5040   69.3600 C   0  0  0  0  0  0  0  0  0  0  0  0
  128.1300  127.3500   67.6310 S   0  0  0  0  0  0  0  0  0  0  0  0
  129.7370  124.0760   61.7210 N   0  0  0  0  0  0  0  0  0  0  0  0
  1  2  1  0
  2  3  2  0
  3  4  1  0
  4  5  1  0
  5  6  1  0
  5  7  1  0
  5  8  1  0
  4  9  2  0
  9 10  1  0
 10 11  3  0
  9 12  1  0
 12 13  1  0
 13 14  1  0
 14 15  1  0
 15 16  2  0
 15 17  1  0
 17 18  1  0
 18 19  2  0
 19 20  1  0
 20 21  2  0
 21 22  1  0
 12 23  2  0
 23  2  1  0
 22 18  1  0
M  END
>  <Binding energies>  (12) 
[-5.99]

>  <Ligand effiencies>  (12) 
[-0.24958333333333335]

>  <Interactions>  (12) 
["H-A:TYR:484:OH:4346, H-A:GLY:454:N:4048, V-B:TYR:539:CE2:9848, V-A:GLY:454:CA:4047, V-A:ILE:369:CD1:3237, V-B:ALA:541:CB:9864, V-A:ILE:369:CG2:3235, V-A:LEU:475:CD2:4257, V-B:PRO:540:C:9853, H-A:ARG:545:NH1:4925, V-A:TRP:381:CH2:3370, V-B:PRO:540:CA:9855, V-A:GLY:453:C:4040, V-B:TYR:539:C:9839, V-A:ARG:545:CZ:4924, V-B:GLU:543:CD:9880, H-A:ARG:545:NH2:4926, V-B:GLU:543:CB:9878, V-A:GLU:543:CD:4906, V-A:HIS:456:CE1:4068, V-A:ARG:545:CG:4920, V-B:GLU:543:CG:9879, V-A:ILE:369:CB:3234, H-A:GLU:543:OE1:4907, H-A:GLU:543:OE2:4908, H-A:ARG:545:NE:4922, V-B:HIS:456:CE1:9042, V-B:GLY:544:C:9884, V-A:GLU:543:CG:4905, V-B:GLU:543:C:9874, V-A:ILE:369:CG1:3236"]

$$$$
3ab_Grossjean_2025
     RDKit          3D

 33 35  0  0  0  0  0  0  0  0999 V2000
  129.2510  125.5790   72.2860 C   0  0  0  0  0  0  0  0  0  0  0  0
  128.9740  126.8520   72.8540 O   0  0  0  0  0  0  0  0  0  0  0  0
  128.8940  127.9620   72.0770 C   0  0  0  0  0  0  0  0  0  0  0  0
  128.6640  129.0890   72.5230 O   0  0  0  0  0  0  0  0  0  0  0  0
  129.1180  127.6820   70.6190 C   0  0  0  0  0  0  0  0  0  0  0  0
  128.0510  127.5090   69.7230 C   0  0  0  0  0  0  0  0  0  0  0  0
  128.2880  127.2520   68.3760 C   0  0  0  0  0  0  0  0  0  0  0  0
  129.6050  127.1610   67.8980 C   0  0  0  0  0  0  0  0  0  0  0  0
  129.9610  126.9110   66.5590 N   0  0  0  0  0  0  0  0  0  0  0  0
  130.3210  125.7580   65.9590 C   0  0  0  0  0  0  0  0  0  0  0  0
  130.4190  124.6630   66.5130 O   0  0  0  0  0  0  0  0  0  0  0  0
  130.6270  125.8640   64.4630 C   0  0  0  0  0  0  0  0  0  0  0  0
  131.7550  124.5530   63.9000 S   0  0  0  0  0  0  0  0  0  0  0  0
  131.4620  124.3070   62.1620 C   0  0  0  0  0  0  0  0  0  0  0  0
  130.1490  124.2530   61.8360 N   0  0  0  0  0  0  0  0  0  0  0  0
  129.7800  124.0740   60.5410 C   0  0  0  0  0  0  0  0  0  0  0  0
  128.3070  124.0280   60.2640 C   0  0  0  0  0  0  0  0  0  0  0  0
  127.3760  124.0840   61.3140 C   0  0  0  0  0  0  0  0  0  0  0  0
  126.0070  124.0430   61.0620 C   0  0  0  0  0  0  0  0  0  0  0  0
  125.5480  123.9440   59.7530 C   0  0  0  0  0  0  0  0  0  0  0  0
  126.4490  123.8830   58.6940 C   0  0  0  0  0  0  0  0  0  0  0  0
  127.8170  123.9240   58.9510 C   0  0  0  0  0  0  0  0  0  0  0  0
  130.7430  123.9230   59.5370 C   0  0  0  0  0  0  0  0  0  0  0  0
  132.1090  123.9560   59.8520 C   0  0  0  0  0  0  0  0  0  0  0  0
  133.1370  123.7790   58.7170 C   0  0  0  0  0  0  0  0  0  0  0  0
  134.2300  124.5260   58.8890 F   0  0  0  0  0  0  0  0  0  0  0  0
  133.5300  122.5070   58.6460 F   0  0  0  0  0  0  0  0  0  0  0  0
  132.5910  124.1280   57.5510 F   0  0  0  0  0  0  0  0  0  0  0  0
  132.4880  124.1450   61.2040 C   0  0  0  0  0  0  0  0  0  0  0  0
  133.9000  124.1310   61.5950 C   0  0  0  0  0  0  0  0  0  0  0  0
  135.0160  124.1190   61.9010 N   0  0  0  0  0  0  0  0  0  0  0  0
  130.6680  127.3380   68.7850 C   0  0  0  0  0  0  0  0  0  0  0  0
  130.4280  127.5940   70.1320 C   0  0  0  0  0  0  0  0  0  0  0  0
  1  2  1  0
  2  3  1  0
  3  4  2  0
  3  5  1  0
  5  6  2  0
  6  7  1  0
  7  8  2  0
  8  9  1  0
  9 10  1  0
 10 11  2  0
 10 12  1  0
 12 13  1  0
 13 14  1  0
 14 15  2  0
 15 16  1  0
 16 17  1  0
 17 18  2  0
 18 19  1  0
 19 20  2  0
 20 21  1  0
 21 22  2  0
 16 23  2  0
 23 24  1  0
 24 25  1  0
 25 26  1  0
 25 27  1  0
 25 28  1  0
 24 29  2  0
 29 30  1  0
 30 31  3  0
  8 32  1  0
 32 33  2  0
 33  5  1  0
 29 14  1  0
 22 17  1  0
M  END
>  <Binding energies>  (13) 
[-7.81]

>  <Ligand effiencies>  (13) 
[-0.22970588235294118]

>  <Interactions>  (13) 
["H-A:TYR:484:OH:4346, V-A:ASP:366:CG:3211, V-B:TYR:539:CZ:9849, H-A:GLY:454:N:4048, V-A:ASP:366:CA:3208, V-B:TYR:539:CE2:9848, V-B:TYR:539:CD2:9846, V-A:ASP:366:CB:3210, V-A:ILE:369:CD1:3237, V-A:ILE:369:CG2:3235, V-B:PRO:540:CA:9855, V-B:PRO:540:N:9856, V-B:GLU:543:CD:9880, V-B:GLU:543:CB:9878, V-A:GLU:543:CD:4906, V-A:HIS:456:CE1:4068, V-A:ARG:545:CG:4920, V-B:GLU:543:CG:9879, V-A:ASP:366:C:3206, V-A:ILE:369:CB:3234, H-A:GLU:543:OE1:4907, H-A:GLU:543:OE2:4908, H-B:GLU:543:OE2:9882, V-A:HIS:456:CD2:4066, H-A:LYS:547:NZ:4949, V-B:HIS:456:CE1:9042, V-B:LYS:547:CE:9922, H-B:LYS:547:NZ:9923, V-B:GLY:544:C:9884, V-A:GLY:544:C:4910, V-A:GLU:543:CG:4905, V-A:GLY:544:CA:4912, V-A:GLU:543:C:4900, V-B:GLU:543:C:9874, V-B:PRO:540:CB:9857, V-B:GLY:544:CA:9886"]

$$$$
3ac_Grossjean_2025
     RDKit          3D

 31 33  0  0  0  0  0  0  0  0999 V2000
  126.8820  128.1410   74.7910 C   0  0  0  0  0  0  0  0  0  0  0  0
  128.2130  127.7250   74.4990 O   0  0  0  0  0  0  0  0  0  0  0  0
  128.6200  127.6380   73.1820 C   0  0  0  0  0  0  0  0  0  0  0  0
  127.7190  128.0970   72.2210 C   0  0  0  0  0  0  0  0  0  0  0  0
  128.0430  128.0540   70.8680 C   0  0  0  0  0  0  0  0  0  0  0  0
  129.2730  127.5390   70.4550 C   0  0  0  0  0  0  0  0  0  0  0  0
  129.5190  127.5550   69.0690 N   0  0  0  0  0  0  0  0  0  0  0  0
  128.6760  127.2730   68.0520 C   0  0  0  0  0  0  0  0  0  0  0  0
  127.4860  126.9830   68.1740 O   0  0  0  0  0  0  0  0  0  0  0  0
  129.2890  127.3350   66.6530 C   0  0  0  0  0  0  0  0  0  0  0  0
  130.8440  126.3980   66.5400 S   0  0  0  0  0  0  0  0  0  0  0  0
  131.1350  125.9760   64.8330 C   0  0  0  0  0  0  0  0  0  0  0  0
  130.0690  126.2240   64.0330 N   0  0  0  0  0  0  0  0  0  0  0  0
  130.1450  125.9580   62.7040 C   0  0  0  0  0  0  0  0  0  0  0  0
  128.9200  126.2550   61.8910 C   0  0  0  0  0  0  0  0  0  0  0  0
  128.3370  125.2650   61.0820 C   0  0  0  0  0  0  0  0  0  0  0  0
  127.1960  125.5330   60.3300 C   0  0  0  0  0  0  0  0  0  0  0  0
  126.6220  126.7990   60.3740 C   0  0  0  0  0  0  0  0  0  0  0  0
  127.1820  127.7990   61.1620 C   0  0  0  0  0  0  0  0  0  0  0  0
  128.3230  127.5270   61.9130 C   0  0  0  0  0  0  0  0  0  0  0  0
  131.3050  125.4120   62.1470 C   0  0  0  0  0  0  0  0  0  0  0  0
  132.4140  125.1250   62.9560 C   0  0  0  0  0  0  0  0  0  0  0  0
  133.6710  124.5180   62.3020 C   0  0  0  0  0  0  0  0  0  0  0  0
  133.9150  123.2710   62.7070 F   0  0  0  0  0  0  0  0  0  0  0  0
  133.5300  124.4840   60.9750 F   0  0  0  0  0  0  0  0  0  0  0  0
  134.7400  125.2570   62.6030 F   0  0  0  0  0  0  0  0  0  0  0  0
  132.3300  125.3980   64.3440 C   0  0  0  0  0  0  0  0  0  0  0  0
  133.4320  125.0440   65.2400 C   0  0  0  0  0  0  0  0  0  0  0  0
  134.3040  124.7630   65.9480 N   0  0  0  0  0  0  0  0  0  0  0  0
  130.1880  127.0810   71.4160 C   0  0  0  0  0  0  0  0  0  0  0  0
  129.8610  127.1270   72.7690 C   0  0  0  0  0  0  0  0  0  0  0  0
  1  2  1  0
  2  3  1  0
  3  4  2  0
  4  5  1  0
  5  6  2  0
  6  7  1  0
  7  8  1  0
  8  9  2  0
  8 10  1  0
 10 11  1  0
 11 12  1  0
 12 13  2  0
 13 14  1  0
 14 15  1  0
 15 16  2  0
 16 17  1  0
 17 18  2  0
 18 19  1  0
 19 20  2  0
 14 21  2  0
 21 22  1  0
 22 23  1  0
 23 24  1  0
 23 25  1  0
 23 26  1  0
 22 27  2  0
 27 28  1  0
 28 29  3  0
  6 30  1  0
 30 31  2  0
 31  3  1  0
 27 12  1  0
 20 15  1  0
M  END
>  <Binding energies>  (14) 
[-7.11]

>  <Ligand effiencies>  (14) 
[-0.2221875]

>  <Interactions>  (14) 
["H-A:TYR:484:OH:4346, V-A:ASP:366:CG:3211, H-A:GLY:454:N:4048, V-A:GLY:454:CA:4047, V-A:ILE:369:CD1:3237, V-A:GLY:453:C:4040, V-A:ARG:545:CZ:4924, V-B:GLU:543:CD:9880, V-A:ARG:545:CD:4921, V-A:GLY:453:CA:4042, V-A:GLU:543:CD:4906, V-A:HIS:456:CE1:4068, V-A:ARG:545:CG:4920, V-B:GLU:543:CG:9879, H-A:ARG:545:NE:4922, V-B:ASP:366:CG:8185, V-A:LYS:547:CE:4948, V-B:HIS:456:CD2:9040, V-A:HIS:456:CD2:4066, H-A:LYS:547:NZ:4949, V-B:HIS:456:CE1:9042, V-B:LYS:547:CE:9922, H-B:LYS:547:NZ:9923, V-B:HIS:456:CG:9038, V-B:GLY:544:C:9884, V-A:GLY:544:C:4910, V-A:GLU:543:CG:4905, V-A:GLU:543:C:4900, H-A:HIS:456:ND1:4065, H-A:GLU:543:O:4901, V-B:LYS:547:CD:9921, H-A:ILE:455:N:4053"]

$$$$
3af_Grossjean_2025
     RDKit          3D

 29 31  0  0  0  0  0  0  0  0999 V2000
  133.9760  124.7050   63.2770 N   0  0  0  0  0  0  0  0  0  0  0  0
  133.0340  124.5000   62.6360 C   0  0  0  0  0  0  0  0  0  0  0  0
  131.8430  124.2400   61.8230 C   0  0  0  0  0  0  0  0  0  0  0  0
  131.8710  123.2710   60.7900 C   0  0  0  0  0  0  0  0  0  0  0  0
  133.1140  122.4100   60.4900 C   0  0  0  0  0  0  0  0  0  0  0  0
  133.6910  121.9300   61.5940 F   0  0  0  0  0  0  0  0  0  0  0  0
  132.7730  121.3680   59.7300 F   0  0  0  0  0  0  0  0  0  0  0  0
  134.0290  123.1340   59.8460 F   0  0  0  0  0  0  0  0  0  0  0  0
  130.7230  123.0960   60.0030 C   0  0  0  0  0  0  0  0  0  0  0  0
  129.5800  123.8670   60.2400 C   0  0  0  0  0  0  0  0  0  0  0  0
  128.3330  123.7350   59.4180 C   0  0  0  0  0  0  0  0  0  0  0  0
  127.0800  124.0740   59.9540 C   0  0  0  0  0  0  0  0  0  0  0  0
  125.9190  123.9560   59.1950 C   0  0  0  0  0  0  0  0  0  0  0  0
  125.9950  123.4960   57.8850 C   0  0  0  0  0  0  0  0  0  0  0  0
  127.2240  123.1560   57.3280 C   0  0  0  0  0  0  0  0  0  0  0  0
  128.3830  123.2760   58.0900 C   0  0  0  0  0  0  0  0  0  0  0  0
  129.5580  124.7970   61.2280 N   0  0  0  0  0  0  0  0  0  0  0  0
  130.6480  124.9680   62.0160 C   0  0  0  0  0  0  0  0  0  0  0  0
  130.4250  126.2190   63.2650 S   0  0  0  0  0  0  0  0  0  0  0  0
  131.4940  125.8010   64.6760 C   0  0  0  0  0  0  0  0  0  0  0  0
  130.6980  125.6680   65.9730 C   0  0  0  0  0  0  0  0  0  0  0  0
  130.3850  124.5470   66.3720 O   0  0  0  0  0  0  0  0  0  0  0  0
  130.3900  126.8330   66.5850 N   0  0  0  0  0  0  0  0  0  0  0  0
  129.6700  127.0590   67.7740 C   0  0  0  0  0  0  0  0  0  0  0  0
  130.2290  127.2240   69.0540 C   0  0  0  0  0  0  0  0  0  0  0  0
  129.3930  127.4410   70.1510 C   0  0  0  0  0  0  0  0  0  0  0  0
  128.0140  127.4880   69.9410 C   0  0  0  0  0  0  0  0  0  0  0  0
  127.4500  127.3330   68.7180 N   0  0  0  0  0  0  0  0  0  0  0  0
  128.2760  127.1230   67.6620 C   0  0  0  0  0  0  0  0  0  0  0  0
  1  2  3  0
  2  3  1  0
  3  4  2  0
  4  5  1  0
  5  6  1  0
  5  7  1  0
  5  8  1  0
  4  9  1  0
  9 10  2  0
 10 11  1  0
 11 12  2  0
 12 13  1  0
 13 14  2  0
 14 15  1  0
 15 16  2  0
 10 17  1  0
 17 18  2  0
 18 19  1  0
 19 20  1  0
 20 21  1  0
 21 22  2  0
 21 23  1  0
 23 24  1  0
 24 25  2  0
 25 26  1  0
 26 27  2  0
 27 28  1  0
 28 29  2  0
 18  3  1  0
 29 24  1  0
 16 11  1  0
M  END
>  <Binding energies>  (15) 
[-7.65]

>  <Ligand effiencies>  (15) 
[-0.255]

>  <Interactions>  (15) 
["H-A:TYR:484:OH:4346, H-A:GLY:454:N:4048, V-B:TYR:539:CE2:9848, V-B:TYR:539:CD2:9846, V-A:GLY:454:CA:4047, V-A:ILE:369:CD1:3237, V-A:ILE:369:CG2:3235, V-A:LEU:475:CD2:4257, H-A:ARG:545:NH1:4925, V-B:PRO:540:CA:9855, V-B:TYR:539:C:9839, V-B:PRO:540:N:9856, V-A:ARG:545:CZ:4924, V-B:GLU:543:CD:9880, H-A:ARG:545:NH2:4926, V-B:GLU:543:CB:9878, V-A:GLU:543:CD:4906, V-A:HIS:456:CE1:4068, V-B:GLU:543:CG:9879, V-A:ILE:369:CB:3234, H-A:GLU:543:OE1:4907, H-A:GLU:543:OE2:4908, V-B:HIS:456:CE1:9042, V-B:GLY:544:C:9884, V-A:GLU:543:CG:4905, V-B:GLU:543:C:9874, V-A:ILE:369:CG1:3236, V-B:PRO:540:CB:9857, V-B:PRO:540:CD:9859"]

$$$$
3ag_Grossjean_2025
     RDKit          3D

 30 32  0  0  0  0  0  0  0  0999 V2000
  130.3060  124.5350   56.4370 N   0  0  0  0  0  0  0  0  0  0  0  0
  130.6340  124.6680   57.5390 C   0  0  0  0  0  0  0  0  0  0  0  0
  131.0530  124.8360   58.9340 C   0  0  0  0  0  0  0  0  0  0  0  0
  132.3890  124.5750   59.3250 C   0  0  0  0  0  0  0  0  0  0  0  0
  133.4840  124.1630   58.3220 C   0  0  0  0  0  0  0  0  0  0  0  0
  133.3670  122.8970   57.9180 F   0  0  0  0  0  0  0  0  0  0  0  0
  133.4210  124.9380   57.2390 F   0  0  0  0  0  0  0  0  0  0  0  0
  134.6890  124.2940   58.8780 F   0  0  0  0  0  0  0  0  0  0  0  0
  132.7270  124.6980   60.6810 C   0  0  0  0  0  0  0  0  0  0  0  0
  131.7560  125.0590   61.6220 C   0  0  0  0  0  0  0  0  0  0  0  0
  132.0610  125.2030   63.0820 C   0  0  0  0  0  0  0  0  0  0  0  0
  131.0560  125.5670   63.9920 C   0  0  0  0  0  0  0  0  0  0  0  0
  131.3320  125.7020   65.3500 C   0  0  0  0  0  0  0  0  0  0  0  0
  132.6220  125.4750   65.8180 C   0  0  0  0  0  0  0  0  0  0  0  0
  133.6370  125.1160   64.9360 C   0  0  0  0  0  0  0  0  0  0  0  0
  133.3580  124.9830   63.5800 C   0  0  0  0  0  0  0  0  0  0  0  0
  130.4790  125.3210   61.2410 N   0  0  0  0  0  0  0  0  0  0  0  0
  130.1350  125.2280   59.9340 C   0  0  0  0  0  0  0  0  0  0  0  0
  128.4250  125.6080   59.6200 S   0  0  0  0  0  0  0  0  0  0  0  0
  127.5380  124.0290   59.4700 C   0  0  0  0  0  0  0  0  0  0  0  0
  128.1220  122.9490   60.3820 C   0  0  0  0  0  0  0  0  0  0  0  0
  127.7370  122.8560   61.5490 O   0  0  0  0  0  0  0  0  0  0  0  0
  129.0430  122.1380   59.8330 N   0  0  0  0  0  0  0  0  0  0  0  0
  129.7020  121.0220   60.5100 C   0  0  0  0  0  0  0  0  0  0  0  0
  131.1160  121.3320   60.9900 C   0  0  0  0  0  0  0  0  0  0  0  0
  131.3180  121.8290   62.2790 C   0  0  0  0  0  0  0  0  0  0  0  0
  132.6100  122.0860   62.7320 C   0  0  0  0  0  0  0  0  0  0  0  0
  133.6960  121.8340   61.8950 C   0  0  0  0  0  0  0  0  0  0  0  0
  133.5030  121.3240   60.6140 C   0  0  0  0  0  0  0  0  0  0  0  0
  132.2110  121.0670   60.1610 C   0  0  0  0  0  0  0  0  0  0  0  0
  1  2  3  0
  2  3  1  0
  3  4  2  0
  4  5  1  0
  5  6  1  0
  5  7  1  0
  5  8  1  0
  4  9  1  0
  9 10  2  0
 10 11  1  0
 11 12  2  0
 12 13  1  0
 13 14  2  0
 14 15  1  0
 15 16  2  0
 10 17  1  0
 17 18  2  0
 18 19  1  0
 19 20  1  0
 20 21  1  0
 21 22  2  0
 21 23  1  0
 23 24  1  0
 24 25  1  0
 25 26  2  0
 26 27  1  0
 27 28  2  0
 28 29  1  0
 29 30  2  0
 18  3  1  0
 30 25  1  0
 16 11  1  0
M  END
>  <Binding energies>  (16) 
[-6.32]

>  <Ligand effiencies>  (16) 
[-0.2038709677419355]

>  <Interactions>  (16) 
["V-A:ASP:366:CG:3211, V-B:TYR:539:CZ:9849, V-A:ASP:366:CA:3208, V-B:TYR:539:CE2:9848, V-B:TYR:539:CD2:9846, V-A:ASP:366:CB:3210, V-A:GLY:454:CA:4047, V-A:ILE:369:CD1:3237, V-B:ALA:541:CB:9864, V-A:ILE:369:CG2:3235, V-A:LEU:475:CD2:4257, V-B:PRO:540:C:9853, V-A:TRP:381:CH2:3370, V-B:PRO:540:CA:9855, V-B:TYR:539:C:9839, V-A:ARG:545:CZ:4924, V-B:GLU:543:CD:9880, V-A:ARG:545:CD:4921, V-A:GLY:453:CA:4042, V-A:HIS:456:CE1:4068, V-A:ARG:545:CG:4920, H-B:ALA:541:N:9863, V-A:ASP:366:C:3206, V-A:ILE:369:CB:3234, H-B:TYR:539:OH:9850, V-A:ILE:369:CG1:3236, H-B:TYR:539:O:9840"]

$$$$
3bc_Grossjean_2025
     RDKit          3D

 28 30  0  0  0  0  0  0  0  0999 V2000
  128.3740  127.1620   72.4940 C   0  0  0  0  0  0  0  0  0  0  0  0
  127.7640  127.7920   71.3720 O   0  0  0  0  0  0  0  0  0  0  0  0
  128.2670  127.5490   70.1080 C   0  0  0  0  0  0  0  0  0  0  0  0
  129.6560  127.5020   69.9900 C   0  0  0  0  0  0  0  0  0  0  0  0
  130.2550  127.2630   68.7560 C   0  0  0  0  0  0  0  0  0  0  0  0
  129.4690  127.0750   67.6180 C   0  0  0  0  0  0  0  0  0  0  0  0
  130.1630  126.8280   66.4180 N   0  0  0  0  0  0  0  0  0  0  0  0
  130.6210  125.6570   65.9250 C   0  0  0  0  0  0  0  0  0  0  0  0
  130.4610  124.5590   66.4610 O   0  0  0  0  0  0  0  0  0  0  0  0
  131.3510  125.7700   64.5790 C   0  0  0  0  0  0  0  0  0  0  0  0
  130.2880  126.1710   63.1510 S   0  0  0  0  0  0  0  0  0  0  0  0
  130.3490  124.7960   62.0240 C   0  0  0  0  0  0  0  0  0  0  0  0
  129.2610  124.7000   61.2220 N   0  0  0  0  0  0  0  0  0  0  0  0
  129.1790  123.6950   60.3110 C   0  0  0  0  0  0  0  0  0  0  0  0
  127.9330  123.6470   59.4760 C   0  0  0  0  0  0  0  0  0  0  0  0
  126.6950  124.0310   60.0140 C   0  0  0  0  0  0  0  0  0  0  0  0
  125.5350  123.9890   59.2450 C   0  0  0  0  0  0  0  0  0  0  0  0
  125.5980  123.5590   57.9240 C   0  0  0  0  0  0  0  0  0  0  0  0
  126.8120  123.1700   57.3670 C   0  0  0  0  0  0  0  0  0  0  0  0
  127.9700  123.2120   58.1400 C   0  0  0  0  0  0  0  0  0  0  0  0
  130.2040  122.7520   60.1870 C   0  0  0  0  0  0  0  0  0  0  0  0
  131.3440  122.8500   60.9920 C   0  0  0  0  0  0  0  0  0  0  0  0
  132.4470  121.8080   60.8100 C   0  0  0  0  0  0  0  0  0  0  0  0
  131.4380  123.9000   61.9320 C   0  0  0  0  0  0  0  0  0  0  0  0
  132.6430  124.0510   62.7500 C   0  0  0  0  0  0  0  0  0  0  0  0
  133.5960  124.1680   63.3960 N   0  0  0  0  0  0  0  0  0  0  0  0
  128.0710  127.1070   67.7300 C   0  0  0  0  0  0  0  0  0  0  0  0
  127.4760  127.3460   68.9660 C   0  0  0  0  0  0  0  0  0  0  0  0
  1  2  1  0
  2  3  1  0
  3  4  2  0
  4  5  1  0
  5  6  2  0
  6  7  1  0
  7  8  1  0
  8  9  2  0
  8 10  1  0
 10 11  1  0
 11 12  1  0
 12 13  2  0
 13 14  1  0
 14 15  1  0
 15 16  2  0
 16 17  1  0
 17 18  2  0
 18 19  1  0
 19 20  2  0
 14 21  2  0
 21 22  1  0
 22 23  1  0
 22 24  2  0
 24 25  1  0
 25 26  3  0
  6 27  1  0
 27 28  2  0
 28  3  1  0
 24 12  1  0
 20 15  1  0
M  END
>  <Binding energies>  (17) 
[-7.92]

>  <Ligand effiencies>  (17) 
[-0.2731034482758621]

>  <Interactions>  (17) 
["H-A:TYR:484:OH:4346, H-A:GLY:454:N:4048, V-B:TYR:539:CE2:9848, V-B:TYR:539:CD2:9846, V-A:LEU:475:CD2:4257, V-B:PRO:540:CA:9855, V-B:TYR:539:C:9839, V-B:PRO:540:N:9856, V-A:ARG:545:CZ:4924, V-B:GLU:543:CD:9880, H-A:ARG:545:NH2:4926, V-B:GLU:543:CB:9878, V-A:GLU:543:CD:4906, V-A:HIS:456:CE1:4068, V-B:GLU:543:CG:9879, H-A:GLU:543:OE1:4907, H-A:GLU:543:OE2:4908, H-B:GLU:543:OE2:9882, V-B:HIS:456:CE1:9042, V-B:LYS:547:CE:9922, V-B:GLY:544:C:9884, V-A:GLU:543:CG:4905, V-A:GLU:543:C:4900, V-B:GLU:543:C:9874, V-B:PRO:540:CB:9857, V-B:GLY:544:CA:9886, V-B:PRO:540:CD:9859"]

$$$$
3bd_Grossjean_2025
     RDKit          3D

 26 28  0  0  0  0  0  0  0  0999 V2000
  134.3020  123.5640   75.4810 C   0  0  0  0  0  0  0  0  0  0  0  0
  133.0120  123.9340   74.7510 C   0  0  0  0  0  0  0  0  0  0  0  0
  132.1200  122.9070   74.4230 C   0  0  0  0  0  0  0  0  0  0  0  0
  130.9290  123.2040   73.7510 C   0  0  0  0  0  0  0  0  0  0  0  0
  129.9270  122.1530   73.3750 C   0  0  0  0  0  0  0  0  0  0  0  0
  129.3860  122.1080   72.0800 C   0  0  0  0  0  0  0  0  0  0  0  0
  128.4550  121.1360   71.7240 C   0  0  0  0  0  0  0  0  0  0  0  0
  128.0490  120.1920   72.6630 C   0  0  0  0  0  0  0  0  0  0  0  0
  128.5670  120.2170   73.9530 C   0  0  0  0  0  0  0  0  0  0  0  0
  129.4970  121.1900   74.3050 C   0  0  0  0  0  0  0  0  0  0  0  0
  130.6170  124.4840   73.4210 N   0  0  0  0  0  0  0  0  0  0  0  0
  131.4710  125.4930   73.7300 C   0  0  0  0  0  0  0  0  0  0  0  0
  130.9510  127.1270   73.2320 S   0  0  0  0  0  0  0  0  0  0  0  0
  129.1340  127.1730   73.2600 C   0  0  0  0  0  0  0  0  0  0  0  0
  128.5480  127.4960   71.8850 C   0  0  0  0  0  0  0  0  0  0  0  0
  127.4590  128.0670   71.8180 O   0  0  0  0  0  0  0  0  0  0  0  0
  129.2890  127.1040   70.8260 N   0  0  0  0  0  0  0  0  0  0  0  0
  129.0330  127.2790   69.4530 C   0  0  0  0  0  0  0  0  0  0  0  0
  130.1560  127.3600   68.6240 C   0  0  0  0  0  0  0  0  0  0  0  0
  130.0020  127.5420   67.2520 C   0  0  0  0  0  0  0  0  0  0  0  0
  128.7260  127.6540   66.7090 C   0  0  0  0  0  0  0  0  0  0  0  0
  127.6000  127.5900   67.5270 C   0  0  0  0  0  0  0  0  0  0  0  0
  127.7500  127.4060   68.8980 C   0  0  0  0  0  0  0  0  0  0  0  0
  132.6920  125.2630   74.4000 C   0  0  0  0  0  0  0  0  0  0  0  0
  133.6060  126.3610   74.7290 C   0  0  0  0  0  0  0  0  0  0  0  0
  134.3270  127.2270   74.9910 N   0  0  0  0  0  0  0  0  0  0  0  0
  1  2  1  0
  2  3  2  0
  3  4  1  0
  4  5  1  0
  5  6  2  0
  6  7  1  0
  7  8  2  0
  8  9  1  0
  9 10  2  0
  4 11  2  0
 11 12  1  0
 12 13  1  0
 13 14  1  0
 14 15  1  0
 15 16  2  0
 15 17  1  0
 17 18  1  0
 18 19  2  0
 19 20  1  0
 20 21  2  0
 21 22  1  0
 22 23  2  0
 12 24  2  0
 24 25  1  0
 25 26  3  0
 24  2  1  0
 10  5  1  0
 23 18  1  0
M  END
>  <Binding energies>  (18) 
[-8.48]

>  <Ligand effiencies>  (18) 
[-0.3140740740740741]

>  <Interactions>  (18) 
["V-B:GLU:543:CD:9880, V-A:GLU:543:CD:4906, V-A:HIS:456:CE1:4068, V-B:GLU:543:CG:9879, V-A:HIS:456:CB:4063, V-A:ASP:473:CG:4238, V-A:HIS:456:CG:4064, V-A:LYS:547:CE:4948, V-A:HIS:456:CD2:4066, H-A:LYS:547:NZ:4949, V-A:VAL:458:CG2:4085, V-B:HIS:456:CE1:9042, V-A:LYS:471:CE:4218, V-B:LYS:547:CE:9922, H-B:LYS:547:NZ:9923, V-A:HIS:456:C:4059, V-B:GLY:544:C:9884, V-A:TYR:484:CG:4340, V-A:LYS:471:CD:4217, V-A:TYR:484:CB:4339, V-A:LYS:471:CG:4216, V-A:GLU:543:CG:4905, V-B:ARG:545:CG:9894, V-A:GLU:543:C:4900, V-B:GLU:543:C:9874, V-A:GLU:543:CB:4904, V-B:GLY:544:CA:9886, H-A:GLY:544:O:4911, H-A:HIS:456:NE2:4069, V-A:LYS:547:CD:4947, V-A:LYS:547:CG:4946, H-B:GLU:543:O:9875"]

$$$$
3be_Grossjean_2025
     RDKit          3D

 27 29  0  0  0  0  0  0  0  0999 V2000
  130.4500  127.3850   70.9870 C   0  0  0  0  0  0  0  0  0  0  0  0
  129.5880  127.2990   69.7430 C   0  0  0  0  0  0  0  0  0  0  0  0
  128.2110  127.5280   69.7890 C   0  0  0  0  0  0  0  0  0  0  0  0
  127.4800  127.4290   68.6050 C   0  0  0  0  0  0  0  0  0  0  0  0
  128.1370  127.1070   67.4140 C   0  0  0  0  0  0  0  0  0  0  0  0
  129.5200  126.8940   67.4370 C   0  0  0  0  0  0  0  0  0  0  0  0
  130.1210  126.5630   66.2080 N   0  0  0  0  0  0  0  0  0  0  0  0
  130.5970  125.3680   65.7950 C   0  0  0  0  0  0  0  0  0  0  0  0
  130.5820  124.3370   66.4690 O   0  0  0  0  0  0  0  0  0  0  0  0
  131.1840  125.3670   64.3740 C   0  0  0  0  0  0  0  0  0  0  0  0
  131.4560  123.7150   63.6480 S   0  0  0  0  0  0  0  0  0  0  0  0
  131.2150  123.8380   61.8890 C   0  0  0  0  0  0  0  0  0  0  0  0
  129.9110  123.8590   61.5200 N   0  0  0  0  0  0  0  0  0  0  0  0
  129.5810  123.9540   60.2040 C   0  0  0  0  0  0  0  0  0  0  0  0
  128.1160  123.9580   59.8790 C   0  0  0  0  0  0  0  0  0  0  0  0
  127.1540  123.8970   60.9000 C   0  0  0  0  0  0  0  0  0  0  0  0
  125.7940  123.8970   60.6050 C   0  0  0  0  0  0  0  0  0  0  0  0
  125.3750  123.9580   59.2810 C   0  0  0  0  0  0  0  0  0  0  0  0
  126.3070  124.0170   58.2500 C   0  0  0  0  0  0  0  0  0  0  0  0
  127.6670  124.0150   58.5490 C   0  0  0  0  0  0  0  0  0  0  0  0
  130.5720  124.0270   59.2200 C   0  0  0  0  0  0  0  0  0  0  0  0
  131.9220  124.0300   59.5860 C   0  0  0  0  0  0  0  0  0  0  0  0
  132.9680  124.1290   58.4770 C   0  0  0  0  0  0  0  0  0  0  0  0
  132.2670  123.9460   60.9520 C   0  0  0  0  0  0  0  0  0  0  0  0
  133.6720  124.0030   61.3610 C   0  0  0  0  0  0  0  0  0  0  0  0
  134.7830  124.0480   61.6810 N   0  0  0  0  0  0  0  0  0  0  0  0
  130.2400  126.9860   68.5940 N   0  0  0  0  0  0  0  0  0  0  0  0
  1  2  1  0
  2  3  2  0
  3  4  1  0
  4  5  2  0
  5  6  1  0
  6  7  1  0
  7  8  1  0
  8  9  2  0
  8 10  1  0
 10 11  1  0
 11 12  1  0
 12 13  2  0
 13 14  1  0
 14 15  1  0
 15 16  2  0
 16 17  1  0
 17 18  2  0
 18 19  1  0
 19 20  2  0
 14 21  2  0
 21 22  1  0
 22 23  1  0
 22 24  2  0
 24 25  1  0
 25 26  3  0
  6 27  2  0
 27  2  1  0
 24 12  1  0
 20 15  1  0
M  END
>  <Binding energies>  (19) 
[-7.75]

>  <Ligand effiencies>  (19) 
[-0.2767857142857143]

>  <Interactions>  (19) 
["H-A:TYR:484:OH:4346, V-A:ASP:366:CG:3211, V-B:TYR:539:CZ:9849, H-A:GLY:454:N:4048, V-B:TYR:539:CE2:9848, V-A:ASP:366:CB:3210, V-A:ILE:369:CD1:3237, V-B:PRO:540:C:9853, V-B:PRO:540:CA:9855, V-B:PRO:540:N:9856, V-B:GLU:543:CD:9880, V-B:GLU:543:CB:9878, V-A:GLU:543:CD:4906, V-A:HIS:456:CE1:4068, V-B:GLU:543:CG:9879, H-A:GLU:543:OE1:4907, H-A:GLU:543:OE2:4908, H-B:GLU:543:OE2:9882, V-A:HIS:456:CD2:4066, V-B:HIS:456:CE1:9042, V-B:GLY:544:C:9884, V-A:GLY:544:C:4910, V-A:GLY:544:CA:4912, V-B:ARG:545:CG:9894, V-B:GLU:543:C:9874, V-B:PRO:540:CB:9857"]

$$$$
3bf_Grossjean_2025
     RDKit          3D

 26 28  0  0  0  0  0  0  0  0999 V2000
  134.0420  127.0450   74.8150 C   0  0  0  0  0  0  0  0  0  0  0  0
  132.8420  126.2390   74.3240 C   0  0  0  0  0  0  0  0  0  0  0  0
  131.8230  126.9200   73.6500 C   0  0  0  0  0  0  0  0  0  0  0  0
  130.7120  126.2170   73.1700 C   0  0  0  0  0  0  0  0  0  0  0  0
  129.5970  126.8830   72.4210 C   0  0  0  0  0  0  0  0  0  0  0  0
  129.5330  126.8140   71.0210 C   0  0  0  0  0  0  0  0  0  0  0  0
  128.5010  127.4300   70.3180 C   0  0  0  0  0  0  0  0  0  0  0  0
  127.5160  128.1270   71.0100 C   0  0  0  0  0  0  0  0  0  0  0  0
  127.5570  128.2120   72.3980 C   0  0  0  0  0  0  0  0  0  0  0  0
  128.5910  127.5950   73.0960 C   0  0  0  0  0  0  0  0  0  0  0  0
  130.6060  124.8730   73.3490 N   0  0  0  0  0  0  0  0  0  0  0  0
  131.5740  124.2040   74.0220 C   0  0  0  0  0  0  0  0  0  0  0  0
  131.2640  122.4570   74.1660 S   0  0  0  0  0  0  0  0  0  0  0  0
  129.5580  122.2330   74.7740 C   0  0  0  0  0  0  0  0  0  0  0  0
  128.8310  120.9920   74.2340 C   0  0  0  0  0  0  0  0  0  0  0  0
  128.4150  120.1230   75.0020 O   0  0  0  0  0  0  0  0  0  0  0  0
  128.6740  120.9710   72.8930 N   0  0  0  0  0  0  0  0  0  0  0  0
  128.0690  119.9870   72.0900 C   0  0  0  0  0  0  0  0  0  0  0  0
  127.5480  118.8630   72.7410 C   0  0  0  0  0  0  0  0  0  0  0  0
  126.9230  117.8570   72.0010 C   0  0  0  0  0  0  0  0  0  0  0  0
  126.8310  118.0070   70.6170 C   0  0  0  0  0  0  0  0  0  0  0  0
  127.3170  119.0900   69.9610 N   0  0  0  0  0  0  0  0  0  0  0  0
  127.9220  120.0610   70.6940 C   0  0  0  0  0  0  0  0  0  0  0  0
  132.7310  124.8450   74.5170 C   0  0  0  0  0  0  0  0  0  0  0  0
  133.8110  124.1050   75.1760 C   0  0  0  0  0  0  0  0  0  0  0  0
  134.6640  123.5230   75.6980 N   0  0  0  0  0  0  0  0  0  0  0  0
  1  2  1  0
  2  3  2  0
  3  4  1  0
  4  5  1  0
  5  6  2  0
  6  7  1  0
  7  8  2  0
  8  9  1  0
  9 10  2  0
  4 11  2  0
 11 12  1  0
 12 13  1  0
 13 14  1  0
 14 15  1  0
 15 16  2  0
 15 17  1  0
 17 18  1  0
 18 19  2  0
 19 20  1  0
 20 21  2  0
 21 22  1  0
 22 23  2  0
 12 24  2  0
 24 25  1  0
 25 26  3  0
 24  2  1  0
 10  5  1  0
 23 18  1  0
M  END
>  <Binding energies>  (20) 
[-7.7]

>  <Ligand effiencies>  (20) 
[-0.2851851851851852]

>  <Interactions>  (20) 
["V-A:HIS:456:CE1:4068, V-A:HIS:456:CB:4063, V-A:HIS:456:CG:4064, V-A:LYS:547:CE:4948, V-B:HIS:456:CD2:9040, V-A:HIS:456:CD2:4066, V-A:VAL:458:CG2:4085, V-B:HIS:456:CE1:9042, V-A:VAL:457:C:4071, V-A:LYS:471:CE:4218, V-B:LYS:547:CE:9922, H-B:LYS:547:NZ:9923, V-A:HIS:456:C:4059, V-B:HIS:456:CG:9038, V-B:GLY:544:C:9884, V-A:TYR:484:CG:4340, V-A:LYS:471:CD:4217, V-A:GLY:544:C:4910, V-A:TYR:484:CB:4339, V-A:LYS:471:CG:4216, V-B:GLU:543:C:9874, V-A:LYS:547:CB:4945, V-A:LYS:547:CD:4947, V-A:LYS:547:CG:4946, V-A:TYR:484:CD1:4341, V-B:GLU:543:CA:9876, V-B:VAL:542:C:9866, H-A:TYR:484:N:4338, V-A:TYR:484:CA:4337, V-B:VAL:542:CG1:9871, V-A:SER:483:CA:4329, V-A:SER:483:C:4327, V-A:SER:483:CB:4331"]

$$$$
3bg_Grossjean_2025
     RDKit          3D

 27 29  0  0  0  0  0  0  0  0999 V2000
  134.2800  123.6170   75.4910 C   0  0  0  0  0  0  0  0  0  0  0  0
  132.9990  123.9930   74.7490 C   0  0  0  0  0  0  0  0  0  0  0  0
  132.0950  122.9740   74.4330 C   0  0  0  0  0  0  0  0  0  0  0  0
  130.9030  123.2750   73.7600 C   0  0  0  0  0  0  0  0  0  0  0  0
  129.8840  122.2290   73.4010 C   0  0  0  0  0  0  0  0  0  0  0  0
  129.3380  122.1640   72.1080 C   0  0  0  0  0  0  0  0  0  0  0  0
  128.4080  121.1870   71.7670 C   0  0  0  0  0  0  0  0  0  0  0  0
  128.0040  120.2560   72.7180 C   0  0  0  0  0  0  0  0  0  0  0  0
  128.5190  120.3030   74.0080 C   0  0  0  0  0  0  0  0  0  0  0  0
  129.4470  121.2840   74.3450 C   0  0  0  0  0  0  0  0  0  0  0  0
  130.6060  124.5590   73.4240 N   0  0  0  0  0  0  0  0  0  0  0  0
  131.4720  125.5610   73.7260 C   0  0  0  0  0  0  0  0  0  0  0  0
  130.9470  127.2030   73.2610 S   0  0  0  0  0  0  0  0  0  0  0  0
  129.1350  127.2960   73.4400 C   0  0  0  0  0  0  0  0  0  0  0  0
  128.4120  126.7430   72.2080 C   0  0  0  0  0  0  0  0  0  0  0  0
  128.3920  125.5290   72.0020 O   0  0  0  0  0  0  0  0  0  0  0  0
  127.8460  127.6470   71.3900 N   0  0  0  0  0  0  0  0  0  0  0  0
  127.2680  127.3600   70.0770 C   0  0  0  0  0  0  0  0  0  0  0  0
  128.3270  127.3580   68.9810 C   0  0  0  0  0  0  0  0  0  0  0  0
  127.9430  127.3760   67.6360 C   0  0  0  0  0  0  0  0  0  0  0  0
  128.9100  127.3640   66.6350 C   0  0  0  0  0  0  0  0  0  0  0  0
  130.2600  127.3470   66.9800 C   0  0  0  0  0  0  0  0  0  0  0  0
  130.6510  127.3490   68.3170 C   0  0  0  0  0  0  0  0  0  0  0  0
  129.6830  127.3600   69.3190 C   0  0  0  0  0  0  0  0  0  0  0  0
  132.6950  125.3220   74.3860 C   0  0  0  0  0  0  0  0  0  0  0  0
  133.6180  126.4120   74.7110 C   0  0  0  0  0  0  0  0  0  0  0  0
  134.3490  127.2710   74.9670 N   0  0  0  0  0  0  0  0  0  0  0  0
  1  2  1  0
  2  3  2  0
  3  4  1  0
  4  5  1  0
  5  6  2  0
  6  7  1  0
  7  8  2  0
  8  9  1  0
  9 10  2  0
  4 11  2  0
 11 12  1  0
 12 13  1  0
 13 14  1  0
 14 15  1  0
 15 16  2  0
 15 17  1  0
 17 18  1  0
 18 19  1  0
 19 20  2  0
 20 21  1  0
 21 22  2  0
 22 23  1  0
 23 24  2  0
 12 25  2  0
 25 26  1  0
 26 27  3  0
 25  2  1  0
 10  5  1  0
 24 19  1  0
M  END
>  <Binding energies>  (21) 
[-8.03]

>  <Ligand effiencies>  (21) 
[-0.28678571428571425]

>  <Interactions>  (21) 
["V-B:GLU:543:CD:9880, V-A:GLU:543:CD:4906, V-A:HIS:456:CE1:4068, V-A:ARG:545:CG:4920, V-B:GLU:543:CG:9879, V-A:HIS:456:CB:4063, V-A:ASP:473:CG:4238, V-A:HIS:456:CG:4064, V-A:LYS:547:CE:4948, V-B:HIS:456:CD2:9040, V-A:HIS:456:CD2:4066, H-A:LYS:547:NZ:4949, V-A:VAL:458:CG2:4085, V-B:HIS:456:CE1:9042, V-A:LYS:471:CE:4218, V-B:LYS:547:CE:9922, H-B:LYS:547:NZ:9923, V-A:HIS:456:C:4059, V-B:GLY:544:C:9884, V-A:LYS:471:CD:4217, V-A:TYR:484:CB:4339, V-A:LYS:471:CG:4216, V-A:GLU:543:CG:4905, V-A:GLU:543:C:4900, V-B:GLU:543:C:9874, H-B:GLY:544:O:9885, H-B:HIS:456:NE2:9043, V-B:GLY:544:CA:9886, H-A:GLU:543:O:4901, V-A:LYS:547:CD:4947, V-A:LYS:547:CG:4946, H-B:GLY:544:N:9887, V-B:ARG:545:CA:9891"]

$$$$
3ca_Grossjean_2025
     RDKit          3D

 31 33  0  0  0  0  0  0  0  0999 V2000
  126.7280  129.7580   74.2610 C   0  0  0  0  0  0  0  0  0  0  0  0
  126.4420  128.5740   73.3330 C   0  0  0  0  0  0  0  0  0  0  0  0
  127.2890  128.6500   72.1930 O   0  0  0  0  0  0  0  0  0  0  0  0
  128.4950  128.0270   72.1730 C   0  0  0  0  0  0  0  0  0  0  0  0
  129.1190  127.7180   73.1930 O   0  0  0  0  0  0  0  0  0  0  0  0
  128.9930  127.7440   70.7840 C   0  0  0  0  0  0  0  0  0  0  0  0
  128.0690  127.5990   69.7420 C   0  0  0  0  0  0  0  0  0  0  0  0
  128.5000  127.3360   68.4440 C   0  0  0  0  0  0  0  0  0  0  0  0
  129.8610  127.2040   68.1640 C   0  0  0  0  0  0  0  0  0  0  0  0
  130.1880  126.9400   66.8200 N   0  0  0  0  0  0  0  0  0  0  0  0
  130.3730  125.7570   66.1950 C   0  0  0  0  0  0  0  0  0  0  0  0
  130.2620  124.6490   66.7190 O   0  0  0  0  0  0  0  0  0  0  0  0
  130.7270  125.8520   64.7070 C   0  0  0  0  0  0  0  0  0  0  0  0
  132.4820  125.4980   64.3630 S   0  0  0  0  0  0  0  0  0  0  0  0
  132.6280  124.5720   62.8410 C   0  0  0  0  0  0  0  0  0  0  0  0
  133.3490  123.4250   62.9180 N   0  0  0  0  0  0  0  0  0  0  0  0
  133.4830  122.6630   61.8100 C   0  0  0  0  0  0  0  0  0  0  0  0
  134.2870  121.3890   61.9810 C   0  0  0  0  0  0  0  0  0  0  0  0
  132.9230  123.0160   60.5850 C   0  0  0  0  0  0  0  0  0  0  0  0
  132.1900  124.2050   60.4750 C   0  0  0  0  0  0  0  0  0  0  0  0
  131.6190  124.5500   59.1380 C   0  0  0  0  0  0  0  0  0  0  0  0
  132.4230  125.1610   58.1680 C   0  0  0  0  0  0  0  0  0  0  0  0
  131.8970  125.4950   56.9220 C   0  0  0  0  0  0  0  0  0  0  0  0
  130.5610  125.2210   56.6430 C   0  0  0  0  0  0  0  0  0  0  0  0
  129.7460  124.6200   57.5990 C   0  0  0  0  0  0  0  0  0  0  0  0
  130.2750  124.2880   58.8440 C   0  0  0  0  0  0  0  0  0  0  0  0
  132.0270  125.0050   61.6350 C   0  0  0  0  0  0  0  0  0  0  0  0
  131.2270  126.2340   61.5930 C   0  0  0  0  0  0  0  0  0  0  0  0
  130.5950  127.2030   61.5590 N   0  0  0  0  0  0  0  0  0  0  0  0
  130.7950  127.3550   69.2010 C   0  0  0  0  0  0  0  0  0  0  0  0
  130.3610  127.6210   70.4980 C   0  0  0  0  0  0  0  0  0  0  0  0
  1  2  1  0
  2  3  1  0
  3  4  1  0
  4  5  2  0
  4  6  1  0
  6  7  2  0
  7  8  1  0
  8  9  2  0
  9 10  1  0
 10 11  1  0
 11 12  2  0
 11 13  1  0
 13 14  1  0
 14 15  1  0
 15 16  2  0
 16 17  1  0
 17 18  1  0
 17 19  2  0
 19 20  1  0
 20 21  1  0
 21 22  2  0
 22 23  1  0
 23 24  2  0
 24 25  1  0
 25 26  2  0
 20 27  2  0
 27 28  1  0
 28 29  3  0
  9 30  1  0
 30 31  2  0
 31  6  1  0
 27 15  1  0
 26 21  1  0
M  END
>  <Binding energies>  (22) 
[-7.85]

>  <Ligand effiencies>  (22) 
[-0.2453125]

>  <Interactions>  (22) 
["H-A:TYR:484:OH:4346, V-A:ASP:366:CG:3211, V-B:TYR:539:CZ:9849, H-A:GLY:454:N:4048, V-B:TYR:539:CE2:9848, V-A:ASP:366:CB:3210, V-A:GLY:454:CA:4047, V-A:ILE:369:CD1:3237, V-A:LEU:475:CD2:4257, V-A:ARG:545:CZ:4924, V-B:GLU:543:CD:9880, H-A:ARG:545:NH2:4926, V-B:GLU:543:CB:9878, V-A:GLU:543:CD:4906, V-A:HIS:456:CE1:4068, V-B:GLU:543:CG:9879, H-A:GLU:543:OE1:4907, H-A:GLU:543:OE2:4908, H-A:ARG:545:NE:4922, V-B:HIS:456:CD2:9040, V-B:HIS:456:CB:9037, H-A:LYS:547:NZ:4949, V-B:HIS:456:CE1:9042, H-B:LYS:547:NZ:9923, V-B:HIS:456:CG:9038, V-B:GLY:544:C:9884, V-A:GLY:544:C:4910, V-A:GLU:543:CG:4905, V-A:GLY:544:CA:4912, V-A:GLU:543:C:4900, V-B:GLU:543:C:9874, H-B:HIS:456:ND1:9039"]

$$$$
3ce_Grossjean_2025
     RDKit          3D

 27 29  0  0  0  0  0  0  0  0999 V2000
  130.6240  127.2070   71.0630 C   0  0  0  0  0  0  0  0  0  0  0  0
  129.6730  127.1720   69.8820 C   0  0  0  0  0  0  0  0  0  0  0  0
  128.2980  127.3580   70.0440 C   0  0  0  0  0  0  0  0  0  0  0  0
  127.4850  127.3230   68.9110 C   0  0  0  0  0  0  0  0  0  0  0  0
  128.0590  127.1040   67.6560 C   0  0  0  0  0  0  0  0  0  0  0  0
  129.4420  126.9140   67.5660 C   0  0  0  0  0  0  0  0  0  0  0  0
  129.9660  126.7180   66.2770 N   0  0  0  0  0  0  0  0  0  0  0  0
  130.5460  125.6070   65.7710 C   0  0  0  0  0  0  0  0  0  0  0  0
  130.7050  124.5510   66.3850 O   0  0  0  0  0  0  0  0  0  0  0  0
  131.0180  125.7070   64.3210 C   0  0  0  0  0  0  0  0  0  0  0  0
  132.6980  125.0480   64.1060 S   0  0  0  0  0  0  0  0  0  0  0  0
  132.7170  124.2880   62.4990 C   0  0  0  0  0  0  0  0  0  0  0  0
  133.3760  123.1030   62.4580 N   0  0  0  0  0  0  0  0  0  0  0  0
  133.4320  122.4360   61.2830 C   0  0  0  0  0  0  0  0  0  0  0  0
  134.1730  121.1130   61.3100 C   0  0  0  0  0  0  0  0  0  0  0  0
  132.8540  122.9240   60.1140 C   0  0  0  0  0  0  0  0  0  0  0  0
  132.1910  124.1590   60.1310 C   0  0  0  0  0  0  0  0  0  0  0  0
  131.6090  124.6530   58.8470 C   0  0  0  0  0  0  0  0  0  0  0  0
  132.4290  125.2660   57.8930 C   0  0  0  0  0  0  0  0  0  0  0  0
  131.8920  125.7340   56.6960 C   0  0  0  0  0  0  0  0  0  0  0  0
  130.5290  125.5990   56.4520 C   0  0  0  0  0  0  0  0  0  0  0  0
  129.6970  125.0010   57.3960 C   0  0  0  0  0  0  0  0  0  0  0  0
  130.2370  124.5320   58.5900 C   0  0  0  0  0  0  0  0  0  0  0  0
  132.1130  124.8650   61.3580 C   0  0  0  0  0  0  0  0  0  0  0  0
  131.4190  126.1550   61.4400 C   0  0  0  0  0  0  0  0  0  0  0  0
  130.8720  127.1720   61.5040 N   0  0  0  0  0  0  0  0  0  0  0  0
  130.2450  126.9550   68.6700 N   0  0  0  0  0  0  0  0  0  0  0  0
  1  2  1  0
  2  3  2  0
  3  4  1  0
  4  5  2  0
  5  6  1  0
  6  7  1  0
  7  8  1  0
  8  9  2  0
  8 10  1  0
 10 11  1  0
 11 12  1  0
 12 13  2  0
 13 14  1  0
 14 15  1  0
 14 16  2  0
 16 17  1  0
 17 18  1  0
 18 19  2  0
 19 20  1  0
 20 21  2  0
 21 22  1  0
 22 23  2  0
 17 24  2  0
 24 25  1  0
 25 26  3  0
  6 27  2  0
 27  2  1  0
 24 12  1  0
 23 18  1  0
M  END
>  <Binding energies>  (23) 
[-7.61]

>  <Ligand effiencies>  (23) 
[-0.2717857142857143]

>  <Interactions>  (23) 
["H-A:TYR:484:OH:4346, V-A:ASP:366:CG:3211, H-A:GLY:454:N:4048, V-B:TYR:539:CE2:9848, V-A:ASP:366:CB:3210, V-A:GLY:454:CA:4047, V-A:ILE:369:CD1:3237, V-A:ILE:369:CG2:3235, V-A:LEU:475:CD2:4257, V-B:GLU:543:CD:9880, H-A:ARG:545:NH2:4926, V-B:GLU:543:CB:9878, V-A:GLU:543:CD:4906, V-A:HIS:456:CE1:4068, V-B:GLU:543:CG:9879, H-A:GLU:543:OE1:4907, H-A:GLU:543:OE2:4908, H-B:GLU:543:OE2:9882, H-A:ARG:545:NE:4922, V-A:SER:385:C:3403, V-A:HIS:456:CD2:4066, V-B:HIS:456:CE1:9042, V-B:GLY:544:C:9884, V-A:GLY:544:C:4910, V-A:GLU:543:CG:4905, V-A:GLY:544:CA:4912, V-B:ARG:545:CG:9894, V-B:GLU:543:C:9874"]

$$$$
3cj_Grossjean_2025
     RDKit          3D

 25 27  0  0  0  0  0  0  0  0999 V2000
  130.7640  120.3560   61.0560 C   0  0  0  0  0  0  0  0  0  0  0  0
  130.6180  121.6230   60.2360 C   0  0  0  0  0  0  0  0  0  0  0  0
  129.3710  122.0780   59.8140 C   0  0  0  0  0  0  0  0  0  0  0  0
  129.2810  123.2670   59.0770 C   0  0  0  0  0  0  0  0  0  0  0  0
  127.9200  123.7510   58.7020 C   0  0  0  0  0  0  0  0  0  0  0  0
  127.3680  123.4240   57.4570 C   0  0  0  0  0  0  0  0  0  0  0  0
  126.1040  123.8870   57.1020 C   0  0  0  0  0  0  0  0  0  0  0  0
  125.3880  124.6840   57.9910 C   0  0  0  0  0  0  0  0  0  0  0  0
  125.9280  125.0250   59.2280 C   0  0  0  0  0  0  0  0  0  0  0  0
  127.1930  124.5610   59.5810 C   0  0  0  0  0  0  0  0  0  0  0  0
  130.4780  123.9540   58.7570 C   0  0  0  0  0  0  0  0  0  0  0  0
  130.4520  125.1880   57.9640 C   0  0  0  0  0  0  0  0  0  0  0  0
  130.4300  126.1620   57.3400 N   0  0  0  0  0  0  0  0  0  0  0  0
  131.6990  123.4220   59.2310 C   0  0  0  0  0  0  0  0  0  0  0  0
  133.2580  124.2540   59.0150 S   0  0  0  0  0  0  0  0  0  0  0  0
  134.3300  123.5840   60.3250 C   0  0  0  0  0  0  0  0  0  0  0  0
  133.6450  123.6150   61.6950 C   0  0  0  0  0  0  0  0  0  0  0  0
  133.3930  122.5560   62.2720 O   0  0  0  0  0  0  0  0  0  0  0  0
  133.3980  124.8470   62.1910 N   0  0  0  0  0  0  0  0  0  0  0  0
  132.9150  125.1490   63.4530 C   0  0  0  0  0  0  0  0  0  0  0  0
  133.5690  125.1300   64.5950 N   0  0  0  0  0  0  0  0  0  0  0  0
  132.8010  125.5070   65.5980 C   0  0  0  0  0  0  0  0  0  0  0  0
  131.4890  125.8420   65.2780 C   0  0  0  0  0  0  0  0  0  0  0  0
  131.2570  125.6480   63.5650 S   0  0  0  0  0  0  0  0  0  0  0  0
  131.7660  122.2840   59.9650 N   0  0  0  0  0  0  0  0  0  0  0  0
  1  2  1  0
  2  3  2  0
  3  4  1  0
  4  5  1  0
  5  6  2  0
  6  7  1  0
  7  8  2  0
  8  9  1  0
  9 10  2  0
  4 11  2  0
 11 12  1  0
 12 13  3  0
 11 14  1  0
 14 15  1  0
 15 16  1  0
 16 17  1  0
 17 18  2  0
 17 19  1  0
 19 20  1  0
 20 21  2  0
 21 22  1  0
 22 23  2  0
 23 24  1  0
 14 25  2  0
 25  2  1  0
 10  5  1  0
 24 20  1  0
M  END
>  <Binding energies>  (24) 
[-7.11]

>  <Ligand effiencies>  (24) 
[-0.2734615384615385]

>  <Interactions>  (24) 
["H-A:TYR:484:OH:4346, H-A:GLY:454:N:4048, V-B:TYR:539:CE2:9848, V-B:TYR:539:CD2:9846, V-A:ILE:369:CD1:3237, V-B:ALA:541:CB:9864, V-A:ILE:369:CG2:3235, V-A:LEU:475:CD2:4257, H-A:ASP:366:OD1:3212, V-B:PRO:540:CA:9855, V-B:TYR:539:C:9839, V-B:PRO:540:N:9856, V-A:ARG:545:CZ:4924, V-A:ARG:545:CD:4921, V-A:HIS:456:CE1:4068, V-A:ARG:545:CG:4920, V-A:ILE:369:CB:3234, H-A:ARG:545:NE:4922, V-A:ILE:369:CG1:3236, H-A:ASP:366:OD2:3213"]

$$$$
4ba_Grossjean_2025
     RDKit          3D

 28 30  0  0  0  0  0  0  0  0999 V2000
  130.1310  127.2780   72.6020 C   0  0  0  0  0  0  0  0  0  0  0  0
  129.3660  128.4570   71.9710 C   0  0  0  0  0  0  0  0  0  0  0  0
  128.4120  128.0760   70.8200 C   0  0  0  0  0  0  0  0  0  0  0  0
  127.1930  128.1160   71.0030 O   0  0  0  0  0  0  0  0  0  0  0  0
  129.0250  127.6740   69.5100 C   0  0  0  0  0  0  0  0  0  0  0  0
  128.1970  127.2350   68.4690 C   0  0  0  0  0  0  0  0  0  0  0  0
  128.7390  126.8550   67.2450 C   0  0  0  0  0  0  0  0  0  0  0  0
  130.1170  126.9080   67.0340 C   0  0  0  0  0  0  0  0  0  0  0  0
  130.5580  126.4920   65.7630 N   0  0  0  0  0  0  0  0  0  0  0  0
  131.7210  125.9020   65.3930 C   0  0  0  0  0  0  0  0  0  0  0  0
  132.6510  125.6620   66.1650 O   0  0  0  0  0  0  0  0  0  0  0  0
  131.8310  125.5750   63.9700 C   0  0  0  0  0  0  0  0  0  0  0  0
  133.2330  124.6930   63.3690 S   0  0  0  0  0  0  0  0  0  0  0  0
  132.6380  124.7720   61.7280 C   0  0  0  0  0  0  0  0  0  0  0  0
  133.3190  124.2350   60.7160 N   0  0  0  0  0  0  0  0  0  0  0  0
  132.7590  124.3600   59.4910 C   0  0  0  0  0  0  0  0  0  0  0  0
  133.5550  123.7500   58.3520 C   0  0  0  0  0  0  0  0  0  0  0  0
  131.5440  124.9990   59.2560 C   0  0  0  0  0  0  0  0  0  0  0  0
  130.8220  125.5670   60.3190 C   0  0  0  0  0  0  0  0  0  0  0  0
  129.4890  126.2570   60.0120 C   0  0  0  0  0  0  0  0  0  0  0  0
  129.4680  127.5400   60.3800 F   0  0  0  0  0  0  0  0  0  0  0  0
  129.2480  126.2150   58.7010 F   0  0  0  0  0  0  0  0  0  0  0  0
  128.5010  125.6390   60.6610 F   0  0  0  0  0  0  0  0  0  0  0  0
  131.3890  125.4570   61.6240 C   0  0  0  0  0  0  0  0  0  0  0  0
  130.9570  125.9130   62.9230 C   0  0  0  0  0  0  0  0  0  0  0  0
  129.7930  126.6130   63.1120 N   0  0  0  0  0  0  0  0  0  0  0  0
  130.9540  127.3400   68.0740 C   0  0  0  0  0  0  0  0  0  0  0  0
  130.4110  127.7200   69.2980 C   0  0  0  0  0  0  0  0  0  0  0  0
  1  2  1  0
  2  3  1  0
  3  4  2  0
  3  5  1  0
  5  6  2  0
  6  7  1  0
  7  8  2  0
  8  9  1  0
  9 10  1  0
 10 11  2  0
 10 12  1  0
 12 13  1  0
 13 14  1  0
 14 15  2  0
 15 16  1  0
 16 17  1  0
 16 18  2  0
 18 19  1  0
 19 20  1  0
 20 21  1  0
 20 22  1  0
 20 23  1  0
 19 24  2  0
 24 25  1  0
 25 26  1  0
  8 27  1  0
 27 28  2  0
 28  5  1  0
 25 12  2  0
 24 14  1  0
M  END
>  <Binding energies>  (25) 
[-7.0]

>  <Ligand effiencies>  (25) 
[-0.22580645161290322]

>  <Interactions>  (25) 
["H-B:GLU:543:OE1:9881, H-A:TYR:484:OH:4346, V-A:ASP:366:CG:3211, V-B:TYR:539:CZ:9849, V-A:ASP:366:CA:3208, V-B:TYR:539:CE2:9848, V-A:ASP:366:CB:3210, V-A:ILE:369:CG2:3235, V-A:ARG:545:CZ:4924, V-B:GLU:543:CD:9880, V-B:GLU:543:CB:9878, V-A:ARG:545:CD:4921, V-A:GLU:543:CD:4906, V-A:HIS:456:CE1:4068, V-A:ARG:545:CG:4920, V-B:GLU:543:CG:9879, V-A:ILE:369:CB:3234, H-A:GLU:543:OE1:4907, H-A:GLU:543:OE2:4908, H-B:GLU:543:OE2:9882, H-A:ARG:545:NE:4922, V-A:LYS:547:CE:4948, V-B:HIS:456:CD2:9040, V-B:HIS:456:CE1:9042, V-A:GLY:544:C:4910, V-A:GLU:543:CG:4905, V-A:GLY:544:CA:4912, V-A:GLU:543:C:4900, V-B:GLU:543:C:9874, H-B:HIS:456:ND1:9039, H-A:HIS:456:ND1:4065"]

$$$$
4bb_Grossjean_2025
     RDKit          3D

 27 29  0  0  0  0  0  0  0  0999 V2000
  129.4530  128.4620   71.9450 C   0  0  0  0  0  0  0  0  0  0  0  0
  128.3770  128.0590   70.9350 C   0  0  0  0  0  0  0  0  0  0  0  0
  127.1980  128.1070   71.2920 O   0  0  0  0  0  0  0  0  0  0  0  0
  128.8130  127.6180   69.5700 C   0  0  0  0  0  0  0  0  0  0  0  0
  130.1760  127.4230   69.3130 C   0  0  0  0  0  0  0  0  0  0  0  0
  130.6070  127.0150   68.0550 C   0  0  0  0  0  0  0  0  0  0  0  0
  129.6850  126.7850   67.0320 C   0  0  0  0  0  0  0  0  0  0  0  0
  130.2300  126.3780   65.7980 N   0  0  0  0  0  0  0  0  0  0  0  0
  131.4830  125.9590   65.4950 C   0  0  0  0  0  0  0  0  0  0  0  0
  132.4060  125.8930   66.3060 O   0  0  0  0  0  0  0  0  0  0  0  0
  131.6990  125.6030   64.0900 C   0  0  0  0  0  0  0  0  0  0  0  0
  133.1370  124.7010   63.6140 S   0  0  0  0  0  0  0  0  0  0  0  0
  132.6650  124.7430   61.9310 C   0  0  0  0  0  0  0  0  0  0  0  0
  133.4100  124.1740   60.9860 N   0  0  0  0  0  0  0  0  0  0  0  0
  132.9410  124.2740   59.7200 C   0  0  0  0  0  0  0  0  0  0  0  0
  133.8040  123.6170   58.6580 C   0  0  0  0  0  0  0  0  0  0  0  0
  131.7570  124.9230   59.3820 C   0  0  0  0  0  0  0  0  0  0  0  0
  130.9680  125.5240   60.3740 C   0  0  0  0  0  0  0  0  0  0  0  0
  129.6730  126.2270   59.9530 C   0  0  0  0  0  0  0  0  0  0  0  0
  128.5860  125.7080   60.5290 F   0  0  0  0  0  0  0  0  0  0  0  0
  129.7280  127.5150   60.2920 F   0  0  0  0  0  0  0  0  0  0  0  0
  129.5120  126.1260   58.6340 F   0  0  0  0  0  0  0  0  0  0  0  0
  131.4330  125.4380   61.7210 C   0  0  0  0  0  0  0  0  0  0  0  0
  130.9090  125.9220   62.9730 C   0  0  0  0  0  0  0  0  0  0  0  0
  129.7350  126.6250   63.0620 N   0  0  0  0  0  0  0  0  0  0  0  0
  128.3190  126.9850   67.2790 C   0  0  0  0  0  0  0  0  0  0  0  0
  127.8900  127.3950   68.5390 C   0  0  0  0  0  0  0  0  0  0  0  0
  1  2  1  0
  2  3  2  0
  2  4  1  0
  4  5  2  0
  5  6  1  0
  6  7  2  0
  7  8  1  0
  8  9  1  0
  9 10  2  0
  9 11  1  0
 11 12  1  0
 12 13  1  0
 13 14  2  0
 14 15  1  0
 15 16  1  0
 15 17  2  0
 17 18  1  0
 18 19  1  0
 19 20  1  0
 19 21  1  0
 19 22  1  0
 18 23  2  0
 23 24  1  0
 24 25  1  0
  7 26  1  0
 26 27  2  0
 27  4  1  0
 24 11  2  0
 23 13  1  0
M  END
>  <Binding energies>  (26) 
[-6.81]

>  <Ligand effiencies>  (26) 
[-0.22699999999999998]

>  <Interactions>  (26) 
["H-B:GLU:543:OE1:9881, H-A:TYR:484:OH:4346, V-A:ASP:366:CG:3211, V-A:ASP:366:CA:3208, V-B:TYR:539:CE2:9848, V-A:ILE:369:CD1:3237, V-A:ILE:369:CG2:3235, V-A:ARG:545:CZ:4924, V-B:GLU:543:CD:9880, V-B:GLU:543:CB:9878, V-A:GLU:543:CD:4906, V-A:HIS:456:CE1:4068, V-A:ARG:545:CG:4920, V-B:GLU:543:CG:9879, V-A:ILE:369:CB:3234, H-A:GLU:543:OE1:4907, H-A:GLU:543:OE2:4908, H-B:GLU:543:OE2:9882, H-A:ARG:545:NE:4922, V-A:LYS:547:CE:4948, V-B:HIS:456:CD2:9040, V-B:HIS:456:CE1:9042, V-A:GLY:544:C:4910, V-A:GLU:543:CG:4905, V-A:GLY:544:CA:4912, V-A:GLU:543:C:4900, V-B:GLU:543:C:9874, H-B:HIS:456:ND1:9039, H-A:HIS:456:ND1:4065"]

$$$$
4bd_Grossjean_2025
     RDKit          3D

 24 26  0  0  0  0  0  0  0  0999 V2000
  125.9790  117.0510   70.3260 C   0  0  0  0  0  0  0  0  0  0  0  0
  126.6650  117.9480   71.3410 C   0  0  0  0  0  0  0  0  0  0  0  0
  126.6350  117.6490   72.7000 C   0  0  0  0  0  0  0  0  0  0  0  0
  127.2720  118.4880   73.6280 C   0  0  0  0  0  0  0  0  0  0  0  0
  127.2080  118.1200   75.1140 C   0  0  0  0  0  0  0  0  0  0  0  0
  128.4100  117.8830   75.6450 F   0  0  0  0  0  0  0  0  0  0  0  0
  126.6570  119.1180   75.8040 F   0  0  0  0  0  0  0  0  0  0  0  0
  126.4780  117.0170   75.2740 F   0  0  0  0  0  0  0  0  0  0  0  0
  127.9400  119.6390   73.1150 C   0  0  0  0  0  0  0  0  0  0  0  0
  128.6850  120.7030   73.7420 C   0  0  0  0  0  0  0  0  0  0  0  0
  128.8890  120.7640   75.0960 N   0  0  0  0  0  0  0  0  0  0  0  0
  129.1800  121.6650   72.8450 C   0  0  0  0  0  0  0  0  0  0  0  0
  129.9550  122.8740   73.1380 C   0  0  0  0  0  0  0  0  0  0  0  0
  129.5000  123.9890   72.8830 O   0  0  0  0  0  0  0  0  0  0  0  0
  131.1680  122.6630   73.7070 N   0  0  0  0  0  0  0  0  0  0  0  0
  132.1600  123.5920   74.0690 C   0  0  0  0  0  0  0  0  0  0  0  0
  131.9290  124.9160   73.6830 C   0  0  0  0  0  0  0  0  0  0  0  0
  132.8480  125.9120   74.0040 C   0  0  0  0  0  0  0  0  0  0  0  0
  133.9970  125.5860   74.7190 C   0  0  0  0  0  0  0  0  0  0  0  0
  134.2320  124.2740   75.1220 C   0  0  0  0  0  0  0  0  0  0  0  0
  133.3160  123.2750   74.8030 C   0  0  0  0  0  0  0  0  0  0  0  0
  128.7390  121.2740   71.1850 S   0  0  0  0  0  0  0  0  0  0  0  0
  127.8950  119.8320   71.6990 C   0  0  0  0  0  0  0  0  0  0  0  0
  127.2900  119.0310   70.8240 N   0  0  0  0  0  0  0  0  0  0  0  0
  1  2  1  0
  2  3  2  0
  3  4  1  0
  4  5  1  0
  5  6  1  0
  5  7  1  0
  5  8  1  0
  4  9  2  0
  9 10  1  0
 10 11  1  0
 10 12  2  0
 12 13  1  0
 13 14  2  0
 13 15  1  0
 15 16  1  0
 16 17  2  0
 17 18  1  0
 18 19  2  0
 19 20  1  0
 20 21  2  0
 12 22  1  0
 22 23  1  0
 23 24  2  0
 24  2  1  0
 23  9  1  0
 21 16  1  0
M  END
>  <Binding energies>  (27) 
[-6.22]

>  <Ligand effiencies>  (27) 
[-0.23037037037037036]

>  <Interactions>  (27) 
["V-A:HIS:456:CB:4063, V-A:ASP:473:CG:4238, V-A:HIS:456:CG:4064, V-A:HIS:456:CD2:4066, H-A:ASP:473:OD2:4240, V-A:VAL:458:CG2:4085, V-A:VAL:457:C:4071, V-A:LYS:471:CE:4218, V-A:HIS:456:CA:4061, V-B:LYS:547:CE:9922, H-B:LYS:547:NZ:9923, V-A:HIS:456:C:4059, V-A:TYR:484:CG:4340, V-A:TYR:484:CB:4339, V-B:GLU:543:C:9874, V-B:GLY:544:CA:9886, V-A:TYR:484:CD1:4341, V-B:GLU:543:CA:9876, H-A:TYR:484:N:4338, V-B:VAL:542:CG1:9871, V-A:SER:483:CA:4329, V-A:SER:483:CB:4331, V-B:VAL:542:CB:9870"]

$$$$
4be_Grossjean_2025
     RDKit          3D

 25 27  0  0  0  0  0  0  0  0999 V2000
  130.5800  127.3550   70.7510 C   0  0  0  0  0  0  0  0  0  0  0  0
  129.7150  127.3440   69.5050 C   0  0  0  0  0  0  0  0  0  0  0  0
  128.3790  127.7520   69.5390 C   0  0  0  0  0  0  0  0  0  0  0  0
  127.6420  127.7130   68.3550 C   0  0  0  0  0  0  0  0  0  0  0  0
  128.2510  127.2720   67.1780 C   0  0  0  0  0  0  0  0  0  0  0  0
  129.5950  126.8830   67.2120 C   0  0  0  0  0  0  0  0  0  0  0  0
  130.1470  126.4420   65.9960 N   0  0  0  0  0  0  0  0  0  0  0  0
  131.4380  126.1460   65.7040 C   0  0  0  0  0  0  0  0  0  0  0  0
  132.3610  126.2220   66.5180 O   0  0  0  0  0  0  0  0  0  0  0  0
  131.6920  125.7380   64.3190 C   0  0  0  0  0  0  0  0  0  0  0  0
  133.1750  124.8770   63.9080 S   0  0  0  0  0  0  0  0  0  0  0  0
  132.7260  124.8190   62.2200 C   0  0  0  0  0  0  0  0  0  0  0  0
  133.5100  124.2390   61.3130 N   0  0  0  0  0  0  0  0  0  0  0  0
  133.0550  124.2540   60.0380 C   0  0  0  0  0  0  0  0  0  0  0  0
  133.9630  123.5910   59.0190 C   0  0  0  0  0  0  0  0  0  0  0  0
  131.8470  124.8290   59.6550 C   0  0  0  0  0  0  0  0  0  0  0  0
  131.0160  125.4420   60.6060 C   0  0  0  0  0  0  0  0  0  0  0  0
  129.6940  126.0580   60.1370 C   0  0  0  0  0  0  0  0  0  0  0  0
  129.5200  125.9750   58.8150 F   0  0  0  0  0  0  0  0  0  0  0  0
  128.6720  125.4260   60.7130 F   0  0  0  0  0  0  0  0  0  0  0  0
  129.6550  127.3490   60.4650 F   0  0  0  0  0  0  0  0  0  0  0  0
  131.4680  125.4460   61.9590 C   0  0  0  0  0  0  0  0  0  0  0  0
  130.9070  125.9720   63.1800 C   0  0  0  0  0  0  0  0  0  0  0  0
  129.7070  126.6350   63.2180 N   0  0  0  0  0  0  0  0  0  0  0  0
  130.3210  126.9130   68.3690 N   0  0  0  0  0  0  0  0  0  0  0  0
  1  2  1  0
  2  3  2  0
  3  4  1  0
  4  5  2  0
  5  6  1  0
  6  7  1  0
  7  8  1  0
  8  9  2  0
  8 10  1  0
 10 11  1  0
 11 12  1  0
 12 13  2  0
 13 14  1  0
 14 15  1  0
 14 16  2  0
 16 17  1  0
 17 18  1  0
 18 19  1  0
 18 20  1  0
 18 21  1  0
 17 22  2  0
 22 23  1  0
 23 24  1  0
  6 25  2  0
 25  2  1  0
 23 10  2  0
 22 12  1  0
M  END
>  <Binding energies>  (28) 
[-6.32]

>  <Ligand effiencies>  (28) 
[-0.22571428571428573]

>  <Interactions>  (28) 
["H-B:GLU:543:OE1:9881, H-A:TYR:484:OH:4346, V-A:ASP:366:CG:3211, V-A:ASP:366:CA:3208, V-B:TYR:539:CE2:9848, V-A:ILE:369:CD1:3237, V-A:ILE:369:CG2:3235, V-A:ARG:545:CZ:4924, V-B:GLU:543:CD:9880, V-B:GLU:543:CB:9878, V-A:GLU:543:CD:4906, V-A:HIS:456:CE1:4068, V-A:ARG:545:CG:4920, V-B:GLU:543:CG:9879, V-A:ILE:369:CB:3234, H-A:GLU:543:OE1:4907, H-A:GLU:543:OE2:4908, H-B:GLU:543:OE2:9882, H-A:ARG:545:NE:4922, V-A:HIS:456:CD2:4066, V-B:HIS:456:CE1:9042, V-A:GLY:544:C:4910, V-A:GLU:543:CG:4905, V-A:GLY:544:CA:4912, H-A:HIS:456:ND1:4065"]

$$$$
4bg_Grossjean_2025
     RDKit          3D

 25 27  0  0  0  0  0  0  0  0999 V2000
  133.9960  123.4650   59.1790 C   0  0  0  0  0  0  0  0  0  0  0  0
  133.0600  124.1410   60.1650 C   0  0  0  0  0  0  0  0  0  0  0  0
  131.9690  124.8840   59.7240 C   0  0  0  0  0  0  0  0  0  0  0  0
  131.1140  125.5090   60.6460 C   0  0  0  0  0  0  0  0  0  0  0  0
  129.9250  126.3160   60.1140 C   0  0  0  0  0  0  0  0  0  0  0  0
  128.7480  125.8570   60.5450 F   0  0  0  0  0  0  0  0  0  0  0  0
  130.0290  127.5850   60.5100 F   0  0  0  0  0  0  0  0  0  0  0  0
  129.9090  126.2700   58.7820 F   0  0  0  0  0  0  0  0  0  0  0  0
  131.4170  125.3430   62.0310 C   0  0  0  0  0  0  0  0  0  0  0  0
  130.7910  125.8270   63.2370 C   0  0  0  0  0  0  0  0  0  0  0  0
  129.6760  126.6270   63.2260 N   0  0  0  0  0  0  0  0  0  0  0  0
  131.4170  125.3980   64.4170 C   0  0  0  0  0  0  0  0  0  0  0  0
  131.0710  125.7200   65.8020 C   0  0  0  0  0  0  0  0  0  0  0  0
  130.4120  124.9450   66.4970 O   0  0  0  0  0  0  0  0  0  0  0  0
  131.5500  126.8900   66.2730 N   0  0  0  0  0  0  0  0  0  0  0  0
  131.3190  127.4220   67.6160 C   0  0  0  0  0  0  0  0  0  0  0  0
  129.8530  127.4220   68.0290 C   0  0  0  0  0  0  0  0  0  0  0  0
  128.8500  127.4660   67.0550 C   0  0  0  0  0  0  0  0  0  0  0  0
  127.5110  127.4260   67.4340 C   0  0  0  0  0  0  0  0  0  0  0  0
  127.1770  127.3290   68.7830 C   0  0  0  0  0  0  0  0  0  0  0  0
  128.1710  127.2680   69.7570 C   0  0  0  0  0  0  0  0  0  0  0  0
  129.5100  127.3090   69.3790 C   0  0  0  0  0  0  0  0  0  0  0  0
  132.8320  124.4100   64.0700 S   0  0  0  0  0  0  0  0  0  0  0  0
  132.5620  124.5500   62.3490 C   0  0  0  0  0  0  0  0  0  0  0  0
  133.3710  123.9620   61.4690 N   0  0  0  0  0  0  0  0  0  0  0  0
  1  2  1  0
  2  3  2  0
  3  4  1  0
  4  5  1  0
  5  6  1  0
  5  7  1  0
  5  8  1  0
  4  9  2  0
  9 10  1  0
 10 11  1  0
 10 12  2  0
 12 13  1  0
 13 14  2  0
 13 15  1  0
 15 16  1  0
 16 17  1  0
 17 18  2  0
 18 19  1  0
 19 20  2  0
 20 21  1  0
 21 22  2  0
 12 23  1  0
 23 24  1  0
 24 25  2  0
 25  2  1  0
 24  9  1  0
 22 17  1  0
M  END
>  <Binding energies>  (29) 
[-6.52]

>  <Ligand effiencies>  (29) 
[-0.23285714285714285]

>  <Interactions>  (29) 
["H-B:GLU:543:OE1:9881, H-A:TYR:484:OH:4346, V-A:ASP:366:CG:3211, V-B:TYR:539:CE2:9848, V-A:GLY:454:CA:4047, V-A:ILE:369:CD1:3237, V-A:ILE:369:CG2:3235, V-B:GLU:543:CD:9880, V-A:ARG:545:CD:4921, V-A:GLU:543:CD:4906, V-A:HIS:456:CE1:4068, V-A:ARG:545:CG:4920, V-B:GLU:543:CG:9879, V-A:ILE:369:CB:3234, H-A:GLU:543:OE1:4907, H-A:GLU:543:OE2:4908, H-B:GLU:543:OE2:9882, V-B:HIS:456:CE1:9042, V-B:GLY:544:C:9884, V-A:GLU:543:CG:4905, V-B:ARG:545:CG:9894, V-B:GLU:543:C:9874"]

$$$$
4ca_Grossjean_2025
     RDKit          3D

 34 37  0  0  0  0  0  0  0  0999 V2000
  126.7670  128.7340   75.4420 C   0  0  0  0  0  0  0  0  0  0  0  0
  126.5970  127.7650   74.2680 C   0  0  0  0  0  0  0  0  0  0  0  0
  127.8510  127.5760   73.6260 O   0  0  0  0  0  0  0  0  0  0  0  0
  128.3900  128.5440   72.8400 C   0  0  0  0  0  0  0  0  0  0  0  0
  128.5030  129.7220   73.1940 O   0  0  0  0  0  0  0  0  0  0  0  0
  128.8390  128.0370   71.5000 C   0  0  0  0  0  0  0  0  0  0  0  0
  127.8850  127.8200   70.4960 C   0  0  0  0  0  0  0  0  0  0  0  0
  128.2720  127.3550   69.2420 C   0  0  0  0  0  0  0  0  0  0  0  0
  129.6130  127.0910   68.9680 C   0  0  0  0  0  0  0  0  0  0  0  0
  129.8930  126.6330   67.6650 N   0  0  0  0  0  0  0  0  0  0  0  0
  129.4310  127.0720   66.4680 C   0  0  0  0  0  0  0  0  0  0  0  0
  128.6800  128.0380   66.3290 O   0  0  0  0  0  0  0  0  0  0  0  0
  129.9050  126.3230   65.3030 C   0  0  0  0  0  0  0  0  0  0  0  0
  130.8450  124.8480   65.5200 S   0  0  0  0  0  0  0  0  0  0  0  0
  130.9420  124.6020   63.7920 C   0  0  0  0  0  0  0  0  0  0  0  0
  131.5800  123.5560   63.2750 N   0  0  0  0  0  0  0  0  0  0  0  0
  131.5910  123.4400   61.9220 C   0  0  0  0  0  0  0  0  0  0  0  0
  132.3110  122.2440   61.3700 C   0  0  0  0  0  0  0  0  0  0  0  0
  131.6230  121.2680   60.6310 C   0  0  0  0  0  0  0  0  0  0  0  0
  132.2840  120.1530   60.1220 C   0  0  0  0  0  0  0  0  0  0  0  0
  133.6480  119.9980   60.3450 C   0  0  0  0  0  0  0  0  0  0  0  0
  134.3540  120.9480   61.0760 C   0  0  0  0  0  0  0  0  0  0  0  0
  133.6890  122.0600   61.5840 C   0  0  0  0  0  0  0  0  0  0  0  0
  130.9790  124.3880   61.0950 C   0  0  0  0  0  0  0  0  0  0  0  0
  130.3070  125.4970   61.6300 C   0  0  0  0  0  0  0  0  0  0  0  0
  129.6560  126.4960   60.6650 C   0  0  0  0  0  0  0  0  0  0  0  0
  128.3420  126.6250   60.8540 F   0  0  0  0  0  0  0  0  0  0  0  0
  130.2020  127.7010   60.8260 F   0  0  0  0  0  0  0  0  0  0  0  0
  129.8390  126.0930   59.4080 F   0  0  0  0  0  0  0  0  0  0  0  0
  130.2750  125.6190   63.0490 C   0  0  0  0  0  0  0  0  0  0  0  0
  129.6890  126.5900   63.9400 C   0  0  0  0  0  0  0  0  0  0  0  0
  128.9850  127.6780   63.4910 N   0  0  0  0  0  0  0  0  0  0  0  0
  130.5760  127.3100   69.9640 C   0  0  0  0  0  0  0  0  0  0  0  0
  130.1880  127.7780   71.2180 C   0  0  0  0  0  0  0  0  0  0  0  0
  1  2  1  0
  2  3  1  0
  3  4  1  0
  4  5  2  0
  4  6  1  0
  6  7  2  0
  7  8  1  0
  8  9  2  0
  9 10  1  0
 10 11  1  0
 11 12  2  0
 11 13  1  0
 13 14  1  0
 14 15  1  0
 15 16  2  0
 16 17  1  0
 17 18  1  0
 18 19  2  0
 19 20  1  0
 20 21  2  0
 21 22  1  0
 22 23  2  0
 17 24  2  0
 24 25  1  0
 25 26  1  0
 26 27  1  0
 26 28  1  0
 26 29  1  0
 25 30  2  0
 30 31  1  0
 31 32  1  0
  9 33  1  0
 33 34  2  0
 34  6  1  0
 31 13  2  0
 30 15  1  0
 23 18  1  0
M  END
>  <Binding energies>  (30) 
[-4.69]

>  <Ligand effiencies>  (30) 
[-0.12675675675675677]

>  <Interactions>  (30) 
["H-B:GLU:543:OE1:9881, H-A:TYR:484:OH:4346, V-B:TYR:539:CE2:9848, V-B:TYR:539:CD2:9846, V-A:GLY:454:CA:4047, V-A:ILE:369:CD1:3237, V-A:ILE:369:CG2:3235, V-A:LEU:475:CD2:4257, V-A:TRP:381:CH2:3370, V-A:TYR:484:CZ:4345, V-B:GLU:543:CD:9880, V-B:GLU:543:CB:9878, V-A:TYR:484:CE1:4343, V-A:GLU:543:CD:4906, V-A:HIS:456:CE1:4068, V-B:GLU:543:CG:9879, V-A:TRP:381:CZ2:3368, H-A:GLU:543:OE1:4907, H-A:GLU:543:OE2:4908, H-B:GLU:543:OE2:9882, V-A:SER:385:C:3403, V-A:SER:385:CA:3405, V-A:LYS:547:CE:4948, V-B:HIS:456:CD2:9040, V-A:HIS:456:CD2:4066, H-A:LYS:547:NZ:4949, V-B:HIS:456:CE1:9042, V-B:LYS:547:CE:9922, H-B:LYS:547:NZ:9923, V-B:GLY:544:C:9884, V-A:GLY:544:C:4910, V-A:GLU:543:CG:4905, V-A:GLY:544:CA:4912, V-A:GLU:543:C:4900, V-B:GLU:543:C:9874, V-A:ILE:369:CG1:3236, H-A:HIS:456:NE2:4069, V-B:LYS:547:CD:9921, H-B:GLU:543:O:9875"]

$$$$
4cb_Grossjean_2025
     RDKit          3D

 33 36  0  0  0  0  0  0  0  0999 V2000
  126.5700  127.8760   74.4400 C   0  0  0  0  0  0  0  0  0  0  0  0
  127.7150  127.5950   73.6470 O   0  0  0  0  0  0  0  0  0  0  0  0
  128.2780  128.5540   72.8680 C   0  0  0  0  0  0  0  0  0  0  0  0
  128.4000  129.7320   73.2190 O   0  0  0  0  0  0  0  0  0  0  0  0
  128.7410  128.0400   71.5340 C   0  0  0  0  0  0  0  0  0  0  0  0
  127.7980  127.8240   70.5200 C   0  0  0  0  0  0  0  0  0  0  0  0
  128.1960  127.3560   69.2710 C   0  0  0  0  0  0  0  0  0  0  0  0
  129.5410  127.0870   69.0120 C   0  0  0  0  0  0  0  0  0  0  0  0
  129.8330  126.6320   67.7120 N   0  0  0  0  0  0  0  0  0  0  0  0
  129.4170  127.0990   66.5100 C   0  0  0  0  0  0  0  0  0  0  0  0
  128.7070  128.0950   66.3620 O   0  0  0  0  0  0  0  0  0  0  0  0
  129.8910  126.3430   65.3470 C   0  0  0  0  0  0  0  0  0  0  0  0
  130.8470  124.8800   65.5710 S   0  0  0  0  0  0  0  0  0  0  0  0
  130.9350  124.6190   63.8440 C   0  0  0  0  0  0  0  0  0  0  0  0
  131.5820  123.5750   63.3310 N   0  0  0  0  0  0  0  0  0  0  0  0
  131.5870  123.4510   61.9780 C   0  0  0  0  0  0  0  0  0  0  0  0
  132.3190  122.2610   61.4300 C   0  0  0  0  0  0  0  0  0  0  0  0
  133.6850  122.0740   61.6960 C   0  0  0  0  0  0  0  0  0  0  0  0
  134.3720  120.9740   61.1870 C   0  0  0  0  0  0  0  0  0  0  0  0
  133.7000  120.0430   60.4020 C   0  0  0  0  0  0  0  0  0  0  0  0
  132.3470  120.2060   60.1200 C   0  0  0  0  0  0  0  0  0  0  0  0
  131.6660  121.3070   60.6300 C   0  0  0  0  0  0  0  0  0  0  0  0
  130.9600  124.3860   61.1480 C   0  0  0  0  0  0  0  0  0  0  0  0
  130.2790  125.4920   61.6790 C   0  0  0  0  0  0  0  0  0  0  0  0
  129.6120  126.4780   60.7110 C   0  0  0  0  0  0  0  0  0  0  0  0
  128.2950  126.5850   60.8990 F   0  0  0  0  0  0  0  0  0  0  0  0
  130.1380  127.6920   60.8740 F   0  0  0  0  0  0  0  0  0  0  0  0
  129.8050  126.0790   59.4550 F   0  0  0  0  0  0  0  0  0  0  0  0
  130.2530  125.6230   63.0970 C   0  0  0  0  0  0  0  0  0  0  0  0
  129.6610  126.5950   63.9840 C   0  0  0  0  0  0  0  0  0  0  0  0
  128.9380  127.6690   63.5300 N   0  0  0  0  0  0  0  0  0  0  0  0
  130.4910  127.3030   70.0210 C   0  0  0  0  0  0  0  0  0  0  0  0
  130.0920  127.7730   71.2680 C   0  0  0  0  0  0  0  0  0  0  0  0
  1  2  1  0
  2  3  1  0
  3  4  2  0
  3  5  1  0
  5  6  2  0
  6  7  1  0
  7  8  2  0
  8  9  1  0
  9 10  1  0
 10 11  2  0
 10 12  1  0
 12 13  1  0
 13 14  1  0
 14 15  2  0
 15 16  1  0
 16 17  1  0
 17 18  2  0
 18 19  1  0
 19 20  2  0
 20 21  1  0
 21 22  2  0
 16 23  2  0
 23 24  1  0
 24 25  1  0
 25 26  1  0
 25 27  1  0
 25 28  1  0
 24 29  2  0
 29 30  1  0
 30 31  1  0
  8 32  1  0
 32 33  2  0
 33  5  1  0
 30 12  2  0
 29 14  1  0
 22 17  1  0
M  END
>  <Binding energies>  (31) 
[-4.68]

>  <Ligand effiencies>  (31) 
[-0.13]

>  <Interactions>  (31) 
["H-B:GLU:543:OE1:9881, H-A:TYR:484:OH:4346, V-B:TYR:539:CE2:9848, V-B:TYR:539:CD2:9846, V-A:GLY:454:CA:4047, V-A:ILE:369:CD1:3237, V-A:ILE:369:CG2:3235, V-A:LEU:475:CD2:4257, V-A:TRP:381:CH2:3370, V-A:TYR:484:CZ:4345, V-B:GLU:543:CD:9880, V-B:GLU:543:CB:9878, V-A:GLU:543:CD:4906, V-A:HIS:456:CE1:4068, V-B:GLU:543:CG:9879, V-A:TRP:381:CZ2:3368, H-A:GLU:543:OE1:4907, H-A:GLU:543:OE2:4908, H-B:GLU:543:OE2:9882, V-A:SER:385:C:3403, V-A:SER:385:CA:3405, V-A:LYS:547:CE:4948, V-B:HIS:456:CD2:9040, V-A:HIS:456:CD2:4066, H-A:LYS:547:NZ:4949, V-B:HIS:456:CE1:9042, V-B:LYS:547:CE:9922, H-B:LYS:547:NZ:9923, V-B:HIS:456:CG:9038, V-B:GLY:544:C:9884, V-A:GLY:544:C:4910, V-A:GLU:543:CG:4905, V-A:GLY:544:CA:4912, V-A:GLU:543:C:4900, V-B:GLU:543:C:9874, V-A:ILE:369:CG1:3236, H-A:HIS:456:NE2:4069, V-B:LYS:547:CD:9921, H-B:GLU:543:O:9875"]

$$$$
4cc_Grossjean_2025
     RDKit          3D

 31 34  0  0  0  0  0  0  0  0999 V2000
  127.0530  128.4600   73.0090 C   0  0  0  0  0  0  0  0  0  0  0  0
  128.4420  128.5340   72.7100 O   0  0  0  0  0  0  0  0  0  0  0  0
  128.8980  128.0500   71.4980 C   0  0  0  0  0  0  0  0  0  0  0  0
  127.9350  127.8310   70.5140 C   0  0  0  0  0  0  0  0  0  0  0  0
  128.3000  127.3470   69.2600 C   0  0  0  0  0  0  0  0  0  0  0  0
  129.6380  127.0640   68.9780 C   0  0  0  0  0  0  0  0  0  0  0  0
  129.9120  126.5940   67.6800 N   0  0  0  0  0  0  0  0  0  0  0  0
  129.4630  127.0560   66.4880 C   0  0  0  0  0  0  0  0  0  0  0  0
  128.7330  128.0400   66.3620 O   0  0  0  0  0  0  0  0  0  0  0  0
  129.9060  126.3000   65.3130 C   0  0  0  0  0  0  0  0  0  0  0  0
  130.8470  124.8230   65.5100 S   0  0  0  0  0  0  0  0  0  0  0  0
  130.9300  124.5920   63.7790 C   0  0  0  0  0  0  0  0  0  0  0  0
  131.5670  123.5520   63.2470 N   0  0  0  0  0  0  0  0  0  0  0  0
  131.5700  123.4510   61.8930 C   0  0  0  0  0  0  0  0  0  0  0  0
  132.2980  122.2700   61.3210 C   0  0  0  0  0  0  0  0  0  0  0  0
  133.6600  122.0650   61.5950 C   0  0  0  0  0  0  0  0  0  0  0  0
  134.3430  120.9720   61.0670 C   0  0  0  0  0  0  0  0  0  0  0  0
  133.6720  120.0660   60.2540 C   0  0  0  0  0  0  0  0  0  0  0  0
  132.3230  120.2470   59.9630 C   0  0  0  0  0  0  0  0  0  0  0  0
  131.6450  121.3420   60.4920 C   0  0  0  0  0  0  0  0  0  0  0  0
  130.9480  124.4040   61.0800 C   0  0  0  0  0  0  0  0  0  0  0  0
  130.2750  125.5060   61.6300 C   0  0  0  0  0  0  0  0  0  0  0  0
  129.6100  126.5090   60.6810 C   0  0  0  0  0  0  0  0  0  0  0  0
  130.0690  127.7540   60.8260 F   0  0  0  0  0  0  0  0  0  0  0  0
  129.8310  126.1480   59.4170 F   0  0  0  0  0  0  0  0  0  0  0  0
  128.2960  126.5400   60.9050 F   0  0  0  0  0  0  0  0  0  0  0  0
  130.2580  125.6170   63.0500 C   0  0  0  0  0  0  0  0  0  0  0  0
  129.6840  126.5830   63.9550 C   0  0  0  0  0  0  0  0  0  0  0  0
  128.9830  127.6790   63.5210 N   0  0  0  0  0  0  0  0  0  0  0  0
  130.6140  127.2940   69.9590 C   0  0  0  0  0  0  0  0  0  0  0  0
  130.2450  127.7800   71.2100 C   0  0  0  0  0  0  0  0  0  0  0  0
  1  2  1  0
  2  3  1  0
  3  4  2  0
  4  5  1  0
  5  6  2  0
  6  7  1  0
  7  8  1  0
  8  9  2  0
  8 10  1  0
 10 11  1  0
 11 12  1  0
 12 13  2  0
 13 14  1  0
 14 15  1  0
 15 16  2  0
 16 17  1  0
 17 18  2  0
 18 19  1  0
 19 20  2  0
 14 21  2  0
 21 22  1  0
 22 23  1  0
 23 24  1  0
 23 25  1  0
 23 26  1  0
 22 27  2  0
 27 28  1  0
 28 29  1  0
  6 30  1  0
 30 31  2  0
 31  3  1  0
 28 10  2  0
 27 12  1  0
 20 15  1  0
M  END
>  <Binding energies>  (32) 
[-3.98]

>  <Ligand effiencies>  (32) 
[-0.11705882352941177]

>  <Interactions>  (32) 
["H-B:GLU:543:OE1:9881, H-A:TYR:484:OH:4346, V-B:TYR:539:CE2:9848, V-B:TYR:539:CD2:9846, V-A:GLY:454:CA:4047, V-A:ILE:369:CD1:3237, V-A:ILE:369:CG2:3235, V-A:LEU:475:CD2:4257, V-A:TRP:381:CH2:3370, V-A:TYR:484:CZ:4345, V-B:GLU:543:CD:9880, V-B:GLU:543:CB:9878, V-A:TYR:484:CE1:4343, V-A:GLU:543:CD:4906, V-A:HIS:456:CE1:4068, V-B:GLU:543:CG:9879, V-A:TRP:381:CZ2:3368, H-A:GLU:543:OE1:4907, H-A:GLU:543:OE2:4908, H-B:GLU:543:OE2:9882, V-A:SER:385:C:3403, V-B:HIS:456:CD2:9040, V-A:HIS:456:CD2:4066, V-B:HIS:456:CB:9037, H-A:LYS:547:NZ:4949, V-B:HIS:456:CE1:9042, V-B:HIS:456:CG:9038, V-B:GLY:544:C:9884, V-A:GLY:544:C:4910, V-A:GLU:543:CG:4905, V-A:GLY:544:CA:4912, V-A:GLU:543:C:4900, V-B:GLU:543:C:9874, V-A:ILE:369:CG1:3236, H-A:HIS:456:NE2:4069, H-B:GLU:543:O:9875"]

$$$$
4ce_Grossjean_2025
     RDKit          3D

 30 33  0  0  0  0  0  0  0  0999 V2000
  126.8530  133.3510   64.3140 C   0  0  0  0  0  0  0  0  0  0  0  0
  127.0490  132.8640   62.8910 C   0  0  0  0  0  0  0  0  0  0  0  0
  126.9510  133.7330   61.8010 C   0  0  0  0  0  0  0  0  0  0  0  0
  127.1510  133.2160   60.5200 C   0  0  0  0  0  0  0  0  0  0  0  0
  127.4410  131.8600   60.3610 C   0  0  0  0  0  0  0  0  0  0  0  0
  127.5190  131.0430   61.4960 C   0  0  0  0  0  0  0  0  0  0  0  0
  127.8380  129.6920   61.2730 N   0  0  0  0  0  0  0  0  0  0  0  0
  127.4280  128.5980   61.9630 C   0  0  0  0  0  0  0  0  0  0  0  0
  126.6600  128.6440   62.9250 O   0  0  0  0  0  0  0  0  0  0  0  0
  127.9590  127.3180   61.4880 C   0  0  0  0  0  0  0  0  0  0  0  0
  129.5360  126.7550   62.0370 S   0  0  0  0  0  0  0  0  0  0  0  0
  129.3800  125.2800   61.1130 C   0  0  0  0  0  0  0  0  0  0  0  0
  130.3350  124.3540   61.1190 N   0  0  0  0  0  0  0  0  0  0  0  0
  130.1180  123.2330   60.3810 C   0  0  0  0  0  0  0  0  0  0  0  0
  131.2110  122.2060   60.4140 C   0  0  0  0  0  0  0  0  0  0  0  0
  130.9050  120.8370   60.4790 C   0  0  0  0  0  0  0  0  0  0  0  0
  131.9140  119.8780   60.5170 C   0  0  0  0  0  0  0  0  0  0  0  0
  133.2460  120.2760   60.4880 C   0  0  0  0  0  0  0  0  0  0  0  0
  133.5760  121.6250   60.4250 C   0  0  0  0  0  0  0  0  0  0  0  0
  132.5640  122.5820   60.3900 C   0  0  0  0  0  0  0  0  0  0  0  0
  128.9540  123.0590   59.6240 C   0  0  0  0  0  0  0  0  0  0  0  0
  127.9430  124.0330   59.6070 C   0  0  0  0  0  0  0  0  0  0  0  0
  126.6940  123.7780   58.7580 C   0  0  0  0  0  0  0  0  0  0  0  0
  125.5900  123.6090   59.4880 F   0  0  0  0  0  0  0  0  0  0  0  0
  126.4800  124.8140   57.9460 F   0  0  0  0  0  0  0  0  0  0  0  0
  126.8620  122.6760   58.0280 F   0  0  0  0  0  0  0  0  0  0  0  0
  128.1540  125.2050   60.3890 C   0  0  0  0  0  0  0  0  0  0  0  0
  127.3610  126.3870   60.6220 C   0  0  0  0  0  0  0  0  0  0  0  0
  126.1310  126.5810   60.0480 N   0  0  0  0  0  0  0  0  0  0  0  0
  127.3290  131.5420   62.7520 N   0  0  0  0  0  0  0  0  0  0  0  0
  1  2  1  0
  2  3  2  0
  3  4  1  0
  4  5  2  0
  5  6  1  0
  6  7  1  0
  7  8  1  0
  8  9  2  0
  8 10  1  0
 10 11  1  0
 11 12  1  0
 12 13  2  0
 13 14  1  0
 14 15  1  0
 15 16  2  0
 16 17  1  0
 17 18  2  0
 18 19  1  0
 19 20  2  0
 14 21  2  0
 21 22  1  0
 22 23  1  0
 23 24  1  0
 23 25  1  0
 23 26  1  0
 22 27  2  0
 27 28  1  0
 28 29  1  0
  6 30  2  0
 30  2  1  0
 28 10  2  0
 27 12  1  0
 20 15  1  0
M  END
>  <Binding energies>  (33) 
[-5.54]

>  <Ligand effiencies>  (33) 
[-0.16787878787878788]

>  <Interactions>  (33) 
["V-B:TYR:539:CE2:9848, V-B:TYR:539:CD2:9846, V-A:ILE:369:CD1:3237, V-A:ILE:369:CG2:3235, V-A:LEU:475:CD2:4257, V-B:PRO:540:C:9853, V-A:TRP:381:CH2:3370, V-B:PRO:540:CA:9855, V-B:TYR:539:C:9839, V-B:PRO:540:N:9856, V-B:TYR:539:CA:9841, V-B:GLU:543:CD:9880, V-A:TRP:381:CZ2:3368, V-A:TYR:539:CE2:4874, H-B:ARG:545:NH2:9900, V-B:ASP:366:CG:8185, V-B:PRO:540:CB:9857, V-A:ALA:541:CB:4890, V-A:TYR:539:CD2:4872, V-B:PRO:540:CD:9859, H-B:ASP:366:OD2:8187, V-B:LEU:475:CD2:9231, V-B:TYR:484:CZ:9319, V-B:TYR:484:CE1:9317, V-B:LEU:475:CD1:9230, H-B:ASP:366:OD1:8186, V-B:LEU:475:CG:9229"]

$$$$
4cf_Grossjean_2025
     RDKit          3D

 29 32  0  0  0  0  0  0  0  0999 V2000
  126.1170  126.7290   60.5360 N   0  0  0  0  0  0  0  0  0  0  0  0
  127.3760  126.6450   61.0740 C   0  0  0  0  0  0  0  0  0  0  0  0
  127.9430  127.6540   61.8690 C   0  0  0  0  0  0  0  0  0  0  0  0
  127.3700  128.9500   62.2460 C   0  0  0  0  0  0  0  0  0  0  0  0
  126.4620  129.0170   63.0750 O   0  0  0  0  0  0  0  0  0  0  0  0
  127.9180  130.0270   61.6320 N   0  0  0  0  0  0  0  0  0  0  0  0
  127.5720  131.3880   61.7290 C   0  0  0  0  0  0  0  0  0  0  0  0
  126.9160  131.9890   62.8210 C   0  0  0  0  0  0  0  0  0  0  0  0
  126.6170  133.3520   62.7820 C   0  0  0  0  0  0  0  0  0  0  0  0
  126.9810  134.0840   61.6510 C   0  0  0  0  0  0  0  0  0  0  0  0
  127.6080  133.5290   60.5840 N   0  0  0  0  0  0  0  0  0  0  0  0
  127.8900  132.2020   60.6350 C   0  0  0  0  0  0  0  0  0  0  0  0
  129.5660  127.2150   62.3950 S   0  0  0  0  0  0  0  0  0  0  0  0
  129.4780  125.6910   61.5420 C   0  0  0  0  0  0  0  0  0  0  0  0
  130.4940  124.8310   61.5490 N   0  0  0  0  0  0  0  0  0  0  0  0
  130.3380  123.6800   60.8430 C   0  0  0  0  0  0  0  0  0  0  0  0
  131.5020  122.7330   60.8640 C   0  0  0  0  0  0  0  0  0  0  0  0
  131.4470  121.5140   60.1710 C   0  0  0  0  0  0  0  0  0  0  0  0
  132.5230  120.6300   60.1830 C   0  0  0  0  0  0  0  0  0  0  0  0
  133.6750  120.9570   60.8910 C   0  0  0  0  0  0  0  0  0  0  0  0
  133.7580  122.1600   61.5850 C   0  0  0  0  0  0  0  0  0  0  0  0
  132.6800  123.0400   61.5680 C   0  0  0  0  0  0  0  0  0  0  0  0
  129.1560  123.3890   60.1550 C   0  0  0  0  0  0  0  0  0  0  0  0
  128.0780  124.2870   60.1450 C   0  0  0  0  0  0  0  0  0  0  0  0
  126.8130  123.9070   59.3660 C   0  0  0  0  0  0  0  0  0  0  0  0
  126.9830  122.8450   58.5760 F   0  0  0  0  0  0  0  0  0  0  0  0
  125.8290  123.6170   60.2170 F   0  0  0  0  0  0  0  0  0  0  0  0
  126.4380  124.9240   58.5900 F   0  0  0  0  0  0  0  0  0  0  0  0
  128.2360  125.5060   60.8670 C   0  0  0  0  0  0  0  0  0  0  0  0
  1  2  1  0
  2  3  2  0
  3  4  1  0
  4  5  2  0
  4  6  1  0
  6  7  1  0
  7  8  2  0
  8  9  1  0
  9 10  2  0
 10 11  1  0
 11 12  2  0
  3 13  1  0
 13 14  1  0
 14 15  2  0
 15 16  1  0
 16 17  1  0
 17 18  2  0
 18 19  1  0
 19 20  2  0
 20 21  1  0
 21 22  2  0
 16 23  2  0
 23 24  1  0
 24 25  1  0
 25 26  1  0
 25 27  1  0
 25 28  1  0
 24 29  2  0
 29  2  1  0
 12  7  1  0
 29 14  1  0
 22 17  1  0
M  END
>  <Binding energies>  (34) 
[-5.62]

>  <Ligand effiencies>  (34) 
[-0.175625]

>  <Interactions>  (34) 
["V-B:TYR:539:CE2:9848, V-B:TYR:539:CD2:9846, V-A:GLY:454:CA:4047, V-A:ILE:369:CD1:3237, V-A:ILE:369:CG2:3235, V-A:LEU:475:CD2:4257, V-B:PRO:540:C:9853, V-A:TRP:381:CH2:3370, V-B:PRO:540:CA:9855, V-B:TYR:539:C:9839, V-B:PRO:540:N:9856, V-B:GLU:543:CD:9880, V-A:GLU:543:CD:4906, H-A:GLU:543:OE1:4907, H-B:ARG:545:NH2:9900, V-B:ASP:366:CG:8185, V-B:PRO:540:CB:9857, V-A:ALA:541:CB:4890, H-B:ASP:366:OD2:8187, V-B:LEU:475:CD2:9231, H-B:ASP:366:OD1:8186"]

$$$$
4ci_Grossjean_2025
     RDKit          3D

 28 31  0  0  0  0  0  0  0  0999 V2000
  126.1160  126.4540   60.0670 N   0  0  0  0  0  0  0  0  0  0  0  0
  127.3340  126.4980   60.6960 C   0  0  0  0  0  0  0  0  0  0  0  0
  127.7560  127.5850   61.4780 C   0  0  0  0  0  0  0  0  0  0  0  0
  127.0350  128.8230   61.7870 C   0  0  0  0  0  0  0  0  0  0  0  0
  125.8310  128.9280   61.5410 O   0  0  0  0  0  0  0  0  0  0  0  0
  127.7830  129.8130   62.3350 N   0  0  0  0  0  0  0  0  0  0  0  0
  127.3600  131.0790   62.7180 C   0  0  0  0  0  0  0  0  0  0  0  0
  126.5940  131.3150   63.8590 C   0  0  0  0  0  0  0  0  0  0  0  0
  126.3890  132.6740   63.8800 C   0  0  0  0  0  0  0  0  0  0  0  0
  127.0020  133.2310   62.8070 O   0  0  0  0  0  0  0  0  0  0  0  0
  127.6130  132.2090   62.0780 N   0  0  0  0  0  0  0  0  0  0  0  0
  129.3640  127.3040   62.1420 S   0  0  0  0  0  0  0  0  0  0  0  0
  129.4630  125.7430   61.3630 C   0  0  0  0  0  0  0  0  0  0  0  0
  130.5360  124.9670   61.4940 N   0  0  0  0  0  0  0  0  0  0  0  0
  130.5200  123.7690   60.8540 C   0  0  0  0  0  0  0  0  0  0  0  0
  131.7480  122.9190   61.0160 C   0  0  0  0  0  0  0  0  0  0  0  0
  131.8620  121.6860   60.3530 C   0  0  0  0  0  0  0  0  0  0  0  0
  132.9980  120.8930   60.4990 C   0  0  0  0  0  0  0  0  0  0  0  0
  134.0390  121.3240   61.3140 C   0  0  0  0  0  0  0  0  0  0  0  0
  133.9510  122.5370   61.9860 C   0  0  0  0  0  0  0  0  0  0  0  0
  132.8130  123.3260   61.8390 C   0  0  0  0  0  0  0  0  0  0  0  0
  129.4330  123.3650   60.0720 C   0  0  0  0  0  0  0  0  0  0  0  0
  128.2950  124.1750   59.9270 C   0  0  0  0  0  0  0  0  0  0  0  0
  127.1400  123.6690   59.0550 C   0  0  0  0  0  0  0  0  0  0  0  0
  126.8470  124.4910   58.0460 F   0  0  0  0  0  0  0  0  0  0  0  0
  127.4600  122.4880   58.5280 F   0  0  0  0  0  0  0  0  0  0  0  0
  126.0400  123.5370   59.7960 F   0  0  0  0  0  0  0  0  0  0  0  0
  128.2970  125.4280   60.6050 C   0  0  0  0  0  0  0  0  0  0  0  0
  1  2  1  0
  2  3  2  0
  3  4  1  0
  4  5  2  0
  4  6  1  0
  6  7  1  0
  7  8  1  0
  8  9  2  0
  9 10  1  0
 10 11  1  0
  3 12  1  0
 12 13  1  0
 13 14  2  0
 14 15  1  0
 15 16  1  0
 16 17  2  0
 17 18  1  0
 18 19  2  0
 19 20  1  0
 20 21  2  0
 15 22  2  0
 22 23  1  0
 23 24  1  0
 24 25  1  0
 24 26  1  0
 24 27  1  0
 23 28  2  0
 28  2  1  0
 11  7  2  0
 28 13  1  0
 21 16  1  0
M  END
>  <Binding energies>  (35) 
[-5.21]

>  <Ligand effiencies>  (35) 
[-0.16806451612903225]

>  <Interactions>  (35) 
["V-B:TYR:539:CE2:9848, V-B:TYR:539:CD2:9846, V-A:GLY:454:CA:4047, V-A:ILE:369:CD1:3237, V-A:ILE:369:CG2:3235, V-A:LEU:475:CD2:4257, V-B:PRO:540:C:9853, V-A:TRP:381:CH2:3370, V-B:PRO:540:CA:9855, V-A:GLY:453:C:4040, V-B:TYR:539:C:9839, V-B:PRO:540:N:9856, V-B:TYR:539:CA:9841, V-A:GLU:543:CD:4906, H-A:GLU:543:OE1:4907, H-A:GLU:543:OE2:4908, H-B:ARG:545:NH2:9900, V-B:ASP:366:CG:8185, V-B:PRO:540:CB:9857, V-A:ALA:541:CB:4890, H-B:ASP:366:OD2:8187, V-B:LEU:475:CD2:9231, V-B:TYR:484:CZ:9319, V-B:TYR:484:CE1:9317, H-B:ASP:366:OD1:8186"]

$$$$
8a_Ghoteimi_2023
     RDKit          3D

 40 44  0  0  0  0  0  0  0  0999 V2000
  126.3210  129.1120   74.7520 C   0  0  0  0  0  0  0  0  0  0  0  0
  126.7330  127.7950   74.0880 C   0  0  0  0  0  0  0  0  0  0  0  0
  128.0880  127.8810   73.6660 O   0  0  0  0  0  0  0  0  0  0  0  0
  128.4850  128.8230   72.7710 C   0  0  0  0  0  0  0  0  0  0  0  0
  128.4980  130.0320   73.0180 O   0  0  0  0  0  0  0  0  0  0  0  0
  128.9000  128.2460   71.4480 C   0  0  0  0  0  0  0  0  0  0  0  0
  127.9370  128.0720   70.4460 C   0  0  0  0  0  0  0  0  0  0  0  0
  128.2900  127.5390   69.2090 C   0  0  0  0  0  0  0  0  0  0  0  0
  129.6100  127.1670   68.9480 C   0  0  0  0  0  0  0  0  0  0  0  0
  129.8490  126.6350   67.6660 N   0  0  0  0  0  0  0  0  0  0  0  0
  129.4350  127.0640   66.4480 C   0  0  0  0  0  0  0  0  0  0  0  0
  128.7320  128.0570   66.2640 O   0  0  0  0  0  0  0  0  0  0  0  0
  129.8910  126.2550   65.3130 C   0  0  0  0  0  0  0  0  0  0  0  0
  130.7740  124.7540   65.5870 S   0  0  0  0  0  0  0  0  0  0  0  0
  130.9280  124.4760   63.8680 C   0  0  0  0  0  0  0  0  0  0  0  0
  131.5760  123.4160   63.3850 N   0  0  0  0  0  0  0  0  0  0  0  0
  131.6420  123.2970   62.0320 C   0  0  0  0  0  0  0  0  0  0  0  0
  132.3910  122.1120   61.5130 C   0  0  0  0  0  0  0  0  0  0  0  0
  133.7880  122.0370   61.6150 C   0  0  0  0  0  0  0  0  0  0  0  0
  134.4800  120.9360   61.1190 C   0  0  0  0  0  0  0  0  0  0  0  0
  133.7980  119.8840   60.5130 C   0  0  0  0  0  0  0  0  0  0  0  0
  134.5670  118.8340   60.0480 O   0  0  0  0  0  0  0  0  0  0  0  0
  134.7290  118.6610   58.6440 C   0  0  0  0  0  0  0  0  0  0  0  0
  132.4010  119.9460   60.4110 C   0  0  0  0  0  0  0  0  0  0  0  0
  131.7100  121.0500   60.9050 C   0  0  0  0  0  0  0  0  0  0  0  0
  131.0570  124.2280   61.1720 C   0  0  0  0  0  0  0  0  0  0  0  0
  130.3610  125.3330   61.6740 C   0  0  0  0  0  0  0  0  0  0  0  0
  129.7300  126.2760   60.7150 C   0  0  0  0  0  0  0  0  0  0  0  0
  128.4060  126.0890   60.3150 C   0  0  0  0  0  0  0  0  0  0  0  0
  127.8040  126.9820   59.4320 C   0  0  0  0  0  0  0  0  0  0  0  0
  128.5130  128.0780   58.9390 C   0  0  0  0  0  0  0  0  0  0  0  0
  127.8350  128.9100   58.0690 O   0  0  0  0  0  0  0  0  0  0  0  0
  126.4370  128.7260   57.8800 C   0  0  0  0  0  0  0  0  0  0  0  0
  129.8420  128.2710   59.3460 C   0  0  0  0  0  0  0  0  0  0  0  0
  130.4410  127.3780   60.2310 C   0  0  0  0  0  0  0  0  0  0  0  0
  130.2980  125.4900   63.0880 C   0  0  0  0  0  0  0  0  0  0  0  0
  129.7300  126.5040   63.9410 C   0  0  0  0  0  0  0  0  0  0  0  0
  129.1040  127.6200   63.4430 N   0  0  0  0  0  0  0  0  0  0  0  0
  130.5820  127.3420   69.9450 C   0  0  0  0  0  0  0  0  0  0  0  0
  130.2270  127.8760   71.1810 C   0  0  0  0  0  0  0  0  0  0  0  0
  1  2  1  0
  2  3  1  0
  3  4  1  0
  4  5  2  0
  4  6  1  0
  6  7  2  0
  7  8  1  0
  8  9  2  0
  9 10  1  0
 10 11  1  0
 11 12  2  0
 11 13  1  0
 13 14  1  0
 14 15  1  0
 15 16  2  0
 16 17  1  0
 17 18  1  0
 18 19  2  0
 19 20  1  0
 20 21  2  0
 21 22  1  0
 22 23  1  0
 21 24  1  0
 24 25  2  0
 17 26  2  0
 26 27  1  0
 27 28  1  0
 28 29  2  0
 29 30  1  0
 30 31  2  0
 31 32  1  0
 32 33  1  0
 31 34  1  0
 34 35  2  0
 27 36  2  0
 36 37  1  0
 37 38  1  0
  9 39  1  0
 39 40  2  0
 40  6  1  0
 37 13  2  0
 36 15  1  0
 25 18  1  0
 35 28  1  0
M  END
>  <Binding energies>  (36) 
[-0.88]

>  <Ligand effiencies>  (36) 
[-0.02046511627906977]

>  <Interactions>  (36) 
["H-B:GLU:543:OE1:9881, H-A:TYR:484:OH:4346, V-B:TYR:539:CE2:9848, V-B:TYR:539:CD2:9846, V-A:GLY:454:CA:4047, V-A:ILE:369:CD1:3237, V-A:ILE:369:CG2:3235, V-A:LEU:475:CD2:4257, V-A:TRP:381:CH2:3370, V-A:TYR:484:CZ:4345, V-B:GLU:543:CD:9880, V-B:GLU:543:CB:9878, V-A:TYR:484:CE1:4343, V-A:GLU:543:CD:4906, V-A:HIS:456:CE1:4068, V-B:GLU:543:CG:9879, V-A:TRP:381:CZ2:3368, V-A:ILE:369:CB:3234, H-A:GLU:543:OE1:4907, H-A:GLU:543:OE2:4908, H-B:GLU:543:OE2:9882, V-A:SER:385:C:3403, V-A:SER:385:CA:3405, V-A:LYS:547:CE:4948, V-B:HIS:456:CD2:9040, V-A:HIS:456:CD2:4066, V-B:HIS:456:CB:9037, H-A:LYS:547:NZ:4949, V-B:HIS:456:CE1:9042, V-B:LYS:547:CE:9922, H-B:LYS:547:NZ:9923, V-B:HIS:456:CG:9038, V-B:GLY:544:C:9884, V-A:GLY:544:C:4910, V-A:GLU:543:CG:4905, V-A:GLY:544:CA:4912, V-A:GLU:543:C:4900, V-A:TRP:381:CZ3:3369, V-A:ILE:369:CG1:3236, H-A:HIS:456:NE2:4069, V-B:LYS:547:CD:9921, V-A:SER:385:CB:3407, H-B:GLU:543:O:9875"]

$$$$
8c_Ghoteimi_2023
     RDKit          3D

 34 38  0  0  0  0  0  0  0  0999 V2000
  131.1330  126.6380   75.0570 C   0  0  0  0  0  0  0  0  0  0  0  0
  129.8670  127.0860   74.5860 O   0  0  0  0  0  0  0  0  0  0  0  0
  129.6770  127.2610   73.2280 C   0  0  0  0  0  0  0  0  0  0  0  0
  130.0740  126.2120   72.4030 C   0  0  0  0  0  0  0  0  0  0  0  0
  129.9220  126.3010   71.0220 C   0  0  0  0  0  0  0  0  0  0  0  0
  129.3680  127.4460   70.4310 C   0  0  0  0  0  0  0  0  0  0  0  0
  129.2060  127.5500   68.9470 C   0  0  0  0  0  0  0  0  0  0  0  0
  130.0340  126.8500   68.0640 C   0  0  0  0  0  0  0  0  0  0  0  0
  129.8590  126.9630   66.6810 C   0  0  0  0  0  0  0  0  0  0  0  0
  130.7580  126.2160   65.7730 C   0  0  0  0  0  0  0  0  0  0  0  0
  130.2330  125.4980   64.6950 C   0  0  0  0  0  0  0  0  0  0  0  0
  131.0800  124.8040   63.8370 C   0  0  0  0  0  0  0  0  0  0  0  0
  132.4610  124.8130   64.0420 C   0  0  0  0  0  0  0  0  0  0  0  0
  133.2240  124.0980   63.1390 O   0  0  0  0  0  0  0  0  0  0  0  0
  133.1450  124.4200   61.7550 C   0  0  0  0  0  0  0  0  0  0  0  0
  132.9870  125.5310   65.1280 C   0  0  0  0  0  0  0  0  0  0  0  0
  132.1380  126.2260   65.9850 C   0  0  0  0  0  0  0  0  0  0  0  0
  128.8160  127.8020   66.2050 C   0  0  0  0  0  0  0  0  0  0  0  0
  128.3620  128.1400   64.8820 C   0  0  0  0  0  0  0  0  0  0  0  0
  128.9500  127.6320   63.7510 N   0  0  0  0  0  0  0  0  0  0  0  0
  127.2740  129.0270   64.8630 C   0  0  0  0  0  0  0  0  0  0  0  0
  126.5630  129.5730   63.7050 C   0  0  0  0  0  0  0  0  0  0  0  0
  125.5810  128.9920   63.2370 O   0  0  0  0  0  0  0  0  0  0  0  0
  127.0630  130.7320   63.2100 N   0  0  0  0  0  0  0  0  0  0  0  0
  126.5790  131.4540   62.1280 C   0  0  0  0  0  0  0  0  0  0  0  0
  125.8120  131.0260   61.1490 N   0  0  0  0  0  0  0  0  0  0  0  0
  125.5410  131.9890   60.2900 C   0  0  0  0  0  0  0  0  0  0  0  0
  126.0960  133.2340   60.5650 C   0  0  0  0  0  0  0  0  0  0  0  0
  127.0230  133.1280   62.0320 S   0  0  0  0  0  0  0  0  0  0  0  0
  126.7800  129.4640   66.4990 S   0  0  0  0  0  0  0  0  0  0  0  0
  128.0320  128.4620   67.1960 C   0  0  0  0  0  0  0  0  0  0  0  0
  128.1990  128.3560   68.5140 N   0  0  0  0  0  0  0  0  0  0  0  0
  128.9690  128.4960   71.2680 C   0  0  0  0  0  0  0  0  0  0  0  0
  129.1200  128.4100   72.6490 C   0  0  0  0  0  0  0  0  0  0  0  0
  1  2  1  0
  2  3  1  0
  3  4  2  0
  4  5  1  0
  5  6  2  0
  6  7  1  0
  7  8  2  0
  8  9  1  0
  9 10  1  0
 10 11  2  0
 11 12  1  0
 12 13  2  0
 13 14  1  0
 14 15  1  0
 13 16  1  0
 16 17  2  0
  9 18  2  0
 18 19  1  0
 19 20  1  0
 19 21  2  0
 21 22  1  0
 22 23  2  0
 22 24  1  0
 24 25  1  0
 25 26  2  0
 26 27  1  0
 27 28  2  0
 28 29  1  0
 21 30  1  0
 30 31  1  0
 31 32  2  0
  6 33  1  0
 33 34  2  0
 34  3  1  0
 32  7  1  0
 17 10  1  0
 31 18  1  0
 29 25  1  0
M  END
>  <Binding energies>  (37) 
[-2.38]

>  <Ligand effiencies>  (37) 
[-0.06432432432432432]

>  <Interactions>  (37) 
["H-B:GLU:543:OE1:9881, H-A:TYR:484:OH:4346, H-A:GLY:454:N:4048, V-A:ARG:545:CZ:4924, V-B:GLU:543:CD:9880, V-B:GLU:543:CB:9878, V-A:ARG:545:CD:4921, V-A:GLU:543:CD:4906, V-A:HIS:456:CE1:4068, V-A:ARG:545:CG:4920, V-B:GLU:543:CG:9879, H-A:GLU:543:OE1:4907, H-A:GLU:543:OE2:4908, H-B:GLU:543:OE2:9882, V-A:TYR:539:CE2:4874, H-B:ARG:545:NH2:9900, V-A:HIS:456:CG:4064, V-A:LYS:547:CE:4948, V-B:HIS:456:CD2:9040, V-A:HIS:456:CD2:4066, H-A:LYS:547:NZ:4949, V-B:HIS:456:CE1:9042, V-B:LYS:547:CE:9922, H-B:LYS:547:NZ:9923, V-A:GLU:543:CG:4905, V-A:GLY:544:CA:4912, V-A:GLU:543:C:4900, V-A:GLU:543:CB:4904, H-B:ARG:545:NE:9896, V-A:ALA:541:CB:4890, V-A:LYS:547:CD:4947, V-A:TYR:539:CD2:4872, V-B:LEU:475:CD2:9231"]

$$$$
8d_Ghoteimi_2023
     RDKit          3D

 30 33  0  0  0  0  0  0  0  0999 V2000
  132.5790  120.5880   60.2140 C   0  0  0  0  0  0  0  0  0  0  0  0
  131.3320  120.0700   59.7700 O   0  0  0  0  0  0  0  0  0  0  0  0
  130.2020  120.2560   60.5000 C   0  0  0  0  0  0  0  0  0  0  0  0
  129.5010  119.3370   60.9330 O   0  0  0  0  0  0  0  0  0  0  0  0
  129.8900  121.6840   60.7270 C   0  0  0  0  0  0  0  0  0  0  0  0
  128.6310  122.4730   59.7750 S   0  0  0  0  0  0  0  0  0  0  0  0
  128.8990  123.9880   60.6050 C   0  0  0  0  0  0  0  0  0  0  0  0
  128.1950  125.0830   60.3150 N   0  0  0  0  0  0  0  0  0  0  0  0
  128.4820  126.2090   61.0210 C   0  0  0  0  0  0  0  0  0  0  0  0
  127.6810  127.4230   60.6740 C   0  0  0  0  0  0  0  0  0  0  0  0
  127.3730  128.3900   61.6420 C   0  0  0  0  0  0  0  0  0  0  0  0
  126.6270  129.5180   61.3130 C   0  0  0  0  0  0  0  0  0  0  0  0
  126.1680  129.7100   60.0110 C   0  0  0  0  0  0  0  0  0  0  0  0
  125.4360  130.8570   59.7760 O   0  0  0  0  0  0  0  0  0  0  0  0
  125.7640  132.0470   60.4850 C   0  0  0  0  0  0  0  0  0  0  0  0
  126.4720  128.7500   59.0340 C   0  0  0  0  0  0  0  0  0  0  0  0
  127.2190  127.6230   59.3670 C   0  0  0  0  0  0  0  0  0  0  0  0
  129.4740  126.2390   62.0060 C   0  0  0  0  0  0  0  0  0  0  0  0
  130.2110  125.0900   62.3120 C   0  0  0  0  0  0  0  0  0  0  0  0
  131.2490  125.1520   63.3660 C   0  0  0  0  0  0  0  0  0  0  0  0
  130.8850  125.3580   64.6990 C   0  0  0  0  0  0  0  0  0  0  0  0
  131.8620  125.4250   65.6890 C   0  0  0  0  0  0  0  0  0  0  0  0
  133.2120  125.2830   65.3640 C   0  0  0  0  0  0  0  0  0  0  0  0
  134.1090  125.3640   66.4110 O   0  0  0  0  0  0  0  0  0  0  0  0
  135.4870  125.1040   66.1660 C   0  0  0  0  0  0  0  0  0  0  0  0
  133.5750  125.0710   64.0240 C   0  0  0  0  0  0  0  0  0  0  0  0
  132.5970  125.0060   63.0350 C   0  0  0  0  0  0  0  0  0  0  0  0
  129.9250  123.9020   61.5880 C   0  0  0  0  0  0  0  0  0  0  0  0
  130.4730  122.5750   61.6360 C   0  0  0  0  0  0  0  0  0  0  0  0
  131.4830  122.2230   62.4960 N   0  0  0  0  0  0  0  0  0  0  0  0
  1  2  1  0
  2  3  1  0
  3  4  2  0
  3  5  1  0
  5  6  1  0
  6  7  1  0
  7  8  2  0
  8  9  1  0
  9 10  1  0
 10 11  2  0
 11 12  1  0
 12 13  2  0
 13 14  1  0
 14 15  1  0
 13 16  1  0
 16 17  2  0
  9 18  2  0
 18 19  1  0
 19 20  1  0
 20 21  2  0
 21 22  1  0
 22 23  2  0
 23 24  1  0
 24 25  1  0
 23 26  1  0
 26 27  2  0
 19 28  2  0
 28 29  1  0
 29 30  1  0
 29  5  2  0
 28  7  1  0
 17 10  1  0
 27 20  1  0
M  END
>  <Binding energies>  (38) 
[-4.47]

>  <Ligand effiencies>  (38) 
[-0.1396875]

>  <Interactions>  (38) 
["H-A:TYR:484:OH:4346, H-A:GLY:454:N:4048, V-B:TYR:539:CE2:9848, V-B:TYR:539:CD2:9846, V-A:GLY:454:CA:4047, V-B:ALA:541:CB:9864, V-A:ILE:369:CG2:3235, V-A:LEU:475:CD2:4257, V-A:TRP:381:CH2:3370, V-B:PRO:540:CA:9855, V-A:GLY:453:C:4040, V-B:TYR:539:C:9839, V-A:ARG:545:CZ:4924, V-B:GLU:543:CD:9880, V-A:ARG:545:CD:4921, V-A:GLY:453:CA:4042, V-A:HIS:456:CE1:4068, V-A:ARG:545:CG:4920, H-A:ARG:545:NE:4922, V-A:TYR:539:CE2:4874, V-B:ASP:366:CG:8185, V-A:ARG:545:CB:4919, V-A:GLY:454:C:4045, V-A:ILE:455:C:4050, H-A:HIS:456:ND1:4065, V-A:ILE:455:CA:4052, V-A:VAL:452:CG2:4038, V-A:VAL:452:C:4032"]

$$$$
9a_Ghoteimi_2023
     RDKit          3D

 48 54  0  0  0  0  0  0  0  0999 V2000
  127.1790  128.7530   73.4400 C   0  0  0  0  0  0  0  0  0  0  0  0
  127.5510  128.5400   74.9110 C   0  0  0  0  0  0  0  0  0  0  0  0
  128.3000  127.3380   75.0410 O   0  0  0  0  0  0  0  0  0  0  0  0
  129.5870  127.2640   74.6130 C   0  0  0  0  0  0  0  0  0  0  0  0
  130.5600  127.3080   75.3740 O   0  0  0  0  0  0  0  0  0  0  0  0
  129.7110  127.1320   73.1230 C   0  0  0  0  0  0  0  0  0  0  0  0
  129.5890  125.8660   72.5350 C   0  0  0  0  0  0  0  0  0  0  0  0
  129.7010  125.7100   71.1570 C   0  0  0  0  0  0  0  0  0  0  0  0
  129.9350  126.8140   70.3370 C   0  0  0  0  0  0  0  0  0  0  0  0
  130.0310  126.5380   68.9590 N   0  0  0  0  0  0  0  0  0  0  0  0
  129.2910  126.9950   67.9180 C   0  0  0  0  0  0  0  0  0  0  0  0
  128.3530  127.7840   68.0290 O   0  0  0  0  0  0  0  0  0  0  0  0
  129.6860  126.4890   66.6000 C   0  0  0  0  0  0  0  0  0  0  0  0
  130.6180  124.9970   66.4610 S   0  0  0  0  0  0  0  0  0  0  0  0
  130.6350  125.1170   64.7170 C   0  0  0  0  0  0  0  0  0  0  0  0
  131.2230  124.1910   63.9600 N   0  0  0  0  0  0  0  0  0  0  0  0
  131.1690  124.3720   62.6130 C   0  0  0  0  0  0  0  0  0  0  0  0
  131.8250  123.3160   61.7830 C   0  0  0  0  0  0  0  0  0  0  0  0
  131.0580  122.4620   60.9830 C   0  0  0  0  0  0  0  0  0  0  0  0
  131.6610  121.4770   60.2060 C   0  0  0  0  0  0  0  0  0  0  0  0
  133.0550  121.3180   60.1890 C   0  0  0  0  0  0  0  0  0  0  0  0
  133.6740  120.3200   59.4280 N   0  0  0  0  0  0  0  0  0  0  0  0
  134.3680  119.1830   60.0640 C   0  0  0  0  0  0  0  0  0  0  0  0
  135.2840  118.3960   59.1040 C   0  0  0  0  0  0  0  0  0  0  0  0
  134.5500  117.9730   57.9670 O   0  0  0  0  0  0  0  0  0  0  0  0
  134.0150  119.0770   57.2530 C   0  0  0  0  0  0  0  0  0  0  0  0
  133.0570  119.8760   58.1600 C   0  0  0  0  0  0  0  0  0  0  0  0
  133.8180  122.1670   61.0030 C   0  0  0  0  0  0  0  0  0  0  0  0
  133.2150  123.1500   61.7820 C   0  0  0  0  0  0  0  0  0  0  0  0
  130.5560  125.4850   62.0340 C   0  0  0  0  0  0  0  0  0  0  0  0
  129.9550  126.4690   62.8270 C   0  0  0  0  0  0  0  0  0  0  0  0
  129.3490  127.6500   62.1610 C   0  0  0  0  0  0  0  0  0  0  0  0
  127.9610  127.7990   62.1020 C   0  0  0  0  0  0  0  0  0  0  0  0
  127.3960  128.9140   61.4900 C   0  0  0  0  0  0  0  0  0  0  0  0
  128.2040  129.9190   60.9350 C   0  0  0  0  0  0  0  0  0  0  0  0
  127.6590  131.0410   60.3060 N   0  0  0  0  0  0  0  0  0  0  0  0
  128.5630  132.1000   59.8130 C   0  0  0  0  0  0  0  0  0  0  0  0
  127.8840  133.0700   58.8230 C   0  0  0  0  0  0  0  0  0  0  0  0
  126.7210  133.6310   59.4120 O   0  0  0  0  0  0  0  0  0  0  0  0
  125.7760  132.6320   59.7610 C   0  0  0  0  0  0  0  0  0  0  0  0
  126.3980  131.6490   60.7760 C   0  0  0  0  0  0  0  0  0  0  0  0
  129.5950  129.7600   61.0030 C   0  0  0  0  0  0  0  0  0  0  0  0
  130.1610  128.6440   61.6120 C   0  0  0  0  0  0  0  0  0  0  0  0
  129.9680  126.2820   64.2390 C   0  0  0  0  0  0  0  0  0  0  0  0
  129.4140  127.0360   65.3360 C   0  0  0  0  0  0  0  0  0  0  0  0
  128.6760  128.1760   65.1500 N   0  0  0  0  0  0  0  0  0  0  0  0
  130.0550  128.0870   70.9160 C   0  0  0  0  0  0  0  0  0  0  0  0
  129.9430  128.2410   72.2950 C   0  0  0  0  0  0  0  0  0  0  0  0
  1  2  1  0
  2  3  1  0
  3  4  1  0
  4  5  2  0
  4  6  1  0
  6  7  2  0
  7  8  1  0
  8  9  2  0
  9 10  1  0
 10 11  1  0
 11 12  2  0
 11 13  1  0
 13 14  1  0
 14 15  1  0
 15 16  2  0
 16 17  1  0
 17 18  1  0
 18 19  2  0
 19 20  1  0
 20 21  2  0
 21 22  1  0
 22 23  1  0
 23 24  1  0
 24 25  1  0
 25 26  1  0
 26 27  1  0
 21 28  1  0
 28 29  2  0
 17 30  2  0
 30 31  1  0
 31 32  1  0
 32 33  2  0
 33 34  1  0
 34 35  2  0
 35 36  1  0
 36 37  1  0
 37 38  1  0
 38 39  1  0
 39 40  1  0
 40 41  1  0
 35 42  1  0
 42 43  2  0
 31 44  2  0
 44 45  1  0
 45 46  1  0
  9 47  1  0
 47 48  2  0
 48  6  1  0
 45 13  2  0
 44 15  1  0
 29 18  1  0
 43 32  1  0
 27 22  1  0
 41 36  1  0
M  END
>  <Binding energies>  (39) 
[23.2]

>  <Ligand effiencies>  (39) 
[0.4549019607843137]

>  <Interactions>  (39) 
["H-A:TYR:484:OH:4346, V-B:TYR:539:CZ:9849, V-B:TYR:539:CE2:9848, V-B:TYR:539:CD2:9846, V-A:ILE:369:CD1:3237, V-A:ILE:369:CG2:3235, V-A:LEU:475:CD2:4257, V-A:TRP:381:CH2:3370, V-B:TYR:539:CG:9844, V-A:TYR:484:CZ:4345, V-B:GLU:543:CD:9880, V-B:GLU:543:CB:9878, V-A:TYR:484:CE1:4343, V-A:GLU:543:CD:4906, V-A:HIS:456:CE1:4068, V-B:GLU:543:CG:9879, V-A:TRP:381:CZ2:3368, V-A:ILE:369:CB:3234, H-A:GLU:543:OE1:4907, V-A:TYR:539:C:4865, H-A:GLU:543:OE2:4908, H-B:GLU:543:OE2:9882, V-A:SER:385:C:3403, V-A:TYR:539:CE2:4874, V-A:SER:385:CA:3405, V-A:HIS:456:CG:4064, V-A:LYS:547:CE:4948, V-B:HIS:456:CD2:9040, V-A:HIS:456:CD2:4066, V-B:HIS:456:CB:9037, H-A:LYS:547:NZ:4949, V-B:LYS:547:CE:9922, H-B:LYS:547:NZ:9923, V-B:HIS:456:CG:9038, V-A:GLY:544:C:4910, V-A:GLU:543:CG:4905, V-A:GLY:544:CA:4912, V-A:GLU:543:C:4900, V-B:GLU:543:C:9874, V-A:TRP:381:CZ3:3369, V-A:GLU:543:CB:4904, V-A:TYR:539:CZ:4875, V-B:GLY:544:CA:9886, H-A:HIS:456:NE2:4069, V-A:TYR:539:CD2:4872, V-A:TYR:539:CG:4870, V-A:SER:385:CB:3407, H-B:GLU:543:O:9875, V-A:LEU:373:CD2:3279, H-A:ASN:382:ND2:3379, V-A:VAL:384:C:3395"]

$$$$
9b_Ghoteimi_2023
     RDKit          3D

 42 48  0  0  0  0  0  0  0  0999 V2000
  129.4340  126.9240   60.6020 N   0  0  0  0  0  0  0  0  0  0  0  0
  128.8460  127.6630   61.5970 C   0  0  0  0  0  0  0  0  0  0  0  0
  128.0270  128.7760   61.3520 C   0  0  0  0  0  0  0  0  0  0  0  0
  127.6210  129.3460   60.0650 C   0  0  0  0  0  0  0  0  0  0  0  0
  126.5510  129.0240   59.5430 O   0  0  0  0  0  0  0  0  0  0  0  0
  128.4960  130.2240   59.5140 N   0  0  0  0  0  0  0  0  0  0  0  0
  128.3730  130.8990   58.3070 C   0  0  0  0  0  0  0  0  0  0  0  0
  129.3790  131.7070   57.7800 C   0  0  0  0  0  0  0  0  0  0  0  0
  128.8730  132.1810   56.5920 C   0  0  0  0  0  0  0  0  0  0  0  0
  127.6250  131.6840   56.4130 O   0  0  0  0  0  0  0  0  0  0  0  0
  127.3200  130.8740   57.5070 N   0  0  0  0  0  0  0  0  0  0  0  0
  127.4700  129.5010   62.8590 S   0  0  0  0  0  0  0  0  0  0  0  0
  128.3490  128.3240   63.8040 C   0  0  0  0  0  0  0  0  0  0  0  0
  128.3510  128.3570   65.1360 N   0  0  0  0  0  0  0  0  0  0  0  0
  129.0810  127.4070   65.7760 C   0  0  0  0  0  0  0  0  0  0  0  0
  129.0820  127.4790   67.2680 C   0  0  0  0  0  0  0  0  0  0  0  0
  130.2800  127.4640   67.9930 C   0  0  0  0  0  0  0  0  0  0  0  0
  130.2740  127.5170   69.3830 C   0  0  0  0  0  0  0  0  0  0  0  0
  129.0700  127.5730   70.1020 C   0  0  0  0  0  0  0  0  0  0  0  0
  129.0480  127.6300   71.5000 N   0  0  0  0  0  0  0  0  0  0  0  0
  129.8260  126.6800   72.3200 C   0  0  0  0  0  0  0  0  0  0  0  0
  129.9610  127.0980   73.7990 C   0  0  0  0  0  0  0  0  0  0  0  0
  128.6780  127.3200   74.3590 O   0  0  0  0  0  0  0  0  0  0  0  0
  127.9850  128.3550   73.6800 C   0  0  0  0  0  0  0  0  0  0  0  0
  127.7920  127.9790   72.1950 C   0  0  0  0  0  0  0  0  0  0  0  0
  127.8740  127.6080   69.3700 C   0  0  0  0  0  0  0  0  0  0  0  0
  127.8800  127.5590   67.9790 C   0  0  0  0  0  0  0  0  0  0  0  0
  129.7830  126.4150   65.0860 C   0  0  0  0  0  0  0  0  0  0  0  0
  129.7680  126.3640   63.6880 C   0  0  0  0  0  0  0  0  0  0  0  0
  130.5060  125.2720   63.0030 C   0  0  0  0  0  0  0  0  0  0  0  0
  131.7060  124.7940   63.5310 C   0  0  0  0  0  0  0  0  0  0  0  0
  132.3890  123.7580   62.9030 C   0  0  0  0  0  0  0  0  0  0  0  0
  131.8920  123.1710   61.7290 C   0  0  0  0  0  0  0  0  0  0  0  0
  132.5550  122.1190   61.0900 N   0  0  0  0  0  0  0  0  0  0  0  0
  133.8470  121.6500   61.6250 C   0  0  0  0  0  0  0  0  0  0  0  0
  134.6420  120.7860   60.6220 C   0  0  0  0  0  0  0  0  0  0  0  0
  133.8500  119.6910   60.1900 O   0  0  0  0  0  0  0  0  0  0  0  0
  132.6580  120.1230   59.5500 C   0  0  0  0  0  0  0  0  0  0  0  0
  131.8150  120.9740   60.5230 C   0  0  0  0  0  0  0  0  0  0  0  0
  130.6760  123.6480   61.2180 C   0  0  0  0  0  0  0  0  0  0  0  0
  129.9920  124.6850   61.8460 C   0  0  0  0  0  0  0  0  0  0  0  0
  129.0370  127.3710   62.9960 C   0  0  0  0  0  0  0  0  0  0  0  0
  1  2  1  0
  2  3  2  0
  3  4  1  0
  4  5  2  0
  4  6  1  0
  6  7  1  0
  7  8  1  0
  8  9  2  0
  9 10  1  0
 10 11  1  0
  3 12  1  0
 12 13  1  0
 13 14  2  0
 14 15  1  0
 15 16  1  0
 16 17  2  0
 17 18  1  0
 18 19  2  0
 19 20  1  0
 20 21  1  0
 21 22  1  0
 22 23  1  0
 23 24  1  0
 24 25  1  0
 19 26  1  0
 26 27  2  0
 15 28  2  0
 28 29  1  0
 29 30  1  0
 30 31  2  0
 31 32  1  0
 32 33  2  0
 33 34  1  0
 34 35  1  0
 35 36  1  0
 36 37  1  0
 37 38  1  0
 38 39  1  0
 33 40  1  0
 40 41  2  0
 29 42  2  0
 42  2  1  0
 11  7  2  0
 42 13  1  0
 27 16  1  0
 41 30  1  0
 25 20  1  0
 39 34  1  0
M  END
>  <Binding energies>  (40) 
[1.45]

>  <Ligand effiencies>  (40) 
[0.03222222222222222]

>  <Interactions>  (40) 
["V-B:TYR:539:CE2:9848, V-B:TYR:539:CD2:9846, V-A:GLY:454:CA:4047, V-A:ILE:369:CD1:3237, V-A:ILE:369:CG2:3235, V-A:LEU:475:CD2:4257, V-A:TRP:381:CH2:3370, V-B:GLU:543:CD:9880, V-B:GLU:543:CB:9878, V-A:GLU:543:CD:4906, V-A:HIS:456:CE1:4068, V-B:GLU:543:CG:9879, V-A:TRP:381:CZ2:3368, V-A:ILE:369:CB:3234, V-A:TYR:539:C:4865, V-A:SER:385:C:3403, V-A:TYR:539:CE2:4874, V-A:SER:385:CA:3405, V-A:LYS:547:CE:4948, V-B:HIS:456:CD2:9040, V-A:HIS:456:CD2:4066, H-A:LYS:547:NZ:4949, V-B:HIS:456:CE1:9042, V-B:LYS:547:CE:9922, H-B:LYS:547:NZ:9923, V-B:HIS:456:CG:9038, V-B:GLY:544:C:9884, V-A:GLY:544:C:4910, V-A:GLU:543:CG:4905, V-A:GLU:543:C:4900, V-A:TRP:381:CZ3:3369, V-A:ILE:369:CG1:3236, V-A:TYR:539:CZ:4875, V-A:TYR:539:CD2:4872, H-A:TYR:539:OH:4876, V-A:TYR:539:CG:4870, V-A:TYR:539:CE1:4873, V-A:TYR:539:CD1:4871"]

$$$$
9c_Ghoteimi_2023
     RDKit          3D

 42 48  0  0  0  0  0  0  0  0999 V2000
  129.4500  126.8770   60.7660 N   0  0  0  0  0  0  0  0  0  0  0  0
  128.8480  127.5830   61.7760 C   0  0  0  0  0  0  0  0  0  0  0  0
  127.9920  128.6730   61.5540 C   0  0  0  0  0  0  0  0  0  0  0  0
  127.5600  129.2500   60.2780 C   0  0  0  0  0  0  0  0  0  0  0  0
  126.4170  129.0650   59.8560 O   0  0  0  0  0  0  0  0  0  0  0  0
  128.4980  129.9760   59.6200 N   0  0  0  0  0  0  0  0  0  0  0  0
  128.3540  130.6120   58.3950 C   0  0  0  0  0  0  0  0  0  0  0  0
  127.4430  130.3910   57.4720 N   0  0  0  0  0  0  0  0  0  0  0  0
  127.6110  131.1790   56.4280 C   0  0  0  0  0  0  0  0  0  0  0  0
  128.6830  132.0650   56.4910 C   0  0  0  0  0  0  0  0  0  0  0  0
  129.5080  131.8470   58.0050 S   0  0  0  0  0  0  0  0  0  0  0  0
  127.4250  129.3590   63.0760 S   0  0  0  0  0  0  0  0  0  0  0  0
  128.3500  128.1970   63.9970 C   0  0  0  0  0  0  0  0  0  0  0  0
  128.3600  128.2110   65.3290 N   0  0  0  0  0  0  0  0  0  0  0  0
  129.1250  127.2760   65.9490 C   0  0  0  0  0  0  0  0  0  0  0  0
  129.1350  127.3270   67.4430 C   0  0  0  0  0  0  0  0  0  0  0  0
  127.9430  127.3840   68.1740 C   0  0  0  0  0  0  0  0  0  0  0  0
  127.9570  127.4410   69.5640 C   0  0  0  0  0  0  0  0  0  0  0  0
  129.1680  127.4570   70.2760 C   0  0  0  0  0  0  0  0  0  0  0  0
  129.2000  127.5070   71.6740 N   0  0  0  0  0  0  0  0  0  0  0  0
  130.2430  126.8010   72.4450 C   0  0  0  0  0  0  0  0  0  0  0  0
  130.3360  127.2440   73.9210 C   0  0  0  0  0  0  0  0  0  0  0  0
  129.0680  127.1140   74.5450 O   0  0  0  0  0  0  0  0  0  0  0  0
  128.0920  127.9250   73.9110 C   0  0  0  0  0  0  0  0  0  0  0  0
  127.9320  127.5070   72.4330 C   0  0  0  0  0  0  0  0  0  0  0  0
  130.3590  127.3800   69.5390 C   0  0  0  0  0  0  0  0  0  0  0  0
  130.3430  127.3190   68.1480 C   0  0  0  0  0  0  0  0  0  0  0  0
  129.8520  126.3160   65.2410 C   0  0  0  0  0  0  0  0  0  0  0  0
  129.8270  126.2840   63.8420 C   0  0  0  0  0  0  0  0  0  0  0  0
  130.5910  125.2260   63.1360 C   0  0  0  0  0  0  0  0  0  0  0  0
  130.5580  123.9080   63.5940 C   0  0  0  0  0  0  0  0  0  0  0  0
  131.2600  122.9100   62.9240 C   0  0  0  0  0  0  0  0  0  0  0  0
  132.0160  123.2040   61.7790 C   0  0  0  0  0  0  0  0  0  0  0  0
  132.7200  122.2150   61.0840 N   0  0  0  0  0  0  0  0  0  0  0  0
  133.9140  121.6090   61.7060 C   0  0  0  0  0  0  0  0  0  0  0  0
  134.8010  120.8430   60.7020 C   0  0  0  0  0  0  0  0  0  0  0  0
  134.0320  119.8590   60.0270 O   0  0  0  0  0  0  0  0  0  0  0  0
  132.9540  120.4370   59.3080 C   0  0  0  0  0  0  0  0  0  0  0  0
  132.0210  121.1980   60.2750 C   0  0  0  0  0  0  0  0  0  0  0  0
  132.0250  124.5280   61.3160 C   0  0  0  0  0  0  0  0  0  0  0  0
  131.3230  125.5260   61.9850 C   0  0  0  0  0  0  0  0  0  0  0  0
  129.0600  127.2780   63.1690 C   0  0  0  0  0  0  0  0  0  0  0  0
  1  2  1  0
  2  3  2  0
  3  4  1  0
  4  5  2  0
  4  6  1  0
  6  7  1  0
  7  8  2  0
  8  9  1  0
  9 10  2  0
 10 11  1  0
  3 12  1  0
 12 13  1  0
 13 14  2  0
 14 15  1  0
 15 16  1  0
 16 17  2  0
 17 18  1  0
 18 19  2  0
 19 20  1  0
 20 21  1  0
 21 22  1  0
 22 23  1  0
 23 24  1  0
 24 25  1  0
 19 26  1  0
 26 27  2  0
 15 28  2  0
 28 29  1  0
 29 30  1  0
 30 31  2  0
 31 32  1  0
 32 33  2  0
 33 34  1  0
 34 35  1  0
 35 36  1  0
 36 37  1  0
 37 38  1  0
 38 39  1  0
 33 40  1  0
 40 41  2  0
 29 42  2  0
 42  2  1  0
 11  7  1  0
 42 13  1  0
 27 16  1  0
 41 30  1  0
 25 20  1  0
 39 34  1  0
M  END
>  <Binding energies>  (41) 
[1.84]

>  <Ligand effiencies>  (41) 
[0.04088888888888889]

>  <Interactions>  (41) 
["V-B:TYR:539:CE2:9848, V-B:TYR:539:CD2:9846, V-A:GLY:454:CA:4047, V-A:ILE:369:CD1:3237, V-A:ILE:369:CG2:3235, V-A:LEU:475:CD2:4257, V-A:TRP:381:CH2:3370, V-B:GLU:543:CD:9880, V-B:GLU:543:CB:9878, V-A:GLU:543:CD:4906, V-A:HIS:456:CE1:4068, V-B:GLU:543:CG:9879, V-A:TRP:381:CZ2:3368, V-A:ILE:369:CB:3234, V-A:PRO:540:CA:4881, V-A:TYR:539:C:4865, V-A:SER:385:C:3403, V-A:TYR:539:CE2:4874, V-A:SER:385:CA:3405, V-A:LYS:547:CE:4948, V-A:HIS:456:CD2:4066, H-A:LYS:547:NZ:4949, V-B:HIS:456:CE1:9042, V-B:LYS:547:CE:9922, H-B:LYS:547:NZ:9923, V-B:GLY:544:C:9884, V-A:GLY:544:C:4910, V-A:GLU:543:CG:4905, V-A:GLU:543:C:4900, V-B:GLU:543:C:9874, V-A:TRP:381:CZ3:3369, V-A:ILE:369:CG1:3236, V-A:PRO:540:N:4882, V-A:TYR:539:CZ:4875, V-B:GLY:544:CA:9886, V-A:LYS:547:CD:4947, V-A:TYR:539:CD2:4872, V-A:TYR:539:CG:4870, V-A:TYR:539:CE1:4873, V-A:TYR:539:CD1:4871"]

$$$$
RR11_Rahimova_2017
     RDKit          3D

 33 38  0  0  0  0  0  0  0  0999 V2000
  128.6290  126.7100   70.2260 N   0  0  0  0  0  0  0  0  0  0  0  0
  128.2180  127.3210   69.0430 C   0  0  0  0  0  0  0  0  0  0  0  0
  129.1020  128.1360   68.3390 C   0  0  0  0  0  0  0  0  0  0  0  0
  128.6910  128.7430   67.1560 C   0  0  0  0  0  0  0  0  0  0  0  0
  127.3940  128.5410   66.6660 C   0  0  0  0  0  0  0  0  0  0  0  0
  126.9550  129.1920   65.3880 C   0  0  0  0  0  0  0  0  0  0  0  0
  126.9770  128.6070   64.2100 N   0  0  0  0  0  0  0  0  0  0  0  0
  126.4860  129.5380   63.3330 C   0  0  0  0  0  0  0  0  0  0  0  0
  126.2880  129.4340   61.9490 C   0  0  0  0  0  0  0  0  0  0  0  0
  125.7490  130.5330   61.2700 C   0  0  0  0  0  0  0  0  0  0  0  0
  125.5280  130.4520   59.7650 C   0  0  0  0  0  0  0  0  0  0  0  0
  126.3450  129.3510   59.1040 C   0  0  0  0  0  0  0  0  0  0  0  0
  125.7590  128.5640   58.1060 C   0  0  0  0  0  0  0  0  0  0  0  0
  126.4710  127.5480   57.4640 C   0  0  0  0  0  0  0  0  0  0  0  0
  127.8040  127.3360   57.8400 C   0  0  0  0  0  0  0  0  0  0  0  0
  128.7010  126.4110   57.3730 N   0  0  0  0  0  0  0  0  0  0  0  0
  129.8070  126.6260   58.0530 C   0  0  0  0  0  0  0  0  0  0  0  0
  131.0710  125.8320   57.8900 C   0  0  0  0  0  0  0  0  0  0  0  0
  131.4610  124.9080   58.8680 C   0  0  0  0  0  0  0  0  0  0  0  0
  132.6390  124.1790   58.7230 C   0  0  0  0  0  0  0  0  0  0  0  0
  133.4350  124.3700   57.5960 C   0  0  0  0  0  0  0  0  0  0  0  0
  134.6170  123.6440   57.4510 N   0  0  0  0  0  0  0  0  0  0  0  0
  133.0580  125.2810   56.6130 C   0  0  0  0  0  0  0  0  0  0  0  0
  131.8800  126.0090   56.7600 C   0  0  0  0  0  0  0  0  0  0  0  0
  129.6690  127.6660   58.9470 N   0  0  0  0  0  0  0  0  0  0  0  0
  128.3860  128.1490   58.8410 C   0  0  0  0  0  0  0  0  0  0  0  0
  127.6820  129.1700   59.4840 C   0  0  0  0  0  0  0  0  0  0  0  0
  125.4410  131.7140   61.9550 C   0  0  0  0  0  0  0  0  0  0  0  0
  125.6320  131.8510   63.3320 C   0  0  0  0  0  0  0  0  0  0  0  0
  126.1550  130.7410   64.0000 C   0  0  0  0  0  0  0  0  0  0  0  0
  126.4710  130.4820   65.3130 N   0  0  0  0  0  0  0  0  0  0  0  0
  126.5150  127.7200   67.3850 C   0  0  0  0  0  0  0  0  0  0  0  0
  126.9240  127.1110   68.5680 C   0  0  0  0  0  0  0  0  0  0  0  0
  1  2  1  0
  2  3  2  0
  3  4  1  0
  4  5  2  0
  5  6  1  0
  6  7  2  0
  7  8  1  0
  8  9  2  0
  9 10  1  0
 10 11  1  0
 11 12  1  0
 12 13  2  0
 13 14  1  0
 14 15  2  0
 15 16  1  0
 16 17  2  0
 17 18  1  0
 18 19  2  0
 19 20  1  0
 20 21  2  0
 21 22  1  0
 21 23  1  0
 23 24  2  0
 17 25  1  0
 25 26  1  0
 26 27  2  0
 10 28  2  0
 28 29  1  0
 29 30  2  0
 30 31  1  0
  5 32  1  0
 32 33  2  0
 33  2  1  0
 31  6  1  0
 30  8  1  0
 27 12  1  0
 26 15  1  0
 24 18  1  0
M  END
>  <Binding energies>  (42) 
[-4.95]

>  <Ligand effiencies>  (42) 
[-0.12692307692307692]

>  <Interactions>  (42) 
["V-A:ASP:366:CG:3211, V-B:TYR:539:CZ:9849, V-A:ASP:366:CA:3208, V-B:TYR:539:CE2:9848, V-A:ASP:366:CB:3210, V-A:ILE:369:CD1:3237, V-A:ILE:369:CG2:3235, V-B:GLU:543:CD:9880, V-A:GLU:543:CD:4906, V-B:GLU:543:CG:9879, V-A:ASP:366:C:3206, V-A:ILE:369:CB:3234, H-B:ARG:545:NH2:9900, V-B:ASP:366:CG:8185, V-B:ASP:366:CB:8184, H-B:TYR:539:OH:9850, V-B:HIS:456:CE1:9042, V-B:GLY:544:C:9884, V-A:GLU:543:CG:4905, V-B:ARG:545:CG:9894, V-A:GLU:543:C:4900, V-B:GLU:543:C:9874, H-B:GLY:544:O:9885, H-B:HIS:456:NE2:9043, V-A:GLU:543:CB:4904, V-B:ARG:545:CD:9895, V-B:GLY:544:CA:9886, H-B:TYR:484:OH:9320, H-A:HIS:456:NE2:4069, H-A:GLU:543:O:4901, V-B:ARG:545:CA:9891, V-A:TYR:531:CZ:4792, V-A:TYR:531:CE1:4790, V-A:ILE:369:CA:3232, V-A:ILE:369:C:3230, H-A:ASP:366:OD2:3213, V-B:TYR:484:CZ:9319, H-B:GLU:543:O:9875, V-B:TYR:484:CE1:9317, H-A:ASP:366:O:3207, H-A:CYS:365:O:3204"]

$$$$
RR16_Rahimova_2017
     RDKit          3D

 44 49  0  0  0  0  0  0  0  0999 V2000
  134.1540  121.1220   60.2710 O   0  0  0  0  0  0  0  0  0  0  0  0
  133.7310  122.4240   60.8000 S   0  0  0  0  0  0  0  0  0  0  0  0
  134.6260  123.5860   60.7440 O   0  0  0  0  0  0  0  0  0  0  0  0
  133.2500  122.1830   62.4810 N   0  0  0  0  0  0  0  0  0  0  0  0
  132.4730  123.2160   63.2060 C   0  0  0  0  0  0  0  0  0  0  0  0
  132.5740  124.5600   62.4390 C   0  0  0  0  0  0  0  0  0  0  0  0
  132.1110  125.8310   63.1770 C   0  0  0  0  0  0  0  0  0  0  0  0
  130.7160  125.7110   63.8140 C   0  0  0  0  0  0  0  0  0  0  0  0
  130.6000  124.7370   65.0020 C   0  0  0  0  0  0  0  0  0  0  0  0
  130.3260  123.2560   64.6730 C   0  0  0  0  0  0  0  0  0  0  0  0
  131.0400  122.6810   63.4340 C   0  0  0  0  0  0  0  0  0  0  0  0
  132.2130  122.8560   59.9600 C   0  0  0  0  0  0  0  0  0  0  0  0
  132.1820  123.9310   59.0680 C   0  0  0  0  0  0  0  0  0  0  0  0
  130.9700  124.3330   58.5150 C   0  0  0  0  0  0  0  0  0  0  0  0
  129.7950  123.6600   58.8550 C   0  0  0  0  0  0  0  0  0  0  0  0
  128.2170  124.2620   58.2580 S   0  0  0  0  0  0  0  0  0  0  0  0
  127.2110  123.2350   58.5610 O   0  0  0  0  0  0  0  0  0  0  0  0
  128.4150  124.7200   56.8760 O   0  0  0  0  0  0  0  0  0  0  0  0
  127.8840  125.6820   59.2670 N   0  0  0  0  0  0  0  0  0  0  0  0
  127.1920  125.3790   60.5470 C   0  0  0  0  0  0  0  0  0  0  0  0
  126.6710  126.6760   61.2000 C   0  0  0  0  0  0  0  0  0  0  0  0
  127.7930  127.7330   61.3540 C   0  0  0  0  0  0  0  0  0  0  0  0
  127.2850  129.0450   61.9570 C   0  0  0  0  0  0  0  0  0  0  0  0
  126.6770  129.0410   63.2200 C   0  0  0  0  0  0  0  0  0  0  0  0
  126.2070  130.2150   63.8110 C   0  0  0  0  0  0  0  0  0  0  0  0
  125.6180  130.1920   65.0490 O   0  0  0  0  0  0  0  0  0  0  0  0
  126.3600  131.4180   63.1070 C   0  0  0  0  0  0  0  0  0  0  0  0
  126.0200  132.6990   63.4350 N   0  0  0  0  0  0  0  0  0  0  0  0
  126.4210  133.5130   62.3980 N   0  0  0  0  0  0  0  0  0  0  0  0
  126.9550  132.7410   61.4330 N   0  0  0  0  0  0  0  0  0  0  0  0
  127.5430  133.3510   60.2470 C   0  0  0  0  0  0  0  0  0  0  0  0
  128.7420  132.5750   59.7200 C   0  0  0  0  0  0  0  0  0  0  0  0
  128.8160  132.2330   58.3660 C   0  0  0  0  0  0  0  0  0  0  0  0
  129.9240  131.5410   57.8750 C   0  0  0  0  0  0  0  0  0  0  0  0
  130.9640  131.1880   58.7360 C   0  0  0  0  0  0  0  0  0  0  0  0
  130.8980  131.5280   60.0870 C   0  0  0  0  0  0  0  0  0  0  0  0
  132.1870  131.1030   61.1530 Cl  0  0  0  0  0  0  0  0  0  0  0  0
  129.7870  132.2170   60.5790 C   0  0  0  0  0  0  0  0  0  0  0  0
  126.9680  131.4130   61.8290 C   0  0  0  0  0  0  0  0  0  0  0  0
  127.4360  130.2370   61.2340 C   0  0  0  0  0  0  0  0  0  0  0  0
  128.5870  127.9440   60.0380 C   0  0  0  0  0  0  0  0  0  0  0  0
  129.0380  126.6070   59.4170 C   0  0  0  0  0  0  0  0  0  0  0  0
  129.8330  122.5590   59.7150 C   0  0  0  0  0  0  0  0  0  0  0  0
  131.0440  122.1600   60.2700 C   0  0  0  0  0  0  0  0  0  0  0  0
  1  2  2  0
  2  3  2  0
  2  4  1  0
  4  5  1  0
  5  6  1  0
  6  7  1  0
  7  8  1  0
  8  9  1  0
  9 10  1  0
 10 11  1  0
  2 12  1  0
 12 13  2  0
 13 14  1  0
 14 15  2  0
 15 16  1  0
 16 17  2  0
 16 18  2  0
 16 19  1  0
 19 20  1  0
 20 21  1  0
 21 22  1  0
 22 23  1  0
 23 24  2  0
 24 25  1  0
 25 26  1  0
 25 27  2  0
 27 28  1  0
 28 29  2  0
 29 30  1  0
 30 31  1  0
 31 32  1  0
 32 33  2  0
 33 34  1  0
 34 35  2  0
 35 36  1  0
 36 37  1  0
 36 38  2  0
 30 39  1  0
 39 40  2  0
 22 41  1  0
 41 42  1  0
 15 43  1  0
 43 44  2  0
 11  5  1  0
 44 12  1  0
 42 19  1  0
 40 23  1  0
 39 27  1  0
 38 32  1  0
M  END
>  <Binding energies>  (43) 
[-7.12]

>  <Ligand effiencies>  (43) 
[-0.14833333333333334]

>  <Interactions>  (43) 
["H-A:TYR:484:OH:4346, V-B:TYR:539:CZ:9849, H-A:GLY:454:N:4048, V-B:TYR:539:CE2:9848, V-B:TYR:539:CD2:9846, V-A:GLY:454:CA:4047, V-A:ILE:369:CD1:3237, V-B:ALA:541:CB:9864, V-A:ILE:369:CG2:3235, V-A:LEU:475:CD2:4257, V-A:ARG:545:CZ:4924, V-A:TYR:484:CZ:4345, V-B:GLU:543:CD:9880, V-B:GLU:543:CB:9878, V-A:TYR:484:CE1:4343, V-B:GLU:543:CG:9879, V-A:PRO:540:C:4879, V-A:PRO:540:CB:4883, V-A:PRO:540:CA:4881, V-A:TYR:539:C:4865, V-B:ARG:545:CZ:9898, V-A:TYR:539:CE2:4874, V-A:PRO:540:N:4882, H-B:TYR:484:OH:9320, V-A:ALA:541:CB:4890, V-A:TYR:539:CD2:4872"]

$$$$
RR18_Rahimova_2017
     RDKit          3D

 36 41  0  0  0  0  0  0  0  0999 V2000
  127.3410  122.9310   57.2150 C   0  0  0  0  0  0  0  0  0  0  0  0
  127.6400  124.0070   58.2290 C   0  0  0  0  0  0  0  0  0  0  0  0
  126.8930  124.6530   59.2000 C   0  0  0  0  0  0  0  0  0  0  0  0
  127.7450  125.5630   59.8240 C   0  0  0  0  0  0  0  0  0  0  0  0
  128.9820  125.4390   59.2140 C   0  0  0  0  0  0  0  0  0  0  0  0
  130.3340  126.1200   59.4140 C   0  0  1  0  0  0  0  0  0  0  0  0
  131.4420  125.4560   58.5440 C   0  0  0  0  0  0  0  0  0  0  0  0
  131.8480  124.0760   58.7900 C   0  0  0  0  0  0  0  0  0  0  0  0
  132.8850  123.6080   58.3160 O   0  0  0  0  0  0  0  0  0  0  0  0
  131.0010  123.3820   59.5850 N   0  0  0  0  0  0  0  0  0  0  0  0
  131.0500  122.0410   60.0210 C   0  0  0  0  0  0  0  0  0  0  0  0
  132.2160  121.2550   59.9840 C   0  0  0  0  0  0  0  0  0  0  0  0
  132.1960  119.9330   60.4230 C   0  0  0  0  0  0  0  0  0  0  0  0
  131.0130  119.3730   60.8980 C   0  0  0  0  0  0  0  0  0  0  0  0
  129.8480  120.1350   60.9290 C   0  0  0  0  0  0  0  0  0  0  0  0
  129.8530  121.4630   60.4930 C   0  0  0  0  0  0  0  0  0  0  0  0
  128.5480  122.2530   60.5430 C   0  0  0  0  0  0  0  0  0  0  0  0
  131.9440  126.1550   57.4910 C   0  0  0  0  0  0  0  0  0  0  0  0
  131.6370  127.4500   57.2020 N   0  0  0  0  0  0  0  0  0  0  0  0
  130.8860  128.1140   58.0000 C   0  0  0  0  0  0  0  0  0  0  0  0
  130.5290  129.8170   57.8410 S   0  0  0  0  0  0  0  0  0  0  0  0
  129.5280  129.8000   59.3270 C   0  0  0  0  0  0  0  0  0  0  0  0
  128.8590  130.8640   59.8930 C   0  0  0  0  0  0  0  0  0  0  0  0
  128.9900  132.2120   59.3200 C   0  0  0  0  0  0  0  0  0  0  0  0
  129.6170  132.5960   58.3340 O   0  0  0  0  0  0  0  0  0  0  0  0
  128.2860  133.0440   60.0940 N   0  0  0  0  0  0  0  0  0  0  0  0
  127.6550  132.4080   61.1210 C   0  0  0  0  0  0  0  0  0  0  0  0
  126.8340  132.9700   62.0980 C   0  0  0  0  0  0  0  0  0  0  0  0
  126.2550  132.1360   63.0500 C   0  0  0  0  0  0  0  0  0  0  0  0
  126.4970  130.7640   63.0040 C   0  0  0  0  0  0  0  0  0  0  0  0
  127.3230  130.2250   62.0140 C   0  0  0  0  0  0  0  0  0  0  0  0
  127.9370  131.0550   61.0570 C   0  0  0  0  0  0  0  0  0  0  0  0
  129.5460  128.4400   59.8680 C   0  0  0  0  0  0  0  0  0  0  0  0
  129.0140  128.0610   60.9070 O   0  0  0  0  0  0  0  0  0  0  0  0
  130.2630  127.5880   59.0870 N   0  0  0  0  0  0  0  0  0  0  0  0
  128.9100  124.4900   58.2430 O   0  0  0  0  0  0  0  0  0  0  0  0
  1  2  1  0
  2  3  2  0
  3  4  1  0
  4  5  2  0
  6  5  1  6
  6  7  1  0
  7  8  1  0
  8  9  2  0
  8 10  1  0
 10 11  1  0
 11 12  2  0
 12 13  1  0
 13 14  2  0
 14 15  1  0
 15 16  2  0
 16 17  1  0
  7 18  2  0
 18 19  1  0
 19 20  2  0
 20 21  1  0
 21 22  1  0
 22 23  2  0
 23 24  1  0
 24 25  2  0
 24 26  1  0
 26 27  1  0
 27 28  2  0
 28 29  1  0
 29 30  2  0
 30 31  1  0
 31 32  2  0
 22 33  1  0
 33 34  2  0
 33 35  1  0
  5 36  1  0
 36  2  1  0
 35  6  1  0
 16 11  1  0
 35 20  1  0
 32 23  1  0
 32 27  1  0
M  END
>  <Binding energies>  (44) 
[-7.68]

>  <Ligand effiencies>  (44) 
[-0.20210526315789473]

>  <Interactions>  (44) 
["V-A:ASP:366:CG:3211, V-B:TYR:539:CZ:9849, V-B:TYR:539:CE2:9848, V-B:TYR:539:CD2:9846, V-A:ASP:366:CB:3210, V-B:ALA:541:CB:9864, V-A:LEU:475:CD2:4257, V-B:PRO:540:C:9853, V-A:TRP:381:CH2:3370, V-B:PRO:540:CA:9855, V-B:TYR:539:C:9839, V-B:PRO:540:N:9856, V-B:TYR:539:CA:9841, V-B:ALA:541:CA:9862, V-A:TRP:381:CZ2:3368, H-A:TYR:531:OH:4793, V-A:PRO:540:CA:4881, V-A:TYR:539:C:4865, V-A:TYR:539:CE2:4874, H-B:TYR:539:OH:9850, V-A:PRO:482:CB:4324, V-A:ALA:541:CB:4890, V-A:TYR:539:CD2:4872, V-B:LEU:475:CD2:9231, H-A:TYR:539:O:4866"]

$$$$
RR20_Rahimova_2017
     RDKit          3D

 38 43  0  0  0  0  0  0  0  0999 V2000
  130.0480  118.6490   60.2430 C   0  0  0  0  0  0  0  0  0  0  0  0
  130.7320  119.9690   60.5500 C   0  0  0  0  0  0  0  0  0  0  0  0
  129.9750  121.0630   60.9680 C   0  0  0  0  0  0  0  0  0  0  0  0
  130.6010  122.2720   61.2600 C   0  0  0  0  0  0  0  0  0  0  0  0
  131.9880  122.4000   61.1230 C   0  0  0  0  0  0  0  0  0  0  0  0
  132.6520  123.7160   61.4650 C   0  0  0  0  0  0  0  0  0  0  0  0
  133.8830  123.7650   61.4130 O   0  0  0  0  0  0  0  0  0  0  0  0
  131.8770  124.7890   61.8000 N   0  0  0  0  0  0  0  0  0  0  0  0
  131.0180  125.4600   60.8100 C   0  0  0  0  0  0  0  0  0  0  0  0
  130.2060  126.4900   61.5760 C   0  0  0  0  0  0  0  0  0  0  0  0
  130.3910  126.0680   63.0020 C   0  0  0  0  0  0  0  0  0  0  0  0
  129.8080  126.5910   64.1560 C   0  0  0  0  0  0  0  0  0  0  0  0
  130.2310  126.1700   65.4230 C   0  0  0  0  0  0  0  0  0  0  0  0
  129.5970  126.7270   66.6670 C   0  0  0  0  0  0  0  0  0  0  0  0
  129.9530  126.2180   67.8360 N   0  0  0  0  0  0  0  0  0  0  0  0
  129.3540  126.7900   68.8500 C   0  0  0  0  0  0  0  0  0  0  0  0
  129.5000  126.5060   70.1990 N   0  0  0  0  0  0  0  0  0  0  0  0
  130.6320  126.6110   70.9360 C   0  0  0  0  0  0  0  0  0  0  0  0
  131.7110  127.0070   70.4900 O   0  0  0  0  0  0  0  0  0  0  0  0
  130.5610  126.2360   72.4360 C   0  0  0  0  0  0  0  0  0  0  0  0
  130.5090  124.7800   72.6630 N   0  0  0  0  0  0  0  0  0  0  0  0
  131.0000  124.4030   73.9970 C   0  0  0  0  0  0  0  0  0  0  0  0
  131.1760  122.8700   74.0860 C   0  0  0  0  0  0  0  0  0  0  0  0
  129.9830  122.0980   73.5200 C   0  0  0  0  0  0  0  0  0  0  0  0
  129.8370  120.7260   73.7520 C   0  0  0  0  0  0  0  0  0  0  0  0
  128.7710  120.0160   73.2050 C   0  0  0  0  0  0  0  0  0  0  0  0
  127.8320  120.6750   72.4160 C   0  0  0  0  0  0  0  0  0  0  0  0
  127.9610  122.0420   72.1850 C   0  0  0  0  0  0  0  0  0  0  0  0
  129.0280  122.7680   72.7280 C   0  0  0  0  0  0  0  0  0  0  0  0
  129.1370  124.2790   72.5220 C   0  0  0  0  0  0  0  0  0  0  0  0
  128.2560  128.0400   68.4140 S   0  0  0  0  0  0  0  0  0  0  0  0
  128.6340  127.7570   66.7320 C   0  0  0  0  0  0  0  0  0  0  0  0
  127.9370  128.5470   65.6460 C   0  0  0  0  0  0  0  0  0  0  0  0
  131.2910  125.2540   65.5040 C   0  0  0  0  0  0  0  0  0  0  0  0
  131.8890  124.7440   64.3520 C   0  0  0  0  0  0  0  0  0  0  0  0
  131.3990  125.1080   63.0910 C   0  0  0  0  0  0  0  0  0  0  0  0
  132.7460  121.2890   60.7320 C   0  0  0  0  0  0  0  0  0  0  0  0
  132.1200  120.0790   60.4410 C   0  0  0  0  0  0  0  0  0  0  0  0
  1  2  1  0
  2  3  2  0
  3  4  1  0
  4  5  2  0
  5  6  1  0
  6  7  2  0
  6  8  1  0
  8  9  1  0
  9 10  1  0
 10 11  1  0
 11 12  2  0
 12 13  1  0
 13 14  1  0
 14 15  1  0
 15 16  2  0
 16 17  1  0
 17 18  1  0
 18 19  2  0
 18 20  1  0
 20 21  1  0
 21 22  1  0
 22 23  1  0
 23 24  1  0
 24 25  2  0
 25 26  1  0
 26 27  2  0
 27 28  1  0
 28 29  2  0
 29 30  1  0
 16 31  1  0
 31 32  1  0
 32 33  1  0
 13 34  2  0
 34 35  1  0
 35 36  2  0
  5 37  1  0
 37 38  2  0
 38  2  1  0
 36  8  1  0
 36 11  1  0
 32 14  2  0
 30 21  1  0
 29 24  1  0
M  END
>  <Binding energies>  (45) 
[-6.03]

>  <Ligand effiencies>  (45) 
[-0.15461538461538463]

>  <Interactions>  (45) 
["H-A:GLY:454:N:4048, V-B:TYR:539:CE2:9848, V-B:TYR:539:CD2:9846, V-B:ALA:541:CB:9864, V-A:LEU:475:CD2:4257, V-A:TRP:381:CH2:3370, V-B:TYR:539:C:9839, V-B:GLU:543:CD:9880, V-B:GLU:543:CB:9878, V-A:GLU:543:CD:4906, V-A:HIS:456:CE1:4068, V-B:GLU:543:CG:9879, V-A:TRP:381:CZ2:3368, V-A:HIS:456:CB:4063, V-A:ASP:473:CG:4238, V-A:HIS:456:CG:4064, V-A:HIS:456:CD2:4066, V-B:HIS:456:CE1:9042, V-B:LYS:547:CE:9922, H-B:LYS:547:NZ:9923, V-A:GLY:544:C:4910, V-A:TYR:484:CB:4339, V-A:GLU:543:CG:4905, V-B:GLU:543:C:9874, V-A:TRP:381:CZ3:3369, V-A:PRO:482:CG:4325, V-A:PRO:482:CB:4324, V-A:TRP:381:CE2:3365, H-B:GLY:544:O:9885, H-A:HIS:456:ND1:4065, V-A:GLU:543:CB:4904, H-A:ARG:545:N:4918, V-B:GLY:544:CA:9886, H-A:HIS:456:NE2:4069, H-B:GLU:543:O:9875"]

$$$$
RR21_Rahimova_2017
     RDKit          3D

 40 45  0  0  0  0  0  0  0  0999 V2000
  129.5730  120.4180   73.6770 C   0  0  0  0  0  0  0  0  0  0  0  0
  130.5850  121.2680   73.1460 O   0  0  0  0  0  0  0  0  0  0  0  0
  130.2840  122.5910   72.8780 C   0  0  0  0  0  0  0  0  0  0  0  0
  131.0590  123.6800   73.3110 C   0  0  0  0  0  0  0  0  0  0  0  0
  130.6870  124.9860   72.9940 C   0  0  0  0  0  0  0  0  0  0  0  0
  129.5370  125.2380   72.2360 C   0  0  0  0  0  0  0  0  0  0  0  0
  129.1420  126.6410   71.8930 C   0  0  0  0  0  0  0  0  0  0  0  0
  128.7590  127.4660   72.8480 N   0  0  0  0  0  0  0  0  0  0  0  0
  128.4720  128.6350   72.2550 N   0  0  0  0  0  0  0  0  0  0  0  0
  128.0430  129.7610   73.0050 C   0  0  0  0  0  0  0  0  0  0  0  0
  128.7140  130.9890   72.9010 C   0  0  0  0  0  0  0  0  0  0  0  0
  128.2810  132.0890   73.6390 C   0  0  0  0  0  0  0  0  0  0  0  0
  127.1780  131.9640   74.4810 C   0  0  0  0  0  0  0  0  0  0  0  0
  126.5060  130.7500   74.5940 C   0  0  0  0  0  0  0  0  0  0  0  0
  126.9370  129.6490   73.8590 C   0  0  0  0  0  0  0  0  0  0  0  0
  128.6950  128.5480   70.9040 C   0  0  0  0  0  0  0  0  0  0  0  0
  129.1200  127.2580   70.6220 C   0  0  0  0  0  0  0  0  0  0  0  0
  129.5210  126.7050   69.3370 C   0  0  0  0  0  0  0  0  0  0  0  0
  129.1630  127.1170   68.0990 C   0  0  0  0  0  0  0  0  0  0  0  0
  128.0810  128.4590   67.6660 S   0  0  0  0  0  0  0  0  0  0  0  0
  128.3570  128.1140   65.9640 C   0  0  0  0  0  0  0  0  0  0  0  0
  127.8750  128.7410   64.9370 N   0  0  0  0  0  0  0  0  0  0  0  0
  128.1890  128.3640   63.6020 C   0  0  0  0  0  0  0  0  0  0  0  0
  127.7910  128.9180   62.5780 O   0  0  0  0  0  0  0  0  0  0  0  0
  129.1050  127.1750   63.5070 C   0  0  0  0  0  0  0  0  0  0  0  0
  129.4990  126.6630   62.1150 C   0  0  0  0  0  0  0  0  0  0  0  0
  130.5110  125.5200   62.1280 C   0  0  0  0  0  0  0  0  0  0  0  0
  130.2130  124.3140   61.4870 C   0  0  0  0  0  0  0  0  0  0  0  0
  131.1430  123.2770   61.4850 C   0  0  0  0  0  0  0  0  0  0  0  0
  132.3750  123.4450   62.1220 C   0  0  0  0  0  0  0  0  0  0  0  0
  133.3900  122.3160   62.1060 C   0  0  0  0  0  0  0  0  0  0  0  0
  132.6790  124.6530   62.7530 C   0  0  0  0  0  0  0  0  0  0  0  0
  131.7500  125.6890   62.7550 C   0  0  0  0  0  0  0  0  0  0  0  0
  129.5740  126.5550   64.5410 N   0  0  0  0  0  0  0  0  0  0  0  0
  129.1920  127.0400   65.7980 N   0  0  0  0  0  0  0  0  0  0  0  0
  129.6700  126.4380   66.9140 C   0  0  0  0  0  0  0  0  0  0  0  0
  130.4290  125.4620   66.9190 O   0  0  0  0  0  0  0  0  0  0  0  0
  128.7620  124.1540   71.8100 C   0  0  0  0  0  0  0  0  0  0  0  0
  129.1320  122.8460   72.1260 C   0  0  0  0  0  0  0  0  0  0  0  0
  128.3610  121.8200   71.6980 F   0  0  0  0  0  0  0  0  0  0  0  0
  1  2  1  0
  2  3  1  0
  3  4  2  0
  4  5  1  0
  5  6  2  0
  6  7  1  0
  7  8  2  0
  8  9  1  0
  9 10  1  0
 10 11  2  0
 11 12  1  0
 12 13  2  0
 13 14  1  0
 14 15  2  0
  9 16  1  0
 16 17  2  0
 17 18  1  0
 18 19  2  0
 19 20  1  0
 20 21  1  0
 21 22  2  0
 22 23  1  0
 23 24  2  0
 23 25  1  0
 25 26  1  0
 26 27  1  0
 27 28  2  0
 28 29  1  0
 29 30  2  0
 30 31  1  0
 30 32  1  0
 32 33  2  0
 25 34  2  0
 34 35  1  0
 35 36  1  0
 36 37  2  0
  6 38  1  0
 38 39  2  0
 39 40  1  0
 39  3  1  0
 17  7  1  0
 36 19  1  0
 15 10  1  0
 35 21  1  0
 33 27  1  0
M  END
>  <Binding energies>  (46) 
[-0.94]

>  <Ligand effiencies>  (46) 
[-0.0235]

>  <Interactions>  (46) 
["V-A:GLY:454:CA:4047, V-A:ILE:369:CD1:3237, V-A:LEU:475:CD2:4257, V-A:ARG:545:CZ:4924, V-B:GLU:543:CD:9880, V-B:GLU:543:CB:9878, V-A:GLU:543:CD:4906, V-A:HIS:456:CE1:4068, V-B:GLU:543:CG:9879, V-A:HIS:456:CB:4063, V-A:ASP:473:CG:4238, V-A:HIS:456:CG:4064, V-A:LYS:547:CE:4948, V-B:HIS:456:CD2:9040, V-A:HIS:456:CD2:4066, V-B:HIS:456:CB:9037, H-A:LYS:547:NZ:4949, V-B:HIS:456:CE1:9042, V-B:LYS:547:CE:9922, H-B:LYS:547:NZ:9923, V-B:HIS:456:CG:9038, V-B:GLY:544:C:9884, V-A:TYR:484:CB:4339, V-A:GLU:543:CG:4905, V-A:GLY:544:CA:4912, V-A:GLU:543:C:4900, V-B:GLU:543:C:9874, V-A:GLU:543:CB:4904, V-B:GLY:544:CA:9886, V-B:GLU:543:CA:9876, V-B:ASP:473:CG:9212"]

$$$$
RR23_Rahimova_2017
     RDKit          3D

 39 44  0  0  0  0  0  0  0  0999 V2000
  133.1680  131.4630   56.4580 C   0  0  0  0  0  0  0  0  0  0  0  0
  131.9990  131.7310   57.3890 C   0  0  0  0  0  0  0  0  0  0  0  0
  132.1030  131.4220   58.7460 C   0  0  0  0  0  0  0  0  0  0  0  0
  131.0330  131.6760   59.6010 C   0  0  0  0  0  0  0  0  0  0  0  0
  129.8490  132.2310   59.1040 C   0  0  0  0  0  0  0  0  0  0  0  0
  128.7070  132.5190   60.0530 C   0  0  0  0  0  0  0  0  0  0  0  0
  128.5670  133.6810   60.4430 O   0  0  0  0  0  0  0  0  0  0  0  0
  127.8740  131.5030   60.4280 N   0  0  0  0  0  0  0  0  0  0  0  0
  126.7120  131.7410   61.2980 C   0  0  0  0  0  0  0  0  0  0  0  0
  125.9550  130.4250   61.3710 C   0  0  0  0  0  0  0  0  0  0  0  0
  126.5380  129.6420   60.2340 C   0  0  0  0  0  0  0  0  0  0  0  0
  126.1710  128.3840   59.7540 C   0  0  0  0  0  0  0  0  0  0  0  0
  126.9470  127.7440   58.7760 C   0  0  0  0  0  0  0  0  0  0  0  0
  126.5800  126.3600   58.2200 C   0  0  2  0  0  0  0  0  0  0  0  0
  126.8940  125.2970   59.1510 N   0  0  0  0  0  0  0  0  0  0  0  0
  127.2210  124.2240   58.5510 C   0  0  0  0  0  0  0  0  0  0  0  0
  127.6010  123.0390   59.1000 N   0  0  0  0  0  0  0  0  0  0  0  0
  127.8580  122.7570   60.4000 C   0  0  0  0  0  0  0  0  0  0  0  0
  127.7450  123.5470   61.3400 O   0  0  0  0  0  0  0  0  0  0  0  0
  128.3310  121.3220   60.6860 C   0  0  0  0  0  0  0  0  0  0  0  0
  129.8090  121.3070   60.7680 N   0  0  0  0  0  0  0  0  0  0  0  0
  130.4360  120.3140   60.0260 N   0  0  0  0  0  0  0  0  0  0  0  0
  131.7250  120.1920   60.0140 N   0  0  0  0  0  0  0  0  0  0  0  0
  132.5130  121.0740   60.7570 C   0  0  0  0  0  0  0  0  0  0  0  0
  133.9010  120.9140   60.7240 C   0  0  0  0  0  0  0  0  0  0  0  0
  134.7150  121.7790   61.4560 C   0  0  0  0  0  0  0  0  0  0  0  0
  134.1460  122.8000   62.2220 C   0  0  0  0  0  0  0  0  0  0  0  0
  132.7600  122.9610   62.2570 C   0  0  0  0  0  0  0  0  0  0  0  0
  131.9430  122.0940   61.5200 C   0  0  0  0  0  0  0  0  0  0  0  0
  130.4410  122.2490   61.5480 C   0  0  0  0  0  0  0  0  0  0  0  0
  129.8520  123.1140   62.2040 O   0  0  0  0  0  0  0  0  0  0  0  0
  127.2010  124.2560   56.7640 S   0  0  0  0  0  0  0  0  0  0  0  0
  127.1740  126.0560   56.8250 C   0  0  2  0  0  0  0  0  0  0  0  0
  128.5940  126.5900   56.5460 C   0  0  0  0  0  0  0  0  0  0  0  0
  128.1180  128.3680   58.3280 C   0  0  0  0  0  0  0  0  0  0  0  0
  128.4970  129.6160   58.8230 C   0  0  0  0  0  0  0  0  0  0  0  0
  127.6740  130.2850   59.7400 C   0  0  0  0  0  0  0  0  0  0  0  0
  129.7620  132.5650   57.7460 C   0  0  0  0  0  0  0  0  0  0  0  0
  130.8320  132.3120   56.8920 C   0  0  0  0  0  0  0  0  0  0  0  0
  1  2  1  0
  2  3  2  0
  3  4  1  0
  4  5  2  0
  5  6  1  0
  6  7  2  0
  6  8  1  0
  8  9  1  0
  9 10  1  0
 10 11  1  0
 11 12  2  0
 12 13  1  0
 14 13  1  1
 14 15  1  0
 15 16  2  0
 16 17  1  0
 17 18  1  0
 18 19  2  0
 18 20  1  0
 20 21  1  0
 21 22  1  0
 22 23  2  0
 23 24  1  0
 24 25  2  0
 25 26  1  0
 26 27  2  0
 27 28  1  0
 28 29  2  0
 29 30  1  0
 30 31  2  0
 16 32  1  0
 32 33  1  0
 33 34  1  1
 13 35  2  0
 35 36  1  0
 36 37  2  0
  5 38  1  0
 38 39  2  0
 39  2  1  0
 37  8  1  0
 37 11  1  0
 33 14  1  0
 30 21  1  0
 29 24  1  0
M  END
>  <Binding energies>  (47) 
[-4.36]

>  <Ligand effiencies>  (47) 
[-0.10900000000000001]

>  <Interactions>  (47) 
["V-B:TYR:539:CD2:9846, V-A:GLY:454:CA:4047, V-A:ILE:369:CD1:3237, V-B:ALA:541:CB:9864, V-A:ILE:369:CG2:3235, V-A:LEU:475:CD2:4257, V-B:PRO:540:C:9853, V-B:PRO:540:CA:9855, V-A:GLY:453:C:4040, V-B:TYR:539:C:9839, V-B:PRO:540:N:9856, V-B:ALA:541:CA:9862, H-B:ALA:541:N:9863, V-A:PRO:540:C:4879, V-A:PRO:540:CB:4883, V-A:PRO:540:CA:4881, V-A:TYR:539:C:4865, H-A:ALA:541:N:4889, V-B:ASP:366:CG:8185, V-A:ILE:369:CG1:3236, V-A:PRO:540:N:4882, V-A:PRO:540:CD:4885, V-A:TYR:531:CZ:4792, V-A:TYR:539:CD2:4872, V-A:TYR:539:CG:4870, V-A:TYR:531:CE2:4791, V-A:LEU:363:CD1:3187, V-A:TYR:539:CA:4867, H-B:TYR:539:O:9840"]

$$$$
RR26_Rahimova_2017
     RDKit          3D

 38 44  0  0  0  0  0  0  0  0999 V2000
  131.0400  126.5470   71.4210 C   0  0  0  0  0  0  0  0  0  0  0  0
  129.7020  127.1290   71.8610 C   0  0  0  0  0  0  0  0  0  0  0  0
  129.4720  127.2990   73.2310 C   0  0  0  0  0  0  0  0  0  0  0  0
  128.2830  127.8640   73.6870 C   0  0  0  0  0  0  0  0  0  0  0  0
  127.3140  128.2710   72.7760 C   0  0  0  0  0  0  0  0  0  0  0  0
  127.5320  128.1070   71.4090 C   0  0  0  0  0  0  0  0  0  0  0  0
  128.7190  127.5320   70.9310 C   0  0  0  0  0  0  0  0  0  0  0  0
  128.8670  127.3780   69.4450 C   0  0  0  0  0  0  0  0  0  0  0  0
  128.2310  128.1660   68.5810 N   0  0  0  0  0  0  0  0  0  0  0  0
  128.6470  127.7000   67.4340 C   0  0  0  0  0  0  0  0  0  0  0  0
  128.3670  128.0730   65.7730 S   0  0  0  0  0  0  0  0  0  0  0  0
  129.5010  126.7490   65.3100 C   0  0  0  0  0  0  0  0  0  0  0  0
  129.8520  126.3580   64.0640 C   0  0  0  0  0  0  0  0  0  0  0  0
  129.4080  126.9090   62.7940 C   0  0  0  0  0  0  0  0  0  0  0  0
  129.1070  128.2270   62.4900 C   0  0  0  0  0  0  0  0  0  0  0  0
  128.7740  128.2890   61.1610 N   0  0  0  0  0  0  0  0  0  0  0  0
  128.3990  129.4280   60.4020 C   0  0  0  0  0  0  0  0  0  0  0  0
  127.1530  129.4850   59.7600 C   0  0  0  0  0  0  0  0  0  0  0  0
  126.8000  130.6080   59.0160 C   0  0  0  0  0  0  0  0  0  0  0  0
  127.6860  131.6760   58.9140 C   0  0  0  0  0  0  0  0  0  0  0  0
  128.9250  131.6330   59.5490 C   0  0  0  0  0  0  0  0  0  0  0  0
  129.2830  130.5120   60.2920 C   0  0  0  0  0  0  0  0  0  0  0  0
  128.8770  127.0760   60.5990 N   0  0  0  0  0  0  0  0  0  0  0  0
  129.2460  126.2470   61.5550 C   0  0  0  0  0  0  0  0  0  0  0  0
  129.4420  124.7940   61.2490 C   0  0  0  0  0  0  0  0  0  0  0  0
  128.3400  123.9750   60.9600 C   0  0  0  0  0  0  0  0  0  0  0  0
  128.5110  122.6190   60.6770 C   0  0  0  0  0  0  0  0  0  0  0  0
  129.7910  122.0690   60.6830 C   0  0  0  0  0  0  0  0  0  0  0  0
  130.9030  122.8820   60.9520 C   0  0  0  0  0  0  0  0  0  0  0  0
  130.7280  124.2340   61.2400 C   0  0  0  0  0  0  0  0  0  0  0  0
  132.1850  122.3720   61.0120 O   0  0  0  0  0  0  0  0  0  0  0  0
  132.3420  121.1060   60.3630 C   0  0  0  0  0  0  0  0  0  0  0  0
  131.1740  120.1580   60.7300 C   0  0  0  0  0  0  0  0  0  0  0  0
  129.9200  120.7360   60.3500 O   0  0  0  0  0  0  0  0  0  0  0  0
  130.0540  126.0590   66.4720 C   0  0  0  0  0  0  0  0  0  0  0  0
  130.8450  125.1150   66.5120 O   0  0  0  0  0  0  0  0  0  0  0  0
  129.5060  126.6790   67.6050 N   0  0  0  0  0  0  0  0  0  0  0  0
  129.6620  126.4610   68.9140 N   0  0  0  0  0  0  0  0  0  0  0  0
  1  2  1  0
  2  3  2  0
  3  4  1  0
  4  5  2  0
  5  6  1  0
  6  7  2  0
  7  8  1  0
  8  9  1  0
  9 10  2  0
 10 11  1  0
 11 12  1  0
 12 13  2  0
 13 14  1  0
 14 15  2  0
 15 16  1  0
 16 17  1  0
 17 18  2  0
 18 19  1  0
 19 20  2  0
 20 21  1  0
 21 22  2  0
 16 23  1  0
 23 24  2  0
 24 25  1  0
 25 26  2  0
 26 27  1  0
 27 28  2  0
 28 29  1  0
 29 30  2  0
 29 31  1  0
 31 32  1  0
 32 33  1  0
 33 34  1  0
 12 35  1  0
 35 36  2  0
 35 37  1  0
 37 38  1  0
  7  2  1  0
 38  8  2  0
 37 10  1  0
 24 14  1  0
 30 25  1  0
 22 17  1  0
 34 28  1  0
M  END
>  <Binding energies>  (48) 
[-2.78]

>  <Ligand effiencies>  (48) 
[-0.0731578947368421]

>  <Interactions>  (48) 
["H-A:TYR:484:OH:4346, V-B:TYR:539:CE2:9848, V-B:TYR:539:CD2:9846, V-B:ALA:541:CB:9864, V-A:LEU:475:CD2:4257, V-B:PRO:540:C:9853, V-A:TRP:381:CH2:3370, V-B:PRO:540:CA:9855, V-B:GLU:543:CD:9880, V-B:GLU:543:CB:9878, V-A:GLU:543:CD:4906, V-A:HIS:456:CE1:4068, V-B:GLU:543:CG:9879, V-A:TRP:381:CZ2:3368, V-A:TYR:539:CE2:4874, V-A:HIS:456:CG:4064, V-A:LYS:547:CE:4948, V-B:HIS:456:CD2:9040, V-A:HIS:456:CD2:4066, V-B:HIS:456:CE1:9042, V-B:LYS:547:CE:9922, V-B:HIS:456:CG:9038, V-B:GLY:544:C:9884, V-A:GLY:544:C:4910, V-A:GLU:543:CG:4905, V-A:GLU:543:CB:4904, V-A:TYR:539:CD2:4872"]

$$$$
RR2_Rahimova_2017
     RDKit          3D

 46 50  0  0  0  0  0  0  0  0999 V2000
  128.3870  127.7010   70.0550 C   0  0  0  0  0  0  0  0  0  0  0  0
  129.7470  127.8310   69.6560 O   0  0  0  0  0  0  0  0  0  0  0  0
  130.1470  127.3050   68.4410 C   0  0  0  0  0  0  0  0  0  0  0  0
  131.3650  127.6010   67.8130 C   0  0  0  0  0  0  0  0  0  0  0  0
  131.6810  127.0260   66.5860 C   0  0  0  0  0  0  0  0  0  0  0  0
  130.7890  126.1460   65.9570 C   0  0  0  0  0  0  0  0  0  0  0  0
  131.1540  125.5380   64.6160 C   0  0  0  0  0  0  0  0  0  0  0  0
  131.7940  126.1950   63.7880 O   0  0  0  0  0  0  0  0  0  0  0  0
  130.7250  124.2720   64.4060 N   0  0  0  0  0  0  0  0  0  0  0  0
  130.9530  123.7000   63.1590 N   0  0  0  0  0  0  0  0  0  0  0  0
  130.7900  122.3680   63.0290 C   0  0  0  0  0  0  0  0  0  0  0  0
  130.6290  121.5820   63.9670 O   0  0  0  0  0  0  0  0  0  0  0  0
  130.7910  121.8390   61.5880 C   0  0  0  0  0  0  0  0  0  0  0  0
  129.1400  121.4310   60.9120 S   0  0  0  0  0  0  0  0  0  0  0  0
  128.3520  123.0100   61.0010 C   0  0  0  0  0  0  0  0  0  0  0  0
  127.2330  123.2140   61.6480 N   0  0  0  0  0  0  0  0  0  0  0  0
  126.8700  124.5380   61.4470 N   0  0  0  0  0  0  0  0  0  0  0  0
  127.8010  125.0940   60.7090 C   0  0  0  0  0  0  0  0  0  0  0  0
  127.7700  126.5290   60.2910 C   0  0  0  0  0  0  0  0  0  0  0  0
  126.5470  127.1930   60.1750 C   0  0  0  0  0  0  0  0  0  0  0  0
  126.5080  128.5270   59.7800 C   0  0  0  0  0  0  0  0  0  0  0  0
  127.6960  129.2150   59.5130 C   0  0  0  0  0  0  0  0  0  0  0  0
  127.7170  130.5560   59.1020 N   0  0  0  0  0  0  0  0  0  0  0  0
  128.7790  131.8080   59.7830 S   0  0  0  0  0  0  0  0  0  0  0  0
  129.0590  131.3940   61.1630 O   0  0  0  0  0  0  0  0  0  0  0  0
  128.1810  133.1180   59.4980 O   0  0  0  0  0  0  0  0  0  0  0  0
  130.3180  131.6610   58.8790 C   0  0  0  0  0  0  0  0  0  0  0  0
  131.4730  131.1920   59.5100 C   0  0  0  0  0  0  0  0  0  0  0  0
  132.6630  131.1000   58.7930 C   0  0  0  0  0  0  0  0  0  0  0  0
  132.6970  131.4690   57.4470 C   0  0  0  0  0  0  0  0  0  0  0  0
  133.9990  131.3820   56.6710 C   0  0  0  0  0  0  0  0  0  0  0  0
  131.5420  131.9410   56.8190 C   0  0  0  0  0  0  0  0  0  0  0  0
  130.3520  132.0350   57.5350 C   0  0  0  0  0  0  0  0  0  0  0  0
  128.9180  128.5520   59.6330 C   0  0  0  0  0  0  0  0  0  0  0  0
  128.9570  127.2170   60.0220 C   0  0  0  0  0  0  0  0  0  0  0  0
  128.7800  124.1710   60.3820 N   0  0  0  0  0  0  0  0  0  0  0  0
  129.9210  124.3520   59.5740 C   0  0  0  0  0  0  0  0  0  0  0  0
  131.1780  124.4890   60.1630 C   0  0  0  0  0  0  0  0  0  0  0  0
  132.3010  124.6630   59.3590 C   0  0  0  0  0  0  0  0  0  0  0  0
  132.1810  124.7020   57.9690 C   0  0  0  0  0  0  0  0  0  0  0  0
  133.3500  124.8790   57.2560 O   0  0  0  0  0  0  0  0  0  0  0  0
  134.4370  123.9840   57.4690 C   0  0  0  0  0  0  0  0  0  0  0  0
  130.9110  124.5620   57.3840 C   0  0  0  0  0  0  0  0  0  0  0  0
  129.7860  124.3860   58.1840 C   0  0  0  0  0  0  0  0  0  0  0  0
  129.5740  125.8500   66.5940 C   0  0  0  0  0  0  0  0  0  0  0  0
  129.2610  126.4260   67.8220 C   0  0  0  0  0  0  0  0  0  0  0  0
  1  2  1  0
  2  3  1  0
  3  4  2  0
  4  5  1  0
  5  6  2  0
  6  7  1  0
  7  8  2  0
  7  9  1  0
  9 10  1  0
 10 11  1  0
 11 12  2  0
 11 13  1  0
 13 14  1  0
 14 15  1  0
 15 16  2  0
 16 17  1  0
 17 18  2  0
 18 19  1  0
 19 20  2  0
 20 21  1  0
 21 22  2  0
 22 23  1  0
 23 24  1  0
 24 25  2  0
 24 26  2  0
 24 27  1  0
 27 28  2  0
 28 29  1  0
 29 30  2  0
 30 31  1  0
 30 32  1  0
 32 33  2  0
 22 34  1  0
 34 35  2  0
 18 36  1  0
 36 37  1  0
 37 38  2  0
 38 39  1  0
 39 40  2  0
 40 41  1  0
 41 42  1  0
 40 43  1  0
 43 44  2  0
  6 45  1  0
 45 46  2  0
 46  3  1  0
 36 15  1  0
 44 37  1  0
 35 19  1  0
 33 27  1  0
M  END
>  <Binding energies>  (49) 
[-7.36]

>  <Ligand effiencies>  (49) 
[-0.15020408163265306]

>  <Interactions>  (49) 
["H-B:GLU:543:OE1:9881, H-A:TYR:484:OH:4346, V-A:ASP:366:CG:3211, V-B:TYR:539:CZ:9849, V-A:ASP:366:CA:3208, V-B:TYR:539:CE2:9848, V-A:ASP:366:CB:3210, V-B:ALA:541:CB:9864, V-A:ILE:369:CG2:3235, V-A:LEU:475:CD2:4257, V-B:GLU:543:CD:9880, H-A:ARG:545:NH2:4926, V-B:GLU:543:CB:9878, V-A:ARG:545:CD:4921, V-A:GLU:543:CD:4906, V-A:HIS:456:CE1:4068, V-A:ARG:545:CG:4920, V-B:GLU:543:CG:9879, H-B:ALA:541:N:9863, V-A:ASP:366:C:3206, V-A:ILE:369:CB:3234, V-A:PRO:540:CB:4883, V-A:PRO:540:CA:4881, V-A:TYR:539:C:4865, H-A:ARG:545:NE:4922, H-B:ARG:545:NH2:9900, V-B:ASP:366:CG:8185, H-B:TYR:539:OH:9850, V-B:HIS:456:CD2:9040, V-B:HIS:456:CE1:9042, V-A:GLU:543:CG:4905, V-A:GLU:543:C:4900, V-B:GLU:543:C:9874, V-A:PRO:540:N:4882, V-A:PRO:540:CD:4885, V-A:ARG:545:CA:4917, V-A:TYR:531:CZ:4792, V-A:LEU:363:CA:3183, V-A:TYR:531:CE2:4791, V-A:LEU:363:CB:3185, V-A:LEU:363:CD1:3187"]

$$$$
RR33_Rahimova_2017
     RDKit          3D

 18 19  0  0  0  0  0  0  0  0999 V2000
  132.1040  125.0280   75.4500 C   0  0  0  0  0  0  0  0  0  0  0  0
  131.9840  126.5440   75.2670 C   0  0  0  0  0  0  0  0  0  0  0  0
  130.6160  126.8700   75.0350 O   0  0  0  0  0  0  0  0  0  0  0  0
  130.1580  126.9900   73.7370 C   0  0  0  0  0  0  0  0  0  0  0  0
  131.0110  126.5350   72.7320 C   0  0  0  0  0  0  0  0  0  0  0  0
  130.6370  126.6180   71.3940 C   0  0  0  0  0  0  0  0  0  0  0  0
  129.3980  127.1590   71.0400 C   0  0  0  0  0  0  0  0  0  0  0  0
  128.9970  127.2480   69.6020 C   0  0  0  0  0  0  0  0  0  0  0  0
  127.8950  127.7650   69.1060 N   0  0  0  0  0  0  0  0  0  0  0  0
  127.9960  127.6130   67.7950 C   0  0  0  0  0  0  0  0  0  0  0  0
  126.9050  128.1040   66.8690 C   0  0  0  0  0  0  0  0  0  0  0  0
  127.4750  128.8370   65.7480 N   0  0  0  0  0  0  0  0  0  0  0  0
  126.6050  129.9350   65.3580 C   0  0  0  0  0  0  0  0  0  0  0  0
  129.1960  126.9830   67.4900 C   0  0  0  0  0  0  0  0  0  0  0  0
  129.8850  126.5430   66.2210 C   0  0  0  0  0  0  0  0  0  0  0  0
  129.8370  126.7490   68.6580 O   0  0  0  0  0  0  0  0  0  0  0  0
  128.5370  127.6120   72.0440 C   0  0  0  0  0  0  0  0  0  0  0  0
  128.9120  127.5310   73.3830 C   0  0  0  0  0  0  0  0  0  0  0  0
  1  2  1  0
  2  3  1  0
  3  4  1  0
  4  5  2  0
  5  6  1  0
  6  7  2  0
  7  8  1  0
  8  9  2  0
  9 10  1  0
 10 11  1  0
 11 12  1  0
 12 13  1  0
 10 14  2  0
 14 15  1  0
 14 16  1  0
  7 17  1  0
 17 18  2  0
 18  4  1  0
 16  8  1  0
M  END
>  <Binding energies>  (50) 
[-5.5]

>  <Ligand effiencies>  (50) 
[-0.2894736842105263]

>  <Interactions>  (50) 
["V-B:GLU:543:CD:9880, V-B:GLU:543:CB:9878, V-A:GLU:543:CD:4906, V-A:HIS:456:CE1:4068, V-B:GLU:543:CG:9879, H-A:GLU:543:OE1:4907, H-A:GLU:543:OE2:4908, H-B:GLU:543:OE2:9882, V-A:HIS:456:CG:4064, V-A:LYS:547:CE:4948, V-A:HIS:456:CD2:4066, H-A:LYS:547:NZ:4949, V-A:VAL:458:CG2:4085, V-B:HIS:456:CE1:9042, V-B:LYS:547:CE:9922, H-B:LYS:547:NZ:9923, V-A:GLY:544:C:4910, V-B:ARG:545:CG:9894, V-A:LYS:547:CD:4947"]

$$$$
RR3_Rahimova_2017
     RDKit          3D

 38 44  0  0  0  0  0  0  0  0999 V2000
  126.3390  133.1320   60.6370 C   0  0  0  0  0  0  0  0  0  0  0  0
  127.6260  133.2710   61.1460 C   0  0  0  0  0  0  0  0  0  0  0  0
  128.3390  132.1410   61.5360 C   0  0  0  0  0  0  0  0  0  0  0  0
  127.7780  130.8610   61.4220 C   0  0  0  0  0  0  0  0  0  0  0  0
  128.5460  129.6460   61.8410 C   0  0  0  0  0  0  0  0  0  0  0  0
  128.0170  128.7460   62.7760 C   0  0  0  0  0  0  0  0  0  0  0  0
  128.7340  127.6190   63.1680 C   0  0  0  0  0  0  0  0  0  0  0  0
  130.0030  127.3700   62.6380 C   0  0  0  0  0  0  0  0  0  0  0  0
  130.7810  126.1630   63.0590 C   0  0  0  0  0  0  0  0  0  0  0  0
  131.2980  125.3520   62.1420 N   0  0  0  0  0  0  0  0  0  0  0  0
  131.9540  124.4210   62.7920 C   0  0  0  0  0  0  0  0  0  0  0  0
  132.6810  123.3160   62.1730 C   0  0  0  0  0  0  0  0  0  0  0  0
  134.0530  123.1310   62.2040 C   0  0  0  0  0  0  0  0  0  0  0  0
  134.3910  121.9870   61.5300 N   0  0  0  0  0  0  0  0  0  0  0  0
  133.2570  121.3840   61.0320 C   0  0  0  0  0  0  0  0  0  0  0  0
  133.0990  120.2110   60.2850 C   0  0  0  0  0  0  0  0  0  0  0  0
  131.7990  119.8600   59.9250 C   0  0  0  0  0  0  0  0  0  0  0  0
  130.7020  120.6360   60.2880 C   0  0  0  0  0  0  0  0  0  0  0  0
  130.8590  121.8040   61.0320 C   0  0  0  0  0  0  0  0  0  0  0  0
  132.1510  122.2030   61.4210 C   0  0  0  0  0  0  0  0  0  0  0  0
  131.8640  124.6120   64.1430 N   0  0  0  0  0  0  0  0  0  0  0  0
  131.0890  125.7230   64.3580 C   0  0  0  0  0  0  0  0  0  0  0  0
  130.7230  126.2050   65.7230 C   0  0  0  0  0  0  0  0  0  0  0  0
  131.6160  126.9930   66.4510 C   0  0  0  0  0  0  0  0  0  0  0  0
  131.2830  127.4330   67.7280 C   0  0  0  0  0  0  0  0  0  0  0  0
  130.0500  127.1000   68.3070 C   0  0  0  0  0  0  0  0  0  0  0  0
  129.7040  127.5580   69.6880 C   0  0  0  0  0  0  0  0  0  0  0  0
  128.4250  128.0550   69.9820 C   0  0  0  0  0  0  0  0  0  0  0  0
  128.1010  128.4780   71.2700 C   0  0  0  0  0  0  0  0  0  0  0  0
  129.0560  128.4070   72.2790 C   0  0  0  0  0  0  0  0  0  0  0  0
  130.3300  127.9170   72.0100 C   0  0  0  0  0  0  0  0  0  0  0  0
  130.6500  127.4970   70.7220 C   0  0  0  0  0  0  0  0  0  0  0  0
  129.1550  126.3220   67.5590 C   0  0  0  0  0  0  0  0  0  0  0  0
  129.4850  125.8800   66.2810 C   0  0  0  0  0  0  0  0  0  0  0  0
  130.5330  128.2540   61.6960 C   0  0  0  0  0  0  0  0  0  0  0  0
  129.8140  129.3810   61.3060 C   0  0  0  0  0  0  0  0  0  0  0  0
  126.4780  130.7450   60.9070 C   0  0  0  0  0  0  0  0  0  0  0  0
  125.7620  131.8730   60.5150 C   0  0  0  0  0  0  0  0  0  0  0  0
  1  2  2  0
  2  3  1  0
  3  4  2  0
  4  5  1  0
  5  6  2  0
  6  7  1  0
  7  8  2  0
  8  9  1  0
  9 10  1  0
 10 11  2  0
 11 12  1  0
 12 13  2  0
 13 14  1  0
 14 15  1  0
 15 16  2  0
 16 17  1  0
 17 18  2  0
 18 19  1  0
 19 20  2  0
 11 21  1  0
 21 22  1  0
 22 23  1  0
 23 24  2  0
 24 25  1  0
 25 26  2  0
 26 27  1  0
 27 28  2  0
 28 29  1  0
 29 30  2  0
 30 31  1  0
 31 32  2  0
 26 33  1  0
 33 34  2  0
  8 35  1  0
 35 36  2  0
  4 37  1  0
 37 38  2  0
 38  1  1  0
 36  5  1  0
 22  9  2  0
 34 23  1  0
 20 12  1  0
 32 27  1  0
 20 15  1  0
M  END
>  <Binding energies>  (51) 
[-5.16]

>  <Ligand effiencies>  (51) 
[-0.129]

>  <Interactions>  (51) 
["H-A:TYR:484:OH:4346, V-B:TYR:539:CE2:9848, V-B:TYR:539:CD2:9846, V-A:GLY:454:CA:4047, V-A:ILE:369:CD1:3237, V-B:ALA:541:CB:9864, V-A:ILE:369:CG2:3235, V-A:LEU:475:CD2:4257, V-A:TRP:381:CH2:3370, V-A:GLY:453:C:4040, V-B:GLU:543:CD:9880, H-A:ARG:545:NH2:4926, V-B:GLU:543:CB:9878, V-A:ARG:545:CD:4921, V-A:GLY:453:CA:4042, V-A:GLU:543:CD:4906, V-A:HIS:456:CE1:4068, V-A:ARG:545:CG:4920, V-B:GLU:543:CG:9879, V-A:TRP:381:CZ2:3368, V-A:TYR:539:CE2:4874, V-A:LYS:547:CE:4948, V-B:HIS:456:CD2:9040, V-B:HIS:456:CE1:9042, V-B:HIS:456:CG:9038, V-A:GLY:544:C:4910, V-A:GLU:543:CG:4905, V-A:GLY:544:CA:4912, V-A:GLU:543:C:4900, V-B:GLU:543:C:9874, V-A:TRP:381:CZ3:3369, V-A:ALA:541:CB:4890, V-A:TYR:539:CD2:4872, H-A:SER:385:O:3404"]

$$$$
RR4_Rahimova_2017
     RDKit          3D

 40 44  0  0  0  0  0  0  0  0999 V2000
  134.0880  125.1710   66.3750 C   0  0  0  0  0  0  0  0  0  0  0  0
  133.7280  124.4380   65.2090 O   0  0  0  0  0  0  0  0  0  0  0  0
  132.7170  124.9160   64.3980 C   0  0  0  0  0  0  0  0  0  0  0  0
  132.9510  124.8890   63.0250 C   0  0  0  0  0  0  0  0  0  0  0  0
  131.9890  125.3480   62.1320 C   0  0  0  0  0  0  0  0  0  0  0  0
  130.7610  125.8530   62.5860 C   0  0  0  0  0  0  0  0  0  0  0  0
  129.7250  126.3500   61.6180 C   0  0  0  0  0  0  0  0  0  0  0  0
  129.9350  127.4510   60.7830 C   0  0  0  0  0  0  0  0  0  0  0  0
  128.9380  127.8740   59.8940 C   0  0  0  0  0  0  0  0  0  0  0  0
  129.2450  129.0400   59.0120 C   0  0  0  0  0  0  0  0  0  0  0  0
  129.8420  130.1860   59.5460 C   0  0  0  0  0  0  0  0  0  0  0  0
  130.1420  131.2730   58.7300 C   0  0  0  0  0  0  0  0  0  0  0  0
  129.8570  131.2340   57.3650 C   0  0  0  0  0  0  0  0  0  0  0  0
  130.1900  132.3580   56.6340 O   0  0  0  0  0  0  0  0  0  0  0  0
  131.5630  132.6510   56.3960 C   0  0  0  0  0  0  0  0  0  0  0  0
  129.2630  130.0850   56.8240 C   0  0  0  0  0  0  0  0  0  0  0  0
  128.9640  128.9980   57.6420 C   0  0  0  0  0  0  0  0  0  0  0  0
  127.7050  127.1770   59.8830 C   0  0  0  0  0  0  0  0  0  0  0  0
  126.6280  127.5760   58.9710 C   0  0  0  0  0  0  0  0  0  0  0  0
  125.7780  127.8920   58.2520 N   0  0  0  0  0  0  0  0  0  0  0  0
  127.5500  126.0910   60.7750 C   0  0  0  0  0  0  0  0  0  0  0  0
  126.0690  125.1130   60.9060 S   0  0  0  0  0  0  0  0  0  0  0  0
  126.0690  123.9150   59.5300 C   0  0  0  0  0  0  0  0  0  0  0  0
  127.4010  123.8130   58.7740 C   0  0  0  0  0  0  0  0  0  0  0  0
  127.4210  123.5270   57.5750 O   0  0  0  0  0  0  0  0  0  0  0  0
  128.5000  124.0440   59.5300 N   0  0  0  0  0  0  0  0  0  0  0  0
  129.8410  124.0290   59.1400 C   0  0  0  0  0  0  0  0  0  0  0  0
  130.4400  124.9230   57.7680 S   0  0  0  0  0  0  0  0  0  0  0  0
  132.0580  124.3460   58.0270 C   0  0  0  0  0  0  0  0  0  0  0  0
  132.1280  123.4880   59.1360 C   0  0  0  0  0  0  0  0  0  0  0  0
  130.8750  123.3220   59.7740 C   0  0  0  0  0  0  0  0  0  0  0  0
  130.6800  122.4960   60.9610 C   0  0  0  0  0  0  0  0  0  0  0  0
  130.5260  121.8400   61.9020 N   0  0  0  0  0  0  0  0  0  0  0  0
  133.4570  122.8770   59.5940 C   0  0  0  0  0  0  0  0  0  0  0  0
  134.6500  123.6290   58.9630 C   0  0  0  0  0  0  0  0  0  0  0  0
  134.4490  123.8770   57.4570 C   0  0  0  0  0  0  0  0  0  0  0  0
  133.2400  124.7950   57.1780 C   0  0  0  0  0  0  0  0  0  0  0  0
  128.5420  125.6840   61.6010 N   0  0  0  0  0  0  0  0  0  0  0  0
  130.5330  125.8730   63.9710 C   0  0  0  0  0  0  0  0  0  0  0  0
  131.4930  125.4140   64.8670 C   0  0  0  0  0  0  0  0  0  0  0  0
  1  2  1  0
  2  3  1  0
  3  4  2  0
  4  5  1  0
  5  6  2  0
  6  7  1  0
  7  8  2  0
  8  9  1  0
  9 10  1  0
 10 11  2  0
 11 12  1  0
 12 13  2  0
 13 14  1  0
 14 15  1  0
 13 16  1  0
 16 17  2  0
  9 18  2  0
 18 19  1  0
 19 20  3  0
 18 21  1  0
 21 22  1  0
 22 23  1  0
 23 24  1  0
 24 25  2  0
 24 26  1  0
 26 27  1  0
 27 28  1  0
 28 29  1  0
 29 30  2  0
 30 31  1  0
 31 32  1  0
 32 33  3  0
 30 34  1  0
 34 35  1  0
 35 36  1  0
 36 37  1  0
 21 38  2  0
  6 39  1  0
 39 40  2  0
 40  3  1  0
 38  7  1  0
 17 10  1  0
 31 27  2  0
 37 29  1  0
M  END
>  <Binding energies>  (52) 
[-6.89]

>  <Ligand effiencies>  (52) 
[-0.16804878048780486]

>  <Interactions>  (52) 
["H-B:GLU:543:OE1:9881, H-A:TYR:484:OH:4346, V-A:ASP:366:CG:3211, V-B:TYR:539:CZ:9849, H-A:GLY:454:N:4048, V-A:ASP:366:CA:3208, V-B:TYR:539:CE2:9848, V-A:ASP:366:CB:3210, V-A:ILE:369:CD1:3237, V-A:ILE:369:CG2:3235, V-B:PRO:540:CA:9855, V-A:ARG:545:CZ:4924, V-A:TYR:484:CZ:4345, V-B:GLU:543:CD:9880, V-A:ARG:545:CD:4921, V-A:HIS:456:CE1:4068, V-A:ARG:545:CG:4920, V-A:ASP:366:C:3206, V-A:ILE:369:CB:3234, V-A:PRO:540:CB:4883, V-A:PRO:540:CA:4881, V-A:TYR:539:C:4865, H-B:ARG:545:NH2:9900, V-B:ASP:366:CG:8185, V-A:ARG:545:CB:4919, V-A:ILE:369:CG1:3236, V-B:PRO:540:CB:9857, V-A:PRO:540:N:4882, V-A:PRO:540:CD:4885, H-B:TYR:531:OH:9767, H-A:TYR:539:N:4868, V-A:TYR:539:CA:4867, V-A:ILE:538:CA:4858, V-A:ILE:538:CB:4860, V-A:ILE:538:C:4856"]

$$$$
RR6_Rahimova_2017
     RDKit          3D

 38 41  0  0  0  0  0  0  0  0999 V2000
  133.6000  122.1110   62.5250 C   0  0  0  0  0  0  0  0  0  0  0  0
  134.3710  121.3200   61.6310 O   0  0  0  0  0  0  0  0  0  0  0  0
  133.7720  120.5570   60.6800 C   0  0  0  0  0  0  0  0  0  0  0  0
  134.3180  119.5860   60.1460 O   0  0  0  0  0  0  0  0  0  0  0  0
  132.3810  121.0100   60.3440 C   0  0  0  0  0  0  0  0  0  0  0  0
  131.2550  120.2210   60.6190 C   0  0  0  0  0  0  0  0  0  0  0  0
  129.9770  120.6660   60.2880 C   0  0  0  0  0  0  0  0  0  0  0  0
  129.8050  121.9140   59.6690 C   0  0  0  0  0  0  0  0  0  0  0  0
  128.5660  122.4460   59.2680 N   0  0  0  0  0  0  0  0  0  0  0  0
  128.2260  123.0360   58.1010 C   0  0  0  0  0  0  0  0  0  0  0  0
  128.9780  123.2050   57.1400 O   0  0  0  0  0  0  0  0  0  0  0  0
  126.7950  123.5800   58.0270 C   0  0  0  0  0  0  0  0  0  0  0  0
  126.3480  124.6590   59.4280 S   0  0  0  0  0  0  0  0  0  0  0  0
  127.8050  125.5970   59.8390 C   0  0  0  0  0  0  0  0  0  0  0  0
  127.9290  126.7620   59.1590 N   0  0  0  0  0  0  0  0  0  0  0  0
  128.9850  127.5770   59.4070 C   0  0  0  0  0  0  0  0  0  0  0  0
  129.0150  128.8760   58.6560 C   0  0  0  0  0  0  0  0  0  0  0  0
  130.1840  129.6510   58.6010 C   0  0  0  0  0  0  0  0  0  0  0  0
  130.2090  130.8620   57.9150 C   0  0  0  0  0  0  0  0  0  0  0  0
  129.0640  131.3200   57.2650 C   0  0  0  0  0  0  0  0  0  0  0  0
  129.0930  132.6450   56.5270 C   0  0  0  0  0  0  0  0  0  0  0  0
  127.8940  130.5640   57.3060 C   0  0  0  0  0  0  0  0  0  0  0  0
  127.8750  129.3540   57.9920 C   0  0  0  0  0  0  0  0  0  0  0  0
  129.9550  127.2240   60.3510 C   0  0  0  0  0  0  0  0  0  0  0  0
  129.8510  126.0220   61.0650 C   0  0  0  0  0  0  0  0  0  0  0  0
  130.9120  125.7160   62.0700 C   0  0  0  0  0  0  0  0  0  0  0  0
  132.1860  125.3210   61.6490 C   0  0  0  0  0  0  0  0  0  0  0  0
  133.1860  125.0490   62.5790 C   0  0  0  0  0  0  0  0  0  0  0  0
  132.9350  125.1710   63.9450 C   0  0  0  0  0  0  0  0  0  0  0  0
  133.9860  124.8830   64.7940 O   0  0  0  0  0  0  0  0  0  0  0  0
  133.8290  125.1020   66.1920 C   0  0  0  0  0  0  0  0  0  0  0  0
  131.6600  125.5720   64.3720 C   0  0  0  0  0  0  0  0  0  0  0  0
  130.6620  125.8440   63.4400 C   0  0  0  0  0  0  0  0  0  0  0  0
  128.7460  125.1750   60.8000 C   0  0  0  0  0  0  0  0  0  0  0  0
  128.5920  123.8910   61.4900 C   0  0  0  0  0  0  0  0  0  0  0  0
  128.4700  122.8780   62.0370 N   0  0  0  0  0  0  0  0  0  0  0  0
  130.9220  122.7090   59.4100 C   0  0  0  0  0  0  0  0  0  0  0  0
  132.1980  122.2610   59.7390 C   0  0  0  0  0  0  0  0  0  0  0  0
  1  2  1  0
  2  3  1  0
  3  4  2  0
  3  5  1  0
  5  6  2  0
  6  7  1  0
  7  8  2  0
  8  9  1  0
  9 10  1  0
 10 11  2  0
 10 12  1  0
 12 13  1  0
 13 14  1  0
 14 15  2  0
 15 16  1  0
 16 17  1  0
 17 18  2  0
 18 19  1  0
 19 20  2  0
 20 21  1  0
 20 22  1  0
 22 23  2  0
 16 24  2  0
 24 25  1  0
 25 26  1  0
 26 27  2  0
 27 28  1  0
 28 29  2  0
 29 30  1  0
 30 31  1  0
 29 32  1  0
 32 33  2  0
 25 34  2  0
 34 35  1  0
 35 36  3  0
  8 37  1  0
 37 38  2  0
 38  5  1  0
 34 14  1  0
 23 17  1  0
 33 26  1  0
M  END
>  <Binding energies>  (53) 
[-6.6]

>  <Ligand effiencies>  (53) 
[-0.1692307692307692]

>  <Interactions>  (53) 
["H-A:TYR:484:OH:4346, V-A:ASP:366:CG:3211, H-A:GLY:454:N:4048, V-B:TYR:539:CE2:9848, V-B:TYR:539:CD2:9846, V-A:GLY:454:CA:4047, V-A:ILE:369:CD1:3237, V-B:ALA:541:CB:9864, V-A:ILE:369:CG2:3235, V-A:LEU:475:CD2:4257, V-A:TRP:381:CH2:3370, V-B:PRO:540:CA:9855, V-B:TYR:539:C:9839, V-B:PRO:540:N:9856, V-A:ARG:545:CZ:4924, V-A:TYR:484:CZ:4345, V-B:GLU:543:CD:9880, V-A:ARG:545:CD:4921, V-A:HIS:456:CE1:4068, V-A:ARG:545:CG:4920, H-B:ALA:541:N:9863, V-A:TRP:381:CZ2:3368, V-A:TYR:539:C:4865, H-A:ARG:545:NE:4922, V-A:TYR:539:CE2:4874, V-A:PRO:540:N:4882, V-A:TYR:539:CZ:4875, V-A:TYR:539:CD2:4872, V-A:TYR:539:CG:4870, V-A:TYR:539:CA:4867, V-A:TYR:539:CE1:4873, V-A:TYR:539:CD1:4871, H-B:TYR:539:O:9840"]

$$$$
RR7_Rahimova_2017
     RDKit          3D

 47 53  0  0  0  0  0  0  0  0999 V2000
  130.6850  125.5050   65.9230 C   0  0  0  0  0  0  0  0  0  0  0  0
  131.3250  124.7090   64.9310 O   0  0  0  0  0  0  0  0  0  0  0  0
  131.0750  124.9680   63.5970 C   0  0  0  0  0  0  0  0  0  0  0  0
  130.6220  123.8960   62.8300 C   0  0  0  0  0  0  0  0  0  0  0  0
  130.3380  124.0620   61.4780 C   0  0  0  0  0  0  0  0  0  0  0  0
  130.5140  125.3060   60.8550 C   0  0  0  0  0  0  0  0  0  0  0  0
  130.1730  125.5290   59.3490 C   0  0  0  0  0  0  0  0  0  0  0  0
  129.7900  126.9160   59.2190 O   0  0  0  0  0  0  0  0  0  0  0  0
  129.3150  127.4150   57.9640 C   0  0  0  0  0  0  0  0  0  0  0  0
  127.8540  127.8650   58.1250 C   0  0  1  0  0  0  0  0  0  0  0  0
  127.4850  127.5940   59.4740 O   0  0  0  0  0  0  0  0  0  0  0  0
  127.0790  128.7510   60.1480 C   0  0  1  0  0  0  0  0  0  0  0  0
  127.4490  128.6700   61.5480 N   0  0  0  0  0  0  0  0  0  0  0  0
  128.3990  127.8520   62.1330 C   0  0  0  0  0  0  0  0  0  0  0  0
  128.4980  127.9480   63.4350 N   0  0  0  0  0  0  0  0  0  0  0  0
  127.5270  128.8530   63.7700 C   0  0  0  0  0  0  0  0  0  0  0  0
  127.1130  129.3750   65.0110 C   0  0  0  0  0  0  0  0  0  0  0  0
  127.7780  128.9520   66.1780 N   0  0  0  0  0  0  0  0  0  0  0  0
  127.4460  127.9560   67.0320 C   0  0  0  0  0  0  0  0  0  0  0  0
  126.4460  127.2440   66.9160 O   0  0  0  0  0  0  0  0  0  0  0  0
  128.3810  127.7640   68.2080 C   0  0  0  0  0  0  0  0  0  0  0  0
  129.7650  127.6850   67.9890 C   0  0  0  0  0  0  0  0  0  0  0  0
  130.6420  127.5150   69.0560 C   0  0  0  0  0  0  0  0  0  0  0  0
  130.1440  127.4260   70.3520 C   0  0  0  0  0  0  0  0  0  0  0  0
  128.7750  127.5060   70.5910 C   0  0  0  0  0  0  0  0  0  0  0  0
  127.8960  127.6750   69.5240 C   0  0  0  0  0  0  0  0  0  0  0  0
  126.0810  130.2720   65.0470 N   0  0  0  0  0  0  0  0  0  0  0  0
  125.4990  130.6160   63.8690 C   0  0  0  0  0  0  0  0  0  0  0  0
  125.8200  130.1780   62.6220 N   0  0  0  0  0  0  0  0  0  0  0  0
  126.8380  129.3070   62.6170 C   0  0  0  0  0  0  0  0  0  0  0  0
  127.7150  129.9050   59.3810 C   0  0  0  0  0  0  0  0  0  0  0  0
  127.6170  129.3730   57.9620 C   0  0  2  0  0  0  0  0  0  0  0  0
  126.3620  129.6630   57.3700 O   0  0  0  0  0  0  0  0  0  0  0  0
  131.4030  125.3110   58.4270 C   0  0  0  0  0  0  0  0  0  0  0  0
  132.4020  124.3920   58.7840 C   0  0  0  0  0  0  0  0  0  0  0  0
  133.5150  124.1980   57.9730 C   0  0  0  0  0  0  0  0  0  0  0  0
  133.6410  124.9240   56.7920 C   0  0  0  0  0  0  0  0  0  0  0  0
  132.6630  125.8410   56.4180 C   0  0  0  0  0  0  0  0  0  0  0  0
  131.5500  126.0340   57.2310 C   0  0  0  0  0  0  0  0  0  0  0  0
  129.0500  124.6240   58.7680 C   0  0  0  0  0  0  0  0  0  0  0  0
  129.2770  123.8650   57.6090 C   0  0  0  0  0  0  0  0  0  0  0  0
  128.2750  123.0600   57.0760 C   0  0  0  0  0  0  0  0  0  0  0  0
  127.0290  123.0110   57.6940 C   0  0  0  0  0  0  0  0  0  0  0  0
  126.7770  123.7650   58.8370 C   0  0  0  0  0  0  0  0  0  0  0  0
  127.7810  124.5690   59.3680 C   0  0  0  0  0  0  0  0  0  0  0  0
  130.9580  126.3840   61.6350 C   0  0  0  0  0  0  0  0  0  0  0  0
  131.2400  126.2190   62.9880 C   0  0  0  0  0  0  0  0  0  0  0  0
  1  2  1  0
  2  3  1  0
  3  4  2  0
  4  5  1  0
  5  6  2  0
  6  7  1  0
  7  8  1  0
  8  9  1  0
 10  9  1  1
 10 11  1  0
 11 12  1  0
 12 13  1  1
 13 14  1  0
 14 15  2  0
 15 16  1  0
 16 17  2  0
 17 18  1  0
 18 19  1  0
 19 20  2  0
 19 21  1  0
 21 22  2  0
 22 23  1  0
 23 24  2  0
 24 25  1  0
 25 26  2  0
 17 27  1  0
 27 28  2  0
 28 29  1  0
 29 30  2  0
 12 31  1  0
 31 32  1  0
 32 33  1  1
  7 34  1  0
 34 35  2  0
 35 36  1  0
 36 37  2  0
 37 38  1  0
 38 39  2  0
  7 40  1  0
 40 41  2  0
 41 42  1  0
 42 43  2  0
 43 44  1  0
 44 45  2  0
  6 46  1  0
 46 47  2  0
 47  3  1  0
 32 10  1  0
 39 34  1  0
 45 40  1  0
 30 13  1  0
 30 16  1  0
 26 21  1  0
M  END
>  <Binding energies>  (54) 
[-6.83]

>  <Ligand effiencies>  (54) 
[-0.13938775510204082]

>  <Interactions>  (54) 
["H-A:TYR:484:OH:4346, V-A:ASP:366:CG:3211, V-B:TYR:539:CZ:9849, V-A:ASP:366:CA:3208, V-B:TYR:539:CE2:9848, V-B:TYR:539:CD2:9846, V-A:ASP:366:CB:3210, V-A:ILE:369:CG2:3235, V-B:PRO:540:CA:9855, V-B:TYR:539:C:9839, V-B:PRO:540:N:9856, V-B:TYR:539:CG:9844, V-B:TYR:539:CD1:9845, V-A:ARG:545:CZ:4924, V-B:GLU:543:CD:9880, V-B:GLU:543:CB:9878, V-A:GLU:543:CD:4906, V-A:HIS:456:CE1:4068, V-B:GLU:543:CG:9879, V-A:ASP:366:C:3206, H-A:GLU:543:OE1:4907, H-A:GLU:543:OE2:4908, V-B:HIS:456:CD2:9040, V-B:HIS:456:CE1:9042, V-B:GLY:544:C:9884, V-A:GLY:544:C:4910, V-A:GLU:543:CG:4905, V-A:GLY:544:CA:4912, V-B:ARG:545:CG:9894, V-A:GLU:543:C:4900, V-A:GLU:543:CB:4904, H-B:TYR:484:OH:9320, H-B:ARG:545:NE:9896, H-A:GLU:543:O:4901, V-A:TYR:531:CZ:4792, V-A:TYR:531:CE1:4790, H-B:ASP:366:OD2:8187, H-B:TYR:531:OH:9767"]

$$$$
RR8_A_Rahimova_2017
     RDKit          3D

 42 46  0  0  0  0  0  0  0  0999 V2000
  134.4140  123.8040   61.0170 O   0  0  0  0  0  0  0  0  0  0  0  0
  133.5870  123.3590   61.8200 C   0  0  0  0  0  0  0  0  0  0  0  0
  133.4580  123.7860   63.1150 O   0  0  0  0  0  0  0  0  0  0  0  0
  132.1900  124.2040   63.5370 C   0  0  1  0  0  0  0  0  0  0  0  0
  132.2570  124.9360   64.7260 O   0  0  0  0  0  0  0  0  0  0  0  0
  131.3330  126.0210   64.7330 C   0  0  2  0  0  0  0  0  0  0  0  0
  130.4340  125.8920   65.9750 C   0  0  0  0  0  0  0  0  0  0  0  0
  130.7140  126.9700   66.8570 O   0  0  0  0  0  0  0  0  0  0  0  0
  129.5610  127.6870   67.2780 C   0  0  0  0  0  0  0  0  0  0  0  0
  129.3700  127.5210   68.7780 C   0  0  0  0  0  0  0  0  0  0  0  0
  130.4800  127.3410   69.6070 C   0  0  0  0  0  0  0  0  0  0  0  0
  130.3080  127.1950   70.9810 C   0  0  0  0  0  0  0  0  0  0  0  0
  129.0250  127.2340   71.5240 C   0  0  0  0  0  0  0  0  0  0  0  0
  127.9130  127.4200   70.7060 C   0  0  0  0  0  0  0  0  0  0  0  0
  128.0850  127.5670   69.3320 C   0  0  0  0  0  0  0  0  0  0  0  0
  130.6150  125.8980   63.3820 C   0  0  1  0  0  0  0  0  0  0  0  0
  130.3480  127.1580   62.7720 O   0  0  0  0  0  0  0  0  0  0  0  0
  128.9790  127.5440   62.7250 C   0  0  0  0  0  0  0  0  0  0  0  0
  128.3120  126.9430   61.4950 C   0  0  0  0  0  0  0  0  0  0  0  0
  128.5420  127.5080   60.2370 C   0  0  0  0  0  0  0  0  0  0  0  0
  127.9280  126.9700   59.1090 C   0  0  0  0  0  0  0  0  0  0  0  0
  127.0820  125.8690   59.2420 C   0  0  0  0  0  0  0  0  0  0  0  0
  126.8420  125.3060   60.4930 C   0  0  0  0  0  0  0  0  0  0  0  0
  127.4550  125.8450   61.6210 C   0  0  0  0  0  0  0  0  0  0  0  0
  131.6290  125.1790   62.5110 C   0  0  2  0  0  0  0  0  0  0  0  0
  130.9840  124.5450   61.4090 O   0  0  0  0  0  0  0  0  0  0  0  0
  131.3150  125.0570   60.1230 C   0  0  0  0  0  0  0  0  0  0  0  0
  130.4100  124.4380   59.0700 C   0  0  0  0  0  0  0  0  0  0  0  0
  129.5400  123.3970   59.4130 C   0  0  0  0  0  0  0  0  0  0  0  0
  128.7060  122.8400   58.4480 C   0  0  0  0  0  0  0  0  0  0  0  0
  128.7400  123.3260   57.1430 C   0  0  0  0  0  0  0  0  0  0  0  0
  129.5980  124.3660   56.7940 C   0  0  0  0  0  0  0  0  0  0  0  0
  130.4340  124.9240   57.7590 C   0  0  0  0  0  0  0  0  0  0  0  0
  132.5990  122.2860   61.4640 C   0  0  0  0  0  0  0  0  0  0  0  0
  131.5380  121.9420   62.3160 C   0  0  0  0  0  0  0  0  0  0  0  0
  130.6390  120.9410   61.9580 C   0  0  0  0  0  0  0  0  0  0  0  0
  130.7760  120.2590   60.7420 C   0  0  0  0  0  0  0  0  0  0  0  0
  129.8160  119.1950   60.3610 N   0  0  0  0  0  0  0  0  0  0  0  0
  128.7540  119.1140   60.9710 O   0  0  0  0  0  0  0  0  0  0  0  0
  130.1170  118.4310   59.4470 O   0  0  0  0  0  0  0  0  0  0  0  0
  131.8360  120.6020   59.8940 C   0  0  0  0  0  0  0  0  0  0  0  0
  132.7360  121.6010   60.2500 C   0  0  0  0  0  0  0  0  0  0  0  0
  1  2  2  0
  2  3  1  0
  4  3  1  6
  4  5  1  0
  5  6  1  0
  6  7  1  1
  7  8  1  0
  8  9  1  0
  9 10  1  0
 10 11  2  0
 11 12  1  0
 12 13  2  0
 13 14  1  0
 14 15  2  0
  6 16  1  0
 16 17  1  6
 17 18  1  0
 18 19  1  0
 19 20  2  0
 20 21  1  0
 21 22  2  0
 22 23  1  0
 23 24  2  0
 16 25  1  0
 25 26  1  6
 26 27  1  0
 27 28  1  0
 28 29  2  0
 29 30  1  0
 30 31  2  0
 31 32  1  0
 32 33  2  0
  2 34  1  0
 34 35  2  0
 35 36  1  0
 36 37  2  0
 37 38  1  0
 38 39  2  0
 38 40  1  0
 37 41  1  0
 41 42  2  0
 25  4  1  0
 33 28  1  0
 42 34  1  0
 15 10  1  0
 24 19  1  0
M  CHG  2  38   1  40  -1
M  END
>  <Binding energies>  (55) 
[-7.89]

>  <Ligand effiencies>  (55) 
[-0.18785714285714286]

>  <Interactions>  (55) 
["H-A:TYR:484:OH:4346, V-B:TYR:539:CZ:9849, H-A:GLY:454:N:4048, V-B:TYR:539:CE2:9848, V-B:TYR:539:CD2:9846, V-A:GLY:454:CA:4047, V-A:ILE:369:CD1:3237, V-B:ALA:541:CB:9864, V-A:ILE:369:CG2:3235, V-A:LEU:475:CD2:4257, V-A:TRP:381:CH2:3370, V-B:TYR:539:C:9839, V-B:TYR:539:CG:9844, V-B:TYR:539:CE1:9847, V-B:TYR:539:CD1:9845, V-A:ARG:545:CZ:4924, V-B:GLU:543:CD:9880, H-A:ARG:545:NH2:4926, V-B:GLU:543:CB:9878, V-A:GLU:543:CD:4906, V-A:HIS:456:CE1:4068, V-B:GLU:543:CG:9879, H-B:ALA:541:N:9863, V-A:TRP:381:CZ2:3368, V-B:HIS:456:CD2:9040, V-A:HIS:456:CD2:4066, V-B:HIS:456:CE1:9042, V-B:GLY:544:C:9884, V-A:GLY:544:C:4910, V-A:GLU:543:CG:4905, V-A:GLY:544:CA:4912, V-A:GLU:543:C:4900, V-B:GLU:543:C:9874, V-A:TRP:381:CZ3:3369, V-A:PRO:482:CG:4325, V-A:PRO:482:CB:4324, V-A:GLU:543:CB:4904, V-B:GLY:544:CA:9886"]

$$$$
RR8_B_Rahimova_2017
     RDKit          3D

 42 46  0  0  0  0  0  0  0  0999 V2000
  128.4940  128.3160   61.9540 O   0  0  0  0  0  0  0  0  0  0  0  0
  129.6610  128.2710   61.5520 C   0  0  0  0  0  0  0  0  0  0  0  0
  130.6090  127.4090   62.0300 O   0  0  0  0  0  0  0  0  0  0  0  0
  130.2260  126.0840   62.3040 C   0  0  2  0  0  0  0  0  0  0  0  0
  130.2100  125.8190   63.6780 O   0  0  0  0  0  0  0  0  0  0  0  0
  131.4640  125.3060   64.1250 C   0  0  2  0  0  0  0  0  0  0  0  0
  132.0300  126.2210   65.2260 C   0  0  0  0  0  0  0  0  0  0  0  0
  131.2210  126.1080   66.3900 O   0  0  0  0  0  0  0  0  0  0  0  0
  131.2150  127.2550   67.2280 C   0  0  0  0  0  0  0  0  0  0  0  0
  129.9290  127.2750   68.0390 C   0  0  0  0  0  0  0  0  0  0  0  0
  128.6940  127.2940   67.3830 C   0  0  0  0  0  0  0  0  0  0  0  0
  127.5130  127.3380   68.1190 C   0  0  0  0  0  0  0  0  0  0  0  0
  127.5710  127.3610   69.5120 C   0  0  0  0  0  0  0  0  0  0  0  0
  128.7970  127.3360   70.1730 C   0  0  0  0  0  0  0  0  0  0  0  0
  129.9780  127.2950   69.4360 C   0  0  0  0  0  0  0  0  0  0  0  0
  132.3090  125.2070   62.8500 C   0  0  1  0  0  0  0  0  0  0  0  0
  133.1600  124.0580   62.9200 O   0  0  0  0  0  0  0  0  0  0  0  0
  132.5690  122.8390   63.3760 C   0  0  0  0  0  0  0  0  0  0  0  0
  132.1210  121.9470   62.2220 C   0  0  0  0  0  0  0  0  0  0  0  0
  133.0360  121.5610   61.2380 C   0  0  0  0  0  0  0  0  0  0  0  0
  132.6320  120.7210   60.2050 C   0  0  0  0  0  0  0  0  0  0  0  0
  131.3130  120.2720   60.1560 C   0  0  0  0  0  0  0  0  0  0  0  0
  130.3950  120.6560   61.1310 C   0  0  0  0  0  0  0  0  0  0  0  0
  130.8000  121.4940   62.1670 C   0  0  0  0  0  0  0  0  0  0  0  0
  131.2700  125.1240   61.7380 C   0  0  2  0  0  0  0  0  0  0  0  0
  131.8330  125.5500   60.5000 O   0  0  0  0  0  0  0  0  0  0  0  0
  132.1120  124.5190   59.5650 C   0  0  0  0  0  0  0  0  0  0  0  0
  130.8360  124.2140   58.7990 C   0  0  0  0  0  0  0  0  0  0  0  0
  129.8490  123.4030   59.3670 C   0  0  0  0  0  0  0  0  0  0  0  0
  128.6920  123.1140   58.6490 C   0  0  0  0  0  0  0  0  0  0  0  0
  128.5250  123.6340   57.3670 C   0  0  0  0  0  0  0  0  0  0  0  0
  129.5050  124.4450   56.7960 C   0  0  0  0  0  0  0  0  0  0  0  0
  130.6620  124.7350   57.5140 C   0  0  0  0  0  0  0  0  0  0  0  0
  130.2030  129.1930   60.4990 C   0  0  0  0  0  0  0  0  0  0  0  0
  130.4340  130.5530   60.7550 C   0  0  0  0  0  0  0  0  0  0  0  0
  130.9290  131.3860   59.7570 C   0  0  0  0  0  0  0  0  0  0  0  0
  131.1950  130.8850   58.4770 C   0  0  0  0  0  0  0  0  0  0  0  0
  131.6970  131.7820   57.4070 N   0  0  0  0  0  0  0  0  0  0  0  0
  130.9050  132.5390   56.8530 O   0  0  0  0  0  0  0  0  0  0  0  0
  132.8900  131.7380   57.1150 O   0  0  0  0  0  0  0  0  0  0  0  0
  130.9690  129.5260   58.2230 C   0  0  0  0  0  0  0  0  0  0  0  0
  130.4810  128.6900   59.2220 C   0  0  0  0  0  0  0  0  0  0  0  0
  1  2  2  0
  2  3  1  0
  4  3  1  1
  4  5  1  0
  5  6  1  0
  6  7  1  1
  7  8  1  0
  8  9  1  0
  9 10  1  0
 10 11  2  0
 11 12  1  0
 12 13  2  0
 13 14  1  0
 14 15  2  0
  6 16  1  0
 16 17  1  1
 17 18  1  0
 18 19  1  0
 19 20  2  0
 20 21  1  0
 21 22  2  0
 22 23  1  0
 23 24  2  0
 16 25  1  0
 25 26  1  6
 26 27  1  0
 27 28  1  0
 28 29  2  0
 29 30  1  0
 30 31  2  0
 31 32  1  0
 32 33  2  0
  2 34  1  0
 34 35  2  0
 35 36  1  0
 36 37  2  0
 37 38  1  0
 38 39  2  0
 38 40  1  0
 37 41  1  0
 41 42  2  0
 25  4  1  0
 33 28  1  0
 42 34  1  0
 15 10  1  0
 24 19  1  0
M  CHG  2  38   1  40  -1
M  END
>  <Binding energies>  (56) 
[-9.03]

>  <Ligand effiencies>  (56) 
[-0.215]

>  <Interactions>  (56) 
["H-A:TYR:484:OH:4346, V-A:ASP:366:CG:3211, V-B:TYR:539:CZ:9849, H-A:GLY:454:N:4048, V-B:TYR:539:CE2:9848, V-B:TYR:539:CD2:9846, V-A:GLY:454:CA:4047, V-B:ALA:541:CB:9864, V-A:ILE:369:CG2:3235, V-A:LEU:475:CD2:4257, V-A:TRP:381:CH2:3370, V-B:TYR:539:C:9839, V-A:ARG:545:CZ:4924, V-A:TYR:484:CZ:4345, V-B:GLU:543:CD:9880, H-A:ARG:545:NH2:4926, V-A:ARG:545:CD:4921, V-A:GLU:543:CD:4906, V-A:HIS:456:CE1:4068, V-A:ARG:545:CG:4920, V-B:GLU:543:CG:9879, V-A:TRP:381:CZ2:3368, H-A:TYR:531:OH:4793, V-A:PRO:540:CB:4883, V-A:PRO:540:CA:4881, V-A:TYR:539:C:4865, V-B:HIS:456:CE1:9042, V-B:GLY:544:C:9884, V-A:GLU:543:CG:4905, V-B:ARG:545:CG:9894, V-A:GLU:543:C:4900, V-B:GLU:543:C:9874, V-A:PRO:540:N:4882, V-A:PRO:540:CD:4885, H-A:TYR:539:N:4868"]

$$$$
RR9_Rahimova_2017
     RDKit          3D

 36 40  0  0  0  0  0  0  0  0999 V2000
  128.7700  129.2540   72.3550 C   0  0  0  0  0  0  0  0  0  0  0  0
  128.0570  127.9310   72.0580 C   0  0  0  0  0  0  0  0  0  0  0  0
  127.4130  128.0320   70.7910 O   0  0  0  0  0  0  0  0  0  0  0  0
  128.0850  127.6240   69.6550 C   0  0  0  0  0  0  0  0  0  0  0  0
  129.4600  127.4330   69.7780 C   0  0  0  0  0  0  0  0  0  0  0  0
  130.2190  127.0250   68.6860 C   0  0  0  0  0  0  0  0  0  0  0  0
  129.6240  126.7970   67.4370 C   0  0  0  0  0  0  0  0  0  0  0  0
  130.4380  126.3620   66.2550 C   0  0  0  0  0  0  0  0  0  0  0  0
  129.8650  126.2050   64.9830 C   0  0  0  0  0  0  0  0  0  0  0  0
  130.6360  125.8090   63.8760 C   0  0  0  0  0  0  0  0  0  0  0  0
  129.9850  125.7570   62.5200 C   0  0  0  0  0  0  0  0  0  0  0  0
  129.7130  126.7970   61.9200 O   0  0  0  0  0  0  0  0  0  0  0  0
  129.7130  124.5240   62.0480 N   0  0  0  0  0  0  0  0  0  0  0  0
  128.9700  124.2180   60.8210 C   0  0  0  0  0  0  0  0  0  0  0  0
  128.5350  122.7370   60.7300 C   0  0  0  0  0  0  0  0  0  0  0  0
  129.6850  121.7420   60.6220 C   0  0  0  0  0  0  0  0  0  0  0  0
  130.9670  122.1840   60.2780 C   0  0  0  0  0  0  0  0  0  0  0  0
  132.0210  121.2770   60.2140 C   0  0  0  0  0  0  0  0  0  0  0  0
  131.7910  119.9310   60.4890 C   0  0  0  0  0  0  0  0  0  0  0  0
  130.5160  119.4820   60.8270 C   0  0  0  0  0  0  0  0  0  0  0  0
  129.4610  120.3890   60.8920 C   0  0  0  0  0  0  0  0  0  0  0  0
  132.0060  125.5480   64.1260 C   0  0  0  0  0  0  0  0  0  0  0  0
  133.1760  125.1030   63.4070 C   0  0  0  0  0  0  0  0  0  0  0  0
  133.3040  124.6500   61.9900 C   0  0  0  0  0  0  0  0  0  0  0  0
  132.4830  125.1970   61.0000 C   0  0  0  0  0  0  0  0  0  0  0  0
  132.5920  124.7610   59.6810 C   0  0  0  0  0  0  0  0  0  0  0  0
  133.5270  123.7790   59.3480 C   0  0  0  0  0  0  0  0  0  0  0  0
  133.6340  123.2900   57.9150 C   0  0  0  0  0  0  0  0  0  0  0  0
  134.3470  123.2290   60.3340 C   0  0  0  0  0  0  0  0  0  0  0  0
  134.2380  123.6670   61.6510 C   0  0  0  0  0  0  0  0  0  0  0  0
  134.2300  125.1080   64.1930 N   0  0  0  0  0  0  0  0  0  0  0  0
  133.8280  125.4750   65.4200 N   0  0  0  0  0  0  0  0  0  0  0  0
  132.4800  125.7450   65.4450 C   0  0  0  0  0  0  0  0  0  0  0  0
  131.7590  126.1300   66.4970 N   0  0  0  0  0  0  0  0  0  0  0  0
  128.2400  126.9930   67.3200 C   0  0  0  0  0  0  0  0  0  0  0  0
  127.4770  127.4000   68.4120 C   0  0  0  0  0  0  0  0  0  0  0  0
  1  2  1  0
  2  3  1  0
  3  4  1  0
  4  5  2  0
  5  6  1  0
  6  7  2  0
  7  8  1  0
  8  9  2  0
  9 10  1  0
 10 11  1  0
 11 12  2  0
 11 13  1  0
 13 14  1  0
 14 15  1  0
 15 16  1  0
 16 17  2  0
 17 18  1  0
 18 19  2  0
 19 20  1  0
 20 21  2  0
 10 22  2  0
 22 23  1  0
 23 24  1  0
 24 25  2  0
 25 26  1  0
 26 27  2  0
 27 28  1  0
 27 29  1  0
 29 30  2  0
 23 31  2  0
 31 32  1  0
 32 33  1  0
 33 34  2  0
  7 35  1  0
 35 36  2  0
 36  4  1  0
 34  8  1  0
 21 16  1  0
 33 22  1  0
 30 24  1  0
M  END
>  <Binding energies>  (57) 
[-6.95]

>  <Ligand effiencies>  (57) 
[-0.18289473684210528]

>  <Interactions>  (57) 
["H-B:GLU:543:OE1:9881, H-A:TYR:484:OH:4346, V-A:ASP:366:CG:3211, V-B:TYR:539:CZ:9849, H-A:GLY:454:N:4048, V-B:TYR:539:CE2:9848, V-B:TYR:539:CD2:9846, V-A:GLY:454:CA:4047, V-A:ILE:369:CD1:3237, V-B:ALA:541:CB:9864, V-A:ILE:369:CG2:3235, V-A:LEU:475:CD2:4257, V-B:PRO:540:C:9853, H-A:ARG:545:NH1:4925, V-A:TRP:381:CH2:3370, V-B:PRO:540:CA:9855, V-A:GLY:453:C:4040, V-B:TYR:539:C:9839, V-A:ARG:545:CZ:4924, V-B:GLU:543:CD:9880, V-B:GLU:543:CB:9878, V-B:ALA:541:CA:9862, V-A:ARG:545:CD:4921, V-A:GLY:453:CA:4042, V-A:GLU:543:CD:4906, V-A:HIS:456:CE1:4068, V-A:ARG:545:CG:4920, V-B:GLU:543:CG:9879, V-A:TRP:381:CZ2:3368, V-A:ILE:369:CB:3234, H-A:ARG:545:NE:4922, V-A:LYS:547:CE:4948, V-B:HIS:456:CD2:9040, V-B:HIS:456:CE1:9042, V-B:GLY:544:C:9884, V-A:GLY:544:CA:4912, V-B:ARG:545:CG:9894, V-B:GLU:543:C:9874, V-A:PRO:482:CG:4325, V-A:PRO:482:CB:4324, V-A:ILE:369:CG1:3236, H-B:HIS:456:ND1:9039, H-A:HIS:456:ND1:4065, H-A:ILE:455:O:4051"]

$$$$
